
 OpenBabel10282417233D

 86 91  0  0  1  0  0  0  0  0999 V2000
   -3.7181    5.1000   25.5456 H   0  0  0  0  0  0  0  0  0  0  0  0
   -4.2164    4.5147   24.7647 C   0  0  1  0  0  0  0  0  0  0  0  0
   -5.3782    5.2359   24.3285 O   0  0  0  0  0  0  0  0  0  0  0  0
   -6.4274    5.3533   25.3357 C   0  0  2  0  0  0  0  0  0  0  0  0
   -6.0513    6.3215   26.4683 C   0  0  0  0  0  0  0  0  0  0  0  0
   -5.8133    7.6152   25.9264 O   0  0  0  0  0  0  0  0  0  0  0  0
   -6.8545    3.9536   25.8086 C   0  0  1  0  0  0  0  0  0  0  0  0
   -7.4161    3.2543   24.6866 O   0  0  0  0  0  0  0  0  0  0  0  0
   -5.6553    3.1627   26.3331 C   0  0  2  0  0  0  0  0  0  0  0  0
   -5.1339    3.7461   27.5332 O   0  0  0  0  0  0  0  0  0  0  0  0
   -4.5625    3.0892   25.2608 C   0  0  2  0  0  0  0  0  0  0  0  0
   -3.3938    2.4425   25.7880 O   0  0  0  0  0  0  0  0  0  0  0  0
   -3.1699    4.3773   23.6709 C   0  0  0  0  0  0  0  0  0  0  0  0
   -2.2722    4.2595   22.7327 C   0  0  0  0  0  0  0  0  0  0  0  0
   -1.2549    4.1351   21.6987 C   0  0  0  0  0  0  0  0  0  0  0  0
   -1.0095    5.2365   20.8587 C   0  0  0  0  0  0  0  0  0  0  0  0
   -0.0164    5.1994   19.8650 C   0  0  0  0  0  0  0  0  0  0  0  0
    0.7393    4.0506   19.6993 C   0  0  0  0  0  0  0  0  0  0  0  0
    1.8158    3.7751   18.7638 C   0  0  0  0  0  0  0  0  0  0  0  0
    2.3834    4.5772   17.7843 C   0  0  0  0  0  0  0  0  0  0  0  0
    3.4421    4.0855   16.9909 C   0  0  0  0  0  0  0  0  0  0  0  0
    3.9512    2.7963   17.1666 C   0  0  0  0  0  0  0  0  0  0  0  0
    3.3600    1.9925   18.1477 C   0  0  0  0  0  0  0  0  0  0  0  0
    2.2981    2.4744   18.9523 C   0  0  0  0  0  0  0  0  0  0  0  0
    1.4922    1.8058   20.1081 C   0  0  0  0  0  0  0  0  0  0  0  0
    0.7345    0.5593   19.6239 C   0  0  0  0  0  0  0  0  0  0  0  0
    1.7056   -0.5669   19.2732 C   0  0  0  0  0  0  0  0  0  0  0  0
    2.6376   -0.8268   20.3891 N   0  0  0  0  0  0  0  0  0  0  0  0
    3.3664    0.3353   20.9103 C   0  0  0  0  0  0  0  0  0  0  0  0
    2.4030    1.4486   21.2903 C   0  0  0  0  0  0  0  0  0  0  0  0
    2.7379   -2.1173   20.8837 C   0  0  0  0  0  0  0  0  0  0  0  0
    3.6612   -2.4045   22.0481 C   0  0  0  0  0  0  0  0  0  0  0  0
    2.0804   -3.0482   20.4107 O   0  0  0  0  0  0  0  0  0  0  0  0
    0.5040    2.9280   20.5170 C   0  0  0  0  0  0  0  0  0  0  0  0
   -0.4910    2.9604   21.5178 C   0  0  0  0  0  0  0  0  0  0  0  0
    5.0701    2.3120   16.3604 C   0  0  0  0  0  0  0  0  0  0  0  0
    5.9771    1.9123   15.6787 C   0  0  0  0  0  0  0  0  0  0  0  0
    7.0120    1.3374   14.7466 C   0  0  1  0  0  0  0  0  0  0  0  0
    6.5914    1.4494   13.7422 H   0  0  0  0  0  0  0  0  0  0  0  0
    8.2382    2.0892   14.7715 O   0  0  0  0  0  0  0  0  0  0  0  0
    9.3298    1.5607   13.9532 C   0  0  2  0  0  0  0  0  0  0  0  0
    9.0843    1.8064   12.4455 C   0  0  0  0  0  0  0  0  0  0  0  0
    8.9513    3.1976   12.1830 O   0  0  0  0  0  0  0  0  0  0  0  0
    9.6200    0.0780   14.2760 C   0  0  1  0  0  0  0  0  0  0  0  0
   10.1026   -0.0358   15.6224 O   0  0  0  0  0  0  0  0  0  0  0  0
    8.3441   -0.7475   14.1352 C   0  0  2  0  0  0  0  0  0  0  0  0
    7.9412   -0.8161   12.7666 O   0  0  0  0  0  0  0  0  0  0  0  0
    7.2507   -0.1636   15.0527 C   0  0  2  0  0  0  0  0  0  0  0  0
    6.0808   -0.9761   14.9134 O   0  0  0  0  0  0  0  0  0  0  0  0
   -7.2782    5.7982   24.8019 H   0  0  0  0  0  0  0  0  0  0  0  0
   -6.8450    6.3751   27.2215 H   0  0  0  0  0  0  0  0  0  0  0  0
   -5.1255    6.0792   26.9804 H   0  0  0  0  0  0  0  0  0  0  0  0
   -5.0825    7.5055   25.2885 H   0  0  0  0  0  0  0  0  0  0  0  0
   -7.6309    4.0173   26.5800 H   0  0  0  0  0  0  0  0  0  0  0  0
   -7.1259    3.7200   23.8762 H   0  0  0  0  0  0  0  0  0  0  0  0
   -5.9565    2.1469   26.6109 H   0  0  0  0  0  0  0  0  0  0  0  0
   -4.4510    4.3973   27.2998 H   0  0  0  0  0  0  0  0  0  0  0  0
   -4.9289    2.4869   24.4184 H   0  0  0  0  0  0  0  0  0  0  0  0
   -3.5746    2.1679   26.7051 H   0  0  0  0  0  0  0  0  0  0  0  0
   -1.5927    6.1475   20.9738 H   0  0  0  0  0  0  0  0  0  0  0  0
    0.1569    6.0673   19.2383 H   0  0  0  0  0  0  0  0  0  0  0  0
    2.0199    5.5863   17.6277 H   0  0  0  0  0  0  0  0  0  0  0  0
    3.8710    4.7321   16.2316 H   0  0  0  0  0  0  0  0  0  0  0  0
    3.7664    0.9938   18.2532 H   0  0  0  0  0  0  0  0  0  0  0  0
    0.0964    0.8008   18.7640 H   0  0  0  0  0  0  0  0  0  0  0  0
    0.0649    0.1987   20.4173 H   0  0  0  0  0  0  0  0  0  0  0  0
    2.2855   -0.3102   18.3857 H   0  0  0  0  0  0  0  0  0  0  0  0
    1.1497   -1.4603   18.9734 H   0  0  0  0  0  0  0  0  0  0  0  0
    3.9936    0.1184   21.7677 H   0  0  0  0  0  0  0  0  0  0  0  0
    4.0821    0.6588   20.1567 H   0  0  0  0  0  0  0  0  0  0  0  0
    2.9627    2.3241   21.6412 H   0  0  0  0  0  0  0  0  0  0  0  0
    1.7968    1.1027   22.1403 H   0  0  0  0  0  0  0  0  0  0  0  0
    3.0666   -2.7885   22.8815 H   0  0  0  0  0  0  0  0  0  0  0  0
    4.3924   -3.1579   21.7439 H   0  0  0  0  0  0  0  0  0  0  0  0
    4.2237   -1.5591   22.4269 H   0  0  0  0  0  0  0  0  0  0  0  0
   -0.6696    2.0939   22.1506 H   0  0  0  0  0  0  0  0  0  0  0  0
   10.2128    2.1517   14.2346 H   0  0  0  0  0  0  0  0  0  0  0  0
    9.8925    1.3889   11.8332 H   0  0  0  0  0  0  0  0  0  0  0  0
    8.1519    1.3940   12.0737 H   0  0  0  0  0  0  0  0  0  0  0  0
    8.2058    3.4970   12.7365 H   0  0  0  0  0  0  0  0  0  0  0  0
   10.4076   -0.3061   13.6146 H   0  0  0  0  0  0  0  0  0  0  0  0
    9.7752   -0.8733   15.9990 H   0  0  0  0  0  0  0  0  0  0  0  0
    8.5423   -1.7849   14.4268 H   0  0  0  0  0  0  0  0  0  0  0  0
    7.2802   -0.1290   12.5957 H   0  0  0  0  0  0  0  0  0  0  0  0
    7.5805   -0.2647   16.0948 H   0  0  0  0  0  0  0  0  0  0  0  0
    5.4365   -0.5283   14.3421 H   0  0  0  0  0  0  0  0  0  0  0  0
  2  1  1  1  0  0  0
  2  3  1  0  0  0  0
  2 13  1  0  0  0  0
  4  3  1  0  0  0  0
  4  5  1  0  0  0  0
  4 50  1  6  0  0  0
  5  6  1  0  0  0  0
  5 51  1  0  0  0  0
  5 52  1  0  0  0  0
  6 53  1  0  0  0  0
  7  4  1  0  0  0  0
  7  9  1  0  0  0  0
  7 54  1  1  0  0  0
  7  8  1  0  0  0  0
  8 55  1  0  0  0  0
  9 10  1  0  0  0  0
  9 11  1  0  0  0  0
  9 56  1  1  0  0  0
 10 57  1  0  0  0  0
 11  2  1  0  0  0  0
 11 58  1  6  0  0  0
 11 12  1  0  0  0  0
 12 59  1  0  0  0  0
 13 14  3  0  0  0  0
 14 15  1  0  0  0  0
 15 16  2  0  0  0  0
 15 35  1  0  0  0  0
 16 17  1  0  0  0  0
 16 60  1  0  0  0  0
 17 18  2  0  0  0  0
 17 61  1  0  0  0  0
 18 19  1  0  0  0  0
 18 34  1  0  0  0  0
 19 20  2  0  0  0  0
 19 24  1  0  0  0  0
 20 21  1  0  0  0  0
 20 62  1  0  0  0  0
 21 22  2  0  0  0  0
 21 63  1  0  0  0  0
 22 23  1  0  0  0  0
 22 36  1  0  0  0  0
 23 24  2  0  0  0  0
 23 64  1  0  0  0  0
 24 25  1  0  0  0  0
 25 26  1  0  0  0  0
 25 30  1  0  0  0  0
 25 34  1  0  0  0  0
 26 27  1  0  0  0  0
 26 65  1  0  0  0  0
 26 66  1  0  0  0  0
 27 28  1  0  0  0  0
 27 67  1  0  0  0  0
 27 68  1  0  0  0  0
 28 29  1  0  0  0  0
 28 31  1  0  0  0  0
 29 30  1  0  0  0  0
 29 69  1  0  0  0  0
 29 70  1  0  0  0  0
 30 71  1  0  0  0  0
 30 72  1  0  0  0  0
 31 32  1  0  0  0  0
 31 33  2  0  0  0  0
 32 73  1  0  0  0  0
 32 74  1  0  0  0  0
 32 75  1  0  0  0  0
 34 35  2  0  0  0  0
 35 76  1  0  0  0  0
 36 37  3  0  0  0  0
 38 40  1  0  0  0  0
 38 39  1  6  0  0  0
 38 37  1  0  0  0  0
 41 40  1  0  0  0  0
 41 42  1  0  0  0  0
 41 77  1  1  0  0  0
 42 43  1  0  0  0  0
 42 78  1  0  0  0  0
 42 79  1  0  0  0  0
 43 80  1  0  0  0  0
 44 41  1  0  0  0  0
 44 46  1  0  0  0  0
 44 81  1  6  0  0  0
 44 45  1  0  0  0  0
 45 82  1  0  0  0  0
 46 47  1  0  0  0  0
 46 48  1  0  0  0  0
 46 83  1  1  0  0  0
 47 84  1  0  0  0  0
 48 38  1  0  0  0  0
 48 85  1  1  0  0  0
 48 49  1  0  0  0  0
 49 86  1  0  0  0  0
M  END
>  <DRUGBANK_ID>
DB16400

>  <COMMON_NAME>
Sibofimloc

>  <CAS_NUMBER>
1616113-45-1

>  <UNII>
00OF00QZC4

>  <SYNONYMS>
Sibofimloc

$$$$
