T3O
 OpenBabel10282417173D

 41 43  0  0  0  0  0  0  0  0999 V2000
    0.1890   -0.0112   -1.5101 C   0  0  0  0  0  0  0  0  0  0  0  0
   -0.2412   -1.1917   -0.6255 C   0  0  1  0  0  0  0  0  0  0  0  0
    0.8357   -1.4042    0.4583 C   0  0  0  0  0  0  0  0  0  0  0  0
    0.9851   -2.7825    1.0381 C   0  0  0  0  0  0  0  0  0  0  0  0
    1.6331   -0.4110    0.8651 C   0  0  0  0  0  0  0  0  0  0  0  0
    1.5916    0.9761    0.2977 C   0  0  0  0  0  0  0  0  0  0  0  0
    0.3817    1.2230   -0.6113 C   0  0  2  0  0  0  0  0  0  0  0  0
   -0.9301    1.5399    0.1516 C   0  0  0  0  0  0  0  0  0  0  0  0
   -1.8556    2.2550   -0.8521 C   0  0  0  0  0  0  0  0  0  0  0  0
   -0.7627    2.5693    1.2861 C   0  0  0  0  0  0  0  0  0  0  0  0
   -1.5191    0.3742    0.7777 O   0  0  0  0  0  0  0  0  0  0  0  0
   -1.6290   -0.8637    0.0161 C   0  0  1  0  0  0  0  0  0  0  0  0
   -2.8470   -0.8047   -0.9197 C   0  0  0  0  0  0  0  0  0  0  0  0
   -3.0407   -1.6473   -2.0198 C   0  0  0  0  0  0  0  0  0  0  0  0
   -4.0059   -1.3284   -2.9927 C   0  0  0  0  0  0  0  0  0  0  0  0
   -4.6976   -0.1239   -2.9092 C   0  0  0  0  0  0  0  0  0  0  0  0
   -5.5367    0.3190   -3.8845 O   0  0  0  0  0  0  0  0  0  0  0  0
   -4.5701    0.6671   -1.7898 C   0  0  0  0  0  0  0  0  0  0  0  0
   -3.7917    0.2142   -0.7292 C   0  0  0  0  0  0  0  0  0  0  0  0
   -0.2959   -2.0927   -1.2484 H   0  0  0  0  0  0  0  0  0  0  0  0
    0.6277    2.0857   -1.2442 H   0  0  0  0  0  0  0  0  0  0  0  0
   -1.8672   -1.6542    0.7421 H   0  0  0  0  0  0  0  0  0  0  0  0
   -0.5533    0.1703   -2.2951 H   0  0  0  0  0  0  0  0  0  0  0  0
    1.1234   -0.2419   -2.0383 H   0  0  0  0  0  0  0  0  0  0  0  0
    0.0546   -3.1169    1.5011 H   0  0  0  0  0  0  0  0  0  0  0  0
    1.2767   -3.4921    0.2582 H   0  0  0  0  0  0  0  0  0  0  0  0
    1.7670   -2.8064    1.8073 H   0  0  0  0  0  0  0  0  0  0  0  0
    2.3740   -0.5731    1.6492 H   0  0  0  0  0  0  0  0  0  0  0  0
    2.5026    1.1270   -0.2930 H   0  0  0  0  0  0  0  0  0  0  0  0
    1.6493    1.7093    1.1040 H   0  0  0  0  0  0  0  0  0  0  0  0
   -2.7969    2.5515   -0.3787 H   0  0  0  0  0  0  0  0  0  0  0  0
   -1.4128    3.1699   -1.2526 H   0  0  0  0  0  0  0  0  0  0  0  0
   -2.0567    1.6316   -1.7231 H   0  0  0  0  0  0  0  0  0  0  0  0
   -0.0674    2.2467    2.0640 H   0  0  0  0  0  0  0  0  0  0  0  0
   -0.4296    3.5344    0.8894 H   0  0  0  0  0  0  0  0  0  0  0  0
   -1.7171    2.7245    1.8063 H   0  0  0  0  0  0  0  0  0  0  0  0
   -2.4372   -2.5414   -2.1496 H   0  0  0  0  0  0  0  0  0  0  0  0
   -4.1624   -1.9976   -3.8316 H   0  0  0  0  0  0  0  0  0  0  0  0
   -5.7656   -0.4297   -4.4558 H   0  0  0  0  0  0  0  0  0  0  0  0
   -5.0192    1.6563   -1.7517 H   0  0  0  0  0  0  0  0  0  0  0  0
   -3.7652    0.8072    0.1824 H   0  0  0  0  0  0  0  0  0  0  0  0
  1  2  1  0  0  0  0
  1  7  1  0  0  0  0
  1 23  1  0  0  0  0
  1 24  1  0  0  0  0
  2  3  1  0  0  0  0
  2 12  1  0  0  0  0
  2 20  1  6  0  0  0
  3  4  1  0  0  0  0
  3  5  2  0  0  0  0
  4 25  1  0  0  0  0
  4 26  1  0  0  0  0
  4 27  1  0  0  0  0
  5  6  1  0  0  0  0
  5 28  1  0  0  0  0
  6  7  1  0  0  0  0
  6 29  1  0  0  0  0
  6 30  1  0  0  0  0
  7  8  1  0  0  0  0
  7 21  1  6  0  0  0
  8  9  1  0  0  0  0
  8 10  1  0  0  0  0
  8 11  1  0  0  0  0
  9 31  1  0  0  0  0
  9 32  1  0  0  0  0
  9 33  1  0  0  0  0
 10 34  1  0  0  0  0
 10 35  1  0  0  0  0
 10 36  1  0  0  0  0
 11 12  1  0  0  0  0
 12 22  1  1  0  0  0
 12 13  1  0  0  0  0
 13 14  1  0  0  0  0
 13 19  2  0  0  0  0
 14 15  2  0  0  0  0
 14 37  1  0  0  0  0
 15 16  1  0  0  0  0
 15 38  1  0  0  0  0
 16 17  1  0  0  0  0
 16 18  2  0  0  0  0
 17 39  1  0  0  0  0
 18 19  1  0  0  0  0
 18 40  1  0  0  0  0
 19 41  1  0  0  0  0
M  END
>  <DRUGBANK_ID>
DB08595

>  <COMMON_NAME>
4-[(1S,2R,5S)-4,4,8-TRIMETHYL-3-OXABICYCLO[3.3.1]NON-7-EN-2-YL]PHENOL

$$$$
