
 OpenBabel10282417113D

 37 39  0  0  1  0  0  0  0  0999 V2000
   -0.2657    1.1438    3.2661 Cl  0  0  0  0  0  0  0  0  0  0  0  0
    3.9624   -1.2627    1.2405 S   0  0  0  0  0  0  0  0  0  0  0  0
    0.4926    1.3386   -0.1418 N   0  0  0  0  0  0  0  0  0  0  0  0
    0.1234   -0.0635    0.1533 C   0  0  0  0  0  0  0  0  0  0  0  0
    1.6422    1.8105    0.6097 C   0  0  0  0  0  0  0  0  0  0  0  0
   -0.5266    2.4340    0.0072 C   0  0  1  0  0  0  0  0  0  0  0  0
    1.3655   -1.0301   -0.0120 C   0  0  0  0  0  0  0  0  0  0  0  0
    2.6971    0.8816    0.9109 C   0  0  0  0  0  0  0  0  0  0  0  0
    2.5842   -0.4557    0.6672 C   0  0  0  0  0  0  0  0  0  0  0  0
   -0.4761    3.2876    1.3732 C   0  0  0  0  0  0  0  0  0  0  0  0
    3.7362    1.2328    1.8082 C   0  0  0  0  0  0  0  0  0  0  0  0
    4.5799    0.1723    1.9845 C   0  0  0  0  0  0  0  0  0  0  0  0
   -0.2030    2.7968    2.7040 C   0  0  0  0  0  0  0  0  0  0  0  0
   -0.5396    4.6914    1.2608 C   0  0  0  0  0  0  0  0  0  0  0  0
    0.2920    3.6472    3.7062 C   0  0  0  0  0  0  0  0  0  0  0  0
   -0.2626    5.5317    2.3513 C   0  0  0  0  0  0  0  0  0  0  0  0
    0.2066    5.0151    3.5520 C   0  0  0  0  0  0  0  0  0  0  0  0
   -0.2221    3.3338   -1.3138 C   0  0  0  0  0  0  0  0  0  0  0  0
   -1.0803    3.6616   -2.1474 O   0  0  0  0  0  0  0  0  0  0  0  0
    1.0983    3.6874   -1.4398 O   0  0  0  0  0  0  0  0  0  0  0  0
    1.5014    4.3794   -2.6324 C   0  0  0  0  0  0  0  0  0  0  0  0
   -1.5560    2.0749   -0.1210 H   0  0  0  0  0  0  0  0  0  0  0  0
   -0.2848   -0.1923    1.1565 H   0  0  0  0  0  0  0  0  0  0  0  0
   -0.6793   -0.4148   -0.5129 H   0  0  0  0  0  0  0  0  0  0  0  0
    1.9963    2.8170    0.3908 H   0  0  0  0  0  0  0  0  0  0  0  0
    1.3081    1.8442    1.6128 H   0  0  0  0  0  0  0  0  0  0  0  0
    1.1216   -2.0248    0.3770 H   0  0  0  0  0  0  0  0  0  0  0  0
    1.5812   -1.1154   -1.0821 H   0  0  0  0  0  0  0  0  0  0  0  0
    3.8284    2.2126    2.2738 H   0  0  0  0  0  0  0  0  0  0  0  0
    5.5025    0.1884    2.5435 H   0  0  0  0  0  0  0  0  0  0  0  0
   -0.7806    5.1754    0.3165 H   0  0  0  0  0  0  0  0  0  0  0  0
    0.7406    3.2372    4.6131 H   0  0  0  0  0  0  0  0  0  0  0  0
   -0.3780    6.6072    2.2489 H   0  0  0  0  0  0  0  0  0  0  0  0
    0.4759    5.6638    4.3800 H   0  0  0  0  0  0  0  0  0  0  0  0
    1.3022    3.7789   -3.5259 H   0  0  0  0  0  0  0  0  0  0  0  0
    1.0039    5.3504   -2.6921 H   0  0  0  0  0  0  0  0  0  0  0  0
    2.5840    4.5578   -2.5877 H   0  0  0  0  0  0  0  0  0  0  0  0
  1 13  1  0  0  0  0
  2  9  1  0  0  0  0
  2 12  1  0  0  0  0
  3  4  1  0  0  0  0
  3  5  1  0  0  0  0
  4  7  1  0  0  0  0
  4 23  1  0  0  0  0
  4 24  1  0  0  0  0
  5  8  1  0  0  0  0
  5 25  1  0  0  0  0
  5 26  1  0  0  0  0
  6 18  1  0  0  0  0
  6 22  1  6  0  0  0
  6 10  1  0  0  0  0
  6  3  1  0  0  0  0
  7  9  1  0  0  0  0
  7 27  1  0  0  0  0
  7 28  1  0  0  0  0
  8  9  2  0  0  0  0
  8 11  1  0  0  0  0
 10 13  1  0  0  0  0
 10 14  2  0  0  0  0
 11 12  2  0  0  0  0
 11 29  1  0  0  0  0
 12 30  1  0  0  0  0
 13 15  2  0  0  0  0
 14 16  1  0  0  0  0
 14 31  1  0  0  0  0
 15 17  1  0  0  0  0
 15 32  1  0  0  0  0
 16 17  2  0  0  0  0
 16 33  1  0  0  0  0
 17 34  1  0  0  0  0
 18 19  2  0  0  0  0
 18 20  1  0  0  0  0
 20 21  1  0  0  0  0
 21 35  1  0  0  0  0
 21 36  1  0  0  0  0
 21 37  1  0  0  0  0
M  END
>  <DRUGBANK_ID>
DB00758

>  <SECONDARY_ACCESSION_NUMBERS>
APRD00444

>  <COMMON_NAME>
Clopidogrel

>  <CAS_NUMBER>
113665-84-2

>  <UNII>
A74586SNO7

>  <SYNONYMS>
(+)-Clopidogrel; Clopidogrel; Clopidogrelum

$$$$
