3DE
 OpenBabel10282417163D

 35 36  0  0  0  0  0  0  0  0999 V2000
    1.0326    0.0313    0.1025 C   0  0  0  0  0  0  0  0  0  0  0  0
    0.3347    0.6054    1.1287 O   0  0  0  0  0  0  0  0  0  0  0  0
   -1.0772    0.4685    1.4994 C   0  0  0  0  0  0  0  0  0  0  0  0
   -1.9236    1.2452    0.5494 C   0  0  0  0  0  0  0  0  0  0  0  0
    0.3646   -0.5715   -1.0158 C   0  0  0  0  0  0  0  0  0  0  0  0
    0.5852   -1.9224   -1.4971 C   0  0  0  0  0  0  0  0  0  0  0  0
   -0.3782   -2.1884   -2.5086 N   0  3  0  0  0  0  0  0  0  0  0  0
    1.7857   -2.7328   -1.2288 C   0  0  0  0  0  0  0  0  0  0  0  0
   -0.4965    0.0153   -2.0251 C   0  0  0  0  0  0  0  0  0  0  0  0
   -1.0155    1.3957   -2.1132 C   0  0  0  0  0  0  0  0  0  0  0  0
   -0.9366   -1.0270   -2.8864 N   0  0  0  0  0  0  0  0  0  0  0  0
   -1.7540   -0.8299   -4.0642 C   0  0  0  0  0  0  0  0  0  0  0  0
   -2.9582   -1.4966   -4.1922 C   0  0  0  0  0  0  0  0  0  0  0  0
   -3.7960   -1.1013   -5.2365 C   0  0  0  0  0  0  0  0  0  0  0  0
   -3.4302   -0.0464   -6.0881 C   0  0  0  0  0  0  0  0  0  0  0  0
   -2.2372    0.6441   -5.8950 C   0  0  0  0  0  0  0  0  0  0  0  0
   -1.3718    0.2186   -4.9032 C   0  0  0  0  0  0  0  0  0  0  0  0
    2.2725   -0.0058    0.1478 O   0  0  0  0  0  0  0  0  0  0  0  0
   -1.3606   -0.5873    1.4835 H   0  0  0  0  0  0  0  0  0  0  0  0
   -1.2154    0.8802    2.5016 H   0  0  0  0  0  0  0  0  0  0  0  0
   -1.8787    0.5720   -0.2821 H   0  0  0  0  0  0  0  0  0  0  0  0
   -3.0013    1.3298    0.6707 H   0  0  0  0  0  0  0  0  0  0  0  0
   -1.4945    2.2323    0.3369 H   0  0  0  0  0  0  0  0  0  0  0  0
   -0.5648   -3.0911   -2.9521 H   0  0  0  0  0  0  0  0  0  0  0  0
    2.6701   -2.1618   -1.5430 H   0  0  0  0  0  0  0  0  0  0  0  0
    1.8782   -2.9638   -0.1670 H   0  0  0  0  0  0  0  0  0  0  0  0
    1.7744   -3.6559   -1.8143 H   0  0  0  0  0  0  0  0  0  0  0  0
   -0.9184    1.9056   -3.0632 H   0  0  0  0  0  0  0  0  0  0  0  0
   -2.1030    1.3535   -1.9415 H   0  0  0  0  0  0  0  0  0  0  0  0
   -0.4944    2.0093   -1.3830 H   0  0  0  0  0  0  0  0  0  0  0  0
   -3.2825   -2.2456   -3.4790 H   0  0  0  0  0  0  0  0  0  0  0  0
   -4.7589   -1.5873   -5.3821 H   0  0  0  0  0  0  0  0  0  0  0  0
   -4.0819    0.2443   -6.9103 H   0  0  0  0  0  0  0  0  0  0  0  0
   -1.9875    1.5097   -6.5055 H   0  0  0  0  0  0  0  0  0  0  0  0
   -0.4194    0.7249   -4.7722 H   0  0  0  0  0  0  0  0  0  0  0  0
  1  2  1  0  0  0  0
  1  5  1  0  0  0  0
  1 18  2  0  0  0  0
  2  3  1  0  0  0  0
  3  4  1  0  0  0  0
  3 19  1  0  0  0  0
  3 20  1  0  0  0  0
  4 21  1  0  0  0  0
  4 22  1  0  0  0  0
  4 23  1  0  0  0  0
  5  6  1  0  0  0  0
  5  9  2  0  0  0  0
  6  7  2  0  0  0  0
  6  8  1  0  0  0  0
  7 11  1  0  0  0  0
  7 24  1  0  0  0  0
  8 25  1  0  0  0  0
  8 26  1  0  0  0  0
  8 27  1  0  0  0  0
  9 10  1  0  0  0  0
  9 11  1  0  0  0  0
 10 28  1  0  0  0  0
 10 29  1  0  0  0  0
 10 30  1  0  0  0  0
 11 12  1  0  0  0  0
 12 13  2  0  0  0  0
 12 17  1  0  0  0  0
 13 14  1  0  0  0  0
 13 31  1  0  0  0  0
 14 15  2  0  0  0  0
 14 32  1  0  0  0  0
 15 16  1  0  0  0  0
 15 33  1  0  0  0  0
 16 17  2  0  0  0  0
 16 34  1  0  0  0  0
 17 35  1  0  0  0  0
M  CHG  1   7   1
M  END
>  <DRUGBANK_ID>
DB07051

>  <COMMON_NAME>
3,5-DIMETHYL-1-PHENYL-1H-PYRAZOLE-4-CARBOXYLIC ACID ETHYL ESTER

$$$$
