
 OpenBabel10282417133D

 54 54  0  0  0  0  0  0  0  0999 V2000
    0.4725    4.7493    3.5041 I   0  0  0  0  0  0  0  0  0  0  0  0
    6.2645    3.2252    0.2315 S   0  0  0  0  0  0  0  0  0  0  0  0
    8.6694   -0.1964   -1.7156 O   0  0  0  0  0  0  0  0  0  0  0  0
    7.3500    4.7544   -3.5038 O   0  0  0  0  0  0  0  0  0  0  0  0
    6.3157    0.9954    1.6939 O   0  0  0  0  0  0  0  0  0  0  0  0
    9.4192    4.6958   -4.4954 O   0  0  0  0  0  0  0  0  0  0  0  0
    4.1927    0.7554   -1.1251 O   0  0  0  0  0  0  0  0  0  0  0  0
    9.9449    3.6369   -6.3218 O   0  0  0  0  0  0  0  0  0  0  0  0
   11.0040    3.6710    0.8247 O   0  0  0  0  0  0  0  0  0  0  0  0
   10.6339    1.9396   -0.5607 O   0  0  0  0  0  0  0  0  0  0  0  0
    7.5019    1.6122   -1.9987 N   0  0  0  0  0  0  0  0  0  0  0  0
    8.9572    3.9037   -2.1349 N   0  0  0  0  0  0  0  0  0  0  0  0
    6.9348    2.5727   -6.0633 N   0  0  0  0  0  0  0  0  0  0  0  0
    4.4420    1.2152    0.1923 N   0  0  0  0  0  0  0  0  0  0  0  0
    6.7206    2.7882   -2.4009 C   0  0  1  0  0  0  0  0  0  0  0  0
    8.7777    1.1255   -4.9450 C   0  0  0  0  0  0  0  0  0  0  0  0
    9.4547    1.1240   -3.5596 C   0  0  0  0  0  0  0  0  0  0  0  0
    5.8316    3.5815   -1.4614 C   0  0  0  0  0  0  0  0  0  0  0  0
    8.0975    2.4913   -5.1535 C   0  0  1  0  0  0  0  0  0  0  0  0
    8.5165    0.8166   -2.4068 C   0  0  0  0  0  0  0  0  0  0  0  0
    7.7050    3.8744   -2.7100 C   0  0  0  0  0  0  0  0  0  0  0  0
    5.8578    1.4322    0.4292 C   0  0  1  0  0  0  0  0  0  0  0  0
    9.1766    3.6773   -5.3669 C   0  0  0  0  0  0  0  0  0  0  0  0
    9.1794    3.8325   -0.7162 C   0  0  0  0  0  0  0  0  0  0  0  0
    3.5355    2.0426    0.8746 C   0  0  0  0  0  0  0  0  0  0  0  0
    3.9436    2.9269    1.9019 C   0  0  0  0  0  0  0  0  0  0  0  0
    2.1806    1.9999    0.5975 C   0  0  0  0  0  0  0  0  0  0  0  0
   10.3593    3.0372   -0.1923 C   0  0  0  0  0  0  0  0  0  0  0  0
    3.1002    3.7409    2.6111 C   0  0  0  0  0  0  0  0  0  0  0  0
    1.2969    2.7656    1.3602 C   0  0  0  0  0  0  0  0  0  0  0  0
    1.7588    3.6308    2.3562 C   0  0  0  0  0  0  0  0  0  0  0  0
    5.9234    1.5855    2.3347 H   0  0  0  0  0  0  0  0  0  0  0  0
    8.6595    5.0964   -4.0017 H   0  0  0  0  0  0  0  0  0  0  0  0
    3.2743    0.4306   -1.1074 H   0  0  0  0  0  0  0  0  0  0  0  0
   10.6742    4.5586    1.0454 H   0  0  0  0  0  0  0  0  0  0  0  0
    6.9728    0.9829   -1.4647 H   0  0  0  0  0  0  0  0  0  0  0  0
    9.7178    4.3341   -2.6554 H   0  0  0  0  0  0  0  0  0  0  0  0
    6.0634    2.4083   -5.5431 H   0  0  0  0  0  0  0  0  0  0  0  0
    6.9700    1.8197   -6.7434 H   0  0  0  0  0  0  0  0  0  0  0  0
    6.0615    2.4770   -3.2255 H   0  0  0  0  0  0  0  0  0  0  0  0
    9.5074    0.9811   -5.7428 H   0  0  0  0  0  0  0  0  0  0  0  0
    8.0716    0.2800   -4.9782 H   0  0  0  0  0  0  0  0  0  0  0  0
    9.9495    2.0715   -3.3600 H   0  0  0  0  0  0  0  0  0  0  0  0
   10.2535    0.3717   -3.5323 H   0  0  0  0  0  0  0  0  0  0  0  0
    4.7765    3.5308   -1.7492 H   0  0  0  0  0  0  0  0  0  0  0  0
    6.0234    4.6689   -1.5901 H   0  0  0  0  0  0  0  0  0  0  0  0
    7.5579    2.4662   -4.2599 H   0  0  0  0  0  0  0  0  0  0  0  0
    6.3483    0.6611   -0.1361 H   0  0  0  0  0  0  0  0  0  0  0  0
    9.0879    4.8465   -0.3183 H   0  0  0  0  0  0  0  0  0  0  0  0
    8.4092    3.2342   -0.3050 H   0  0  0  0  0  0  0  0  0  0  0  0
    4.9694    3.0988    2.1967 H   0  0  0  0  0  0  0  0  0  0  0  0
    1.7797    1.3498   -0.1719 H   0  0  0  0  0  0  0  0  0  0  0  0
    3.5434    4.4053    3.3466 H   0  0  0  0  0  0  0  0  0  0  0  0
    0.2371    2.6555    1.1718 H   0  0  0  0  0  0  0  0  0  0  0  0
  1 31  1  0  0  0  0
  2 18  1  0  0  0  0
  2 22  1  0  0  0  0
  3 20  2  0  0  0  0
  4 21  2  0  0  0  0
  5 32  1  0  0  0  0
  6 23  1  0  0  0  0
  6 33  1  0  0  0  0
  7 14  1  0  0  0  0
  7 34  1  0  0  0  0
  8 23  2  0  0  0  0
  9 28  1  0  0  0  0
  9 35  1  0  0  0  0
 10 28  2  0  0  0  0
 11 20  1  0  0  0  0
 11 36  1  0  0  0  0
 12 21  1  0  0  0  0
 12 24  1  0  0  0  0
 12 37  1  0  0  0  0
 13 38  1  0  0  0  0
 13 39  1  0  0  0  0
 14 22  1  0  0  0  0
 14 25  1  0  0  0  0
 15 21  1  0  0  0  0
 15 40  1  6  0  0  0
 15 18  1  0  0  0  0
 15 11  1  0  0  0  0
 16 17  1  0  0  0  0
 16 41  1  0  0  0  0
 16 42  1  0  0  0  0
 17 20  1  0  0  0  0
 17 43  1  0  0  0  0
 17 44  1  0  0  0  0
 18 45  1  0  0  0  0
 18 46  1  0  0  0  0
 19 23  1  0  0  0  0
 19 47  1  1  0  0  0
 19 16  1  0  0  0  0
 19 13  1  0  0  0  0
 22  5  1  0  0  0  0
 22 48  1  6  0  0  0
 24 28  1  0  0  0  0
 24 49  1  0  0  0  0
 24 50  1  0  0  0  0
 25 26  2  0  0  0  0
 25 27  1  0  0  0  0
 26 29  1  0  0  0  0
 26 51  1  0  0  0  0
 27 30  2  0  0  0  0
 27 52  1  0  0  0  0
 29 31  2  0  0  0  0
 29 53  1  0  0  0  0
 30 31  1  0  0  0  0
 30 54  1  0  0  0  0
M  END
>  <DRUGBANK_ID>
DB03330

>  <SECONDARY_ACCESSION_NUMBERS>
EXPT01593

>  <COMMON_NAME>
S-(N-hydroxy-N-iodophenylcarbamoyl)glutathione

>  <SYNONYMS>
(2S)-2-Amino-5-[[(2R)-1-(carboxymethylamino)-3-[(R)-hydroxy-(N-hydroxy-4-iodoanilino)methyl]sulfanyl-1-oxopropan-2-yl]amino]-5-oxopentanoic acid

$$$$
