D93
 OpenBabel10282417163D

 58 62  0  0  0  0  0  0  0  0999 V2000
    5.4344  -10.7588    2.2399 Cl  0  0  0  0  0  0  0  0  0  0  0  0
    4.6537   -9.9020    0.9663 C   0  0  0  0  0  0  0  0  0  0  0  0
    3.9092  -10.5499   -0.0173 C   0  0  0  0  0  0  0  0  0  0  0  0
    3.2482   -9.8472   -1.0626 C   0  0  0  0  0  0  0  0  0  0  0  0
    3.5433   -8.4915   -1.2026 C   0  0  0  0  0  0  0  0  0  0  0  0
    3.1101   -7.4600   -2.0444 N   0  0  0  0  0  0  0  0  0  0  0  0
    4.8863   -8.5538    0.8463 C   0  0  0  0  0  0  0  0  0  0  0  0
    4.4879   -7.9465   -0.3673 C   0  0  0  0  0  0  0  0  0  0  0  0
    4.8595   -6.7369   -0.9945 C   0  0  0  0  0  0  0  0  0  0  0  0
    3.7787   -6.2468   -1.7631 C   0  0  0  0  0  0  0  0  0  0  0  0
    3.1689   -4.8568   -2.1118 C   0  0  0  0  0  0  0  0  0  0  0  0
    2.3817   -4.7757   -3.0623 O   0  0  0  0  0  0  0  0  0  0  0  0
    3.2754   -3.6241   -1.3570 N   0  0  0  0  0  0  0  0  0  0  0  0
    3.8879   -3.2762   -0.0168 C   0  0  2  0  0  0  0  0  0  0  0  0
    4.5071   -4.5335    0.4277 C   0  0  0  0  0  0  0  0  0  0  0  0
    3.3185   -5.5281    0.7992 C   0  0  0  0  0  0  0  0  0  0  0  0
    2.4188   -5.1864    1.9215 C   0  0  0  0  0  0  0  0  0  0  0  0
    1.8965   -3.8210    1.5634 C   0  0  0  0  0  0  0  0  0  0  0  0
    3.0600   -2.8559    1.2504 C   0  0  1  0  0  0  0  0  0  0  0  0
    3.9823   -2.8199    2.4522 N   0  0  0  0  0  0  0  0  0  0  0  0
    4.1001   -1.7233    3.2973 C   0  0  0  0  0  0  0  0  0  0  0  0
    3.4756   -0.7163    3.0456 O   0  0  0  0  0  0  0  0  0  0  0  0
    5.0005   -1.8857    4.4679 C   0  0  0  0  0  0  0  0  0  0  0  0
    4.5864   -1.1456    5.9841 S   0  0  0  0  0  0  0  0  0  0  0  0
    6.0758   -1.6521    6.6471 C   0  0  0  0  0  0  0  0  0  0  0  0
    6.5676   -1.3926    8.0545 C   0  0  0  0  0  0  0  0  0  0  0  0
    8.0369   -1.6259    8.1868 N   0  0  0  0  0  0  0  0  0  0  0  0
    8.7983   -0.4780    7.6793 C   0  0  0  0  0  0  0  0  0  0  0  0
    8.4292   -2.8750    7.4839 C   0  0  0  0  0  0  0  0  0  0  0  0
    8.1722   -2.8313    5.9592 C   0  0  0  0  0  0  0  0  0  0  0  0
    6.7867   -2.3469    5.6863 C   0  0  0  0  0  0  0  0  0  0  0  0
    6.1583   -2.5264    4.4575 N   0  0  0  0  0  0  0  0  0  0  0  0
    4.6498   -2.5047   -0.2214 H   0  0  0  0  0  0  0  0  0  0  0  0
    2.6398   -1.8671    1.0798 H   0  0  0  0  0  0  0  0  0  0  0  0
    3.8575  -11.6325    0.0116 H   0  0  0  0  0  0  0  0  0  0  0  0
    2.6361  -10.3638   -1.7882 H   0  0  0  0  0  0  0  0  0  0  0  0
    2.2929   -7.5032   -2.6372 H   0  0  0  0  0  0  0  0  0  0  0  0
    5.4016   -7.9923    1.6280 H   0  0  0  0  0  0  0  0  0  0  0  0
    5.6699   -6.2508   -0.4739 H   0  0  0  0  0  0  0  0  0  0  0  0
    2.8770   -2.8323   -1.8580 H   0  0  0  0  0  0  0  0  0  0  0  0
    5.1419   -4.6487   -0.4584 H   0  0  0  0  0  0  0  0  0  0  0  0
    5.2670   -4.4853    1.2034 H   0  0  0  0  0  0  0  0  0  0  0  0
    3.6650   -6.4932    1.0996 H   0  0  0  0  0  0  0  0  0  0  0  0
    2.5710   -5.6495   -0.0007 H   0  0  0  0  0  0  0  0  0  0  0  0
    2.9988   -5.2768    2.8406 H   0  0  0  0  0  0  0  0  0  0  0  0
    1.6181   -5.9426    1.9597 H   0  0  0  0  0  0  0  0  0  0  0  0
    1.2708   -3.4797    2.3847 H   0  0  0  0  0  0  0  0  0  0  0  0
    1.2622   -3.9093    0.6676 H   0  0  0  0  0  0  0  0  0  0  0  0
    4.4828   -3.6576    2.7396 H   0  0  0  0  0  0  0  0  0  0  0  0
    6.0671   -2.0814    8.7501 H   0  0  0  0  0  0  0  0  0  0  0  0
    6.3228   -0.3824    8.4065 H   0  0  0  0  0  0  0  0  0  0  0  0
    8.5558   -0.2344    6.6399 H   0  0  0  0  0  0  0  0  0  0  0  0
    8.6010    0.4158    8.2791 H   0  0  0  0  0  0  0  0  0  0  0  0
    9.8766   -0.6699    7.7354 H   0  0  0  0  0  0  0  0  0  0  0  0
    9.4879   -3.0960    7.6715 H   0  0  0  0  0  0  0  0  0  0  0  0
    7.8731   -3.7136    7.9273 H   0  0  0  0  0  0  0  0  0  0  0  0
    8.8869   -2.1397    5.4952 H   0  0  0  0  0  0  0  0  0  0  0  0
    8.3294   -3.8162    5.5166 H   0  0  0  0  0  0  0  0  0  0  0  0
  1  2  1  0  0  0  0
  2  7  2  0  0  0  0
  2  3  1  0  0  0  0
  3  4  2  0  0  0  0
  3 35  1  0  0  0  0
  4  5  1  0  0  0  0
  4 36  1  0  0  0  0
  5  8  2  0  0  0  0
  5  6  1  0  0  0  0
  6 10  1  0  0  0  0
  6 37  1  0  0  0  0
  7  8  1  0  0  0  0
  7 38  1  0  0  0  0
  8  9  1  0  0  0  0
  9 10  2  0  0  0  0
  9 39  1  0  0  0  0
 10 11  1  0  0  0  0
 11 12  2  0  0  0  0
 11 13  1  0  0  0  0
 13 40  1  0  0  0  0
 14 19  1  0  0  0  0
 14 15  1  0  0  0  0
 14 33  1  6  0  0  0
 14 13  1  0  0  0  0
 15 16  1  0  0  0  0
 15 41  1  0  0  0  0
 15 42  1  0  0  0  0
 16 17  1  0  0  0  0
 16 43  1  0  0  0  0
 16 44  1  0  0  0  0
 17 18  1  0  0  0  0
 17 45  1  0  0  0  0
 17 46  1  0  0  0  0
 18 19  1  0  0  0  0
 18 47  1  0  0  0  0
 18 48  1  0  0  0  0
 19 20  1  0  0  0  0
 19 34  1  6  0  0  0
 20 21  1  0  0  0  0
 20 49  1  0  0  0  0
 21 23  1  0  0  0  0
 21 22  2  0  0  0  0
 23 32  2  0  0  0  0
 23 24  1  0  0  0  0
 24 25  1  0  0  0  0
 25 26  1  0  0  0  0
 25 31  2  0  0  0  0
 26 27  1  0  0  0  0
 26 50  1  0  0  0  0
 26 51  1  0  0  0  0
 27 28  1  0  0  0  0
 27 29  1  0  0  0  0
 28 52  1  0  0  0  0
 28 53  1  0  0  0  0
 28 54  1  0  0  0  0
 29 30  1  0  0  0  0
 29 55  1  0  0  0  0
 29 56  1  0  0  0  0
 30 31  1  0  0  0  0
 30 57  1  0  0  0  0
 30 58  1  0  0  0  0
 31 32  1  0  0  0  0
M  END
>  <DRUGBANK_ID>
DB07630

>  <COMMON_NAME>
N-((1R,2R)-2-(5-CHLORO-1H-INDOLE-2-CARBOXAMIDO)CYCLOHEXYL)-5-METHYL-4,5,6,7-TETRAHYDROTHIAZOLO[5,4-C]PYRIDINE-2-CARBOXAMIDE

$$$$
