
 OpenBabel10282417123D

 14 13  0  0  0  0  0  0  0  0999 V2000
    1.0476    0.0867    0.0146 C   0  0  0  0  0  0  0  0  0  0  0  0
    0.5409    1.5125    0.1594 C   0  0  0  0  0  0  0  0  0  0  0  0
    1.1942    2.5934   -1.3394 Se  0  0  0  0  0  0  0  0  0  0  0  0
    3.1542    2.5934   -1.3395 C   0  0  0  0  0  0  0  0  0  0  0  0
    3.8892    1.8487   -0.3069 N   0  0  0  0  0  0  0  0  0  0  0  0
    3.8121    3.2598   -2.2636 N   0  0  0  0  0  0  0  0  0  0  0  0
    0.6909   -0.3268   -0.9056 H   0  0  0  0  0  0  0  0  0  0  0  0
    0.6909   -0.5033    0.8328 H   0  0  0  0  0  0  0  0  0  0  0  0
    2.1176    0.0867    0.0146 H   0  0  0  0  0  0  0  0  0  0  0  0
   -0.5291    1.5125    0.1594 H   0  0  0  0  0  0  0  0  0  0  0  0
    0.8976    1.9260    1.0795 H   0  0  0  0  0  0  0  0  0  0  0  0
    4.9092    1.8487   -0.3069 H   0  0  0  0  0  0  0  0  0  0  0  0
    3.3792    1.3320    0.4096 H   0  0  0  0  0  0  0  0  0  0  0  0
    4.8321    3.2598   -2.2636 H   0  0  0  0  0  0  0  0  0  0  0  0
  1  2  1  0  0  0  0
  1  7  1  0  0  0  0
  1  8  1  0  0  0  0
  1  9  1  0  0  0  0
  2  3  1  0  0  0  0
  2 10  1  0  0  0  0
  2 11  1  0  0  0  0
  3  4  1  0  0  0  0
  4  5  1  0  0  0  0
  4  6  2  0  0  0  0
  5 12  1  0  0  0  0
  5 13  1  0  0  0  0
  6 14  1  0  0  0  0
M  END
>  <DRUGBANK_ID>
DB02589

>  <SECONDARY_ACCESSION_NUMBERS>
EXPT01939

>  <COMMON_NAME>
Se-Ethyl-Isoselenourea

$$$$
