
 OpenBabel10282417213D

 54 56  0  0  0  0  0  0  0  0999 V2000
    0.6099    0.0870    0.2301 C   0  0  0  0  0  0  0  0  0  0  0  0
    0.5415   -4.2895   -1.0669 C   0  0  0  0  0  0  0  0  0  0  0  0
   -4.0838    2.2293   -6.6877 C   0  0  0  0  0  0  0  0  0  0  0  0
    0.2379   -1.3336   -0.1905 C   0  0  0  0  0  0  0  0  0  0  0  0
    0.2846   -3.7348    0.3195 C   0  0  0  0  0  0  0  0  0  0  0  0
    3.5869    2.3790   -1.2802 C   0  0  0  0  0  0  0  0  0  0  0  0
    4.1550    1.4645   -0.4104 C   0  0  0  0  0  0  0  0  0  0  0  0
    2.7859    1.9404   -2.3396 C   0  0  0  0  0  0  0  0  0  0  0  0
    3.8505    0.1272   -0.5562 C   0  0  0  0  0  0  0  0  0  0  0  0
   -0.5044    0.4872   -5.4717 C   0  0  0  0  0  0  0  0  0  0  0  0
   -1.6181   -1.6431   -5.3417 C   0  0  0  0  0  0  0  0  0  0  0  0
   -1.7012    1.1064   -5.8035 C   0  0  0  0  0  0  0  0  0  0  0  0
   -2.8377   -1.0024   -5.5812 C   0  0  0  0  0  0  0  0  0  0  0  0
    2.3324   -2.4412    0.6219 C   0  0  0  0  0  0  0  0  0  0  0  0
    3.1646   -2.6148   -0.7026 C   0  0  0  0  0  0  0  0  0  0  0  0
    0.9023   -1.5689   -5.1126 C   0  0  0  0  0  0  0  0  0  0  0  0
   -0.4355   -0.8985   -5.2984 C   0  0  0  0  0  0  0  0  0  0  0  0
   -2.8736    0.3626   -5.8830 C   0  0  0  0  0  0  0  0  0  0  0  0
    2.5939    0.5779   -2.5714 C   0  0  0  0  0  0  0  0  0  0  0  0
    1.6540   -1.0872   -3.8884 C   0  0  0  0  0  0  0  0  0  0  0  0
    3.1059   -0.3360   -1.6485 C   0  0  0  0  0  0  0  0  0  0  0  0
    2.1877   -2.1714   -2.9596 C   0  0  0  0  0  0  0  0  0  0  0  0
    1.8615    0.1813   -3.6934 N   0  0  0  0  0  0  0  0  0  0  0  0
    0.8577   -2.4114    0.5996 N   0  0  0  0  0  0  0  0  0  0  0  0
    2.8118   -1.7092   -1.7949 N   0  0  0  0  0  0  0  0  0  0  0  0
    2.0310   -3.3265   -3.2824 O   0  0  0  0  0  0  0  0  0  0  0  0
   -4.0897    0.8700   -6.2540 O   0  0  0  0  0  0  0  0  0  0  0  0
    0.1570    0.3806    1.1761 H   0  0  0  0  0  0  0  0  0  0  0  0
    0.3203    0.8016   -0.5505 H   0  0  0  0  0  0  0  0  0  0  0  0
    1.6724    0.2115    0.3863 H   0  0  0  0  0  0  0  0  0  0  0  0
    1.5832   -4.5641   -1.2000 H   0  0  0  0  0  0  0  0  0  0  0  0
    0.0063   -5.2161   -1.2637 H   0  0  0  0  0  0  0  0  0  0  0  0
    0.2284   -3.5640   -1.8181 H   0  0  0  0  0  0  0  0  0  0  0  0
   -3.8213    2.8975   -5.8601 H   0  0  0  0  0  0  0  0  0  0  0  0
   -3.4099    2.3817   -7.5404 H   0  0  0  0  0  0  0  0  0  0  0  0
   -5.0935    2.4872   -7.0165 H   0  0  0  0  0  0  0  0  0  0  0  0
   -0.8545   -1.3995   -0.1343 H   0  0  0  0  0  0  0  0  0  0  0  0
    0.4536   -1.4533   -1.2499 H   0  0  0  0  0  0  0  0  0  0  0  0
    0.6648   -4.4467    1.0620 H   0  0  0  0  0  0  0  0  0  0  0  0
   -0.7985   -3.6908    0.4669 H   0  0  0  0  0  0  0  0  0  0  0  0
    3.7567    3.4368   -1.1182 H   0  0  0  0  0  0  0  0  0  0  0  0
    4.7920    1.7620    0.4153 H   0  0  0  0  0  0  0  0  0  0  0  0
    2.3095    2.6669   -2.9916 H   0  0  0  0  0  0  0  0  0  0  0  0
    4.1337   -0.5116    0.2702 H   0  0  0  0  0  0  0  0  0  0  0  0
    0.3802    1.1091   -5.3599 H   0  0  0  0  0  0  0  0  0  0  0  0
   -1.5983   -2.7224   -5.2023 H   0  0  0  0  0  0  0  0  0  0  0  0
   -1.6696    2.1713   -5.9992 H   0  0  0  0  0  0  0  0  0  0  0  0
   -3.7583   -1.5794   -5.5530 H   0  0  0  0  0  0  0  0  0  0  0  0
    2.6399   -1.5420    1.1653 H   0  0  0  0  0  0  0  0  0  0  0  0
    2.6614   -3.2307    1.3134 H   0  0  0  0  0  0  0  0  0  0  0  0
    4.2308   -2.4735   -0.4952 H   0  0  0  0  0  0  0  0  0  0  0  0
    3.1418   -3.6418   -1.0536 H   0  0  0  0  0  0  0  0  0  0  0  0
    1.5309   -1.3618   -5.9883 H   0  0  0  0  0  0  0  0  0  0  0  0
    0.7592   -2.6536   -5.0971 H   0  0  0  0  0  0  0  0  0  0  0  0
  1 28  1  0  0  0  0
  1 29  1  0  0  0  0
  1 30  1  0  0  0  0
  2 31  1  0  0  0  0
  2 32  1  0  0  0  0
  2 33  1  0  0  0  0
  3 34  1  0  0  0  0
  3 35  1  0  0  0  0
  3 36  1  0  0  0  0
  4  1  1  0  0  0  0
  4 37  1  0  0  0  0
  4 38  1  0  0  0  0
  5  2  1  0  0  0  0
  5 39  1  0  0  0  0
  5 40  1  0  0  0  0
  6 41  1  0  0  0  0
  7  6  2  0  0  0  0
  7 42  1  0  0  0  0
  8  6  1  0  0  0  0
  8 43  1  0  0  0  0
  9  7  1  0  0  0  0
  9 44  1  0  0  0  0
 10 45  1  0  0  0  0
 11 46  1  0  0  0  0
 12 10  1  0  0  0  0
 12 47  1  0  0  0  0
 13 11  2  0  0  0  0
 13 48  1  0  0  0  0
 14 49  1  0  0  0  0
 14 50  1  0  0  0  0
 15 14  1  0  0  0  0
 15 51  1  0  0  0  0
 15 52  1  0  0  0  0
 16 53  1  0  0  0  0
 16 54  1  0  0  0  0
 17 10  2  0  0  0  0
 17 11  1  0  0  0  0
 17 16  1  0  0  0  0
 18 12  2  0  0  0  0
 18 13  1  0  0  0  0
 19  8  2  0  0  0  0
 20 16  1  0  0  0  0
 21  9  2  0  0  0  0
 21 19  1  0  0  0  0
 22 20  1  0  0  0  0
 23 19  1  0  0  0  0
 23 20  2  0  0  0  0
 24  4  1  0  0  0  0
 24  5  1  0  0  0  0
 24 14  1  0  0  0  0
 25 15  1  0  0  0  0
 25 21  1  0  0  0  0
 25 22  1  0  0  0  0
 26 22  2  0  0  0  0
 27  3  1  0  0  0  0
 27 18  1  0  0  0  0
M  END
>  <DRUGBANK_ID>
DB13835

>  <COMMON_NAME>
Caroverine

>  <CAS_NUMBER>
23465-76-1

>  <UNII>
XJ73B0K6KB

>  <SYNONYMS>
Caroverine

$$$$
