
 OpenBabel10282417213D

 68 71  0  0  0  0  0  0  0  0999 V2000
    1.3623   -0.6635    2.4432 C   0  0  1  0  0  0  0  0  0  0  0  0
    5.0759    1.3247    0.5121 C   0  0  2  0  0  0  0  0  0  0  0  0
    0.2983   -0.9117    1.1881 C   0  0  0  0  0  0  0  0  0  0  0  0
    5.5238    2.8413   -0.2133 C   0  0  1  0  0  0  0  0  0  0  0  0
    2.5184    0.3900    2.1655 C   0  0  2  0  0  0  0  0  0  0  0  0
    2.5048    0.8107    0.7190 C   0  0  2  0  0  0  0  0  0  0  0  0
    3.6005    1.7956    0.4346 C   0  0  2  0  0  0  0  0  0  0  0  0
    2.0472   -1.9766    2.3243 C   0  0  0  0  0  0  0  0  0  0  0  0
    5.1672    0.9003    2.0854 C   0  0  0  0  0  0  0  0  0  0  0  0
    3.9985   -0.0403    2.5734 C   0  0  2  0  0  0  0  0  0  0  0  0
    1.2027    1.4415    0.3123 C   0  0  0  0  0  0  0  0  0  0  0  0
    0.2575   -2.2636    0.6657 C   0  0  0  0  0  0  0  0  0  0  0  0
   -0.0066    0.4780    0.3827 C   0  0  2  0  0  0  0  0  0  0  0  0
    5.4377    2.4666   -1.7153 C   0  0  0  0  0  0  0  0  0  0  0  0
    4.9585    3.6977    0.8993 C   0  0  0  0  0  0  0  0  0  0  0  0
    3.6098    3.1189    1.2217 C   0  0  0  0  0  0  0  0  0  0  0  0
    1.4153   -3.0824    2.7246 C   0  0  0  0  0  0  0  0  0  0  0  0
    0.9209   -3.5299    1.4481 C   0  0  0  0  0  0  0  0  0  0  0  0
    6.4236    0.4536   -5.1369 C   0  0  0  0  0  0  0  0  0  0  0  0
    5.6345    3.4088   -4.3421 C   0  0  0  0  0  0  0  0  0  0  0  0
    4.2188    2.6323   -2.6472 C   0  0  0  0  0  0  0  0  0  0  0  0
    6.4705   -0.4906   -6.1137 O   0  0  0  0  0  0  0  0  0  0  0  0
    6.4473    1.8877   -2.1660 O   0  0  0  0  0  0  0  0  0  0  0  0
    4.6169    2.5703   -4.0305 O   0  0  0  0  0  0  0  0  0  0  0  0
    5.7957    0.2510   -4.1431 O   0  0  0  0  0  0  0  0  0  0  0  0
    5.9096    4.4124   -3.6900 O   0  0  0  0  0  0  0  0  0  0  0  0
    1.0499   -4.7244    1.1342 O   0  0  0  0  0  0  0  0  0  0  0  0
    6.6814    3.6874   -0.4637 O   0  0  0  0  0  0  0  0  0  0  0  0
    1.0358   -0.5642    3.9633 C   0  0  0  0  0  0  0  0  0  0  0  0
    5.2629   -0.0120   -0.2893 C   0  0  0  0  0  0  0  0  0  0  0  0
    4.4267   -1.3373    2.1505 O   0  0  0  0  0  0  0  0  0  0  0  0
    7.2168    1.7246   -5.4549 C   0  0  0  0  0  0  0  0  0  0  0  0
    6.3497    2.9757   -5.5996 C   0  0  0  0  0  0  0  0  0  0  0  0
   -1.1699    1.5296    0.5440 C   0  0  0  0  0  0  0  0  0  0  0  0
    3.3870    2.0513   -0.5907 H   0  0  0  0  0  0  0  0  0  0  0  0
    2.6018   -0.0488    0.0588 H   0  0  0  0  0  0  0  0  0  0  0  0
    2.2854    1.2896    2.7635 H   0  0  0  0  0  0  0  0  0  0  0  0
    2.4568   -1.9878    1.3001 H   0  0  0  0  0  0  0  0  0  0  0  0
    6.0903    0.3291    2.2561 H   0  0  0  0  0  0  0  0  0  0  0  0
    5.1979    1.7350    2.7887 H   0  0  0  0  0  0  0  0  0  0  0  0
    3.9917   -0.1288    3.6657 H   0  0  0  0  0  0  0  0  0  0  0  0
    1.2700    1.7983   -0.7276 H   0  0  0  0  0  0  0  0  0  0  0  0
    1.0821    2.3672    0.8991 H   0  0  0  0  0  0  0  0  0  0  0  0
    0.0293   -2.6609   -0.3292 H   0  0  0  0  0  0  0  0  0  0  0  0
   -0.1373    0.1119   -0.6431 H   0  0  0  0  0  0  0  0  0  0  0  0
    4.9925    4.7935    0.9289 H   0  0  0  0  0  0  0  0  0  0  0  0
    5.6798    3.4698    1.7137 H   0  0  0  0  0  0  0  0  0  0  0  0
    2.8234    3.7914    0.8889 H   0  0  0  0  0  0  0  0  0  0  0  0
    3.5298    2.9927    2.3061 H   0  0  0  0  0  0  0  0  0  0  0  0
    0.5905   -3.0623    3.4221 H   0  0  0  0  0  0  0  0  0  0  0  0
    3.5639    1.7609   -2.5212 H   0  0  0  0  0  0  0  0  0  0  0  0
    3.6284    3.5374   -2.4918 H   0  0  0  0  0  0  0  0  0  0  0  0
    7.0497   -0.3231   -6.8713 H   0  0  0  0  0  0  0  0  0  0  0  0
    6.4024    4.3938   -1.1209 H   0  0  0  0  0  0  0  0  0  0  0  0
    1.0284    0.4533    4.3667 H   0  0  0  0  0  0  0  0  0  0  0  0
    0.1237   -1.0765    4.2792 H   0  0  0  0  0  0  0  0  0  0  0  0
    1.8668   -1.0464    4.5144 H   0  0  0  0  0  0  0  0  0  0  0  0
    4.3792   -0.6418   -0.2121 H   0  0  0  0  0  0  0  0  0  0  0  0
    5.3620    0.0321   -1.3696 H   0  0  0  0  0  0  0  0  0  0  0  0
    6.0723   -0.6304    0.1188 H   0  0  0  0  0  0  0  0  0  0  0  0
    4.0751   -1.5321    1.2716 H   0  0  0  0  0  0  0  0  0  0  0  0
    7.7746    1.5825   -6.3905 H   0  0  0  0  0  0  0  0  0  0  0  0
    7.9735    1.8587   -4.6738 H   0  0  0  0  0  0  0  0  0  0  0  0
    5.6138    2.8656   -6.4017 H   0  0  0  0  0  0  0  0  0  0  0  0
    6.9967    3.8178   -5.8837 H   0  0  0  0  0  0  0  0  0  0  0  0
   -0.8347    2.5396    0.8609 H   0  0  0  0  0  0  0  0  0  0  0  0
   -1.5503    1.7506   -0.4667 H   0  0  0  0  0  0  0  0  0  0  0  0
   -2.0001    1.2773    1.1970 H   0  0  0  0  0  0  0  0  0  0  0  0
  1 29  1  6  0  0  0
  2  9  1  0  0  0  0
  2 30  1  6  0  0  0
  3  1  1  0  0  0  0
  4  2  1  0  0  0  0
  4 15  1  0  0  0  0
  4 28  1  1  0  0  0
  4 14  1  0  0  0  0
  5  1  1  0  0  0  0
  5 37  1  1  0  0  0
  6  5  1  0  0  0  0
  6 36  1  6  0  0  0
  7  6  1  0  0  0  0
  7 35  1  1  0  0  0
  7  2  1  0  0  0  0
  8  1  1  0  0  0  0
  8 38  1  0  0  0  0
  9 10  1  0  0  0  0
  9 39  1  0  0  0  0
  9 40  1  0  0  0  0
 10  5  1  0  0  0  0
 10 31  1  0  0  0  0
 10 41  1  1  0  0  0
 11  6  1  0  0  0  0
 11 13  1  0  0  0  0
 11 42  1  0  0  0  0
 11 43  1  0  0  0  0
 12  3  2  0  0  0  0
 12 44  1  0  0  0  0
 13  3  1  0  0  0  0
 13 45  1  6  0  0  0
 13 34  1  0  0  0  0
 15 16  1  0  0  0  0
 15 46  1  0  0  0  0
 15 47  1  0  0  0  0
 16  7  1  0  0  0  0
 16 48  1  0  0  0  0
 16 49  1  0  0  0  0
 17  8  2  0  0  0  0
 17 50  1  0  0  0  0
 18 17  1  0  0  0  0
 18 12  1  0  0  0  0
 19 32  1  0  0  0  0
 20 24  1  0  0  0  0
 21 14  1  0  0  0  0
 21 51  1  0  0  0  0
 21 52  1  0  0  0  0
 22 19  1  0  0  0  0
 22 53  1  0  0  0  0
 23 14  2  0  0  0  0
 24 21  1  0  0  0  0
 25 19  2  0  0  0  0
 26 20  2  0  0  0  0
 27 18  2  0  0  0  0
 28 54  1  0  0  0  0
 29 55  1  0  0  0  0
 29 56  1  0  0  0  0
 29 57  1  0  0  0  0
 30 58  1  0  0  0  0
 30 59  1  0  0  0  0
 30 60  1  0  0  0  0
 31 61  1  0  0  0  0
 32 33  1  0  0  0  0
 32 62  1  0  0  0  0
 32 63  1  0  0  0  0
 33 20  1  0  0  0  0
 33 64  1  0  0  0  0
 33 65  1  0  0  0  0
 34 66  1  0  0  0  0
 34 67  1  0  0  0  0
 34 68  1  0  0  0  0
M  END
>  <DRUGBANK_ID>
DB14644

>  <COMMON_NAME>
Methylprednisolone hemisuccinate

>  <CAS_NUMBER>
2921-57-5

>  <UNII>
5GMR90S4KN

>  <SYNONYMS>
Methylprednisolone hemisuccinate; Methylprednisolone hydrogen succinate; Methylprednisolone succinate

$$$$
