
 OpenBabel10282417123D

 86 85  0  0  1  0  0  0  0  0999 V2000
    1.1005    0.0257   -0.1224 C   0  0  0  0  0  0  0  0  0  0  0  0
   -2.0661    3.3559   20.6027 C   0  0  0  0  0  0  0  0  0  0  0  0
    0.6528   -1.1753    0.6945 C   0  0  0  0  0  0  0  0  0  0  0  0
   -1.2708    3.7847   19.3806 C   0  0  0  0  0  0  0  0  0  0  0  0
    1.1515   -1.0532    2.1350 C   0  0  0  0  0  0  0  0  0  0  0  0
   -0.9486    2.5726   18.5056 C   0  0  0  0  0  0  0  0  0  0  0  0
    0.5994    0.2086    2.8074 C   0  0  0  0  0  0  0  0  0  0  0  0
   -2.2290    1.8841   18.0200 C   0  0  0  0  0  0  0  0  0  0  0  0
   -0.9331    0.1893    2.8152 C   0  0  0  0  0  0  0  0  0  0  0  0
   -3.0918    2.8598   17.2135 C   0  0  0  0  0  0  0  0  0  0  0  0
   -1.4369   -1.0232    3.6035 C   0  0  0  0  0  0  0  0  0  0  0  0
   -2.3156    3.3471   15.9862 C   0  0  0  0  0  0  0  0  0  0  0  0
   -0.9308   -0.9451    5.0466 C   0  0  0  0  0  0  0  0  0  0  0  0
   -1.9494    2.1510   15.0998 C   0  0  0  0  0  0  0  0  0  0  0  0
   -1.4466    0.3418    5.6972 C   0  0  0  0  0  0  0  0  0  0  0  0
   -3.2296    1.4540   14.6395 C   0  0  0  0  0  0  0  0  0  0  0  0
   -2.9800    0.3391    5.6786 C   0  0  0  0  0  0  0  0  0  0  0  0
   -4.1013    2.4725   13.8949 C   0  0  0  0  0  0  0  0  0  0  0  0
   -3.5021   -0.8813    6.4430 C   0  0  0  0  0  0  0  0  0  0  0  0
   -3.3283    3.0735   12.7040 C   0  0  0  0  0  0  0  0  0  0  0  0
   -2.9704   -0.8452    7.8661 C   0  0  0  0  0  0  0  0  0  0  0  0
   -2.9797    1.9914   11.7254 C   0  0  0  0  0  0  0  0  0  0  0  0
   -3.4320    0.4335    8.5408 C   0  0  0  0  0  0  0  0  0  0  0  0
   -4.2851    1.3946   11.3162 C   0  0  0  0  0  0  0  0  0  0  0  0
   -5.5534   -0.8703    9.3904 C   0  0  0  0  0  0  0  0  0  0  0  0
   -4.9673    0.4164    8.7455 C   0  0  1  0  0  0  0  0  0  0  0  0
   -5.1594   -1.2117   10.8111 C   0  0  0  0  0  0  0  0  0  0  0  0
   -5.2469    2.1861   10.4884 C   0  0  0  0  0  0  0  0  0  0  0  0
   -5.8891   -1.0959   11.7822 O   0  0  0  0  0  0  0  0  0  0  0  0
   -3.8356   -1.4636   10.9659 O   0  0  0  0  0  0  0  0  0  0  0  0
   -5.8079    3.1844   10.8879 O   0  0  0  0  0  0  0  0  0  0  0  0
   -5.4979    1.6656    9.2637 O   0  0  0  0  0  0  0  0  0  0  0  0
   -5.4022    0.4421    7.7385 H   0  0  0  0  0  0  0  0  0  0  0  0
    0.7062    0.9662    0.2763 H   0  0  0  0  0  0  0  0  0  0  0  0
    0.7469   -0.0514   -1.1507 H   0  0  0  0  0  0  0  0  0  0  0  0
    2.1924    0.0903   -0.1161 H   0  0  0  0  0  0  0  0  0  0  0  0
   -1.4904    2.6274   21.1809 H   0  0  0  0  0  0  0  0  0  0  0  0
   -2.3028    4.2141   21.2318 H   0  0  0  0  0  0  0  0  0  0  0  0
   -3.0201    2.8914   20.3322 H   0  0  0  0  0  0  0  0  0  0  0  0
   -0.4400   -1.2597    0.6579 H   0  0  0  0  0  0  0  0  0  0  0  0
    1.0306   -2.1006    0.2515 H   0  0  0  0  0  0  0  0  0  0  0  0
   -0.3430    4.2777   19.6824 H   0  0  0  0  0  0  0  0  0  0  0  0
   -1.8339    4.5412   18.8208 H   0  0  0  0  0  0  0  0  0  0  0  0
    0.8680   -1.9524    2.6960 H   0  0  0  0  0  0  0  0  0  0  0  0
    2.2449   -1.0349    2.1614 H   0  0  0  0  0  0  0  0  0  0  0  0
   -0.3323    1.8557   19.0555 H   0  0  0  0  0  0  0  0  0  0  0  0
   -0.3279    2.8900   17.6584 H   0  0  0  0  0  0  0  0  0  0  0  0
    1.0089    0.2931    3.8195 H   0  0  0  0  0  0  0  0  0  0  0  0
    0.9543    1.1168    2.3148 H   0  0  0  0  0  0  0  0  0  0  0  0
   -2.8097    1.4776   18.8510 H   0  0  0  0  0  0  0  0  0  0  0  0
   -1.9681    0.9959   17.4350 H   0  0  0  0  0  0  0  0  0  0  0  0
   -1.3098    1.1314    3.2264 H   0  0  0  0  0  0  0  0  0  0  0  0
   -1.3523    0.1736    1.8062 H   0  0  0  0  0  0  0  0  0  0  0  0
   -3.4162    3.7169   17.8092 H   0  0  0  0  0  0  0  0  0  0  0  0
   -4.0350    2.3757   16.9393 H   0  0  0  0  0  0  0  0  0  0  0  0
   -2.5292   -1.0687    3.5513 H   0  0  0  0  0  0  0  0  0  0  0  0
   -1.1268   -1.9691    3.1527 H   0  0  0  0  0  0  0  0  0  0  0  0
   -1.4125    3.8989   16.2551 H   0  0  0  0  0  0  0  0  0  0  0  0
   -2.9086    4.0961   15.4520 H   0  0  0  0  0  0  0  0  0  0  0  0
   -1.2380   -1.8402    5.5953 H   0  0  0  0  0  0  0  0  0  0  0  0
    0.1597   -0.9811    5.1082 H   0  0  0  0  0  0  0  0  0  0  0  0
   -1.2954    1.4382   15.6070 H   0  0  0  0  0  0  0  0  0  0  0  0
   -1.3411    2.4854   14.2550 H   0  0  0  0  0  0  0  0  0  0  0  0
   -1.0364    0.4356    6.7071 H   0  0  0  0  0  0  0  0  0  0  0  0
   -1.0725    1.2414    5.2016 H   0  0  0  0  0  0  0  0  0  0  0  0
   -3.7939    1.0267   15.4751 H   0  0  0  0  0  0  0  0  0  0  0  0
   -2.9824    0.5772   14.0318 H   0  0  0  0  0  0  0  0  0  0  0  0
   -3.3544    1.2816    6.0863 H   0  0  0  0  0  0  0  0  0  0  0  0
   -3.3881    0.3369    4.6654 H   0  0  0  0  0  0  0  0  0  0  0  0
   -4.4454    3.2868   14.5331 H   0  0  0  0  0  0  0  0  0  0  0  0
   -5.0470    1.9949   13.6239 H   0  0  0  0  0  0  0  0  0  0  0  0
   -4.5941   -0.9009    6.4136 H   0  0  0  0  0  0  0  0  0  0  0  0
   -3.2091   -1.8254    5.9764 H   0  0  0  0  0  0  0  0  0  0  0  0
   -2.4155    3.5932   12.9951 H   0  0  0  0  0  0  0  0  0  0  0  0
   -3.9356    3.8287   12.2063 H   0  0  0  0  0  0  0  0  0  0  0  0
   -3.2798   -1.7344    8.4178 H   0  0  0  0  0  0  0  0  0  0  0  0
   -1.8780   -0.8984    7.9123 H   0  0  0  0  0  0  0  0  0  0  0  0
   -2.3562    1.1974   12.1699 H   0  0  0  0  0  0  0  0  0  0  0  0
   -2.4055    2.3479   10.8663 H   0  0  0  0  0  0  0  0  0  0  0  0
   -2.8070    0.5123    9.4259 H   0  0  0  0  0  0  0  0  0  0  0  0
   -3.1475    1.3569    8.0218 H   0  0  0  0  0  0  0  0  0  0  0  0
   -4.8235    0.9114   12.1252 H   0  0  0  0  0  0  0  0  0  0  0  0
   -3.9392    0.5981   10.7347 H   0  0  0  0  0  0  0  0  0  0  0  0
   -6.6430   -0.7832    9.3864 H   0  0  0  0  0  0  0  0  0  0  0  0
   -5.3136   -1.7511    8.7892 H   0  0  0  0  0  0  0  0  0  0  0  0
   -3.5984   -1.1812   11.8809 H   0  0  0  0  0  0  0  0  0  0  0  0
  1 34  1  0  0  0  0
  1 35  1  0  0  0  0
  1 36  1  0  0  0  0
  2 37  1  0  0  0  0
  2 38  1  0  0  0  0
  2 39  1  0  0  0  0
  3  1  1  0  0  0  0
  3 40  1  0  0  0  0
  3 41  1  0  0  0  0
  4  2  1  0  0  0  0
  4 42  1  0  0  0  0
  4 43  1  0  0  0  0
  5  3  1  0  0  0  0
  5 44  1  0  0  0  0
  5 45  1  0  0  0  0
  6  4  1  0  0  0  0
  6 46  1  0  0  0  0
  6 47  1  0  0  0  0
  7  5  1  0  0  0  0
  7 48  1  0  0  0  0
  7 49  1  0  0  0  0
  8  6  1  0  0  0  0
  8 50  1  0  0  0  0
  8 51  1  0  0  0  0
  9  7  1  0  0  0  0
  9 52  1  0  0  0  0
  9 53  1  0  0  0  0
 10  8  1  0  0  0  0
 10 54  1  0  0  0  0
 10 55  1  0  0  0  0
 11  9  1  0  0  0  0
 11 56  1  0  0  0  0
 11 57  1  0  0  0  0
 12 10  1  0  0  0  0
 12 58  1  0  0  0  0
 12 59  1  0  0  0  0
 13 11  1  0  0  0  0
 13 60  1  0  0  0  0
 13 61  1  0  0  0  0
 14 12  1  0  0  0  0
 14 62  1  0  0  0  0
 14 63  1  0  0  0  0
 15 13  1  0  0  0  0
 15 64  1  0  0  0  0
 15 65  1  0  0  0  0
 16 14  1  0  0  0  0
 16 66  1  0  0  0  0
 16 67  1  0  0  0  0
 17 15  1  0  0  0  0
 17 68  1  0  0  0  0
 17 69  1  0  0  0  0
 18 16  1  0  0  0  0
 18 70  1  0  0  0  0
 18 71  1  0  0  0  0
 19 17  1  0  0  0  0
 19 72  1  0  0  0  0
 19 73  1  0  0  0  0
 20 18  1  0  0  0  0
 20 74  1  0  0  0  0
 20 75  1  0  0  0  0
 21 19  1  0  0  0  0
 21 76  1  0  0  0  0
 21 77  1  0  0  0  0
 22 20  1  0  0  0  0
 22 78  1  0  0  0  0
 22 79  1  0  0  0  0
 23 21  1  0  0  0  0
 23 80  1  0  0  0  0
 23 81  1  0  0  0  0
 24 22  1  0  0  0  0
 24 82  1  0  0  0  0
 24 83  1  0  0  0  0
 25 84  1  0  0  0  0
 25 85  1  0  0  0  0
 26 23  1  0  0  0  0
 26 25  1  0  0  0  0
 26 32  1  0  0  0  0
 26 33  1  6  0  0  0
 27 25  1  0  0  0  0
 28 24  1  0  0  0  0
 29 27  2  0  0  0  0
 30 27  1  0  0  0  0
 30 86  1  0  0  0  0
 31 28  2  0  0  0  0
 32 28  1  0  0  0  0
M  END
>  <DRUGBANK_ID>
DB01814

>  <SECONDARY_ACCESSION_NUMBERS>
EXPT02033

>  <COMMON_NAME>
2-Tridecanoyloxy-Pentadecanoic Acid

$$$$
