
 OpenBabel10282417123D

 33 34  0  0  0  0  0  0  0  0999 V2000
    0.7363    0.0336    0.0350 N   0  0  0  0  0  0  0  0  0  0  0  0
    0.1307   -0.8862   -0.7672 C   0  0  0  0  0  0  0  0  0  0  0  0
   -1.2231   -0.8637   -0.8752 N   0  0  0  0  0  0  0  0  0  0  0  0
   -1.9819   -1.8114   -1.6735 C   0  0  0  0  0  0  0  0  0  0  0  0
   -2.8018   -2.7198   -0.7894 C   0  0  0  0  0  0  0  0  0  0  0  0
   -2.6422   -4.1053   -0.9007 C   0  0  0  0  0  0  0  0  0  0  0  0
   -3.2621   -4.9726   -0.0004 C   0  0  0  0  0  0  0  0  0  0  0  0
   -4.0635   -4.4718    1.0233 C   0  0  0  0  0  0  0  0  0  0  0  0
   -4.2477   -3.0907    1.1268 C   0  0  0  0  0  0  0  0  0  0  0  0
   -3.6709   -2.2225    0.1922 C   0  0  0  0  0  0  0  0  0  0  0  0
   -4.7145   -5.2324    1.9575 O   0  0  0  0  0  0  0  0  0  0  0  0
   -4.6401   -6.6443    1.7749 C   0  0  0  0  0  0  0  0  0  0  0  0
    0.8373   -1.6439   -1.4369 O   0  0  0  0  0  0  0  0  0  0  0  0
    0.1699    1.0413    0.7681 C   0  0  0  0  0  0  0  0  0  0  0  0
   -1.1288    0.7198    1.8410 S   0  0  0  0  0  0  0  0  0  0  0  0
   -1.0617    2.3401    2.3642 C   0  0  0  0  0  0  0  0  0  0  0  0
   -0.0897    3.0295    1.6813 C   0  0  0  0  0  0  0  0  0  0  0  0
    0.6700    2.2543    0.8208 N   0  0  0  0  0  0  0  0  0  0  0  0
   -1.9280    2.8645    3.3738 N   0  3  0  0  0  0  0  0  0  0  0  0
   -2.7204    2.0959    3.9247 O   0  0  0  0  0  0  0  0  0  0  0  0
   -1.8087    4.0749    3.6199 O   0  5  0  0  0  0  0  0  0  0  0  0
    1.7116    0.1659   -0.1970 H   0  0  0  0  0  0  0  0  0  0  0  0
   -1.7448   -0.2460   -0.2773 H   0  0  0  0  0  0  0  0  0  0  0  0
   -2.6328   -1.2500   -2.3514 H   0  0  0  0  0  0  0  0  0  0  0  0
   -1.2978   -2.4070   -2.2895 H   0  0  0  0  0  0  0  0  0  0  0  0
   -2.0081   -4.5249   -1.6786 H   0  0  0  0  0  0  0  0  0  0  0  0
   -3.0693   -6.0336   -0.1112 H   0  0  0  0  0  0  0  0  0  0  0  0
   -4.8303   -2.6840    1.9507 H   0  0  0  0  0  0  0  0  0  0  0  0
   -3.8853   -1.1588    0.2600 H   0  0  0  0  0  0  0  0  0  0  0  0
   -5.0180   -6.9429    0.7899 H   0  0  0  0  0  0  0  0  0  0  0  0
   -3.6152   -7.0001    1.9255 H   0  0  0  0  0  0  0  0  0  0  0  0
   -5.2734   -7.1222    2.5277 H   0  0  0  0  0  0  0  0  0  0  0  0
    0.1314    4.0866    1.7868 H   0  0  0  0  0  0  0  0  0  0  0  0
  1  2  1  0  0  0  0
  1 14  1  0  0  0  0
  1 22  1  0  0  0  0
  2  3  1  0  0  0  0
  2 13  2  0  0  0  0
  3  4  1  0  0  0  0
  3 23  1  0  0  0  0
  4  5  1  0  0  0  0
  4 24  1  0  0  0  0
  4 25  1  0  0  0  0
  5  6  2  0  0  0  0
  5 10  1  0  0  0  0
  6  7  1  0  0  0  0
  6 26  1  0  0  0  0
  7  8  2  0  0  0  0
  7 27  1  0  0  0  0
  8 11  1  0  0  0  0
  9  8  1  0  0  0  0
  9 28  1  0  0  0  0
 10  9  2  0  0  0  0
 10 29  1  0  0  0  0
 11 12  1  0  0  0  0
 12 30  1  0  0  0  0
 12 31  1  0  0  0  0
 12 32  1  0  0  0  0
 14 15  1  0  0  0  0
 14 18  2  0  0  0  0
 15 16  1  0  0  0  0
 16 17  2  0  0  0  0
 16 19  1  0  0  0  0
 17 33  1  0  0  0  0
 18 17  1  0  0  0  0
 19 20  2  0  0  0  0
 19 21  1  0  0  0  0
M  CHG  2  19   1  21  -1
M  END
>  <DRUGBANK_ID>
DB01950

>  <SECONDARY_ACCESSION_NUMBERS>
EXPT03075

>  <COMMON_NAME>
AR-AO-14418

>  <CAS_NUMBER>
487021-52-3

>  <UNII>
87KSH90Q6D

$$$$
