
 OpenBabel10282417183D

 39 39  0  0  0  0  0  0  0  0999 V2000
    0.8980   -0.0485   -0.0361 O   0  0  0  0  0  0  0  0  0  0  0  0
    0.9441    2.1636   -0.6524 O   0  0  0  0  0  0  0  0  0  0  0  0
   -1.1433    1.0817   -0.3408 C   0  0  0  0  0  0  0  0  0  0  0  0
    0.3408    1.1479   -0.3685 C   0  0  0  0  0  0  0  0  0  0  0  0
   -1.8232    0.4384    0.6987 C   0  0  0  0  0  0  0  0  0  0  0  0
   -1.8652    1.8133   -1.2940 C   0  0  0  0  0  0  0  0  0  0  0  0
    2.8951   -1.4192    0.2934 C   0  0  3  0  0  0  0  0  0  0  0  0
    2.3384   -0.0144   -0.0014 C   0  0  0  0  0  0  0  0  0  0  0  0
   -3.2160    0.5411    0.7896 C   0  0  0  0  0  0  0  0  0  0  0  0
   -3.2517    1.9462   -1.1747 C   0  0  0  0  0  0  0  0  0  0  0  0
   -3.9286    1.2932   -0.1458 C   0  0  0  0  0  0  0  0  0  0  0  0
    2.4469   -2.4036   -0.8222 C   0  0  0  0  0  0  0  0  0  0  0  0
    4.4231   -1.4054    0.5000 C   0  0  0  0  0  0  0  0  0  0  0  0
    2.9356   -2.0664   -2.2483 C   0  0  0  0  0  0  0  0  0  0  0  0
    4.9759   -0.4752    1.5491 C   0  0  0  0  0  0  0  0  0  0  0  0
    4.4457   -2.1421   -2.4883 C   0  0  0  0  0  0  0  0  0  0  0  0
    5.0339   -3.4635   -2.0156 C   0  0  0  0  0  0  0  0  0  0  0  0
   -1.2761   -0.1117    1.4594 H   0  0  0  0  0  0  0  0  0  0  0  0
   -1.3495    2.2974   -2.1205 H   0  0  0  0  0  0  0  0  0  0  0  0
    2.4413   -1.7801    1.2265 H   0  0  0  0  0  0  0  0  0  0  0  0
    2.7307    0.3524   -0.9578 H   0  0  0  0  0  0  0  0  0  0  0  0
    2.6401    0.6861    0.7803 H   0  0  0  0  0  0  0  0  0  0  0  0
   -3.7459    0.0609    1.6089 H   0  0  0  0  0  0  0  0  0  0  0  0
   -3.8015    2.5786   -1.8682 H   0  0  0  0  0  0  0  0  0  0  0  0
   -5.0109    1.3773   -0.0692 H   0  0  0  0  0  0  0  0  0  0  0  0
    2.7267   -3.4288   -0.5517 H   0  0  0  0  0  0  0  0  0  0  0  0
    1.3479   -2.4306   -0.8447 H   0  0  0  0  0  0  0  0  0  0  0  0
    4.8051   -2.4193    0.6640 H   0  0  0  0  0  0  0  0  0  0  0  0
    4.9104   -1.0038   -0.3708 H   0  0  0  0  0  0  0  0  0  0  0  0
    2.4580   -2.7613   -2.9485 H   0  0  0  0  0  0  0  0  0  0  0  0
    2.5761   -1.0723   -2.5363 H   0  0  0  0  0  0  0  0  0  0  0  0
    4.6314   -0.7455    2.5443 H   0  0  0  0  0  0  0  0  0  0  0  0
    6.0713   -0.5230    1.5100 H   0  0  0  0  0  0  0  0  0  0  0  0
    4.7073    0.5575    1.3135 H   0  0  0  0  0  0  0  0  0  0  0  0
    4.6680   -1.9942   -3.5482 H   0  0  0  0  0  0  0  0  0  0  0  0
    4.9652   -1.2896   -2.0582 H   0  0  0  0  0  0  0  0  0  0  0  0
    4.7115   -4.2586   -2.6905 H   0  0  0  0  0  0  0  0  0  0  0  0
    6.1251   -3.4212   -1.9938 H   0  0  0  0  0  0  0  0  0  0  0  0
    4.7194   -3.7576   -1.0106 H   0  0  0  0  0  0  0  0  0  0  0  0
  1  4  1  0  0  0  0
  1  8  1  0  0  0  0
  2  4  2  0  0  0  0
  3  4  1  0  0  0  0
  3  5  2  0  0  0  0
  3  6  1  0  0  0  0
  5  9  1  0  0  0  0
  5 18  1  0  0  0  0
  6 10  2  0  0  0  0
  6 19  1  0  0  0  0
  7  8  1  0  0  0  0
  7 12  1  0  0  0  0
  7 13  1  0  0  0  0
  7 20  1  0  0  0  0
  8 21  1  0  0  0  0
  8 22  1  0  0  0  0
  9 11  2  0  0  0  0
  9 23  1  0  0  0  0
 10 11  1  0  0  0  0
 10 24  1  0  0  0  0
 11 25  1  0  0  0  0
 12 14  1  0  0  0  0
 12 26  1  0  0  0  0
 12 27  1  0  0  0  0
 13 15  1  0  0  0  0
 13 28  1  0  0  0  0
 13 29  1  0  0  0  0
 14 16  1  0  0  0  0
 14 30  1  0  0  0  0
 14 31  1  0  0  0  0
 15 32  1  0  0  0  0
 15 33  1  0  0  0  0
 15 34  1  0  0  0  0
 16 17  1  0  0  0  0
 16 35  1  0  0  0  0
 16 36  1  0  0  0  0
 17 37  1  0  0  0  0
 17 38  1  0  0  0  0
 17 39  1  0  0  0  0
M  END
>  <DRUGBANK_ID>
DB11291

>  <COMMON_NAME>
2-ethylhexyl benzoate

>  <CAS_NUMBER>
5444-75-7

>  <UNII>
R63ZWW1A13

>  <SYNONYMS>
2-Ethyl-1-hexanol benzoate; Ethylhexyl benzoate

$$$$
