
 OpenBabel10282417153D

 65 68  0  0  0  0  0  0  0  0999 V2000
   -1.3348    1.3579    0.0712 C   0  0  0  0  0  0  0  0  0  0  0  0
   -1.7377    0.0362    0.0505 C   0  0  0  0  0  0  0  0  0  0  0  0
   -0.7636   -0.9598   -0.0061 C   0  0  0  0  0  0  0  0  0  0  0  0
    0.6008   -0.5057   -0.1132 C   0  0  0  0  0  0  0  0  0  0  0  0
    0.9234    0.8616   -0.0081 C   0  0  0  0  0  0  0  0  0  0  0  0
   -0.0453    1.7787    0.0932 N   0  0  0  0  0  0  0  0  0  0  0  0
    1.6603   -1.3168   -0.5097 C   0  0  0  0  0  0  0  0  0  0  0  0
    2.9320   -0.8213   -0.8694 C   0  0  0  0  0  0  0  0  0  0  0  0
    3.3175    0.3903   -0.3609 C   0  0  0  0  0  0  0  0  0  0  0  0
    2.2765    1.2642   -0.0419 C   0  0  0  0  0  0  0  0  0  0  0  0
   -1.1846   -2.3165   -0.0963 N   0  0  0  0  0  0  0  0  0  0  0  0
    4.6088    0.7600   -0.0852 O   0  0  0  0  0  0  0  0  0  0  0  0
    5.6396   -0.2544    0.0354 C   0  0  0  0  0  0  0  0  0  0  0  0
   -0.4685   -3.5168   -0.1094 C   0  0  0  0  0  0  0  0  0  0  0  0
   -0.4147   -4.3320   -1.2499 C   0  0  0  0  0  0  0  0  0  0  0  0
    0.3908   -5.4524   -1.2942 C   0  0  0  0  0  0  0  0  0  0  0  0
    0.9027   -5.9554   -0.0909 C   0  0  0  0  0  0  0  0  0  0  0  0
    0.8335   -5.1370    1.1221 C   0  0  0  0  0  0  0  0  0  0  0  0
    0.1894   -3.9043    1.0388 C   0  0  0  0  0  0  0  0  0  0  0  0
    1.5785   -7.5759   -0.4533 Cl  0  0  0  0  0  0  0  0  0  0  0  0
    5.7041   -1.0408    1.3704 C   0  0  0  0  0  0  0  0  0  0  0  0
    4.4911   -1.8927    1.7527 C   0  0  0  0  0  0  0  0  0  0  0  0
    4.7109   -3.2881    1.2747 N   0  0  0  0  0  0  0  0  0  0  0  0
    5.5842   -4.1054    2.1466 C   0  0  0  0  0  0  0  0  0  0  0  0
    5.8266   -5.6470    1.7278 C   0  0  0  0  0  0  0  0  0  0  0  0
    4.6969   -6.5824    1.5179 N   0  0  0  0  0  0  0  0  0  0  0  0
    3.8480   -5.6491    0.5375 C   0  0  0  0  0  0  0  0  0  0  0  0
    3.4836   -4.0187    0.9812 C   0  0  0  0  0  0  0  0  0  0  0  0
    3.8245   -1.5282   -1.6769 O   0  0  0  0  0  0  0  0  0  0  0  0
    3.8656   -2.8814   -1.3262 C   0  0  0  0  0  0  0  0  0  0  0  0
   -1.3860   -3.9905   -2.6276 Cl  0  0  0  0  0  0  0  0  0  0  0  0
    1.3172   -5.0601    2.4229 O   0  0  0  0  0  0  0  0  0  0  0  0
    2.5589   -5.4840    2.8073 C   0  0  0  0  0  0  0  0  0  0  0  0
   -3.1630   -0.2686    0.0166 C   0  0  0  0  0  0  0  0  0  0  0  0
   -4.2550   -0.5458   -0.0156 N   0  0  0  0  0  0  0  0  0  0  0  0
    4.1610   -7.3051    2.9369 C   0  0  0  0  0  0  0  0  0  0  0  0
   -2.0615    2.1657    0.0615 H   0  0  0  0  0  0  0  0  0  0  0  0
    1.4744   -2.3671   -0.5882 H   0  0  0  0  0  0  0  0  0  0  0  0
    2.5159    2.3111    0.1168 H   0  0  0  0  0  0  0  0  0  0  0  0
   -2.1833   -2.5171   -0.0823 H   0  0  0  0  0  0  0  0  0  0  0  0
    5.7179   -0.9006   -0.8430 H   0  0  0  0  0  0  0  0  0  0  0  0
    6.5894    0.2946   -0.0188 H   0  0  0  0  0  0  0  0  0  0  0  0
    0.5714   -5.9576   -2.2497 H   0  0  0  0  0  0  0  0  0  0  0  0
    0.3176   -3.1871    1.8604 H   0  0  0  0  0  0  0  0  0  0  0  0
    6.5858   -1.6908    1.2959 H   0  0  0  0  0  0  0  0  0  0  0  0
    5.8956   -0.3480    2.1923 H   0  0  0  0  0  0  0  0  0  0  0  0
    3.6338   -1.4137    1.2963 H   0  0  0  0  0  0  0  0  0  0  0  0
    4.1789   -1.8240    2.8072 H   0  0  0  0  0  0  0  0  0  0  0  0
    6.5637   -3.6253    2.1452 H   0  0  0  0  0  0  0  0  0  0  0  0
    5.2114   -4.0350    3.1741 H   0  0  0  0  0  0  0  0  0  0  0  0
    6.3048   -5.6074    0.7346 H   0  0  0  0  0  0  0  0  0  0  0  0
    6.5206   -6.1245    2.4112 H   0  0  0  0  0  0  0  0  0  0  0  0
    4.1073   -5.6818   -0.5538 H   0  0  0  0  0  0  0  0  0  0  0  0
    2.9424   -6.1650    0.5019 H   0  0  0  0  0  0  0  0  0  0  0  0
    2.8662   -3.6428    1.8269 H   0  0  0  0  0  0  0  0  0  0  0  0
    2.6389   -3.7812    0.3123 H   0  0  0  0  0  0  0  0  0  0  0  0
    3.5789   -2.6624   -0.3492 H   0  0  0  0  0  0  0  0  0  0  0  0
    3.0799   -3.5448   -1.7036 H   0  0  0  0  0  0  0  0  0  0  0  0
    4.8135   -3.4112   -1.1215 H   0  0  0  0  0  0  0  0  0  0  0  0
    2.5316   -6.4239    2.3158 H   0  0  0  0  0  0  0  0  0  0  0  0
    3.4727   -5.1461    2.3835 H   0  0  0  0  0  0  0  0  0  0  0  0
    3.1439   -5.0767    3.6666 H   0  0  0  0  0  0  0  0  0  0  0  0
    3.7971   -6.7141    3.8175 H   0  0  0  0  0  0  0  0  0  0  0  0
    3.2486   -7.9666    2.8264 H   0  0  0  0  0  0  0  0  0  0  0  0
    4.9536   -7.7693    3.5166 H   0  0  0  0  0  0  0  0  0  0  0  0
  1  2  1  0  0  0  0
  1  6  2  0  0  0  0
  1 37  1  0  0  0  0
  2  3  2  0  0  0  0
  2 34  1  0  0  0  0
  3  4  1  0  0  0  0
  3 11  1  0  0  0  0
  4  5  1  0  0  0  0
  4  7  2  0  0  0  0
  5  6  1  0  0  0  0
  5 10  2  0  0  0  0
  7  8  1  0  0  0  0
  7 38  1  0  0  0  0
  8  9  2  0  0  0  0
  8 29  1  0  0  0  0
  9 10  1  0  0  0  0
  9 12  1  0  0  0  0
 10 39  1  0  0  0  0
 11 14  1  0  0  0  0
 11 40  1  0  0  0  0
 12 13  1  0  0  0  0
 13 21  1  0  0  0  0
 13 41  1  0  0  0  0
 13 42  1  0  0  0  0
 14 15  2  0  0  0  0
 14 19  1  0  0  0  0
 15 16  1  0  0  0  0
 15 31  1  0  0  0  0
 16 17  2  0  0  0  0
 16 43  1  0  0  0  0
 17 18  1  0  0  0  0
 17 20  1  0  0  0  0
 18 19  2  0  0  0  0
 18 32  1  0  0  0  0
 19 44  1  0  0  0  0
 21 22  1  0  0  0  0
 21 45  1  0  0  0  0
 21 46  1  0  0  0  0
 22 23  1  0  0  0  0
 22 47  1  0  0  0  0
 22 48  1  0  0  0  0
 23 24  1  0  0  0  0
 23 28  1  0  0  0  0
 24 25  1  0  0  0  0
 24 49  1  0  0  0  0
 24 50  1  0  0  0  0
 25 26  1  0  0  0  0
 25 51  1  0  0  0  0
 25 52  1  0  0  0  0
 26 27  1  0  0  0  0
 26 36  1  0  0  0  0
 27 28  1  0  0  0  0
 27 53  1  0  0  0  0
 27 54  1  0  0  0  0
 28 55  1  0  0  0  0
 28 56  1  0  0  0  0
 29 30  1  0  0  0  0
 30 57  1  0  0  0  0
 30 58  1  0  0  0  0
 30 59  1  0  0  0  0
 32 33  1  0  0  0  0
 33 60  1  0  0  0  0
 33 61  1  0  0  0  0
 33 62  1  0  0  0  0
 34 35  3  0  0  0  0
 36 63  1  0  0  0  0
 36 64  1  0  0  0  0
 36 65  1  0  0  0  0
M  END
>  <DRUGBANK_ID>
DB06616

>  <COMMON_NAME>
Bosutinib

>  <CAS_NUMBER>
380843-75-4

>  <UNII>
5018V4AEZ0

>  <SYNONYMS>
4-((2,4-dichloro-5-methoxyphenyl)amino)-6-methoxy-7-(3-(4-methyl-1-piperazinyl)propoxy)-3-quinolinecarbonitrile; Bosutinib

$$$$
