1505
 OpenBabel10282417113D

 50 51  0  0  0  0  0  0  0  0999 V2000
    0.8803    0.0885    0.0224 O   0  0  0  0  0  0  0  0  0  0  0  0
    0.7866   -1.9453   -0.9966 O   0  0  0  0  0  0  0  0  0  0  0  0
    0.8065   -1.6808   -5.5160 O   0  0  0  0  0  0  0  0  0  0  0  0
    1.5056    0.8190   -4.0294 O   0  0  0  0  0  0  0  0  0  0  0  0
   -2.1998   -0.7418   -3.7995 N   0  0  0  0  0  0  0  0  0  0  0  0
   -1.3789   -0.6747   -0.8430 C   0  0  0  0  0  0  0  0  0  0  0  0
   -2.1332   -1.8982   -1.4597 C   0  0  0  0  0  0  0  0  0  0  0  0
   -1.8343    0.5742   -1.6673 C   0  0  0  0  0  0  0  0  0  0  0  0
   -1.9374   -1.9210   -2.9573 C   0  0  0  0  0  0  0  0  0  0  0  0
   -1.7608    0.4959   -3.1850 C   0  0  0  0  0  0  0  0  0  0  0  0
   -1.8737   -0.6092    0.5810 C   0  0  0  0  0  0  0  0  0  0  0  0
    0.2214   -0.9371   -0.6366 C   0  0  0  0  0  0  0  0  0  0  0  0
   -1.7507   -0.8290   -5.2617 C   0  0  0  0  0  0  0  0  0  0  0  0
   -1.5028   -1.6624    1.4362 C   0  0  0  0  0  0  0  0  0  0  0  0
   -2.5884    0.4839    1.0629 C   0  0  0  0  0  0  0  0  0  0  0  0
   -0.2459   -0.7583   -5.8858 C   0  0  0  0  0  0  0  0  0  0  0  0
   -1.8205   -1.5992    2.7702 C   0  0  0  0  0  0  0  0  0  0  0  0
   -2.8726    0.5591    2.4056 C   0  0  0  0  0  0  0  0  0  0  0  0
   -2.5094   -0.4889    3.2482 C   0  0  0  0  0  0  0  0  0  0  0  0
    2.3318   -0.0315    0.0949 C   0  0  0  0  0  0  0  0  0  0  0  0
    0.9258   -1.7028   -4.1209 C   0  0  0  0  0  0  0  0  0  0  0  0
    2.8856    0.6232    1.3533 C   0  0  0  0  0  0  0  0  0  0  0  0
    1.3909   -0.4369   -3.3735 C   0  0  0  0  0  0  0  0  0  0  0  0
    0.6342    1.1857   -4.2500 H   0  0  0  0  0  0  0  0  0  0  0  0
   -1.6653   -2.8259   -1.0834 H   0  0  0  0  0  0  0  0  0  0  0  0
   -3.1919   -1.9471   -1.2003 H   0  0  0  0  0  0  0  0  0  0  0  0
   -2.9033    0.7486   -1.4884 H   0  0  0  0  0  0  0  0  0  0  0  0
   -1.2894    1.4693   -1.3401 H   0  0  0  0  0  0  0  0  0  0  0  0
   -0.8976   -2.0369   -2.7686 H   0  0  0  0  0  0  0  0  0  0  0  0
   -2.2461   -2.8505   -3.4434 H   0  0  0  0  0  0  0  0  0  0  0  0
   -2.2393    1.3741   -3.6433 H   0  0  0  0  0  0  0  0  0  0  0  0
   -0.7378    0.6216   -3.4177 H   0  0  0  0  0  0  0  0  0  0  0  0
   -2.2457   -1.7016   -5.7000 H   0  0  0  0  0  0  0  0  0  0  0  0
   -2.2344    0.0393   -5.7420 H   0  0  0  0  0  0  0  0  0  0  0  0
   -0.9266   -2.5131    1.0656 H   0  0  0  0  0  0  0  0  0  0  0  0
   -2.9132    1.3021    0.4279 H   0  0  0  0  0  0  0  0  0  0  0  0
   -0.3157   -0.8615   -6.9706 H   0  0  0  0  0  0  0  0  0  0  0  0
    0.1508    0.2386   -5.7432 H   0  0  0  0  0  0  0  0  0  0  0  0
   -1.5045   -2.4039    3.4228 H   0  0  0  0  0  0  0  0  0  0  0  0
   -3.3621    1.4500    2.7800 H   0  0  0  0  0  0  0  0  0  0  0  0
   -2.7683   -0.4354    4.2958 H   0  0  0  0  0  0  0  0  0  0  0  0
    2.6827   -1.0705    0.0664 H   0  0  0  0  0  0  0  0  0  0  0  0
    2.7408    0.4936   -0.7748 H   0  0  0  0  0  0  0  0  0  0  0  0
   -0.0993   -1.8413   -4.0262 H   0  0  0  0  0  0  0  0  0  0  0  0
    1.2173   -2.6401   -3.6162 H   0  0  0  0  0  0  0  0  0  0  0  0
    2.5439    0.0941    2.2479 H   0  0  0  0  0  0  0  0  0  0  0  0
    3.9840    0.6123    1.3519 H   0  0  0  0  0  0  0  0  0  0  0  0
    2.5516    1.6609    1.4333 H   0  0  0  0  0  0  0  0  0  0  0  0
    0.7076   -0.2433   -2.5651 H   0  0  0  0  0  0  0  0  0  0  0  0
    2.3441   -0.6395   -2.8965 H   0  0  0  0  0  0  0  0  0  0  0  0
  1 12  1  0  0  0  0
  1 20  1  0  0  0  0
  2 12  2  0  0  0  0
  3 16  1  0  0  0  0
  3 21  1  0  0  0  0
  4 23  1  0  0  0  0
  4 24  1  0  0  0  0
  5  9  1  0  0  0  0
  5 10  1  0  0  0  0
  5 13  1  0  0  0  0
  6  7  1  0  0  0  0
  6  8  1  0  0  0  0
  6 11  1  0  0  0  0
  6 12  1  0  0  0  0
  7  9  1  0  0  0  0
  7 25  1  0  0  0  0
  7 26  1  0  0  0  0
  8 10  1  0  0  0  0
  8 27  1  0  0  0  0
  8 28  1  0  0  0  0
  9 29  1  0  0  0  0
  9 30  1  0  0  0  0
 10 31  1  0  0  0  0
 10 32  1  0  0  0  0
 11 14  2  0  0  0  0
 11 15  1  0  0  0  0
 13 16  1  0  0  0  0
 13 33  1  0  0  0  0
 13 34  1  0  0  0  0
 14 17  1  0  0  0  0
 14 35  1  0  0  0  0
 15 18  2  0  0  0  0
 15 36  1  0  0  0  0
 16 37  1  0  0  0  0
 16 38  1  0  0  0  0
 17 19  2  0  0  0  0
 17 39  1  0  0  0  0
 18 19  1  0  0  0  0
 18 40  1  0  0  0  0
 19 41  1  0  0  0  0
 20 22  1  0  0  0  0
 20 42  1  0  0  0  0
 20 43  1  0  0  0  0
 21 23  1  0  0  0  0
 21 44  1  0  0  0  0
 21 45  1  0  0  0  0
 22 46  1  0  0  0  0
 22 47  1  0  0  0  0
 22 48  1  0  0  0  0
 23 49  1  0  0  0  0
 23 50  1  0  0  0  0
M  END
>  <DRUGBANK_ID>
DB01505

>  <COMMON_NAME>
Etoxeridine

>  <CAS_NUMBER>
469-82-9

>  <UNII>
RHW35E1G7E

>  <SYNONYMS>
Etoxeridine

$$$$
