SC8
 OpenBabel10282417173D

 38 41  0  0  0  0  0  0  0  0999 V2000
    1.4201   -1.3544   -0.0120 C   0  0  0  0  0  0  0  0  0  0  0  0
    0.1535   -0.8130    0.0191 C   0  0  0  0  0  0  0  0  0  0  0  0
    0.3235    0.5789    0.0102 N   0  0  0  0  0  0  0  0  0  0  0  0
    1.6520    0.8926    0.0049 N   0  0  0  0  0  0  0  0  0  0  0  0
    2.2941   -0.2654   -0.0079 C   0  0  0  0  0  0  0  0  0  0  0  0
   -1.0813   -1.4008    0.0536 N   0  0  0  0  0  0  0  0  0  0  0  0
   -2.1064   -0.5992    0.0319 C   0  0  0  0  0  0  0  0  0  0  0  0
   -2.0253    0.9031    0.0043 C   0  0  0  0  0  0  0  0  0  0  0  0
   -0.7920    1.4643    0.0057 C   0  0  0  0  0  0  0  0  0  0  0  0
   -0.6089    2.8508    0.0005 N   0  0  0  0  0  0  0  0  0  0  0  0
   -3.4761   -1.1937    0.0941 C   0  0  0  0  0  0  0  0  0  0  0  0
    0.6363    3.6065    0.0231 C   0  0  0  0  0  0  0  0  0  0  0  0
    0.7547    4.4482   -1.2160 C   0  0  0  0  0  0  0  0  0  0  0  0
    0.9584    3.8613   -2.4703 C   0  0  0  0  0  0  0  0  0  0  0  0
    1.0326    4.6856   -3.5803 C   0  0  0  0  0  0  0  0  0  0  0  0
    0.9427    6.0323   -3.5210 N   0  0  0  0  0  0  0  0  0  0  0  0
    0.7824    6.5761   -2.2958 C   0  0  0  0  0  0  0  0  0  0  0  0
    0.6873    5.8380   -1.1296 C   0  0  0  0  0  0  0  0  0  0  0  0
   -3.7673   -2.0217    1.1944 C   0  0  0  0  0  0  0  0  0  0  0  0
   -5.0173   -2.6356    1.3118 C   0  0  0  0  0  0  0  0  0  0  0  0
   -5.9864   -2.4251    0.3341 C   0  0  0  0  0  0  0  0  0  0  0  0
   -5.7028   -1.6128   -0.7698 C   0  0  0  0  0  0  0  0  0  0  0  0
   -4.4417   -1.0030   -0.9080 C   0  0  0  0  0  0  0  0  0  0  0  0
   -4.0749   -0.0787   -2.3296 Cl  0  0  0  0  0  0  0  0  0  0  0  0
   -6.9694   -1.4041   -1.9323 Cl  0  0  0  0  0  0  0  0  0  0  0  0
    1.6760   -2.4015   -0.0258 H   0  0  0  0  0  0  0  0  0  0  0  0
    3.3763   -0.2468   -0.0128 H   0  0  0  0  0  0  0  0  0  0  0  0
   -2.9351    1.4856   -0.0057 H   0  0  0  0  0  0  0  0  0  0  0  0
   -1.4477    3.4201   -0.0466 H   0  0  0  0  0  0  0  0  0  0  0  0
    0.6437    4.2328    0.9222 H   0  0  0  0  0  0  0  0  0  0  0  0
    1.5524    3.0296    0.0966 H   0  0  0  0  0  0  0  0  0  0  0  0
    1.0576    2.7848   -2.5783 H   0  0  0  0  0  0  0  0  0  0  0  0
    1.1674    4.2730   -4.5762 H   0  0  0  0  0  0  0  0  0  0  0  0
    0.7281    7.6598   -2.2707 H   0  0  0  0  0  0  0  0  0  0  0  0
    0.5695    6.3358   -0.1736 H   0  0  0  0  0  0  0  0  0  0  0  0
   -3.0169   -2.1974    1.9641 H   0  0  0  0  0  0  0  0  0  0  0  0
   -5.2364   -3.2816    2.1605 H   0  0  0  0  0  0  0  0  0  0  0  0
   -6.9596   -2.9047    0.4296 H   0  0  0  0  0  0  0  0  0  0  0  0
  1  2  2  0  0  0  0
  1 26  1  0  0  0  0
  2  6  1  0  0  0  0
  3  9  1  0  0  0  0
  3  2  1  0  0  0  0
  4  5  2  0  0  0  0
  4  3  1  0  0  0  0
  5  1  1  0  0  0  0
  5 27  1  0  0  0  0
  6  7  2  0  0  0  0
  7 11  1  0  0  0  0
  8  7  1  0  0  0  0
  8 28  1  0  0  0  0
  9  8  2  0  0  0  0
 10 12  1  0  0  0  0
 10  9  1  0  0  0  0
 10 29  1  0  0  0  0
 11 19  1  0  0  0  0
 12 30  1  0  0  0  0
 12 31  1  0  0  0  0
 13 14  1  0  0  0  0
 13 12  1  0  0  0  0
 14 32  1  0  0  0  0
 15 14  2  0  0  0  0
 15 33  1  0  0  0  0
 16 15  1  0  0  0  0
 17 16  2  0  0  0  0
 17 18  1  0  0  0  0
 17 34  1  0  0  0  0
 18 13  2  0  0  0  0
 18 35  1  0  0  0  0
 19 20  2  0  0  0  0
 19 36  1  0  0  0  0
 20 37  1  0  0  0  0
 21 20  1  0  0  0  0
 21 38  1  0  0  0  0
 22 21  2  0  0  0  0
 23 11  2  0  0  0  0
 23 22  1  0  0  0  0
 24 23  1  0  0  0  0
 25 22  1  0  0  0  0
M  END
>  <DRUGBANK_ID>
DB08531

>  <COMMON_NAME>
5-(2,3-dichlorophenyl)-N-(pyridin-4-ylmethyl)pyrazolo[1,5-a]pyrimidin-7-amine

$$$$
