
 OpenBabel10282417243D

 54 53  0  0  0  0  0  0  0  0999 V2000
    0.9631   -0.0108    0.1447 C   0  0  0  0  0  0  0  0  0  0  0  0
    0.5180    1.3670    0.6065 C   0  0  0  0  0  0  0  0  0  0  0  0
    1.0183    2.4377   -0.3636 C   0  0  0  0  0  0  0  0  0  0  0  0
    0.4657    2.2065   -1.7747 C   0  0  0  0  0  0  0  0  0  0  0  0
   -1.0664    2.2312   -1.7619 C   0  0  0  0  0  0  0  0  0  0  0  0
   -1.5545    3.5958   -1.2670 C   0  0  0  0  0  0  0  0  0  0  0  0
   -1.0055    4.6990   -2.1813 C   0  0  0  0  0  0  0  0  0  0  0  0
   -1.4941    4.4713   -3.6040 C   0  0  0  0  0  0  0  0  0  0  0  0
   -3.0056    4.4944   -3.5949 C   0  0  0  0  0  0  0  0  0  0  0  0
   -3.5046    5.8580   -3.0891 C   0  0  0  0  0  0  0  0  0  0  0  0
   -3.1582    6.9591   -4.0797 C   0  0  0  0  0  0  0  0  0  0  0  0
   -3.7535    6.6593   -5.4593 C   0  0  0  0  0  0  0  0  0  0  0  0
   -5.2047    6.6474   -5.4077 O   0  0  0  0  0  0  0  0  0  0  0  0
   -5.8791    5.5753   -4.9099 C   0  0  0  0  0  0  0  0  0  0  0  0
   -5.4126    4.4677   -4.6279 O   0  0  0  0  0  0  0  0  0  0  0  0
   -7.3496    5.7758   -4.7252 C   0  0  0  0  0  0  0  0  0  0  0  0
   -7.7239    7.0613   -4.1563 N   0  0  0  0  0  0  0  0  0  0  0  0
   -8.5743    7.8668   -5.0221 C   0  0  0  0  0  0  0  0  0  0  0  0
   -7.4389    7.5093   -2.8965 C   0  0  0  0  0  0  0  0  0  0  0  0
   -6.7387    6.7134   -2.0701 N   0  0  0  0  0  0  0  0  0  0  0  0
   -7.8314    8.6682   -2.4836 N   0  0  0  0  0  0  0  0  0  0  0  0
    0.5667   -0.2625   -0.8445 H   0  0  0  0  0  0  0  0  0  0  0  0
    0.6096   -0.7819    0.8293 H   0  0  0  0  0  0  0  0  0  0  0  0
    2.0548   -0.0461    0.0875 H   0  0  0  0  0  0  0  0  0  0  0  0
   -0.5747    1.3909    0.6967 H   0  0  0  0  0  0  0  0  0  0  0  0
    0.8970    1.5745    1.6107 H   0  0  0  0  0  0  0  0  0  0  0  0
    0.7365    3.4292    0.0125 H   0  0  0  0  0  0  0  0  0  0  0  0
    2.1115    2.4475   -0.3949 H   0  0  0  0  0  0  0  0  0  0  0  0
    0.8773    2.9583   -2.4563 H   0  0  0  0  0  0  0  0  0  0  0  0
    0.8177    1.2644   -2.2000 H   0  0  0  0  0  0  0  0  0  0  0  0
   -1.4475    1.9959   -2.7615 H   0  0  0  0  0  0  0  0  0  0  0  0
   -1.4898    1.4379   -1.1404 H   0  0  0  0  0  0  0  0  0  0  0  0
   -2.6484    3.5946   -1.2103 H   0  0  0  0  0  0  0  0  0  0  0  0
   -1.2576    3.7963   -0.2352 H   0  0  0  0  0  0  0  0  0  0  0  0
   -1.2975    5.6776   -1.7953 H   0  0  0  0  0  0  0  0  0  0  0  0
    0.0831    4.7549   -2.1790 H   0  0  0  0  0  0  0  0  0  0  0  0
   -1.0926    5.2254   -4.2852 H   0  0  0  0  0  0  0  0  0  0  0  0
   -1.1514    3.5234   -4.0313 H   0  0  0  0  0  0  0  0  0  0  0  0
   -3.3004    4.2422   -4.6131 H   0  0  0  0  0  0  0  0  0  0  0  0
   -3.4573    3.6913   -3.0014 H   0  0  0  0  0  0  0  0  0  0  0  0
   -4.5708    5.8445   -2.9169 H   0  0  0  0  0  0  0  0  0  0  0  0
   -3.1382    6.1004   -2.0885 H   0  0  0  0  0  0  0  0  0  0  0  0
   -3.5447    7.9103   -3.7010 H   0  0  0  0  0  0  0  0  0  0  0  0
   -2.0691    7.0780   -4.1438 H   0  0  0  0  0  0  0  0  0  0  0  0
   -3.4457    7.4599   -6.1405 H   0  0  0  0  0  0  0  0  0  0  0  0
   -3.3650    5.7399   -5.9125 H   0  0  0  0  0  0  0  0  0  0  0  0
   -7.7800    5.5916   -5.7147 H   0  0  0  0  0  0  0  0  0  0  0  0
   -7.7192    4.9784   -4.0691 H   0  0  0  0  0  0  0  0  0  0  0  0
   -9.5529    8.0226   -4.5579 H   0  0  0  0  0  0  0  0  0  0  0  0
   -8.1008    8.8289   -5.2317 H   0  0  0  0  0  0  0  0  0  0  0  0
   -8.7549    7.3795   -5.9869 H   0  0  0  0  0  0  0  0  0  0  0  0
   -6.4241    7.0455   -1.1695 H   0  0  0  0  0  0  0  0  0  0  0  0
   -6.4331    5.7871   -2.3203 H   0  0  0  0  0  0  0  0  0  0  0  0
   -7.5277    8.8093   -1.5212 H   0  0  0  0  0  0  0  0  0  0  0  0
  1  2  1  0  0  0  0
  1 22  1  0  0  0  0
  1 23  1  0  0  0  0
  1 24  1  0  0  0  0
  2  3  1  0  0  0  0
  2 25  1  0  0  0  0
  2 26  1  0  0  0  0
  3  4  1  0  0  0  0
  3 27  1  0  0  0  0
  3 28  1  0  0  0  0
  4  5  1  0  0  0  0
  4 29  1  0  0  0  0
  4 30  1  0  0  0  0
  5  6  1  0  0  0  0
  5 31  1  0  0  0  0
  5 32  1  0  0  0  0
  6  7  1  0  0  0  0
  6 33  1  0  0  0  0
  6 34  1  0  0  0  0
  7  8  1  0  0  0  0
  7 35  1  0  0  0  0
  7 36  1  0  0  0  0
  8  9  1  0  0  0  0
  8 37  1  0  0  0  0
  8 38  1  0  0  0  0
  9 10  1  0  0  0  0
  9 39  1  0  0  0  0
  9 40  1  0  0  0  0
 10 11  1  0  0  0  0
 10 41  1  0  0  0  0
 10 42  1  0  0  0  0
 11 12  1  0  0  0  0
 11 43  1  0  0  0  0
 11 44  1  0  0  0  0
 12 13  1  0  0  0  0
 12 45  1  0  0  0  0
 12 46  1  0  0  0  0
 13 14  1  0  0  0  0
 14 15  2  0  0  0  0
 14 16  1  0  0  0  0
 16 17  1  0  0  0  0
 16 47  1  0  0  0  0
 16 48  1  0  0  0  0
 17 18  1  0  0  0  0
 17 19  1  0  0  0  0
 18 49  1  0  0  0  0
 18 50  1  0  0  0  0
 18 51  1  0  0  0  0
 19 20  1  0  0  0  0
 19 21  2  0  0  0  0
 20 52  1  0  0  0  0
 20 53  1  0  0  0  0
 21 54  1  0  0  0  0
M  END
>  <DRUGBANK_ID>
DB18049

>  <COMMON_NAME>
Dodecyl creatine ester

>  <CAS_NUMBER>
1442645-21-7

>  <UNII>
Z7DW5UW9UD

>  <SYNONYMS>
Glycine, n-(aminoiminomethyl)-n-methyl-, dodecyl ester

$$$$
