
 OpenBabel10282417173D

 61 61  0  0  0  0  0  0  0  0999 V2000
    2.4783   -9.4830   -1.4397 C   0  0  0  0  0  0  0  0  0  0  0  0
    3.8455   -6.6478    1.7479 C   0  0  0  0  0  0  0  0  0  0  0  0
    2.1561   -3.5152    0.5203 C   0  0  0  0  0  0  0  0  0  0  0  0
    6.0078   -7.4605   -3.0723 C   0  0  0  0  0  0  0  0  0  0  0  0
    8.0371    3.2857   -1.7447 C   0  0  0  0  0  0  0  0  0  0  0  0
    1.9738   -9.2605   -0.0167 C   0  0  0  0  0  0  0  0  0  0  0  0
    4.1724   -0.7525    2.3621 C   0  0  0  0  0  0  0  0  0  0  0  0
    5.6645   -0.7456    2.0282 C   0  0  0  0  0  0  0  0  0  0  0  0
    3.0826   -9.0055    1.0251 C   0  0  0  0  0  0  0  0  0  0  0  0
    3.2531   -1.3998    1.3223 C   0  0  0  0  0  0  0  0  0  0  0  0
    4.6421   -7.6990   -0.3701 C   0  0  0  0  0  0  0  0  0  0  0  0
    5.3075   -6.5315   -0.8641 C   0  0  0  0  0  0  0  0  0  0  0  0
    5.9604   -0.0082    0.7359 C   0  0  0  0  0  0  0  0  0  0  0  0
    4.6117   -2.7703   -1.0645 C   0  0  0  0  0  0  0  0  0  0  0  0
    3.8966   -7.7636    0.7475 C   0  0  0  0  0  0  0  0  0  0  0  0
    3.4528   -2.9189    1.1208 C   0  0  2  0  0  0  0  0  0  0  0  0
    5.9925   -6.3989   -2.0096 C   0  0  0  0  0  0  0  0  0  0  0  0
    5.7428   -3.0388   -1.9295 C   0  0  0  0  0  0  0  0  0  0  0  0
    4.6359   -3.1796    0.2036 C   0  0  0  0  0  0  0  0  0  0  0  0
    6.8184   -3.9407   -1.4374 C   0  0  3  0  0  0  0  0  0  0  0  0
    6.8187   -5.1676   -2.3296 C   0  0  0  0  0  0  0  0  0  0  0  0
    6.8412   -4.2338    0.0298 C   0  0  0  0  0  0  0  0  0  0  0  0
    6.9277    1.5659   -0.5690 C   0  0  0  0  0  0  0  0  0  0  0  0
    6.7671    1.0011    0.6751 N   0  0  0  0  0  0  0  0  0  0  0  0
    5.7104   -2.5710   -3.0638 O   0  0  0  0  0  0  0  0  0  0  0  0
    7.4299   -5.1393   -3.4028 O   0  0  0  0  0  0  0  0  0  0  0  0
    7.7340   -4.9048    0.5445 O   0  0  0  0  0  0  0  0  0  0  0  0
    6.3701    1.2009   -1.6035 O   0  0  0  0  0  0  0  0  0  0  0  0
    7.7960    2.6094   -0.5047 O   0  0  0  0  0  0  0  0  0  0  0  0
    5.7628   -3.8200    0.7766 O   0  0  0  0  0  0  0  0  0  0  0  0
    4.7460   -8.5930   -0.9668 H   0  0  0  0  0  0  0  0  0  0  0  0
    5.1897   -5.7294   -0.1739 H   0  0  0  0  0  0  0  0  0  0  0  0
    5.4590   -0.3911   -0.1674 H   0  0  0  0  0  0  0  0  0  0  0  0
    3.6214   -3.3926    2.0981 H   0  0  0  0  0  0  0  0  0  0  0  0
    7.7532   -3.3804   -1.5883 H   0  0  0  0  0  0  0  0  0  0  0  0
    2.8866   -8.5630   -1.8669 H   0  0  0  0  0  0  0  0  0  0  0  0
    1.6732   -9.7687   -2.1175 H   0  0  0  0  0  0  0  0  0  0  0  0
    3.2488  -10.2623   -1.4575 H   0  0  0  0  0  0  0  0  0  0  0  0
    4.8585   -6.4008    2.0870 H   0  0  0  0  0  0  0  0  0  0  0  0
    3.4126   -5.7640    1.2871 H   0  0  0  0  0  0  0  0  0  0  0  0
    3.2515   -6.8877    2.6316 H   0  0  0  0  0  0  0  0  0  0  0  0
    2.2591   -3.8038   -0.5310 H   0  0  0  0  0  0  0  0  0  0  0  0
    1.8471   -4.4105    1.0667 H   0  0  0  0  0  0  0  0  0  0  0  0
    1.3143   -2.8188    0.5799 H   0  0  0  0  0  0  0  0  0  0  0  0
    5.5683   -7.0759   -3.9985 H   0  0  0  0  0  0  0  0  0  0  0  0
    7.0262   -7.8078   -3.2522 H   0  0  0  0  0  0  0  0  0  0  0  0
    5.4132   -8.3381   -2.8119 H   0  0  0  0  0  0  0  0  0  0  0  0
    8.4862    2.6100   -2.4802 H   0  0  0  0  0  0  0  0  0  0  0  0
    7.1147    3.7257   -2.1386 H   0  0  0  0  0  0  0  0  0  0  0  0
    8.7453    4.0999   -1.5583 H   0  0  0  0  0  0  0  0  0  0  0  0
    1.2694   -8.4201   -0.0181 H   0  0  0  0  0  0  0  0  0  0  0  0
    1.4125  -10.1510    0.2875 H   0  0  0  0  0  0  0  0  0  0  0  0
    3.8381    0.2830    2.4960 H   0  0  0  0  0  0  0  0  0  0  0  0
    4.0127   -1.2584    3.3234 H   0  0  0  0  0  0  0  0  0  0  0  0
    6.2233   -0.2935    2.8523 H   0  0  0  0  0  0  0  0  0  0  0  0
    6.0302   -1.7691    1.9439 H   0  0  0  0  0  0  0  0  0  0  0  0
    2.6119   -8.9301    2.0132 H   0  0  0  0  0  0  0  0  0  0  0  0
    3.7562   -9.8693    1.0779 H   0  0  0  0  0  0  0  0  0  0  0  0
    3.3508   -0.8700    0.3679 H   0  0  0  0  0  0  0  0  0  0  0  0
    2.2226   -1.2121    1.6455 H   0  0  0  0  0  0  0  0  0  0  0  0
    3.7836   -2.2268   -1.5011 H   0  0  0  0  0  0  0  0  0  0  0  0
  1 36  1  0  0  0  0
  1 37  1  0  0  0  0
  1 38  1  0  0  0  0
  2 39  1  0  0  0  0
  2 40  1  0  0  0  0
  2 41  1  0  0  0  0
  3 42  1  0  0  0  0
  3 43  1  0  0  0  0
  3 44  1  0  0  0  0
  4 45  1  0  0  0  0
  4 46  1  0  0  0  0
  4 47  1  0  0  0  0
  5 48  1  0  0  0  0
  5 49  1  0  0  0  0
  5 50  1  0  0  0  0
  6  1  1  0  0  0  0
  6 51  1  0  0  0  0
  6 52  1  0  0  0  0
  7 53  1  0  0  0  0
  7 54  1  0  0  0  0
  8  7  1  0  0  0  0
  8 55  1  0  0  0  0
  8 56  1  0  0  0  0
  9  6  1  0  0  0  0
  9 57  1  0  0  0  0
  9 58  1  0  0  0  0
 10  7  1  0  0  0  0
 10 59  1  0  0  0  0
 10 60  1  0  0  0  0
 12 11  1  0  0  0  0
 13  8  1  0  0  0  0
 14 61  1  0  0  0  0
 15  2  1  0  0  0  0
 15  9  1  0  0  0  0
 15 11  2  0  0  0  0
 16 19  1  0  0  0  0
 16 34  1  1  0  0  0
 16 10  1  0  0  0  0
 16  3  1  0  0  0  0
 17  4  1  0  0  0  0
 17 12  2  0  0  0  0
 18 14  1  0  0  0  0
 19 14  2  0  0  0  0
 20 18  1  0  0  0  0
 21 17  1  0  0  0  0
 21 20  1  0  0  0  0
 22 20  1  0  0  0  0
 24 13  2  0  0  0  0
 24 23  1  0  0  0  0
 25 18  2  0  0  0  0
 26 21  2  0  0  0  0
 27 22  2  0  0  0  0
 28 23  2  0  0  0  0
 29  5  1  0  0  0  0
 29 23  1  0  0  0  0
 30 19  1  0  0  0  0
 30 22  1  0  0  0  0
 31 11  1  0  0  0  0
 32 12  1  0  0  0  0
 33 13  1  0  0  0  0
 35 20  1  0  0  0  0
M  END
>  <DRUGBANK_ID>
DB08266

>  <COMMON_NAME>
Methyl [(1E,5R)-5-{3-[(2E,4E)-2,5-dimethyl-2,4-octadienoyl]-2,4-dioxo-3,4-dihydro-2H-pyran-6-yl}hexylidene]carbamate

$$$$
