
 OpenBabel10282417193D

 64 67  0  0  0  0  0  0  0  0999 V2000
    1.8307    1.3724   -0.0752 C   0  0  0  0  0  0  0  0  0  0  0  0
    0.4639    1.5027   -0.0177 C   0  0  0  0  0  0  0  0  0  0  0  0
   -0.3694    0.4075    0.2553 C   0  0  0  0  0  0  0  0  0  0  0  0
    0.1009   -0.9291    0.1952 C   0  0  0  0  0  0  0  0  0  0  0  0
    1.5015   -0.9874    0.0795 C   0  0  0  0  0  0  0  0  0  0  0  0
    2.3858    0.1159    0.0198 C   0  0  0  0  0  0  0  0  0  0  0  0
    3.8942    0.0055    0.0712 C   0  0  0  0  0  0  0  0  0  0  0  0
    4.4460   -0.7099    1.3161 C   0  0  0  0  0  0  0  0  0  0  0  0
    4.1000   -2.1970    1.4169 C   0  0  0  0  0  0  0  0  0  0  0  0
    4.5189   -2.9115    0.2063 N   0  0  0  0  0  0  0  0  0  0  0  0
    4.0016   -4.2794    0.1332 C   0  0  0  0  0  0  0  0  0  0  0  0
    2.4963   -4.3568   -0.0999 C   0  0  0  0  0  0  0  0  0  0  0  0
    2.0573   -3.7462   -1.4488 C   0  0  0  0  0  0  0  0  0  0  0  0
    2.6021   -4.4720   -2.5349 O   0  0  0  0  0  0  0  0  0  0  0  0
   -0.6158   -2.3437    0.2601 C   0  0  0  0  0  0  0  0  0  0  0  0
   -0.0009   -3.3998    0.4905 O   0  0  0  0  0  0  0  0  0  0  0  0
   -1.9444   -2.5674    0.0047 N   0  0  0  0  0  0  0  0  0  0  0  0
   -2.8367   -1.4903   -0.1086 C   0  0  0  0  0  0  0  0  0  0  0  0
   -3.5957   -1.2737   -1.3736 C   0  0  3  0  0  0  0  0  0  0  0  0
   -4.9147   -1.9963   -1.1883 C   0  0  0  0  0  0  0  0  0  0  0  0
   -5.7381   -1.8370   -2.4524 C   0  0  3  0  0  0  0  0  0  0  0  0
   -6.0201   -0.3439   -2.6916 C   0  0  0  0  0  0  0  0  0  0  0  0
   -4.7077    0.4269   -2.8843 C   0  0  3  0  0  0  0  0  0  0  0  0
   -3.8645    0.2513   -1.6198 C   0  0  0  0  0  0  0  0  0  0  0  0
   -3.9273   -0.1473   -4.0772 C   0  0  0  0  0  0  0  0  0  0  0  0
   -3.6210   -1.6335   -3.8426 C   0  0  3  0  0  0  0  0  0  0  0  0
   -4.9333   -2.4098   -3.6329 C   0  0  0  0  0  0  0  0  0  0  0  0
   -2.7810   -1.7823   -2.5814 C   0  0  0  0  0  0  0  0  0  0  0  0
   -1.8474    1.0598    0.9473 Cl  0  0  0  0  0  0  0  0  0  0  0  0
    2.4382    2.2702   -0.1004 H   0  0  0  0  0  0  0  0  0  0  0  0
    0.0389    2.5007   -0.0509 H   0  0  0  0  0  0  0  0  0  0  0  0
    1.9403   -1.9582    0.1124 H   0  0  0  0  0  0  0  0  0  0  0  0
    4.2666   -0.4328   -0.8609 H   0  0  0  0  0  0  0  0  0  0  0  0
    4.3187    1.0203    0.0809 H   0  0  0  0  0  0  0  0  0  0  0  0
    5.5380   -0.6072    1.3290 H   0  0  0  0  0  0  0  0  0  0  0  0
    4.0720   -0.2003    2.2140 H   0  0  0  0  0  0  0  0  0  0  0  0
    4.5762   -2.6401    2.2949 H   0  0  0  0  0  0  0  0  0  0  0  0
    3.0350   -2.2762    1.6392 H   0  0  0  0  0  0  0  0  0  0  0  0
    4.2358   -2.4072   -0.6299 H   0  0  0  0  0  0  0  0  0  0  0  0
    4.4997   -4.7898   -0.6947 H   0  0  0  0  0  0  0  0  0  0  0  0
    4.2762   -4.8189    1.0442 H   0  0  0  0  0  0  0  0  0  0  0  0
    2.1632   -5.3975   -0.0549 H   0  0  0  0  0  0  0  0  0  0  0  0
    2.0338   -3.8884    0.7728 H   0  0  0  0  0  0  0  0  0  0  0  0
    0.9718   -3.7250   -1.5747 H   0  0  0  0  0  0  0  0  0  0  0  0
    2.4005   -2.7185   -1.5935 H   0  0  0  0  0  0  0  0  0  0  0  0
    3.5519   -4.2687   -2.5328 H   0  0  0  0  0  0  0  0  0  0  0  0
   -2.2705   -3.5336    0.0092 H   0  0  0  0  0  0  0  0  0  0  0  0
   -3.3652   -1.3498    0.8379 H   0  0  0  0  0  0  0  0  0  0  0  0
   -2.1422   -0.7312   -0.2749 H   0  0  0  0  0  0  0  0  0  0  0  0
   -4.7284   -3.0529   -0.9626 H   0  0  0  0  0  0  0  0  0  0  0  0
   -5.4438   -1.5757   -0.3204 H   0  0  0  0  0  0  0  0  0  0  0  0
   -6.6754   -2.3825   -2.3200 H   0  0  0  0  0  0  0  0  0  0  0  0
   -6.6537   -0.2271   -3.5753 H   0  0  0  0  0  0  0  0  0  0  0  0
   -6.5669    0.0777   -1.8378 H   0  0  0  0  0  0  0  0  0  0  0  0
   -4.9129    1.4904   -3.0531 H   0  0  0  0  0  0  0  0  0  0  0  0
   -4.3745    0.7070   -0.7611 H   0  0  0  0  0  0  0  0  0  0  0  0
   -2.9252    0.8072   -1.7601 H   0  0  0  0  0  0  0  0  0  0  0  0
   -2.9919    0.4123   -4.2147 H   0  0  0  0  0  0  0  0  0  0  0  0
   -4.5090   -0.0308   -4.9972 H   0  0  0  0  0  0  0  0  0  0  0  0
   -3.0635   -2.0408   -4.6918 H   0  0  0  0  0  0  0  0  0  0  0  0
   -5.5367   -2.3608   -4.5417 H   0  0  0  0  0  0  0  0  0  0  0  0
   -4.7026   -3.4651   -3.4393 H   0  0  0  0  0  0  0  0  0  0  0  0
   -1.8388   -1.2188   -2.6770 H   0  0  0  0  0  0  0  0  0  0  0  0
   -2.4984   -2.8331   -2.4509 H   0  0  0  0  0  0  0  0  0  0  0  0
  1  2  2  0  0  0  0
  1  6  1  0  0  0  0
  1 30  1  0  0  0  0
  2  3  1  0  0  0  0
  2 31  1  0  0  0  0
  3  4  2  0  0  0  0
  3 29  1  0  0  0  0
  4  5  1  0  0  0  0
  4 15  1  0  0  0  0
  5  6  2  0  0  0  0
  5 32  1  0  0  0  0
  6  7  1  0  0  0  0
  7  8  1  0  0  0  0
  7 33  1  0  0  0  0
  7 34  1  0  0  0  0
  8  9  1  0  0  0  0
  8 35  1  0  0  0  0
  8 36  1  0  0  0  0
  9 10  1  0  0  0  0
  9 37  1  0  0  0  0
  9 38  1  0  0  0  0
 10 11  1  0  0  0  0
 10 39  1  0  0  0  0
 11 12  1  0  0  0  0
 11 40  1  0  0  0  0
 11 41  1  0  0  0  0
 12 13  1  0  0  0  0
 12 42  1  0  0  0  0
 12 43  1  0  0  0  0
 13 14  1  0  0  0  0
 13 44  1  0  0  0  0
 13 45  1  0  0  0  0
 14 46  1  0  0  0  0
 15 16  2  0  0  0  0
 15 17  1  0  0  0  0
 17 18  1  0  0  0  0
 17 47  1  0  0  0  0
 18 19  1  0  0  0  0
 18 48  1  0  0  0  0
 18 49  1  0  0  0  0
 19 20  1  0  0  0  0
 19 28  1  0  0  0  0
 19 24  1  0  0  0  0
 20 21  1  0  0  0  0
 20 50  1  0  0  0  0
 20 51  1  0  0  0  0
 21 27  1  0  0  0  0
 21 22  1  0  0  0  0
 21 52  1  0  0  0  0
 22 23  1  0  0  0  0
 22 53  1  0  0  0  0
 22 54  1  0  0  0  0
 23 24  1  0  0  0  0
 23 25  1  0  0  0  0
 23 55  1  0  0  0  0
 24 56  1  0  0  0  0
 24 57  1  0  0  0  0
 25 26  1  0  0  0  0
 25 58  1  0  0  0  0
 25 59  1  0  0  0  0
 26 28  1  0  0  0  0
 26 27  1  0  0  0  0
 26 60  1  0  0  0  0
 27 61  1  0  0  0  0
 27 62  1  0  0  0  0
 28 63  1  0  0  0  0
 28 64  1  0  0  0  0
M  END
>  <DRUGBANK_ID>
DB12594

>  <COMMON_NAME>
AZD-9056

>  <CAS_NUMBER>
345304-65-6

>  <UNII>
F13K378W4L

$$$$
