
 OpenBabel10282417123D

 45 47  0  0  0  0  0  0  0  0999 V2000
   -0.2388   -1.9136   -0.7117 C   0  0  0  0  0  0  0  0  0  0  0  0
   -1.3866   -1.2434    0.0482 C   0  0  1  0  0  0  0  0  0  0  0  0
   -2.5252   -2.0764    0.2222 O   0  0  0  0  0  0  0  0  0  0  0  0
   -0.9159   -0.6501    1.4013 C   0  0  2  0  0  0  0  0  0  0  0  0
    0.5425   -0.4653    1.5917 N   0  0  0  0  0  0  0  0  0  0  0  0
   -1.4258   -1.3518    2.6703 C   0  0  0  0  0  0  0  0  0  0  0  0
   -1.9266   -0.6224    3.6252 N   0  0  0  0  0  0  0  0  0  0  0  0
   -2.1716   -1.4962    4.6557 C   0  0  0  0  0  0  0  0  0  0  0  0
   -2.7243   -1.1739    5.8367 C   0  0  0  0  0  0  0  0  0  0  0  0
   -3.2194    0.1378    6.1277 C   0  0  0  0  0  0  0  0  0  0  0  0
   -2.7583    0.9487    7.1402 C   0  0  0  0  0  0  0  0  0  0  0  0
   -3.4024    2.1556    7.0277 N   0  0  0  0  0  0  0  0  0  0  0  0
   -4.2991    2.1310    5.9795 C   0  0  0  0  0  0  0  0  0  0  0  0
   -5.1643    3.1285    5.5099 C   0  0  0  0  0  0  0  0  0  0  0  0
   -5.9803    2.8151    4.4213 C   0  0  0  0  0  0  0  0  0  0  0  0
   -5.9519    1.5474    3.8453 C   0  0  0  0  0  0  0  0  0  0  0  0
   -5.0923    0.5428    4.3129 C   0  0  0  0  0  0  0  0  0  0  0  0
   -5.2447   -0.7557    3.7935 N   0  0  0  0  0  0  0  0  0  0  0  0
   -4.2281    0.8578    5.4005 C   0  0  0  0  0  0  0  0  0  0  0  0
   -1.7786   -2.8624    4.2257 C   0  0  0  0  0  0  0  0  0  0  0  0
   -1.8243   -3.8890    4.8877 O   0  0  0  0  0  0  0  0  0  0  0  0
   -1.3337   -2.6764    2.9461 N   0  0  0  0  0  0  0  0  0  0  0  0
   -0.6753   -3.7448    2.2000 C   0  0  0  0  0  0  0  0  0  0  0  0
   -1.4419   -4.3081    1.0109 C   0  0  0  0  0  0  0  0  0  0  0  0
   -0.9664   -4.5786   -0.0884 O   0  0  0  0  0  0  0  0  0  0  0  0
   -1.7562   -0.4453   -0.6017 H   0  0  0  0  0  0  0  0  0  0  0  0
   -1.3534    0.3604    1.4250 H   0  0  0  0  0  0  0  0  0  0  0  0
    0.7701    0.5220    1.4895 H   0  0  0  0  0  0  0  0  0  0  0  0
    1.0960   -0.9495    0.8936 H   0  0  0  0  0  0  0  0  0  0  0  0
   -3.2369    2.9586    7.6189 H   0  0  0  0  0  0  0  0  0  0  0  0
   -4.4794   -1.3682    4.0440 H   0  0  0  0  0  0  0  0  0  0  0  0
   -5.4937   -0.8223    2.8166 H   0  0  0  0  0  0  0  0  0  0  0  0
   -2.7571   -4.4996    1.2162 O   0  0  0  0  0  0  0  0  0  0  0  0
    0.3577   -2.5646   -0.0662 H   0  0  0  0  0  0  0  0  0  0  0  0
    0.4453   -1.1438   -1.0801 H   0  0  0  0  0  0  0  0  0  0  0  0
   -0.5654   -2.5203   -1.5570 H   0  0  0  0  0  0  0  0  0  0  0  0
   -2.5558   -2.7102   -0.5134 H   0  0  0  0  0  0  0  0  0  0  0  0
   -2.8661   -1.9420    6.5920 H   0  0  0  0  0  0  0  0  0  0  0  0
   -2.0008    0.7979    7.8977 H   0  0  0  0  0  0  0  0  0  0  0  0
   -5.2114    4.1109    5.9691 H   0  0  0  0  0  0  0  0  0  0  0  0
   -6.6660    3.5602    4.0263 H   0  0  0  0  0  0  0  0  0  0  0  0
   -6.6131    1.3285    3.0114 H   0  0  0  0  0  0  0  0  0  0  0  0
    0.3038   -3.3785    1.8825 H   0  0  0  0  0  0  0  0  0  0  0  0
   -0.5081   -4.6016    2.8583 H   0  0  0  0  0  0  0  0  0  0  0  0
   -3.1416   -4.6281    0.3233 H   0  0  0  0  0  0  0  0  0  0  0  0
  1 34  1  0  0  0  0
  1 35  1  0  0  0  0
  1 36  1  0  0  0  0
  2  1  1  0  0  0  0
  2  3  1  0  0  0  0
  2 26  1  6  0  0  0
  3 37  1  0  0  0  0
  4 27  1  1  0  0  0
  4  5  1  0  0  0  0
  4  2  1  0  0  0  0
  6  4  1  0  0  0  0
  6  7  2  0  0  0  0
  6 22  1  0  0  0  0
  8  7  1  0  0  0  0
  8 20  1  0  0  0  0
  9  8  2  0  0  0  0
  9 10  1  0  0  0  0
  9 38  1  0  0  0  0
 10 11  2  0  0  0  0
 11 12  1  0  0  0  0
 11 39  1  0  0  0  0
 13 12  1  0  0  0  0
 14 13  2  0  0  0  0
 14 40  1  0  0  0  0
 15 14  1  0  0  0  0
 15 41  1  0  0  0  0
 16 15  2  0  0  0  0
 16 42  1  0  0  0  0
 17 16  1  0  0  0  0
 17 18  1  0  0  0  0
 19 10  1  0  0  0  0
 19 13  1  0  0  0  0
 19 17  2  0  0  0  0
 20 21  2  0  0  0  0
 20 22  1  0  0  0  0
 23 22  1  0  0  0  0
 23 24  1  0  0  0  0
 23 43  1  0  0  0  0
 23 44  1  0  0  0  0
 24 25  2  0  0  0  0
 24 33  1  0  0  0  0
 28  5  1  0  0  0  0
 29  5  1  0  0  0  0
 30 12  1  0  0  0  0
 31 18  1  0  0  0  0
 32 18  1  0  0  0  0
 33 45  1  0  0  0  0
M  END
>  <DRUGBANK_ID>
DB01641

>  <SECONDARY_ACCESSION_NUMBERS>
EXPT00264

>  <COMMON_NAME>
{(4Z)-2-[(1R,2R)-1-Amino-2-hydroxypropyl]-4-[(4-amino-1H-indol-3-yl)methylene]-5-oxo-4,5-dihydro-1H-imidazol-1-yl}acetic acid

$$$$
