ST8
 OpenBabel10282417173D

 49 51  0  0  0  0  0  0  0  0999 V2000
   -0.9941   -1.1633    0.0503 C   0  0  0  0  0  0  0  0  0  0  0  0
   -1.4109    3.5332   -0.0278 C   0  0  0  0  0  0  0  0  0  0  0  0
   -0.7081    3.7515    1.3396 C   0  0  0  0  0  0  0  0  0  0  0  0
   -0.9573    2.6068    2.3334 C   0  0  0  0  0  0  0  0  0  0  0  0
   -0.2149    2.7870    3.6350 C   0  0  0  0  0  0  0  0  0  0  0  0
   -0.6061    4.1085    4.2560 C   0  0  0  0  0  0  0  0  0  0  0  0
   -0.3174    5.2703    3.3072 C   0  0  0  0  0  0  0  0  0  0  0  0
   -1.0360    5.1105    1.9626 C   0  0  0  0  0  0  0  0  0  0  0  0
   -0.0644   -5.5911   -0.9281 C   0  0  0  0  0  0  0  0  0  0  0  0
    0.9321   -5.7415    0.0514 C   0  0  0  0  0  0  0  0  0  0  0  0
    0.9567   -4.8516    1.1254 C   0  0  0  0  0  0  0  0  0  0  0  0
    0.0209   -3.8242    1.2022 C   0  0  0  0  0  0  0  0  0  0  0  0
    2.8536   -7.0019    0.9206 N   0  0  0  0  0  0  0  0  0  0  0  0
   -1.7183   -0.0467   -0.1056 N   0  0  0  0  0  0  0  0  0  0  0  0
   -1.0393    1.1309   -0.2719 C   0  0  0  0  0  0  0  0  0  0  0  0
   -1.9062    2.2035   -0.2548 O   0  0  0  0  0  0  0  0  0  0  0  0
    0.3582    1.2086   -0.3181 C   0  0  0  0  0  0  0  0  0  0  0  0
    1.0977    2.3535   -0.5754 N   0  0  0  0  0  0  0  0  0  0  0  0
    2.3962   -0.0933   -0.2077 N   0  0  0  0  0  0  0  0  0  0  0  0
    1.0073   -0.0010   -0.1075 C   0  0  0  0  0  0  0  0  0  0  0  0
    0.3517   -1.1526    0.0700 N   0  0  0  0  0  0  0  0  0  0  0  0
   -1.6423   -2.4066    0.1877 N   0  0  0  0  0  0  0  0  0  0  0  0
   -0.9499   -3.6328    0.2107 C   0  0  0  0  0  0  0  0  0  0  0  0
   -1.0214   -4.5620   -0.8327 C   0  0  0  0  0  0  0  0  0  0  0  0
    1.9167   -6.8547   -0.0632 C   0  0  0  0  0  0  0  0  0  0  0  0
    2.0392    2.5254    0.2167 O   0  0  0  0  0  0  0  0  0  0  0  0
    1.8877   -7.6458   -1.0098 O   0  0  0  0  0  0  0  0  0  0  0  0
   -0.7845    3.8269   -0.8787 H   0  0  0  0  0  0  0  0  0  0  0  0
   -2.2720    4.2083   -0.1052 H   0  0  0  0  0  0  0  0  0  0  0  0
    0.3682    3.8367    1.1703 H   0  0  0  0  0  0  0  0  0  0  0  0
   -2.0344    2.5060    2.5028 H   0  0  0  0  0  0  0  0  0  0  0  0
   -0.6028    1.6456    1.9744 H   0  0  0  0  0  0  0  0  0  0  0  0
   -0.4619    1.9497    4.2969 H   0  0  0  0  0  0  0  0  0  0  0  0
    0.8673    2.7411    3.4520 H   0  0  0  0  0  0  0  0  0  0  0  0
   -1.6778    4.0844    4.4853 H   0  0  0  0  0  0  0  0  0  0  0  0
   -0.0637    4.2355    5.1961 H   0  0  0  0  0  0  0  0  0  0  0  0
   -0.6236    6.2098    3.7746 H   0  0  0  0  0  0  0  0  0  0  0  0
    0.7659    5.3298    3.1346 H   0  0  0  0  0  0  0  0  0  0  0  0
   -0.7181    5.9155    1.2869 H   0  0  0  0  0  0  0  0  0  0  0  0
   -2.1181    5.2032    2.0994 H   0  0  0  0  0  0  0  0  0  0  0  0
   -0.0791   -6.2595   -1.7894 H   0  0  0  0  0  0  0  0  0  0  0  0
    1.7033   -4.8965    1.9063 H   0  0  0  0  0  0  0  0  0  0  0  0
    0.0730   -3.1235    2.0327 H   0  0  0  0  0  0  0  0  0  0  0  0
    3.4871   -7.7869    0.8505 H   0  0  0  0  0  0  0  0  0  0  0  0
    2.9356   -6.4157    1.7368 H   0  0  0  0  0  0  0  0  0  0  0  0
    2.8037   -0.9888    0.0120 H   0  0  0  0  0  0  0  0  0  0  0  0
    2.9174    0.7488    0.0260 H   0  0  0  0  0  0  0  0  0  0  0  0
   -2.6105   -2.3904   -0.0911 H   0  0  0  0  0  0  0  0  0  0  0  0
   -1.7739   -4.4706   -1.6120 H   0  0  0  0  0  0  0  0  0  0  0  0
  1 14  2  0  0  0  0
  1 21  1  0  0  0  0
  1 22  1  0  0  0  0
  2  3  1  0  0  0  0
  2 16  1  0  0  0  0
  2 28  1  0  0  0  0
  2 29  1  0  0  0  0
  3  4  1  0  0  0  0
  3  8  1  0  0  0  0
  3 30  1  0  0  0  0
  4  5  1  0  0  0  0
  4 31  1  0  0  0  0
  4 32  1  0  0  0  0
  5  6  1  0  0  0  0
  5 33  1  0  0  0  0
  5 34  1  0  0  0  0
  6  7  1  0  0  0  0
  6 35  1  0  0  0  0
  6 36  1  0  0  0  0
  7  8  1  0  0  0  0
  7 37  1  0  0  0  0
  7 38  1  0  0  0  0
  8 39  1  0  0  0  0
  8 40  1  0  0  0  0
  9 10  2  0  0  0  0
  9 24  1  0  0  0  0
  9 41  1  0  0  0  0
 10 11  1  0  0  0  0
 10 25  1  0  0  0  0
 11 12  2  0  0  0  0
 11 42  1  0  0  0  0
 12 23  1  0  0  0  0
 12 43  1  0  0  0  0
 13 25  1  0  0  0  0
 13 44  1  0  0  0  0
 13 45  1  0  0  0  0
 14 15  1  0  0  0  0
 15 16  1  0  0  0  0
 15 17  2  0  0  0  0
 17 18  1  0  0  0  0
 17 20  1  0  0  0  0
 18 26  2  0  0  0  0
 19 20  1  0  0  0  0
 19 46  1  0  0  0  0
 19 47  1  0  0  0  0
 20 21  2  0  0  0  0
 22 23  1  0  0  0  0
 22 48  1  0  0  0  0
 23 24  2  0  0  0  0
 24 49  1  0  0  0  0
 25 27  2  0  0  0  0
M  END
>  <DRUGBANK_ID>
DB08572

>  <COMMON_NAME>
4-{[4-AMINO-6-(CYCLOHEXYLMETHOXY)-5-NITROSOPYRIMIDIN-2-YL]AMINO}BENZAMIDE

$$$$
