
 OpenBabel10282417213D

 44 44  0  0  0  0  0  0  0  0999 V2000
    1.3023   -0.1903   -0.0332 C   0  0  0  0  0  0  0  0  0  0  0  0
    1.0235   -2.3737    1.0373 C   0  0  0  0  0  0  0  0  0  0  0  0
   -2.7198    1.7830   -1.3380 C   0  0  0  0  0  0  0  0  0  0  0  0
   -4.7332    1.2128   -3.1087 C   0  0  0  0  0  0  0  0  0  0  0  0
   -1.0758    0.0153   -2.2353 C   0  0  0  0  0  0  0  0  0  0  0  0
   -1.2611   -1.4137   -1.6927 C   0  0  0  0  0  0  0  0  0  0  0  0
   -1.2331    1.0879    0.1998 C   0  0  0  0  0  0  0  0  0  0  0  0
   -6.1027   -0.3135   -1.6170 C   0  0  0  0  0  0  0  0  0  0  0  0
    0.5846   -1.5264   -0.1335 C   0  0  0  0  0  0  0  0  0  0  0  0
   -1.3432    1.2864   -1.2849 C   0  0  2  0  0  0  0  0  0  0  0  0
   -6.0807    0.9774   -2.5440 C   0  0  3  0  0  0  0  0  0  0  0  0
   -0.9722   -1.4768   -0.2040 C   0  0  1  0  0  0  0  0  0  0  0  0
   -1.6904   -0.3463    0.6036 C   0  0  2  0  0  0  0  0  0  0  0  0
   -4.0587   -0.6734   -0.4280 C   0  0  0  0  0  0  0  0  0  0  0  0
   -6.8945    0.8742   -3.6881 O   0  0  0  0  0  0  0  0  0  0  0  0
   -3.6861   -0.9538   -1.5631 O   0  0  0  0  0  0  0  0  0  0  0  0
   -5.3712   -0.2781   -0.3054 O   0  0  0  0  0  0  0  0  0  0  0  0
   -3.2304   -0.4820    0.6654 O   0  0  0  0  0  0  0  0  0  0  0  0
   -0.7871    2.1332   -1.7043 H   0  0  0  0  0  0  0  0  0  0  0  0
   -6.3214    1.8570   -1.9266 H   0  0  0  0  0  0  0  0  0  0  0  0
   -1.3829   -2.4288    0.1639 H   0  0  0  0  0  0  0  0  0  0  0  0
   -1.3800   -0.4479    1.6525 H   0  0  0  0  0  0  0  0  0  0  0  0
    1.0690    0.2589    0.9355 H   0  0  0  0  0  0  0  0  0  0  0  0
    1.0496    0.4775   -0.8577 H   0  0  0  0  0  0  0  0  0  0  0  0
    2.3855   -0.2697   -0.0654 H   0  0  0  0  0  0  0  0  0  0  0  0
    0.6560   -1.9455    1.9730 H   0  0  0  0  0  0  0  0  0  0  0  0
    0.6454   -3.3933    0.9346 H   0  0  0  0  0  0  0  0  0  0  0  0
    2.1157   -2.4059    1.0645 H   0  0  0  0  0  0  0  0  0  0  0  0
   -2.8637    1.3232   -2.2851 H   0  0  0  0  0  0  0  0  0  0  0  0
   -3.3737    1.4369   -0.5280 H   0  0  0  0  0  0  0  0  0  0  0  0
   -2.9633    2.8380   -1.4132 H   0  0  0  0  0  0  0  0  0  0  0  0
   -4.2319    0.3882   -3.6364 H   0  0  0  0  0  0  0  0  0  0  0  0
   -4.4153    2.1792   -3.5269 H   0  0  0  0  0  0  0  0  0  0  0  0
   -4.4246    1.2343   -2.1057 H   0  0  0  0  0  0  0  0  0  0  0  0
   -1.6028    0.0916   -3.1985 H   0  0  0  0  0  0  0  0  0  0  0  0
   -0.0248    0.0758   -2.5340 H   0  0  0  0  0  0  0  0  0  0  0  0
   -2.1867   -1.9449   -1.8858 H   0  0  0  0  0  0  0  0  0  0  0  0
   -0.6565   -2.1086   -2.2884 H   0  0  0  0  0  0  0  0  0  0  0  0
   -0.2287    1.4147    0.4313 H   0  0  0  0  0  0  0  0  0  0  0  0
   -1.7984    1.8355    0.7776 H   0  0  0  0  0  0  0  0  0  0  0  0
   -5.7594   -1.1705   -2.2209 H   0  0  0  0  0  0  0  0  0  0  0  0
   -7.1452   -0.5215   -1.3910 H   0  0  0  0  0  0  0  0  0  0  0  0
    0.9614   -2.0135   -1.0445 H   0  0  0  0  0  0  0  0  0  0  0  0
   -6.3672    0.3685   -4.3373 H   0  0  0  0  0  0  0  0  0  0  0  0
  1 23  1  0  0  0  0
  1 24  1  0  0  0  0
  1 25  1  0  0  0  0
  2 26  1  0  0  0  0
  2 27  1  0  0  0  0
  2 28  1  0  0  0  0
  3 29  1  0  0  0  0
  3 30  1  0  0  0  0
  3 31  1  0  0  0  0
  4 32  1  0  0  0  0
  4 33  1  0  0  0  0
  4 34  1  0  0  0  0
  5 35  1  0  0  0  0
  5 36  1  0  0  0  0
  6  5  1  0  0  0  0
  6 37  1  0  0  0  0
  6 38  1  0  0  0  0
  7 39  1  0  0  0  0
  7 40  1  0  0  0  0
  8 41  1  0  0  0  0
  8 42  1  0  0  0  0
  9  1  1  0  0  0  0
  9  2  1  0  0  0  0
  9 43  1  0  0  0  0
 10  5  1  0  0  0  0
 10  7  1  0  0  0  0
 10 19  1  6  0  0  0
 10  3  1  0  0  0  0
 11  4  1  0  0  0  0
 11  8  1  0  0  0  0
 12  6  1  0  0  0  0
 12  9  1  0  0  0  0
 12 13  1  0  0  0  0
 12 21  1  1  0  0  0
 13  7  1  0  0  0  0
 13 18  1  0  0  0  0
 13 22  1  1  0  0  0
 15 11  1  0  0  0  0
 15 44  1  0  0  0  0
 16 14  2  0  0  0  0
 17  8  1  0  0  0  0
 17 14  1  0  0  0  0
 18 14  1  0  0  0  0
 20 11  1  0  0  0  0
M  END
>  <DRUGBANK_ID>
DB14136

>  <COMMON_NAME>
(-)-menthol 1-propylene glycol carbonate

>  <CAS_NUMBER>
260781-16-6

>  <UNII>
2WL8FX4EEZ

>  <SYNONYMS>
(-)-menthol (+/-)-1-propylene glycol carbonate; 2-hydroxypropyl ((1R,2S,5R)-2-isopropyl-5-methyl-cyclohexyl) carbonate; Carbonic acid, 2-hydroxypropyl (1R,2S,5R)-5-methyl-2-(1-methylethyl)cyclohexyl ester; Fema no. 3806, 1-propylene glycol carbonate

$$$$
