
 OpenBabel10282417173D

 42 44  0  0  0  0  0  0  0  0999 V2000
    0.9668    0.0901    0.0273 C   0  0  0  0  0  0  0  0  0  0  0  0
   -2.3238   -9.2188   -4.1836 C   0  0  0  0  0  0  0  0  0  0  0  0
    2.2911   -4.9773   -6.5273 C   0  0  0  0  0  0  0  0  0  0  0  0
   -3.2892   -8.2370   -4.4056 C   0  0  0  0  0  0  0  0  0  0  0  0
   -1.1789   -8.9119   -3.4528 C   0  0  0  0  0  0  0  0  0  0  0  0
    0.9175   -4.8265   -6.7154 C   0  0  0  0  0  0  0  0  0  0  0  0
    2.7971   -5.0680   -5.2360 C   0  0  0  0  0  0  0  0  0  0  0  0
   -3.1033   -6.9393   -3.9270 C   0  0  0  0  0  0  0  0  0  0  0  0
   -0.9947   -7.6146   -2.9626 C   0  0  0  0  0  0  0  0  0  0  0  0
    0.0430   -4.7929   -5.6132 C   0  0  0  0  0  0  0  0  0  0  0  0
    1.9271   -5.0440   -4.1400 C   0  0  0  0  0  0  0  0  0  0  0  0
   -0.3972   -2.1158    0.1741 C   0  0  0  0  0  0  0  0  0  0  0  0
   -1.6843   -2.5145   -0.5398 C   0  0  0  0  0  0  0  0  0  0  0  0
    0.3517   -1.0761   -0.6657 C   0  0  0  0  0  0  0  0  0  0  0  0
   -1.9294   -6.6045   -3.2585 C   0  0  0  0  0  0  0  0  0  0  0  0
    0.5422   -4.8970   -4.3068 C   0  0  0  0  0  0  0  0  0  0  0  0
   -1.4469   -3.2459   -1.8733 C   0  0  0  0  0  0  0  0  0  0  0  0
   -2.3411   -4.4327   -2.1612 C   0  0  0  0  0  0  0  0  0  0  0  0
   -0.0671   -3.8614   -2.1763 C   0  0  0  0  0  0  0  0  0  0  0  0
   -1.6357   -5.2220   -3.1044 N   0  0  0  0  0  0  0  0  0  0  0  0
   -0.2925   -4.8231   -3.1508 N   0  0  0  0  0  0  0  0  0  0  0  0
    0.4182   -1.1177   -1.8973 O   0  0  0  0  0  0  0  0  0  0  0  0
   -3.4354   -4.6411   -1.6425 O   0  0  0  0  0  0  0  0  0  0  0  0
    1.0296   -3.6006   -1.6882 O   0  0  0  0  0  0  0  0  0  0  0  0
    0.6056    0.1688    1.0517 H   0  0  0  0  0  0  0  0  0  0  0  0
    0.6424    0.9761   -0.5271 H   0  0  0  0  0  0  0  0  0  0  0  0
    2.0544    0.0070    0.0025 H   0  0  0  0  0  0  0  0  0  0  0  0
   -2.4686  -10.2216   -4.5787 H   0  0  0  0  0  0  0  0  0  0  0  0
    2.9649   -5.0247   -7.3810 H   0  0  0  0  0  0  0  0  0  0  0  0
   -4.1735   -8.4691   -4.9912 H   0  0  0  0  0  0  0  0  0  0  0  0
   -0.4190   -9.6745   -3.2938 H   0  0  0  0  0  0  0  0  0  0  0  0
    0.5324   -4.7211   -7.7278 H   0  0  0  0  0  0  0  0  0  0  0  0
    3.8688   -5.1559   -5.0752 H   0  0  0  0  0  0  0  0  0  0  0  0
   -3.8393   -6.1719   -4.1451 H   0  0  0  0  0  0  0  0  0  0  0  0
   -0.1159   -7.4113   -2.3531 H   0  0  0  0  0  0  0  0  0  0  0  0
   -1.0149   -4.6309   -5.7999 H   0  0  0  0  0  0  0  0  0  0  0  0
    2.3436   -5.1766   -3.1445 H   0  0  0  0  0  0  0  0  0  0  0  0
    0.2086   -3.0025    0.3849 H   0  0  0  0  0  0  0  0  0  0  0  0
   -0.6399   -1.6854    1.1508 H   0  0  0  0  0  0  0  0  0  0  0  0
   -2.3222   -3.0978    0.1341 H   0  0  0  0  0  0  0  0  0  0  0  0
   -2.2563   -1.5881   -0.7255 H   0  0  0  0  0  0  0  0  0  0  0  0
   -1.6858   -2.5151   -2.6669 H   0  0  0  0  0  0  0  0  0  0  0  0
  1 25  1  0  0  0  0
  1 26  1  0  0  0  0
  1 27  1  0  0  0  0
  2 28  1  0  0  0  0
  3 29  1  0  0  0  0
  4  2  2  0  0  0  0
  4 30  1  0  0  0  0
  5  2  1  0  0  0  0
  5 31  1  0  0  0  0
  6  3  2  0  0  0  0
  6 32  1  0  0  0  0
  7  3  1  0  0  0  0
  7 33  1  0  0  0  0
  8  4  1  0  0  0  0
  8 34  1  0  0  0  0
  9  5  2  0  0  0  0
  9 35  1  0  0  0  0
 10  6  1  0  0  0  0
 10 36  1  0  0  0  0
 11  7  2  0  0  0  0
 11 37  1  0  0  0  0
 12 38  1  0  0  0  0
 12 39  1  0  0  0  0
 13 12  1  0  0  0  0
 13 40  1  0  0  0  0
 13 41  1  0  0  0  0
 14  1  1  0  0  0  0
 14 12  1  0  0  0  0
 15  8  2  0  0  0  0
 15  9  1  0  0  0  0
 16 10  2  0  0  0  0
 16 11  1  0  0  0  0
 17 13  1  0  0  0  0
 17 42  1  0  0  0  0
 18 17  1  0  0  0  0
 19 17  1  0  0  0  0
 20 15  1  0  0  0  0
 20 18  1  0  0  0  0
 21 16  1  0  0  0  0
 21 19  1  0  0  0  0
 21 20  1  0  0  0  0
 22 14  2  0  0  0  0
 23 18  2  0  0  0  0
 24 19  2  0  0  0  0
M  END
>  <DRUGBANK_ID>
DB08940

>  <COMMON_NAME>
Kebuzone

>  <CAS_NUMBER>
853-34-9

>  <UNII>
4VD83UL6Y6

>  <SYNONYMS>
Kebuzone; ketophenylbutazone; quebuzona

$$$$
