
 OpenBabel10282417213D

 33 34  0  0  0  0  0  0  0  0999 V2000
    1.0723    0.0199    0.0476 C   0  0  0  0  0  0  0  0  0  0  0  0
    0.5742   -0.6478   -1.1062 O   0  0  0  0  0  0  0  0  0  0  0  0
    0.8032   -2.0005   -1.1658 C   0  0  0  0  0  0  0  0  0  0  0  0
    1.3046   -2.7826   -0.1236 C   0  0  0  0  0  0  0  0  0  0  0  0
    1.4888   -4.1555   -0.2981 C   0  0  0  0  0  0  0  0  0  0  0  0
    1.1789   -4.7570   -1.5200 C   0  0  0  0  0  0  0  0  0  0  0  0
    0.6703   -3.9840   -2.5738 C   0  0  0  0  0  0  0  0  0  0  0  0
    0.3609   -4.6676   -3.8519 C   0  0  0  0  0  0  0  0  0  0  0  0
   -0.1186   -4.0277   -4.8699 N   0  0  0  0  0  0  0  0  0  0  0  0
   -0.4003   -4.6879   -6.0636 C   0  0  0  0  0  0  0  0  0  0  0  0
   -1.1140   -5.8851   -6.1159 C   0  0  0  0  0  0  0  0  0  0  0  0
   -1.4026   -6.4829   -7.3429 C   0  0  0  0  0  0  0  0  0  0  0  0
   -1.0001   -5.8784   -8.5392 C   0  0  0  0  0  0  0  0  0  0  0  0
   -1.2909   -6.5284   -9.8574 C   0  0  0  0  0  0  0  0  0  0  0  0
   -0.3197   -4.6569   -8.4908 C   0  0  0  0  0  0  0  0  0  0  0  0
   -0.0293   -4.0670   -7.2594 C   0  0  0  0  0  0  0  0  0  0  0  0
    0.4794   -2.6090   -2.3866 C   0  0  0  0  0  0  0  0  0  0  0  0
   -0.0220   -1.8220   -3.3911 O   0  0  0  0  0  0  0  0  0  0  0  0
    0.6620   -0.4052    0.9690 H   0  0  0  0  0  0  0  0  0  0  0  0
    0.7464    1.0625    0.0021 H   0  0  0  0  0  0  0  0  0  0  0  0
    2.1674    0.0033    0.0568 H   0  0  0  0  0  0  0  0  0  0  0  0
    1.5565   -2.3593    0.8426 H   0  0  0  0  0  0  0  0  0  0  0  0
    1.8759   -4.7516    0.5257 H   0  0  0  0  0  0  0  0  0  0  0  0
    1.3390   -5.8262   -1.6331 H   0  0  0  0  0  0  0  0  0  0  0  0
    0.5649   -5.7525   -3.8940 H   0  0  0  0  0  0  0  0  0  0  0  0
   -1.4629   -6.3485   -5.1989 H   0  0  0  0  0  0  0  0  0  0  0  0
   -1.9508   -7.4209   -7.3552 H   0  0  0  0  0  0  0  0  0  0  0  0
   -1.9009   -5.8690  -10.4823 H   0  0  0  0  0  0  0  0  0  0  0  0
   -0.3545   -6.7582  -10.3752 H   0  0  0  0  0  0  0  0  0  0  0  0
   -1.8389   -7.4669   -9.7235 H   0  0  0  0  0  0  0  0  0  0  0  0
   -0.0143   -4.1548   -9.4056 H   0  0  0  0  0  0  0  0  0  0  0  0
    0.4832   -3.1085   -7.2220 H   0  0  0  0  0  0  0  0  0  0  0  0
   -0.0875   -0.9155   -3.0473 H   0  0  0  0  0  0  0  0  0  0  0  0
  1  2  1  0  0  0  0
  1 19  1  0  0  0  0
  1 20  1  0  0  0  0
  1 21  1  0  0  0  0
  2  3  1  0  0  0  0
  3  4  1  0  0  0  0
  3 17  2  0  0  0  0
  4  5  2  0  0  0  0
  4 22  1  0  0  0  0
  5  6  1  0  0  0  0
  5 23  1  0  0  0  0
  6  7  2  0  0  0  0
  6 24  1  0  0  0  0
  7  8  1  0  0  0  0
  7 17  1  0  0  0  0
  8  9  2  0  0  0  0
  8 25  1  0  0  0  0
  9 10  1  0  0  0  0
 10 11  1  0  0  0  0
 10 16  2  0  0  0  0
 11 12  2  0  0  0  0
 11 26  1  0  0  0  0
 12 13  1  0  0  0  0
 12 27  1  0  0  0  0
 13 14  1  0  0  0  0
 13 15  2  0  0  0  0
 14 28  1  0  0  0  0
 14 29  1  0  0  0  0
 14 30  1  0  0  0  0
 15 16  1  0  0  0  0
 15 31  1  0  0  0  0
 16 32  1  0  0  0  0
 17 18  1  0  0  0  0
 18 33  1  0  0  0  0
M  END
>  <DRUGBANK_ID>
DB13869

>  <COMMON_NAME>
2-Methoxy-6-{(E)-[(4-methylphenyl)imino]methyl}phenol

>  <CAS_NUMBER>
20772-64-9

>  <SYNONYMS>
2-Methoxy-6-[[(4-methylphenyl)imino]methyl]phenol; TIMBD

$$$$
