
 OpenBabel10282417233D

 45 46  0  0  1  0  0  0  0  0999 V2000
    0.9315    0.0705    0.0408 C   0  0  0  0  0  0  0  0  0  0  0  0
    0.3861    0.7525   -1.0764 O   0  0  0  0  0  0  0  0  0  0  0  0
    0.9417    1.9795   -1.3142 C   0  0  0  0  0  0  0  0  0  0  0  0
    2.2799    2.2898   -1.1552 C   0  0  0  0  0  0  0  0  0  0  0  0
    2.7649    3.5333   -1.5342 C   0  0  0  0  0  0  0  0  0  0  0  0
    1.9220    4.4225   -2.1871 C   0  0  0  0  0  0  0  0  0  0  0  0
    0.5906    4.1189   -2.4410 C   0  0  0  0  0  0  0  0  0  0  0  0
    0.0851    2.9177   -1.8860 C   0  0  0  0  0  0  0  0  0  0  0  0
   -0.3128    4.9983   -3.3128 C   0  0  2  0  0  0  0  0  0  0  0  0
   -1.3221    4.0418   -3.6525 O   0  0  0  0  0  0  0  0  0  0  0  0
    0.1838    5.4121   -4.7030 C   0  0  0  0  0  0  0  0  0  0  0  0
    1.3518    6.3554   -4.7110 C   0  0  1  0  0  0  0  0  0  0  0  0
    1.5477    6.7672   -6.0611 O   0  0  0  0  0  0  0  0  0  0  0  0
    1.1032    7.5761   -3.8267 C   0  0  0  0  0  0  0  0  0  0  0  0
    0.5190    7.2623   -2.4375 C   0  0  0  0  0  0  0  0  0  0  0  0
   -0.7237    6.3038   -2.5000 C   0  0  1  0  0  0  0  0  0  0  0  0
   -1.9063    7.1884   -3.0294 C   0  0  0  0  0  0  0  0  0  0  0  0
   -3.2843    6.6788   -2.9249 N   0  0  0  0  0  0  0  0  0  0  0  0
   -4.2312    7.5668   -3.5861 C   0  0  0  0  0  0  0  0  0  0  0  0
   -3.4234    5.3787   -3.5396 C   0  0  0  0  0  0  0  0  0  0  0  0
    0.5204   -0.9421    0.0480 H   0  0  0  0  0  0  0  0  0  0  0  0
    0.6297    0.5824    0.9583 H   0  0  0  0  0  0  0  0  0  0  0  0
    2.0179   -0.0329   -0.0078 H   0  0  0  0  0  0  0  0  0  0  0  0
    2.9991    1.5740   -0.7757 H   0  0  0  0  0  0  0  0  0  0  0  0
    3.8020    3.7986   -1.3900 H   0  0  0  0  0  0  0  0  0  0  0  0
    2.3784    5.3500   -2.4979 H   0  0  0  0  0  0  0  0  0  0  0  0
   -0.9706    2.6628   -1.9566 H   0  0  0  0  0  0  0  0  0  0  0  0
   -1.5230    4.0527   -4.6018 H   0  0  0  0  0  0  0  0  0  0  0  0
    0.3950    4.5325   -5.3265 H   0  0  0  0  0  0  0  0  0  0  0  0
   -0.6508    5.8962   -5.2378 H   0  0  0  0  0  0  0  0  0  0  0  0
    2.2531    5.8134   -4.4249 H   0  0  0  0  0  0  0  0  0  0  0  0
    2.4909    6.9776   -6.1632 H   0  0  0  0  0  0  0  0  0  0  0  0
    2.0400    8.1354   -3.7255 H   0  0  0  0  0  0  0  0  0  0  0  0
    0.4211    8.2580   -4.3489 H   0  0  0  0  0  0  0  0  0  0  0  0
    1.2911    6.8536   -1.7816 H   0  0  0  0  0  0  0  0  0  0  0  0
    0.2601    8.2059   -1.9401 H   0  0  0  0  0  0  0  0  0  0  0  0
   -0.9820    6.0260   -1.4669 H   0  0  0  0  0  0  0  0  0  0  0  0
   -1.8903    8.1241   -2.4476 H   0  0  0  0  0  0  0  0  0  0  0  0
   -1.6902    7.4905   -4.0610 H   0  0  0  0  0  0  0  0  0  0  0  0
   -3.9544    7.7529   -4.6303 H   0  0  0  0  0  0  0  0  0  0  0  0
   -5.2251    7.1039   -3.5788 H   0  0  0  0  0  0  0  0  0  0  0  0
   -4.3107    8.5128   -3.0491 H   0  0  0  0  0  0  0  0  0  0  0  0
   -2.9583    5.3899   -4.5352 H   0  0  0  0  0  0  0  0  0  0  0  0
   -3.0145    4.6714   -2.8232 H   0  0  0  0  0  0  0  0  0  0  0  0
   -4.4414    5.0160   -3.6818 H   0  0  0  0  0  0  0  0  0  0  0  0
  1  2  1  0  0  0  0
  1 21  1  0  0  0  0
  1 22  1  0  0  0  0
  1 23  1  0  0  0  0
  2  3  1  0  0  0  0
  3  4  2  0  0  0  0
  3  8  1  0  0  0  0
  4  5  1  0  0  0  0
  4 24  1  0  0  0  0
  5  6  2  0  0  0  0
  5 25  1  0  0  0  0
  6  7  1  0  0  0  0
  6 26  1  0  0  0  0
  7  8  2  0  0  0  0
  8 27  1  0  0  0  0
  9  7  1  0  0  0  0
  9 10  1  6  0  0  0
  9 11  1  0  0  0  0
  9 16  1  0  0  0  0
 10 28  1  0  0  0  0
 11 29  1  0  0  0  0
 11 30  1  0  0  0  0
 12 11  1  0  0  0  0
 12 14  1  0  0  0  0
 12 31  1  1  0  0  0
 12 13  1  0  0  0  0
 13 32  1  0  0  0  0
 14 15  1  0  0  0  0
 14 33  1  0  0  0  0
 14 34  1  0  0  0  0
 15 35  1  0  0  0  0
 15 36  1  0  0  0  0
 16 15  1  0  0  0  0
 16 17  1  0  0  0  0
 16 37  1  1  0  0  0
 17 18  1  0  0  0  0
 17 38  1  0  0  0  0
 17 39  1  0  0  0  0
 18 19  1  0  0  0  0
 18 20  1  0  0  0  0
 19 40  1  0  0  0  0
 19 41  1  0  0  0  0
 19 42  1  0  0  0  0
 20 43  1  0  0  0  0
 20 44  1  0  0  0  0
 20 45  1  0  0  0  0
M  END
>  <DRUGBANK_ID>
DB16100

>  <COMMON_NAME>
Axomadol

>  <CAS_NUMBER>
187219-99-4

>  <UNII>
9J92U4CVS0

>  <SYNONYMS>
Axomadol; Bn-110 free base; Bn110 free base; Grt-151 free base; Grt151 free base

$$$$
