
 OpenBabel10282417203D

 45 47  0  0  0  0  0  0  0  0999 V2000
    1.0491   -0.0433    0.0882 C   0  0  0  0  0  0  0  0  0  0  0  0
    0.5672   -0.9115    1.2576 N   0  3  0  0  0  0  0  0  0  0  0  0
    0.5861   -2.4046    0.8273 C   0  0  0  0  0  0  0  0  0  0  0  0
    0.3748   -3.3540    2.0170 C   0  0  0  0  0  0  0  0  0  0  0  0
    1.4622   -3.1007    3.0467 C   0  0  0  0  0  0  0  0  0  0  0  0
    2.4573   -3.9626    3.3687 C   0  0  0  0  0  0  0  0  0  0  0  0
    3.4839   -3.5931    4.3898 C   0  0  0  0  0  0  0  0  0  0  0  0
    3.1023   -3.3205    5.7103 C   0  0  0  0  0  0  0  0  0  0  0  0
    4.0615   -3.0692    6.6911 C   0  0  0  0  0  0  0  0  0  0  0  0
    5.4153   -3.1424    6.3743 C   0  0  0  0  0  0  0  0  0  0  0  0
    5.8114   -3.4398    5.0717 C   0  0  0  0  0  0  0  0  0  0  0  0
    4.8506   -3.6346    4.0747 C   0  0  0  0  0  0  0  0  0  0  0  0
    2.5501   -5.3049    2.7167 C   0  0  0  0  0  0  0  0  0  0  0  0
    2.7397   -5.4429    1.3339 C   0  0  0  0  0  0  0  0  0  0  0  0
    2.8849   -6.7069    0.7579 C   0  0  0  0  0  0  0  0  0  0  0  0
    2.9016   -7.8413    1.5653 C   0  0  0  0  0  0  0  0  0  0  0  0
    2.7529   -7.7161    2.9444 C   0  0  0  0  0  0  0  0  0  0  0  0
    2.5479   -6.4576    3.5146 C   0  0  0  0  0  0  0  0  0  0  0  0
    1.2966   -1.6872    3.5851 C   0  0  0  0  0  0  0  0  0  0  0  0
    1.5263   -0.6829    2.4542 C   0  0  0  0  0  0  0  0  0  0  0  0
   -0.8555   -0.4677    1.5825 C   0  0  0  0  0  0  0  0  0  0  0  0
    0.7315    0.9888    0.2690 H   0  0  0  0  0  0  0  0  0  0  0  0
    0.5975   -0.4214   -0.8330 H   0  0  0  0  0  0  0  0  0  0  0  0
    2.1397   -0.0920    0.0292 H   0  0  0  0  0  0  0  0  0  0  0  0
    1.5619   -2.5799    0.3587 H   0  0  0  0  0  0  0  0  0  0  0  0
   -0.1968   -2.5411    0.0735 H   0  0  0  0  0  0  0  0  0  0  0  0
    0.3445   -4.3890    1.6671 H   0  0  0  0  0  0  0  0  0  0  0  0
   -0.6061   -3.1921    2.4792 H   0  0  0  0  0  0  0  0  0  0  0  0
    2.0515   -3.3143    5.9875 H   0  0  0  0  0  0  0  0  0  0  0  0
    3.7503   -2.8488    7.7086 H   0  0  0  0  0  0  0  0  0  0  0  0
    6.1626   -2.9860    7.1491 H   0  0  0  0  0  0  0  0  0  0  0  0
    6.8693   -3.5450    4.8401 H   0  0  0  0  0  0  0  0  0  0  0  0
    5.1859   -3.8542    3.0628 H   0  0  0  0  0  0  0  0  0  0  0  0
    2.7903   -4.5720    0.6906 H   0  0  0  0  0  0  0  0  0  0  0  0
    3.0122   -6.8069   -0.3169 H   0  0  0  0  0  0  0  0  0  0  0  0
    3.0450   -8.8241    1.1219 H   0  0  0  0  0  0  0  0  0  0  0  0
    2.8115   -8.5971    3.5795 H   0  0  0  0  0  0  0  0  0  0  0  0
    2.4110   -6.3860    4.5921 H   0  0  0  0  0  0  0  0  0  0  0  0
    0.2924   -1.5769    4.0115 H   0  0  0  0  0  0  0  0  0  0  0  0
    1.9856   -1.4431    4.3948 H   0  0  0  0  0  0  0  0  0  0  0  0
    1.3881    0.3470    2.7994 H   0  0  0  0  0  0  0  0  0  0  0  0
    2.5494   -0.7943    2.0720 H   0  0  0  0  0  0  0  0  0  0  0  0
   -0.8304    0.5879    1.8700 H   0  0  0  0  0  0  0  0  0  0  0  0
   -1.4629   -0.5966    0.6810 H   0  0  0  0  0  0  0  0  0  0  0  0
   -1.2549   -1.0689    2.3996 H   0  0  0  0  0  0  0  0  0  0  0  0
  1  2  1  0  0  0  0
  1 22  1  0  0  0  0
  1 23  1  0  0  0  0
  1 24  1  0  0  0  0
  2  3  1  0  0  0  0
  2 20  1  0  0  0  0
  2 21  1  0  0  0  0
  3  4  1  0  0  0  0
  3 25  1  0  0  0  0
  3 26  1  0  0  0  0
  4  5  1  0  0  0  0
  4 27  1  0  0  0  0
  4 28  1  0  0  0  0
  5  6  2  0  0  0  0
  5 19  1  0  0  0  0
  6  7  1  0  0  0  0
  6 13  1  0  0  0  0
  7  8  2  0  0  0  0
  7 12  1  0  0  0  0
  8  9  1  0  0  0  0
  8 29  1  0  0  0  0
  9 10  2  0  0  0  0
  9 30  1  0  0  0  0
 10 11  1  0  0  0  0
 10 31  1  0  0  0  0
 11 12  2  0  0  0  0
 11 32  1  0  0  0  0
 12 33  1  0  0  0  0
 13 14  2  0  0  0  0
 13 18  1  0  0  0  0
 14 15  1  0  0  0  0
 14 34  1  0  0  0  0
 15 16  2  0  0  0  0
 15 35  1  0  0  0  0
 16 17  1  0  0  0  0
 16 36  1  0  0  0  0
 17 18  2  0  0  0  0
 17 37  1  0  0  0  0
 18 38  1  0  0  0  0
 19 20  1  0  0  0  0
 19 39  1  0  0  0  0
 19 40  1  0  0  0  0
 20 41  1  0  0  0  0
 20 42  1  0  0  0  0
 21 43  1  0  0  0  0
 21 44  1  0  0  0  0
 21 45  1  0  0  0  0
M  CHG  1   2   1
M  END
>  <DRUGBANK_ID>
DB13720

>  <COMMON_NAME>
Diphemanil

>  <CAS_NUMBER>
15394-62-4

>  <UNII>
Q26TX1UD0W

>  <SYNONYMS>
Diphemanil cation; Diphemanil ion

$$$$
