
 OpenBabel10282417233D

 29 30  0  0  1  0  0  0  0  0999 V2000
    0.8948   -0.0361    0.1625 N   0  0  0  0  0  0  0  0  0  0  0  0
    0.2441    0.9031    0.9139 C   0  0  0  0  0  0  0  0  0  0  0  0
    0.6939    2.1175    0.9217 N   0  0  0  0  0  0  0  0  0  0  0  0
    0.0936    3.0291    1.7553 C   0  0  0  0  0  0  0  0  0  0  0  0
    0.1890    4.2372    1.5225 O   0  0  0  0  0  0  0  0  0  0  0  0
   -0.6175    2.5279    2.8587 N   0  0  0  0  0  0  0  0  0  0  0  0
   -1.0528    1.2158    2.8541 C   0  0  0  0  0  0  0  0  0  0  0  0
   -0.8478    0.4426    1.7896 C   0  0  0  0  0  0  0  0  0  0  0  0
   -1.2127    3.4559    3.8164 C   0  0  2  0  0  0  0  0  0  0  0  0
   -2.5593    4.4189    3.0648 S   0  0  0  0  0  0  0  0  0  0  0  0
   -2.0729    5.9893    3.8537 C   0  0  2  0  0  0  0  0  0  0  0  0
   -1.5463    6.9781    2.8113 C   0  0  0  0  0  0  0  0  0  0  0  0
   -2.5066    7.2020    1.7838 O   0  0  0  0  0  0  0  0  0  0  0  0
   -1.0075    5.6692    4.9111 C   0  0  1  0  0  0  0  0  0  0  0  0
   -1.5938    5.4905    6.2010 O   0  0  0  0  0  0  0  0  0  0  0  0
   -0.2411    4.4151    4.5177 C   0  0  2  0  0  0  0  0  0  0  0  0
    0.8175    4.7902    3.7630 F   0  0  0  0  0  0  0  0  0  0  0  0
    0.3448   -0.5425   -0.5228 H   0  0  0  0  0  0  0  0  0  0  0  0
    1.7871    0.2818   -0.2009 H   0  0  0  0  0  0  0  0  0  0  0  0
   -1.6378    0.8661    3.6993 H   0  0  0  0  0  0  0  0  0  0  0  0
   -1.2692   -0.5409    1.6575 H   0  0  0  0  0  0  0  0  0  0  0  0
   -1.7299    2.8833    4.5993 H   0  0  0  0  0  0  0  0  0  0  0  0
   -2.9849    6.3874    4.3107 H   0  0  0  0  0  0  0  0  0  0  0  0
   -1.3602    7.9429    3.2958 H   0  0  0  0  0  0  0  0  0  0  0  0
   -0.6065    6.6537    2.3546 H   0  0  0  0  0  0  0  0  0  0  0  0
   -2.6546    6.3272    1.3735 H   0  0  0  0  0  0  0  0  0  0  0  0
   -0.3107    6.5116    4.9925 H   0  0  0  0  0  0  0  0  0  0  0  0
   -0.9855    5.9125    6.8371 H   0  0  0  0  0  0  0  0  0  0  0  0
    0.1849    3.9066    5.3895 H   0  0  0  0  0  0  0  0  0  0  0  0
  1  2  1  0  0  0  0
  1 18  1  0  0  0  0
  1 19  1  0  0  0  0
  2  3  2  0  0  0  0
  2  8  1  0  0  0  0
  3  4  1  0  0  0  0
  4  5  2  0  0  0  0
  4  6  1  0  0  0  0
  6  7  1  0  0  0  0
  7  8  2  0  0  0  0
  7 20  1  0  0  0  0
  8 21  1  0  0  0  0
  9  6  1  0  0  0  0
  9 10  1  0  0  0  0
  9 22  1  1  0  0  0
 11 10  1  0  0  0  0
 11 12  1  0  0  0  0
 11 23  1  1  0  0  0
 12 13  1  0  0  0  0
 12 24  1  0  0  0  0
 12 25  1  0  0  0  0
 13 26  1  0  0  0  0
 14 11  1  0  0  0  0
 14 16  1  0  0  0  0
 14 27  1  1  0  0  0
 14 15  1  0  0  0  0
 15 28  1  0  0  0  0
 16  9  1  0  0  0  0
 16 29  1  1  0  0  0
 16 17  1  0  0  0  0
M  END
>  <DRUGBANK_ID>
DB16071

>  <COMMON_NAME>
4'-Thio-fac

>  <CAS_NUMBER>
184302-49-6

>  <UNII>
R5B1HX1HUY

>  <SYNONYMS>
4-Amino-1-[(2R,3S,4S,5R)-3-Fluoro-4-Hydroxy-5-(Hydroxymethyl)Tetrahydrothiophen-2-Yl] Pyrimidin-2(1H)-One

$$$$
