
 OpenBabel10282417183D

 35 34  0  0  0  0  0  0  0  0999 V2000
   -1.2781   -0.0166    0.0510 N   0  3  0  0  0  0  0  0  0  0  0  0
   -2.7171   -0.0319   -0.4112 C   0  0  0  0  0  0  0  0  0  0  0  0
   -0.6614    1.1812    0.2311 C   0  0  0  0  0  0  0  0  0  0  0  0
   -0.5392   -1.1504    0.1868 C   0  0  0  0  0  0  0  0  0  0  0  0
   -3.1612   -0.6405   -1.7939 C   0  0  0  0  0  0  0  0  0  0  0  0
    0.7305    1.2678    0.3022 C   0  0  0  0  0  0  0  0  0  0  0  0
    0.8440   -1.1120    0.3967 C   0  0  0  0  0  0  0  0  0  0  0  0
   -4.0655   -1.6991   -1.8763 N   0  0  0  0  0  0  0  0  0  0  0  0
   -2.8146   -0.1352   -2.8355 O   0  0  0  0  0  0  0  0  0  0  0  0
    1.4942    0.1103    0.3525 C   0  0  0  0  0  0  0  0  0  0  0  0
   -4.2891   -2.5708   -3.0395 C   0  0  0  0  0  0  0  0  0  0  0  0
   -3.6963   -3.9860   -2.8482 C   0  0  0  0  0  0  0  0  0  0  0  0
   -4.3218   -4.7372   -1.7601 O   0  0  0  0  0  0  0  0  0  0  0  0
   -4.1211   -4.6241   -0.4296 C   0  0  0  0  0  0  0  0  0  0  0  0
   -3.3343   -3.4730    0.1111 C   0  0  0  0  0  0  0  0  0  0  0  0
   -4.6678   -5.3906    0.3621 O   0  0  0  0  0  0  0  0  0  0  0  0
   -4.2737   -2.5857    0.9527 C   0  0  0  0  0  0  0  0  0  0  0  0
    0.4116   -0.0479   -2.9869 Cl  0  5  0  0  0  0  0  0  0  0  0  0
   -3.2678   -0.3851    0.4467 H   0  0  0  0  0  0  0  0  0  0  0  0
   -3.0572    1.0114   -0.4399 H   0  0  0  0  0  0  0  0  0  0  0  0
   -1.2743    2.0743    0.2022 H   0  0  0  0  0  0  0  0  0  0  0  0
   -1.0156   -2.1009    0.0145 H   0  0  0  0  0  0  0  0  0  0  0  0
    1.2158    2.2265    0.1329 H   0  0  0  0  0  0  0  0  0  0  0  0
    1.4308   -2.0297    0.3857 H   0  0  0  0  0  0  0  0  0  0  0  0
   -4.6834   -1.9617   -1.1484 H   0  0  0  0  0  0  0  0  0  0  0  0
    2.5702    0.1497    0.1773 H   0  0  0  0  0  0  0  0  0  0  0  0
   -5.3782   -2.6766   -3.1324 H   0  0  0  0  0  0  0  0  0  0  0  0
   -3.8903   -2.1061   -3.9425 H   0  0  0  0  0  0  0  0  0  0  0  0
   -3.9261   -4.5693   -3.7518 H   0  0  0  0  0  0  0  0  0  0  0  0
   -2.6087   -3.9966   -2.7341 H   0  0  0  0  0  0  0  0  0  0  0  0
   -2.5242   -3.8281    0.7510 H   0  0  0  0  0  0  0  0  0  0  0  0
   -2.7775   -2.9940   -0.6919 H   0  0  0  0  0  0  0  0  0  0  0  0
   -4.7196   -3.1394    1.7732 H   0  0  0  0  0  0  0  0  0  0  0  0
   -3.7227   -1.7821    1.4270 H   0  0  0  0  0  0  0  0  0  0  0  0
   -5.1431   -2.1489    0.4415 H   0  0  0  0  0  0  0  0  0  0  0  0
  1  2  1  0  0  0  0
  1  3  2  0  0  0  0
  1  4  1  0  0  0  0
  2  5  1  0  0  0  0
  2 19  1  0  0  0  0
  2 20  1  0  0  0  0
  3  6  1  0  0  0  0
  3 21  1  0  0  0  0
  4  7  2  0  0  0  0
  4 22  1  0  0  0  0
  5  8  1  0  0  0  0
  5  9  2  0  0  0  0
  6 10  2  0  0  0  0
  6 23  1  0  0  0  0
  7 10  1  0  0  0  0
  7 24  1  0  0  0  0
  8 11  1  0  0  0  0
  8 25  1  0  0  0  0
 10 26  1  0  0  0  0
 11 12  1  0  0  0  0
 11 27  1  0  0  0  0
 11 28  1  0  0  0  0
 12 13  1  0  0  0  0
 12 29  1  0  0  0  0
 12 30  1  0  0  0  0
 13 14  1  0  0  0  0
 14 15  1  0  0  0  0
 14 16  2  0  0  0  0
 15 17  1  0  0  0  0
 15 31  1  0  0  0  0
 15 32  1  0  0  0  0
 17 33  1  0  0  0  0
 17 34  1  0  0  0  0
 17 35  1  0  0  0  0
M  CHG  2   1   1  18  -1
M  END
>  <DRUGBANK_ID>
DB09377

>  <COMMON_NAME>
Undecoylium chloride iodine complex

>  <CAS_NUMBER>
1338-54-1

>  <UNII>
O4CEK7FP0D

>  <SYNONYMS>
Undecoylium chloride-iodine

$$$$
