MDW
 OpenBabel10282417173D

 48 50  0  0  0  0  0  0  0  0999 V2000
    1.2827    1.3794    0.1063 C   0  0  0  0  0  0  0  0  0  0  0  0
    2.4682    0.6615    0.0430 C   0  0  0  0  0  0  0  0  0  0  0  0
    3.6308    1.3836    0.0581 O   0  0  0  0  0  0  0  0  0  0  0  0
    2.4560   -0.7345   -0.0243 C   0  0  0  0  0  0  0  0  0  0  0  0
    3.6826   -1.3523   -0.0624 O   0  0  0  0  0  0  0  0  0  0  0  0
    3.6572   -2.7789   -0.1285 C   0  0  0  0  0  0  0  0  0  0  0  0
    1.2177   -1.3968   -0.0626 C   0  0  0  0  0  0  0  0  0  0  0  0
   -0.0026   -0.6890   -0.0343 C   0  0  0  0  0  0  0  0  0  0  0  0
   -1.3474   -1.4361   -0.2147 C   0  0  2  0  0  0  0  0  0  0  0  0
   -1.4883   -1.9643   -1.6824 C   0  0  0  0  0  0  0  0  0  0  0  0
   -0.7410   -2.8775   -2.0665 O   0  0  0  0  0  0  0  0  0  0  0  0
   -2.3492   -1.4732   -2.6171 N   0  0  0  0  0  0  0  0  0  0  0  0
   -3.2951   -0.4469   -2.5467 O   0  0  0  0  0  0  0  0  0  0  0  0
    0.0501    0.7094    0.0927 C   0  0  0  0  0  0  0  0  0  0  0  0
   -1.2035    1.5147    0.2366 C   0  0  0  0  0  0  0  0  0  0  0  0
   -2.4182    0.7522   -0.2613 C   0  0  0  0  0  0  0  0  0  0  0  0
   -2.5385   -0.6466    0.2794 N   0  0  0  0  0  0  0  0  0  0  0  0
   -3.9860   -1.6359    0.3403 S   0  0  0  0  0  0  0  0  0  0  0  0
   -4.3447   -2.0924   -0.9971 O   0  0  0  0  0  0  0  0  0  0  0  0
   -3.7959   -2.6200    1.3666 O   0  0  0  0  0  0  0  0  0  0  0  0
   -5.3381   -0.5822    0.7780 C   0  0  0  0  0  0  0  0  0  0  0  0
   -5.5838    0.6586    0.1806 C   0  0  0  0  0  0  0  0  0  0  0  0
   -6.5319    1.5155    0.7420 C   0  0  0  0  0  0  0  0  0  0  0  0
   -7.3821    1.0445    1.7396 C   0  0  0  0  0  0  0  0  0  0  0  0
   -8.2675    1.9506    2.2541 O   0  0  0  0  0  0  0  0  0  0  0  0
   -9.0993    1.4528    3.2997 C   0  0  0  0  0  0  0  0  0  0  0  0
   -7.2934   -0.2903    2.1348 C   0  0  0  0  0  0  0  0  0  0  0  0
   -6.2386   -1.0838    1.7066 C   0  0  0  0  0  0  0  0  0  0  0  0
   -1.2731   -2.3186    0.4448 H   0  0  0  0  0  0  0  0  0  0  0  0
    1.3213    2.4655    0.1564 H   0  0  0  0  0  0  0  0  0  0  0  0
    4.3575    0.7354    0.0196 H   0  0  0  0  0  0  0  0  0  0  0  0
    3.1696   -3.2060    0.7554 H   0  0  0  0  0  0  0  0  0  0  0  0
    3.1719   -3.1229   -1.0490 H   0  0  0  0  0  0  0  0  0  0  0  0
    4.6885   -3.1434   -0.1434 H   0  0  0  0  0  0  0  0  0  0  0  0
    1.1742   -2.4796   -0.1372 H   0  0  0  0  0  0  0  0  0  0  0  0
   -2.4988   -2.0715   -3.4197 H   0  0  0  0  0  0  0  0  0  0  0  0
   -3.6862   -0.5864   -1.6707 H   0  0  0  0  0  0  0  0  0  0  0  0
   -1.1106    2.4092   -0.3985 H   0  0  0  0  0  0  0  0  0  0  0  0
   -1.3378    1.8473    1.2683 H   0  0  0  0  0  0  0  0  0  0  0  0
   -2.2299    0.7667   -1.3298 H   0  0  0  0  0  0  0  0  0  0  0  0
   -3.2793    1.3642   -0.0469 H   0  0  0  0  0  0  0  0  0  0  0  0
   -5.0642    0.9997   -0.7094 H   0  0  0  0  0  0  0  0  0  0  0  0
   -6.6139    2.5443    0.3945 H   0  0  0  0  0  0  0  0  0  0  0  0
   -9.7794    0.6888    2.9077 H   0  0  0  0  0  0  0  0  0  0  0  0
   -8.5060    1.0579    4.1340 H   0  0  0  0  0  0  0  0  0  0  0  0
   -9.7042    2.2763    3.6847 H   0  0  0  0  0  0  0  0  0  0  0  0
   -8.0168   -0.7451    2.7994 H   0  0  0  0  0  0  0  0  0  0  0  0
   -6.1410   -2.0981    2.0843 H   0  0  0  0  0  0  0  0  0  0  0  0
  1  2  1  0  0  0  0
  1 14  2  0  0  0  0
  1 30  1  0  0  0  0
  2  3  1  0  0  0  0
  2  4  2  0  0  0  0
  3 31  1  0  0  0  0
  4  5  1  0  0  0  0
  4  7  1  0  0  0  0
  5  6  1  0  0  0  0
  6 32  1  0  0  0  0
  6 33  1  0  0  0  0
  6 34  1  0  0  0  0
  7  8  2  0  0  0  0
  7 35  1  0  0  0  0
  8  9  1  0  0  0  0
  8 14  1  0  0  0  0
  9 17  1  0  0  0  0
  9 29  1  1  0  0  0
  9 10  1  0  0  0  0
 10 11  2  0  0  0  0
 10 12  1  0  0  0  0
 12 13  1  0  0  0  0
 12 36  1  0  0  0  0
 13 37  1  0  0  0  0
 14 15  1  0  0  0  0
 15 16  1  0  0  0  0
 15 38  1  0  0  0  0
 15 39  1  0  0  0  0
 16 17  1  0  0  0  0
 16 40  1  0  0  0  0
 16 41  1  0  0  0  0
 17 18  1  0  0  0  0
 18 19  2  0  0  0  0
 18 20  2  0  0  0  0
 18 21  1  0  0  0  0
 21 22  1  0  0  0  0
 21 28  2  0  0  0  0
 22 23  2  0  0  0  0
 22 42  1  0  0  0  0
 23 24  1  0  0  0  0
 23 43  1  0  0  0  0
 24 25  1  0  0  0  0
 24 27  2  0  0  0  0
 25 26  1  0  0  0  0
 26 44  1  0  0  0  0
 26 45  1  0  0  0  0
 26 46  1  0  0  0  0
 27 28  1  0  0  0  0
 27 47  1  0  0  0  0
 28 48  1  0  0  0  0
M  END
>  <DRUGBANK_ID>
DB08170

>  <COMMON_NAME>
(1R)-N,6-DIHYDROXY-7-METHOXY-2-[(4-METHOXYPHENYL)SULFONYL]-1,2,3,4-TETRAHYDROISOQUINOLINE-1-CARBOXAMIDE

$$$$
