
 OpenBabel10282417213D

 63 66  0  0  0  0  0  0  0  0999 V2000
    7.0674   -4.6418    3.7880 C   0  0  2  0  0  0  0  0  0  0  0  0
    7.5102   -4.3591    1.8983 C   0  0  2  0  0  0  0  0  0  0  0  0
    6.6679   -9.4254    5.6973 C   0  0  2  0  0  0  0  0  0  0  0  0
    6.0131   -7.1181    4.3013 C   0  0  1  0  0  0  0  0  0  0  0  0
    6.5103   -5.9652    3.3933 C   0  0  2  0  0  0  0  0  0  0  0  0
    7.0995   -7.7610    5.1917 C   0  0  2  0  0  0  0  0  0  0  0  0
    5.2231   -9.7792    5.5472 C   0  0  0  0  0  0  0  0  0  0  0  0
    8.1295   -5.2251    5.1581 C   0  0  0  0  0  0  0  0  0  0  0  0
    7.4455   -6.3960    6.1407 C   0  0  2  0  0  0  0  0  0  0  0  0
    7.1551  -11.1263    4.9106 C   0  0  0  0  0  0  0  0  0  0  0  0
    6.6307   -3.7235    0.4751 C   0  0  0  0  0  0  0  0  0  0  0  0
    5.1333  -10.9329    6.3061 C   0  0  0  0  0  0  0  0  0  0  0  0
    7.4146   -5.5403    0.5407 O   0  0  0  0  0  0  0  0  0  0  0  0
    8.1566   -5.5487   -0.6992 C   0  0  0  0  0  0  0  0  0  0  0  0
    8.7173   -5.2341    2.0531 C   0  0  0  0  0  0  0  0  0  0  0  0
    7.8608   -6.3958    2.7119 C   0  0  0  0  0  0  0  0  0  0  0  0
    5.5160   -8.2524    3.4245 C   0  0  0  0  0  0  0  0  0  0  0  0
    6.5915  -12.3914    5.2012 C   0  0  0  0  0  0  0  0  0  0  0  0
    5.1086  -12.1032    5.3913 C   0  0  0  0  0  0  0  0  0  0  0  0
    4.6841   -9.3213    4.1969 C   0  0  0  0  0  0  0  0  0  0  0  0
    7.1169   -2.5646   -0.0603 O   0  0  0  0  0  0  0  0  0  0  0  0
    7.6700   -5.5325   -1.8259 O   0  0  0  0  0  0  0  0  0  0  0  0
    5.7857   -4.2623   -0.2526 O   0  0  0  0  0  0  0  0  0  0  0  0
    4.2250  -12.3833    4.6958 O   0  0  0  0  0  0  0  0  0  0  0  0
    6.3459   -3.5532    4.8474 C   0  0  0  0  0  0  0  0  0  0  0  0
    7.6071   -1.6364    0.8576 C   0  0  0  0  0  0  0  0  0  0  0  0
    8.3162   -6.7542    7.2269 O   0  0  0  0  0  0  0  0  0  0  0  0
    9.4869   -5.7719   -0.4949 O   0  0  0  0  0  0  0  0  0  0  0  0
    6.2848   -8.8234    7.2352 C   0  0  0  0  0  0  0  0  0  0  0  0
    6.5260   -1.5289    2.2537 Cl  0  0  0  0  0  0  0  0  0  0  0  0
   10.2627   -6.3022   -1.6090 C   0  0  0  0  0  0  0  0  0  0  0  0
    9.7067   -7.5959   -2.2051 C   0  0  0  0  0  0  0  0  0  0  0  0
    5.6741   -5.6851    2.7357 H   0  0  0  0  0  0  0  0  0  0  0  0
    5.1791   -6.7146    4.9089 H   0  0  0  0  0  0  0  0  0  0  0  0
    8.0737   -7.9827    4.7704 H   0  0  0  0  0  0  0  0  0  0  0  0
    8.4016   -4.3261    5.7499 H   0  0  0  0  0  0  0  0  0  0  0  0
    9.1367   -5.6157    4.9933 H   0  0  0  0  0  0  0  0  0  0  0  0
    6.5850   -5.9062    6.6494 H   0  0  0  0  0  0  0  0  0  0  0  0
    6.7241  -11.2934    3.8217 H   0  0  0  0  0  0  0  0  0  0  0  0
    6.0310  -11.1288    6.9966 H   0  0  0  0  0  0  0  0  0  0  0  0
    9.2698   -4.2845    2.0646 H   0  0  0  0  0  0  0  0  0  0  0  0
    9.4730   -5.3622    2.8370 H   0  0  0  0  0  0  0  0  0  0  0  0
    7.6958   -7.2127    2.0142 H   0  0  0  0  0  0  0  0  0  0  0  0
    8.5072   -6.8305    3.4619 H   0  0  0  0  0  0  0  0  0  0  0  0
    4.9657   -7.8199    2.5795 H   0  0  0  0  0  0  0  0  0  0  0  0
    6.3981   -8.7292    2.9774 H   0  0  0  0  0  0  0  0  0  0  0  0
    6.9424  -13.2421    5.8106 H   0  0  0  0  0  0  0  0  0  0  0  0
    3.6524   -8.9628    4.2152 H   0  0  0  0  0  0  0  0  0  0  0  0
    4.6719  -10.2180    3.5903 H   0  0  0  0  0  0  0  0  0  0  0  0
    5.2568   -3.4689    4.8665 H   0  0  0  0  0  0  0  0  0  0  0  0
    6.5086   -3.8293    5.9290 H   0  0  0  0  0  0  0  0  0  0  0  0
    6.8385   -2.5621    4.8982 H   0  0  0  0  0  0  0  0  0  0  0  0
    8.6247   -1.9428    1.1027 H   0  0  0  0  0  0  0  0  0  0  0  0
    7.6049   -0.6526    0.3895 H   0  0  0  0  0  0  0  0  0  0  0  0
    7.7774   -6.7818    8.0492 H   0  0  0  0  0  0  0  0  0  0  0  0
    5.3050   -9.0365    7.7120 H   0  0  0  0  0  0  0  0  0  0  0  0
    7.0820   -8.8062    7.9718 H   0  0  0  0  0  0  0  0  0  0  0  0
    5.9787   -7.7757    7.0794 H   0  0  0  0  0  0  0  0  0  0  0  0
   10.4400   -5.5495   -2.3898 H   0  0  0  0  0  0  0  0  0  0  0  0
   11.2390   -6.5399   -1.1711 H   0  0  0  0  0  0  0  0  0  0  0  0
    8.7814   -7.4306   -2.7653 H   0  0  0  0  0  0  0  0  0  0  0  0
   10.4210   -8.0455   -2.9043 H   0  0  0  0  0  0  0  0  0  0  0  0
    9.4785   -8.3168   -1.4151 H   0  0  0  0  0  0  0  0  0  0  0  0
  1 25  1  6  0  0  0
  2  1  1  0  0  0  0
  2 11  1  6  0  0  0
  2 13  1  0  0  0  0
  3  6  1  0  0  0  0
  3 29  1  6  0  0  0
  4  5  1  0  0  0  0
  4 34  1  6  0  0  0
  5  1  1  0  0  0  0
  5 33  1  6  0  0  0
  6  9  1  0  0  0  0
  6  4  1  0  0  0  0
  6 35  1  1  0  0  0
  7  3  1  0  0  0  0
  7 20  1  0  0  0  0
  8  1  1  0  0  0  0
  8 36  1  0  0  0  0
  8 37  1  0  0  0  0
  9  8  1  0  0  0  0
  9 38  1  1  0  0  0
  9 27  1  0  0  0  0
 10  3  1  0  0  0  0
 10 39  1  0  0  0  0
 12  7  2  0  0  0  0
 12 40  1  0  0  0  0
 14 13  1  0  0  0  0
 15  2  1  0  0  0  0
 15 41  1  0  0  0  0
 15 42  1  0  0  0  0
 16  5  1  0  0  0  0
 16 15  1  0  0  0  0
 16 43  1  0  0  0  0
 16 44  1  0  0  0  0
 17  4  1  0  0  0  0
 17 45  1  0  0  0  0
 17 46  1  0  0  0  0
 18 10  2  0  0  0  0
 18 47  1  0  0  0  0
 19 18  1  0  0  0  0
 19 12  1  0  0  0  0
 20 17  1  0  0  0  0
 20 48  1  0  0  0  0
 20 49  1  0  0  0  0
 21 11  1  0  0  0  0
 22 14  2  0  0  0  0
 23 11  2  0  0  0  0
 24 19  2  0  0  0  0
 25 50  1  0  0  0  0
 25 51  1  0  0  0  0
 25 52  1  0  0  0  0
 26 21  1  0  0  0  0
 26 53  1  0  0  0  0
 26 54  1  0  0  0  0
 27 55  1  0  0  0  0
 28 14  1  0  0  0  0
 29 56  1  0  0  0  0
 29 57  1  0  0  0  0
 29 58  1  0  0  0  0
 30 26  1  0  0  0  0
 31 28  1  0  0  0  0
 31 59  1  0  0  0  0
 31 60  1  0  0  0  0
 32 31  1  0  0  0  0
 32 61  1  0  0  0  0
 32 62  1  0  0  0  0
 32 63  1  0  0  0  0
M  END
>  <DRUGBANK_ID>
DB14596

>  <SECONDARY_ACCESSION_NUMBERS>
DBSALT000930

>  <COMMON_NAME>
Loteprednol etabonate

>  <CAS_NUMBER>
82034-46-6

>  <UNII>
YEH1EZ96K6

>  <SYNONYMS>
Loteprednol etabonate

$$$$
