
 OpenBabel10282417123D

 66 68  0  0  1  0  0  0  0  0999 V2000
    1.3444   -0.2020    0.2541 C   0  0  0  0  0  0  0  0  0  0  0  0
   -2.0886    3.7408   -1.6350 C   0  0  0  0  0  0  0  0  0  0  0  0
   -2.6565    4.5320   -3.8157 C   0  0  0  0  0  0  0  0  0  0  0  0
   -0.9545    6.8697   -0.3775 C   0  0  0  0  0  0  0  0  0  0  0  0
    0.7718    1.0122    0.8281 C   0  0  2  0  0  0  0  0  0  0  0  0
   -3.0227    4.3833   -2.2687 C   0  0  0  0  0  0  0  0  0  0  0  0
   -0.9646    3.0797    0.2640 C   0  0  1  0  0  0  0  0  0  0  0  0
    0.1178    5.7410    0.1047 C   0  0  2  0  0  0  0  0  0  0  0  0
   -0.8064    0.4892   -0.1840 C   0  0  2  0  0  0  0  0  0  0  0  0
   -3.8299    5.1672   -1.3324 C   0  0  2  0  0  0  0  0  0  0  0  0
   -2.1698    4.6264    1.3840 C   0  0  1  0  0  0  0  0  0  0  0  0
   -0.3696    0.8050   -2.1233 C   0  0  1  0  0  0  0  0  0  0  0  0
   -3.8756    4.8771    0.5256 C   0  0  1  0  0  0  0  0  0  0  0  0
   -0.1704    4.3351   -2.5267 C   0  0  2  0  0  0  0  0  0  0  0  0
   -0.9381    2.5990   -1.4005 C   0  0  2  0  0  0  0  0  0  0  0  0
    0.7834    2.4933   -2.2734 C   0  0  2  0  0  0  0  0  0  0  0  0
    1.1196    5.3156   -1.3750 C   0  0  2  0  0  0  0  0  0  0  0  0
   -2.3947    3.4976    0.0539 C   0  0  1  0  0  0  0  0  0  0  0  0
    1.9405    2.8567   -1.2214 C   0  0  2  0  0  0  0  0  0  0  0  0
   -1.7982    1.3971    0.3078 N   0  0  0  0  0  0  0  0  0  0  0  0
   -3.6947    3.8950   -4.4430 O   0  0  0  0  0  0  0  0  0  0  0  0
   -2.2512    7.0615    0.1572 O   0  0  0  0  0  0  0  0  0  0  0  0
   -5.0294    4.6767   -1.7749 O   0  0  0  0  0  0  0  0  0  0  0  0
   -1.9937    4.5924    2.7235 O   0  0  0  0  0  0  0  0  0  0  0  0
    0.6058    0.0059   -2.6502 O   0  0  0  0  0  0  0  0  0  0  0  0
   -4.2866    6.0380    1.1339 O   0  0  0  0  0  0  0  0  0  0  0  0
   -0.8711    5.5117   -2.7413 O   0  0  0  0  0  0  0  0  0  0  0  0
    0.1365    1.9416   -0.6951 O   0  0  0  0  0  0  0  0  0  0  0  0
    0.3089    3.7986   -0.9770 O   0  0  0  0  0  0  0  0  0  0  0  0
   -2.3221    2.6708    1.6862 O   0  0  0  0  0  0  0  0  0  0  0  0
    1.8574    2.3112    0.3125 O   0  0  0  0  0  0  0  0  0  0  0  0
   -0.6298    4.5706    0.7254 O   0  0  0  0  0  0  0  0  0  0  0  0
    2.3001    4.3206   -1.3095 O   0  0  0  0  0  0  0  0  0  0  0  0
    0.6392    1.3225    1.8740 H   0  0  0  0  0  0  0  0  0  0  0  0
    0.1748    3.1199    0.6065 H   0  0  0  0  0  0  0  0  0  0  0  0
    0.7471    6.2075    0.8916 H   0  0  0  0  0  0  0  0  0  0  0  0
   -1.2170   -0.4751    0.0193 H   0  0  0  0  0  0  0  0  0  0  0  0
   -3.4552    6.1748   -1.5620 H   0  0  0  0  0  0  0  0  0  0  0  0
   -1.7652    5.5761    0.9947 H   0  0  0  0  0  0  0  0  0  0  0  0
   -1.3667    0.8444   -2.6997 H   0  0  0  0  0  0  0  0  0  0  0  0
   -4.2805    3.8508    0.6653 H   0  0  0  0  0  0  0  0  0  0  0  0
    0.5593    4.2354   -3.3578 H   0  0  0  0  0  0  0  0  0  0  0  0
   -1.8400    1.9224   -1.6608 H   0  0  0  0  0  0  0  0  0  0  0  0
    0.4825    2.6607   -3.3189 H   0  0  0  0  0  0  0  0  0  0  0  0
    1.4134    6.3430   -1.4290 H   0  0  0  0  0  0  0  0  0  0  0  0
   -2.4204    4.4945   -0.2300 H   0  0  0  0  0  0  0  0  0  0  0  0
    2.5146    2.0827   -1.6291 H   0  0  0  0  0  0  0  0  0  0  0  0
    0.8784   -0.4646   -0.6984 H   0  0  0  0  0  0  0  0  0  0  0  0
    0.8412   -0.9923    0.7630 H   0  0  0  0  0  0  0  0  0  0  0  0
    2.3610   -0.0433   -0.0235 H   0  0  0  0  0  0  0  0  0  0  0  0
   -1.6870    3.2076   -2.7269 H   0  0  0  0  0  0  0  0  0  0  0  0
   -2.4259    5.5721   -4.0631 H   0  0  0  0  0  0  0  0  0  0  0  0
   -1.7073    4.0073   -4.2154 H   0  0  0  0  0  0  0  0  0  0  0  0
   -0.5988    7.8514   -0.2831 H   0  0  0  0  0  0  0  0  0  0  0  0
   -1.2181    6.7873   -1.3917 H   0  0  0  0  0  0  0  0  0  0  0  0
   -2.2683    1.2335    1.2426 H   0  0  0  0  0  0  0  0  0  0  0  0
   -3.6927    3.0249   -4.0093 H   0  0  0  0  0  0  0  0  0  0  0  0
   -2.6387    6.2143   -0.0495 H   0  0  0  0  0  0  0  0  0  0  0  0
   -4.8983    3.7125   -1.6492 H   0  0  0  0  0  0  0  0  0  0  0  0
   -2.0160    3.6204    2.6456 H   0  0  0  0  0  0  0  0  0  0  0  0
    1.3885    0.3598   -2.1889 H   0  0  0  0  0  0  0  0  0  0  0  0
   -3.6364    6.7607    0.9477 H   0  0  0  0  0  0  0  0  0  0  0  0
   -1.4870    5.4556   -2.0101 H   0  0  0  0  0  0  0  0  0  0  0  0
    0.7577    1.2649   -0.9762 H   0  0  0  0  0  0  0  0  0  0  0  0
   -0.6021    4.3997   -0.9013 H   0  0  0  0  0  0  0  0  0  0  0  0
   -1.3844    2.2131    1.5985 H   0  0  0  0  0  0  0  0  0  0  0  0
  1 48  1  0  0  0  0
  1 49  1  0  0  0  0
  1 50  1  0  0  0  0
  2 51  1  0  0  0  0
  3 52  1  0  0  0  0
  3 53  1  0  0  0  0
  4 54  1  0  0  0  0
  4 55  1  0  0  0  0
  5  1  1  0  0  0  0
  5 34  1  1  0  0  0
  6  2  2  0  0  0  0
  6  3  1  0  0  0  0
  7  2  1  0  0  0  0
  7 20  1  0  0  0  0
  7 35  1  1  0  0  0
  8 36  1  1  0  0  0
  8  4  1  0  0  0  0
  9  5  1  0  0  0  0
  9 37  1  1  0  0  0
  9 20  1  0  0  0  0
 10  6  1  0  0  0  0
 10 23  1  0  0  0  0
 10 38  1  6  0  0  0
 11  7  1  0  0  0  0
 11 24  1  0  0  0  0
 11 39  1  6  0  0  0
 12  9  1  0  0  0  0
 12 25  1  0  0  0  0
 12 40  1  6  0  0  0
 13 10  1  0  0  0  0
 13 11  1  0  0  0  0
 13 26  1  0  0  0  0
 13 41  1  1  0  0  0
 14 27  1  0  0  0  0
 14 42  1  6  0  0  0
 15 14  1  0  0  0  0
 15 43  1  6  0  0  0
 15 28  1  0  0  0  0
 16 12  1  0  0  0  0
 16 44  1  6  0  0  0
 16 29  1  0  0  0  0
 17  8  1  0  0  0  0
 17 14  1  0  0  0  0
 17 33  1  0  0  0  0
 17 45  1  6  0  0  0
 18 15  1  0  0  0  0
 18 46  1  6  0  0  0
 18 30  1  0  0  0  0
 19 16  1  0  0  0  0
 19 47  1  6  0  0  0
 19 33  1  0  0  0  0
 20 56  1  0  0  0  0
 21  3  1  0  0  0  0
 21 57  1  0  0  0  0
 22  4  1  0  0  0  0
 22 58  1  0  0  0  0
 23 59  1  0  0  0  0
 24 60  1  0  0  0  0
 25 61  1  0  0  0  0
 26 62  1  0  0  0  0
 27 63  1  0  0  0  0
 28 64  1  0  0  0  0
 29 65  1  0  0  0  0
 30 66  1  0  0  0  0
 31  5  1  0  0  0  0
 31 19  1  0  0  0  0
 32  8  1  0  0  0  0
 32 18  1  0  0  0  0
M  END
>  <DRUGBANK_ID>
DB02889

>  <SECONDARY_ACCESSION_NUMBERS>
EXPT00191

>  <COMMON_NAME>
4-O-(4,6-Dideoxy-4-{[4,5,6-Trihydroxy-3-(Hydroxymethyl)Cyclohex-2-En-1-Yl]Amino}-Beta-D-Lyxo-Hexopyranosyl)-Alpha-D-Erythro-Hexopyranose

$$$$
