
 OpenBabel10282417183D

 23 22  0  0  0  0  0  0  0  0999 V2000
   -1.2850    5.4037   -1.4090 C   0  0  0  0  0  0  0  0  0  0  0  0
   -2.0322    4.5801   -0.3968 C   0  0  1  0  0  0  0  0  0  0  0  0
   -1.6214    4.9624    1.0163 C   0  0  2  0  0  0  0  0  0  0  0  0
   -0.0972    4.7903    1.3399 C   0  0  1  0  0  0  0  0  0  0  0  0
    0.2048    4.0196    2.6414 C   0  0  2  0  0  0  0  0  0  0  0  0
   -1.4129    6.6271   -1.5330 O   0  0  0  0  0  0  0  0  0  0  0  0
   -2.4683    4.2099    1.9073 O   0  0  0  0  0  0  0  0  0  0  0  0
    0.7160    4.2461    0.2808 O   0  0  0  0  0  0  0  0  0  0  0  0
   -0.1086    2.6330    2.4081 O   0  0  0  0  0  0  0  0  0  0  0  0
   -0.5567    4.8543   -2.0245 H   0  0  0  0  0  0  0  0  0  0  0  0
   -0.4914    4.6349    3.8746 C   0  0  0  0  0  0  0  0  0  0  0  0
   -0.0812    3.9734    5.0686 O   0  0  0  0  0  0  0  0  0  0  0  0
   -3.3865    4.7607   -0.5029 F   0  0  0  0  0  0  0  0  0  0  0  0
   -1.8549    3.5124   -0.5643 H   0  0  0  0  0  0  0  0  0  0  0  0
   -1.8768    6.0129    1.2116 H   0  0  0  0  0  0  0  0  0  0  0  0
    0.3124    5.8011    1.4458 H   0  0  0  0  0  0  0  0  0  0  0  0
    1.2858    4.0404    2.8253 H   0  0  0  0  0  0  0  0  0  0  0  0
   -3.3899    4.4861    1.7322 H   0  0  0  0  0  0  0  0  0  0  0  0
    0.2153    3.6765   -0.3176 H   0  0  0  0  0  0  0  0  0  0  0  0
   -0.4871    2.2371    3.2050 H   0  0  0  0  0  0  0  0  0  0  0  0
   -0.2207    5.6929    3.9663 H   0  0  0  0  0  0  0  0  0  0  0  0
   -1.5794    4.5800    3.8614 H   0  0  0  0  0  0  0  0  0  0  0  0
   -0.4058    3.0603    5.0187 H   0  0  0  0  0  0  0  0  0  0  0  0
  2 14  1  6  0  0  0
  2 13  1  0  0  0  0
  2  1  1  0  0  0  0
  3  2  1  0  0  0  0
  3  7  1  0  0  0  0
  3 15  1  1  0  0  0
  4 16  1  1  0  0  0
  4  8  1  0  0  0  0
  4  3  1  0  0  0  0
  5 17  1  1  0  0  0
  5  9  1  0  0  0  0
  5  4  1  0  0  0  0
  6  1  2  0  0  0  0
  7 18  1  0  0  0  0
  8 19  1  0  0  0  0
  9 20  1  0  0  0  0
 10  1  1  0  0  0  0
 11  5  1  0  0  0  0
 11 12  1  0  0  0  0
 11 21  1  0  0  0  0
 11 22  1  0  0  0  0
 12 23  1  0  0  0  0
M  ISO  1  13  18
M  END
>  <DRUGBANK_ID>
DB09502

>  <SECONDARY_ACCESSION_NUMBERS>
DB09150

>  <COMMON_NAME>
Fludeoxyglucose (18F)

>  <CAS_NUMBER>
63503-12-8

>  <UNII>
0Z5B2CJX4D

>  <SYNONYMS>
(18F)-FDG; 18-F FDG; 18F-FDG; Fludeoxyglucose (18F); Fludeoxyglucose F 18; Fludeoxyglucose F-18; Fludeoxyglucose, F-18; Fluorine (18F) fludeoxyglucose

$$$$
