
 OpenBabel10282417193D

 51 54  0  0  1  0  0  0  0  0999 V2000
    1.0290    0.0405   -0.0703 C   0  0  0  0  0  0  0  0  0  0  0  0
    0.6327   -0.6245    1.1253 O   0  0  0  0  0  0  0  0  0  0  0  0
    0.8860   -1.9721    1.1339 C   0  0  0  0  0  0  0  0  0  0  0  0
    2.1976   -2.4172    0.9261 C   0  0  0  0  0  0  0  0  0  0  0  0
    2.5192   -3.7653    1.0506 C   0  0  0  0  0  0  0  0  0  0  0  0
    1.5316   -4.6922    1.3760 C   0  0  0  0  0  0  0  0  0  0  0  0
    0.2086   -4.2636    1.5994 C   0  0  0  0  0  0  0  0  0  0  0  0
   -0.1194   -2.8890    1.4889 C   0  0  0  0  0  0  0  0  0  0  0  0
   -1.4375   -2.5999    1.7611 O   0  0  0  0  0  0  0  0  0  0  0  0
   -1.8683   -1.2495    1.6594 C   0  0  0  0  0  0  0  0  0  0  0  0
   -0.8466   -5.2690    2.0106 C   0  0  0  0  0  0  0  0  0  0  0  0
   -0.4142   -6.6601    2.0510 N   0  0  3  0  0  0  0  0  0  0  0  0
   -1.4860   -7.6211    2.2214 C   0  0  0  0  0  0  0  0  0  0  0  0
   -0.9044   -8.8301    2.9420 C   0  0  0  0  0  0  0  0  0  0  0  0
    0.3207   -9.3605    2.2445 C   0  0  0  0  0  0  0  0  0  0  0  0
    0.7037  -10.6832    2.4965 C   0  0  0  0  0  0  0  0  0  0  0  0
    1.8496  -11.2293    1.9103 C   0  0  0  0  0  0  0  0  0  0  0  0
    2.6285  -10.4295    1.0632 C   0  0  0  0  0  0  0  0  0  0  0  0
    2.2447   -9.0954    0.8191 C   0  0  0  0  0  0  0  0  0  0  0  0
    1.1002   -8.5363    1.4241 C   0  0  0  0  0  0  0  0  0  0  0  0
    0.7066   -7.0709    1.1956 C   0  0  2  0  0  0  0  0  0  0  0  0
    1.8876   -6.1459    1.5621 C   0  0  0  0  0  0  0  0  0  0  0  0
    3.7859  -10.7835    0.4053 O   0  0  0  0  0  0  0  0  0  0  0  0
    4.2566  -12.1154    0.5757 C   0  0  0  0  0  0  0  0  0  0  0  0
    2.2348  -12.5214    2.1380 O   0  0  0  0  0  0  0  0  0  0  0  0
    1.4355  -13.3356    2.9782 C   0  0  0  0  0  0  0  0  0  0  0  0
    0.6181    1.0542   -0.0276 H   0  0  0  0  0  0  0  0  0  0  0  0
    0.6196   -0.4520   -0.9589 H   0  0  0  0  0  0  0  0  0  0  0  0
    2.1163    0.1305   -0.1363 H   0  0  0  0  0  0  0  0  0  0  0  0
    2.9938   -1.7137    0.7112 H   0  0  0  0  0  0  0  0  0  0  0  0
    3.5500   -4.0838    0.9131 H   0  0  0  0  0  0  0  0  0  0  0  0
   -1.3668   -0.6185    2.4004 H   0  0  0  0  0  0  0  0  0  0  0  0
   -1.7444   -0.8722    0.6390 H   0  0  0  0  0  0  0  0  0  0  0  0
   -2.9382   -1.2124    1.8845 H   0  0  0  0  0  0  0  0  0  0  0  0
   -1.1272   -5.0227    3.0433 H   0  0  0  0  0  0  0  0  0  0  0  0
   -1.7324   -5.1475    1.3757 H   0  0  0  0  0  0  0  0  0  0  0  0
   -2.2759   -7.2080    2.8611 H   0  0  0  0  0  0  0  0  0  0  0  0
   -1.9589   -7.9098    1.2730 H   0  0  0  0  0  0  0  0  0  0  0  0
   -0.6175   -8.5474    3.9637 H   0  0  0  0  0  0  0  0  0  0  0  0
   -1.6695   -9.6103    3.0135 H   0  0  0  0  0  0  0  0  0  0  0  0
    0.0829  -11.2627    3.1661 H   0  0  0  0  0  0  0  0  0  0  0  0
    2.8632   -8.4961    0.1566 H   0  0  0  0  0  0  0  0  0  0  0  0
    0.4540   -6.9590    0.1300 H   0  0  0  0  0  0  0  0  0  0  0  0
    2.1737   -6.3007    2.6129 H   0  0  0  0  0  0  0  0  0  0  0  0
    2.7700   -6.3781    0.9555 H   0  0  0  0  0  0  0  0  0  0  0  0
    4.5218  -12.3099    1.6211 H   0  0  0  0  0  0  0  0  0  0  0  0
    3.5312  -12.8401    0.1894 H   0  0  0  0  0  0  0  0  0  0  0  0
    5.1712  -12.2396   -0.0103 H   0  0  0  0  0  0  0  0  0  0  0  0
    1.4107  -12.9388    3.9979 H   0  0  0  0  0  0  0  0  0  0  0  0
    0.4280  -13.4560    2.5672 H   0  0  0  0  0  0  0  0  0  0  0  0
    1.9019  -14.3237    3.0144 H   0  0  0  0  0  0  0  0  0  0  0  0
  1  2  1  0  0  0  0
  1 27  1  0  0  0  0
  1 28  1  0  0  0  0
  1 29  1  0  0  0  0
  2  3  1  0  0  0  0
  3  4  2  0  0  0  0
  3  8  1  0  0  0  0
  4  5  1  0  0  0  0
  4 30  1  0  0  0  0
  5  6  2  0  0  0  0
  5 31  1  0  0  0  0
  6  7  1  0  0  0  0
  6 22  1  0  0  0  0
  7  8  2  0  0  0  0
  7 11  1  0  0  0  0
  8  9  1  0  0  0  0
  9 10  1  0  0  0  0
 10 32  1  0  0  0  0
 10 33  1  0  0  0  0
 10 34  1  0  0  0  0
 11 12  1  0  0  0  0
 11 35  1  0  0  0  0
 11 36  1  0  0  0  0
 12 13  1  0  0  0  0
 13 14  1  0  0  0  0
 13 37  1  0  0  0  0
 13 38  1  0  0  0  0
 14 15  1  0  0  0  0
 14 39  1  0  0  0  0
 14 40  1  0  0  0  0
 15 16  2  0  0  0  0
 15 20  1  0  0  0  0
 16 17  1  0  0  0  0
 16 41  1  0  0  0  0
 17 18  2  0  0  0  0
 17 25  1  0  0  0  0
 18 19  1  0  0  0  0
 18 23  1  0  0  0  0
 19 20  2  0  0  0  0
 19 42  1  0  0  0  0
 20 21  1  0  0  0  0
 21 12  1  0  0  0  0
 21 22  1  0  0  0  0
 21 43  1  6  0  0  0
 22 44  1  0  0  0  0
 22 45  1  0  0  0  0
 23 24  1  0  0  0  0
 24 46  1  0  0  0  0
 24 47  1  0  0  0  0
 24 48  1  0  0  0  0
 25 26  1  0  0  0  0
 26 49  1  0  0  0  0
 26 50  1  0  0  0  0
 26 51  1  0  0  0  0
M  END
>  <DRUGBANK_ID>
DB12093

>  <COMMON_NAME>
Tetrahydropalmatine

>  <CAS_NUMBER>
483-14-7

>  <UNII>
3X69CO5I79

$$$$
