Y11
 OpenBabel10282417173D

 64 66  0  0  0  0  0  0  0  0999 V2000
    0.9326    0.2399    0.3873 C   0  0  0  0  0  0  0  0  0  0  0  0
    0.6929    0.9542    2.6546 C   0  0  0  0  0  0  0  0  0  0  0  0
    0.7214    0.2871    3.9704 C   0  0  0  0  0  0  0  0  0  0  0  0
   -0.7739   -1.3257    3.0848 C   0  0  0  0  0  0  0  0  0  0  0  0
   -0.9049   -0.5483    1.7864 C   0  0  0  0  0  0  0  0  0  0  0  0
    0.0903    0.5191   -0.4083 O   0  0  0  0  0  0  0  0  0  0  0  0
   -0.4891   -0.4370    4.1916 O   0  0  0  0  0  0  0  0  0  0  0  0
    0.4611   -0.0208    1.6297 N   0  0  0  0  0  0  0  0  0  0  0  0
    2.2974    0.0530    0.1486 N   0  0  0  0  0  0  0  0  0  0  0  0
    3.0751   -0.1192   -1.1721 C   0  0  1  0  0  0  0  0  0  0  0  0
    2.3728   -0.7150   -2.4632 C   0  0  0  0  0  0  0  0  0  0  0  0
    1.3376   -1.8290   -2.2418 C   0  0  0  0  0  0  0  0  0  0  0  0
    0.6750   -1.9624   -0.8881 C   0  0  0  0  0  0  0  0  0  0  0  0
   -0.2239   -3.0944   -0.5587 C   0  0  0  0  0  0  0  0  0  0  0  0
    0.6107   -4.3005   -0.7659 C   0  0  0  0  0  0  0  0  0  0  0  0
    1.1665   -4.2811   -2.1891 C   0  0  0  0  0  0  0  0  0  0  0  0
    2.0731   -3.1012   -2.4939 C   0  0  0  0  0  0  0  0  0  0  0  0
    3.9552    1.1346   -1.4875 C   0  0  0  0  0  0  0  0  0  0  0  0
    5.1790    1.0620   -1.6176 O   0  0  0  0  0  0  0  0  0  0  0  0
    3.3648    2.3507   -1.6708 N   0  0  0  0  0  0  0  0  0  0  0  0
    1.0887    1.8023   -2.3981 C   0  0  0  0  0  0  0  0  0  0  0  0
   -0.3941    1.9660   -2.3435 C   0  0  0  0  0  0  0  0  0  0  0  0
    0.0382    4.2700   -2.1245 C   0  0  0  0  0  0  0  0  0  0  0  0
    1.5841    4.0201   -2.1338 C   0  0  0  0  0  0  0  0  0  0  0  0
   -0.7126    3.2527   -2.8940 N   0  0  0  0  0  0  0  0  0  0  0  0
   -2.1633    3.3589   -2.7063 C   0  0  0  0  0  0  0  0  0  0  0  0
    1.5592    2.6696   -0.0419 C   0  0  0  0  0  0  0  0  0  0  0  0
    1.2346    2.7059    1.1760 N   0  0  0  0  0  0  0  0  0  0  0  0
    1.9504    2.6259   -1.5101 C   0  0  0  0  0  0  0  0  0  0  0  0
    3.8191   -0.8866   -0.9139 H   0  0  0  0  0  0  0  0  0  0  0  0
   -0.1185    1.7122    2.6075 H   0  0  0  0  0  0  0  0  0  0  0  0
    1.6978    1.3567    2.5582 H   0  0  0  0  0  0  0  0  0  0  0  0
    1.5880   -0.3798    3.9324 H   0  0  0  0  0  0  0  0  0  0  0  0
    0.8749    1.0718    4.7140 H   0  0  0  0  0  0  0  0  0  0  0  0
   -1.6718   -1.8918    3.3138 H   0  0  0  0  0  0  0  0  0  0  0  0
    0.0724   -2.0196    2.9772 H   0  0  0  0  0  0  0  0  0  0  0  0
   -1.6548    0.2595    1.8287 H   0  0  0  0  0  0  0  0  0  0  0  0
   -1.2256   -1.1743    0.9529 H   0  0  0  0  0  0  0  0  0  0  0  0
    2.8792    0.1431    0.9683 H   0  0  0  0  0  0  0  0  0  0  0  0
    1.8539   -0.0616   -3.1654 H   0  0  0  0  0  0  0  0  0  0  0  0
    3.1484   -0.9406   -3.2121 H   0  0  0  0  0  0  0  0  0  0  0  0
    0.5187   -1.6705   -2.9626 H   0  0  0  0  0  0  0  0  0  0  0  0
    1.4338   -1.9670   -0.0976 H   0  0  0  0  0  0  0  0  0  0  0  0
   -0.1061   -1.2419   -0.8605 H   0  0  0  0  0  0  0  0  0  0  0  0
   -0.5357   -3.0178    0.4904 H   0  0  0  0  0  0  0  0  0  0  0  0
   -1.1254   -3.0142   -1.1766 H   0  0  0  0  0  0  0  0  0  0  0  0
    1.4244   -4.2698   -0.0272 H   0  0  0  0  0  0  0  0  0  0  0  0
   -0.0232   -5.1588   -0.5648 H   0  0  0  0  0  0  0  0  0  0  0  0
    1.7373   -5.1859   -2.3537 H   0  0  0  0  0  0  0  0  0  0  0  0
    0.3210   -4.2255   -2.8856 H   0  0  0  0  0  0  0  0  0  0  0  0
    2.4039   -3.0985   -3.5373 H   0  0  0  0  0  0  0  0  0  0  0  0
    2.9648   -3.1014   -1.8539 H   0  0  0  0  0  0  0  0  0  0  0  0
    4.0106    3.1267   -1.7782 H   0  0  0  0  0  0  0  0  0  0  0  0
    1.2099    0.8678   -1.9625 H   0  0  0  0  0  0  0  0  0  0  0  0
    1.4522    1.8114   -3.4355 H   0  0  0  0  0  0  0  0  0  0  0  0
   -0.8495    1.1007   -2.8493 H   0  0  0  0  0  0  0  0  0  0  0  0
   -0.7986    1.9845   -1.3282 H   0  0  0  0  0  0  0  0  0  0  0  0
   -0.1656    5.2421   -2.5724 H   0  0  0  0  0  0  0  0  0  0  0  0
   -0.3019    4.2942   -1.0806 H   0  0  0  0  0  0  0  0  0  0  0  0
    1.9196    4.0363   -3.1848 H   0  0  0  0  0  0  0  0  0  0  0  0
    2.1098    4.8375   -1.6331 H   0  0  0  0  0  0  0  0  0  0  0  0
   -2.4504    3.3219   -1.6452 H   0  0  0  0  0  0  0  0  0  0  0  0
   -2.5252    4.2778   -3.1544 H   0  0  0  0  0  0  0  0  0  0  0  0
   -2.6675    2.5127   -3.1987 H   0  0  0  0  0  0  0  0  0  0  0  0
  1  6  2  0  0  0  0
  1  8  1  0  0  0  0
  2  3  1  0  0  0  0
  2 31  1  0  0  0  0
  2 32  1  0  0  0  0
  3 33  1  0  0  0  0
  3 34  1  0  0  0  0
  4  7  1  0  0  0  0
  4 35  1  0  0  0  0
  4 36  1  0  0  0  0
  5  8  1  0  0  0  0
  5  4  1  0  0  0  0
  5 37  1  0  0  0  0
  5 38  1  0  0  0  0
  7  3  1  0  0  0  0
  8  2  1  0  0  0  0
  9  1  1  0  0  0  0
  9 39  1  0  0  0  0
 10 18  1  0  0  0  0
 10  9  1  0  0  0  0
 10 30  1  1  0  0  0
 11 10  1  0  0  0  0
 11 40  1  0  0  0  0
 11 41  1  0  0  0  0
 12 11  1  0  0  0  0
 12 42  1  0  0  0  0
 13 12  1  0  0  0  0
 13 43  1  0  0  0  0
 13 44  1  0  0  0  0
 14 13  1  0  0  0  0
 14 45  1  0  0  0  0
 14 46  1  0  0  0  0
 15 14  1  0  0  0  0
 15 16  1  0  0  0  0
 15 47  1  0  0  0  0
 15 48  1  0  0  0  0
 16 17  1  0  0  0  0
 16 49  1  0  0  0  0
 16 50  1  0  0  0  0
 17 12  1  0  0  0  0
 17 51  1  0  0  0  0
 17 52  1  0  0  0  0
 18 19  2  0  0  0  0
 20 18  1  0  0  0  0
 20 29  1  0  0  0  0
 20 53  1  0  0  0  0
 21 22  1  0  0  0  0
 21 54  1  0  0  0  0
 21 55  1  0  0  0  0
 22 56  1  0  0  0  0
 22 57  1  0  0  0  0
 23 25  1  0  0  0  0
 23 58  1  0  0  0  0
 23 59  1  0  0  0  0
 24 29  1  0  0  0  0
 24 23  1  0  0  0  0
 24 60  1  0  0  0  0
 24 61  1  0  0  0  0
 25 22  1  0  0  0  0
 25 26  1  0  0  0  0
 26 62  1  0  0  0  0
 26 63  1  0  0  0  0
 26 64  1  0  0  0  0
 27 28  3  0  0  0  0
 27 29  1  0  0  0  0
 29 21  1  0  0  0  0
M  END
>  <DRUGBANK_ID>
DB08752

>  <COMMON_NAME>
N-[(1S)-2-[(4-cyano-1-methylpiperidin-4-yl)amino]-1-(cyclohexylmethyl)-2-oxoethyl]morpholine-4-carboxamide

$$$$
