
 OpenBabel10282417183D

130132  0  0  0  0  0  0  0  0999 V2000
   -1.2877    0.6785   -4.6962 C   0  0  0  0  0  0  0  0  0  0  0  0
   -1.6131   -0.5960   -4.1005 C   0  0  1  0  0  0  0  0  0  0  0  0
   -2.5425   -0.1178   -2.9436 C   0  0  2  0  0  0  0  0  0  0  0  0
   -2.3641    1.0954   -1.9775 C   0  0  1  0  0  0  0  0  0  0  0  0
   -2.0753    2.1510   -2.7690 O   0  0  0  0  0  0  0  0  0  0  0  0
   -1.0030    1.7066   -3.6268 C   0  0  2  0  0  0  0  0  0  0  0  0
   -0.8708    2.9790   -4.2661 C   0  0  0  0  0  0  0  0  0  0  0  0
   -2.0710   -1.7186   -5.3521 N   0  0  0  0  0  0  0  0  0  0  0  0
   -2.7509   -1.0414   -1.9668 O   0  0  0  0  0  0  0  0  0  0  0  0
   -1.3190    0.9445   -1.7582 H   0  0  0  0  0  0  0  0  0  0  0  0
   -2.2149   -3.4692   -5.4005 C   0  0  0  0  0  0  0  0  0  0  0  0
   -3.3392   -1.1877   -5.6709 C   0  0  0  0  0  0  0  0  0  0  0  0
   -3.3556    1.5187   -0.5974 O   0  0  0  0  0  0  0  0  0  0  0  0
   -4.0481    0.3825    0.6284 C   0  0  2  0  0  0  0  0  0  0  0  0
   -2.5074    0.3326    1.9792 C   0  0  2  0  0  0  0  0  0  0  0  0
   -4.2799   -1.4234   -0.5472 C   0  0  2  0  0  0  0  0  0  0  0  0
   -4.5579   -1.3514   -2.1186 C   0  0  0  0  0  0  0  0  0  0  0  0
   -4.0390   -2.9672   -3.2736 C   0  0  2  0  0  0  0  0  0  0  0  0
   -2.4652   -4.2073   -3.3012 N   0  0  0  0  0  0  0  0  0  0  0  0
   -2.2249   -5.2724   -1.9491 C   0  0  0  0  0  0  0  0  0  0  0  0
   -1.6654   -4.7978   -0.4651 C   0  0  0  0  0  0  0  0  0  0  0  0
   -2.6905   -3.8605   -0.1345 C   0  0  0  0  0  0  0  0  0  0  0  0
   -0.8029   -3.1595   -3.6898 C   0  0  0  0  0  0  0  0  0  0  0  0
   -1.0345    0.5842    1.2967 C   0  0  1  0  0  0  0  0  0  0  0  0
    0.1938   -0.3795    1.4529 C   0  0  2  0  0  0  0  0  0  0  0  0
    1.4810    0.0067    0.8368 C   0  0  0  0  0  0  0  0  0  0  0  0
    2.1803   -0.9340    0.0585 O   0  0  0  0  0  0  0  0  0  0  0  0
    2.1989   -0.9652   -1.4541 C   0  0  1  0  0  0  0  0  0  0  0  0
   -2.0505   -1.1538    2.8137 C   0  0  0  0  0  0  0  0  0  0  0  0
   -0.9863    0.7511   -0.0655 O   0  0  0  0  0  0  0  0  0  0  0  0
   -5.7580   -2.1263   -0.1456 C   0  0  0  0  0  0  0  0  0  0  0  0
   -5.0278   -2.6564   -4.3512 C   0  0  0  0  0  0  0  0  0  0  0  0
   -2.2414   -2.1617   -0.2442 O   0  0  0  0  0  0  0  0  0  0  0  0
   -1.3872   -0.4564   -0.5317 C   0  0  1  0  0  0  0  0  0  0  0  0
   -2.9582   -0.8785    0.3091 C   0  0  0  0  0  0  0  0  0  0  0  0
   -4.0321   -2.8989    0.4812 C   0  0  1  0  0  0  0  0  0  0  0  0
   -4.1523   -3.4777   -1.4794 C   0  0  2  0  0  0  0  0  0  0  0  0
   -2.2378   -2.7581   -2.2329 C   0  0  1  0  0  0  0  0  0  0  0  0
   -1.0730   -1.2642   -1.9580 O   0  0  0  0  0  0  0  0  0  0  0  0
   -0.6073   -1.0618   -0.9115 H   0  0  0  0  0  0  0  0  0  0  0  0
   -2.5869   -4.0568    1.6497 C   0  0  0  0  0  0  0  0  0  0  0  0
   -0.9605   -3.3738   -1.6992 C   0  0  0  0  0  0  0  0  0  0  0  0
   -5.6800   -2.9720   -1.9903 O   0  0  0  0  0  0  0  0  0  0  0  0
   -4.8752   -3.4592    1.4239 O   0  0  0  0  0  0  0  0  0  0  0  0
    0.1100   -1.6983    0.8991 C   0  0  0  0  0  0  0  0  0  0  0  0
   -4.6683   -2.4923    2.3905 C   0  0  0  0  0  0  0  0  0  0  0  0
    1.9056    1.0980    1.1849 O   0  0  0  0  0  0  0  0  0  0  0  0
    1.9653   -2.3617   -2.0734 C   0  0  2  0  0  0  0  0  0  0  0  0
    1.6038   -2.6385   -3.6249 C   0  0  1  0  0  0  0  0  0  0  0  0
    0.5170   -3.6509   -4.0605 C   0  0  1  0  0  0  0  0  0  0  0  0
    1.3269    0.0693   -2.0074 C   0  0  0  0  0  0  0  0  0  0  0  0
    1.3983   -3.2003   -1.1164 O   0  0  0  0  0  0  0  0  0  0  0  0
    3.1790   -3.1793   -1.8578 C   0  0  0  0  0  0  0  0  0  0  0  0
    0.5827   -4.8967   -3.2971 C   0  0  0  0  0  0  0  0  0  0  0  0
    1.5493    1.4449   -1.5854 C   0  0  0  0  0  0  0  0  0  0  0  0
    1.6261   -1.4889   -4.4436 O   0  0  0  0  0  0  0  0  0  0  0  0
   -2.2330    0.8942   -5.1277 H   0  0  0  0  0  0  0  0  0  0  0  0
   -0.4149    0.3902   -5.2839 H   0  0  0  0  0  0  0  0  0  0  0  0
   -0.6085   -0.7365   -3.7352 H   0  0  0  0  0  0  0  0  0  0  0  0
   -3.4448   -0.0304   -3.4726 H   0  0  0  0  0  0  0  0  0  0  0  0
   -0.1142    1.3926   -3.1189 H   0  0  0  0  0  0  0  0  0  0  0  0
   -0.6333    3.6880   -3.4759 H   0  0  0  0  0  0  0  0  0  0  0  0
   -0.1239    2.8502   -5.0189 H   0  0  0  0  0  0  0  0  0  0  0  0
   -1.8827    3.1446   -4.6495 H   0  0  0  0  0  0  0  0  0  0  0  0
   -2.1228   -1.5814   -1.3165 H   0  0  0  0  0  0  0  0  0  0  0  0
   -2.9604   -3.3115   -4.7153 H   0  0  0  0  0  0  0  0  0  0  0  0
   -2.9470   -4.3352   -5.3072 H   0  0  0  0  0  0  0  0  0  0  0  0
   -1.4726   -4.1898   -4.9367 H   0  0  0  0  0  0  0  0  0  0  0  0
   -3.9414   -0.8414   -4.7984 H   0  0  0  0  0  0  0  0  0  0  0  0
   -3.1979   -0.2715   -6.1290 H   0  0  0  0  0  0  0  0  0  0  0  0
   -3.7772   -2.0231   -6.2167 H   0  0  0  0  0  0  0  0  0  0  0  0
   -5.0635    0.2837    0.9354 H   0  0  0  0  0  0  0  0  0  0  0  0
   -2.9541    0.7914    2.7938 H   0  0  0  0  0  0  0  0  0  0  0  0
   -4.1273   -0.3711   -2.0673 H   0  0  0  0  0  0  0  0  0  0  0  0
   -5.0595   -0.4310   -2.4523 H   0  0  0  0  0  0  0  0  0  0  0  0
   -4.7507   -3.9853   -3.0967 H   0  0  0  0  0  0  0  0  0  0  0  0
   -3.1120   -5.8479   -1.7714 H   0  0  0  0  0  0  0  0  0  0  0  0
   -1.5002   -5.9866   -2.2737 H   0  0  0  0  0  0  0  0  0  0  0  0
   -1.1502   -5.4726    0.1384 H   0  0  0  0  0  0  0  0  0  0  0  0
   -0.5669   -4.2229   -0.1796 H   0  0  0  0  0  0  0  0  0  0  0  0
   -3.5533   -4.6046   -0.0688 H   0  0  0  0  0  0  0  0  0  0  0  0
   -2.8479   -2.6603    1.1037 H   0  0  0  0  0  0  0  0  0  0  0  0
   -2.9528   -3.0785   -0.8972 H   0  0  0  0  0  0  0  0  0  0  0  0
   -0.3467   -2.3139   -3.0929 H   0  0  0  0  0  0  0  0  0  0  0  0
   -0.8360   -2.3385   -4.3025 H   0  0  0  0  0  0  0  0  0  0  0  0
   -0.8581    1.5519    1.6488 H   0  0  0  0  0  0  0  0  0  0  0  0
    0.2769   -0.5509    2.4763 H   0  0  0  0  0  0  0  0  0  0  0  0
    3.1928   -0.7208   -1.7707 H   0  0  0  0  0  0  0  0  0  0  0  0
   -2.1825   -1.9067    2.1306 H   0  0  0  0  0  0  0  0  0  0  0  0
   -1.0853   -1.6667    2.7313 H   0  0  0  0  0  0  0  0  0  0  0  0
   -2.8052   -1.6486    3.3570 H   0  0  0  0  0  0  0  0  0  0  0  0
   -5.9626   -1.7946    0.8206 H   0  0  0  0  0  0  0  0  0  0  0  0
   -6.5083   -1.7757   -0.8049 H   0  0  0  0  0  0  0  0  0  0  0  0
   -5.7133   -3.3344   -0.2894 H   0  0  0  0  0  0  0  0  0  0  0  0
   -5.2687   -3.6451   -4.6417 H   0  0  0  0  0  0  0  0  0  0  0  0
   -5.6598   -1.7771   -4.0642 H   0  0  0  0  0  0  0  0  0  0  0  0
   -4.1565   -2.3756   -4.6733 H   0  0  0  0  0  0  0  0  0  0  0  0
   -1.8177   -2.6380    0.6579 H   0  0  0  0  0  0  0  0  0  0  0  0
   -2.6940   -0.9192    1.1296 H   0  0  0  0  0  0  0  0  0  0  0  0
   -3.3074   -0.1607   -0.6432 H   0  0  0  0  0  0  0  0  0  0  0  0
   -4.1987   -4.5664   -1.6783 H   0  0  0  0  0  0  0  0  0  0  0  0
   -2.3856   -2.2831   -3.2309 H   0  0  0  0  0  0  0  0  0  0  0  0
   -1.8559   -3.6409    2.3671 H   0  0  0  0  0  0  0  0  0  0  0  0
   -2.5725   -5.1533    1.3324 H   0  0  0  0  0  0  0  0  0  0  0  0
   -1.2998   -3.8188    1.1796 H   0  0  0  0  0  0  0  0  0  0  0  0
   -0.5481   -4.3709   -1.6990 H   0  0  0  0  0  0  0  0  0  0  0  0
   -0.0208   -3.2216   -2.0156 H   0  0  0  0  0  0  0  0  0  0  0  0
   -0.7481   -2.7969   -0.9050 H   0  0  0  0  0  0  0  0  0  0  0  0
   -5.9748   -2.9233   -2.8888 H   0  0  0  0  0  0  0  0  0  0  0  0
    0.3361   -1.5684   -0.0980 H   0  0  0  0  0  0  0  0  0  0  0  0
    0.4603   -2.6397    1.2163 H   0  0  0  0  0  0  0  0  0  0  0  0
   -0.8621   -1.8359    0.9334 H   0  0  0  0  0  0  0  0  0  0  0  0
   -3.8214   -2.9788    2.8170 H   0  0  0  0  0  0  0  0  0  0  0  0
   -4.4133   -1.4723    2.0240 H   0  0  0  0  0  0  0  0  0  0  0  0
   -5.6733   -2.4761    2.6657 H   0  0  0  0  0  0  0  0  0  0  0  0
    2.3601   -3.2730   -4.0318 H   0  0  0  0  0  0  0  0  0  0  0  0
    0.2489   -3.5898   -5.1049 H   0  0  0  0  0  0  0  0  0  0  0  0
    1.2371    0.0936   -3.0496 H   0  0  0  0  0  0  0  0  0  0  0  0
    0.3911   -0.1126   -1.6534 H   0  0  0  0  0  0  0  0  0  0  0  0
    1.0102   -2.7458   -0.4102 H   0  0  0  0  0  0  0  0  0  0  0  0
    2.9929   -4.2141   -2.1883 H   0  0  0  0  0  0  0  0  0  0  0  0
    3.9263   -2.6880   -2.4333 H   0  0  0  0  0  0  0  0  0  0  0  0
    3.3819   -3.2170   -0.7783 H   0  0  0  0  0  0  0  0  0  0  0  0
   -0.4621   -4.9472   -3.1498 H   0  0  0  0  0  0  0  0  0  0  0  0
    0.3578   -5.8425   -3.6895 H   0  0  0  0  0  0  0  0  0  0  0  0
    0.9804   -4.8424   -2.2681 H   0  0  0  0  0  0  0  0  0  0  0  0
    2.5586    1.6781   -1.8274 H   0  0  0  0  0  0  0  0  0  0  0  0
    0.7761    2.1583   -1.8258 H   0  0  0  0  0  0  0  0  0  0  0  0
    1.3854    1.5101   -0.5619 H   0  0  0  0  0  0  0  0  0  0  0  0
    0.8837   -0.9357   -4.1918 H   0  0  0  0  0  0  0  0  0  0  0  0
  1  2  1  0  0  0  0
  1  6  1  0  0  0  0
  1 57  1  0  0  0  0
  1 58  1  0  0  0  0
  2  3  1  0  0  0  0
  2  8  1  0  0  0  0
  2 59  1  1  0  0  0
  3  4  1  0  0  0  0
  3  9  1  0  0  0  0
  3 60  1  6  0  0  0
  4  5  1  0  0  0  0
  4 13  1  0  0  0  0
  4 10  1  1  0  0  0
  5  6  1  0  0  0  0
  6  7  1  0  0  0  0
  6 61  1  1  0  0  0
  7 62  1  0  0  0  0
  7 63  1  0  0  0  0
  7 64  1  0  0  0  0
  8 11  1  0  0  0  0
  8 12  1  0  0  0  0
  9 65  1  0  0  0  0
 11 66  1  0  0  0  0
 11 67  1  0  0  0  0
 11 68  1  0  0  0  0
 12 69  1  0  0  0  0
 12 70  1  0  0  0  0
 12 71  1  0  0  0  0
 14 13  1  0  0  0  0
 14 15  1  0  0  0  0
 14 16  1  0  0  0  0
 14 72  1  1  0  0  0
 15 24  1  0  0  0  0
 15 73  1  1  0  0  0
 15 29  1  0  0  0  0
 16 17  1  0  0  0  0
 16 33  1  1  0  0  0
 16 31  1  0  0  0  0
 17 18  1  0  0  0  0
 17 74  1  0  0  0  0
 17 75  1  0  0  0  0
 18 19  1  0  0  0  0
 18 32  1  0  0  0  0
 18 76  1  1  0  0  0
 19 20  1  0  0  0  0
 19 23  1  0  0  0  0
 20 21  1  0  0  0  0
 20 77  1  0  0  0  0
 20 78  1  0  0  0  0
 21 22  1  0  0  0  0
 21 79  1  0  0  0  0
 21 80  1  0  0  0  0
 22 81  1  0  0  0  0
 22 82  1  0  0  0  0
 22 83  1  0  0  0  0
 23 50  1  0  0  0  0
 23 84  1  0  0  0  0
 23 85  1  0  0  0  0
 24 25  1  0  0  0  0
 24 30  1  0  0  0  0
 24 86  1  1  0  0  0
 25 26  1  0  0  0  0
 25 87  1  1  0  0  0
 25 45  1  0  0  0  0
 26 27  1  0  0  0  0
 26 47  2  0  0  0  0
 27 28  1  0  0  0  0
 28 48  1  0  0  0  0
 28 51  1  0  0  0  0
 28 88  1  6  0  0  0
 29 89  1  0  0  0  0
 29 90  1  0  0  0  0
 29 91  1  0  0  0  0
 31 92  1  0  0  0  0
 31 93  1  0  0  0  0
 31 94  1  0  0  0  0
 32 95  1  0  0  0  0
 32 96  1  0  0  0  0
 32 97  1  0  0  0  0
 33 98  1  0  0  0  0
 34 35  1  0  0  0  0
 34 39  1  0  0  0  0
 34 40  1  1  0  0  0
 34 30  1  0  0  0  0
 35 36  1  0  0  0  0
 35 99  1  0  0  0  0
 35100  1  0  0  0  0
 36 37  1  0  0  0  0
 36 41  1  0  0  0  0
 36 44  1  1  0  0  0
 37 38  1  0  0  0  0
 37101  1  6  0  0  0
 37 43  1  0  0  0  0
 38 39  1  0  0  0  0
 38 42  1  0  0  0  0
 38102  1  6  0  0  0
 41103  1  0  0  0  0
 41104  1  0  0  0  0
 41105  1  0  0  0  0
 42106  1  0  0  0  0
 42107  1  0  0  0  0
 42108  1  0  0  0  0
 43109  1  0  0  0  0
 44 46  1  0  0  0  0
 45110  1  0  0  0  0
 45111  1  0  0  0  0
 45112  1  0  0  0  0
 46113  1  0  0  0  0
 46114  1  0  0  0  0
 46115  1  0  0  0  0
 48 49  1  0  0  0  0
 48 53  1  0  0  0  0
 48 52  1  1  0  0  0
 49 50  1  0  0  0  0
 49 56  1  0  0  0  0
 49116  1  6  0  0  0
 50117  1  6  0  0  0
 50 54  1  0  0  0  0
 51 55  1  0  0  0  0
 51118  1  0  0  0  0
 51119  1  0  0  0  0
 52120  1  0  0  0  0
 53121  1  0  0  0  0
 53122  1  0  0  0  0
 53123  1  0  0  0  0
 54124  1  0  0  0  0
 54125  1  0  0  0  0
 54126  1  0  0  0  0
 55127  1  0  0  0  0
 55128  1  0  0  0  0
 55129  1  0  0  0  0
 56130  1  0  0  0  0
M  END
>  <DRUGBANK_ID>
DB11416

>  <COMMON_NAME>
Gamithromycin

>  <CAS_NUMBER>
145435-72-9

>  <UNII>
ZE856183S0

>  <SYNONYMS>
Gamithromycin

$$$$
