
 OpenBabel10282417233D

 66 69  0  0  1  0  0  0  0  0999 V2000
    0.9535    0.0403   -0.0343 C   0  0  0  0  0  0  0  0  0  0  0  0
    0.4877    0.4712    1.2882 N   0  0  0  0  0  0  0  0  0  0  0  0
   -0.9702    0.5409    1.3422 C   0  0  0  0  0  0  0  0  0  0  0  0
    1.0496   -0.3794    2.3423 C   0  0  0  0  0  0  0  0  0  0  0  0
    0.6601   -1.7870    2.2310 C   0  0  0  0  0  0  0  0  0  0  0  0
    1.4171   -2.8204    1.8911 C   0  0  0  0  0  0  0  0  0  0  0  0
    0.8841   -4.1935    1.8481 C   0  0  0  0  0  0  0  0  0  0  0  0
    1.7414   -5.0196    1.5237 O   0  0  0  0  0  0  0  0  0  0  0  0
   -0.5162   -4.4495    2.2151 N   0  0  0  0  0  0  0  0  0  0  0  0
   -0.8498   -6.1310    2.8247 C   0  0  0  0  0  0  0  0  0  0  0  0
   -1.5464   -7.6647    1.7073 C   0  0  0  0  0  0  0  0  0  0  0  0
   -2.8700   -7.3519    0.2665 C   0  0  0  0  0  0  0  0  0  0  0  0
   -3.2073   -5.7254   -0.5227 C   0  0  0  0  0  0  0  0  0  0  0  0
   -3.1175   -4.1089    0.3303 C   0  0  2  0  0  0  0  0  0  0  0  0
   -1.7987   -3.3865    1.5739 C   0  0  0  0  0  0  0  0  0  0  0  0
   -4.0866   -4.3406    1.2614 N   0  0  0  0  0  0  0  0  0  0  0  0
   -3.7328   -5.2719    2.0228 C   0  0  0  0  0  0  0  0  0  0  0  0
   -2.4661   -5.8640    1.6948 N   0  0  0  0  0  0  0  0  0  0  0  0
   -1.0394   -5.9505    0.5893 C   0  0  0  0  0  0  0  0  0  0  0  0
    0.0667   -6.5764    0.8232 O   0  0  0  0  0  0  0  0  0  0  0  0
   -0.5493   -5.2538   -0.7026 C   0  0  0  0  0  0  0  0  0  0  0  0
   -0.4182   -5.7420   -1.9268 C   0  0  0  0  0  0  0  0  0  0  0  0
   -1.0991   -4.9009   -2.8441 C   0  0  0  0  0  0  0  0  0  0  0  0
   -1.6009   -3.5781   -2.6828 N   0  0  0  0  0  0  0  0  0  0  0  0
   -1.4169   -3.0266   -1.5148 C   0  0  0  0  0  0  0  0  0  0  0  0
   -2.0238   -1.7042   -0.9869 C   0  0  0  0  0  0  0  0  0  0  0  0
   -0.8452   -3.9406   -0.6745 C   0  0  0  0  0  0  0  0  0  0  0  0
   -4.6300   -5.4642    2.9622 N   0  0  0  0  0  0  0  0  0  0  0  0
   -5.6050   -4.4955    2.6161 C   0  0  0  0  0  0  0  0  0  0  0  0
   -5.2664   -3.8020    1.4653 C   0  0  0  0  0  0  0  0  0  0  0  0
   -5.9219   -2.8456    0.7524 C   0  0  0  0  0  0  0  0  0  0  0  0
   -5.4523   -2.1176   -0.7278 Cl  0  0  0  0  0  0  0  0  0  0  0  0
   -7.1004   -2.4842    1.3076 C   0  0  0  0  0  0  0  0  0  0  0  0
   -7.5348   -3.0979    2.4859 C   0  0  0  0  0  0  0  0  0  0  0  0
   -6.8168   -4.1093    3.1717 C   0  0  0  0  0  0  0  0  0  0  0  0
    0.5870    0.7162   -0.8137 H   0  0  0  0  0  0  0  0  0  0  0  0
    0.6329   -0.9740   -0.2960 H   0  0  0  0  0  0  0  0  0  0  0  0
    2.0460    0.0432   -0.0778 H   0  0  0  0  0  0  0  0  0  0  0  0
   -1.3988   -0.4421    1.2098 H   0  0  0  0  0  0  0  0  0  0  0  0
   -1.3492    0.8861    2.3092 H   0  0  0  0  0  0  0  0  0  0  0  0
   -1.3839    1.1854    0.5581 H   0  0  0  0  0  0  0  0  0  0  0  0
    2.1385   -0.3228    2.3654 H   0  0  0  0  0  0  0  0  0  0  0  0
    0.6667   -0.0756    3.3227 H   0  0  0  0  0  0  0  0  0  0  0  0
   -0.3619   -1.9166    2.5007 H   0  0  0  0  0  0  0  0  0  0  0  0
    2.4866   -2.7238    1.6952 H   0  0  0  0  0  0  0  0  0  0  0  0
   -1.6206   -5.6365    3.4917 H   0  0  0  0  0  0  0  0  0  0  0  0
   -0.0594   -6.3677    3.5510 H   0  0  0  0  0  0  0  0  0  0  0  0
   -1.9100   -8.5089    2.3119 H   0  0  0  0  0  0  0  0  0  0  0  0
   -0.8307   -8.1878    1.0054 H   0  0  0  0  0  0  0  0  0  0  0  0
   -2.6335   -7.9864   -0.6002 H   0  0  0  0  0  0  0  0  0  0  0  0
   -3.8678   -7.5794    0.6564 H   0  0  0  0  0  0  0  0  0  0  0  0
   -2.5513   -5.7566   -1.3559 H   0  0  0  0  0  0  0  0  0  0  0  0
   -4.1035   -5.7352   -1.1743 H   0  0  0  0  0  0  0  0  0  0  0  0
   -3.5025   -3.4233   -0.4052 H   0  0  0  0  0  0  0  0  0  0  0  0
   -1.1074   -2.7188    0.9677 H   0  0  0  0  0  0  0  0  0  0  0  0
   -2.1966   -2.5791    2.2016 H   0  0  0  0  0  0  0  0  0  0  0  0
   -2.6554   -6.5611    2.4585 H   0  0  0  0  0  0  0  0  0  0  0  0
   -0.2551   -6.8080   -1.9993 H   0  0  0  0  0  0  0  0  0  0  0  0
   -1.6836   -5.4120   -3.5938 H   0  0  0  0  0  0  0  0  0  0  0  0
   -1.2548   -0.9570   -1.0958 H   0  0  0  0  0  0  0  0  0  0  0  0
   -2.9486   -1.3311   -1.4255 H   0  0  0  0  0  0  0  0  0  0  0  0
   -2.3278   -1.6497    0.0776 H   0  0  0  0  0  0  0  0  0  0  0  0
   -1.3303   -4.1788    0.1740 H   0  0  0  0  0  0  0  0  0  0  0  0
   -7.6545   -1.7259    0.7765 H   0  0  0  0  0  0  0  0  0  0  0  0
   -8.4912   -2.7736    2.8612 H   0  0  0  0  0  0  0  0  0  0  0  0
   -7.1850   -4.5737    4.0735 H   0  0  0  0  0  0  0  0  0  0  0  0
  1  2  1  0  0  0  0
  1 36  1  0  0  0  0
  1 37  1  0  0  0  0
  1 38  1  0  0  0  0
  2  3  1  0  0  0  0
  2  4  1  0  0  0  0
  3 39  1  0  0  0  0
  3 40  1  0  0  0  0
  3 41  1  0  0  0  0
  4  5  1  0  0  0  0
  4 42  1  0  0  0  0
  4 43  1  0  0  0  0
  5  6  2  0  0  0  0
  5 44  1  0  0  0  0
  6  7  1  0  0  0  0
  6 45  1  0  0  0  0
  7  8  2  0  0  0  0
  7  9  1  0  0  0  0
  9 10  1  0  0  0  0
  9 15  1  0  0  0  0
 10 11  1  0  0  0  0
 10 46  1  0  0  0  0
 10 47  1  0  0  0  0
 11 12  1  0  0  0  0
 11 48  1  0  0  0  0
 11 49  1  0  0  0  0
 12 13  1  0  0  0  0
 12 50  1  0  0  0  0
 12 51  1  0  0  0  0
 13 52  1  0  0  0  0
 13 53  1  0  0  0  0
 14 13  1  0  0  0  0
 14 15  1  0  0  0  0
 14 54  1  6  0  0  0
 14 16  1  0  0  0  0
 15 55  1  0  0  0  0
 15 56  1  0  0  0  0
 16 17  1  0  0  0  0
 16 30  1  0  0  0  0
 17 18  1  0  0  0  0
 17 28  2  0  0  0  0
 18 19  1  0  0  0  0
 18 57  1  0  0  0  0
 19 20  2  0  0  0  0
 19 21  1  0  0  0  0
 21 22  2  0  0  0  0
 21 27  1  0  0  0  0
 22 23  1  0  0  0  0
 22 58  1  0  0  0  0
 23 24  2  0  0  0  0
 23 59  1  0  0  0  0
 24 25  1  0  0  0  0
 25 26  1  0  0  0  0
 25 27  2  0  0  0  0
 26 60  1  0  0  0  0
 26 61  1  0  0  0  0
 26 62  1  0  0  0  0
 27 63  1  0  0  0  0
 28 29  1  0  0  0  0
 29 30  2  0  0  0  0
 29 35  1  0  0  0  0
 30 31  1  0  0  0  0
 31 32  1  0  0  0  0
 31 33  2  0  0  0  0
 33 34  1  0  0  0  0
 33 64  1  0  0  0  0
 34 35  2  0  0  0  0
 34 65  1  0  0  0  0
 35 66  1  0  0  0  0
M  END
>  <DRUGBANK_ID>
DB16250

>  <COMMON_NAME>
Nazartinib

>  <CAS_NUMBER>
1508250-71-2

>  <UNII>
KE7K32EME8

>  <SYNONYMS>
Nazartinib

$$$$
