BTP
 OpenBabel10282417133D

 25 25  0  0  0  0  0  0  0  0999 V2000
    3.2037   -0.3289   -1.3370 C   0  0  0  0  0  0  0  0  0  0  0  0
    2.9057    0.1374   -2.4278 O   0  0  0  0  0  0  0  0  0  0  0  0
    4.2188   -1.2111   -1.2667 O   0  0  0  0  0  0  0  0  0  0  0  0
    2.5791   -0.0069    0.0172 C   0  0  2  0  0  0  0  0  0  0  0  0
    1.0297   -0.0746    0.0541 C   0  0  0  0  0  0  0  0  0  0  0  0
    0.3892   -0.5619   -1.2120 C   0  0  0  0  0  0  0  0  0  0  0  0
   -0.2940    0.3310   -2.0500 C   0  0  0  0  0  0  0  0  0  0  0  0
   -0.7008   -0.0820   -3.3153 C   0  0  0  0  0  0  0  0  0  0  0  0
   -0.3916   -1.3677   -3.7581 C   0  0  0  0  0  0  0  0  0  0  0  0
    0.3154   -2.2448   -2.9372 C   0  0  0  0  0  0  0  0  0  0  0  0
    0.6484   -1.8678   -1.6430 C   0  0  0  0  0  0  0  0  0  0  0  0
    3.0912    1.3808    0.4117 C   0  0  0  0  0  0  0  0  0  0  0  0
    2.6100    1.9086    2.0974 S   0  0  0  0  0  0  0  0  0  0  0  0
    2.9599   -0.7490    0.7350 H   0  0  0  0  0  0  0  0  0  0  0  0
    4.4560   -1.3407   -2.2126 H   0  0  0  0  0  0  0  0  0  0  0  0
    0.7114   -0.7215    0.8833 H   0  0  0  0  0  0  0  0  0  0  0  0
    0.6008    0.9069    0.2850 H   0  0  0  0  0  0  0  0  0  0  0  0
   -0.4572    1.3649   -1.7512 H   0  0  0  0  0  0  0  0  0  0  0  0
   -1.2100    0.6143   -3.9758 H   0  0  0  0  0  0  0  0  0  0  0  0
   -0.6807   -1.6807   -4.7562 H   0  0  0  0  0  0  0  0  0  0  0  0
    0.6499   -3.2043   -3.3190 H   0  0  0  0  0  0  0  0  0  0  0  0
    1.2108   -2.5495   -1.0090 H   0  0  0  0  0  0  0  0  0  0  0  0
    4.1855    1.3996    0.3765 H   0  0  0  0  0  0  0  0  0  0  0  0
    2.7336    2.1281   -0.3061 H   0  0  0  0  0  0  0  0  0  0  0  0
    1.2762    1.9016    1.9354 H   0  0  0  0  0  0  0  0  0  0  0  0
  1  2  2  0  0  0  0
  1  3  1  0  0  0  0
  3 15  1  0  0  0  0
  4 12  1  0  0  0  0
  4 14  1  1  0  0  0
  4  5  1  0  0  0  0
  4  1  1  0  0  0  0
  5  6  1  0  0  0  0
  5 16  1  0  0  0  0
  5 17  1  0  0  0  0
  6  7  2  0  0  0  0
  6 11  1  0  0  0  0
  7  8  1  0  0  0  0
  7 18  1  0  0  0  0
  8  9  2  0  0  0  0
  8 19  1  0  0  0  0
  9 10  1  0  0  0  0
  9 20  1  0  0  0  0
 10 11  2  0  0  0  0
 10 21  1  0  0  0  0
 11 22  1  0  0  0  0
 12 13  1  0  0  0  0
 12 23  1  0  0  0  0
 12 24  1  0  0  0  0
 13 25  1  0  0  0  0
M  END
>  <DRUGBANK_ID>
DB02953

>  <SECONDARY_ACCESSION_NUMBERS>
EXPT00769

>  <COMMON_NAME>
2-Thiomethyl-3-Phenylpropanoic Acid

$$$$
