
 OpenBabel10282417123D

 27 27  0  0  1  0  0  0  0  0999 V2000
   -0.2411   -1.6510    3.5676 C   0  0  0  0  0  0  0  0  0  0  0  0
    0.9147   -1.2901    2.7478 O   0  0  0  0  0  0  0  0  0  0  0  0
    0.8140   -2.0986    1.5911 C   0  0  2  0  0  0  0  0  0  0  0  0
    1.0810   -3.3988    2.0927 O   0  0  0  0  0  0  0  0  0  0  0  0
    0.1954   -4.3262    1.5030 C   0  0  2  0  0  0  0  0  0  0  0  0
    0.2302   -5.5515    2.4028 C   0  0  0  0  0  0  0  0  0  0  0  0
   -0.2006   -5.1927    3.7242 O   0  0  0  0  0  0  0  0  0  0  0  0
    0.6933   -4.5265    0.0797 C   0  0  1  0  0  0  0  0  0  0  0  0
   -0.1670   -5.4190   -0.6148 O   0  0  0  0  0  0  0  0  0  0  0  0
    0.8274   -3.1376   -0.6331 C   0  0  2  0  0  0  0  0  0  0  0  0
    1.4173   -3.2885   -1.9246 O   0  0  0  0  0  0  0  0  0  0  0  0
    1.5747   -2.0387    0.2433 C   0  0  1  0  0  0  0  0  0  0  0  0
    1.5078   -0.7610   -0.3962 O   0  0  0  0  0  0  0  0  0  0  0  0
   -0.5108   -2.7132    3.4923 H   0  0  0  0  0  0  0  0  0  0  0  0
   -1.1128   -1.1049    3.1986 H   0  0  0  0  0  0  0  0  0  0  0  0
   -0.0740   -1.4691    4.6290 H   0  0  0  0  0  0  0  0  0  0  0  0
   -0.2212   -1.9192    1.2719 H   0  0  0  0  0  0  0  0  0  0  0  0
   -0.8294   -3.9232    1.5117 H   0  0  0  0  0  0  0  0  0  0  0  0
   -0.4377   -6.3293    2.0354 H   0  0  0  0  0  0  0  0  0  0  0  0
    1.2493   -5.9349    2.4969 H   0  0  0  0  0  0  0  0  0  0  0  0
    0.4713   -4.5698    4.0669 H   0  0  0  0  0  0  0  0  0  0  0  0
    1.6880   -4.9905    0.1001 H   0  0  0  0  0  0  0  0  0  0  0  0
   -1.0789   -5.0459   -0.6207 H   0  0  0  0  0  0  0  0  0  0  0  0
   -0.1870   -2.7688   -0.8436 H   0  0  0  0  0  0  0  0  0  0  0  0
    2.2836   -3.7185   -1.8158 H   0  0  0  0  0  0  0  0  0  0  0  0
    2.6375   -2.3005    0.3256 H   0  0  0  0  0  0  0  0  0  0  0  0
    0.6087   -0.6244   -0.7435 H   0  0  0  0  0  0  0  0  0  0  0  0
  1  2  1  0  0  0  0
  1 14  1  0  0  0  0
  1 15  1  0  0  0  0
  1 16  1  0  0  0  0
  3  4  1  0  0  0  0
  3 12  1  0  0  0  0
  3 17  1  6  0  0  0
  3  2  1  0  0  0  0
  4  5  1  0  0  0  0
  5  6  1  0  0  0  0
  5  8  1  0  0  0  0
  5 18  1  6  0  0  0
  6  7  1  0  0  0  0
  6 19  1  0  0  0  0
  6 20  1  0  0  0  0
  7 21  1  0  0  0  0
  8  9  1  0  0  0  0
  8 10  1  0  0  0  0
  8 22  1  1  0  0  0
  9 23  1  0  0  0  0
 10 11  1  0  0  0  0
 10 12  1  0  0  0  0
 10 24  1  6  0  0  0
 11 25  1  0  0  0  0
 12 13  1  0  0  0  0
 12 26  1  1  0  0  0
 13 27  1  0  0  0  0
M  END
>  <DRUGBANK_ID>
DB01642

>  <SECONDARY_ACCESSION_NUMBERS>
EXPT02166

>  <COMMON_NAME>
methyl beta-D-glucopyranoside

>  <CAS_NUMBER>
709-50-2

>  <SYNONYMS>
1-O-Methyl-beta-D-glucopyranoside; beta-methyl-D-glucoside; beta-Methylglucoside; methyl beta-D-glucoside; Methyl hexopyranoside; O1-methyl-glucose; Î²-d-Methylglucopyranoside

$$$$
