1146
 OpenBabel10282417113D

 44 46  0  0  0  0  0  0  0  0999 V2000
    1.0899   -0.1470   -0.1047 O   0  0  0  0  0  0  0  0  0  0  0  0
   -1.4755   -1.5265   -2.1207 N   0  0  0  0  0  0  0  0  0  0  0  0
    0.5040    0.5212   -1.2451 C   0  0  0  0  0  0  0  0  0  0  0  0
   -1.0094    0.6734   -1.0057 C   0  0  0  0  0  0  0  0  0  0  0  0
    0.5969   -0.2773   -2.5477 C   0  0  0  0  0  0  0  0  0  0  0  0
   -1.7017   -0.6995   -0.9146 C   0  0  0  0  0  0  0  0  0  0  0  0
   -0.0373   -1.6481   -2.3540 C   0  0  0  0  0  0  0  0  0  0  0  0
    2.5367   -0.1820   -0.0139 C   0  0  0  0  0  0  0  0  0  0  0  0
   -2.0095   -2.8779   -1.9161 C   0  0  0  0  0  0  0  0  0  0  0  0
    2.8990   -0.7682    1.3645 C   0  0  0  0  0  0  0  0  0  0  0  0
    3.1560   -0.9687   -1.1645 C   0  0  0  0  0  0  0  0  0  0  0  0
    3.1954    0.0631    2.4437 C   0  0  0  0  0  0  0  0  0  0  0  0
    3.9347   -0.3474   -2.1436 C   0  0  0  0  0  0  0  0  0  0  0  0
    2.8966   -2.1568    1.6243 C   0  0  0  0  0  0  0  0  0  0  0  0
    2.7925   -2.3137   -1.3789 C   0  0  0  0  0  0  0  0  0  0  0  0
    3.4368   -0.4823    3.7176 C   0  0  0  0  0  0  0  0  0  0  0  0
    4.2909   -1.0624   -3.2958 C   0  0  0  0  0  0  0  0  0  0  0  0
    3.0655   -2.6988    2.8905 C   0  0  0  0  0  0  0  0  0  0  0  0
    3.2094   -3.0512   -2.4703 C   0  0  0  0  0  0  0  0  0  0  0  0
    3.3469   -1.8608    3.9364 C   0  0  0  0  0  0  0  0  0  0  0  0
    3.9366   -2.4090   -3.4493 C   0  0  0  0  0  0  0  0  0  0  0  0
    0.9583    1.5134   -1.3540 H   0  0  0  0  0  0  0  0  0  0  0  0
   -1.4497    1.2402   -1.8385 H   0  0  0  0  0  0  0  0  0  0  0  0
   -1.2012    1.2383   -0.0883 H   0  0  0  0  0  0  0  0  0  0  0  0
    0.1112    0.2578   -3.3709 H   0  0  0  0  0  0  0  0  0  0  0  0
    1.6138   -0.3865   -2.8941 H   0  0  0  0  0  0  0  0  0  0  0  0
   -2.7786   -0.5441   -0.7940 H   0  0  0  0  0  0  0  0  0  0  0  0
   -1.3415   -1.2150   -0.0139 H   0  0  0  0  0  0  0  0  0  0  0  0
    0.3641   -2.1516   -1.4757 H   0  0  0  0  0  0  0  0  0  0  0  0
    0.1924   -2.2804   -3.2188 H   0  0  0  0  0  0  0  0  0  0  0  0
    2.8913    0.8596   -0.0461 H   0  0  0  0  0  0  0  0  0  0  0  0
   -1.7879   -3.5125   -2.7832 H   0  0  0  0  0  0  0  0  0  0  0  0
   -1.5786   -3.3661   -1.0318 H   0  0  0  0  0  0  0  0  0  0  0  0
   -3.0953   -2.8457   -1.8051 H   0  0  0  0  0  0  0  0  0  0  0  0
    3.2457    1.1429    2.3159 H   0  0  0  0  0  0  0  0  0  0  0  0
    4.1543    0.7167   -2.0843 H   0  0  0  0  0  0  0  0  0  0  0  0
    2.7886   -2.9092    0.8725 H   0  0  0  0  0  0  0  0  0  0  0  0
    2.0464   -2.7845   -0.7481 H   0  0  0  0  0  0  0  0  0  0  0  0
    3.6793    0.1685    4.5474 H   0  0  0  0  0  0  0  0  0  0  0  0
    4.8016   -0.5542   -4.1068 H   0  0  0  0  0  0  0  0  0  0  0  0
    2.9748   -3.7770    3.0074 H   0  0  0  0  0  0  0  0  0  0  0  0
    2.8852   -4.0835   -2.5628 H   0  0  0  0  0  0  0  0  0  0  0  0
    3.5092   -2.2860    4.9224 H   0  0  0  0  0  0  0  0  0  0  0  0
    4.1824   -2.9491   -4.3571 H   0  0  0  0  0  0  0  0  0  0  0  0
  1  3  1  0  0  0  0
  1  8  1  0  0  0  0
  2  6  1  0  0  0  0
  2  7  1  0  0  0  0
  2  9  1  0  0  0  0
  3  4  1  0  0  0  0
  3  5  1  0  0  0  0
  3 22  1  0  0  0  0
  4  6  1  0  0  0  0
  4 23  1  0  0  0  0
  4 24  1  0  0  0  0
  5  7  1  0  0  0  0
  5 25  1  0  0  0  0
  5 26  1  0  0  0  0
  6 27  1  0  0  0  0
  6 28  1  0  0  0  0
  7 29  1  0  0  0  0
  7 30  1  0  0  0  0
  8 10  1  0  0  0  0
  8 11  1  0  0  0  0
  8 31  1  0  0  0  0
  9 32  1  0  0  0  0
  9 33  1  0  0  0  0
  9 34  1  0  0  0  0
 10 12  2  0  0  0  0
 10 14  1  0  0  0  0
 11 13  2  0  0  0  0
 11 15  1  0  0  0  0
 12 16  1  0  0  0  0
 12 35  1  0  0  0  0
 13 17  1  0  0  0  0
 13 36  1  0  0  0  0
 14 18  2  0  0  0  0
 14 37  1  0  0  0  0
 15 19  2  0  0  0  0
 15 38  1  0  0  0  0
 16 20  2  0  0  0  0
 16 39  1  0  0  0  0
 17 21  2  0  0  0  0
 17 40  1  0  0  0  0
 18 20  1  0  0  0  0
 18 41  1  0  0  0  0
 19 21  1  0  0  0  0
 19 42  1  0  0  0  0
 20 43  1  0  0  0  0
 21 44  1  0  0  0  0
M  END
>  <DRUGBANK_ID>
DB01146

>  <SECONDARY_ACCESSION_NUMBERS>
APRD00719

>  <COMMON_NAME>
Diphenylpyraline

>  <CAS_NUMBER>
147-20-6

>  <UNII>
33361OE3AV

>  <SYNONYMS>
1-methyl-4-hydroxypiperidine benzhydryl ether; 1-methyl-4-piperidyl benzhydryl ether; 4-(benzhydryloxy)-1-methylpiperidine; 4-(benzhydryloxy)-N-methylpiperidine; Difenilpiralina; Diphenylpyralamine; Diphenylpyraline; Diphenylpyralinum

$$$$
