3781
 OpenBabel10282417173D

 39 41  0  0  1  0  0  0  0  0999 V2000
   -0.0106   -1.8967   -0.1119 S   0  0  0  0  0  0  0  0  0  0  0  0
    0.0144    1.2639   -0.3596 N   0  0  0  0  0  0  0  0  0  0  0  0
    2.0665    2.7357    1.6559 N   0  0  0  0  0  0  0  0  0  0  0  0
   -2.3804    1.3938   -0.0501 N   0  0  0  0  0  0  0  0  0  0  0  0
    0.6983    3.2303    1.3242 C   0  0  3  0  0  0  0  0  0  0  0  0
    0.0566    2.7357   -0.0681 C   0  0  0  0  0  0  0  0  0  0  0  0
    1.2407    0.5784   -0.6487 C   0  0  0  0  0  0  0  0  0  0  0  0
    0.6624    4.7825    1.2547 C   0  0  0  0  0  0  0  0  0  0  0  0
   -1.2540    0.6367   -0.1375 C   0  0  0  0  0  0  0  0  0  0  0  0
    1.3542   -0.8196   -0.4493 C   0  0  0  0  0  0  0  0  0  0  0  0
   -1.3609   -0.7638   -0.0812 C   0  0  0  0  0  0  0  0  0  0  0  0
    2.8437    3.4597    2.6613 C   0  0  0  0  0  0  0  0  0  0  0  0
    2.0375    1.3504    2.1471 C   0  0  0  0  0  0  0  0  0  0  0  0
    2.4529    1.2764   -0.8509 C   0  0  0  0  0  0  0  0  0  0  0  0
    2.6100   -1.4308   -0.2703 C   0  0  0  0  0  0  0  0  0  0  0  0
   -2.6282   -1.3693    0.0039 C   0  0  0  0  0  0  0  0  0  0  0  0
    3.6954    0.6707   -0.5942 C   0  0  0  0  0  0  0  0  0  0  0  0
    3.7740   -0.6787   -0.2887 C   0  0  0  0  0  0  0  0  0  0  0  0
   -3.5947    0.7742    0.0100 C   0  0  0  0  0  0  0  0  0  0  0  0
   -3.7616   -0.5922    0.0220 C   0  0  0  0  0  0  0  0  0  0  0  0
    0.0232    2.9348    2.1369 H   0  0  0  0  0  0  0  0  0  0  0  0
    0.5496    3.2459   -0.9063 H   0  0  0  0  0  0  0  0  0  0  0  0
   -0.9542    3.1680   -0.0928 H   0  0  0  0  0  0  0  0  0  0  0  0
   -0.3678    5.1436    1.1593 H   0  0  0  0  0  0  0  0  0  0  0  0
    1.0565    5.2627    2.1551 H   0  0  0  0  0  0  0  0  0  0  0  0
    1.2302    5.1593    0.3946 H   0  0  0  0  0  0  0  0  0  0  0  0
    2.4409    3.2967    3.6674 H   0  0  0  0  0  0  0  0  0  0  0  0
    3.8733    3.0757    2.6475 H   0  0  0  0  0  0  0  0  0  0  0  0
    2.9419    4.5311    2.4846 H   0  0  0  0  0  0  0  0  0  0  0  0
    1.6690    1.2549    3.1675 H   0  0  0  0  0  0  0  0  0  0  0  0
    1.3762    0.7081    1.5935 H   0  0  0  0  0  0  0  0  0  0  0  0
    3.0451    0.9236    2.0832 H   0  0  0  0  0  0  0  0  0  0  0  0
    2.4677    2.3569   -0.9635 H   0  0  0  0  0  0  0  0  0  0  0  0
    2.6705   -2.4808    0.0100 H   0  0  0  0  0  0  0  0  0  0  0  0
   -2.7136   -2.4540    0.0287 H   0  0  0  0  0  0  0  0  0  0  0  0
    4.5781    1.2977   -0.4830 H   0  0  0  0  0  0  0  0  0  0  0  0
    4.7171   -1.1313    0.0040 H   0  0  0  0  0  0  0  0  0  0  0  0
   -4.4543    1.4346    0.0296 H   0  0  0  0  0  0  0  0  0  0  0  0
   -4.7493   -1.0493    0.0382 H   0  0  0  0  0  0  0  0  0  0  0  0
  1 10  1  0  0  0  0
  1 11  1  0  0  0  0
  2  6  1  0  0  0  0
  2  7  1  0  0  0  0
  2  9  1  0  0  0  0
  3  5  1  0  0  0  0
  3 12  1  0  0  0  0
  3 13  1  0  0  0  0
  4  9  1  0  0  0  0
  4 19  2  0  0  0  0
  5  6  1  0  0  0  0
  5  8  1  0  0  0  0
  5 21  1  0  0  0  0
  6 22  1  0  0  0  0
  6 23  1  0  0  0  0
  7 10  1  0  0  0  0
  7 14  2  0  0  0  0
  8 24  1  0  0  0  0
  8 25  1  0  0  0  0
  8 26  1  0  0  0  0
  9 11  2  0  0  0  0
 10 15  2  0  0  0  0
 11 16  1  0  0  0  0
 12 27  1  0  0  0  0
 12 28  1  0  0  0  0
 12 29  1  0  0  0  0
 13 30  1  0  0  0  0
 13 31  1  0  0  0  0
 13 32  1  0  0  0  0
 14 17  1  0  0  0  0
 14 33  1  0  0  0  0
 15 18  1  0  0  0  0
 15 34  1  0  0  0  0
 16 20  2  0  0  0  0
 16 35  1  0  0  0  0
 17 18  2  0  0  0  0
 17 36  1  0  0  0  0
 18 37  1  0  0  0  0
 19 20  1  0  0  0  0
 19 38  1  0  0  0  0
 20 39  1  0  0  0  0
M  END
>  <DRUGBANK_ID>
DB08802

>  <COMMON_NAME>
Isothipendyl

>  <CAS_NUMBER>
482-15-5

>  <UNII>
WVZ7K9P0JY

>  <SYNONYMS>
Isothipendyl; Isothipendylum; Isotipendilo

$$$$
