
 OpenBabel10282417233D

104108  0  0  1  0  0  0  0  0999 V2000
    2.2897    0.7723    0.7610 H   0  0  0  0  0  0  0  0  0  0  0  0
    1.9795    0.3886   -0.2154 C   0  0  1  0  0  0  0  0  0  0  0  0
    2.6875   -0.8422   -0.5906 C   0  0  0  0  0  0  0  0  0  0  0  0
    3.8582   -0.6578   -1.5235 C   0  0  0  0  0  0  0  0  0  0  0  0
    4.0854    0.7592   -1.3543 C   0  0  1  0  0  0  0  0  0  0  0  0
    4.6084    0.9263   -0.3943 H   0  0  0  0  0  0  0  0  0  0  0  0
    4.9677    1.2503   -2.4612 C   0  0  2  0  0  0  0  0  0  0  0  0
    4.4985    0.9508   -3.4041 H   0  0  0  0  0  0  0  0  0  0  0  0
    6.4218    0.6737   -2.4797 C   0  0  1  0  0  0  0  0  0  0  0  0
    6.5204   -0.7305   -2.6827 O   0  0  0  0  0  0  0  0  0  0  0  0
    7.2196    1.3193   -3.6060 C   0  0  0  0  0  0  0  0  0  0  0  0
    7.1878    2.8489   -3.5353 C   0  0  2  0  0  0  0  0  0  0  0  0
    7.6232    3.2225   -4.4711 H   0  0  0  0  0  0  0  0  0  0  0  0
    8.1063    3.3187   -2.3927 C   0  0  0  0  0  0  0  0  0  0  0  0
    8.0917    4.8327   -2.2381 C   0  0  2  0  0  0  0  0  0  0  0  0
    8.9195    5.2088   -1.1457 O   0  0  0  0  0  0  0  0  0  0  0  0
    6.6742    5.3457   -2.0222 C   0  0  0  0  0  0  0  0  0  0  0  0
    5.7873    4.9449   -3.1973 C   0  0  0  0  0  0  0  0  0  0  0  0
    5.7341    3.4215   -3.4217 C   0  0  1  0  0  0  0  0  0  0  0  0
    4.9827    3.1580   -4.7538 C   0  0  0  0  0  0  0  0  0  0  0  0
    4.9903    2.7586   -2.2392 C   0  0  1  0  0  0  0  0  0  0  0  0
    5.5732    2.9006   -1.3175 H   0  0  0  0  0  0  0  0  0  0  0  0
    3.5923    3.3908   -1.9215 C   0  0  0  0  0  0  0  0  0  0  0  0
    2.7536    2.6719   -0.8749 C   0  0  0  0  0  0  0  0  0  0  0  0
    2.6156    1.2485   -1.3060 C   0  0  2  0  0  0  0  0  0  0  0  0
    1.8771    1.0069   -2.6391 C   0  0  0  0  0  0  0  0  0  0  0  0
    0.4497    0.0900   -0.1552 C   0  0  2  0  0  0  0  0  0  0  0  0
    0.0202    0.2837    1.3263 C   0  0  0  0  0  0  0  0  0  0  0  0
   -0.1185   -1.3422   -0.6544 C   0  0  0  0  0  0  0  0  0  0  0  0
    0.3986   -2.1238   -1.9618 C   0  0  0  0  0  0  0  0  0  0  0  0
    1.4951   -3.3433   -1.8800 C   0  0  0  0  0  0  0  0  0  0  0  0
    1.2458   -4.4904   -2.0709 O   0  0  0  0  0  0  0  0  0  0  0  0
    2.8028   -2.9691   -1.4312 O   0  0  0  0  0  0  0  0  0  0  0  0
    4.2106   -3.3073   -0.9931 C   0  0  0  0  0  0  0  0  0  0  0  0
    4.8309   -3.7952   -2.1542 C   0  0  0  0  0  0  0  0  0  0  0  0
    6.1865   -3.9576   -2.1519 C   0  0  0  0  0  0  0  0  0  0  0  0
    6.9215   -3.4856   -1.0699 C   0  0  0  0  0  0  0  0  0  0  0  0
    8.2790   -3.9746   -0.9829 C   0  0  0  0  0  0  0  0  0  0  0  0
    9.0336   -3.6867    0.0731 C   0  0  0  0  0  0  0  0  0  0  0  0
   10.2030   -4.4670    0.3819 C   0  0  0  0  0  0  0  0  0  0  0  0
   10.6375   -4.4120    1.5222 O   0  0  0  0  0  0  0  0  0  0  0  0
   10.6903   -5.1170   -0.6982 O   0  0  0  0  0  0  0  0  0  0  0  0
   11.9573   -5.7661   -0.5625 C   0  0  0  0  0  0  0  0  0  0  0  0
   13.0907   -4.7271   -0.6639 C   0  0  0  0  0  0  0  0  0  0  0  0
   13.1613   -3.8164    0.5629 C   0  0  0  0  0  0  0  0  0  0  0  0
   13.2513   -4.6190    1.8812 C   0  0  0  0  0  0  0  0  0  0  0  0
   14.5630   -5.1212    2.1068 O   0  0  0  0  0  0  0  0  0  0  0  0
   14.9194   -6.3130    1.4217 N   0  3  0  0  0  0  0  0  0  0  0  0
   14.0435   -6.9397    0.8188 O   0  5  0  0  0  0  0  0  0  0  0  0
   16.1106   -6.5683    1.5152 O   0  0  0  0  0  0  0  0  0  0  0  0
    6.3249   -2.7686   -0.0159 C   0  0  0  0  0  0  0  0  0  0  0  0
    4.9438   -2.7433    0.1575 C   0  0  0  0  0  0  0  0  0  0  0  0
    4.7275   -2.0937    1.3803 O   0  0  0  0  0  0  0  0  0  0  0  0
    3.7156   -1.1816    1.8346 C   0  0  0  0  0  0  0  0  0  0  0  0
    1.8999   -1.4816   -0.7916 H   0  0  0  0  0  0  0  0  0  0  0  0
    2.9649   -1.5567    0.1173 H   0  0  0  0  0  0  0  0  0  0  0  0
    3.7194   -0.9768   -2.5615 H   0  0  0  0  0  0  0  0  0  0  0  0
    4.8050   -1.0452   -1.1942 H   0  0  0  0  0  0  0  0  0  0  0  0
    6.9011    0.8590   -1.5121 H   0  0  0  0  0  0  0  0  0  0  0  0
    6.0595   -0.9846   -3.4972 H   0  0  0  0  0  0  0  0  0  0  0  0
    6.8180    0.9753   -4.5681 H   0  0  0  0  0  0  0  0  0  0  0  0
    8.2527    0.9465   -3.5918 H   0  0  0  0  0  0  0  0  0  0  0  0
    9.1337    2.9813   -2.5784 H   0  0  0  0  0  0  0  0  0  0  0  0
    7.8274    2.8585   -1.4367 H   0  0  0  0  0  0  0  0  0  0  0  0
    8.5085    5.2949   -3.1393 H   0  0  0  0  0  0  0  0  0  0  0  0
    8.6360    4.7101   -0.3607 H   0  0  0  0  0  0  0  0  0  0  0  0
    6.2766    4.9735   -1.0683 H   0  0  0  0  0  0  0  0  0  0  0  0
    6.6806    6.4357   -1.9248 H   0  0  0  0  0  0  0  0  0  0  0  0
    4.7816    5.3512   -3.0504 H   0  0  0  0  0  0  0  0  0  0  0  0
    6.1642    5.4225   -4.1064 H   0  0  0  0  0  0  0  0  0  0  0  0
    4.9238    2.0980   -5.0198 H   0  0  0  0  0  0  0  0  0  0  0  0
    3.9566    3.5344   -4.7233 H   0  0  0  0  0  0  0  0  0  0  0  0
    5.4914    3.6526   -5.5850 H   0  0  0  0  0  0  0  0  0  0  0  0
    3.7265    4.4010   -1.5412 H   0  0  0  0  0  0  0  0  0  0  0  0
    2.9977    3.4456   -2.8333 H   0  0  0  0  0  0  0  0  0  0  0  0
    3.2668    2.7176    0.1000 H   0  0  0  0  0  0  0  0  0  0  0  0
    1.7662    3.1145   -0.7367 H   0  0  0  0  0  0  0  0  0  0  0  0
    1.9618   -0.0326   -2.9669 H   0  0  0  0  0  0  0  0  0  0  0  0
    0.8120    1.2129   -2.5479 H   0  0  0  0  0  0  0  0  0  0  0  0
    2.2799    1.5823   -3.4658 H   0  0  0  0  0  0  0  0  0  0  0  0
   -0.0704    0.8784   -0.7041 H   0  0  0  0  0  0  0  0  0  0  0  0
    0.6750   -0.2572    2.0227 H   0  0  0  0  0  0  0  0  0  0  0  0
    0.0728    1.3457    1.5975 H   0  0  0  0  0  0  0  0  0  0  0  0
   -1.0034   -0.0572    1.5006 H   0  0  0  0  0  0  0  0  0  0  0  0
   -0.0486   -2.0465    0.1845 H   0  0  0  0  0  0  0  0  0  0  0  0
   -1.1881   -1.1488   -0.8091 H   0  0  0  0  0  0  0  0  0  0  0  0
   -0.4816   -2.6845   -2.2939 H   0  0  0  0  0  0  0  0  0  0  0  0
    0.5790   -1.4248   -2.7830 H   0  0  0  0  0  0  0  0  0  0  0  0
    4.2723   -3.9587   -3.0713 H   0  0  0  0  0  0  0  0  0  0  0  0
    6.6621   -4.4371   -3.0000 H   0  0  0  0  0  0  0  0  0  0  0  0
    8.5563   -4.7558   -1.6855 H   0  0  0  0  0  0  0  0  0  0  0  0
    8.7718   -2.9902    0.8561 H   0  0  0  0  0  0  0  0  0  0  0  0
   11.9282   -6.3643    0.3510 H   0  0  0  0  0  0  0  0  0  0  0  0
   12.0651   -6.4935   -1.3745 H   0  0  0  0  0  0  0  0  0  0  0  0
   14.0721   -5.1918   -0.7969 H   0  0  0  0  0  0  0  0  0  0  0  0
   12.9419   -4.1222   -1.5656 H   0  0  0  0  0  0  0  0  0  0  0  0
   14.0201   -3.1422    0.4886 H   0  0  0  0  0  0  0  0  0  0  0  0
   12.2974   -3.1397    0.5351 H   0  0  0  0  0  0  0  0  0  0  0  0
   13.0420   -3.9098    2.6935 H   0  0  0  0  0  0  0  0  0  0  0  0
   12.5076   -5.4090    2.0282 H   0  0  0  0  0  0  0  0  0  0  0  0
    6.9396   -2.1784    0.6675 H   0  0  0  0  0  0  0  0  0  0  0  0
    3.8252   -0.2736    1.2398 H   0  0  0  0  0  0  0  0  0  0  0  0
    2.7307   -1.6756    1.8317 H   0  0  0  0  0  0  0  0  0  0  0  0
    3.7774   -0.7175    2.8239 H   0  0  0  0  0  0  0  0  0  0  0  0
  2  3  1  0  0  0  0
  2 27  1  0  0  0  0
  2  1  1  1  0  0  0
  3  4  1  0  0  0  0
  3 55  1  0  0  0  0
  3 56  1  0  0  0  0
  4 57  1  0  0  0  0
  4 58  1  0  0  0  0
  5  4  1  0  0  0  0
  5  6  1  1  0  0  0
  5 25  1  0  0  0  0
  7  5  1  0  0  0  0
  7  8  1  6  0  0  0
  7  9  1  0  0  0  0
  7 21  1  0  0  0  0
  9 10  1  0  0  0  0
  9 11  1  0  0  0  0
  9 59  1  1  0  0  0
 10 60  1  0  0  0  0
 11 61  1  0  0  0  0
 11 62  1  0  0  0  0
 12 11  1  0  0  0  0
 12 13  1  6  0  0  0
 12 14  1  0  0  0  0
 14 63  1  0  0  0  0
 14 64  1  0  0  0  0
 15 14  1  0  0  0  0
 15 16  1  0  0  0  0
 15 17  1  0  0  0  0
 15 65  1  6  0  0  0
 16 66  1  0  0  0  0
 17 18  1  0  0  0  0
 17 67  1  0  0  0  0
 17 68  1  0  0  0  0
 18 69  1  0  0  0  0
 18 70  1  0  0  0  0
 19 18  1  0  0  0  0
 19 12  1  0  0  0  0
 19 20  1  6  0  0  0
 20 71  1  0  0  0  0
 20 72  1  0  0  0  0
 20 73  1  0  0  0  0
 21 19  1  0  0  0  0
 21 22  1  1  0  0  0
 21 23  1  0  0  0  0
 23 24  1  0  0  0  0
 23 74  1  0  0  0  0
 23 75  1  0  0  0  0
 24 76  1  0  0  0  0
 24 77  1  0  0  0  0
 25 24  1  0  0  0  0
 25  2  1  0  0  0  0
 25 26  1  6  0  0  0
 26 78  1  0  0  0  0
 26 79  1  0  0  0  0
 26 80  1  0  0  0  0
 27 81  1  6  0  0  0
 27 29  1  0  0  0  0
 27 28  1  0  0  0  0
 28 82  1  0  0  0  0
 28 83  1  0  0  0  0
 28 84  1  0  0  0  0
 29 30  1  0  0  0  0
 29 85  1  0  0  0  0
 29 86  1  0  0  0  0
 30 31  1  0  0  0  0
 30 87  1  0  0  0  0
 30 88  1  0  0  0  0
 31 32  2  0  0  0  0
 31 33  1  0  0  0  0
 33 34  1  0  0  0  0
 34 35  2  0  0  0  0
 34 52  1  0  0  0  0
 35 36  1  0  0  0  0
 35 89  1  0  0  0  0
 36 37  2  0  0  0  0
 36 90  1  0  0  0  0
 37 38  1  0  0  0  0
 37 51  1  0  0  0  0
 38 39  2  0  0  0  0
 38 91  1  0  0  0  0
 39 40  1  0  0  0  0
 39 92  1  0  0  0  0
 40 41  2  0  0  0  0
 40 42  1  0  0  0  0
 42 43  1  0  0  0  0
 43 44  1  0  0  0  0
 43 93  1  0  0  0  0
 43 94  1  0  0  0  0
 44 45  1  0  0  0  0
 44 95  1  0  0  0  0
 44 96  1  0  0  0  0
 45 46  1  0  0  0  0
 45 97  1  0  0  0  0
 45 98  1  0  0  0  0
 46 47  1  0  0  0  0
 46 99  1  0  0  0  0
 46100  1  0  0  0  0
 47 48  1  0  0  0  0
 48 49  1  0  0  0  0
 48 50  2  0  0  0  0
 51 52  2  0  0  0  0
 51101  1  0  0  0  0
 52 53  1  0  0  0  0
 53 54  1  0  0  0  0
 54102  1  0  0  0  0
 54103  1  0  0  0  0
 54104  1  0  0  0  0
M  CHG  2  48   1  49  -1
M  END
>  <DRUGBANK_ID>
DB16026

>  <COMMON_NAME>
NCX-1000

>  <CAS_NUMBER>
401519-96-8

>  <UNII>
V9G7HR5L1Q

>  <SYNONYMS>
,no-udca; no-UDCA; No-ursodeoxycholic acid

$$$$
