
 OpenBabel10282417223D

  2  1  0  0  0  0  0  0  0  0999 V2000
    0.9148   -0.0481    0.0204 O   0  0  0  0  0  0  0  0  0  0  0  0
    3.0807   -0.0481    0.0204 Ca  0  0  0  0  0  0  0  0  0  0  0  0
  1  2  2  0  0  0  0
M  END
>  <DRUGBANK_ID>
DB15648

>  <COMMON_NAME>
Calcium oxide

>  <CAS_NUMBER>
1305-78-8

>  <UNII>
C7X2M0VVNH

>  <SYNONYMS>
Burnt lime; Calcium monoxide; Calcium oxide; Calx; Lime; Lime (calcium oxide); Quick lime; Quicklime

$$$$
