1255
 OpenBabel10282417113D

 44 44  0  0  0  0  0  0  0  0999 V2000
   -1.9988   11.8837   -1.0886 C   0  0  0  0  0  0  0  0  0  0  0  0
   -2.5754   12.4734   -2.2166 C   0  0  0  0  0  0  0  0  0  0  0  0
   -2.7735   11.7260   -3.3775 C   0  0  0  0  0  0  0  0  0  0  0  0
   -2.3091   10.4190   -3.4452 C   0  0  0  0  0  0  0  0  0  0  0  0
   -1.6470    9.8719   -2.3524 C   0  0  0  0  0  0  0  0  0  0  0  0
   -1.6003   10.5436   -1.1256 C   0  0  0  0  0  0  0  0  0  0  0  0
   -1.2008    9.8041    0.1355 C   0  0  0  0  0  0  0  0  0  0  0  0
   -2.1695    8.6372    0.5040 C   0  0  1  0  0  0  0  0  0  0  0  0
   -2.1855    7.5704   -0.5137 N   0  0  0  0  0  0  0  0  0  0  0  0
   -1.8221    6.2592   -0.3254 C   0  0  0  0  0  0  0  0  0  0  0  0
   -1.7163    5.3788   -1.5661 C   0  0  2  0  0  0  0  0  0  0  0  0
   -0.2572    4.8785   -1.6253 C   0  0  0  0  0  0  0  0  0  0  0  0
   -0.1279    3.4607   -2.1801 C   0  0  0  0  0  0  0  0  0  0  0  0
   -0.6558    3.3283   -3.6081 C   0  0  0  0  0  0  0  0  0  0  0  0
    0.0380    4.2775   -4.5886 C   0  0  0  0  0  0  0  0  0  0  0  0
   -1.8102    8.1067    1.8892 C   0  0  0  0  0  0  0  0  0  0  0  0
   -1.5353    5.7620    0.7679 O   0  0  0  0  0  0  0  0  0  0  0  0
   -2.1295    6.0562   -2.8092 N   0  0  0  0  0  0  0  0  0  0  0  0
    1.4683    3.9958   -4.6703 N   0  0  0  0  0  0  0  0  0  0  0  0
   -1.8756   12.4772   -0.1851 H   0  0  0  0  0  0  0  0  0  0  0  0
   -2.8987   13.5103   -2.1814 H   0  0  0  0  0  0  0  0  0  0  0  0
   -3.2653   12.1693   -4.2385 H   0  0  0  0  0  0  0  0  0  0  0  0
   -2.4634    9.8227   -4.3403 H   0  0  0  0  0  0  0  0  0  0  0  0
   -1.1918    8.8938   -2.4516 H   0  0  0  0  0  0  0  0  0  0  0  0
   -0.1736    9.4362    0.0309 H   0  0  0  0  0  0  0  0  0  0  0  0
   -1.1956   10.5172    0.9723 H   0  0  0  0  0  0  0  0  0  0  0  0
   -3.1955    9.0282    0.5347 H   0  0  0  0  0  0  0  0  0  0  0  0
   -2.5824    7.8123   -1.4110 H   0  0  0  0  0  0  0  0  0  0  0  0
   -2.4024    4.5408   -1.3949 H   0  0  0  0  0  0  0  0  0  0  0  0
    0.3605    5.5818   -2.1977 H   0  0  0  0  0  0  0  0  0  0  0  0
    0.2071    4.8762   -0.6308 H   0  0  0  0  0  0  0  0  0  0  0  0
    0.9265    3.1618   -2.1377 H   0  0  0  0  0  0  0  0  0  0  0  0
   -0.6547    2.7578   -1.5228 H   0  0  0  0  0  0  0  0  0  0  0  0
   -0.5357    2.2915   -3.9425 H   0  0  0  0  0  0  0  0  0  0  0  0
   -1.7363    3.5166   -3.6160 H   0  0  0  0  0  0  0  0  0  0  0  0
   -0.4174    4.1807   -5.5776 H   0  0  0  0  0  0  0  0  0  0  0  0
   -0.0912    5.3225   -4.2937 H   0  0  0  0  0  0  0  0  0  0  0  0
   -1.8487    8.8759    2.6599 H   0  0  0  0  0  0  0  0  0  0  0  0
   -2.5088    7.3145    2.1831 H   0  0  0  0  0  0  0  0  0  0  0  0
   -0.7916    7.6984    1.8787 H   0  0  0  0  0  0  0  0  0  0  0  0
   -3.0903    6.3799   -2.7401 H   0  0  0  0  0  0  0  0  0  0  0  0
   -1.5103    6.8354   -3.0087 H   0  0  0  0  0  0  0  0  0  0  0  0
    1.9160    4.7000   -5.2524 H   0  0  0  0  0  0  0  0  0  0  0  0
    1.8892    4.0969   -3.7469 H   0  0  0  0  0  0  0  0  0  0  0  0
  1  2  1  0  0  0  0
  1  6  2  0  0  0  0
  1 20  1  0  0  0  0
  2  3  2  0  0  0  0
  2 21  1  0  0  0  0
  3  4  1  0  0  0  0
  3 22  1  0  0  0  0
  4  5  2  0  0  0  0
  4 23  1  0  0  0  0
  5  6  1  0  0  0  0
  5 24  1  0  0  0  0
  6  7  1  0  0  0  0
  7  8  1  0  0  0  0
  7 25  1  0  0  0  0
  7 26  1  0  0  0  0
  8  9  1  0  0  0  0
  8 16  1  0  0  0  0
  8 27  1  1  0  0  0
  9 10  1  0  0  0  0
  9 28  1  0  0  0  0
 10 17  2  0  0  0  0
 11 18  1  0  0  0  0
 11 29  1  1  0  0  0
 11 12  1  0  0  0  0
 11 10  1  0  0  0  0
 12 13  1  0  0  0  0
 12 30  1  0  0  0  0
 12 31  1  0  0  0  0
 13 14  1  0  0  0  0
 13 32  1  0  0  0  0
 13 33  1  0  0  0  0
 14 15  1  0  0  0  0
 14 34  1  0  0  0  0
 14 35  1  0  0  0  0
 15 19  1  0  0  0  0
 15 36  1  0  0  0  0
 15 37  1  0  0  0  0
 16 38  1  0  0  0  0
 16 39  1  0  0  0  0
 16 40  1  0  0  0  0
 18 41  1  0  0  0  0
 18 42  1  0  0  0  0
 19 43  1  0  0  0  0
 19 44  1  0  0  0  0
M  END
>  <DRUGBANK_ID>
DB01255

>  <COMMON_NAME>
Lisdexamfetamine

>  <CAS_NUMBER>
608137-32-2

>  <UNII>
H645GUL8KJ

>  <SYNONYMS>
Lisdexamfetamine

$$$$
