
 OpenBabel10282417133D

 43 47  0  0  0  0  0  0  0  0999 V2000
    1.0957   -0.0761    0.0002 C   0  0  0  0  0  0  0  0  0  0  0  0
    0.6537   -1.3965   -0.2990 O   0  0  0  0  0  0  0  0  0  0  0  0
    0.9811   -1.8864   -1.5326 C   0  0  0  0  0  0  0  0  0  0  0  0
    2.2971   -1.7936   -1.9894 C   0  0  0  0  0  0  0  0  0  0  0  0
    2.6874   -2.4308   -3.1617 C   0  0  0  0  0  0  0  0  0  0  0  0
    1.7664   -3.1580   -3.9151 C   0  0  0  0  0  0  0  0  0  0  0  0
    2.1725   -3.7931   -5.0849 C   0  0  0  0  0  0  0  0  0  0  0  0
    1.2625   -4.4977   -5.8822 C   0  0  0  0  0  0  0  0  0  0  0  0
    1.6362   -5.1788   -7.1411 C   0  0  0  0  0  0  0  0  0  0  0  0
    2.8922   -4.9767   -7.7564 C   0  0  0  0  0  0  0  0  0  0  0  0
    3.2126   -5.6851   -8.8969 C   0  0  0  0  0  0  0  0  0  0  0  0
    2.3351   -6.5613   -9.4743 C   0  0  0  0  0  0  0  0  0  0  0  0
    2.8518   -7.1581  -10.5790 O   0  0  0  0  0  0  0  0  0  0  0  0
    4.1986   -6.6341  -10.5690 C   0  0  0  0  0  0  0  0  0  0  0  0
    4.3987   -5.6221   -9.5571 O   0  0  0  0  0  0  0  0  0  0  0  0
    1.0904   -6.7861   -8.9337 C   0  0  0  0  0  0  0  0  0  0  0  0
    0.7443   -6.0978   -7.7543 C   0  0  0  0  0  0  0  0  0  0  0  0
   -0.5525   -6.4136   -7.0668 C   0  0  0  0  0  0  0  0  0  0  0  0
   -1.0810   -5.2019   -6.3258 C   0  0  0  0  0  0  0  0  0  0  0  0
   -0.0376   -4.5720   -5.4745 N   0  3  0  0  0  0  0  0  0  0  0  0
   -0.4416   -3.9819   -4.3172 C   0  0  0  0  0  0  0  0  0  0  0  0
    0.4289   -3.2527   -3.4937 C   0  0  0  0  0  0  0  0  0  0  0  0
    0.0341   -2.6195   -2.2771 C   0  0  0  0  0  0  0  0  0  0  0  0
   -1.2932   -2.8053   -1.9463 O   0  0  0  0  0  0  0  0  0  0  0  0
   -1.7831   -2.1850   -0.7567 C   0  0  0  0  0  0  0  0  0  0  0  0
    0.6854    0.1847    0.9809 H   0  0  0  0  0  0  0  0  0  0  0  0
    0.7097    0.6418   -0.7305 H   0  0  0  0  0  0  0  0  0  0  0  0
    2.1836   -0.0154    0.0781 H   0  0  0  0  0  0  0  0  0  0  0  0
    3.0547   -1.2672   -1.4171 H   0  0  0  0  0  0  0  0  0  0  0  0
    3.7324   -2.3600   -3.4641 H   0  0  0  0  0  0  0  0  0  0  0  0
    3.2211   -3.7311   -5.3700 H   0  0  0  0  0  0  0  0  0  0  0  0
    3.6441   -4.2977   -7.3678 H   0  0  0  0  0  0  0  0  0  0  0  0
    4.8929   -7.4613  -10.3766 H   0  0  0  0  0  0  0  0  0  0  0  0
    4.4246   -6.2033  -11.5505 H   0  0  0  0  0  0  0  0  0  0  0  0
    0.4183   -7.4979   -9.4045 H   0  0  0  0  0  0  0  0  0  0  0  0
   -0.3779   -7.2392   -6.3669 H   0  0  0  0  0  0  0  0  0  0  0  0
   -1.3048   -6.7415   -7.7935 H   0  0  0  0  0  0  0  0  0  0  0  0
   -1.9162   -5.5074   -5.6858 H   0  0  0  0  0  0  0  0  0  0  0  0
   -1.4262   -4.4179   -7.0101 H   0  0  0  0  0  0  0  0  0  0  0  0
   -1.4946   -4.0846   -4.0610 H   0  0  0  0  0  0  0  0  0  0  0  0
   -1.2912   -2.5948    0.1320 H   0  0  0  0  0  0  0  0  0  0  0  0
   -1.6947   -1.0945   -0.8169 H   0  0  0  0  0  0  0  0  0  0  0  0
   -2.8476   -2.4148   -0.6583 H   0  0  0  0  0  0  0  0  0  0  0  0
  1  2  1  0  0  0  0
  1 26  1  0  0  0  0
  1 27  1  0  0  0  0
  1 28  1  0  0  0  0
  2  3  1  0  0  0  0
  3  4  2  0  0  0  0
  3 23  1  0  0  0  0
  4  5  1  0  0  0  0
  4 29  1  0  0  0  0
  5  6  2  0  0  0  0
  5 30  1  0  0  0  0
  6  7  1  0  0  0  0
  6 22  1  0  0  0  0
  7  8  2  0  0  0  0
  7 31  1  0  0  0  0
  8  9  1  0  0  0  0
  8 20  1  0  0  0  0
  9 10  2  0  0  0  0
  9 17  1  0  0  0  0
 10 11  1  0  0  0  0
 10 32  1  0  0  0  0
 11 12  2  0  0  0  0
 11 15  1  0  0  0  0
 12 13  1  0  0  0  0
 12 16  1  0  0  0  0
 13 14  1  0  0  0  0
 14 15  1  0  0  0  0
 14 33  1  0  0  0  0
 14 34  1  0  0  0  0
 16 17  2  0  0  0  0
 16 35  1  0  0  0  0
 17 18  1  0  0  0  0
 18 19  1  0  0  0  0
 18 36  1  0  0  0  0
 18 37  1  0  0  0  0
 19 20  1  0  0  0  0
 19 38  1  0  0  0  0
 19 39  1  0  0  0  0
 20 21  2  0  0  0  0
 21 22  1  0  0  0  0
 21 40  1  0  0  0  0
 22 23  2  0  0  0  0
 23 24  1  0  0  0  0
 24 25  1  0  0  0  0
 25 41  1  0  0  0  0
 25 42  1  0  0  0  0
 25 43  1  0  0  0  0
M  CHG  1  20   1
M  END
>  <DRUGBANK_ID>
DB04115

>  <SECONDARY_ACCESSION_NUMBERS>
EXPT00672

>  <COMMON_NAME>
Berberine

>  <CAS_NUMBER>
2086-83-1

>  <UNII>
0I8Y3P32UF

$$$$
