
 OpenBabel10282417153D

 42 45  0  0  0  0  0  0  0  0999 V2000
    0.9740    0.0742   -0.1147 C   0  0  0  0  0  0  0  0  0  0  0  0
    4.2003   -3.0010    7.1285 C   0  0  0  0  0  0  0  0  0  0  0  0
    4.4563   -2.2056    6.0142 C   0  0  0  0  0  0  0  0  0  0  0  0
    3.2869   -4.0481    7.0399 C   0  0  0  0  0  0  0  0  0  0  0  0
    3.7894   -2.4491    4.8101 C   0  0  0  0  0  0  0  0  0  0  0  0
    1.6181   -5.4438    5.7801 C   0  0  0  0  0  0  0  0  0  0  0  0
    2.0705   -6.5997    4.8895 C   0  0  0  0  0  0  0  0  0  0  0  0
    0.9680   -1.4279    3.3994 C   0  0  0  0  0  0  0  0  0  0  0  0
    0.3301   -3.1253    1.7420 C   0  0  0  0  0  0  0  0  0  0  0  0
    2.5413   -5.2133    1.3852 C   0  0  0  0  0  0  0  0  0  0  0  0
    1.2677   -0.4600    2.2277 C   0  0  0  0  0  0  0  0  0  0  0  0
    0.7533   -2.1984    0.6037 C   0  0  0  0  0  0  0  0  0  0  0  0
    2.4589   -6.5240    0.9868 C   0  0  0  0  0  0  0  0  0  0  0  0
    2.6037   -4.2986    5.8405 C   0  0  0  0  0  0  0  0  0  0  0  0
    1.2251   -2.8532    2.9424 C   0  0  0  0  0  0  0  0  0  0  0  0
    2.8400   -3.4786    4.7145 C   0  0  0  0  0  0  0  0  0  0  0  0
    2.2886   -5.0463    2.7863 C   0  0  0  0  0  0  0  0  0  0  0  0
    2.2141   -6.2680    3.4331 C   0  0  0  0  0  0  0  0  0  0  0  0
    2.1159   -3.7613    3.4410 C   0  0  0  0  0  0  0  0  0  0  0  0
    0.5390   -0.7919    0.9795 N   0  0  0  0  0  0  0  0  0  0  0  0
    2.2883   -7.5750    2.3150 S   0  0  0  0  0  0  0  0  0  0  0  0
    0.6220    1.0963    0.0506 H   0  0  0  0  0  0  0  0  0  0  0  0
    0.5511   -0.2602   -1.0696 H   0  0  0  0  0  0  0  0  0  0  0  0
    2.0651    0.0863   -0.2180 H   0  0  0  0  0  0  0  0  0  0  0  0
    4.7141   -2.8122    8.0674 H   0  0  0  0  0  0  0  0  0  0  0  0
    5.1781   -1.3960    6.0840 H   0  0  0  0  0  0  0  0  0  0  0  0
    3.1074   -4.6711    7.9135 H   0  0  0  0  0  0  0  0  0  0  0  0
    4.0108   -1.8248    3.9477 H   0  0  0  0  0  0  0  0  0  0  0  0
    1.4699   -5.8444    6.7909 H   0  0  0  0  0  0  0  0  0  0  0  0
    0.6395   -5.0615    5.4651 H   0  0  0  0  0  0  0  0  0  0  0  0
    3.0286   -6.9969    5.2498 H   0  0  0  0  0  0  0  0  0  0  0  0
    1.3290   -7.4023    4.9955 H   0  0  0  0  0  0  0  0  0  0  0  0
    1.5547   -1.1295    4.2707 H   0  0  0  0  0  0  0  0  0  0  0  0
   -0.0852   -1.3305    3.6953 H   0  0  0  0  0  0  0  0  0  0  0  0
   -0.7160   -2.9447    2.0205 H   0  0  0  0  0  0  0  0  0  0  0  0
    0.3348   -4.1598    1.3980 H   0  0  0  0  0  0  0  0  0  0  0  0
    2.6663   -4.3998    0.6827 H   0  0  0  0  0  0  0  0  0  0  0  0
    0.9975    0.5566    2.5366 H   0  0  0  0  0  0  0  0  0  0  0  0
    2.3509   -0.4679    2.0432 H   0  0  0  0  0  0  0  0  0  0  0  0
    0.1589   -2.4513   -0.2821 H   0  0  0  0  0  0  0  0  0  0  0  0
    1.8078   -2.3610    0.3419 H   0  0  0  0  0  0  0  0  0  0  0  0
    2.4999   -6.9078   -0.0225 H   0  0  0  0  0  0  0  0  0  0  0  0
  1 22  1  0  0  0  0
  1 23  1  0  0  0  0
  1 24  1  0  0  0  0
  2 25  1  0  0  0  0
  3  2  2  0  0  0  0
  3 26  1  0  0  0  0
  4  2  1  0  0  0  0
  4 27  1  0  0  0  0
  5  3  1  0  0  0  0
  5 28  1  0  0  0  0
  6 29  1  0  0  0  0
  6 30  1  0  0  0  0
  7  6  1  0  0  0  0
  7 31  1  0  0  0  0
  7 32  1  0  0  0  0
  8 33  1  0  0  0  0
  8 34  1  0  0  0  0
  9 35  1  0  0  0  0
  9 36  1  0  0  0  0
 10 37  1  0  0  0  0
 11  8  1  0  0  0  0
 11 38  1  0  0  0  0
 11 39  1  0  0  0  0
 12  9  1  0  0  0  0
 12 40  1  0  0  0  0
 12 41  1  0  0  0  0
 13 10  2  0  0  0  0
 13 42  1  0  0  0  0
 14  4  2  0  0  0  0
 14  6  1  0  0  0  0
 15  8  1  0  0  0  0
 15  9  1  0  0  0  0
 16  5  2  0  0  0  0
 16 14  1  0  0  0  0
 17 10  1  0  0  0  0
 18  7  1  0  0  0  0
 18 17  2  0  0  0  0
 19 15  2  0  0  0  0
 19 16  1  0  0  0  0
 19 17  1  0  0  0  0
 20  1  1  0  0  0  0
 20 11  1  0  0  0  0
 20 12  1  0  0  0  0
 21 13  1  0  0  0  0
 21 18  1  0  0  0  0
M  END
>  <DRUGBANK_ID>
DB06153

>  <COMMON_NAME>
Pizotifen

>  <CAS_NUMBER>
15574-96-6

>  <UNII>
0BY8440V3N

>  <SYNONYMS>
Pizotifen; pizotifeno; Pizotyline

$$$$
