
 OpenBabel10282417113D

 47 48  0  0  0  0  0  0  0  0999 V2000
    2.4661   -0.6592   -0.0260 C   0  0  0  0  0  0  0  0  0  0  0  0
    2.4461    0.7249   -0.0137 C   0  0  0  0  0  0  0  0  0  0  0  0
    1.2258    1.4012    0.0185 C   0  0  0  0  0  0  0  0  0  0  0  0
    0.0046    0.7049   -0.0031 C   0  0  0  0  0  0  0  0  0  0  0  0
    0.0075   -0.7094   -0.0161 C   0  0  0  0  0  0  0  0  0  0  0  0
    1.2656   -1.3627   -0.0055 C   0  0  0  0  0  0  0  0  0  0  0  0
   -1.2163    1.4019   -0.0128 C   0  0  0  0  0  0  0  0  0  0  0  0
   -2.4339    0.7249   -0.0327 C   0  0  0  0  0  0  0  0  0  0  0  0
   -2.4478   -0.6618   -0.0454 C   0  0  0  0  0  0  0  0  0  0  0  0
   -1.2444   -1.3883   -0.0308 C   0  0  0  0  0  0  0  0  0  0  0  0
   -1.3374   -2.8971    0.0377 C   0  0  0  0  0  0  0  0  0  0  0  0
   -1.9816   -3.3959    1.2650 N   0  0  0  0  0  0  0  0  0  0  0  0
   -1.9919   -4.8699    1.2857 C   0  0  0  0  0  0  0  0  0  0  0  0
   -1.3341   -2.8716    2.4738 C   0  0  0  0  0  0  0  0  0  0  0  0
   -0.6149   -5.5013    1.3238 C   0  0  0  0  0  0  0  0  0  0  0  0
   -0.1347   -6.2403    2.3363 C   0  0  0  0  0  0  0  0  0  0  0  0
    1.2080   -6.7314    2.3531 C   0  0  0  0  0  0  0  0  0  0  0  0
    2.3424   -7.1515    2.3848 C   0  0  0  0  0  0  0  0  0  0  0  0
    3.7368   -7.6851    2.4184 C   0  0  0  0  0  0  0  0  0  0  0  0
    3.7980   -8.9797    3.2435 C   0  0  0  0  0  0  0  0  0  0  0  0
    4.2241   -7.9938    0.9948 C   0  0  0  0  0  0  0  0  0  0  0  0
    4.6950   -6.6631    3.0485 C   0  0  0  0  0  0  0  0  0  0  0  0
    3.4059   -1.2040   -0.0508 H   0  0  0  0  0  0  0  0  0  0  0  0
    3.3796    1.2785   -0.0294 H   0  0  0  0  0  0  0  0  0  0  0  0
    1.2356    2.4879    0.0550 H   0  0  0  0  0  0  0  0  0  0  0  0
    1.3513   -2.4441    0.0115 H   0  0  0  0  0  0  0  0  0  0  0  0
   -1.2271    2.4893   -0.0108 H   0  0  0  0  0  0  0  0  0  0  0  0
   -3.3705    1.2751   -0.0278 H   0  0  0  0  0  0  0  0  0  0  0  0
   -3.3973   -1.1944   -0.0320 H   0  0  0  0  0  0  0  0  0  0  0  0
   -1.8773   -3.2447   -0.8528 H   0  0  0  0  0  0  0  0  0  0  0  0
   -0.3460   -3.3299   -0.0510 H   0  0  0  0  0  0  0  0  0  0  0  0
   -2.5961   -5.1965    2.1422 H   0  0  0  0  0  0  0  0  0  0  0  0
   -2.5326   -5.2332    0.4013 H   0  0  0  0  0  0  0  0  0  0  0  0
   -0.2879   -3.1851    2.5484 H   0  0  0  0  0  0  0  0  0  0  0  0
   -1.3503   -1.7776    2.5123 H   0  0  0  0  0  0  0  0  0  0  0  0
   -1.8692   -3.2080    3.3677 H   0  0  0  0  0  0  0  0  0  0  0  0
    0.0387   -5.2938    0.4813 H   0  0  0  0  0  0  0  0  0  0  0  0
   -0.7717   -6.4480    3.1914 H   0  0  0  0  0  0  0  0  0  0  0  0
    3.1508   -9.7558    2.8203 H   0  0  0  0  0  0  0  0  0  0  0  0
    4.8196   -9.3807    3.2683 H   0  0  0  0  0  0  0  0  0  0  0  0
    3.4864   -8.8101    4.2801 H   0  0  0  0  0  0  0  0  0  0  0  0
    4.2267   -7.0948    0.3687 H   0  0  0  0  0  0  0  0  0  0  0  0
    5.2479   -8.3895    1.0079 H   0  0  0  0  0  0  0  0  0  0  0  0
    3.5887   -8.7415    0.5074 H   0  0  0  0  0  0  0  0  0  0  0  0
    4.7120   -5.7261    2.4811 H   0  0  0  0  0  0  0  0  0  0  0  0
    4.4094   -6.4275    4.0796 H   0  0  0  0  0  0  0  0  0  0  0  0
    5.7216   -7.0519    3.0724 H   0  0  0  0  0  0  0  0  0  0  0  0
  1  2  2  0  0  0  0
  1  6  1  0  0  0  0
  1 23  1  0  0  0  0
  2  3  1  0  0  0  0
  2 24  1  0  0  0  0
  3  4  2  0  0  0  0
  3 25  1  0  0  0  0
  4  5  1  0  0  0  0
  4  7  1  0  0  0  0
  5  6  2  0  0  0  0
  5 10  1  0  0  0  0
  6 26  1  0  0  0  0
  7  8  2  0  0  0  0
  7 27  1  0  0  0  0
  8  9  1  0  0  0  0
  8 28  1  0  0  0  0
  9 10  2  0  0  0  0
  9 29  1  0  0  0  0
 10 11  1  0  0  0  0
 11 12  1  0  0  0  0
 11 30  1  0  0  0  0
 11 31  1  0  0  0  0
 12 13  1  0  0  0  0
 12 14  1  0  0  0  0
 13 15  1  0  0  0  0
 13 32  1  0  0  0  0
 13 33  1  0  0  0  0
 14 34  1  0  0  0  0
 14 35  1  0  0  0  0
 14 36  1  0  0  0  0
 15 16  2  0  0  0  0
 15 37  1  0  0  0  0
 16 17  1  0  0  0  0
 16 38  1  0  0  0  0
 17 18  3  0  0  0  0
 18 19  1  0  0  0  0
 19 20  1  0  0  0  0
 19 21  1  0  0  0  0
 19 22  1  0  0  0  0
 20 39  1  0  0  0  0
 20 40  1  0  0  0  0
 20 41  1  0  0  0  0
 21 42  1  0  0  0  0
 21 43  1  0  0  0  0
 21 44  1  0  0  0  0
 22 45  1  0  0  0  0
 22 46  1  0  0  0  0
 22 47  1  0  0  0  0
M  END
>  <DRUGBANK_ID>
DB00857

>  <SECONDARY_ACCESSION_NUMBERS>
APRD00508

>  <COMMON_NAME>
Terbinafine

>  <CAS_NUMBER>
91161-71-6

>  <UNII>
G7RIW8S0XP

>  <SYNONYMS>
(E)-N-(6,6-Dimethyl-2-hepten-4-ynyl)-N-methyl-1-naphthalene methanamine; (E)-N-(6,6-Dimethyl-2-hepten-4-ynyl)-N-methyl-1-naphthalenemethylamine; Terbinafina; Terbinafine; Terbinafinum

$$$$
