
 OpenBabel10282417153D

 73 74  0  0  0  0  0  0  0  0999 V2000
    3.3529   -7.0901   -0.0478 C   0  0  0  0  0  0  0  0  0  0  0  0
    1.9695   -7.2478   -0.0725 C   0  0  0  0  0  0  0  0  0  0  0  0
    1.3658   -8.8562   -0.0864 S   0  0  0  0  0  0  0  0  0  0  0  0
    2.9886   -9.4077   -0.0319 C   0  0  0  0  0  0  0  0  0  0  0  0
    3.9146   -8.4380   -0.0078 N   0  0  0  0  0  0  0  0  0  0  0  0
    5.6723    0.1850    1.0974 C   0  0  1  0  0  0  0  0  0  0  0  0
    5.9872   -1.0532    0.5073 C   0  0  0  0  0  0  0  0  0  0  0  0
    8.8127    1.8088    1.7777 C   0  0  1  0  0  0  0  0  0  0  0  0
    7.9654    0.5897    1.5443 C   0  0  0  0  0  0  0  0  0  0  0  0
    6.6398    0.4447    2.1975 C   0  0  0  0  0  0  0  0  0  0  0  0
   12.7185    1.1848    0.2636 C   0  0  0  0  0  0  0  0  0  0  0  0
   11.5055    1.0112    0.7132 C   0  0  0  0  0  0  0  0  0  0  0  0
   11.0094    0.4653    1.8568 C   0  0  1  0  0  0  0  0  0  0  0  0
   10.0948    1.5261    2.4897 C   0  0  2  0  0  0  0  0  0  0  0  0
    6.1873   -2.7027   -0.7209 C   0  0  2  0  0  0  0  0  0  0  0  0
    8.1026   -1.3350   -1.2086 C   0  0  0  0  0  0  0  0  0  0  0  0
    6.0881   -2.3265    1.3938 C   0  0  0  0  0  0  0  0  0  0  0  0
    5.6143   -3.2583    0.7263 O   0  0  0  0  0  0  0  0  0  0  0  0
    9.8348    0.1541   -1.4406 C   0  0  0  0  0  0  0  0  0  0  0  0
   11.1606    1.6823   -1.3443 C   0  0  0  0  0  0  0  0  0  0  0  0
   12.8006    1.4138   -1.1960 C   0  0  0  0  0  0  0  0  0  0  0  0
    6.8109   -2.8584    2.1995 O   0  0  0  0  0  0  0  0  0  0  0  0
    4.5357   -4.1028   -0.5612 C   0  0  0  0  0  0  0  0  0  0  0  0
    2.5343   -4.3592   -0.2269 C   0  0  0  0  0  0  0  0  0  0  0  0
    4.3770   -5.6654   -0.1764 C   0  0  0  0  0  0  0  0  0  0  0  0
   12.3070    3.4361   -0.6597 C   0  0  0  0  0  0  0  0  0  0  0  0
   10.3776   -0.8458    1.6090 C   0  0  0  0  0  0  0  0  0  0  0  0
    9.8438    0.9940    3.7489 O   0  0  0  0  0  0  0  0  0  0  0  0
    9.0538    2.4955    0.4895 C   0  0  0  0  0  0  0  0  0  0  0  0
    8.3114   -0.2746    0.7472 O   0  0  0  0  0  0  0  0  0  0  0  0
    6.2575    1.6804    2.8784 C   0  0  0  0  0  0  0  0  0  0  0  0
    6.6117   -0.5885    3.2653 C   0  0  0  0  0  0  0  0  0  0  0  0
    5.7147    1.1837    0.0813 O   0  0  0  0  0  0  0  0  0  0  0  0
    3.2611  -10.8822   -0.0393 C   0  0  0  0  0  0  0  0  0  0  0  0
    1.2389   -6.4845   -0.0947 H   0  0  0  0  0  0  0  0  0  0  0  0
    4.6619    0.0260    1.4355 H   0  0  0  0  0  0  0  0  0  0  0  0
    6.9016   -1.0423    0.0143 H   0  0  0  0  0  0  0  0  0  0  0  0
    5.3300   -1.0556   -0.4000 H   0  0  0  0  0  0  0  0  0  0  0  0
    8.2695    2.5182    2.3573 H   0  0  0  0  0  0  0  0  0  0  0  0
   13.5475    0.9808    0.8640 H   0  0  0  0  0  0  0  0  0  0  0  0
   10.6981    1.1283    0.1048 H   0  0  0  0  0  0  0  0  0  0  0  0
   11.9241    0.2754    2.3590 H   0  0  0  0  0  0  0  0  0  0  0  0
   10.6785    2.4360    2.6709 H   0  0  0  0  0  0  0  0  0  0  0  0
    4.8096   -2.3899   -0.5661 H   0  0  0  0  0  0  0  0  0  0  0  0
    7.9116   -2.6073   -1.4035 H   0  0  0  0  0  0  0  0  0  0  0  0
    7.1758   -1.6616   -2.0241 H   0  0  0  0  0  0  0  0  0  0  0  0
   11.1996    0.3866   -2.1246 H   0  0  0  0  0  0  0  0  0  0  0  0
   13.4809    0.7138   -1.7324 H   0  0  0  0  0  0  0  0  0  0  0  0
   12.3504    2.2045   -1.9269 H   0  0  0  0  0  0  0  0  0  0  0  0
    1.8312   -5.0240   -1.0298 H   0  0  0  0  0  0  0  0  0  0  0  0
    1.8367   -4.9926    0.7491 H   0  0  0  0  0  0  0  0  0  0  0  0
    1.7813   -3.5406   -0.1578 H   0  0  0  0  0  0  0  0  0  0  0  0
    5.3123   -6.0909    0.0018 H   0  0  0  0  0  0  0  0  0  0  0  0
   12.0320    4.5220   -0.9498 H   0  0  0  0  0  0  0  0  0  0  0  0
   12.7322    3.7852    0.5630 H   0  0  0  0  0  0  0  0  0  0  0  0
   13.4877    4.5185   -0.5723 H   0  0  0  0  0  0  0  0  0  0  0  0
    9.4522   -0.5958    2.0352 H   0  0  0  0  0  0  0  0  0  0  0  0
   10.3253   -1.2301    0.5831 H   0  0  0  0  0  0  0  0  0  0  0  0
   10.4882   -1.6151    2.3327 H   0  0  0  0  0  0  0  0  0  0  0  0
   10.7407    0.6338    3.7109 H   0  0  0  0  0  0  0  0  0  0  0  0
    8.1996    2.6546   -0.1208 H   0  0  0  0  0  0  0  0  0  0  0  0
    9.7470    3.3272    0.5537 H   0  0  0  0  0  0  0  0  0  0  0  0
    9.3961    1.7891   -0.1899 H   0  0  0  0  0  0  0  0  0  0  0  0
    5.2616    1.5694    3.2803 H   0  0  0  0  0  0  0  0  0  0  0  0
    6.9626    1.8559    3.6907 H   0  0  0  0  0  0  0  0  0  0  0  0
    6.2867    2.4974    2.1666 H   0  0  0  0  0  0  0  0  0  0  0  0
    5.6113   -0.8955    3.5765 H   0  0  0  0  0  0  0  0  0  0  0  0
    7.1402   -1.3677    2.8486 H   0  0  0  0  0  0  0  0  0  0  0  0
    7.3414   -0.5364    4.0422 H   0  0  0  0  0  0  0  0  0  0  0  0
    6.6229    1.2434   -0.2814 H   0  0  0  0  0  0  0  0  0  0  0  0
    2.8017  -11.3802    0.8213 H   0  0  0  0  0  0  0  0  0  0  0  0
    2.8773  -11.3529   -0.9513 H   0  0  0  0  0  0  0  0  0  0  0  0
    4.3384  -11.0620    0.0030 H   0  0  0  0  0  0  0  0  0  0  0  0
  1  2  2  0  0  0  0
  2  3  1  0  0  0  0
  2 35  1  0  0  0  0
  3  4  1  0  0  0  0
  4  5  2  0  0  0  0
  4 34  1  0  0  0  0
  5  1  1  0  0  0  0
  6  7  1  0  0  0  0
  6 10  1  0  0  0  0
  6 33  1  0  0  0  0
  6 36  1  1  0  0  0
  7 17  1  0  0  0  0
  7 37  1  0  0  0  0
  7 38  1  0  0  0  0
  8  9  1  0  0  0  0
  8 29  1  0  0  0  0
  8 39  1  1  0  0  0
  9 10  1  0  0  0  0
  9 30  2  0  0  0  0
 10 31  1  0  0  0  0
 10 32  1  0  0  0  0
 11 12  2  0  0  0  0
 11 40  1  0  0  0  0
 12 13  1  0  0  0  0
 12 41  1  0  0  0  0
 13 14  1  0  0  0  0
 13 42  1  1  0  0  0
 13 27  1  0  0  0  0
 14  8  1  0  0  0  0
 14 43  1  1  0  0  0
 14 28  1  0  0  0  0
 15 16  1  0  0  0  0
 15 18  1  0  0  0  0
 15 44  1  1  0  0  0
 15 23  1  0  0  0  0
 16 19  1  0  0  0  0
 16 45  1  0  0  0  0
 16 46  1  0  0  0  0
 17 18  1  0  0  0  0
 17 22  2  0  0  0  0
 19 20  2  0  0  0  0
 19 47  1  0  0  0  0
 20 21  1  0  0  0  0
 20 26  1  0  0  0  0
 21 11  1  0  0  0  0
 21 48  1  0  0  0  0
 21 49  1  0  0  0  0
 23 24  1  0  0  0  0
 23 25  2  0  0  0  0
 24 50  1  0  0  0  0
 24 51  1  0  0  0  0
 24 52  1  0  0  0  0
 25  1  1  0  0  0  0
 25 53  1  0  0  0  0
 26 54  1  0  0  0  0
 26 55  1  0  0  0  0
 26 56  1  0  0  0  0
 27 57  1  0  0  0  0
 27 58  1  0  0  0  0
 27 59  1  0  0  0  0
 28 60  1  0  0  0  0
 29 61  1  0  0  0  0
 29 62  1  0  0  0  0
 29 63  1  0  0  0  0
 31 64  1  0  0  0  0
 31 65  1  0  0  0  0
 31 66  1  0  0  0  0
 32 67  1  0  0  0  0
 32 68  1  0  0  0  0
 32 69  1  0  0  0  0
 33 70  1  0  0  0  0
 34 71  1  0  0  0  0
 34 72  1  0  0  0  0
 34 73  1  0  0  0  0
M  END
>  <DRUGBANK_ID>
DB05903

>  <COMMON_NAME>
KOS-1584

>  <CAS_NUMBER>
350493-61-7

>  <UNII>
82481G197K

>  <SYNONYMS>
(E)-9,10-Dehydroepothilone D; (E)-9,10-Didehydroepothilone D

$$$$
