54841
 OpenBabel10282417103D

 40 41  0  0  1  0  0  0  0  0999 V2000
    0.7228    2.0216    1.3617 O   0  0  0  0  0  0  0  0  0  0  0  0
   -0.0854   -2.0787    0.0854 N   0  0  0  0  0  0  0  0  0  0  0  0
    0.8302    1.3914    0.0575 C   0  0  2  0  0  0  0  0  0  0  0  0
    1.5144   -0.0270    0.1644 C   0  0  0  0  0  0  0  0  0  0  0  0
    1.4691    2.3064   -1.1636 C   0  0  0  0  0  0  0  0  0  0  0  0
    0.9098   -1.2952    0.8530 C   0  0  0  0  0  0  0  0  0  0  0  0
    0.0632    3.2398    1.4543 C   0  0  0  0  0  0  0  0  0  0  0  0
    1.3580    3.7379   -1.3083 C   0  0  0  0  0  0  0  0  0  0  0  0
    1.8130    1.6994   -2.3600 C   0  0  0  0  0  0  0  0  0  0  0  0
   -0.7735    3.8252    0.4694 C   0  0  0  0  0  0  0  0  0  0  0  0
    1.2591    4.4168   -2.5489 C   0  0  0  0  0  0  0  0  0  0  0  0
    1.9619    2.4211   -3.5742 C   0  0  0  0  0  0  0  0  0  0  0  0
    0.4522    4.0078    2.5850 C   0  0  0  0  0  0  0  0  0  0  0  0
    1.5864    3.7632   -3.6840 C   0  0  0  0  0  0  0  0  0  0  0  0
   -0.2594   -3.4201    0.6711 C   0  0  0  0  0  0  0  0  0  0  0  0
   -0.8173    5.2504    0.4713 C   0  0  0  0  0  0  0  0  0  0  0  0
   -1.3708    3.0853   -0.7359 C   0  0  0  0  0  0  0  0  0  0  0  0
    0.1818    5.3796    2.6555 C   0  0  0  0  0  0  0  0  0  0  0  0
   -0.3258    6.0188    1.5393 C   0  0  0  0  0  0  0  0  0  0  0  0
   -0.9901   -1.6102    0.0863 H   0  0  0  0  0  0  0  0  0  0  0  0
   -0.1890    1.0820   -0.1845 H   0  0  0  0  0  0  0  0  0  0  0  0
    1.6695   -0.3889   -0.8492 H   0  0  0  0  0  0  0  0  0  0  0  0
    2.4922    0.1334    0.6250 H   0  0  0  0  0  0  0  0  0  0  0  0
    1.7766   -1.9695    0.9390 H   0  0  0  0  0  0  0  0  0  0  0  0
    0.5537   -1.1086    1.8694 H   0  0  0  0  0  0  0  0  0  0  0  0
    1.0800    4.4068   -0.5295 H   0  0  0  0  0  0  0  0  0  0  0  0
    1.8751    0.6197   -2.4516 H   0  0  0  0  0  0  0  0  0  0  0  0
    0.8176    5.4244   -2.5820 H   0  0  0  0  0  0  0  0  0  0  0  0
    2.2835    1.8984   -4.4565 H   0  0  0  0  0  0  0  0  0  0  0  0
    1.0230    3.5588    3.3961 H   0  0  0  0  0  0  0  0  0  0  0  0
    1.5094    4.2627   -4.6498 H   0  0  0  0  0  0  0  0  0  0  0  0
   -0.6052   -3.3639    1.7091 H   0  0  0  0  0  0  0  0  0  0  0  0
   -1.0026   -3.9997    0.1085 H   0  0  0  0  0  0  0  0  0  0  0  0
    0.6722   -3.9990    0.6444 H   0  0  0  0  0  0  0  0  0  0  0  0
   -1.0823    5.7847   -0.4406 H   0  0  0  0  0  0  0  0  0  0  0  0
   -2.1125    3.6715   -1.2734 H   0  0  0  0  0  0  0  0  0  0  0  0
   -0.7093    2.8078   -1.5591 H   0  0  0  0  0  0  0  0  0  0  0  0
   -1.8064    2.1381   -0.4202 H   0  0  0  0  0  0  0  0  0  0  0  0
    0.4280    5.9570    3.5471 H   0  0  0  0  0  0  0  0  0  0  0  0
   -0.3274    7.1075    1.4842 H   0  0  0  0  0  0  0  0  0  0  0  0
  1  7  1  0  0  0  0
  2  6  1  0  0  0  0
  2 15  1  0  0  0  0
  2 20  1  0  0  0  0
  3  5  1  0  0  0  0
  3 21  1  6  0  0  0
  3  4  1  0  0  0  0
  3  1  1  0  0  0  0
  4  6  1  0  0  0  0
  4 22  1  0  0  0  0
  4 23  1  0  0  0  0
  5  8  2  0  0  0  0
  5  9  1  0  0  0  0
  6 24  1  0  0  0  0
  6 25  1  0  0  0  0
  7 10  1  0  0  0  0
  7 13  2  0  0  0  0
  8 11  1  0  0  0  0
  8 26  1  0  0  0  0
  9 12  2  0  0  0  0
  9 27  1  0  0  0  0
 10 16  2  0  0  0  0
 10 17  1  0  0  0  0
 11 14  2  0  0  0  0
 11 28  1  0  0  0  0
 12 14  1  0  0  0  0
 12 29  1  0  0  0  0
 13 18  1  0  0  0  0
 13 30  1  0  0  0  0
 14 31  1  0  0  0  0
 15 32  1  0  0  0  0
 15 33  1  0  0  0  0
 15 34  1  0  0  0  0
 16 19  1  0  0  0  0
 16 35  1  0  0  0  0
 17 36  1  0  0  0  0
 17 37  1  0  0  0  0
 17 38  1  0  0  0  0
 18 19  2  0  0  0  0
 18 39  1  0  0  0  0
 19 40  1  0  0  0  0
M  END
>  <DRUGBANK_ID>
DB00289

>  <SECONDARY_ACCESSION_NUMBERS>
APRD00614

>  <COMMON_NAME>
Atomoxetine

>  <CAS_NUMBER>
83015-26-3

>  <UNII>
ASW034S0B8

>  <SYNONYMS>
(-)-Tomoxetine; Atomoxetina; Atomoxetine; Tomoxetina; Tomoxetine; Tomoxetinum

$$$$
