
 OpenBabel10282417123D

 45 47  0  0  0  0  0  0  0  0999 V2000
    1.0755   -0.0993    0.0924 C   0  0  0  0  0  0  0  0  0  0  0  0
    0.5166   -0.7704   -1.1374 N   0  3  0  0  0  0  0  0  0  0  0  0
    1.0187   -2.1862   -1.2430 C   0  0  0  0  0  0  0  0  0  0  0  0
   -0.9839   -0.7568   -1.1702 C   0  0  0  0  0  0  0  0  0  0  0  0
   -1.5321    0.6651   -1.1447 C   0  0  0  0  0  0  0  0  0  0  0  0
   -1.1794    1.4532   -2.3252 N   0  0  0  0  0  0  0  0  0  0  0  0
   -2.0510    1.9908   -3.2394 C   0  0  0  0  0  0  0  0  0  0  0  0
   -1.6599    2.4137   -4.3283 O   0  0  0  0  0  0  0  0  0  0  0  0
   -3.5054    1.9442   -3.0061 C   0  0  0  0  0  0  0  0  0  0  0  0
   -4.0181    2.2318   -1.7359 C   0  0  0  0  0  0  0  0  0  0  0  0
   -5.3599    2.0312   -1.4697 C   0  0  0  0  0  0  0  0  0  0  0  0
   -6.2122    1.6399   -2.4932 C   0  0  0  0  0  0  0  0  0  0  0  0
   -5.7509    1.4283   -3.8083 C   0  0  0  0  0  0  0  0  0  0  0  0
   -6.6226    1.0818   -4.8644 C   0  0  0  0  0  0  0  0  0  0  0  0
   -7.9680    0.7807   -4.6035 N   0  0  0  0  0  0  0  0  0  0  0  0
   -6.0698    0.8456   -6.1443 C   0  0  0  0  0  0  0  0  0  0  0  0
   -4.6757    1.0023   -6.3459 C   0  0  0  0  0  0  0  0  0  0  0  0
   -3.9006    1.3666   -5.3076 N   0  3  0  0  0  0  0  0  0  0  0  0
   -4.3647    1.5841   -4.0615 C   0  0  0  0  0  0  0  0  0  0  0  0
   -4.1141    0.7804   -7.6155 C   0  0  0  0  0  0  0  0  0  0  0  0
   -2.2456    0.9573   -7.8913 Br  0  0  0  0  0  0  0  0  0  0  0  0
   -4.9167    0.4191   -8.6946 C   0  0  0  0  0  0  0  0  0  0  0  0
   -6.2861    0.2706   -8.5109 C   0  0  0  0  0  0  0  0  0  0  0  0
   -6.8522    0.4746   -7.2547 C   0  0  0  0  0  0  0  0  0  0  0  0
    0.6768   -0.6160    0.9693 H   0  0  0  0  0  0  0  0  0  0  0  0
    0.7724    0.9499    0.0902 H   0  0  0  0  0  0  0  0  0  0  0  0
    2.1629   -0.1490    0.0440 H   0  0  0  0  0  0  0  0  0  0  0  0
    0.8682   -0.2713   -1.9653 H   0  0  0  0  0  0  0  0  0  0  0  0
    0.6485   -2.7407   -0.3765 H   0  0  0  0  0  0  0  0  0  0  0  0
    0.6323   -2.6122   -2.1730 H   0  0  0  0  0  0  0  0  0  0  0  0
    2.1088   -2.1533   -1.2624 H   0  0  0  0  0  0  0  0  0  0  0  0
   -1.2999   -1.2589   -2.0935 H   0  0  0  0  0  0  0  0  0  0  0  0
   -1.3503   -1.3227   -0.3070 H   0  0  0  0  0  0  0  0  0  0  0  0
   -2.6048    0.5236   -1.0704 H   0  0  0  0  0  0  0  0  0  0  0  0
   -1.2254    1.2357   -0.2650 H   0  0  0  0  0  0  0  0  0  0  0  0
   -0.2032    1.6745   -2.5181 H   0  0  0  0  0  0  0  0  0  0  0  0
   -3.3765    2.5686   -0.9244 H   0  0  0  0  0  0  0  0  0  0  0  0
   -5.7564    2.1854   -0.4678 H   0  0  0  0  0  0  0  0  0  0  0  0
   -7.2636    1.5334   -2.2374 H   0  0  0  0  0  0  0  0  0  0  0  0
   -8.6324    0.7178   -5.3679 H   0  0  0  0  0  0  0  0  0  0  0  0
   -8.4213    1.1175   -3.7614 H   0  0  0  0  0  0  0  0  0  0  0  0
   -2.8995    1.5335   -5.4934 H   0  0  0  0  0  0  0  0  0  0  0  0
   -4.4970    0.2533   -9.6850 H   0  0  0  0  0  0  0  0  0  0  0  0
   -6.9297   -0.0028   -9.3462 H   0  0  0  0  0  0  0  0  0  0  0  0
   -7.9296    0.3484   -7.1730 H   0  0  0  0  0  0  0  0  0  0  0  0
  1  2  1  0  0  0  0
  1 25  1  0  0  0  0
  1 26  1  0  0  0  0
  1 27  1  0  0  0  0
  2  3  1  0  0  0  0
  2  4  1  0  0  0  0
  2 28  1  0  0  0  0
  3 29  1  0  0  0  0
  3 30  1  0  0  0  0
  3 31  1  0  0  0  0
  4  5  1  0  0  0  0
  4 32  1  0  0  0  0
  4 33  1  0  0  0  0
  5  6  1  0  0  0  0
  5 34  1  0  0  0  0
  5 35  1  0  0  0  0
  6  7  1  0  0  0  0
  6 36  1  0  0  0  0
  7  8  2  0  0  0  0
  7  9  1  0  0  0  0
  9 10  2  0  0  0  0
  9 19  1  0  0  0  0
 10 11  1  0  0  0  0
 10 37  1  0  0  0  0
 11 12  2  0  0  0  0
 11 38  1  0  0  0  0
 12 13  1  0  0  0  0
 12 39  1  0  0  0  0
 13 14  2  0  0  0  0
 13 19  1  0  0  0  0
 14 15  1  0  0  0  0
 14 16  1  0  0  0  0
 15 40  1  0  0  0  0
 15 41  1  0  0  0  0
 16 17  2  0  0  0  0
 16 24  1  0  0  0  0
 17 18  1  0  0  0  0
 17 20  1  0  0  0  0
 18 19  2  0  0  0  0
 18 42  1  0  0  0  0
 20 21  1  0  0  0  0
 20 22  2  0  0  0  0
 22 23  1  0  0  0  0
 22 43  1  0  0  0  0
 23 24  2  0  0  0  0
 23 44  1  0  0  0  0
 24 45  1  0  0  0  0
M  CHG  2   2   1  18   1
M  END
>  <DRUGBANK_ID>
DB02390

>  <SECONDARY_ACCESSION_NUMBERS>
EXPT01117

>  <COMMON_NAME>
5-Bromo-N[2-(Dimethylamino)Ethyl]-9-Aminoacridine-4-Carboxamide

$$$$
