
 OpenBabel10282417123D

 23 23  0  0  0  0  0  0  0  0999 V2000
   -1.1388    1.1988    0.0060 C   0  0  0  0  0  0  0  0  0  0  0  0
    0.2585    1.2025   -0.0029 C   0  0  0  0  0  0  0  0  0  0  0  0
   -1.8440   -0.0114    0.0079 C   0  0  0  0  0  0  0  0  0  0  0  0
    0.9844    0.0080    0.0194 C   0  0  0  0  0  0  0  0  0  0  0  0
   -1.1135   -1.2078    0.0027 C   0  0  0  0  0  0  0  0  0  0  0  0
    0.2790   -1.1974    0.0001 C   0  0  0  0  0  0  0  0  0  0  0  0
    2.3625    0.0110   -0.1218 N   0  0  0  0  0  0  0  0  0  0  0  0
   -3.3589   -0.0246    0.0110 C   0  0  0  0  0  0  0  0  0  0  0  0
   -3.8993   -0.7030   -1.2506 C   0  0  0  0  0  0  0  0  0  0  0  0
   -3.8893   -0.7156    1.2697 C   0  0  0  0  0  0  0  0  0  0  0  0
   -1.6702    2.1484    0.0040 H   0  0  0  0  0  0  0  0  0  0  0  0
    0.7825    2.1551   -0.0241 H   0  0  0  0  0  0  0  0  0  0  0  0
   -1.6281   -2.1670   -0.0059 H   0  0  0  0  0  0  0  0  0  0  0  0
    0.8107   -2.1441   -0.0145 H   0  0  0  0  0  0  0  0  0  0  0  0
    2.8654   -0.8506    0.0534 H   0  0  0  0  0  0  0  0  0  0  0  0
    2.8644    0.8738    0.0544 H   0  0  0  0  0  0  0  0  0  0  0  0
   -3.7293    1.0093    0.0176 H   0  0  0  0  0  0  0  0  0  0  0  0
   -3.5852   -1.7506   -1.3161 H   0  0  0  0  0  0  0  0  0  0  0  0
   -4.9937   -0.6849   -1.2636 H   0  0  0  0  0  0  0  0  0  0  0  0
   -3.5400   -0.1937   -2.1519 H   0  0  0  0  0  0  0  0  0  0  0  0
   -3.5220   -0.2155    2.1730 H   0  0  0  0  0  0  0  0  0  0  0  0
   -4.9834   -0.6977    1.2920 H   0  0  0  0  0  0  0  0  0  0  0  0
   -3.5745   -1.7638    1.3220 H   0  0  0  0  0  0  0  0  0  0  0  0
  1 11  1  0  0  0  0
  2  1  1  0  0  0  0
  2 12  1  0  0  0  0
  3  1  2  0  0  0  0
  3  8  1  0  0  0  0
  4  2  2  0  0  0  0
  4  7  1  0  0  0  0
  5  3  1  0  0  0  0
  5 13  1  0  0  0  0
  6  4  1  0  0  0  0
  6  5  2  0  0  0  0
  6 14  1  0  0  0  0
  7 15  1  0  0  0  0
  7 16  1  0  0  0  0
  8  9  1  0  0  0  0
  8 10  1  0  0  0  0
  8 17  1  0  0  0  0
  9 18  1  0  0  0  0
  9 19  1  0  0  0  0
  9 20  1  0  0  0  0
 10 21  1  0  0  0  0
 10 22  1  0  0  0  0
 10 23  1  0  0  0  0
M  END
>  <DRUGBANK_ID>
DB02114

>  <SECONDARY_ACCESSION_NUMBERS>
EXPT01936

>  <COMMON_NAME>
Cumidine

>  <CAS_NUMBER>
99-88-7

>  <UNII>
0D54T7V7XL

>  <SYNONYMS>
4-(1-methylethyl)aniline; 4-Amino-1-isopropylbenzene; 4-Aminocumene; 4-Isopropylaniline; p-Cumidine; p-Isopropylaniline; para-isopropylaniline

$$$$
