
 OpenBabel10282417243D

 55 59  0  0  0  0  0  0  0  0999 V2000
    2.5440    0.5038   -0.0019 C   0  0  0  0  0  0  0  0  0  0  0  0
    1.0870    0.2790   -0.0193 C   0  0  0  0  0  0  0  0  0  0  0  0
   -0.0196    1.0971   -0.0326 C   0  0  0  0  0  0  0  0  0  0  0  0
   -1.1163    0.1940   -0.0041 C   0  0  0  0  0  0  0  0  0  0  0  0
   -0.6991   -1.0774    0.0092 N   0  0  0  0  0  0  0  0  0  0  0  0
    0.6814   -1.0200   -0.0008 O   0  0  0  0  0  0  0  0  0  0  0  0
   -2.5656    0.5018   -0.0066 C   0  0  0  0  0  0  0  0  0  0  0  0
    0.0058    2.5411   -0.0143 C   0  0  0  0  0  0  0  0  0  0  0  0
   -0.5914    3.2180    1.0411 C   0  0  0  0  0  0  0  0  0  0  0  0
   -0.5945    4.6170    0.9997 C   0  0  0  0  0  0  0  0  0  0  0  0
   -0.0160    5.2934   -0.0763 C   0  0  0  0  0  0  0  0  0  0  0  0
   -0.1754    6.6903    0.1561 C   0  0  0  0  0  0  0  0  0  0  0  0
   -0.8386    6.8274    1.3639 C   0  0  0  0  0  0  0  0  0  0  0  0
   -1.0814    5.5706    1.8766 N   0  0  0  0  0  0  0  0  0  0  0  0
   -1.7927    5.3028    3.1469 C   0  0  3  0  0  0  0  0  0  0  0  0
   -3.1228    4.5903    2.8508 C   0  0  0  0  0  0  0  0  0  0  0  0
   -0.8789    4.5528    4.1165 C   0  0  0  0  0  0  0  0  0  0  0  0
   -1.1247    3.2187    4.4459 C   0  0  0  0  0  0  0  0  0  0  0  0
   -0.0971    2.4498    4.9701 C   0  0  0  0  0  0  0  0  0  0  0  0
    1.0538    3.0787    5.4089 C   0  0  0  0  0  0  0  0  0  0  0  0
    1.1610    4.4443    5.2136 C   0  0  0  0  0  0  0  0  0  0  0  0
    0.2486    5.1820    4.5373 N   0  0  0  0  0  0  0  0  0  0  0  0
    0.3017    7.8251   -0.6169 C   0  0  0  0  0  0  0  0  0  0  0  0
   -0.1034    8.0293   -1.9407 C   0  0  0  0  0  0  0  0  0  0  0  0
    0.3426    9.1551   -2.6487 C   0  0  0  0  0  0  0  0  0  0  0  0
    1.3232    9.9893   -2.0972 C   0  0  0  0  0  0  0  0  0  0  0  0
    1.8182    9.7082   -0.8202 C   0  0  0  0  0  0  0  0  0  0  0  0
    1.2212    8.7114   -0.0447 C   0  0  0  0  0  0  0  0  0  0  0  0
    1.8124   11.2036   -2.7931 C   0  0  0  0  0  0  0  0  0  0  0  0
    2.6763   11.9685   -2.3764 O   0  0  0  0  0  0  0  0  0  0  0  0
    1.1614   11.4513   -3.9411 O   0  0  0  0  0  0  0  0  0  0  0  0
    0.5860    4.6467   -1.1113 N   0  0  0  0  0  0  0  0  0  0  0  0
    0.5737    3.2933   -1.0333 C   0  0  0  0  0  0  0  0  0  0  0  0
    2.8515    1.0786   -0.8801 H   0  0  0  0  0  0  0  0  0  0  0  0
    2.8355    1.0572    0.8960 H   0  0  0  0  0  0  0  0  0  0  0  0
    3.0922   -0.4433   -0.0102 H   0  0  0  0  0  0  0  0  0  0  0  0
   -2.8385    1.0896    0.8755 H   0  0  0  0  0  0  0  0  0  0  0  0
   -2.8298    1.0762   -0.9001 H   0  0  0  0  0  0  0  0  0  0  0  0
   -3.1709   -0.4105    0.0001 H   0  0  0  0  0  0  0  0  0  0  0  0
   -1.0266    2.6667    1.8627 H   0  0  0  0  0  0  0  0  0  0  0  0
   -1.1367    7.7171    1.9045 H   0  0  0  0  0  0  0  0  0  0  0  0
   -2.0220    6.2810    3.5898 H   0  0  0  0  0  0  0  0  0  0  0  0
   -2.9720    3.6119    2.3801 H   0  0  0  0  0  0  0  0  0  0  0  0
   -3.6877    4.4159    3.7723 H   0  0  0  0  0  0  0  0  0  0  0  0
   -3.7453    5.1686    2.1630 H   0  0  0  0  0  0  0  0  0  0  0  0
   -2.0731    2.7380    4.2378 H   0  0  0  0  0  0  0  0  0  0  0  0
   -0.2006    1.3697    5.0182 H   0  0  0  0  0  0  0  0  0  0  0  0
    1.8329    2.5178    5.9107 H   0  0  0  0  0  0  0  0  0  0  0  0
    2.0183    4.9930    5.5926 H   0  0  0  0  0  0  0  0  0  0  0  0
   -0.7844    7.3311   -2.4217 H   0  0  0  0  0  0  0  0  0  0  0  0
   -0.0734    9.3677   -3.6302 H   0  0  0  0  0  0  0  0  0  0  0  0
    2.6579   10.2680   -0.4143 H   0  0  0  0  0  0  0  0  0  0  0  0
    1.4936    8.6179    1.0040 H   0  0  0  0  0  0  0  0  0  0  0  0
    1.5350   12.2983   -4.2644 H   0  0  0  0  0  0  0  0  0  0  0  0
    1.0514    2.7987   -1.8761 H   0  0  0  0  0  0  0  0  0  0  0  0
  1  2  1  0  0  0  0
  1 34  1  0  0  0  0
  1 35  1  0  0  0  0
  1 36  1  0  0  0  0
  2  3  2  0  0  0  0
  2  6  1  0  0  0  0
  3  4  1  0  0  0  0
  3  8  1  0  0  0  0
  4  5  2  0  0  0  0
  4  7  1  0  0  0  0
  5  6  1  0  0  0  0
  7 37  1  0  0  0  0
  7 38  1  0  0  0  0
  7 39  1  0  0  0  0
  8  9  2  0  0  0  0
  8 33  1  0  0  0  0
  9 10  1  0  0  0  0
  9 40  1  0  0  0  0
 10 11  2  0  0  0  0
 10 14  1  0  0  0  0
 11 12  1  0  0  0  0
 11 32  1  0  0  0  0
 12 13  2  0  0  0  0
 12 23  1  0  0  0  0
 13 14  1  0  0  0  0
 13 41  1  0  0  0  0
 14 15  1  0  0  0  0
 15 16  1  0  0  0  0
 15 17  1  0  0  0  0
 15 42  1  0  0  0  0
 16 43  1  0  0  0  0
 16 44  1  0  0  0  0
 16 45  1  0  0  0  0
 17 18  2  0  0  0  0
 17 22  1  0  0  0  0
 18 19  1  0  0  0  0
 18 46  1  0  0  0  0
 19 20  2  0  0  0  0
 19 47  1  0  0  0  0
 20 21  1  0  0  0  0
 20 48  1  0  0  0  0
 21 22  2  0  0  0  0
 21 49  1  0  0  0  0
 23 24  2  0  0  0  0
 23 28  1  0  0  0  0
 24 25  1  0  0  0  0
 24 50  1  0  0  0  0
 25 26  2  0  0  0  0
 25 51  1  0  0  0  0
 26 27  1  0  0  0  0
 26 29  1  0  0  0  0
 27 28  2  0  0  0  0
 27 52  1  0  0  0  0
 28 53  1  0  0  0  0
 29 30  2  0  0  0  0
 29 31  1  0  0  0  0
 31 54  1  0  0  0  0
 32 33  2  0  0  0  0
 33 55  1  0  0  0  0
M  END
>  <DRUGBANK_ID>
DB17543

>  <COMMON_NAME>
PLX51107

>  <CAS_NUMBER>
1627929-55-8

>  <UNII>
W758F1L9ND

>  <SYNONYMS>
Benzoic acid, 4-(6-(3,5-dimethyl-4-isoxazolyl)-1-((1s)-1-(2-pyridinyl)ethyl)-1h-pyrrolo(3,2-b)pyridin-3-yl)-; Brd4 inhibitor plx51107

$$$$
