
 OpenBabel10282417123D

 30 29  0  0  1  0  0  0  0  0999 V2000
    2.4810    1.5008    4.7527 P   0  0  0  0  0  0  0  0  0  0  0  0
    1.1549    1.7910    5.6055 O   0  0  0  0  0  0  0  0  0  0  0  0
    3.7121    1.4192    5.7486 O   0  0  0  0  0  0  0  0  0  0  0  0
    2.7073    2.9195    4.0383 O   0  0  0  0  0  0  0  0  0  0  0  0
   -2.5841    2.9550    3.9468 O   0  0  0  0  0  0  0  0  0  0  0  0
   -0.3618    4.2703    1.2008 O   0  0  0  0  0  0  0  0  0  0  0  0
    0.7381    2.4936    2.7135 O   0  0  0  0  0  0  0  0  0  0  0  0
   -1.4086    6.5726    1.9724 O   0  0  0  0  0  0  0  0  0  0  0  0
   -2.5892    5.6424    5.0529 O   0  0  0  0  0  0  0  0  0  0  0  0
    2.3864    0.3297    3.8426 O   0  0  0  0  0  0  0  0  0  0  0  0
   -3.9443    5.5459    3.2448 O   0  0  0  0  0  0  0  0  0  0  0  0
   -1.4969    2.8877    3.0384 C   0  0  1  0  0  0  0  0  0  0  0  0
   -1.5061    4.1439    2.0818 C   0  0  1  0  0  0  0  0  0  0  0  0
   -0.1629    2.7855    3.7794 C   0  0  1  0  0  0  0  0  0  0  0  0
   -1.5322    5.4676    2.8756 C   0  0  2  0  0  0  0  0  0  0  0  0
   -0.0767    1.6977    4.8688 C   0  0  0  0  0  0  0  0  0  0  0  0
   -2.8028    5.5621    3.7154 C   0  0  0  0  0  0  0  0  0  0  0  0
    4.3200    0.7463    5.3768 H   0  0  0  0  0  0  0  0  0  0  0  0
    2.2541    3.6401    4.5224 H   0  0  0  0  0  0  0  0  0  0  0  0
   -2.6472    2.1486    4.4843 H   0  0  0  0  0  0  0  0  0  0  0  0
   -0.4210    3.5855    0.5096 H   0  0  0  0  0  0  0  0  0  0  0  0
    1.6608    2.7473    2.9033 H   0  0  0  0  0  0  0  0  0  0  0  0
   -0.7081    6.3070    1.3426 H   0  0  0  0  0  0  0  0  0  0  0  0
   -1.6558    5.6511    5.3316 H   0  0  0  0  0  0  0  0  0  0  0  0
   -1.6150    1.9853    2.4237 H   0  0  0  0  0  0  0  0  0  0  0  0
   -2.3790    4.0811    1.4230 H   0  0  0  0  0  0  0  0  0  0  0  0
    0.0725    3.7402    4.2681 H   0  0  0  0  0  0  0  0  0  0  0  0
   -0.6448    5.5435    3.5108 H   0  0  0  0  0  0  0  0  0  0  0  0
   -0.1415    0.7040    4.4181 H   0  0  0  0  0  0  0  0  0  0  0  0
   -0.8821    1.7982    5.6028 H   0  0  0  0  0  0  0  0  0  0  0  0
  1  2  1  0  0  0  0
  1  3  1  0  0  0  0
  1  4  1  0  0  0  0
  1 10  2  0  0  0  0
  2 16  1  0  0  0  0
  3 18  1  0  0  0  0
  4 19  1  0  0  0  0
  5 20  1  0  0  0  0
  6 21  1  0  0  0  0
  7 22  1  0  0  0  0
  8 23  1  0  0  0  0
  9 17  1  0  0  0  0
  9 24  1  0  0  0  0
 11 17  2  0  0  0  0
 12  5  1  0  0  0  0
 12 14  1  0  0  0  0
 12 25  1  6  0  0  0
 13 15  1  0  0  0  0
 13 26  1  6  0  0  0
 13 12  1  0  0  0  0
 13  6  1  0  0  0  0
 14  7  1  0  0  0  0
 14 16  1  0  0  0  0
 14 27  1  1  0  0  0
 15  8  1  0  0  0  0
 15 17  1  0  0  0  0
 15 28  1  1  0  0  0
 16 29  1  0  0  0  0
 16 30  1  0  0  0  0
M  END
>  <DRUGBANK_ID>
DB02076

>  <SECONDARY_ACCESSION_NUMBERS>
EXPT00290

>  <COMMON_NAME>
6-phospho-D-gluconic acid

>  <CAS_NUMBER>
921-62-0

>  <UNII>
W31WK7B8U0

$$$$
