
 OpenBabel10282417233D

 37 40  0  0  1  0  0  0  0  0999 V2000
   -2.3242    0.0922   -0.0006 C   0  0  0  0  0  0  0  0  0  0  0  0
   -1.5687    1.1583    0.0049 N   0  0  0  0  0  0  0  0  0  0  0  0
   -0.2699    0.7047    0.0069 C   0  0  0  0  0  0  0  0  0  0  0  0
   -0.2223   -0.6834    0.0092 C   0  0  0  0  0  0  0  0  0  0  0  0
   -1.5468   -1.0490    0.0046 N   0  0  0  0  0  0  0  0  0  0  0  0
    0.9304    1.4288   -0.0022 C   0  0  0  0  0  0  0  0  0  0  0  0
    2.1441    0.7294   -0.0115 C   0  0  0  0  0  0  0  0  0  0  0  0
    2.1632   -0.6674   -0.0019 C   0  0  0  0  0  0  0  0  0  0  0  0
    0.9746   -1.4115    0.0092 C   0  0  0  0  0  0  0  0  0  0  0  0
   -3.6674   -0.0236   -0.0517 N   0  0  0  0  0  0  0  0  0  0  0  0
   -4.6309    1.0857   -0.0474 C   0  0  2  0  0  0  0  0  0  0  0  0
   -4.3274    2.2523   -0.9977 C   0  0  0  0  0  0  0  0  0  0  0  0
   -3.8581    3.5157   -0.2826 C   0  0  0  0  0  0  0  0  0  0  0  0
   -4.8534    3.9646    0.7857 C   0  0  0  0  0  0  0  0  0  0  0  0
   -5.2525    2.8440    1.7142 C   0  0  0  0  0  0  0  0  0  0  0  0
   -5.8311    3.1649    2.9568 C   0  0  0  0  0  0  0  0  0  0  0  0
   -6.2215    2.1598    3.8412 C   0  0  0  0  0  0  0  0  0  0  0  0
   -6.0524    0.8259    3.4892 C   0  0  0  0  0  0  0  0  0  0  0  0
   -5.5074    0.4964    2.2489 C   0  0  0  0  0  0  0  0  0  0  0  0
   -5.1008    1.4908    1.3424 C   0  0  0  0  0  0  0  0  0  0  0  0
   -1.8937   -1.9922   -0.0212 H   0  0  0  0  0  0  0  0  0  0  0  0
    0.9041    2.5119   -0.0060 H   0  0  0  0  0  0  0  0  0  0  0  0
    3.0790    1.2847   -0.0265 H   0  0  0  0  0  0  0  0  0  0  0  0
    3.1216   -1.1846   -0.0037 H   0  0  0  0  0  0  0  0  0  0  0  0
    0.9972   -2.4962    0.0157 H   0  0  0  0  0  0  0  0  0  0  0  0
   -4.1075   -0.9307    0.0191 H   0  0  0  0  0  0  0  0  0  0  0  0
   -5.5267    0.6284   -0.4936 H   0  0  0  0  0  0  0  0  0  0  0  0
   -5.2631    2.5094   -1.5166 H   0  0  0  0  0  0  0  0  0  0  0  0
   -3.6234    1.9648   -1.7861 H   0  0  0  0  0  0  0  0  0  0  0  0
   -2.8820    3.3443    0.1806 H   0  0  0  0  0  0  0  0  0  0  0  0
   -3.7257    4.3221   -1.0141 H   0  0  0  0  0  0  0  0  0  0  0  0
   -4.3940    4.7766    1.3647 H   0  0  0  0  0  0  0  0  0  0  0  0
   -5.7561    4.3753    0.3149 H   0  0  0  0  0  0  0  0  0  0  0  0
   -5.9800    4.2043    3.2446 H   0  0  0  0  0  0  0  0  0  0  0  0
   -6.6550    2.4160    4.8044 H   0  0  0  0  0  0  0  0  0  0  0  0
   -6.3521    0.0374    4.1734 H   0  0  0  0  0  0  0  0  0  0  0  0
   -5.4099   -0.5516    1.9824 H   0  0  0  0  0  0  0  0  0  0  0  0
  1  2  2  0  0  0  0
  1  5  1  0  0  0  0
  1 10  1  0  0  0  0
  2  3  1  0  0  0  0
  3  4  1  0  0  0  0
  4  5  1  0  0  0  0
  5 21  1  0  0  0  0
  6  7  1  0  0  0  0
  6  3  2  0  0  0  0
  6 22  1  0  0  0  0
  7  8  2  0  0  0  0
  7 23  1  0  0  0  0
  8  9  1  0  0  0  0
  8 24  1  0  0  0  0
  9  4  2  0  0  0  0
  9 25  1  0  0  0  0
 10 26  1  0  0  0  0
 11 12  1  0  0  0  0
 11 20  1  0  0  0  0
 11 10  1  0  0  0  0
 11 27  1  6  0  0  0
 12 13  1  0  0  0  0
 12 28  1  0  0  0  0
 12 29  1  0  0  0  0
 13 14  1  0  0  0  0
 13 30  1  0  0  0  0
 13 31  1  0  0  0  0
 14 15  1  0  0  0  0
 14 32  1  0  0  0  0
 14 33  1  0  0  0  0
 15 16  1  0  0  0  0
 15 20  2  0  0  0  0
 16 17  2  0  0  0  0
 16 34  1  0  0  0  0
 17 18  1  0  0  0  0
 17 35  1  0  0  0  0
 18 19  2  0  0  0  0
 18 36  1  0  0  0  0
 19 20  1  0  0  0  0
 19 37  1  0  0  0  0
M  END
>  <DRUGBANK_ID>
DB16897

>  <COMMON_NAME>
NS-8593

>  <CAS_NUMBER>
875755-39-8

>  <UNII>
STF2BZ33XF

$$$$
