
 OpenBabel10282417243D

243246  0  0  1  0  0  0  0  0999 V2000
    0.9407   -0.0577    0.0562 Ac  0  1  0  0  0  0  0  0  0  0  0  0
   10.3257   -8.8626    2.4275 C   0  0  0  0  0  0  0  0  0  0  0  0
   11.7653   -8.4621    2.7063 C   0  0  0  0  0  0  0  0  0  0  0  0
   12.4649   -9.5800    3.4622 C   0  0  0  0  0  0  0  0  0  0  0  0
   12.4853   -8.2117    1.3913 C   0  0  0  0  0  0  0  0  0  0  0  0
   11.7796   -7.0810    0.6606 C   0  0  2  0  0  0  0  0  0  0  0  0
   12.7289   -6.4122   -0.2407 N   0  0  0  0  0  0  0  0  0  0  0  0
   13.5145   -7.2396   -1.1676 C   0  0  0  0  0  0  0  0  0  0  0  0
   14.3401   -6.6924   -1.9640 O   0  0  0  0  0  0  0  0  0  0  0  0
   13.3395   -8.7495   -1.1735 C   0  0  0  0  0  0  0  0  0  0  0  0
   13.6745   -9.2868    0.1531 N   0  0  0  0  0  0  0  0  0  0  0  0
   12.6629  -10.0233    0.9246 C   0  0  0  0  0  0  0  0  0  0  0  0
   12.9525  -10.4879    2.0716 O   0  0  0  0  0  0  0  0  0  0  0  0
   11.2743  -10.1921    0.3300 C   0  0  2  0  0  0  0  0  0  0  0  0
   11.3064  -11.2796   -0.7315 C   0  0  0  0  0  0  0  0  0  0  0  0
   10.5630  -12.4809   -0.1706 C   0  0  0  0  0  0  0  0  0  0  0  0
   10.6025  -12.8396    1.1569 C   0  0  0  0  0  0  0  0  0  0  0  0
    9.7714  -13.9268    1.4475 C   0  0  0  0  0  0  0  0  0  0  0  0
    9.1120  -14.3911    0.3519 C   0  0  0  0  0  0  0  0  0  0  0  0
    9.4869  -13.4874   -1.0632 S   0  0  0  0  0  0  0  0  0  0  0  0
   10.8449   -8.9251   -0.2794 N   0  0  0  0  0  0  0  0  0  0  0  0
    9.6311   -8.2513    0.2038 C   0  0  0  0  0  0  0  0  0  0  0  0
    9.2599   -7.1559   -0.3231 O   0  0  0  0  0  0  0  0  0  0  0  0
    8.8239   -8.7886    1.3743 C   0  0  2  0  0  0  0  0  0  0  0  0
    7.4091   -9.0998    0.9138 C   0  0  0  0  0  0  0  0  0  0  0  0
    6.9121   -7.9200    0.0944 C   0  0  0  0  0  0  0  0  0  0  0  0
    5.6328   -7.5701    0.1600 C   0  0  0  0  0  0  0  0  0  0  0  0
    5.1905   -6.4194   -0.4468 C   0  0  0  0  0  0  0  0  0  0  0  0
    6.0330   -5.6568   -1.2070 C   0  0  0  0  0  0  0  0  0  0  0  0
    7.3096   -5.9945   -1.1875 C   0  0  0  0  0  0  0  0  0  0  0  0
    7.8055   -7.2300   -0.7083 C   0  0  0  0  0  0  0  0  0  0  0  0
    8.7807   -7.7807    2.4435 N   0  0  0  0  0  0  0  0  0  0  0  0
    9.3253   -8.0949    3.7722 C   0  0  0  0  0  0  0  0  0  0  0  0
    9.2880   -7.2235    4.6966 O   0  0  0  0  0  0  0  0  0  0  0  0
    9.9328   -9.4621    4.0408 C   0  0  2  0  0  0  0  0  0  0  0  0
    9.2887  -10.0689    5.2766 C   0  0  0  0  0  0  0  0  0  0  0  0
    8.8168  -11.4733    4.9367 C   0  0  0  0  0  0  0  0  0  0  0  0
   10.0036  -12.3130    4.4930 C   0  0  0  0  0  0  0  0  0  0  0  0
   10.3630  -13.5287    5.2373 N   0  0  0  0  0  0  0  0  0  0  0  0
   10.6851  -11.9642    3.4787 O   0  0  0  0  0  0  0  0  0  0  0  0
   11.3793   -9.3208    4.2615 N   0  0  0  0  0  0  0  0  0  0  0  0
   12.3287  -10.0122    3.3774 C   0  0  0  0  0  0  0  0  0  0  0  0
   13.5792   -9.8900    3.5682 O   0  0  0  0  0  0  0  0  0  0  0  0
   11.8133  -10.8730    2.2355 C   0  0  2  0  0  0  0  0  0  0  0  0
   11.6230  -10.0117    0.9976 C   0  0  0  0  0  0  0  0  0  0  0  0
   10.6551  -10.9594    0.3081 C   0  0  0  0  0  0  0  0  0  0  0  0
    9.4472  -11.1885    1.2019 C   0  0  0  0  0  0  0  0  0  0  0  0
    8.1033  -10.8269    0.7283 N   0  0  0  0  0  0  0  0  0  0  0  0
    9.5990  -11.6927    2.3585 O   0  0  0  0  0  0  0  0  0  0  0  0
   10.5271  -11.4739    2.6168 N   0  0  0  0  0  0  0  0  0  0  0  0
   10.3828  -12.9362    2.6592 C   0  0  0  0  0  0  0  0  0  0  0  0
    9.2708  -13.4557    2.9889 O   0  0  0  0  0  0  0  0  0  0  0  0
   11.5636  -13.8269    2.3089 C   0  0  2  0  0  0  0  0  0  0  0  0
   11.5893  -14.1505    0.8408 C   0  0  0  0  0  0  0  0  0  0  0  0
   12.5323  -15.3894    0.7718 C   0  0  0  0  0  0  0  0  0  0  0  0
   12.2401  -16.1278    2.0806 C   0  0  0  0  0  0  0  0  0  0  0  0
   11.4252  -15.1646    2.9137 N   0  0  0  0  0  0  0  0  0  0  0  0
   10.6381  -15.5005    4.1089 C   0  0  0  0  0  0  0  0  0  0  0  0
   10.6015  -16.6992    4.5295 O   0  0  0  0  0  0  0  0  0  0  0  0
   10.0196  -14.2106    4.6228 C   0  0  2  0  0  0  0  0  0  0  0  0
   11.0943  -13.3603    5.2805 C   0  0  0  0  0  0  0  0  0  0  0  0
   12.0445  -12.9046    4.1851 C   0  0  0  0  0  0  0  0  0  0  0  0
   11.2911  -12.0382    3.1890 C   0  0  0  0  0  0  0  0  0  0  0  0
   10.7214  -10.8234    3.9033 C   0  0  0  0  0  0  0  0  0  0  0  0
   11.8180  -10.0458    4.4981 N   0  0  0  0  0  0  0  0  0  0  0  0
    8.9743  -14.5265    5.6069 N   0  0  0  0  0  0  0  0  0  0  0  0
    7.5877  -14.1005    5.3686 C   0  0  0  0  0  0  0  0  0  0  0  0
    6.6839  -14.3736    6.2193 O   0  0  0  0  0  0  0  0  0  0  0  0
    7.2349  -13.3334    4.1047 C   0  0  2  0  0  0  0  0  0  0  0  0
    8.1506  -13.7472    2.9862 C   0  0  0  0  0  0  0  0  0  0  0  0
    7.9413  -12.6223    1.9280 C   0  0  0  0  0  0  0  0  0  0  0  0
    7.7033  -11.3746    2.7826 C   0  0  0  0  0  0  0  0  0  0  0  0
    7.4938  -11.8843    4.1905 N   0  0  0  0  0  0  0  0  0  0  0  0
    7.5399  -11.0813    5.4210 C   0  0  0  0  0  0  0  0  0  0  0  0
    7.7742   -9.8338    5.3573 O   0  0  0  0  0  0  0  0  0  0  0  0
    7.1483  -11.7284    6.7394 C   0  0  2  0  0  0  0  0  0  0  0  0
    6.6768  -13.1509    6.4854 C   0  0  0  0  0  0  0  0  0  0  0  0
    6.6831  -13.7233    5.0773 C   0  0  0  0  0  0  0  0  0  0  0  0
    7.9783  -14.4844    4.8456 C   0  0  0  0  0  0  0  0  0  0  0  0
    8.0841  -15.5797    5.8202 N   0  0  0  0  0  0  0  0  0  0  0  0
    8.1750  -16.9712    5.3551 C   0  0  0  0  0  0  0  0  0  0  0  0
    8.2807  -18.0665    6.3298 N   0  0  0  0  0  0  0  0  0  0  0  0
    8.1616  -17.2363    4.0665 N   0  0  0  0  0  0  0  0  0  0  0  0
    6.0628  -10.9560    7.3609 N   0  0  0  0  0  0  0  0  0  0  0  0
    6.2557  -10.3539    8.6880 C   0  0  0  0  0  0  0  0  0  0  0  0
    5.3173   -9.6862    9.2253 O   0  0  0  0  0  0  0  0  0  0  0  0
    7.5775  -10.5299    9.4176 C   0  0  0  0  0  0  0  0  0  0  0  0
    7.8292  -11.9615    9.6372 N   0  0  0  0  0  0  0  0  0  0  0  0
    6.9540  -12.5630   10.6537 C   0  0  0  0  0  0  0  0  0  0  0  0
    5.8381  -13.4256   10.1130 C   0  0  0  0  0  0  0  0  0  0  0  0
    6.2446  -14.7972    9.8325 N   0  0  0  0  0  0  0  0  0  0  0  0
    5.0380  -15.6236    9.6840 C   0  0  0  0  0  0  0  0  0  0  0  0
    4.2335  -15.1357    8.4901 C   0  0  0  0  0  0  0  0  0  0  0  0
    3.9729  -16.0121    7.4036 O   0  5  0  0  0  0  0  0  0  0  0  0
    3.7943  -13.9434    8.4642 O   0  0  0  0  0  0  0  0  0  0  0  0
    7.0472  -14.9142    8.6076 C   0  0  0  0  0  0  0  0  0  0  0  0
    7.9860  -16.1040    8.6673 C   0  0  0  0  0  0  0  0  0  0  0  0
    9.2835  -15.7586    9.2583 N   0  0  0  0  0  0  0  0  0  0  0  0
    9.9166  -16.9757    9.7859 C   0  0  0  0  0  0  0  0  0  0  0  0
   10.1352  -17.9652    8.6529 C   0  0  0  0  0  0  0  0  0  0  0  0
   11.4481  -18.4048    8.3376 O   0  5  0  0  0  0  0  0  0  0  0  0
    9.1429  -18.3989    7.9878 O   0  0  0  0  0  0  0  0  0  0  0  0
   10.1587  -15.1571    8.2417 C   0  0  0  0  0  0  0  0  0  0  0  0
   11.2745  -14.2945    8.7824 C   0  0  0  0  0  0  0  0  0  0  0  0
   10.8678  -12.9225    9.0620 N   0  0  0  0  0  0  0  0  0  0  0  0
   10.0708  -12.4286    7.9299 C   0  0  0  0  0  0  0  0  0  0  0  0
    8.8051  -13.2602    7.8004 C   0  0  0  0  0  0  0  0  0  0  0  0
    7.5329  -12.6384    7.9072 O   0  5  0  0  0  0  0  0  0  0  0  0
    8.8853  -14.5121    7.5964 O   0  0  0  0  0  0  0  0  0  0  0  0
   10.0654  -12.8059   10.2879 C   0  0  0  0  0  0  0  0  0  0  0  0
    9.1266  -11.6160   10.2281 C   0  0  0  0  0  0  0  0  0  0  0  0
   11.2484   -6.0781    1.6717 C   0  0  0  0  0  0  0  0  0  0  0  0
   10.0024   -5.8350    1.7313 O   0  0  0  0  0  0  0  0  0  0  0  0
   12.1759   -5.3893    2.5806 N   0  0  0  0  0  0  0  0  0  0  0  0
   13.6171   -5.6704    2.5117 C   0  0  1  0  0  0  0  0  0  0  0  0
   14.3683   -4.3893    2.1876 C   0  0  0  0  0  0  0  0  0  0  0  0
   14.1045   -3.3588    3.2734 C   0  0  0  0  0  0  0  0  0  0  0  0
   14.6704   -4.0033    4.8673 S   0  0  0  0  0  0  0  0  0  0  0  0
   16.4449   -4.3494    4.7824 C   0  0  0  0  0  0  0  0  0  0  0  0
   14.4047   -2.9656    5.9604 O   0  0  0  0  0  0  0  0  0  0  0  0
   13.9140   -5.2931    5.1936 O   0  0  0  0  0  0  0  0  0  0  0  0
   14.0924   -6.2116    3.8502 C   0  0  0  0  0  0  0  0  0  0  0  0
   14.6973   -7.5490    3.9293 N   0  0  0  0  0  0  0  0  0  0  0  0
   13.9667   -5.5078    4.9010 O   0  0  0  0  0  0  0  0  0  0  0  0
   10.3117   -9.7552    1.8376 H   0  0  0  0  0  0  0  0  0  0  0  0
    9.8333   -8.0757    1.8954 H   0  0  0  0  0  0  0  0  0  0  0  0
    9.8189   -9.0388    3.3532 H   0  0  0  0  0  0  0  0  0  0  0  0
   11.7793   -7.5695    3.2962 H   0  0  0  0  0  0  0  0  0  0  0  0
   12.4509  -10.4726    2.8723 H   0  0  0  0  0  0  0  0  0  0  0  0
   13.4783   -9.2980    3.6584 H   0  0  0  0  0  0  0  0  0  0  0  0
   11.9581   -9.7562    4.3879 H   0  0  0  0  0  0  0  0  0  0  0  0
   13.4986   -7.9298    1.5875 H   0  0  0  0  0  0  0  0  0  0  0  0
   12.4713   -9.1044    0.8014 H   0  0  0  0  0  0  0  0  0  0  0  0
   10.9657   -7.4779    0.0905 H   0  0  0  0  0  0  0  0  0  0  0  0
   12.8464   -5.3990   -0.2367 H   0  0  0  0  0  0  0  0  0  0  0  0
   12.3240   -8.9899   -1.4097 H   0  0  0  0  0  0  0  0  0  0  0  0
   13.9881   -9.1808   -1.9072 H   0  0  0  0  0  0  0  0  0  0  0  0
   14.6087   -9.1485    0.5384 H   0  0  0  0  0  0  0  0  0  0  0  0
   10.5867  -10.4675    1.1022 H   0  0  0  0  0  0  0  0  0  0  0  0
   10.8665  -10.9912   -1.6632 H   0  0  0  0  0  0  0  0  0  0  0  0
   12.3335  -11.5362   -0.8862 H   0  0  0  0  0  0  0  0  0  0  0  0
   11.2038  -12.3409    1.8881 H   0  0  0  0  0  0  0  0  0  0  0  0
    9.6658  -14.3477    2.4255 H   0  0  0  0  0  0  0  0  0  0  0  0
    8.4381  -15.2221    0.3684 H   0  0  0  0  0  0  0  0  0  0  0  0
   11.3892   -8.5135   -1.0375 H   0  0  0  0  0  0  0  0  0  0  0  0
    9.2831   -9.6815    1.7442 H   0  0  0  0  0  0  0  0  0  0  0  0
    7.3828   -9.9862    0.3152 H   0  0  0  0  0  0  0  0  0  0  0  0
    6.7810   -9.2291    1.7703 H   0  0  0  0  0  0  0  0  0  0  0  0
    4.9402   -8.1898    0.6903 H   0  0  0  0  0  0  0  0  0  0  0  0
    4.1720   -6.1159   -0.3226 H   0  0  0  0  0  0  0  0  0  0  0  0
    5.6772   -4.8308   -1.7867 H   0  0  0  0  0  0  0  0  0  0  0  0
    8.0181   -5.2845   -1.5599 H   0  0  0  0  0  0  0  0  0  0  0  0
    8.7821   -7.5979   -0.9446 H   0  0  0  0  0  0  0  0  0  0  0  0
    8.3728   -6.8633    2.2634 H   0  0  0  0  0  0  0  0  0  0  0  0
    9.7611  -10.1003    3.1993 H   0  0  0  0  0  0  0  0  0  0  0  0
   10.0078  -10.1160    6.0675 H   0  0  0  0  0  0  0  0  0  0  0  0
    8.4532   -9.4778    5.5889 H   0  0  0  0  0  0  0  0  0  0  0  0
    8.3684  -11.9178    5.8006 H   0  0  0  0  0  0  0  0  0  0  0  0
    8.0976  -11.4262    4.1458 H   0  0  0  0  0  0  0  0  0  0  0  0
   11.1594  -14.0922    4.9396 H   0  0  0  0  0  0  0  0  0  0  0  0
    9.8160  -13.8087    6.0514 H   0  0  0  0  0  0  0  0  0  0  0  0
   11.7242   -8.7430    5.0280 H   0  0  0  0  0  0  0  0  0  0  0  0
   12.5207  -11.6479    2.0256 H   0  0  0  0  0  0  0  0  0  0  0  0
   11.1355   -9.0778    1.1847 H   0  0  0  0  0  0  0  0  0  0  0  0
   12.4734   -9.8504    0.3685 H   0  0  0  0  0  0  0  0  0  0  0  0
   10.3365  -10.5313   -0.6193 H   0  0  0  0  0  0  0  0  0  0  0  0
   11.1427  -11.8933    0.1210 H   0  0  0  0  0  0  0  0  0  0  0  0
    7.2927  -10.9807    1.3280 H   0  0  0  0  0  0  0  0  0  0  0  0
    7.9815  -10.4223   -0.2000 H   0  0  0  0  0  0  0  0  0  0  0  0
    9.7346  -10.8762    2.8519 H   0  0  0  0  0  0  0  0  0  0  0  0
   12.4232  -13.2868    2.6471 H   0  0  0  0  0  0  0  0  0  0  0  0
   10.6178  -14.3366    0.4328 H   0  0  0  0  0  0  0  0  0  0  0  0
   11.9850  -13.3339    0.2738 H   0  0  0  0  0  0  0  0  0  0  0  0
   12.3671  -15.9935   -0.0957 H   0  0  0  0  0  0  0  0  0  0  0  0
   13.5579  -15.0881    0.7224 H   0  0  0  0  0  0  0  0  0  0  0  0
   11.7179  -17.0461    1.9106 H   0  0  0  0  0  0  0  0  0  0  0  0
   13.1523  -16.3765    2.5816 H   0  0  0  0  0  0  0  0  0  0  0  0
    9.5887  -13.6712    3.8054 H   0  0  0  0  0  0  0  0  0  0  0  0
   10.6933  -12.5052    5.7834 H   0  0  0  0  0  0  0  0  0  0  0  0
   11.6246  -13.9702    5.9817 H   0  0  0  0  0  0  0  0  0  0  0  0
   12.8426  -12.3386    4.6181 H   0  0  0  0  0  0  0  0  0  0  0  0
   12.4455  -13.7598    3.6823 H   0  0  0  0  0  0  0  0  0  0  0  0
   11.9600  -11.7174    2.4179 H   0  0  0  0  0  0  0  0  0  0  0  0
   10.4929  -12.6043    2.7561 H   0  0  0  0  0  0  0  0  0  0  0  0
   10.1911  -10.2135    3.2021 H   0  0  0  0  0  0  0  0  0  0  0  0
   10.0526  -11.1442    4.6744 H   0  0  0  0  0  0  0  0  0  0  0  0
   11.4357   -9.2306    4.9774 H   0  0  0  0  0  0  0  0  0  0  0  0
   12.3235  -10.6272    5.1665 H   0  0  0  0  0  0  0  0  0  0  0  0
    9.2110  -15.0413    6.4550 H   0  0  0  0  0  0  0  0  0  0  0  0
    6.1958  -13.5406    3.9556 H   0  0  0  0  0  0  0  0  0  0  0  0
    9.1702  -13.8532    3.2931 H   0  0  0  0  0  0  0  0  0  0  0  0
    7.8705  -14.7021    2.5930 H   0  0  0  0  0  0  0  0  0  0  0  0
    8.7687  -12.5190    1.2575 H   0  0  0  0  0  0  0  0  0  0  0  0
    7.0933  -12.8308    1.3096 H   0  0  0  0  0  0  0  0  0  0  0  0
    8.5248  -10.6914    2.7255 H   0  0  0  0  0  0  0  0  0  0  0  0
    6.8362  -10.8480    2.4425 H   0  0  0  0  0  0  0  0  0  0  0  0
    7.9945  -11.7446    7.3940 H   0  0  0  0  0  0  0  0  0  0  0  0
    6.7538  -13.9482    7.1948 H   0  0  0  0  0  0  0  0  0  0  0  0
    5.7651  -12.6151    6.6485 H   0  0  0  0  0  0  0  0  0  0  0  0
    5.8528  -14.3877    4.9586 H   0  0  0  0  0  0  0  0  0  0  0  0
    6.6061  -12.9260    4.3678 H   0  0  0  0  0  0  0  0  0  0  0  0
    7.9827  -14.8873    3.8543 H   0  0  0  0  0  0  0  0  0  0  0  0
    8.8085  -13.8199    4.9642 H   0  0  0  0  0  0  0  0  0  0  0  0
    8.0944  -15.3742    6.8193 H   0  0  0  0  0  0  0  0  0  0  0  0
    8.3438  -19.0321    6.0070 H   0  0  0  0  0  0  0  0  0  0  0  0
    8.2910  -17.8610    7.3288 H   0  0  0  0  0  0  0  0  0  0  0  0
    8.2247  -18.2018    3.7438 H   0  0  0  0  0  0  0  0  0  0  0  0
    5.1759  -10.8379    6.8713 H   0  0  0  0  0  0  0  0  0  0  0  0
    8.3683  -10.1151    8.8281 H   0  0  0  0  0  0  0  0  0  0  0  0
    7.5340  -10.0267   10.3609 H   0  0  0  0  0  0  0  0  0  0  0  0
    7.5758  -13.2117   11.2345 H   0  0  0  0  0  0  0  0  0  0  0  0
    6.5139  -11.7706   11.2223 H   0  0  0  0  0  0  0  0  0  0  0  0
    5.0819  -13.4706   10.8687 H   0  0  0  0  0  0  0  0  0  0  0  0
    5.4804  -12.9863    9.2053 H   0  0  0  0  0  0  0  0  0  0  0  0
    5.3211  -16.6439    9.5303 H   0  0  0  0  0  0  0  0  0  0  0  0
    4.4428  -15.5481   10.5699 H   0  0  0  0  0  0  0  0  0  0  0  0
    6.3805  -15.0547    7.7825 H   0  0  0  0  0  0  0  0  0  0  0  0
    7.6247  -14.0219    8.4842 H   0  0  0  0  0  0  0  0  0  0  0  0
    7.5318  -16.8494    9.2861 H   0  0  0  0  0  0  0  0  0  0  0  0
    8.1459  -16.4667    7.6734 H   0  0  0  0  0  0  0  0  0  0  0  0
   10.8586  -16.7251   10.2273 H   0  0  0  0  0  0  0  0  0  0  0  0
    9.2817  -17.4158   10.5263 H   0  0  0  0  0  0  0  0  0  0  0  0
   10.6322  -15.9733    7.7373 H   0  0  0  0  0  0  0  0  0  0  0  0
    9.5532  -14.5514    7.6003 H   0  0  0  0  0  0  0  0  0  0  0  0
   11.5831  -14.7262    9.7116 H   0  0  0  0  0  0  0  0  0  0  0  0
   12.0651  -14.2729    8.0616 H   0  0  0  0  0  0  0  0  0  0  0  0
    9.8092  -11.4047    8.0976 H   0  0  0  0  0  0  0  0  0  0  0  0
   10.6432  -12.5076    7.0294 H   0  0  0  0  0  0  0  0  0  0  0  0
    9.4760  -13.6932   10.3883 H   0  0  0  0  0  0  0  0  0  0  0  0
   10.7230  -12.6880   11.1237 H   0  0  0  0  0  0  0  0  0  0  0  0
    9.5808  -10.8706    9.6093 H   0  0  0  0  0  0  0  0  0  0  0  0
    8.9667  -11.2533   11.2220 H   0  0  0  0  0  0  0  0  0  0  0  0
   11.8194   -4.7162    3.2591 H   0  0  0  0  0  0  0  0  0  0  0  0
   13.8028   -6.3958    1.7474 H   0  0  0  0  0  0  0  0  0  0  0  0
   15.4173   -4.5939    2.1375 H   0  0  0  0  0  0  0  0  0  0  0  0
   14.0337   -4.0083    1.2454 H   0  0  0  0  0  0  0  0  0  0  0  0
   14.6332   -2.4570    3.0452 H   0  0  0  0  0  0  0  0  0  0  0  0
   13.0554   -3.1542    3.3235 H   0  0  0  0  0  0  0  0  0  0  0  0
   16.9737   -3.4476    4.5542 H   0  0  0  0  0  0  0  0  0  0  0  0
   16.7795   -4.7304    5.7246 H   0  0  0  0  0  0  0  0  0  0  0  0
   16.6307   -5.0748    4.0181 H   0  0  0  0  0  0  0  0  0  0  0  0
   15.0162   -7.9122    4.8275 H   0  0  0  0  0  0  0  0  0  0  0  0
   14.7981   -8.1139    3.0860 H   0  0  0  0  0  0  0  0  0  0  0  0
  2  3  1  0  0  0  0
  2125  1  0  0  0  0
  2126  1  0  0  0  0
  2127  1  0  0  0  0
  3  4  1  0  0  0  0
  3  5  1  0  0  0  0
  3128  1  0  0  0  0
  4129  1  0  0  0  0
  4130  1  0  0  0  0
  4131  1  0  0  0  0
  5132  1  0  0  0  0
  5133  1  0  0  0  0
  6112  1  0  0  0  0
  6134  1  6  0  0  0
  6  7  1  0  0  0  0
  6  5  1  0  0  0  0
  7  8  1  0  0  0  0
  7135  1  0  0  0  0
  8  9  2  0  0  0  0
  8 10  1  0  0  0  0
 10 11  1  0  0  0  0
 10136  1  0  0  0  0
 10137  1  0  0  0  0
 11 12  1  0  0  0  0
 11138  1  0  0  0  0
 12 13  2  0  0  0  0
 14 21  1  0  0  0  0
 14139  1  1  0  0  0
 14 15  1  0  0  0  0
 14 12  1  0  0  0  0
 15 16  1  0  0  0  0
 15140  1  0  0  0  0
 15141  1  0  0  0  0
 16 17  2  0  0  0  0
 16 20  1  0  0  0  0
 17 18  1  0  0  0  0
 17142  1  0  0  0  0
 18 19  2  0  0  0  0
 18143  1  0  0  0  0
 19 20  1  0  0  0  0
 19144  1  0  0  0  0
 21 22  1  0  0  0  0
 21145  1  0  0  0  0
 22 23  2  0  0  0  0
 24 32  1  0  0  0  0
 24146  1  1  0  0  0
 24 25  1  0  0  0  0
 24 22  1  0  0  0  0
 25 26  1  0  0  0  0
 25147  1  0  0  0  0
 25148  1  0  0  0  0
 26 27  2  0  0  0  0
 26 31  1  0  0  0  0
 27 28  1  0  0  0  0
 27149  1  0  0  0  0
 28 29  2  0  0  0  0
 28150  1  0  0  0  0
 29 30  1  0  0  0  0
 29151  1  0  0  0  0
 30 31  2  0  0  0  0
 30152  1  0  0  0  0
 31153  1  0  0  0  0
 32 33  1  0  0  0  0
 32154  1  0  0  0  0
 33 34  2  0  0  0  0
 35 41  1  0  0  0  0
 35155  1  6  0  0  0
 35 36  1  0  0  0  0
 35 33  1  0  0  0  0
 36 37  1  0  0  0  0
 36156  1  0  0  0  0
 36157  1  0  0  0  0
 37 38  1  0  0  0  0
 37158  1  0  0  0  0
 37159  1  0  0  0  0
 38 39  1  0  0  0  0
 38 40  2  0  0  0  0
 39160  1  0  0  0  0
 39161  1  0  0  0  0
 41 42  1  0  0  0  0
 41162  1  0  0  0  0
 42 43  2  0  0  0  0
 44 50  1  0  0  0  0
 44163  1  6  0  0  0
 44 45  1  0  0  0  0
 44 42  1  0  0  0  0
 45 46  1  0  0  0  0
 45164  1  0  0  0  0
 45165  1  0  0  0  0
 46 47  1  0  0  0  0
 46166  1  0  0  0  0
 46167  1  0  0  0  0
 47 48  1  0  0  0  0
 47 49  2  0  0  0  0
 48168  1  0  0  0  0
 48169  1  0  0  0  0
 50 51  1  0  0  0  0
 50170  1  0  0  0  0
 51 52  2  0  0  0  0
 53 51  1  0  0  0  0
 53 54  1  0  0  0  0
 53 57  1  0  0  0  0
 53171  1  1  0  0  0
 54 55  1  0  0  0  0
 54172  1  0  0  0  0
 54173  1  0  0  0  0
 55 56  1  0  0  0  0
 55174  1  0  0  0  0
 55175  1  0  0  0  0
 56 57  1  0  0  0  0
 56176  1  0  0  0  0
 56177  1  0  0  0  0
 57 58  1  0  0  0  0
 58 59  2  0  0  0  0
 60 66  1  0  0  0  0
 60178  1  6  0  0  0
 60 61  1  0  0  0  0
 60 58  1  0  0  0  0
 61 62  1  0  0  0  0
 61179  1  0  0  0  0
 61180  1  0  0  0  0
 62 63  1  0  0  0  0
 62181  1  0  0  0  0
 62182  1  0  0  0  0
 63 64  1  0  0  0  0
 63183  1  0  0  0  0
 63184  1  0  0  0  0
 64 65  1  0  0  0  0
 64185  1  0  0  0  0
 64186  1  0  0  0  0
 65187  1  0  0  0  0
 65188  1  0  0  0  0
 66 67  1  0  0  0  0
 66189  1  0  0  0  0
 67 68  2  0  0  0  0
 69 67  1  0  0  0  0
 69 70  1  0  0  0  0
 69 73  1  0  0  0  0
 69190  1  6  0  0  0
 70 71  1  0  0  0  0
 70191  1  0  0  0  0
 70192  1  0  0  0  0
 71 72  1  0  0  0  0
 71193  1  0  0  0  0
 71194  1  0  0  0  0
 72 73  1  0  0  0  0
 72195  1  0  0  0  0
 72196  1  0  0  0  0
 73 74  1  0  0  0  0
 74 75  2  0  0  0  0
 76 84  1  0  0  0  0
 76197  1  1  0  0  0
 76 77  1  0  0  0  0
 76 74  1  0  0  0  0
 77 78  1  0  0  0  0
 77198  1  0  0  0  0
 77199  1  0  0  0  0
 78 79  1  0  0  0  0
 78200  1  0  0  0  0
 78201  1  0  0  0  0
 79 80  1  0  0  0  0
 79202  1  0  0  0  0
 79203  1  0  0  0  0
 80 81  1  0  0  0  0
 80204  1  0  0  0  0
 81 82  1  0  0  0  0
 81 83  2  0  0  0  0
 82205  1  0  0  0  0
 82206  1  0  0  0  0
 83207  1  0  0  0  0
 84 85  1  0  0  0  0
 84208  1  0  0  0  0
 85 86  2  0  0  0  0
 85 87  1  0  0  0  0
 87 88  1  0  0  0  0
 87209  1  0  0  0  0
 87210  1  0  0  0  0
 88 89  1  0  0  0  0
 88111  1  0  0  0  0
 89 90  1  0  0  0  0
 89211  1  0  0  0  0
 89212  1  0  0  0  0
 90 91  1  0  0  0  0
 90213  1  0  0  0  0
 90214  1  0  0  0  0
 91 92  1  0  0  0  0
 91 96  1  0  0  0  0
 92 93  1  0  0  0  0
 92215  1  0  0  0  0
 92216  1  0  0  0  0
 93 94  1  0  0  0  0
 93 95  2  0  0  0  0
 96 97  1  0  0  0  0
 96217  1  0  0  0  0
 96218  1  0  0  0  0
 97 98  1  0  0  0  0
 97219  1  0  0  0  0
 97220  1  0  0  0  0
 98 99  1  0  0  0  0
 98103  1  0  0  0  0
 99100  1  0  0  0  0
 99221  1  0  0  0  0
 99222  1  0  0  0  0
100101  1  0  0  0  0
100102  2  0  0  0  0
103104  1  0  0  0  0
103223  1  0  0  0  0
103224  1  0  0  0  0
104105  1  0  0  0  0
104225  1  0  0  0  0
104226  1  0  0  0  0
105106  1  0  0  0  0
105110  1  0  0  0  0
106107  1  0  0  0  0
106227  1  0  0  0  0
106228  1  0  0  0  0
107108  1  0  0  0  0
107109  2  0  0  0  0
110111  1  0  0  0  0
110229  1  0  0  0  0
110230  1  0  0  0  0
111231  1  0  0  0  0
111232  1  0  0  0  0
112113  2  0  0  0  0
112114  1  0  0  0  0
114233  1  0  0  0  0
115114  1  0  0  0  0
115116  1  0  0  0  0
115122  1  0  0  0  0
115234  1  6  0  0  0
116117  1  0  0  0  0
116235  1  0  0  0  0
116236  1  0  0  0  0
117118  1  0  0  0  0
117237  1  0  0  0  0
117238  1  0  0  0  0
118119  1  0  0  0  0
118120  2  0  0  0  0
118121  2  0  0  0  0
119239  1  0  0  0  0
119240  1  0  0  0  0
119241  1  0  0  0  0
122123  1  0  0  0  0
122124  2  0  0  0  0
123242  1  0  0  0  0
123243  1  0  0  0  0
M  ISO  1   1 225
M  CHG  4   1   3  94  -1 101  -1 108  -1
M  END
>  <DRUGBANK_ID>
DB18208

>  <COMMON_NAME>
DOTA-Arg-Pro-Lys-Pro-Gln-Gln-Phe-2Thi-Gly-Leu-Met(O2)-NH2 Actinium AC-225

>  <CAS_NUMBER>
2230254-48-3

>  <UNII>
44S7GN2UDJ

>  <SYNONYMS>
[225Ac]Butanamide, N2-[[4,7,10-tris(carboxymethyl)-1,4,7,10-tetraazacyclododec-1-yl]acetyl]-L-arginyl-L-prolyl-L-lysyl-L-prolyl-L-glutaminyl-L-glutaminyl-L-phenylalanyl-3-(2-thienyl)-L-alanylglycyl-L-leucyl-2-amino-4-(methylsulfonyl)-, (2S)-; DOTA-2Thi-Met(O2)-Substance P analog Actinium AC-225; H-Arg-Pro-Lys-Pro-Gln-Gln-Phe-2Thi-Gly-Leu-Met(O2)-NH2-DOTA-225-actinium

$$$$
