
 OpenBabel10282417123D

 24 25  0  0  1  0  0  0  0  0999 V2000
    1.3503   -0.5452    0.0076 C   0  0  0  0  0  0  0  0  0  0  0  0
   -1.4803    1.9286    1.4085 C   0  0  0  0  0  0  0  0  0  0  0  0
    0.3121   -1.6133    0.3550 C   0  0  1  0  0  0  0  0  0  0  0  0
    0.7627    0.7905    0.4138 C   0  0  2  0  0  0  0  0  0  0  0  0
   -0.8470   -1.3137   -0.6203 C   0  0  2  0  0  0  0  0  0  0  0  0
   -1.7021   -0.2422    0.0798 C   0  0  1  0  0  0  0  0  0  0  0  0
   -0.8076    0.9333    0.4984 C   0  0  1  0  0  0  0  0  0  0  0  0
   -1.4870    3.2434    0.8758 O   0  0  0  0  0  0  0  0  0  0  0  0
    0.8516   -2.9202    0.2896 O   0  0  0  0  0  0  0  0  0  0  0  0
   -1.5712   -2.4615   -1.0318 O   0  0  0  0  0  0  0  0  0  0  0  0
   -2.7288    0.1962   -0.8090 O   0  0  0  0  0  0  0  0  0  0  0  0
   -0.0173    1.4627   -0.5774 O   0  0  0  0  0  0  0  0  0  0  0  0
   -0.0095   -1.4631    1.3981 H   0  0  0  0  0  0  0  0  0  0  0  0
    1.4762    1.4190    0.9249 H   0  0  0  0  0  0  0  0  0  0  0  0
   -0.4767   -0.8591   -1.5494 H   0  0  0  0  0  0  0  0  0  0  0  0
   -2.1926   -0.6836    0.9599 H   0  0  0  0  0  0  0  0  0  0  0  0
    2.3067   -0.7637    0.4963 H   0  0  0  0  0  0  0  0  0  0  0  0
    1.5766   -0.5831   -1.0706 H   0  0  0  0  0  0  0  0  0  0  0  0
   -2.5356    1.6577    1.5297 H   0  0  0  0  0  0  0  0  0  0  0  0
   -1.0537    1.9341    2.4161 H   0  0  0  0  0  0  0  0  0  0  0  0
   -0.6580    3.6709    1.1435 H   0  0  0  0  0  0  0  0  0  0  0  0
    1.3549   -3.0555    1.1145 H   0  0  0  0  0  0  0  0  0  0  0  0
   -1.3300   -2.5689   -1.9740 H   0  0  0  0  0  0  0  0  0  0  0  0
   -3.1995    0.9432   -0.3885 H   0  0  0  0  0  0  0  0  0  0  0  0
  1 17  1  0  0  0  0
  1 18  1  0  0  0  0
  2 19  1  0  0  0  0
  2 20  1  0  0  0  0
  3  1  1  0  0  0  0
  3  9  1  0  0  0  0
  3 13  1  1  0  0  0
  4  1  1  0  0  0  0
  4 14  1  1  0  0  0
  5  3  1  0  0  0  0
  5 10  1  0  0  0  0
  5 15  1  6  0  0  0
  6  5  1  0  0  0  0
  6 11  1  0  0  0  0
  6 16  1  1  0  0  0
  7  4  1  0  0  0  0
  7  6  1  0  0  0  0
  7  2  1  1  0  0  0
  8  2  1  0  0  0  0
  8 21  1  0  0  0  0
  9 22  1  0  0  0  0
 10 23  1  0  0  0  0
 11 24  1  0  0  0  0
 12  4  1  0  0  0  0
 12  7  1  0  0  0  0
M  END
>  <DRUGBANK_ID>
DB02394

>  <SECONDARY_ACCESSION_NUMBERS>
EXPT02443

>  <COMMON_NAME>
Oxiranpseudoglucose

$$$$
