CB1
 OpenBabel10282417143D

 26 27  0  0  0  0  0  0  0  0999 V2000
    1.3272   -0.1515    0.0288 C   0  0  0  0  0  0  0  0  0  0  0  0
    0.4935   -1.3067    0.0299 C   0  0  0  0  0  0  0  0  0  0  0  0
   -0.8946   -1.1243    0.0499 C   0  0  0  0  0  0  0  0  0  0  0  0
   -1.3517    0.2276    0.0824 C   0  0  0  0  0  0  0  0  0  0  0  0
   -0.5490    1.4190    0.1180 C   0  0  0  0  0  0  0  0  0  0  0  0
    0.8261    1.1920    0.0201 C   0  0  0  0  0  0  0  0  0  0  0  0
    1.2091   -2.6128   -0.0612 N   0  3  0  0  0  0  0  0  0  0  0  0
    0.6020   -3.6591   -0.2703 O   0  0  0  0  0  0  0  0  0  0  0  0
    2.4460   -2.5741    0.0278 O   0  5  0  0  0  0  0  0  0  0  0  0
   -1.9340   -2.2181    0.0885 C   0  0  0  0  0  0  0  0  0  0  0  0
   -3.2634   -1.9107    0.0175 N   0  0  0  0  0  0  0  0  0  0  0  0
   -1.6975   -3.4098    0.2393 O   0  0  0  0  0  0  0  0  0  0  0  0
   -1.3688    2.5607    0.0876 N   0  0  0  0  0  0  0  0  0  0  0  0
   -1.7216    3.4015    1.2195 C   0  0  0  0  0  0  0  0  0  0  0  0
   -1.2074    3.9674   -0.0928 C   0  0  0  0  0  0  0  0  0  0  0  0
    1.8377    2.2339   -0.2458 N   0  3  0  0  0  0  0  0  0  0  0  0
    1.4841    3.3999   -0.4094 O   0  0  0  0  0  0  0  0  0  0  0  0
    3.0204    1.8720   -0.3381 O   0  5  0  0  0  0  0  0  0  0  0  0
    2.4113   -0.3035   -0.0006 H   0  0  0  0  0  0  0  0  0  0  0  0
   -2.4216    0.4246    0.0252 H   0  0  0  0  0  0  0  0  0  0  0  0
   -3.8739   -2.7168    0.1053 H   0  0  0  0  0  0  0  0  0  0  0  0
   -3.7009   -1.0051    0.0168 H   0  0  0  0  0  0  0  0  0  0  0  0
   -2.7855    3.4590    1.4159 H   0  0  0  0  0  0  0  0  0  0  0  0
   -1.0655    3.5689    2.0663 H   0  0  0  0  0  0  0  0  0  0  0  0
   -0.2971    4.5347    0.0072 H   0  0  0  0  0  0  0  0  0  0  0  0
   -1.8948    4.3283   -0.8457 H   0  0  0  0  0  0  0  0  0  0  0  0
  1  2  2  0  0  0  0
  1  6  1  0  0  0  0
  1 19  1  0  0  0  0
  2  3  1  0  0  0  0
  2  7  1  0  0  0  0
  3  4  2  0  0  0  0
  3 10  1  0  0  0  0
  4  5  1  0  0  0  0
  4 20  1  0  0  0  0
  5  6  2  0  0  0  0
  5 13  1  0  0  0  0
  6 16  1  0  0  0  0
  7  8  2  0  0  0  0
  7  9  1  0  0  0  0
 10 11  1  0  0  0  0
 10 12  2  0  0  0  0
 11 21  1  0  0  0  0
 11 22  1  0  0  0  0
 13 14  1  0  0  0  0
 13 15  1  0  0  0  0
 14 15  1  0  0  0  0
 14 23  1  0  0  0  0
 14 24  1  0  0  0  0
 15 25  1  0  0  0  0
 15 26  1  0  0  0  0
 16 17  2  0  0  0  0
 16 18  1  0  0  0  0
M  CHG  4   7   1   9  -1  16   1  18  -1
M  END
>  <DRUGBANK_ID>
DB04253

>  <SECONDARY_ACCESSION_NUMBERS>
EXPT00837; DB12772

>  <COMMON_NAME>
Tretazicar

>  <CAS_NUMBER>
21919-05-1

>  <UNII>
7865D5D01M

>  <SYNONYMS>
Tretazicar

$$$$
