L0I
 OpenBabel10282417173D

 52 56  0  0  0  0  0  0  0  0999 V2000
    1.0659    0.0424    0.1328 O   0  0  0  0  0  0  0  0  0  0  0  0
    2.2945   -0.0698    0.0700 C   0  0  0  0  0  0  0  0  0  0  0  0
    2.9258   -1.1019   -0.5814 N   0  0  0  0  0  0  0  0  0  0  0  0
    2.2091   -2.0442   -1.3856 C   0  0  0  0  0  0  0  0  0  0  0  0
    2.2582   -3.5200   -1.0944 C   0  0  0  0  0  0  0  0  0  0  0  0
    2.8800   -2.9854   -2.3509 C   0  0  0  0  0  0  0  0  0  0  0  0
    3.0647    0.8032    0.7836 N   0  0  0  0  0  0  0  0  0  0  0  0
    4.4404    0.8951    0.8165 C   0  0  0  0  0  0  0  0  0  0  0  0
    5.2893    0.7810   -0.2566 C   0  0  0  0  0  0  0  0  0  0  0  0
    6.5485    0.9416    0.2374 N   0  0  0  0  0  0  0  0  0  0  0  0
    6.5754    1.2298    1.5469 N   0  0  0  0  0  0  0  0  0  0  0  0
    5.2851    1.2506    1.9002 C   0  0  0  0  0  0  0  0  0  0  0  0
    4.8554    1.4764    3.3071 C   0  0  0  0  0  0  0  0  0  0  0  0
    5.1360    2.5339    4.0440 N   0  0  0  0  0  0  0  0  0  0  0  0
    4.5034    2.3328    5.2398 C   0  0  0  0  0  0  0  0  0  0  0  0
    4.4084    3.1524    6.3741 C   0  0  0  0  0  0  0  0  0  0  0  0
    3.6615    2.7036    7.4754 C   0  0  0  0  0  0  0  0  0  0  0  0
    3.0652    1.4329    7.4688 C   0  0  0  0  0  0  0  0  0  0  0  0
    2.0982    1.0217    8.5512 C   0  0  0  0  0  0  0  0  0  0  0  0
    0.6495    0.8775    8.0629 N   0  3  0  0  0  0  0  0  0  0  0  0
    0.1026    2.1867    7.4778 C   0  0  0  0  0  0  0  0  0  0  0  0
   -1.3035    1.9655    6.9051 C   0  0  0  0  0  0  0  0  0  0  0  0
   -1.3161    0.9105    5.9395 O   0  0  0  0  0  0  0  0  0  0  0  0
   -0.9851   -0.3397    6.5497 C   0  0  0  0  0  0  0  0  0  0  0  0
    0.4390   -0.2775    7.0808 C   0  0  0  0  0  0  0  0  0  0  0  0
    3.2902    0.5617    6.3887 C   0  0  0  0  0  0  0  0  0  0  0  0
    3.9082    1.0831    5.2643 C   0  0  0  0  0  0  0  0  0  0  0  0
    4.0953    0.5776    4.0067 N   0  0  0  0  0  0  0  0  0  0  0  0
    3.9335   -1.1108   -0.6228 H   0  0  0  0  0  0  0  0  0  0  0  0
    1.2560   -1.6452   -1.7272 H   0  0  0  0  0  0  0  0  0  0  0  0
    2.9311   -3.9169   -0.3446 H   0  0  0  0  0  0  0  0  0  0  0  0
    1.3212   -4.0616   -1.1715 H   0  0  0  0  0  0  0  0  0  0  0  0
    2.3695   -3.2054   -3.2842 H   0  0  0  0  0  0  0  0  0  0  0  0
    3.9592   -3.0120   -2.4355 H   0  0  0  0  0  0  0  0  0  0  0  0
    2.5344    1.4364    1.3729 H   0  0  0  0  0  0  0  0  0  0  0  0
    5.1091    0.6527   -1.3148 H   0  0  0  0  0  0  0  0  0  0  0  0
    7.4296    0.8797   -0.2628 H   0  0  0  0  0  0  0  0  0  0  0  0
    4.8892    4.1254    6.3770 H   0  0  0  0  0  0  0  0  0  0  0  0
    3.5636    3.3675    8.3341 H   0  0  0  0  0  0  0  0  0  0  0  0
    2.3969    0.0623    8.9896 H   0  0  0  0  0  0  0  0  0  0  0  0
    2.0756    1.7590    9.3643 H   0  0  0  0  0  0  0  0  0  0  0  0
    0.0969    0.6640    8.9015 H   0  0  0  0  0  0  0  0  0  0  0  0
    0.7835    2.5044    6.6827 H   0  0  0  0  0  0  0  0  0  0  0  0
    0.0911    2.9289    8.2829 H   0  0  0  0  0  0  0  0  0  0  0  0
   -1.6487    2.8748    6.4050 H   0  0  0  0  0  0  0  0  0  0  0  0
   -2.0170    1.7205    7.6977 H   0  0  0  0  0  0  0  0  0  0  0  0
   -1.7098   -0.5851    7.3290 H   0  0  0  0  0  0  0  0  0  0  0  0
   -1.0381   -1.1077    5.7695 H   0  0  0  0  0  0  0  0  0  0  0  0
    0.7614   -1.2045    7.5649 H   0  0  0  0  0  0  0  0  0  0  0  0
    1.0329   -0.0644    6.1976 H   0  0  0  0  0  0  0  0  0  0  0  0
    2.9345   -0.4606    6.3764 H   0  0  0  0  0  0  0  0  0  0  0  0
    3.7937   -0.3248    3.6655 H   0  0  0  0  0  0  0  0  0  0  0  0
  2  1  2  0  0  0  0
  2  7  1  0  0  0  0
  3  2  1  0  0  0  0
  3 29  1  0  0  0  0
  4  3  1  0  0  0  0
  4 30  1  0  0  0  0
  5  4  1  0  0  0  0
  5  6  1  0  0  0  0
  5 31  1  0  0  0  0
  5 32  1  0  0  0  0
  6  4  1  0  0  0  0
  6 33  1  0  0  0  0
  6 34  1  0  0  0  0
  7  8  1  0  0  0  0
  7 35  1  0  0  0  0
  8  9  2  0  0  0  0
  9 10  1  0  0  0  0
  9 36  1  0  0  0  0
 10 37  1  0  0  0  0
 11 10  1  0  0  0  0
 12  8  1  0  0  0  0
 12 11  2  0  0  0  0
 13 12  1  0  0  0  0
 13 28  1  0  0  0  0
 14 13  2  0  0  0  0
 15 14  1  0  0  0  0
 15 27  1  0  0  0  0
 16 15  2  0  0  0  0
 16 38  1  0  0  0  0
 17 16  1  0  0  0  0
 17 18  2  0  0  0  0
 17 39  1  0  0  0  0
 18 26  1  0  0  0  0
 19 18  1  0  0  0  0
 19 40  1  0  0  0  0
 19 41  1  0  0  0  0
 20 19  1  0  0  0  0
 20 21  1  0  0  0  0
 20 42  1  0  0  0  0
 21 43  1  0  0  0  0
 21 44  1  0  0  0  0
 22 21  1  0  0  0  0
 22 45  1  0  0  0  0
 22 46  1  0  0  0  0
 23 22  1  0  0  0  0
 24 23  1  0  0  0  0
 24 25  1  0  0  0  0
 24 47  1  0  0  0  0
 24 48  1  0  0  0  0
 25 20  1  0  0  0  0
 25 49  1  0  0  0  0
 25 50  1  0  0  0  0
 26 27  2  0  0  0  0
 26 51  1  0  0  0  0
 27 28  1  0  0  0  0
 28 52  1  0  0  0  0
M  CHG  1  20   1
M  END
>  <DRUGBANK_ID>
DB08067

>  <COMMON_NAME>
4-[(2-{4-[(CYCLOPROPYLCARBAMOYL)AMINO]-1H-PYRAZOL-3-YL}-1H-BENZIMIDAZOL-6-YL)METHYL]MORPHOLIN-4-IUM

$$$$
