
 OpenBabel10282417173D

 31 24  0  0  0  0  0  0  0  0999 V2000
    0.6543   -0.5291   -1.7944 Fe  0  1  0  0  0  0  0  0  0  0  0  0
    4.1446    0.0002    2.6838 Fe  0  1  0  0  0  0  0  0  0  0  0  0
    1.0489   -0.0753   -0.0440 O   0  0  0  0  0  0  0  0  0  0  0  0
    2.8052    1.9257   -0.1446 O   0  5  0  0  0  0  0  0  0  0  0  0
    2.5972   -0.0753   -0.0440 P   0  0  0  0  0  0  0  0  0  0  0  0
    2.4363    0.7205    1.7733 O   0  5  0  0  0  0  0  0  0  0  0  0
    4.3272   -0.0753   -0.0440 O   0  0  0  0  0  0  0  0  0  0  0  0
    4.9039   -1.6774    0.2622 P   0  0  0  0  0  0  0  0  0  0  0  0
    5.0484   -1.4057    1.9669 O   0  5  0  0  0  0  0  0  0  0  0  0
    3.5521   -2.6082   -0.0336 O   0  0  0  0  0  0  0  0  0  0  0  0
    5.4806   -3.2794    0.5684 O   0  5  0  0  0  0  0  0  0  0  0  0
    1.0404   -0.0570   -0.0716 O   0  0  0  0  0  0  0  0  0  0  0  0
    3.2184   -1.1706    1.5215 O   0  5  0  0  0  0  0  0  0  0  0  0
    2.5888   -0.0570   -0.0716 P   0  0  0  0  0  0  0  0  0  0  0  0
    2.1305   -1.3833   -1.4556 O   0  5  0  0  0  0  0  0  0  0  0  0
    4.3188   -0.0570   -0.0716 O   0  0  0  0  0  0  0  0  0  0  0  0
    5.0614    1.5373    1.2141 P   0  0  0  0  0  0  0  0  0  0  0  0
    4.0029    1.8139    2.3564 O   0  5  0  0  0  0  0  0  0  0  0  0
    5.7027    0.8108    2.4227 O   0  0  0  0  0  0  0  0  0  0  0  0
    5.3130    2.8946    0.6780 O   0  5  0  0  0  0  0  0  0  0  0  0
    0.9678    0.0469   -0.0823 O   0  0  0  0  0  0  0  0  0  0  0  0
    1.5270   -1.2949    1.2890 O   0  5  0  0  0  0  0  0  0  0  0  0
    2.5162    0.0469   -0.0823 P   0  0  0  0  0  0  0  0  0  0  0  0
    1.8414    1.0015   -1.6802 O   0  5  0  0  0  0  0  0  0  0  0  0
    4.2462    0.0469   -0.0823 O   0  0  0  0  0  0  0  0  0  0  0  0
    5.1638   -0.6919   -1.9256 P   0  0  0  0  0  0  0  0  0  0  0  0
    6.5774   -0.9839   -1.4194 O   0  5  0  0  0  0  0  0  0  0  0  0
    4.3014   -1.9270   -2.1893 O   0  0  0  0  0  0  0  0  0  0  0  0
    5.0489    0.1153   -3.1902 O   0  5  0  0  0  0  0  0  0  0  0  0
    1.2269    2.2351    0.1281 Fe  0  1  0  0  0  0  0  0  0  0  0  0
    2.3360   -2.7224    1.0221 Fe  0  1  0  0  0  0  0  0  0  0  0  0
  3  5  2  0  0  0  0
  4  5  1  0  0  0  0
  5  6  1  0  0  0  0
  5  7  1  0  0  0  0
  7  8  1  0  0  0  0
  8  9  1  0  0  0  0
  8 10  2  0  0  0  0
  8 11  1  0  0  0  0
 12 14  2  0  0  0  0
 13 14  1  0  0  0  0
 14 15  1  0  0  0  0
 14 16  1  0  0  0  0
 16 17  1  0  0  0  0
 17 18  1  0  0  0  0
 17 19  2  0  0  0  0
 17 20  1  0  0  0  0
 21 23  2  0  0  0  0
 22 23  1  0  0  0  0
 23 24  1  0  0  0  0
 23 25  1  0  0  0  0
 25 26  1  0  0  0  0
 26 27  1  0  0  0  0
 26 28  2  0  0  0  0
 26 29  1  0  0  0  0
M  CHG  8   1   3   2   3   4  -1   6  -1   9  -1  11  -1  13  -1  15  -1
M  CHG  8  18  -1  20  -1  22  -1  24  -1  27  -1  29  -1  30   3  31   3
M  END
>  <DRUGBANK_ID>
DB09147

>  <COMMON_NAME>
Ferric pyrophosphate

>  <CAS_NUMBER>
10058-44-3

>  <UNII>
QK8899250F

>  <SYNONYMS>
Iron pyrophosphate; Iron(III) pyrophosphate

$$$$
