LZL
 OpenBabel10282417173D

 37 40  0  0  0  0  0  0  0  0999 V2000
    0.9348    0.2305    0.1674 N   0  0  0  0  0  0  0  0  0  0  0  0
    0.2403    1.4050    0.3206 C   0  0  0  0  0  0  0  0  0  0  0  0
    0.7312    2.4641   -0.3134 N   0  0  0  0  0  0  0  0  0  0  0  0
    0.0446    3.6052   -0.1546 C   0  0  0  0  0  0  0  0  0  0  0  0
   -1.0644    3.7193    0.6718 C   0  0  0  0  0  0  0  0  0  0  0  0
   -1.7437    4.9301    0.8512 C   0  0  0  0  0  0  0  0  0  0  0  0
   -0.8462    1.4180    1.1113 N   0  0  0  0  0  0  0  0  0  0  0  0
   -1.4818    2.5872    1.3381 C   0  0  0  0  0  0  0  0  0  0  0  0
   -2.5268    2.6698    2.2095 N   0  0  0  0  0  0  0  0  0  0  0  0
   -3.2227    3.8376    2.3991 C   0  0  0  0  0  0  0  0  0  0  0  0
   -4.3196    3.8164    3.2399 N   0  0  0  0  0  0  0  0  0  0  0  0
   -5.6566    4.2534    2.8489 C   0  0  0  0  0  0  0  0  0  0  0  0
   -6.4381    4.0355    4.1048 C   0  0  0  0  0  0  0  0  0  0  0  0
   -5.6431    3.6569    5.1098 C   0  0  0  0  0  0  0  0  0  0  0  0
   -4.2122    3.5460    4.6666 C   0  0  0  0  0  0  0  0  0  0  0  0
   -2.8444    5.0046    1.7163 C   0  0  0  0  0  0  0  0  0  0  0  0
   -3.4798    6.3185    1.8969 C   0  0  0  0  0  0  0  0  0  0  0  0
   -4.1320    6.9491    0.8253 C   0  0  0  0  0  0  0  0  0  0  0  0
   -4.7581    8.1826    1.0026 C   0  0  0  0  0  0  0  0  0  0  0  0
   -4.6176    8.8643    2.2089 C   0  0  0  0  0  0  0  0  0  0  0  0
   -3.9139    8.2824    3.2595 C   0  0  0  0  0  0  0  0  0  0  0  0
   -3.4301    6.9816    3.1326 C   0  0  0  0  0  0  0  0  0  0  0  0
    0.4181   -0.6308    0.1839 H   0  0  0  0  0  0  0  0  0  0  0  0
    1.8633    0.2863   -0.2175 H   0  0  0  0  0  0  0  0  0  0  0  0
    0.4291    4.4482   -0.7191 H   0  0  0  0  0  0  0  0  0  0  0  0
   -1.4055    5.8234    0.3336 H   0  0  0  0  0  0  0  0  0  0  0  0
   -5.7300    5.3107    2.5876 H   0  0  0  0  0  0  0  0  0  0  0  0
   -6.0510    3.6429    2.0328 H   0  0  0  0  0  0  0  0  0  0  0  0
   -7.5069    4.1842    4.1741 H   0  0  0  0  0  0  0  0  0  0  0  0
   -5.9828    3.4536    6.1159 H   0  0  0  0  0  0  0  0  0  0  0  0
   -3.8161    2.5510    4.8795 H   0  0  0  0  0  0  0  0  0  0  0  0
   -3.6194    4.3100    5.1841 H   0  0  0  0  0  0  0  0  0  0  0  0
   -4.1781    6.4650   -0.1481 H   0  0  0  0  0  0  0  0  0  0  0  0
   -5.3410    8.6161    0.1948 H   0  0  0  0  0  0  0  0  0  0  0  0
   -5.0622    9.8476    2.3341 H   0  0  0  0  0  0  0  0  0  0  0  0
   -3.7456    8.8337    4.1805 H   0  0  0  0  0  0  0  0  0  0  0  0
   -3.0144    6.4847    4.0065 H   0  0  0  0  0  0  0  0  0  0  0  0
  1  2  1  0  0  0  0
  1 23  1  0  0  0  0
  1 24  1  0  0  0  0
  2  3  1  0  0  0  0
  2  7  2  0  0  0  0
  3  4  2  0  0  0  0
  4  5  1  0  0  0  0
  4 25  1  0  0  0  0
  5  6  1  0  0  0  0
  5  8  2  0  0  0  0
  6 16  2  0  0  0  0
  6 26  1  0  0  0  0
  7  8  1  0  0  0  0
  8  9  1  0  0  0  0
  9 10  2  0  0  0  0
 10 11  1  0  0  0  0
 10 16  1  0  0  0  0
 11 12  1  0  0  0  0
 11 15  1  0  0  0  0
 12 13  1  0  0  0  0
 12 27  1  0  0  0  0
 12 28  1  0  0  0  0
 13 14  2  0  0  0  0
 13 29  1  0  0  0  0
 14 15  1  0  0  0  0
 14 30  1  0  0  0  0
 15 31  1  0  0  0  0
 15 32  1  0  0  0  0
 16 17  1  0  0  0  0
 17 18  1  0  0  0  0
 17 22  2  0  0  0  0
 18 19  2  0  0  0  0
 18 33  1  0  0  0  0
 19 20  1  0  0  0  0
 19 34  1  0  0  0  0
 20 21  2  0  0  0  0
 20 35  1  0  0  0  0
 21 22  1  0  0  0  0
 21 36  1  0  0  0  0
 22 37  1  0  0  0  0
M  END
>  <DRUGBANK_ID>
DB08146

>  <COMMON_NAME>
7-(2,5-dihydropyrrol-1-yl)-6-phenyl-pyrido[6,5-d]pyrimidin-2-amine

$$$$
