
 OpenBabel10282417133D

 76 75  0  0  1  0  0  0  0  0999 V2000
   -4.0996   18.4780    2.2162 C   0  0  0  0  0  0  0  0  0  0  0  0
   -4.2065   18.2949    0.7114 C   0  0  0  0  0  0  0  0  0  0  0  0
   -3.3186   17.1362    0.2613 C   0  0  0  0  0  0  0  0  0  0  0  0
   -3.7401   15.8335    0.9496 C   0  0  0  0  0  0  0  0  0  0  0  0
   -5.2027   15.5092    0.6183 C   0  0  0  0  0  0  0  0  0  0  0  0
   -5.3374   15.3282   -0.8910 C   0  0  0  0  0  0  0  0  0  0  0  0
   -4.3527   14.2300   -1.3127 C   0  0  0  0  0  0  0  0  0  0  0  0
   -4.6478   12.9292   -0.5223 C   0  0  0  0  0  0  0  0  0  0  0  0
   -6.0518   12.5145   -0.8335 C   0  0  0  0  0  0  0  0  0  0  0  0
   -5.9485   12.3037   -2.3089 C   0  0  0  0  0  0  0  0  0  0  0  0
   -5.3063   11.0218   -2.7674 C   0  0  0  0  0  0  0  0  0  0  0  0
   -5.7501    9.6057   -2.1527 C   0  0  0  0  0  0  0  0  0  0  0  0
   -7.0352    8.6499   -2.4010 C   0  0  0  0  0  0  0  0  0  0  0  0
   -7.3671    7.8318   -3.9383 C   0  0  0  0  0  0  0  0  0  0  0  0
   -6.6555    8.9079   -6.9906 C   0  0  0  0  0  0  0  0  0  0  0  0
   -7.0346   10.4880   -5.0576 C   0  0  0  0  0  0  0  0  0  0  0  0
  -11.1162   12.5107   -4.3890 C   0  0  0  0  0  0  0  0  0  0  0  0
   -7.4175   10.1727   -6.5074 C   0  0  2  0  0  0  0  0  0  0  0  0
  -10.4410   13.4131   -3.2976 C   0  0  1  0  0  0  0  0  0  0  0  0
   -6.1912    7.5866   -4.8828 C   0  0  2  0  0  0  0  0  0  0  0  0
   -8.9554   13.2821   -3.1015 C   0  0  0  0  0  0  0  0  0  0  0  0
  -10.5405   14.8534   -3.6110 N   0  0  0  0  0  0  0  0  0  0  0  0
   -8.8096   10.1120   -6.8044 O   0  0  0  0  0  0  0  0  0  0  0  0
   -4.9594    8.2657   -4.7989 O   0  0  0  0  0  0  0  0  0  0  0  0
   -8.0618   13.9889   -3.6522 O   0  0  0  0  0  0  0  0  0  0  0  0
   -8.6973   12.2937   -2.2689 O   0  0  0  0  0  0  0  0  0  0  0  0
   -9.6578   10.3690   -2.4538 O   0  0  0  0  0  0  0  0  0  0  0  0
   -8.9400   11.6804   -4.7171 O   0  0  0  0  0  0  0  0  0  0  0  0
   -6.6805    7.6508   -6.2508 O   0  0  0  0  0  0  0  0  0  0  0  0
   -7.8249    9.8112   -3.9156 O   0  0  0  0  0  0  0  0  0  0  0  0
  -11.0430   11.0550   -4.1771 O   0  0  0  0  0  0  0  0  0  0  0  0
   -9.4339   10.4331   -4.0464 P   0  0  3  0  0  0  0  0  0  0  0  0
   -7.0632   11.0289   -7.1124 H   0  0  0  0  0  0  0  0  0  0  0  0
  -10.8735   13.1671   -2.3205 H   0  0  0  0  0  0  0  0  0  0  0  0
   -5.9555    6.5751   -4.5742 H   0  0  0  0  0  0  0  0  0  0  0  0
   -4.4247   17.5884    2.7660 H   0  0  0  0  0  0  0  0  0  0  0  0
   -4.7310   19.2998    2.5521 H   0  0  0  0  0  0  0  0  0  0  0  0
   -3.0595   18.6781    2.4890 H   0  0  0  0  0  0  0  0  0  0  0  0
   -5.2540   18.1257    0.4336 H   0  0  0  0  0  0  0  0  0  0  0  0
   -3.9125   19.2087    0.1900 H   0  0  0  0  0  0  0  0  0  0  0  0
   -3.3658   17.0443   -0.8317 H   0  0  0  0  0  0  0  0  0  0  0  0
   -2.2679   17.3436    0.4807 H   0  0  0  0  0  0  0  0  0  0  0  0
   -3.0577   15.0301    0.6519 H   0  0  0  0  0  0  0  0  0  0  0  0
   -3.6050   15.8713    2.0306 H   0  0  0  0  0  0  0  0  0  0  0  0
   -5.5176   14.6140    1.1640 H   0  0  0  0  0  0  0  0  0  0  0  0
   -5.8998   16.2706    0.9715 H   0  0  0  0  0  0  0  0  0  0  0  0
   -6.3800   15.1107   -1.1548 H   0  0  0  0  0  0  0  0  0  0  0  0
   -5.1348   16.2457   -1.4508 H   0  0  0  0  0  0  0  0  0  0  0  0
   -4.3863   14.1454   -2.4016 H   0  0  0  0  0  0  0  0  0  0  0  0
   -3.3043   14.4888   -1.1847 H   0  0  0  0  0  0  0  0  0  0  0  0
   -3.9567   12.1422   -0.8264 H   0  0  0  0  0  0  0  0  0  0  0  0
   -4.5231   13.0069    0.5559 H   0  0  0  0  0  0  0  0  0  0  0  0
   -6.4168   11.6227   -0.3208 H   0  0  0  0  0  0  0  0  0  0  0  0
   -6.8127   13.2687   -0.5752 H   0  0  0  0  0  0  0  0  0  0  0  0
   -6.9135   12.3484   -2.5900 H   0  0  0  0  0  0  0  0  0  0  0  0
   -5.7143   13.1620   -2.9544 H   0  0  0  0  0  0  0  0  0  0  0  0
   -5.2329   11.1403   -3.8370 H   0  0  0  0  0  0  0  0  0  0  0  0
   -4.2422   11.1374   -2.5508 H   0  0  0  0  0  0  0  0  0  0  0  0
   -4.8941    8.9552   -2.2963 H   0  0  0  0  0  0  0  0  0  0  0  0
   -5.7794    9.8049   -1.0782 H   0  0  0  0  0  0  0  0  0  0  0  0
   -7.2114    7.8901   -1.6376 H   0  0  0  0  0  0  0  0  0  0  0  0
   -7.8426    9.3234   -2.0551 H   0  0  0  0  0  0  0  0  0  0  0  0
   -8.3295    7.2765   -3.8773 H   0  0  0  0  0  0  0  0  0  0  0  0
   -7.9459    8.3185   -4.7693 H   0  0  0  0  0  0  0  0  0  0  0  0
   -5.6113    9.1996   -7.1468 H   0  0  0  0  0  0  0  0  0  0  0  0
   -7.0866    8.6727   -7.9704 H   0  0  0  0  0  0  0  0  0  0  0  0
   -6.0074   10.1895   -5.0251 H   0  0  0  0  0  0  0  0  0  0  0  0
   -6.9581   11.5755   -4.8739 H   0  0  0  0  0  0  0  0  0  0  0  0
  -10.7261   12.7306   -5.3950 H   0  0  0  0  0  0  0  0  0  0  0  0
  -12.1776   12.7655   -4.4439 H   0  0  0  0  0  0  0  0  0  0  0  0
   -9.9303   15.3008   -2.9067 H   0  0  0  0  0  0  0  0  0  0  0  0
   -9.9233   14.9525   -4.4378 H   0  0  0  0  0  0  0  0  0  0  0  0
   -9.2139    9.3973   -6.3032 H   0  0  0  0  0  0  0  0  0  0  0  0
   -4.9621    8.9768   -4.1523 H   0  0  0  0  0  0  0  0  0  0  0  0
   -8.1912   11.6329   -2.8151 H   0  0  0  0  0  0  0  0  0  0  0  0
  -10.0088    9.5827   -2.0010 H   0  0  0  0  0  0  0  0  0  0  0  0
  1 36  1  0  0  0  0
  1 37  1  0  0  0  0
  1 38  1  0  0  0  0
  2  1  1  0  0  0  0
  2 39  1  0  0  0  0
  2 40  1  0  0  0  0
  3  2  1  0  0  0  0
  3 41  1  0  0  0  0
  3 42  1  0  0  0  0
  4  3  1  0  0  0  0
  4 43  1  0  0  0  0
  4 44  1  0  0  0  0
  5  4  1  0  0  0  0
  5 45  1  0  0  0  0
  5 46  1  0  0  0  0
  6  5  1  0  0  0  0
  6 47  1  0  0  0  0
  6 48  1  0  0  0  0
  7  6  1  0  0  0  0
  7 49  1  0  0  0  0
  7 50  1  0  0  0  0
  8  7  1  0  0  0  0
  8 51  1  0  0  0  0
  8 52  1  0  0  0  0
  9  8  1  0  0  0  0
  9 53  1  0  0  0  0
  9 54  1  0  0  0  0
 10  9  1  0  0  0  0
 10 55  1  0  0  0  0
 10 56  1  0  0  0  0
 11 10  1  0  0  0  0
 11 57  1  0  0  0  0
 11 58  1  0  0  0  0
 12 11  1  0  0  0  0
 12 59  1  0  0  0  0
 12 60  1  0  0  0  0
 13 12  1  0  0  0  0
 13 61  1  0  0  0  0
 13 62  1  0  0  0  0
 14 13  1  0  0  0  0
 14 63  1  0  0  0  0
 14 64  1  0  0  0  0
 15 65  1  0  0  0  0
 15 66  1  0  0  0  0
 16 67  1  0  0  0  0
 16 68  1  0  0  0  0
 17 69  1  0  0  0  0
 17 70  1  0  0  0  0
 18 23  1  0  0  0  0
 18 33  1  6  0  0  0
 18 16  1  0  0  0  0
 18 15  1  0  0  0  0
 19 17  1  0  0  0  0
 19 22  1  0  0  0  0
 19 34  1  1  0  0  0
 20 35  1  1  0  0  0
 20 24  1  0  0  0  0
 20 14  1  0  0  0  0
 21 19  1  0  0  0  0
 22 71  1  0  0  0  0
 22 72  1  0  0  0  0
 23 73  1  0  0  0  0
 24 74  1  0  0  0  0
 25 21  2  0  0  0  0
 26 21  1  0  0  0  0
 26 75  1  0  0  0  0
 27 76  1  0  0  0  0
 29 15  1  0  0  0  0
 29 20  1  0  0  0  0
 30 16  1  0  0  0  0
 31 17  1  0  0  0  0
 32 27  1  0  0  0  0
 32 28  2  0  0  0  0
 32 30  1  0  0  0  0
 32 31  1  0  0  0  0
M  END
>  <DRUGBANK_ID>
DB04136

>  <SECONDARY_ACCESSION_NUMBERS>
EXPT02059

>  <COMMON_NAME>
Lysophosphotidylserine

$$$$
