
 OpenBabel10282417193D

 53 56  0  0  0  0  0  0  0  0999 V2000
    0.9852    0.0781   -0.1126 C   0  0  1  0  0  0  0  0  0  0  0  0
    1.0099    1.5884   -0.2314 C   0  0  1  0  0  0  0  0  0  0  0  0
   -0.1882    2.1252    0.3208 O   0  0  0  0  0  0  0  0  0  0  0  0
   -1.3564    1.4724   -0.2303 C   0  0  2  0  0  0  0  0  0  0  0  0
   -2.5754    2.1691    0.3363 C   0  0  0  0  0  0  0  0  0  0  0  0
   -2.5314    3.5400   -0.0304 O   0  0  0  0  0  0  0  0  0  0  0  0
   -0.2488   -0.7134   -0.4480 C   0  0  2  0  0  0  0  0  0  0  0  0
   -1.4327   -0.0028    0.1539 C   0  0  2  0  0  0  0  0  0  0  0  0
   -2.6211   -0.6343   -0.3089 O   0  0  0  0  0  0  0  0  0  0  0  0
    2.2459    2.0935    0.3496 O   0  0  0  0  0  0  0  0  0  0  0  0
    2.4124    2.0696    1.7295 C   0  0  0  0  0  0  0  0  0  0  0  0
    2.4037    3.4130    2.4037 C   0  0  0  0  0  0  0  0  0  0  0  0
    2.1758    4.4401    1.7442 O   0  0  0  0  0  0  0  0  0  0  0  0
    2.8632    1.0341    3.8699 O   0  0  0  0  0  0  0  0  0  0  0  0
    2.7556    0.9896    2.4937 C   0  0  0  0  0  0  0  0  0  0  0  0
    3.0034   -0.4106    2.0128 C   0  0  0  0  0  0  0  0  0  0  0  0
    2.1095   -1.4557    2.3757 C   0  0  0  0  0  0  0  0  0  0  0  0
    2.0705   -2.6644    1.6470 C   0  0  0  0  0  0  0  0  0  0  0  0
    2.9238   -2.8371    0.5600 C   0  0  0  0  0  0  0  0  0  0  0  0
    2.7239   -3.8389   -0.3589 O   0  0  0  0  0  0  0  0  0  0  0  0
    3.1533    4.6093    5.9536 C   0  0  0  0  0  0  0  0  0  0  0  0
    2.8300    4.6486    4.5917 C   0  0  0  0  0  0  0  0  0  0  0  0
    2.7121    3.4615    3.8477 C   0  0  0  0  0  0  0  0  0  0  0  0
    2.9130    2.2456    4.4974 C   0  0  0  0  0  0  0  0  0  0  0  0
    3.2119    2.1982    5.8593 C   0  0  0  0  0  0  0  0  0  0  0  0
    3.3411    3.3788    6.5741 C   0  0  0  0  0  0  0  0  0  0  0  0
    3.6656    3.2843    7.8938 O   0  0  0  0  0  0  0  0  0  0  0  0
    2.6408    5.8662    4.0009 O   0  0  0  0  0  0  0  0  0  0  0  0
    3.9454   -0.6638    1.0020 C   0  0  0  0  0  0  0  0  0  0  0  0
    3.8869   -1.8644    0.2728 C   0  0  0  0  0  0  0  0  0  0  0  0
    4.5767   -1.9264   -0.9173 O   0  0  0  0  0  0  0  0  0  0  0  0
    2.0675   -0.4578   -0.8227 O   0  0  0  0  0  0  0  0  0  0  0  0
   -0.2239   -2.0489    0.0939 O   0  0  0  0  0  0  0  0  0  0  0  0
    1.0328   -0.0627    0.9549 H   0  0  0  0  0  0  0  0  0  0  0  0
    1.0668    1.8491   -1.2959 H   0  0  0  0  0  0  0  0  0  0  0  0
   -1.3335    1.5788   -1.3233 H   0  0  0  0  0  0  0  0  0  0  0  0
   -3.4928    1.7194   -0.0519 H   0  0  0  0  0  0  0  0  0  0  0  0
   -2.5750    2.1037    1.4295 H   0  0  0  0  0  0  0  0  0  0  0  0
   -1.6595    3.8607    0.2776 H   0  0  0  0  0  0  0  0  0  0  0  0
   -0.3076   -0.8563   -1.5274 H   0  0  0  0  0  0  0  0  0  0  0  0
   -1.4083   -0.1091    1.2499 H   0  0  0  0  0  0  0  0  0  0  0  0
   -2.4961   -0.8490   -1.2513 H   0  0  0  0  0  0  0  0  0  0  0  0
    1.2814   -1.2410    3.0555 H   0  0  0  0  0  0  0  0  0  0  0  0
    1.2513   -3.3624    1.8120 H   0  0  0  0  0  0  0  0  0  0  0  0
    1.8964   -4.3039   -0.1365 H   0  0  0  0  0  0  0  0  0  0  0  0
    3.2609    5.5272    6.5218 H   0  0  0  0  0  0  0  0  0  0  0  0
    3.3630    1.2403    6.3504 H   0  0  0  0  0  0  0  0  0  0  0  0
    3.7513    4.1761    8.2692 H   0  0  0  0  0  0  0  0  0  0  0  0
    2.7569    6.5892    4.6367 H   0  0  0  0  0  0  0  0  0  0  0  0
    4.5289    0.1574    0.5923 H   0  0  0  0  0  0  0  0  0  0  0  0
    4.1813   -2.6841   -1.3924 H   0  0  0  0  0  0  0  0  0  0  0  0
    2.0208   -0.3403   -1.7771 H   0  0  0  0  0  0  0  0  0  0  0  0
   -0.3050   -1.9719    1.0636 H   0  0  0  0  0  0  0  0  0  0  0  0
  1  2  1  0  0  0  0
  1  7  1  0  0  0  0
  1 32  1  0  0  0  0
  1 34  1  1  0  0  0
  2  3  1  0  0  0  0
  2 10  1  0  0  0  0
  2 35  1  6  0  0  0
  3  4  1  0  0  0  0
  4  5  1  0  0  0  0
  4  8  1  0  0  0  0
  4 36  1  6  0  0  0
  5  6  1  0  0  0  0
  5 37  1  0  0  0  0
  5 38  1  0  0  0  0
  6 39  1  0  0  0  0
  7  8  1  0  0  0  0
  7 33  1  0  0  0  0
  7 40  1  6  0  0  0
  8  9  1  0  0  0  0
  8 41  1  1  0  0  0
  9 42  1  0  0  0  0
 10 11  1  0  0  0  0
 11 12  1  0  0  0  0
 11 15  2  0  0  0  0
 12 13  2  0  0  0  0
 12 23  1  0  0  0  0
 14 15  1  0  0  0  0
 14 24  1  0  0  0  0
 15 16  1  0  0  0  0
 16 17  2  0  0  0  0
 16 29  1  0  0  0  0
 17 18  1  0  0  0  0
 17 43  1  0  0  0  0
 18 19  2  0  0  0  0
 18 44  1  0  0  0  0
 19 20  1  0  0  0  0
 19 30  1  0  0  0  0
 20 45  1  0  0  0  0
 21 22  2  0  0  0  0
 21 26  1  0  0  0  0
 21 46  1  0  0  0  0
 22 23  1  0  0  0  0
 22 28  1  0  0  0  0
 23 24  2  0  0  0  0
 24 25  1  0  0  0  0
 25 26  2  0  0  0  0
 25 47  1  0  0  0  0
 26 27  1  0  0  0  0
 27 48  1  0  0  0  0
 28 49  1  0  0  0  0
 29 30  2  0  0  0  0
 29 50  1  0  0  0  0
 30 31  1  0  0  0  0
 31 51  1  0  0  0  0
 32 52  1  0  0  0  0
 33 53  1  0  0  0  0
M  END
>  <DRUGBANK_ID>
DB12665

>  <COMMON_NAME>
Isoquercetin

>  <CAS_NUMBER>
482-35-9

>  <UNII>
6HN2PC637T

>  <SYNONYMS>
Quercetin 3-O-glucopyranoside; Quercetin-3-O-glucoside

$$$$
