
 OpenBabel10282417133D

 36 38  0  0  1  0  0  0  0  0999 V2000
    1.0412   -0.0414    0.0834 C   0  0  0  0  0  0  0  0  0  0  0  0
   -0.8894   -7.5316    1.6629 C   0  0  0  0  0  0  0  0  0  0  0  0
    0.7964   -3.7125    0.2972 C   0  0  0  0  0  0  0  0  0  0  0  0
   -2.3335   -1.5744    2.4779 C   0  0  0  0  0  0  0  0  0  0  0  0
    0.5468   -1.3993    0.4590 C   0  0  0  0  0  0  0  0  0  0  0  0
   -0.8193   -6.7989    2.9952 C   0  0  2  0  0  0  0  0  0  0  0  0
   -0.5895   -1.6273    1.2450 C   0  0  0  0  0  0  0  0  0  0  0  0
   -3.3698   -6.2862    2.5574 C   0  0  1  0  0  0  0  0  0  0  0  0
   -3.3449   -4.9671    1.7986 C   0  0  2  0  0  0  0  0  0  0  0  0
   -2.1569   -6.1757    3.4946 C   0  0  2  0  0  0  0  0  0  0  0  0
   -0.9245   -2.9549    1.4863 C   0  0  0  0  0  0  0  0  0  0  0  0
   -2.7923   -4.0028    2.8419 C   0  0  2  0  0  0  0  0  0  0  0  0
    1.2366   -2.4779   -0.0150 N   0  0  0  0  0  0  0  0  0  0  0  0
   -0.2897   -4.0446    1.0312 N   0  0  0  0  0  0  0  0  0  0  0  0
   -1.4833   -0.7816    1.8553 N   0  0  0  0  0  0  0  0  0  0  0  0
   -2.0268   -2.8977    2.2973 N   0  0  0  0  0  0  0  0  0  0  0  0
    0.2351   -5.8453    2.9263 O   0  0  0  0  0  0  0  0  0  0  0  0
   -4.6057   -6.3917    3.2873 O   0  0  0  0  0  0  0  0  0  0  0  0
   -4.6353   -4.5697    1.3386 O   0  0  0  0  0  0  0  0  0  0  0  0
   -1.9880   -4.7572    3.7657 O   0  0  0  0  0  0  0  0  0  0  0  0
   -0.4877   -7.5232    3.7482 H   0  0  0  0  0  0  0  0  0  0  0  0
   -3.3551   -7.1508    1.8926 H   0  0  0  0  0  0  0  0  0  0  0  0
   -2.6888   -5.0482    0.9288 H   0  0  0  0  0  0  0  0  0  0  0  0
   -2.3937   -6.6427    4.4597 H   0  0  0  0  0  0  0  0  0  0  0  0
   -3.6135   -3.5654    3.4239 H   0  0  0  0  0  0  0  0  0  0  0  0
    0.6978    0.7121    0.7978 H   0  0  0  0  0  0  0  0  0  0  0  0
    0.6751    0.2217   -0.9131 H   0  0  0  0  0  0  0  0  0  0  0  0
    2.1354   -0.0281    0.0721 H   0  0  0  0  0  0  0  0  0  0  0  0
   -1.2407   -6.8701    0.8647 H   0  0  0  0  0  0  0  0  0  0  0  0
    0.1019   -7.8763    1.3534 H   0  0  0  0  0  0  0  0  0  0  0  0
   -1.5517   -8.3999    1.7261 H   0  0  0  0  0  0  0  0  0  0  0  0
    1.3956   -4.5385   -0.0738 H   0  0  0  0  0  0  0  0  0  0  0  0
   -3.1785   -1.2437    3.0650 H   0  0  0  0  0  0  0  0  0  0  0  0
   -0.0714   -5.1197    2.3455 H   0  0  0  0  0  0  0  0  0  0  0  0
   -4.6139   -5.7537    4.0202 H   0  0  0  0  0  0  0  0  0  0  0  0
   -5.2836   -4.8352    2.0195 H   0  0  0  0  0  0  0  0  0  0  0  0
  1 26  1  0  0  0  0
  1 27  1  0  0  0  0
  1 28  1  0  0  0  0
  2 29  1  0  0  0  0
  2 30  1  0  0  0  0
  2 31  1  0  0  0  0
  3 32  1  0  0  0  0
  4 33  1  0  0  0  0
  5  1  1  0  0  0  0
  6  2  1  0  0  0  0
  6 17  1  0  0  0  0
  6 21  1  1  0  0  0
  7  5  2  0  0  0  0
  8 18  1  0  0  0  0
  8 22  1  6  0  0  0
  9  8  1  0  0  0  0
  9 19  1  0  0  0  0
  9 23  1  6  0  0  0
 10  8  1  0  0  0  0
 10 24  1  1  0  0  0
 10  6  1  0  0  0  0
 11  7  1  0  0  0  0
 12  9  1  0  0  0  0
 12 16  1  0  0  0  0
 12 25  1  1  0  0  0
 13  3  2  0  0  0  0
 13  5  1  0  0  0  0
 14  3  1  0  0  0  0
 14 11  2  0  0  0  0
 15  4  2  0  0  0  0
 15  7  1  0  0  0  0
 16  4  1  0  0  0  0
 16 11  1  0  0  0  0
 17 34  1  0  0  0  0
 18 35  1  0  0  0  0
 19 36  1  0  0  0  0
 20 10  1  0  0  0  0
 20 12  1  0  0  0  0
M  END
>  <DRUGBANK_ID>
DB03952

>  <SECONDARY_ACCESSION_NUMBERS>
EXPT01123

>  <COMMON_NAME>
9-(6-deoxy-beta-D-allofuranosyl)-6-methylpurine

$$$$
