
 OpenBabel10282417143D

 82 83  0  0  0  0  0  0  0  0999 V2000
    1.5145   -0.2592   -0.9362 O   0  0  0  0  0  0  0  0  0  0  0  0
    2.3574    5.2211    0.9801 O   0  0  0  0  0  0  0  0  0  0  0  0
    4.3072    0.5329    2.8304 O   0  0  0  0  0  0  0  0  0  0  0  0
   -0.9910    3.9816    4.9931 O   0  0  0  0  0  0  0  0  0  0  0  0
    2.0547    0.7642    7.2031 O   0  0  0  0  0  0  0  0  0  0  0  0
    4.6754    2.6463    2.5164 O   0  0  0  0  0  0  0  0  0  0  0  0
    0.1807    1.8975    7.2970 O   0  0  0  0  0  0  0  0  0  0  0  0
   -0.2698   -1.1742    0.0852 N   0  0  0  0  0  0  0  0  0  0  0  0
    1.1195    3.3978    1.5988 N   0  0  0  0  0  0  0  0  0  0  0  0
    0.6263    5.1251    3.9498 N   0  0  0  0  0  0  0  0  0  0  0  0
    2.3458    1.8657    3.8274 N   0  0  0  0  0  0  0  0  0  0  0  0
   -0.3344    1.1912   -0.0018 C   0  0  1  0  0  0  0  0  0  0  0  0
   -1.6712    0.6703   -0.4362 C   0  0  0  0  0  0  0  0  0  0  0  0
   -0.7199    1.6137    1.4224 C   0  0  0  0  0  0  0  0  0  0  0  0
   -1.6426   -0.7979    0.0385 C   0  0  0  0  0  0  0  0  0  0  0  0
    0.4369    1.9485    2.2330 C   0  0  3  0  0  0  0  0  0  0  0  0
    0.4520   -0.1106   -0.3508 C   0  0  0  0  0  0  0  0  0  0  0  0
   -0.0265    1.5713    3.7591 C   0  0  0  0  0  0  0  0  0  0  0  0
    2.0003    5.2319    3.3823 C   0  0  2  0  0  0  0  0  0  0  0  0
    1.7990    4.6115    1.9104 C   0  0  0  0  0  0  0  0  0  0  0  0
    1.4347    3.0818    5.0679 C   0  0  1  0  0  0  0  0  0  0  0  0
    2.1362    3.7794    6.4825 C   0  0  0  0  0  0  0  0  0  0  0  0
    0.2212    4.1429    4.7540 C   0  0  0  0  0  0  0  0  0  0  0  0
    3.3730    4.8046    4.0986 C   0  0  0  0  0  0  0  0  0  0  0  0
    0.4550    0.7844    4.9281 C   0  0  0  0  0  0  0  0  0  0  0  0
    1.3836    4.5735    7.5180 C   0  0  0  0  0  0  0  0  0  0  0  0
    3.1552    3.0998    7.3994 C   0  0  0  0  0  0  0  0  0  0  0  0
    4.4043    4.9414    4.9627 C   0  0  0  0  0  0  0  0  0  0  0  0
    3.5084    3.5259    4.2206 C   0  0  0  0  0  0  0  0  0  0  0  0
    3.5236   -0.0076    1.8411 C   0  0  0  0  0  0  0  0  0  0  0  0
    3.8375    1.7515    2.9378 C   0  0  0  0  0  0  0  0  0  0  0  0
    0.8391    1.0925    6.6377 C   0  0  0  0  0  0  0  0  0  0  0  0
    5.3575    3.7743    5.6885 C   0  0  0  0  0  0  0  0  0  0  0  0
    4.2363    2.2281    4.9994 C   0  0  0  0  0  0  0  0  0  0  0  0
    2.7671   -1.0340    2.6843 C   0  0  0  0  0  0  0  0  0  0  0  0
    2.8407    1.0565    1.0004 C   0  0  0  0  0  0  0  0  0  0  0  0
    4.4879   -0.5493    0.8647 C   0  0  0  0  0  0  0  0  0  0  0  0
    5.3323    2.3925    5.6620 C   0  0  0  0  0  0  0  0  0  0  0  0
    3.1754   -0.1226    6.9758 C   0  0  0  0  0  0  0  0  0  0  0  0
    2.5107   -1.2679    6.3453 C   0  0  0  0  0  0  0  0  0  0  0  0
    0.1137   -2.1002   -0.0851 H   0  0  0  0  0  0  0  0  0  0  0  0
    1.4376    3.2551    0.6144 H   0  0  0  0  0  0  0  0  0  0  0  0
   -0.1958    5.3974    3.3958 H   0  0  0  0  0  0  0  0  0  0  0  0
    1.8931    1.0553    3.4437 H   0  0  0  0  0  0  0  0  0  0  0  0
    0.0904    2.0331   -0.5543 H   0  0  0  0  0  0  0  0  0  0  0  0
   -2.4955    1.2243    0.0267 H   0  0  0  0  0  0  0  0  0  0  0  0
   -1.7097    0.7911   -1.5137 H   0  0  0  0  0  0  0  0  0  0  0  0
   -1.3971    2.4732    1.4900 H   0  0  0  0  0  0  0  0  0  0  0  0
   -1.1367    0.7632    1.9733 H   0  0  0  0  0  0  0  0  0  0  0  0
   -2.0276   -0.9468    1.0504 H   0  0  0  0  0  0  0  0  0  0  0  0
   -2.1590   -1.4203   -0.6825 H   0  0  0  0  0  0  0  0  0  0  0  0
    0.9901    1.0792    2.0067 H   0  0  0  0  0  0  0  0  0  0  0  0
   -0.2225    2.6170    3.6854 H   0  0  0  0  0  0  0  0  0  0  0  0
    2.1017    6.2971    3.3322 H   0  0  0  0  0  0  0  0  0  0  0  0
    0.5800    2.6104    5.4945 H   0  0  0  0  0  0  0  0  0  0  0  0
    2.4813    4.6906    6.0334 H   0  0  0  0  0  0  0  0  0  0  0  0
    1.4671    0.4203    4.8471 H   0  0  0  0  0  0  0  0  0  0  0  0
    1.0415    3.9376    8.3295 H   0  0  0  0  0  0  0  0  0  0  0  0
    2.1480    5.2500    7.9508 H   0  0  0  0  0  0  0  0  0  0  0  0
    0.6002    5.1747    7.0766 H   0  0  0  0  0  0  0  0  0  0  0  0
    3.5078    2.2738    6.8667 H   0  0  0  0  0  0  0  0  0  0  0  0
    3.9950    3.7259    7.7182 H   0  0  0  0  0  0  0  0  0  0  0  0
    2.8522    2.5654    8.2990 H   0  0  0  0  0  0  0  0  0  0  0  0
    4.4053    5.8754    5.4694 H   0  0  0  0  0  0  0  0  0  0  0  0
    2.9107    3.3875    3.2977 H   0  0  0  0  0  0  0  0  0  0  0  0
    5.7947    4.0926    6.6128 H   0  0  0  0  0  0  0  0  0  0  0  0
    3.8398    1.1694    4.9171 H   0  0  0  0  0  0  0  0  0  0  0  0
    2.0381   -0.6603    3.3931 H   0  0  0  0  0  0  0  0  0  0  0  0
    2.1981   -1.7366    2.1013 H   0  0  0  0  0  0  0  0  0  0  0  0
    3.4848   -1.4968    3.3843 H   0  0  0  0  0  0  0  0  0  0  0  0
    3.3182    1.7442    0.2980 H   0  0  0  0  0  0  0  0  0  0  0  0
    1.9667    0.6109    0.6922 H   0  0  0  0  0  0  0  0  0  0  0  0
    2.4859    1.8450    1.6016 H   0  0  0  0  0  0  0  0  0  0  0  0
    4.9342    0.3102    0.3361 H   0  0  0  0  0  0  0  0  0  0  0  0
    5.2865   -1.0461    1.4044 H   0  0  0  0  0  0  0  0  0  0  0  0
    3.9183   -1.1746    0.1862 H   0  0  0  0  0  0  0  0  0  0  0  0
    5.6751    1.5790    6.3006 H   0  0  0  0  0  0  0  0  0  0  0  0
    4.0018    0.1853    6.3468 H   0  0  0  0  0  0  0  0  0  0  0  0
    3.7332   -0.2189    7.9253 H   0  0  0  0  0  0  0  0  0  0  0  0
    1.9272   -0.9948    5.4917 H   0  0  0  0  0  0  0  0  0  0  0  0
    3.2221   -1.9253    5.8795 H   0  0  0  0  0  0  0  0  0  0  0  0
    1.7122   -1.5877    7.0074 H   0  0  0  0  0  0  0  0  0  0  0  0
  1 17  2  0  0  0  0
  2 20  2  0  0  0  0
  3 30  1  0  0  0  0
  3 31  1  0  0  0  0
  4 23  2  0  0  0  0
  5 32  1  0  0  0  0
  5 39  1  0  0  0  0
  6 31  2  0  0  0  0
  7 32  2  0  0  0  0
  8 15  1  0  0  0  0
  8 17  1  0  0  0  0
  8 41  1  0  0  0  0
  9 16  1  0  0  0  0
  9 20  1  0  0  0  0
  9 42  1  0  0  0  0
 10 23  1  0  0  0  0
 10 43  1  0  0  0  0
 11 31  1  0  0  0  0
 11 44  1  0  0  0  0
 12 13  1  0  0  0  0
 12 14  1  0  0  0  0
 12 17  1  0  0  0  0
 12 45  1  6  0  0  0
 13 15  1  0  0  0  0
 13 46  1  0  0  0  0
 13 47  1  0  0  0  0
 14 16  1  0  0  0  0
 14 48  1  0  0  0  0
 14 49  1  0  0  0  0
 15 50  1  0  0  0  0
 15 51  1  0  0  0  0
 16 18  1  0  0  0  0
 16 52  1  0  0  0  0
 18 25  2  0  0  0  0
 18 53  1  0  0  0  0
 19 10  1  0  0  0  0
 19 20  1  0  0  0  0
 19 24  1  0  0  0  0
 19 54  1  6  0  0  0
 21 11  1  0  0  0  0
 21 22  1  0  0  0  0
 21 23  1  0  0  0  0
 21 55  1  1  0  0  0
 22 26  1  0  0  0  0
 22 27  1  0  0  0  0
 22 56  1  0  0  0  0
 24 28  2  0  0  0  0
 24 29  1  0  0  0  0
 25 32  1  0  0  0  0
 25 57  1  0  0  0  0
 26 58  1  0  0  0  0
 26 59  1  0  0  0  0
 26 60  1  0  0  0  0
 27 61  1  0  0  0  0
 27 62  1  0  0  0  0
 27 63  1  0  0  0  0
 28 33  1  0  0  0  0
 28 64  1  0  0  0  0
 29 34  2  0  0  0  0
 29 65  1  0  0  0  0
 30 35  1  0  0  0  0
 30 36  1  0  0  0  0
 30 37  1  0  0  0  0
 33 38  2  0  0  0  0
 33 66  1  0  0  0  0
 34 38  1  0  0  0  0
 34 67  1  0  0  0  0
 35 68  1  0  0  0  0
 35 69  1  0  0  0  0
 35 70  1  0  0  0  0
 36 71  1  0  0  0  0
 36 72  1  0  0  0  0
 36 73  1  0  0  0  0
 37 74  1  0  0  0  0
 37 75  1  0  0  0  0
 37 76  1  0  0  0  0
 38 77  1  0  0  0  0
 39 40  1  0  0  0  0
 39 78  1  0  0  0  0
 39 79  1  0  0  0  0
 40 80  1  0  0  0  0
 40 81  1  0  0  0  0
 40 82  1  0  0  0  0
M  END
>  <DRUGBANK_ID>
DB04692

>  <COMMON_NAME>
Ethyl (2E)-4-({(2S)-2-[(N-{[(2-methyl-2-propanyl)oxy]carbonyl}-L-valyl)amino]-2-phenylacetyl}amino)-5-[(3S)-2-oxo-3-pyrrolidinyl]-2-pentenoate

$$$$
