
 OpenBabel10282417193D

 36 38  0  0  0  0  0  0  0  0999 V2000
    1.3034    0.5851    0.1539 C   0  0  0  0  0  0  0  0  0  0  0  0
    0.5381    1.0026   -1.0628 C   0  0  0  0  0  0  0  0  0  0  0  0
    1.2722    1.8817   -2.0400 C   0  0  0  0  0  0  0  0  0  0  0  0
    0.3607    2.4984   -1.0155 C   0  0  0  0  0  0  0  0  0  0  0  0
   -0.5071    0.0111   -1.6392 C   0  0  0  0  0  0  0  0  0  0  0  0
    0.0828   -1.3803   -1.9794 C   0  0  0  0  0  0  0  0  0  0  0  0
    0.8164   -2.1078   -0.8463 C   0  0  0  0  0  0  0  0  0  0  0  0
   -0.0528   -2.3722    0.4209 C   0  0  0  0  0  0  0  0  0  0  0  0
   -0.7580   -1.4490    1.1288 C   0  0  0  0  0  0  0  0  0  0  0  0
   -1.5018   -1.6828    2.3713 C   0  0  0  0  0  0  0  0  0  0  0  0
   -2.0048   -0.7487    2.9778 O   0  0  0  0  0  0  0  0  0  0  0  0
   -1.5813   -2.9772    2.7636 O   0  0  0  0  0  0  0  0  0  0  0  0
   -0.9143   -3.9561    2.0096 C   0  0  0  0  0  0  0  0  0  0  0  0
   -0.1592   -3.7172    0.9233 C   0  0  0  0  0  0  0  0  0  0  0  0
    0.4656   -4.9002    0.2533 C   0  0  0  0  0  0  0  0  0  0  0  0
    1.1596   -4.8810   -0.7392 O   0  0  0  0  0  0  0  0  0  0  0  0
    0.2080   -6.1060    0.8189 N   0  0  0  0  0  0  0  0  0  0  0  0
   -0.5862   -6.3227    1.8939 C   0  0  0  0  0  0  0  0  0  0  0  0
   -0.8055   -7.4493    2.3141 O   0  0  0  0  0  0  0  0  0  0  0  0
   -1.1224   -5.2140    2.4701 N   0  0  0  0  0  0  0  0  0  0  0  0
    0.9965   -0.3821    0.3950 H   0  0  0  0  0  0  0  0  0  0  0  0
    1.0257    1.0874    1.0830 H   0  0  0  0  0  0  0  0  0  0  0  0
    2.3764    0.4667    0.0082 H   0  0  0  0  0  0  0  0  0  0  0  0
    2.3505    1.9062   -1.9148 H   0  0  0  0  0  0  0  0  0  0  0  0
    0.9574    1.9305   -3.0745 H   0  0  0  0  0  0  0  0  0  0  0  0
   -0.5646    2.9663   -1.3106 H   0  0  0  0  0  0  0  0  0  0  0  0
    0.8063    2.9798   -0.1410 H   0  0  0  0  0  0  0  0  0  0  0  0
   -1.3400   -0.1280   -0.9441 H   0  0  0  0  0  0  0  0  0  0  0  0
   -1.0137    0.4000   -2.5341 H   0  0  0  0  0  0  0  0  0  0  0  0
   -0.7128   -2.0613   -2.3178 H   0  0  0  0  0  0  0  0  0  0  0  0
    0.7707   -1.2783   -2.8285 H   0  0  0  0  0  0  0  0  0  0  0  0
    1.2614   -2.9815   -1.3068 H   0  0  0  0  0  0  0  0  0  0  0  0
    1.7780   -1.6347   -0.5988 H   0  0  0  0  0  0  0  0  0  0  0  0
   -0.8317   -0.3902    0.9226 H   0  0  0  0  0  0  0  0  0  0  0  0
    0.6217   -6.8875    0.3404 H   0  0  0  0  0  0  0  0  0  0  0  0
   -1.7262   -5.3466    3.2698 H   0  0  0  0  0  0  0  0  0  0  0  0
  1  2  1  0  0  0  0
  1 21  1  0  0  0  0
  1 22  1  0  0  0  0
  1 23  1  0  0  0  0
  2  3  1  0  0  0  0
  2  4  1  0  0  0  0
  2  5  1  0  0  0  0
  3  4  1  0  0  0  0
  3 24  1  0  0  0  0
  3 25  1  0  0  0  0
  4 26  1  0  0  0  0
  4 27  1  0  0  0  0
  5  6  1  0  0  0  0
  5 28  1  0  0  0  0
  5 29  1  0  0  0  0
  6  7  1  0  0  0  0
  6 30  1  0  0  0  0
  6 31  1  0  0  0  0
  7  8  1  0  0  0  0
  7 32  1  0  0  0  0
  7 33  1  0  0  0  0
  8  9  2  0  0  0  0
  8 14  1  0  0  0  0
  9 10  1  0  0  0  0
  9 34  1  0  0  0  0
 10 11  2  0  0  0  0
 10 12  1  0  0  0  0
 12 13  1  0  0  0  0
 13 14  2  0  0  0  0
 13 20  1  0  0  0  0
 14 15  1  0  0  0  0
 15 16  2  0  0  0  0
 15 17  1  0  0  0  0
 17 18  1  0  0  0  0
 17 35  1  0  0  0  0
 18 19  2  0  0  0  0
 18 20  1  0  0  0  0
 20 36  1  0  0  0  0
M  END
>  <DRUGBANK_ID>
DB12433

>  <COMMON_NAME>
SCH-900271

>  <CAS_NUMBER>
915210-50-3

>  <UNII>
G2283XQ6VJ

$$$$
