
 OpenBabel10282417213D

 34 37  0  0  0  0  0  0  0  0999 V2000
   -1.1889   -0.7697   -0.2481 C   0  0  0  0  0  0  0  0  0  0  0  0
   -0.5612    0.4753   -0.0501 C   0  0  0  0  0  0  0  0  0  0  0  0
   -0.4593   -2.0179   -0.6778 C   0  0  0  0  0  0  0  0  0  0  0  0
    0.6735   -2.4280   -0.2082 N   0  0  0  0  0  0  0  0  0  0  0  0
    1.3603   -1.6613    0.8239 C   0  0  0  0  0  0  0  0  0  0  0  0
   -1.3397    1.6058    0.2525 C   0  0  0  0  0  0  0  0  0  0  0  0
   -2.5929   -0.8427   -0.1412 C   0  0  0  0  0  0  0  0  0  0  0  0
   -1.1051   -2.8102   -1.7742 C   0  0  0  0  0  0  0  0  0  0  0  0
   -3.3473    0.2976    0.1398 C   0  0  0  0  0  0  0  0  0  0  0  0
   -2.7270    1.5232    0.3303 C   0  0  0  0  0  0  0  0  0  0  0  0
   -1.5697   -4.0413   -1.4500 N   0  0  0  0  0  0  0  0  0  0  0  0
   -1.3607   -2.1788   -2.9862 C   0  0  0  0  0  0  0  0  0  0  0  0
   -2.2459   -2.7892   -3.8672 C   0  0  0  0  0  0  0  0  0  0  0  0
   -2.3501   -4.6467   -2.3742 C   0  0  0  0  0  0  0  0  0  0  0  0
   -2.7620   -4.0417   -3.5533 C   0  0  0  0  0  0  0  0  0  0  0  0
    0.8467    0.6151   -0.0987 N   0  0  0  0  0  0  0  0  0  0  0  0
    1.7613   -0.3333    0.3011 C   0  0  0  0  0  0  0  0  0  0  0  0
    2.9776    0.1621    0.2209 N   0  0  0  0  0  0  0  0  0  0  0  0
    2.8851    1.4331   -0.2771 N   0  0  0  0  0  0  0  0  0  0  0  0
    1.6128    1.7073   -0.4829 C   0  0  0  0  0  0  0  0  0  0  0  0
   -5.2271    0.1828    0.2829 Br  0  0  0  0  0  0  0  0  0  0  0  0
    1.1188    2.9390   -1.1495 C   0  0  0  0  0  0  0  0  0  0  0  0
    0.7506   -1.5696    1.7321 H   0  0  0  0  0  0  0  0  0  0  0  0
    2.2598   -2.2137    1.1205 H   0  0  0  0  0  0  0  0  0  0  0  0
   -0.8961    2.5619    0.5078 H   0  0  0  0  0  0  0  0  0  0  0  0
   -3.1073   -1.7926   -0.2773 H   0  0  0  0  0  0  0  0  0  0  0  0
   -3.3016    2.4161    0.5672 H   0  0  0  0  0  0  0  0  0  0  0  0
   -0.9101   -1.2224   -3.2231 H   0  0  0  0  0  0  0  0  0  0  0  0
   -2.5358   -2.2892   -4.7871 H   0  0  0  0  0  0  0  0  0  0  0  0
   -2.6577   -5.6620   -2.1362 H   0  0  0  0  0  0  0  0  0  0  0  0
   -3.4573   -4.5408   -4.2206 H   0  0  0  0  0  0  0  0  0  0  0  0
    0.5228    2.6951   -2.0349 H   0  0  0  0  0  0  0  0  0  0  0  0
    0.5259    3.5625   -0.4782 H   0  0  0  0  0  0  0  0  0  0  0  0
    1.9585    3.5625   -1.4714 H   0  0  0  0  0  0  0  0  0  0  0  0
  2  1  2  0  0  0  0
  3  1  1  0  0  0  0
  4  3  2  0  0  0  0
  5  4  1  0  0  0  0
  5 23  1  0  0  0  0
  5 24  1  0  0  0  0
  6  2  1  0  0  0  0
  6 10  2  0  0  0  0
  6 25  1  0  0  0  0
  7  1  1  0  0  0  0
  7 26  1  0  0  0  0
  8  3  1  0  0  0  0
  9  7  2  0  0  0  0
  9 21  1  0  0  0  0
 10  9  1  0  0  0  0
 10 27  1  0  0  0  0
 11  8  1  0  0  0  0
 12  8  2  0  0  0  0
 12 28  1  0  0  0  0
 13 12  1  0  0  0  0
 13 29  1  0  0  0  0
 14 11  2  0  0  0  0
 14 15  1  0  0  0  0
 14 30  1  0  0  0  0
 15 13  2  0  0  0  0
 15 31  1  0  0  0  0
 16  2  1  0  0  0  0
 16 17  1  0  0  0  0
 17  5  1  0  0  0  0
 17 18  2  0  0  0  0
 18 19  1  0  0  0  0
 19 20  2  0  0  0  0
 20 16  1  0  0  0  0
 20 22  1  0  0  0  0
 22 32  1  0  0  0  0
 22 33  1  0  0  0  0
 22 34  1  0  0  0  0
M  END
>  <DRUGBANK_ID>
DB14718

>  <COMMON_NAME>
Pyrazolam

>  <CAS_NUMBER>
39243-02-2

>  <UNII>
8LH16383PK

>  <SYNONYMS>
Pirazolam

$$$$
