
 OpenBabel10282417193D

 56 56  0  0  0  0  0  0  0  0999 V2000
    1.0000   -0.0787    0.0975 C   0  0  0  0  0  0  0  0  0  0  0  0
   -2.7912   -0.8897    6.5330 C   0  0  0  0  0  0  0  0  0  0  0  0
   -0.4150   -5.1421    0.7000 C   0  0  0  0  0  0  0  0  0  0  0  0
   -4.7479   -3.3397    4.9650 C   0  0  0  0  0  0  0  0  0  0  0  0
    3.9762   -4.0426   -1.3148 C   0  0  0  0  0  0  0  0  0  0  0  0
    4.3669   -4.3562    1.1410 C   0  0  0  0  0  0  0  0  0  0  0  0
   -0.7838   -1.2240    3.3181 C   0  0  0  0  0  0  0  0  0  0  0  0
    2.9073   -7.1362    0.7026 C   0  0  0  0  0  0  0  0  0  0  0  0
   -0.2692   -0.4692    2.1936 C   0  0  0  0  0  0  0  0  0  0  0  0
   -1.5254   -0.7660    4.3377 C   0  0  0  0  0  0  0  0  0  0  0  0
    1.4167   -6.8453    0.6228 C   0  0  0  0  0  0  0  0  0  0  0  0
    0.9733   -2.3611    1.1975 C   0  0  0  0  0  0  0  0  0  0  0  0
    1.6603   -2.9857    0.2306 C   0  0  0  0  0  0  0  0  0  0  0  0
   -1.7280   -2.9255    5.5358 C   0  0  0  0  0  0  0  0  0  0  0  0
    3.6472   -6.2859   -0.3152 C   0  0  0  0  0  0  0  0  0  0  0  0
   -2.2960   -3.8578    6.5578 C   0  0  0  0  0  0  0  0  0  0  0  0
    0.5291   -0.9684    1.2208 C   0  0  0  0  0  0  0  0  0  0  0  0
   -1.9672   -1.5938    5.4655 C   0  0  0  0  0  0  0  0  0  0  0  0
    1.0684   -5.3740    0.5204 C   0  0  0  0  0  0  0  0  0  0  0  0
   -4.2399   -4.7149    5.2456 C   0  0  0  0  0  0  0  0  0  0  0  0
    1.9969   -4.4138    0.2707 C   0  0  0  0  0  0  0  0  0  0  0  0
    3.4696   -4.7659   -0.0461 C   0  0  0  0  0  0  0  0  0  0  0  0
   -4.8772   -5.6911    4.8365 O   0  0  0  0  0  0  0  0  0  0  0  0
   -3.0806   -4.8934    5.9193 O   0  0  0  0  0  0  0  0  0  0  0  0
    0.6478    0.9519    0.2077 H   0  0  0  0  0  0  0  0  0  0  0  0
    0.6342   -0.4450   -0.8686 H   0  0  0  0  0  0  0  0  0  0  0  0
    2.0950   -0.0468    0.0691 H   0  0  0  0  0  0  0  0  0  0  0  0
   -3.7962   -1.3051    6.6636 H   0  0  0  0  0  0  0  0  0  0  0  0
   -2.3017   -0.9890    7.5052 H   0  0  0  0  0  0  0  0  0  0  0  0
   -2.9526    0.1675    6.3150 H   0  0  0  0  0  0  0  0  0  0  0  0
   -0.9685   -5.6927   -0.0665 H   0  0  0  0  0  0  0  0  0  0  0  0
   -0.7327   -5.4934    1.6876 H   0  0  0  0  0  0  0  0  0  0  0  0
   -0.7293   -4.1027    0.6060 H   0  0  0  0  0  0  0  0  0  0  0  0
   -4.7568   -3.1374    3.8918 H   0  0  0  0  0  0  0  0  0  0  0  0
   -5.7234   -3.1717    5.4229 H   0  0  0  0  0  0  0  0  0  0  0  0
   -4.1175   -2.5973    5.3870 H   0  0  0  0  0  0  0  0  0  0  0  0
    3.9769   -2.9538   -1.2012 H   0  0  0  0  0  0  0  0  0  0  0  0
    5.0076   -4.3292   -1.5467 H   0  0  0  0  0  0  0  0  0  0  0  0
    3.3533   -4.2912   -2.1824 H   0  0  0  0  0  0  0  0  0  0  0  0
    5.4144   -4.6154    0.9460 H   0  0  0  0  0  0  0  0  0  0  0  0
    4.3274   -3.2768    1.3234 H   0  0  0  0  0  0  0  0  0  0  0  0
    4.0712   -4.8558    2.0697 H   0  0  0  0  0  0  0  0  0  0  0  0
   -0.5212   -2.2693    3.3236 H   0  0  0  0  0  0  0  0  0  0  0  0
    3.0850   -8.2000    0.5073 H   0  0  0  0  0  0  0  0  0  0  0  0
    3.2769   -6.9402    1.7156 H   0  0  0  0  0  0  0  0  0  0  0  0
   -0.5555    0.5806    2.1573 H   0  0  0  0  0  0  0  0  0  0  0  0
   -1.8343    0.2768    4.3405 H   0  0  0  0  0  0  0  0  0  0  0  0
    0.9362   -7.2807    1.5076 H   0  0  0  0  0  0  0  0  0  0  0  0
    0.9973   -7.3554   -0.2537 H   0  0  0  0  0  0  0  0  0  0  0  0
    0.6850   -2.9895    2.0324 H   0  0  0  0  0  0  0  0  0  0  0  0
    2.0022   -2.4262   -0.6314 H   0  0  0  0  0  0  0  0  0  0  0  0
   -1.1419   -3.4510    4.7856 H   0  0  0  0  0  0  0  0  0  0  0  0
    3.2651   -6.5359   -1.3151 H   0  0  0  0  0  0  0  0  0  0  0  0
    4.7103   -6.5560   -0.3161 H   0  0  0  0  0  0  0  0  0  0  0  0
   -1.4616   -4.3562    7.0668 H   0  0  0  0  0  0  0  0  0  0  0  0
   -2.8955   -3.3734    7.3307 H   0  0  0  0  0  0  0  0  0  0  0  0
  1 25  1  0  0  0  0
  1 26  1  0  0  0  0
  1 27  1  0  0  0  0
  2 28  1  0  0  0  0
  2 29  1  0  0  0  0
  2 30  1  0  0  0  0
  3 31  1  0  0  0  0
  3 32  1  0  0  0  0
  3 33  1  0  0  0  0
  4 34  1  0  0  0  0
  4 35  1  0  0  0  0
  4 36  1  0  0  0  0
  5 37  1  0  0  0  0
  5 38  1  0  0  0  0
  5 39  1  0  0  0  0
  6 40  1  0  0  0  0
  6 41  1  0  0  0  0
  6 42  1  0  0  0  0
  7 43  1  0  0  0  0
  8 44  1  0  0  0  0
  8 45  1  0  0  0  0
  9  7  1  0  0  0  0
  9 46  1  0  0  0  0
 10  7  2  0  0  0  0
 10 47  1  0  0  0  0
 11  8  1  0  0  0  0
 11 48  1  0  0  0  0
 11 49  1  0  0  0  0
 12 50  1  0  0  0  0
 13 12  2  0  0  0  0
 13 51  1  0  0  0  0
 14 52  1  0  0  0  0
 15  8  1  0  0  0  0
 15 53  1  0  0  0  0
 15 54  1  0  0  0  0
 16 14  1  0  0  0  0
 16 55  1  0  0  0  0
 16 56  1  0  0  0  0
 17  1  1  0  0  0  0
 17  9  2  0  0  0  0
 17 12  1  0  0  0  0
 18  2  1  0  0  0  0
 18 10  1  0  0  0  0
 18 14  2  0  0  0  0
 19  3  1  0  0  0  0
 19 11  1  0  0  0  0
 20  4  1  0  0  0  0
 21 13  1  0  0  0  0
 21 19  2  0  0  0  0
 22  5  1  0  0  0  0
 22  6  1  0  0  0  0
 22 15  1  0  0  0  0
 22 21  1  0  0  0  0
 23 20  2  0  0  0  0
 24 16  1  0  0  0  0
 24 20  1  0  0  0  0
M  END
>  <DRUGBANK_ID>
DB12112

>  <COMMON_NAME>
Zuretinol acetate

>  <CAS_NUMBER>
29584-22-3

>  <UNII>
2K3YP54BYU

>  <SYNONYMS>
Zuretinol acetate

$$$$
