039
 OpenBabel10282417163D

 46 50  0  0  0  0  0  0  0  0999 V2000
    1.4630   -0.0649   -0.4359 C   0  0  0  0  0  0  0  0  0  0  0  0
    1.4466   -1.0314    1.2476 O   0  0  0  0  0  0  0  0  0  0  0  0
    1.0238   -1.9770    2.3041 C   0  0  0  0  0  0  0  0  0  0  0  0
    2.2731   -2.5761    2.6157 C   0  0  0  0  0  0  0  0  0  0  0  0
    2.5839   -3.8698    2.8042 C   0  0  0  0  0  0  0  0  0  0  0  0
    1.4895   -4.6286    2.9482 C   0  0  0  0  0  0  0  0  0  0  0  0
    0.1733   -4.0414    2.9576 C   0  0  0  0  0  0  0  0  0  0  0  0
   -0.1506   -2.7314    2.4527 C   0  0  0  0  0  0  0  0  0  0  0  0
   -1.2311   -2.6813    1.3508 N   0  0  0  0  0  0  0  0  0  0  0  0
   -0.4220   -3.0623    0.2298 C   0  0  0  0  0  0  0  0  0  0  0  0
   -0.1606   -4.1916   -0.1557 O   0  0  0  0  0  0  0  0  0  0  0  0
    0.4339   -1.9137   -0.1317 C   0  0  0  0  0  0  0  0  0  0  0  0
    2.2181   -2.1706   -0.1854 C   0  0  0  0  0  0  0  0  0  0  0  0
    2.8488   -3.8178   -0.4095 Cl  0  0  0  0  0  0  0  0  0  0  0  0
    3.3207   -0.9801    0.6186 C   0  0  0  0  0  0  0  0  0  0  0  0
    2.6891    0.4637    1.4342 C   0  0  0  0  0  0  0  0  0  0  0  0
    0.9360    0.7944    1.4464 C   0  0  0  0  0  0  0  0  0  0  0  0
   -0.1509   -0.3905    0.6544 C   0  0  0  0  0  0  0  0  0  0  0  0
   -1.5327   -0.3108    0.7892 N   0  0  0  0  0  0  0  0  0  0  0  0
   -1.9675   -1.4553    1.1312 C   0  0  0  0  0  0  0  0  0  0  0  0
   -3.4804   -1.3175    1.1211 C   0  0  0  0  0  0  0  0  0  0  0  0
   -4.2563   -2.8527    0.1594 S   0  0  0  0  0  0  0  0  0  0  0  0
   -3.4893   -2.9862   -1.5919 C   0  0  0  0  0  0  0  0  0  0  0  0
   -3.3474   -4.2529   -2.4742 C   0  0  0  0  0  0  0  0  0  0  0  0
   -3.0533   -5.6305   -3.8060 N   0  0  0  0  0  0  0  0  0  0  0  0
   -2.4108   -5.1855   -4.9263 C   0  0  0  0  0  0  0  0  0  0  0  0
   -2.7569   -4.8612   -3.6161 N   0  0  0  0  0  0  0  0  0  0  0  0
   -2.8369   -3.5566   -3.5117 C   0  0  0  0  0  0  0  0  0  0  0  0
   -2.5186   -2.4473   -4.1013 N   0  0  0  0  0  0  0  0  0  0  0  0
   -2.7803   -1.4885   -3.2596 C   0  0  0  0  0  0  0  0  0  0  0  0
   -3.2355   -1.6950   -2.0286 N   0  0  0  0  0  0  0  0  0  0  0  0
    0.8721    0.9284   -0.4960 H   0  0  0  0  0  0  0  0  0  0  0  0
    0.9185   -0.5156   -1.3164 H   0  0  0  0  0  0  0  0  0  0  0  0
    2.4859    0.1935   -0.7391 H   0  0  0  0  0  0  0  0  0  0  0  0
    3.0270   -2.4219    1.8852 H   0  0  0  0  0  0  0  0  0  0  0  0
    3.5722   -4.1805    2.4258 H   0  0  0  0  0  0  0  0  0  0  0  0
    1.7103   -5.6808    3.0059 H   0  0  0  0  0  0  0  0  0  0  0  0
   -0.5834   -4.6640    3.4070 H   0  0  0  0  0  0  0  0  0  0  0  0
    4.2288   -1.3448    1.1531 H   0  0  0  0  0  0  0  0  0  0  0  0
    3.3705    0.9573    2.1294 H   0  0  0  0  0  0  0  0  0  0  0  0
    0.7356    1.8763    1.5066 H   0  0  0  0  0  0  0  0  0  0  0  0
   -3.8256   -1.0853    2.1595 H   0  0  0  0  0  0  0  0  0  0  0  0
   -3.6915   -0.3175    0.6401 H   0  0  0  0  0  0  0  0  0  0  0  0
   -2.0980   -4.3016   -5.4998 H   0  0  0  0  0  0  0  0  0  0  0  0
   -3.1957   -5.8445   -2.7906 H   0  0  0  0  0  0  0  0  0  0  0  0
   -2.5786   -0.4979   -3.6268 H   0  0  0  0  0  0  0  0  0  0  0  0
  1  2  1  0  0  0  0
  1 32  1  0  0  0  0
  1 33  1  0  0  0  0
  1 34  1  0  0  0  0
  2  3  1  0  0  0  0
  3  4  2  0  0  0  0
  3  8  1  0  0  0  0
  4  5  1  0  0  0  0
  4 35  1  0  0  0  0
  5  6  2  0  0  0  0
  5 36  1  0  0  0  0
  6  7  1  0  0  0  0
  6 37  1  0  0  0  0
  7  8  2  0  0  0  0
  7 38  1  0  0  0  0
  8  9  1  0  0  0  0
  9 10  1  0  0  0  0
  9 20  1  0  0  0  0
 10 11  2  0  0  0  0
 10 12  1  0  0  0  0
 12 13  2  0  0  0  0
 12 18  1  0  0  0  0
 13 14  1  0  0  0  0
 13 15  1  0  0  0  0
 15 16  2  0  0  0  0
 15 39  1  0  0  0  0
 16 17  1  0  0  0  0
 16 40  1  0  0  0  0
 17 18  2  0  0  0  0
 17 41  1  0  0  0  0
 18 19  1  0  0  0  0
 19 20  2  0  0  0  0
 20 21  1  0  0  0  0
 21 22  1  0  0  0  0
 21 42  1  0  0  0  0
 21 43  1  0  0  0  0
 22 23  1  0  0  0  0
 23 24  2  0  0  0  0
 23 31  1  0  0  0  0
 24 25  1  0  0  0  0
 24 28  1  0  0  0  0
 25 26  2  0  0  0  0
 26 27  1  0  0  0  0
 26 44  1  0  0  0  0
 27 28  1  0  0  0  0
 27 45  1  0  0  0  0
 28 29  2  0  0  0  0
 29 30  1  0  0  0  0
 30 31  2  0  0  0  0
 30 46  1  0  0  0  0
M  END
>  <DRUGBANK_ID>
DB06831

>  <COMMON_NAME>
2-((9H-PURIN-6-YLTHIO)METHYL)-5-CHLORO-3-(2-METHOXYPHENYL)QUINAZOLIN-4(3H)-ONE

$$$$
