219090
 OpenBabel10282417153D

 63 66  0  0  1  0  0  0  0  0999 V2000
    1.0433    0.0760    0.0484 P   0  0  0  0  0  0  0  0  0  0  0  0
   10.6469   -1.4407    5.7545 F   0  0  0  0  0  0  0  0  0  0  0  0
    2.4949   -5.0260   -2.6965 F   0  0  0  0  0  0  0  0  0  0  0  0
    3.2568   -7.0400   -2.3950 F   0  0  0  0  0  0  0  0  0  0  0  0
    1.3392   -6.4613   -1.5450 F   0  0  0  0  0  0  0  0  0  0  0  0
    1.1474   -4.1192    2.8253 F   0  0  0  0  0  0  0  0  0  0  0  0
    2.0807   -5.9100    3.6385 F   0  0  0  0  0  0  0  0  0  0  0  0
    2.9612   -3.9534    4.0034 F   0  0  0  0  0  0  0  0  0  0  0  0
    5.2683   -0.8341    2.6333 O   0  0  0  0  0  0  0  0  0  0  0  0
    6.5068   -2.5988    1.5281 O   0  0  0  0  0  0  0  0  0  0  0  0
    3.3091   -2.1032   -0.2220 O   0  0  0  0  0  0  0  0  0  0  0  0
    1.1596   -0.5834   -1.4420 O   0  0  0  0  0  0  0  0  0  0  0  0
    1.0855   -1.2019    1.0642 O   0  0  0  0  0  0  0  0  0  0  0  0
   -0.5050    0.0760    0.0484 O   0  0  0  0  0  0  0  0  0  0  0  0
    6.8210    1.2062    1.2357 N   0  0  0  0  0  0  0  0  0  0  0  0
    3.5318    1.3005   -0.2196 N   0  0  0  0  0  0  0  0  0  0  0  0
    4.7818   -0.3872   -0.8394 N   0  0  0  0  0  0  0  0  0  0  0  0
    2.8233    0.0760    0.0484 N   0  0  0  0  0  0  0  0  0  0  0  0
    7.3324   -0.2153    1.3331 C   0  0  2  0  0  0  0  0  0  0  0  0
    6.1567   -1.2155    1.5500 C   0  0  2  0  0  0  0  0  0  0  0  0
    6.0214    1.5316    2.4319 C   0  0  0  0  0  0  0  0  0  0  0  0
    4.8818    0.5537    2.6576 C   0  0  0  0  0  0  0  0  0  0  0  0
    6.1253    1.5622   -0.0682 C   0  0  0  0  0  0  0  0  0  0  0  0
    8.3550   -0.4865    2.4536 C   0  0  0  0  0  0  0  0  0  0  0  0
    6.3478   -3.3945    0.3263 C   0  0  1  0  0  0  0  0  0  0  0  0
    4.8068    0.8448   -0.4189 C   0  0  0  0  0  0  0  0  0  0  0  0
    8.8106   -1.8052    2.6793 C   0  0  0  0  0  0  0  0  0  0  0  0
    8.7965    0.5054    3.3310 C   0  0  0  0  0  0  0  0  0  0  0  0
    5.1187   -4.2770    0.4806 C   0  0  0  0  0  0  0  0  0  0  0  0
    6.3897   -2.7200   -1.0561 C   0  0  0  0  0  0  0  0  0  0  0  0
    9.5515   -2.1404    3.8018 C   0  0  0  0  0  0  0  0  0  0  0  0
    9.5241    0.1766    4.4675 C   0  0  0  0  0  0  0  0  0  0  0  0
    4.3979   -4.2506    1.6810 C   0  0  0  0  0  0  0  0  0  0  0  0
    4.5965   -5.0123   -0.5952 C   0  0  0  0  0  0  0  0  0  0  0  0
    9.8994   -1.1403    4.6883 C   0  0  0  0  0  0  0  0  0  0  0  0
    3.5680   -0.9431   -0.4188 C   0  0  0  0  0  0  0  0  0  0  0  0
    3.1546   -4.8687    1.7974 C   0  0  0  0  0  0  0  0  0  0  0  0
    3.3100   -5.5628   -0.5211 C   0  0  0  0  0  0  0  0  0  0  0  0
    2.6256   -5.5442    0.6974 C   0  0  0  0  0  0  0  0  0  0  0  0
    2.6085   -6.0207   -1.7712 C   0  0  0  0  0  0  0  0  0  0  0  0
    2.3501   -4.7137    3.0525 C   0  0  0  0  0  0  0  0  0  0  0  0
    0.8409    0.0435   -2.1164 H   0  0  0  0  0  0  0  0  0  0  0  0
    1.9560   -1.4639    1.4127 H   0  0  0  0  0  0  0  0  0  0  0  0
    3.2857    2.1594    0.2563 H   0  0  0  0  0  0  0  0  0  0  0  0
    7.8741   -0.4453    0.4073 H   0  0  0  0  0  0  0  0  0  0  0  0
    5.5830   -1.1460    0.6952 H   0  0  0  0  0  0  0  0  0  0  0  0
    6.5966    1.4943    3.3603 H   0  0  0  0  0  0  0  0  0  0  0  0
    5.7018    2.5806    2.3898 H   0  0  0  0  0  0  0  0  0  0  0  0
    4.3931    0.7708    3.6119 H   0  0  0  0  0  0  0  0  0  0  0  0
    4.1059    0.7565    1.9388 H   0  0  0  0  0  0  0  0  0  0  0  0
    6.8242    1.3675   -0.8868 H   0  0  0  0  0  0  0  0  0  0  0  0
    5.9224    2.6378   -0.0473 H   0  0  0  0  0  0  0  0  0  0  0  0
    7.2122   -4.0638    0.3411 H   0  0  0  0  0  0  0  0  0  0  0  0
    8.5600   -2.6234    2.0106 H   0  0  0  0  0  0  0  0  0  0  0  0
    8.5449    1.5481    3.1722 H   0  0  0  0  0  0  0  0  0  0  0  0
    7.1730   -1.9688   -1.1583 H   0  0  0  0  0  0  0  0  0  0  0  0
    6.4731   -3.4305   -1.8832 H   0  0  0  0  0  0  0  0  0  0  0  0
    5.4382   -2.2763   -1.2998 H   0  0  0  0  0  0  0  0  0  0  0  0
    9.8369   -3.1716    3.9772 H   0  0  0  0  0  0  0  0  0  0  0  0
    9.7908    0.9509    5.1755 H   0  0  0  0  0  0  0  0  0  0  0  0
    4.7694   -3.6696    2.5246 H   0  0  0  0  0  0  0  0  0  0  0  0
    5.1357   -5.0777   -1.5387 H   0  0  0  0  0  0  0  0  0  0  0  0
    1.6422   -6.0062    0.7743 H   0  0  0  0  0  0  0  0  0  0  0  0
  1 12  1  0  0  0  0
  1 13  1  0  0  0  0
  1 14  2  0  0  0  0
  1 18  1  0  0  0  0
  2 35  1  0  0  0  0
  3 40  1  0  0  0  0
  4 40  1  0  0  0  0
  5 40  1  0  0  0  0
  6 41  1  0  0  0  0
  7 41  1  0  0  0  0
  8 41  1  0  0  0  0
  9 20  1  0  0  0  0
  9 22  1  0  0  0  0
 11 36  2  0  0  0  0
 12 42  1  0  0  0  0
 13 43  1  0  0  0  0
 15 19  1  0  0  0  0
 15 21  1  0  0  0  0
 15 23  1  0  0  0  0
 16 18  1  0  0  0  0
 16 26  1  0  0  0  0
 16 44  1  0  0  0  0
 17 26  2  0  0  0  0
 17 36  1  0  0  0  0
 18 36  1  0  0  0  0
 19 20  1  0  0  0  0
 19 24  1  0  0  0  0
 19 45  1  6  0  0  0
 20 46  1  6  0  0  0
 20 10  1  0  0  0  0
 21 22  1  0  0  0  0
 21 47  1  0  0  0  0
 21 48  1  0  0  0  0
 22 49  1  0  0  0  0
 22 50  1  0  0  0  0
 23 26  1  0  0  0  0
 23 51  1  0  0  0  0
 23 52  1  0  0  0  0
 24 27  2  0  0  0  0
 24 28  1  0  0  0  0
 25 10  1  0  0  0  0
 25 29  1  0  0  0  0
 25 30  1  0  0  0  0
 25 53  1  1  0  0  0
 27 31  1  0  0  0  0
 27 54  1  0  0  0  0
 28 32  2  0  0  0  0
 28 55  1  0  0  0  0
 29 33  2  0  0  0  0
 29 34  1  0  0  0  0
 30 56  1  0  0  0  0
 30 57  1  0  0  0  0
 30 58  1  0  0  0  0
 31 35  2  0  0  0  0
 31 59  1  0  0  0  0
 32 35  1  0  0  0  0
 32 60  1  0  0  0  0
 33 37  1  0  0  0  0
 33 61  1  0  0  0  0
 34 38  2  0  0  0  0
 34 62  1  0  0  0  0
 37 39  2  0  0  0  0
 37 41  1  0  0  0  0
 38 39  1  0  0  0  0
 38 40  1  0  0  0  0
 39 63  1  0  0  0  0
M  END
>  <DRUGBANK_ID>
DB06717

>  <COMMON_NAME>
Fosaprepitant

>  <CAS_NUMBER>
172673-20-0

>  <UNII>
6L8OF9XRDC

>  <SYNONYMS>
FosaprÃ©pitant; Fosaprepitant; Fosaprepitantum

$$$$
