
 OpenBabel10282417233D

 99102  0  0  1  0  0  0  0  0999 V2000
   14.0592   -6.5321   -1.8555 O   0  0  0  0  0  0  0  0  0  0  0  0
   12.9319   -5.6529   -1.6735 S   0  0  0  0  0  0  0  0  0  0  0  0
   12.9460   -4.2871   -2.7166 N   0  0  0  0  0  0  0  0  0  0  0  0
   14.2144   -3.5563   -3.0512 C   0  0  0  0  0  0  0  0  0  0  0  0
   15.2563   -4.5934   -3.5098 C   0  0  0  0  0  0  0  0  0  0  0  0
   14.8450   -5.5184   -4.6437 C   0  0  0  0  0  0  0  0  0  0  0  0
   14.8529   -4.8293   -5.9910 C   0  0  0  0  0  0  0  0  0  0  0  0
   16.1438   -4.0573   -6.2058 C   0  0  0  0  0  0  0  0  0  0  0  0
   13.8785   -2.5180   -4.1934 C   0  0  0  0  0  0  0  0  0  0  0  0
   12.9230   -1.3462   -3.9761 C   0  0  0  0  0  0  0  0  0  0  0  0
   13.3803   -0.3132   -2.9807 C   0  0  0  0  0  0  0  0  0  0  0  0
   14.7976    0.1762   -3.2145 C   0  0  0  0  0  0  0  0  0  0  0  0
   14.8864   -2.8370   -1.8439 C   0  0  0  0  0  0  0  0  0  0  0  0
   15.1607   -3.6966   -0.6986 N   0  0  0  0  0  0  0  0  0  0  0  0
   16.4815   -4.1158   -0.5400 C   0  0  0  0  0  0  0  0  0  0  0  0
   16.7208   -5.4829   -0.3881 C   0  0  0  0  0  0  0  0  0  0  0  0
   17.9827   -5.9646   -0.1131 C   0  0  0  0  0  0  0  0  0  0  0  0
   19.0464   -5.0771   -0.0657 C   0  0  0  0  0  0  0  0  0  0  0  0
   18.8510   -3.7244   -0.3496 C   0  0  0  0  0  0  0  0  0  0  0  0
   17.5640   -3.2341   -0.5511 C   0  0  0  0  0  0  0  0  0  0  0  0
   14.1267   -4.0054    0.1971 C   0  0  0  0  0  0  0  0  0  0  0  0
   14.0618   -3.3103    1.4276 C   0  0  0  0  0  0  0  0  0  0  0  0
   13.0329   -3.5253    2.3793 C   0  0  0  0  0  0  0  0  0  0  0  0
   13.2788   -2.4922    3.8698 S   0  0  0  0  0  0  0  0  0  0  0  0
   11.8209   -2.6080    4.9438 C   0  0  0  0  0  0  0  0  0  0  0  0
   11.9910   -4.4194    2.0209 C   0  0  0  0  0  0  0  0  0  0  0  0
   10.9533   -4.6520    2.8720 O   0  0  0  0  0  0  0  0  0  0  0  0
    9.7392   -5.2477    2.4102 C   0  0  0  0  0  0  0  0  0  0  0  0
    8.9385   -4.7428    1.1560 C   0  0  0  0  0  0  0  0  0  0  0  0
    8.7490   -5.4953    0.1967 O   0  0  0  0  0  0  0  0  0  0  0  0
    8.4404   -3.4707    1.0500 N   0  0  0  0  0  0  0  0  0  0  0  0
    8.2990   -2.4995    2.1177 C   0  0  2  0  0  0  0  0  0  0  0  0
    7.6053   -1.2010    1.8391 C   0  0  0  0  0  0  0  0  0  0  0  0
    8.0690    0.1095    2.1315 C   0  0  0  0  0  0  0  0  0  0  0  0
    7.2057    1.1900    2.0052 C   0  0  0  0  0  0  0  0  0  0  0  0
    5.9105    0.9464    1.5757 C   0  0  0  0  0  0  0  0  0  0  0  0
    5.0273    1.9798    1.5698 O   0  0  0  0  0  0  0  0  0  0  0  0
    5.4838   -0.3241    1.2050 C   0  0  0  0  0  0  0  0  0  0  0  0
    6.3196   -1.3953    1.3776 C   0  0  0  0  0  0  0  0  0  0  0  0
    9.6367   -2.2801    2.6489 C   0  0  0  0  0  0  0  0  0  0  0  0
    9.7119   -2.6920    3.8007 O   0  0  0  0  0  0  0  0  0  0  0  0
   10.6071   -1.7131    1.8539 N   0  0  0  0  0  0  0  0  0  0  0  0
   10.4332   -1.3181    0.4426 C   0  0  1  0  0  0  0  0  0  0  0  0
   10.8968    0.1191    0.2033 C   0  0  0  0  0  0  0  0  0  0  0  0
   12.3640    0.4010    0.4918 C   0  0  0  0  0  0  0  0  0  0  0  0
   11.0165   -2.2367   -0.5863 C   0  0  0  0  0  0  0  0  0  0  0  0
   10.4247   -2.9421   -1.4094 O   0  0  0  0  0  0  0  0  0  0  0  0
   12.3287   -2.2037   -0.6081 O   0  0  0  0  0  0  0  0  0  0  0  0
   12.0153   -5.0502    0.7759 C   0  0  0  0  0  0  0  0  0  0  0  0
   13.0746   -4.8739   -0.1045 C   0  0  0  0  0  0  0  0  0  0  0  0
   11.6049   -6.2048   -1.8204 O   0  0  0  0  0  0  0  0  0  0  0  0
   12.3606   -4.5351   -3.5270 H   0  0  0  0  0  0  0  0  0  0  0  0
   16.2247   -4.1134   -3.6664 H   0  0  0  0  0  0  0  0  0  0  0  0
   15.5082   -5.2430   -2.6836 H   0  0  0  0  0  0  0  0  0  0  0  0
   15.5541   -6.3538   -4.6562 H   0  0  0  0  0  0  0  0  0  0  0  0
   13.8636   -5.9708   -4.4578 H   0  0  0  0  0  0  0  0  0  0  0  0
   14.6854   -5.5623   -6.7802 H   0  0  0  0  0  0  0  0  0  0  0  0
   13.9975   -4.1748   -6.1050 H   0  0  0  0  0  0  0  0  0  0  0  0
   16.9737   -4.7628   -6.2715 H   0  0  0  0  0  0  0  0  0  0  0  0
   16.0777   -3.4453   -7.1025 H   0  0  0  0  0  0  0  0  0  0  0  0
   16.3910   -3.3552   -5.4033 H   0  0  0  0  0  0  0  0  0  0  0  0
   14.8110   -2.1356   -4.6228 H   0  0  0  0  0  0  0  0  0  0  0  0
   13.3448   -3.0099   -4.9982 H   0  0  0  0  0  0  0  0  0  0  0  0
   12.7926   -0.8318   -4.9395 H   0  0  0  0  0  0  0  0  0  0  0  0
   11.9368   -1.7434   -3.7109 H   0  0  0  0  0  0  0  0  0  0  0  0
   12.6734    0.5167   -2.9241 H   0  0  0  0  0  0  0  0  0  0  0  0
   13.3010   -0.7461   -2.0067 H   0  0  0  0  0  0  0  0  0  0  0  0
   14.8174    0.8344   -4.0829 H   0  0  0  0  0  0  0  0  0  0  0  0
   15.1626    0.7029   -2.3300 H   0  0  0  0  0  0  0  0  0  0  0  0
   15.5211   -0.6201   -3.4090 H   0  0  0  0  0  0  0  0  0  0  0  0
   15.7888   -2.3417   -2.2188 H   0  0  0  0  0  0  0  0  0  0  0  0
   14.3320   -2.0193   -1.4372 H   0  0  0  0  0  0  0  0  0  0  0  0
   15.9149   -6.1950   -0.5240 H   0  0  0  0  0  0  0  0  0  0  0  0
   18.1070   -7.0272    0.0599 H   0  0  0  0  0  0  0  0  0  0  0  0
   20.0306   -5.4489    0.1926 H   0  0  0  0  0  0  0  0  0  0  0  0
   19.6998   -3.0497   -0.3880 H   0  0  0  0  0  0  0  0  0  0  0  0
   17.4143   -2.1642   -0.6757 H   0  0  0  0  0  0  0  0  0  0  0  0
   14.7990   -2.5227    1.6051 H   0  0  0  0  0  0  0  0  0  0  0  0
   11.1712   -1.7951    4.6217 H   0  0  0  0  0  0  0  0  0  0  0  0
   11.3959   -3.6156    4.9522 H   0  0  0  0  0  0  0  0  0  0  0  0
   11.9448   -2.3169    5.9891 H   0  0  0  0  0  0  0  0  0  0  0  0
    9.9368   -6.3186    2.2674 H   0  0  0  0  0  0  0  0  0  0  0  0
    9.0360   -5.2087    3.2512 H   0  0  0  0  0  0  0  0  0  0  0  0
    7.9681   -3.2941    0.1731 H   0  0  0  0  0  0  0  0  0  0  0  0
    7.7190   -2.9842    2.9152 H   0  0  0  0  0  0  0  0  0  0  0  0
    9.0791    0.3284    2.4863 H   0  0  0  0  0  0  0  0  0  0  0  0
    7.5204    2.1967    2.2730 H   0  0  0  0  0  0  0  0  0  0  0  0
    4.1496    1.5963    1.4048 H   0  0  0  0  0  0  0  0  0  0  0  0
    4.4985   -0.5314    0.8169 H   0  0  0  0  0  0  0  0  0  0  0  0
    5.9743   -2.4128    1.2214 H   0  0  0  0  0  0  0  0  0  0  0  0
   11.5438   -1.6767    2.2440 H   0  0  0  0  0  0  0  0  0  0  0  0
    9.3806   -1.3588    0.1770 H   0  0  0  0  0  0  0  0  0  0  0  0
   10.6527    0.3970   -0.8284 H   0  0  0  0  0  0  0  0  0  0  0  0
   10.3278    0.7865    0.8491 H   0  0  0  0  0  0  0  0  0  0  0  0
   13.0377   -0.0984   -0.1953 H   0  0  0  0  0  0  0  0  0  0  0  0
   12.5597    1.4687    0.3798 H   0  0  0  0  0  0  0  0  0  0  0  0
   12.6502    0.0900    1.4985 H   0  0  0  0  0  0  0  0  0  0  0  0
   12.5121   -2.8411   -1.3313 H   0  0  0  0  0  0  0  0  0  0  0  0
   11.1931   -5.6700    0.4354 H   0  0  0  0  0  0  0  0  0  0  0  0
  1  2  2  0  0  0  0
  2  3  1  0  0  0  0
  2 50  1  0  0  0  0
  2 51  2  0  0  0  0
  3  4  1  0  0  0  0
  3 52  1  0  0  0  0
  4  5  1  0  0  0  0
  4  9  1  0  0  0  0
  4 13  1  0  0  0  0
  5  6  1  0  0  0  0
  5 53  1  0  0  0  0
  5 54  1  0  0  0  0
  6  7  1  0  0  0  0
  6 55  1  0  0  0  0
  6 56  1  0  0  0  0
  7  8  1  0  0  0  0
  7 57  1  0  0  0  0
  7 58  1  0  0  0  0
  8 59  1  0  0  0  0
  8 60  1  0  0  0  0
  8 61  1  0  0  0  0
  9 10  1  0  0  0  0
  9 62  1  0  0  0  0
  9 63  1  0  0  0  0
 10 11  1  0  0  0  0
 10 64  1  0  0  0  0
 10 65  1  0  0  0  0
 11 12  1  0  0  0  0
 11 66  1  0  0  0  0
 11 67  1  0  0  0  0
 12 68  1  0  0  0  0
 12 69  1  0  0  0  0
 12 70  1  0  0  0  0
 13 71  1  0  0  0  0
 13 72  1  0  0  0  0
 14 13  1  0  0  0  0
 14 15  1  0  0  0  0
 15 16  1  0  0  0  0
 15 20  2  0  0  0  0
 16 17  2  0  0  0  0
 16 73  1  0  0  0  0
 17 18  1  0  0  0  0
 17 74  1  0  0  0  0
 18 75  1  0  0  0  0
 19 18  2  0  0  0  0
 19 76  1  0  0  0  0
 20 19  1  0  0  0  0
 20 77  1  0  0  0  0
 21 14  1  0  0  0  0
 21 22  2  0  0  0  0
 22 23  1  0  0  0  0
 22 78  1  0  0  0  0
 23 24  1  0  0  0  0
 24 25  1  0  0  0  0
 25 79  1  0  0  0  0
 25 80  1  0  0  0  0
 25 81  1  0  0  0  0
 26 23  2  0  0  0  0
 26 27  1  0  0  0  0
 27 28  1  0  0  0  0
 28 29  1  0  0  0  0
 28 82  1  0  0  0  0
 28 83  1  0  0  0  0
 29 30  2  0  0  0  0
 29 31  1  0  0  0  0
 31 84  1  0  0  0  0
 32 40  1  0  0  0  0
 32 85  1  1  0  0  0
 32 33  1  0  0  0  0
 32 31  1  0  0  0  0
 33 34  1  0  0  0  0
 33 39  2  0  0  0  0
 34 35  2  0  0  0  0
 34 86  1  0  0  0  0
 35 36  1  0  0  0  0
 35 87  1  0  0  0  0
 36 37  1  0  0  0  0
 37 88  1  0  0  0  0
 38 36  2  0  0  0  0
 38 89  1  0  0  0  0
 39 38  1  0  0  0  0
 39 90  1  0  0  0  0
 40 41  2  0  0  0  0
 40 42  1  0  0  0  0
 42 91  1  0  0  0  0
 43 42  1  0  0  0  0
 43 44  1  0  0  0  0
 43 46  1  0  0  0  0
 43 92  1  6  0  0  0
 44 45  1  0  0  0  0
 44 93  1  0  0  0  0
 44 94  1  0  0  0  0
 45 95  1  0  0  0  0
 45 96  1  0  0  0  0
 45 97  1  0  0  0  0
 46 47  2  0  0  0  0
 46 48  1  0  0  0  0
 48 98  1  0  0  0  0
 49 26  1  0  0  0  0
 49 99  1  0  0  0  0
 50 49  2  0  0  0  0
 50 21  1  0  0  0  0
M  END
>  <DRUGBANK_ID>
DB16261

>  <COMMON_NAME>
Odevixibat

>  <CAS_NUMBER>
501692-44-0

>  <UNII>
2W150K0UUC

>  <SYNONYMS>
Odevixibat

$$$$
