BHY
 OpenBabel10282417163D

 56 57  0  0  0  0  0  0  0  0999 V2000
    0.8852   -0.1904    0.0324 N   0  0  0  0  0  0  0  0  0  0  0  0
    3.1555   -1.9280    2.4099 C   0  0  0  0  0  0  0  0  0  0  0  0
   11.1987    1.2095    2.0981 N   0  0  0  0  0  0  0  0  0  0  0  0
    5.2374   -0.7031    2.3731 C   0  0  0  0  0  0  0  0  0  0  0  0
    0.9303   -2.7272    0.3263 O   0  0  0  0  0  0  0  0  0  0  0  0
    3.1624    0.4947    2.4141 C   0  0  0  0  0  0  0  0  0  0  0  0
    9.3771   -0.8752    3.2213 C   0  0  0  0  0  0  0  0  0  0  0  0
    2.4574   -0.7171    2.4606 C   0  0  0  0  0  0  0  0  0  0  0  0
   11.6711    1.1185   -0.3803 O   0  0  0  0  0  0  0  0  0  0  0  0
   11.8881    1.9773    0.7557 S   0  0  0  0  0  0  0  0  0  0  0  0
   11.4006    3.3437    0.7695 O   0  0  0  0  0  0  0  0  0  0  0  0
    0.2973   -1.7011   -0.4683 S   0  0  0  0  0  0  0  0  0  0  0  0
    4.5399   -1.9197    2.3329 C   0  0  0  0  0  0  0  0  0  0  0  0
   -1.1427   -1.5853   -0.5388 O   0  0  0  0  0  0  0  0  0  0  0  0
    4.5406    0.5021    2.3402 C   0  0  0  0  0  0  0  0  0  0  0  0
    8.5187   -0.2023    4.0936 C   0  0  0  0  0  0  0  0  0  0  0  0
    7.1698   -0.1170    3.7878 C   0  0  0  0  0  0  0  0  0  0  0  0
    6.6676   -0.6946    2.6078 C   0  0  0  0  0  0  0  0  0  0  0  0
    7.5304   -1.3385    1.7276 C   0  0  0  0  0  0  0  0  0  0  0  0
    8.8648   -1.4789    2.0614 C   0  0  0  0  0  0  0  0  0  0  0  0
   10.8651   -0.8627    3.4820 C   0  0  1  0  0  0  0  0  0  0  0  0
    0.9439   -0.7168    2.4877 C   0  0  2  0  0  0  0  0  0  0  0  0
    0.3903    0.2244    1.3956 C   0  0  0  0  0  0  0  0  0  0  0  0
    0.4325   -0.3964    3.8812 C   0  0  0  0  0  0  0  0  0  0  0  0
   11.3719   -2.2907    3.6891 C   0  0  0  0  0  0  0  0  0  0  0  0
   11.6150   -0.2022    2.3088 C   0  0  0  0  0  0  0  0  0  0  0  0
   13.6295    1.9895    1.1492 C   0  0  0  0  0  0  0  0  0  0  0  0
    0.9488   -1.8928   -2.1014 C   0  0  0  0  0  0  0  0  0  0  0  0
   11.0672   -0.2898    4.3973 H   0  0  0  0  0  0  0  0  0  0  0  0
    0.5769   -1.7276    2.2980 H   0  0  0  0  0  0  0  0  0  0  0  0
    1.9097   -0.1498    0.0033 H   0  0  0  0  0  0  0  0  0  0  0  0
    2.6285   -2.8809    2.4366 H   0  0  0  0  0  0  0  0  0  0  0  0
   10.1783    1.2989    2.0082 H   0  0  0  0  0  0  0  0  0  0  0  0
    2.6508    1.4512    2.4461 H   0  0  0  0  0  0  0  0  0  0  0  0
    5.0760   -2.8663    2.2917 H   0  0  0  0  0  0  0  0  0  0  0  0
    5.0746    1.4482    2.3016 H   0  0  0  0  0  0  0  0  0  0  0  0
    8.8882    0.2568    5.0076 H   0  0  0  0  0  0  0  0  0  0  0  0
    6.5004    0.3929    4.4799 H   0  0  0  0  0  0  0  0  0  0  0  0
    7.1598   -1.7361    0.7865 H   0  0  0  0  0  0  0  0  0  0  0  0
    9.5024   -2.0503    1.3927 H   0  0  0  0  0  0  0  0  0  0  0  0
    0.7132    1.2593    1.5710 H   0  0  0  0  0  0  0  0  0  0  0  0
   -0.7027    0.2555    1.4046 H   0  0  0  0  0  0  0  0  0  0  0  0
   -0.6610   -0.4181    3.8933 H   0  0  0  0  0  0  0  0  0  0  0  0
    0.7891   -1.1556    4.5891 H   0  0  0  0  0  0  0  0  0  0  0  0
    0.7761    0.5804    4.2286 H   0  0  0  0  0  0  0  0  0  0  0  0
   11.2120   -2.9076    2.7974 H   0  0  0  0  0  0  0  0  0  0  0  0
   12.4446   -2.2904    3.9027 H   0  0  0  0  0  0  0  0  0  0  0  0
   10.8532   -2.7754    4.5232 H   0  0  0  0  0  0  0  0  0  0  0  0
   12.6824   -0.2180    2.5374 H   0  0  0  0  0  0  0  0  0  0  0  0
   11.4437   -0.7668    1.3867 H   0  0  0  0  0  0  0  0  0  0  0  0
   13.7920    2.5476    2.0721 H   0  0  0  0  0  0  0  0  0  0  0  0
   13.9902    0.9634    1.2384 H   0  0  0  0  0  0  0  0  0  0  0  0
   14.1526    2.4732    0.3217 H   0  0  0  0  0  0  0  0  0  0  0  0
    0.5674   -1.1140   -2.7571 H   0  0  0  0  0  0  0  0  0  0  0  0
    2.0399   -1.8926   -2.0483 H   0  0  0  0  0  0  0  0  0  0  0  0
    0.6121   -2.8770   -2.4413 H   0  0  0  0  0  0  0  0  0  0  0  0
  1 12  1  0  0  0  0
  1 23  1  0  0  0  0
  1 31  1  0  0  0  0
  2  8  2  0  0  0  0
  2 13  1  0  0  0  0
  2 32  1  0  0  0  0
  3 10  1  0  0  0  0
  3 26  1  0  0  0  0
  3 33  1  0  0  0  0
  4 13  2  0  0  0  0
  4 15  1  0  0  0  0
  4 18  1  0  0  0  0
  5 12  2  0  0  0  0
  6  8  1  0  0  0  0
  6 15  2  0  0  0  0
  6 34  1  0  0  0  0
  7 16  2  0  0  0  0
  7 20  1  0  0  0  0
  7 21  1  0  0  0  0
  8 22  1  0  0  0  0
  9 10  2  0  0  0  0
 10 11  2  0  0  0  0
 10 27  1  0  0  0  0
 12 14  2  0  0  0  0
 12 28  1  0  0  0  0
 13 35  1  0  0  0  0
 15 36  1  0  0  0  0
 16 17  1  0  0  0  0
 16 37  1  0  0  0  0
 17 18  2  0  0  0  0
 17 38  1  0  0  0  0
 18 19  1  0  0  0  0
 19 20  2  0  0  0  0
 19 39  1  0  0  0  0
 20 40  1  0  0  0  0
 21 25  1  0  0  0  0
 21 26  1  0  0  0  0
 21 29  1  1  0  0  0
 22 23  1  0  0  0  0
 22 24  1  0  0  0  0
 22 30  1  6  0  0  0
 23 41  1  0  0  0  0
 23 42  1  0  0  0  0
 24 43  1  0  0  0  0
 24 44  1  0  0  0  0
 24 45  1  0  0  0  0
 25 46  1  0  0  0  0
 25 47  1  0  0  0  0
 25 48  1  0  0  0  0
 26 49  1  0  0  0  0
 26 50  1  0  0  0  0
 27 51  1  0  0  0  0
 27 52  1  0  0  0  0
 27 53  1  0  0  0  0
 28 54  1  0  0  0  0
 28 55  1  0  0  0  0
 28 56  1  0  0  0  0
M  END
>  <DRUGBANK_ID>
DB07455

>  <COMMON_NAME>
N,N'-[biphenyl-4,4'-diyldi(2R)propane-2,1-diyl]dimethanesulfonamide

$$$$
