
 OpenBabel10282417133D

 37 37  0  0  0  0  0  0  0  0999 V2000
   -0.3125    1.1783   -0.2051 C   0  0  1  0  0  0  0  0  0  0  0  0
    1.8309   -0.0634   -0.1068 O   0  0  0  0  0  0  0  0  0  0  0  0
    1.9467    2.3724   -0.4270 C   0  0  1  0  0  0  0  0  0  0  0  0
   -0.9948   -0.0635    0.3973 C   0  0  2  0  0  0  0  0  0  0  0  0
   -1.1615    2.3400    0.0792 N   0  0  0  0  0  0  0  0  0  0  0  0
    1.1147   -1.2591   -0.0048 C   0  0  0  0  0  0  0  0  0  0  0  0
    1.4164    3.7623    0.0082 C   0  0  1  0  0  0  0  0  0  0  0  0
    3.3597    2.3372   -0.1558 O   0  0  0  0  0  0  0  0  0  0  0  0
   -0.2096   -1.2857    0.1807 C   0  0  0  0  0  0  0  0  0  0  0  0
   -2.2861   -0.3449   -0.1260 O   0  0  0  0  0  0  0  0  0  0  0  0
   -2.3183    2.4190   -0.6732 C   0  0  0  0  0  0  0  0  0  0  0  0
    1.9074   -2.5376   -0.0636 C   0  0  0  0  0  0  0  0  0  0  0  0
    1.4240    3.9601    1.5368 C   0  0  0  0  0  0  0  0  0  0  0  0
    2.1650    4.8106   -0.6110 O   0  0  0  0  0  0  0  0  0  0  0  0
   -3.4185    3.2810   -0.1512 C   0  0  0  0  0  0  0  0  0  0  0  0
   -2.4750    1.7382   -1.6872 O   0  0  0  0  0  0  0  0  0  0  0  0
    1.2209   -3.6962    0.0895 O   0  0  0  0  0  0  0  0  0  0  0  0
    3.1177   -2.5393   -0.1752 O   0  0  0  0  0  0  0  0  0  0  0  0
    2.7403    4.0229    2.0722 O   0  0  0  0  0  0  0  0  0  0  0  0
    1.1685    1.1878    0.2387 C   0  0  1  0  0  0  0  0  0  0  0  0
    1.2625    1.2534    1.3279 H   0  0  0  0  0  0  0  0  0  0  0  0
   -0.2903    1.0837   -1.2984 H   0  0  0  0  0  0  0  0  0  0  0  0
    1.8760    2.2853   -1.5189 H   0  0  0  0  0  0  0  0  0  0  0  0
   -1.1234    0.0846    1.4771 H   0  0  0  0  0  0  0  0  0  0  0  0
   -1.0946    2.8801    0.9371 H   0  0  0  0  0  0  0  0  0  0  0  0
    0.4067    3.9086   -0.3704 H   0  0  0  0  0  0  0  0  0  0  0  0
    3.5313    1.8912    0.6856 H   0  0  0  0  0  0  0  0  0  0  0  0
   -0.8118   -2.1830    0.1884 H   0  0  0  0  0  0  0  0  0  0  0  0
   -2.3025   -0.0416   -1.0596 H   0  0  0  0  0  0  0  0  0  0  0  0
    0.9363    4.9039    1.7900 H   0  0  0  0  0  0  0  0  0  0  0  0
    0.8770    3.1716    2.0630 H   0  0  0  0  0  0  0  0  0  0  0  0
    3.0800    4.7070   -0.2879 H   0  0  0  0  0  0  0  0  0  0  0  0
   -3.7847    3.8796   -0.9878 H   0  0  0  0  0  0  0  0  0  0  0  0
   -4.2178    2.6221    0.2047 H   0  0  0  0  0  0  0  0  0  0  0  0
   -3.1010    3.9347    0.6619 H   0  0  0  0  0  0  0  0  0  0  0  0
    0.2581   -3.6749    0.2029 H   0  0  0  0  0  0  0  0  0  0  0  0
    3.1202    3.1320    2.1043 H   0  0  0  0  0  0  0  0  0  0  0  0
  1  4  1  0  0  0  0
  1 22  1  6  0  0  0
  1  5  1  0  0  0  0
  2  6  1  0  0  0  0
  3  7  1  0  0  0  0
  3  8  1  0  0  0  0
  3 23  1  6  0  0  0
  4  9  1  0  0  0  0
  4 10  1  0  0  0  0
  4 24  1  1  0  0  0
  5 11  1  0  0  0  0
  5 25  1  0  0  0  0
  6 12  1  0  0  0  0
  6  9  2  0  0  0  0
  7 13  1  0  0  0  0
  7 14  1  0  0  0  0
  7 26  1  6  0  0  0
  8 27  1  0  0  0  0
  9 28  1  0  0  0  0
 10 29  1  0  0  0  0
 11 15  1  0  0  0  0
 11 16  2  0  0  0  0
 12 17  1  0  0  0  0
 12 18  2  0  0  0  0
 13 19  1  0  0  0  0
 13 30  1  0  0  0  0
 13 31  1  0  0  0  0
 14 32  1  0  0  0  0
 15 33  1  0  0  0  0
 15 34  1  0  0  0  0
 15 35  1  0  0  0  0
 17 36  1  0  0  0  0
 19 37  1  0  0  0  0
 20  1  1  0  0  0  0
 20  2  1  0  0  0  0
 20  3  1  0  0  0  0
 20 21  1  1  0  0  0
M  END
>  <DRUGBANK_ID>
DB03991

>  <SECONDARY_ACCESSION_NUMBERS>
EXPT01111

>  <COMMON_NAME>
2-deoxy-2,3-dehydro-N-acetylneuraminic acid

>  <CAS_NUMBER>
24967-27-9

>  <UNII>
QR7675ZK8X

>  <SYNONYMS>
Neu2en5Ac

$$$$
