
 OpenBabel10282417103D

111119  0  0  0  0  0  0  0  0999 V2000
   -0.2531   -0.6576   -1.9233 N   0  0  3  0  0  0  0  0  0  0  0  0
    0.0211   -0.5477   -0.1239 C   0  0  0  0  0  0  0  0  0  0  0  0
   -0.1080    0.9552   -0.0821 C   0  0  1  0  0  0  0  0  0  0  0  0
   -0.6229    1.6524   -1.2748 C   0  0  0  0  0  0  0  0  0  0  0  0
   -0.2156    1.4967   -2.5157 C   0  0  0  0  0  0  0  0  0  0  0  0
   -0.8515    0.4131   -3.2179 C   0  0  0  0  0  0  0  0  0  0  0  0
   -0.7267    1.7405    1.0400 C   0  0  0  0  0  0  0  0  0  0  0  0
   -2.1939    1.8069    1.5406 C   0  0  2  0  0  0  0  0  0  0  0  0
   -3.2606    1.8107    3.1534 C   0  0  0  0  0  0  0  0  0  0  0  0
   -1.2550    0.3982    2.5729 C   0  0  0  0  0  0  0  0  0  0  0  0
   -0.6064   -0.0644    3.5576 C   0  0  0  0  0  0  0  0  0  0  0  0
   -0.3294   -1.9081    3.7292 C   0  0  0  0  0  0  0  0  0  0  0  0
   -1.1471   -0.8609    2.2265 C   0  0  0  0  0  0  0  0  0  0  0  0
   -0.7936   -2.5023    2.0068 C   0  0  0  0  0  0  0  0  0  0  0  0
   -0.4746   -3.5372    2.7756 C   0  0  0  0  0  0  0  0  0  0  0  0
   -1.1651   -4.8654    1.4823 N   0  0  0  0  0  0  0  0  0  0  0  0
   -1.7888   -2.8791    0.9226 C   0  0  1  0  0  0  0  0  0  0  0  0
   -2.1201   -4.1822    0.8230 C   0  0  2  0  0  0  0  0  0  0  0  0
   -3.8594   -4.0765    1.2011 C   0  0  2  0  0  0  0  0  0  0  0  0
   -4.3703   -2.3988    2.0577 C   0  0  1  0  0  0  0  0  0  0  0  0
   -3.9141   -1.7056    0.8253 C   0  0  2  0  0  0  0  0  0  0  0  0
   -2.8111   -2.7670   -0.4850 C   0  0  0  0  0  0  0  0  0  0  0  0
   -2.3618   -3.2806   -1.9131 C   0  0  0  0  0  0  0  0  0  0  0  0
   -3.1427   -2.2089   -2.7988 C   0  0  0  0  0  0  0  0  0  0  0  0
   -3.5814   -2.4013   -0.1484 C   0  0  2  0  0  0  0  0  0  0  0  0
   -3.9156   -1.4629   -1.2758 N   0  0  3  0  0  0  0  0  0  0  0  0
   -2.4828   -1.0819    0.0285 C   0  0  0  0  0  0  0  0  0  0  0  0
   -2.4731   -2.2427    1.7698 C   0  0  0  0  0  0  0  0  0  0  0  0
   -3.4043   -0.1936    1.5277 C   0  0  0  0  0  0  0  0  0  0  0  0
   -4.5171    0.7084    1.6730 C   0  0  0  0  0  0  0  0  0  0  0  0
   -2.2025   -5.6861   -0.0633 C   0  0  0  0  0  0  0  0  0  0  0  0
   -1.5667   -4.1090   -0.1384 H   0  0  0  0  0  0  0  0  0  0  0  0
   -0.6131    1.2844    3.8372 O   0  0  0  0  0  0  0  0  0  0  0  0
   -4.4012    2.3129    3.2866 O   0  0  0  0  0  0  0  0  0  0  0  0
   -0.0061    1.8814    4.8748 C   0  0  0  0  0  0  0  0  0  0  0  0
   -3.0003    0.7128    3.9882 O   0  0  0  0  0  0  0  0  0  0  0  0
   -3.9368    0.6931    5.0104 C   0  0  0  0  0  0  0  0  0  0  0  0
    0.9415    1.0237   -0.2481 H   0  0  0  0  0  0  0  0  0  0  0  0
    1.2001    1.4772   -2.6655 C   0  0  0  0  0  0  0  0  0  0  0  0
    1.8746    0.2177   -3.1503 C   0  0  0  0  0  0  0  0  0  0  0  0
   -4.4783   -1.4084    0.0213 H   0  0  0  0  0  0  0  0  0  0  0  0
   -3.8308   -5.1264    2.4245 C   0  0  0  0  0  0  0  0  0  0  0  0
   -4.8293   -4.0999    0.0063 O   0  0  0  0  0  0  0  0  0  0  0  0
   -4.1161   -6.2848    2.1594 O   0  0  0  0  0  0  0  0  0  0  0  0
   -4.0329   -4.4041    3.6980 O   0  0  0  0  0  0  0  0  0  0  0  0
   -4.9911   -4.9953    4.6404 C   0  0  0  0  0  0  0  0  0  0  0  0
   -4.7458    0.6039   -4.7259 C   0  0  0  0  0  0  0  0  0  0  0  0
   -5.2912    1.7693   -4.2661 C   0  0  0  0  0  0  0  0  0  0  0  0
   -5.1959    2.3382   -2.9872 C   0  0  0  0  0  0  0  0  0  0  0  0
   -3.9836   -0.0205   -3.8831 C   0  0  0  0  0  0  0  0  0  0  0  0
   -3.9137    0.5675   -2.6251 C   0  0  0  0  0  0  0  0  0  0  0  0
   -4.5248    1.6559   -2.0688 C   0  0  0  0  0  0  0  0  0  0  0  0
   -4.2968    2.0527   -0.7639 N   0  0  0  0  0  0  0  0  0  0  0  0
   -3.2383    1.4360   -0.2229 C   0  0  0  0  0  0  0  0  0  0  0  0
   -3.0118    0.4432   -1.6637 C   0  0  0  0  0  0  0  0  0  0  0  0
   -1.5919   -0.8478   -1.9052 C   0  0  0  0  0  0  0  0  0  0  0  0
   -3.8000   -2.0807    3.0207 H   0  0  0  0  0  0  0  0  0  0  0  0
   -5.5722   -1.7841    2.1330 O   0  0  0  0  0  0  0  0  0  0  0  0
   -6.4478   -2.7268    2.2685 C   0  0  0  0  0  0  0  0  0  0  0  0
   -6.1246   -4.1095    2.1719 C   0  0  0  0  0  0  0  0  0  0  0  0
   -7.5304   -2.4525    2.7122 O   0  0  0  0  0  0  0  0  0  0  0  0
    0.3567   -1.5096    0.5337 H   0  0  0  0  0  0  0  0  0  0  0  0
    0.7914   -0.2799    0.7063 H   0  0  0  0  0  0  0  0  0  0  0  0
   -1.3309    0.9741   -1.5214 H   0  0  0  0  0  0  0  0  0  0  0  0
   -1.8231    0.4199   -3.8734 H   0  0  0  0  0  0  0  0  0  0  0  0
   -0.6848    0.8333   -4.2344 H   0  0  0  0  0  0  0  0  0  0  0  0
   -0.6424    2.6299    1.6173 H   0  0  0  0  0  0  0  0  0  0  0  0
    0.2705    2.1388    1.0370 H   0  0  0  0  0  0  0  0  0  0  0  0
   -0.1093   -1.4419    4.8483 H   0  0  0  0  0  0  0  0  0  0  0  0
   -1.5701   -0.9986    1.4243 H   0  0  0  0  0  0  0  0  0  0  0  0
   -1.3946   -2.3190   -0.4564 H   0  0  0  0  0  0  0  0  0  0  0  0
   -1.1003   -3.3577   -2.0284 H   0  0  0  0  0  0  0  0  0  0  0  0
   -4.0173   -2.4005   -3.3400 H   0  0  0  0  0  0  0  0  0  0  0  0
   -2.3655   -1.3419   -3.3317 H   0  0  0  0  0  0  0  0  0  0  0  0
   -2.2093    0.0832   -0.3343 H   0  0  0  0  0  0  0  0  0  0  0  0
   -1.7426   -0.0357   -0.2319 H   0  0  0  0  0  0  0  0  0  0  0  0
   -2.5986   -3.4863    2.2630 H   0  0  0  0  0  0  0  0  0  0  0  0
   -2.4127   -3.0100    2.8731 H   0  0  0  0  0  0  0  0  0  0  0  0
   -2.2916    0.1135    1.2460 H   0  0  0  0  0  0  0  0  0  0  0  0
   -2.6920    0.3724    0.9842 H   0  0  0  0  0  0  0  0  0  0  0  0
   -4.7024    0.1824    2.5992 H   0  0  0  0  0  0  0  0  0  0  0  0
   -4.2077    1.8342    1.5288 H   0  0  0  0  0  0  0  0  0  0  0  0
   -5.2913    0.7309    0.9736 H   0  0  0  0  0  0  0  0  0  0  0  0
   -3.4676   -5.5660   -0.2623 H   0  0  0  0  0  0  0  0  0  0  0  0
   -2.2142   -5.1940   -1.2607 H   0  0  0  0  0  0  0  0  0  0  0  0
   -2.3083   -6.7100   -0.5860 H   0  0  0  0  0  0  0  0  0  0  0  0
   -0.5980    1.5382    5.7000 H   0  0  0  0  0  0  0  0  0  0  0  0
    0.9805    1.4978    4.7430 H   0  0  0  0  0  0  0  0  0  0  0  0
   -0.0381    2.9782    4.7831 H   0  0  0  0  0  0  0  0  0  0  0  0
   -4.1091    1.7477    5.2062 H   0  0  0  0  0  0  0  0  0  0  0  0
   -4.8119    0.1474    4.6502 H   0  0  0  0  0  0  0  0  0  0  0  0
   -3.4171    0.2203    5.8231 H   0  0  0  0  0  0  0  0  0  0  0  0
    1.2144    2.3037   -3.3354 H   0  0  0  0  0  0  0  0  0  0  0  0
    1.5636    1.7276   -1.6851 H   0  0  0  0  0  0  0  0  0  0  0  0
    1.5114   -0.0721   -4.1399 H   0  0  0  0  0  0  0  0  0  0  0  0
    2.9164    0.4834   -3.1704 H   0  0  0  0  0  0  0  0  0  0  0  0
    1.7753   -0.6597   -2.4909 H   0  0  0  0  0  0  0  0  0  0  0  0
   -4.4441   -4.1225   -0.9127 H   0  0  0  0  0  0  0  0  0  0  0  0
   -5.8847   -5.5604    4.2577 H   0  0  0  0  0  0  0  0  0  0  0  0
   -4.3494   -5.7588    4.9846 H   0  0  0  0  0  0  0  0  0  0  0  0
   -5.4467   -4.2456    5.3278 H   0  0  0  0  0  0  0  0  0  0  0  0
   -4.7626    0.0896   -5.6598 H   0  0  0  0  0  0  0  0  0  0  0  0
   -5.8653    2.2729   -4.9804 H   0  0  0  0  0  0  0  0  0  0  0  0
   -5.6111    3.2525   -2.6627 H   0  0  0  0  0  0  0  0  0  0  0  0
   -3.4722   -0.8511   -4.3773 H   0  0  0  0  0  0  0  0  0  0  0  0
   -4.4726    2.8558   -0.2096 H   0  0  0  0  0  0  0  0  0  0  0  0
   -2.2336   -1.5279   -1.6220 H   0  0  0  0  0  0  0  0  0  0  0  0
   -0.9022   -1.7475   -1.7624 H   0  0  0  0  0  0  0  0  0  0  0  0
   -6.1177   -4.5167    3.1056 H   0  0  0  0  0  0  0  0  0  0  0  0
   -6.1028   -4.9244    1.4763 H   0  0  0  0  0  0  0  0  0  0  0  0
   -5.1623   -3.8729    2.3332 H   0  0  0  0  0  0  0  0  0  0  0  0
  1  6  1  0  0  0  0
  1  2  1  0  0  0  0
  1 56  1  0  0  0  0
  2  3  1  0  0  0  0
  2 62  1  0  0  0  0
  2 63  1  0  0  0  0
  3  4  1  0  0  0  0
  3  7  1  0  0  0  0
  3 38  1  1  0  0  0
  4  5  2  0  0  0  0
  4 64  1  0  0  0  0
  5  6  1  0  0  0  0
  5 39  1  0  0  0  0
  6 65  1  0  0  0  0
  6 66  1  0  0  0  0
  7  8  1  0  0  0  0
  7 67  1  0  0  0  0
  7 68  1  0  0  0  0
  8  9  1  1  0  0  0
  8 10  1  0  0  0  0
  9 34  2  0  0  0  0
  9 36  1  0  0  0  0
 10 11  2  0  0  0  0
 11 12  1  0  0  0  0
 11 33  1  0  0  0  0
 12 15  2  0  0  0  0
 12 69  1  0  0  0  0
 13 10  1  0  0  0  0
 13 70  1  0  0  0  0
 14 13  2  0  0  0  0
 14 15  1  0  0  0  0
 15 16  1  0  0  0  0
 16 31  1  0  0  0  0
 16 18  1  0  0  0  0
 17 25  1  0  0  0  0
 17 28  1  0  0  0  0
 17 14  1  1  0  0  0
 17 18  1  0  0  0  0
 18 19  1  0  0  0  0
 18 32  1  6  0  0  0
 19 20  1  0  0  0  0
 19 43  1  6  0  0  0
 19 42  1  0  0  0  0
 20 21  1  0  0  0  0
 20 58  1  0  0  0  0
 20 57  1  1  0  0  0
 21 22  1  0  0  0  0
 21 29  1  1  0  0  0
 22 23  2  0  0  0  0
 22 71  1  0  0  0  0
 23 24  1  0  0  0  0
 23 72  1  0  0  0  0
 24 26  1  0  0  0  0
 24 73  1  0  0  0  0
 24 74  1  0  0  0  0
 25 21  1  0  0  0  0
 25 26  1  0  0  0  0
 25 41  1  1  0  0  0
 26 27  1  0  0  0  0
 27 75  1  0  0  0  0
 27 76  1  0  0  0  0
 28 27  1  0  0  0  0
 28 77  1  0  0  0  0
 28 78  1  0  0  0  0
 29 30  1  0  0  0  0
 29 79  1  0  0  0  0
 29 80  1  0  0  0  0
 30 81  1  0  0  0  0
 30 82  1  0  0  0  0
 30 83  1  0  0  0  0
 31 84  1  0  0  0  0
 31 85  1  0  0  0  0
 31 86  1  0  0  0  0
 33 35  1  0  0  0  0
 35 87  1  0  0  0  0
 35 88  1  0  0  0  0
 35 89  1  0  0  0  0
 36 37  1  0  0  0  0
 37 90  1  0  0  0  0
 37 91  1  0  0  0  0
 37 92  1  0  0  0  0
 39 40  1  0  0  0  0
 39 93  1  0  0  0  0
 39 94  1  0  0  0  0
 40 95  1  0  0  0  0
 40 96  1  0  0  0  0
 40 97  1  0  0  0  0
 42 44  2  0  0  0  0
 42 45  1  0  0  0  0
 43 98  1  0  0  0  0
 45 46  1  0  0  0  0
 46 99  1  0  0  0  0
 46100  1  0  0  0  0
 46101  1  0  0  0  0
 47 48  2  0  0  0  0
 47102  1  0  0  0  0
 48 49  1  0  0  0  0
 48103  1  0  0  0  0
 49 52  2  0  0  0  0
 49104  1  0  0  0  0
 50 47  1  0  0  0  0
 50105  1  0  0  0  0
 51 50  2  0  0  0  0
 51 52  1  0  0  0  0
 52 53  1  0  0  0  0
 53 54  1  0  0  0  0
 53106  1  0  0  0  0
 54 55  2  0  0  0  0
 54  8  1  0  0  0  0
 55 51  1  0  0  0  0
 55 56  1  0  0  0  0
 56107  1  0  0  0  0
 56108  1  0  0  0  0
 58 59  1  0  0  0  0
 59 60  1  0  0  0  0
 59 61  2  0  0  0  0
 60109  1  0  0  0  0
 60110  1  0  0  0  0
 60111  1  0  0  0  0
M  END
>  <DRUGBANK_ID>
DB00361

>  <SECONDARY_ACCESSION_NUMBERS>
APRD00101

>  <COMMON_NAME>
Vinorelbine

>  <CAS_NUMBER>
71486-22-1

>  <UNII>
Q6C979R91Y

>  <SYNONYMS>
5'-Noranhydrovinblastine; Vinorelbin; Vinorelbina; Vinorelbine; Vinorelbinum

$$$$
