
 OpenBabel10282417203D

 68 70  0  0  1  0  0  0  0  0999 V2000
    1.0412   -0.0706   -0.0367 C   0  0  0  0  0  0  0  0  0  0  0  0
    0.5813    0.8499    1.0800 C   0  0  0  0  0  0  0  0  0  0  0  0
    1.0692    2.2695    0.8106 C   0  0  0  0  0  0  0  0  0  0  0  0
    0.5143    2.7840   -0.5328 C   0  0  0  0  0  0  0  0  0  0  0  0
   -1.0089    2.9255   -0.4909 C   0  0  0  0  0  0  0  0  0  0  0  0
   -1.5236    3.8033    0.6634 C   0  0  1  0  0  0  0  0  0  0  0  0
   -1.0369    5.2406    0.5796 C   0  0  0  0  0  0  0  0  0  0  0  0
   -1.9379    6.3052    0.5486 C   0  0  0  0  0  0  0  0  0  0  0  0
   -1.4752    7.6194    0.5076 C   0  0  0  0  0  0  0  0  0  0  0  0
   -0.1043    7.8763    0.4307 C   0  0  0  0  0  0  0  0  0  0  0  0
    0.8065    6.8472    0.4881 C   0  0  0  0  0  0  0  0  0  0  0  0
    0.3372    5.5558    0.6028 C   0  0  0  0  0  0  0  0  0  0  0  0
    0.3946    9.1676    0.3192 N   0  0  0  0  0  0  0  0  0  0  0  0
    1.2886    9.5739   -0.7679 C   0  0  2  0  0  0  0  0  0  0  0  0
    1.7581   10.9246   -0.2235 C   0  0  0  0  0  0  0  0  0  0  0  0
    0.6358   11.4420    0.6492 C   0  0  0  0  0  0  0  0  0  0  0  0
    0.0455   10.1897    1.1927 C   0  0  0  0  0  0  0  0  0  0  0  0
   -0.6166   10.1251    2.2142 O   0  0  0  0  0  0  0  0  0  0  0  0
    0.5364    9.5680   -2.1069 C   0  0  0  0  0  0  0  0  0  0  0  0
    1.1811   10.1098   -3.2654 O   0  0  0  0  0  0  0  0  0  0  0  0
    1.6637   11.4571   -3.1976 C   0  0  0  0  0  0  0  0  0  0  0  0
    0.5077   12.4068   -2.9279 C   0  0  0  0  0  0  0  0  0  0  0  0
   -0.8478   12.1357   -2.8215 C   0  0  0  0  0  0  0  0  0  0  0  0
   -1.6505   13.2359   -2.4636 C   0  0  0  0  0  0  0  0  0  0  0  0
   -0.9392   14.4052   -2.5247 C   0  0  0  0  0  0  0  0  0  0  0  0
    0.7455   14.1035   -2.7579 S   0  0  0  0  0  0  0  0  0  0  0  0
   -1.4420   15.7631   -2.4473 C   0  0  0  0  0  0  0  0  0  0  0  0
   -0.7685   16.7658   -2.5497 O   0  0  0  0  0  0  0  0  0  0  0  0
   -2.8100   15.7436   -2.2748 O   0  0  0  0  0  0  0  0  0  0  0  0
   -3.5113   17.0068   -2.1958 C   0  0  0  0  0  0  0  0  0  0  0  0
   -3.0581   17.8128   -0.9845 C   0  0  0  0  0  0  0  0  0  0  0  0
   -3.3975   17.7923   -3.4977 C   0  0  0  0  0  0  0  0  0  0  0  0
   -2.9523    3.7125    0.6553 O   0  0  0  0  0  0  0  0  0  0  0  0
    0.6427    0.2299   -1.0100 H   0  0  0  0  0  0  0  0  0  0  0  0
    0.6958   -1.0890    0.1297 H   0  0  0  0  0  0  0  0  0  0  0  0
    2.1332   -0.0519   -0.1032 H   0  0  0  0  0  0  0  0  0  0  0  0
   -0.5120    0.8266    1.1605 H   0  0  0  0  0  0  0  0  0  0  0  0
    0.9612    0.5010    2.0452 H   0  0  0  0  0  0  0  0  0  0  0  0
    0.7746    2.9011    1.6586 H   0  0  0  0  0  0  0  0  0  0  0  0
    2.1640    2.3076    0.8038 H   0  0  0  0  0  0  0  0  0  0  0  0
    0.9789    3.7199   -0.8460 H   0  0  0  0  0  0  0  0  0  0  0  0
    0.8113    2.1383   -1.3601 H   0  0  0  0  0  0  0  0  0  0  0  0
   -1.3652    3.3169   -1.4511 H   0  0  0  0  0  0  0  0  0  0  0  0
   -1.4719    1.9321   -0.4152 H   0  0  0  0  0  0  0  0  0  0  0  0
   -1.2309    3.4042    1.6391 H   0  0  0  0  0  0  0  0  0  0  0  0
   -3.0088    6.1265    0.5859 H   0  0  0  0  0  0  0  0  0  0  0  0
   -2.1996    8.4277    0.5139 H   0  0  0  0  0  0  0  0  0  0  0  0
    1.8746    7.0357    0.5372 H   0  0  0  0  0  0  0  0  0  0  0  0
    1.1202    4.8205    0.7196 H   0  0  0  0  0  0  0  0  0  0  0  0
    2.1366    8.8875   -0.8719 H   0  0  0  0  0  0  0  0  0  0  0  0
    1.9772   11.7464   -0.8815 H   0  0  0  0  0  0  0  0  0  0  0  0
    2.6809   10.7612    0.3408 H   0  0  0  0  0  0  0  0  0  0  0  0
   -0.1313   11.9597    0.0652 H   0  0  0  0  0  0  0  0  0  0  0  0
    1.0309   12.1013    1.4205 H   0  0  0  0  0  0  0  0  0  0  0  0
    0.2248    8.5543   -2.3978 H   0  0  0  0  0  0  0  0  0  0  0  0
   -0.4187   10.0317   -1.8983 H   0  0  0  0  0  0  0  0  0  0  0  0
    2.5151   11.4595   -2.5129 H   0  0  0  0  0  0  0  0  0  0  0  0
    2.1584   11.7183   -4.1380 H   0  0  0  0  0  0  0  0  0  0  0  0
   -1.3036   11.1705   -2.9634 H   0  0  0  0  0  0  0  0  0  0  0  0
   -2.7178   13.1640   -2.2877 H   0  0  0  0  0  0  0  0  0  0  0  0
   -4.5740   16.7619   -2.0512 H   0  0  0  0  0  0  0  0  0  0  0  0
   -1.9903   18.0376   -1.0251 H   0  0  0  0  0  0  0  0  0  0  0  0
   -3.5919   18.7644   -0.9175 H   0  0  0  0  0  0  0  0  0  0  0  0
   -3.2230   17.2436   -0.0639 H   0  0  0  0  0  0  0  0  0  0  0  0
   -3.8026   17.2119   -4.3331 H   0  0  0  0  0  0  0  0  0  0  0  0
   -3.9315   18.7447   -3.4344 H   0  0  0  0  0  0  0  0  0  0  0  0
   -2.3577   18.0146   -3.7468 H   0  0  0  0  0  0  0  0  0  0  0  0
   -3.2565    4.0738   -0.1927 H   0  0  0  0  0  0  0  0  0  0  0  0
  1  2  1  0  0  0  0
  1 34  1  0  0  0  0
  1 35  1  0  0  0  0
  1 36  1  0  0  0  0
  2  3  1  0  0  0  0
  2 37  1  0  0  0  0
  2 38  1  0  0  0  0
  3  4  1  0  0  0  0
  3 39  1  0  0  0  0
  3 40  1  0  0  0  0
  4  5  1  0  0  0  0
  4 41  1  0  0  0  0
  4 42  1  0  0  0  0
  5  6  1  0  0  0  0
  5 43  1  0  0  0  0
  5 44  1  0  0  0  0
  6  7  1  0  0  0  0
  6 33  1  0  0  0  0
  6 45  1  1  0  0  0
  7  8  2  0  0  0  0
  7 12  1  0  0  0  0
  8  9  1  0  0  0  0
  8 46  1  0  0  0  0
  9 10  2  0  0  0  0
  9 47  1  0  0  0  0
 10 11  1  0  0  0  0
 10 13  1  0  0  0  0
 11 12  2  0  0  0  0
 11 48  1  0  0  0  0
 12 49  1  0  0  0  0
 13 14  1  0  0  0  0
 13 17  1  0  0  0  0
 14 15  1  0  0  0  0
 14 19  1  0  0  0  0
 14 50  1  6  0  0  0
 15 16  1  0  0  0  0
 15 51  1  0  0  0  0
 15 52  1  0  0  0  0
 16 17  1  0  0  0  0
 16 53  1  0  0  0  0
 16 54  1  0  0  0  0
 17 18  2  0  0  0  0
 19 20  1  0  0  0  0
 19 55  1  0  0  0  0
 19 56  1  0  0  0  0
 20 21  1  0  0  0  0
 21 22  1  0  0  0  0
 21 57  1  0  0  0  0
 21 58  1  0  0  0  0
 22 23  2  0  0  0  0
 22 26  1  0  0  0  0
 23 24  1  0  0  0  0
 23 59  1  0  0  0  0
 24 25  2  0  0  0  0
 24 60  1  0  0  0  0
 25 26  1  0  0  0  0
 25 27  1  0  0  0  0
 27 28  2  0  0  0  0
 27 29  1  0  0  0  0
 29 30  1  0  0  0  0
 30 31  1  0  0  0  0
 30 32  1  0  0  0  0
 30 61  1  0  0  0  0
 31 62  1  0  0  0  0
 31 63  1  0  0  0  0
 31 64  1  0  0  0  0
 32 65  1  0  0  0  0
 32 66  1  0  0  0  0
 32 67  1  0  0  0  0
 33 68  1  0  0  0  0
M  END
>  <DRUGBANK_ID>
DB12977

>  <COMMON_NAME>
Simenepag isopropyl

>  <CAS_NUMBER>
910562-13-9

>  <UNII>
8908HU0G4K

>  <SYNONYMS>
Simenepag isopropyl

$$$$
