
 OpenBabel10282417183D

 45 47  0  0  0  0  0  0  0  0999 V2000
    1.4273   -0.2634    0.0181 C   0  0  0  0  0  0  0  0  0  0  0  0
    0.5207   -1.3242    0.0230 C   0  0  0  0  0  0  0  0  0  0  0  0
   -0.8546   -1.0819   -0.0177 C   0  0  0  0  0  0  0  0  0  0  0  0
   -1.3333    0.2331   -0.0649 C   0  0  0  0  0  0  0  0  0  0  0  0
   -2.8234    0.5096   -0.2009 C   0  0  1  0  0  0  0  0  0  0  0  0
   -3.4252    1.2584    0.9966 C   0  0  0  0  0  0  0  0  0  0  0  0
   -2.8701    2.5517    1.2273 O   0  0  0  0  0  0  0  0  0  0  0  0
   -3.1621    1.2054   -1.5024 C   0  0  0  0  0  0  0  0  0  0  0  0
   -3.8998    0.7283   -2.3632 O   0  0  0  0  0  0  0  0  0  0  0  0
   -2.5328    2.4035   -1.5925 O   0  0  0  0  0  0  0  0  0  0  0  0
   -2.7618    3.1718   -2.7728 C   0  0  2  0  0  0  0  0  0  0  0  0
   -1.3956    3.6620   -3.2860 C   0  0  0  0  0  0  0  0  0  0  0  0
   -1.3014    5.1789   -3.4719 C   0  0  2  0  0  0  0  0  0  0  0  0
   -1.0818    5.8076   -2.0786 C   0  0  2  0  0  0  0  0  0  0  0  0
   -2.4809    6.1790   -1.6083 C   0  0  0  0  0  0  0  0  0  0  0  0
   -3.4116    5.6647   -2.7184 C   0  0  2  0  0  0  0  0  0  0  0  0
   -3.8356    4.2218   -2.4432 C   0  0  0  0  0  0  0  0  0  0  0  0
   -2.5818    5.7540   -3.9250 N   0  0  0  0  0  0  0  0  0  0  0  0
   -3.1511    5.1298   -5.1189 C   0  0  0  0  0  0  0  0  0  0  0  0
   -0.2487    6.9598   -2.1368 O   0  0  0  0  0  0  0  0  0  0  0  0
   -0.3997    1.2844   -0.0464 C   0  0  0  0  0  0  0  0  0  0  0  0
    0.9661    1.0435   -0.0297 C   0  0  0  0  0  0  0  0  0  0  0  0
    2.4957   -0.4531    0.0440 H   0  0  0  0  0  0  0  0  0  0  0  0
    0.8910   -2.3457    0.0375 H   0  0  0  0  0  0  0  0  0  0  0  0
   -1.5391   -1.9286   -0.0289 H   0  0  0  0  0  0  0  0  0  0  0  0
   -3.3486   -0.4557   -0.2581 H   0  0  0  0  0  0  0  0  0  0  0  0
   -4.5007    1.4021    0.8528 H   0  0  0  0  0  0  0  0  0  0  0  0
   -3.2815    0.6764    1.9129 H   0  0  0  0  0  0  0  0  0  0  0  0
   -1.9649    2.4176    1.5589 H   0  0  0  0  0  0  0  0  0  0  0  0
   -3.1611    2.5204   -3.5584 H   0  0  0  0  0  0  0  0  0  0  0  0
   -0.5892    3.3186   -2.6249 H   0  0  0  0  0  0  0  0  0  0  0  0
   -1.1980    3.1798   -4.2512 H   0  0  0  0  0  0  0  0  0  0  0  0
   -0.4844    5.4392   -4.1547 H   0  0  0  0  0  0  0  0  0  0  0  0
   -0.6166    5.1035   -1.3795 H   0  0  0  0  0  0  0  0  0  0  0  0
   -2.6973    5.6981   -0.6468 H   0  0  0  0  0  0  0  0  0  0  0  0
   -2.5830    7.2609   -1.4659 H   0  0  0  0  0  0  0  0  0  0  0  0
   -4.2980    6.3068   -2.7789 H   0  0  0  0  0  0  0  0  0  0  0  0
   -4.7145    4.0021   -3.0629 H   0  0  0  0  0  0  0  0  0  0  0  0
   -4.1768    4.1237   -1.4049 H   0  0  0  0  0  0  0  0  0  0  0  0
   -3.2944    4.0485   -5.0473 H   0  0  0  0  0  0  0  0  0  0  0  0
   -4.1356    5.5508   -5.3475 H   0  0  0  0  0  0  0  0  0  0  0  0
   -2.5051    5.2903   -5.9869 H   0  0  0  0  0  0  0  0  0  0  0  0
    0.4334    6.8509   -1.4526 H   0  0  0  0  0  0  0  0  0  0  0  0
   -0.7182    2.3231   -0.0819 H   0  0  0  0  0  0  0  0  0  0  0  0
    1.6551    1.8817   -0.0763 H   0  0  0  0  0  0  0  0  0  0  0  0
  1 22  2  0  0  0  0
  1 23  1  0  0  0  0
  2  1  1  0  0  0  0
  2  3  2  0  0  0  0
  2 24  1  0  0  0  0
  3  4  1  0  0  0  0
  3 25  1  0  0  0  0
  4  5  1  0  0  0  0
  5  6  1  0  0  0  0
  5  8  1  0  0  0  0
  5 26  1  6  0  0  0
  6 27  1  0  0  0  0
  6 28  1  0  0  0  0
  7  6  1  0  0  0  0
  7 29  1  0  0  0  0
  8 10  1  0  0  0  0
  9  8  2  0  0  0  0
 11 10  1  0  0  0  0
 11 12  1  0  0  0  0
 11 30  1  6  0  0  0
 12 13  1  0  0  0  0
 12 31  1  0  0  0  0
 12 32  1  0  0  0  0
 13 18  1  0  0  0  0
 13 33  1  6  0  0  0
 14 13  1  0  0  0  0
 14 34  1  1  0  0  0
 14 20  1  0  0  0  0
 15 14  1  0  0  0  0
 15 16  1  0  0  0  0
 15 35  1  0  0  0  0
 15 36  1  0  0  0  0
 16 18  1  0  0  0  0
 16 37  1  6  0  0  0
 17 16  1  0  0  0  0
 17 11  1  0  0  0  0
 17 38  1  0  0  0  0
 17 39  1  0  0  0  0
 19 18  1  0  0  0  0
 19 40  1  0  0  0  0
 19 41  1  0  0  0  0
 19 42  1  0  0  0  0
 20 43  1  0  0  0  0
 21  4  2  0  0  0  0
 21 44  1  0  0  0  0
 22 21  1  0  0  0  0
 22 45  1  0  0  0  0
M  END
>  <DRUGBANK_ID>
DB11785

>  <COMMON_NAME>
Anisodamine

>  <CAS_NUMBER>
55869-99-3

>  <UNII>
01343Q8EL8

$$$$
