
 OpenBabel10282417133D

 11 10  0  0  0  0  0  0  0  0999 V2000
    0.8991    0.0133    0.0560 C   0  0  2  0  0  0  0  0  0  0  0  0
    0.4279   -0.2196    1.4813 C   0  0  0  0  0  0  0  0  0  0  0  0
   -0.3047   -2.0233   -0.5297 O   0  0  0  0  0  0  0  0  0  0  0  0
    0.4484    1.2792   -0.4102 O   0  0  0  0  0  0  0  0  0  0  0  0
    0.4032   -1.0804   -0.8776 C   0  0  0  0  0  0  0  0  0  0  0  0
    0.7305   -0.9839   -1.9257 H   0  0  0  0  0  0  0  0  0  0  0  0
    1.9934    0.0131    0.0192 H   0  0  0  0  0  0  0  0  0  0  0  0
    0.7858    0.5707    2.1482 H   0  0  0  0  0  0  0  0  0  0  0  0
   -0.6667   -0.2141    1.5347 H   0  0  0  0  0  0  0  0  0  0  0  0
    0.7808   -1.1859    1.8564 H   0  0  0  0  0  0  0  0  0  0  0  0
   -0.5222    1.2970   -0.3264 H   0  0  0  0  0  0  0  0  0  0  0  0
  1  5  1  0  0  0  0
  1  2  1  0  0  0  0
  1  7  1  6  0  0  0
  2  8  1  0  0  0  0
  2  9  1  0  0  0  0
  2 10  1  0  0  0  0
  3  5  2  0  0  0  0
  4  1  1  0  0  0  0
  4 11  1  0  0  0  0
  5  6  1  0  0  0  0
M  END
>  <DRUGBANK_ID>
DB03776

>  <SECONDARY_ACCESSION_NUMBERS>
EXPT00138

>  <COMMON_NAME>
Lactaldehyde

>  <CAS_NUMBER>
598-35-6

>  <UNII>
BS76EN9C35

>  <SYNONYMS>
(2s)-2-Hydroxypropanal; (S)-lactaldehyde; L-2-Hydroxypropionaldehyde; L-lactaldehyde

$$$$
