
 OpenBabel10282417143D

 17 17  0  0  0  0  0  0  0  0999 V2000
    0.9066    0.0058    0.0687 C   0  0  0  0  0  0  0  0  0  0  0  0
    0.3680    1.0089    1.0520 C   0  0  0  0  0  0  0  0  0  0  0  0
   -0.3967    1.9127    0.7111 O   0  0  0  0  0  0  0  0  0  0  0  0
    0.7656    0.8935    2.4759 C   0  0  0  0  0  0  0  0  0  0  0  0
    2.0887    0.6088    2.8269 C   0  0  0  0  0  0  0  0  0  0  0  0
    2.4700    0.6272    4.1695 C   0  0  0  0  0  0  0  0  0  0  0  0
    1.5364    0.9372    5.1584 C   0  0  0  0  0  0  0  0  0  0  0  0
    0.2164    1.2230    4.8095 C   0  0  0  0  0  0  0  0  0  0  0  0
   -0.1782    1.1740    3.4712 C   0  0  0  0  0  0  0  0  0  0  0  0
    0.5361    0.2509   -0.9319 H   0  0  0  0  0  0  0  0  0  0  0  0
    0.5516   -0.9938    0.3320 H   0  0  0  0  0  0  0  0  0  0  0  0
    1.9975    0.0301    0.0323 H   0  0  0  0  0  0  0  0  0  0  0  0
    2.8431    0.4150    2.0712 H   0  0  0  0  0  0  0  0  0  0  0  0
    3.5041    0.4308    4.4419 H   0  0  0  0  0  0  0  0  0  0  0  0
    1.8408    0.9664    6.2020 H   0  0  0  0  0  0  0  0  0  0  0  0
   -0.4988    1.5069    5.5779 H   0  0  0  0  0  0  0  0  0  0  0  0
   -1.2155    1.3696    3.2062 H   0  0  0  0  0  0  0  0  0  0  0  0
  1  2  1  0  0  0  0
  1 10  1  0  0  0  0
  1 11  1  0  0  0  0
  1 12  1  0  0  0  0
  2  3  2  0  0  0  0
  2  4  1  0  0  0  0
  4  5  2  0  0  0  0
  4  9  1  0  0  0  0
  5  6  1  0  0  0  0
  5 13  1  0  0  0  0
  6  7  2  0  0  0  0
  6 14  1  0  0  0  0
  7  8  1  0  0  0  0
  7 15  1  0  0  0  0
  8  9  2  0  0  0  0
  8 16  1  0  0  0  0
  9 17  1  0  0  0  0
M  END
>  <DRUGBANK_ID>
DB04619

>  <COMMON_NAME>
Acetophenone

>  <CAS_NUMBER>
98-86-2

>  <UNII>
RK493WHV10

>  <SYNONYMS>
1-phenylethanone; Acetylbenzene; Benzoyl methide; Methyl phenyl ketone; Phenyl methyl ketone

$$$$
