
 OpenBabel10282417133D

105112  0  0  0  0  0  0  0  0999 V2000
    5.4566    3.6856    5.7973 Cl  0  0  0  0  0  0  0  0  0  0  0  0
   13.3707   -8.7841    6.2679 O   0  0  0  0  0  0  0  0  0  0  0  0
   11.9682   -6.0550    7.8033 O   0  0  0  0  0  0  0  0  0  0  0  0
   13.7211  -11.2655    8.8470 O   0  0  0  0  0  0  0  0  0  0  0  0
   12.1252   -9.2388    9.8181 O   0  0  0  0  0  0  0  0  0  0  0  0
    7.0903   -1.9619    6.6739 O   0  0  0  0  0  0  0  0  0  0  0  0
    6.8521   -2.4875    5.1002 O   0  0  0  0  0  0  0  0  0  0  0  0
    6.4421   -2.1016    3.4908 O   0  0  0  0  0  0  0  0  0  0  0  0
    2.2692    0.8517    5.0350 O   0  0  0  0  0  0  0  0  0  0  0  0
    4.7951   -1.0028    3.9369 O   0  0  0  0  0  0  0  0  0  0  0  0
    7.4906    0.1910    4.1810 O   0  0  0  0  0  0  0  0  0  0  0  0
    8.6895   -4.0655    0.7406 O   0  0  0  0  0  0  0  0  0  0  0  0
   11.2189   -0.1024    2.1535 O   0  0  0  0  0  0  0  0  0  0  0  0
    5.5676   -5.4792    2.2431 O   0  0  0  0  0  0  0  0  0  0  0  0
   12.8218  -12.6993    6.5242 N   0  0  0  0  0  0  0  0  0  0  0  0
    5.3263   -2.1385    7.4888 N   0  3  0  0  0  0  0  0  0  0  0  0
    6.7021   -3.6737    2.5864 N   0  0  0  0  0  0  0  0  0  0  0  0
   12.5583  -11.2520    6.7002 C   0  0  2  0  0  0  0  0  0  0  0  0
   13.6670  -10.3317    6.1229 C   0  0  0  0  0  0  0  0  0  0  0  0
   10.9711   -4.2692    7.2570 C   0  0  1  0  0  0  0  0  0  0  0  0
   12.4867  -10.8641    8.2063 C   0  0  2  0  0  0  0  0  0  0  0  0
   12.9036   -7.8806    7.6809 C   0  0  1  0  0  0  0  0  0  0  0  0
   12.1612   -9.3240    8.4056 C   0  0  2  0  0  0  0  0  0  0  0  0
    8.7971   -3.3254    7.0579 C   0  0  1  0  0  0  0  0  0  0  0  0
   11.3051   -5.3103    6.2156 C   0  0  0  0  0  0  0  0  0  0  0  0
    9.1279   -5.4026    7.1709 C   0  0  0  0  0  0  0  0  0  0  0  0
    9.9681   -5.5766    6.1423 C   0  0  0  0  0  0  0  0  0  0  0  0
   13.7459  -10.6185    4.5983 C   0  0  0  0  0  0  0  0  0  0  0  0
   15.0264  -10.7948    6.6696 C   0  0  0  0  0  0  0  0  0  0  0  0
   12.7883   -3.3073    6.8886 C   0  0  0  0  0  0  0  0  0  0  0  0
   12.1540   -4.3841    5.9125 C   0  0  0  0  0  0  0  0  0  0  0  0
   13.4274   -4.4295    6.5301 C   0  0  0  0  0  0  0  0  0  0  0  0
    9.3072   -4.7380    5.4242 C   0  0  0  0  0  0  0  0  0  0  0  0
    8.1883   -6.5448    7.0661 C   0  0  0  0  0  0  0  0  0  0  0  0
   12.6647  -13.4772    5.3240 C   0  0  0  0  0  0  0  0  0  0  0  0
   12.8997  -13.5481    7.6760 C   0  0  0  0  0  0  0  0  0  0  0  0
    7.8691   -4.9191    5.5886 C   0  0  0  0  0  0  0  0  0  0  0  0
    7.2885   -5.9401    6.3639 C   0  0  0  0  0  0  0  0  0  0  0  0
    7.0185   -3.8639    5.2320 C   0  0  2  0  0  0  0  0  0  0  0  0
    5.6083   -0.4157    5.7767 C   0  0  0  0  0  0  0  0  0  0  0  0
    7.7986   -3.2706    4.2605 C   0  0  0  0  0  0  0  0  0  0  0  0
    4.0091    0.4118    5.3292 C   0  0  0  0  0  0  0  0  0  0  0  0
    5.4239    1.4414    5.6078 C   0  0  0  0  0  0  0  0  0  0  0  0
    4.4705    0.5025    7.1917 C   0  0  0  0  0  0  0  0  0  0  0  0
    3.4238    0.0053    6.3480 C   0  0  0  0  0  0  0  0  0  0  0  0
    5.4094    1.6405    6.8670 C   0  0  0  0  0  0  0  0  0  0  0  0
    5.7986   -0.7393    7.4649 C   0  0  2  0  0  0  0  0  0  0  0  0
    7.2655   -0.3905    5.9579 C   0  0  0  0  0  0  0  0  0  0  0  0
    6.0080   -1.0172    4.1972 C   0  0  0  0  0  0  0  0  0  0  0  0
    7.8776   -1.1324    4.3238 C   0  0  0  0  0  0  0  0  0  0  0  0
    8.3487   -1.3571    3.0659 C   0  0  0  0  0  0  0  0  0  0  0  0
    7.9380   -2.5529    2.2269 C   0  0  0  0  0  0  0  0  0  0  0  0
    9.4216   -0.6029    3.2336 C   0  0  0  0  0  0  0  0  0  0  0  0
    8.8785   -2.9641    1.4589 C   0  0  0  0  0  0  0  0  0  0  0  0
   10.2007   -0.9571    2.2595 C   0  0  0  0  0  0  0  0  0  0  0  0
    9.9434   -2.0924    1.4343 C   0  0  0  0  0  0  0  0  0  0  0  0
    6.5203   -4.7792    1.9542 C   0  0  0  0  0  0  0  0  0  0  0  0
    7.5685   -4.8997    0.9387 C   0  0  0  0  0  0  0  0  0  0  0  0
   12.0821   -0.3759    1.0811 C   0  0  0  0  0  0  0  0  0  0  0  0
    7.3950   -5.9313    0.1306 C   0  0  0  0  0  0  0  0  0  0  0  0
    8.7518   -4.4899    7.8887 H   0  0  0  0  0  0  0  0  0  0  0  0
    6.3078   -2.4152    7.6623 H   0  0  0  0  0  0  0  0  0  0  0  0
    4.7064   -1.9656    8.2176 H   0  0  0  0  0  0  0  0  0  0  0  0
    5.1028   -2.5979    6.5777 H   0  0  0  0  0  0  0  0  0  0  0  0
    6.0464   -3.4144    3.4436 H   0  0  0  0  0  0  0  0  0  0  0  0
   13.8880  -11.3855    9.7897 H   0  0  0  0  0  0  0  0  0  0  0  0
   11.3934   -8.6739   10.0754 H   0  0  0  0  0  0  0  0  0  0  0  0
    1.3926    0.2697    5.0842 H   0  0  0  0  0  0  0  0  0  0  0  0
   11.6092  -10.9816    6.2221 H   0  0  0  0  0  0  0  0  0  0  0  0
   11.6489  -11.4540    8.6444 H   0  0  0  0  0  0  0  0  0  0  0  0
   14.0630   -8.5471    8.3036 H   0  0  0  0  0  0  0  0  0  0  0  0
   11.2539   -9.2452    7.8597 H   0  0  0  0  0  0  0  0  0  0  0  0
   14.5514  -10.0556    4.1319 H   0  0  0  0  0  0  0  0  0  0  0  0
   13.9600  -11.6690    4.3711 H   0  0  0  0  0  0  0  0  0  0  0  0
   12.8030  -10.3524    4.1172 H   0  0  0  0  0  0  0  0  0  0  0  0
   15.0850  -10.6131    7.7270 H   0  0  0  0  0  0  0  0  0  0  0  0
   15.2081  -11.8714    6.5088 H   0  0  0  0  0  0  0  0  0  0  0  0
   15.8425  -10.2315    6.2468 H   0  0  0  0  0  0  0  0  0  0  0  0
   13.8138   -2.6152    6.0703 H   0  0  0  0  0  0  0  0  0  0  0  0
   11.5106   -3.3788    5.6477 H   0  0  0  0  0  0  0  0  0  0  0  0
   14.3023   -4.9003    6.9900 H   0  0  0  0  0  0  0  0  0  0  0  0
    9.7315   -3.6667    5.3981 H   0  0  0  0  0  0  0  0  0  0  0  0
    7.9403   -7.5986    7.5001 H   0  0  0  0  0  0  0  0  0  0  0  0
   13.5319  -14.1472    5.2110 H   0  0  0  0  0  0  0  0  0  0  0  0
   11.7731  -14.1038    5.3821 H   0  0  0  0  0  0  0  0  0  0  0  0
   12.5822  -12.8922    4.4164 H   0  0  0  0  0  0  0  0  0  0  0  0
   13.7781  -14.1846    7.6151 H   0  0  0  0  0  0  0  0  0  0  0  0
   12.9953  -13.0274    8.6060 H   0  0  0  0  0  0  0  0  0  0  0  0
   11.9966  -14.1357    7.7848 H   0  0  0  0  0  0  0  0  0  0  0  0
    6.2500   -6.1311    6.3983 H   0  0  0  0  0  0  0  0  0  0  0  0
    6.0600   -4.2565    5.4300 H   0  0  0  0  0  0  0  0  0  0  0  0
    8.4397   -3.9450    3.6566 H   0  0  0  0  0  0  0  0  0  0  0  0
    8.7714   -2.7128    4.3994 H   0  0  0  0  0  0  0  0  0  0  0  0
    3.1227   -0.9073    5.7760 H   0  0  0  0  0  0  0  0  0  0  0  0
    6.5215    1.8638    6.7094 H   0  0  0  0  0  0  0  0  0  0  0  0
    5.7624   -0.1802    8.2640 H   0  0  0  0  0  0  0  0  0  0  0  0
    8.3191   -1.0524    6.1198 H   0  0  0  0  0  0  0  0  0  0  0  0
    7.6268    0.5998    6.1265 H   0  0  0  0  0  0  0  0  0  0  0  0
    9.4921    0.1693    3.9956 H   0  0  0  0  0  0  0  0  0  0  0  0
   10.6407   -2.2511    0.6649 H   0  0  0  0  0  0  0  0  0  0  0  0
   12.5499   -1.3544    1.2108 H   0  0  0  0  0  0  0  0  0  0  0  0
   11.5533   -0.3327    0.1255 H   0  0  0  0  0  0  0  0  0  0  0  0
   12.8545    0.3860    1.0894 H   0  0  0  0  0  0  0  0  0  0  0  0
    8.0946   -6.1048   -0.6677 H   0  0  0  0  0  0  0  0  0  0  0  0
    6.5556   -6.6029    0.2517 H   0  0  0  0  0  0  0  0  0  0  0  0
  1 43  1  0  0  0  0
  2 19  1  0  0  0  0
  2 22  1  0  0  0  0
  4 66  1  0  0  0  0
  5 67  1  0  0  0  0
  6 24  1  0  0  0  0
  6 40  1  0  0  0  0
  7 50  1  0  0  0  0
  8 41  1  0  0  0  0
  8 49  1  0  0  0  0
  9 68  1  0  0  0  0
  9 42  1  0  0  0  0
 10 49  2  0  0  0  0
 11 50  2  0  0  0  0
 12 54  1  0  0  0  0
 12 58  1  0  0  0  0
 13 55  1  0  0  0  0
 13 59  1  0  0  0  0
 14 57  2  0  0  0  0
 15 35  1  0  0  0  0
 15 36  1  0  0  0  0
 16 62  1  0  0  0  0
 16 63  1  0  0  0  0
 16 64  1  0  0  0  0
 17 52  1  0  0  0  0
 17 57  1  0  0  0  0
 17 65  1  0  0  0  0
 18 19  1  0  0  0  0
 18 21  1  0  0  0  0
 18 69  1  6  0  0  0
 18 15  1  0  0  0  0
 19 28  1  0  0  0  0
 19 29  1  0  0  0  0
 20 24  1  0  0  0  0
 20 25  1  0  0  0  0
 20 30  1  0  0  0  0
 20  3  1  6  0  0  0
 21 23  1  0  0  0  0
 21 70  1  1  0  0  0
 21  4  1  0  0  0  0
 22  3  1  0  0  0  0
 22 23  1  0  0  0  0
 22 71  1  1  0  0  0
 23 72  1  6  0  0  0
 23  5  1  0  0  0  0
 24 26  1  0  0  0  0
 24 61  1  6  0  0  0
 25 27  1  0  0  0  0
 25 31  2  0  0  0  0
 26 27  2  0  0  0  0
 26 34  1  0  0  0  0
 27 33  1  0  0  0  0
 28 73  1  0  0  0  0
 28 74  1  0  0  0  0
 28 75  1  0  0  0  0
 29 76  1  0  0  0  0
 29 77  1  0  0  0  0
 29 78  1  0  0  0  0
 30 32  2  0  0  0  0
 30 79  1  0  0  0  0
 31 32  1  0  0  0  0
 31 80  1  0  0  0  0
 32 81  1  0  0  0  0
 33 37  2  0  0  0  0
 33 82  1  0  0  0  0
 34 38  2  0  0  0  0
 34 83  1  0  0  0  0
 35 84  1  0  0  0  0
 35 85  1  0  0  0  0
 35 86  1  0  0  0  0
 36 87  1  0  0  0  0
 36 88  1  0  0  0  0
 36 89  1  0  0  0  0
 37 38  1  0  0  0  0
 37 39  1  0  0  0  0
 38 90  1  0  0  0  0
 39 41  1  0  0  0  0
 39 91  1  6  0  0  0
 39  7  1  0  0  0  0
 40 42  2  0  0  0  0
 40 43  1  0  0  0  0
 41 92  1  0  0  0  0
 41 93  1  0  0  0  0
 42 45  1  0  0  0  0
 43 46  2  0  0  0  0
 44 45  2  0  0  0  0
 44 46  1  0  0  0  0
 44 47  1  0  0  0  0
 45 94  1  0  0  0  0
 46 95  1  0  0  0  0
 47 48  1  0  0  0  0
 47 16  1  0  0  0  0
 47 96  1  1  0  0  0
 48 49  1  0  0  0  0
 48 97  1  0  0  0  0
 48 98  1  0  0  0  0
 50 51  1  0  0  0  0
 51 52  2  0  0  0  0
 51 53  1  0  0  0  0
 52 54  1  0  0  0  0
 53 55  2  0  0  0  0
 53 99  1  0  0  0  0
 54 56  2  0  0  0  0
 55 56  1  0  0  0  0
 56100  1  0  0  0  0
 57 58  1  0  0  0  0
 58 60  2  0  0  0  0
 59101  1  0  0  0  0
 59102  1  0  0  0  0
 59103  1  0  0  0  0
 60104  1  0  0  0  0
 60105  1  0  0  0  0
M  CHG  1  16   1
M  END
>  <DRUGBANK_ID>
DB03933

>  <SECONDARY_ACCESSION_NUMBERS>
EXPT02805

>  <COMMON_NAME>
C-1027 Aromatized chromophore

$$$$
