
 OpenBabel10282417213D

 51 52  0  0  0  0  0  0  0  0999 V2000
    1.0863   -0.0099   -0.0411 C   0  0  0  0  0  0  0  0  0  0  0  0
    0.6083    0.1878    1.2861 O   0  0  0  0  0  0  0  0  0  0  0  0
    0.2784   -0.9160    2.0266 C   0  0  0  0  0  0  0  0  0  0  0  0
    0.3318   -2.2463    1.5966 C   0  0  0  0  0  0  0  0  0  0  0  0
   -0.0856   -3.2937    2.4383 C   0  0  0  0  0  0  0  0  0  0  0  0
   -0.5483   -2.9857    3.7212 C   0  0  0  0  0  0  0  0  0  0  0  0
   -0.5794   -1.6722    4.1707 C   0  0  0  0  0  0  0  0  0  0  0  0
   -0.1669   -0.6527    3.3282 C   0  0  0  0  0  0  0  0  0  0  0  0
   -0.2134    0.6194    3.8290 O   0  0  0  0  0  0  0  0  0  0  0  0
   -0.0134   -4.6784    1.9463 C   0  0  0  0  0  0  0  0  0  0  0  0
   -0.3950   -5.7539    2.6511 C   0  0  0  0  0  0  0  0  0  0  0  0
   -0.3319   -7.1516    2.1623 C   0  0  0  0  0  0  0  0  0  0  0  0
   -0.6449   -8.0522    2.9427 O   0  0  0  0  0  0  0  0  0  0  0  0
    0.0852   -7.4466    0.7478 C   0  0  0  0  0  0  0  0  0  0  0  0
   -0.7874   -6.7890   -0.2934 C   0  0  0  0  0  0  0  0  0  0  0  0
   -0.3214   -5.9846   -1.1023 O   0  0  0  0  0  0  0  0  0  0  0  0
   -2.2400   -7.0866   -0.3638 C   0  0  0  0  0  0  0  0  0  0  0  0
   -2.8387   -8.0066    0.3982 C   0  0  0  0  0  0  0  0  0  0  0  0
   -4.2755   -8.2569    0.3520 C   0  0  0  0  0  0  0  0  0  0  0  0
   -5.0408   -8.4783   -0.7867 C   0  0  0  0  0  0  0  0  0  0  0  0
   -6.4450   -8.7553   -0.7022 C   0  0  0  0  0  0  0  0  0  0  0  0
   -7.1521   -8.8386    0.5365 C   0  0  0  0  0  0  0  0  0  0  0  0
   -6.2864   -8.6300    1.6708 C   0  0  0  0  0  0  0  0  0  0  0  0
   -4.9113   -8.3404    1.5629 C   0  0  0  0  0  0  0  0  0  0  0  0
   -6.4540   -8.6647    3.0453 O   0  0  0  0  0  0  0  0  0  0  0  0
   -7.7569   -8.9827    3.2801 C   0  0  0  0  0  0  0  0  0  0  0  0
   -8.5590   -9.1298    0.3559 O   0  0  0  0  0  0  0  0  0  0  0  0
   -9.8333   -9.2679    1.4554 S   0  0  0  0  0  0  0  0  0  0  0  0
   -9.7014  -10.4962    2.2374 O   0  0  0  0  0  0  0  0  0  0  0  0
  -10.1051   -8.0067    2.0970 O   0  0  0  0  0  0  0  0  0  0  0  0
  -11.2480   -9.5580    0.7566 O   0  0  0  0  0  0  0  0  0  0  0  0
    0.7754    0.8514   -0.6396 H   0  0  0  0  0  0  0  0  0  0  0  0
    0.6793   -0.8880   -0.5474 H   0  0  0  0  0  0  0  0  0  0  0  0
    2.1797   -0.0489   -0.0314 H   0  0  0  0  0  0  0  0  0  0  0  0
    0.6920   -2.5048    0.6062 H   0  0  0  0  0  0  0  0  0  0  0  0
   -0.8874   -3.7549    4.4056 H   0  0  0  0  0  0  0  0  0  0  0  0
   -0.9261   -1.4539    5.1750 H   0  0  0  0  0  0  0  0  0  0  0  0
    0.1176    1.1984    3.1184 H   0  0  0  0  0  0  0  0  0  0  0  0
    0.3883   -4.7773    0.9415 H   0  0  0  0  0  0  0  0  0  0  0  0
   -0.7914   -5.6893    3.6578 H   0  0  0  0  0  0  0  0  0  0  0  0
    1.1238   -7.1206    0.6233 H   0  0  0  0  0  0  0  0  0  0  0  0
    0.0777   -8.5291    0.5801 H   0  0  0  0  0  0  0  0  0  0  0  0
   -2.7985   -6.4880   -1.0752 H   0  0  0  0  0  0  0  0  0  0  0  0
   -2.3077   -8.5780    1.1583 H   0  0  0  0  0  0  0  0  0  0  0  0
   -4.5381   -8.4505   -1.7529 H   0  0  0  0  0  0  0  0  0  0  0  0
   -6.9512   -8.9123   -1.6556 H   0  0  0  0  0  0  0  0  0  0  0  0
   -4.3456   -8.1882    2.4881 H   0  0  0  0  0  0  0  0  0  0  0  0
   -8.2381   -8.1230    2.8347 H   0  0  0  0  0  0  0  0  0  0  0  0
   -7.8346   -9.9705    2.8291 H   0  0  0  0  0  0  0  0  0  0  0  0
   -8.1387   -9.0420    4.2900 H   0  0  0  0  0  0  0  0  0  0  0  0
  -11.8336   -9.6624    1.5576 H   0  0  0  0  0  0  0  0  0  0  0  0
  1  2  1  0  0  0  0
  1 32  1  0  0  0  0
  1 33  1  0  0  0  0
  1 34  1  0  0  0  0
  2  3  1  0  0  0  0
  3  4  2  0  0  0  0
  3  8  1  0  0  0  0
  4  5  1  0  0  0  0
  4 35  1  0  0  0  0
  5  6  2  0  0  0  0
  5 10  1  0  0  0  0
  6  7  1  0  0  0  0
  6 36  1  0  0  0  0
  7  8  2  0  0  0  0
  7 37  1  0  0  0  0
  8  9  1  0  0  0  0
  9 38  1  0  0  0  0
 10 11  2  0  0  0  0
 10 39  1  0  0  0  0
 11 12  1  0  0  0  0
 11 40  1  0  0  0  0
 12 13  2  0  0  0  0
 12 14  1  0  0  0  0
 14 15  1  0  0  0  0
 14 41  1  0  0  0  0
 14 42  1  0  0  0  0
 15 16  2  0  0  0  0
 15 17  1  0  0  0  0
 17 18  2  0  0  0  0
 17 43  1  0  0  0  0
 18 19  1  0  0  0  0
 18 44  1  0  0  0  0
 19 20  2  0  0  0  0
 19 24  1  0  0  0  0
 20 21  1  0  0  0  0
 20 45  1  0  0  0  0
 21 22  2  0  0  0  0
 21 46  1  0  0  0  0
 22 23  1  0  0  0  0
 22 27  1  0  0  0  0
 23 24  2  0  0  0  0
 23 25  1  0  0  0  0
 24 47  1  0  0  0  0
 25 26  1  0  0  0  0
 26 48  1  0  0  0  0
 26 49  1  0  0  0  0
 26 50  1  0  0  0  0
 27 28  1  0  0  0  0
 28 29  2  0  0  0  0
 28 30  2  0  0  0  0
 28 31  1  0  0  0  0
 31 51  1  0  0  0  0
M  END
>  <DRUGBANK_ID>
DB14635

>  <SECONDARY_ACCESSION_NUMBERS>
DBSALT002044

>  <COMMON_NAME>
Curcumin sulfate

>  <CAS_NUMBER>
339286-19-0

>  <UNII>
160DHE331M

>  <SYNONYMS>
Curcumin monosulfate; Curcumin sulphate

$$$$
