
 OpenBabel10282417103D

 15 14  0  0  0  0  0  0  0  0999 V2000
    1.0759   -0.0544    0.0359 P   0  0  0  0  0  0  0  0  0  0  0  0
    1.1952   -0.1678    1.6740 O   0  0  0  0  0  0  0  0  0  0  0  0
    1.1451    1.4533   -0.2373 O   0  0  0  0  0  0  0  0  0  0  0  0
   -0.7541   -0.0544    0.0359 C   0  0  0  0  0  0  0  0  0  0  0  0
    2.8059   -0.0544    0.0359 O   0  0  0  0  0  0  0  0  0  0  0  0
   -1.3641   -1.7797    0.0404 P   0  0  0  0  0  0  0  0  0  0  0  0
   -2.9286   -1.3400   -0.1770 O   0  0  0  0  0  0  0  0  0  0  0  0
   -0.6789   -2.0946   -1.2872 O   0  0  0  0  0  0  0  0  0  0  0  0
   -1.9408   -3.4107    0.0446 O   0  0  0  0  0  0  0  0  0  0  0  0
   -1.4760    0.7376    1.5004 Cl  0  0  0  0  0  0  0  0  0  0  0  0
   -1.4061    0.8225   -1.4189 Cl  0  0  0  0  0  0  0  0  0  0  0  0
    1.3142   -1.0399    2.1223 H   0  0  0  0  0  0  0  0  0  0  0  0
    3.0998    0.2715    0.9079 H   0  0  0  0  0  0  0  0  0  0  0  0
   -3.4347   -1.2710    0.6589 H   0  0  0  0  0  0  0  0  0  0  0  0
   -1.3046   -3.9559   -0.4618 H   0  0  0  0  0  0  0  0  0  0  0  0
  1  2  1  0  0  0  0
  1  3  2  0  0  0  0
  1  4  1  0  0  0  0
  1  5  1  0  0  0  0
  2 12  1  0  0  0  0
  4  6  1  0  0  0  0
  4 10  1  0  0  0  0
  4 11  1  0  0  0  0
  5 13  1  0  0  0  0
  6  7  1  0  0  0  0
  6  8  2  0  0  0  0
  6  9  1  0  0  0  0
  7 14  1  0  0  0  0
  9 15  1  0  0  0  0
M  END
>  <DRUGBANK_ID>
DB00720

>  <SECONDARY_ACCESSION_NUMBERS>
APRD00639

>  <COMMON_NAME>
Clodronic acid

>  <CAS_NUMBER>
10596-23-3

>  <UNII>
0813BZ6866

>  <SYNONYMS>
(Dichloro-phosphono-methyl)-phosphonic acid; (dichloromethylene)bisphosphonic acid; (dichloromethylene)diphosphonic acid; Acide clodronique; Acido clodronico; Acidum clodronicum; Clodronate; Clodronic acid; Clodronsaeure; Clodrons√§ure; dichloromethylene-1,1-bisphosphonic acid; dichloromethylene-1,1-diphosphonic acid; Dichloromethylidene diphosphonate

$$$$
