NBQ
 OpenBabel10282417123D

 53 55  0  0  0  0  0  0  0  0999 V2000
    1.0678    0.0701   -0.4530 N   0  0  0  0  0  0  0  0  0  0  0  0
    0.5452   -1.3044   -0.5498 C   0  0  1  0  0  0  0  0  0  0  0  0
    1.1172   -2.2592    0.5058 C   0  0  0  0  0  0  0  0  0  0  0  0
    0.7001   -2.0232    1.9368 C   0  0  0  0  0  0  0  0  0  0  0  0
    0.2036   -3.1024    2.6682 C   0  0  0  0  0  0  0  0  0  0  0  0
    0.0612   -4.3978    2.2845 O   0  0  0  0  0  0  0  0  0  0  0  0
   -0.1659   -2.8941    3.9523 C   0  0  0  0  0  0  0  0  0  0  0  0
   -0.0172   -1.6410    4.5152 C   0  0  0  0  0  0  0  0  0  0  0  0
   -0.3941   -1.7420    5.7971 O   0  0  0  0  0  0  0  0  0  0  0  0
    0.3617   -0.4619    3.8784 C   0  0  0  0  0  0  0  0  0  0  0  0
    0.7988   -0.7174    2.5673 C   0  0  0  0  0  0  0  0  0  0  0  0
    0.3980    0.8608    4.4471 N   0  0  0  0  0  0  0  0  0  0  0  0
    0.0009    1.4104    5.7131 C   0  0  0  0  0  0  0  0  0  0  0  0
    0.0993    2.7235    6.0488 C   0  0  0  0  0  0  0  0  0  0  0  0
   -0.3668    3.2802    7.3643 C   0  0  0  0  0  0  0  0  0  0  0  0
   -0.2939    4.4689    7.6425 O   0  0  0  0  0  0  0  0  0  0  0  0
   -0.6906    0.5463    6.7466 C   0  0  0  0  0  0  0  0  0  0  0  0
   -1.9113   -0.0757    6.2816 O   0  0  0  0  0  0  0  0  0  0  0  0
   -2.9513    0.6276    5.7657 C   0  0  0  0  0  0  0  0  0  0  0  0
   -2.8513    1.7908    5.0183 C   0  0  0  0  0  0  0  0  0  0  0  0
   -3.9764    2.5158    4.6708 C   0  0  0  0  0  0  0  0  0  0  0  0
   -5.2350    2.0173    4.9709 C   0  0  0  0  0  0  0  0  0  0  0  0
   -6.3627    2.7584    4.6278 C   0  0  0  0  0  0  0  0  0  0  0  0
   -5.3660    0.7608    5.6065 C   0  0  0  0  0  0  0  0  0  0  0  0
   -4.2084    0.0635    5.9798 C   0  0  0  0  0  0  0  0  0  0  0  0
   -6.6505    0.2697    5.8734 C   0  0  0  0  0  0  0  0  0  0  0  0
   -7.7746    1.0234    5.5296 C   0  0  0  0  0  0  0  0  0  0  0  0
   -7.6299    2.2643    4.9110 C   0  0  0  0  0  0  0  0  0  0  0  0
   -1.0042   -1.2919   -0.4837 C   0  0  0  0  0  0  0  0  0  0  0  0
   -1.6057   -1.6604   -1.6440 O   0  0  0  0  0  0  0  0  0  0  0  0
   -1.6463   -0.9623    0.4841 O   0  0  0  0  0  0  0  0  0  0  0  0
    0.8658   -1.6820   -1.5262 H   0  0  0  0  0  0  0  0  0  0  0  0
    0.5281    0.5438    0.2774 H   0  0  0  0  0  0  0  0  0  0  0  0
    2.0305    0.0358   -0.1114 H   0  0  0  0  0  0  0  0  0  0  0  0
    0.7935   -3.2561    0.1843 H   0  0  0  0  0  0  0  0  0  0  0  0
    2.2130   -2.2905    0.4823 H   0  0  0  0  0  0  0  0  0  0  0  0
    0.4593   -4.5754    1.4279 H   0  0  0  0  0  0  0  0  0  0  0  0
   -0.5783   -3.6908    4.5645 H   0  0  0  0  0  0  0  0  0  0  0  0
   -1.2025   -1.2007    5.7039 H   0  0  0  0  0  0  0  0  0  0  0  0
    1.2475    0.1094    2.0299 H   0  0  0  0  0  0  0  0  0  0  0  0
    0.6077    1.5784    3.7516 H   0  0  0  0  0  0  0  0  0  0  0  0
    0.4632    3.4848    5.3691 H   0  0  0  0  0  0  0  0  0  0  0  0
   -0.7848    2.5939    8.1093 H   0  0  0  0  0  0  0  0  0  0  0  0
    0.0764   -0.1803    7.0478 H   0  0  0  0  0  0  0  0  0  0  0  0
   -0.9463    0.9095    7.7323 H   0  0  0  0  0  0  0  0  0  0  0  0
   -1.9214    2.1770    4.6398 H   0  0  0  0  0  0  0  0  0  0  0  0
   -3.8429    3.4692    4.1678 H   0  0  0  0  0  0  0  0  0  0  0  0
   -6.2555    3.7231    4.1383 H   0  0  0  0  0  0  0  0  0  0  0  0
   -4.2810   -0.9107    6.4601 H   0  0  0  0  0  0  0  0  0  0  0  0
   -6.7843   -0.6911    6.3649 H   0  0  0  0  0  0  0  0  0  0  0  0
   -8.7678    0.6436    5.7486 H   0  0  0  0  0  0  0  0  0  0  0  0
   -8.5023    2.8518    4.6438 H   0  0  0  0  0  0  0  0  0  0  0  0
   -1.0049   -1.7944   -2.3964 H   0  0  0  0  0  0  0  0  0  0  0  0
  1 33  1  0  0  0  0
  1 34  1  0  0  0  0
  2  1  1  0  0  0  0
  2  3  1  0  0  0  0
  2 29  1  0  0  0  0
  2 32  1  6  0  0  0
  3  4  1  0  0  0  0
  3 35  1  0  0  0  0
  3 36  1  0  0  0  0
  4  5  2  0  0  0  0
  4 11  1  0  0  0  0
  5  6  1  0  0  0  0
  5  7  1  0  0  0  0
  6 37  1  0  0  0  0
  7  8  2  0  0  0  0
  7 38  1  0  0  0  0
  8  9  1  0  0  0  0
  8 10  1  0  0  0  0
  9 39  1  0  0  0  0
 10 11  2  0  0  0  0
 10 12  1  0  0  0  0
 11 40  1  0  0  0  0
 12 13  1  0  0  0  0
 12 41  1  0  0  0  0
 13 14  2  0  0  0  0
 13 17  1  0  0  0  0
 14 15  1  0  0  0  0
 14 42  1  0  0  0  0
 15 16  2  0  0  0  0
 15 43  1  0  0  0  0
 17 18  1  0  0  0  0
 17 44  1  0  0  0  0
 17 45  1  0  0  0  0
 18 19  1  0  0  0  0
 19 20  2  0  0  0  0
 19 25  1  0  0  0  0
 20 21  1  0  0  0  0
 20 46  1  0  0  0  0
 21 22  2  0  0  0  0
 21 47  1  0  0  0  0
 22 23  1  0  0  0  0
 22 24  1  0  0  0  0
 23 28  2  0  0  0  0
 23 48  1  0  0  0  0
 24 25  2  0  0  0  0
 24 26  1  0  0  0  0
 25 49  1  0  0  0  0
 26 27  2  0  0  0  0
 26 50  1  0  0  0  0
 27 28  1  0  0  0  0
 27 51  1  0  0  0  0
 28 52  1  0  0  0  0
 29 30  1  0  0  0  0
 29 31  2  0  0  0  0
 30 53  1  0  0  0  0
M  END
>  <DRUGBANK_ID>
DB02511

>  <SECONDARY_ACCESSION_NUMBERS>
EXPT02304

>  <COMMON_NAME>
2-Hydroxy-5-({1-[(2-Naphthyloxy)Methyl]-3-Oxoprop-1-Enyl}Amino)Tyrosine

>  <SYNONYMS>
2-Hydroxy-5-{[(2E)-1-(2-naphthyloxy)-4-oxo-2-buten-2-yl]amino}-L-tyrosine

$$$$
