
 OpenBabel10282417213D

 25 25  0  0  0  0  0  0  0  0999 V2000
   -1.8325   -0.0652   -0.5340 C   0  0  0  0  0  0  0  0  0  0  0  0
   -1.1894   -1.2770   -0.2163 C   0  0  0  0  0  0  0  0  0  0  0  0
   -1.0002    1.0243   -0.8186 C   0  0  0  0  0  0  0  0  0  0  0  0
    0.2151   -1.3458   -0.0897 C   0  0  0  0  0  0  0  0  0  0  0  0
    0.3718    0.9914   -0.5553 C   0  0  0  0  0  0  0  0  0  0  0  0
    0.9766   -0.1899   -0.2036 C   0  0  0  0  0  0  0  0  0  0  0  0
   -3.3248    0.0376   -0.2851 C   0  0  0  0  0  0  0  0  0  0  0  0
   -3.9619    1.2119   -0.0457 O   0  0  0  0  0  0  0  0  0  0  0  0
   -3.9814   -1.0127   -0.1805 O   0  0  0  0  0  0  0  0  0  0  0  0
   -3.3945    2.5258    0.1163 C   0  0  0  0  0  0  0  0  0  0  0  0
   -2.6226    2.7320    1.4403 C   0  0  0  0  0  0  0  0  0  0  0  0
   -1.6057    1.6984    1.9095 C   0  0  0  0  0  0  0  0  0  0  0  0
    2.3079   -0.1220    0.0584 O   0  0  0  0  0  0  0  0  0  0  0  0
   -1.7827   -2.1618    0.0188 H   0  0  0  0  0  0  0  0  0  0  0  0
   -1.3523    2.0159   -1.0175 H   0  0  0  0  0  0  0  0  0  0  0  0
    0.6812   -2.2881    0.1766 H   0  0  0  0  0  0  0  0  0  0  0  0
    0.9182    1.9308   -0.4727 H   0  0  0  0  0  0  0  0  0  0  0  0
   -2.9034    2.8213   -0.8122 H   0  0  0  0  0  0  0  0  0  0  0  0
   -4.2292    3.2407    0.1183 H   0  0  0  0  0  0  0  0  0  0  0  0
   -2.1035    3.6947    1.3737 H   0  0  0  0  0  0  0  0  0  0  0  0
   -3.3640    2.7997    2.2389 H   0  0  0  0  0  0  0  0  0  0  0  0
   -0.6814    1.8673    1.3687 H   0  0  0  0  0  0  0  0  0  0  0  0
   -1.2768    1.7888    2.9452 H   0  0  0  0  0  0  0  0  0  0  0  0
   -1.9722    0.6762    1.8100 H   0  0  0  0  0  0  0  0  0  0  0  0
    2.6873   -1.0123    0.0192 H   0  0  0  0  0  0  0  0  0  0  0  0
  1  7  1  0  0  0  0
  2  1  1  0  0  0  0
  2 14  1  0  0  0  0
  3  1  2  0  0  0  0
  3 15  1  0  0  0  0
  4  2  2  0  0  0  0
  4 16  1  0  0  0  0
  5  3  1  0  0  0  0
  5 17  1  0  0  0  0
  6  4  1  0  0  0  0
  6  5  2  0  0  0  0
  6 13  1  0  0  0  0
  7  8  1  0  0  0  0
  7  9  2  0  0  0  0
  8 10  1  0  0  0  0
 10 11  1  0  0  0  0
 10 18  1  0  0  0  0
 10 19  1  0  0  0  0
 11 12  1  0  0  0  0
 11 20  1  0  0  0  0
 11 21  1  0  0  0  0
 12 22  1  0  0  0  0
 12 23  1  0  0  0  0
 12 24  1  0  0  0  0
 13 25  1  0  0  0  0
M  END
>  <DRUGBANK_ID>
DB14177

>  <COMMON_NAME>
Propylparaben

>  <CAS_NUMBER>
94-13-3

>  <UNII>
Z8IX2SC1OH

>  <SYNONYMS>
4-Hydroxybenzoic acid propyl ester; 4-Hydroxybenzoic acid, propyl ester; n-Propyl 4-hydroxybenzoate; n-Propyl p-hydroxybenzoate; n-propyl paraben; p-Hydroxybenzoic acid propyl ester; p-Hydroxybenzoic propyl ester; p-Oxybenzoes√§urepropylester; Propyl p-hydroxybenzoate; Propyl paraben; Propyl parahydroxybenzoate; Propylparaben

$$$$
