
 OpenBabel10282417123D

 20 20  0  0  1  0  0  0  0  0999 V2000
   -1.3524   -0.4522   -0.0241 C   0  0  0  0  0  0  0  0  0  0  0  0
   -1.0823    1.0003   -0.0152 C   0  0  1  0  0  0  0  0  0  0  0  0
   -0.3987   -1.3893    0.0108 C   0  0  0  0  0  0  0  0  0  0  0  0
    0.3951    1.3913    0.0897 C   0  0  2  0  0  0  0  0  0  0  0  0
   -0.8480   -2.8132    0.0008 C   0  0  0  0  0  0  0  0  0  0  0  0
    1.3960    0.2236   -0.0821 C   0  0  2  0  0  0  0  0  0  0  0  0
   -1.6710    1.5464   -1.1930 O   0  0  0  0  0  0  0  0  0  0  0  0
    0.6097    2.0125    1.3747 O   0  0  0  0  0  0  0  0  0  0  0  0
   -2.0050   -3.2043   -0.0099 O   0  0  0  0  0  0  0  0  0  0  0  0
    0.1807   -3.6769   -0.0066 O   0  0  0  0  0  0  0  0  0  0  0  0
    2.0862    0.3398   -1.3249 O   0  0  0  0  0  0  0  0  0  0  0  0
    0.9413   -1.1166    0.0648 O   0  0  0  0  0  0  0  0  0  0  0  0
   -1.6271    1.4339    0.8316 H   0  0  0  0  0  0  0  0  0  0  0  0
    0.6227    2.1690   -0.6509 H   0  0  0  0  0  0  0  0  0  0  0  0
    2.1681    0.3419    0.6878 H   0  0  0  0  0  0  0  0  0  0  0  0
   -2.4041   -0.7341   -0.0352 H   0  0  0  0  0  0  0  0  0  0  0  0
   -1.2545    1.1352   -1.9678 H   0  0  0  0  0  0  0  0  0  0  0  0
    0.4019    1.3515    2.0582 H   0  0  0  0  0  0  0  0  0  0  0  0
   -0.2356   -4.5634   -0.0176 H   0  0  0  0  0  0  0  0  0  0  0  0
    1.4115    0.3354   -2.0195 H   0  0  0  0  0  0  0  0  0  0  0  0
  1 16  1  0  0  0  0
  2  1  1  0  0  0  0
  2 13  1  1  0  0  0
  2  7  1  0  0  0  0
  3  1  2  0  0  0  0
  4  2  1  0  0  0  0
  4  8  1  0  0  0  0
  4 14  1  6  0  0  0
  5  3  1  0  0  0  0
  6  4  1  0  0  0  0
  6 11  1  0  0  0  0
  6 15  1  1  0  0  0
  7 17  1  0  0  0  0
  8 18  1  0  0  0  0
  9  5  2  0  0  0  0
 10  5  1  0  0  0  0
 10 19  1  0  0  0  0
 11 20  1  0  0  0  0
 12  3  1  0  0  0  0
 12  6  1  0  0  0  0
M  END
>  <DRUGBANK_ID>
DB02305

>  <SECONDARY_ACCESSION_NUMBERS>
EXPT01556

>  <COMMON_NAME>
4,5-Dehydro-D-Glucuronic Acid

$$$$
