[NO NAME]
 OpenBabel10282417113D
Created with ChemWriter - http://chemwriter.com
 64 65  0  0  0  0  0  0  0  0999 V2000
    1.0452   -0.5187   -0.0432 C   0  0  0  0  0  0  0  0  0  0  0  0
    0.4551   -1.8158    0.0291 N   0  0  0  0  0  0  0  0  0  0  0  0
   -0.3706   -2.2099    1.0469 C   0  0  0  0  0  0  0  0  0  0  0  0
   -0.6625   -1.4334    2.0469 N   0  0  0  0  0  0  0  0  0  0  0  0
   -0.8865   -3.4638    1.0359 N   0  0  0  0  0  0  0  0  0  0  0  0
   -1.6734   -3.9824    2.0461 C   0  0  0  0  0  0  0  0  0  0  0  0
   -1.9209   -3.2186    3.0777 N   0  0  0  0  0  0  0  0  0  0  0  0
   -2.1355   -5.2601    1.9444 N   0  0  0  0  0  0  0  0  0  0  0  0
   -2.9602   -5.8664    2.9206 C   0  0  0  0  0  0  0  0  0  0  0  0
   -2.6240   -7.1065    3.4733 C   0  0  0  0  0  0  0  0  0  0  0  0
   -4.0484   -5.1696    3.4842 C   0  0  0  0  0  0  0  0  0  0  0  0
   -4.7431   -5.6590    4.5910 C   0  0  0  0  0  0  0  0  0  0  0  0
   -3.3382   -7.6164    4.5704 C   0  0  0  0  0  0  0  0  0  0  0  0
   -4.3829   -6.8839    5.1332 C   0  0  0  0  0  0  0  0  0  0  0  0
   -5.2330   -7.4910    6.4994 Cl  0  0  0  0  0  0  0  0  0  0  0  0
    0.7379    0.2518    1.1591 C   0  0  0  0  0  0  0  0  0  0  0  0
    1.3433    1.5242    0.8280 C   0  0  0  0  0  0  0  0  0  0  0  0
    0.4487    2.4448   -0.5500 C   0  0  0  0  0  0  0  0  0  0  0  0
   -1.1556    2.8553   -0.7018 C   0  0  0  0  0  0  0  0  0  0  0  0
   -1.9738    3.8683    0.1147 C   0  0  0  0  0  0  0  0  0  0  0  0
   -1.4361    5.2355    0.4625 N   0  0  0  0  0  0  0  0  0  0  0  0
   -2.1693    6.0463    1.3566 C   0  0  0  0  0  0  0  0  0  0  0  0
   -1.6894    7.1442    1.8581 N   0  0  0  0  0  0  0  0  0  0  0  0
   -3.3958    5.5778    1.8009 N   0  0  0  0  0  0  0  0  0  0  0  0
   -3.8869    4.3098    2.1445 C   0  0  0  0  0  0  0  0  0  0  0  0
   -5.1365    4.0100    1.8490 N   0  0  0  0  0  0  0  0  0  0  0  0
   -2.9660    3.2568    2.6904 N   0  0  0  0  0  0  0  0  0  0  0  0
   -1.3904    3.3384    2.9292 C   0  0  0  0  0  0  0  0  0  0  0  0
    0.9326    3.7120    1.6437 C   0  0  0  0  0  0  0  0  0  0  0  0
   -0.4249    2.9326    1.9982 C   0  0  0  0  0  0  0  0  0  0  0  0
   -0.7874    4.4217    3.4880 C   0  0  0  0  0  0  0  0  0  0  0  0
    0.6329    4.9783    3.3032 C   0  0  0  0  0  0  0  0  0  0  0  0
    1.5556    4.5323    2.3794 C   0  0  0  0  0  0  0  0  0  0  0  0
    3.1678    4.9971    1.9924 Cl  0  0  0  0  0  0  0  0  0  0  0  0
    0.6449    0.0294   -0.8995 H   0  0  0  0  0  0  0  0  0  0  0  0
    2.1390   -0.5139   -0.1368 H   0  0  0  0  0  0  0  0  0  0  0  0
    0.6540   -2.3457   -0.8002 H   0  0  0  0  0  0  0  0  0  0  0  0
   -1.2606   -1.9303    2.7256 H   0  0  0  0  0  0  0  0  0  0  0  0
   -0.6134   -4.0197    0.2457 H   0  0  0  0  0  0  0  0  0  0  0  0
   -2.4421   -3.6854    3.8078 H   0  0  0  0  0  0  0  0  0  0  0  0
   -1.7824   -5.8654    1.2197 H   0  0  0  0  0  0  0  0  0  0  0  0
   -1.7791   -7.6740    3.0921 H   0  0  0  0  0  0  0  0  0  0  0  0
   -4.3417   -4.1990    3.0815 H   0  0  0  0  0  0  0  0  0  0  0  0
   -5.5506   -5.0733    5.0220 H   0  0  0  0  0  0  0  0  0  0  0  0
   -3.0643   -8.5783    4.9965 H   0  0  0  0  0  0  0  0  0  0  0  0
   -0.3366    0.3994    1.3071 H   0  0  0  0  0  0  0  0  0  0  0  0
    1.1480   -0.1466    2.1150 H   0  0  0  0  0  0  0  0  0  0  0  0
    1.3068    1.7963    1.9175 H   0  0  0  0  0  0  0  0  0  0  0  0
    2.4479    1.5654    0.8059 H   0  0  0  0  0  0  0  0  0  0  0  0
    0.8481    3.4575   -0.7262 H   0  0  0  0  0  0  0  0  0  0  0  0
    0.7905    1.9645   -1.4690 H   0  0  0  0  0  0  0  0  0  0  0  0
   -1.3647    3.3473   -1.6530 H   0  0  0  0  0  0  0  0  0  0  0  0
   -1.7592    1.9144   -0.7086 H   0  0  0  0  0  0  0  0  0  0  0  0
   -2.0935    3.9495    1.1315 H   0  0  0  0  0  0  0  0  0  0  0  0
   -2.3571    2.9518    0.6358 H   0  0  0  0  0  0  0  0  0  0  0  0
   -0.4920    5.2084    0.8472 H   0  0  0  0  0  0  0  0  0  0  0  0
   -0.7166    7.2901    1.5691 H   0  0  0  0  0  0  0  0  0  0  0  0
   -4.0738    6.3347    1.7937 H   0  0  0  0  0  0  0  0  0  0  0  0
   -5.6774    4.8089    1.4722 H   0  0  0  0  0  0  0  0  0  0  0  0
   -3.2546    2.3574    2.2550 H   0  0  0  0  0  0  0  0  0  0  0  0
    1.6413    3.4875    0.7903 H   0  0  0  0  0  0  0  0  0  0  0  0
   -0.7264    2.1225    1.3609 H   0  0  0  0  0  0  0  0  0  0  0  0
   -1.5060    5.1168    3.8945 H   0  0  0  0  0  0  0  0  0  0  0  0
    0.8945    5.8904    3.7572 H   0  0  0  0  0  0  0  0  0  0  0  0
  1  2  1  0  0  0  0
  1 16  1  0  0  0  0
  1 35  1  0  0  0  0
  1 36  1  0  0  0  0
  2  3  1  0  0  0  0
  2 37  1  0  0  0  0
  3  5  1  0  0  0  0
  3  4  2  0  0  0  0
  4 38  1  0  0  0  0
  5  6  1  0  0  0  0
  5 39  1  0  0  0  0
  6  8  1  0  0  0  0
  6  7  2  0  0  0  0
  7 40  1  0  0  0  0
  8  9  1  0  0  0  0
  8 41  1  0  0  0  0
  9 11  1  0  0  0  0
 10  9  2  0  0  0  0
 10 13  1  0  0  0  0
 10 42  1  0  0  0  0
 11 12  2  0  0  0  0
 11 43  1  0  0  0  0
 12 14  1  0  0  0  0
 12 44  1  0  0  0  0
 13 45  1  0  0  0  0
 14 13  2  0  0  0  0
 14 15  1  0  0  0  0
 16 17  1  0  0  0  0
 16 46  1  0  0  0  0
 16 47  1  0  0  0  0
 17 18  1  0  0  0  0
 17 48  1  0  0  0  0
 17 49  1  0  0  0  0
 18 19  1  0  0  0  0
 18 50  1  0  0  0  0
 18 51  1  0  0  0  0
 19 20  1  0  0  0  0
 19 52  1  0  0  0  0
 19 53  1  0  0  0  0
 20 21  1  0  0  0  0
 20 54  1  0  0  0  0
 20 55  1  0  0  0  0
 21 22  1  0  0  0  0
 21 56  1  0  0  0  0
 22 23  2  0  0  0  0
 22 24  1  0  0  0  0
 23 57  1  0  0  0  0
 24 25  1  0  0  0  0
 24 58  1  0  0  0  0
 25 26  2  0  0  0  0
 25 27  1  0  0  0  0
 26 59  1  0  0  0  0
 27 28  1  0  0  0  0
 27 60  1  0  0  0  0
 28 31  1  0  0  0  0
 29 30  1  0  0  0  0
 29 33  2  0  0  0  0
 29 61  1  0  0  0  0
 30 28  2  0  0  0  0
 30 62  1  0  0  0  0
 31 32  2  0  0  0  0
 31 63  1  0  0  0  0
 32 33  1  0  0  0  0
 32 64  1  0  0  0  0
 33 34  1  0  0  0  0
M  END
>  <DRUGBANK_ID>
DB00878

>  <SECONDARY_ACCESSION_NUMBERS>
APRD00545

>  <COMMON_NAME>
Chlorhexidine

>  <CAS_NUMBER>
55-56-1

>  <UNII>
R4KO0DY52L

>  <SYNONYMS>
1,1'-Hexamethylene bis(5-(p-chlorophenyl)biguanide); Chlorhexidin; Chlorhexidine; Chlorhexidinum; Cloresidina; Clorhexidina; N,N'-Bis(4-chlorophenyl)-3,12-diimino-2,4,11,13-tetraazatetradecanediimidamide

$$$$
