
 OpenBabel10282417223D

 31 31  0  0  0  0  0  0  0  0999 V2000
    2.8606    0.4496   -1.4634 Na  0  3  0  0  0  0  0  0  0  0  0  0
   -0.0310    1.0863   -0.4122 C   0  0  2  0  0  0  0  0  0  0  0  0
    0.9728    0.6238    0.6642 C   0  0  0  0  0  0  0  0  0  0  0  0
    1.0798   -0.8835    0.6141 C   0  0  0  0  0  0  0  0  0  0  0  0
   -0.1779   -1.1596   -0.3207 C   0  0  1  0  0  0  0  0  0  0  0  0
   -1.3534   -0.7587    0.5923 C   0  0  0  0  0  0  0  0  0  0  0  0
   -1.3006    0.7990    0.5358 C   0  0  0  0  0  0  0  0  0  0  0  0
   -0.1783   -0.0889   -1.4880 C   0  0  0  0  0  0  0  0  0  0  0  0
    0.0720    2.5366   -0.9253 C   0  0  0  0  0  0  0  0  0  0  0  0
    1.5902    2.9331   -1.8103 S   0  0  0  0  0  0  0  0  0  0  0  0
    1.6060    2.1052   -2.9933 O   0  0  0  0  0  0  0  0  0  0  0  0
    1.5225    4.3717   -2.0812 O   0  0  0  0  0  0  0  0  0  0  0  0
    2.6303    2.4683   -0.9043 O   0  5  0  0  0  0  0  0  0  0  0  0
    1.4167    1.2943    1.5875 O   0  0  0  0  0  0  0  0  0  0  0  0
    0.6953   -0.6214   -2.6734 C   0  0  0  0  0  0  0  0  0  0  0  0
   -1.3780    0.3111   -2.4186 C   0  0  0  0  0  0  0  0  0  0  0  0
   -0.1761   -2.2020   -0.6474 H   0  0  0  0  0  0  0  0  0  0  0  0
    2.0645   -1.1838    0.2532 H   0  0  0  0  0  0  0  0  0  0  0  0
    0.9504   -1.3206    1.6200 H   0  0  0  0  0  0  0  0  0  0  0  0
   -2.3071   -1.1699    0.2611 H   0  0  0  0  0  0  0  0  0  0  0  0
   -1.1920   -1.1346    1.6169 H   0  0  0  0  0  0  0  0  0  0  0  0
   -2.2482    1.2144    0.1876 H   0  0  0  0  0  0  0  0  0  0  0  0
   -1.1585    1.1970    1.5564 H   0  0  0  0  0  0  0  0  0  0  0  0
   -0.7588    2.7858   -1.5932 H   0  0  0  0  0  0  0  0  0  0  0  0
    0.0385    3.2511   -0.0970 H   0  0  0  0  0  0  0  0  0  0  0  0
    1.2188    0.1713   -3.1680 H   0  0  0  0  0  0  0  0  0  0  0  0
    1.3696   -1.4601   -2.5277 H   0  0  0  0  0  0  0  0  0  0  0  0
    0.0563   -0.9950   -3.5106 H   0  0  0  0  0  0  0  0  0  0  0  0
   -0.9664    0.7468   -3.3612 H   0  0  0  0  0  0  0  0  0  0  0  0
   -1.9400   -0.5757   -2.7124 H   0  0  0  0  0  0  0  0  0  0  0  0
   -2.0381    1.1257   -2.1253 H   0  0  0  0  0  0  0  0  0  0  0  0
  2  3  1  0  0  0  0
  2  7  1  0  0  0  0
  2  8  1  0  0  0  0
  2  9  1  6  0  0  0
  3  4  1  0  0  0  0
  3 14  2  0  0  0  0
  4  5  1  0  0  0  0
  4 18  1  0  0  0  0
  4 19  1  0  0  0  0
  5  6  1  0  0  0  0
  5  8  1  0  0  0  0
  5 17  1  6  0  0  0
  6  7  1  0  0  0  0
  6 20  1  0  0  0  0
  6 21  1  0  0  0  0
  7 22  1  0  0  0  0
  7 23  1  0  0  0  0
  8 15  1  0  0  0  0
  8 16  1  0  0  0  0
  9 10  1  0  0  0  0
  9 24  1  0  0  0  0
  9 25  1  0  0  0  0
 10 11  2  0  0  0  0
 10 12  2  0  0  0  0
 10 13  1  0  0  0  0
 15 26  1  0  0  0  0
 15 27  1  0  0  0  0
 15 28  1  0  0  0  0
 16 29  1  0  0  0  0
 16 30  1  0  0  0  0
 16 31  1  0  0  0  0
M  CHG  2   1   1  13  -1
M  END
>  <DRUGBANK_ID>
DB15950

>  <COMMON_NAME>
Sodium camphorsulfonate

>  <CAS_NUMBER>
21791-94-6

>  <UNII>
CFN2D8XEIU

>  <SYNONYMS>
Sodium camsylate

$$$$
