
 OpenBabel10282417213D

145152  0  0  0  0  0  0  0  0999 V2000
   -6.3524    9.4726   -3.2288 C   0  0  1  0  0  0  0  0  0  0  0  0
   -5.5180    8.2467   -3.3433 C   0  0  2  0  0  0  0  0  0  0  0  0
   -5.5496   10.6083   -3.9019 C   0  0  0  0  0  0  0  0  0  0  0  0
   -6.5182   10.0475   -1.7614 C   0  0  0  0  0  0  0  0  0  0  0  0
   -7.7263    8.7441   -3.9419 C   0  0  0  0  0  0  0  0  0  0  0  0
   -5.5308    7.9605   -5.1491 C   0  0  0  0  0  0  0  0  0  0  0  0
   -6.3345    7.5870   -2.0667 C   0  0  2  0  0  0  0  0  0  0  0  0
   -5.4725   10.4670   -5.3800 C   0  0  0  0  0  0  0  0  0  0  0  0
   -6.5988    9.1965   -0.4848 C   0  0  0  0  0  0  0  0  0  0  0  0
   -8.5057    9.4544   -4.6999 O   0  0  0  0  0  0  0  0  0  0  0  0
   -7.7823    7.3350   -3.7984 O   0  0  0  0  0  0  0  0  0  0  0  0
   -4.8397    9.1220   -5.8479 C   0  0  1  0  0  0  0  0  0  0  0  0
   -5.7415    7.0974   -6.2466 C   0  0  0  0  0  0  0  0  0  0  0  0
   -6.1322    7.7846   -0.6048 C   0  0  1  0  0  0  0  0  0  0  0  0
   -6.2189    6.2351   -2.3084 C   0  0  0  0  0  0  0  0  0  0  0  0
   -5.0978    8.9380   -7.3983 C   0  0  1  0  0  0  0  0  0  0  0  0
   -3.3762    8.9343   -5.4964 C   0  0  0  0  0  0  0  0  0  0  0  0
   -6.8246    7.3317   -7.4320 C   0  0  0  0  0  0  0  0  0  0  0  0
   -7.1527    6.9478    0.2552 C   0  0  0  0  0  0  0  0  0  0  0  0
   -6.6696    8.8008   -7.2944 C   0  0  2  0  0  0  0  0  0  0  0  0
   -4.4845   10.0774   -8.1349 C   0  0  0  0  0  0  0  0  0  0  0  0
   -4.3888    7.6060   -8.2448 C   0  0  0  0  0  0  0  0  0  0  0  0
   -7.5330    9.7470   -8.0160 C   0  0  2  0  0  0  0  0  0  0  0  0
   -5.2813   10.3352   -9.3845 C   0  0  0  0  0  0  0  0  0  0  0  0
   -6.8030   10.7775   -9.0486 C   0  0  1  0  0  0  0  0  0  0  0  0
   -9.1481    9.7775   -7.5965 C   0  0  0  0  0  0  0  0  0  0  0  0
   -7.7402    8.7601   -9.0418 C   0  0  0  0  0  0  0  0  0  0  0  0
   -7.8038   10.7883  -10.5155 C   0  0  1  0  0  0  0  0  0  0  0  0
  -10.0927    9.9180   -8.9213 C   0  0  2  0  0  0  0  0  0  0  0  0
   -9.4355   11.0059   -9.9927 C   0  0  2  0  0  0  0  0  0  0  0  0
   -7.2071   11.8529  -11.3962 C   0  0  0  0  0  0  0  0  0  0  0  0
   -7.8144    9.3520  -11.4869 C   0  0  0  0  0  0  0  0  0  0  0  0
  -10.2382   11.0784  -11.1778 O   0  0  0  0  0  0  0  0  0  0  0  0
   -4.4745    8.3761   -3.0272 H   0  0  0  0  0  0  0  0  0  0  0  0
   -7.1513    8.8555   -6.3237 H   0  0  0  0  0  0  0  0  0  0  0  0
   -6.7224   11.7823   -8.5866 H   0  0  0  0  0  0  0  0  0  0  0  0
  -11.4264   10.1971   -8.5465 O   0  0  0  0  0  0  0  0  0  0  0  0
   -8.0746   12.9576  -11.4257 O   0  0  0  0  0  0  0  0  0  0  0  0
   -7.9549    5.6257   -4.1206 C   0  0  2  0  0  0  0  0  0  0  0  0
   -7.5046    4.4016   -3.2803 O   0  0  0  0  0  0  0  0  0  0  0  0
   -5.9938    3.8506   -3.0487 C   0  0  1  0  0  0  0  0  0  0  0  0
   -5.0414    3.8916   -4.2340 C   0  0  2  0  0  0  0  0  0  0  0  0
   -5.1169    5.2234   -4.8200 C   0  0  1  0  0  0  0  0  0  0  0  0
   -6.9548    5.4376   -5.1923 C   0  0  1  0  0  0  0  0  0  0  0  0
   -7.4152    4.5146   -6.1831 O   0  0  0  0  0  0  0  0  0  0  0  0
   -4.0603    5.9530   -4.1370 O   0  0  0  0  0  0  0  0  0  0  0  0
   -5.4572    3.0257   -5.2846 O   0  0  0  0  0  0  0  0  0  0  0  0
   -5.2280    4.1562   -1.5875 C   0  0  0  0  0  0  0  0  0  0  0  0
   -6.2289    4.2925   -0.6274 O   0  0  0  0  0  0  0  0  0  0  0  0
   -6.7573    3.0918   -0.3190 C   0  0  1  0  0  0  0  0  0  0  0  0
   -7.2939    3.1883    1.0820 C   0  0  1  0  0  0  0  0  0  0  0  0
   -7.4974    1.7419    1.4264 C   0  0  2  0  0  0  0  0  0  0  0  0
   -8.1796    0.9387    0.2780 C   0  0  1  0  0  0  0  0  0  0  0  0
   -7.7553    1.2698   -1.1792 C   0  0  2  0  0  0  0  0  0  0  0  0
   -7.7117    2.6678   -1.2635 O   0  0  0  0  0  0  0  0  0  0  0  0
   -6.3106    3.7790    1.9647 O   0  0  0  0  0  0  0  0  0  0  0  0
   -8.0830   -0.4592    0.5407 O   0  0  0  0  0  0  0  0  0  0  0  0
   -8.6194    0.6190   -2.2656 C   0  0  0  0  0  0  0  0  0  0  0  0
  -10.0001    0.8080   -2.0340 O   0  0  0  0  0  0  0  0  0  0  0  0
   -6.8644   -1.0549    0.0855 C   0  0  1  0  0  0  0  0  0  0  0  0
   -5.5789   -0.4746    0.7450 C   0  0  1  0  0  0  0  0  0  0  0  0
   -4.3190   -1.2360    0.4446 C   0  0  1  0  0  0  0  0  0  0  0  0
   -4.6012   -2.7064    0.6336 C   0  0  2  0  0  0  0  0  0  0  0  0
   -5.8030   -3.1576   -0.2108 C   0  0  1  0  0  0  0  0  0  0  0  0
   -6.9674   -2.4600    0.2644 O   0  0  0  0  0  0  0  0  0  0  0  0
   -5.6088   -2.9938   -1.7195 C   0  0  0  0  0  0  0  0  0  0  0  0
   -4.9304   -2.9119    2.0186 O   0  0  0  0  0  0  0  0  0  0  0  0
   -3.7942   -0.8798   -0.8507 O   0  0  0  0  0  0  0  0  0  0  0  0
   -5.2098    0.8320    0.3274 O   0  0  0  0  0  0  0  0  0  0  0  0
   -8.1138    1.4749    2.6743 O   0  0  0  0  0  0  0  0  0  0  0  0
   -4.5117   10.6847   -3.5220 H   0  0  0  0  0  0  0  0  0  0  0  0
   -5.9998   11.5753   -3.6582 H   0  0  0  0  0  0  0  0  0  0  0  0
   -7.4592   10.5907   -1.8198 H   0  0  0  0  0  0  0  0  0  0  0  0
   -5.7230   10.7673   -1.5293 H   0  0  0  0  0  0  0  0  0  0  0  0
   -7.4167    7.7632   -2.0385 H   0  0  0  0  0  0  0  0  0  0  0  0
   -4.9313   11.3283   -5.7659 H   0  0  0  0  0  0  0  0  0  0  0  0
   -6.5016   10.6213   -5.7204 H   0  0  0  0  0  0  0  0  0  0  0  0
   -7.6716    9.1757   -0.2505 H   0  0  0  0  0  0  0  0  0  0  0  0
   -6.0929    9.6306    0.3745 H   0  0  0  0  0  0  0  0  0  0  0  0
   -5.6375    6.0745   -6.5679 H   0  0  0  0  0  0  0  0  0  0  0  0
   -5.0991    7.5523   -0.3263 H   0  0  0  0  0  0  0  0  0  0  0  0
   -6.2170    6.1230   -3.3382 H   0  0  0  0  0  0  0  0  0  0  0  0
   -5.1920    6.1006   -2.1801 H   0  0  0  0  0  0  0  0  0  0  0  0
   -7.0590    5.7201   -1.8509 H   0  0  0  0  0  0  0  0  0  0  0  0
   -3.1942    9.0849   -4.4329 H   0  0  0  0  0  0  0  0  0  0  0  0
   -3.0544    7.9074   -5.7179 H   0  0  0  0  0  0  0  0  0  0  0  0
   -2.7537    9.6275   -6.0501 H   0  0  0  0  0  0  0  0  0  0  0  0
   -7.8537    6.9326   -7.3059 H   0  0  0  0  0  0  0  0  0  0  0  0
   -6.5972    6.9462   -8.4580 H   0  0  0  0  0  0  0  0  0  0  0  0
   -7.0152    5.8841    0.2376 H   0  0  0  0  0  0  0  0  0  0  0  0
   -7.0992    7.2053    1.3094 H   0  0  0  0  0  0  0  0  0  0  0  0
   -8.1888    7.0621   -0.1049 H   0  0  0  0  0  0  0  0  0  0  0  0
   -3.4464    9.7681   -8.3377 H   0  0  0  0  0  0  0  0  0  0  0  0
   -4.3964   10.9813   -7.5512 H   0  0  0  0  0  0  0  0  0  0  0  0
   -3.3635    7.4403   -7.9305 H   0  0  0  0  0  0  0  0  0  0  0  0
   -4.7991    6.5815   -8.1812 H   0  0  0  0  0  0  0  0  0  0  0  0
   -4.5224    7.7254   -9.3228 H   0  0  0  0  0  0  0  0  0  0  0  0
   -5.2427    9.4257   -9.9893 H   0  0  0  0  0  0  0  0  0  0  0  0
   -4.7109   11.0481   -9.9813 H   0  0  0  0  0  0  0  0  0  0  0  0
   -9.4320   10.4951   -6.8154 H   0  0  0  0  0  0  0  0  0  0  0  0
   -9.4087    8.7861   -7.1371 H   0  0  0  0  0  0  0  0  0  0  0  0
   -8.4632    7.9694   -9.0221 H   0  0  0  0  0  0  0  0  0  0  0  0
   -8.3480    9.4460   -9.4609 H   0  0  0  0  0  0  0  0  0  0  0  0
   -6.8745    8.5927   -9.6513 H   0  0  0  0  0  0  0  0  0  0  0  0
  -10.1905    8.9377   -9.4427 H   0  0  0  0  0  0  0  0  0  0  0  0
   -9.4993   11.9603   -9.4688 H   0  0  0  0  0  0  0  0  0  0  0  0
   -6.2451   12.1731  -10.9899 H   0  0  0  0  0  0  0  0  0  0  0  0
   -7.0135   11.4786  -12.4069 H   0  0  0  0  0  0  0  0  0  0  0  0
   -8.4142    9.4509  -12.3890 H   0  0  0  0  0  0  0  0  0  0  0  0
   -6.8033    8.9965  -11.7253 H   0  0  0  0  0  0  0  0  0  0  0  0
   -8.3163    8.4617  -11.0479 H   0  0  0  0  0  0  0  0  0  0  0  0
  -10.2857   10.1811  -11.5580 H   0  0  0  0  0  0  0  0  0  0  0  0
  -11.3703   10.9874   -7.9931 H   0  0  0  0  0  0  0  0  0  0  0  0
   -8.9707   12.5896  -11.5791 H   0  0  0  0  0  0  0  0  0  0  0  0
   -9.0229    5.6024   -4.3674 H   0  0  0  0  0  0  0  0  0  0  0  0
   -6.1939    2.7806   -2.9925 H   0  0  0  0  0  0  0  0  0  0  0  0
   -4.0010    3.6688   -3.9599 H   0  0  0  0  0  0  0  0  0  0  0  0
   -4.5469    5.1409   -5.7567 H   0  0  0  0  0  0  0  0  0  0  0  0
   -7.3210    6.3777   -5.5657 H   0  0  0  0  0  0  0  0  0  0  0  0
   -6.6205    4.1363   -6.5910 H   0  0  0  0  0  0  0  0  0  0  0  0
   -4.2867    6.6123   -3.4855 H   0  0  0  0  0  0  0  0  0  0  0  0
   -6.4311    2.9937   -5.1985 H   0  0  0  0  0  0  0  0  0  0  0  0
   -4.3578    3.5332   -1.3695 H   0  0  0  0  0  0  0  0  0  0  0  0
   -4.7086    5.0478   -1.2097 H   0  0  0  0  0  0  0  0  0  0  0  0
   -5.8689    2.4921   -0.3715 H   0  0  0  0  0  0  0  0  0  0  0  0
   -8.2022    3.7900    1.1222 H   0  0  0  0  0  0  0  0  0  0  0  0
   -6.4992    1.4322    1.6687 H   0  0  0  0  0  0  0  0  0  0  0  0
   -9.2283    1.2504    0.3641 H   0  0  0  0  0  0  0  0  0  0  0  0
   -6.7482    0.9352   -1.4532 H   0  0  0  0  0  0  0  0  0  0  0  0
   -5.4357    3.4120    1.7387 H   0  0  0  0  0  0  0  0  0  0  0  0
   -8.3668    1.0182   -3.2553 H   0  0  0  0  0  0  0  0  0  0  0  0
   -8.4312   -0.4604   -2.3008 H   0  0  0  0  0  0  0  0  0  0  0  0
  -10.2070    0.4169   -1.1672 H   0  0  0  0  0  0  0  0  0  0  0  0
   -6.8334   -0.9044   -0.9845 H   0  0  0  0  0  0  0  0  0  0  0  0
   -5.7676   -0.4591    1.8259 H   0  0  0  0  0  0  0  0  0  0  0  0
   -3.5668   -0.8751    1.1550 H   0  0  0  0  0  0  0  0  0  0  0  0
   -3.7040   -3.2748    0.3906 H   0  0  0  0  0  0  0  0  0  0  0  0
   -5.9882   -4.2119    0.0100 H   0  0  0  0  0  0  0  0  0  0  0  0
   -4.6192   -3.3420   -2.0222 H   0  0  0  0  0  0  0  0  0  0  0  0
   -6.3902   -3.5185   -2.2711 H   0  0  0  0  0  0  0  0  0  0  0  0
   -5.7096   -1.9700   -2.0789 H   0  0  0  0  0  0  0  0  0  0  0  0
   -5.9026   -2.8154    2.1090 H   0  0  0  0  0  0  0  0  0  0  0  0
   -4.4897   -0.7629   -1.5142 H   0  0  0  0  0  0  0  0  0  0  0  0
   -4.8797    0.8049   -0.5868 H   0  0  0  0  0  0  0  0  0  0  0  0
   -7.7059    0.6305    2.9509 H   0  0  0  0  0  0  0  0  0  0  0  0
  1  2  1  0  0  0  0
  1  3  1  0  0  0  0
  1  4  1  0  0  0  0
  1  5  1  1  0  0  0
  2  6  1  0  0  0  0
  2  7  1  0  0  0  0
  2 34  1  1  0  0  0
  3  8  1  0  0  0  0
  3 71  1  0  0  0  0
  3 72  1  0  0  0  0
  4  9  1  0  0  0  0
  4 73  1  0  0  0  0
  4 74  1  0  0  0  0
  5 10  2  0  0  0  0
  5 11  1  0  0  0  0
  6 12  1  0  0  0  0
  6 13  2  0  0  0  0
  7 14  1  0  0  0  0
  7 75  1  6  0  0  0
  7 15  1  0  0  0  0
  8 12  1  0  0  0  0
  8 76  1  0  0  0  0
  8 77  1  0  0  0  0
  9 14  1  0  0  0  0
  9 78  1  0  0  0  0
  9 79  1  0  0  0  0
 12 16  1  0  0  0  0
 12 17  1  6  0  0  0
 13 18  1  0  0  0  0
 13 80  1  0  0  0  0
 14 19  1  0  0  0  0
 14 81  1  1  0  0  0
 15 82  1  0  0  0  0
 15 83  1  0  0  0  0
 15 84  1  0  0  0  0
 16 20  1  0  0  0  0
 16 21  1  0  0  0  0
 16 22  1  6  0  0  0
 17 85  1  0  0  0  0
 17 86  1  0  0  0  0
 17 87  1  0  0  0  0
 18 20  1  0  0  0  0
 18 88  1  0  0  0  0
 18 89  1  0  0  0  0
 19 90  1  0  0  0  0
 19 91  1  0  0  0  0
 19 92  1  0  0  0  0
 20 23  1  0  0  0  0
 20 35  1  1  0  0  0
 21 24  1  0  0  0  0
 21 93  1  0  0  0  0
 21 94  1  0  0  0  0
 22 95  1  0  0  0  0
 22 96  1  0  0  0  0
 22 97  1  0  0  0  0
 23 25  1  0  0  0  0
 23 26  1  0  0  0  0
 23 27  1  6  0  0  0
 24 25  1  0  0  0  0
 24 98  1  0  0  0  0
 24 99  1  0  0  0  0
 25 28  1  0  0  0  0
 25 36  1  1  0  0  0
 26 29  1  0  0  0  0
 26100  1  0  0  0  0
 26101  1  0  0  0  0
 27102  1  0  0  0  0
 27103  1  0  0  0  0
 27104  1  0  0  0  0
 28 30  1  0  0  0  0
 28 32  1  6  0  0  0
 28 31  1  0  0  0  0
 29 30  1  0  0  0  0
 29 37  1  0  0  0  0
 29105  1  6  0  0  0
 30 33  1  0  0  0  0
 30106  1  1  0  0  0
 31 38  1  0  0  0  0
 31107  1  0  0  0  0
 31108  1  0  0  0  0
 32109  1  0  0  0  0
 32110  1  0  0  0  0
 32111  1  0  0  0  0
 33112  1  0  0  0  0
 37113  1  0  0  0  0
 38114  1  0  0  0  0
 39 11  1  0  0  0  0
 39 40  1  0  0  0  0
 39 44  1  0  0  0  0
 39115  1  6  0  0  0
 40 41  1  0  0  0  0
 41 42  1  0  0  0  0
 41 48  1  0  0  0  0
 41116  1  1  0  0  0
 42 43  1  0  0  0  0
 42117  1  1  0  0  0
 42 47  1  0  0  0  0
 43 44  1  0  0  0  0
 43 46  1  0  0  0  0
 43118  1  6  0  0  0
 44 45  1  0  0  0  0
 44119  1  6  0  0  0
 45120  1  0  0  0  0
 46121  1  0  0  0  0
 47122  1  0  0  0  0
 48 49  1  0  0  0  0
 48123  1  0  0  0  0
 48124  1  0  0  0  0
 50 51  1  0  0  0  0
 50 55  1  0  0  0  0
 50125  1  1  0  0  0
 50 49  1  0  0  0  0
 51 52  1  0  0  0  0
 51 56  1  0  0  0  0
 51126  1  1  0  0  0
 52 53  1  0  0  0  0
 52127  1  1  0  0  0
 52 70  1  0  0  0  0
 53 54  1  0  0  0  0
 53 57  1  0  0  0  0
 53128  1  1  0  0  0
 54 55  1  0  0  0  0
 54129  1  6  0  0  0
 54 58  1  0  0  0  0
 56130  1  0  0  0  0
 58 59  1  0  0  0  0
 58131  1  0  0  0  0
 58132  1  0  0  0  0
 59133  1  0  0  0  0
 60 61  1  0  0  0  0
 60 65  1  0  0  0  0
 60134  1  6  0  0  0
 60 57  1  0  0  0  0
 61 62  1  0  0  0  0
 61 69  1  0  0  0  0
 61135  1  1  0  0  0
 62 63  1  0  0  0  0
 62 68  1  0  0  0  0
 62136  1  1  0  0  0
 63 64  1  0  0  0  0
 63137  1  6  0  0  0
 63 67  1  0  0  0  0
 64 65  1  0  0  0  0
 64 66  1  0  0  0  0
 64138  1  1  0  0  0
 66139  1  0  0  0  0
 66140  1  0  0  0  0
 66141  1  0  0  0  0
 67142  1  0  0  0  0
 68143  1  0  0  0  0
 69144  1  0  0  0  0
 70145  1  0  0  0  0
M  END
>  <DRUGBANK_ID>
DB14081

>  <COMMON_NAME>
Asiaticoside

>  <CAS_NUMBER>
16830-15-2

>  <UNII>
PKO39VY215

>  <SYNONYMS>
Asiaticosid

$$$$
