
 OpenBabel10282417233D

 40 43  0  0  0  0  0  0  0  0999 V2000
   -0.0888    0.8264   -0.0565 C   0  0  0  0  0  0  0  0  0  0  0  0
    0.7060   -0.4388    0.0640 C   0  0  0  0  0  0  0  0  0  0  0  0
   -2.9990   -0.4718    1.0916 C   0  0  0  0  0  0  0  0  0  0  0  0
   -1.4487   -2.2421    1.5058 C   0  0  0  0  0  0  0  0  0  0  0  0
   -3.8982   -1.0216    2.0275 C   0  0  0  0  0  0  0  0  0  0  0  0
   -2.3023   -2.7632    2.4627 C   0  0  0  0  0  0  0  0  0  0  0  0
   -0.8403   -1.6735    7.8505 C   0  0  0  0  0  0  0  0  0  0  0  0
   -2.0756   -1.4471    8.4114 C   0  0  0  0  0  0  0  0  0  0  0  0
   -3.7847   -4.0438    4.5455 C   0  0  0  0  0  0  0  0  0  0  0  0
   -0.7880   -0.5039   -0.1898 C   0  0  0  0  0  0  0  0  0  0  0  0
   -1.7383   -1.0489    0.8432 C   0  0  0  0  0  0  0  0  0  0  0  0
   -3.5230   -2.1661    2.7411 C   0  0  0  0  0  0  0  0  0  0  0  0
   -0.6566   -2.9053    7.1755 C   0  0  0  0  0  0  0  0  0  0  0  0
   -2.8951   -2.5627    8.6122 C   0  0  0  0  0  0  0  0  0  0  0  0
   -4.3862   -2.8092    3.7732 C   0  0  0  0  0  0  0  0  0  0  0  0
   -1.7322   -3.8154    6.9492 C   0  0  0  0  0  0  0  0  0  0  0  0
   -2.5170   -3.8516    8.1269 C   0  0  0  0  0  0  0  0  0  0  0  0
   -3.8245   -4.8638    6.8585 C   0  0  0  0  0  0  0  0  0  0  0  0
   -3.1081   -3.7397    5.9429 C   0  0  3  0  0  0  0  0  0  0  0  0
    0.9097   -3.5909    7.7025 Cl  0  0  0  0  0  0  0  0  0  0  0  0
   -4.6036   -2.2131    8.7881 Cl  0  0  0  0  0  0  0  0  0  0  0  0
   -3.4575   -4.8920    8.0901 N   0  0  0  0  0  0  0  0  0  0  0  0
   -5.5045   -2.3800    3.9761 O   0  0  0  0  0  0  0  0  0  0  0  0
   -4.5953   -5.8369    6.3904 O   0  0  0  0  0  0  0  0  0  0  0  0
   -3.2737   -2.3323    5.9789 O   0  0  0  0  0  0  0  0  0  0  0  0
   -0.1696    1.4325    0.8382 H   0  0  0  0  0  0  0  0  0  0  0  0
    0.0066    1.4100   -0.9666 H   0  0  0  0  0  0  0  0  0  0  0  0
    1.3629   -0.7188   -0.7525 H   0  0  0  0  0  0  0  0  0  0  0  0
    1.1213   -0.6604    1.0424 H   0  0  0  0  0  0  0  0  0  0  0  0
   -3.2975    0.4023    0.5147 H   0  0  0  0  0  0  0  0  0  0  0  0
   -0.5534   -2.8106    1.2736 H   0  0  0  0  0  0  0  0  0  0  0  0
   -4.8691   -0.5480    2.1746 H   0  0  0  0  0  0  0  0  0  0  0  0
   -1.9664   -3.6580    2.9642 H   0  0  0  0  0  0  0  0  0  0  0  0
   -0.0272   -0.9822    8.0845 H   0  0  0  0  0  0  0  0  0  0  0  0
   -2.4067   -0.4346    8.6141 H   0  0  0  0  0  0  0  0  0  0  0  0
   -4.7339   -4.6014    4.6568 H   0  0  0  0  0  0  0  0  0  0  0  0
   -3.2253   -4.7246    3.9115 H   0  0  0  0  0  0  0  0  0  0  0  0
   -1.0796   -0.7635   -1.2041 H   0  0  0  0  0  0  0  0  0  0  0  0
   -4.7525   -6.4844    7.1016 H   0  0  0  0  0  0  0  0  0  0  0  0
   -4.0857   -2.1443    6.4802 H   0  0  0  0  0  0  0  0  0  0  0  0
  1 26  1  0  0  0  0
  1 27  1  0  0  0  0
  2  1  1  0  0  0  0
  2 28  1  0  0  0  0
  2 29  1  0  0  0  0
  3 30  1  0  0  0  0
  4 31  1  0  0  0  0
  5  3  1  0  0  0  0
  5 32  1  0  0  0  0
  6  4  2  0  0  0  0
  6 33  1  0  0  0  0
  7 34  1  0  0  0  0
  8  7  2  0  0  0  0
  8 35  1  0  0  0  0
  9 36  1  0  0  0  0
  9 37  1  0  0  0  0
 10  1  1  0  0  0  0
 10  2  1  0  0  0  0
 10 38  1  0  0  0  0
 11  3  2  0  0  0  0
 11  4  1  0  0  0  0
 11 10  1  0  0  0  0
 12  5  2  0  0  0  0
 12  6  1  0  0  0  0
 13  7  1  0  0  0  0
 14  8  1  0  0  0  0
 15  9  1  0  0  0  0
 15 12  1  0  0  0  0
 16 13  2  0  0  0  0
 17 14  2  0  0  0  0
 17 16  1  0  0  0  0
 19  9  1  0  0  0  0
 19 16  1  0  0  0  0
 19 18  1  0  0  0  0
 20 13  1  0  0  0  0
 21 14  1  0  0  0  0
 22 17  1  0  0  0  0
 22 18  2  0  0  0  0
 23 15  2  0  0  0  0
 24 18  1  0  0  0  0
 24 39  1  0  0  0  0
 25 19  1  0  0  0  0
 25 40  1  0  0  0  0
M  END
>  <DRUGBANK_ID>
DB17414

>  <COMMON_NAME>
TK216

>  <CAS_NUMBER>
1903783-48-1

$$$$
