
 OpenBabel10282417213D

111111  0  0  0  0  0  0  0  0999 V2000
    0.9474    0.7449    0.1295 O   0  0  0  0  0  0  0  0  0  0  0  0
    0.0657    1.8664   -1.7165 O   0  0  0  0  0  0  0  0  0  0  0  0
    2.8766    5.9827    0.1660 O   0  0  0  0  0  0  0  0  0  0  0  0
    1.6142   -0.6235    4.3918 O   0  0  0  0  0  0  0  0  0  0  0  0
    0.6612    6.0767    0.2926 O   0  0  0  0  0  0  0  0  0  0  0  0
    4.9787   -3.5037   -1.8509 O   0  0  0  0  0  0  0  0  0  0  0  0
    0.3762   -3.9571   -0.2402 O   0  0  0  0  0  0  0  0  0  0  0  0
    2.8637    1.0095   -1.1360 N   0  0  0  0  0  0  0  0  0  0  0  0
    0.7105    3.9233   -1.5076 N   0  0  0  0  0  0  0  0  0  0  0  0
    2.1471   -0.2323    2.2734 N   0  0  0  0  0  0  0  0  0  0  0  0
    0.4502   -3.1243    1.8236 N   0  0  0  0  0  0  0  0  0  0  0  0
    5.3283   -1.4944   -0.9438 N   0  0  0  0  0  0  0  0  0  0  0  0
    1.0276    8.4650   -2.6658 N   0  0  0  0  0  0  0  0  0  0  0  0
    3.0884    7.4339   -2.0895 N   0  0  0  0  0  0  0  0  0  0  0  0
    3.1428    9.3505   -2.9838 N   0  0  0  0  0  0  0  0  0  0  0  0
    2.5083    2.2829   -1.6159 C   0  0  1  0  0  0  0  0  0  0  0  0
    3.0664    2.2902   -3.0399 C   0  0  0  0  0  0  0  0  0  0  0  0
    4.3645    1.5320   -2.9574 C   0  0  0  0  0  0  0  0  0  0  0  0
    4.0946    0.6114   -1.8021 C   0  0  0  0  0  0  0  0  0  0  0  0
    2.1494    0.5569   -0.0518 C   0  0  0  0  0  0  0  0  0  0  0  0
    0.9957    2.6070   -1.5979 C   0  0  0  0  0  0  0  0  0  0  0  0
    2.7427   -0.4121    0.8649 C   0  0  2  0  0  0  0  0  0  0  0  0
    2.2482   -1.6016    0.0825 C   0  0  0  0  0  0  0  0  0  0  0  0
    1.6153    4.9777   -1.7659 C   0  0  1  0  0  0  0  0  0  0  0  0
    2.8992   -2.2022   -1.2401 C   0  0  0  0  0  0  0  0  0  0  0  0
    1.2497    5.4911   -3.2176 C   0  0  0  0  0  0  0  0  0  0  0  0
   -0.0467    6.2822   -3.2920 C   0  0  0  0  0  0  0  0  0  0  0  0
    1.5391   -1.0466    3.2243 C   0  0  0  0  0  0  0  0  0  0  0  0
    6.0126   -2.3660    4.6414 C   0  0  0  0  0  0  0  0  0  0  0  0
    6.0807   -3.4678    5.7039 C   0  0  0  0  0  0  0  0  0  0  0  0
    6.3612   -3.0555    3.3033 C   0  0  0  0  0  0  0  0  0  0  0  0
    1.6254    5.7528   -0.3389 C   0  0  0  0  0  0  0  0  0  0  0  0
    7.4597   -4.1238    5.5746 C   0  0  0  0  0  0  0  0  0  0  0  0
    5.4140   -4.2766    3.1799 C   0  0  0  0  0  0  0  0  0  0  0  0
    8.5170   -3.0405    5.7896 C   0  0  0  0  0  0  0  0  0  0  0  0
    4.0237   -3.7553    3.3859 C   0  0  0  0  0  0  0  0  0  0  0  0
    8.3175   -2.4447    7.1826 C   0  0  0  0  0  0  0  0  0  0  0  0
    3.9961   -2.7126    2.3516 C   0  0  0  0  0  0  0  0  0  0  0  0
    4.4849   -2.4619   -1.4322 C   0  0  0  0  0  0  0  0  0  0  0  0
    1.0746   -2.5785    3.0060 C   0  0  0  0  0  0  0  0  0  0  0  0
    8.4490   -3.5551    8.2293 C   0  0  0  0  0  0  0  0  0  0  0  0
    3.9515   -3.4728    1.0679 C   0  0  0  0  0  0  0  0  0  0  0  0
   -0.0395    7.4957   -2.3657 C   0  0  0  0  0  0  0  0  0  0  0  0
    2.6383   -4.3931    0.8127 C   0  0  0  0  0  0  0  0  0  0  0  0
    9.8418   -4.1893    8.1562 C   0  0  0  0  0  0  0  0  0  0  0  0
    1.0442   -3.8648    0.8000 C   0  0  0  0  0  0  0  0  0  0  0  0
   10.9314   -3.1427    8.3892 C   0  0  0  0  0  0  0  0  0  0  0  0
   10.7654   -2.5099    9.7609 C   0  0  0  0  0  0  0  0  0  0  0  0
    2.2930    8.4123   -2.5581 C   0  0  0  0  0  0  0  0  0  0  0  0
   -0.2835    4.0993   -1.4280 H   0  0  0  0  0  0  0  0  0  0  0  0
    2.4857    0.6110    2.7355 H   0  0  0  0  0  0  0  0  0  0  0  0
   -0.4044   -2.6487    1.5469 H   0  0  0  0  0  0  0  0  0  0  0  0
    4.9747   -0.8756   -0.2411 H   0  0  0  0  0  0  0  0  0  0  0  0
    6.3363   -1.5778   -0.9511 H   0  0  0  0  0  0  0  0  0  0  0  0
    3.7815    7.0925   -2.7461 H   0  0  0  0  0  0  0  0  0  0  0  0
    2.4116    6.7473   -1.9503 H   0  0  0  0  0  0  0  0  0  0  0  0
    2.7869   10.2932   -2.9920 H   0  0  0  0  0  0  0  0  0  0  0  0
    4.1154    9.2138   -2.7477 H   0  0  0  0  0  0  0  0  0  0  0  0
    3.6659    5.8567   -0.3847 H   0  0  0  0  0  0  0  0  0  0  0  0
    3.0880    2.9439   -0.9504 H   0  0  0  0  0  0  0  0  0  0  0  0
    2.3743    1.7477   -3.6928 H   0  0  0  0  0  0  0  0  0  0  0  0
    3.2433    3.2816   -3.4460 H   0  0  0  0  0  0  0  0  0  0  0  0
    4.6093    0.9705   -3.8698 H   0  0  0  0  0  0  0  0  0  0  0  0
    5.2296    2.1596   -2.7230 H   0  0  0  0  0  0  0  0  0  0  0  0
    3.9423   -0.3485   -2.2716 H   0  0  0  0  0  0  0  0  0  0  0  0
    4.9433    0.7133   -1.1273 H   0  0  0  0  0  0  0  0  0  0  0  0
    3.8133   -0.2632    0.9955 H   0  0  0  0  0  0  0  0  0  0  0  0
    2.2988   -2.2802    0.8720 H   0  0  0  0  0  0  0  0  0  0  0  0
    1.1578   -1.5635   -0.0265 H   0  0  0  0  0  0  0  0  0  0  0  0
    2.6463    4.6258   -1.8760 H   0  0  0  0  0  0  0  0  0  0  0  0
    2.4768   -3.2042   -1.3928 H   0  0  0  0  0  0  0  0  0  0  0  0
    2.4753   -1.6585   -2.0778 H   0  0  0  0  0  0  0  0  0  0  0  0
    2.0325    6.0817   -3.7093 H   0  0  0  0  0  0  0  0  0  0  0  0
    1.1880    4.6354   -3.9128 H   0  0  0  0  0  0  0  0  0  0  0  0
   -0.2337    6.6129   -4.3219 H   0  0  0  0  0  0  0  0  0  0  0  0
   -0.8756    5.6046   -3.0430 H   0  0  0  0  0  0  0  0  0  0  0  0
    6.6752   -1.5183    4.8194 H   0  0  0  0  0  0  0  0  0  0  0  0
    5.0273   -1.8811    4.6749 H   0  0  0  0  0  0  0  0  0  0  0  0
    5.8565   -3.0668    6.6911 H   0  0  0  0  0  0  0  0  0  0  0  0
    5.3003   -4.2284    5.5963 H   0  0  0  0  0  0  0  0  0  0  0  0
    7.3880   -3.3856    3.1795 H   0  0  0  0  0  0  0  0  0  0  0  0
    6.3331   -2.3197    2.4900 H   0  0  0  0  0  0  0  0  0  0  0  0
    7.5376   -4.9708    6.2535 H   0  0  0  0  0  0  0  0  0  0  0  0
    7.6293   -4.6086    4.6079 H   0  0  0  0  0  0  0  0  0  0  0  0
    5.5474   -5.1016    3.8699 H   0  0  0  0  0  0  0  0  0  0  0  0
    5.5476   -4.7705    2.2188 H   0  0  0  0  0  0  0  0  0  0  0  0
    9.5121   -3.4591    5.6354 H   0  0  0  0  0  0  0  0  0  0  0  0
    8.4744   -2.2433    5.0391 H   0  0  0  0  0  0  0  0  0  0  0  0
    3.7295   -3.3135    4.3435 H   0  0  0  0  0  0  0  0  0  0  0  0
    3.2872   -4.5389    3.2227 H   0  0  0  0  0  0  0  0  0  0  0  0
    9.0230   -1.6274    7.3388 H   0  0  0  0  0  0  0  0  0  0  0  0
    7.3454   -1.9516    7.2897 H   0  0  0  0  0  0  0  0  0  0  0  0
    4.6770   -1.8464    2.3761 H   0  0  0  0  0  0  0  0  0  0  0  0
    3.1790   -2.0903    2.5048 H   0  0  0  0  0  0  0  0  0  0  0  0
    1.9336   -3.1925    3.0026 H   0  0  0  0  0  0  0  0  0  0  0  0
    0.6356   -2.9749    3.9303 H   0  0  0  0  0  0  0  0  0  0  0  0
    8.2317   -3.1546    9.2207 H   0  0  0  0  0  0  0  0  0  0  0  0
    7.6867   -4.3316    8.1029 H   0  0  0  0  0  0  0  0  0  0  0  0
    4.8902   -3.9418    0.7459 H   0  0  0  0  0  0  0  0  0  0  0  0
    4.0786   -2.5860    0.5139 H   0  0  0  0  0  0  0  0  0  0  0  0
   -1.0112    7.9962   -2.4719 H   0  0  0  0  0  0  0  0  0  0  0  0
   -0.0808    7.1742   -1.3353 H   0  0  0  0  0  0  0  0  0  0  0  0
    2.6775   -5.2589    1.4678 H   0  0  0  0  0  0  0  0  0  0  0  0
    2.7979   -4.8307   -0.1894 H   0  0  0  0  0  0  0  0  0  0  0  0
    9.9167   -4.9953    8.8908 H   0  0  0  0  0  0  0  0  0  0  0  0
   10.0051   -4.6749    7.1856 H   0  0  0  0  0  0  0  0  0  0  0  0
   11.9153   -3.6095    8.2986 H   0  0  0  0  0  0  0  0  0  0  0  0
   10.9074   -2.3631    7.6181 H   0  0  0  0  0  0  0  0  0  0  0  0
   10.8233   -3.2829   10.5326 H   0  0  0  0  0  0  0  0  0  0  0  0
   11.5361   -1.7600    9.9374 H   0  0  0  0  0  0  0  0  0  0  0  0
    9.8016   -2.0010    9.8676 H   0  0  0  0  0  0  0  0  0  0  0  0
  1 20  2  0  0  0  0
  2 21  2  0  0  0  0
  3 32  1  0  0  0  0
  3 59  1  0  0  0  0
  4 28  2  0  0  0  0
  5 32  2  0  0  0  0
  6 39  2  0  0  0  0
  7 46  2  0  0  0  0
  8 16  1  0  0  0  0
  8 19  1  0  0  0  0
  8 20  1  0  0  0  0
  9 21  1  0  0  0  0
  9 50  1  0  0  0  0
 10 28  1  0  0  0  0
 10 51  1  0  0  0  0
 11 40  1  0  0  0  0
 11 46  1  0  0  0  0
 11 52  1  0  0  0  0
 12 39  1  0  0  0  0
 12 53  1  0  0  0  0
 12 54  1  0  0  0  0
 13 43  1  0  0  0  0
 13 49  2  0  0  0  0
 14 49  1  0  0  0  0
 14 55  1  0  0  0  0
 14 56  1  0  0  0  0
 15 49  1  0  0  0  0
 15 57  1  0  0  0  0
 15 58  1  0  0  0  0
 16 17  1  0  0  0  0
 16 60  1  1  0  0  0
 16 21  1  0  0  0  0
 17 18  1  0  0  0  0
 17 61  1  0  0  0  0
 17 62  1  0  0  0  0
 18 19  1  0  0  0  0
 18 63  1  0  0  0  0
 18 64  1  0  0  0  0
 19 65  1  0  0  0  0
 19 66  1  0  0  0  0
 20 22  1  0  0  0  0
 22 10  1  0  0  0  0
 22 23  1  0  0  0  0
 22 67  1  1  0  0  0
 23 25  1  0  0  0  0
 23 68  1  0  0  0  0
 23 69  1  0  0  0  0
 24  9  1  0  0  0  0
 24 26  1  0  0  0  0
 24 32  1  0  0  0  0
 24 70  1  6  0  0  0
 25 39  1  0  0  0  0
 25 71  1  0  0  0  0
 25 72  1  0  0  0  0
 26 27  1  0  0  0  0
 26 73  1  0  0  0  0
 26 74  1  0  0  0  0
 27 43  1  0  0  0  0
 27 75  1  0  0  0  0
 27 76  1  0  0  0  0
 28 40  1  0  0  0  0
 29 30  1  0  0  0  0
 29 31  1  0  0  0  0
 29 77  1  0  0  0  0
 29 78  1  0  0  0  0
 30 33  1  0  0  0  0
 30 79  1  0  0  0  0
 30 80  1  0  0  0  0
 31 34  1  0  0  0  0
 31 81  1  0  0  0  0
 31 82  1  0  0  0  0
 33 35  1  0  0  0  0
 33 83  1  0  0  0  0
 33 84  1  0  0  0  0
 34 36  1  0  0  0  0
 34 85  1  0  0  0  0
 34 86  1  0  0  0  0
 35 37  1  0  0  0  0
 35 87  1  0  0  0  0
 35 88  1  0  0  0  0
 36 38  1  0  0  0  0
 36 89  1  0  0  0  0
 36 90  1  0  0  0  0
 37 41  1  0  0  0  0
 37 91  1  0  0  0  0
 37 92  1  0  0  0  0
 38 42  1  0  0  0  0
 38 93  1  0  0  0  0
 38 94  1  0  0  0  0
 40 95  1  0  0  0  0
 40 96  1  0  0  0  0
 41 45  1  0  0  0  0
 41 97  1  0  0  0  0
 41 98  1  0  0  0  0
 42 44  1  0  0  0  0
 42 99  1  0  0  0  0
 42100  1  0  0  0  0
 43101  1  0  0  0  0
 43102  1  0  0  0  0
 44 46  1  0  0  0  0
 44103  1  0  0  0  0
 44104  1  0  0  0  0
 45 47  1  0  0  0  0
 45105  1  0  0  0  0
 45106  1  0  0  0  0
 47 48  1  0  0  0  0
 47107  1  0  0  0  0
 47108  1  0  0  0  0
 48109  1  0  0  0  0
 48110  1  0  0  0  0
 48111  1  0  0  0  0
M  END
>  <DRUGBANK_ID>
DB14137

>  <COMMON_NAME>
Palmitoyl tetrapeptide-7

>  <CAS_NUMBER>
221227-05-0

>  <UNII>
Q41S464P1R

>  <SYNONYMS>
N-Palmitoylrigin; Palmitoyl-GQPR

$$$$
