
 OpenBabel10282417133D

 25 25  0  0  0  0  0  0  0  0999 V2000
    2.7190    0.9042    0.0375 C   0  0  0  0  0  0  0  0  0  0  0  0
    1.2437    0.6416    0.0272 C   0  0  0  0  0  0  0  0  0  0  0  0
    0.2767    1.5765    0.0574 C   0  0  0  0  0  0  0  0  0  0  0  0
    0.5570    3.0652    0.0311 C   0  0  0  0  0  0  0  0  0  0  0  0
    0.0376    3.7621   -1.2311 C   0  0  0  0  0  0  0  0  0  0  0  0
   -1.4779    3.7492   -1.3621 C   0  0  0  0  0  0  0  0  0  0  0  0
   -2.1108    4.2573   -0.1949 O   0  0  0  0  0  0  0  0  0  0  0  0
   -1.0421    1.1809    0.1259 N   0  0  0  0  0  0  0  0  0  0  0  0
   -1.4801   -0.1077    0.0515 C   0  0  0  0  0  0  0  0  0  0  0  0
   -2.6734   -0.3799    0.0491 O   0  0  0  0  0  0  0  0  0  0  0  0
   -0.5075   -1.0523   -0.0196 N   0  0  0  0  0  0  0  0  0  0  0  0
    0.8314   -0.7942    0.0010 C   0  0  0  0  0  0  0  0  0  0  0  0
    1.6610   -1.7014   -0.0086 O   0  0  0  0  0  0  0  0  0  0  0  0
    3.1640    0.4820    0.9430 H   0  0  0  0  0  0  0  0  0  0  0  0
    3.1975    0.4757   -0.8463 H   0  0  0  0  0  0  0  0  0  0  0  0
    2.9846    1.9622    0.0417 H   0  0  0  0  0  0  0  0  0  0  0  0
    0.1716    3.5262    0.9459 H   0  0  0  0  0  0  0  0  0  0  0  0
    1.6250    3.2881    0.0679 H   0  0  0  0  0  0  0  0  0  0  0  0
    0.3813    4.8035   -1.2033 H   0  0  0  0  0  0  0  0  0  0  0  0
    0.4882    3.3052   -2.1226 H   0  0  0  0  0  0  0  0  0  0  0  0
   -1.7960    4.3573   -2.2105 H   0  0  0  0  0  0  0  0  0  0  0  0
   -1.8528    2.7441   -1.5699 H   0  0  0  0  0  0  0  0  0  0  0  0
   -1.7252    3.8704    0.6074 H   0  0  0  0  0  0  0  0  0  0  0  0
   -1.8050    1.8445    0.1882 H   0  0  0  0  0  0  0  0  0  0  0  0
   -0.8061   -2.0142   -0.0419 H   0  0  0  0  0  0  0  0  0  0  0  0
  1  2  1  0  0  0  0
  1 14  1  0  0  0  0
  1 15  1  0  0  0  0
  1 16  1  0  0  0  0
  2  3  2  0  0  0  0
  2 12  1  0  0  0  0
  3  4  1  0  0  0  0
  3  8  1  0  0  0  0
  4  5  1  0  0  0  0
  4 17  1  0  0  0  0
  4 18  1  0  0  0  0
  5  6  1  0  0  0  0
  5 19  1  0  0  0  0
  5 20  1  0  0  0  0
  6  7  1  0  0  0  0
  6 21  1  0  0  0  0
  6 22  1  0  0  0  0
  7 23  1  0  0  0  0
  8  9  1  0  0  0  0
  8 24  1  0  0  0  0
  9 10  2  0  0  0  0
  9 11  1  0  0  0  0
 11 12  1  0  0  0  0
 11 25  1  0  0  0  0
 12 13  2  0  0  0  0
M  END
>  <DRUGBANK_ID>
DB04139

>  <SECONDARY_ACCESSION_NUMBERS>
EXPT01776

>  <COMMON_NAME>
6-Hydroxypropylthymine

>  <UNII>
E5AK9SKZ52

>  <SYNONYMS>
6â€“(3-hydroxypropyl)thymine

$$$$
