
 OpenBabel10282417133D

 27 28  0  0  0  0  0  0  0  0999 V2000
   -2.0716   -0.9586   -0.0547 S   0  0  0  0  0  0  0  0  0  0  0  0
   -0.3798   -0.7369    0.5911 C   0  0  1  0  0  0  0  0  0  0  0  0
    0.5599   -1.4980   -0.1546 O   0  0  0  0  0  0  0  0  0  0  0  0
    1.9359   -1.0671   -0.1002 C   0  0  1  0  0  0  0  0  0  0  0  0
    2.0039    0.3688   -0.6237 C   0  0  2  0  0  0  0  0  0  0  0  0
    1.1701    1.3244    0.2460 C   0  0  1  0  0  0  0  0  0  0  0  0
   -0.2187    0.7909    0.6026 C   0  0  1  0  0  0  0  0  0  0  0  0
   -1.2028    1.4872   -0.2507 N   0  0  0  0  0  0  0  0  0  0  0  0
   -2.2066    0.7106   -0.5042 C   0  0  0  0  0  0  0  0  0  0  0  0
   -3.4298    1.2496   -1.1681 C   0  0  0  0  0  0  0  0  0  0  0  0
   -0.4618    1.1099    1.6264 H   0  0  0  0  0  0  0  0  0  0  0  0
    1.8303    1.6765    1.4649 O   0  0  0  0  0  0  0  0  0  0  0  0
    1.5378    0.3874   -1.9869 O   0  0  0  0  0  0  0  0  0  0  0  0
    2.6506   -1.3671    1.2503 C   0  0  0  0  0  0  0  0  0  0  0  0
    2.8928   -0.2666    2.1158 O   0  0  0  0  0  0  0  0  0  0  0  0
   -0.3544   -1.1224    1.6150 H   0  0  0  0  0  0  0  0  0  0  0  0
    2.4305   -1.7246   -0.8282 H   0  0  0  0  0  0  0  0  0  0  0  0
    3.0488    0.6918   -0.6619 H   0  0  0  0  0  0  0  0  0  0  0  0
    1.0794    2.2732   -0.2931 H   0  0  0  0  0  0  0  0  0  0  0  0
   -3.8741    2.0218   -0.5272 H   0  0  0  0  0  0  0  0  0  0  0  0
   -3.1488    1.7307   -2.1106 H   0  0  0  0  0  0  0  0  0  0  0  0
   -4.1786    0.4798   -1.3609 H   0  0  0  0  0  0  0  0  0  0  0  0
    1.6699    0.9508    2.1133 H   0  0  0  0  0  0  0  0  0  0  0  0
    0.5755    0.5472   -1.9929 H   0  0  0  0  0  0  0  0  0  0  0  0
    2.0741   -2.0833    1.8397 H   0  0  0  0  0  0  0  0  0  0  0  0
    3.6357   -1.8040    1.0550 H   0  0  0  0  0  0  0  0  0  0  0  0
    3.3356    0.4554    1.6140 H   0  0  0  0  0  0  0  0  0  0  0  0
  1  9  1  0  0  0  0
  2  1  1  0  0  0  0
  2  7  1  0  0  0  0
  2 16  1  1  0  0  0
  3  2  1  0  0  0  0
  4  3  1  0  0  0  0
  4 17  1  6  0  0  0
  4 14  1  0  0  0  0
  5  4  1  0  0  0  0
  5 18  1  1  0  0  0
  5 13  1  0  0  0  0
  6  5  1  0  0  0  0
  6 12  1  0  0  0  0
  6 19  1  6  0  0  0
  7  6  1  0  0  0  0
  7  8  1  0  0  0  0
  7 11  1  1  0  0  0
  8  9  2  0  0  0  0
  9 10  1  0  0  0  0
 10 20  1  0  0  0  0
 10 21  1  0  0  0  0
 10 22  1  0  0  0  0
 12 23  1  0  0  0  0
 13 24  1  0  0  0  0
 14 25  1  0  0  0  0
 14 26  1  0  0  0  0
 15 14  1  0  0  0  0
 15 27  1  0  0  0  0
M  END
>  <DRUGBANK_ID>
DB03747

>  <SECONDARY_ACCESSION_NUMBERS>
EXPT02338

>  <COMMON_NAME>
N-Acetyl-glucosamine thiazoline

>  <CAS_NUMBER>
179030-22-9

>  <UNII>
ML5FHL557A

>  <SYNONYMS>
NAG-thiazoline

$$$$
