NVC
 OpenBabel10282417173D

 51 53  0  0  0  0  0  0  0  0999 V2000
    4.9581   -2.0603    1.3383 O   0  0  0  0  0  0  0  0  0  0  0  0
    4.1109   -1.7690    0.4777 C   0  0  0  0  0  0  0  0  0  0  0  0
    3.0703   -0.6498    0.9969 C   0  0  2  0  0  0  0  0  0  0  0  0
    2.0924    0.0144    0.0490 C   0  0  0  0  0  0  0  0  0  0  0  0
    1.6585   -0.8657   -1.0337 C   0  0  0  0  0  0  0  0  0  0  0  0
    1.1317   -2.2311   -0.6151 C   0  0  0  0  0  0  0  0  0  0  0  0
   -0.2970   -1.9762   -0.2551 C   0  0  0  0  0  0  0  0  0  0  0  0
    3.8502    0.5060    1.6966 C   0  0  0  0  0  0  0  0  0  0  0  0
    2.9888    1.6534    2.1237 N   0  0  0  0  0  0  0  0  0  0  0  0
    2.8981    1.8966    3.5119 O   0  0  0  0  0  0  0  0  0  0  0  0
    2.3111    2.5875    1.3708 C   0  0  0  0  0  0  0  0  0  0  0  0
    2.2979    2.7320    0.1351 O   0  0  0  0  0  0  0  0  0  0  0  0
    4.0514   -2.5159   -0.7369 N   0  0  0  0  0  0  0  0  0  0  0  0
    4.3740   -3.9491   -0.8148 C   0  0  1  0  0  0  0  0  0  0  0  0
    4.9725   -4.0837   -2.2477 C   0  0  0  0  0  0  0  0  0  0  0  0
    4.1434   -3.2088   -3.1192 C   0  0  0  0  0  0  0  0  0  0  0  0
    3.8244   -2.1000   -2.1678 C   0  0  0  0  0  0  0  0  0  0  0  0
    5.3549   -4.5032    0.1388 C   0  0  0  0  0  0  0  0  0  0  0  0
    5.0213   -4.6109    1.4673 O   0  0  0  0  0  0  0  0  0  0  0  0
    6.1740   -5.0790    2.0347 C   0  0  0  0  0  0  0  0  0  0  0  0
    7.0627   -5.3435    1.0070 C   0  0  0  0  0  0  0  0  0  0  0  0
    6.5322   -4.9960   -0.1860 N   0  0  0  0  0  0  0  0  0  0  0  0
    6.4558   -5.2864    3.3770 C   0  0  0  0  0  0  0  0  0  0  0  0
    7.7169   -5.8449    3.6392 C   0  0  0  0  0  0  0  0  0  0  0  0
    8.6202   -6.1554    2.6107 C   0  0  0  0  0  0  0  0  0  0  0  0
    8.3068   -5.9011    1.2766 C   0  0  0  0  0  0  0  0  0  0  0  0
    2.4638   -1.1416    1.7801 H   0  0  0  0  0  0  0  0  0  0  0  0
    3.4222   -4.4955   -0.7484 H   0  0  0  0  0  0  0  0  0  0  0  0
    1.2178    0.4562    0.5269 H   0  0  0  0  0  0  0  0  0  0  0  0
    2.6819    0.7797   -0.4678 H   0  0  0  0  0  0  0  0  0  0  0  0
    1.1508   -0.4258   -1.8921 H   0  0  0  0  0  0  0  0  0  0  0  0
    2.6426   -0.8203   -1.4005 H   0  0  0  0  0  0  0  0  0  0  0  0
    1.1974   -2.9732   -1.4207 H   0  0  0  0  0  0  0  0  0  0  0  0
    1.6500   -2.6847    0.2400 H   0  0  0  0  0  0  0  0  0  0  0  0
   -0.7935   -1.5477   -1.1301 H   0  0  0  0  0  0  0  0  0  0  0  0
   -0.7893   -2.8957    0.0481 H   0  0  0  0  0  0  0  0  0  0  0  0
   -0.3340   -1.2524    0.5637 H   0  0  0  0  0  0  0  0  0  0  0  0
    4.3888    0.1246    2.5729 H   0  0  0  0  0  0  0  0  0  0  0  0
    4.5941    0.8984    0.9958 H   0  0  0  0  0  0  0  0  0  0  0  0
    3.6435    1.4076    3.9006 H   0  0  0  0  0  0  0  0  0  0  0  0
    1.6747    3.2367    1.9772 H   0  0  0  0  0  0  0  0  0  0  0  0
    5.9843   -3.6596   -2.2704 H   0  0  0  0  0  0  0  0  0  0  0  0
    4.9996   -5.1073   -2.6208 H   0  0  0  0  0  0  0  0  0  0  0  0
    4.6137   -2.7970   -4.0153 H   0  0  0  0  0  0  0  0  0  0  0  0
    3.2229   -3.7222   -3.4425 H   0  0  0  0  0  0  0  0  0  0  0  0
    4.2907   -1.1357   -2.3863 H   0  0  0  0  0  0  0  0  0  0  0  0
    2.7677   -2.0871   -2.4399 H   0  0  0  0  0  0  0  0  0  0  0  0
    5.7535   -5.0345    4.1611 H   0  0  0  0  0  0  0  0  0  0  0  0
    8.0029   -6.0518    4.6678 H   0  0  0  0  0  0  0  0  0  0  0  0
    9.5841   -6.5987    2.8422 H   0  0  0  0  0  0  0  0  0  0  0  0
    8.9804   -6.1228    0.4588 H   0  0  0  0  0  0  0  0  0  0  0  0
  1  2  2  0  0  0  0
  2 13  1  0  0  0  0
  3  8  1  0  0  0  0
  3 27  1  1  0  0  0
  3  4  1  0  0  0  0
  3  2  1  0  0  0  0
  4  5  1  0  0  0  0
  4 29  1  0  0  0  0
  4 30  1  0  0  0  0
  5  6  1  0  0  0  0
  5 31  1  0  0  0  0
  5 32  1  0  0  0  0
  6  7  1  0  0  0  0
  6 33  1  0  0  0  0
  6 34  1  0  0  0  0
  7 35  1  0  0  0  0
  7 36  1  0  0  0  0
  7 37  1  0  0  0  0
  8  9  1  0  0  0  0
  8 38  1  0  0  0  0
  8 39  1  0  0  0  0
  9 10  1  0  0  0  0
  9 11  1  0  0  0  0
 10 40  1  0  0  0  0
 11 12  2  0  0  0  0
 11 41  1  0  0  0  0
 13 14  1  0  0  0  0
 13 17  1  0  0  0  0
 14 15  1  0  0  0  0
 14 28  1  1  0  0  0
 14 18  1  0  0  0  0
 15 16  1  0  0  0  0
 15 42  1  0  0  0  0
 15 43  1  0  0  0  0
 16 17  1  0  0  0  0
 16 44  1  0  0  0  0
 16 45  1  0  0  0  0
 17 46  1  0  0  0  0
 17 47  1  0  0  0  0
 18 19  1  0  0  0  0
 18 22  2  0  0  0  0
 19 20  1  0  0  0  0
 20 21  2  0  0  0  0
 20 23  1  0  0  0  0
 21 22  1  0  0  0  0
 21 26  1  0  0  0  0
 23 24  2  0  0  0  0
 23 48  1  0  0  0  0
 24 25  1  0  0  0  0
 24 49  1  0  0  0  0
 25 26  2  0  0  0  0
 25 50  1  0  0  0  0
 26 51  1  0  0  0  0
M  END
>  <DRUGBANK_ID>
DB08310

>  <COMMON_NAME>
N-[(2R)-2-{[(2S)-2-(1,3-benzoxazol-2-yl)pyrrolidin-1-yl]carbonyl}hexyl]-N-hydroxyformamide

$$$$
