
 OpenBabel10282417213D

 25 26  0  0  0  0  0  0  0  0999 V2000
    1.4180   -0.2735    0.0047 C   0  0  0  0  0  0  0  0  0  0  0  0
    0.5135   -1.3360    0.0091 C   0  0  0  0  0  0  0  0  0  0  0  0
   -0.8671   -1.1016   -0.0262 C   0  0  0  0  0  0  0  0  0  0  0  0
   -1.3582    0.2079   -0.0635 C   0  0  0  0  0  0  0  0  0  0  0  0
   -0.4219    1.2589   -0.0492 C   0  0  0  0  0  0  0  0  0  0  0  0
    0.9483    1.0280   -0.0355 C   0  0  0  0  0  0  0  0  0  0  0  0
   -2.8524    0.4908   -0.1576 C   0  0  0  0  0  0  0  0  0  0  0  0
   -3.3729    1.2832    1.0221 C   0  0  0  0  0  0  0  0  0  0  0  0
   -2.9973    2.5521    1.2392 C   0  0  0  0  0  0  0  0  0  0  0  0
   -3.2881    3.1941    2.5215 C   0  0  0  0  0  0  0  0  0  0  0  0
   -2.7537    4.2602    2.8214 O   0  0  0  0  0  0  0  0  0  0  0  0
   -4.1437    2.5194    3.3369 N   0  0  0  0  0  0  0  0  0  0  0  0
   -4.6516    1.2792    3.0708 C   0  0  0  0  0  0  0  0  0  0  0  0
   -5.7121    0.5334    4.1092 S   0  0  0  0  0  0  0  0  0  0  0  0
   -4.2296    0.6777    1.9149 N   0  0  0  0  0  0  0  0  0  0  0  0
    2.4879   -0.4545    0.0364 H   0  0  0  0  0  0  0  0  0  0  0  0
    0.8906   -2.3546    0.0309 H   0  0  0  0  0  0  0  0  0  0  0  0
   -1.5456   -1.9516   -0.0261 H   0  0  0  0  0  0  0  0  0  0  0  0
   -0.7212    2.2978   -0.0438 H   0  0  0  0  0  0  0  0  0  0  0  0
    1.6306    1.8736   -0.0625 H   0  0  0  0  0  0  0  0  0  0  0  0
   -3.0414    1.0371   -1.0910 H   0  0  0  0  0  0  0  0  0  0  0  0
   -3.4054   -0.4538   -0.2580 H   0  0  0  0  0  0  0  0  0  0  0  0
   -2.3838    3.1278    0.5660 H   0  0  0  0  0  0  0  0  0  0  0  0
   -4.3649    2.9610    4.2162 H   0  0  0  0  0  0  0  0  0  0  0  0
   -4.5897   -0.2536    1.7248 H   0  0  0  0  0  0  0  0  0  0  0  0
  1  2  2  0  0  0  0
  1  6  1  0  0  0  0
  1 16  1  0  0  0  0
  2  3  1  0  0  0  0
  2 17  1  0  0  0  0
  3  4  2  0  0  0  0
  3 18  1  0  0  0  0
  4  5  1  0  0  0  0
  4  7  1  0  0  0  0
  5  6  2  0  0  0  0
  5 19  1  0  0  0  0
  6 20  1  0  0  0  0
  7  8  1  0  0  0  0
  7 21  1  0  0  0  0
  7 22  1  0  0  0  0
  8  9  2  0  0  0  0
  8 15  1  0  0  0  0
  9 10  1  0  0  0  0
  9 23  1  0  0  0  0
 10 11  2  0  0  0  0
 10 12  1  0  0  0  0
 12 13  1  0  0  0  0
 12 24  1  0  0  0  0
 13 14  2  0  0  0  0
 13 15  1  0  0  0  0
 15 25  1  0  0  0  0
M  END
>  <DRUGBANK_ID>
DB13804

>  <COMMON_NAME>
Benzylthiouracil

>  <CAS_NUMBER>
6336-50-1

>  <UNII>
PZ35LUM333

$$$$
