
 OpenBabel10282417193D

 58 61  0  0  0  0  0  0  0  0999 V2000
    2.4517   -0.0377   -0.4006 Cl  0  0  0  0  0  0  0  0  0  0  0  0
    0.6635   -2.3989   -0.0795 F   0  0  0  0  0  0  0  0  0  0  0  0
   -0.3376    1.0178   -5.3405 O   0  0  0  0  0  0  0  0  0  0  0  0
    1.4016    5.8597   -4.2442 O   0  0  0  0  0  0  0  0  0  0  0  0
   -2.6531    1.4967    0.7543 N   0  0  0  0  0  0  0  0  0  0  0  0
   -0.0845    2.9803   -4.3424 N   0  0  0  0  0  0  0  0  0  0  0  0
   -2.2677    2.8206   -0.7933 N   0  0  0  0  0  0  0  0  0  0  0  0
   -0.9610    6.6204    0.0324 N   0  0  0  0  0  0  0  0  0  0  0  0
   -2.6951    5.0457    0.4903 N   0  0  0  0  0  0  0  0  0  0  0  0
    0.5865    1.4779    2.2432 C   0  0  0  0  0  0  0  0  0  0  0  0
   -0.3681    0.3046    2.2648 C   0  0  0  0  0  0  0  0  0  0  0  0
   -0.2160    2.7037    2.1262 C   0  0  0  0  0  0  0  0  0  0  0  0
   -1.2095    2.6493    1.0429 C   0  0  0  0  0  0  0  0  0  0  0  0
   -1.6270    0.3246    1.3627 C   0  0  0  0  0  0  0  0  0  0  0  0
   -3.5654    1.3637   -0.9406 C   0  0  0  0  0  0  0  0  0  0  0  0
   -2.8559    1.7477   -2.7094 C   0  0  0  0  0  0  0  0  0  0  0  0
   -1.9419    1.1503   -3.5540 C   0  0  0  0  0  0  0  0  0  0  0  0
   -0.7735    1.7620   -4.4430 C   0  0  0  0  0  0  0  0  0  0  0  0
   -0.1119    4.1203   -3.4602 C   0  0  0  0  0  0  0  0  0  0  0  0
   -1.3139    4.8300   -1.4479 C   0  0  0  0  0  0  0  0  0  0  0  0
   -0.8469    3.9519   -2.4125 C   0  0  0  0  0  0  0  0  0  0  0  0
    0.5033    5.3576   -3.3510 C   0  0  0  0  0  0  0  0  0  0  0  0
   -0.6893    5.9919   -1.1674 C   0  0  0  0  0  0  0  0  0  0  0  0
   -2.2152    4.3564   -0.6239 C   0  0  0  0  0  0  0  0  0  0  0  0
    0.2417    6.2372   -2.1812 C   0  0  0  0  0  0  0  0  0  0  0  0
   -1.2872    1.2711   -1.0486 C   0  0  0  0  0  0  0  0  0  0  0  0
   -1.9439    6.1251    0.8170 C   0  0  0  0  0  0  0  0  0  0  0  0
    0.1425    1.2204   -1.0323 C   0  0  0  0  0  0  0  0  0  0  0  0
   -2.0431   -0.2925   -0.9406 C   0  0  0  0  0  0  0  0  0  0  0  0
    1.6151    5.0004   -5.3536 C   0  0  0  0  0  0  0  0  0  0  0  0
    0.7450   -0.0904   -0.8628 C   0  0  0  0  0  0  0  0  0  0  0  0
   -1.3873   -1.5189   -0.7468 C   0  0  0  0  0  0  0  0  0  0  0  0
    0.0129   -1.3846   -0.6842 C   0  0  0  0  0  0  0  0  0  0  0  0
    0.5537    3.0036   -5.1197 H   0  0  0  0  0  0  0  0  0  0  0  0
   -2.8844    2.6783    0.0721 H   0  0  0  0  0  0  0  0  0  0  0  0
    1.1528    1.5002    3.1697 H   0  0  0  0  0  0  0  0  0  0  0  0
    1.3523    1.4814    1.4534 H   0  0  0  0  0  0  0  0  0  0  0  0
    0.2662   -0.5793    2.0212 H   0  0  0  0  0  0  0  0  0  0  0  0
   -0.8214    0.1578    3.2208 H   0  0  0  0  0  0  0  0  0  0  0  0
   -0.8374    2.9202    2.9788 H   0  0  0  0  0  0  0  0  0  0  0  0
    0.4622    3.5541    1.9066 H   0  0  0  0  0  0  0  0  0  0  0  0
   -1.5360    3.6431    1.2160 H   0  0  0  0  0  0  0  0  0  0  0  0
   -0.5761    2.8644    0.1609 H   0  0  0  0  0  0  0  0  0  0  0  0
   -0.9036    0.1974    0.6149 H   0  0  0  0  0  0  0  0  0  0  0  0
   -2.1225   -0.6264    1.5030 H   0  0  0  0  0  0  0  0  0  0  0  0
   -4.3898    2.1250   -0.9827 H   0  0  0  0  0  0  0  0  0  0  0  0
   -4.0930    0.4202   -1.3109 H   0  0  0  0  0  0  0  0  0  0  0  0
   -2.8038    2.8275   -2.8030 H   0  0  0  0  0  0  0  0  0  0  0  0
   -1.8362    0.0588   -3.5742 H   0  0  0  0  0  0  0  0  0  0  0  0
   -0.8629    2.9160   -2.2160 H   0  0  0  0  0  0  0  0  0  0  0  0
    0.7977    7.1555   -2.0547 H   0  0  0  0  0  0  0  0  0  0  0  0
   -2.0671    6.6039    1.8013 H   0  0  0  0  0  0  0  0  0  0  0  0
    0.7697    2.0743   -0.7664 H   0  0  0  0  0  0  0  0  0  0  0  0
   -3.0464   -0.4557   -0.3592 H   0  0  0  0  0  0  0  0  0  0  0  0
    2.1167    4.0815   -5.0186 H   0  0  0  0  0  0  0  0  0  0  0  0
    0.6693    4.8010   -5.8801 H   0  0  0  0  0  0  0  0  0  0  0  0
    2.2739    5.4818   -6.0653 H   0  0  0  0  0  0  0  0  0  0  0  0
   -1.9478   -2.3362   -0.2282 H   0  0  0  0  0  0  0  0  0  0  0  0
  1 31  1  0  0  0  0
  2 33  1  0  0  0  0
  3 18  2  0  0  0  0
  4 22  1  0  0  0  0
  4 30  1  0  0  0  0
  5 13  1  0  0  0  0
  5 14  1  0  0  0  0
  5 15  1  0  0  0  0
  6 18  1  0  0  0  0
  6 19  1  0  0  0  0
  6 34  1  0  0  0  0
  7 24  1  0  0  0  0
  7 26  1  0  0  0  0
  7 35  1  0  0  0  0
  8 23  1  0  0  0  0
  8 27  2  0  0  0  0
  9 24  2  0  0  0  0
  9 27  1  0  0  0  0
 10 11  1  0  0  0  0
 10 12  1  0  0  0  0
 10 36  1  0  0  0  0
 10 37  1  0  0  0  0
 11 14  1  0  0  0  0
 11 38  1  0  0  0  0
 11 39  1  0  0  0  0
 12 13  1  0  0  0  0
 12 40  1  0  0  0  0
 12 41  1  0  0  0  0
 13 42  1  0  0  0  0
 13 43  1  0  0  0  0
 14 44  1  0  0  0  0
 14 45  1  0  0  0  0
 15 16  1  0  0  0  0
 15 46  1  0  0  0  0
 15 47  1  0  0  0  0
 16 17  2  0  0  0  0
 16 48  1  0  0  0  0
 17 18  1  0  0  0  0
 17 49  1  0  0  0  0
 19 21  1  0  0  0  0
 19 22  2  0  0  0  0
 20 21  2  0  0  0  0
 20 23  1  0  0  0  0
 20 24  1  0  0  0  0
 21 50  1  0  0  0  0
 22 25  1  0  0  0  0
 23 25  2  0  0  0  0
 25 51  1  0  0  0  0
 26 28  2  0  0  0  0
 26 29  1  0  0  0  0
 27 52  1  0  0  0  0
 28 31  1  0  0  0  0
 28 53  1  0  0  0  0
 29 32  2  0  0  0  0
 29 54  1  0  0  0  0
 30 55  1  0  0  0  0
 30 56  1  0  0  0  0
 30 57  1  0  0  0  0
 31 33  2  0  0  0  0
 32 33  1  0  0  0  0
 32 58  1  0  0  0  0
M  END
>  <DRUGBANK_ID>
DB11963

>  <COMMON_NAME>
Dacomitinib

>  <CAS_NUMBER>
1110813-31-4

>  <UNII>
2XJX250C20

>  <SYNONYMS>
Dacomitinib; Dacomitinib anhydrous; Dacomitinibum

$$$$
