
 OpenBabel10282417133D

 39 39  0  0  1  0  0  0  0  0999 V2000
    0.8072    1.2429   -0.4272 C   0  0  1  0  0  0  0  0  0  0  0  0
    1.6685   -0.1426   -0.2592 C   0  0  1  0  0  0  0  0  0  0  0  0
    0.7780   -1.3771   -0.5236 C   0  0  2  0  0  0  0  0  0  0  0  0
   -0.6311   -1.2498    0.0122 C   0  0  1  0  0  0  0  0  0  0  0  0
   -1.3809    0.0280   -0.3266 C   0  0  2  0  0  0  0  0  0  0  0  0
   -0.6777    1.2475    0.2058 C   0  0  1  0  0  0  0  0  0  0  0  0
   -0.7511    1.2201    1.6668 O   0  0  0  0  0  0  0  0  0  0  0  0
    0.1145   -0.1512    2.2695 P   0  0  0  0  0  0  0  0  0  0  0  0
   -1.2388   -0.5555    2.7604 O   0  0  0  0  0  0  0  0  0  0  0  0
    1.2786    0.7755    1.9375 O   0  0  0  0  0  0  0  0  0  0  0  0
    0.9801   -1.5224    2.8721 O   0  0  0  0  0  0  0  0  0  0  0  0
   -2.7266   -0.1102    0.1419 O   0  0  0  0  0  0  0  0  0  0  0  0
   -1.4544   -2.3244   -0.2468 O   0  0  0  0  0  0  0  0  0  0  0  0
   -1.4438   -2.2997   -1.9766 P   0  0  0  0  0  0  0  0  0  0  0  0
   -1.7931   -3.7786   -2.1012 O   0  0  0  0  0  0  0  0  0  0  0  0
   -2.9044   -1.5771   -2.0184 O   0  0  0  0  0  0  0  0  0  0  0  0
   -1.4332   -2.2750   -3.7064 O   0  0  0  0  0  0  0  0  0  0  0  0
    1.3414   -2.4109    0.2501 O   0  0  0  0  0  0  0  0  0  0  0  0
    0.6577   -3.8353    0.9549 P   0  0  0  0  0  0  0  0  0  0  0  0
    0.0430   -4.2616   -0.3639 O   0  0  0  0  0  0  0  0  0  0  0  0
    2.1344   -4.5234    0.8715 O   0  0  0  0  0  0  0  0  0  0  0  0
   -0.0259   -5.2597    1.6597 O   0  0  0  0  0  0  0  0  0  0  0  0
    2.9684   -0.1000   -0.8561 O   0  0  0  0  0  0  0  0  0  0  0  0
    1.5165    2.3933    0.0787 O   0  0  0  0  0  0  0  0  0  0  0  0
    0.7199    1.4040   -1.5141 H   0  0  0  0  0  0  0  0  0  0  0  0
    2.1006   -0.4123    0.7073 H   0  0  0  0  0  0  0  0  0  0  0  0
    0.8581   -1.6072   -1.5864 H   0  0  0  0  0  0  0  0  0  0  0  0
   -0.6035   -1.5612    1.0206 H   0  0  0  0  0  0  0  0  0  0  0  0
   -1.4410    0.1619   -1.4119 H   0  0  0  0  0  0  0  0  0  0  0  0
   -1.2373    2.1485   -0.0877 H   0  0  0  0  0  0  0  0  0  0  0  0
    2.0201    1.3880    1.8004 H   0  0  0  0  0  0  0  0  0  0  0  0
    1.1276   -1.4088    3.8322 H   0  0  0  0  0  0  0  0  0  0  0  0
   -2.7114   -0.7128    0.9218 H   0  0  0  0  0  0  0  0  0  0  0  0
   -3.2346   -1.3154   -1.1320 H   0  0  0  0  0  0  0  0  0  0  0  0
   -1.6505   -3.2084   -3.9217 H   0  0  0  0  0  0  0  0  0  0  0  0
    2.5843   -4.1804    0.0727 H   0  0  0  0  0  0  0  0  0  0  0  0
   -0.2655   -5.7988    0.8780 H   0  0  0  0  0  0  0  0  0  0  0  0
    2.9293    0.0984   -1.7948 H   0  0  0  0  0  0  0  0  0  0  0  0
    1.0485    2.7078    0.8818 H   0  0  0  0  0  0  0  0  0  0  0  0
  1  2  1  0  0  0  0
  1  6  1  0  0  0  0
  1 24  1  0  0  0  0
  1 25  1  6  0  0  0
  2  3  1  0  0  0  0
  2 23  1  0  0  0  0
  2 26  1  1  0  0  0
  3  4  1  0  0  0  0
  3 27  1  6  0  0  0
  3 18  1  0  0  0  0
  4  5  1  0  0  0  0
  4 13  1  0  0  0  0
  4 28  1  1  0  0  0
  5  6  1  0  0  0  0
  5 29  1  6  0  0  0
  5 12  1  0  0  0  0
  6  7  1  0  0  0  0
  6 30  1  6  0  0  0
  7  8  1  0  0  0  0
  8  9  2  0  0  0  0
  8 10  1  0  0  0  0
  8 11  1  0  0  0  0
 10 31  1  0  0  0  0
 11 32  1  0  0  0  0
 12 33  1  0  0  0  0
 13 14  1  0  0  0  0
 14 15  2  0  0  0  0
 14 16  1  0  0  0  0
 14 17  1  0  0  0  0
 16 34  1  0  0  0  0
 17 35  1  0  0  0  0
 18 19  1  0  0  0  0
 19 20  2  0  0  0  0
 19 21  1  0  0  0  0
 19 22  1  0  0  0  0
 21 36  1  0  0  0  0
 22 37  1  0  0  0  0
 23 38  1  0  0  0  0
 24 39  1  0  0  0  0
M  END
>  <DRUGBANK_ID>
DB03956

>  <SECONDARY_ACCESSION_NUMBERS>
EXPT01809

>  <COMMON_NAME>
Inositol 2,4,5-trisphosphate

>  <CAS_NUMBER>
91840-07-2

$$$$
