
 OpenBabel10282417123D

 12 11  0  0  0  0  0  0  0  0999 V2000
    1.0404    0.1004    0.0127 C   0  0  0  0  0  0  0  0  0  0  0  0
    0.5415   -1.3011   -0.3029 C   0  0  0  0  0  0  0  0  0  0  0  0
    1.0404   -2.3098    0.7201 C   0  0  0  0  0  0  0  0  0  0  0  0
   -0.8823   -1.3046   -0.3149 O   0  0  0  0  0  0  0  0  0  0  0  0
    0.6798    0.4336    0.9922 H   0  0  0  0  0  0  0  0  0  0  0  0
    0.6626    0.8176   -0.7235 H   0  0  0  0  0  0  0  0  0  0  0  0
    2.1339    0.1395    0.0114 H   0  0  0  0  0  0  0  0  0  0  0  0
    0.8782   -1.5946   -1.3028 H   0  0  0  0  0  0  0  0  0  0  0  0
    0.6798   -2.0607    1.7243 H   0  0  0  0  0  0  0  0  0  0  0  0
    0.6626   -3.3110    0.4883 H   0  0  0  0  0  0  0  0  0  0  0  0
    2.1339   -2.3434    0.7402 H   0  0  0  0  0  0  0  0  0  0  0  0
   -1.1908   -1.0447    0.5707 H   0  0  0  0  0  0  0  0  0  0  0  0
  1  2  1  0  0  0  0
  1  5  1  0  0  0  0
  1  6  1  0  0  0  0
  1  7  1  0  0  0  0
  2  3  1  0  0  0  0
  2  4  1  0  0  0  0
  2  8  1  0  0  0  0
  3  9  1  0  0  0  0
  3 10  1  0  0  0  0
  3 11  1  0  0  0  0
  4 12  1  0  0  0  0
M  END
>  <DRUGBANK_ID>
DB02325

>  <SECONDARY_ACCESSION_NUMBERS>
EXPT01912; DB04402

>  <COMMON_NAME>
Isopropyl alcohol

>  <CAS_NUMBER>
67-63-0

>  <UNII>
ND2M416302

>  <SYNONYMS>
2-Propanol; Alcohol isoprop√≠lico; Isopropanol; Isopropyl alcohol

$$$$
