
 OpenBabel10282417243D

 64 67  0  0  1  0  0  0  0  0999 V2000
  -13.6380   -1.5077   -8.9422 C   0  0  0  0  0  0  0  0  0  0  0  0
  -12.6303   -2.1784   -8.1377 N   0  0  0  0  0  0  0  0  0  0  0  0
  -12.3964   -1.4471   -6.8974 C   0  0  0  0  0  0  0  0  0  0  0  0
  -13.6289   -1.3311   -5.9482 C   0  0  1  0  0  0  0  0  0  0  0  0
  -14.0509   -2.6549   -5.4388 N   0  0  0  0  0  0  0  0  0  0  0  0
  -14.2384   -3.2412   -4.1979 C   0  0  0  0  0  0  0  0  0  0  0  0
  -14.5454   -4.4177   -4.1270 O   0  0  0  0  0  0  0  0  0  0  0  0
  -14.0996   -2.4857   -2.9398 C   0  0  0  0  0  0  0  0  0  0  0  0
  -13.1524   -2.7936   -1.9524 C   0  0  0  0  0  0  0  0  0  0  0  0
  -12.9199   -1.9044   -0.8700 C   0  0  0  0  0  0  0  0  0  0  0  0
  -13.6438   -0.7132   -0.7507 C   0  0  0  0  0  0  0  0  0  0  0  0
  -14.6923   -0.5515   -1.6778 C   0  0  0  0  0  0  0  0  0  0  0  0
  -14.9506   -1.4336   -2.7198 C   0  0  0  0  0  0  0  0  0  0  0  0
  -15.9243   -1.1319   -3.5933 F   0  0  0  0  0  0  0  0  0  0  0  0
  -13.3433    0.3755    0.2301 C   0  0  0  0  0  0  0  0  0  0  0  0
  -12.0182    0.7177    0.4371 N   0  0  0  0  0  0  0  0  0  0  0  0
  -11.7697    1.7326    1.3182 C   0  0  0  0  0  0  0  0  0  0  0  0
  -12.8342    2.3005    2.0014 C   0  0  0  0  0  0  0  0  0  0  0  0
  -14.1283    2.0785    1.7229 N   0  0  0  0  0  0  0  0  0  0  0  0
  -14.3831    1.1237    0.8263 C   0  0  0  0  0  0  0  0  0  0  0  0
  -15.7316    0.8529    0.7184 N   0  0  0  0  0  0  0  0  0  0  0  0
  -10.3400    2.2563    1.5267 C   0  0  1  0  0  0  0  0  0  0  0  0
   -9.7316    2.8356    0.2333 C   0  0  0  0  0  0  0  0  0  0  0  0
  -10.4212    4.1341   -0.1801 C   0  0  0  0  0  0  0  0  0  0  0  0
  -10.2440    5.2110    0.8904 C   0  0  2  0  0  0  0  0  0  0  0  0
   -8.8788    5.6147    0.9699 O   0  0  0  0  0  0  0  0  0  0  0  0
  -10.7289    4.7376    2.2561 C   0  0  1  0  0  0  0  0  0  0  0  0
  -12.0858    4.7621    2.2220 F   0  0  0  0  0  0  0  0  0  0  0  0
  -10.1938    3.3364    2.6380 C   0  0  0  0  0  0  0  0  0  0  0  0
  -13.2940   -0.2700   -4.9485 C   0  0  0  0  0  0  0  0  0  0  0  0
  -14.2192    0.7346   -4.6441 C   0  0  0  0  0  0  0  0  0  0  0  0
  -13.9581    1.5817   -3.5783 C   0  0  0  0  0  0  0  0  0  0  0  0
  -14.9911    2.2623   -3.0552 F   0  0  0  0  0  0  0  0  0  0  0  0
  -12.7584    1.4874   -2.8624 C   0  0  0  0  0  0  0  0  0  0  0  0
  -11.8087    0.5358   -3.2304 C   0  0  0  0  0  0  0  0  0  0  0  0
  -10.2266    0.1635   -2.2756 Br  0  0  0  0  0  0  0  0  0  0  0  0
  -12.0787   -0.3366   -4.2627 C   0  0  0  0  0  0  0  0  0  0  0  0
  -13.3430   -0.4735   -9.1524 H   0  0  0  0  0  0  0  0  0  0  0  0
  -14.6165   -1.5001   -8.4548 H   0  0  0  0  0  0  0  0  0  0  0  0
  -13.7563   -2.0348   -9.8880 H   0  0  0  0  0  0  0  0  0  0  0  0
  -12.9121   -3.1308   -7.9160 H   0  0  0  0  0  0  0  0  0  0  0  0
  -11.5799   -1.9646   -6.3781 H   0  0  0  0  0  0  0  0  0  0  0  0
  -12.0098   -0.4439   -7.1359 H   0  0  0  0  0  0  0  0  0  0  0  0
  -14.4905   -0.9606   -6.5137 H   0  0  0  0  0  0  0  0  0  0  0  0
  -14.3083   -3.3060   -6.1713 H   0  0  0  0  0  0  0  0  0  0  0  0
  -12.5742   -3.7097   -2.0294 H   0  0  0  0  0  0  0  0  0  0  0  0
  -12.1409   -2.1279   -0.1427 H   0  0  0  0  0  0  0  0  0  0  0  0
  -15.2393    0.3849   -1.7204 H   0  0  0  0  0  0  0  0  0  0  0  0
  -12.7090    2.9703    2.8385 H   0  0  0  0  0  0  0  0  0  0  0  0
  -16.2884    1.6152    1.0859 H   0  0  0  0  0  0  0  0  0  0  0  0
  -16.1022    0.4071   -0.0989 H   0  0  0  0  0  0  0  0  0  0  0  0
   -9.7338    1.3890    1.8258 H   0  0  0  0  0  0  0  0  0  0  0  0
   -9.7960    2.1261   -0.5817 H   0  0  0  0  0  0  0  0  0  0  0  0
   -8.6552    3.0142    0.3664 H   0  0  0  0  0  0  0  0  0  0  0  0
  -11.4880    3.9398   -0.3500 H   0  0  0  0  0  0  0  0  0  0  0  0
  -10.0059    4.4797   -1.1331 H   0  0  0  0  0  0  0  0  0  0  0  0
  -10.8288    6.0886    0.5931 H   0  0  0  0  0  0  0  0  0  0  0  0
   -8.3437    4.8594    1.2649 H   0  0  0  0  0  0  0  0  0  0  0  0
  -10.4415    5.4429    3.0405 H   0  0  0  0  0  0  0  0  0  0  0  0
  -10.6626    2.9837    3.5639 H   0  0  0  0  0  0  0  0  0  0  0  0
   -9.1257    3.4456    2.8712 H   0  0  0  0  0  0  0  0  0  0  0  0
  -15.2201    0.7180   -5.0764 H   0  0  0  0  0  0  0  0  0  0  0  0
  -12.6746    2.0208   -1.9221 H   0  0  0  0  0  0  0  0  0  0  0  0
  -11.3782   -1.1463   -4.4584 H   0  0  0  0  0  0  0  0  0  0  0  0
  1  2  1  0  0  0  0
  1 38  1  0  0  0  0
  1 39  1  0  0  0  0
  1 40  1  0  0  0  0
  2  3  1  0  0  0  0
  2 41  1  0  0  0  0
  3 42  1  0  0  0  0
  3 43  1  0  0  0  0
  4  3  1  0  0  0  0
  4  5  1  0  0  0  0
  4 30  1  0  0  0  0
  4 44  1  6  0  0  0
  5  6  1  0  0  0  0
  5 45  1  0  0  0  0
  6  7  2  0  0  0  0
  6  8  1  0  0  0  0
  8  9  2  0  0  0  0
  8 13  1  0  0  0  0
  9 10  1  0  0  0  0
  9 46  1  0  0  0  0
 10 11  2  0  0  0  0
 10 47  1  0  0  0  0
 11 12  1  0  0  0  0
 11 15  1  0  0  0  0
 12 13  2  0  0  0  0
 12 48  1  0  0  0  0
 13 14  1  0  0  0  0
 15 16  2  0  0  0  0
 15 20  1  0  0  0  0
 16 17  1  0  0  0  0
 17 18  2  0  0  0  0
 18 19  1  0  0  0  0
 18 49  1  0  0  0  0
 19 20  2  0  0  0  0
 20 21  1  0  0  0  0
 21 50  1  0  0  0  0
 21 51  1  0  0  0  0
 22 23  1  0  0  0  0
 22 29  1  0  0  0  0
 22 52  1  1  0  0  0
 22 17  1  0  0  0  0
 23 24  1  0  0  0  0
 23 53  1  0  0  0  0
 23 54  1  0  0  0  0
 24 55  1  0  0  0  0
 24 56  1  0  0  0  0
 25 24  1  0  0  0  0
 25 26  1  0  0  0  0
 25 27  1  0  0  0  0
 25 57  1  6  0  0  0
 26 58  1  0  0  0  0
 27 28  1  0  0  0  0
 27 29  1  0  0  0  0
 27 59  1  1  0  0  0
 29 60  1  0  0  0  0
 29 61  1  0  0  0  0
 30 31  2  0  0  0  0
 30 37  1  0  0  0  0
 31 32  1  0  0  0  0
 31 62  1  0  0  0  0
 32 33  1  0  0  0  0
 32 34  2  0  0  0  0
 34 35  1  0  0  0  0
 34 63  1  0  0  0  0
 35 36  1  0  0  0  0
 35 37  2  0  0  0  0
 37 64  1  0  0  0  0
M  END
>  <DRUGBANK_ID>
DB17560

>  <COMMON_NAME>
Rineterkib

>  <CAS_NUMBER>
1715025-32-3

>  <UNII>
15KFN616FK

>  <SYNONYMS>
4-(3-amino-6-((1s,3s,4s)-3-fluoro-4-hydroxycyclohexyl)-2-pyrazinyl)-n-((1s)-1-(3-bromo-5-fluorophenyl)-2-(methylamino)ethyl)-2-fluorobenzamide; Benzamide, 4-(3-amino-6-((1s,3s,4s)-3-fluoro-4-hydroxycyclohexyl)-2-pyrazinyl)-n-((1s)-1-(3-bromo-5-fluorophenyl)-2-(methylamino)ethyl)-2-fluoro-; Rineterkib

$$$$
