
 OpenBabel10282417113D

 27 27  0  0  1  0  0  0  0  0999 V2000
    1.0290    0.0096   -0.1543 C   0  0  2  0  0  0  0  0  0  0  0  0
    0.5299   -0.1416   -1.6052 C   0  0  0  0  0  0  0  0  0  0  0  0
    0.5302   -1.1801    0.7241 C   0  0  0  0  0  0  0  0  0  0  0  0
   -0.1828   -1.0266   -2.0602 O   0  0  0  0  0  0  0  0  0  0  0  0
    0.5073    1.3080    0.3464 N   0  0  0  0  0  0  0  0  0  0  0  0
    1.0079   -1.1573    2.1726 C   0  0  0  0  0  0  0  0  0  0  0  0
    0.8966    0.9069   -2.3836 O   0  0  0  0  0  0  0  0  0  0  0  0
    2.0001   -1.0596    4.7971 C   0  0  0  0  0  0  0  0  0  0  0  0
    1.1714    0.0525    2.8687 C   0  0  0  0  0  0  0  0  0  0  0  0
    1.3144   -2.3404    2.8545 C   0  0  0  0  0  0  0  0  0  0  0  0
    1.8081   -2.2897    4.1689 C   0  0  0  0  0  0  0  0  0  0  0  0
    1.6841    0.1126    4.1515 C   0  0  0  0  0  0  0  0  0  0  0  0
    2.4964   -0.9342    6.0577 O   0  0  0  0  0  0  0  0  0  0  0  0
    2.5689    0.0191   -0.1620 C   0  0  0  0  0  0  0  0  0  0  0  0
   -0.5671   -1.2275    0.7199 H   0  0  0  0  0  0  0  0  0  0  0  0
    0.8695   -2.1171    0.2542 H   0  0  0  0  0  0  0  0  0  0  0  0
    0.8248    2.0781   -0.2359 H   0  0  0  0  0  0  0  0  0  0  0  0
   -0.5106    1.2966    0.3738 H   0  0  0  0  0  0  0  0  0  0  0  0
    0.4883    0.7363   -3.2569 H   0  0  0  0  0  0  0  0  0  0  0  0
    0.9517    1.0144    2.4297 H   0  0  0  0  0  0  0  0  0  0  0  0
    1.1882   -3.3057    2.3676 H   0  0  0  0  0  0  0  0  0  0  0  0
    2.0426   -3.2165    4.6807 H   0  0  0  0  0  0  0  0  0  0  0  0
    1.8333    1.0803    4.6185 H   0  0  0  0  0  0  0  0  0  0  0  0
    2.6793   -1.8170    6.4092 H   0  0  0  0  0  0  0  0  0  0  0  0
    2.9572   -0.9007   -0.6159 H   0  0  0  0  0  0  0  0  0  0  0  0
    2.9726    0.8640   -0.7276 H   0  0  0  0  0  0  0  0  0  0  0  0
    2.9933    0.0829    0.8456 H   0  0  0  0  0  0  0  0  0  0  0  0
  1  2  1  6  0  0  0
  1  3  1  0  0  0  0
  1 14  1  0  0  0  0
  3 15  1  0  0  0  0
  3 16  1  0  0  0  0
  4  2  2  0  0  0  0
  5  1  1  0  0  0  0
  5 17  1  0  0  0  0
  5 18  1  0  0  0  0
  6  3  1  0  0  0  0
  7  2  1  0  0  0  0
  7 19  1  0  0  0  0
  8 11  1  0  0  0  0
  9  6  2  0  0  0  0
  9 20  1  0  0  0  0
 10  6  1  0  0  0  0
 10 21  1  0  0  0  0
 11 10  2  0  0  0  0
 11 22  1  0  0  0  0
 12  9  1  0  0  0  0
 12  8  2  0  0  0  0
 12 23  1  0  0  0  0
 13  8  1  0  0  0  0
 13 24  1  0  0  0  0
 14 25  1  0  0  0  0
 14 26  1  0  0  0  0
 14 27  1  0  0  0  0
M  END
>  <DRUGBANK_ID>
DB00765

>  <SECONDARY_ACCESSION_NUMBERS>
APRD01112

>  <COMMON_NAME>
Metyrosine

>  <CAS_NUMBER>
672-87-7

>  <UNII>
DOQ0J0TPF7

>  <SYNONYMS>
(-)-alpha-Methyl-L-tyrosine; (–)-α-methyl-L-tyrosine; (S)-alpha-Methyltyrosine; Methyltyrosine; Metirosin; Metirosina; Métirosine; Metirosine; Metirosinum; Metyrosine; α-methyl-L-p-tyrosine; α-methyl-p-tyrosine; α-methyl-para-tyrosine; α-MPT

$$$$
