
 OpenBabel10282417243D

 63 66  0  0  1  0  0  0  0  0999 V2000
    3.0326    0.0444   -0.3309 C   0  0  0  0  0  0  0  0  0  0  0  0
    1.5569    0.2358   -0.6250 C   0  0  2  0  0  0  0  0  0  0  0  0
    1.0610    1.2750    0.2211 O   0  0  0  0  0  0  0  0  0  0  0  0
   -0.3073    1.6063   -0.0784 C   0  0  2  0  0  0  0  0  0  0  0  0
   -0.6257    2.7039    0.7351 O   0  0  0  0  0  0  0  0  0  0  0  0
   -2.0441    2.8740    1.5259 P   0  0  3  0  0  0  0  0  0  0  0  0
   -2.2013    3.6590    0.1381 O   0  0  0  0  0  0  0  0  0  0  0  0
   -1.4190    1.8776    2.4663 O   0  0  0  0  0  0  0  0  0  0  0  0
   -3.2508    1.8663    1.1569 O   0  0  0  0  0  0  0  0  0  0  0  0
   -4.2921    1.4118    2.2745 P   0  0  3  0  0  0  0  0  0  0  0  0
   -3.5509    2.2007    3.4680 O   0  0  0  0  0  0  0  0  0  0  0  0
   -5.6939    1.6169    1.8291 O   0  0  0  0  0  0  0  0  0  0  0  0
   -4.5863    0.1795    3.2612 O   0  0  0  0  0  0  0  0  0  0  0  0
   -5.9947    0.4684    3.8370 C   0  0  0  0  0  0  0  0  0  0  0  0
   -6.3706    2.0318    4.2963 C   0  0  1  0  0  0  0  0  0  0  0  0
   -5.5267    3.1313    3.7816 O   0  0  0  0  0  0  0  0  0  0  0  0
   -6.1753    3.9413    2.7317 C   0  0  2  0  0  0  0  0  0  0  0  0
   -7.5881    3.3970    2.6437 C   0  0  2  0  0  0  0  0  0  0  0  0
   -8.5000    4.4825    2.4943 O   0  0  0  0  0  0  0  0  0  0  0  0
   -7.7737    2.5732    3.9361 C   0  0  2  0  0  0  0  0  0  0  0  0
   -8.2127    3.4852    4.9685 O   0  0  0  0  0  0  0  0  0  0  0  0
   -5.5098    4.0848    1.3736 N   0  0  0  0  0  0  0  0  0  0  0  0
   -5.6693    3.3069    0.2130 C   0  0  0  0  0  0  0  0  0  0  0  0
   -4.9792    3.7020   -0.8239 N   0  0  0  0  0  0  0  0  0  0  0  0
   -4.5116    4.8863   -0.4178 C   0  0  0  0  0  0  0  0  0  0  0  0
   -4.8007    5.1737    0.9017 C   0  0  0  0  0  0  0  0  0  0  0  0
   -4.4463    6.2983    1.5714 N   0  0  0  0  0  0  0  0  0  0  0  0
   -3.7608    7.1387    0.8363 C   0  0  0  0  0  0  0  0  0  0  0  0
   -3.3797    8.3385    1.3319 N   0  0  0  0  0  0  0  0  0  0  0  0
   -3.3599    6.8988   -0.4608 N   0  0  0  0  0  0  0  0  0  0  0  0
   -3.6427    5.7481   -1.1875 C   0  0  0  0  0  0  0  0  0  0  0  0
   -3.1128    5.4899   -2.2236 O   0  0  0  0  0  0  0  0  0  0  0  0
   -1.2096    0.3507    0.0779 C   0  0  1  0  0  0  0  0  0  0  0  0
   -2.5530    0.4613   -0.3913 O   0  0  0  0  0  0  0  0  0  0  0  0
   -0.6811   -0.8274   -0.7051 C   0  0  2  0  0  0  0  0  0  0  0  0
   -1.4523   -1.9995   -0.3918 O   0  0  0  0  0  0  0  0  0  0  0  0
    0.7792   -1.0645   -0.3820 C   0  0  2  0  0  0  0  0  0  0  0  0
    0.9097   -1.5143    0.9791 O   0  0  0  0  0  0  0  0  0  0  0  0
    3.2005   -0.2349    0.7145 H   0  0  0  0  0  0  0  0  0  0  0  0
    3.4451   -0.7355   -0.9773 H   0  0  0  0  0  0  0  0  0  0  0  0
    3.5807    0.9754   -0.5028 H   0  0  0  0  0  0  0  0  0  0  0  0
    1.4412    0.5632   -1.6651 H   0  0  0  0  0  0  0  0  0  0  0  0
   -0.3492    2.0034   -1.0974 H   0  0  0  0  0  0  0  0  0  0  0  0
   -1.9378    4.5958    0.1450 H   0  0  0  0  0  0  0  0  0  0  0  0
   -2.6859    1.7204    3.5704 H   0  0  0  0  0  0  0  0  0  0  0  0
   -6.7268    0.1613    3.0691 H   0  0  0  0  0  0  0  0  0  0  0  0
   -6.2015   -0.2378    4.6518 H   0  0  0  0  0  0  0  0  0  0  0  0
   -6.2479    2.0178    5.3915 H   0  0  0  0  0  0  0  0  0  0  0  0
   -6.1154    4.9467    3.1589 H   0  0  0  0  0  0  0  0  0  0  0  0
   -7.7291    2.7398    1.7854 H   0  0  0  0  0  0  0  0  0  0  0  0
   -8.3944    5.0531    3.2762 H   0  0  0  0  0  0  0  0  0  0  0  0
   -8.5382    1.7991    3.8358 H   0  0  0  0  0  0  0  0  0  0  0  0
   -7.4940    4.1211    5.1346 H   0  0  0  0  0  0  0  0  0  0  0  0
   -6.1984    2.3645    0.1284 H   0  0  0  0  0  0  0  0  0  0  0  0
   -3.9139    8.6536    2.1354 H   0  0  0  0  0  0  0  0  0  0  0  0
   -3.1126    9.0735    0.6905 H   0  0  0  0  0  0  0  0  0  0  0  0
   -2.7465    7.5253   -0.9497 H   0  0  0  0  0  0  0  0  0  0  0  0
   -1.2315    0.0331    1.1264 H   0  0  0  0  0  0  0  0  0  0  0  0
   -2.6714    1.2928   -0.8863 H   0  0  0  0  0  0  0  0  0  0  0  0
   -0.8289   -0.6236   -1.7720 H   0  0  0  0  0  0  0  0  0  0  0  0
   -1.5318   -2.0306    0.5803 H   0  0  0  0  0  0  0  0  0  0  0  0
    1.1460   -1.8705   -1.0208 H   0  0  0  0  0  0  0  0  0  0  0  0
    0.7818   -0.7503    1.5729 H   0  0  0  0  0  0  0  0  0  0  0  0
  1 39  1  0  0  0  0
  1 40  1  0  0  0  0
  1 41  1  0  0  0  0
  2  1  1  0  0  0  0
  2  3  1  0  0  0  0
  2 42  1  6  0  0  0
  4  3  1  0  0  0  0
  4 43  1  6  0  0  0
  4  5  1  0  0  0  0
  5  6  1  0  0  0  0
  6  7  1  0  0  0  0
  6  8  2  0  0  0  0
  6  9  1  0  0  0  0
  7 44  1  0  0  0  0
  9 10  1  0  0  0  0
 10 11  1  0  0  0  0
 10 12  2  0  0  0  0
 10 13  1  0  0  0  0
 11 45  1  0  0  0  0
 13 14  1  0  0  0  0
 14 46  1  0  0  0  0
 14 47  1  0  0  0  0
 15 14  1  0  0  0  0
 15 16  1  0  0  0  0
 15 48  1  1  0  0  0
 17 16  1  0  0  0  0
 17 49  1  1  0  0  0
 17 22  1  0  0  0  0
 18 17  1  0  0  0  0
 18 19  1  0  0  0  0
 18 20  1  0  0  0  0
 18 50  1  6  0  0  0
 19 51  1  0  0  0  0
 20 15  1  0  0  0  0
 20 21  1  0  0  0  0
 20 52  1  6  0  0  0
 21 53  1  0  0  0  0
 22 23  1  0  0  0  0
 22 26  1  0  0  0  0
 23 24  2  0  0  0  0
 23 54  1  0  0  0  0
 24 25  1  0  0  0  0
 25 26  2  0  0  0  0
 25 31  1  0  0  0  0
 26 27  1  0  0  0  0
 27 28  2  0  0  0  0
 28 29  1  0  0  0  0
 28 30  1  0  0  0  0
 29 55  1  0  0  0  0
 29 56  1  0  0  0  0
 30 31  1  0  0  0  0
 30 57  1  0  0  0  0
 31 32  2  0  0  0  0
 33  4  1  0  0  0  0
 33 34  1  0  0  0  0
 33 35  1  0  0  0  0
 33 58  1  1  0  0  0
 34 59  1  0  0  0  0
 35 36  1  0  0  0  0
 35 37  1  0  0  0  0
 35 60  1  6  0  0  0
 36 61  1  0  0  0  0
 37  2  1  0  0  0  0
 37 38  1  0  0  0  0
 37 62  1  6  0  0  0
 38 63  1  0  0  0  0
M  END
>  <DRUGBANK_ID>
DB18689

>  <COMMON_NAME>
GDP-L-fucose

>  <CAS_NUMBER>
15839-70-0

>  <UNII>
SM108QK2IH

>  <SYNONYMS>
Gdp-.beta.-l-fucose; Gdp-fucose; Guanosine 5'-(trihydrogen pyrophosphate), mono(6-deoxy-l-galactopyranosyl) ester; Guanosine 5'-diphospho-.beta.-l-fucose; Guanosine 5'-pyrophosphate, .beta.-l-fucopyranosyl ester; Guanosine pyrophosphate, l-fucosyl ester

$$$$
