
 OpenBabel10282417193D

 56 59  0  0  1  0  0  0  0  0999 V2000
    1.1111    0.0646   -0.3458 C   0  0  0  0  0  0  0  0  0  0  0  0
    0.4159   -1.2976   -0.3260 C   0  0  1  0  0  0  0  0  0  0  0  0
    0.7430   -2.2947    0.9376 C   0  0  1  0  0  0  0  0  0  0  0  0
    0.3846   -1.8063    2.3358 C   0  0  0  0  0  0  0  0  0  0  0  0
    0.1375   -2.7194    3.3663 C   0  0  0  0  0  0  0  0  0  0  0  0
   -0.1394   -2.2953    4.6621 C   0  0  0  0  0  0  0  0  0  0  0  0
   -0.0793   -0.9459    4.9858 C   0  0  0  0  0  0  0  0  0  0  0  0
    0.2599   -0.0285    4.0097 C   0  0  0  0  0  0  0  0  0  0  0  0
    0.4162   -0.4599    2.7011 C   0  0  0  0  0  0  0  0  0  0  0  0
    0.4982    1.3063    4.1739 O   0  0  0  0  0  0  0  0  0  0  0  0
    0.5814    1.7364    5.5206 C   0  0  0  0  0  0  0  0  0  0  0  0
    0.4835   -3.7880    0.8101 O   0  0  0  0  0  0  0  0  0  0  0  0
   -0.8208   -4.2262    0.7935 C   0  0  0  0  0  0  0  0  0  0  0  0
   -1.6477   -3.5224   -0.0016 C   0  0  0  0  0  0  0  0  0  0  0  0
   -2.9981   -3.5240   -0.1029 C   0  0  0  0  0  0  0  0  0  0  0  0
   -3.5468   -4.6071    0.5143 C   0  0  0  0  0  0  0  0  0  0  0  0
   -2.7978   -5.5622    1.1818 C   0  0  0  0  0  0  0  0  0  0  0  0
   -1.3824   -5.3595    1.3727 C   0  0  0  0  0  0  0  0  0  0  0  0
   -3.8274   -6.5290    1.3032 C   0  0  0  0  0  0  0  0  0  0  0  0
   -5.0472   -5.9520    1.4159 N   0  0  0  0  0  0  0  0  0  0  0  0
   -4.8823   -4.9033    0.5823 N   0  0  0  0  0  0  0  0  0  0  0  0
   -5.8993   -4.1691   -0.1078 C   0  0  0  0  0  0  0  0  0  0  0  0
   -5.7368   -3.9129   -1.4938 C   0  0  0  0  0  0  0  0  0  0  0  0
   -6.5715   -3.0177   -2.1756 C   0  0  0  0  0  0  0  0  0  0  0  0
   -7.5836   -2.3801   -1.4825 C   0  0  0  0  0  0  0  0  0  0  0  0
   -7.7571   -2.6126   -0.1189 C   0  0  0  0  0  0  0  0  0  0  0  0
   -6.8973   -3.4823    0.5845 C   0  0  0  0  0  0  0  0  0  0  0  0
   -8.3687   -1.4987   -2.1195 F   0  0  0  0  0  0  0  0  0  0  0  0
   -1.0037   -0.9469   -0.5862 N   0  0  0  0  0  0  0  0  0  0  0  0
   -1.7227   -1.2474   -1.7590 C   0  0  0  0  0  0  0  0  0  0  0  0
   -2.9175   -0.9570   -1.7923 O   0  0  0  0  0  0  0  0  0  0  0  0
   -1.0155   -2.1117   -2.8869 C   0  0  0  0  0  0  0  0  0  0  0  0
   -0.0867   -1.3856   -3.5546 F   0  0  0  0  0  0  0  0  0  0  0  0
   -0.3354   -3.2133   -2.4294 F   0  0  0  0  0  0  0  0  0  0  0  0
   -1.8960   -2.6145   -3.7930 F   0  0  0  0  0  0  0  0  0  0  0  0
    0.6565    0.7837    0.3331 H   0  0  0  0  0  0  0  0  0  0  0  0
    0.9354    0.5559   -1.3095 H   0  0  0  0  0  0  0  0  0  0  0  0
    2.1809   -0.0088   -0.1567 H   0  0  0  0  0  0  0  0  0  0  0  0
    0.8010   -1.8261   -1.1999 H   0  0  0  0  0  0  0  0  0  0  0  0
    1.8455   -2.2968    0.9364 H   0  0  0  0  0  0  0  0  0  0  0  0
    0.1506   -3.7891    3.1831 H   0  0  0  0  0  0  0  0  0  0  0  0
   -0.3768   -3.0312    5.4221 H   0  0  0  0  0  0  0  0  0  0  0  0
   -0.2901   -0.6426    6.0018 H   0  0  0  0  0  0  0  0  0  0  0  0
    0.5999    0.3449    2.0210 H   0  0  0  0  0  0  0  0  0  0  0  0
   -0.4137    1.6963    5.9692 H   0  0  0  0  0  0  0  0  0  0  0  0
    1.3041    1.1394    6.0883 H   0  0  0  0  0  0  0  0  0  0  0  0
    0.9250    2.7736    5.5270 H   0  0  0  0  0  0  0  0  0  0  0  0
   -1.0988   -2.9563   -0.6768 H   0  0  0  0  0  0  0  0  0  0  0  0
   -3.5856   -2.8152   -0.6536 H   0  0  0  0  0  0  0  0  0  0  0  0
   -0.7716   -5.9943    2.0050 H   0  0  0  0  0  0  0  0  0  0  0  0
   -3.8187   -7.5342    0.8920 H   0  0  0  0  0  0  0  0  0  0  0  0
   -4.9198   -4.3602   -2.0575 H   0  0  0  0  0  0  0  0  0  0  0  0
   -6.4182   -2.7911   -3.2275 H   0  0  0  0  0  0  0  0  0  0  0  0
   -8.5470   -2.0717    0.3926 H   0  0  0  0  0  0  0  0  0  0  0  0
   -6.9549   -3.5138    1.6698 H   0  0  0  0  0  0  0  0  0  0  0  0
   -1.5878   -0.7190    0.2191 H   0  0  0  0  0  0  0  0  0  0  0  0
  1 36  1  0  0  0  0
  1 37  1  0  0  0  0
  1 38  1  0  0  0  0
  2  1  1  0  0  0  0
  2  3  1  0  0  0  0
  2 29  1  0  0  0  0
  2 39  1  6  0  0  0
  3  4  1  0  0  0  0
  3 12  1  0  0  0  0
  3 40  1  1  0  0  0
  4  5  2  0  0  0  0
  4  9  1  0  0  0  0
  5  6  1  0  0  0  0
  5 41  1  0  0  0  0
  6  7  2  0  0  0  0
  6 42  1  0  0  0  0
  7  8  1  0  0  0  0
  7 43  1  0  0  0  0
  8  9  2  0  0  0  0
  8 10  1  0  0  0  0
  9 44  1  0  0  0  0
 10 11  1  0  0  0  0
 11 45  1  0  0  0  0
 11 46  1  0  0  0  0
 11 47  1  0  0  0  0
 12 13  1  0  0  0  0
 13 14  2  0  0  0  0
 13 18  1  0  0  0  0
 14 15  1  0  0  0  0
 14 48  1  0  0  0  0
 15 16  2  0  0  0  0
 15 49  1  0  0  0  0
 16 17  1  0  0  0  0
 16 21  1  0  0  0  0
 17 18  2  0  0  0  0
 17 19  1  0  0  0  0
 18 50  1  0  0  0  0
 19 20  2  0  0  0  0
 19 51  1  0  0  0  0
 20 21  1  0  0  0  0
 21 22  1  0  0  0  0
 22 23  2  0  0  0  0
 22 27  1  0  0  0  0
 23 24  1  0  0  0  0
 23 52  1  0  0  0  0
 24 25  2  0  0  0  0
 24 53  1  0  0  0  0
 25 26  1  0  0  0  0
 25 28  1  0  0  0  0
 26 27  2  0  0  0  0
 26 54  1  0  0  0  0
 27 55  1  0  0  0  0
 29 30  1  0  0  0  0
 29 56  1  0  0  0  0
 30 31  2  0  0  0  0
 30 32  1  0  0  0  0
 32 33  1  0  0  0  0
 32 34  1  0  0  0  0
 32 35  1  0  0  0  0
M  END
>  <DRUGBANK_ID>
DB12280

>  <COMMON_NAME>
AZD-5423

>  <CAS_NUMBER>
1034148-04-3

>  <UNII>
641H0Q518W

$$$$
