DEB
 OpenBabel10282417133D

 65 65  0  0  0  0  0  0  0  0999 V2000
   -1.1536    2.5916    0.5644 C   0  0  0  0  0  0  0  0  0  0  0  0
   -1.9858    1.6221   -0.3200 C   0  0  1  0  0  0  0  0  0  0  0  0
   -3.2303    0.9335    0.3265 C   0  0  2  0  0  0  0  0  0  0  0  0
   -3.3484   -0.6086    0.0519 C   0  0  1  0  0  0  0  0  0  0  0  0
   -2.1404   -1.4377    0.6014 C   0  0  2  0  0  0  0  0  0  0  0  0
   -1.4465   -2.2707   -0.5167 C   0  0  2  0  0  0  0  0  0  0  0  0
   -0.0843   -2.9178    0.0150 C   0  0  0  0  0  0  0  0  0  0  0  0
    1.3453   -2.5345   -0.5052 C   0  0  2  0  0  0  0  0  0  0  0  0
    2.0904   -1.5730    0.4659 C   0  0  0  0  0  0  0  0  0  0  0  0
    3.3031   -0.7953   -0.0637 C   0  0  1  0  0  0  0  0  0  0  0  0
    3.2330    0.7125    0.2959 C   0  0  2  0  0  0  0  0  0  0  0  0
    2.0583    1.5336   -0.3465 C   0  0  2  0  0  0  0  0  0  0  0  0
    1.2905    2.4607    0.6052 C   0  0  1  0  0  0  0  0  0  0  0  0
    2.3474    3.5140    0.8363 C   0  0  0  0  0  0  0  0  0  0  0  0
    1.9322    4.5918    1.7677 C   0  0  0  0  0  0  0  0  0  0  0  0
    0.0554    2.9498   -0.0402 O   0  0  0  0  0  0  0  0  0  0  0  0
   -1.4124    2.8485    1.7120 O   0  0  0  0  0  0  0  0  0  0  0  0
   -2.2427    2.1541   -1.7323 C   0  0  0  0  0  0  0  0  0  0  0  0
   -4.4137    1.5494   -0.1954 O   0  0  0  0  0  0  0  0  0  0  0  0
   -4.6791   -1.2306    0.4510 C   0  0  0  0  0  0  0  0  0  0  0  0
   -2.5868   -2.3262    1.6288 O   0  0  0  0  0  0  0  0  0  0  0  0
   -1.3938   -1.4324   -1.7928 C   0  0  0  0  0  0  0  0  0  0  0  0
    1.3406   -2.0825   -1.9516 C   0  0  0  0  0  0  0  0  0  0  0  0
    1.7554   -1.4557    1.6481 O   0  0  0  0  0  0  0  0  0  0  0  0
    4.5502   -1.4964    0.4407 C   0  0  0  0  0  0  0  0  0  0  0  0
    4.4641    1.3472   -0.0966 O   0  0  0  0  0  0  0  0  0  0  0  0
    1.0297    0.6677   -0.8991 C   0  0  0  0  0  0  0  0  0  0  0  0
   -1.2980    0.8047   -0.3611 H   0  0  0  0  0  0  0  0  0  0  0  0
   -3.2187    1.0652    1.4088 H   0  0  0  0  0  0  0  0  0  0  0  0
   -3.4539   -0.6887   -1.0240 H   0  0  0  0  0  0  0  0  0  0  0  0
   -1.4100   -0.7713    1.0732 H   0  0  0  0  0  0  0  0  0  0  0  0
   -2.1002   -3.1256   -0.7357 H   0  0  0  0  0  0  0  0  0  0  0  0
    1.9622   -3.4398   -0.4839 H   0  0  0  0  0  0  0  0  0  0  0  0
    3.3850   -0.8647   -1.1436 H   0  0  0  0  0  0  0  0  0  0  0  0
    3.1796    0.7987    1.3847 H   0  0  0  0  0  0  0  0  0  0  0  0
    2.4272    2.0895   -1.2235 H   0  0  0  0  0  0  0  0  0  0  0  0
    1.0124    1.9148    1.5147 H   0  0  0  0  0  0  0  0  0  0  0  0
   -0.0698   -2.8856    1.1135 H   0  0  0  0  0  0  0  0  0  0  0  0
   -0.1777   -3.9916   -0.1967 H   0  0  0  0  0  0  0  0  0  0  0  0
    3.2231    3.0297    1.2828 H   0  0  0  0  0  0  0  0  0  0  0  0
    2.6730    3.9413   -0.1219 H   0  0  0  0  0  0  0  0  0  0  0  0
    1.5688    4.1494    2.6972 H   0  0  0  0  0  0  0  0  0  0  0  0
    2.8205    5.1919    1.9747 H   0  0  0  0  0  0  0  0  0  0  0  0
    1.1608    5.2078    1.3081 H   0  0  0  0  0  0  0  0  0  0  0  0
   -1.3302    2.4912   -2.2332 H   0  0  0  0  0  0  0  0  0  0  0  0
   -2.6924    1.3888   -2.3782 H   0  0  0  0  0  0  0  0  0  0  0  0
   -2.9225    3.0090   -1.6928 H   0  0  0  0  0  0  0  0  0  0  0  0
   -4.5089    1.2777   -1.1270 H   0  0  0  0  0  0  0  0  0  0  0  0
   -5.5038   -0.7404   -0.0728 H   0  0  0  0  0  0  0  0  0  0  0  0
   -4.6972   -2.2861    0.1444 H   0  0  0  0  0  0  0  0  0  0  0  0
   -4.8273   -1.1561    1.5265 H   0  0  0  0  0  0  0  0  0  0  0  0
   -1.8289   -2.8175    1.9851 H   0  0  0  0  0  0  0  0  0  0  0  0
   -0.9609   -1.9408   -2.6443 H   0  0  0  0  0  0  0  0  0  0  0  0
   -2.2899   -1.0139   -2.2393 H   0  0  0  0  0  0  0  0  0  0  0  0
   -0.8647   -0.5374   -1.5302 H   0  0  0  0  0  0  0  0  0  0  0  0
    2.2569   -1.6827   -2.3770 H   0  0  0  0  0  0  0  0  0  0  0  0
    0.8952   -2.7728   -2.6590 H   0  0  0  0  0  0  0  0  0  0  0  0
    0.7079   -1.2332   -1.9979 H   0  0  0  0  0  0  0  0  0  0  0  0
    4.5108   -2.5587    0.1728 H   0  0  0  0  0  0  0  0  0  0  0  0
    5.4409   -1.0676   -0.0261 H   0  0  0  0  0  0  0  0  0  0  0  0
    4.6330   -1.4183    1.5271 H   0  0  0  0  0  0  0  0  0  0  0  0
    4.6976    1.0870   -1.0050 H   0  0  0  0  0  0  0  0  0  0  0  0
    0.2654    1.1860   -1.4584 H   0  0  0  0  0  0  0  0  0  0  0  0
    1.5848    0.1717   -1.6640 H   0  0  0  0  0  0  0  0  0  0  0  0
    0.5861    0.0776   -0.0889 H   0  0  0  0  0  0  0  0  0  0  0  0
  1  2  1  0  0  0  0
  1 16  1  0  0  0  0
  1 17  2  0  0  0  0
  2  3  1  0  0  0  0
  2 18  1  0  0  0  0
  2 28  1  6  0  0  0
  3  4  1  0  0  0  0
  3 29  1  1  0  0  0
  3 19  1  0  0  0  0
  4  5  1  0  0  0  0
  4 20  1  0  0  0  0
  4 30  1  6  0  0  0
  5  6  1  0  0  0  0
  5 31  1  1  0  0  0
  5 21  1  0  0  0  0
  6  7  1  0  0  0  0
  6 32  1  6  0  0  0
  6 22  1  0  0  0  0
  7  8  1  0  0  0  0
  7 38  1  0  0  0  0
  7 39  1  0  0  0  0
  8  9  1  0  0  0  0
  8 33  1  1  0  0  0
  8 23  1  0  0  0  0
  9 10  1  0  0  0  0
  9 24  2  0  0  0  0
 10 11  1  0  0  0  0
 10 25  1  0  0  0  0
 10 34  1  6  0  0  0
 11 12  1  0  0  0  0
 11 35  1  1  0  0  0
 11 26  1  0  0  0  0
 12 13  1  0  0  0  0
 12 36  1  6  0  0  0
 12 27  1  0  0  0  0
 13 16  1  0  0  0  0
 13 37  1  1  0  0  0
 13 14  1  0  0  0  0
 14 15  1  0  0  0  0
 14 40  1  0  0  0  0
 14 41  1  0  0  0  0
 15 42  1  0  0  0  0
 15 43  1  0  0  0  0
 15 44  1  0  0  0  0
 18 45  1  0  0  0  0
 18 46  1  0  0  0  0
 18 47  1  0  0  0  0
 19 48  1  0  0  0  0
 20 49  1  0  0  0  0
 20 50  1  0  0  0  0
 20 51  1  0  0  0  0
 21 52  1  0  0  0  0
 22 53  1  0  0  0  0
 22 54  1  0  0  0  0
 22 55  1  0  0  0  0
 23 56  1  0  0  0  0
 23 57  1  0  0  0  0
 23 58  1  0  0  0  0
 25 59  1  0  0  0  0
 25 60  1  0  0  0  0
 25 61  1  0  0  0  0
 26 62  1  0  0  0  0
 27 63  1  0  0  0  0
 27 64  1  0  0  0  0
 27 65  1  0  0  0  0
M  END
>  <DRUGBANK_ID>
DB04070

>  <SECONDARY_ACCESSION_NUMBERS>
EXPT01153

>  <COMMON_NAME>
6-Deoxyerythronolide B

$$$$
