ZTW
 OpenBabel10282417173D

 27 29  0  0  0  0  0  0  0  0999 V2000
   -0.7947   -1.7769   -0.0232 C   0  0  0  0  0  0  0  0  0  0  0  0
   -2.0315   -1.1286   -0.0200 C   0  0  0  0  0  0  0  0  0  0  0  0
   -2.0763    0.2558   -0.0131 C   0  0  0  0  0  0  0  0  0  0  0  0
   -3.2723    0.9153    0.0117 O   0  0  0  0  0  0  0  0  0  0  0  0
   -0.9117    1.0244   -0.0220 C   0  0  0  0  0  0  0  0  0  0  0  0
    0.3340    0.3621   -0.0077 C   0  0  0  0  0  0  0  0  0  0  0  0
    1.9128    1.0667    0.0209 S   0  0  0  0  0  0  0  0  0  0  0  0
    2.6894   -0.4556    0.0607 C   0  0  0  0  0  0  0  0  0  0  0  0
    4.1512   -0.5762    0.1062 C   0  0  0  0  0  0  0  0  0  0  0  0
    4.8988   -0.0624    1.1759 C   0  0  0  0  0  0  0  0  0  0  0  0
    6.2839   -0.2691    1.2454 C   0  0  0  0  0  0  0  0  0  0  0  0
    6.9202   -0.9907    0.2396 C   0  0  0  0  0  0  0  0  0  0  0  0
    8.2620   -1.2326    0.2652 O   0  0  0  0  0  0  0  0  0  0  0  0
    6.1985   -1.5010   -0.8302 C   0  0  0  0  0  0  0  0  0  0  0  0
    4.8175   -1.2991   -0.8954 C   0  0  0  0  0  0  0  0  0  0  0  0
    0.4097   -1.0333   -0.0068 C   0  0  0  0  0  0  0  0  0  0  0  0
    1.7695   -1.4808    0.0210 C   0  0  0  0  0  0  0  0  0  0  0  0
   -0.7553   -2.8633   -0.0254 H   0  0  0  0  0  0  0  0  0  0  0  0
   -2.9383   -1.7254   -0.0201 H   0  0  0  0  0  0  0  0  0  0  0  0
   -3.9889    0.2608    0.0640 H   0  0  0  0  0  0  0  0  0  0  0  0
   -0.9703    2.1087   -0.0252 H   0  0  0  0  0  0  0  0  0  0  0  0
    4.4045    0.4807    1.9790 H   0  0  0  0  0  0  0  0  0  0  0  0
    6.8386    0.1283    2.0892 H   0  0  0  0  0  0  0  0  0  0  0  0
    8.6403   -0.8387    1.0675 H   0  0  0  0  0  0  0  0  0  0  0  0
    6.7065   -2.0627   -1.6093 H   0  0  0  0  0  0  0  0  0  0  0  0
    4.2642   -1.7158   -1.7334 H   0  0  0  0  0  0  0  0  0  0  0  0
    2.0562   -2.5255    0.0350 H   0  0  0  0  0  0  0  0  0  0  0  0
  1  2  2  0  0  0  0
  1 16  1  0  0  0  0
  1 18  1  0  0  0  0
  2  3  1  0  0  0  0
  2 19  1  0  0  0  0
  3  4  1  0  0  0  0
  3  5  2  0  0  0  0
  4 20  1  0  0  0  0
  5  6  1  0  0  0  0
  5 21  1  0  0  0  0
  6  7  1  0  0  0  0
  6 16  2  0  0  0  0
  7  8  1  0  0  0  0
  8  9  1  0  0  0  0
  8 17  2  0  0  0  0
  9 10  2  0  0  0  0
  9 15  1  0  0  0  0
 10 11  1  0  0  0  0
 10 22  1  0  0  0  0
 11 12  2  0  0  0  0
 11 23  1  0  0  0  0
 12 13  1  0  0  0  0
 12 14  1  0  0  0  0
 13 24  1  0  0  0  0
 14 15  2  0  0  0  0
 14 25  1  0  0  0  0
 15 26  1  0  0  0  0
 16 17  1  0  0  0  0
 17 27  1  0  0  0  0
M  END
>  <DRUGBANK_ID>
DB08773

>  <COMMON_NAME>
2-(4-hydroxyphenyl)benzo[b]thiophen-6-ol

>  <CAS_NUMBER>
63676-22-2

>  <UNII>
8ZK5PJ1CM3

>  <SYNONYMS>
2-(4-hydroxyphenyl)benzo(b)thiophene-6-ol; Raloxifene core

$$$$
