
 OpenBabel10282417153D

 75 74  0  0  0  0  0  0  0  0999 V2000
    1.4667   -0.3129    0.5018 C   0  0  0  0  0  0  0  0  0  0  0  0
    0.7568   -1.4980    0.1981 O   0  0  0  0  0  0  0  0  0  0  0  0
    1.0898   -1.9857   -1.1065 C   0  0  0  0  0  0  0  0  0  0  0  0
    0.4471   -1.2303   -2.3089 C   0  0  0  0  0  0  0  0  0  0  0  0
    0.8140    0.1506   -2.4828 O   0  0  0  0  0  0  0  0  0  0  0  0
    0.2221    1.0716   -1.6643 C   0  0  0  0  0  0  0  0  0  0  0  0
   -0.8061    0.9645   -1.0554 O   0  0  0  0  0  0  0  0  0  0  0  0
    1.1407    2.0503   -1.3644 N   0  0  0  0  0  0  0  0  0  0  0  0
    2.1162    2.4839   -2.3008 C   0  0  0  0  0  0  0  0  0  0  0  0
    1.4747    3.6730   -2.8882 C   0  0  0  0  0  0  0  0  0  0  0  0
    1.3812    4.7922   -1.7841 C   0  0  0  0  0  0  0  0  0  0  0  0
    2.6636    5.4677   -1.4448 C   0  0  0  0  0  0  0  0  0  0  0  0
    3.3756    6.0339   -2.6938 C   0  0  3  0  0  0  0  0  0  0  0  0
    2.6993    7.3093   -3.4204 C   0  0  0  0  0  0  0  0  0  0  0  0
    3.2645    8.4038   -3.4556 O   0  0  0  0  0  0  0  0  0  0  0  0
    1.4774    7.2183   -4.0696 N   0  0  0  0  0  0  0  0  0  0  0  0
    0.7165    6.0249   -4.1989 C   0  0  0  0  0  0  0  0  0  0  0  0
   -0.5920    5.9568   -3.3468 C   0  0  0  0  0  0  0  0  0  0  0  0
   -1.5084    6.8395   -4.0533 C   0  0  0  0  0  0  0  0  0  0  0  0
   -1.5976    6.2066   -5.4336 C   0  0  0  0  0  0  0  0  0  0  0  0
   -2.4465    4.9187   -5.4212 C   0  0  0  0  0  0  0  0  0  0  0  0
   -3.7825    5.0144   -4.6883 C   0  0  0  0  0  0  0  0  0  0  0  0
   -4.6015    5.9648   -5.3373 O   0  0  0  0  0  0  0  0  0  0  0  0
   -3.8255    7.5093   -5.4103 P   0  0  0  0  0  0  0  0  0  0  0  0
   -3.5391    7.2902   -6.9092 O   0  0  0  0  0  0  0  0  0  0  0  0
   -5.2963    8.1654   -5.6583 O   0  0  0  0  0  0  0  0  0  0  0  0
   -3.0496    9.0538   -5.4833 O   0  0  0  0  0  0  0  0  0  0  0  0
    4.7046    6.2961   -2.1870 N   0  0  0  0  0  0  0  0  0  0  0  0
    5.7402    5.3827   -2.2065 C   0  0  0  0  0  0  0  0  0  0  0  0
    6.6590    5.4542   -1.4145 O   0  0  0  0  0  0  0  0  0  0  0  0
    5.7330    4.6294   -3.3546 O   0  0  0  0  0  0  0  0  0  0  0  0
    7.0096    4.1457   -3.8723 C   0  0  0  0  0  0  0  0  0  0  0  0
    7.8918    5.1550   -4.6757 C   0  0  0  0  0  0  0  0  0  0  0  0
    8.3623    6.2897   -3.9442 O   0  0  0  0  0  0  0  0  0  0  0  0
    7.3242    7.2294   -3.7359 C   0  0  0  0  0  0  0  0  0  0  0  0
    0.8848    0.3422    1.1573 H   0  0  0  0  0  0  0  0  0  0  0  0
    1.6473    0.1942   -0.4113 H   0  0  0  0  0  0  0  0  0  0  0  0
    2.5010   -0.4528    0.8069 H   0  0  0  0  0  0  0  0  0  0  0  0
    2.1831   -2.0217   -1.1880 H   0  0  0  0  0  0  0  0  0  0  0  0
    0.7363   -3.0231   -1.1405 H   0  0  0  0  0  0  0  0  0  0  0  0
    0.8291   -1.7227   -3.2113 H   0  0  0  0  0  0  0  0  0  0  0  0
   -0.6396   -1.3148   -2.3107 H   0  0  0  0  0  0  0  0  0  0  0  0
    0.8745    2.6597   -0.6022 H   0  0  0  0  0  0  0  0  0  0  0  0
    3.0617    2.7686   -1.8361 H   0  0  0  0  0  0  0  0  0  0  0  0
    2.3139    1.7630   -3.0984 H   0  0  0  0  0  0  0  0  0  0  0  0
    2.1136    3.8486   -3.7647 H   0  0  0  0  0  0  0  0  0  0  0  0
    0.4806    3.4376   -3.3058 H   0  0  0  0  0  0  0  0  0  0  0  0
    0.9239    5.7106   -2.0474 H   0  0  0  0  0  0  0  0  0  0  0  0
    0.7138    4.5260   -0.9612 H   0  0  0  0  0  0  0  0  0  0  0  0
    2.4464    6.3047   -0.7635 H   0  0  0  0  0  0  0  0  0  0  0  0
    3.2709    4.7563   -0.8841 H   0  0  0  0  0  0  0  0  0  0  0  0
    3.4950    5.2736   -3.4690 H   0  0  0  0  0  0  0  0  0  0  0  0
    1.1426    8.0448   -4.5527 H   0  0  0  0  0  0  0  0  0  0  0  0
    0.6849    5.5933   -5.1984 H   0  0  0  0  0  0  0  0  0  0  0  0
    1.4580    5.3686   -3.9111 H   0  0  0  0  0  0  0  0  0  0  0  0
   -1.0049    4.9407   -3.2433 H   0  0  0  0  0  0  0  0  0  0  0  0
   -0.6099    6.3632   -2.3252 H   0  0  0  0  0  0  0  0  0  0  0  0
   -2.4400    6.9290   -3.4799 H   0  0  0  0  0  0  0  0  0  0  0  0
   -1.0976    7.8550   -4.0647 H   0  0  0  0  0  0  0  0  0  0  0  0
   -1.7570    7.0594   -6.0712 H   0  0  0  0  0  0  0  0  0  0  0  0
   -0.7153    5.9490   -6.0011 H   0  0  0  0  0  0  0  0  0  0  0  0
   -2.6109    4.6110   -6.4560 H   0  0  0  0  0  0  0  0  0  0  0  0
   -1.8690    4.1119   -4.9526 H   0  0  0  0  0  0  0  0  0  0  0  0
   -4.2946    4.0486   -4.6868 H   0  0  0  0  0  0  0  0  0  0  0  0
   -3.6793    5.3001   -3.6352 H   0  0  0  0  0  0  0  0  0  0  0  0
   -5.5361    7.7300   -6.5192 H   0  0  0  0  0  0  0  0  0  0  0  0
   -3.7611    9.6933   -5.6813 H   0  0  0  0  0  0  0  0  0  0  0  0
    4.7962    7.0636   -1.5337 H   0  0  0  0  0  0  0  0  0  0  0  0
    7.5794    3.6740   -3.0681 H   0  0  0  0  0  0  0  0  0  0  0  0
    6.7395    3.3593   -4.5894 H   0  0  0  0  0  0  0  0  0  0  0  0
    8.7902    4.6260   -5.0228 H   0  0  0  0  0  0  0  0  0  0  0  0
    7.3785    5.5164   -5.5747 H   0  0  0  0  0  0  0  0  0  0  0  0
    7.0977    7.8545   -4.5962 H   0  0  0  0  0  0  0  0  0  0  0  0
    6.4043    6.7021   -3.6675 H   0  0  0  0  0  0  0  0  0  0  0  0
    7.4756    7.7790   -2.8031 H   0  0  0  0  0  0  0  0  0  0  0  0
  1  2  1  0  0  0  0
  1 36  1  0  0  0  0
  1 37  1  0  0  0  0
  1 38  1  0  0  0  0
  2  3  1  0  0  0  0
  3  4  1  0  0  0  0
  3 39  1  0  0  0  0
  3 40  1  0  0  0  0
  4  5  1  0  0  0  0
  4 41  1  0  0  0  0
  4 42  1  0  0  0  0
  5  6  1  0  0  0  0
  6  7  2  0  0  0  0
  6  8  1  0  0  0  0
  8  9  1  0  0  0  0
  8 43  1  0  0  0  0
  9 10  1  0  0  0  0
  9 44  1  0  0  0  0
  9 45  1  0  0  0  0
 10 11  1  0  0  0  0
 10 46  1  0  0  0  0
 10 47  1  0  0  0  0
 11 12  1  0  0  0  0
 11 48  1  0  0  0  0
 11 49  1  0  0  0  0
 12 13  1  0  0  0  0
 12 50  1  0  0  0  0
 12 51  1  0  0  0  0
 13 14  1  0  0  0  0
 13 28  1  0  0  0  0
 13 52  1  0  0  0  0
 14 15  2  0  0  0  0
 14 16  1  0  0  0  0
 16 17  1  0  0  0  0
 16 53  1  0  0  0  0
 17 18  1  0  0  0  0
 17 54  1  0  0  0  0
 17 55  1  0  0  0  0
 18 19  1  0  0  0  0
 18 56  1  0  0  0  0
 18 57  1  0  0  0  0
 19 20  1  0  0  0  0
 19 58  1  0  0  0  0
 19 59  1  0  0  0  0
 20 21  1  0  0  0  0
 20 60  1  0  0  0  0
 20 61  1  0  0  0  0
 21 22  1  0  0  0  0
 21 62  1  0  0  0  0
 21 63  1  0  0  0  0
 22 23  1  0  0  0  0
 22 64  1  0  0  0  0
 22 65  1  0  0  0  0
 23 24  1  0  0  0  0
 24 25  2  0  0  0  0
 24 26  1  0  0  0  0
 24 27  1  0  0  0  0
 26 66  1  0  0  0  0
 27 67  1  0  0  0  0
 28 29  1  0  0  0  0
 28 68  1  0  0  0  0
 29 30  2  0  0  0  0
 29 31  1  0  0  0  0
 31 32  1  0  0  0  0
 32 33  1  0  0  0  0
 32 69  1  0  0  0  0
 32 70  1  0  0  0  0
 33 34  1  0  0  0  0
 33 71  1  0  0  0  0
 33 72  1  0  0  0  0
 34 35  1  0  0  0  0
 35 73  1  0  0  0  0
 35 74  1  0  0  0  0
 35 75  1  0  0  0  0
M  END
>  <DRUGBANK_ID>
DB06293

>  <COMMON_NAME>
Pegnivacogin

>  <CAS_NUMBER>
959716-28-0

>  <UNII>
AYC3D1NPYB

>  <SYNONYMS>
Pegnivacogin

$$$$
