
 OpenBabel10282417103D

 46 47  0  0  0  0  0  0  0  0999 V2000
    0.1035    0.8356   -0.8279 C   0  0  0  0  0  0  0  0  0  0  0  0
   -0.0825    2.2351   -0.5287 N   0  0  0  0  0  0  0  0  0  0  0  0
    1.3373    0.2430   -0.4525 C   0  0  0  0  0  0  0  0  0  0  0  0
    1.3729   -1.1543   -0.2342 C   0  0  0  0  0  0  0  0  0  0  0  0
    0.2303   -1.9457   -0.3619 C   0  0  0  0  0  0  0  0  0  0  0  0
   -0.9423   -1.3799   -0.8243 C   0  0  0  0  0  0  0  0  0  0  0  0
   -0.9794   -0.0225   -1.1595 C   0  0  0  0  0  0  0  0  0  0  0  0
    2.5715    1.0370   -0.0964 C   0  0  0  0  0  0  0  0  0  0  0  0
   -1.1169    3.0662   -0.1845 C   0  0  0  0  0  0  0  0  0  0  0  0
   -0.7086    4.2777   -0.2153 O   0  0  0  0  0  0  0  0  0  0  0  0
   -2.3133    0.5355   -1.4452 C   0  0  0  0  0  0  0  0  0  0  0  0
   -2.6960    2.8033    0.2016 C   0  0  1  0  0  0  0  0  0  0  0  0
   -3.0892    1.9232    1.4402 N   0  0  0  0  0  0  0  0  0  0  0  0
   -2.7015    2.6251    2.6419 C   0  0  0  0  0  0  0  0  0  0  0  0
   -3.3099    3.9859    2.7940 C   0  0  0  0  0  0  0  0  0  0  0  0
   -2.9251    4.8622    1.6185 C   0  0  0  0  0  0  0  0  0  0  0  0
   -3.3510    4.2037    0.3225 C   0  0  0  0  0  0  0  0  0  0  0  0
   -2.6694    0.4948    1.6877 C   0  0  0  0  0  0  0  0  0  0  0  0
   -1.1640    0.2858    1.8708 C   0  0  0  0  0  0  0  0  0  0  0  0
   -0.2425    0.7980    2.9474 C   0  0  0  0  0  0  0  0  0  0  0  0
    0.7778    2.7547   -0.3801 H   0  0  0  0  0  0  0  0  0  0  0  0
    2.2763   -1.6299    0.1406 H   0  0  0  0  0  0  0  0  0  0  0  0
    0.2206   -2.9766   -0.0197 H   0  0  0  0  0  0  0  0  0  0  0  0
   -1.8814   -1.9276   -0.7268 H   0  0  0  0  0  0  0  0  0  0  0  0
    2.7892    1.7625   -0.8849 H   0  0  0  0  0  0  0  0  0  0  0  0
    2.4657    1.5633    0.8602 H   0  0  0  0  0  0  0  0  0  0  0  0
    3.4485    0.3836   -0.0125 H   0  0  0  0  0  0  0  0  0  0  0  0
   -2.3069    1.0137   -0.5117 H   0  0  0  0  0  0  0  0  0  0  0  0
   -2.3624    1.3112   -2.2067 H   0  0  0  0  0  0  0  0  0  0  0  0
   -3.2501   -0.0022   -1.2715 H   0  0  0  0  0  0  0  0  0  0  0  0
   -3.2588    2.4794   -0.6834 H   0  0  0  0  0  0  0  0  0  0  0  0
   -1.6414    2.7981    2.5492 H   0  0  0  0  0  0  0  0  0  0  0  0
   -2.8964    2.0160    3.5337 H   0  0  0  0  0  0  0  0  0  0  0  0
   -2.8810    4.4046    3.7057 H   0  0  0  0  0  0  0  0  0  0  0  0
   -4.3943    3.9075    2.8942 H   0  0  0  0  0  0  0  0  0  0  0  0
   -3.3553    5.8580    1.7061 H   0  0  0  0  0  0  0  0  0  0  0  0
   -1.8369    4.9924    1.6351 H   0  0  0  0  0  0  0  0  0  0  0  0
   -4.4445    4.1234    0.2618 H   0  0  0  0  0  0  0  0  0  0  0  0
   -3.0580    4.8216   -0.5400 H   0  0  0  0  0  0  0  0  0  0  0  0
   -3.1772    0.0551    2.5618 H   0  0  0  0  0  0  0  0  0  0  0  0
   -3.0473   -0.1795    0.9024 H   0  0  0  0  0  0  0  0  0  0  0  0
   -0.8986   -0.7536    1.6830 H   0  0  0  0  0  0  0  0  0  0  0  0
   -0.8049    0.8966    1.0911 H   0  0  0  0  0  0  0  0  0  0  0  0
   -0.5005    0.3969    3.9189 H   0  0  0  0  0  0  0  0  0  0  0  0
    0.7796    0.5048    2.6704 H   0  0  0  0  0  0  0  0  0  0  0  0
   -0.1608    1.8840    2.9796 H   0  0  0  0  0  0  0  0  0  0  0  0
  2  1  1  0  0  0  0
  2 21  1  0  0  0  0
  3  1  2  0  0  0  0
  4  3  1  0  0  0  0
  4 22  1  0  0  0  0
  5  4  2  0  0  0  0
  5 23  1  0  0  0  0
  6  5  1  0  0  0  0
  6 24  1  0  0  0  0
  7  1  1  0  0  0  0
  7  6  2  0  0  0  0
  8  3  1  0  0  0  0
  8 25  1  0  0  0  0
  8 26  1  0  0  0  0
  8 27  1  0  0  0  0
  9  2  1  0  0  0  0
 10  9  2  0  0  0  0
 11  7  1  0  0  0  0
 11 28  1  0  0  0  0
 11 29  1  0  0  0  0
 11 30  1  0  0  0  0
 12  9  1  0  0  0  0
 12 31  1  6  0  0  0
 13 12  1  0  0  0  0
 14 13  1  0  0  0  0
 14 32  1  0  0  0  0
 14 33  1  0  0  0  0
 15 14  1  0  0  0  0
 15 34  1  0  0  0  0
 15 35  1  0  0  0  0
 16 15  1  0  0  0  0
 16 36  1  0  0  0  0
 16 37  1  0  0  0  0
 17 12  1  0  0  0  0
 17 16  1  0  0  0  0
 17 38  1  0  0  0  0
 17 39  1  0  0  0  0
 18 13  1  0  0  0  0
 18 40  1  0  0  0  0
 18 41  1  0  0  0  0
 19 18  1  0  0  0  0
 19 42  1  0  0  0  0
 19 43  1  0  0  0  0
 20 19  1  0  0  0  0
 20 44  1  0  0  0  0
 20 45  1  0  0  0  0
 20 46  1  0  0  0  0
M  END
>  <DRUGBANK_ID>
DB00296

>  <SECONDARY_ACCESSION_NUMBERS>
APRD00492

>  <COMMON_NAME>
Ropivacaine

>  <CAS_NUMBER>
84057-95-4

>  <UNII>
7IO5LYA57N

>  <SYNONYMS>
(S)-(âˆ’)-1-propyl-2',6'-pipecoloxylidide; (S)-ropivacaine; L-N-n-propylpipecolic acid-2,6-xylidide; Ropivacaina; Ropivacaine; Ropivacainum

$$$$
