
 OpenBabel10282417213D

 61 64  0  0  0  0  0  0  0  0999 V2000
    3.4047   -0.3178    1.6379 C   0  0  0  0  0  0  0  0  0  0  0  0
    2.2677    0.7740    1.1905 C   0  0  0  0  0  0  0  0  0  0  0  0
    2.5544    1.7494    0.0546 C   0  0  0  0  0  0  0  0  0  0  0  0
    2.2473    3.0458   -0.3148 C   0  0  0  0  0  0  0  0  0  0  0  0
    1.9155    2.3231   -2.4268 C   0  0  0  0  0  0  0  0  0  0  0  0
    3.5393    1.7050   -1.9417 C   0  0  0  0  0  0  0  0  0  0  0  0
    7.3789    0.5507    0.0724 C   0  0  0  0  0  0  0  0  0  0  0  0
    8.7709   -0.1695    2.6802 C   0  0  0  0  0  0  0  0  0  0  0  0
    6.9288   -0.5090    3.2736 C   0  0  0  0  0  0  0  0  0  0  0  0
    4.9519    0.7243    0.0726 C   0  0  2  0  0  0  0  0  0  0  0  0
    4.8293   -0.1919   -0.5392 H   0  0  0  0  0  0  0  0  0  0  0  0
    6.0542   -0.5939    1.9730 C   0  0  1  0  0  0  0  0  0  0  0  0
    5.8936   -1.6316    1.6841 H   0  0  0  0  0  0  0  0  0  0  0  0
    4.8372    0.2564    1.5632 C   0  0  2  0  0  0  0  0  0  0  0  0
    4.8259    1.0200    2.3239 H   0  0  0  0  0  0  0  0  0  0  0  0
    7.2725    0.0511    1.5068 C   0  0  1  0  0  0  0  0  0  0  0  0
    8.3836   -1.3308    1.9869 C   0  0  1  0  0  0  0  0  0  0  0  0
    1.3464    3.2792   -1.3434 C   0  0  0  0  0  0  0  0  0  0  0  0
    0.8085    4.3645   -1.1941 O   0  0  0  0  0  0  0  0  0  0  0  0
    6.2566    1.4021   -0.3390 C   0  0  1  0  0  0  0  0  0  0  0  0
    6.5739    2.6686    0.1943 O   0  0  0  0  0  0  0  0  0  0  0  0
    8.6031   -2.4069    0.9902 C   0  0  0  0  0  0  0  0  0  0  0  0
    9.5606   -3.2634    1.1214 O   0  0  0  0  0  0  0  0  0  0  0  0
    7.6236   -2.5193   -0.1631 C   0  0  0  0  0  0  0  0  0  0  0  0
    7.9892   -2.1026   -1.4637 O   0  0  0  0  0  0  0  0  0  0  0  0
    8.8114   -2.0255    3.3313 O   0  0  0  0  0  0  0  0  0  0  0  0
    7.3683    1.6204    2.5410 C   0  0  0  0  0  0  0  0  0  0  0  0
    3.9379    1.7786   -0.2950 C   0  0  2  0  0  0  0  0  0  0  0  0
    4.1871    3.0140    0.8280 C   0  0  0  0  0  0  0  0  0  0  0  0
    9.3798   -1.3779   -1.8084 P   0  0  0  0  0  0  0  0  0  0  0  0
   10.0251   -1.0396   -0.3999 O   0  0  0  0  0  0  0  0  0  0  0  0
   10.2731   -1.9687   -2.8314 O   0  0  0  0  0  0  0  0  0  0  0  0
    9.1689    0.1921   -2.0528 O   0  0  0  0  0  0  0  0  0  0  0  0
    3.3456   -1.2406    1.0376 H   0  0  0  0  0  0  0  0  0  0  0  0
    3.2172   -0.6363    2.6718 H   0  0  0  0  0  0  0  0  0  0  0  0
    1.3522    0.2215    0.9636 H   0  0  0  0  0  0  0  0  0  0  0  0
    2.1044    1.3939    2.0742 H   0  0  0  0  0  0  0  0  0  0  0  0
    3.0591    3.6833   -0.9890 H   0  0  0  0  0  0  0  0  0  0  0  0
    2.0249    2.8003   -3.3963 H   0  0  0  0  0  0  0  0  0  0  0  0
    1.2369    1.4605   -2.4487 H   0  0  0  0  0  0  0  0  0  0  0  0
    4.3297    2.2142   -2.5017 H   0  0  0  0  0  0  0  0  0  0  0  0
    3.5576    0.6428   -2.2826 H   0  0  0  0  0  0  0  0  0  0  0  0
    8.2781    1.1596   -0.0525 H   0  0  0  0  0  0  0  0  0  0  0  0
    7.3364   -0.2196   -0.6626 H   0  0  0  0  0  0  0  0  0  0  0  0
    9.7911   -0.3275    3.0710 H   0  0  0  0  0  0  0  0  0  0  0  0
    9.0985    0.5576    1.8767 H   0  0  0  0  0  0  0  0  0  0  0  0
    6.1321   -0.8267    3.9660 H   0  0  0  0  0  0  0  0  0  0  0  0
    7.1254   -1.4964    3.6981 H   0  0  0  0  0  0  0  0  0  0  0  0
    6.2629    1.5594   -1.4198 H   0  0  0  0  0  0  0  0  0  0  0  0
    6.1960    2.7188    1.0803 H   0  0  0  0  0  0  0  0  0  0  0  0
    7.1361   -3.5014   -0.1096 H   0  0  0  0  0  0  0  0  0  0  0  0
    6.7592   -1.9048    0.0557 H   0  0  0  0  0  0  0  0  0  0  0  0
    8.9098   -1.3894    4.1056 H   0  0  0  0  0  0  0  0  0  0  0  0
    6.4195    2.1357    2.6481 H   0  0  0  0  0  0  0  0  0  0  0  0
    7.6020    1.4484    3.6141 H   0  0  0  0  0  0  0  0  0  0  0  0
    8.1718    2.2743    2.1864 H   0  0  0  0  0  0  0  0  0  0  0  0
    4.4241    2.6264    1.8146 H   0  0  0  0  0  0  0  0  0  0  0  0
    4.8098    3.7925    0.4202 H   0  0  0  0  0  0  0  0  0  0  0  0
    3.3275    3.5844    1.2363 H   0  0  0  0  0  0  0  0  0  0  0  0
    9.4781   -0.3479    0.0011 H   0  0  0  0  0  0  0  0  0  0  0  0
   10.0600    0.5876   -1.9002 H   0  0  0  0  0  0  0  0  0  0  0  0
  1  2  1  0  0  0  0
  1 34  1  0  0  0  0
  1 35  1  0  0  0  0
  2  3  1  0  0  0  0
  2 36  1  0  0  0  0
  2 37  1  0  0  0  0
  3  4  2  0  0  0  0
  3 28  1  0  0  0  0
  4 18  1  0  0  0  0
  4 38  1  0  0  0  0
  5  6  1  0  0  0  0
  5 39  1  0  0  0  0
  5 40  1  0  0  0  0
  6 28  1  0  0  0  0
  6 41  1  0  0  0  0
  6 42  1  0  0  0  0
  7 16  1  0  0  0  0
  7 43  1  0  0  0  0
  7 44  1  0  0  0  0
  8  9  1  0  0  0  0
  8 45  1  0  0  0  0
  8 46  1  0  0  0  0
  9 12  1  0  0  0  0
  9 47  1  0  0  0  0
  9 48  1  0  0  0  0
 10 20  1  0  0  0  0
 10 11  1  6  0  0  0
 12 13  1  6  0  0  0
 14  1  1  0  0  0  0
 14 10  1  0  0  0  0
 14 12  1  0  0  0  0
 14 15  1  1  0  0  0
 16 12  1  0  0  0  0
 16 17  1  0  0  0  0
 16 27  1  1  0  0  0
 17  8  1  0  0  0  0
 17 26  1  1  0  0  0
 17 22  1  0  0  0  0
 18  5  1  0  0  0  0
 18 19  2  0  0  0  0
 20  7  1  0  0  0  0
 20 21  1  0  0  0  0
 20 49  1  6  0  0  0
 21 50  1  0  0  0  0
 22 24  1  0  0  0  0
 22 23  2  0  0  0  0
 24 25  1  0  0  0  0
 24 51  1  0  0  0  0
 24 52  1  0  0  0  0
 25 30  1  0  0  0  0
 26 53  1  0  0  0  0
 27 54  1  0  0  0  0
 27 55  1  0  0  0  0
 27 56  1  0  0  0  0
 28 10  1  0  0  0  0
 28 29  1  1  0  0  0
 29 57  1  0  0  0  0
 29 58  1  0  0  0  0
 29 59  1  0  0  0  0
 30 31  1  0  0  0  0
 30 32  2  0  0  0  0
 30 33  1  0  0  0  0
 31 60  1  0  0  0  0
 33 61  1  0  0  0  0
M  END
>  <DRUGBANK_ID>
DB14542

>  <SECONDARY_ACCESSION_NUMBERS>
DBSALT002214

>  <COMMON_NAME>
Hydrocortisone phosphate

>  <CAS_NUMBER>
3863-59-0

>  <UNII>
2Y87E22X71

>  <SYNONYMS>
Cortisol 21-phosphate; Hydrocortisone 21-phosphate

$$$$
