
 OpenBabel10282417153D

 49 51  0  0  0  0  0  0  0  0999 V2000
    0.9426    0.0537    0.1082 C   0  0  0  0  0  0  0  0  0  0  0  0
    0.4465   -1.3609   -0.2659 C   0  0  0  0  0  0  0  0  0  0  0  0
    0.9665   -2.3462    0.7889 C   0  0  0  0  0  0  0  0  0  0  0  0
   -1.0897   -1.3563   -0.2552 C   0  0  0  0  0  0  0  0  0  0  0  0
    0.9270   -1.6953   -1.6493 C   0  0  0  0  0  0  0  0  0  0  0  0
    1.4009   -0.9103   -2.6763 C   0  0  0  0  0  0  0  0  0  0  0  0
    1.6255   -1.6594   -3.7882 N   0  0  0  0  0  0  0  0  0  0  0  0
    1.3262   -2.8854   -3.4092 C   0  0  0  0  0  0  0  0  0  0  0  0
    0.8736   -2.9885   -2.1128 O   0  0  0  0  0  0  0  0  0  0  0  0
    1.5238   -4.1123   -4.2161 C   0  0  0  0  0  0  0  0  0  0  0  0
    2.6779   -5.2814   -3.4876 S   0  0  0  0  0  0  0  0  0  0  0  0
    4.1905   -4.4116   -3.3653 C   0  0  0  0  0  0  0  0  0  0  0  0
    4.5421   -3.0829   -3.2833 C   0  0  0  0  0  0  0  0  0  0  0  0
    5.8937   -2.7953   -3.0576 N   0  0  0  0  0  0  0  0  0  0  0  0
    6.5840   -3.9096   -3.0152 C   0  0  0  0  0  0  0  0  0  0  0  0
    5.6129   -5.2908   -3.3091 S   0  0  0  0  0  0  0  0  0  0  0  0
    7.9681   -3.9255   -2.8012 N   0  0  0  0  0  0  0  0  0  0  0  0
    8.8801   -4.9857   -2.7164 C   0  0  0  0  0  0  0  0  0  0  0  0
   10.0866   -4.7661   -2.5396 O   0  0  0  0  0  0  0  0  0  0  0  0
    8.2978   -6.3896   -2.7021 C   0  0  0  0  0  0  0  0  0  0  0  0
    7.7245   -6.5229   -1.2796 C   0  0  0  0  0  0  0  0  0  0  0  0
    8.2953   -7.7428   -0.5784 C   0  0  0  0  0  0  0  0  0  0  0  0
    7.9562   -8.9439   -1.3336 N   0  0  0  0  0  0  0  0  0  0  0  0
    8.5866   -8.9182   -2.6515 C   0  0  0  0  0  0  0  0  0  0  0  0
    8.1453   -7.7142   -3.4490 C   0  0  0  0  0  0  0  0  0  0  0  0
    0.5938    0.3574    1.0999 H   0  0  0  0  0  0  0  0  0  0  0  0
    0.5822    0.8045   -0.6063 H   0  0  0  0  0  0  0  0  0  0  0  0
    2.0390    0.1006    0.1052 H   0  0  0  0  0  0  0  0  0  0  0  0
    0.6187   -2.0604    1.7901 H   0  0  0  0  0  0  0  0  0  0  0  0
    0.6183   -3.3674    0.6004 H   0  0  0  0  0  0  0  0  0  0  0  0
    2.0619   -2.3655    0.8141 H   0  0  0  0  0  0  0  0  0  0  0  0
   -1.4876   -0.6579   -1.0013 H   0  0  0  0  0  0  0  0  0  0  0  0
   -1.4948   -2.3483   -0.4852 H   0  0  0  0  0  0  0  0  0  0  0  0
   -1.4772   -1.0529    0.7239 H   0  0  0  0  0  0  0  0  0  0  0  0
    1.5794    0.1544   -2.6658 H   0  0  0  0  0  0  0  0  0  0  0  0
    0.5647   -4.6136   -4.3743 H   0  0  0  0  0  0  0  0  0  0  0  0
    1.9046   -3.8365   -5.2066 H   0  0  0  0  0  0  0  0  0  0  0  0
    3.8685   -2.2498   -3.3536 H   0  0  0  0  0  0  0  0  0  0  0  0
    8.3706   -3.0025   -2.6954 H   0  0  0  0  0  0  0  0  0  0  0  0
    7.7410   -6.0073   -3.5491 H   0  0  0  0  0  0  0  0  0  0  0  0
    7.9477   -5.6467   -0.6548 H   0  0  0  0  0  0  0  0  0  0  0  0
    6.6370   -6.6222   -1.2855 H   0  0  0  0  0  0  0  0  0  0  0  0
    9.3805   -7.6506   -0.4605 H   0  0  0  0  0  0  0  0  0  0  0  0
    7.8583   -7.8054    0.4238 H   0  0  0  0  0  0  0  0  0  0  0  0
    8.2738   -9.7660   -0.8237 H   0  0  0  0  0  0  0  0  0  0  0  0
    8.2928   -9.8235   -3.1949 H   0  0  0  0  0  0  0  0  0  0  0  0
    9.6738   -8.9065   -2.5650 H   0  0  0  0  0  0  0  0  0  0  0  0
    7.0573   -7.8561   -3.6287 H   0  0  0  0  0  0  0  0  0  0  0  0
    8.5987   -7.7092   -4.4450 H   0  0  0  0  0  0  0  0  0  0  0  0
  1  2  1  0  0  0  0
  1 26  1  0  0  0  0
  1 27  1  0  0  0  0
  1 28  1  0  0  0  0
  2  3  1  0  0  0  0
  2  4  1  0  0  0  0
  2  5  1  0  0  0  0
  3 29  1  0  0  0  0
  3 30  1  0  0  0  0
  3 31  1  0  0  0  0
  4 32  1  0  0  0  0
  4 33  1  0  0  0  0
  4 34  1  0  0  0  0
  5  6  2  0  0  0  0
  5  9  1  0  0  0  0
  6  7  1  0  0  0  0
  6 35  1  0  0  0  0
  7  8  2  0  0  0  0
  8  9  1  0  0  0  0
  8 10  1  0  0  0  0
 10 11  1  0  0  0  0
 10 36  1  0  0  0  0
 10 37  1  0  0  0  0
 11 12  1  0  0  0  0
 12 13  2  0  0  0  0
 12 16  1  0  0  0  0
 13 14  1  0  0  0  0
 13 38  1  0  0  0  0
 14 15  2  0  0  0  0
 15 16  1  0  0  0  0
 15 17  1  0  0  0  0
 17 18  1  0  0  0  0
 17 39  1  0  0  0  0
 18 19  2  0  0  0  0
 18 20  1  0  0  0  0
 20 21  1  0  0  0  0
 20 25  1  0  0  0  0
 20 40  1  0  0  0  0
 21 22  1  0  0  0  0
 21 41  1  0  0  0  0
 21 42  1  0  0  0  0
 22 23  1  0  0  0  0
 22 43  1  0  0  0  0
 22 44  1  0  0  0  0
 23 24  1  0  0  0  0
 23 45  1  0  0  0  0
 24 25  1  0  0  0  0
 24 46  1  0  0  0  0
 24 47  1  0  0  0  0
 25 48  1  0  0  0  0
 25 49  1  0  0  0  0
M  END
>  <DRUGBANK_ID>
DB05969

>  <COMMON_NAME>
SNS-032

>  <CAS_NUMBER>
345627-80-7

>  <UNII>
9979I93686

$$$$
