
 OpenBabel10282417123D

 16 15  0  0  0  0  0  0  0  0999 V2000
    0.9708    0.0917   -0.0170 C   0  0  0  0  0  0  0  0  0  0  0  0
    0.5596    0.9844    1.1422 C   0  0  0  0  0  0  0  0  0  0  0  0
    1.0213    2.3377    0.9785 O   0  0  0  0  0  0  0  0  0  0  0  0
    2.3619    2.5407    1.0176 C   0  0  0  0  0  0  0  0  0  0  0  0
    3.2096    1.6698    1.1757 O   0  0  0  0  0  0  0  0  0  0  0  0
    2.7241    3.8438    0.8487 N   0  0  0  0  0  0  0  0  0  0  0  0
    1.8454    4.9784    0.7240 C   0  0  0  0  0  0  0  0  0  0  0  0
    0.6168    0.5076   -0.9651 H   0  0  0  0  0  0  0  0  0  0  0  0
    0.5679   -0.9176    0.1049 H   0  0  0  0  0  0  0  0  0  0  0  0
    2.0575    0.0067   -0.0949 H   0  0  0  0  0  0  0  0  0  0  0  0
   -0.5359    1.0284    1.1768 H   0  0  0  0  0  0  0  0  0  0  0  0
    0.8934    0.5839    2.1061 H   0  0  0  0  0  0  0  0  0  0  0  0
    3.7242    3.9933    0.8454 H   0  0  0  0  0  0  0  0  0  0  0  0
    2.0611    5.6668    1.5458 H   0  0  0  0  0  0  0  0  0  0  0  0
    2.0632    5.4788   -0.2229 H   0  0  0  0  0  0  0  0  0  0  0  0
    0.7943    4.6884    0.7564 H   0  0  0  0  0  0  0  0  0  0  0  0
  1  2  1  0  0  0  0
  1  8  1  0  0  0  0
  1  9  1  0  0  0  0
  1 10  1  0  0  0  0
  2  3  1  0  0  0  0
  2 11  1  0  0  0  0
  2 12  1  0  0  0  0
  3  4  1  0  0  0  0
  4  5  2  0  0  0  0
  4  6  1  0  0  0  0
  6  7  1  0  0  0  0
  6 13  1  0  0  0  0
  7 14  1  0  0  0  0
  7 15  1  0  0  0  0
  7 16  1  0  0  0  0
M  END
>  <DRUGBANK_ID>
DB02856

>  <SECONDARY_ACCESSION_NUMBERS>
EXPT01337

>  <COMMON_NAME>
Ethyl N-methylcarbamate

>  <CAS_NUMBER>
105-40-8

>  <UNII>
1W34GCF5CS

>  <SYNONYMS>
Ethyl methylcarbamate; Ethyl N-methylcarbamate; Ethyl-N-methylcarbamate; N-Methyl urethan; N-Methylurethan; N-Methylurethane

$$$$
