
 OpenBabel10282417203D

 42 45  0  0  1  0  0  0  0  0999 V2000
    1.5751    1.3673    1.0436 C   0  0  0  0  0  0  0  0  0  0  0  0
   -0.7782    3.2635   -2.1273 C   0  0  0  0  0  0  0  0  0  0  0  0
    5.1067    0.2273   -0.6758 C   0  0  0  0  0  0  0  0  0  0  0  0
    4.4590    0.0953    1.7107 C   0  0  0  0  0  0  0  0  0  0  0  0
    5.1468    2.8931   -0.3246 C   0  0  0  0  0  0  0  0  0  0  0  0
    4.5007    2.7401    1.7145 C   0  0  0  0  0  0  0  0  0  0  0  0
    1.6975    0.4577   -0.1739 C   0  0  2  0  0  0  0  0  0  0  0  0
   -1.6013    2.0613   -1.6689 C   0  0  2  0  0  0  0  0  0  0  0  0
    4.6679   -0.7656    0.4563 C   0  0  3  0  0  0  0  0  0  0  0  0
   -0.8664    1.3527   -0.5453 C   0  0  2  0  0  0  0  0  0  0  0  0
    0.3886    0.5320   -0.9419 C   0  0  2  0  0  0  0  0  0  0  0  0
    0.5308   -1.5577    0.0928 C   0  0  0  0  0  0  0  0  0  0  0  0
    1.7756   -1.0176    0.1313 C   0  0  0  0  0  0  0  0  0  0  0  0
   -1.4105    0.0233   -0.0012 C   0  0  0  0  0  0  0  0  0  0  0  0
    0.0880   -3.0356    0.4983 C   0  0  0  0  0  0  0  0  0  0  0  0
    4.7986    3.6874    0.7575 N   0  0  0  0  0  0  0  0  0  0  0  0
    5.0178    1.5345   -0.0307 N   0  0  0  0  0  0  0  0  0  0  0  0
    4.6696    1.4503    1.2306 N   0  3  0  0  0  0  0  0  0  0  0  0
   -0.3523   -0.6633   -0.5266 N   0  0  0  0  0  0  0  0  0  0  0  0
   -1.8288    1.2165   -2.7904 O   0  0  0  0  0  0  0  0  0  0  0  0
   -2.3324   -0.2233    0.7569 O   0  0  0  0  0  0  0  0  0  0  0  0
   -1.1221   -3.3172    0.2807 O   0  0  0  0  0  0  0  0  0  0  0  0
    0.9950   -3.7536    1.0110 O   0  5  0  0  0  0  0  0  0  0  0  0
    3.2684   -1.8989    0.1903 S   0  0  0  0  0  0  0  0  0  0  0  0
    2.5105    0.7690   -0.8286 H   0  0  0  0  0  0  0  0  0  0  0  0
   -2.5777    2.4081   -1.3170 H   0  0  0  0  0  0  0  0  0  0  0  0
   -0.7078    2.0777    0.2666 H   0  0  0  0  0  0  0  0  0  0  0  0
    0.6137    0.5338   -2.0137 H   0  0  0  0  0  0  0  0  0  0  0  0
    1.4019    2.3996    0.7294 H   0  0  0  0  0  0  0  0  0  0  0  0
    0.7969    1.0419    1.7395 H   0  0  0  0  0  0  0  0  0  0  0  0
    2.4505    1.4188    1.6539 H   0  0  0  0  0  0  0  0  0  0  0  0
    0.2117    2.9525   -2.4817 H   0  0  0  0  0  0  0  0  0  0  0  0
   -1.2680    3.7714   -2.9634 H   0  0  0  0  0  0  0  0  0  0  0  0
   -0.6302    3.9801   -1.3126 H   0  0  0  0  0  0  0  0  0  0  0  0
    6.1535    0.0607   -0.9560 H   0  0  0  0  0  0  0  0  0  0  0  0
    4.4934    0.1788   -1.5801 H   0  0  0  0  0  0  0  0  0  0  0  0
    3.4703   -0.0456    2.1442 H   0  0  0  0  0  0  0  0  0  0  0  0
    5.1745   -0.1068    2.5061 H   0  0  0  0  0  0  0  0  0  0  0  0
    5.4930    3.2563   -1.2823 H   0  0  0  0  0  0  0  0  0  0  0  0
    4.0665    2.8828    2.6944 H   0  0  0  0  0  0  0  0  0  0  0  0
    5.5131   -1.4388    0.6396 H   0  0  0  0  0  0  0  0  0  0  0  0
   -1.0004    0.8092   -3.0894 H   0  0  0  0  0  0  0  0  0  0  0  0
  1 29  1  0  0  0  0
  1 30  1  0  0  0  0
  1 31  1  0  0  0  0
  2 32  1  0  0  0  0
  2 33  1  0  0  0  0
  2 34  1  0  0  0  0
  3 35  1  0  0  0  0
  3 36  1  0  0  0  0
  4 37  1  0  0  0  0
  4 38  1  0  0  0  0
  5 39  1  0  0  0  0
  6 40  1  0  0  0  0
  7  1  1  0  0  0  0
  7 25  1  6  0  0  0
  8  2  1  0  0  0  0
  8 20  1  0  0  0  0
  8 26  1  1  0  0  0
  9  3  1  0  0  0  0
  9  4  1  0  0  0  0
  9 41  1  0  0  0  0
 10 27  1  1  0  0  0
 10  8  1  0  0  0  0
 11  7  1  0  0  0  0
 11 10  1  0  0  0  0
 11 28  1  6  0  0  0
 13  7  1  0  0  0  0
 13 12  2  0  0  0  0
 14 10  1  0  0  0  0
 15 12  1  0  0  0  0
 16  5  2  0  0  0  0
 16  6  1  0  0  0  0
 17  3  1  0  0  0  0
 17  5  1  0  0  0  0
 18  4  1  0  0  0  0
 18  6  2  0  0  0  0
 18 17  1  0  0  0  0
 19 11  1  0  0  0  0
 19 12  1  0  0  0  0
 19 14  1  0  0  0  0
 20 42  1  0  0  0  0
 21 14  2  0  0  0  0
 22 15  2  0  0  0  0
 23 15  1  0  0  0  0
 24  9  1  0  0  0  0
 24 13  1  0  0  0  0
M  CHG  2  18   1  23  -1
M  END
>  <DRUGBANK_ID>
DB13028

>  <COMMON_NAME>
Biapenem

>  <CAS_NUMBER>
120410-24-4

>  <UNII>
YR5U3L9ZH1

>  <SYNONYMS>
Biapenem

$$$$
