
 OpenBabel10282417193D

 61 66  0  0  1  0  0  0  0  0999 V2000
   -2.2815   -4.4957   -4.5913 C   0  0  0  0  0  0  0  0  0  0  0  0
   -3.8863   -0.7273   -0.2707 C   0  0  0  0  0  0  0  0  0  0  0  0
   -3.5414    3.8717   -2.1752 C   0  0  0  0  0  0  0  0  0  0  0  0
   -3.1616    3.1138   -1.0894 C   0  0  0  0  0  0  0  0  0  0  0  0
   -3.4459    3.3517   -3.4810 C   0  0  0  0  0  0  0  0  0  0  0  0
   -2.5781    1.8829   -1.3044 C   0  0  0  0  0  0  0  0  0  0  0  0
   -2.0705   -6.7686   -1.9126 C   0  0  0  0  0  0  0  0  0  0  0  0
   -2.2326   -5.6647   -0.9567 C   0  0  0  0  0  0  0  0  0  0  0  0
   -2.8524   -2.7148    0.1196 C   0  0  0  0  0  0  0  0  0  0  0  0
   -1.7358   -1.6316   -1.0550 C   0  0  0  0  0  0  0  0  0  0  0  0
   -2.9657   -6.5723   -6.0312 C   0  0  0  0  0  0  0  0  0  0  0  0
   -4.3506   -3.1586   -3.3370 C   0  0  0  0  0  0  0  0  0  0  0  0
   -4.1030   -6.0842   -4.9571 C   0  0  0  0  0  0  0  0  0  0  0  0
   -4.7376   -2.0918   -2.3377 C   0  0  0  0  0  0  0  0  0  0  0  0
   -2.3942   -7.9630   -4.0086 C   0  0  0  0  0  0  0  0  0  0  0  0
   -2.5699    0.0514   -4.3885 C   0  0  0  0  0  0  0  0  0  0  0  0
   -2.5845   -6.7365   -3.1586 C   0  0  0  0  0  0  0  0  0  0  0  0
   -1.8065   -7.4474   -5.3137 C   0  0  1  0  0  0  0  0  0  0  0  0
   -2.6599   -4.4678   -1.7962 C   0  0  1  0  0  0  0  0  0  0  0  0
   -2.5056   -3.2637   -1.1419 C   0  0  1  0  0  0  0  0  0  0  0  0
   -3.8753   -4.5555   -2.7336 C   0  0  1  0  0  0  0  0  0  0  0  0
   -3.0446    2.0091   -3.6744 C   0  0  0  0  0  0  0  0  0  0  0  0
   -2.6407    1.2736   -2.5641 C   0  0  0  0  0  0  0  0  0  0  0  0
   -2.3878   -1.2235   -2.1832 C   0  0  0  0  0  0  0  0  0  0  0  0
   -3.2673   -5.4876   -3.8149 C   0  0  2  0  0  0  0  0  0  0  0  0
   -3.5201   -1.8187   -1.5158 C   0  0  2  0  0  0  0  0  0  0  0  0
   -2.9359    1.2514   -4.8091 N   0  0  0  0  0  0  0  0  0  0  0  0
   -2.4275   -0.0408   -2.9929 N   0  0  0  0  0  0  0  0  0  0  0  0
   -1.3411   -8.4998   -6.1465 O   0  0  0  0  0  0  0  0  0  0  0  0
   -0.9033   -6.8545   -5.0808 H   0  0  0  0  0  0  0  0  0  0  0  0
   -1.7467   -4.3820   -2.4067 H   0  0  0  0  0  0  0  0  0  0  0  0
   -1.5095   -3.4721   -0.5607 H   0  0  0  0  0  0  0  0  0  0  0  0
   -4.7095   -4.9672   -2.1549 H   0  0  0  0  0  0  0  0  0  0  0  0
   -1.7511   -3.7222   -4.0379 H   0  0  0  0  0  0  0  0  0  0  0  0
   -2.8646   -3.9420   -5.3447 H   0  0  0  0  0  0  0  0  0  0  0  0
   -1.4501   -5.0041   -5.0499 H   0  0  0  0  0  0  0  0  0  0  0  0
   -3.1894    0.0578   -0.4060 H   0  0  0  0  0  0  0  0  0  0  0  0
   -4.8772   -0.3132   -0.2746 H   0  0  0  0  0  0  0  0  0  0  0  0
   -3.5399   -0.9334    0.7625 H   0  0  0  0  0  0  0  0  0  0  0  0
   -3.8612    4.8929   -1.9955 H   0  0  0  0  0  0  0  0  0  0  0  0
   -3.2448    3.4659   -0.0650 H   0  0  0  0  0  0  0  0  0  0  0  0
   -3.6938    3.9864   -4.3245 H   0  0  0  0  0  0  0  0  0  0  0  0
   -2.1318    1.4052   -0.4437 H   0  0  0  0  0  0  0  0  0  0  0  0
   -1.4708   -7.6008   -1.5642 H   0  0  0  0  0  0  0  0  0  0  0  0
   -2.9067   -5.9529   -0.1508 H   0  0  0  0  0  0  0  0  0  0  0  0
   -1.2665   -5.4371   -0.4670 H   0  0  0  0  0  0  0  0  0  0  0  0
   -3.8478   -3.2889   -0.0359 H   0  0  0  0  0  0  0  0  0  0  0  0
   -2.5298   -2.8769    1.0960 H   0  0  0  0  0  0  0  0  0  0  0  0
   -0.7730   -2.0570   -1.4696 H   0  0  0  0  0  0  0  0  0  0  0  0
   -3.3402   -7.0363   -6.9438 H   0  0  0  0  0  0  0  0  0  0  0  0
   -2.4819   -5.6911   -6.4832 H   0  0  0  0  0  0  0  0  0  0  0  0
   -5.1578   -3.2992   -4.0542 H   0  0  0  0  0  0  0  0  0  0  0  0
   -3.5526   -2.6803   -3.9120 H   0  0  0  0  0  0  0  0  0  0  0  0
   -4.7232   -6.9507   -4.6698 H   0  0  0  0  0  0  0  0  0  0  0  0
   -4.8606   -5.3354   -5.2382 H   0  0  0  0  0  0  0  0  0  0  0  0
   -5.6149   -2.3771   -1.7511 H   0  0  0  0  0  0  0  0  0  0  0  0
   -4.9981   -1.1259   -2.8004 H   0  0  0  0  0  0  0  0  0  0  0  0
   -3.2905   -8.5306   -4.2827 H   0  0  0  0  0  0  0  0  0  0  0  0
   -1.8615   -8.7017   -3.3981 H   0  0  0  0  0  0  0  0  0  0  0  0
   -2.4214   -0.7896   -5.0595 H   0  0  0  0  0  0  0  0  0  0  0  0
   -0.6691   -9.0029   -5.6473 H   0  0  0  0  0  0  0  0  0  0  0  0
  1 34  1  0  0  0  0
  1 35  1  0  0  0  0
  1 36  1  0  0  0  0
  2 37  1  0  0  0  0
  2 38  1  0  0  0  0
  2 39  1  0  0  0  0
  3 40  1  0  0  0  0
  4  3  2  0  0  0  0
  4 41  1  0  0  0  0
  5  3  1  0  0  0  0
  5 42  1  0  0  0  0
  6  4  1  0  0  0  0
  6 43  1  0  0  0  0
  7 44  1  0  0  0  0
  8  7  1  0  0  0  0
  8 45  1  0  0  0  0
  8 46  1  0  0  0  0
  9 47  1  0  0  0  0
  9 48  1  0  0  0  0
 10  9  1  0  0  0  0
 10 49  1  0  0  0  0
 11 50  1  0  0  0  0
 11 51  1  0  0  0  0
 12 52  1  0  0  0  0
 12 53  1  0  0  0  0
 13 11  1  0  0  0  0
 13 54  1  0  0  0  0
 13 55  1  0  0  0  0
 14 12  1  0  0  0  0
 14 56  1  0  0  0  0
 14 57  1  0  0  0  0
 15 58  1  0  0  0  0
 15 59  1  0  0  0  0
 16 60  1  0  0  0  0
 17  7  2  0  0  0  0
 17 15  1  0  0  0  0
 18 11  1  0  0  0  0
 18 15  1  0  0  0  0
 18 29  1  0  0  0  0
 18 30  1  1  0  0  0
 19  8  1  0  0  0  0
 19 31  1  1  0  0  0
 20  9  1  0  0  0  0
 20 19  1  0  0  0  0
 20 32  1  6  0  0  0
 21 12  1  0  0  0  0
 21 19  1  0  0  0  0
 21 33  1  6  0  0  0
 22  5  2  0  0  0  0
 23  6  2  0  0  0  0
 23 22  1  0  0  0  0
 24 10  2  0  0  0  0
 25 13  1  0  0  0  0
 25 17  1  0  0  0  0
 25 21  1  0  0  0  0
 25  1  1  1  0  0  0
 26 14  1  0  0  0  0
 26 20  1  0  0  0  0
 26 24  1  0  0  0  0
 26  2  1  1  0  0  0
 27 16  2  0  0  0  0
 27 22  1  0  0  0  0
 28 16  1  0  0  0  0
 28 23  1  0  0  0  0
 28 24  1  0  0  0  0
 29 61  1  0  0  0  0
M  END
>  <DRUGBANK_ID>
DB12415

>  <COMMON_NAME>
Galeterone

>  <CAS_NUMBER>
851983-85-2

>  <UNII>
WA33E149SW

>  <SYNONYMS>
Galeterone

$$$$
