
 OpenBabel10282417233D

 59 63  0  0  1  0  0  0  0  0999 V2000
    0.2408    2.0588    1.7853 Na  0  3  0  0  0  0  0  0  0  0  0  0
    2.2530   -1.9225   -1.6807 Na  0  3  0  0  0  0  0  0  0  0  0  0
   -4.6411    3.6546    0.9989 H   0  0  0  0  0  0  0  0  0  0  0  0
   -4.3117    3.8434   -0.0287 C   0  0  2  0  0  0  0  0  0  0  0  0
   -2.5437    3.5048    0.3016 C   0  0  0  0  0  0  0  0  0  0  0  0
   -2.4875    4.7472    1.0577 C   0  0  2  0  0  0  0  0  0  0  0  0
   -1.6658    5.4429    0.1745 O   0  0  0  0  0  0  0  0  0  0  0  0
   -2.8216    6.2885    0.0820 C   0  0  1  0  0  0  0  0  0  0  0  0
   -2.2450    7.7702    0.8711 C   0  0  2  0  0  0  0  0  0  0  0  0
   -2.0610    9.2244    0.5191 O   0  0  0  0  0  0  0  0  0  0  0  0
   -2.0852    9.6404   -0.9133 C   0  0  0  0  0  0  0  0  0  0  0  0
   -2.0778    8.5467   -1.8647 O   0  0  0  0  0  0  0  0  0  0  0  0
   -0.4549    7.9482   -1.8345 P   0  0  0  0  0  0  0  0  0  0  0  0
   -0.3701    8.4738   -3.2825 O   0  5  0  0  0  0  0  0  0  0  0  0
    0.0072    8.8559   -0.6740 O   0  5  0  0  0  0  0  0  0  0  0  0
    0.9976    7.4125   -1.8076 O   0  0  0  0  0  0  0  0  0  0  0  0
   -3.6915    7.9425    0.8704 C   0  0  1  0  0  0  0  0  0  0  0  0
   -3.5742    8.1022   -0.5465 O   0  0  0  0  0  0  0  0  0  0  0  0
   -4.6305    8.6977   -0.0948 C   0  0  1  0  0  0  0  0  0  0  0  0
   -5.3997    7.8536   -0.9459 C   0  0  2  0  0  0  0  0  0  0  0  0
   -4.7979    7.1308   -2.0352 O   0  0  0  0  0  0  0  0  0  0  0  0
   -4.4533    6.2639   -0.9021 C   0  0  2  0  0  0  0  0  0  0  0  0
   -5.4875    5.2602   -0.9497 C   0  0  2  0  0  0  0  0  0  0  0  0
   -7.1273    6.1601   -1.0744 C   0  0  0  0  0  0  0  0  0  0  0  0
   -5.9944    4.7667   -2.4274 C   0  0  0  0  0  0  0  0  0  0  0  0
   -6.6336    3.5950   -1.8359 C   0  0  0  0  0  0  0  0  0  0  0  0
   -5.5680    2.5579   -1.6927 C   0  0  0  0  0  0  0  0  0  0  0  0
   -4.5602    2.6197   -0.7988 C   0  0  0  0  0  0  0  0  0  0  0  0
   -4.5076    1.3195   -0.0084 C   0  0  0  0  0  0  0  0  0  0  0  0
   -5.1233    0.5159   -0.9722 O   0  0  0  0  0  0  0  0  0  0  0  0
   -6.1446    1.3640   -1.1774 C   0  0  0  0  0  0  0  0  0  0  0  0
   -7.1336    1.4680   -0.4111 O   0  0  0  0  0  0  0  0  0  0  0  0
   -4.4120    6.9006    1.7447 C   0  0  0  0  0  0  0  0  0  0  0  0
   -3.4388    6.6162    2.8982 C   0  0  0  0  0  0  0  0  0  0  0  0
   -5.6472    7.4927    2.3293 C   0  0  0  0  0  0  0  0  0  0  0  0
   -1.4307    3.5862    0.7248 H   0  0  0  0  0  0  0  0  0  0  0  0
   -2.3221    2.4483    0.6637 H   0  0  0  0  0  0  0  0  0  0  0  0
   -2.1741    4.5766    2.1330 H   0  0  0  0  0  0  0  0  0  0  0  0
   -1.3700    7.4722    0.3049 H   0  0  0  0  0  0  0  0  0  0  0  0
   -3.0050   10.2086   -1.0761 H   0  0  0  0  0  0  0  0  0  0  0  0
   -1.3492   10.4299   -1.0842 H   0  0  0  0  0  0  0  0  0  0  0  0
   -4.6421    9.7528   -0.1015 H   0  0  0  0  0  0  0  0  0  0  0  0
   -6.3985    8.1856   -0.8210 H   0  0  0  0  0  0  0  0  0  0  0  0
   -8.0328    5.7915   -1.6653 H   0  0  0  0  0  0  0  0  0  0  0  0
   -7.6187    6.8552   -0.3292 H   0  0  0  0  0  0  0  0  0  0  0  0
   -7.0382    6.9648   -1.9361 H   0  0  0  0  0  0  0  0  0  0  0  0
   -6.8293    5.3310   -2.9787 H   0  0  0  0  0  0  0  0  0  0  0  0
   -5.3669    4.6021   -3.2957 H   0  0  0  0  0  0  0  0  0  0  0  0
   -7.7293    3.6611   -1.7424 H   0  0  0  0  0  0  0  0  0  0  0  0
   -6.7048    3.7327   -0.7433 H   0  0  0  0  0  0  0  0  0  0  0  0
   -5.1692    1.4204    0.8726 H   0  0  0  0  0  0  0  0  0  0  0  0
   -3.6454    0.8018    0.4203 H   0  0  0  0  0  0  0  0  0  0  0  0
   -4.7363    5.9331    1.3316 H   0  0  0  0  0  0  0  0  0  0  0  0
   -3.1002    7.5563    3.3217 H   0  0  0  0  0  0  0  0  0  0  0  0
   -3.8110    5.8594    3.5809 H   0  0  0  0  0  0  0  0  0  0  0  0
   -2.4686    6.2550    2.5864 H   0  0  0  0  0  0  0  0  0  0  0  0
   -6.4290    7.6264    1.5793 H   0  0  0  0  0  0  0  0  0  0  0  0
   -6.0071    6.8158    3.1014 H   0  0  0  0  0  0  0  0  0  0  0  0
   -5.3476    8.4524    2.7436 H   0  0  0  0  0  0  0  0  0  0  0  0
  4  5  1  0  0  0  0
  4 28  1  0  0  0  0
  4  3  1  6  0  0  0
  5 36  1  0  0  0  0
  5 37  1  0  0  0  0
  6  5  1  0  0  0  0
  6  7  1  0  0  0  0
  6 38  1  6  0  0  0
  8  7  1  1  0  0  0
  8  6  1  0  0  0  0
  8  9  1  0  0  0  0
  8 22  1  0  0  0  0
  9 17  1  0  0  0  0
  9 10  1  0  0  0  0
  9 39  1  6  0  0  0
 10 11  1  0  0  0  0
 11 12  1  0  0  0  0
 11 40  1  0  0  0  0
 11 41  1  0  0  0  0
 12 13  1  0  0  0  0
 13 14  1  0  0  0  0
 13 15  1  0  0  0  0
 13 16  2  0  0  0  0
 17 18  1  0  0  0  0
 17 19  1  0  0  0  0
 17 33  1  6  0  0  0
 19 18  1  0  0  0  0
 19 42  1  1  0  0  0
 20 19  1  0  0  0  0
 20 21  1  0  0  0  0
 20 43  1  6  0  0  0
 22 21  1  1  0  0  0
 22 20  1  0  0  0  0
 22 23  1  0  0  0  0
 23  4  1  0  0  0  0
 23 25  1  0  0  0  0
 23 24  1  1  0  0  0
 24 44  1  0  0  0  0
 24 45  1  0  0  0  0
 24 46  1  0  0  0  0
 25 26  1  0  0  0  0
 25 47  1  0  0  0  0
 25 48  1  0  0  0  0
 26 27  1  0  0  0  0
 26 49  1  0  0  0  0
 26 50  1  0  0  0  0
 27 28  2  0  0  0  0
 27 31  1  0  0  0  0
 28 29  1  0  0  0  0
 29 30  1  0  0  0  0
 29 51  1  0  0  0  0
 29 52  1  0  0  0  0
 30 31  1  0  0  0  0
 31 32  2  0  0  0  0
 33 34  1  0  0  0  0
 33 35  1  0  0  0  0
 33 53  1  0  0  0  0
 34 54  1  0  0  0  0
 34 55  1  0  0  0  0
 34 56  1  0  0  0  0
 35 57  1  0  0  0  0
 35 58  1  0  0  0  0
 35 59  1  0  0  0  0
M  CHG  4   1   1   2   1  14  -1  15  -1
M  END
>  <DRUGBANK_ID>
DB17309

>  <COMMON_NAME>
Minnelide

>  <CAS_NUMBER>
1254702-87-8

>  <UNII>
1CIV2UMO40

>  <SYNONYMS>
14-o-phosphonooxymethyltriptolide disodium salt; Trisoxireno(4b,5:6,7:8a,9)phenanthro(1,2-c)furan-1(3h)-one, 3b,4,4a,6,6a,7a,7b,8b,9,10-decahydro-8b-methyl-6a-(1-methylethyl)-6-((phosphonooxy)methoxy)-, sodium salt (1:2), (3bs,4as,5ar,6r,6as,7as,7bs,8as,8bs)-

$$$$
