
 OpenBabel10282417143D

 78 81  0  0  0  0  0  0  0  0999 V2000
    1.2410    0.0640   -2.7379 C   0  0  0  0  0  0  0  0  0  0  0  0
   -3.2014    1.0057   -0.4338 C   0  0  0  0  0  0  0  0  0  0  0  0
    1.7025   -3.5616    1.5081 C   0  0  0  0  0  0  0  0  0  0  0  0
    1.2200   -2.3232    2.8203 C   0  0  0  0  0  0  0  0  0  0  0  0
    0.5164   -3.5898    0.0825 C   0  0  0  0  0  0  0  0  0  0  0  0
    1.3732    4.7449    0.4243 C   0  0  0  0  0  0  0  0  0  0  0  0
    0.4561    3.4602    2.1599 C   0  0  0  0  0  0  0  0  0  0  0  0
    2.0484    5.5244    1.3810 C   0  0  0  0  0  0  0  0  0  0  0  0
    1.2164    4.1642    3.1347 C   0  0  0  0  0  0  0  0  0  0  0  0
   -1.9008   -1.1765    3.9846 C   0  0  0  0  0  0  0  0  0  0  0  0
   -2.6786   -0.6785    1.7504 C   0  0  0  0  0  0  0  0  0  0  0  0
    0.7178    2.3948   -1.5153 C   0  0  0  0  0  0  0  0  0  0  0  0
   -1.3892    2.6110   -0.3320 C   0  0  0  0  0  0  0  0  0  0  0  0
    0.2524    0.9199   -1.9621 C   0  0  1  0  0  0  0  0  0  0  0  0
   -1.6916    1.0987   -0.3934 C   0  0  2  0  0  0  0  0  0  0  0  0
   -0.5855   -1.4872    2.5792 C   0  0  0  0  0  0  0  0  0  0  0  0
   -3.0660   -0.8084    3.2083 C   0  0  3  0  0  0  0  0  0  0  0  0
    0.5933    3.6509    0.7588 C   0  0  0  0  0  0  0  0  0  0  0  0
    1.9943    5.2415    2.7423 C   0  0  0  0  0  0  0  0  0  0  0  0
   -1.5800   -1.6127    1.3334 C   0  0  0  0  0  0  0  0  0  0  0  0
   -0.9717   -2.5078    0.0292 C   0  0  0  0  0  0  0  0  0  0  0  0
   -4.0456   -1.8943    3.3843 C   0  0  0  0  0  0  0  0  0  0  0  0
    3.3178    7.1260    3.2853 C   0  0  0  0  0  0  0  0  0  0  0  0
    4.3366    6.7734    2.4694 F   0  0  0  0  0  0  0  0  0  0  0  0
    2.5064    7.9937    2.6377 F   0  0  0  0  0  0  0  0  0  0  0  0
    3.8422    7.7681    4.3513 F   0  0  0  0  0  0  0  0  0  0  0  0
    0.0361    2.8540   -0.2411 N   0  0  0  0  0  0  0  0  0  0  0  0
   -1.0908    0.3062   -1.5367 N   0  0  0  0  0  0  0  0  0  0  0  0
   -5.0270   -1.8038    4.0969 O   0  0  0  0  0  0  0  0  0  0  0  0
   -3.6682   -3.0172    2.7450 O   0  0  0  0  0  0  0  0  0  0  0  0
   -2.8174   -1.7038   -1.5750 O   0  0  0  0  0  0  0  0  0  0  0  0
   -0.5397   -2.1098   -2.5452 O   0  0  0  0  0  0  0  0  0  0  0  0
    2.6014    5.9745    3.7254 O   0  0  0  0  0  0  0  0  0  0  0  0
   -1.3806   -1.5329   -1.5227 S   0  0  0  0  0  0  0  0  0  0  0  0
    1.6650    0.1489    0.3798 C   0  0  0  0  0  0  0  0  0  0  0  0
    0.6571   -1.8571    1.1588 C   0  0  0  0  0  0  0  0  0  0  0  0
    0.8365    0.1506    2.8924 C   0  0  0  0  0  0  0  0  0  0  0  0
   -0.2378   -3.2663    2.2288 C   0  0  0  0  0  0  0  0  0  0  0  0
    0.3088   -0.9207    4.2445 C   0  0  0  0  0  0  0  0  0  0  0  0
    1.1497   -0.4193    1.5702 C   0  0  0  0  0  0  0  0  0  0  0  0
   -0.3010   -2.7190    3.9715 C   0  0  0  0  0  0  0  0  0  0  0  0
   -0.4625   -3.3064    6.3223 O   0  0  0  0  0  0  0  0  0  0  0  0
   -2.3789   -4.0189    4.8314 O   0  0  0  0  0  0  0  0  0  0  0  0
   -0.1119   -5.1178    4.6280 O   0  0  0  0  0  0  0  0  0  0  0  0
   -0.9358   -3.9803    4.9493 S   0  0  0  0  0  0  0  0  0  0  0  0
    0.6207    0.6691   -1.0663 H   0  0  0  0  0  0  0  0  0  0  0  0
   -1.1819    0.7281    0.4874 H   0  0  0  0  0  0  0  0  0  0  0  0
   -3.4006    0.1323    3.6582 H   0  0  0  0  0  0  0  0  0  0  0  0
    1.4669   -0.9242   -2.2935 H   0  0  0  0  0  0  0  0  0  0  0  0
    2.2249    0.5454   -2.7755 H   0  0  0  0  0  0  0  0  0  0  0  0
    0.8110   -0.1083   -3.7118 H   0  0  0  0  0  0  0  0  0  0  0  0
   -3.5545   -0.0121   -0.4337 H   0  0  0  0  0  0  0  0  0  0  0  0
   -3.6622    1.5009    0.4303 H   0  0  0  0  0  0  0  0  0  0  0  0
   -3.5881    1.4184   -1.3598 H   0  0  0  0  0  0  0  0  0  0  0  0
    2.3880   -4.3851    1.7058 H   0  0  0  0  0  0  0  0  0  0  0  0
    1.6905   -2.6854    3.8003 H   0  0  0  0  0  0  0  0  0  0  0  0
    1.0061   -3.6739   -0.9108 H   0  0  0  0  0  0  0  0  0  0  0  0
    1.4086    5.0656   -0.6090 H   0  0  0  0  0  0  0  0  0  0  0  0
   -0.2565    2.7648    2.5790 H   0  0  0  0  0  0  0  0  0  0  0  0
    2.6178    6.3614    0.9968 H   0  0  0  0  0  0  0  0  0  0  0  0
    1.1724    3.8693    4.1869 H   0  0  0  0  0  0  0  0  0  0  0  0
   -1.6429   -0.4651    4.8390 H   0  0  0  0  0  0  0  0  0  0  0  0
   -2.0896   -1.9129    4.7828 H   0  0  0  0  0  0  0  0  0  0  0  0
   -3.5610   -0.8283    1.1682 H   0  0  0  0  0  0  0  0  0  0  0  0
   -2.3202    0.3545    1.7766 H   0  0  0  0  0  0  0  0  0  0  0  0
    1.8093    2.3852   -1.3183 H   0  0  0  0  0  0  0  0  0  0  0  0
    0.4943    3.0243   -2.3636 H   0  0  0  0  0  0  0  0  0  0  0  0
   -1.7426    3.0465   -1.2685 H   0  0  0  0  0  0  0  0  0  0  0  0
   -1.9188    3.0760    0.5078 H   0  0  0  0  0  0  0  0  0  0  0  0
   -4.1314   -3.7764    3.1488 H   0  0  0  0  0  0  0  0  0  0  0  0
    1.2008    1.1041    0.4634 H   0  0  0  0  0  0  0  0  0  0  0  0
    1.2111   -0.5508   -0.3641 H   0  0  0  0  0  0  0  0  0  0  0  0
    2.6997    0.1423    0.1173 H   0  0  0  0  0  0  0  0  0  0  0  0
    1.6264   -2.0182    0.4741 H   0  0  0  0  0  0  0  0  0  0  0  0
   -0.0117    0.9211    2.4902 H   0  0  0  0  0  0  0  0  0  0  0  0
   -0.0009   -4.3892    2.2395 H   0  0  0  0  0  0  0  0  0  0  0  0
   -0.5116    0.0708    3.9679 H   0  0  0  0  0  0  0  0  0  0  0  0
    0.4043   -2.8820    6.1204 H   0  0  0  0  0  0  0  0  0  0  0  0
  1 49  1  0  0  0  0
  1 50  1  0  0  0  0
  1 51  1  0  0  0  0
  2 52  1  0  0  0  0
  2 53  1  0  0  0  0
  2 54  1  0  0  0  0
  3 55  1  0  0  0  0
  4  3  2  0  0  0  0
  4 56  1  0  0  0  0
  5  3  1  0  0  0  0
  5 57  1  0  0  0  0
  6 58  1  0  0  0  0
  7 59  1  0  0  0  0
  8  6  1  0  0  0  0
  8 60  1  0  0  0  0
  9  7  2  0  0  0  0
  9 61  1  0  0  0  0
 10 62  1  0  0  0  0
 10 63  1  0  0  0  0
 11 64  1  0  0  0  0
 11 65  1  0  0  0  0
 12 66  1  0  0  0  0
 12 67  1  0  0  0  0
 13 68  1  0  0  0  0
 13 69  1  0  0  0  0
 14 12  1  0  0  0  0
 14 28  1  0  0  0  0
 14 46  1  1  0  0  0
 14  1  1  0  0  0  0
 15  2  1  0  0  0  0
 15 13  1  0  0  0  0
 15 28  1  0  0  0  0
 15 47  1  1  0  0  0
 16  4  1  0  0  0  0
 16 10  1  0  0  0  0
 17 10  1  0  0  0  0
 17 11  1  0  0  0  0
 18  6  2  0  0  0  0
 18  7  1  0  0  0  0
 19  8  2  0  0  0  0
 19  9  1  0  0  0  0
 20 11  1  0  0  0  0
 20 16  2  0  0  0  0
 21  5  2  0  0  0  0
 21 20  1  0  0  0  0
 22 17  1  0  0  0  0
 24 23  1  0  0  0  0
 25 23  1  0  0  0  0
 26 23  1  0  0  0  0
 27 12  1  0  0  0  0
 27 13  1  0  0  0  0
 27 18  1  0  0  0  0
 29 22  2  0  0  0  0
 30 22  1  0  0  0  0
 30 70  1  0  0  0  0
 33 19  1  0  0  0  0
 33 23  1  0  0  0  0
 34 21  1  0  0  0  0
 34 28  1  0  0  0  0
 34 31  2  0  0  0  0
 34 32  2  0  0  0  0
 35 71  1  0  0  0  0
 35 72  1  0  0  0  0
 35 73  1  0  0  0  0
 36 74  1  0  0  0  0
 37 75  1  0  0  0  0
 38 36  1  0  0  0  0
 38 76  1  0  0  0  0
 39 37  2  0  0  0  0
 39 77  1  0  0  0  0
 40 35  1  0  0  0  0
 40 36  2  0  0  0  0
 40 37  1  0  0  0  0
 41 38  2  0  0  0  0
 41 39  1  0  0  0  0
 42 78  1  0  0  0  0
 45 41  1  0  0  0  0
 45 42  1  0  0  0  0
 45 43  2  0  0  0  0
 45 44  2  0  0  0  0
 48 17  1  0  0  0  0
M  END
>  <DRUGBANK_ID>
DB05188

>  <COMMON_NAME>
KD3010

>  <CAS_NUMBER>
934760-90-4

$$$$
