44112
 OpenBabel10282417173D

 56 58  0  0  1  0  0  0  0  0999 V2000
    1.5023    0.5550   -0.1867 O   0  0  0  0  0  0  0  0  0  0  0  0
    0.1895   -1.7626   -1.9528 O   0  0  0  0  0  0  0  0  0  0  0  0
    3.3189   -0.2345    1.0056 O   0  0  0  0  0  0  0  0  0  0  0  0
    1.5324    2.5134   -1.8218 N   0  0  0  0  0  0  0  0  0  0  0  0
    1.4380   -1.8335    2.6733 N   0  0  0  0  0  0  0  0  0  0  0  0
    2.1962    3.8402   -1.9012 C   0  0  0  0  0  0  0  0  0  0  0  0
    0.1783    2.1246   -1.5455 C   0  0  0  0  0  0  0  0  0  0  0  0
    0.3575    0.5974   -1.2679 C   0  0  3  0  0  0  0  0  0  0  0  0
    1.9232    4.5507   -0.5991 C   0  0  0  0  0  0  0  0  0  0  0  0
    3.8833    4.1110   -2.0163 C   0  0  0  0  0  0  0  0  0  0  0  0
    1.5437    4.3204   -3.1764 C   0  0  0  0  0  0  0  0  0  0  0  0
    0.6358   -0.4302   -2.3428 C   0  0  0  0  0  0  0  0  0  0  0  0
    0.6578   -1.9189    0.5524 C   0  0  0  0  0  0  0  0  0  0  0  0
    0.7147   -2.3821   -0.8096 C   0  0  0  0  0  0  0  0  0  0  0  0
    1.3261   -2.6452    1.5465 C   0  0  0  0  0  0  0  0  0  0  0  0
    0.1104   -0.8115    1.2847 C   0  0  0  0  0  0  0  0  0  0  0  0
    0.8312   -0.6291    2.4423 C   0  0  0  0  0  0  0  0  0  0  0  0
    1.1885   -3.6897   -1.0273 C   0  0  0  0  0  0  0  0  0  0  0  0
    1.7801   -3.9470    1.3242 C   0  0  0  0  0  0  0  0  0  0  0  0
    2.7827    0.0092   -0.0402 C   0  0  0  0  0  0  0  0  0  0  0  0
    1.6551   -4.4719    0.0328 C   0  0  0  0  0  0  0  0  0  0  0  0
    0.9886    0.6362    3.2147 C   0  0  0  0  0  0  0  0  0  0  0  0
    3.6356    0.1686   -1.2158 C   0  0  0  0  0  0  0  0  0  0  0  0
    3.7591    1.4310   -1.5991 C   0  0  0  0  0  0  0  0  0  0  0  0
    4.5865   -0.6045   -1.7887 C   0  0  0  0  0  0  0  0  0  0  0  0
    3.7481    1.5927   -2.9684 C   0  0  0  0  0  0  0  0  0  0  0  0
    5.3255   -0.0333   -2.8583 C   0  0  0  0  0  0  0  0  0  0  0  0
    4.8198    1.0493   -3.5444 C   0  0  0  0  0  0  0  0  0  0  0  0
    1.8929    2.0284   -1.0094 H   0  0  0  0  0  0  0  0  0  0  0  0
    1.9687   -2.0619    3.5005 H   0  0  0  0  0  0  0  0  0  0  0  0
   -0.5482    2.3590   -2.3219 H   0  0  0  0  0  0  0  0  0  0  0  0
   -0.1137    2.5687   -0.5822 H   0  0  0  0  0  0  0  0  0  0  0  0
   -0.6138    0.2977   -0.8446 H   0  0  0  0  0  0  0  0  0  0  0  0
    2.5110    4.0926    0.2153 H   0  0  0  0  0  0  0  0  0  0  0  0
    2.2497    5.5835   -0.7038 H   0  0  0  0  0  0  0  0  0  0  0  0
    0.8754    4.5152   -0.3185 H   0  0  0  0  0  0  0  0  0  0  0  0
    4.4355    3.7208   -2.8848 H   0  0  0  0  0  0  0  0  0  0  0  0
    4.1144    5.1715   -2.0892 H   0  0  0  0  0  0  0  0  0  0  0  0
    4.4585    3.7491   -1.1384 H   0  0  0  0  0  0  0  0  0  0  0  0
    1.7554    3.6479   -4.0266 H   0  0  0  0  0  0  0  0  0  0  0  0
    0.4558    4.3106   -3.0696 H   0  0  0  0  0  0  0  0  0  0  0  0
    1.8954    5.3091   -3.4340 H   0  0  0  0  0  0  0  0  0  0  0  0
    0.0633   -0.1702   -3.2447 H   0  0  0  0  0  0  0  0  0  0  0  0
    1.6791   -0.4659   -2.6428 H   0  0  0  0  0  0  0  0  0  0  0  0
   -0.4542    0.0323    0.9363 H   0  0  0  0  0  0  0  0  0  0  0  0
    1.1540   -4.1232   -2.0265 H   0  0  0  0  0  0  0  0  0  0  0  0
    2.1794   -4.5433    2.1363 H   0  0  0  0  0  0  0  0  0  0  0  0
    1.9298   -5.5096   -0.1450 H   0  0  0  0  0  0  0  0  0  0  0  0
    0.2945    0.6233    4.0531 H   0  0  0  0  0  0  0  0  0  0  0  0
    2.0082    0.8259    3.5685 H   0  0  0  0  0  0  0  0  0  0  0  0
    0.7260    1.5069    2.5891 H   0  0  0  0  0  0  0  0  0  0  0  0
    3.5023    2.1455   -0.8176 H   0  0  0  0  0  0  0  0  0  0  0  0
    4.8013   -1.5570   -1.3446 H   0  0  0  0  0  0  0  0  0  0  0  0
    3.2451    2.3747   -3.5216 H   0  0  0  0  0  0  0  0  0  0  0  0
    6.3000   -0.3831   -3.1309 H   0  0  0  0  0  0  0  0  0  0  0  0
    5.2290    1.5780   -4.3963 H   0  0  0  0  0  0  0  0  0  0  0  0
  1  8  1  0  0  0  0
  1 20  1  0  0  0  0
  2 12  1  0  0  0  0
  2 14  1  0  0  0  0
  3 20  2  0  0  0  0
  4  6  1  0  0  0  0
  4  7  1  0  0  0  0
  4 29  1  0  0  0  0
  5 15  1  0  0  0  0
  5 17  1  0  0  0  0
  5 30  1  0  0  0  0
  6  9  1  0  0  0  0
  6 10  1  0  0  0  0
  6 11  1  0  0  0  0
  7  8  1  0  0  0  0
  7 31  1  0  0  0  0
  7 32  1  0  0  0  0
  8 12  1  0  0  0  0
  8 33  1  0  0  0  0
  9 34  1  0  0  0  0
  9 35  1  0  0  0  0
  9 36  1  0  0  0  0
 10 37  1  0  0  0  0
 10 38  1  0  0  0  0
 10 39  1  0  0  0  0
 11 40  1  0  0  0  0
 11 41  1  0  0  0  0
 11 42  1  0  0  0  0
 12 43  1  0  0  0  0
 12 44  1  0  0  0  0
 13 14  1  0  0  0  0
 13 15  2  0  0  0  0
 13 16  1  0  0  0  0
 14 18  2  0  0  0  0
 15 19  1  0  0  0  0
 16 17  2  0  0  0  0
 16 45  1  0  0  0  0
 17 22  1  0  0  0  0
 18 21  1  0  0  0  0
 18 46  1  0  0  0  0
 19 21  2  0  0  0  0
 19 47  1  0  0  0  0
 20 23  1  0  0  0  0
 21 48  1  0  0  0  0
 22 49  1  0  0  0  0
 22 50  1  0  0  0  0
 22 51  1  0  0  0  0
 23 24  2  0  0  0  0
 23 25  1  0  0  0  0
 24 26  1  0  0  0  0
 24 52  1  0  0  0  0
 25 27  2  0  0  0  0
 25 53  1  0  0  0  0
 26 28  2  0  0  0  0
 26 54  1  0  0  0  0
 27 28  1  0  0  0  0
 27 55  1  0  0  0  0
 28 56  1  0  0  0  0
M  END
>  <DRUGBANK_ID>
DB08807

>  <COMMON_NAME>
Bopindolol

>  <CAS_NUMBER>
62658-63-3

>  <UNII>
KT304VZO57

>  <SYNONYMS>
Bopindolol; Bopindololum

$$$$
