B65
 OpenBabel10282417163D

 44 45  0  0  0  0  0  0  0  0999 V2000
   15.7606    1.1571   -4.1400 C   0  0  0  0  0  0  0  0  0  0  0  0
   16.6003    2.2416   -4.3578 C   0  0  0  0  0  0  0  0  0  0  0  0
   17.6738    2.1173   -5.2342 C   0  0  0  0  0  0  0  0  0  0  0  0
   17.9135    0.9058   -5.8838 C   0  0  0  0  0  0  0  0  0  0  0  0
   17.0701   -0.1809   -5.6659 C   0  0  0  0  0  0  0  0  0  0  0  0
   15.9607   -0.0384   -4.8354 C   0  0  0  0  0  0  0  0  0  0  0  0
   15.1444   -1.1379   -4.7516 O   0  0  0  0  0  0  0  0  0  0  0  0
   13.8997   -0.9894   -4.1996 C   0  0  0  0  0  0  0  0  0  0  0  0
   13.0080    0.0110   -4.6031 C   0  0  0  0  0  0  0  0  0  0  0  0
   13.5396   -1.9549   -3.2617 C   0  0  0  0  0  0  0  0  0  0  0  0
   12.2880   -1.9189   -2.7018 C   0  0  0  0  0  0  0  0  0  0  0  0
   11.4427   -0.8860   -3.0590 C   0  0  0  0  0  0  0  0  0  0  0  0
   11.7478    0.0720   -4.0396 C   0  0  0  0  0  0  0  0  0  0  0  0
   10.7903    1.1023   -4.5584 C   0  0  0  0  0  0  0  0  0  0  0  0
    9.4609    0.5444   -4.9918 C   0  0  0  0  0  0  0  0  0  0  0  0
    8.6765   -0.0818   -3.8319 C   0  0  0  0  0  0  0  0  0  0  0  0
    8.3604    0.8495   -2.6251 C   0  0  2  0  0  0  0  0  0  0  0  0
    7.2576    2.1433   -3.1310 P   0  0  0  0  0  0  0  0  0  0  0  0
    5.8373    1.4501   -2.8034 O   0  0  0  0  0  0  0  0  0  0  0  0
    7.2568    3.4135   -2.1734 O   0  0  0  0  0  0  0  0  0  0  0  0
    7.2544    2.5293   -4.5766 O   0  0  0  0  0  0  0  0  0  0  0  0
    9.5035    1.5633   -1.3983 S   0  0  0  0  0  0  0  0  0  0  0  0
    8.7291    2.2553   -0.4026 O   0  0  0  0  0  0  0  0  0  0  0  0
   10.5120    0.6194   -0.9440 O   0  0  0  0  0  0  0  0  0  0  0  0
   10.3287    2.7356   -2.1346 O   0  0  0  0  0  0  0  0  0  0  0  0
    7.7817    0.1913   -1.9549 H   0  0  0  0  0  0  0  0  0  0  0  0
   14.9497    1.2683   -3.4271 H   0  0  0  0  0  0  0  0  0  0  0  0
   16.4097    3.1767   -3.8404 H   0  0  0  0  0  0  0  0  0  0  0  0
   18.3369    2.9618   -5.3940 H   0  0  0  0  0  0  0  0  0  0  0  0
   18.7560    0.8082   -6.5618 H   0  0  0  0  0  0  0  0  0  0  0  0
   17.2797   -1.1387   -6.1357 H   0  0  0  0  0  0  0  0  0  0  0  0
   13.2940    0.7540   -5.3441 H   0  0  0  0  0  0  0  0  0  0  0  0
   14.2374   -2.7238   -2.9579 H   0  0  0  0  0  0  0  0  0  0  0  0
   11.9410   -2.6671   -1.9951 H   0  0  0  0  0  0  0  0  0  0  0  0
   10.5280   -0.9039   -2.4930 H   0  0  0  0  0  0  0  0  0  0  0  0
   10.5633    1.8210   -3.8119 H   0  0  0  0  0  0  0  0  0  0  0  0
   11.2337    1.7431   -5.3293 H   0  0  0  0  0  0  0  0  0  0  0  0
    8.8907    1.3699   -5.4133 H   0  0  0  0  0  0  0  0  0  0  0  0
    9.5906   -0.1578   -5.8211 H   0  0  0  0  0  0  0  0  0  0  0  0
    7.7191   -0.4209   -4.2584 H   0  0  0  0  0  0  0  0  0  0  0  0
    9.0906   -1.0510   -3.5531 H   0  0  0  0  0  0  0  0  0  0  0  0
    5.4352    1.0495   -3.6030 H   0  0  0  0  0  0  0  0  0  0  0  0
    7.7560    3.3494   -1.3265 H   0  0  0  0  0  0  0  0  0  0  0  0
   11.3026    2.5728   -2.0550 H   0  0  0  0  0  0  0  0  0  0  0  0
  1  2  2  0  0  0  0
  1  6  1  0  0  0  0
  1 27  1  0  0  0  0
  2  3  1  0  0  0  0
  2 28  1  0  0  0  0
  3  4  2  0  0  0  0
  3 29  1  0  0  0  0
  4  5  1  0  0  0  0
  4 30  1  0  0  0  0
  5  6  2  0  0  0  0
  5 31  1  0  0  0  0
  6  7  1  0  0  0  0
  7  8  1  0  0  0  0
  8  9  2  0  0  0  0
  8 10  1  0  0  0  0
  9 13  1  0  0  0  0
  9 32  1  0  0  0  0
 10 11  2  0  0  0  0
 10 33  1  0  0  0  0
 11 12  1  0  0  0  0
 11 34  1  0  0  0  0
 12 13  2  0  0  0  0
 12 35  1  0  0  0  0
 13 14  1  0  0  0  0
 14 15  1  0  0  0  0
 14 36  1  0  0  0  0
 14 37  1  0  0  0  0
 15 16  1  0  0  0  0
 15 38  1  0  0  0  0
 15 39  1  0  0  0  0
 16 40  1  0  0  0  0
 16 41  1  0  0  0  0
 17 22  1  0  0  0  0
 17 26  1  1  0  0  0
 17 18  1  0  0  0  0
 17 16  1  0  0  0  0
 18 19  1  0  0  0  0
 18 20  1  0  0  0  0
 18 21  2  0  0  0  0
 19 42  1  0  0  0  0
 20 43  1  0  0  0  0
 22 23  2  0  0  0  0
 22 24  2  0  0  0  0
 22 25  1  0  0  0  0
 25 44  1  0  0  0  0
M  END
>  <DRUGBANK_ID>
DB07420

>  <COMMON_NAME>
(1R)-4-(3-phenoxyphenyl)-1-phosphonobutane-1-sulfonic acid

>  <UNII>
J6VPP7AB3T

$$$$
