
 OpenBabel10282417223D

 58 61  0  0  1  0  0  0  0  0999 V2000
    2.3188   -6.5041   10.3851 C   0  0  0  0  0  0  0  0  0  0  0  0
    2.4348   -6.5909    8.8670 C   0  0  0  0  0  0  0  0  0  0  0  0
    2.3329   -5.2597    8.1531 C   0  0  0  0  0  0  0  0  0  0  0  0
    2.8519   -4.1202    8.7986 C   0  0  0  0  0  0  0  0  0  0  0  0
    2.8746   -2.8816    8.1868 C   0  0  0  0  0  0  0  0  0  0  0  0
    2.4370   -2.7449    6.8769 C   0  0  0  0  0  0  0  0  0  0  0  0
    2.0536   -3.8903    6.1795 C   0  0  0  0  0  0  0  0  0  0  0  0
    1.8547   -5.1257    6.8302 C   0  0  0  0  0  0  0  0  0  0  0  0
    1.0586   -6.2021    6.0937 C   0  0  0  0  0  0  0  0  0  0  0  0
   -0.3934   -5.8284    5.7756 C   0  0  0  0  0  0  0  0  0  0  0  0
   -0.7074   -4.7243    4.9605 C   0  0  0  0  0  0  0  0  0  0  0  0
   -2.0283   -4.3425    4.7426 C   0  0  0  0  0  0  0  0  0  0  0  0
   -3.0631   -5.1855    5.1144 C   0  0  0  0  0  0  0  0  0  0  0  0
   -4.3734   -4.9512    4.7721 O   0  0  0  0  0  0  0  0  0  0  0  0
   -4.4960   -3.8077    3.9078 C   0  0  0  0  0  0  0  0  0  0  0  0
   -3.5905   -2.6930    4.4003 C   0  0  0  0  0  0  0  0  0  0  0  0
   -2.2285   -3.0991    4.1850 O   0  0  0  0  0  0  0  0  0  0  0  0
   -2.7852   -6.3093    5.8919 C   0  0  0  0  0  0  0  0  0  0  0  0
   -1.4612   -6.5853    6.2763 C   0  0  0  0  0  0  0  0  0  0  0  0
    2.2480   -1.3665    6.2935 C   0  0  2  0  0  0  0  0  0  0  0  0
    3.5369   -0.7481    6.3077 O   0  0  0  0  0  0  0  0  0  0  0  0
    3.5159    0.5959    5.8188 C   0  0  2  0  0  0  0  0  0  0  0  0
    4.9555    1.1200    5.8450 C   0  0  0  0  0  0  0  0  0  0  0  0
    5.7943    0.2819    5.0508 O   0  0  0  0  0  0  0  0  0  0  0  0
    2.6124    1.4751    6.6892 C   0  0  1  0  0  0  0  0  0  0  0  0
    2.5993    2.8158    6.1987 O   0  0  0  0  0  0  0  0  0  0  0  0
    1.1912    0.8965    6.7453 C   0  0  2  0  0  0  0  0  0  0  0  0
    0.3904    1.6539    7.6651 O   0  0  0  0  0  0  0  0  0  0  0  0
    1.2188   -0.5799    7.1527 C   0  0  1  0  0  0  0  0  0  0  0  0
   -0.0994   -1.1383    7.0787 O   0  0  0  0  0  0  0  0  0  0  0  0
    3.1376   -5.9302   10.8299 H   0  0  0  0  0  0  0  0  0  0  0  0
    2.3597   -7.5020   10.8274 H   0  0  0  0  0  0  0  0  0  0  0  0
    1.3727   -6.0307   10.6680 H   0  0  0  0  0  0  0  0  0  0  0  0
    3.4043   -7.0320    8.6009 H   0  0  0  0  0  0  0  0  0  0  0  0
    1.6602   -7.2847    8.5372 H   0  0  0  0  0  0  0  0  0  0  0  0
    3.2187   -4.1545    9.8188 H   0  0  0  0  0  0  0  0  0  0  0  0
    3.2182   -2.0178    8.7490 H   0  0  0  0  0  0  0  0  0  0  0  0
    1.8457   -3.7957    5.1196 H   0  0  0  0  0  0  0  0  0  0  0  0
    1.5738   -6.4712    5.1637 H   0  0  0  0  0  0  0  0  0  0  0  0
    1.0380   -7.1304    6.6716 H   0  0  0  0  0  0  0  0  0  0  0  0
    0.0518   -4.1173    4.5004 H   0  0  0  0  0  0  0  0  0  0  0  0
   -4.2297   -4.1006    2.8832 H   0  0  0  0  0  0  0  0  0  0  0  0
   -5.5434   -3.4934    3.9159 H   0  0  0  0  0  0  0  0  0  0  0  0
   -3.7602   -1.7664    3.8439 H   0  0  0  0  0  0  0  0  0  0  0  0
   -3.7476   -2.4821    5.4682 H   0  0  0  0  0  0  0  0  0  0  0  0
   -3.5942   -6.9523    6.2167 H   0  0  0  0  0  0  0  0  0  0  0  0
   -1.2824   -7.4119    6.9631 H   0  0  0  0  0  0  0  0  0  0  0  0
    1.8931   -1.4432    5.2565 H   0  0  0  0  0  0  0  0  0  0  0  0
    3.1707    0.5794    4.7766 H   0  0  0  0  0  0  0  0  0  0  0  0
    5.0148    2.1362    5.4460 H   0  0  0  0  0  0  0  0  0  0  0  0
    5.3563    1.1154    6.8643 H   0  0  0  0  0  0  0  0  0  0  0  0
    5.6936   -0.6163    5.4214 H   0  0  0  0  0  0  0  0  0  0  0  0
    3.0089    1.5157    7.7121 H   0  0  0  0  0  0  0  0  0  0  0  0
    2.1257    2.8316    5.3487 H   0  0  0  0  0  0  0  0  0  0  0  0
    0.6943    1.0066    5.7752 H   0  0  0  0  0  0  0  0  0  0  0  0
    0.7361    1.5083    8.5641 H   0  0  0  0  0  0  0  0  0  0  0  0
    1.4934   -0.6160    8.2140 H   0  0  0  0  0  0  0  0  0  0  0  0
   -0.4036   -1.1363    6.1561 H   0  0  0  0  0  0  0  0  0  0  0  0
  1  2  1  0  0  0  0
  1 31  1  0  0  0  0
  1 32  1  0  0  0  0
  1 33  1  0  0  0  0
  2  3  1  0  0  0  0
  2 34  1  0  0  0  0
  2 35  1  0  0  0  0
  3  4  2  0  0  0  0
  3  8  1  0  0  0  0
  4  5  1  0  0  0  0
  4 36  1  0  0  0  0
  5  6  2  0  0  0  0
  5 37  1  0  0  0  0
  6  7  1  0  0  0  0
  7  8  2  0  0  0  0
  7 38  1  0  0  0  0
  8  9  1  0  0  0  0
  9 10  1  0  0  0  0
  9 39  1  0  0  0  0
  9 40  1  0  0  0  0
 10 11  2  0  0  0  0
 10 19  1  0  0  0  0
 11 12  1  0  0  0  0
 11 41  1  0  0  0  0
 12 13  2  0  0  0  0
 12 17  1  0  0  0  0
 13 14  1  0  0  0  0
 13 18  1  0  0  0  0
 14 15  1  0  0  0  0
 15 16  1  0  0  0  0
 15 42  1  0  0  0  0
 15 43  1  0  0  0  0
 16 17  1  0  0  0  0
 16 44  1  0  0  0  0
 16 45  1  0  0  0  0
 18 19  2  0  0  0  0
 18 46  1  0  0  0  0
 19 47  1  0  0  0  0
 20 21  1  0  0  0  0
 20 48  1  6  0  0  0
 20  6  1  0  0  0  0
 22 21  1  0  0  0  0
 22 23  1  0  0  0  0
 22 49  1  6  0  0  0
 23 24  1  0  0  0  0
 23 50  1  0  0  0  0
 23 51  1  0  0  0  0
 24 52  1  0  0  0  0
 25 22  1  0  0  0  0
 25 26  1  0  0  0  0
 25 27  1  0  0  0  0
 25 53  1  1  0  0  0
 26 54  1  0  0  0  0
 27 28  1  0  0  0  0
 27 29  1  0  0  0  0
 27 55  1  6  0  0  0
 28 56  1  0  0  0  0
 29 20  1  0  0  0  0
 29 30  1  0  0  0  0
 29 57  1  1  0  0  0
 30 58  1  0  0  0  0
M  END
>  <DRUGBANK_ID>
DB15048

>  <COMMON_NAME>
Licogliflozin

>  <CAS_NUMBER>
1291094-73-9

>  <UNII>
57J06X6EI0

>  <SYNONYMS>
Licogliflozin

$$$$
