
 OpenBabel10282417183D

 70 75  0  0  0  0  0  0  0  0999 V2000
    0.8963    0.8542    0.3514 C   0  0  0  0  0  0  0  0  0  0  0  0
    1.4176   -0.3764    0.8303 O   0  0  0  0  0  0  0  0  0  0  0  0
    0.7535   -1.4537    0.1253 C   0  0  0  0  0  0  0  0  0  0  0  0
   -0.7744   -1.3166    0.2849 C   0  0  0  0  0  0  0  0  0  0  0  0
   -1.3706   -0.0318   -0.1812 N   0  0  0  0  0  0  0  0  0  0  0  0
   -0.6257    1.0149    0.5405 C   0  0  0  0  0  0  0  0  0  0  0  0
   -1.4786    0.1051   -1.6703 C   0  0  0  0  0  0  0  0  0  0  0  0
   -0.1853    0.1678   -2.5094 C   0  0  0  0  0  0  0  0  0  0  0  0
    0.4923    1.5274   -2.4161 C   0  0  0  0  0  0  0  0  0  0  0  0
   -0.4541    2.4562   -2.9463 N   0  0  0  0  0  0  0  0  0  0  0  0
   -1.6434    2.6466   -2.1442 C   0  0  0  0  0  0  0  0  0  0  0  0
   -2.3625    1.3016   -2.1499 C   0  0  0  0  0  0  0  0  0  0  0  0
    0.2242    3.4124   -3.6349 C   0  0  0  0  0  0  0  0  0  0  0  0
    0.8388    2.8895   -4.7693 C   0  0  0  0  0  0  0  0  0  0  0  0
    1.5190    3.6784   -5.6567 C   0  0  0  0  0  0  0  0  0  0  0  0
    1.6040    5.0377   -5.3542 C   0  0  0  0  0  0  0  0  0  0  0  0
    1.0589    5.5601   -4.1872 C   0  0  0  0  0  0  0  0  0  0  0  0
    0.3868    4.7428   -3.2907 C   0  0  0  0  0  0  0  0  0  0  0  0
   -0.0815    5.3500   -2.0062 C   0  0  0  0  0  0  0  0  0  0  0  0
    1.0625    5.9543   -1.2135 C   0  0  0  0  0  0  0  0  0  0  0  0
    2.0904    3.0213   -6.8959 C   0  0  0  0  0  0  0  0  0  0  0  0
    2.7080    4.0648   -7.7605 C   0  0  0  0  0  0  0  0  0  0  0  0
    2.7923    5.4050   -7.4617 C   0  0  0  0  0  0  0  0  0  0  0  0
    2.2674    5.9837   -6.2559 C   0  0  0  0  0  0  0  0  0  0  0  0
    3.3062    3.8561   -8.9723 N   0  0  0  0  0  0  0  0  0  0  0  0
    3.7783    5.0578   -9.4536 C   0  0  0  0  0  0  0  0  0  0  0  0
    3.4619    6.0378   -8.5144 C   0  0  0  0  0  0  0  0  0  0  0  0
    4.4570    5.3661  -10.6328 C   0  0  0  0  0  0  0  0  0  0  0  0
    4.8128    6.7123  -10.8370 C   0  0  0  0  0  0  0  0  0  0  0  0
    4.4972    7.7005   -9.8987 C   0  0  0  0  0  0  0  0  0  0  0  0
    3.8213    7.3729   -8.7319 C   0  0  0  0  0  0  0  0  0  0  0  0
    5.5095    7.0805  -12.0207 C   0  0  0  0  0  0  0  0  0  0  0  0
    6.0867    7.3853  -12.9978 N   0  0  0  0  0  0  0  0  0  0  0  0
    2.3450    7.1738   -5.9753 O   0  0  0  0  0  0  0  0  0  0  0  0
    3.1834    2.0440   -6.4308 C   0  0  0  0  0  0  0  0  0  0  0  0
    0.9292    2.3440   -7.6498 C   0  0  0  0  0  0  0  0  0  0  0  0
    1.1700    0.6874   -0.6623 H   0  0  0  0  0  0  0  0  0  0  0  0
    1.4441    1.7674    0.6155 H   0  0  0  0  0  0  0  0  0  0  0  0
    1.1393   -2.3803    0.5400 H   0  0  0  0  0  0  0  0  0  0  0  0
    1.0559   -1.5307   -0.9208 H   0  0  0  0  0  0  0  0  0  0  0  0
   -0.9424   -1.3508    1.3703 H   0  0  0  0  0  0  0  0  0  0  0  0
   -1.3065   -2.1660   -0.1456 H   0  0  0  0  0  0  0  0  0  0  0  0
   -0.8413    0.9629    1.6149 H   0  0  0  0  0  0  0  0  0  0  0  0
   -1.0199    1.9936    0.2951 H   0  0  0  0  0  0  0  0  0  0  0  0
   -2.0239   -0.7920   -2.0026 H   0  0  0  0  0  0  0  0  0  0  0  0
    0.5049   -0.6355   -2.3118 H   0  0  0  0  0  0  0  0  0  0  0  0
   -0.4262   -0.0267   -3.5658 H   0  0  0  0  0  0  0  0  0  0  0  0
    0.6977    2.0468   -1.4837 H   0  0  0  0  0  0  0  0  0  0  0  0
    1.5138    1.4353   -2.8293 H   0  0  0  0  0  0  0  0  0  0  0  0
   -2.2673    3.4368   -2.5624 H   0  0  0  0  0  0  0  0  0  0  0  0
   -1.4192    2.9678   -1.1320 H   0  0  0  0  0  0  0  0  0  0  0  0
   -2.6106    1.1143   -3.2064 H   0  0  0  0  0  0  0  0  0  0  0  0
   -3.3046    1.3557   -1.6032 H   0  0  0  0  0  0  0  0  0  0  0  0
    0.7477    1.8145   -4.9418 H   0  0  0  0  0  0  0  0  0  0  0  0
    1.1643    6.6206   -3.9779 H   0  0  0  0  0  0  0  0  0  0  0  0
   -0.8586    6.0832   -2.2394 H   0  0  0  0  0  0  0  0  0  0  0  0
   -0.5245    4.6225   -1.3396 H   0  0  0  0  0  0  0  0  0  0  0  0
    1.5571    6.7581   -1.7634 H   0  0  0  0  0  0  0  0  0  0  0  0
    0.6771    6.3625   -0.2767 H   0  0  0  0  0  0  0  0  0  0  0  0
    1.8138    5.1908   -0.9781 H   0  0  0  0  0  0  0  0  0  0  0  0
    3.3964    2.9611   -9.4370 H   0  0  0  0  0  0  0  0  0  0  0  0
    4.6977    4.5975  -11.3594 H   0  0  0  0  0  0  0  0  0  0  0  0
    4.7700    8.7401  -10.0577 H   0  0  0  0  0  0  0  0  0  0  0  0
    3.5691    8.1291   -7.9919 H   0  0  0  0  0  0  0  0  0  0  0  0
    2.8020    1.2637   -5.7624 H   0  0  0  0  0  0  0  0  0  0  0  0
    3.6685    1.5521   -7.2772 H   0  0  0  0  0  0  0  0  0  0  0  0
    3.9588    2.5871   -5.8705 H   0  0  0  0  0  0  0  0  0  0  0  0
    0.1876    3.0953   -7.9583 H   0  0  0  0  0  0  0  0  0  0  0  0
    1.2773    1.8257   -8.5454 H   0  0  0  0  0  0  0  0  0  0  0  0
    0.3881    1.6102   -7.0407 H   0  0  0  0  0  0  0  0  0  0  0  0
  1  2  1  0  0  0  0
  1  6  1  0  0  0  0
  1 37  1  0  0  0  0
  1 38  1  0  0  0  0
  2  3  1  0  0  0  0
  3  4  1  0  0  0  0
  3 39  1  0  0  0  0
  3 40  1  0  0  0  0
  4  5  1  0  0  0  0
  4 41  1  0  0  0  0
  4 42  1  0  0  0  0
  5  6  1  0  0  0  0
  5  7  1  0  0  0  0
  6 43  1  0  0  0  0
  6 44  1  0  0  0  0
  7  8  1  0  0  0  0
  7 12  1  0  0  0  0
  7 45  1  0  0  0  0
  8  9  1  0  0  0  0
  8 46  1  0  0  0  0
  8 47  1  0  0  0  0
  9 10  1  0  0  0  0
  9 48  1  0  0  0  0
  9 49  1  0  0  0  0
 10 11  1  0  0  0  0
 10 13  1  0  0  0  0
 11 12  1  0  0  0  0
 11 50  1  0  0  0  0
 11 51  1  0  0  0  0
 12 52  1  0  0  0  0
 12 53  1  0  0  0  0
 13 14  2  0  0  0  0
 13 18  1  0  0  0  0
 14 15  1  0  0  0  0
 14 54  1  0  0  0  0
 15 16  2  0  0  0  0
 15 21  1  0  0  0  0
 16 17  1  0  0  0  0
 16 24  1  0  0  0  0
 17 18  2  0  0  0  0
 17 55  1  0  0  0  0
 18 19  1  0  0  0  0
 19 20  1  0  0  0  0
 19 56  1  0  0  0  0
 19 57  1  0  0  0  0
 20 58  1  0  0  0  0
 20 59  1  0  0  0  0
 20 60  1  0  0  0  0
 21 22  1  0  0  0  0
 21 35  1  0  0  0  0
 21 36  1  0  0  0  0
 22 23  2  0  0  0  0
 22 25  1  0  0  0  0
 23 24  1  0  0  0  0
 23 27  1  0  0  0  0
 24 34  2  0  0  0  0
 25 26  1  0  0  0  0
 25 61  1  0  0  0  0
 26 27  1  0  0  0  0
 26 28  2  0  0  0  0
 27 31  2  0  0  0  0
 28 29  1  0  0  0  0
 28 62  1  0  0  0  0
 29 30  2  0  0  0  0
 29 32  1  0  0  0  0
 30 31  1  0  0  0  0
 30 63  1  0  0  0  0
 31 64  1  0  0  0  0
 32 33  3  0  0  0  0
 35 65  1  0  0  0  0
 35 66  1  0  0  0  0
 35 67  1  0  0  0  0
 36 68  1  0  0  0  0
 36 69  1  0  0  0  0
 36 70  1  0  0  0  0
M  END
>  <DRUGBANK_ID>
DB11363

>  <COMMON_NAME>
Alectinib

>  <CAS_NUMBER>
1256580-46-7

>  <UNII>
LIJ4CT1Z3Y

>  <SYNONYMS>
9-ethyl-6,6-dimethyl-8-[4-(morpholin-4-yl)piperidin-1-yl]-11-oxo-6,11-dihydro-5H-benzo[b]carbazole-3-carbonitrile; Alectinib

$$$$
