
 OpenBabel10282417213D

 93 94  0  0  0  0  0  0  0  0999 V2000
   11.3938   -3.1513   -2.7141 O   0  0  0  0  0  0  0  0  0  0  0  0
   10.8925   -2.9111   -3.7797 C   0  0  0  0  0  0  0  0  0  0  0  0
   11.4935   -3.2395   -4.9685 O   0  0  0  0  0  0  0  0  0  0  0  0
   10.9431   -3.1041   -6.3150 C   0  0  0  0  0  0  0  0  0  0  0  0
    9.7175   -3.9684   -6.5269 C   0  0  0  0  0  0  0  0  0  0  0  0
    9.8384   -5.2880   -6.9597 C   0  0  0  0  0  0  0  0  0  0  0  0
    8.7537   -6.1614   -6.8403 C   0  0  0  0  0  0  0  0  0  0  0  0
    7.5836   -5.7508   -6.2036 C   0  0  0  0  0  0  0  0  0  0  0  0
    7.4515   -4.4366   -5.8016 C   0  0  0  0  0  0  0  0  0  0  0  0
    8.4484   -3.5318   -6.1304 C   0  0  0  0  0  0  0  0  0  0  0  0
    9.7113   -2.2436   -3.9157 N   0  0  0  0  0  0  0  0  0  0  0  0
    8.8079   -1.8973   -2.8498 C   0  0  0  0  0  0  0  0  0  0  0  0
    8.4081   -0.4403   -3.0421 C   0  0  0  0  0  0  0  0  0  0  0  0
    7.5741   -0.2061   -4.3145 C   0  0  0  0  0  0  0  0  0  0  0  0
    6.2212   -0.9448   -4.3117 C   0  0  0  0  0  0  0  0  0  0  0  0
    5.4109   -0.5627   -3.0663 C   0  0  2  0  0  0  0  0  0  0  0  0
    5.6722   -1.5410   -1.9899 N   0  0  0  0  0  0  0  0  0  0  0  0
    5.8692   -1.2880   -0.6487 C   0  0  0  0  0  0  0  0  0  0  0  0
    5.9798   -2.5975    0.2390 C   0  0  2  0  0  0  0  0  0  0  0  0
    4.6343   -3.3861    0.1358 C   0  0  0  0  0  0  0  0  0  0  0  0
    4.5904   -4.5560    1.0521 C   0  0  0  0  0  0  0  0  0  0  0  0
    3.8470   -4.4501    2.1856 O   0  0  0  0  0  0  0  0  0  0  0  0
    2.7762   -3.4904    2.5007 C   0  0  0  0  0  0  0  0  0  0  0  0
    3.2090   -2.0826    2.8993 C   0  0  0  0  0  0  0  0  0  0  0  0
    3.2837   -1.6954    4.2440 C   0  0  0  0  0  0  0  0  0  0  0  0
    3.9292   -0.4949    4.6170 C   0  0  0  0  0  0  0  0  0  0  0  0
    4.5099    0.3225    3.6650 C   0  0  0  0  0  0  0  0  0  0  0  0
    4.4663   -0.0753    2.3603 C   0  0  0  0  0  0  0  0  0  0  0  0
    3.6941   -1.1583    1.9728 C   0  0  0  0  0  0  0  0  0  0  0  0
    5.2474   -5.5604    0.7933 O   0  0  0  0  0  0  0  0  0  0  0  0
    6.5009   -2.4008    1.6312 N   0  0  0  0  0  0  0  0  0  0  0  0
    7.6951   -2.8885    2.1410 C   0  0  0  0  0  0  0  0  0  0  0  0
    8.0336   -2.6271    3.4698 O   0  0  0  0  0  0  0  0  0  0  0  0
    7.2647   -1.8697    4.4498 C   0  0  0  0  0  0  0  0  0  0  0  0
    7.2903   -0.4086    3.9996 C   0  0  0  0  0  0  0  0  0  0  0  0
    5.9932   -2.6698    4.7087 C   0  0  0  0  0  0  0  0  0  0  0  0
    7.8475   -1.7486    5.8741 C   0  0  0  0  0  0  0  0  0  0  0  0
    8.4559   -3.5506    1.4437 O   0  0  0  0  0  0  0  0  0  0  0  0
    5.9388   -0.1412   -0.2257 O   0  0  0  0  0  0  0  0  0  0  0  0
    3.9113   -0.5510   -3.3779 C   0  0  0  0  0  0  0  0  0  0  0  0
    3.2385    0.6264   -3.4626 O   0  0  0  0  0  0  0  0  0  0  0  0
    3.7804    1.9640   -3.2707 C   0  0  0  0  0  0  0  0  0  0  0  0
    4.3020    2.1498   -1.8427 C   0  0  0  0  0  0  0  0  0  0  0  0
    4.7725    2.2853   -4.3885 C   0  0  0  0  0  0  0  0  0  0  0  0
    2.6347    2.9790   -3.4198 C   0  0  0  0  0  0  0  0  0  0  0  0
    3.3209   -1.6190   -3.5566 O   0  0  0  0  0  0  0  0  0  0  0  0
   10.7685   -2.0458   -6.5397 H   0  0  0  0  0  0  0  0  0  0  0  0
   11.7423   -3.4332   -6.9907 H   0  0  0  0  0  0  0  0  0  0  0  0
   10.7760   -5.6494   -7.3749 H   0  0  0  0  0  0  0  0  0  0  0  0
    8.8405   -7.1845   -7.1906 H   0  0  0  0  0  0  0  0  0  0  0  0
    6.7616   -6.4396   -6.0411 H   0  0  0  0  0  0  0  0  0  0  0  0
    6.5862   -4.1139   -5.2310 H   0  0  0  0  0  0  0  0  0  0  0  0
    8.2280   -2.4848   -5.9884 H   0  0  0  0  0  0  0  0  0  0  0  0
    9.4949   -1.9154   -4.8255 H   0  0  0  0  0  0  0  0  0  0  0  0
    7.9434   -2.5690   -2.9167 H   0  0  0  0  0  0  0  0  0  0  0  0
    9.2637   -2.0658   -1.8731 H   0  0  0  0  0  0  0  0  0  0  0  0
    7.8673   -0.0839   -2.1626 H   0  0  0  0  0  0  0  0  0  0  0  0
    9.3100    0.1781   -3.0989 H   0  0  0  0  0  0  0  0  0  0  0  0
    7.4209    0.8730   -4.4071 H   0  0  0  0  0  0  0  0  0  0  0  0
    8.1299   -0.4686   -5.2183 H   0  0  0  0  0  0  0  0  0  0  0  0
    5.6811   -0.7123   -5.2381 H   0  0  0  0  0  0  0  0  0  0  0  0
    6.3782   -2.0260   -4.3262 H   0  0  0  0  0  0  0  0  0  0  0  0
    5.7780    0.4039   -2.7661 H   0  0  0  0  0  0  0  0  0  0  0  0
    5.6895   -2.5045   -2.2844 H   0  0  0  0  0  0  0  0  0  0  0  0
    6.7381   -3.1910   -0.2771 H   0  0  0  0  0  0  0  0  0  0  0  0
    3.6948   -2.8680    0.2657 H   0  0  0  0  0  0  0  0  0  0  0  0
    4.4714   -3.7117   -0.8982 H   0  0  0  0  0  0  0  0  0  0  0  0
    2.0431   -3.4647    1.6901 H   0  0  0  0  0  0  0  0  0  0  0  0
    2.2596   -3.9473    3.3576 H   0  0  0  0  0  0  0  0  0  0  0  0
    3.0171   -2.4014    5.0304 H   0  0  0  0  0  0  0  0  0  0  0  0
    4.1955   -0.3166    5.6573 H   0  0  0  0  0  0  0  0  0  0  0  0
    5.1692    1.1524    3.9046 H   0  0  0  0  0  0  0  0  0  0  0  0
    5.2097    0.3382    1.6844 H   0  0  0  0  0  0  0  0  0  0  0  0
    3.6428   -1.2693    0.9066 H   0  0  0  0  0  0  0  0  0  0  0  0
    5.9342   -1.8826    2.2711 H   0  0  0  0  0  0  0  0  0  0  0  0
    6.9503   -0.2695    2.9794 H   0  0  0  0  0  0  0  0  0  0  0  0
    6.7603    0.2301    4.7104 H   0  0  0  0  0  0  0  0  0  0  0  0
    8.3087   -0.0006    3.9684 H   0  0  0  0  0  0  0  0  0  0  0  0
    6.1926   -3.7022    5.0158 H   0  0  0  0  0  0  0  0  0  0  0  0
    5.3999   -2.2469    5.5217 H   0  0  0  0  0  0  0  0  0  0  0  0
    5.4108   -2.8059    3.8120 H   0  0  0  0  0  0  0  0  0  0  0  0
    7.9306   -2.7137    6.3743 H   0  0  0  0  0  0  0  0  0  0  0  0
    8.8156   -1.2472    5.8807 H   0  0  0  0  0  0  0  0  0  0  0  0
    7.1637   -1.1299    6.4897 H   0  0  0  0  0  0  0  0  0  0  0  0
    5.0910    1.4749   -1.5585 H   0  0  0  0  0  0  0  0  0  0  0  0
    4.7171    3.1473   -1.6909 H   0  0  0  0  0  0  0  0  0  0  0  0
    3.5117    1.9493   -1.1108 H   0  0  0  0  0  0  0  0  0  0  0  0
    4.2897    2.2261   -5.3717 H   0  0  0  0  0  0  0  0  0  0  0  0
    5.2256    3.2704   -4.2612 H   0  0  0  0  0  0  0  0  0  0  0  0
    5.5778    1.5721   -4.4526 H   0  0  0  0  0  0  0  0  0  0  0  0
    2.1659    2.9212   -4.4068 H   0  0  0  0  0  0  0  0  0  0  0  0
    1.8493    2.8095   -2.6764 H   0  0  0  0  0  0  0  0  0  0  0  0
    3.0197    3.9983   -3.2830 H   0  0  0  0  0  0  0  0  0  0  0  0
  1  2  2  0  0  0  0
  2  3  1  0  0  0  0
  2 11  1  0  0  0  0
  3  4  1  0  0  0  0
  4  5  1  0  0  0  0
  4 47  1  0  0  0  0
  4 48  1  0  0  0  0
  5  6  2  0  0  0  0
  5 10  1  0  0  0  0
  6  7  1  0  0  0  0
  6 49  1  0  0  0  0
  7  8  2  0  0  0  0
  7 50  1  0  0  0  0
  8  9  1  0  0  0  0
  8 51  1  0  0  0  0
  9 10  2  0  0  0  0
  9 52  1  0  0  0  0
 10 53  1  0  0  0  0
 11 12  1  0  0  0  0
 11 54  1  0  0  0  0
 12 13  1  0  0  0  0
 12 55  1  0  0  0  0
 12 56  1  0  0  0  0
 13 14  1  0  0  0  0
 13 57  1  0  0  0  0
 13 58  1  0  0  0  0
 14 15  1  0  0  0  0
 14 59  1  0  0  0  0
 14 60  1  0  0  0  0
 15 61  1  0  0  0  0
 15 62  1  0  0  0  0
 16 40  1  0  0  0  0
 16 63  1  1  0  0  0
 16 17  1  0  0  0  0
 16 15  1  0  0  0  0
 17 18  1  0  0  0  0
 17 64  1  0  0  0  0
 18 39  2  0  0  0  0
 19 31  1  0  0  0  0
 19 65  1  6  0  0  0
 19 20  1  0  0  0  0
 19 18  1  0  0  0  0
 20 21  1  0  0  0  0
 20 66  1  0  0  0  0
 20 67  1  0  0  0  0
 21 22  1  0  0  0  0
 21 30  2  0  0  0  0
 22 23  1  0  0  0  0
 23 24  1  0  0  0  0
 23 68  1  0  0  0  0
 23 69  1  0  0  0  0
 24 25  2  0  0  0  0
 24 29  1  0  0  0  0
 25 26  1  0  0  0  0
 25 70  1  0  0  0  0
 26 27  2  0  0  0  0
 26 71  1  0  0  0  0
 27 28  1  0  0  0  0
 27 72  1  0  0  0  0
 28 29  2  0  0  0  0
 28 73  1  0  0  0  0
 29 74  1  0  0  0  0
 31 32  1  0  0  0  0
 31 75  1  0  0  0  0
 32 33  1  0  0  0  0
 32 38  2  0  0  0  0
 33 34  1  0  0  0  0
 34 35  1  0  0  0  0
 34 36  1  0  0  0  0
 34 37  1  0  0  0  0
 35 76  1  0  0  0  0
 35 77  1  0  0  0  0
 35 78  1  0  0  0  0
 36 79  1  0  0  0  0
 36 80  1  0  0  0  0
 36 81  1  0  0  0  0
 37 82  1  0  0  0  0
 37 83  1  0  0  0  0
 37 84  1  0  0  0  0
 40 41  1  0  0  0  0
 40 46  2  0  0  0  0
 41 42  1  0  0  0  0
 42 43  1  0  0  0  0
 42 44  1  0  0  0  0
 42 45  1  0  0  0  0
 43 85  1  0  0  0  0
 43 86  1  0  0  0  0
 43 87  1  0  0  0  0
 44 88  1  0  0  0  0
 44 89  1  0  0  0  0
 44 90  1  0  0  0  0
 45 91  1  0  0  0  0
 45 92  1  0  0  0  0
 45 93  1  0  0  0  0
M  END
>  <DRUGBANK_ID>
DB14072

>  <COMMON_NAME>
Reversin 121

>  <CAS_NUMBER>
174630-04-7

$$$$
