
 OpenBabel10282417113D

 83 89  0  0  0  0  0  0  0  0999 V2000
   -6.4231    1.4539   -2.7149 C   0  0  1  0  0  0  0  0  0  0  0  0
   -6.7156    0.6623   -0.9513 N   0  0  0  0  0  0  0  0  0  0  0  0
   -4.4072   -1.1231   -0.4553 C   0  0  2  0  0  0  0  0  0  0  0  0
   -5.0227    0.4984   -1.6119 C   0  0  0  0  0  0  0  0  0  0  0  0
   -5.2831   -0.4437    0.1652 C   0  0  0  0  0  0  0  0  0  0  0  0
   -5.5754    0.4024   -2.9444 C   0  0  0  0  0  0  0  0  0  0  0  0
   -4.4811    1.1726    0.9984 C   0  0  0  0  0  0  0  0  0  0  0  0
   -3.3107    0.8183   -0.5735 C   0  0  1  0  0  0  0  0  0  0  0  0
   -3.7881   -0.4735   -1.9695 N   0  0  0  0  0  0  0  0  0  0  0  0
   -6.2487    0.6142    1.1542 N   0  0  0  0  0  0  0  0  0  0  0  0
   -3.3481   -2.9764   -4.8191 C   0  0  0  0  0  0  0  0  0  0  0  0
   -8.3528   -0.7103    0.6281 C   0  0  0  0  0  0  0  0  0  0  0  0
   -8.1178    0.0614    2.0439 C   0  0  0  0  0  0  0  0  0  0  0  0
   -6.6824    0.3199    2.4497 C   0  0  0  0  0  0  0  0  0  0  0  0
   -4.4247   -1.5452   -2.7177 O   0  0  0  0  0  0  0  0  0  0  0  0
   -3.8245    1.3844    2.0340 O   0  0  0  0  0  0  0  0  0  0  0  0
   -3.1488   -0.4712   -3.3253 C   0  0  0  0  0  0  0  0  0  0  0  0
   -3.5584   -0.1819   -4.4575 O   0  0  0  0  0  0  0  0  0  0  0  0
   -2.7988   -1.7705   -2.6750 C   0  0  1  0  0  0  0  0  0  0  0  0
   -3.3863    2.5441   -0.9774 C   0  0  0  0  0  0  0  0  0  0  0  0
   -6.0674    3.2532   -0.9649 C   0  0  0  0  0  0  0  0  0  0  0  0
   -4.7153    3.2085   -1.7262 C   0  0  0  0  0  0  0  0  0  0  0  0
   -4.7782    4.5614   -2.2103 C   0  0  0  0  0  0  0  0  0  0  0  0
   -2.5892   -4.2240   -2.7258 C   0  0  0  0  0  0  0  0  0  0  0  0
   -3.1729   -3.0287   -3.3189 C   0  0  0  0  0  0  0  0  0  0  0  0
   -7.8873    1.3482   -0.5217 C   0  0  0  0  0  0  0  0  0  0  0  0
   -7.0620   -0.4767   -4.8063 C   0  0  0  0  0  0  0  0  0  0  0  0
   -6.0100   -0.8201   -4.0414 C   0  0  0  0  0  0  0  0  0  0  0  0
   -7.8334   -1.5142   -5.3073 C   0  0  0  0  0  0  0  0  0  0  0  0
   -6.0083   -2.3432   -3.7351 C   0  0  0  0  0  0  0  0  0  0  0  0
   -7.3701    1.9057   -3.9317 C   0  0  0  0  0  0  0  0  0  0  0  0
   -7.5854   -2.9162   -5.0832 C   0  0  0  0  0  0  0  0  0  0  0  0
   -6.6593   -3.3684   -4.2227 C   0  0  0  0  0  0  0  0  0  0  0  0
   -7.7403    0.7552   -4.8257 C   0  0  0  0  0  0  0  0  0  0  0  0
   -8.6703    0.5370   -5.7939 C   0  0  0  0  0  0  0  0  0  0  0  0
   -9.6418    1.8745   -6.6211 Br  0  0  0  0  0  0  0  0  0  0  0  0
   -8.7588   -0.8194   -6.0313 N   0  0  0  0  0  0  0  0  0  0  0  0
   -5.5770    1.6865   -3.4605 H   0  0  0  0  0  0  0  0  0  0  0  0
   -3.0955   -1.6324    0.0029 C   0  0  0  0  0  0  0  0  0  0  0  0
   -2.3216   -1.9325   -1.1173 N   0  0  0  0  0  0  0  0  0  0  0  0
   -2.8374   -1.6532    1.1931 O   0  0  0  0  0  0  0  0  0  0  0  0
   -6.9692   -0.9395   -0.0001 C   0  0  1  0  0  0  0  0  0  0  0  0
   -6.8816   -2.0408    0.1818 H   0  0  0  0  0  0  0  0  0  0  0  0
   -5.7203   -1.2512   -1.7120 C   0  0  1  0  0  0  0  0  0  0  0  0
   -7.2841   -1.1091   -2.3505 O   0  0  0  0  0  0  0  0  0  0  0  0
   -4.8726   -2.2031   -0.5289 H   0  0  0  0  0  0  0  0  0  0  0  0
   -4.8265    1.4357   -1.2715 H   0  0  0  0  0  0  0  0  0  0  0  0
   -5.7070   -1.4303    1.0281 H   0  0  0  0  0  0  0  0  0  0  0  0
   -4.8815   -0.5135    1.3727 H   0  0  0  0  0  0  0  0  0  0  0  0
   -2.2623    0.5049   -0.3744 H   0  0  0  0  0  0  0  0  0  0  0  0
   -2.3656   -2.9714   -5.2665 H   0  0  0  0  0  0  0  0  0  0  0  0
   -3.9758   -3.8082   -5.1254 H   0  0  0  0  0  0  0  0  0  0  0  0
   -3.8818   -2.1137   -5.2323 H   0  0  0  0  0  0  0  0  0  0  0  0
   -9.1010   -0.1024    0.1260 H   0  0  0  0  0  0  0  0  0  0  0  0
   -8.8303   -1.6684    0.6858 H   0  0  0  0  0  0  0  0  0  0  0  0
   -8.5136    1.0870    1.9846 H   0  0  0  0  0  0  0  0  0  0  0  0
   -8.6214   -0.5372    2.7737 H   0  0  0  0  0  0  0  0  0  0  0  0
   -6.3281    1.1337    3.0792 H   0  0  0  0  0  0  0  0  0  0  0  0
   -6.2533   -0.6139    2.8344 H   0  0  0  0  0  0  0  0  0  0  0  0
   -3.4385    3.0201    0.0095 H   0  0  0  0  0  0  0  0  0  0  0  0
   -2.5387    2.6754   -1.6317 H   0  0  0  0  0  0  0  0  0  0  0  0
   -6.1706    3.5703    0.0625 H   0  0  0  0  0  0  0  0  0  0  0  0
   -7.0372    3.2487   -1.5339 H   0  0  0  0  0  0  0  0  0  0  0  0
   -5.9745    2.3178   -0.5624 H   0  0  0  0  0  0  0  0  0  0  0  0
   -4.6404    2.7016   -2.6828 H   0  0  0  0  0  0  0  0  0  0  0  0
   -3.8977    4.6025   -2.8225 H   0  0  0  0  0  0  0  0  0  0  0  0
   -5.7228    4.6173   -2.7945 H   0  0  0  0  0  0  0  0  0  0  0  0
   -4.8136    5.0812   -1.2609 H   0  0  0  0  0  0  0  0  0  0  0  0
   -2.6448   -4.1597   -1.6325 H   0  0  0  0  0  0  0  0  0  0  0  0
   -3.2425   -5.0416   -3.0244 H   0  0  0  0  0  0  0  0  0  0  0  0
   -1.5834   -4.2813   -3.0889 H   0  0  0  0  0  0  0  0  0  0  0  0
   -4.1161   -3.2385   -2.8785 H   0  0  0  0  0  0  0  0  0  0  0  0
   -7.6468    2.0922    0.2229 H   0  0  0  0  0  0  0  0  0  0  0  0
   -7.9144    1.4003   -1.5664 H   0  0  0  0  0  0  0  0  0  0  0  0
   -8.9123    1.5103   -0.8558 H   0  0  0  0  0  0  0  0  0  0  0  0
   -5.6674   -2.7880   -2.7638 H   0  0  0  0  0  0  0  0  0  0  0  0
   -8.1437    2.4567   -3.4317 H   0  0  0  0  0  0  0  0  0  0  0  0
   -6.8939    2.6804   -4.6057 H   0  0  0  0  0  0  0  0  0  0  0  0
   -8.1163   -3.7087   -5.5586 H   0  0  0  0  0  0  0  0  0  0  0  0
   -6.3667   -4.3349   -3.8357 H   0  0  0  0  0  0  0  0  0  0  0  0
   -9.4023   -1.2663   -6.6518 H   0  0  0  0  0  0  0  0  0  0  0  0
   -1.3472   -1.8330   -0.9163 H   0  0  0  0  0  0  0  0  0  0  0  0
   -7.4949   -0.1773   -2.5557 H   0  0  0  0  0  0  0  0  0  0  0  0
  1 31  1  0  0  0  0
  1 38  1  1  0  0  0
  1  2  1  0  0  0  0
  2 26  1  0  0  0  0
  2  5  1  0  0  0  0
  3 39  1  0  0  0  0
  3  4  1  0  0  0  0
  3  5  1  0  0  0  0
  3 46  1  6  0  0  0
  4 47  1  0  0  0  0
  5 48  1  0  0  0  0
  5 49  1  0  0  0  0
  6  1  1  0  0  0  0
  6  4  2  0  0  0  0
  6 28  1  0  0  0  0
  7 16  2  0  0  0  0
  7 10  1  0  0  0  0
  8  7  1  0  0  0  0
  8 50  1  1  0  0  0
  8 20  1  0  0  0  0
  9  8  1  0  0  0  0
  9 17  1  0  0  0  0
 10 14  1  0  0  0  0
 10 42  1  0  0  0  0
 11 25  1  0  0  0  0
 11 51  1  0  0  0  0
 11 52  1  0  0  0  0
 11 53  1  0  0  0  0
 12 13  1  0  0  0  0
 12 54  1  0  0  0  0
 12 55  1  0  0  0  0
 13 14  1  0  0  0  0
 13 56  1  0  0  0  0
 13 57  1  0  0  0  0
 14 58  1  0  0  0  0
 14 59  1  0  0  0  0
 17 18  2  0  0  0  0
 19 15  1  0  0  0  0
 19 17  1  0  0  0  0
 19 40  1  6  0  0  0
 19 25  1  0  0  0  0
 20 22  1  0  0  0  0
 20 60  1  0  0  0  0
 20 61  1  0  0  0  0
 21 62  1  0  0  0  0
 21 63  1  0  0  0  0
 21 64  1  0  0  0  0
 22 21  1  0  0  0  0
 22 23  1  0  0  0  0
 22 65  1  0  0  0  0
 23 66  1  0  0  0  0
 23 67  1  0  0  0  0
 23 68  1  0  0  0  0
 24 69  1  0  0  0  0
 24 70  1  0  0  0  0
 24 71  1  0  0  0  0
 25 24  1  0  0  0  0
 25 72  1  0  0  0  0
 26 73  1  0  0  0  0
 26 74  1  0  0  0  0
 26 75  1  0  0  0  0
 27 28  2  0  0  0  0
 27 34  1  0  0  0  0
 27 29  1  0  0  0  0
 28 30  1  0  0  0  0
 29 37  1  0  0  0  0
 29 32  2  0  0  0  0
 30 33  2  0  0  0  0
 30 76  1  0  0  0  0
 31 77  1  0  0  0  0
 31 78  1  0  0  0  0
 32 33  1  0  0  0  0
 32 79  1  0  0  0  0
 33 80  1  0  0  0  0
 34 31  1  0  0  0  0
 34 35  2  0  0  0  0
 35 37  1  0  0  0  0
 35 36  1  0  0  0  0
 37 81  1  0  0  0  0
 39 41  2  0  0  0  0
 39 40  1  0  0  0  0
 40 82  1  0  0  0  0
 42 12  1  0  0  0  0
 42 44  1  0  0  0  0
 42 43  1  1  0  0  0
 44  9  1  0  0  0  0
 44 15  1  0  0  0  0
 44 45  1  6  0  0  0
 45 83  1  0  0  0  0
M  END
>  <DRUGBANK_ID>
DB01200

>  <SECONDARY_ACCESSION_NUMBERS>
APRD00622

>  <COMMON_NAME>
Bromocriptine

>  <CAS_NUMBER>
25614-03-3

>  <UNII>
3A64E3G5ZO

>  <SYNONYMS>
2-Bromo-alpha-ergocryptine; 2-Bromo-alpha-ergokryptin; 2-Bromo-alpha-ergokryptine; 2-bromo-α-ergocryptine; 2-bromo-α-ergokryptin; 2-bromo-α-ergokryptine; Bromocriptina; Bromocriptine; Bromocriptinum; Bromocryptine; Bromoergocriptine; Bromoergocryptine

$$$$
