
 OpenBabel10282417133D

 81 80  0  0  0  0  0  0  0  0999 V2000
    0.6526   -0.1517    0.1278 C   0  0  0  0  0  0  0  0  0  0  0  0
    0.4598    0.0619    1.5493 N   0  0  0  0  0  0  0  0  0  0  0  0
   -0.9819    0.1921    1.7321 C   0  0  0  0  0  0  0  0  0  0  0  0
    0.9395   -1.0287    2.3862 C   0  0  0  0  0  0  0  0  0  0  0  0
    0.6173   -2.4230    1.8449 C   0  0  0  0  0  0  0  0  0  0  0  0
    1.2468   -2.8767    0.5124 C   0  0  0  0  0  0  0  0  0  0  0  0
    2.7551   -2.7275    0.3903 C   0  0  0  0  0  0  0  0  0  0  0  0
    3.4346   -3.9130   -0.1872 C   0  0  0  0  0  0  0  0  0  0  0  0
    3.4895   -1.6580    0.7557 C   0  0  0  0  0  0  0  0  0  0  0  0
    4.9667   -1.4123    0.7275 C   0  0  0  0  0  0  0  0  0  0  0  0
    5.3738   -0.2021   -0.1467 C   0  0  0  0  0  0  0  0  0  0  0  0
    4.9638    1.1762    0.3585 C   0  0  0  0  0  0  0  0  0  0  0  0
    5.9920    2.1691    0.7550 C   0  0  0  0  0  0  0  0  0  0  0  0
    3.6591    1.5720    0.3722 C   0  0  0  0  0  0  0  0  0  0  0  0
    3.0351    2.8143    0.9356 C   0  0  0  0  0  0  0  0  0  0  0  0
    2.2183    3.5968   -0.1025 C   0  0  0  0  0  0  0  0  0  0  0  0
    0.9968    2.8749   -0.5829 C   0  0  0  0  0  0  0  0  0  0  0  0
   -0.3290    3.1235   -0.4544 C   0  0  0  0  0  0  0  0  0  0  0  0
   -0.7557    4.3964    0.1992 C   0  0  0  0  0  0  0  0  0  0  0  0
   -1.5156    2.2252   -0.9192 C   0  0  0  0  0  0  0  0  0  0  0  0
   -1.5816    1.7512   -2.3702 C   0  0  0  0  0  0  0  0  0  0  0  0
   -0.4608    0.8163   -2.6825 C   0  0  0  0  0  0  0  0  0  0  0  0
   -0.3793   -0.4718   -3.0386 C   0  0  0  0  0  0  0  0  0  0  0  0
   -1.5969   -1.3070   -3.2253 C   0  0  0  0  0  0  0  0  0  0  0  0
    0.9831   -1.1351   -3.2554 C   0  0  0  0  0  0  0  0  0  0  0  0
    1.8703   -0.4394   -4.3116 C   0  0  0  0  0  0  0  0  0  0  0  0
    2.3519    0.9428   -3.9388 C   0  0  0  0  0  0  0  0  0  0  0  0
    3.6073    1.3257   -3.6680 C   0  0  0  0  0  0  0  0  0  0  0  0
    3.9031    2.7112   -3.1726 C   0  0  0  0  0  0  0  0  0  0  0  0
    4.7533    0.4041   -3.9028 C   0  0  0  0  0  0  0  0  0  0  0  0
    0.3403    0.7207   -0.3707 H   0  0  0  0  0  0  0  0  0  0  0  0
   -0.0205   -0.8769   -0.3154 H   0  0  0  0  0  0  0  0  0  0  0  0
    1.6525   -0.3309   -0.2462 H   0  0  0  0  0  0  0  0  0  0  0  0
   -1.5221   -0.5676    1.1498 H   0  0  0  0  0  0  0  0  0  0  0  0
   -1.2885    0.1230    2.7716 H   0  0  0  0  0  0  0  0  0  0  0  0
   -1.2884    1.1862    1.4280 H   0  0  0  0  0  0  0  0  0  0  0  0
    1.9953   -0.9130    2.6390 H   0  0  0  0  0  0  0  0  0  0  0  0
    0.5038   -0.9048    3.3849 H   0  0  0  0  0  0  0  0  0  0  0  0
    0.9226   -3.1426    2.6078 H   0  0  0  0  0  0  0  0  0  0  0  0
   -0.4741   -2.5112    1.7638 H   0  0  0  0  0  0  0  0  0  0  0  0
    0.9404   -3.9220    0.3907 H   0  0  0  0  0  0  0  0  0  0  0  0
    0.7864   -2.4693   -0.3920 H   0  0  0  0  0  0  0  0  0  0  0  0
    4.0232   -3.6188   -1.0593 H   0  0  0  0  0  0  0  0  0  0  0  0
    4.0706   -4.3387    0.5905 H   0  0  0  0  0  0  0  0  0  0  0  0
    2.7176   -4.6729   -0.5049 H   0  0  0  0  0  0  0  0  0  0  0  0
    3.0193   -0.7784    1.1556 H   0  0  0  0  0  0  0  0  0  0  0  0
    5.2852   -1.2356    1.7619 H   0  0  0  0  0  0  0  0  0  0  0  0
    5.4837   -2.3094    0.3787 H   0  0  0  0  0  0  0  0  0  0  0  0
    6.4660   -0.2335   -0.2458 H   0  0  0  0  0  0  0  0  0  0  0  0
    4.9784   -0.3539   -1.1553 H   0  0  0  0  0  0  0  0  0  0  0  0
    5.8731    3.0682    0.1355 H   0  0  0  0  0  0  0  0  0  0  0  0
    5.8651    2.4450    1.8053 H   0  0  0  0  0  0  0  0  0  0  0  0
    7.0063    1.7976    0.6011 H   0  0  0  0  0  0  0  0  0  0  0  0
    2.9789    0.8970   -0.0854 H   0  0  0  0  0  0  0  0  0  0  0  0
    2.3967    2.5275    1.7837 H   0  0  0  0  0  0  0  0  0  0  0  0
    3.7962    3.4901    1.3325 H   0  0  0  0  0  0  0  0  0  0  0  0
    1.9975    4.5872    0.2826 H   0  0  0  0  0  0  0  0  0  0  0  0
    2.8471    3.7490   -0.9776 H   0  0  0  0  0  0  0  0  0  0  0  0
    1.3674    2.0054   -1.0979 H   0  0  0  0  0  0  0  0  0  0  0  0
   -1.3544    4.9589   -0.5193 H   0  0  0  0  0  0  0  0  0  0  0  0
   -1.3225    4.2078    1.1132 H   0  0  0  0  0  0  0  0  0  0  0  0
    0.0879    5.0316    0.4671 H   0  0  0  0  0  0  0  0  0  0  0  0
   -1.5947    1.2938   -0.3634 H   0  0  0  0  0  0  0  0  0  0  0  0
   -2.4597    2.7205   -0.6568 H   0  0  0  0  0  0  0  0  0  0  0  0
   -2.5430    1.2550   -2.5193 H   0  0  0  0  0  0  0  0  0  0  0  0
   -1.5368    2.6154   -3.0336 H   0  0  0  0  0  0  0  0  0  0  0  0
    0.4776    1.2943   -2.5075 H   0  0  0  0  0  0  0  0  0  0  0  0
   -1.6583   -1.6174   -4.2694 H   0  0  0  0  0  0  0  0  0  0  0  0
   -1.5750   -2.1793   -2.5673 H   0  0  0  0  0  0  0  0  0  0  0  0
   -2.5087   -0.7540   -2.9904 H   0  0  0  0  0  0  0  0  0  0  0  0
    1.5393   -1.2192   -2.3121 H   0  0  0  0  0  0  0  0  0  0  0  0
    0.8284   -2.1745   -3.5761 H   0  0  0  0  0  0  0  0  0  0  0  0
    2.7236   -1.0974   -4.5052 H   0  0  0  0  0  0  0  0  0  0  0  0
    1.3121   -0.3629   -5.2485 H   0  0  0  0  0  0  0  0  0  0  0  0
    1.6003    1.7259   -3.9094 H   0  0  0  0  0  0  0  0  0  0  0  0
    4.4428    2.6702   -2.2210 H   0  0  0  0  0  0  0  0  0  0  0  0
    4.5059    3.2708   -3.8887 H   0  0  0  0  0  0  0  0  0  0  0  0
    2.9822    3.2828   -3.0096 H   0  0  0  0  0  0  0  0  0  0  0  0
    4.6687   -0.4945   -3.2872 H   0  0  0  0  0  0  0  0  0  0  0  0
    4.7462    0.1050   -4.9566 H   0  0  0  0  0  0  0  0  0  0  0  0
    5.7099    0.8880   -3.6986 H   0  0  0  0  0  0  0  0  0  0  0  0
  1  2  1  0  0  0  0
  1 31  1  0  0  0  0
  1 32  1  0  0  0  0
  1 33  1  0  0  0  0
  2  3  1  0  0  0  0
  2  4  1  0  0  0  0
  3 34  1  0  0  0  0
  3 35  1  0  0  0  0
  3 36  1  0  0  0  0
  4  5  1  0  0  0  0
  4 37  1  0  0  0  0
  4 38  1  0  0  0  0
  5  6  1  0  0  0  0
  5 39  1  0  0  0  0
  5 40  1  0  0  0  0
  6  7  1  0  0  0  0
  6 41  1  0  0  0  0
  6 42  1  0  0  0  0
  7  8  1  0  0  0  0
  7  9  2  0  0  0  0
  8 43  1  0  0  0  0
  8 44  1  0  0  0  0
  8 45  1  0  0  0  0
  9 10  1  0  0  0  0
  9 46  1  0  0  0  0
 10 11  1  0  0  0  0
 10 47  1  0  0  0  0
 10 48  1  0  0  0  0
 11 12  1  0  0  0  0
 11 49  1  0  0  0  0
 11 50  1  0  0  0  0
 12 13  1  0  0  0  0
 12 14  2  0  0  0  0
 13 51  1  0  0  0  0
 13 52  1  0  0  0  0
 13 53  1  0  0  0  0
 14 15  1  0  0  0  0
 14 54  1  0  0  0  0
 15 16  1  0  0  0  0
 15 55  1  0  0  0  0
 15 56  1  0  0  0  0
 16 17  1  0  0  0  0
 16 57  1  0  0  0  0
 16 58  1  0  0  0  0
 17 18  2  0  0  0  0
 17 59  1  0  0  0  0
 18 19  1  0  0  0  0
 18 20  1  0  0  0  0
 19 60  1  0  0  0  0
 19 61  1  0  0  0  0
 19 62  1  0  0  0  0
 20 21  1  0  0  0  0
 20 63  1  0  0  0  0
 20 64  1  0  0  0  0
 21 22  1  0  0  0  0
 21 65  1  0  0  0  0
 21 66  1  0  0  0  0
 22 23  2  0  0  0  0
 22 67  1  0  0  0  0
 23 24  1  0  0  0  0
 23 25  1  0  0  0  0
 24 68  1  0  0  0  0
 24 69  1  0  0  0  0
 24 70  1  0  0  0  0
 25 26  1  0  0  0  0
 25 71  1  0  0  0  0
 25 72  1  0  0  0  0
 26 27  1  0  0  0  0
 26 73  1  0  0  0  0
 26 74  1  0  0  0  0
 27 28  2  0  0  0  0
 27 75  1  0  0  0  0
 28 29  1  0  0  0  0
 28 30  1  0  0  0  0
 29 76  1  0  0  0  0
 29 77  1  0  0  0  0
 29 78  1  0  0  0  0
 30 79  1  0  0  0  0
 30 80  1  0  0  0  0
 30 81  1  0  0  0  0
M  END
>  <DRUGBANK_ID>
DB03874

>  <SECONDARY_ACCESSION_NUMBERS>
EXPT02951

>  <COMMON_NAME>
(4e,8e,12z,16z)-N,N,4,8,13,17,21-Heptamethyldocosa-4,8,12,16,20-Pentaen-1-Amine

$$$$
