PHC
 OpenBabel10282417143D

 25 25  0  0  0  0  0  0  0  0999 V2000
    0.8530    0.0517   -0.0568 N   0  0  0  0  0  0  0  0  0  0  0  0
    0.0806    1.1933   -0.1528 C   0  0  0  0  0  0  0  0  0  0  0  0
   -1.1492    1.2387   -0.1623 O   0  0  0  0  0  0  0  0  0  0  0  0
    0.1480   -1.2188    0.0630 C   0  0  0  0  0  0  0  0  0  0  0  0
    2.3457    0.0551   -0.0275 C   0  0  1  0  0  0  0  0  0  0  0  0
    2.9506    1.4491   -0.2768 C   0  0  0  0  0  0  0  0  0  0  0  0
    2.8615   -0.5476    1.2808 C   0  0  0  0  0  0  0  0  0  0  0  0
    3.1883    0.2675    2.3758 C   0  0  0  0  0  0  0  0  0  0  0  0
    2.8769   -1.9416    1.4672 C   0  0  0  0  0  0  0  0  0  0  0  0
    3.4285   -0.2756    3.6334 C   0  0  0  0  0  0  0  0  0  0  0  0
    3.0403   -2.4800    2.7456 C   0  0  0  0  0  0  0  0  0  0  0  0
    3.3286   -1.6475    3.8244 C   0  0  0  0  0  0  0  0  0  0  0  0
    2.6728   -0.5854   -0.8598 H   0  0  0  0  0  0  0  0  0  0  0  0
    0.6500    2.1233   -0.2433 H   0  0  0  0  0  0  0  0  0  0  0  0
    0.4602   -1.8815   -0.7482 H   0  0  0  0  0  0  0  0  0  0  0  0
    0.3638   -1.6784    1.0298 H   0  0  0  0  0  0  0  0  0  0  0  0
   -0.9365   -1.0900    0.0167 H   0  0  0  0  0  0  0  0  0  0  0  0
    2.6216    2.1671    0.4852 H   0  0  0  0  0  0  0  0  0  0  0  0
    4.0443    1.4288   -0.2490 H   0  0  0  0  0  0  0  0  0  0  0  0
    2.6364    1.8523   -1.2440 H   0  0  0  0  0  0  0  0  0  0  0  0
    3.2320    1.3476    2.2863 H   0  0  0  0  0  0  0  0  0  0  0  0
    2.6753   -2.6162    0.6365 H   0  0  0  0  0  0  0  0  0  0  0  0
    3.6449    0.3872    4.4661 H   0  0  0  0  0  0  0  0  0  0  0  0
    2.9016   -3.5456    2.9094 H   0  0  0  0  0  0  0  0  0  0  0  0
    3.4697   -2.0643    4.8167 H   0  0  0  0  0  0  0  0  0  0  0  0
  1  2  1  0  0  0  0
  1  4  1  0  0  0  0
  1  5  1  0  0  0  0
  2  3  2  0  0  0  0
  2 14  1  0  0  0  0
  4 15  1  0  0  0  0
  4 16  1  0  0  0  0
  4 17  1  0  0  0  0
  5  6  1  0  0  0  0
  5  7  1  0  0  0  0
  5 13  1  6  0  0  0
  6 18  1  0  0  0  0
  6 19  1  0  0  0  0
  6 20  1  0  0  0  0
  7  8  2  0  0  0  0
  7  9  1  0  0  0  0
  8 10  1  0  0  0  0
  8 21  1  0  0  0  0
  9 11  2  0  0  0  0
  9 22  1  0  0  0  0
 10 12  2  0  0  0  0
 10 23  1  0  0  0  0
 11 12  1  0  0  0  0
 11 24  1  0  0  0  0
 12 25  1  0  0  0  0
M  END
>  <DRUGBANK_ID>
DB04379

>  <SECONDARY_ACCESSION_NUMBERS>
EXPT02581

>  <COMMON_NAME>
N-Methyl-N-(Methylbenzyl)Formamide

$$$$
