
 OpenBabel10282417213D

  1  0  0  0  0  0  0  0  0  0999 V2000
    1.0747   -0.0070   -0.0661 Co  0  0  0  0  0  0  0  0  0  0  0  0
M  END
>  <DRUGBANK_ID>
DB14574

>  <COMMON_NAME>
Cobalt

>  <CAS_NUMBER>
7440-48-4

>  <UNII>
3G0H8C9362

>  <SYNONYMS>
Cobalt; Cobalt, elemental; Cobalto; Cobaltum; Kobalt

$$$$
