
 OpenBabel10282417203D

 27 26  0  0  0  0  0  0  0  0999 V2000
    1.1455   -0.0721    0.0659 C   0  0  0  0  0  0  0  0  0  0  0  0
    0.6000   -1.3963   -0.4730 C   0  0  0  0  0  0  0  0  0  0  0  0
    1.0811   -2.5581    0.3834 C   0  0  0  0  0  0  0  0  0  0  0  0
   -0.9359   -1.3716   -0.5746 C   0  0  0  0  0  0  0  0  0  0  0  0
   -1.4655   -0.2365   -1.4652 C   0  0  3  0  0  0  0  0  0  0  0  0
   -1.0266   -0.3861   -2.9319 C   0  0  0  0  0  0  0  0  0  0  0  0
   -1.7472   -0.6063   -3.8963 O   0  0  0  0  0  0  0  0  0  0  0  0
    0.3068   -0.2553   -3.1017 O   0  0  0  0  0  0  0  0  0  0  0  0
   -2.9220   -0.1580   -1.3469 N   0  0  0  0  0  0  0  0  0  0  0  0
   -3.6596    0.9086   -0.9183 C   0  0  0  0  0  0  0  0  0  0  0  0
   -4.8868    0.8579   -0.9446 O   0  0  0  0  0  0  0  0  0  0  0  0
   -2.9245    2.1178   -0.3997 C   0  0  0  0  0  0  0  0  0  0  0  0
    0.7713    0.1167    1.0773 H   0  0  0  0  0  0  0  0  0  0  0  0
    0.8620    0.7809   -0.5575 H   0  0  0  0  0  0  0  0  0  0  0  0
    2.2378   -0.0812    0.0885 H   0  0  0  0  0  0  0  0  0  0  0  0
    1.0276   -1.5830   -1.4609 H   0  0  0  0  0  0  0  0  0  0  0  0
    0.7300   -2.4656    1.4141 H   0  0  0  0  0  0  0  0  0  0  0  0
    0.7255   -3.5089   -0.0270 H   0  0  0  0  0  0  0  0  0  0  0  0
    2.1761   -2.5860    0.3872 H   0  0  0  0  0  0  0  0  0  0  0  0
   -1.3013   -2.3376   -0.9490 H   0  0  0  0  0  0  0  0  0  0  0  0
   -1.3552   -1.2632    0.4366 H   0  0  0  0  0  0  0  0  0  0  0  0
   -1.0728    0.7197   -1.1266 H   0  0  0  0  0  0  0  0  0  0  0  0
    0.5006   -0.4961   -4.0312 H   0  0  0  0  0  0  0  0  0  0  0  0
   -3.4743   -0.9116   -1.7430 H   0  0  0  0  0  0  0  0  0  0  0  0
   -2.3025    1.8422    0.4570 H   0  0  0  0  0  0  0  0  0  0  0  0
   -2.3084    2.5515   -1.1928 H   0  0  0  0  0  0  0  0  0  0  0  0
   -3.6416    2.8762   -0.0744 H   0  0  0  0  0  0  0  0  0  0  0  0
  1  2  1  0  0  0  0
  1 13  1  0  0  0  0
  1 14  1  0  0  0  0
  1 15  1  0  0  0  0
  2  3  1  0  0  0  0
  2  4  1  0  0  0  0
  2 16  1  0  0  0  0
  3 17  1  0  0  0  0
  3 18  1  0  0  0  0
  3 19  1  0  0  0  0
  4  5  1  0  0  0  0
  4 20  1  0  0  0  0
  4 21  1  0  0  0  0
  5  6  1  0  0  0  0
  5  9  1  0  0  0  0
  5 22  1  0  0  0  0
  6  7  2  0  0  0  0
  6  8  1  0  0  0  0
  8 23  1  0  0  0  0
  9 10  1  0  0  0  0
  9 24  1  0  0  0  0
 10 11  2  0  0  0  0
 10 12  1  0  0  0  0
 12 25  1  0  0  0  0
 12 26  1  0  0  0  0
 12 27  1  0  0  0  0
M  END
>  <DRUGBANK_ID>
DB13226

>  <COMMON_NAME>
Acetylleucine

>  <CAS_NUMBER>
99-15-0

>  <UNII>
K76S41V71X

>  <SYNONYMS>
(R,S)-N-Acetylleucin; Acetileucina; Acetylleucine; Acetylleucinum; N-Acetyl-DL-Leucine

$$$$
