436
 OpenBabel10282417103D

 41 43  0  0  1  0  0  0  0  0999 V2000
    1.2626   -0.5493   -0.0709 S   0  0  0  0  0  0  0  0  0  0  0  0
   -3.6926   -2.8764    0.3171 S   0  0  0  0  0  0  0  0  0  0  0  0
   -5.1670    0.9159    0.8617 F   0  0  0  0  0  0  0  0  0  0  0  0
   -5.0752    0.7000   -1.2955 F   0  0  0  0  0  0  0  0  0  0  0  0
   -5.5575   -1.0014   -0.0536 F   0  0  0  0  0  0  0  0  0  0  0  0
    1.6589   -1.6883    0.7192 O   0  0  0  0  0  0  0  0  0  0  0  0
    1.7263   -0.3660   -1.4319 O   0  0  0  0  0  0  0  0  0  0  0  0
   -4.3296   -2.7242    1.6022 O   0  0  0  0  0  0  0  0  0  0  0  0
   -4.4088   -3.1180   -0.9124 O   0  0  0  0  0  0  0  0  0  0  0  0
    1.6827    0.8083    0.7943 N   0  0  0  0  0  0  0  0  0  0  0  0
   -0.2710    2.0127    0.0830 N   0  0  0  0  0  0  0  0  0  0  0  0
   -2.6493   -4.1801    0.5024 N   0  0  0  0  0  0  0  0  0  0  0  0
    1.1724    2.0348    0.1985 C   0  0  3  0  0  0  0  0  0  0  0  0
   -0.4840   -0.4179   -0.0469 C   0  0  0  0  0  0  0  0  0  0  0  0
   -1.0227    0.8663   -0.0662 C   0  0  0  0  0  0  0  0  0  0  0  0
    1.5598    3.2071    1.1222 C   0  0  0  0  0  0  0  0  0  0  0  0
   -1.2730   -1.5715    0.0507 C   0  0  0  0  0  0  0  0  0  0  0  0
   -2.4162    0.9640   -0.1031 C   0  0  0  0  0  0  0  0  0  0  0  0
   -2.6658   -1.4461    0.0684 C   0  0  0  0  0  0  0  0  0  0  0  0
   -3.2582   -0.1750   -0.0491 C   0  0  0  0  0  0  0  0  0  0  0  0
    3.0514    3.3325    1.3067 C   0  0  0  0  0  0  0  0  0  0  0  0
   -4.7482    0.0774   -0.1272 C   0  0  0  0  0  0  0  0  0  0  0  0
    3.8787    3.5362    0.1943 C   0  0  0  0  0  0  0  0  0  0  0  0
    3.6194    3.2569    2.5837 C   0  0  0  0  0  0  0  0  0  0  0  0
    5.2506    3.6892    0.3578 C   0  0  0  0  0  0  0  0  0  0  0  0
    4.9848    3.4772    2.7494 C   0  0  0  0  0  0  0  0  0  0  0  0
    5.8018    3.6697    1.6360 C   0  0  0  0  0  0  0  0  0  0  0  0
    2.6954    0.8258    0.9244 H   0  0  0  0  0  0  0  0  0  0  0  0
   -0.7147    2.9056   -0.1063 H   0  0  0  0  0  0  0  0  0  0  0  0
   -2.1284   -4.1311    1.3776 H   0  0  0  0  0  0  0  0  0  0  0  0
   -3.2231   -5.0301    0.4861 H   0  0  0  0  0  0  0  0  0  0  0  0
    1.6211    2.1889   -0.7902 H   0  0  0  0  0  0  0  0  0  0  0  0
    1.1891    4.1547    0.7091 H   0  0  0  0  0  0  0  0  0  0  0  0
    1.0649    3.0914    2.0970 H   0  0  0  0  0  0  0  0  0  0  0  0
   -0.7852   -2.5400    0.1240 H   0  0  0  0  0  0  0  0  0  0  0  0
   -2.8752    1.9537   -0.1560 H   0  0  0  0  0  0  0  0  0  0  0  0
    3.4638    3.5748   -0.8104 H   0  0  0  0  0  0  0  0  0  0  0  0
    3.0064    3.0310    3.4548 H   0  0  0  0  0  0  0  0  0  0  0  0
    5.8827    3.8465   -0.5117 H   0  0  0  0  0  0  0  0  0  0  0  0
    5.4114    3.5110    3.7484 H   0  0  0  0  0  0  0  0  0  0  0  0
    6.8717    3.8048    1.7651 H   0  0  0  0  0  0  0  0  0  0  0  0
  1  6  2  0  0  0  0
  1  7  2  0  0  0  0
  1 10  1  0  0  0  0
  1 14  1  0  0  0  0
  2  8  2  0  0  0  0
  2  9  2  0  0  0  0
  2 12  1  0  0  0  0
  2 19  1  0  0  0  0
  3 22  1  0  0  0  0
  4 22  1  0  0  0  0
  5 22  1  0  0  0  0
 10 13  1  0  0  0  0
 10 28  1  0  0  0  0
 11 13  1  0  0  0  0
 11 15  1  0  0  0  0
 11 29  1  0  0  0  0
 12 30  1  0  0  0  0
 12 31  1  0  0  0  0
 13 16  1  0  0  0  0
 13 32  1  0  0  0  0
 14 15  2  0  0  0  0
 14 17  1  0  0  0  0
 15 18  1  0  0  0  0
 16 21  1  0  0  0  0
 16 33  1  0  0  0  0
 16 34  1  0  0  0  0
 17 19  2  0  0  0  0
 17 35  1  0  0  0  0
 18 20  2  0  0  0  0
 18 36  1  0  0  0  0
 19 20  1  0  0  0  0
 20 22  1  0  0  0  0
 21 23  2  0  0  0  0
 21 24  1  0  0  0  0
 23 25  1  0  0  0  0
 23 37  1  0  0  0  0
 24 26  2  0  0  0  0
 24 38  1  0  0  0  0
 25 27  2  0  0  0  0
 25 39  1  0  0  0  0
 26 27  1  0  0  0  0
 26 40  1  0  0  0  0
 27 41  1  0  0  0  0
M  END
>  <DRUGBANK_ID>
DB00436

>  <SECONDARY_ACCESSION_NUMBERS>
APRD00666

>  <COMMON_NAME>
Bendroflumethiazide

>  <CAS_NUMBER>
73-48-3

>  <UNII>
5Q52X6ICJI

>  <SYNONYMS>
±-3-benzyl-3,4-dihydro-6-(trifluoromethyl)-2H-1,2,4-benzothiadiazine-7-sulfonamide 1,1-dioxide; 6-trifluoromethyl-3-benzyl-7-sulfamyl-3,4-dihydro-1,2,4-benzothiadiazine 1,1-dioxide; Bendrofluazide; Bendroflumethiazid; Bendrofluméthiazide; Bendroflumethiazide; Bendroflumethiazidum; Bendroflumetiazida; Benzhydroflumethiazide

$$$$
