
 OpenBabel10282417183D

 31 31  0  0  0  0  0  0  0  0999 V2000
    0.2471    1.1753    0.0143 C   0  0  0  0  0  0  0  0  0  0  0  0
   -0.4020   -0.0461   -0.0170 C   0  0  0  0  0  0  0  0  0  0  0  0
    0.3356   -1.2291   -0.0162 C   0  0  0  0  0  0  0  0  0  0  0  0
    1.7374   -1.1851    0.0090 C   0  0  0  0  0  0  0  0  0  0  0  0
    2.4005    0.0420    0.0524 C   0  0  0  0  0  0  0  0  0  0  0  0
    1.6350    1.2070    0.0803 C   0  0  0  0  0  0  0  0  0  0  0  0
    3.7695    0.0002    0.0637 O   0  0  0  0  0  0  0  0  0  0  0  0
    4.4567    1.2496    0.0130 C   0  0  0  0  0  0  0  0  0  0  0  0
    4.2424    2.0582   -1.2770 C   0  0  0  0  0  0  0  0  0  0  0  0
    3.6942    3.3250   -1.0769 N   0  0  0  0  0  0  0  0  0  0  0  0
    3.2931    4.0940   -2.1919 N   0  0  0  0  0  0  0  0  0  0  0  0
    4.0168    5.3726   -2.2179 C   0  0  0  0  0  0  0  0  0  0  0  0
    5.5283    5.1415   -2.1939 C   0  0  0  0  0  0  0  0  0  0  0  0
   -2.1190   -0.0779   -0.0243 Cl  0  0  0  0  0  0  0  0  0  0  0  0
    4.4936    1.6152   -2.4007 O   0  0  0  0  0  0  0  0  0  0  0  0
    3.6334    6.1617   -3.4681 C   0  0  0  0  0  0  0  0  0  0  0  0
   -0.3001    2.1134   -0.0033 H   0  0  0  0  0  0  0  0  0  0  0  0
   -0.1755   -2.1868   -0.0382 H   0  0  0  0  0  0  0  0  0  0  0  0
    2.3042   -2.1135   -0.0028 H   0  0  0  0  0  0  0  0  0  0  0  0
    2.0671    2.1873    0.1557 H   0  0  0  0  0  0  0  0  0  0  0  0
    4.2301    1.8385    0.9115 H   0  0  0  0  0  0  0  0  0  0  0  0
    5.5320    1.0372    0.0679 H   0  0  0  0  0  0  0  0  0  0  0  0
    3.4690    3.6778   -0.1497 H   0  0  0  0  0  0  0  0  0  0  0  0
    3.5242    3.5489   -3.0366 H   0  0  0  0  0  0  0  0  0  0  0  0
    3.7206    5.9595   -1.3390 H   0  0  0  0  0  0  0  0  0  0  0  0
    5.8473    4.5538   -3.0616 H   0  0  0  0  0  0  0  0  0  0  0  0
    6.0652    6.0931   -2.1986 H   0  0  0  0  0  0  0  0  0  0  0  0
    5.8381    4.6035   -1.2910 H   0  0  0  0  0  0  0  0  0  0  0  0
    2.5579    6.3669   -3.5006 H   0  0  0  0  0  0  0  0  0  0  0  0
    4.1554    7.1252   -3.4810 H   0  0  0  0  0  0  0  0  0  0  0  0
    3.9060    5.6227   -4.3823 H   0  0  0  0  0  0  0  0  0  0  0  0
  1  2  2  0  0  0  0
  1  6  1  0  0  0  0
  1 17  1  0  0  0  0
  2  3  1  0  0  0  0
  2 14  1  0  0  0  0
  3  4  2  0  0  0  0
  3 18  1  0  0  0  0
  4  5  1  0  0  0  0
  4 19  1  0  0  0  0
  5  6  2  0  0  0  0
  5  7  1  0  0  0  0
  6 20  1  0  0  0  0
  7  8  1  0  0  0  0
  8  9  1  0  0  0  0
  8 21  1  0  0  0  0
  8 22  1  0  0  0  0
  9 10  1  0  0  0  0
  9 15  2  0  0  0  0
 10 11  1  0  0  0  0
 10 23  1  0  0  0  0
 11 12  1  0  0  0  0
 11 24  1  0  0  0  0
 12 13  1  0  0  0  0
 12 16  1  0  0  0  0
 12 25  1  0  0  0  0
 13 26  1  0  0  0  0
 13 27  1  0  0  0  0
 13 28  1  0  0  0  0
 16 29  1  0  0  0  0
 16 30  1  0  0  0  0
 16 31  1  0  0  0  0
M  END
>  <DRUGBANK_ID>
DB09247

>  <COMMON_NAME>
Iproclozide

>  <CAS_NUMBER>
3544-35-2

>  <UNII>
1II9D6CB3J

>  <SYNONYMS>
Iproclozide

$$$$
