
 OpenBabel10282417103D

 42 44  0  0  1  0  0  0  0  0999 V2000
    1.0120   -1.3683   -0.0664 C   0  0  0  0  0  0  0  0  0  0  0  0
   -0.1833   -0.6732   -0.1298 C   0  0  0  0  0  0  0  0  0  0  0  0
    1.0155    1.4659    0.0015 C   0  0  0  0  0  0  0  0  0  0  0  0
    2.2128   -0.6564   -0.0780 C   0  0  0  0  0  0  0  0  0  0  0  0
    2.2068    0.7453   -0.0541 C   0  0  0  0  0  0  0  0  0  0  0  0
   -0.1522    0.7184   -0.0908 C   0  0  0  0  0  0  0  0  0  0  0  0
    3.4994   -1.4327   -0.0496 C   0  0  0  0  0  0  0  0  0  0  0  0
   -2.1592    0.0637   -0.7238 C   0  0  0  0  0  0  0  0  0  0  0  0
   -1.5229   -1.1002   -0.2798 C   0  0  0  0  0  0  0  0  0  0  0  0
   -2.0773   -2.5176   -0.0949 C   0  0  0  0  0  0  0  0  0  0  0  0
   -4.2337   -2.0457    1.3097 N   0  0  0  0  0  0  0  0  0  0  0  0
   -5.0650   -2.4209    2.4375 C   0  0  0  0  0  0  0  0  0  0  0  0
   -3.9468   -0.6495    1.5573 C   0  0  0  0  0  0  0  0  0  0  0  0
   -2.9626   -2.8127    1.1871 C   0  0  0  0  0  0  0  0  0  0  0  0
   -1.4508    1.1190   -0.1954 N   0  0  0  0  0  0  0  0  0  0  0  0
    3.6359   -2.2797    1.2240 C   0  0  2  0  0  0  0  0  0  0  0  0
    2.6955   -3.3488    1.3521 N   0  0  0  0  0  0  0  0  0  0  0  0
    2.0522   -3.3214    2.5604 C   0  0  0  0  0  0  0  0  0  0  0  0
    2.5609   -2.3090    3.3240 O   0  0  0  0  0  0  0  0  0  0  0  0
    1.1731   -4.0767    2.8962 O   0  0  0  0  0  0  0  0  0  0  0  0
    3.4003   -1.4859    2.5030 C   0  0  0  0  0  0  0  0  0  0  0  0
    0.9713   -2.4483   -0.0936 H   0  0  0  0  0  0  0  0  0  0  0  0
    0.9982    2.5493    0.0220 H   0  0  0  0  0  0  0  0  0  0  0  0
    3.1415    1.2983   -0.0731 H   0  0  0  0  0  0  0  0  0  0  0  0
    3.5392   -2.0642   -0.9471 H   0  0  0  0  0  0  0  0  0  0  0  0
    4.3423   -0.7355   -0.1139 H   0  0  0  0  0  0  0  0  0  0  0  0
   -3.1878    0.2330   -1.0208 H   0  0  0  0  0  0  0  0  0  0  0  0
   -2.6327   -2.8007   -0.9944 H   0  0  0  0  0  0  0  0  0  0  0  0
   -1.2280   -3.2177   -0.0362 H   0  0  0  0  0  0  0  0  0  0  0  0
   -4.5448   -2.2338    3.3834 H   0  0  0  0  0  0  0  0  0  0  0  0
   -5.9615   -1.7842    2.4153 H   0  0  0  0  0  0  0  0  0  0  0  0
   -5.3942   -3.4562    2.3802 H   0  0  0  0  0  0  0  0  0  0  0  0
   -3.3412   -0.4096    2.4360 H   0  0  0  0  0  0  0  0  0  0  0  0
   -3.3233   -0.4331    0.7700 H   0  0  0  0  0  0  0  0  0  0  0  0
   -4.7613    0.0498    1.3613 H   0  0  0  0  0  0  0  0  0  0  0  0
   -3.2192   -3.8838    1.1454 H   0  0  0  0  0  0  0  0  0  0  0  0
   -2.3510   -2.6862    2.0914 H   0  0  0  0  0  0  0  0  0  0  0  0
   -1.7952    2.0612   -0.0594 H   0  0  0  0  0  0  0  0  0  0  0  0
    4.6257   -2.7461    1.2246 H   0  0  0  0  0  0  0  0  0  0  0  0
    2.3774   -3.9759    0.6251 H   0  0  0  0  0  0  0  0  0  0  0  0
    4.3374   -1.2767    3.0229 H   0  0  0  0  0  0  0  0  0  0  0  0
    2.8861   -0.5306    2.3608 H   0  0  0  0  0  0  0  0  0  0  0  0
  1  4  1  0  0  0  0
  1 22  1  0  0  0  0
  2  1  2  0  0  0  0
  2  9  1  0  0  0  0
  2  6  1  0  0  0  0
  3  5  1  0  0  0  0
  3 23  1  0  0  0  0
  4  7  1  0  0  0  0
  4  5  2  0  0  0  0
  5 24  1  0  0  0  0
  6  3  2  0  0  0  0
  6 15  1  0  0  0  0
  7 25  1  0  0  0  0
  7 26  1  0  0  0  0
  8 27  1  0  0  0  0
  9  8  2  0  0  0  0
  9 10  1  0  0  0  0
 10 14  1  0  0  0  0
 10 28  1  0  0  0  0
 10 29  1  0  0  0  0
 11 12  1  0  0  0  0
 11 13  1  0  0  0  0
 12 30  1  0  0  0  0
 12 31  1  0  0  0  0
 12 32  1  0  0  0  0
 13 33  1  0  0  0  0
 13 34  1  0  0  0  0
 13 35  1  0  0  0  0
 14 11  1  0  0  0  0
 14 36  1  0  0  0  0
 14 37  1  0  0  0  0
 15  8  1  0  0  0  0
 15 38  1  0  0  0  0
 16  7  1  0  0  0  0
 16 17  1  0  0  0  0
 16 21  1  0  0  0  0
 16 39  1  1  0  0  0
 17 18  1  0  0  0  0
 17 40  1  0  0  0  0
 18 20  2  0  0  0  0
 18 19  1  0  0  0  0
 21 19  1  0  0  0  0
 21 41  1  0  0  0  0
 21 42  1  0  0  0  0
M  END
>  <DRUGBANK_ID>
DB00315

>  <SECONDARY_ACCESSION_NUMBERS>
APRD00376

>  <COMMON_NAME>
Zolmitriptan

>  <CAS_NUMBER>
139264-17-8

>  <UNII>
2FS66TH3YW

>  <SYNONYMS>
(S)-4-({3-[2-(dimethylamino)ethyl]-1H-indol-5-yl}methyl)-1,3-oxazolidin-2-one; 4-[[3-(2-dimethylaminoethyl)-1H-indol-5-yl]methyl]oxazolidin-2-one; Zolmitriptan; Zolmitript√°n; Zolmitriptanum

$$$$
