HS7
 OpenBabel10282417163D

 23 23  0  0  0  0  0  0  0  0999 V2000
    0.9614    0.0887    0.0821 O   0  0  0  0  0  0  0  0  0  0  0  0
    2.1881    0.0459    0.0389 C   0  0  0  0  0  0  0  0  0  0  0  0
    2.9293    0.8770    0.9013 N   0  0  0  0  0  0  0  0  0  0  0  0
    2.2458    1.5906    1.6435 O   0  0  0  0  0  0  0  0  0  0  0  0
    2.9437   -0.8280   -0.9326 C   0  0  0  0  0  0  0  0  0  0  0  0
    2.6720   -2.2774   -0.8528 N   0  0  0  0  0  0  0  0  0  0  0  0
    3.5623   -3.2874   -1.8851 S   0  0  0  0  0  0  0  0  0  0  0  0
    4.9507   -2.9430   -1.7078 O   0  0  0  0  0  0  0  0  0  0  0  0
    3.0757   -4.6253   -1.6079 O   0  0  0  0  0  0  0  0  0  0  0  0
    3.0826   -2.8488   -3.5419 C   0  0  0  0  0  0  0  0  0  0  0  0
    2.5313   -3.8122   -4.3885 C   0  0  0  0  0  0  0  0  0  0  0  0
    3.2976   -1.5510   -4.0213 C   0  0  0  0  0  0  0  0  0  0  0  0
    2.8211   -1.1753   -5.2759 C   0  0  0  0  0  0  0  0  0  0  0  0
    2.2890   -2.1385   -6.1255 C   0  0  0  0  0  0  0  0  0  0  0  0
    2.1585   -3.4577   -5.6889 C   0  0  0  0  0  0  0  0  0  0  0  0
    2.6085   -0.4561   -1.8999 H   0  0  0  0  0  0  0  0  0  0  0  0
    4.0180   -0.6465   -0.8271 H   0  0  0  0  0  0  0  0  0  0  0  0
    2.7415   -2.6613    0.0948 H   0  0  0  0  0  0  0  0  0  0  0  0
    2.4115   -4.8421   -4.0599 H   0  0  0  0  0  0  0  0  0  0  0  0
    3.8402   -0.8139   -3.4407 H   0  0  0  0  0  0  0  0  0  0  0  0
    2.8776   -0.1371   -5.5949 H   0  0  0  0  0  0  0  0  0  0  0  0
    1.9960   -1.8636   -7.1360 H   0  0  0  0  0  0  0  0  0  0  0  0
    1.7538   -4.2090   -6.3626 H   0  0  0  0  0  0  0  0  0  0  0  0
  1  2  2  0  0  0  0
  2  3  1  0  0  0  0
  2  5  1  0  0  0  0
  3  4  2  0  0  0  0
  5  6  1  0  0  0  0
  5 16  1  0  0  0  0
  5 17  1  0  0  0  0
  6  7  1  0  0  0  0
  6 18  1  0  0  0  0
  7  8  2  0  0  0  0
  7  9  2  0  0  0  0
  7 10  1  0  0  0  0
 10 11  2  0  0  0  0
 10 12  1  0  0  0  0
 11 15  1  0  0  0  0
 11 19  1  0  0  0  0
 12 13  2  0  0  0  0
 12 20  1  0  0  0  0
 13 14  1  0  0  0  0
 13 21  1  0  0  0  0
 14 15  2  0  0  0  0
 14 22  1  0  0  0  0
 15 23  1  0  0  0  0
M  END
>  <DRUGBANK_ID>
DB07922

>  <COMMON_NAME>
N-oxo-2-(phenylsulfonylamino)ethanamide

$$$$
