
 OpenBabel10282417223D

 22 21  0  0  1  0  0  0  0  0999 V2000
   -4.0402   -3.2403   -3.7234 C   0  0  0  0  0  0  0  0  0  0  0  0
   -2.6802   -3.8981   -3.8348 C   0  0  0  0  0  0  0  0  0  0  0  0
   -1.5638   -2.9229   -4.2352 C   0  0  0  0  0  0  0  0  0  0  0  0
   -1.4179   -1.7084   -3.3081 C   0  0  0  0  0  0  0  0  0  0  0  0
   -0.8665   -1.9992   -1.8919 C   0  0  2  0  0  0  0  0  0  0  0  0
    0.6023   -1.8741   -1.9195 N   0  0  0  0  0  0  0  0  0  0  0  0
   -1.1586   -3.4114   -1.3219 C   0  0  0  0  0  0  0  0  0  0  0  0
   -2.1421   -3.4657   -0.3920 O   0  0  0  0  0  0  0  0  0  0  0  0
   -0.5806   -4.4210   -1.6967 O   0  0  0  0  0  0  0  0  0  0  0  0
   -4.0238   -2.3875   -3.0384 H   0  0  0  0  0  0  0  0  0  0  0  0
   -4.7562   -3.9528   -3.3054 H   0  0  0  0  0  0  0  0  0  0  0  0
   -4.3869   -2.9046   -4.7017 H   0  0  0  0  0  0  0  0  0  0  0  0
   -2.5136   -4.3684   -2.8720 H   0  0  0  0  0  0  0  0  0  0  0  0
   -2.6961   -4.7414   -4.5319 H   0  0  0  0  0  0  0  0  0  0  0  0
   -0.6017   -3.4467   -4.2967 H   0  0  0  0  0  0  0  0  0  0  0  0
   -1.7740   -2.5663   -5.2526 H   0  0  0  0  0  0  0  0  0  0  0  0
   -0.7605   -0.9805   -3.8111 H   0  0  0  0  0  0  0  0  0  0  0  0
   -2.3675   -1.1650   -3.2402 H   0  0  0  0  0  0  0  0  0  0  0  0
   -1.2520   -1.2446   -1.1978 H   0  0  0  0  0  0  0  0  0  0  0  0
    0.8829   -0.9629   -2.2680 H   0  0  0  0  0  0  0  0  0  0  0  0
    0.9469   -2.5678   -2.5920 H   0  0  0  0  0  0  0  0  0  0  0  0
   -2.4520   -2.6036   -0.0660 H   0  0  0  0  0  0  0  0  0  0  0  0
  1  2  1  0  0  0  0
  1 10  1  0  0  0  0
  1 11  1  0  0  0  0
  1 12  1  0  0  0  0
  2  3  1  0  0  0  0
  2 13  1  0  0  0  0
  2 14  1  0  0  0  0
  3  4  1  0  0  0  0
  3 15  1  0  0  0  0
  3 16  1  0  0  0  0
  4 17  1  0  0  0  0
  4 18  1  0  0  0  0
  5  7  1  0  0  0  0
  5 19  1  1  0  0  0
  5  6  1  0  0  0  0
  5  4  1  0  0  0  0
  6 20  1  0  0  0  0
  6 21  1  0  0  0  0
  7  8  1  0  0  0  0
  7  9  2  0  0  0  0
  8 22  1  0  0  0  0
M  END
>  <DRUGBANK_ID>
DB15458

>  <COMMON_NAME>
Norleucine

>  <CAS_NUMBER>
327-57-1

>  <UNII>
832C8OV84S

>  <SYNONYMS>
L-NORLEUCINE

$$$$
