855
 OpenBabel10282417113D

 18 17  0  0  0  0  0  0  0  0999 V2000
    1.0097    0.0011   -0.0759 O   0  0  0  0  0  0  0  0  0  0  0  0
    6.3227    0.5967   -1.3064 O   0  0  0  0  0  0  0  0  0  0  0  0
    4.8148    2.0827   -0.5965 O   0  0  0  0  0  0  0  0  0  0  0  0
    2.6047    2.3313    0.9485 N   0  0  0  0  0  0  0  0  0  0  0  0
    3.1385   -0.6600   -0.9383 C   0  0  0  0  0  0  0  0  0  0  0  0
    3.9980    0.2007   -1.8613 C   0  0  0  0  0  0  0  0  0  0  0  0
    2.2359    0.0928    0.0319 C   0  0  0  0  0  0  0  0  0  0  0  0
    2.8861    0.9059    1.1496 C   0  0  0  0  0  0  0  0  0  0  0  0
    5.0602    1.0432   -1.1944 C   0  0  0  0  0  0  0  0  0  0  0  0
    6.4714   -0.1160   -1.9534 H   0  0  0  0  0  0  0  0  0  0  0  0
    3.1918    2.8723    1.5834 H   0  0  0  0  0  0  0  0  0  0  0  0
    2.9716    2.5995    0.0274 H   0  0  0  0  0  0  0  0  0  0  0  0
    3.7273   -1.3919   -0.3768 H   0  0  0  0  0  0  0  0  0  0  0  0
    2.4598   -1.2440   -1.5801 H   0  0  0  0  0  0  0  0  0  0  0  0
    4.4817   -0.4473   -2.6017 H   0  0  0  0  0  0  0  0  0  0  0  0
    3.3629    0.8888   -2.4301 H   0  0  0  0  0  0  0  0  0  0  0  0
    2.4965    0.5708    2.1138 H   0  0  0  0  0  0  0  0  0  0  0  0
    3.9613    0.7063    1.1741 H   0  0  0  0  0  0  0  0  0  0  0  0
  1  7  2  0  0  0  0
  2  9  1  0  0  0  0
  2 10  1  0  0  0  0
  3  9  2  0  0  0  0
  4  8  1  0  0  0  0
  4 11  1  0  0  0  0
  4 12  1  0  0  0  0
  5  6  1  0  0  0  0
  5  7  1  0  0  0  0
  5 13  1  0  0  0  0
  5 14  1  0  0  0  0
  6  9  1  0  0  0  0
  6 15  1  0  0  0  0
  6 16  1  0  0  0  0
  7  8  1  0  0  0  0
  8 17  1  0  0  0  0
  8 18  1  0  0  0  0
M  END
>  <DRUGBANK_ID>
DB00855

>  <SECONDARY_ACCESSION_NUMBERS>
APRD00793; DB05277

>  <COMMON_NAME>
Aminolevulinic acid

>  <CAS_NUMBER>
106-60-5

>  <UNII>
88755TAZ87

>  <SYNONYMS>
5-ALA; 5-Aminolevulinic acid; ácido 5-aminolevulínico; Aminolevulinic acid; dALA; δ-ALA; δ-aminolevulinic acid

$$$$
