
 OpenBabel10282417153D

 46 49  0  0  1  0  0  0  0  0999 V2000
   -5.7721    3.9729   -5.4595 S   0  0  0  0  0  0  0  0  0  0  0  0
   -6.1691    0.9279   -5.6325 O   0  0  0  0  0  0  0  0  0  0  0  0
   -3.0606    7.4642   -5.5784 O   0  0  0  0  0  0  0  0  0  0  0  0
   -4.3363    6.2789   -1.6190 O   0  0  0  0  0  0  0  0  0  0  0  0
   -5.4471    2.7571   -0.4501 O   0  0  0  0  0  0  0  0  0  0  0  0
   -5.5145    1.1473   -1.8761 O   0  0  0  0  0  0  0  0  0  0  0  0
   -3.1595    3.7959   -2.0891 O   0  0  0  0  0  0  0  0  0  0  0  0
   -1.3638    4.8158   -1.0679 O   0  0  0  0  0  0  0  0  0  0  0  0
   -1.5488    4.8004   -3.3658 O   0  0  0  0  0  0  0  0  0  0  0  0
   -5.6076    4.7944   -2.9480 N   0  0  0  0  0  0  0  0  0  0  0  0
   -5.6830    5.3706   -4.3367 C   0  0  1  0  0  0  0  0  0  0  0  0
   -4.2434    5.9431   -4.1341 C   0  0  2  0  0  0  0  0  0  0  0  0
   -4.6380    5.7118   -2.6673 C   0  0  0  0  0  0  0  0  0  0  0  0
   -5.8645    2.8173   -4.1352 C   0  0  0  0  0  0  0  0  0  0  0  0
   -5.6008    3.3625   -2.9295 C   0  0  0  0  0  0  0  0  0  0  0  0
   -3.7723    7.3891   -4.3449 C   0  0  1  0  0  0  0  0  0  0  0  0
   -6.5216    1.4766   -4.3618 C   0  0  1  0  0  0  0  0  0  0  0  0
   -8.0293    1.7243   -4.3440 C   0  0  0  0  0  0  0  0  0  0  0  0
   -8.3572    1.8263   -5.8099 C   0  0  0  0  0  0  0  0  0  0  0  0
   -2.7981    7.9087   -3.2651 C   0  0  0  0  0  0  0  0  0  0  0  0
   -7.3393    0.9054   -6.4483 C   0  0  0  0  0  0  0  0  0  0  0  0
   -5.5260    2.3675   -1.7343 C   0  0  0  0  0  0  0  0  0  0  0  0
   -4.8689    3.9982   -0.1845 C   0  0  0  0  0  0  0  0  0  0  0  0
   -3.4566    4.0591   -0.7531 C   0  0  0  0  0  0  0  0  0  0  0  0
   -2.3698    4.4949   -0.1799 C   0  0  0  0  0  0  0  0  0  0  0  0
   -2.1340    4.4461    1.2549 C   0  0  0  0  0  0  0  0  0  0  0  0
   -1.9732    4.4904   -2.2604 C   0  0  0  0  0  0  0  0  0  0  0  0
   -6.4945    6.1052   -4.3737 H   0  0  0  0  0  0  0  0  0  0  0  0
   -3.5034    5.2561   -4.5688 H   0  0  0  0  0  0  0  0  0  0  0  0
   -6.2814    0.6941   -3.6539 H   0  0  0  0  0  0  0  0  0  0  0  0
   -3.6268    7.8907   -6.2395 H   0  0  0  0  0  0  0  0  0  0  0  0
   -4.6326    8.0607   -4.3819 H   0  0  0  0  0  0  0  0  0  0  0  0
   -8.5442    0.8792   -3.8776 H   0  0  0  0  0  0  0  0  0  0  0  0
   -8.3256    2.6215   -3.7816 H   0  0  0  0  0  0  0  0  0  0  0  0
   -9.3898    1.5662   -6.0393 H   0  0  0  0  0  0  0  0  0  0  0  0
   -8.2020    2.8513   -6.1625 H   0  0  0  0  0  0  0  0  0  0  0  0
   -2.4275    8.9061   -3.5180 H   0  0  0  0  0  0  0  0  0  0  0  0
   -3.2617    8.0275   -2.2832 H   0  0  0  0  0  0  0  0  0  0  0  0
   -1.9140    7.2733   -3.1436 H   0  0  0  0  0  0  0  0  0  0  0  0
   -7.7104   -0.1226   -6.4853 H   0  0  0  0  0  0  0  0  0  0  0  0
   -7.0537    1.2236   -7.4520 H   0  0  0  0  0  0  0  0  0  0  0  0
   -5.6067    4.7336   -0.5237 H   0  0  0  0  0  0  0  0  0  0  0  0
   -4.8928    4.1573    0.8969 H   0  0  0  0  0  0  0  0  0  0  0  0
   -1.4297    3.6232    1.3909 H   0  0  0  0  0  0  0  0  0  0  0  0
   -1.7560    5.3829    1.6481 H   0  0  0  0  0  0  0  0  0  0  0  0
   -3.0467    4.1690    1.7882 H   0  0  0  0  0  0  0  0  0  0  0  0
  1 11  1  0  0  0  0
  1 14  1  0  0  0  0
  2 17  1  0  0  0  0
  2 21  1  0  0  0  0
  3 31  1  0  0  0  0
  4 13  2  0  0  0  0
  5 22  1  0  0  0  0
  5 23  1  0  0  0  0
  6 22  2  0  0  0  0
  7 24  1  0  0  0  0
  7 27  1  0  0  0  0
  8 25  1  0  0  0  0
  8 27  1  0  0  0  0
  9 27  2  0  0  0  0
 10 11  1  0  0  0  0
 10 13  1  0  0  0  0
 10 15  1  0  0  0  0
 11 12  1  0  0  0  0
 11 28  1  6  0  0  0
 12 13  1  0  0  0  0
 12 29  1  6  0  0  0
 14 15  2  0  0  0  0
 15 22  1  0  0  0  0
 16 20  1  0  0  0  0
 16 32  1  6  0  0  0
 16 12  1  0  0  0  0
 16  3  1  0  0  0  0
 17 18  1  0  0  0  0
 17 30  1  1  0  0  0
 17 14  1  0  0  0  0
 18 19  1  0  0  0  0
 18 33  1  0  0  0  0
 18 34  1  0  0  0  0
 19 21  1  0  0  0  0
 19 35  1  0  0  0  0
 19 36  1  0  0  0  0
 20 37  1  0  0  0  0
 20 38  1  0  0  0  0
 20 39  1  0  0  0  0
 21 40  1  0  0  0  0
 21 41  1  0  0  0  0
 23 24  1  0  0  0  0
 23 42  1  0  0  0  0
 23 43  1  0  0  0  0
 24 25  2  0  0  0  0
 25 26  1  0  0  0  0
 26 44  1  0  0  0  0
 26 45  1  0  0  0  0
 26 46  1  0  0  0  0
M  END
>  <DRUGBANK_ID>
DB05659

>  <COMMON_NAME>
Faropenem medoxomil

>  <CAS_NUMBER>
141702-36-5

>  <UNII>
5OK523O4FU

>  <SYNONYMS>
Faropenem daloxate; Faropenem medoxil; Faropenem medoxomil

$$$$
