
 OpenBabel10282417213D

 42 44  0  0  0  0  0  0  0  0999 V2000
    0.9402   -0.0039    0.2149 N   0  0  0  0  0  0  0  0  0  0  0  0
    0.2808    1.2386    0.2864 C   0  0  0  0  0  0  0  0  0  0  0  0
    0.6045    2.3457   -0.4971 C   0  0  0  0  0  0  0  0  0  0  0  0
   -0.1731    3.5378   -0.4421 C   0  0  0  0  0  0  0  0  0  0  0  0
   -1.3279    3.6039    0.3524 C   0  0  0  0  0  0  0  0  0  0  0  0
   -2.1856    4.7216    0.3955 N   0  0  0  0  0  0  0  0  0  0  0  0
   -3.2312    4.9131    1.3379 C   0  0  0  0  0  0  0  0  0  0  0  0
   -3.0956    4.6176    2.7066 C   0  0  0  0  0  0  0  0  0  0  0  0
   -4.1821    4.7240    3.5794 C   0  0  0  0  0  0  0  0  0  0  0  0
   -5.4031    5.1941    3.1043 C   0  0  0  0  0  0  0  0  0  0  0  0
   -5.5340    5.5503    1.7633 C   0  0  0  0  0  0  0  0  0  0  0  0
   -4.4591    5.3976    0.8828 C   0  0  0  0  0  0  0  0  0  0  0  0
   -1.6768    2.4668    1.0435 C   0  0  0  0  0  0  0  0  0  0  0  0
   -0.8067    1.4002    1.1405 C   0  0  0  0  0  0  0  0  0  0  0  0
    0.1391   -1.2275   -0.1282 C   0  0  0  0  0  0  0  0  0  0  0  0
   -1.0628   -1.3852    0.8094 C   0  0  0  0  0  0  0  0  0  0  0  0
   -1.8501   -2.6634    0.7362 C   0  0  0  0  0  0  0  0  0  0  0  0
   -0.9341   -3.8451    0.9260 C   0  0  0  0  0  0  0  0  0  0  0  0
    0.1967   -3.7967   -0.0971 C   0  0  0  0  0  0  0  0  0  0  0  0
    1.0163   -2.4942   -0.0179 C   0  0  0  0  0  0  0  0  0  0  0  0
    1.8329    0.0450   -0.2695 H   0  0  0  0  0  0  0  0  0  0  0  0
    1.4654    2.3181   -1.1622 H   0  0  0  0  0  0  0  0  0  0  0  0
    0.1271    4.3909   -1.0404 H   0  0  0  0  0  0  0  0  0  0  0  0
   -1.7749    5.5918    0.0845 H   0  0  0  0  0  0  0  0  0  0  0  0
   -2.1512    4.2454    3.1013 H   0  0  0  0  0  0  0  0  0  0  0  0
   -4.0766    4.4325    4.6214 H   0  0  0  0  0  0  0  0  0  0  0  0
   -6.2529    5.2770    3.7768 H   0  0  0  0  0  0  0  0  0  0  0  0
   -6.4821    5.9295    1.3924 H   0  0  0  0  0  0  0  0  0  0  0  0
   -4.5983    5.5941   -0.1757 H   0  0  0  0  0  0  0  0  0  0  0  0
   -2.6217    2.3830    1.5751 H   0  0  0  0  0  0  0  0  0  0  0  0
   -1.0543    0.6825    1.9032 H   0  0  0  0  0  0  0  0  0  0  0  0
   -0.2138   -1.1475   -1.1662 H   0  0  0  0  0  0  0  0  0  0  0  0
   -0.7007   -1.2794    1.8417 H   0  0  0  0  0  0  0  0  0  0  0  0
   -1.8057   -0.6213    0.5770 H   0  0  0  0  0  0  0  0  0  0  0  0
   -2.6161   -2.6362    1.5213 H   0  0  0  0  0  0  0  0  0  0  0  0
   -2.3712   -2.7113   -0.2255 H   0  0  0  0  0  0  0  0  0  0  0  0
   -0.5204   -3.8313    1.9424 H   0  0  0  0  0  0  0  0  0  0  0  0
   -1.5192   -4.7641    0.8247 H   0  0  0  0  0  0  0  0  0  0  0  0
    0.8512   -4.6601    0.0605 H   0  0  0  0  0  0  0  0  0  0  0  0
   -0.2315   -3.8949   -1.1024 H   0  0  0  0  0  0  0  0  0  0  0  0
    1.7727   -2.5012   -0.8128 H   0  0  0  0  0  0  0  0  0  0  0  0
    1.5666   -2.4803    0.9317 H   0  0  0  0  0  0  0  0  0  0  0  0
  1  2  1  0  0  0  0
  1 15  1  0  0  0  0
  1 21  1  0  0  0  0
  2  3  2  0  0  0  0
  2 14  1  0  0  0  0
  3  4  1  0  0  0  0
  3 22  1  0  0  0  0
  4  5  2  0  0  0  0
  4 23  1  0  0  0  0
  5  6  1  0  0  0  0
  5 13  1  0  0  0  0
  6  7  1  0  0  0  0
  6 24  1  0  0  0  0
  7  8  2  0  0  0  0
  7 12  1  0  0  0  0
  8  9  1  0  0  0  0
  8 25  1  0  0  0  0
  9 10  2  0  0  0  0
  9 26  1  0  0  0  0
 10 11  1  0  0  0  0
 10 27  1  0  0  0  0
 11 12  2  0  0  0  0
 11 28  1  0  0  0  0
 12 29  1  0  0  0  0
 13 14  2  0  0  0  0
 13 30  1  0  0  0  0
 14 31  1  0  0  0  0
 15 16  1  0  0  0  0
 15 20  1  0  0  0  0
 15 32  1  0  0  0  0
 16 17  1  0  0  0  0
 16 33  1  0  0  0  0
 16 34  1  0  0  0  0
 17 18  1  0  0  0  0
 17 35  1  0  0  0  0
 17 36  1  0  0  0  0
 18 19  1  0  0  0  0
 18 37  1  0  0  0  0
 18 38  1  0  0  0  0
 19 20  1  0  0  0  0
 19 39  1  0  0  0  0
 19 40  1  0  0  0  0
 20 41  1  0  0  0  0
 20 42  1  0  0  0  0
M  END
>  <DRUGBANK_ID>
DB14196

>  <COMMON_NAME>
N-Cyclohexyl-N'-phenyl-1,4-phenylenediamine

>  <CAS_NUMBER>
101-87-1

>  <UNII>
T29JGK5V4R

>  <SYNONYMS>
CPPD; N-Cyclohexyl-N'-phenyl-1,4-phenylenediamine; N-Cyclohexyl-N'-phenyl-p-phenylendiamine; N-cyclohexyl-N'-phenyl-p-phenylenediamine

$$$$
