
 OpenBabel10282417183D

 83 87  0  0  0  0  0  0  0  0999 V2000
   -1.2491    0.0901    0.1791 P   0  0  0  0  0  0  0  0  0  0  0  0
   -0.3893   -1.1185   -0.4780 O   0  0  0  0  0  0  0  0  0  0  0  0
   -0.3633    1.3661   -0.2574 O   0  0  0  0  0  0  0  0  0  0  0  0
   -2.4495    0.1580   -0.7108 O   0  0  0  0  0  0  0  0  0  0  0  0
   -3.8521   -1.2408    6.5527 O   0  0  0  0  0  0  0  0  0  0  0  0
   -4.8555   -0.5907    4.7711 O   0  0  0  0  0  0  0  0  0  0  0  0
   -6.5267    2.2017   -0.9965 O   0  5  0  0  0  0  0  0  0  0  0  0
   -5.0528    0.7018   -1.5944 O   0  0  0  0  0  0  0  0  0  0  0  0
   -0.1065   -0.1635    4.1278 N   0  0  0  0  0  0  0  0  0  0  0  0
   -5.6538    1.3611   -0.7376 N   0  3  0  0  0  0  0  0  0  0  0  0
   -1.7018   -3.1806    5.1308 N   0  0  0  0  0  0  0  0  0  0  0  0
   -1.1970   -0.0103    2.0208 C   0  0  0  0  0  0  0  0  0  0  0  0
   -2.5431   -0.3290    2.7951 C   0  0  3  0  0  0  0  0  0  0  0  0
   -2.4056   -0.3489    4.5259 C   0  0  0  0  0  0  0  0  0  0  0  0
   -0.0891    0.0141    2.8121 C   0  0  0  0  0  0  0  0  0  0  0  0
   -3.7357    0.4562    2.3230 C   0  0  0  0  0  0  0  0  0  0  0  0
   -1.1203   -0.3212    4.9704 C   0  0  0  0  0  0  0  0  0  0  0  0
   -3.7340   -0.6745    5.3361 C   0  0  0  0  0  0  0  0  0  0  0  0
    1.7436    0.0875   -0.3830 C   0  0  0  0  0  0  0  0  0  0  0  0
   -4.3348    0.2753    1.0738 C   0  0  0  0  0  0  0  0  0  0  0  0
    0.9393   -1.2081   -0.0796 C   0  0  0  0  0  0  0  0  0  0  0  0
    1.0014    1.4227    0.0309 C   0  0  0  0  0  0  0  0  0  0  0  0
   -4.3636    1.3077    3.2193 C   0  0  0  0  0  0  0  0  0  0  0  0
    1.3779    0.0869    2.6328 C   0  0  0  0  0  0  0  0  0  0  0  0
   -5.3200    1.1689    0.6758 C   0  0  0  0  0  0  0  0  0  0  0  0
   -0.3899   -0.7309    6.2066 C   0  0  0  0  0  0  0  0  0  0  0  0
   -5.6063    1.8214    2.9581 C   0  0  0  0  0  0  0  0  0  0  0  0
   -5.9960    1.9102    1.6427 C   0  0  0  0  0  0  0  0  0  0  0  0
    3.1904    0.0483    0.2141 C   0  0  0  0  0  0  0  0  0  0  0  0
    1.8280    0.0635   -1.8950 C   0  0  0  0  0  0  0  0  0  0  0  0
   -2.7690   -1.7289    7.3020 C   0  0  0  0  0  0  0  0  0  0  0  0
   -2.0818   -3.1205    6.6592 C   0  0  0  0  0  0  0  0  0  0  0  0
   -0.4370   -3.4553    4.5460 C   0  0  0  0  0  0  0  0  0  0  0  0
   -2.7883   -3.1303    4.1355 C   0  0  0  0  0  0  0  0  0  0  0  0
   -3.8320   -4.1064    4.3867 C   0  0  0  0  0  0  0  0  0  0  0  0
    0.6409   -4.0918    5.1594 C   0  0  0  0  0  0  0  0  0  0  0  0
   -0.1246   -3.0569    3.2262 C   0  0  0  0  0  0  0  0  0  0  0  0
   -3.3963   -5.3897    4.1489 C   0  0  0  0  0  0  0  0  0  0  0  0
   -5.0981   -3.7713    4.8745 C   0  0  0  0  0  0  0  0  0  0  0  0
    1.9432   -4.1613    4.5667 C   0  0  0  0  0  0  0  0  0  0  0  0
    1.1522   -3.1478    2.6496 C   0  0  0  0  0  0  0  0  0  0  0  0
    2.2292   -3.5714    3.3586 C   0  0  0  0  0  0  0  0  0  0  0  0
   -4.2200   -6.4031    4.5121 C   0  0  0  0  0  0  0  0  0  0  0  0
   -5.9048   -4.7964    5.2817 C   0  0  0  0  0  0  0  0  0  0  0  0
   -5.4631   -6.1060    5.0827 C   0  0  0  0  0  0  0  0  0  0  0  0
    0.6889   -0.7561    4.4073 H   0  0  0  0  0  0  0  0  0  0  0  0
   -2.7802   -1.3499    2.4568 H   0  0  0  0  0  0  0  0  0  0  0  0
   -4.0207   -0.5112    0.3919 H   0  0  0  0  0  0  0  0  0  0  0  0
    1.4092   -2.1215   -0.4666 H   0  0  0  0  0  0  0  0  0  0  0  0
    0.7850   -1.3906    0.9537 H   0  0  0  0  0  0  0  0  0  0  0  0
    1.0499    1.7579    1.0729 H   0  0  0  0  0  0  0  0  0  0  0  0
    1.4450    2.2835   -0.4680 H   0  0  0  0  0  0  0  0  0  0  0  0
   -3.9945    1.4294    4.2291 H   0  0  0  0  0  0  0  0  0  0  0  0
    1.8502    0.9440    3.1082 H   0  0  0  0  0  0  0  0  0  0  0  0
    1.9521   -0.8098    2.8926 H   0  0  0  0  0  0  0  0  0  0  0  0
    1.4989    0.1467    1.6245 H   0  0  0  0  0  0  0  0  0  0  0  0
    0.4495   -1.4391    6.0842 H   0  0  0  0  0  0  0  0  0  0  0  0
   -0.1532    0.0127    6.9496 H   0  0  0  0  0  0  0  0  0  0  0  0
   -0.9954   -1.4574    6.5827 H   0  0  0  0  0  0  0  0  0  0  0  0
   -6.2040    2.1761    3.7876 H   0  0  0  0  0  0  0  0  0  0  0  0
   -6.8243    2.5577    1.3983 H   0  0  0  0  0  0  0  0  0  0  0  0
    3.7568    0.9176   -0.1209 H   0  0  0  0  0  0  0  0  0  0  0  0
    3.2841    0.1022    1.3058 H   0  0  0  0  0  0  0  0  0  0  0  0
    3.7055   -0.8800   -0.0414 H   0  0  0  0  0  0  0  0  0  0  0  0
    0.8224    0.0591   -2.3284 H   0  0  0  0  0  0  0  0  0  0  0  0
    2.3681    0.9361   -2.2537 H   0  0  0  0  0  0  0  0  0  0  0  0
    2.3382   -0.8508   -2.2128 H   0  0  0  0  0  0  0  0  0  0  0  0
   -2.2155   -0.7909    7.4794 H   0  0  0  0  0  0  0  0  0  0  0  0
   -3.0349   -1.9001    8.3565 H   0  0  0  0  0  0  0  0  0  0  0  0
   -1.1674   -3.2970    7.2490 H   0  0  0  0  0  0  0  0  0  0  0  0
   -2.7627   -3.9393    6.8983 H   0  0  0  0  0  0  0  0  0  0  0  0
   -3.3411   -2.2346    4.0886 H   0  0  0  0  0  0  0  0  0  0  0  0
   -2.4859   -3.2738    3.0973 H   0  0  0  0  0  0  0  0  0  0  0  0
    0.5055   -4.5792    6.1136 H   0  0  0  0  0  0  0  0  0  0  0  0
   -0.8412   -2.5282    2.6120 H   0  0  0  0  0  0  0  0  0  0  0  0
   -2.3960   -5.5346    3.7422 H   0  0  0  0  0  0  0  0  0  0  0  0
   -5.4539   -2.7494    4.9815 H   0  0  0  0  0  0  0  0  0  0  0  0
    2.7484   -4.7184    5.0297 H   0  0  0  0  0  0  0  0  0  0  0  0
    1.3724   -2.8391    1.6496 H   0  0  0  0  0  0  0  0  0  0  0  0
    3.2186   -3.4809    2.9155 H   0  0  0  0  0  0  0  0  0  0  0  0
   -3.8479   -7.4055    4.3758 H   0  0  0  0  0  0  0  0  0  0  0  0
   -6.8479   -4.5622    5.7639 H   0  0  0  0  0  0  0  0  0  0  0  0
   -6.1044   -6.9208    5.3763 H   0  0  0  0  0  0  0  0  0  0  0  0
  1  2  1  0  0  0  0
  1  3  1  0  0  0  0
  1  4  2  0  0  0  0
  1 12  1  0  0  0  0
  2 21  1  0  0  0  0
  3 22  1  0  0  0  0
  5 18  1  0  0  0  0
  5 31  1  0  0  0  0
  6 18  2  0  0  0  0
  7 10  1  0  0  0  0
  8 10  2  0  0  0  0
  9 15  1  0  0  0  0
  9 17  1  0  0  0  0
  9 46  1  0  0  0  0
 10 25  1  0  0  0  0
 11 32  1  0  0  0  0
 11 33  1  0  0  0  0
 11 34  1  0  0  0  0
 12 13  1  0  0  0  0
 12 15  2  0  0  0  0
 13 14  1  0  0  0  0
 13 16  1  0  0  0  0
 13 47  1  0  0  0  0
 14 17  2  0  0  0  0
 14 18  1  0  0  0  0
 15 24  1  0  0  0  0
 16 20  1  0  0  0  0
 16 23  2  0  0  0  0
 17 26  1  0  0  0  0
 19 21  1  0  0  0  0
 19 22  1  0  0  0  0
 19 29  1  0  0  0  0
 19 30  1  0  0  0  0
 20 25  2  0  0  0  0
 20 48  1  0  0  0  0
 21 49  1  0  0  0  0
 21 50  1  0  0  0  0
 22 51  1  0  0  0  0
 22 52  1  0  0  0  0
 23 27  1  0  0  0  0
 23 53  1  0  0  0  0
 24 54  1  0  0  0  0
 24 55  1  0  0  0  0
 24 56  1  0  0  0  0
 25 28  1  0  0  0  0
 26 57  1  0  0  0  0
 26 58  1  0  0  0  0
 26 59  1  0  0  0  0
 27 28  2  0  0  0  0
 27 60  1  0  0  0  0
 28 61  1  0  0  0  0
 29 62  1  0  0  0  0
 29 63  1  0  0  0  0
 29 64  1  0  0  0  0
 30 65  1  0  0  0  0
 30 66  1  0  0  0  0
 30 67  1  0  0  0  0
 31 32  1  0  0  0  0
 31 68  1  0  0  0  0
 31 69  1  0  0  0  0
 32 70  1  0  0  0  0
 32 71  1  0  0  0  0
 33 36  2  0  0  0  0
 33 37  1  0  0  0  0
 34 35  1  0  0  0  0
 34 72  1  0  0  0  0
 34 73  1  0  0  0  0
 35 38  2  0  0  0  0
 35 39  1  0  0  0  0
 36 40  1  0  0  0  0
 36 74  1  0  0  0  0
 37 41  2  0  0  0  0
 37 75  1  0  0  0  0
 38 43  1  0  0  0  0
 38 76  1  0  0  0  0
 39 44  2  0  0  0  0
 39 77  1  0  0  0  0
 40 42  2  0  0  0  0
 40 78  1  0  0  0  0
 41 42  1  0  0  0  0
 41 79  1  0  0  0  0
 42 80  1  0  0  0  0
 43 45  2  0  0  0  0
 43 81  1  0  0  0  0
 44 45  1  0  0  0  0
 44 82  1  0  0  0  0
 45 83  1  0  0  0  0
M  CHG  2   7  -1  10   1
M  END
>  <DRUGBANK_ID>
DB09235

>  <COMMON_NAME>
Efonidipine

>  <CAS_NUMBER>
111011-63-3

>  <UNII>
40ZTP2T37Q

>  <SYNONYMS>
Efonidipine

$$$$
