
 OpenBabel10282417233D

 70 76  0  0  1  0  0  0  0  0999 V2000
   -7.5354    9.4819    3.9704 H   0  0  0  0  0  0  0  0  0  0  0  0
   -7.3934    8.4481    3.5937 C   0  0  1  0  0  0  0  0  0  0  0  0
   -6.0090    8.5622    2.9617 C   0  0  0  0  0  0  0  0  0  0  0  0
   -5.2786    8.5515    4.2729 C   0  0  0  0  0  0  0  0  0  0  0  0
   -4.3175    9.2539    4.5502 O   0  0  0  0  0  0  0  0  0  0  0  0
   -5.8948    7.6197    5.1230 O   0  0  0  0  0  0  0  0  0  0  0  0
   -7.2999    7.4826    4.7603 C   0  0  1  0  0  0  0  0  0  0  0  0
   -7.8293    7.9920    5.5913 H   0  0  0  0  0  0  0  0  0  0  0  0
   -8.1541    6.0386    4.6189 C   0  0  0  0  0  0  0  0  0  0  0  0
   -9.2225    5.7146    3.8955 C   0  0  0  0  0  0  0  0  0  0  0  0
   -8.8002    6.8758    2.5498 C   0  0  2  0  0  0  0  0  0  0  0  0
   -9.0164    6.0018    1.4078 C   0  0  0  0  0  0  0  0  0  0  0  0
   -8.5707    8.2182    2.8810 O   0  0  0  0  0  0  0  0  0  0  0  0
   -9.4596    3.7030    4.1197 C   0  0  0  0  0  0  0  0  0  0  0  0
   -9.3259    3.0493    5.1260 O   0  0  0  0  0  0  0  0  0  0  0  0
   -8.9490    2.8406    2.9233 C   0  0  0  0  0  0  0  0  0  0  0  0
   -9.3957    3.9557    2.5506 C   0  0  0  0  0  0  0  0  0  0  0  0
   -7.8874    4.7414    3.7646 C   0  0  0  0  0  0  0  0  0  0  0  0
   -6.9973    4.1794    4.3961 O   0  0  0  0  0  0  0  0  0  0  0  0
  -10.0154    3.4954    1.0252 C   0  0  0  0  0  0  0  0  0  0  0  0
  -11.0772    4.3069    0.4431 O   0  0  0  0  0  0  0  0  0  0  0  0
   -9.5787    2.4333   -0.0526 C   0  0  0  0  0  0  0  0  0  0  0  0
   -9.7961    1.9340   -1.5704 C   0  0  1  0  0  0  0  0  0  0  0  0
   -8.7124    2.3258   -2.7127 C   0  0  0  0  0  0  0  0  0  0  0  0
   -7.3263    1.8711   -2.2819 C   0  0  1  0  0  0  0  0  0  0  0  0
   -6.3746    3.0261   -2.3634 O   0  0  0  0  0  0  0  0  0  0  0  0
   -6.6653    4.0301   -1.4104 C   0  0  1  0  0  0  0  0  0  0  0  0
   -6.2926    3.3786   -0.1400 C   0  0  0  0  0  0  0  0  0  0  0  0
   -6.9790    4.0774    0.8914 C   0  0  0  0  0  0  0  0  0  0  0  0
   -6.2160    5.3033    1.0520 C   0  0  2  0  0  0  0  0  0  0  0  0
   -6.3885    6.0252    2.2173 O   0  0  0  0  0  0  0  0  0  0  0  0
   -6.5666    6.1108   -0.2845 C   0  0  2  0  0  0  0  0  0  0  0  0
   -8.1523    6.5520   -0.9613 C   0  0  0  0  0  0  0  0  0  0  0  0
   -5.9861    5.3042   -1.3524 O   0  0  0  0  0  0  0  0  0  0  0  0
   -7.4911    1.0118   -0.8971 C   0  0  1  0  0  0  0  0  0  0  0  0
   -6.1402    0.6996   -0.4691 O   0  0  0  0  0  0  0  0  0  0  0  0
   -8.4004   -0.1731   -1.0174 C   0  0  1  0  0  0  0  0  0  0  0  0
   -8.1180   -0.7838    0.4130 C   0  0  0  0  0  0  0  0  0  0  0  0
   -9.7176    0.3865   -1.4568 O   0  0  0  0  0  0  0  0  0  0  0  0
   -8.5002    1.7466    0.4194 C   0  0  0  0  0  0  0  0  0  0  0  0
   -8.2055    1.9113    1.9118 C   0  0  0  0  0  0  0  0  0  0  0  0
   -6.8608    1.5473    2.1957 O   0  0  0  0  0  0  0  0  0  0  0  0
   -5.4517    7.9041    2.2772 H   0  0  0  0  0  0  0  0  0  0  0  0
   -6.0547    9.4770    2.3750 H   0  0  0  0  0  0  0  0  0  0  0  0
   -8.8046    7.3936    1.5647 H   0  0  0  0  0  0  0  0  0  0  0  0
   -8.4991    5.1649    1.6857 H   0  0  0  0  0  0  0  0  0  0  0  0
   -9.9874    5.8444    1.0362 H   0  0  0  0  0  0  0  0  0  0  0  0
   -8.3516    5.7770    0.6472 H   0  0  0  0  0  0  0  0  0  0  0  0
  -11.9944    3.9559    0.4521 H   0  0  0  0  0  0  0  0  0  0  0  0
  -10.7717    2.1883   -2.0220 H   0  0  0  0  0  0  0  0  0  0  0  0
   -8.8809    1.8910   -3.7204 H   0  0  0  0  0  0  0  0  0  0  0  0
   -8.7359    3.3986   -2.9358 H   0  0  0  0  0  0  0  0  0  0  0  0
   -6.8223    1.2203   -3.0213 H   0  0  0  0  0  0  0  0  0  0  0  0
   -7.7370    4.2373   -1.5333 H   0  0  0  0  0  0  0  0  0  0  0  0
   -6.8298    2.5283   -0.1373 H   0  0  0  0  0  0  0  0  0  0  0  0
   -5.3369    2.9828    0.1425 H   0  0  0  0  0  0  0  0  0  0  0  0
   -7.9767    4.0503    0.4513 H   0  0  0  0  0  0  0  0  0  0  0  0
   -7.0593    3.6617    1.8548 H   0  0  0  0  0  0  0  0  0  0  0  0
   -5.2740    4.8444    1.3775 H   0  0  0  0  0  0  0  0  0  0  0  0
   -7.1802    5.6477    2.5168 H   0  0  0  0  0  0  0  0  0  0  0  0
   -6.1029    7.0636   -0.0152 H   0  0  0  0  0  0  0  0  0  0  0  0
   -8.8155    7.2214   -0.3686 H   0  0  0  0  0  0  0  0  0  0  0  0
   -8.0689    7.0427   -1.9117 H   0  0  0  0  0  0  0  0  0  0  0  0
   -8.8359    5.6731   -1.1118 H   0  0  0  0  0  0  0  0  0  0  0  0
   -5.5499    0.3846   -1.1722 H   0  0  0  0  0  0  0  0  0  0  0  0
   -8.1632   -1.0205   -1.6756 H   0  0  0  0  0  0  0  0  0  0  0  0
   -8.2486   -1.8451    0.4963 H   0  0  0  0  0  0  0  0  0  0  0  0
   -7.0493   -0.6623    0.6918 H   0  0  0  0  0  0  0  0  0  0  0  0
   -8.6670   -0.3188    1.2263 H   0  0  0  0  0  0  0  0  0  0  0  0
   -6.2134    2.2922    2.2262 H   0  0  0  0  0  0  0  0  0  0  0  0
  2  3  1  0  0  0  0
  2  7  1  0  0  0  0
  2 13  1  0  0  0  0
  2  1  1  6  0  0  0
  3  4  1  0  0  0  0
  3 43  1  0  0  0  0
  3 44  1  0  0  0  0
  4  6  1  0  0  0  0
  4  5  2  0  0  0  0
  7  6  1  0  0  0  0
  7  9  1  0  0  0  0
  7  8  1  6  0  0  0
  9 10  2  0  0  0  0
  9 18  1  0  0  0  0
 10 14  1  0  0  0  0
 11 10  1  0  0  0  0
 11 13  1  0  0  0  0
 11 12  1  0  0  0  0
 11 45  1  6  0  0  0
 12 46  1  0  0  0  0
 12 47  1  0  0  0  0
 12 48  1  0  0  0  0
 14 16  1  0  0  0  0
 14 15  2  0  0  0  0
 16 17  2  0  0  0  0
 16 41  1  0  0  0  0
 17 18  1  0  0  0  0
 17 20  1  0  0  0  0
 18 19  2  0  0  0  0
 20 22  2  0  0  0  0
 20 21  1  0  0  0  0
 21 49  1  0  0  0  0
 22 40  1  0  0  0  0
 23 22  1  0  0  0  0
 23 24  1  0  0  0  0
 23 39  1  0  0  0  0
 23 50  1  6  0  0  0
 24 51  1  0  0  0  0
 24 52  1  0  0  0  0
 25 24  1  0  0  0  0
 25 53  1  6  0  0  0
 25 26  1  0  0  0  0
 27 28  1  0  0  0  0
 27 34  1  0  0  0  0
 27 54  1  1  0  0  0
 27 26  1  0  0  0  0
 28 29  1  0  0  0  0
 28 55  1  0  0  0  0
 28 56  1  0  0  0  0
 29 57  1  0  0  0  0
 29 58  1  0  0  0  0
 30 29  1  0  0  0  0
 30 31  1  0  0  0  0
 30 32  1  0  0  0  0
 30 59  1  6  0  0  0
 31 60  1  0  0  0  0
 32 33  1  0  0  0  0
 32 34  1  0  0  0  0
 32 61  1  1  0  0  0
 33 62  1  0  0  0  0
 33 63  1  0  0  0  0
 33 64  1  0  0  0  0
 35 25  1  0  0  0  0
 35 37  1  0  0  0  0
 35 40  1  0  0  0  0
 35 36  1  6  0  0  0
 36 65  1  0  0  0  0
 37 39  1  0  0  0  0
 37 66  1  6  0  0  0
 37 38  1  0  0  0  0
 38 67  1  0  0  0  0
 38 68  1  0  0  0  0
 38 69  1  0  0  0  0
 40 41  2  0  0  0  0
 41 42  1  0  0  0  0
 42 70  1  0  0  0  0
M  END
>  <DRUGBANK_ID>
DB17273

>  <COMMON_NAME>
Granaticin B

>  <CAS_NUMBER>
19879-03-9

>  <UNII>
JS606MEA30

>  <SYNONYMS>
8,11-ethanofuro(2,3-e)naphtho(2,3-c:6,7-c')dipyran-2,6,13(9h)-trione, 3,3a,5,8,11,13b-hexahydro-7,8,12-trihydroxy-5,9-dimethyl-15-(((2s,5s,6s)-tetrahydro-5-hydroxy-6-methyl-2h-pyran-2-yl)oxy)-, (3as,5s,8s,9r,11r,13bs,15r)-

$$$$
