
 OpenBabel10282417173D

 42 44  0  0  0  0  0  0  0  0999 V2000
    0.9753    0.0451   -0.2803 N   0  0  0  0  0  0  0  0  0  0  0  0
    2.4227    0.0858    0.1089 C   0  0  3  0  0  0  0  0  0  0  0  0
   -1.9962   -0.0454    0.1839 N   0  0  0  0  0  0  0  0  0  0  0  0
    3.1573    1.2731   -0.5747 C   0  0  0  0  0  0  0  0  0  0  0  0
    0.2628   -1.1801    0.1278 C   0  0  0  0  0  0  0  0  0  0  0  0
    0.2007    1.2064    0.1788 C   0  0  0  0  0  0  0  0  0  0  0  0
    2.7277   -0.0250    1.6219 C   0  0  0  0  0  0  0  0  0  0  0  0
    4.2172    1.0481   -1.4625 C   0  0  0  0  0  0  0  0  0  0  0  0
    2.8573    2.6188   -0.2531 C   0  0  0  0  0  0  0  0  0  0  0  0
   -1.2214   -1.2133   -0.2899 C   0  0  0  0  0  0  0  0  0  0  0  0
   -1.2829    1.1738   -0.2186 C   0  0  0  0  0  0  0  0  0  0  0  0
    4.5667    3.4421   -1.6991 C   0  0  0  0  0  0  0  0  0  0  0  0
    3.5243    3.6939   -0.8262 C   0  0  0  0  0  0  0  0  0  0  0  0
    4.9270    2.1287   -2.0065 C   0  0  0  0  0  0  0  0  0  0  0  0
    5.4401    4.7653   -2.3614 Cl  0  0  0  0  0  0  0  0  0  0  0  0
   -2.1755   -0.0562    1.6386 C   0  0  0  0  0  0  0  0  0  0  0  0
    2.3354   -1.1516    2.3642 C   0  0  0  0  0  0  0  0  0  0  0  0
    3.4350    0.9667    2.3197 C   0  0  0  0  0  0  0  0  0  0  0  0
    2.4656   -1.1965    3.7546 C   0  0  0  0  0  0  0  0  0  0  0  0
    3.6653    0.8775    3.6929 C   0  0  0  0  0  0  0  0  0  0  0  0
    3.1403   -0.1812    4.4134 C   0  0  0  0  0  0  0  0  0  0  0  0
    2.8706   -0.8184   -0.3339 H   0  0  0  0  0  0  0  0  0  0  0  0
    0.7710   -2.0752   -0.2495 H   0  0  0  0  0  0  0  0  0  0  0  0
    0.2232   -1.2511    1.2140 H   0  0  0  0  0  0  0  0  0  0  0  0
    0.3030    1.3278    1.2642 H   0  0  0  0  0  0  0  0  0  0  0  0
    0.5442    2.1136   -0.3079 H   0  0  0  0  0  0  0  0  0  0  0  0
    4.5232    0.0344   -1.7123 H   0  0  0  0  0  0  0  0  0  0  0  0
    2.1289    2.8574    0.5184 H   0  0  0  0  0  0  0  0  0  0  0  0
   -1.2832   -1.2754   -1.3832 H   0  0  0  0  0  0  0  0  0  0  0  0
   -1.6792   -2.1331    0.0950 H   0  0  0  0  0  0  0  0  0  0  0  0
   -1.3468    1.2842   -1.3091 H   0  0  0  0  0  0  0  0  0  0  0  0
   -1.7700    2.0636    0.1994 H   0  0  0  0  0  0  0  0  0  0  0  0
    3.2386    4.7050   -0.5507 H   0  0  0  0  0  0  0  0  0  0  0  0
    5.7726    1.9392   -2.6607 H   0  0  0  0  0  0  0  0  0  0  0  0
   -1.2396   -0.0048    2.2061 H   0  0  0  0  0  0  0  0  0  0  0  0
   -2.7838    0.8020    1.9454 H   0  0  0  0  0  0  0  0  0  0  0  0
   -2.7082   -0.9581    1.9518 H   0  0  0  0  0  0  0  0  0  0  0  0
    1.8978   -2.0214    1.8861 H   0  0  0  0  0  0  0  0  0  0  0  0
    3.8493    1.8362    1.8260 H   0  0  0  0  0  0  0  0  0  0  0  0
    2.0496   -2.0334    4.3058 H   0  0  0  0  0  0  0  0  0  0  0  0
    4.2534    1.6488    4.1792 H   0  0  0  0  0  0  0  0  0  0  0  0
    3.2819   -0.2280    5.4895 H   0  0  0  0  0  0  0  0  0  0  0  0
  2  1  1  0  0  0  0
  2 22  1  0  0  0  0
  3 11  1  0  0  0  0
  4  2  1  0  0  0  0
  5  1  1  0  0  0  0
  5 23  1  0  0  0  0
  5 24  1  0  0  0  0
  6  1  1  0  0  0  0
  6 25  1  0  0  0  0
  6 26  1  0  0  0  0
  7  2  1  0  0  0  0
  8  4  1  0  0  0  0
  8 27  1  0  0  0  0
  9  4  2  0  0  0  0
  9 28  1  0  0  0  0
 10  5  1  0  0  0  0
 10  3  1  0  0  0  0
 10 29  1  0  0  0  0
 10 30  1  0  0  0  0
 11  6  1  0  0  0  0
 11 31  1  0  0  0  0
 11 32  1  0  0  0  0
 12 13  2  0  0  0  0
 13  9  1  0  0  0  0
 13 33  1  0  0  0  0
 14  8  2  0  0  0  0
 14 12  1  0  0  0  0
 14 34  1  0  0  0  0
 15 12  1  0  0  0  0
 16  3  1  0  0  0  0
 16 35  1  0  0  0  0
 16 36  1  0  0  0  0
 16 37  1  0  0  0  0
 17  7  2  0  0  0  0
 17 38  1  0  0  0  0
 18  7  1  0  0  0  0
 18 39  1  0  0  0  0
 19 17  1  0  0  0  0
 19 40  1  0  0  0  0
 20 18  2  0  0  0  0
 20 21  1  0  0  0  0
 20 41  1  0  0  0  0
 21 19  2  0  0  0  0
 21 42  1  0  0  0  0
M  END
>  <DRUGBANK_ID>
DB08936

>  <COMMON_NAME>
Chlorcyclizine

>  <CAS_NUMBER>
82-93-9

>  <UNII>
M26C4IP44P

>  <SYNONYMS>
Chlorcyclizin; Chlorcyclizine; Chlorcyclizinum; Clorciclicina; Clorciclizina; Clorciclizinio

$$$$
