
 OpenBabel10282417103D

 20 20  0  0  0  0  0  0  0  0999 V2000
   -0.3529   -1.0675    0.0728 C   0  0  0  0  0  0  0  0  0  0  0  0
   -0.8629   -2.4686   -0.0225 C   0  0  0  0  0  0  0  0  0  0  0  0
   -0.3866   -3.2292   -1.2783 C   0  0  2  0  0  0  0  0  0  0  0  0
    0.9409   -0.6482    0.2982 C   0  0  0  0  0  0  0  0  0  0  0  0
   -0.9893   -4.5967   -1.2795 N   0  0  0  0  0  0  0  0  0  0  0  0
   -1.1772    0.0274   -0.0543 N   0  0  0  0  0  0  0  0  0  0  0  0
   -0.3816    1.0735   -0.0036 C   0  0  0  0  0  0  0  0  0  0  0  0
    0.9257    0.6991    0.0995 N   0  0  0  0  0  0  0  0  0  0  0  0
    1.7772   -4.3997   -1.0735 O   0  0  0  0  0  0  0  0  0  0  0  0
    1.1449   -3.3847   -1.3466 C   0  0  0  0  0  0  0  0  0  0  0  0
    1.8039   -2.2795   -1.7393 O   0  0  0  0  0  0  0  0  0  0  0  0
   -0.5595   -3.0062    0.8853 H   0  0  0  0  0  0  0  0  0  0  0  0
   -1.9624   -2.4463   -0.0134 H   0  0  0  0  0  0  0  0  0  0  0  0
   -0.7182   -2.7213   -2.1909 H   0  0  0  0  0  0  0  0  0  0  0  0
    1.8574   -1.1927    0.4639 H   0  0  0  0  0  0  0  0  0  0  0  0
   -0.6114   -5.1045   -2.0823 H   0  0  0  0  0  0  0  0  0  0  0  0
   -0.6119   -5.1030   -0.4730 H   0  0  0  0  0  0  0  0  0  0  0  0
   -0.6791    2.1120   -0.0519 H   0  0  0  0  0  0  0  0  0  0  0  0
    1.7325    1.3056    0.0536 H   0  0  0  0  0  0  0  0  0  0  0  0
    2.7403   -2.4416   -1.5023 H   0  0  0  0  0  0  0  0  0  0  0  0
  1  2  1  0  0  0  0
  2  3  1  0  0  0  0
  2 12  1  0  0  0  0
  2 13  1  0  0  0  0
  3 10  1  0  0  0  0
  3  5  1  0  0  0  0
  3 14  1  6  0  0  0
  4  1  2  0  0  0  0
  4 15  1  0  0  0  0
  5 16  1  0  0  0  0
  5 17  1  0  0  0  0
  6  1  1  0  0  0  0
  7  6  2  0  0  0  0
  7  8  1  0  0  0  0
  7 18  1  0  0  0  0
  8  4  1  0  0  0  0
  8 19  1  0  0  0  0
 10  9  2  0  0  0  0
 11 10  1  0  0  0  0
 11 20  1  0  0  0  0
M  END
>  <DRUGBANK_ID>
DB00117

>  <SECONDARY_ACCESSION_NUMBERS>
NUTR00030

>  <COMMON_NAME>
Histidine

>  <CAS_NUMBER>
71-00-1

>  <UNII>
4QD397987E

>  <SYNONYMS>
(S)-4-(2-Amino-2-carboxyethyl)imidazole; (S)-a-Amino-1H-imidazole-4-propanoic acid; (S)-alpha-amino-1H-Imidazole-4-propanoic acid; (S)-alpha-Amino-1H-imidazole-4-propionic acid; (S)-α-amino-1H-Imidazole-4-propanoic acid; HIS; Histidina; Histidine; L-(−)-histidine; L-Histidin; L-Histidine

$$$$
