8AP
 OpenBabel10282417163D

 28 29  0  0  0  0  0  0  0  0999 V2000
    2.2877   -0.1370    0.2080 N   0  0  0  0  0  0  0  0  0  0  0  0
    0.9006   -0.1024    0.0469 C   0  0  0  0  0  0  0  0  0  0  0  0
    0.3542    1.1344    0.0035 N   0  0  0  0  0  0  0  0  0  0  0  0
   -0.9911    1.2240   -0.0126 C   0  0  0  0  0  0  0  0  0  0  0  0
   -1.8359    0.1307   -0.0411 C   0  0  0  0  0  0  0  0  0  0  0  0
   -1.2565   -1.1293   -0.0123 C   0  0  0  0  0  0  0  0  0  0  0  0
    0.1269   -1.2924    0.0776 C   0  0  0  0  0  0  0  0  0  0  0  0
    0.7252   -2.5411    0.1497 N   0  0  0  0  0  0  0  0  0  0  0  0
    0.0200   -3.8069    0.2013 C   0  0  0  0  0  0  0  0  0  0  0  0
    0.3625   -4.6922   -0.9733 C   0  0  0  0  0  0  0  0  0  0  0  0
    1.1007   -4.2447   -2.0791 C   0  0  0  0  0  0  0  0  0  0  0  0
    1.3930   -5.1066   -3.1350 C   0  0  0  0  0  0  0  0  0  0  0  0
    0.9522   -6.4271   -3.0980 C   0  0  0  0  0  0  0  0  0  0  0  0
    0.2111   -6.8848   -2.0112 C   0  0  0  0  0  0  0  0  0  0  0  0
   -0.1052   -6.0158   -0.9681 C   0  0  0  0  0  0  0  0  0  0  0  0
    2.6605    0.7812   -0.0261 H   0  0  0  0  0  0  0  0  0  0  0  0
    2.7572   -0.9034   -0.2474 H   0  0  0  0  0  0  0  0  0  0  0  0
   -1.3991    2.2294    0.0097 H   0  0  0  0  0  0  0  0  0  0  0  0
   -2.9109    0.2435   -0.0732 H   0  0  0  0  0  0  0  0  0  0  0  0
   -1.9340   -1.9759   -0.0438 H   0  0  0  0  0  0  0  0  0  0  0  0
    1.7264   -2.5773    0.2784 H   0  0  0  0  0  0  0  0  0  0  0  0
    0.3020   -4.3184    1.1291 H   0  0  0  0  0  0  0  0  0  0  0  0
   -1.0670   -3.7069    0.2273 H   0  0  0  0  0  0  0  0  0  0  0  0
    1.4493   -3.2157   -2.1341 H   0  0  0  0  0  0  0  0  0  0  0  0
    1.9664   -4.7440   -3.9836 H   0  0  0  0  0  0  0  0  0  0  0  0
    1.1798   -7.0973   -3.9217 H   0  0  0  0  0  0  0  0  0  0  0  0
   -0.1207   -7.9187   -1.9742 H   0  0  0  0  0  0  0  0  0  0  0  0
   -0.7232   -6.3745   -0.1474 H   0  0  0  0  0  0  0  0  0  0  0  0
  1  2  1  0  0  0  0
  1 16  1  0  0  0  0
  1 17  1  0  0  0  0
  2  3  2  0  0  0  0
  2  7  1  0  0  0  0
  3  4  1  0  0  0  0
  4  5  2  0  0  0  0
  4 18  1  0  0  0  0
  5  6  1  0  0  0  0
  5 19  1  0  0  0  0
  6  7  2  0  0  0  0
  6 20  1  0  0  0  0
  7  8  1  0  0  0  0
  8  9  1  0  0  0  0
  8 21  1  0  0  0  0
  9 10  1  0  0  0  0
  9 22  1  0  0  0  0
  9 23  1  0  0  0  0
 10 11  1  0  0  0  0
 10 15  2  0  0  0  0
 11 12  2  0  0  0  0
 11 24  1  0  0  0  0
 12 13  1  0  0  0  0
 12 25  1  0  0  0  0
 13 14  2  0  0  0  0
 13 26  1  0  0  0  0
 14 15  1  0  0  0  0
 14 27  1  0  0  0  0
 15 28  1  0  0  0  0
M  END
>  <DRUGBANK_ID>
DB07281

>  <COMMON_NAME>
N~3~-BENZYLPYRIDINE-2,3-DIAMINE

$$$$
