OX4
 OpenBabel10282417173D

 35 36  0  0  0  0  0  0  0  0999 V2000
    1.5312   -1.4655   -0.0017 O   0  0  0  0  0  0  0  0  0  0  0  0
    0.3705   -0.7440   -0.0026 C   0  0  0  0  0  0  0  0  0  0  0  0
    0.4579    0.6461   -0.0009 C   0  0  0  0  0  0  0  0  0  0  0  0
    1.6586    1.2428   -0.0008 F   0  0  0  0  0  0  0  0  0  0  0  0
   -0.6872    1.4400    0.0017 C   0  0  0  0  0  0  0  0  0  0  0  0
   -1.9537    0.8479    0.0042 C   0  0  0  0  0  0  0  0  0  0  0  0
   -2.0481   -0.5558   -0.0001 C   0  0  0  0  0  0  0  0  0  0  0  0
   -0.8828   -1.3536   -0.0046 C   0  0  0  0  0  0  0  0  0  0  0  0
   -3.1705    1.7231    0.0143 C   0  0  0  0  0  0  0  0  0  0  0  0
   -3.0558    3.0162    0.0224 N   0  0  0  0  0  0  0  0  0  0  0  0
   -4.3085    3.6920    0.0325 O   0  0  0  0  0  0  0  0  0  0  0  0
   -4.0909    5.0659    0.0110 C   0  0  0  0  0  0  0  0  0  0  0  0
   -2.9855    5.6083    0.0451 O   0  0  0  0  0  0  0  0  0  0  0  0
   -5.4031    5.8759    0.0052 C   0  0  0  0  0  0  0  0  0  0  0  0
   -6.4491    5.2543   -0.9260 C   0  0  0  0  0  0  0  0  0  0  0  0
   -7.7237    6.0913   -1.0293 C   0  0  0  0  0  0  0  0  0  0  0  0
   -7.4284    7.5153   -1.4811 C   0  0  0  0  0  0  0  0  0  0  0  0
   -6.4247    8.1768   -0.5465 C   0  0  0  0  0  0  0  0  0  0  0  0
   -5.1444    7.3454   -0.4151 C   0  0  0  0  0  0  0  0  0  0  0  0
    1.3483   -2.4178    0.0060 H   0  0  0  0  0  0  0  0  0  0  0  0
   -0.5721    2.5197    0.0034 H   0  0  0  0  0  0  0  0  0  0  0  0
   -3.0173   -1.0499    0.0010 H   0  0  0  0  0  0  0  0  0  0  0  0
   -0.9708   -2.4377   -0.0092 H   0  0  0  0  0  0  0  0  0  0  0  0
   -4.1558    1.2231    0.0153 H   0  0  0  0  0  0  0  0  0  0  0  0
   -5.7845    5.8831    1.0354 H   0  0  0  0  0  0  0  0  0  0  0  0
   -6.0142    5.1367   -1.9265 H   0  0  0  0  0  0  0  0  0  0  0  0
   -6.7151    4.2514   -0.5757 H   0  0  0  0  0  0  0  0  0  0  0  0
   -8.4137    5.6190   -1.7370 H   0  0  0  0  0  0  0  0  0  0  0  0
   -8.2287    6.1163   -0.0556 H   0  0  0  0  0  0  0  0  0  0  0  0
   -7.0297    7.5047   -2.5031 H   0  0  0  0  0  0  0  0  0  0  0  0
   -8.3565    8.0987   -1.5084 H   0  0  0  0  0  0  0  0  0  0  0  0
   -6.1828    9.1783   -0.9235 H   0  0  0  0  0  0  0  0  0  0  0  0
   -6.8810    8.3138    0.4417 H   0  0  0  0  0  0  0  0  0  0  0  0
   -4.4812    7.8365    0.3078 H   0  0  0  0  0  0  0  0  0  0  0  0
   -4.6174    7.3631   -1.3784 H   0  0  0  0  0  0  0  0  0  0  0  0
  1  2  1  0  0  0  0
  1 20  1  0  0  0  0
  2  8  2  0  0  0  0
  2  3  1  0  0  0  0
  3  5  2  0  0  0  0
  3  4  1  0  0  0  0
  5  6  1  0  0  0  0
  5 21  1  0  0  0  0
  6  9  1  0  0  0  0
  6  7  2  0  0  0  0
  7  8  1  0  0  0  0
  7 22  1  0  0  0  0
  8 23  1  0  0  0  0
  9 10  2  0  0  0  0
  9 24  1  0  0  0  0
 10 11  1  0  0  0  0
 11 12  1  0  0  0  0
 12 13  2  0  0  0  0
 12 14  1  0  0  0  0
 14 15  1  0  0  0  0
 14 19  1  0  0  0  0
 14 25  1  0  0  0  0
 15 16  1  0  0  0  0
 15 26  1  0  0  0  0
 15 27  1  0  0  0  0
 16 17  1  0  0  0  0
 16 28  1  0  0  0  0
 16 29  1  0  0  0  0
 17 18  1  0  0  0  0
 17 30  1  0  0  0  0
 17 31  1  0  0  0  0
 18 19  1  0  0  0  0
 18 32  1  0  0  0  0
 18 33  1  0  0  0  0
 19 34  1  0  0  0  0
 19 35  1  0  0  0  0
M  END
>  <DRUGBANK_ID>
DB08334

>  <COMMON_NAME>
3-FLUORO-4-HYDROXYBENZALDEHYDE O-(CYCLOHEXYLCARBONYL)OXIME

$$$$
