
 OpenBabel10282417103D

 56 59  0  0  0  0  0  0  0  0999 V2000
    1.4424   -0.3428    0.2501 C   0  0  0  0  0  0  0  0  0  0  0  0
    0.5751   -1.4446    0.1777 C   0  0  0  0  0  0  0  0  0  0  0  0
   -0.8026   -1.2472    0.2039 C   0  0  0  0  0  0  0  0  0  0  0  0
   -1.2899    0.0018    0.5538 C   0  0  0  0  0  0  0  0  0  0  0  0
   -0.4023    1.0494    0.8523 C   0  0  0  0  0  0  0  0  0  0  0  0
    0.9252    0.9522    0.4106 C   0  0  0  0  0  0  0  0  0  0  0  0
    1.7296    2.2008   -0.0800 C   0  0  0  0  0  0  0  0  0  0  0  0
    1.3672    2.7778   -1.4048 N   0  0  0  0  0  0  0  0  0  0  0  0
    1.8428    3.2793    0.9881 C   0  0  0  0  0  0  0  0  0  0  0  0
   -0.9091    1.4059   -2.7736 N   0  0  0  0  0  0  0  0  0  0  0  0
   -1.1008    2.4237   -1.7503 C   0  0  0  0  0  0  0  0  0  0  0  0
    0.0295    3.4011   -1.4592 C   0  0  0  0  0  0  0  0  0  0  0  0
    1.5891    1.8333   -2.5147 C   0  0  0  0  0  0  0  0  0  0  0  0
    0.4504    0.8300   -2.7453 C   0  0  0  0  0  0  0  0  0  0  0  0
    2.1514    2.8382    2.2743 C   0  0  0  0  0  0  0  0  0  0  0  0
    1.6660    4.6619    0.7670 C   0  0  0  0  0  0  0  0  0  0  0  0
    1.6913    5.5568    1.8258 C   0  0  0  0  0  0  0  0  0  0  0  0
    1.9472    5.0834    3.1068 C   0  0  0  0  0  0  0  0  0  0  0  0
    2.1955    3.7306    3.3273 C   0  0  0  0  0  0  0  0  0  0  0  0
   -1.3204    1.9318   -4.0615 C   0  0  0  0  0  0  0  0  0  0  0  0
   -0.5631    3.1459   -4.4691 C   0  0  0  0  0  0  0  0  0  0  0  0
    0.4468    3.1340   -5.3762 C   0  0  0  0  0  0  0  0  0  0  0  0
    1.3816    4.2504   -5.4711 C   0  0  0  0  0  0  0  0  0  0  0  0
    3.1445    5.6995   -4.5964 C   0  0  0  0  0  0  0  0  0  0  0  0
    2.1640    4.7314   -4.4003 C   0  0  0  0  0  0  0  0  0  0  0  0
    1.5780    4.7904   -6.7350 C   0  0  0  0  0  0  0  0  0  0  0  0
    2.5702    5.7454   -6.9367 C   0  0  0  0  0  0  0  0  0  0  0  0
    3.3469    6.2063   -5.8723 C   0  0  0  0  0  0  0  0  0  0  0  0
    2.4993   -0.4898    0.0482 H   0  0  0  0  0  0  0  0  0  0  0  0
    0.9671   -2.4322   -0.0424 H   0  0  0  0  0  0  0  0  0  0  0  0
   -1.4906   -2.0363   -0.0888 H   0  0  0  0  0  0  0  0  0  0  0  0
   -2.3500    0.2248    0.4112 H   0  0  0  0  0  0  0  0  0  0  0  0
   -0.8257    2.0252    1.0961 H   0  0  0  0  0  0  0  0  0  0  0  0
    2.7685    1.8641   -0.2114 H   0  0  0  0  0  0  0  0  0  0  0  0
   -1.1811    1.8501   -0.8751 H   0  0  0  0  0  0  0  0  0  0  0  0
   -2.0906    2.8925   -1.7326 H   0  0  0  0  0  0  0  0  0  0  0  0
   -0.2516    3.8909   -0.5226 H   0  0  0  0  0  0  0  0  0  0  0  0
    0.0520    4.2501   -2.1511 H   0  0  0  0  0  0  0  0  0  0  0  0
    1.7101    2.3751   -3.4425 H   0  0  0  0  0  0  0  0  0  0  0  0
    2.5666    1.3429   -2.4272 H   0  0  0  0  0  0  0  0  0  0  0  0
    0.5004    0.1027   -1.9459 H   0  0  0  0  0  0  0  0  0  0  0  0
    0.6448    0.2102   -3.6272 H   0  0  0  0  0  0  0  0  0  0  0  0
    2.3285    1.7796    2.4518 H   0  0  0  0  0  0  0  0  0  0  0  0
    1.4654    5.0727   -0.2215 H   0  0  0  0  0  0  0  0  0  0  0  0
    1.5117    6.6124    1.6420 H   0  0  0  0  0  0  0  0  0  0  0  0
    1.9659    5.7741    3.9404 H   0  0  0  0  0  0  0  0  0  0  0  0
    2.4180    3.3515    4.3167 H   0  0  0  0  0  0  0  0  0  0  0  0
   -1.2662    1.1216   -4.7909 H   0  0  0  0  0  0  0  0  0  0  0  0
   -2.3799    2.2007   -3.9703 H   0  0  0  0  0  0  0  0  0  0  0  0
   -0.7353    4.0568   -3.9231 H   0  0  0  0  0  0  0  0  0  0  0  0
    0.6544    2.2416   -5.9453 H   0  0  0  0  0  0  0  0  0  0  0  0
    3.7527    6.0370   -3.7594 H   0  0  0  0  0  0  0  0  0  0  0  0
    2.0561    4.3579   -3.3875 H   0  0  0  0  0  0  0  0  0  0  0  0
    0.9540    4.4602   -7.5589 H   0  0  0  0  0  0  0  0  0  0  0  0
    2.7431    6.1202   -7.9392 H   0  0  0  0  0  0  0  0  0  0  0  0
    4.1073    6.9620   -6.0383 H   0  0  0  0  0  0  0  0  0  0  0  0
  1  2  2  0  0  0  0
  1  6  1  0  0  0  0
  1 29  1  0  0  0  0
  2  3  1  0  0  0  0
  2 30  1  0  0  0  0
  3  4  2  0  0  0  0
  3 31  1  0  0  0  0
  4  5  1  0  0  0  0
  4 32  1  0  0  0  0
  5  6  2  0  0  0  0
  5 33  1  0  0  0  0
  6  7  1  0  0  0  0
  7  8  1  0  0  0  0
  7  9  1  0  0  0  0
  7 34  1  0  0  0  0
  8 13  1  0  0  0  0
  9 16  1  0  0  0  0
 10 11  1  0  0  0  0
 10 14  1  0  0  0  0
 10 20  1  0  0  0  0
 11 12  1  0  0  0  0
 11 35  1  0  0  0  0
 11 36  1  0  0  0  0
 12  8  1  0  0  0  0
 12 37  1  0  0  0  0
 12 38  1  0  0  0  0
 13 14  1  0  0  0  0
 13 39  1  0  0  0  0
 13 40  1  0  0  0  0
 14 41  1  0  0  0  0
 14 42  1  0  0  0  0
 15  9  2  0  0  0  0
 15 19  1  0  0  0  0
 15 43  1  0  0  0  0
 16 17  2  0  0  0  0
 16 44  1  0  0  0  0
 17 18  1  0  0  0  0
 17 45  1  0  0  0  0
 18 19  2  0  0  0  0
 18 46  1  0  0  0  0
 19 47  1  0  0  0  0
 20 21  1  0  0  0  0
 20 48  1  0  0  0  0
 20 49  1  0  0  0  0
 21 22  2  0  0  0  0
 21 50  1  0  0  0  0
 22 23  1  0  0  0  0
 22 51  1  0  0  0  0
 23 26  1  0  0  0  0
 24 25  1  0  0  0  0
 24 28  2  0  0  0  0
 24 52  1  0  0  0  0
 25 23  2  0  0  0  0
 25 53  1  0  0  0  0
 26 27  2  0  0  0  0
 26 54  1  0  0  0  0
 27 28  1  0  0  0  0
 27 55  1  0  0  0  0
 28 56  1  0  0  0  0
M  END
>  <DRUGBANK_ID>
DB00568

>  <SECONDARY_ACCESSION_NUMBERS>
APRD00332

>  <COMMON_NAME>
Cinnarizine

>  <CAS_NUMBER>
298-57-7

>  <UNII>
3DI2E1X18L

>  <SYNONYMS>
1-(Diphenylmethyl)-4-(3-phenyl-2-propenyl)piperazine; 1-Benzhydryl-4-cinnamylpiperazin; 1-Cinnamyl-4-(diphenylmethyl)piperazine; Cinarizina; Cinnarizine; Cinnarizinum

$$$$
