T10
 OpenBabel10282417123D

 62 64  0  0  0  0  0  0  0  0999 V2000
    4.1876    0.2750   -1.8931 O   0  0  0  0  0  0  0  0  0  0  0  0
    3.3123    0.3989   -0.7898 C   0  0  0  0  0  0  0  0  0  0  0  0
    1.8687    0.6176   -1.2307 C   0  0  0  0  0  0  0  0  0  0  0  0
    0.9776   -0.1270   -0.8103 O   0  0  0  0  0  0  0  0  0  0  0  0
    1.5254    1.8341   -2.1129 C   0  0  2  0  0  0  0  0  0  0  0  0
    0.4624    1.4608   -3.1574 C   0  0  0  0  0  0  0  0  0  0  0  0
    0.0627    2.6602   -3.9857 C   0  0  0  0  0  0  0  0  0  0  0  0
   -0.6512    3.7200   -3.4119 C   0  0  0  0  0  0  0  0  0  0  0  0
   -0.7636    4.9396   -4.0868 C   0  0  0  0  0  0  0  0  0  0  0  0
   -0.1779    5.1011   -5.3377 C   0  0  0  0  0  0  0  0  0  0  0  0
    0.4682    4.0267   -5.9420 C   0  0  0  0  0  0  0  0  0  0  0  0
    0.5470    2.7969   -5.2894 C   0  0  0  0  0  0  0  0  0  0  0  0
    2.6962    2.5198   -2.6770 N   0  0  0  0  0  0  0  0  0  0  0  0
    3.2536    3.7375   -2.3942 C   0  0  0  0  0  0  0  0  0  0  0  0
    4.2595    4.0636   -3.0320 O   0  0  0  0  0  0  0  0  0  0  0  0
    2.6290    4.7083   -1.3726 C   0  0  2  0  0  0  0  0  0  0  0  0
    2.1094    3.9914   -0.1206 C   0  0  0  0  0  0  0  0  0  0  0  0
    2.5517    4.6075    1.1538 C   0  0  0  0  0  0  0  0  0  0  0  0
    3.2444    3.8144    2.0703 C   0  0  0  0  0  0  0  0  0  0  0  0
    3.7819    4.3997    3.1995 C   0  0  0  0  0  0  0  0  0  0  0  0
    3.6352    5.7717    3.3979 C   0  0  0  0  0  0  0  0  0  0  0  0
    2.9323    6.5562    2.4851 C   0  0  0  0  0  0  0  0  0  0  0  0
    2.3287    5.9597    1.3964 C   0  0  0  0  0  0  0  0  0  0  0  0
    1.5526    5.4728   -1.9613 N   0  0  0  0  0  0  0  0  0  0  0  0
    1.3271    6.7990   -1.8537 C   0  0  0  0  0  0  0  0  0  0  0  0
    0.1985    7.2579   -2.0313 O   0  0  0  0  0  0  0  0  0  0  0  0
    2.4481    7.5104   -1.6251 O   0  0  0  0  0  0  0  0  0  0  0  0
    2.3412    8.9346   -1.7691 C   0  0  0  0  0  0  0  0  0  0  0  0
    2.3329    9.3876   -3.2179 C   0  0  0  0  0  0  0  0  0  0  0  0
    1.6127    8.6870   -4.1996 C   0  0  0  0  0  0  0  0  0  0  0  0
    1.4592    9.1569   -5.4943 C   0  0  0  0  0  0  0  0  0  0  0  0
    2.0559   10.3492   -5.8541 C   0  0  0  0  0  0  0  0  0  0  0  0
    2.7883   11.0683   -4.9082 C   0  0  0  0  0  0  0  0  0  0  0  0
    2.9512   10.5818   -3.6038 C   0  0  0  0  0  0  0  0  0  0  0  0
    1.0101    2.5209   -1.4560 H   0  0  0  0  0  0  0  0  0  0  0  0
    3.4334    5.3993   -1.0977 H   0  0  0  0  0  0  0  0  0  0  0  0
    3.9125   -0.5133   -2.3925 H   0  0  0  0  0  0  0  0  0  0  0  0
    3.3710   -0.5141   -0.1876 H   0  0  0  0  0  0  0  0  0  0  0  0
    3.6463    1.2217   -0.1522 H   0  0  0  0  0  0  0  0  0  0  0  0
    0.8310    0.6459   -3.7878 H   0  0  0  0  0  0  0  0  0  0  0  0
   -0.4310    1.0886   -2.6400 H   0  0  0  0  0  0  0  0  0  0  0  0
   -1.0154    3.6544   -2.3865 H   0  0  0  0  0  0  0  0  0  0  0  0
   -1.2144    5.7988   -3.5910 H   0  0  0  0  0  0  0  0  0  0  0  0
   -0.2147    6.0672   -5.8335 H   0  0  0  0  0  0  0  0  0  0  0  0
    0.9459    4.1569   -6.9090 H   0  0  0  0  0  0  0  0  0  0  0  0
    1.0331    1.9616   -5.7858 H   0  0  0  0  0  0  0  0  0  0  0  0
    3.2995    1.9819   -3.2942 H   0  0  0  0  0  0  0  0  0  0  0  0
    1.0127    3.9275   -0.0887 H   0  0  0  0  0  0  0  0  0  0  0  0
    2.5043    2.9792   -0.1030 H   0  0  0  0  0  0  0  0  0  0  0  0
    3.3865    2.7504    1.8928 H   0  0  0  0  0  0  0  0  0  0  0  0
    4.3395    3.7896    3.9014 H   0  0  0  0  0  0  0  0  0  0  0  0
    4.0695    6.2357    4.2749 H   0  0  0  0  0  0  0  0  0  0  0  0
    2.8671    7.6322    2.6048 H   0  0  0  0  0  0  0  0  0  0  0  0
    1.7282    6.5578    0.7192 H   0  0  0  0  0  0  0  0  0  0  0  0
    0.7615    4.9621   -2.2917 H   0  0  0  0  0  0  0  0  0  0  0  0
    1.4599    9.3176   -1.2367 H   0  0  0  0  0  0  0  0  0  0  0  0
    3.2177    9.3491   -1.2560 H   0  0  0  0  0  0  0  0  0  0  0  0
    1.1344    7.7397   -4.0034 H   0  0  0  0  0  0  0  0  0  0  0  0
    0.8623    8.5787   -6.1927 H   0  0  0  0  0  0  0  0  0  0  0  0
    1.9551   10.7047   -6.8735 H   0  0  0  0  0  0  0  0  0  0  0  0
    3.2237   12.0221   -5.1905 H   0  0  0  0  0  0  0  0  0  0  0  0
    3.5643   11.1444   -2.9026 H   0  0  0  0  0  0  0  0  0  0  0  0
  1  2  1  0  0  0  0
  1 37  1  0  0  0  0
  2  3  1  0  0  0  0
  2 38  1  0  0  0  0
  2 39  1  0  0  0  0
  3  4  2  0  0  0  0
  5 13  1  0  0  0  0
  5 35  1  1  0  0  0
  5  6  1  0  0  0  0
  5  3  1  0  0  0  0
  6  7  1  0  0  0  0
  6 40  1  0  0  0  0
  6 41  1  0  0  0  0
  7  8  2  0  0  0  0
  7 12  1  0  0  0  0
  8  9  1  0  0  0  0
  8 42  1  0  0  0  0
  9 10  2  0  0  0  0
  9 43  1  0  0  0  0
 10 11  1  0  0  0  0
 10 44  1  0  0  0  0
 11 12  2  0  0  0  0
 11 45  1  0  0  0  0
 12 46  1  0  0  0  0
 13 14  1  0  0  0  0
 13 47  1  0  0  0  0
 14 15  2  0  0  0  0
 16 24  1  0  0  0  0
 16 36  1  1  0  0  0
 16 17  1  0  0  0  0
 16 14  1  0  0  0  0
 17 18  1  0  0  0  0
 17 48  1  0  0  0  0
 17 49  1  0  0  0  0
 18 19  2  0  0  0  0
 18 23  1  0  0  0  0
 19 20  1  0  0  0  0
 19 50  1  0  0  0  0
 20 21  2  0  0  0  0
 20 51  1  0  0  0  0
 21 22  1  0  0  0  0
 21 52  1  0  0  0  0
 22 23  2  0  0  0  0
 22 53  1  0  0  0  0
 23 54  1  0  0  0  0
 24 25  1  0  0  0  0
 24 55  1  0  0  0  0
 25 26  2  0  0  0  0
 25 27  1  0  0  0  0
 27 28  1  0  0  0  0
 28 29  1  0  0  0  0
 28 56  1  0  0  0  0
 28 57  1  0  0  0  0
 29 30  2  0  0  0  0
 29 34  1  0  0  0  0
 30 31  1  0  0  0  0
 30 58  1  0  0  0  0
 31 32  2  0  0  0  0
 31 59  1  0  0  0  0
 32 33  1  0  0  0  0
 32 60  1  0  0  0  0
 33 34  2  0  0  0  0
 33 61  1  0  0  0  0
 34 62  1  0  0  0  0
M  END
>  <DRUGBANK_ID>
DB01871

>  <SECONDARY_ACCESSION_NUMBERS>
EXPT02989

>  <COMMON_NAME>
[1-(1-Benzyl-3-Hydroxy-2-Oxo-Propylcarbamoyl)-2-Phenyl-Ethyl]-Carbamic Acid Benzyl Ester

$$$$
