
 OpenBabel10282417223D

 34 29  0  0  0  0  0  0  0  0999 V2000
    0.9115    0.0322   -0.0337 O   0  0  0  0  0  0  0  0  0  0  0  0
    0.4382   -1.1155   -0.7229 C   0  0  0  0  0  0  0  0  0  0  0  0
    0.9449   -1.0908   -2.1558 C   0  0  3  0  0  0  0  0  0  0  0  0
    2.3649   -1.0908   -2.1558 O   0  0  0  0  0  0  0  0  0  0  0  0
    0.4382   -2.3194   -2.8936 C   0  0  3  0  0  0  0  0  0  0  0  0
   -0.9818   -2.3194   -2.8936 O   0  0  0  0  0  0  0  0  0  0  0  0
    0.9449   -2.2947   -4.3264 C   0  0  3  0  0  0  0  0  0  0  0  0
    2.3649   -2.2947   -4.3265 O   0  0  0  0  0  0  0  0  0  0  0  0
    0.4382   -3.5232   -5.0642 C   0  0  3  0  0  0  0  0  0  0  0  0
   -0.9818   -3.5232   -5.0642 O   0  0  0  0  0  0  0  0  0  0  0  0
    0.9449   -3.4985   -6.4971 C   0  0  0  0  0  0  0  0  0  0  0  0
    2.3649   -3.4985   -6.4971 O   0  0  0  0  0  0  0  0  0  0  0  0
    0.9792    0.0794   -0.0571 Na  0  3  0  0  0  0  0  0  0  0  0  0
    0.9049   -0.0296    0.0086 Al  0  1  0  0  0  0  0  0  0  0  0  0
    0.9648   -0.0582   -0.0733 O   0  5  0  0  0  0  0  0  0  0  0  0
    2.3848   -0.0582   -0.0733 C   0  0  0  0  0  0  0  0  0  0  0  0
    3.0948   -1.0108   -0.8511 O   0  5  0  0  0  0  0  0  0  0  0  0
    3.0202    0.7943    0.6229 O   0  0  0  0  0  0  0  0  0  0  0  0
    1.0613    0.0344   -0.0711 O   0  5  0  0  0  0  0  0  0  0  0  0
    1.9115    0.0322   -0.0337 H   0  0  0  0  0  0  0  0  0  0  0  0
    0.7949   -1.9977   -0.2336 H   0  0  0  0  0  0  0  0  0  0  0  0
   -0.6318   -1.1155   -0.7229 H   0  0  0  0  0  0  0  0  0  0  0  0
    0.5882   -0.2086   -2.6451 H   0  0  0  0  0  0  0  0  0  0  0  0
    2.6982   -0.2826   -1.6704 H   0  0  0  0  0  0  0  0  0  0  0  0
    0.7949   -3.2016   -2.4043 H   0  0  0  0  0  0  0  0  0  0  0  0
   -1.3151   -2.3356   -1.9509 H   0  0  0  0  0  0  0  0  0  0  0  0
    0.5882   -1.4125   -4.8157 H   0  0  0  0  0  0  0  0  0  0  0  0
    2.6982   -1.4864   -3.8411 H   0  0  0  0  0  0  0  0  0  0  0  0
    0.7949   -4.4054   -4.5750 H   0  0  0  0  0  0  0  0  0  0  0  0
   -1.3151   -3.5395   -4.1216 H   0  0  0  0  0  0  0  0  0  0  0  0
    0.5882   -4.3634   -7.0165 H   0  0  0  0  0  0  0  0  0  0  0  0
    0.5882   -2.6163   -6.9864 H   0  0  0  0  0  0  0  0  0  0  0  0
    2.6982   -2.6903   -6.0117 H   0  0  0  0  0  0  0  0  0  0  0  0
    2.0613    0.0344   -0.0711 H   0  0  0  0  0  0  0  0  0  0  0  0
  1 20  1  0  0  0  0
  2  1  1  0  0  0  0
  2  3  1  0  0  0  0
  2 21  1  0  0  0  0
  2 22  1  0  0  0  0
  3  4  1  0  0  0  0
  3  5  1  0  0  0  0
  3 23  1  0  0  0  0
  4 24  1  0  0  0  0
  5  6  1  0  0  0  0
  5  7  1  0  0  0  0
  5 25  1  0  0  0  0
  6 26  1  0  0  0  0
  7  8  1  0  0  0  0
  7  9  1  0  0  0  0
  7 27  1  0  0  0  0
  8 28  1  0  0  0  0
  9 10  1  0  0  0  0
  9 11  1  0  0  0  0
  9 29  1  0  0  0  0
 10 30  1  0  0  0  0
 11 12  1  0  0  0  0
 11 31  1  0  0  0  0
 11 32  1  0  0  0  0
 12 33  1  0  0  0  0
 16 15  1  0  0  0  0
 16 17  1  0  0  0  0
 16 18  2  0  0  0  0
 19 34  1  0  0  0  0
M  CHG  5  13   1  14   3  15  -1  17  -1  19  -1
M  END
>  <DRUGBANK_ID>
DB15908

>  <COMMON_NAME>
Alexitol sodium

>  <CAS_NUMBER>
66813-51-2

>  <UNII>
JDN69ZV6XV

>  <SYNONYMS>
Alexitol sodium; Sodium polyhydroxyaluminium monocarbonate hexitol complex

$$$$
