
 OpenBabel10282417123D

 48 47  0  0  1  0  0  0  0  0999 V2000
    0.8738    1.0035    2.8466 C   0  0  0  0  0  0  0  0  0  0  0  0
    2.9616    0.5848    2.2808 C   0  0  0  0  0  0  0  0  0  0  0  0
    2.9628   -2.9210    1.4723 C   0  0  0  0  0  0  0  0  0  0  0  0
    1.8837    1.8925    0.4693 C   0  0  0  0  0  0  0  0  0  0  0  0
    0.1418   -0.2040    2.3448 C   0  0  2  0  0  0  0  0  0  0  0  0
    3.7746   -1.0928    2.1223 C   0  0  2  0  0  0  0  0  0  0  0  0
    2.4364   -1.1503    1.1597 C   0  0  0  0  0  0  0  0  0  0  0  0
    0.9123    0.1570    1.1719 C   0  0  2  0  0  0  0  0  0  0  0  0
    3.0386    0.2322    0.5840 C   0  0  2  0  0  0  0  0  0  0  0  0
    2.0577    1.6718    2.1274 N   0  0  0  0  0  0  0  0  0  0  0  0
   -1.2319   -0.1567    1.8793 O   0  0  0  0  0  0  0  0  0  0  0  0
    5.1909   -0.7016    2.0246 O   0  0  0  0  0  0  0  0  0  0  0  0
    1.7680   -1.1106   -0.0035 O   0  0  0  0  0  0  0  0  0  0  0  0
    4.2658   -1.7458    0.6721 O   0  0  0  0  0  0  0  0  0  0  0  0
   -0.2566    1.5474    0.6836 O   0  0  0  0  0  0  0  0  0  0  0  0
    3.4792    0.3430   -0.9550 O   0  0  0  0  0  0  0  0  0  0  0  0
    0.0771    1.9027   -1.4384 O   0  0  0  0  0  0  0  0  0  0  0  0
    2.0334    1.5075   -1.7414 O   0  0  0  0  0  0  0  0  0  0  0  0
    0.3733   -0.3944   -1.5061 O   0  0  0  0  0  0  0  0  0  0  0  0
    1.4636   -2.9748   -1.3192 O   0  0  0  0  0  0  0  0  0  0  0  0
    4.2250   -1.4604   -1.2481 O   0  0  0  0  0  0  0  0  0  0  0  0
    1.9746   -0.9451   -2.6681 O   0  0  0  0  0  0  0  0  0  0  0  0
    3.1907   -2.7402   -0.2092 O   0  0  0  0  0  0  0  0  0  0  0  0
    1.0655    0.6537   -0.6007 P   0  0  0  0  0  0  0  0  0  0  0  0
    2.5489   -1.7929   -1.5068 P   0  0  0  0  0  0  0  0  0  0  0  0
    0.3388   -1.2537    2.5645 H   0  0  0  0  0  0  0  0  0  0  0  0
    2.9782   -1.0843    3.0359 H   0  0  0  0  0  0  0  0  0  0  0  0
    0.1664   -0.7327    0.5329 H   0  0  0  0  0  0  0  0  0  0  0  0
    3.6279    1.1921    0.4096 H   0  0  0  0  0  0  0  0  0  0  0  0
    1.3046    0.5520    3.7278 H   0  0  0  0  0  0  0  0  0  0  0  0
    0.1729    1.7993    2.8943 H   0  0  0  0  0  0  0  0  0  0  0  0
    4.0774    1.0359    1.8414 H   0  0  0  0  0  0  0  0  0  0  0  0
    3.5638    0.5109    3.2099 H   0  0  0  0  0  0  0  0  0  0  0  0
    3.4157   -3.6100    2.1257 H   0  0  0  0  0  0  0  0  0  0  0  0
    1.7683   -3.1564    1.3456 H   0  0  0  0  0  0  0  0  0  0  0  0
    1.3115    2.8240    0.6850 H   0  0  0  0  0  0  0  0  0  0  0  0
    2.6732    2.5737    0.0638 H   0  0  0  0  0  0  0  0  0  0  0  0
    1.7047   -1.6543    1.7632 H   0  0  0  0  0  0  0  0  0  0  0  0
   -1.3055    0.5797    1.2162 H   0  0  0  0  0  0  0  0  0  0  0  0
    5.4261   -0.9693    1.0797 H   0  0  0  0  0  0  0  0  0  0  0  0
    2.2400   -0.4256   -0.7863 H   0  0  0  0  0  0  0  0  0  0  0  0
    4.3933   -2.3702   -0.1240 H   0  0  0  0  0  0  0  0  0  0  0  0
    0.0779    2.2177   -0.0900 H   0  0  0  0  0  0  0  0  0  0  0  0
    3.9803   -0.2680   -1.5996 H   0  0  0  0  0  0  0  0  0  0  0  0
   -0.8836    1.9424   -1.2645 H   0  0  0  0  0  0  0  0  0  0  0  0
    3.0074    1.4590   -1.5841 H   0  0  0  0  0  0  0  0  0  0  0  0
    1.2386   -3.5068   -2.0839 H   0  0  0  0  0  0  0  0  0  0  0  0
    4.2953   -0.9242   -0.2824 H   0  0  0  0  0  0  0  0  0  0  0  0
  1 30  1  0  0  0  0
  1 31  1  0  0  0  0
  2 32  1  0  0  0  0
  2 33  1  0  0  0  0
  3 34  1  0  0  0  0
  3 35  1  0  0  0  0
  4 36  1  0  0  0  0
  4 37  1  0  0  0  0
  5 11  1  0  0  0  0
  5 26  1  1  0  0  0
  5  8  1  0  0  0  0
  5  1  1  0  0  0  0
  6  3  1  0  0  0  0
  6 12  1  0  0  0  0
  6 27  1  1  0  0  0
  7  2  1  0  0  0  0
  7 38  1  0  0  0  0
  8 28  1  6  0  0  0
  8 15  1  0  0  0  0
  8  9  1  0  0  0  0
  9  6  1  0  0  0  0
  9 16  1  0  0  0  0
  9 29  1  1  0  0  0
 10  1  1  0  0  0  0
 10  2  1  0  0  0  0
 10  4  1  0  0  0  0
 11 39  1  0  0  0  0
 12 40  1  0  0  0  0
 13  7  1  0  0  0  0
 13 41  1  0  0  0  0
 14  7  1  0  0  0  0
 14 42  1  0  0  0  0
 15 43  1  0  0  0  0
 16 44  1  0  0  0  0
 17 45  1  0  0  0  0
 18 46  1  0  0  0  0
 20 47  1  0  0  0  0
 21 48  1  0  0  0  0
 23  3  1  0  0  0  0
 24  4  1  0  0  0  0
 24 17  1  0  0  0  0
 24 18  1  0  0  0  0
 24 19  2  0  0  0  0
 25 20  1  0  0  0  0
 25 21  1  0  0  0  0
 25 22  2  0  0  0  0
 25 23  1  0  0  0  0
M  END
>  <DRUGBANK_ID>
DB02433

>  <SECONDARY_ACCESSION_NUMBERS>
EXPT02492

>  <COMMON_NAME>
{[(2,2-Dihydroxy-Ethyl)-(2,3,4,5-Tetrahydroxy-6-Phosphonooxy-Hexyl)-Amino]-Methyl}-Phosphonic Acid

$$$$
