
 OpenBabel10282417243D

 57 60  0  0  1  0  0  0  0  0999 V2000
    1.2270    0.1432   -0.2875 C   0  0  0  0  0  0  0  0  0  0  0  0
    0.6150    1.4843   -0.3258 N   0  0  0  0  0  0  0  0  0  0  0  0
    1.4135    2.5840   -0.8621 C   0  0  0  0  0  0  0  0  0  0  0  0
    0.7165    3.8400   -0.3900 C   0  0  0  0  0  0  0  0  0  0  0  0
   -0.5148    3.2999    0.3237 C   0  0  0  0  0  0  0  0  0  0  0  0
   -0.0375    1.9988    0.9262 C   0  0  1  0  0  0  0  0  0  0  0  0
   -0.7403    0.6381    1.2914 C   0  0  0  0  0  0  0  0  0  0  0  0
    0.8890    2.5077    2.0381 C   0  0  0  0  0  0  0  0  0  0  0  0
    1.2701    3.1067    3.7683 C   0  0  0  0  0  0  0  0  0  0  0  0
    2.7600    2.4992    5.0904 S   0  0  0  0  0  0  0  0  0  0  0  0
    3.9511    3.3053    4.8354 O   0  0  0  0  0  0  0  0  0  0  0  0
    2.1317    2.6752    6.3800 O   0  0  0  0  0  0  0  0  0  0  0  0
    3.2417    0.7251    4.9133 N   0  0  0  0  0  0  0  0  0  0  0  0
    2.7541   -0.3720    4.0903 C   0  0  0  0  0  0  0  0  0  0  0  0
    3.2733   -1.4830    4.0687 O   0  0  0  0  0  0  0  0  0  0  0  0
    1.6410   -0.1560    3.3610 N   0  0  0  0  0  0  0  0  0  0  0  0
    1.3041    1.1329    3.3795 C   0  0  0  0  0  0  0  0  0  0  0  0
    2.7615    2.2308    2.6712 C   0  0  0  0  0  0  0  0  0  0  0  0
    4.2091    2.1449    2.3907 C   0  0  0  0  0  0  0  0  0  0  0  0
    4.6423    3.6587    2.0387 C   0  0  0  0  0  0  0  0  0  0  0  0
    3.5789    4.7817    2.1786 C   0  0  0  0  0  0  0  0  0  0  0  0
    2.3591    3.9849    2.2507 C   0  0  0  0  0  0  0  0  0  0  0  0
    0.6952    4.6857    2.4617 C   0  0  0  0  0  0  0  0  0  0  0  0
   -0.6739    3.6452    3.0841 C   0  0  0  0  0  0  0  0  0  0  0  0
   -2.1298    3.9013    2.7420 C   0  0  0  0  0  0  0  0  0  0  0  0
   -2.8851    2.6376    3.1779 C   0  0  0  0  0  0  0  0  0  0  0  0
   -2.0342    1.3835    3.1648 C   0  0  0  0  0  0  0  0  0  0  0  0
   -0.4366    1.8949    3.5577 C   0  0  0  0  0  0  0  0  0  0  0  0
    0.8449   -0.4770   -1.1034 H   0  0  0  0  0  0  0  0  0  0  0  0
    0.9785   -0.4950    0.5632 H   0  0  0  0  0  0  0  0  0  0  0  0
    2.3029    0.1372   -0.1522 H   0  0  0  0  0  0  0  0  0  0  0  0
    2.4364    2.5279   -0.4641 H   0  0  0  0  0  0  0  0  0  0  0  0
    1.4005    2.6303   -1.9405 H   0  0  0  0  0  0  0  0  0  0  0  0
    1.4485    4.3956    0.2098 H   0  0  0  0  0  0  0  0  0  0  0  0
    0.3824    4.6255   -1.0575 H   0  0  0  0  0  0  0  0  0  0  0  0
   -0.7167    4.1611    0.9352 H   0  0  0  0  0  0  0  0  0  0  0  0
   -1.4354    3.1872   -0.2285 H   0  0  0  0  0  0  0  0  0  0  0  0
   -0.5608   -0.4278    1.1184 H   0  0  0  0  0  0  0  0  0  0  0  0
   -0.6035    0.2900    2.3311 H   0  0  0  0  0  0  0  0  0  0  0  0
   -1.6590    0.6803    0.7461 H   0  0  0  0  0  0  0  0  0  0  0  0
    1.4644    1.6591    1.5670 H   0  0  0  0  0  0  0  0  0  0  0  0
    0.9766    3.9801    4.3300 H   0  0  0  0  0  0  0  0  0  0  0  0
    4.1096    0.5121    5.3944 H   0  0  0  0  0  0  0  0  0  0  0  0
    1.2571   -0.8160    2.6899 H   0  0  0  0  0  0  0  0  0  0  0  0
    4.4450    1.4273    1.6015 H   0  0  0  0  0  0  0  0  0  0  0  0
    4.7344    1.8182    3.2846 H   0  0  0  0  0  0  0  0  0  0  0  0
    5.4916    3.9508    2.6673 H   0  0  0  0  0  0  0  0  0  0  0  0
    4.9753    3.6752    0.9988 H   0  0  0  0  0  0  0  0  0  0  0  0
    3.5974    5.3317    3.1295 H   0  0  0  0  0  0  0  0  0  0  0  0
    3.5462    5.5091    1.3606 H   0  0  0  0  0  0  0  0  0  0  0  0
    0.5140    5.7247    2.1831 H   0  0  0  0  0  0  0  0  0  0  0  0
   -2.4687    4.8192    3.2108 H   0  0  0  0  0  0  0  0  0  0  0  0
   -2.3378    4.0601    1.6736 H   0  0  0  0  0  0  0  0  0  0  0  0
   -3.7462    2.5047    2.4846 H   0  0  0  0  0  0  0  0  0  0  0  0
   -3.1777    2.6893    4.2063 H   0  0  0  0  0  0  0  0  0  0  0  0
   -2.4242    1.1399    2.1538 H   0  0  0  0  0  0  0  0  0  0  0  0
   -2.2954    0.3954    3.5578 H   0  0  0  0  0  0  0  0  0  0  0  0
  1  2  1  0  0  0  0
  1 29  1  0  0  0  0
  1 30  1  0  0  0  0
  1 31  1  0  0  0  0
  2  3  1  0  0  0  0
  3  4  1  0  0  0  0
  3 32  1  0  0  0  0
  3 33  1  0  0  0  0
  4  5  1  0  0  0  0
  4 34  1  0  0  0  0
  4 35  1  0  0  0  0
  5 36  1  0  0  0  0
  5 37  1  0  0  0  0
  6  5  1  0  0  0  0
  6  2  1  0  0  0  0
  6  7  1  0  0  0  0
  6  8  1  1  0  0  0
  7 38  1  0  0  0  0
  7 39  1  0  0  0  0
  7 40  1  0  0  0  0
  8  9  2  0  0  0  0
  8 41  1  0  0  0  0
  9 10  1  0  0  0  0
  9 42  1  0  0  0  0
 10 11  2  0  0  0  0
 10 12  2  0  0  0  0
 10 13  1  0  0  0  0
 13 14  1  0  0  0  0
 13 43  1  0  0  0  0
 14 15  2  0  0  0  0
 14 16  1  0  0  0  0
 16 17  1  0  0  0  0
 16 44  1  0  0  0  0
 17 18  2  0  0  0  0
 17 28  1  0  0  0  0
 18 19  1  0  0  0  0
 18 22  1  0  0  0  0
 19 20  1  0  0  0  0
 19 45  1  0  0  0  0
 19 46  1  0  0  0  0
 20 21  1  0  0  0  0
 20 47  1  0  0  0  0
 20 48  1  0  0  0  0
 21 22  1  0  0  0  0
 21 49  1  0  0  0  0
 21 50  1  0  0  0  0
 22 23  2  0  0  0  0
 23 24  1  0  0  0  0
 23 51  1  0  0  0  0
 24 25  1  0  0  0  0
 24 28  2  0  0  0  0
 25 26  1  0  0  0  0
 25 52  1  0  0  0  0
 25 53  1  0  0  0  0
 26 27  1  0  0  0  0
 26 54  1  0  0  0  0
 26 55  1  0  0  0  0
 27 28  1  0  0  0  0
 27 56  1  0  0  0  0
 27 57  1  0  0  0  0
M  END
>  <DRUGBANK_ID>
DB18184

>  <COMMON_NAME>
ZYIL-1

>  <CAS_NUMBER>
2455519-86-3

>  <UNII>
P9ZQS28F8C

$$$$
