NLA
 OpenBabel10282417123D

 24 25  0  0  0  0  0  0  0  0999 V2000
   -0.0136   -0.7120    0.0073 C   0  0  0  0  0  0  0  0  0  0  0  0
    1.2267   -1.4077    0.0270 C   0  0  0  0  0  0  0  0  0  0  0  0
    2.4335   -0.6887   -0.0179 C   0  0  0  0  0  0  0  0  0  0  0  0
    2.4283    0.7025   -0.0175 C   0  0  0  0  0  0  0  0  0  0  0  0
    1.2182    1.3923    0.0170 C   0  0  0  0  0  0  0  0  0  0  0  0
   -0.0053    0.7036    0.0088 C   0  0  0  0  0  0  0  0  0  0  0  0
   -1.2236    1.4055   -0.0029 C   0  0  0  0  0  0  0  0  0  0  0  0
   -2.4454    0.7312   -0.0132 C   0  0  0  0  0  0  0  0  0  0  0  0
   -2.4677   -0.6542   -0.0169 C   0  0  0  0  0  0  0  0  0  0  0  0
   -1.2687   -1.3621   -0.0148 C   0  0  0  0  0  0  0  0  0  0  0  0
    1.2832   -2.9194    0.1115 C   0  0  0  0  0  0  0  0  0  0  0  0
    0.6301   -3.4679    1.3582 C   0  0  0  0  0  0  0  0  0  0  0  0
   -0.3223   -4.2364    1.3872 O   0  0  0  0  0  0  0  0  0  0  0  0
    1.1865   -3.0278    2.5028 O   0  0  0  0  0  0  0  0  0  0  0  0
    3.3881   -1.2108   -0.0391 H   0  0  0  0  0  0  0  0  0  0  0  0
    3.3667    1.2512   -0.0357 H   0  0  0  0  0  0  0  0  0  0  0  0
    1.2370    2.4797    0.0443 H   0  0  0  0  0  0  0  0  0  0  0  0
   -1.2299    2.4929   -0.0127 H   0  0  0  0  0  0  0  0  0  0  0  0
   -3.3784    1.2863   -0.0248 H   0  0  0  0  0  0  0  0  0  0  0  0
   -3.4093   -1.1964   -0.0275 H   0  0  0  0  0  0  0  0  0  0  0  0
   -1.3450   -2.4454   -0.0405 H   0  0  0  0  0  0  0  0  0  0  0  0
    0.7858   -3.3399   -0.7710 H   0  0  0  0  0  0  0  0  0  0  0  0
    2.3142   -3.2899    0.0855 H   0  0  0  0  0  0  0  0  0  0  0  0
    0.6138   -3.3851    3.2130 H   0  0  0  0  0  0  0  0  0  0  0  0
  1  2  2  0  0  0  0
  1  6  1  0  0  0  0
  1 10  1  0  0  0  0
  2  3  1  0  0  0  0
  2 11  1  0  0  0  0
  3  4  2  0  0  0  0
  3 15  1  0  0  0  0
  4  5  1  0  0  0  0
  4 16  1  0  0  0  0
  5  6  2  0  0  0  0
  5 17  1  0  0  0  0
  6  7  1  0  0  0  0
  7  8  2  0  0  0  0
  7 18  1  0  0  0  0
  8  9  1  0  0  0  0
  8 19  1  0  0  0  0
  9 10  2  0  0  0  0
  9 20  1  0  0  0  0
 10 21  1  0  0  0  0
 11 12  1  0  0  0  0
 11 22  1  0  0  0  0
 11 23  1  0  0  0  0
 12 13  2  0  0  0  0
 12 14  1  0  0  0  0
 14 24  1  0  0  0  0
M  END
>  <DRUGBANK_ID>
DB01750

>  <SECONDARY_ACCESSION_NUMBERS>
EXPT02353

>  <COMMON_NAME>
1-naphthaleneacetic acid

>  <CAS_NUMBER>
86-87-3

>  <UNII>
33T7G7757C

>  <SYNONYMS>
1-Naphthylacetic acid; NAA; naphthalen-1-yl-acetic acid; naphthalene-1-acetic acid; α-NAA; α-naphthaleneacetic acid

$$$$
