6IA
 OpenBabel10282417163D

 52 54  0  0  0  0  0  0  0  0999 V2000
    0.9899   -0.0117    0.0988 O   0  0  0  0  0  0  0  0  0  0  0  0
    0.4133   -1.4320   -0.7032 P   0  0  0  0  0  0  0  0  0  0  0  0
   -0.9312   -1.1384   -0.0755 O   0  0  0  0  0  0  0  0  0  0  0  0
    0.9284   -0.6897   -2.0438 O   0  0  0  0  0  0  0  0  0  0  0  0
   -0.1634   -2.8522   -1.5053 O   0  0  0  0  0  0  0  0  0  0  0  0
   -0.8729   -2.5013   -2.7253 C   0  0  0  0  0  0  0  0  0  0  0  0
   -2.1424   -1.6176   -2.5514 C   0  0  1  0  0  0  0  0  0  0  0  0
   -1.8839   -0.2980   -2.0399 O   0  0  0  0  0  0  0  0  0  0  0  0
   -2.8478   -1.3686   -3.8809 C   0  0  1  0  0  0  0  0  0  0  0  0
   -4.2580   -1.5868   -3.7410 O   0  0  0  0  0  0  0  0  0  0  0  0
   -2.5881    0.1115   -4.1885 C   0  0  1  0  0  0  0  0  0  0  0  0
   -3.6012    0.6846   -5.0017 O   0  0  0  0  0  0  0  0  0  0  0  0
   -2.5236    0.7195   -2.7974 C   0  0  2  0  0  0  0  0  0  0  0  0
   -1.7198    1.9097   -2.6847 N   0  0  0  0  0  0  0  0  0  0  0  0
   -0.3872    1.9720   -2.9839 C   0  0  0  0  0  0  0  0  0  0  0  0
    0.1055    3.1559   -2.7948 N   0  0  0  0  0  0  0  0  0  0  0  0
   -0.9452    3.9112   -2.3103 C   0  0  0  0  0  0  0  0  0  0  0  0
   -1.0207    5.2623   -1.9254 C   0  0  0  0  0  0  0  0  0  0  0  0
    0.0271    6.1534   -1.9826 N   0  0  0  0  0  0  0  0  0  0  0  0
   -2.2177    5.7211   -1.4752 N   0  0  0  0  0  0  0  0  0  0  0  0
   -3.2596    4.8581   -1.4276 C   0  0  0  0  0  0  0  0  0  0  0  0
   -3.3023    3.5554   -1.7877 N   0  0  0  0  0  0  0  0  0  0  0  0
   -2.0946    3.1456   -2.2234 C   0  0  0  0  0  0  0  0  0  0  0  0
    1.3534    5.7891   -2.4346 C   0  0  0  0  0  0  0  0  0  0  0  0
    1.7527    6.6115   -3.6531 C   0  0  0  0  0  0  0  0  0  0  0  0
    1.8968    8.1025   -3.3348 C   0  0  0  0  0  0  0  0  0  0  0  0
    2.9379    8.3324   -2.2388 C   0  0  0  0  0  0  0  0  0  0  0  0
    2.2805    8.8701   -4.5950 C   0  0  0  0  0  0  0  0  0  0  0  0
   -2.7868   -2.1105   -1.8147 H   0  0  0  0  0  0  0  0  0  0  0  0
   -2.4837   -2.0216   -4.6790 H   0  0  0  0  0  0  0  0  0  0  0  0
   -1.6253    0.2115   -4.7033 H   0  0  0  0  0  0  0  0  0  0  0  0
   -3.5169    0.9340   -2.3860 H   0  0  0  0  0  0  0  0  0  0  0  0
    1.9442   -0.0102    0.2668 H   0  0  0  0  0  0  0  0  0  0  0  0
    1.8764   -0.4696   -1.9630 H   0  0  0  0  0  0  0  0  0  0  0  0
   -0.1694   -2.0225   -3.4159 H   0  0  0  0  0  0  0  0  0  0  0  0
   -1.1549   -3.4477   -3.1934 H   0  0  0  0  0  0  0  0  0  0  0  0
   -4.5545   -1.1880   -2.9027 H   0  0  0  0  0  0  0  0  0  0  0  0
   -4.4574    0.4133   -4.6186 H   0  0  0  0  0  0  0  0  0  0  0  0
    0.1741    1.1175   -3.3405 H   0  0  0  0  0  0  0  0  0  0  0  0
   -0.1736    7.0876   -1.6560 H   0  0  0  0  0  0  0  0  0  0  0  0
   -4.1920    5.2745   -1.0511 H   0  0  0  0  0  0  0  0  0  0  0  0
    2.0589    5.8961   -1.6075 H   0  0  0  0  0  0  0  0  0  0  0  0
    1.4703    4.7532   -2.7315 H   0  0  0  0  0  0  0  0  0  0  0  0
    2.7043    6.2209   -4.0383 H   0  0  0  0  0  0  0  0  0  0  0  0
    1.0143    6.4645   -4.4538 H   0  0  0  0  0  0  0  0  0  0  0  0
    0.9308    8.4903   -2.9903 H   0  0  0  0  0  0  0  0  0  0  0  0
    3.9165    7.9476   -2.5456 H   0  0  0  0  0  0  0  0  0  0  0  0
    3.0340    9.3962   -2.0109 H   0  0  0  0  0  0  0  0  0  0  0  0
    2.6622    7.8374   -1.3029 H   0  0  0  0  0  0  0  0  0  0  0  0
    1.5299    8.7309   -5.3802 H   0  0  0  0  0  0  0  0  0  0  0  0
    2.3500    9.9407   -4.3801 H   0  0  0  0  0  0  0  0  0  0  0  0
    3.2473    8.5336   -4.9836 H   0  0  0  0  0  0  0  0  0  0  0  0
  1  2  1  0  0  0  0
  1 33  1  0  0  0  0
  2  3  2  0  0  0  0
  2  4  1  0  0  0  0
  2  5  1  0  0  0  0
  4 34  1  0  0  0  0
  5  6  1  0  0  0  0
  6 35  1  0  0  0  0
  6 36  1  0  0  0  0
  7  6  1  0  0  0  0
  7  8  1  0  0  0  0
  7  9  1  0  0  0  0
  7 29  1  1  0  0  0
  8 13  1  0  0  0  0
  9 10  1  0  0  0  0
  9 11  1  0  0  0  0
  9 30  1  6  0  0  0
 10 37  1  0  0  0  0
 11 12  1  0  0  0  0
 11 13  1  0  0  0  0
 11 31  1  6  0  0  0
 12 38  1  0  0  0  0
 13 32  1  1  0  0  0
 13 14  1  0  0  0  0
 14 15  1  0  0  0  0
 14 23  1  0  0  0  0
 15 16  2  0  0  0  0
 15 39  1  0  0  0  0
 16 17  1  0  0  0  0
 17 18  1  0  0  0  0
 17 23  2  0  0  0  0
 18 19  1  0  0  0  0
 18 20  2  0  0  0  0
 19 24  1  0  0  0  0
 19 40  1  0  0  0  0
 20 21  1  0  0  0  0
 21 22  2  0  0  0  0
 21 41  1  0  0  0  0
 22 23  1  0  0  0  0
 24 25  1  0  0  0  0
 24 42  1  0  0  0  0
 24 43  1  0  0  0  0
 25 26  1  0  0  0  0
 25 44  1  0  0  0  0
 25 45  1  0  0  0  0
 26 27  1  0  0  0  0
 26 28  1  0  0  0  0
 26 46  1  0  0  0  0
 27 47  1  0  0  0  0
 27 48  1  0  0  0  0
 27 49  1  0  0  0  0
 28 50  1  0  0  0  0
 28 51  1  0  0  0  0
 28 52  1  0  0  0  0
M  END
>  <DRUGBANK_ID>
DB07205

>  <COMMON_NAME>
N6-ISOPENTENYL-ADENOSINE-5'-MONOPHOSPHATE

$$$$
