
 OpenBabel10282417223D

 25 25  0  0  0  0  0  0  0  0999 V2000
    1.3298   -1.0534    0.0249 C   0  0  0  0  0  0  0  0  0  0  0  0
    1.2845    0.3568    0.0045 C   0  0  0  0  0  0  0  0  0  0  0  0
    0.1060   -1.7637    0.0027 C   0  0  0  0  0  0  0  0  0  0  0  0
    2.6308   -1.8451    0.0816 C   0  0  0  0  0  0  0  0  0  0  0  0
    0.0308    1.0014   -0.0097 C   0  0  0  0  0  0  0  0  0  0  0  0
    2.4901    1.2581   -0.0029 C   0  0  0  0  0  0  0  0  0  0  0  0
   -1.1267   -1.1089   -0.0171 C   0  0  0  0  0  0  0  0  0  0  0  0
    2.7213   -2.6741    1.3660 C   0  0  0  0  0  0  0  0  0  0  0  0
    2.8082   -2.7233   -1.1590 C   0  0  0  0  0  0  0  0  0  0  0  0
   -1.1533    0.2743   -0.0138 C   0  0  0  0  0  0  0  0  0  0  0  0
   -2.3247    0.9711   -0.0133 O   0  0  0  0  0  0  0  0  0  0  0  0
    0.1065   -2.8522    0.0057 H   0  0  0  0  0  0  0  0  0  0  0  0
    3.4925   -1.1769    0.1012 H   0  0  0  0  0  0  0  0  0  0  0  0
   -0.0240    2.0876   -0.0154 H   0  0  0  0  0  0  0  0  0  0  0  0
    2.4710    1.8893   -0.8978 H   0  0  0  0  0  0  0  0  0  0  0  0
    2.4793    1.8970    0.8863 H   0  0  0  0  0  0  0  0  0  0  0  0
    3.4468    0.7384   -0.0099 H   0  0  0  0  0  0  0  0  0  0  0  0
   -2.0400   -1.6952   -0.0314 H   0  0  0  0  0  0  0  0  0  0  0  0
    1.9388   -3.4377    1.4198 H   0  0  0  0  0  0  0  0  0  0  0  0
    3.6885   -3.1843    1.4261 H   0  0  0  0  0  0  0  0  0  0  0  0
    2.6256   -2.0323    2.2493 H   0  0  0  0  0  0  0  0  0  0  0  0
    2.7735   -2.1172   -2.0713 H   0  0  0  0  0  0  0  0  0  0  0  0
    3.7769   -3.2337   -1.1318 H   0  0  0  0  0  0  0  0  0  0  0  0
    2.0310   -3.4903   -1.2352 H   0  0  0  0  0  0  0  0  0  0  0  0
   -3.0615    0.3391    0.0142 H   0  0  0  0  0  0  0  0  0  0  0  0
  1  2  1  0  0  0  0
  1  3  2  0  0  0  0
  1  4  1  0  0  0  0
  2  5  2  0  0  0  0
  2  6  1  0  0  0  0
  3  7  1  0  0  0  0
  3 12  1  0  0  0  0
  4  8  1  0  0  0  0
  4  9  1  0  0  0  0
  4 13  1  0  0  0  0
  5 10  1  0  0  0  0
  5 14  1  0  0  0  0
  6 15  1  0  0  0  0
  6 16  1  0  0  0  0
  6 17  1  0  0  0  0
  7 10  2  0  0  0  0
  7 18  1  0  0  0  0
  8 19  1  0  0  0  0
  8 20  1  0  0  0  0
  8 21  1  0  0  0  0
  9 22  1  0  0  0  0
  9 23  1  0  0  0  0
  9 24  1  0  0  0  0
 10 11  1  0  0  0  0
 11 25  1  0  0  0  0
M  END
>  <DRUGBANK_ID>
DB15901

>  <COMMON_NAME>
o-Cymen-5-ol

>  <CAS_NUMBER>
3228-02-2

>  <UNII>
H41B6Q1I9L

>  <SYNONYMS>
4-Isopropyl-3-methylphenol; 4-Isopropyl-m-cresol; o-Cymen-5-ol; o-Cymen-5y-ol; p-Thymol

$$$$
