
 OpenBabel10282417233D

 67 66  0  0  0  0  0  0  0  0999 V2000
    1.4491   -0.1440   -0.3360 C   0  0  0  0  0  0  0  0  0  0  0  0
   -0.8080   -0.9417   -0.4531 C   0  0  0  0  0  0  0  0  0  0  0  0
    0.9637    1.1631   -0.3804 C   0  0  0  0  0  0  0  0  0  0  0  0
   -1.2986    0.3571   -0.3975 C   0  0  0  0  0  0  0  0  0  0  0  0
   -0.3995    1.4180   -0.3458 C   0  0  0  0  0  0  0  0  0  0  0  0
    1.1367   -2.6226   -0.1126 C   0  0  0  0  0  0  0  0  0  0  0  0
   -0.8359   -3.5477    1.1512 C   0  0  0  0  0  0  0  0  0  0  0  0
   -1.3788   -4.1678   -0.1488 C   0  0  0  0  0  0  0  0  0  0  0  0
   -0.9964   -5.6269   -0.3042 C   0  0  0  0  0  0  0  0  0  0  0  0
   -1.4092   -6.3863    0.9548 C   0  0  0  0  0  0  0  0  0  0  0  0
   -2.9327   -6.4021    0.9959 C   0  0  0  0  0  0  0  0  0  0  0  0
   -3.4353   -7.0913   -0.2743 C   0  0  0  0  0  0  0  0  0  0  0  0
   -2.8314   -8.4998   -0.3408 C   0  0  0  0  0  0  0  0  0  0  0  0
   -3.2907   -9.2844    0.8907 C   0  0  0  0  0  0  0  0  0  0  0  0
   -4.8211   -9.3312    0.9055 C   0  0  0  0  0  0  0  0  0  0  0  0
   -5.3231  -10.0030   -0.3764 C   0  0  0  0  0  0  0  0  0  0  0  0
   -4.7807  -11.4333   -0.4616 C   0  0  0  0  0  0  0  0  0  0  0  0
   -5.2647  -12.2660    0.7301 C   0  0  0  0  0  0  0  0  0  0  0  0
   -6.7919  -12.3199    0.7886 C   0  0  0  0  0  0  0  0  0  0  0  0
    1.4465   -4.7513    1.2105 C   0  0  0  0  0  0  0  0  0  0  0  0
    1.0942   -2.7218    2.4201 C   0  0  0  0  0  0  0  0  0  0  0  0
   -7.3500  -12.9514   -0.4763 C   0  0  0  0  0  0  0  0  0  0  0  0
    0.5615   -1.2343   -0.3229 C   0  0  0  0  0  0  0  0  0  0  0  0
    0.6901   -3.4357    1.1326 N   0  3  0  0  0  0  0  0  0  0  0  0
    0.2223    0.6905    3.2680 Cl  0  5  0  0  0  0  0  0  0  0  0  0
    2.5147   -0.2925   -0.2047 H   0  0  0  0  0  0  0  0  0  0  0  0
   -1.5850   -1.6989   -0.4859 H   0  0  0  0  0  0  0  0  0  0  0  0
    1.6599    1.9982   -0.2980 H   0  0  0  0  0  0  0  0  0  0  0  0
   -2.3621    0.5395   -0.2909 H   0  0  0  0  0  0  0  0  0  0  0  0
   -0.7690    2.4204   -0.1634 H   0  0  0  0  0  0  0  0  0  0  0  0
    0.9195   -3.2390   -0.9936 H   0  0  0  0  0  0  0  0  0  0  0  0
    2.2296   -2.5884   -0.0525 H   0  0  0  0  0  0  0  0  0  0  0  0
   -1.1336   -4.0863    2.0549 H   0  0  0  0  0  0  0  0  0  0  0  0
   -1.2575   -2.5563    1.3363 H   0  0  0  0  0  0  0  0  0  0  0  0
   -2.4702   -4.0539   -0.1626 H   0  0  0  0  0  0  0  0  0  0  0  0
   -1.0702   -3.6473   -1.0572 H   0  0  0  0  0  0  0  0  0  0  0  0
   -1.4411   -6.0117   -1.2223 H   0  0  0  0  0  0  0  0  0  0  0  0
    0.0393   -5.7914   -0.5614 H   0  0  0  0  0  0  0  0  0  0  0  0
   -0.9503   -7.3778    0.9681 H   0  0  0  0  0  0  0  0  0  0  0  0
   -1.0407   -5.9650    1.8893 H   0  0  0  0  0  0  0  0  0  0  0  0
   -3.2734   -6.8893    1.9134 H   0  0  0  0  0  0  0  0  0  0  0  0
   -3.3546   -5.3964    1.0735 H   0  0  0  0  0  0  0  0  0  0  0  0
   -4.5253   -7.0796   -0.2950 H   0  0  0  0  0  0  0  0  0  0  0  0
   -3.1990   -6.5428   -1.1881 H   0  0  0  0  0  0  0  0  0  0  0  0
   -3.1077   -8.9790   -1.2823 H   0  0  0  0  0  0  0  0  0  0  0  0
   -1.7383   -8.5022   -0.3940 H   0  0  0  0  0  0  0  0  0  0  0  0
   -2.8383  -10.2787    0.8903 H   0  0  0  0  0  0  0  0  0  0  0  0
   -2.9237   -8.8485    1.8250 H   0  0  0  0  0  0  0  0  0  0  0  0
   -5.1696   -9.8364    1.8083 H   0  0  0  0  0  0  0  0  0  0  0  0
   -5.2653   -8.3350    0.9968 H   0  0  0  0  0  0  0  0  0  0  0  0
   -6.4145   -9.9688   -0.4084 H   0  0  0  0  0  0  0  0  0  0  0  0
   -5.0323   -9.4479   -1.2746 H   0  0  0  0  0  0  0  0  0  0  0  0
   -5.0722  -11.8822   -1.4138 H   0  0  0  0  0  0  0  0  0  0  0  0
   -3.6860  -11.4495   -0.4971 H   0  0  0  0  0  0  0  0  0  0  0  0
   -4.8481  -13.2752    0.6643 H   0  0  0  0  0  0  0  0  0  0  0  0
   -4.8793  -11.8595    1.6735 H   0  0  0  0  0  0  0  0  0  0  0  0
   -7.1050  -12.8890    1.6680 H   0  0  0  0  0  0  0  0  0  0  0  0
   -7.2200  -11.3189    0.9209 H   0  0  0  0  0  0  0  0  0  0  0  0
    2.4908   -4.5570    1.4604 H   0  0  0  0  0  0  0  0  0  0  0  0
    0.9952   -5.3820    1.9818 H   0  0  0  0  0  0  0  0  0  0  0  0
    1.4816   -5.2309    0.2412 H   0  0  0  0  0  0  0  0  0  0  0  0
    2.1821   -2.6152    2.4268 H   0  0  0  0  0  0  0  0  0  0  0  0
    0.5874   -1.7782    2.4368 H   0  0  0  0  0  0  0  0  0  0  0  0
    0.7727   -3.3459    3.2641 H   0  0  0  0  0  0  0  0  0  0  0  0
   -6.9516  -13.9636   -0.5915 H   0  0  0  0  0  0  0  0  0  0  0  0
   -8.4389  -12.9933   -0.4400 H   0  0  0  0  0  0  0  0  0  0  0  0
   -7.0851  -12.3816   -1.3730 H   0  0  0  0  0  0  0  0  0  0  0  0
  1 23  1  0  0  0  0
  1  3  2  0  0  0  0
  1 26  1  0  0  0  0
  2 23  2  0  0  0  0
  2  4  1  0  0  0  0
  2 27  1  0  0  0  0
  3  5  1  0  0  0  0
  3 28  1  0  0  0  0
  4  5  2  0  0  0  0
  4 29  1  0  0  0  0
  5 30  1  0  0  0  0
  6 23  1  0  0  0  0
  6 24  1  0  0  0  0
  6 31  1  0  0  0  0
  6 32  1  0  0  0  0
  7 24  1  0  0  0  0
  7  8  1  0  0  0  0
  7 33  1  0  0  0  0
  7 34  1  0  0  0  0
  8  9  1  0  0  0  0
  8 35  1  0  0  0  0
  8 36  1  0  0  0  0
  9 10  1  0  0  0  0
  9 37  1  0  0  0  0
  9 38  1  0  0  0  0
 10 11  1  0  0  0  0
 10 39  1  0  0  0  0
 10 40  1  0  0  0  0
 11 12  1  0  0  0  0
 11 41  1  0  0  0  0
 11 42  1  0  0  0  0
 12 13  1  0  0  0  0
 12 43  1  0  0  0  0
 12 44  1  0  0  0  0
 13 14  1  0  0  0  0
 13 45  1  0  0  0  0
 13 46  1  0  0  0  0
 14 15  1  0  0  0  0
 14 47  1  0  0  0  0
 14 48  1  0  0  0  0
 15 16  1  0  0  0  0
 15 49  1  0  0  0  0
 15 50  1  0  0  0  0
 16 17  1  0  0  0  0
 16 51  1  0  0  0  0
 16 52  1  0  0  0  0
 17 18  1  0  0  0  0
 17 53  1  0  0  0  0
 17 54  1  0  0  0  0
 18 19  1  0  0  0  0
 18 55  1  0  0  0  0
 18 56  1  0  0  0  0
 19 22  1  0  0  0  0
 19 57  1  0  0  0  0
 19 58  1  0  0  0  0
 20 24  1  0  0  0  0
 20 59  1  0  0  0  0
 20 60  1  0  0  0  0
 20 61  1  0  0  0  0
 21 24  1  0  0  0  0
 21 62  1  0  0  0  0
 21 63  1  0  0  0  0
 21 64  1  0  0  0  0
 22 65  1  0  0  0  0
 22 66  1  0  0  0  0
 22 67  1  0  0  0  0
M  CHG  2  24   1  25  -1
M  END
>  <DRUGBANK_ID>
DB16590

>  <COMMON_NAME>
N-Alkyl dimethyl benzyl ammonium chloride (C12-C18)

>  <CAS_NUMBER>
68391-01-5

>  <UNII>
9U1Q4T4ZYS

>  <SYNONYMS>
(C12-C18) Alkyldimethylbenzyl ammonium chloride; (C12-C18)Alkylbenzyldimethylammonium chloride; (C12-C18)Alkyldimethylbenzylammonium chloride; Alkyl(C12-C18)benzyldimethylammonium chloride; C12-18-Alkyldimethylbenzyl ammonium chlorides

$$$$
