
 OpenBabel10282417203D

 56 58  0  0  0  0  0  0  0  0999 V2000
    3.0753    0.5349    0.0404 C   0  0  0  0  0  0  0  0  0  0  0  0
    4.3418   -0.0180   -0.0195 N   0  0  0  0  0  0  0  0  0  0  0  0
    4.7104   -1.3640    0.0101 C   0  0  0  0  0  0  0  0  0  0  0  0
    3.8513   -2.5485   -0.0824 N   0  0  0  0  0  0  0  0  0  0  0  0
    2.4554   -2.9903   -0.1824 C   0  0  0  0  0  0  0  0  0  0  0  0
    1.8847   -0.5049    0.7252 C   0  0  0  0  0  0  0  0  0  0  0  0
    0.1005   -0.4975   -0.0708 C   0  0  0  0  0  0  0  0  0  0  0  0
   -0.5241    0.4596   -1.0267 C   0  0  0  0  0  0  0  0  0  0  0  0
    0.5816    1.6211   -1.5371 C   0  0  0  0  0  0  0  0  0  0  0  0
    2.3891    1.6640   -1.1482 C   0  0  0  0  0  0  0  0  0  0  0  0
   -2.2512    0.3647   -0.6628 Cl  0  0  0  0  0  0  0  0  0  0  0  0
    6.0169   -1.4891    0.1065 N   0  0  0  0  0  0  0  0  0  0  0  0
    1.9435   -4.1786    0.0014 N   0  0  0  0  0  0  0  0  0  0  0  0
    1.3535   -2.1149   -0.3461 N   0  0  0  0  0  0  0  0  0  0  0  0
   -5.2532    3.9528    2.1714 C   0  0  0  0  0  0  0  0  0  0  0  0
   -4.2039    3.0139    2.2073 N   0  0  0  0  0  0  0  0  0  0  0  0
   -3.0167    3.1762    1.5508 C   0  0  0  0  0  0  0  0  0  0  0  0
   -2.0497    2.2253    1.7674 N   0  0  0  0  0  0  0  0  0  0  0  0
   -0.7658    2.2811    1.3561 C   0  0  0  0  0  0  0  0  0  0  0  0
   -5.6031    4.5910    0.9686 C   0  0  0  0  0  0  0  0  0  0  0  0
   -6.5113    5.6447    0.9329 C   0  0  0  0  0  0  0  0  0  0  0  0
   -7.1180    6.0576    2.1094 C   0  0  0  0  0  0  0  0  0  0  0  0
   -6.8161    5.4233    3.3144 C   0  0  0  0  0  0  0  0  0  0  0  0
   -5.8778    4.3797    3.3483 C   0  0  0  0  0  0  0  0  0  0  0  0
   -8.2543    7.3465    2.0641 Cl  0  0  0  0  0  0  0  0  0  0  0  0
   -2.7053    4.2168    0.8267 N   0  0  0  0  0  0  0  0  0  0  0  0
   -0.3556    3.3507    0.6991 N   0  0  0  0  0  0  0  0  0  0  0  0
    0.0195    1.1103    1.4321 N   0  0  0  0  0  0  0  0  0  0  0  0
    1.1723    1.1722    0.4287 C   0  0  0  0  0  0  0  0  0  0  0  0
    1.6245   -0.3295   -1.0961 C   0  0  0  0  0  0  0  0  0  0  0  0
    0.2838   -2.0018    1.2756 C   0  0  0  0  0  0  0  0  0  0  0  0
    0.0383   -0.3140    2.1925 C   0  0  0  0  0  0  0  0  0  0  0  0
    4.9995    0.7504   -0.0139 H   0  0  0  0  0  0  0  0  0  0  0  0
    4.4589   -3.3628    0.0654 H   0  0  0  0  0  0  0  0  0  0  0  0
    2.5423   -1.3297    0.9645 H   0  0  0  0  0  0  0  0  0  0  0  0
   -0.3819   -1.4956   -0.5789 H   0  0  0  0  0  0  0  0  0  0  0  0
   -0.0434    2.4865   -1.2192 H   0  0  0  0  0  0  0  0  0  0  0  0
    2.7628    2.6320   -0.6987 H   0  0  0  0  0  0  0  0  0  0  0  0
    6.4050   -0.5293    0.1250 H   0  0  0  0  0  0  0  0  0  0  0  0
    2.5795   -4.9470    0.1222 H   0  0  0  0  0  0  0  0  0  0  0  0
   -4.3487    2.2055    2.7945 H   0  0  0  0  0  0  0  0  0  0  0  0
   -2.2851    1.3151    2.1039 H   0  0  0  0  0  0  0  0  0  0  0  0
   -5.1373    4.2799    0.0331 H   0  0  0  0  0  0  0  0  0  0  0  0
   -6.7349    6.1259   -0.0145 H   0  0  0  0  0  0  0  0  0  0  0  0
   -7.3045    5.7452    4.2305 H   0  0  0  0  0  0  0  0  0  0  0  0
   -5.6195    3.9373    4.3074 H   0  0  0  0  0  0  0  0  0  0  0  0
   -3.4199    4.9369    0.8634 H   0  0  0  0  0  0  0  0  0  0  0  0
   -1.1846    3.9565    0.4710 H   0  0  0  0  0  0  0  0  0  0  0  0
    1.9419    1.3554    1.3235 H   0  0  0  0  0  0  0  0  0  0  0  0
    1.2714    2.2780    0.2884 H   0  0  0  0  0  0  0  0  0  0  0  0
    2.6343   -0.4529   -1.6279 H   0  0  0  0  0  0  0  0  0  0  0  0
    1.0685   -0.3706   -2.0890 H   0  0  0  0  0  0  0  0  0  0  0  0
   -0.8048   -2.0526    0.9899 H   0  0  0  0  0  0  0  0  0  0  0  0
    0.3624   -2.8858    1.8923 H   0  0  0  0  0  0  0  0  0  0  0  0
    0.8926   -0.2356    2.8747 H   0  0  0  0  0  0  0  0  0  0  0  0
   -0.9542   -0.3396    2.6103 H   0  0  0  0  0  0  0  0  0  0  0  0
  1  6  2  0  0  0  0
  1  2  1  0  0  0  0
  2  3  1  0  0  0  0
  2 33  1  0  0  0  0
  3 12  2  0  0  0  0
  3  4  1  0  0  0  0
  4  5  1  0  0  0  0
  4 34  1  0  0  0  0
  5 13  2  0  0  0  0
  5 14  1  0  0  0  0
  6  7  1  0  0  0  0
  6 35  1  0  0  0  0
  7  8  2  0  0  0  0
  7 36  1  0  0  0  0
  8  9  1  0  0  0  0
  8 11  1  0  0  0  0
  9 10  2  0  0  0  0
  9 37  1  0  0  0  0
 10  1  1  0  0  0  0
 10 38  1  0  0  0  0
 12 39  1  0  0  0  0
 13 40  1  0  0  0  0
 14 31  1  0  0  0  0
 15 20  2  0  0  0  0
 15 16  1  0  0  0  0
 16 17  1  0  0  0  0
 16 41  1  0  0  0  0
 17 18  1  0  0  0  0
 17 26  2  0  0  0  0
 18 19  1  0  0  0  0
 18 42  1  0  0  0  0
 19 27  2  0  0  0  0
 19 28  1  0  0  0  0
 20 21  1  0  0  0  0
 20 43  1  0  0  0  0
 21 22  2  0  0  0  0
 21 44  1  0  0  0  0
 22 23  1  0  0  0  0
 22 25  1  0  0  0  0
 23 24  2  0  0  0  0
 23 45  1  0  0  0  0
 24 15  1  0  0  0  0
 24 46  1  0  0  0  0
 26 47  1  0  0  0  0
 27 48  1  0  0  0  0
 28 29  1  0  0  0  0
 28 32  1  0  0  0  0
 29 30  1  0  0  0  0
 29 49  1  0  0  0  0
 29 50  1  0  0  0  0
 30 14  1  0  0  0  0
 30 51  1  0  0  0  0
 30 52  1  0  0  0  0
 31 32  1  0  0  0  0
 31 53  1  0  0  0  0
 31 54  1  0  0  0  0
 32 55  1  0  0  0  0
 32 56  1  0  0  0  0
M  END
>  <DRUGBANK_ID>
DB13607

>  <COMMON_NAME>
Picloxydine

>  <CAS_NUMBER>
5636-92-0

>  <UNII>
4YC2PY3AEU

>  <SYNONYMS>
Picloxidina; Picloxydine; Picloxydinum

$$$$
