1IG
 OpenBabel10282417163D

 55 57  0  0  0  0  0  0  0  0999 V2000
    0.8601   -0.0393   -0.1200 C   0  0  0  0  0  0  0  0  0  0  0  0
   -0.1757    0.7866   -0.0247 N   0  0  0  0  0  0  0  0  0  0  0  0
   -1.3358    0.1850    0.0333 C   0  0  0  0  0  0  0  0  0  0  0  0
   -1.4654   -1.1453    0.0162 N   0  0  0  0  0  0  0  0  0  0  0  0
   -0.3173   -1.9019    0.0699 C   0  0  0  0  0  0  0  0  0  0  0  0
    0.9373   -1.3802    0.1106 C   0  0  0  0  0  0  0  0  0  0  0  0
    1.9205    0.5195   -0.7986 N   0  0  0  0  0  0  0  0  0  0  0  0
   -2.4118    1.0173    0.0262 N   0  0  0  0  0  0  0  0  0  0  0  0
   -0.4460   -3.3895    0.0598 C   0  0  0  0  0  0  0  0  0  0  0  0
   -1.1548   -3.7630    1.3263 C   0  0  0  0  0  0  0  0  0  0  0  0
    2.5896   -2.9352   -0.9292 C   0  0  0  0  0  0  0  0  0  0  0  0
    3.7203   -3.7280   -0.8558 C   0  0  0  0  0  0  0  0  0  0  0  0
    4.5590   -3.6605    0.2540 C   0  0  0  0  0  0  0  0  0  0  0  0
    4.3116   -2.7497    1.2982 C   0  0  0  0  0  0  0  0  0  0  0  0
    3.1106   -2.0164    1.2418 C   0  0  0  0  0  0  0  0  0  0  0  0
    2.2212   -2.1190    0.1448 C   0  0  0  0  0  0  0  0  0  0  0  0
    5.9280   -4.7703    0.1622 S   0  0  0  0  0  0  0  0  0  0  0  0
    7.0288   -3.9352    1.3226 C   0  0  0  0  0  0  0  0  0  0  0  0
    6.2434   -3.5666    2.5918 C   0  0  0  0  0  0  0  0  0  0  0  0
    5.2374   -2.6022    2.3910 N   0  0  0  0  0  0  0  0  0  0  0  0
    5.2319   -1.4174    3.2743 C   0  0  0  0  0  0  0  0  0  0  0  0
    5.6659   -0.1024    2.5797 C   0  0  0  0  0  0  0  0  0  0  0  0
    4.7940    0.3897    1.5367 N   0  0  0  0  0  0  0  0  0  0  0  0
    4.2404    1.6442    1.6434 C   0  0  0  0  0  0  0  0  0  0  0  0
    3.5382    2.1263    0.4401 C   0  0  0  0  0  0  0  0  0  0  0  0
    7.6151   -2.6546    0.7065 C   0  0  0  0  0  0  0  0  0  0  0  0
    8.1434   -4.9536    1.5477 C   0  0  0  0  0  0  0  0  0  0  0  0
    6.5360   -3.9938    3.7083 O   0  0  0  0  0  0  0  0  0  0  0  0
    4.2094    2.2992    2.6924 O   0  0  0  0  0  0  0  0  0  0  0  0
    1.6512    1.5031   -0.8002 H   0  0  0  0  0  0  0  0  0  0  0  0
    2.6841    0.2340   -0.1993 H   0  0  0  0  0  0  0  0  0  0  0  0
   -2.2169    2.0068    0.0499 H   0  0  0  0  0  0  0  0  0  0  0  0
   -3.3327    0.6283    0.0147 H   0  0  0  0  0  0  0  0  0  0  0  0
   -0.9313   -3.7034   -0.8675 H   0  0  0  0  0  0  0  0  0  0  0  0
    0.5220   -3.8981    0.0810 H   0  0  0  0  0  0  0  0  0  0  0  0
   -2.1511   -3.3168    1.3447 H   0  0  0  0  0  0  0  0  0  0  0  0
   -1.2231   -4.8461    1.3937 H   0  0  0  0  0  0  0  0  0  0  0  0
   -0.5961   -3.3853    2.1936 H   0  0  0  0  0  0  0  0  0  0  0  0
    1.9635   -3.0115   -1.8145 H   0  0  0  0  0  0  0  0  0  0  0  0
    3.9450   -4.4155   -1.6695 H   0  0  0  0  0  0  0  0  0  0  0  0
    2.8432   -1.3516    2.0620 H   0  0  0  0  0  0  0  0  0  0  0  0
    4.2617   -1.3131    3.7669 H   0  0  0  0  0  0  0  0  0  0  0  0
    5.9755   -1.5707    4.0703 H   0  0  0  0  0  0  0  0  0  0  0  0
    5.7581    0.6837    3.3348 H   0  0  0  0  0  0  0  0  0  0  0  0
    6.6467   -0.2060    2.1077 H   0  0  0  0  0  0  0  0  0  0  0  0
    4.7208   -0.1579    0.6831 H   0  0  0  0  0  0  0  0  0  0  0  0
    2.4911    2.0535    0.7620 H   0  0  0  0  0  0  0  0  0  0  0  0
    3.6764    3.1407    0.0884 H   0  0  0  0  0  0  0  0  0  0  0  0
    3.8571    1.5056   -0.4071 H   0  0  0  0  0  0  0  0  0  0  0  0
    8.3369   -2.2011    1.3965 H   0  0  0  0  0  0  0  0  0  0  0  0
    8.1220   -2.8470   -0.2430 H   0  0  0  0  0  0  0  0  0  0  0  0
    6.8580   -1.8875    0.5107 H   0  0  0  0  0  0  0  0  0  0  0  0
    7.7598   -5.8967    1.9564 H   0  0  0  0  0  0  0  0  0  0  0  0
    8.6561   -5.1827    0.6022 H   0  0  0  0  0  0  0  0  0  0  0  0
    8.8973   -4.5760    2.2429 H   0  0  0  0  0  0  0  0  0  0  0  0
  1  2  1  0  0  0  0
  1  6  2  0  0  0  0
  1  7  1  0  0  0  0
  2  3  2  0  0  0  0
  3  4  1  0  0  0  0
  3  8  1  0  0  0  0
  4  5  2  0  0  0  0
  5  6  1  0  0  0  0
  5  9  1  0  0  0  0
  6 16  1  0  0  0  0
  7 30  1  0  0  0  0
  7 31  1  0  0  0  0
  8 32  1  0  0  0  0
  8 33  1  0  0  0  0
  9 10  1  0  0  0  0
  9 34  1  0  0  0  0
  9 35  1  0  0  0  0
 10 36  1  0  0  0  0
 10 37  1  0  0  0  0
 10 38  1  0  0  0  0
 11 12  1  0  0  0  0
 11 16  2  0  0  0  0
 11 39  1  0  0  0  0
 12 13  2  0  0  0  0
 12 40  1  0  0  0  0
 13 14  1  0  0  0  0
 13 17  1  0  0  0  0
 14 15  2  0  0  0  0
 14 20  1  0  0  0  0
 15 16  1  0  0  0  0
 15 41  1  0  0  0  0
 17 18  1  0  0  0  0
 18 19  1  0  0  0  0
 18 26  1  0  0  0  0
 18 27  1  0  0  0  0
 19 20  1  0  0  0  0
 19 28  2  0  0  0  0
 20 21  1  0  0  0  0
 21 22  1  0  0  0  0
 21 42  1  0  0  0  0
 21 43  1  0  0  0  0
 22 23  1  0  0  0  0
 22 44  1  0  0  0  0
 22 45  1  0  0  0  0
 23 24  1  0  0  0  0
 23 46  1  0  0  0  0
 24 25  1  0  0  0  0
 24 29  2  0  0  0  0
 25 47  1  0  0  0  0
 25 48  1  0  0  0  0
 25 49  1  0  0  0  0
 26 50  1  0  0  0  0
 26 51  1  0  0  0  0
 26 52  1  0  0  0  0
 27 53  1  0  0  0  0
 27 54  1  0  0  0  0
 27 55  1  0  0  0  0
M  END
>  <DRUGBANK_ID>
DB06899

>  <COMMON_NAME>
N-{2-[6-(2,4-DIAMINO-6-ETHYLPYRIMIDIN-5-YL)-2,2-DIMETHYL-3-OXO-2,3-DIHYDRO-4H-1,4-BENZOTHIAZIN-4-YL]ETHYL}ACETAMIDE

$$$$
