
 OpenBabel10282417223D

 28 28  0  0  0  0  0  0  0  0999 V2000
    2.3507    0.0364    0.0926 O   0  0  0  0  0  0  0  0  0  0  0  0
    3.0330   -1.2080   -0.0068 C   0  0  0  0  0  0  0  0  0  0  0  0
   -1.1330   -1.2124   -0.2473 C   0  0  0  0  0  0  0  0  0  0  0  0
    0.2436   -1.2429   -0.0136 C   0  0  0  0  0  0  0  0  0  0  0  0
   -1.7060    0.0052   -0.6050 C   0  0  0  0  0  0  0  0  0  0  0  0
   -2.0251   -2.4152   -0.0575 C   0  0  0  0  0  0  0  0  0  0  0  0
    0.9867   -0.0504   -0.0046 C   0  0  0  0  0  0  0  0  0  0  0  0
   -1.0322    1.2023   -0.3655 C   0  0  0  0  0  0  0  0  0  0  0  0
   -2.8903   -2.3774    1.2156 C   0  0  0  0  0  0  0  0  0  0  0  0
    0.3158    1.1703   -0.0845 C   0  0  0  0  0  0  0  0  0  0  0  0
   -3.9632   -1.2872    1.3048 C   0  0  0  0  0  0  0  0  0  0  0  0
    0.9561    2.3666    0.0672 O   0  0  0  0  0  0  0  0  0  0  0  0
   -5.1364   -1.5622    1.0878 O   0  0  0  0  0  0  0  0  0  0  0  0
   -3.5913    0.1211    1.7345 C   0  0  0  0  0  0  0  0  0  0  0  0
    2.8230   -1.8185    0.8767 H   0  0  0  0  0  0  0  0  0  0  0  0
    2.7700   -1.7428   -0.9280 H   0  0  0  0  0  0  0  0  0  0  0  0
    4.1056   -1.0052   -0.0330 H   0  0  0  0  0  0  0  0  0  0  0  0
    0.7167   -2.2059    0.1480 H   0  0  0  0  0  0  0  0  0  0  0  0
   -2.7543    0.0381   -0.8980 H   0  0  0  0  0  0  0  0  0  0  0  0
   -2.6640   -2.5231   -0.9412 H   0  0  0  0  0  0  0  0  0  0  0  0
   -1.4058   -3.3228   -0.0194 H   0  0  0  0  0  0  0  0  0  0  0  0
   -1.5724    2.1450   -0.3531 H   0  0  0  0  0  0  0  0  0  0  0  0
   -3.4443   -3.3295    1.2512 H   0  0  0  0  0  0  0  0  0  0  0  0
   -2.2864   -2.3602    2.1288 H   0  0  0  0  0  0  0  0  0  0  0  0
    1.9072    2.1557    0.0936 H   0  0  0  0  0  0  0  0  0  0  0  0
   -3.0474    0.1290    2.6761 H   0  0  0  0  0  0  0  0  0  0  0  0
   -2.9968    0.6626    1.0266 H   0  0  0  0  0  0  0  0  0  0  0  0
   -4.4942    0.7343    1.7744 H   0  0  0  0  0  0  0  0  0  0  0  0
  1  2  1  0  0  0  0
  2 15  1  0  0  0  0
  2 16  1  0  0  0  0
  2 17  1  0  0  0  0
  3  6  1  0  0  0  0
  3  4  1  0  0  0  0
  3  5  2  0  0  0  0
  4  7  2  0  0  0  0
  4 18  1  0  0  0  0
  5  8  1  0  0  0  0
  5 19  1  0  0  0  0
  6  9  1  0  0  0  0
  6 20  1  0  0  0  0
  6 21  1  0  0  0  0
  7 10  1  0  0  0  0
  7  1  1  0  0  0  0
  8 10  2  0  0  0  0
  8 22  1  0  0  0  0
  9 11  1  0  0  0  0
  9 23  1  0  0  0  0
  9 24  1  0  0  0  0
 10 12  1  0  0  0  0
 11 13  2  0  0  0  0
 11 14  1  0  0  0  0
 12 25  1  0  0  0  0
 14 26  1  0  0  0  0
 14 27  1  0  0  0  0
 14 28  1  0  0  0  0
M  END
>  <DRUGBANK_ID>
DB15589

>  <COMMON_NAME>
Zingerone

>  <CAS_NUMBER>
122-48-5

>  <UNII>
4MMW850892

>  <SYNONYMS>
Gingerone; Vanillyl acetone; Vanillylacetone; Zingerone; Zingherone; Zingiberone

$$$$
