1501
 OpenBabel10282417113D

 60 63  0  0  0  0  0  0  0  0999 V2000
    0.7766    0.4782    0.4615 O   0  0  0  0  0  0  0  0  0  0  0  0
    0.8307    2.2635   -0.8536 O   0  0  0  0  0  0  0  0  0  0  0  0
   -2.6014    1.4351   -3.4381 N   0  0  0  0  0  0  0  0  0  0  0  0
   -0.2327   -0.1584   -1.6828 N   0  0  0  0  0  0  0  0  0  0  0  0
   -1.5901    1.2726   -0.4499 C   0  0  0  0  0  0  0  0  0  0  0  0
   -2.5022    0.0662   -1.1215 C   0  0  0  0  0  0  0  0  0  0  0  0
   -2.0174    2.5180   -1.2628 C   0  0  0  0  0  0  0  0  0  0  0  0
   -2.7113    0.1647   -2.6816 C   0  0  0  0  0  0  0  0  0  0  0  0
   -1.7585    2.4289   -2.7542 C   0  0  0  0  0  0  0  0  0  0  0  0
   -2.0226    1.2199   -4.8099 C   0  0  0  0  0  0  0  0  0  0  0  0
   -2.0132    1.2179    0.9874 C   0  0  0  0  0  0  0  0  0  0  0  0
   -0.4533    1.0327   -5.0511 C   0  0  0  0  0  0  0  0  0  0  0  0
    0.1456    1.4761   -0.2682 C   0  0  0  0  0  0  0  0  0  0  0  0
    0.3087   -0.2039   -4.4102 C   0  0  0  0  0  0  0  0  0  0  0  0
   -1.6251    0.1302    1.7958 C   0  0  0  0  0  0  0  0  0  0  0  0
   -2.7242    2.2820    1.5074 C   0  0  0  0  0  0  0  0  0  0  0  0
   -0.3170   -1.5402   -4.9884 C   0  0  0  0  0  0  0  0  0  0  0  0
    1.8592   -0.1485   -4.6597 C   0  0  0  0  0  0  0  0  0  0  0  0
   -1.9152    0.1526    3.1424 C   0  0  0  0  0  0  0  0  0  0  0  0
   -2.9862    2.3150    2.8519 C   0  0  0  0  0  0  0  0  0  0  0  0
    0.0128   -0.1790   -2.9195 C   0  0  0  0  0  0  0  0  0  0  0  0
   -2.6001    1.2483    3.6622 C   0  0  0  0  0  0  0  0  0  0  0  0
    0.1424   -2.7844   -4.5178 C   0  0  0  0  0  0  0  0  0  0  0  0
    2.5566    1.0662   -4.6433 C   0  0  0  0  0  0  0  0  0  0  0  0
   -1.3411   -1.6012   -5.9503 C   0  0  0  0  0  0  0  0  0  0  0  0
    2.6684   -1.3004   -4.8229 C   0  0  0  0  0  0  0  0  0  0  0  0
   -0.2266   -3.9805   -5.1273 C   0  0  0  0  0  0  0  0  0  0  0  0
    3.9559    1.1043   -4.7316 C   0  0  0  0  0  0  0  0  0  0  0  0
   -1.9371   -2.8101   -6.3113 C   0  0  0  0  0  0  0  0  0  0  0  0
    4.0583   -1.2810   -4.7613 C   0  0  0  0  0  0  0  0  0  0  0  0
   -1.3143   -4.0005   -5.9817 C   0  0  0  0  0  0  0  0  0  0  0  0
    4.7068   -0.0669   -4.7533 C   0  0  0  0  0  0  0  0  0  0  0  0
    1.6495    0.3667    0.0225 H   0  0  0  0  0  0  0  0  0  0  0  0
   -2.0789   -0.9339   -0.8736 H   0  0  0  0  0  0  0  0  0  0  0  0
   -3.4964    0.0050   -0.6667 H   0  0  0  0  0  0  0  0  0  0  0  0
   -3.0929    2.6693   -1.1580 H   0  0  0  0  0  0  0  0  0  0  0  0
   -1.4882    3.3979   -0.8892 H   0  0  0  0  0  0  0  0  0  0  0  0
   -1.7935   -0.1141   -3.0221 H   0  0  0  0  0  0  0  0  0  0  0  0
   -3.0682   -0.7734   -3.1566 H   0  0  0  0  0  0  0  0  0  0  0  0
   -1.9648    3.3962   -3.2216 H   0  0  0  0  0  0  0  0  0  0  0  0
   -0.6871    2.2693   -2.8950 H   0  0  0  0  0  0  0  0  0  0  0  0
   -2.6019    0.4096   -5.2479 H   0  0  0  0  0  0  0  0  0  0  0  0
   -2.3021    2.0895   -5.4184 H   0  0  0  0  0  0  0  0  0  0  0  0
   -0.2658    1.0180   -6.1369 H   0  0  0  0  0  0  0  0  0  0  0  0
    0.0195    1.9684   -4.7366 H   0  0  0  0  0  0  0  0  0  0  0  0
   -1.0520   -0.7055    1.3847 H   0  0  0  0  0  0  0  0  0  0  0  0
   -3.0556    3.0967    0.8753 H   0  0  0  0  0  0  0  0  0  0  0  0
   -1.5871   -0.6647    3.7757 H   0  0  0  0  0  0  0  0  0  0  0  0
   -3.4802    3.1916    3.2470 H   0  0  0  0  0  0  0  0  0  0  0  0
   -2.8415    1.2784    4.7149 H   0  0  0  0  0  0  0  0  0  0  0  0
    0.8917   -2.8368   -3.7294 H   0  0  0  0  0  0  0  0  0  0  0  0
    2.0451    2.0201   -4.5672 H   0  0  0  0  0  0  0  0  0  0  0  0
   -1.7399   -0.7323   -6.4589 H   0  0  0  0  0  0  0  0  0  0  0  0
    2.2825   -2.2864   -5.0381 H   0  0  0  0  0  0  0  0  0  0  0  0
    0.3238   -4.8896   -4.9059 H   0  0  0  0  0  0  0  0  0  0  0  0
    4.4620    2.0643   -4.7578 H   0  0  0  0  0  0  0  0  0  0  0  0
   -2.8628   -2.8103   -6.8811 H   0  0  0  0  0  0  0  0  0  0  0  0
    4.6074   -2.2202   -4.7476 H   0  0  0  0  0  0  0  0  0  0  0  0
   -1.6779   -4.9380   -6.3867 H   0  0  0  0  0  0  0  0  0  0  0  0
    5.7900   -0.0389   -4.7946 H   0  0  0  0  0  0  0  0  0  0  0  0
  1 13  1  0  0  0  0
  1 33  1  0  0  0  0
  2 13  2  0  0  0  0
  3  8  1  0  0  0  0
  3  9  1  0  0  0  0
  3 10  1  0  0  0  0
  4 21  3  0  0  0  0
  5  6  1  0  0  0  0
  5  7  1  0  0  0  0
  5 11  1  0  0  0  0
  5 13  1  0  0  0  0
  6  8  1  0  0  0  0
  6 34  1  0  0  0  0
  6 35  1  0  0  0  0
  7  9  1  0  0  0  0
  7 36  1  0  0  0  0
  7 37  1  0  0  0  0
  8 38  1  0  0  0  0
  8 39  1  0  0  0  0
  9 40  1  0  0  0  0
  9 41  1  0  0  0  0
 10 12  1  0  0  0  0
 10 42  1  0  0  0  0
 10 43  1  0  0  0  0
 11 15  2  0  0  0  0
 11 16  1  0  0  0  0
 12 14  1  0  0  0  0
 12 44  1  0  0  0  0
 12 45  1  0  0  0  0
 14 17  1  0  0  0  0
 14 18  1  0  0  0  0
 14 21  1  0  0  0  0
 15 19  1  0  0  0  0
 15 46  1  0  0  0  0
 16 20  2  0  0  0  0
 16 47  1  0  0  0  0
 17 23  2  0  0  0  0
 17 25  1  0  0  0  0
 18 24  2  0  0  0  0
 18 26  1  0  0  0  0
 19 22  2  0  0  0  0
 19 48  1  0  0  0  0
 20 22  1  0  0  0  0
 20 49  1  0  0  0  0
 22 50  1  0  0  0  0
 23 27  1  0  0  0  0
 23 51  1  0  0  0  0
 24 28  1  0  0  0  0
 24 52  1  0  0  0  0
 25 29  2  0  0  0  0
 25 53  1  0  0  0  0
 26 30  2  0  0  0  0
 26 54  1  0  0  0  0
 27 31  2  0  0  0  0
 27 55  1  0  0  0  0
 28 32  2  0  0  0  0
 28 56  1  0  0  0  0
 29 31  1  0  0  0  0
 29 57  1  0  0  0  0
 30 32  1  0  0  0  0
 30 58  1  0  0  0  0
 31 59  1  0  0  0  0
 32 60  1  0  0  0  0
M  END
>  <DRUGBANK_ID>
DB01501

>  <COMMON_NAME>
Difenoxin

>  <CAS_NUMBER>
28782-42-5

>  <UNII>
3ZZ5BJ9F2Q

>  <SYNONYMS>
1-(3-cyano-3,3-diphenylpropyl)-4-phenylisonipecotic acid; Difenoxin; Difenoxina; Difenoxinum; Diphenoxilic acid; Diphenoxylic acid

$$$$
