
 OpenBabel10282417103D

 50 50  0  0  0  0  0  0  0  0999 V2000
    1.0880    0.0323   -0.0125 C   0  0  0  0  0  0  0  0  0  0  0  0
    0.5246    0.8388   -0.9216 C   0  0  0  0  0  0  0  0  0  0  0  0
    1.1440    1.5698   -2.0227 C   0  0  0  0  0  0  0  0  0  0  0  0
    0.4223    2.2337   -2.9621 C   0  0  0  0  0  0  0  0  0  0  0  0
   -1.0347    2.2865   -3.0504 C   0  0  0  0  0  0  0  0  0  0  0  0
   -1.7928    2.9535   -3.9444 C   0  0  0  0  0  0  0  0  0  0  0  0
   -3.2815    2.9436   -3.9358 C   0  0  0  0  0  0  0  0  0  0  0  0
   -4.0004    3.6347   -4.8556 C   0  0  0  0  0  0  0  0  0  0  0  0
   -5.4943    3.6798   -4.9145 C   0  0  0  0  0  0  0  0  0  0  0  0
   -5.9817    4.4338   -5.9191 O   0  0  0  0  0  0  0  0  0  0  0  0
   -6.2602    3.1094   -4.1543 O   0  0  0  0  0  0  0  0  0  0  0  0
   -3.9189    2.1178   -2.8332 C   0  0  0  0  0  0  0  0  0  0  0  0
    2.6537    1.5536   -2.0642 C   0  0  0  0  0  0  0  0  0  0  0  0
    0.3430   -0.7453    0.9879 C   0  0  0  0  0  0  0  0  0  0  0  0
   -0.7621   -1.7225    0.4937 C   0  0  0  0  0  0  0  0  0  0  0  0
   -1.8511   -1.0632   -0.3828 C   0  0  0  0  0  0  0  0  0  0  0  0
   -0.1047   -2.8463   -0.3335 C   0  0  0  0  0  0  0  0  0  0  0  0
   -1.5405   -2.3467    1.6852 C   0  0  0  0  0  0  0  0  0  0  0  0
   -0.6193   -2.8000    2.8005 C   0  0  0  0  0  0  0  0  0  0  0  0
    0.1336   -1.6000    3.3556 C   0  0  0  0  0  0  0  0  0  0  0  0
    0.6987   -0.6764    2.2954 C   0  0  0  0  0  0  0  0  0  0  0  0
    1.6681    0.3286    2.8683 C   0  0  0  0  0  0  0  0  0  0  0  0
    2.1683   -0.0911    0.0212 H   0  0  0  0  0  0  0  0  0  0  0  0
   -0.5392    0.9819   -0.8248 H   0  0  0  0  0  0  0  0  0  0  0  0
    0.9575    2.7742   -3.7411 H   0  0  0  0  0  0  0  0  0  0  0  0
   -1.5548    1.7047   -2.3017 H   0  0  0  0  0  0  0  0  0  0  0  0
   -1.2947    3.5371   -4.7159 H   0  0  0  0  0  0  0  0  0  0  0  0
   -3.4835    4.2078   -5.6179 H   0  0  0  0  0  0  0  0  0  0  0  0
   -5.3514    4.8765   -6.5089 H   0  0  0  0  0  0  0  0  0  0  0  0
   -3.6242    1.0670   -2.9259 H   0  0  0  0  0  0  0  0  0  0  0  0
   -3.6235    2.5018   -1.8507 H   0  0  0  0  0  0  0  0  0  0  0  0
   -5.0028    2.1046   -2.8147 H   0  0  0  0  0  0  0  0  0  0  0  0
    3.0645    1.9554   -1.1306 H   0  0  0  0  0  0  0  0  0  0  0  0
    3.0316    0.5320   -2.1950 H   0  0  0  0  0  0  0  0  0  0  0  0
    3.0559    2.1567   -2.8837 H   0  0  0  0  0  0  0  0  0  0  0  0
   -1.4655   -0.7513   -1.3567 H   0  0  0  0  0  0  0  0  0  0  0  0
   -2.6606   -1.7637   -0.6136 H   0  0  0  0  0  0  0  0  0  0  0  0
   -2.2936   -0.1971    0.1250 H   0  0  0  0  0  0  0  0  0  0  0  0
   -0.8561   -3.5625   -0.6849 H   0  0  0  0  0  0  0  0  0  0  0  0
    0.4024   -2.4477   -1.2195 H   0  0  0  0  0  0  0  0  0  0  0  0
    0.6395   -3.4005    0.2475 H   0  0  0  0  0  0  0  0  0  0  0  0
   -2.2434   -1.6087    2.0987 H   0  0  0  0  0  0  0  0  0  0  0  0
   -2.1500   -3.1924    1.3434 H   0  0  0  0  0  0  0  0  0  0  0  0
   -1.2005   -3.2745    3.5993 H   0  0  0  0  0  0  0  0  0  0  0  0
    0.0854   -3.5562    2.4362 H   0  0  0  0  0  0  0  0  0  0  0  0
    0.9465   -1.9777    3.9883 H   0  0  0  0  0  0  0  0  0  0  0  0
   -0.5345   -1.0191    4.0033 H   0  0  0  0  0  0  0  0  0  0  0  0
    1.1492    0.9471    3.6094 H   0  0  0  0  0  0  0  0  0  0  0  0
    2.5001   -0.1813    3.3634 H   0  0  0  0  0  0  0  0  0  0  0  0
    2.0887    1.0098    2.1252 H   0  0  0  0  0  0  0  0  0  0  0  0
  1  2  2  0  0  0  0
  1 14  1  0  0  0  0
  1 23  1  0  0  0  0
  2  3  1  0  0  0  0
  2 24  1  0  0  0  0
  3  4  2  0  0  0  0
  3 13  1  0  0  0  0
  4  5  1  0  0  0  0
  4 25  1  0  0  0  0
  5  6  2  0  0  0  0
  5 26  1  0  0  0  0
  6  7  1  0  0  0  0
  6 27  1  0  0  0  0
  7  8  2  0  0  0  0
  7 12  1  0  0  0  0
  8  9  1  0  0  0  0
  8 28  1  0  0  0  0
  9 10  1  0  0  0  0
  9 11  2  0  0  0  0
 10 29  1  0  0  0  0
 12 30  1  0  0  0  0
 12 31  1  0  0  0  0
 12 32  1  0  0  0  0
 13 33  1  0  0  0  0
 13 34  1  0  0  0  0
 13 35  1  0  0  0  0
 14 15  1  0  0  0  0
 14 21  2  0  0  0  0
 15 16  1  0  0  0  0
 15 17  1  0  0  0  0
 15 18  1  0  0  0  0
 16 36  1  0  0  0  0
 16 37  1  0  0  0  0
 16 38  1  0  0  0  0
 17 39  1  0  0  0  0
 17 40  1  0  0  0  0
 17 41  1  0  0  0  0
 18 19  1  0  0  0  0
 18 42  1  0  0  0  0
 18 43  1  0  0  0  0
 19 20  1  0  0  0  0
 19 44  1  0  0  0  0
 19 45  1  0  0  0  0
 20 21  1  0  0  0  0
 20 46  1  0  0  0  0
 20 47  1  0  0  0  0
 21 22  1  0  0  0  0
 22 48  1  0  0  0  0
 22 49  1  0  0  0  0
 22 50  1  0  0  0  0
M  END
>  <DRUGBANK_ID>
DB00523

>  <SECONDARY_ACCESSION_NUMBERS>
APRD00017

>  <COMMON_NAME>
Alitretinoin

>  <CAS_NUMBER>
5300-03-8

>  <UNII>
1UA8E65KDZ

>  <SYNONYMS>
(2E,4E,6Z,8E)-3,7-dimethyl-9-(2,6,6-trimethyl-1-cyclohexen-1-yl)-2,4,6,8-nonatetraenoic acid; (7E,9Z,11E,13E)-retinoic acid; 9-cis-retinoic acid; 9-cis-Tretinoin; 9(Z)-Retinoic acid; Alitretinoin; Alitretinoína; Alitrétinoïne; Alitretinoinum

$$$$
