1548992
 OpenBabel10282417173D

 31 31  0  0  0  0  0  0  0  0999 V2000
    0.8778    0.0817   -0.3381 S   0  0  0  0  0  0  0  0  0  0  0  0
    3.3978   -3.2999   -3.4279 S   0  0  0  0  0  0  0  0  0  0  0  0
    1.6220    2.8478    3.4129 N   0  0  0  0  0  0  0  0  0  0  0  0
    3.0372   -2.1364   -1.1591 N   0  0  0  0  0  0  0  0  0  0  0  0
    0.8324    3.7255    1.5518 N   0  0  0  0  0  0  0  0  0  0  0  0
    5.2723   -2.4332   -1.8803 N   0  0  0  0  0  0  0  0  0  0  0  0
    0.9482    2.3525    1.3816 C   0  0  0  0  0  0  0  0  0  0  0  0
    0.4972    1.7969    0.0644 C   0  0  0  0  0  0  0  0  0  0  0  0
    2.6946    0.0713   -0.1323 C   0  0  0  0  0  0  0  0  0  0  0  0
    1.4427    1.7884    2.5498 C   0  0  0  0  0  0  0  0  0  0  0  0
    3.1079   -1.3831    0.0743 C   0  0  0  0  0  0  0  0  0  0  0  0
    1.7796    0.4130    2.9906 C   0  0  0  0  0  0  0  0  0  0  0  0
    1.2193    3.9806    2.7705 C   0  0  0  0  0  0  0  0  0  0  0  0
    3.9507   -2.5554   -2.0345 C   0  0  0  0  0  0  0  0  0  0  0  0
    6.1584   -1.8765   -0.8798 C   0  0  0  0  0  0  0  0  0  0  0  0
    1.9639    2.7943    4.3559 H   0  0  0  0  0  0  0  0  0  0  0  0
    2.0867   -2.2710   -1.4942 H   0  0  0  0  0  0  0  0  0  0  0  0
    5.7620   -2.8576   -2.6600 H   0  0  0  0  0  0  0  0  0  0  0  0
    0.8725    2.4200   -0.7540 H   0  0  0  0  0  0  0  0  0  0  0  0
   -0.5960    1.8695    0.0407 H   0  0  0  0  0  0  0  0  0  0  0  0
    3.1737    0.5196   -1.0071 H   0  0  0  0  0  0  0  0  0  0  0  0
    3.0247    0.6413    0.7374 H   0  0  0  0  0  0  0  0  0  0  0  0
    4.0838   -1.4106    0.5239 H   0  0  0  0  0  0  0  0  0  0  0  0
    2.4823   -1.9092    0.8039 H   0  0  0  0  0  0  0  0  0  0  0  0
    2.8524    0.3379    3.2035 H   0  0  0  0  0  0  0  0  0  0  0  0
    1.2186    0.1363    3.8844 H   0  0  0  0  0  0  0  0  0  0  0  0
    1.5439   -0.3417    2.2451 H   0  0  0  0  0  0  0  0  0  0  0  0
    1.2293    4.9539    3.2491 H   0  0  0  0  0  0  0  0  0  0  0  0
    6.7602   -2.6916   -0.4728 H   0  0  0  0  0  0  0  0  0  0  0  0
    6.7990   -1.1450   -1.3743 H   0  0  0  0  0  0  0  0  0  0  0  0
    5.6937   -1.3605   -0.0574 H   0  0  0  0  0  0  0  0  0  0  0  0
  1  8  1  0  0  0  0
  1  9  1  0  0  0  0
  2 14  2  0  0  0  0
  3 10  1  0  0  0  0
  3 13  1  0  0  0  0
  3 16  1  0  0  0  0
  4 11  1  0  0  0  0
  4 14  1  0  0  0  0
  4 17  1  0  0  0  0
  5  7  1  0  0  0  0
  5 13  2  0  0  0  0
  6 14  1  0  0  0  0
  6 15  1  0  0  0  0
  6 18  1  0  0  0  0
  7  8  1  0  0  0  0
  7 10  2  0  0  0  0
  8 19  1  0  0  0  0
  8 20  1  0  0  0  0
  9 11  1  0  0  0  0
  9 21  1  0  0  0  0
  9 22  1  0  0  0  0
 10 12  1  0  0  0  0
 11 23  1  0  0  0  0
 11 24  1  0  0  0  0
 12 25  1  0  0  0  0
 12 26  1  0  0  0  0
 12 27  1  0  0  0  0
 13 28  1  0  0  0  0
 15 29  1  0  0  0  0
 15 30  1  0  0  0  0
 15 31  1  0  0  0  0
M  END
>  <DRUGBANK_ID>
DB08805

>  <COMMON_NAME>
Metiamide

>  <CAS_NUMBER>
34839-70-8

>  <UNII>
3K7670861M

>  <SYNONYMS>
Methiamide; Metiamida; Metiamide; Metiamidum

$$$$
