
 OpenBabel10282417213D

 76 80  0  0  0  0  0  0  0  0999 V2000
    2.5687    1.0697    0.0380 C   0  0  0  0  0  0  0  0  0  0  0  0
    1.2626    0.3456    0.2681 C   0  0  0  0  0  0  0  0  0  0  0  0
    1.3161   -1.0926    0.2208 C   0  0  0  0  0  0  0  0  0  0  0  0
    0.2126   -1.8838    0.4956 C   0  0  0  0  0  0  0  0  0  0  0  0
   -0.9413   -1.1712    0.9610 C   0  0  0  0  0  0  0  0  0  0  0  0
   -1.1023    0.2796    0.8918 C   0  0  0  0  0  0  0  0  0  0  0  0
   -2.5580    0.7708    0.9741 C   0  0  0  0  0  0  0  0  0  0  0  0
    0.0278    1.0657    0.4859 C   0  0  0  0  0  0  0  0  0  0  0  0
   -0.0618    2.5536    0.0614 C   0  0  0  0  0  0  0  0  0  0  0  0
   -0.5808    2.9815   -1.3392 C   0  0  0  0  0  0  0  0  0  0  0  0
   -2.2932    2.6963   -1.6947 S   0  0  0  0  0  0  0  0  0  0  0  0
   -3.0266    3.1598   -0.5270 O   0  0  0  0  0  0  0  0  0  0  0  0
   -2.6239    3.3051   -2.9639 O   0  0  0  0  0  0  0  0  0  0  0  0
   -2.4765    1.0047   -1.9219 N   0  0  0  0  0  0  0  0  0  0  0  0
   -1.4144    0.0128   -1.9799 C   0  0  0  0  0  0  0  0  0  0  0  0
   -2.0511   -1.3520   -1.6856 C   0  0  0  0  0  0  0  0  0  0  0  0
   -2.9149   -1.7901   -2.8500 C   0  0  0  0  0  0  0  0  0  0  0  0
   -4.0647   -0.8394   -2.6723 C   0  0  0  0  0  0  0  0  0  0  0  0
   -3.5986    0.6147   -2.8028 C   0  0  0  0  0  0  0  0  0  0  0  0
   -3.4328   -3.2125   -2.7777 N   0  0  0  0  0  0  0  0  0  0  0  0
   -2.8854   -3.8264   -3.7932 C   0  0  0  0  0  0  0  0  0  0  0  0
   -2.2014   -3.0468   -4.6571 N   0  0  0  0  0  0  0  0  0  0  0  0
   -2.1391   -1.7997   -4.1624 C   0  0  0  0  0  0  0  0  0  0  0  0
   -1.3959   -0.9280   -4.6349 O   0  0  0  0  0  0  0  0  0  0  0  0
   -2.9581   -5.2795   -4.0599 C   0  0  0  0  0  0  0  0  0  0  0  0
   -4.2547   -5.7464   -4.1167 C   0  0  0  0  0  0  0  0  0  0  0  0
   -4.5100   -7.0491   -4.5154 C   0  0  0  0  0  0  0  0  0  0  0  0
   -3.4721   -7.9349   -4.8113 C   0  0  0  0  0  0  0  0  0  0  0  0
   -3.6453   -9.2421   -5.1747 O   0  0  0  0  0  0  0  0  0  0  0  0
   -4.9904   -9.7072   -5.1948 C   0  0  0  0  0  0  0  0  0  0  0  0
   -5.5812   -9.5614   -3.9874 F   0  0  0  0  0  0  0  0  0  0  0  0
   -5.7106   -9.0459   -6.1288 F   0  0  0  0  0  0  0  0  0  0  0  0
   -5.0043  -11.0197   -5.5089 F   0  0  0  0  0  0  0  0  0  0  0  0
   -2.1528   -7.4872   -4.7168 C   0  0  0  0  0  0  0  0  0  0  0  0
   -1.8902   -6.1658   -4.3175 C   0  0  0  0  0  0  0  0  0  0  0  0
    0.1717   -3.3036    0.1247 N   0  0  0  0  0  0  0  0  0  0  0  0
    0.5183   -4.3355    1.0190 C   0  0  0  0  0  0  0  0  0  0  0  0
    0.9964   -4.2230    2.1527 O   0  0  0  0  0  0  0  0  0  0  0  0
    0.2696   -5.5370    0.4192 N   0  0  0  0  0  0  0  0  0  0  0  0
   -0.2396   -5.3135   -0.7976 C   0  0  0  0  0  0  0  0  0  0  0  0
   -0.9497   -6.0948   -1.4372 O   0  0  0  0  0  0  0  0  0  0  0  0
    0.2665   -3.9378   -1.2109 C   0  0  0  0  0  0  0  0  0  0  0  0
   -0.5612   -3.5469   -2.3530 C   0  0  0  0  0  0  0  0  0  0  0  0
    1.6140   -4.0007   -1.8981 C   0  0  0  0  0  0  0  0  0  0  0  0
    2.5667    1.6445   -0.8930 H   0  0  0  0  0  0  0  0  0  0  0  0
    2.7520    1.7325    0.8891 H   0  0  0  0  0  0  0  0  0  0  0  0
    3.4102    0.3692   -0.0060 H   0  0  0  0  0  0  0  0  0  0  0  0
    2.2448   -1.5886   -0.0476 H   0  0  0  0  0  0  0  0  0  0  0  0
   -1.8615   -1.7268    1.1547 H   0  0  0  0  0  0  0  0  0  0  0  0
   -2.7391    1.5636    1.6960 H   0  0  0  0  0  0  0  0  0  0  0  0
   -2.9738    1.1603    0.0689 H   0  0  0  0  0  0  0  0  0  0  0  0
   -3.2756   -0.0555    1.0362 H   0  0  0  0  0  0  0  0  0  0  0  0
   -0.5841    3.1049    0.8487 H   0  0  0  0  0  0  0  0  0  0  0  0
    0.9546    2.9764    0.0845 H   0  0  0  0  0  0  0  0  0  0  0  0
   -0.5094    4.0849   -1.3870 H   0  0  0  0  0  0  0  0  0  0  0  0
   -0.0107    2.6007   -2.1889 H   0  0  0  0  0  0  0  0  0  0  0  0
   -0.8177    0.0600   -2.8826 H   0  0  0  0  0  0  0  0  0  0  0  0
   -0.5908    0.1168   -1.3182 H   0  0  0  0  0  0  0  0  0  0  0  0
   -1.1992   -1.9052   -1.3984 H   0  0  0  0  0  0  0  0  0  0  0  0
   -2.6464   -1.5111   -0.7751 H   0  0  0  0  0  0  0  0  0  0  0  0
   -4.8338   -1.0705   -3.4021 H   0  0  0  0  0  0  0  0  0  0  0  0
   -4.5067   -1.0136   -1.6722 H   0  0  0  0  0  0  0  0  0  0  0  0
   -4.4450    1.2482   -2.5602 H   0  0  0  0  0  0  0  0  0  0  0  0
   -3.2384    0.7656   -3.8197 H   0  0  0  0  0  0  0  0  0  0  0  0
   -1.5904   -3.3443   -5.4014 H   0  0  0  0  0  0  0  0  0  0  0  0
   -5.0733   -5.0797   -3.8669 H   0  0  0  0  0  0  0  0  0  0  0  0
   -5.5557   -7.3190   -4.5909 H   0  0  0  0  0  0  0  0  0  0  0  0
   -1.3271   -8.1617   -4.9488 H   0  0  0  0  0  0  0  0  0  0  0  0
   -0.8464   -5.9081   -4.1557 H   0  0  0  0  0  0  0  0  0  0  0  0
    0.2111   -6.4310    0.8773 H   0  0  0  0  0  0  0  0  0  0  0  0
   -0.2519   -2.5728   -2.7468 H   0  0  0  0  0  0  0  0  0  0  0  0
   -0.4800   -4.1938   -3.2194 H   0  0  0  0  0  0  0  0  0  0  0  0
   -1.5548   -3.6533   -1.9451 H   0  0  0  0  0  0  0  0  0  0  0  0
    2.3768   -4.4706   -1.2966 H   0  0  0  0  0  0  0  0  0  0  0  0
    1.5209   -4.5846   -2.8330 H   0  0  0  0  0  0  0  0  0  0  0  0
    1.9048   -2.9896   -2.2076 H   0  0  0  0  0  0  0  0  0  0  0  0
  1  2  1  0  0  0  0
  1 45  1  0  0  0  0
  1 46  1  0  0  0  0
  1 47  1  0  0  0  0
  2  3  2  0  0  0  0
  2  8  1  0  0  0  0
  3  4  1  0  0  0  0
  3 48  1  0  0  0  0
  4  5  2  0  0  0  0
  4 36  1  0  0  0  0
  5  6  1  0  0  0  0
  5 49  1  0  0  0  0
  6  7  1  0  0  0  0
  6  8  2  0  0  0  0
  7 50  1  0  0  0  0
  7 51  1  0  0  0  0
  7 52  1  0  0  0  0
  8  9  1  0  0  0  0
  9 10  1  0  0  0  0
  9 53  1  0  0  0  0
  9 54  1  0  0  0  0
 10 11  1  0  0  0  0
 10 55  1  0  0  0  0
 10 56  1  0  0  0  0
 11 12  2  0  0  0  0
 11 13  2  0  0  0  0
 11 14  1  0  0  0  0
 14 15  1  0  0  0  0
 14 19  1  0  0  0  0
 15 16  1  0  0  0  0
 15 57  1  0  0  0  0
 15 58  1  0  0  0  0
 16 17  1  0  0  0  0
 16 59  1  0  0  0  0
 16 60  1  0  0  0  0
 17 18  1  0  0  0  0
 17 20  1  0  0  0  0
 17 23  1  0  0  0  0
 18 19  1  0  0  0  0
 18 61  1  0  0  0  0
 18 62  1  0  0  0  0
 19 63  1  0  0  0  0
 19 64  1  0  0  0  0
 20 21  2  0  0  0  0
 21 22  1  0  0  0  0
 21 25  1  0  0  0  0
 22 23  1  0  0  0  0
 22 65  1  0  0  0  0
 23 24  2  0  0  0  0
 25 26  2  0  0  0  0
 25 35  1  0  0  0  0
 26 27  1  0  0  0  0
 26 66  1  0  0  0  0
 27 28  2  0  0  0  0
 27 67  1  0  0  0  0
 28 29  1  0  0  0  0
 28 34  1  0  0  0  0
 29 30  1  0  0  0  0
 30 31  1  0  0  0  0
 30 32  1  0  0  0  0
 30 33  1  0  0  0  0
 34 35  2  0  0  0  0
 34 68  1  0  0  0  0
 35 69  1  0  0  0  0
 36 37  1  0  0  0  0
 36 42  1  0  0  0  0
 37 38  2  0  0  0  0
 37 39  1  0  0  0  0
 39 40  1  0  0  0  0
 39 70  1  0  0  0  0
 40 41  2  0  0  0  0
 40 42  1  0  0  0  0
 42 43  1  0  0  0  0
 42 44  1  0  0  0  0
 43 71  1  0  0  0  0
 43 72  1  0  0  0  0
 43 73  1  0  0  0  0
 44 74  1  0  0  0  0
 44 75  1  0  0  0  0
 44 76  1  0  0  0  0
M  END
>  <DRUGBANK_ID>
DB14946

>  <COMMON_NAME>
PCO-371

>  <CAS_NUMBER>
1613373-33-3

>  <UNII>
TE53TU0WSQ

>  <SYNONYMS>
2,4-IMIDAZOLIDINEDIONE, 1-(3,5-DIMETHYL-4-(2-((4-OXO-2-(4-(TRIFLUOROMETHOXY)PHENYL)-1,3,8-TRIAZASPIRO(4.5)DEC-1-EN-8-YL)SULFONYL)ETHYL)PHENYL)-5,5-DIMETHYL-; non-peptide small molecule orally available agonist of the parathyroid hormone receptor type I

$$$$
