
 OpenBabel10282417183D

 13  8  0  0  0  0  0  0  0  0999 V2000
    0.9376   -0.0246   -0.0741 O   0  0  0  0  0  0  0  0  0  0  0  0
    0.9043    0.0014   -0.0289 O   0  0  0  0  0  0  0  0  0  0  0  0
    0.9482    0.0559   -0.0647 O   0  0  0  0  0  0  0  0  0  0  0  0
    0.9055   -0.0325    0.0027 O   0  0  0  0  0  0  0  0  0  0  0  0
    0.9162    0.0449   -0.0309 Tc  0  5  0  0  0  0  0  0  0  0  0  0
    0.6042    0.6379    0.5966 H   0  0  0  0  0  0  0  0  0  0  0  0
    1.9376   -0.0246   -0.0741 H   0  0  0  0  0  0  0  0  0  0  0  0
    0.5709    0.9372   -0.1439 H   0  0  0  0  0  0  0  0  0  0  0  0
    1.9043    0.0014   -0.0289 H   0  0  0  0  0  0  0  0  0  0  0  0
    0.6148    0.7699    0.5509 H   0  0  0  0  0  0  0  0  0  0  0  0
    1.9482    0.0559   -0.0647 H   0  0  0  0  0  0  0  0  0  0  0  0
    0.5721   -0.3952    0.8730 H   0  0  0  0  0  0  0  0  0  0  0  0
    1.9055   -0.0325    0.0027 H   0  0  0  0  0  0  0  0  0  0  0  0
  1  6  1  0  0  0  0
  1  7  1  0  0  0  0
  2  8  1  0  0  0  0
  2  9  1  0  0  0  0
  3 10  1  0  0  0  0
  3 11  1  0  0  0  0
  4 12  1  0  0  0  0
  4 13  1  0  0  0  0
M  ISO  1   5  98
M  CHG  1   5  -1
M  END
>  <DRUGBANK_ID>
DB09314

>  <SECONDARY_ACCESSION_NUMBERS>
DB13043

>  <COMMON_NAME>
Technetium Tc-99m pertechnetate

>  <CAS_NUMBER>
23288-61-1

>  <UNII>
PPP8783IQ1

>  <SYNONYMS>
(99Tc)pertechnetate; CPERT; GPERT; Pertechnetate-99Tc; Technetium (99mTc) Pertechnetate; Technetium Tc 99m Pertechnetate

$$$$
