TRT
 OpenBabel10282417123D

 61 61  0  0  0  0  0  0  0  0999 V2000
    1.6818    0.5152    0.5193 C   0  0  0  0  0  0  0  0  0  0  0  0
    1.1252   -0.4321    1.4429 O   0  0  0  0  0  0  0  0  0  0  0  0
    1.4509   -1.8765    1.3104 C   0  0  0  0  0  0  0  0  0  0  0  0
    1.3183   -2.8101    0.0017 C   0  0  0  0  0  0  0  0  0  0  0  0
    1.8724   -2.0564   -1.0362 O   0  0  0  0  0  0  0  0  0  0  0  0
    0.7684   -1.2385   -1.4218 C   0  0  0  0  0  0  0  0  0  0  0  0
   -0.4252   -0.9197   -0.2867 C   0  0  0  0  0  0  0  0  0  0  0  0
   -1.3106   -1.5103    0.6974 O   0  0  0  0  0  0  0  0  0  0  0  0
   -1.4883   -2.9048    0.5190 C   0  0  0  0  0  0  0  0  0  0  0  0
   -1.8210   -3.4597   -1.0154 C   0  0  0  0  0  0  0  0  0  0  0  0
   -1.6027   -2.8766   -2.3886 O   0  0  0  0  0  0  0  0  0  0  0  0
   -1.9249   -1.6470   -2.9305 C   0  0  0  0  0  0  0  0  0  0  0  0
   -2.0908   -0.5031   -2.1892 C   0  0  0  0  0  0  0  0  0  0  0  0
   -1.3709    0.6395   -2.5534 C   0  0  0  0  0  0  0  0  0  0  0  0
   -1.8419   -1.3212   -4.2522 C   0  0  0  0  0  0  0  0  0  0  0  0
   -1.8957    0.0541   -4.6694 C   0  0  0  0  0  0  0  0  0  0  0  0
   -1.7688    1.0825   -3.7118 C   0  0  0  0  0  0  0  0  0  0  0  0
   -2.2242    2.5348   -3.8026 C   0  0  0  0  0  0  0  0  0  0  0  0
   -1.2353    3.1700   -4.7703 C   0  0  0  0  0  0  0  0  0  0  0  0
   -3.6132    2.5347   -4.4436 C   0  0  0  0  0  0  0  0  0  0  0  0
   -2.2600    3.3865   -2.4141 C   0  0  0  0  0  0  0  0  0  0  0  0
   -3.2549    2.9999   -1.2206 C   0  0  0  0  0  0  0  0  0  0  0  0
   -3.0895    1.6265   -0.6338 C   0  0  0  0  0  0  0  0  0  0  0  0
   -3.0421    3.8945   -0.0103 C   0  0  0  0  0  0  0  0  0  0  0  0
   -4.7205    3.0171   -1.6350 C   0  0  0  0  0  0  0  0  0  0  0  0
    0.8744    1.0546   -0.0064 H   0  0  0  0  0  0  0  0  0  0  0  0
    2.2081    1.3701    0.9379 H   0  0  0  0  0  0  0  0  0  0  0  0
    2.3936    0.0144   -0.1221 H   0  0  0  0  0  0  0  0  0  0  0  0
    2.5085   -1.8924    1.5137 H   0  0  0  0  0  0  0  0  0  0  0  0
    0.9209   -2.3530    2.1431 H   0  0  0  0  0  0  0  0  0  0  0  0
    1.6762   -3.8331    0.1768 H   0  0  0  0  0  0  0  0  0  0  0  0
    0.4022   -3.1455   -0.4995 H   0  0  0  0  0  0  0  0  0  0  0  0
    0.3257   -1.8342   -2.2074 H   0  0  0  0  0  0  0  0  0  0  0  0
    1.0901   -0.3691   -2.0147 H   0  0  0  0  0  0  0  0  0  0  0  0
   -0.6842    0.1269   -0.2984 H   0  0  0  0  0  0  0  0  0  0  0  0
   -0.9942   -1.4582   -0.9417 H   0  0  0  0  0  0  0  0  0  0  0  0
   -0.6077   -3.2672    1.0582 H   0  0  0  0  0  0  0  0  0  0  0  0
   -2.1910   -3.3780    1.2208 H   0  0  0  0  0  0  0  0  0  0  0  0
   -1.2931   -4.4351   -1.0555 H   0  0  0  0  0  0  0  0  0  0  0  0
   -2.8790   -3.6758   -1.0270 H   0  0  0  0  0  0  0  0  0  0  0  0
   -2.4871   -0.5896   -1.1933 H   0  0  0  0  0  0  0  0  0  0  0  0
   -0.9797    1.3753   -1.8303 H   0  0  0  0  0  0  0  0  0  0  0  0
   -1.8667   -2.1196   -4.9877 H   0  0  0  0  0  0  0  0  0  0  0  0
   -2.0532    0.3160   -5.6959 H   0  0  0  0  0  0  0  0  0  0  0  0
   -1.2280    2.5975   -5.7060 H   0  0  0  0  0  0  0  0  0  0  0  0
   -1.5126    4.1978   -5.0067 H   0  0  0  0  0  0  0  0  0  0  0  0
   -0.2181    3.1449   -4.3637 H   0  0  0  0  0  0  0  0  0  0  0  0
   -4.3041    1.8940   -3.9053 H   0  0  0  0  0  0  0  0  0  0  0  0
   -4.0209    3.5462   -4.5199 H   0  0  0  0  0  0  0  0  0  0  0  0
   -3.6128    2.0684   -5.4294 H   0  0  0  0  0  0  0  0  0  0  0  0
   -1.2320    3.4557   -2.0137 H   0  0  0  0  0  0  0  0  0  0  0  0
   -2.4873    4.4333   -2.6775 H   0  0  0  0  0  0  0  0  0  0  0  0
   -2.0870    1.5051   -0.2201 H   0  0  0  0  0  0  0  0  0  0  0  0
   -3.7639    1.2822    0.1510 H   0  0  0  0  0  0  0  0  0  0  0  0
   -3.3971    1.0053   -1.4583 H   0  0  0  0  0  0  0  0  0  0  0  0
   -3.3032    4.9233   -0.2415 H   0  0  0  0  0  0  0  0  0  0  0  0
   -3.6818    3.5369    0.8088 H   0  0  0  0  0  0  0  0  0  0  0  0
   -2.0056    3.8365    0.3446 H   0  0  0  0  0  0  0  0  0  0  0  0
   -4.9920    3.9663   -2.0881 H   0  0  0  0  0  0  0  0  0  0  0  0
   -4.9595    2.2015   -2.3112 H   0  0  0  0  0  0  0  0  0  0  0  0
   -5.3666    2.7744   -0.7878 H   0  0  0  0  0  0  0  0  0  0  0  0
  1  2  1  0  0  0  0
  1 26  1  0  0  0  0
  1 27  1  0  0  0  0
  1 28  1  0  0  0  0
  2  3  1  0  0  0  0
  3  4  1  0  0  0  0
  3 29  1  0  0  0  0
  3 30  1  0  0  0  0
  4  5  1  0  0  0  0
  4 31  1  0  0  0  0
  4 32  1  0  0  0  0
  5  6  1  0  0  0  0
  6  7  1  0  0  0  0
  6 33  1  0  0  0  0
  6 34  1  0  0  0  0
  7  8  1  0  0  0  0
  7 35  1  0  0  0  0
  7 36  1  0  0  0  0
  8  9  1  0  0  0  0
  9 10  1  0  0  0  0
  9 37  1  0  0  0  0
  9 38  1  0  0  0  0
 10 11  1  0  0  0  0
 10 39  1  0  0  0  0
 10 40  1  0  0  0  0
 11 12  1  0  0  0  0
 12 13  2  0  0  0  0
 12 15  1  0  0  0  0
 13 14  1  0  0  0  0
 13 41  1  0  0  0  0
 14 17  2  0  0  0  0
 14 42  1  0  0  0  0
 15 16  2  0  0  0  0
 15 43  1  0  0  0  0
 16 17  1  0  0  0  0
 16 44  1  0  0  0  0
 17 18  1  0  0  0  0
 18 19  1  0  0  0  0
 18 20  1  0  0  0  0
 18 21  1  0  0  0  0
 19 45  1  0  0  0  0
 19 46  1  0  0  0  0
 19 47  1  0  0  0  0
 20 48  1  0  0  0  0
 20 49  1  0  0  0  0
 20 50  1  0  0  0  0
 21 22  1  0  0  0  0
 21 51  1  0  0  0  0
 21 52  1  0  0  0  0
 22 23  1  0  0  0  0
 22 24  1  0  0  0  0
 22 25  1  0  0  0  0
 23 53  1  0  0  0  0
 23 54  1  0  0  0  0
 23 55  1  0  0  0  0
 24 56  1  0  0  0  0
 24 57  1  0  0  0  0
 24 58  1  0  0  0  0
 25 59  1  0  0  0  0
 25 60  1  0  0  0  0
 25 61  1  0  0  0  0
M  END
>  <DRUGBANK_ID>
DB02080

>  <SECONDARY_ACCESSION_NUMBERS>
EXPT03116

>  <COMMON_NAME>
1-{2-[2-(2-Methoxyethoxy)Ethoxy]Ethoxy}-4-(1,1,3,3-Tetramethylbutyl)Benzene

$$$$
