
 OpenBabel10282417233D

 40 40  0  0  0  0  0  0  0  0999 V2000
    1.0290    5.2301   -0.7466 C   0  0  0  0  0  0  0  0  0  0  0  0
    2.0744    5.7254    0.3113 C   0  0  0  0  0  0  0  0  0  0  0  0
    3.4179    6.3515   -0.1539 C   0  0  0  0  0  0  0  0  0  0  0  0
    3.3457    7.5054   -1.0582 C   0  0  0  0  0  0  0  0  0  0  0  0
    4.1941    8.6481   -0.6622 C   0  0  0  0  0  0  0  0  0  0  0  0
    2.8087    7.4170   -2.1689 O   0  0  0  0  0  0  0  0  0  0  0  0
    0.4478    6.0072   -1.4544 O   0  0  0  0  0  0  0  0  0  0  0  0
    0.8054    3.8676   -0.9121 O   0  0  0  0  0  0  0  0  0  0  0  0
    1.1501    2.6370   -0.1226 C   0  0  1  0  0  0  0  0  0  0  0  0
    2.5589    1.9544   -0.4271 C   0  0  2  0  0  0  0  0  0  0  0  0
    2.9309    0.6874    0.3458 C   0  0  0  0  0  0  0  0  0  0  0  0
    3.7072    2.7451   -0.0659 N   0  0  0  0  0  0  0  0  0  0  0  0
    3.8092    3.8024   -0.9835 C   0  0  0  0  0  0  0  0  0  0  0  0
    0.7440    2.8826    1.3069 C   0  0  0  0  0  0  0  0  0  0  0  0
   -0.4821    3.5187    1.5457 C   0  0  0  0  0  0  0  0  0  0  0  0
   -0.9102    3.7410    2.8455 C   0  0  0  0  0  0  0  0  0  0  0  0
   -0.1586    3.2627    3.9160 C   0  0  0  0  0  0  0  0  0  0  0  0
    1.0435    2.6110    3.6936 C   0  0  0  0  0  0  0  0  0  0  0  0
    1.5220    2.4975    2.4032 C   0  0  0  0  0  0  0  0  0  0  0  0
    1.5800    6.4731    0.9418 H   0  0  0  0  0  0  0  0  0  0  0  0
    2.2856    4.9146    1.0093 H   0  0  0  0  0  0  0  0  0  0  0  0
    4.0942    6.4679    0.7093 H   0  0  0  0  0  0  0  0  0  0  0  0
    4.0970    5.8789   -0.8667 H   0  0  0  0  0  0  0  0  0  0  0  0
    4.8356    8.9162   -1.5021 H   0  0  0  0  0  0  0  0  0  0  0  0
    3.5128    9.4258   -0.3385 H   0  0  0  0  0  0  0  0  0  0  0  0
    4.8482    8.3489    0.1658 H   0  0  0  0  0  0  0  0  0  0  0  0
    0.4454    1.8815   -0.5086 H   0  0  0  0  0  0  0  0  0  0  0  0
    2.6387    1.7568   -1.5045 H   0  0  0  0  0  0  0  0  0  0  0  0
    2.1717    0.3966    1.0661 H   0  0  0  0  0  0  0  0  0  0  0  0
    3.1196   -0.1304   -0.3452 H   0  0  0  0  0  0  0  0  0  0  0  0
    3.8726    0.8027    0.9228 H   0  0  0  0  0  0  0  0  0  0  0  0
    3.5594    3.1287    0.8724 H   0  0  0  0  0  0  0  0  0  0  0  0
    2.8390    4.1990   -1.1884 H   0  0  0  0  0  0  0  0  0  0  0  0
    4.4155    4.3968   -0.3261 H   0  0  0  0  0  0  0  0  0  0  0  0
    4.2111    3.7685   -1.9877 H   0  0  0  0  0  0  0  0  0  0  0  0
   -1.0946    3.8731    0.7149 H   0  0  0  0  0  0  0  0  0  0  0  0
   -1.8418    4.2697    3.0147 H   0  0  0  0  0  0  0  0  0  0  0  0
   -0.5029    3.4043    4.9326 H   0  0  0  0  0  0  0  0  0  0  0  0
    1.6243    2.1870    4.5068 H   0  0  0  0  0  0  0  0  0  0  0  0
    2.5194    2.0877    2.3084 H   0  0  0  0  0  0  0  0  0  0  0  0
  1  2  1  0  0  0  0
  1  7  2  0  0  0  0
  1  8  1  0  0  0  0
  2  3  1  0  0  0  0
  2 20  1  0  0  0  0
  2 21  1  0  0  0  0
  3  4  1  0  0  0  0
  3 22  1  0  0  0  0
  3 23  1  0  0  0  0
  4  5  1  0  0  0  0
  4  6  2  0  0  0  0
  5 24  1  0  0  0  0
  5 25  1  0  0  0  0
  5 26  1  0  0  0  0
  8  9  1  0  0  0  0
  9 14  1  0  0  0  0
  9 27  1  6  0  0  0
 10 12  1  0  0  0  0
 10 28  1  6  0  0  0
 10 11  1  0  0  0  0
 10  9  1  0  0  0  0
 11 29  1  0  0  0  0
 11 30  1  0  0  0  0
 11 31  1  0  0  0  0
 12 13  1  0  0  0  0
 12 32  1  0  0  0  0
 13 33  1  0  0  0  0
 13 34  1  0  0  0  0
 13 35  1  0  0  0  0
 14 15  1  0  0  0  0
 14 19  2  0  0  0  0
 15 16  2  0  0  0  0
 15 36  1  0  0  0  0
 16 17  1  0  0  0  0
 16 37  1  0  0  0  0
 17 18  2  0  0  0  0
 17 38  1  0  0  0  0
 18 19  1  0  0  0  0
 18 39  1  0  0  0  0
 19 40  1  0  0  0  0
M  END
>  <DRUGBANK_ID>
DB15988

>  <COMMON_NAME>
Ephedrine levulinate

>  <CAS_NUMBER>
1082659-36-6

>  <UNII>
T9S008S8JL

>  <SYNONYMS>
L-Ephedrine levulinate

$$$$
