
 OpenBabel10282417173D

 42 43  0  0  0  0  0  0  0  0999 V2000
    1.1630   -0.2541   -0.0321 C   0  0  0  0  0  0  0  0  0  0  0  0
    1.4637    2.1957   -0.2883 C   0  0  0  0  0  0  0  0  0  0  0  0
   -8.4744    0.1156   -3.2212 C   0  0  0  0  0  0  0  0  0  0  0  0
   -4.2721    1.4749    1.8281 C   0  0  0  0  0  0  0  0  0  0  0  0
   -5.1666    0.6180    1.2398 C   0  0  0  0  0  0  0  0  0  0  0  0
   -3.8659    2.6204    1.1390 C   0  0  0  0  0  0  0  0  0  0  0  0
   -6.5920    0.4818   -0.8829 C   0  0  0  0  0  0  0  0  0  0  0  0
   -1.0168    2.3964    1.2615 C   0  0  0  0  0  0  0  0  0  0  0  0
   -1.7180    3.5672   -0.9287 C   0  0  0  0  0  0  0  0  0  0  0  0
    0.8561    1.0982    0.5638 C   0  0  0  0  0  0  0  0  0  0  0  0
   -7.2863    1.0597   -3.2877 C   0  0  0  0  0  0  0  0  0  0  0  0
   -5.5494    0.9301   -0.0654 C   0  0  0  0  0  0  0  0  0  0  0  0
   -1.0812    3.7346    0.4668 C   0  0  3  0  0  0  0  0  0  0  0  0
   -3.8738    2.7025   -0.2584 C   0  0  0  0  0  0  0  0  0  0  0  0
   -6.4689    1.1251   -2.0924 C   0  0  0  0  0  0  0  0  0  0  0  0
   -4.8633    1.8957   -0.8050 C   0  0  0  0  0  0  0  0  0  0  0  0
   -0.5714    1.1870    0.6120 N   0  0  0  0  0  0  0  0  0  0  0  0
   -7.0730    1.6957   -4.3051 O   0  0  0  0  0  0  0  0  0  0  0  0
   -1.6835    4.7958    1.2202 O   0  0  0  0  0  0  0  0  0  0  0  0
   -3.1662    3.6459   -0.9648 O   0  0  0  0  0  0  0  0  0  0  0  0
   -5.3757    1.9558   -2.0691 O   0  0  0  0  0  0  0  0  0  0  0  0
    0.7565   -0.3340   -1.0479 H   0  0  0  0  0  0  0  0  0  0  0  0
    0.7309   -1.0602    0.5711 H   0  0  0  0  0  0  0  0  0  0  0  0
    2.2449   -0.3775   -0.0713 H   0  0  0  0  0  0  0  0  0  0  0  0
    0.9518    2.2809   -1.2555 H   0  0  0  0  0  0  0  0  0  0  0  0
    1.4249    3.1515    0.2269 H   0  0  0  0  0  0  0  0  0  0  0  0
    2.5235    2.0290   -0.4538 H   0  0  0  0  0  0  0  0  0  0  0  0
   -9.3920    0.6821   -3.3920 H   0  0  0  0  0  0  0  0  0  0  0  0
   -8.3507   -0.6578   -3.9815 H   0  0  0  0  0  0  0  0  0  0  0  0
   -8.5785   -0.3878   -2.2588 H   0  0  0  0  0  0  0  0  0  0  0  0
   -3.8633    1.2593    2.8147 H   0  0  0  0  0  0  0  0  0  0  0  0
   -5.6139   -0.1861    1.8125 H   0  0  0  0  0  0  0  0  0  0  0  0
   -3.3249    3.3377    1.7439 H   0  0  0  0  0  0  0  0  0  0  0  0
   -7.3613   -0.2079   -0.5726 H   0  0  0  0  0  0  0  0  0  0  0  0
   -1.9743    2.0032    1.4591 H   0  0  0  0  0  0  0  0  0  0  0  0
   -0.6784    2.5355    2.2936 H   0  0  0  0  0  0  0  0  0  0  0  0
   -1.3491    4.4008   -1.5476 H   0  0  0  0  0  0  0  0  0  0  0  0
   -1.3499    2.6766   -1.4585 H   0  0  0  0  0  0  0  0  0  0  0  0
    1.2267    1.1523    1.5930 H   0  0  0  0  0  0  0  0  0  0  0  0
   -0.0779    4.1246    0.3346 H   0  0  0  0  0  0  0  0  0  0  0  0
   -1.0411    1.0135   -0.2770 H   0  0  0  0  0  0  0  0  0  0  0  0
   -2.5669    4.9597    0.8421 H   0  0  0  0  0  0  0  0  0  0  0  0
  1 22  1  0  0  0  0
  1 23  1  0  0  0  0
  1 24  1  0  0  0  0
  2 25  1  0  0  0  0
  2 26  1  0  0  0  0
  2 27  1  0  0  0  0
  3 28  1  0  0  0  0
  3 29  1  0  0  0  0
  3 30  1  0  0  0  0
  4 31  1  0  0  0  0
  5  4  2  0  0  0  0
  5 32  1  0  0  0  0
  6  4  1  0  0  0  0
  6 33  1  0  0  0  0
  7 34  1  0  0  0  0
  8 35  1  0  0  0  0
  8 36  1  0  0  0  0
  9 37  1  0  0  0  0
  9 38  1  0  0  0  0
 10  1  1  0  0  0  0
 10  2  1  0  0  0  0
 10 39  1  0  0  0  0
 11  3  1  0  0  0  0
 12  5  1  0  0  0  0
 12  7  1  0  0  0  0
 13  8  1  0  0  0  0
 13  9  1  0  0  0  0
 13 40  1  0  0  0  0
 14  6  2  0  0  0  0
 15  7  2  0  0  0  0
 15 11  1  0  0  0  0
 16 12  2  0  0  0  0
 16 14  1  0  0  0  0
 17  8  1  0  0  0  0
 17 10  1  0  0  0  0
 17 41  1  0  0  0  0
 18 11  2  0  0  0  0
 19 13  1  0  0  0  0
 19 42  1  0  0  0  0
 20  9  1  0  0  0  0
 20 14  1  0  0  0  0
 21 15  1  0  0  0  0
 21 16  1  0  0  0  0
M  END
>  <DRUGBANK_ID>
DB09013

>  <COMMON_NAME>
Befunolol

>  <CAS_NUMBER>
39552-01-7

>  <UNII>
418546MT3A

>  <SYNONYMS>
Befunolol; Befunololum

$$$$
