
 OpenBabel10282417133D

 27 27  0  0  1  0  0  0  0  0999 V2000
    0.8303    0.4969    2.3812 C   0  0  0  0  0  0  0  0  0  0  0  0
    0.2257   -0.4916    1.3455 C   0  0  2  0  0  0  0  0  0  0  0  0
    0.7493   -0.0969    0.0169 N   0  0  0  0  0  0  0  0  0  0  0  0
   -1.3109   -0.4575    1.3546 C   0  0  0  0  0  0  0  0  0  0  0  0
   -1.9630    0.6985    1.3315 N   0  0  0  0  0  0  0  0  0  0  0  0
   -3.3001    0.4232    1.3399 C   0  0  0  0  0  0  0  0  0  0  0  0
   -4.2921    1.5230    1.3316 C   0  0  0  0  0  0  0  0  0  0  0  0
   -3.5068   -0.9378    1.3452 C   0  0  0  0  0  0  0  0  0  0  0  0
   -4.6310   -1.6499    1.3282 O   0  0  0  0  0  0  0  0  0  0  0  0
   -2.2406   -1.5130    1.3875 N   0  0  0  0  0  0  0  0  0  0  0  0
   -2.0351   -2.9637    1.3896 C   0  0  0  0  0  0  0  0  0  0  0  0
   -2.5818   -3.6708    2.6186 C   0  0  0  0  0  0  0  0  0  0  0  0
   -3.4291   -4.7087    2.4024 O   0  0  0  0  0  0  0  0  0  0  0  0
   -2.2168   -3.4054    3.7649 O   0  0  0  0  0  0  0  0  0  0  0  0
    1.5623    1.1923    1.9408 H   0  0  0  0  0  0  0  0  0  0  0  0
    1.3843   -0.0459    3.1549 H   0  0  0  0  0  0  0  0  0  0  0  0
    0.0797    1.1200    2.8795 H   0  0  0  0  0  0  0  0  0  0  0  0
    0.6008   -1.4959    1.5579 H   0  0  0  0  0  0  0  0  0  0  0  0
    1.7534   -0.2745   -0.0180 H   0  0  0  0  0  0  0  0  0  0  0  0
    0.6740    0.9244   -0.0506 H   0  0  0  0  0  0  0  0  0  0  0  0
   -4.9256    1.4652    0.4409 H   0  0  0  0  0  0  0  0  0  0  0  0
   -4.9366    1.4680    2.2149 H   0  0  0  0  0  0  0  0  0  0  0  0
   -3.7978    2.4995    1.3341 H   0  0  0  0  0  0  0  0  0  0  0  0
   -5.3649   -1.0007    1.3491 H   0  0  0  0  0  0  0  0  0  0  0  0
   -2.4928   -3.3782    0.4818 H   0  0  0  0  0  0  0  0  0  0  0  0
   -0.9642   -3.1733    1.3423 H   0  0  0  0  0  0  0  0  0  0  0  0
   -3.7267   -4.8811    1.4888 H   0  0  0  0  0  0  0  0  0  0  0  0
  1 15  1  0  0  0  0
  1 16  1  0  0  0  0
  1 17  1  0  0  0  0
  2  4  1  0  0  0  0
  2 18  1  1  0  0  0
  2  3  1  0  0  0  0
  2  1  1  0  0  0  0
  3 19  1  0  0  0  0
  3 20  1  0  0  0  0
  4  5  2  0  0  0  0
  4 10  1  0  0  0  0
  5  6  1  0  0  0  0
  6  7  1  0  0  0  0
  6  8  2  0  0  0  0
  7 21  1  0  0  0  0
  7 22  1  0  0  0  0
  7 23  1  0  0  0  0
  8  9  1  0  0  0  0
  8 10  1  0  0  0  0
  9 24  1  0  0  0  0
 10 11  1  0  0  0  0
 11 12  1  0  0  0  0
 11 25  1  0  0  0  0
 11 26  1  0  0  0  0
 12 13  1  0  0  0  0
 12 14  2  0  0  0  0
 13 27  1  0  0  0  0
M  END
>  <DRUGBANK_ID>
DB03071

>  <SECONDARY_ACCESSION_NUMBERS>
EXPT02146

>  <COMMON_NAME>
4-Methylidene-5-One

$$$$
