
 OpenBabel10282417133D

 24 24  0  0  1  0  0  0  0  0999 V2000
    1.0774   -0.1827   -0.1908 C   0  0  0  0  0  0  0  0  0  0  0  0
    0.3538    1.1660   -0.4700 C   0  0  2  0  0  0  0  0  0  0  0  0
    1.5859    3.0155    0.8573 C   0  0  2  0  0  0  0  0  0  0  0  0
    0.3784    3.0432    1.8172 C   0  0  2  0  0  0  0  0  0  0  0  0
    1.2124    2.4641   -0.5341 C   0  0  2  0  0  0  0  0  0  0  0  0
   -0.3220    1.6756    1.8126 C   0  0  2  0  0  0  0  0  0  0  0  0
    0.6244   -1.2267   -1.0567 O   0  0  0  0  0  0  0  0  0  0  0  0
    2.6410    2.2560    1.4739 O   0  0  0  0  0  0  0  0  0  0  0  0
   -0.5520    4.0679    1.4389 O   0  0  0  0  0  0  0  0  0  0  0  0
    0.4176    0.6754    2.4808 O   0  0  0  0  0  0  0  0  0  0  0  0
   -0.7179    1.3159    0.4807 O   0  0  0  0  0  0  0  0  0  0  0  0
    0.2848    3.7751   -1.4816 S   0  0  0  0  0  0  0  0  0  0  0  0
   -0.1147    1.0442   -1.4561 H   0  0  0  0  0  0  0  0  0  0  0  0
    1.9794    4.0368    0.7524 H   0  0  0  0  0  0  0  0  0  0  0  0
    0.7318    3.2694    2.8298 H   0  0  0  0  0  0  0  0  0  0  0  0
    2.1141    2.2879   -1.1320 H   0  0  0  0  0  0  0  0  0  0  0  0
   -1.2632    1.7656    2.3631 H   0  0  0  0  0  0  0  0  0  0  0  0
    0.8227   -0.5822    0.7870 H   0  0  0  0  0  0  0  0  0  0  0  0
    2.1653   -0.1263   -0.2613 H   0  0  0  0  0  0  0  0  0  0  0  0
    0.9218   -1.0446   -1.9609 H   0  0  0  0  0  0  0  0  0  0  0  0
    2.8365    1.4444    0.9787 H   0  0  0  0  0  0  0  0  0  0  0  0
   -1.3698    3.6231    1.1343 H   0  0  0  0  0  0  0  0  0  0  0  0
    1.3705    0.8487    2.3408 H   0  0  0  0  0  0  0  0  0  0  0  0
   -0.2562    4.4045   -0.4150 H   0  0  0  0  0  0  0  0  0  0  0  0
  1 18  1  0  0  0  0
  1 19  1  0  0  0  0
  2  1  1  0  0  0  0
  2 13  1  6  0  0  0
  3  8  1  0  0  0  0
  3 14  1  6  0  0  0
  4  3  1  0  0  0  0
  4 15  1  1  0  0  0
  4  9  1  0  0  0  0
  5  2  1  0  0  0  0
  5  3  1  0  0  0  0
  5 16  1  6  0  0  0
  5 12  1  0  0  0  0
  6  4  1  0  0  0  0
  6 10  1  0  0  0  0
  6 17  1  1  0  0  0
  7  1  1  0  0  0  0
  7 20  1  0  0  0  0
  8 21  1  0  0  0  0
  9 22  1  0  0  0  0
 10 23  1  0  0  0  0
 11  2  1  0  0  0  0
 11  6  1  0  0  0  0
 12 24  1  0  0  0  0
M  END
>  <DRUGBANK_ID>
DB03584

>  <SECONDARY_ACCESSION_NUMBERS>
EXPT01645; EXPT02895; EXPT01648; DB03188; DB03599

>  <COMMON_NAME>
4-Thio-beta-D-glucopyranose

>  <SYNONYMS>
4-deoxy-4-Thio-beta-D-glucopyranose; 4-Thio-Î²-D-glucopyranose

$$$$
