
 OpenBabel10282417143D

 75 80  0  0  1  0  0  0  0  0999 V2000
    0.9479   -0.0017    0.0986 O   0  0  0  0  0  0  0  0  0  0  0  0
   -1.2300    1.5567   -1.1425 O   0  0  0  0  0  0  0  0  0  0  0  0
    7.4905   -0.5166    0.9229 O   0  0  0  0  0  0  0  0  0  0  0  0
    6.7486   -6.3592   -0.6235 O   0  0  0  0  0  0  0  0  0  0  0  0
    6.3196   -0.3958   -3.2470 O   0  0  0  0  0  0  0  0  0  0  0  0
   -0.7554   -4.2382   -3.9682 N   0  0  0  0  0  0  0  0  0  0  0  0
    4.2973   -0.7413   -4.1970 N   0  0  0  0  0  0  0  0  0  0  0  0
    6.3643   -2.4137   -1.1884 N   0  0  0  0  0  0  0  0  0  0  0  0
   -1.9862   -3.4926   -4.2575 C   0  0  0  0  0  0  0  0  0  0  0  0
    0.2552   -3.4625   -3.2480 C   0  0  0  0  0  0  0  0  0  0  0  0
   -1.8367   -1.9760   -4.4337 C   0  0  0  0  0  0  0  0  0  0  0  0
   -0.1481   -2.1657   -2.6216 C   0  0  0  0  0  0  0  0  0  0  0  0
   -1.1465   -1.3964   -3.2297 C   0  0  0  0  0  0  0  0  0  0  0  0
   -0.2144   -4.9054   -5.1754 C   0  0  0  0  0  0  0  0  0  0  0  0
    0.2092   -4.0112   -6.4009 C   0  0  0  0  0  0  0  0  0  0  0  0
    0.6169   -1.6431   -1.5803 C   0  0  0  0  0  0  0  0  0  0  0  0
   -1.4432   -0.1381   -2.7130 C   0  0  0  0  0  0  0  0  0  0  0  0
    0.3087   -0.3987   -1.0449 C   0  0  0  0  0  0  0  0  0  0  0  0
   -0.7518    0.3499   -1.5896 C   0  0  0  0  0  0  0  0  0  0  0  0
    1.3875   -3.0909   -6.1263 C   0  0  0  0  0  0  0  0  0  0  0  0
    1.2674   -1.6819   -6.1409 C   0  0  0  0  0  0  0  0  0  0  0  0
    2.4618   -3.6527   -5.4571 C   0  0  0  0  0  0  0  0  0  0  0  0
    3.2153   -1.4602   -4.7363 C   0  0  0  0  0  0  0  0  0  0  0  0
    2.1976   -0.8620   -5.4665 C   0  0  0  0  0  0  0  0  0  0  0  0
    3.1496   -2.8282   -4.5873 C   0  0  0  0  0  0  0  0  0  0  0  0
    6.1802   -3.2286   -2.3061 C   0  0  0  0  0  0  0  0  0  0  0  0
    6.2889   -4.6164   -2.1416 C   0  0  0  0  0  0  0  0  0  0  0  0
    5.8545   -2.6823   -3.5646 C   0  0  0  0  0  0  0  0  0  0  0  0
    7.0245   -2.7982   -0.0161 C   0  0  0  0  0  0  0  0  0  0  0  0
    7.1927   -4.1854    0.2122 C   0  0  0  0  0  0  0  0  0  0  0  0
    6.7279   -5.1410   -0.8273 C   0  0  0  0  0  0  0  0  0  0  0  0
    5.5095   -1.2146   -3.6866 C   0  0  0  0  0  0  0  0  0  0  0  0
    2.3682    0.0338    0.0119 C   0  0  0  0  0  0  0  0  0  0  0  0
   -0.6187    2.0889    0.0247 C   0  0  0  0  0  0  0  0  0  0  0  0
    5.9679   -5.4769   -3.1855 C   0  0  0  0  0  0  0  0  0  0  0  0
    5.7342   -3.5558   -4.6531 C   0  0  0  0  0  0  0  0  0  0  0  0
    7.5123   -1.8922    0.9449 C   0  0  0  0  0  0  0  0  0  0  0  0
    7.8046   -4.6725    1.3706 C   0  0  0  0  0  0  0  0  0  0  0  0
    5.6758   -4.9423   -4.4368 C   0  0  0  0  0  0  0  0  0  0  0  0
    8.1338   -2.3990    2.1016 C   0  0  0  0  0  0  0  0  0  0  0  0
    8.2760   -3.7733    2.3180 C   0  0  0  0  0  0  0  0  0  0  0  0
    6.9676    0.1534   -0.2131 C   0  0  0  0  0  0  0  0  0  0  0  0
    4.2731    0.2699   -4.2951 H   0  0  0  0  0  0  0  0  0  0  0  0
    6.2764   -1.4443   -1.4289 H   0  0  0  0  0  0  0  0  0  0  0  0
   -2.4892   -3.9152   -5.1342 H   0  0  0  0  0  0  0  0  0  0  0  0
   -2.6649   -3.6685   -3.4148 H   0  0  0  0  0  0  0  0  0  0  0  0
    0.8987   -4.0832   -2.6136 H   0  0  0  0  0  0  0  0  0  0  0  0
    0.9111   -3.0341   -3.9580 H   0  0  0  0  0  0  0  0  0  0  0  0
   -1.2683   -1.7506   -5.3368 H   0  0  0  0  0  0  0  0  0  0  0  0
   -2.8236   -1.5285   -4.5786 H   0  0  0  0  0  0  0  0  0  0  0  0
    0.6095   -5.5666   -4.8696 H   0  0  0  0  0  0  0  0  0  0  0  0
   -0.9858   -5.6026   -5.5271 H   0  0  0  0  0  0  0  0  0  0  0  0
    0.4712   -4.6675   -7.2378 H   0  0  0  0  0  0  0  0  0  0  0  0
   -0.6526   -3.4213   -6.7226 H   0  0  0  0  0  0  0  0  0  0  0  0
    1.4345   -2.2331   -1.1786 H   0  0  0  0  0  0  0  0  0  0  0  0
   -2.2421    0.4515   -3.1571 H   0  0  0  0  0  0  0  0  0  0  0  0
    0.3874   -1.2159   -6.5765 H   0  0  0  0  0  0  0  0  0  0  0  0
    2.5683   -4.7258   -5.3281 H   0  0  0  0  0  0  0  0  0  0  0  0
    2.0470    0.2152   -5.4530 H   0  0  0  0  0  0  0  0  0  0  0  0
    3.5814   -3.2973   -3.7118 H   0  0  0  0  0  0  0  0  0  0  0  0
    2.7321    0.4767    0.9441 H   0  0  0  0  0  0  0  0  0  0  0  0
    2.8005   -0.9673   -0.0634 H   0  0  0  0  0  0  0  0  0  0  0  0
    2.6989    0.6678   -0.8171 H   0  0  0  0  0  0  0  0  0  0  0  0
   -0.7568    1.4228    0.8842 H   0  0  0  0  0  0  0  0  0  0  0  0
    0.4370    2.3122   -0.1625 H   0  0  0  0  0  0  0  0  0  0  0  0
   -1.1057    3.0343    0.2717 H   0  0  0  0  0  0  0  0  0  0  0  0
    5.9499   -6.5520   -3.0219 H   0  0  0  0  0  0  0  0  0  0  0  0
    5.4599   -3.1632   -5.6315 H   0  0  0  0  0  0  0  0  0  0  0  0
    7.9188   -5.7437    1.5254 H   0  0  0  0  0  0  0  0  0  0  0  0
    5.3333   -5.5991   -5.2334 H   0  0  0  0  0  0  0  0  0  0  0  0
    8.5184   -1.7064    2.8487 H   0  0  0  0  0  0  0  0  0  0  0  0
    8.7598   -4.1395    3.2204 H   0  0  0  0  0  0  0  0  0  0  0  0
    7.5422   -0.1119   -1.1082 H   0  0  0  0  0  0  0  0  0  0  0  0
    5.8909   -0.0426   -0.2999 H   0  0  0  0  0  0  0  0  0  0  0  0
    7.0634    1.2343   -0.1043 H   0  0  0  0  0  0  0  0  0  0  0  0
  1 18  1  0  0  0  0
  1 33  1  0  0  0  0
  2 19  1  0  0  0  0
  2 34  1  0  0  0  0
  3 37  1  0  0  0  0
  3 42  1  0  0  0  0
  4 31  2  0  0  0  0
  5 32  2  0  0  0  0
  6  9  1  0  0  0  0
  6 10  1  0  0  0  0
  6 14  1  0  0  0  0
  7 23  1  0  0  0  0
  7 32  1  0  0  0  0
  7 43  1  0  0  0  0
  8 26  1  0  0  0  0
  8 29  1  0  0  0  0
  8 44  1  0  0  0  0
  9 11  1  0  0  0  0
  9 45  1  0  0  0  0
  9 46  1  0  0  0  0
 10 12  1  0  0  0  0
 10 47  1  0  0  0  0
 10 48  1  0  0  0  0
 11 13  1  0  0  0  0
 11 49  1  0  0  0  0
 11 50  1  0  0  0  0
 12 13  1  0  0  0  0
 12 16  2  0  0  0  0
 13 17  2  0  0  0  0
 14 15  1  0  0  0  0
 14 51  1  0  0  0  0
 14 52  1  0  0  0  0
 15 20  1  0  0  0  0
 15 53  1  0  0  0  0
 15 54  1  0  0  0  0
 16 18  1  0  0  0  0
 16 55  1  0  0  0  0
 17 19  1  0  0  0  0
 17 56  1  0  0  0  0
 18 19  2  0  0  0  0
 20 21  2  0  0  0  0
 20 22  1  0  0  0  0
 21 24  1  0  0  0  0
 21 57  1  0  0  0  0
 22 25  2  0  0  0  0
 22 58  1  0  0  0  0
 23 24  2  0  0  0  0
 23 25  1  0  0  0  0
 24 59  1  0  0  0  0
 25 60  1  0  0  0  0
 26 27  2  0  0  0  0
 26 28  1  0  0  0  0
 27 31  1  0  0  0  0
 27 35  1  0  0  0  0
 28 32  1  0  0  0  0
 28 36  2  0  0  0  0
 29 30  2  0  0  0  0
 29 37  1  0  0  0  0
 30 31  1  0  0  0  0
 30 38  1  0  0  0  0
 33 61  1  0  0  0  0
 33 62  1  0  0  0  0
 33 63  1  0  0  0  0
 34 64  1  0  0  0  0
 34 65  1  0  0  0  0
 34 66  1  0  0  0  0
 35 39  2  0  0  0  0
 35 67  1  0  0  0  0
 36 39  1  0  0  0  0
 36 68  1  0  0  0  0
 37 40  2  0  0  0  0
 38 41  2  0  0  0  0
 38 69  1  0  0  0  0
 39 70  1  0  0  0  0
 40 41  1  0  0  0  0
 40 71  1  0  0  0  0
 41 72  1  0  0  0  0
 42 73  1  0  0  0  0
 42 74  1  0  0  0  0
 42 75  1  0  0  0  0
M  END
>  <DRUGBANK_ID>
DB04881

>  <COMMON_NAME>
Elacridar

>  <CAS_NUMBER>
143664-11-3

>  <UNII>
N488540F94

>  <SYNONYMS>
Elacridar

$$$$
