
 OpenBabel10282417123D

 33 32  0  0  1  0  0  0  0  0999 V2000
    5.6227    7.0508    3.1631 C   0  0  0  0  0  0  0  0  0  0  0  0
    5.3255    5.9700    2.1507 C   0  0  1  0  0  0  0  0  0  0  0  0
    5.5672    6.5005    0.7951 N   0  0  0  0  0  0  0  0  0  0  0  0
    5.2193    5.5155   -0.2182 C   0  0  0  0  0  0  0  0  0  0  0  0
    3.7466    5.1435   -0.0846 C   0  0  0  0  0  0  0  0  0  0  0  0
    2.8067    6.3158   -0.4257 C   0  0  0  0  0  0  0  0  0  0  0  0
    3.0066    6.8839   -1.8350 C   0  0  0  0  0  0  0  0  0  0  0  0
    2.5236    5.9325   -2.9443 C   0  0  2  0  0  0  0  0  0  0  0  0
    2.8320    4.5195   -2.7071 N   0  0  0  0  0  0  0  0  0  0  0  0
    3.1335    6.3562   -4.2899 C   0  0  0  0  0  0  0  0  0  0  0  0
    2.1951    6.6038   -5.2383 O   0  0  0  0  0  0  0  0  0  0  0  0
    4.3247    6.4340   -4.5251 O   0  0  0  0  0  0  0  0  0  0  0  0
    6.2010    4.7217    2.3893 C   0  0  0  0  0  0  0  0  0  0  0  0
    5.5004    3.5725    2.5812 O   0  0  0  0  0  0  0  0  0  0  0  0
    7.4208    4.7183    2.3578 O   0  0  0  0  0  0  0  0  0  0  0  0
    6.6668    7.3645    3.1066 H   0  0  0  0  0  0  0  0  0  0  0  0
    5.4214    6.6729    4.1694 H   0  0  0  0  0  0  0  0  0  0  0  0
    4.9797    7.9231    2.9939 H   0  0  0  0  0  0  0  0  0  0  0  0
    4.2706    5.7287    2.3120 H   0  0  0  0  0  0  0  0  0  0  0  0
    5.0476    7.3632    0.6406 H   0  0  0  0  0  0  0  0  0  0  0  0
    5.4507    5.9046   -1.2160 H   0  0  0  0  0  0  0  0  0  0  0  0
    5.8449    4.6204   -0.1346 H   0  0  0  0  0  0  0  0  0  0  0  0
    3.6285    4.2310   -0.6574 H   0  0  0  0  0  0  0  0  0  0  0  0
    3.4640    4.7709    0.9020 H   0  0  0  0  0  0  0  0  0  0  0  0
    1.7630    6.0085   -0.2969 H   0  0  0  0  0  0  0  0  0  0  0  0
    2.9577    7.1265    0.3008 H   0  0  0  0  0  0  0  0  0  0  0  0
    2.4394    7.8228   -1.9148 H   0  0  0  0  0  0  0  0  0  0  0  0
    4.0472    7.1969   -1.9832 H   0  0  0  0  0  0  0  0  0  0  0  0
    1.4331    6.0055   -2.9786 H   0  0  0  0  0  0  0  0  0  0  0  0
    2.5676    3.9146   -3.4768 H   0  0  0  0  0  0  0  0  0  0  0  0
    2.3038    4.1952   -1.8999 H   0  0  0  0  0  0  0  0  0  0  0  0
    1.2751    6.4861   -4.9420 H   0  0  0  0  0  0  0  0  0  0  0  0
    4.5307    3.6430    2.5381 H   0  0  0  0  0  0  0  0  0  0  0  0
  1 16  1  0  0  0  0
  1 17  1  0  0  0  0
  1 18  1  0  0  0  0
  2  1  1  0  0  0  0
  2  3  1  0  0  0  0
  2 13  1  0  0  0  0
  2 19  1  1  0  0  0
  3  4  1  0  0  0  0
  3 20  1  0  0  0  0
  4  5  1  0  0  0  0
  4 21  1  0  0  0  0
  4 22  1  0  0  0  0
  5  6  1  0  0  0  0
  5 23  1  0  0  0  0
  5 24  1  0  0  0  0
  6  7  1  0  0  0  0
  6 25  1  0  0  0  0
  6 26  1  0  0  0  0
  7 27  1  0  0  0  0
  7 28  1  0  0  0  0
  8 10  1  0  0  0  0
  8 29  1  6  0  0  0
  8  9  1  0  0  0  0
  8  7  1  0  0  0  0
  9 30  1  0  0  0  0
  9 31  1  0  0  0  0
 10 11  1  0  0  0  0
 10 12  2  0  0  0  0
 11 32  1  0  0  0  0
 13 14  1  0  0  0  0
 13 15  2  0  0  0  0
 14 33  1  0  0  0  0
M  END
>  <DRUGBANK_ID>
DB02370

>  <SECONDARY_ACCESSION_NUMBERS>
EXPT02135

>  <COMMON_NAME>
Nz-(1-Carboxyethyl)-Lysine

$$$$
