
 OpenBabel10282417133D

 54 55  0  0  0  0  0  0  0  0999 V2000
    1.2069   -5.1738    6.7414 S   0  0  0  0  0  0  0  0  0  0  0  0
    1.2990   -0.7879    7.0795 O   0  0  0  0  0  0  0  0  0  0  0  0
   -0.5689   -1.8936   10.1923 O   0  5  0  0  0  0  0  0  0  0  0  0
   -1.7564   -3.8055    9.8763 O   0  0  0  0  0  0  0  0  0  0  0  0
    3.8039   -3.6474    3.0906 O   0  0  0  0  0  0  0  0  0  0  0  0
   -4.8707   -3.1464    4.1505 O   0  5  0  0  0  0  0  0  0  0  0  0
   -3.8100   -1.0980    4.1445 O   0  0  0  0  0  0  0  0  0  0  0  0
   -1.5498   -1.1472   -0.0769 O   0  0  0  0  0  0  0  0  0  0  0  0
    0.1322   -2.8430    7.3482 N   0  0  0  0  0  0  0  0  0  0  0  0
    2.2360   -3.0957    4.6088 N   0  0  0  0  0  0  0  0  0  0  0  0
   -2.4267   -1.9992    1.8718 N   0  0  0  0  0  0  0  0  0  0  0  0
    0.2783   -2.1508    2.4048 N   0  3  0  0  0  0  0  0  0  0  0  0
    0.1967   -3.7609    6.2793 C   0  0  1  0  0  0  0  0  0  0  0  0
    0.4289   -5.0251    8.4035 C   0  0  0  0  0  0  0  0  0  0  0  0
    0.2885   -3.4815    8.6595 C   0  0  2  0  0  0  0  0  0  0  0  0
    0.9432   -2.6795    5.4170 C   0  0  1  0  0  0  0  0  0  0  0  0
    0.9174   -1.9376    6.7518 C   0  0  0  0  0  0  0  0  0  0  0  0
    1.4837   -5.6470    9.2896 C   0  0  0  0  0  0  0  0  0  0  0  0
   -0.8646   -5.8646    8.3595 C   0  0  0  0  0  0  0  0  0  0  0  0
   -0.7903   -3.0233    9.6726 C   0  0  0  0  0  0  0  0  0  0  0  0
    2.6102   -3.7462    3.4185 C   0  0  0  0  0  0  0  0  0  0  0  0
    1.6306   -4.2728    2.2985 C   0  0  0  0  0  0  0  0  0  0  0  0
    0.1470   -4.9155    2.7075 C   0  0  0  0  0  0  0  0  0  0  0  0
   -0.7812   -4.3786    3.8555 C   0  0  0  0  0  0  0  0  0  0  0  0
   -1.7084   -3.0251    4.1213 C   0  0  0  0  0  0  0  0  0  0  0  0
   -2.7771   -2.9198    3.0430 C   0  0  1  0  0  0  0  0  0  0  0  0
   -3.9563   -2.3286    3.8887 C   0  0  0  0  0  0  0  0  0  0  0  0
   -1.5003   -1.9213    0.8675 C   0  0  0  0  0  0  0  0  0  0  0  0
   -0.2431   -2.6525    1.0877 C   0  0  0  0  0  0  0  0  0  0  0  0
   -0.8391   -4.0787    6.1203 H   0  0  0  0  0  0  0  0  0  0  0  0
    3.0836   -2.8631    5.1295 H   0  0  0  0  0  0  0  0  0  0  0  0
   -3.1657   -1.3090    1.7434 H   0  0  0  0  0  0  0  0  0  0  0  0
   -0.6164   -2.1256    2.8317 H   0  0  0  0  0  0  0  0  0  0  0  0
    0.7622   -2.7121    3.1055 H   0  0  0  0  0  0  0  0  0  0  0  0
    0.6306   -1.2042    2.5424 H   0  0  0  0  0  0  0  0  0  0  0  0
    1.2538   -3.0915    8.9960 H   0  0  0  0  0  0  0  0  0  0  0  0
    0.3974   -1.9672    4.8026 H   0  0  0  0  0  0  0  0  0  0  0  0
    1.1820   -5.5672   10.3316 H   0  0  0  0  0  0  0  0  0  0  0  0
    1.6397   -6.7043    9.0418 H   0  0  0  0  0  0  0  0  0  0  0  0
    2.4460   -5.1315    9.1673 H   0  0  0  0  0  0  0  0  0  0  0  0
   -0.7008   -6.8919    8.0106 H   0  0  0  0  0  0  0  0  0  0  0  0
   -1.2849   -5.9720    9.3622 H   0  0  0  0  0  0  0  0  0  0  0  0
   -1.6410   -5.4262    7.7173 H   0  0  0  0  0  0  0  0  0  0  0  0
    1.7279   -3.3664    1.6647 H   0  0  0  0  0  0  0  0  0  0  0  0
    2.0498   -4.8689    1.4663 H   0  0  0  0  0  0  0  0  0  0  0  0
   -0.5625   -5.1794    1.9175 H   0  0  0  0  0  0  0  0  0  0  0  0
    0.4662   -5.9184    3.0205 H   0  0  0  0  0  0  0  0  0  0  0  0
   -1.4269   -5.1924    4.2188 H   0  0  0  0  0  0  0  0  0  0  0  0
    0.0468   -4.4455    4.5012 H   0  0  0  0  0  0  0  0  0  0  0  0
   -2.0992   -2.9977    5.1613 H   0  0  0  0  0  0  0  0  0  0  0  0
   -1.2986   -1.9979    4.2093 H   0  0  0  0  0  0  0  0  0  0  0  0
   -2.9828   -3.9271    2.6822 H   0  0  0  0  0  0  0  0  0  0  0  0
   -0.5377   -3.6970    1.0274 H   0  0  0  0  0  0  0  0  0  0  0  0
    0.5179   -2.5317    0.3225 H   0  0  0  0  0  0  0  0  0  0  0  0
  1 13  1  0  0  0  0
  1 14  1  0  0  0  0
  2 17  2  0  0  0  0
  3 20  1  0  0  0  0
  4 20  2  0  0  0  0
  5 21  2  0  0  0  0
  6 27  1  0  0  0  0
  7 27  2  0  0  0  0
  8 28  2  0  0  0  0
  9 13  1  0  0  0  0
  9 15  1  0  0  0  0
  9 17  1  0  0  0  0
 10 21  1  0  0  0  0
 10 31  1  0  0  0  0
 11 28  1  0  0  0  0
 11 32  1  0  0  0  0
 12 29  1  0  0  0  0
 12 33  1  0  0  0  0
 12 34  1  0  0  0  0
 12 35  1  0  0  0  0
 13 16  1  0  0  0  0
 13 30  1  6  0  0  0
 14 15  1  0  0  0  0
 14 18  1  0  0  0  0
 14 19  1  0  0  0  0
 15 36  1  1  0  0  0
 15 20  1  0  0  0  0
 16 17  1  0  0  0  0
 16 37  1  6  0  0  0
 16 10  1  0  0  0  0
 18 38  1  0  0  0  0
 18 39  1  0  0  0  0
 18 40  1  0  0  0  0
 19 41  1  0  0  0  0
 19 42  1  0  0  0  0
 19 43  1  0  0  0  0
 21 22  1  0  0  0  0
 22 23  1  0  0  0  0
 22 44  1  0  0  0  0
 22 45  1  0  0  0  0
 23 24  1  0  0  0  0
 23 46  1  0  0  0  0
 23 47  1  0  0  0  0
 24 25  1  0  0  0  0
 24 48  1  0  0  0  0
 24 49  1  0  0  0  0
 25 50  1  0  0  0  0
 25 51  1  0  0  0  0
 26 27  1  0  0  0  0
 26 52  1  6  0  0  0
 26 25  1  0  0  0  0
 26 11  1  0  0  0  0
 28 29  1  0  0  0  0
 29 53  1  0  0  0  0
 29 54  1  0  0  0  0
M  CHG  3   3  -1   6  -1  12   1
M  END
>  <DRUGBANK_ID>
DB03820

>  <SECONDARY_ACCESSION_NUMBERS>
EXPT01725

>  <COMMON_NAME>
(2S,5R,6R)-6-({(6S)-6-[(Ammonioacetyl)amino]-6-carboxylatohexanoyl}amino)-3,3-dimethyl-7-oxo-4-thia-1-azabicyclo[3.2.0]heptane-2-carboxylate

$$$$
