KMP
 OpenBabel10282417123D

 31 33  0  0  0  0  0  0  0  0999 V2000
   -2.2917   -0.9860   -0.0187 C   0  0  0  0  0  0  0  0  0  0  0  0
   -0.9358   -1.3206    0.0037 C   0  0  0  0  0  0  0  0  0  0  0  0
    0.0507   -0.3185    0.0292 C   0  0  0  0  0  0  0  0  0  0  0  0
   -0.3294    1.0256    0.0417 C   0  0  0  0  0  0  0  0  0  0  0  0
   -1.6870    1.3631    0.0305 C   0  0  0  0  0  0  0  0  0  0  0  0
   -2.6535    0.3582   -0.0075 C   0  0  0  0  0  0  0  0  0  0  0  0
    1.4933   -0.6336    0.0288 C   0  0  0  0  0  0  0  0  0  0  0  0
    2.4339    0.5183   -0.0233 C   0  0  0  0  0  0  0  0  0  0  0  0
    1.9282    1.7689   -0.0255 C   0  0  0  0  0  0  0  0  0  0  0  0
    2.8144    2.9510   -0.1298 C   0  0  0  0  0  0  0  0  0  0  0  0
    2.8901    3.9104    0.8909 C   0  0  0  0  0  0  0  0  0  0  0  0
    3.8154    4.9650    0.8141 C   0  0  0  0  0  0  0  0  0  0  0  0
    4.6649    5.0576   -0.2850 C   0  0  0  0  0  0  0  0  0  0  0  0
    4.5910    4.1286   -1.3129 C   0  0  0  0  0  0  0  0  0  0  0  0
    3.6638    3.0879   -1.2418 C   0  0  0  0  0  0  0  0  0  0  0  0
    0.5742    2.0667    0.0541 O   0  0  0  0  0  0  0  0  0  0  0  0
    1.9277   -1.7817    0.0560 O   0  0  0  0  0  0  0  0  0  0  0  0
    5.5991    6.0430   -0.4062 O   0  0  0  0  0  0  0  0  0  0  0  0
    3.7844    0.2103   -0.0757 O   0  0  0  0  0  0  0  0  0  0  0  0
   -3.9622    0.7441   -0.0400 O   0  0  0  0  0  0  0  0  0  0  0  0
   -0.5769   -2.6390   -0.0090 O   0  0  0  0  0  0  0  0  0  0  0  0
   -3.0477   -1.7638   -0.0486 H   0  0  0  0  0  0  0  0  0  0  0  0
   -1.9985    2.4044    0.0406 H   0  0  0  0  0  0  0  0  0  0  0  0
    2.2473    3.8324    1.7656 H   0  0  0  0  0  0  0  0  0  0  0  0
    3.8634    5.6912    1.6205 H   0  0  0  0  0  0  0  0  0  0  0  0
    5.2592    4.2091   -2.1660 H   0  0  0  0  0  0  0  0  0  0  0  0
    3.6324    2.3623   -2.0531 H   0  0  0  0  0  0  0  0  0  0  0  0
    5.5619    6.6262    0.3688 H   0  0  0  0  0  0  0  0  0  0  0  0
    4.3111    1.0232   -0.0401 H   0  0  0  0  0  0  0  0  0  0  0  0
   -4.5362   -0.0389   -0.0879 H   0  0  0  0  0  0  0  0  0  0  0  0
   -1.3453   -3.2276   -0.0254 H   0  0  0  0  0  0  0  0  0  0  0  0
  1  2  2  0  0  0  0
  1  6  1  0  0  0  0
  1 22  1  0  0  0  0
  2  3  1  0  0  0  0
  2 21  1  0  0  0  0
  3  4  2  0  0  0  0
  3  7  1  0  0  0  0
  4  5  1  0  0  0  0
  4 16  1  0  0  0  0
  5  6  2  0  0  0  0
  5 23  1  0  0  0  0
  6 20  1  0  0  0  0
  7  8  1  0  0  0  0
  7 17  2  0  0  0  0
  8  9  2  0  0  0  0
  8 19  1  0  0  0  0
  9 10  1  0  0  0  0
  9 16  1  0  0  0  0
 10 11  2  0  0  0  0
 10 15  1  0  0  0  0
 11 12  1  0  0  0  0
 11 24  1  0  0  0  0
 12 13  2  0  0  0  0
 12 25  1  0  0  0  0
 13 14  1  0  0  0  0
 13 18  1  0  0  0  0
 14 15  2  0  0  0  0
 14 26  1  0  0  0  0
 15 27  1  0  0  0  0
 18 28  1  0  0  0  0
 19 29  1  0  0  0  0
 20 30  1  0  0  0  0
 21 31  1  0  0  0  0
M  END
>  <DRUGBANK_ID>
DB01852

>  <SECONDARY_ACCESSION_NUMBERS>
EXPT01976

>  <COMMON_NAME>
Kaempherol

>  <CAS_NUMBER>
520-18-3

>  <UNII>
731P2LE49E

$$$$
