
 OpenBabel10282417233D

 32 34  0  0  1  0  0  0  0  0999 V2000
    1.0199    0.0216    0.1160 N   0  0  0  0  0  0  0  0  0  0  0  0
    0.3518   -1.1890    0.0630 C   0  0  0  0  0  0  0  0  0  0  0  0
    0.7767   -2.1868    0.8670 N   0  0  0  0  0  0  0  0  0  0  0  0
    0.0579   -3.3276    0.9137 C   0  0  0  0  0  0  0  0  0  0  0  0
   -1.0373   -3.6583    0.1880 N   0  0  0  0  0  0  0  0  0  0  0  0
   -1.3841   -2.6631   -0.6422 C   0  0  0  0  0  0  0  0  0  0  0  0
   -0.7660   -1.4213   -0.7601 C   0  0  0  0  0  0  0  0  0  0  0  0
   -1.3834   -0.6522   -1.7167 N   0  0  0  0  0  0  0  0  0  0  0  0
   -2.3447   -1.4246   -2.1773 C   0  0  0  0  0  0  0  0  0  0  0  0
   -3.4077   -0.9803   -3.4316 Cl  0  0  0  0  0  0  0  0  0  0  0  0
   -2.4077   -2.6408   -1.5618 N   0  0  0  0  0  0  0  0  0  0  0  0
   -3.3133   -3.7323   -1.8646 C   0  0  2  0  0  0  0  0  0  0  0  0
   -4.1287   -4.0211   -0.7190 O   0  0  0  0  0  0  0  0  0  0  0  0
   -4.2459   -5.4555   -0.5743 C   0  0  2  0  0  0  0  0  0  0  0  0
   -3.5930   -5.9243    0.7410 C   0  0  0  0  0  0  0  0  0  0  0  0
   -3.1383   -4.8585    1.5614 O   0  0  0  0  0  0  0  0  0  0  0  0
   -3.6144   -6.0865   -1.8252 C   0  0  1  0  0  0  0  0  0  0  0  0
   -4.5872   -6.3188   -2.8569 O   0  0  0  0  0  0  0  0  0  0  0  0
   -2.6257   -5.0263   -2.2913 C   0  0  1  0  0  0  0  0  0  0  0  0
   -2.3829   -5.0547   -3.6968 O   0  0  0  0  0  0  0  0  0  0  0  0
    0.6235    0.7940   -0.4003 H   0  0  0  0  0  0  0  0  0  0  0  0
    2.0235   -0.0415    0.2225 H   0  0  0  0  0  0  0  0  0  0  0  0
    0.3947   -4.0648    1.6367 H   0  0  0  0  0  0  0  0  0  0  0  0
   -4.0008   -3.4093   -2.6513 H   0  0  0  0  0  0  0  0  0  0  0  0
   -5.3170   -5.6900   -0.5344 H   0  0  0  0  0  0  0  0  0  0  0  0
   -4.3320   -6.4801    1.3282 H   0  0  0  0  0  0  0  0  0  0  0  0
   -2.7564   -6.6075    0.5690 H   0  0  0  0  0  0  0  0  0  0  0  0
   -2.5192   -4.3241    1.0231 H   0  0  0  0  0  0  0  0  0  0  0  0
   -3.1341   -7.0498   -1.6269 H   0  0  0  0  0  0  0  0  0  0  0  0
   -5.1515   -5.5349   -2.9666 H   0  0  0  0  0  0  0  0  0  0  0  0
   -1.6693   -5.1746   -1.7839 H   0  0  0  0  0  0  0  0  0  0  0  0
   -3.2313   -5.2329   -4.1466 H   0  0  0  0  0  0  0  0  0  0  0  0
  1  2  1  0  0  0  0
  1 21  1  0  0  0  0
  1 22  1  0  0  0  0
  2  3  2  0  0  0  0
  2  7  1  0  0  0  0
  3  4  1  0  0  0  0
  4  5  2  0  0  0  0
  4 23  1  0  0  0  0
  5  6  1  0  0  0  0
  6  7  2  0  0  0  0
  6 11  1  0  0  0  0
  7  8  1  0  0  0  0
  8  9  2  0  0  0  0
  9 10  1  0  0  0  0
  9 11  1  0  0  0  0
 12 11  1  0  0  0  0
 12 13  1  0  0  0  0
 12 24  1  6  0  0  0
 14 13  1  0  0  0  0
 14 25  1  1  0  0  0
 14 15  1  0  0  0  0
 15 16  1  0  0  0  0
 15 26  1  0  0  0  0
 15 27  1  0  0  0  0
 16 28  1  0  0  0  0
 17 14  1  0  0  0  0
 17 18  1  0  0  0  0
 17 19  1  0  0  0  0
 17 29  1  1  0  0  0
 18 30  1  0  0  0  0
 19 12  1  0  0  0  0
 19 20  1  0  0  0  0
 19 31  1  1  0  0  0
 20 32  1  0  0  0  0
M  END
>  <DRUGBANK_ID>
DB16075

>  <COMMON_NAME>
8-Chloroadenosine

>  <CAS_NUMBER>
34408-14-5

>  <UNII>
PA05MFH3I7

>  <SYNONYMS>
Adenosine, 8-chloro-

$$$$
