
 OpenBabel10282417173D

 30 31  0  0  0  0  0  0  0  0999 V2000
    1.0186   -0.0756    0.0426 C   0  0  0  0  0  0  0  0  0  0  0  0
    0.4165    0.0819   -1.1507 C   0  0  0  0  0  0  0  0  0  0  0  0
    2.9146   -0.3641   -3.9772 C   0  0  0  0  0  0  0  0  0  0  0  0
    2.2390   -0.5477   -2.7630 C   0  0  0  0  0  0  0  0  0  0  0  0
    1.1446    0.2618   -2.4158 C   0  0  0  0  0  0  0  0  0  0  0  0
    0.7070    1.2342   -3.3247 C   0  0  0  0  0  0  0  0  0  0  0  0
   -0.8156   -1.1250    1.3835 C   0  0  0  0  0  0  0  0  0  0  0  0
   -1.1195   -0.5721    3.7193 C   0  0  0  0  0  0  0  0  0  0  0  0
    0.6744    0.4540    2.4531 C   0  0  0  0  0  0  0  0  0  0  0  0
    0.2729   -0.2428    1.3013 C   0  0  0  0  0  0  0  0  0  0  0  0
   -0.0347    0.2924    3.6455 C   0  0  0  0  0  0  0  0  0  0  0  0
    0.2994    0.9741    4.7803 O   0  0  0  0  0  0  0  0  0  0  0  0
   -1.4998   -1.2799    2.5877 C   0  0  0  0  0  0  0  0  0  0  0  0
   -2.5630   -2.1282    2.6953 O   0  0  0  0  0  0  0  0  0  0  0  0
    2.4801    0.6219   -4.8553 C   0  0  0  0  0  0  0  0  0  0  0  0
    3.1033    0.8522   -6.0505 O   0  0  0  0  0  0  0  0  0  0  0  0
    1.3780    1.4083   -4.5304 C   0  0  0  0  0  0  0  0  0  0  0  0
    0.9359    2.3704   -5.3948 O   0  0  0  0  0  0  0  0  0  0  0  0
    2.1019   -0.0585    0.1284 H   0  0  0  0  0  0  0  0  0  0  0  0
   -0.6678    0.1216   -1.2269 H   0  0  0  0  0  0  0  0  0  0  0  0
    3.7642   -0.9978   -4.2105 H   0  0  0  0  0  0  0  0  0  0  0  0
    2.5701   -1.3358   -2.0900 H   0  0  0  0  0  0  0  0  0  0  0  0
   -0.1444    1.8700   -3.0993 H   0  0  0  0  0  0  0  0  0  0  0  0
   -1.1196   -1.6903    0.5076 H   0  0  0  0  0  0  0  0  0  0  0  0
   -1.6637   -0.6930    4.6508 H   0  0  0  0  0  0  0  0  0  0  0  0
    1.5251    1.1280    2.4098 H   0  0  0  0  0  0  0  0  0  0  0  0
    1.0413    1.5702    4.5901 H   0  0  0  0  0  0  0  0  0  0  0  0
   -2.7141   -2.5528    1.8352 H   0  0  0  0  0  0  0  0  0  0  0  0
    3.8536    0.2375   -6.1282 H   0  0  0  0  0  0  0  0  0  0  0  0
    1.5372    2.3182   -6.1634 H   0  0  0  0  0  0  0  0  0  0  0  0
  1  2  2  0  0  0  0
  1 19  1  0  0  0  0
  2 20  1  0  0  0  0
  3  4  1  0  0  0  0
  3 15  2  0  0  0  0
  3 21  1  0  0  0  0
  4  5  2  0  0  0  0
  4 22  1  0  0  0  0
  5  6  1  0  0  0  0
  5  2  1  0  0  0  0
  6 17  2  0  0  0  0
  6 23  1  0  0  0  0
  7 13  1  0  0  0  0
  7 10  2  0  0  0  0
  7 24  1  0  0  0  0
  8 11  1  0  0  0  0
  8 25  1  0  0  0  0
  9 10  1  0  0  0  0
  9 26  1  0  0  0  0
 10  1  1  0  0  0  0
 11  9  2  0  0  0  0
 11 12  1  0  0  0  0
 12 27  1  0  0  0  0
 13  8  2  0  0  0  0
 13 14  1  0  0  0  0
 14 28  1  0  0  0  0
 15 16  1  0  0  0  0
 16 29  1  0  0  0  0
 17 15  1  0  0  0  0
 17 18  1  0  0  0  0
 18 30  1  0  0  0  0
M  END
>  <DRUGBANK_ID>
DB08399

>  <COMMON_NAME>
Piceatannol

>  <CAS_NUMBER>
10083-24-6

>  <UNII>
6KS3LS0D4F

>  <SYNONYMS>
3-hydroxyresveratol; 3,3',4,5'-Tetrahydroxystilbene; 3,3',4'5-Tetrahydroxystilbene; 3,5,3',4'-tetrahydroxystilbene; 4-[(E)-2-(3,5-dihydroxyphenyl)vinyl]benzene-1,2-diol; Piceatannol

$$$$
