
 OpenBabel10282417223D

 51 53  0  0  0  0  0  0  0  0999 V2000
    0.4255    4.8697   -1.3296 C   0  0  0  0  0  0  0  0  0  0  0  0
   -0.2571    5.3563   -2.4777 C   0  0  0  0  0  0  0  0  0  0  0  0
   -0.1464    6.7006   -2.8260 N   0  0  0  0  0  0  0  0  0  0  0  0
    1.2249    5.8113   -0.5566 C   0  0  0  0  0  0  0  0  0  0  0  0
    0.3229    3.5298   -0.9523 C   0  0  0  0  0  0  0  0  0  0  0  0
    0.6409    7.5915   -2.1479 C   0  0  0  0  0  0  0  0  0  0  0  0
    1.4531    7.0353   -1.0320 C   0  0  0  0  0  0  0  0  0  0  0  0
   -0.6840    2.8215   -1.6235 C   0  0  0  0  0  0  0  0  0  0  0  0
   -1.0715    4.5422   -3.2485 C   0  0  0  0  0  0  0  0  0  0  0  0
    1.3885   -1.0111    0.0710 C   0  0  2  0  0  0  0  0  0  0  0  0
    2.0717    0.2946    0.3872 N   0  0  0  0  0  0  0  0  0  0  0  0
   -1.3616    3.2984   -2.7576 C   0  0  0  0  0  0  0  0  0  0  0  0
    0.6552    8.7751   -2.3895 O   0  0  0  0  0  0  0  0  0  0  0  0
    1.1918    2.8912    0.1611 C   0  0  2  0  0  0  0  0  0  0  0  0
    1.0395    1.3440    0.2880 C   0  0  0  0  0  0  0  0  0  0  0  0
   -1.5773    4.9677   -4.4426 O   0  0  0  0  0  0  0  0  0  0  0  0
    0.6776    3.4307    1.3845 O   0  0  0  0  0  0  0  0  0  0  0  0
    2.3340   -2.1989    0.2264 C   0  0  0  0  0  0  0  0  0  0  0  0
    0.6079   -1.1867   -1.3079 C   0  0  0  0  0  0  0  0  0  0  0  0
    0.9184   -0.2362   -2.4545 C   0  0  0  0  0  0  0  0  0  0  0  0
   -0.1001    0.3036   -3.2478 C   0  0  0  0  0  0  0  0  0  0  0  0
    0.2005    1.2927   -4.1962 C   0  0  0  0  0  0  0  0  0  0  0  0
    1.4481    1.9114   -4.1950 C   0  0  0  0  0  0  0  0  0  0  0  0
    2.4448    1.4060   -3.3754 C   0  0  0  0  0  0  0  0  0  0  0  0
    2.2158    0.2431   -2.6452 C   0  0  0  0  0  0  0  0  0  0  0  0
    1.5543    3.0302   -4.9731 O   0  0  0  0  0  0  0  0  0  0  0  0
    2.8849    3.4794   -5.2013 C   0  0  0  0  0  0  0  0  0  0  0  0
   -0.7438    7.0487   -3.5662 H   0  0  0  0  0  0  0  0  0  0  0  0
    1.6307    5.4973    0.3986 H   0  0  0  0  0  0  0  0  0  0  0  0
    2.1502    7.7053   -0.5536 H   0  0  0  0  0  0  0  0  0  0  0  0
   -0.9355    1.8105   -1.3385 H   0  0  0  0  0  0  0  0  0  0  0  0
    0.6431   -1.1405    0.8710 H   0  0  0  0  0  0  0  0  0  0  0  0
    2.8193    0.4637   -0.2813 H   0  0  0  0  0  0  0  0  0  0  0  0
   -2.0357    2.6296   -3.2824 H   0  0  0  0  0  0  0  0  0  0  0  0
    2.2480    3.1805    0.0558 H   0  0  0  0  0  0  0  0  0  0  0  0
    0.3237    1.1361    1.0854 H   0  0  0  0  0  0  0  0  0  0  0  0
    0.5779    1.0889   -0.6309 H   0  0  0  0  0  0  0  0  0  0  0  0
   -1.8575    4.1890   -4.9581 H   0  0  0  0  0  0  0  0  0  0  0  0
   -0.2678    3.1916    1.3867 H   0  0  0  0  0  0  0  0  0  0  0  0
    2.8260   -2.1963    1.2021 H   0  0  0  0  0  0  0  0  0  0  0  0
    1.7570   -3.1315    0.1579 H   0  0  0  0  0  0  0  0  0  0  0  0
    3.0908   -2.2154   -0.5620 H   0  0  0  0  0  0  0  0  0  0  0  0
    0.7648   -2.1949   -1.7047 H   0  0  0  0  0  0  0  0  0  0  0  0
   -0.4654   -1.1217   -1.0663 H   0  0  0  0  0  0  0  0  0  0  0  0
   -1.1489    0.0993   -3.0219 H   0  0  0  0  0  0  0  0  0  0  0  0
   -0.5845    1.7213   -4.8141 H   0  0  0  0  0  0  0  0  0  0  0  0
    3.3993    1.9068   -3.2546 H   0  0  0  0  0  0  0  0  0  0  0  0
    3.0468   -0.2014   -2.1120 H   0  0  0  0  0  0  0  0  0  0  0  0
    3.2944    3.9651   -4.3085 H   0  0  0  0  0  0  0  0  0  0  0  0
    3.5233    2.6502   -5.5250 H   0  0  0  0  0  0  0  0  0  0  0  0
    2.8618    4.2156   -6.0084 H   0  0  0  0  0  0  0  0  0  0  0  0
  2  1  2  0  0  0  0
  3  2  1  0  0  0  0
  3 28  1  0  0  0  0
  4  1  1  0  0  0  0
  4 29  1  0  0  0  0
  5  1  1  0  0  0  0
  6  7  1  0  0  0  0
  6  3  1  0  0  0  0
  7  4  2  0  0  0  0
  7 30  1  0  0  0  0
  8 12  1  0  0  0  0
  8  5  2  0  0  0  0
  8 31  1  0  0  0  0
  9  2  1  0  0  0  0
 10 11  1  0  0  0  0
 10 32  1  1  0  0  0
 10 19  1  0  0  0  0
 10 18  1  0  0  0  0
 11 15  1  0  0  0  0
 11 33  1  0  0  0  0
 12  9  2  0  0  0  0
 12 34  1  0  0  0  0
 13  6  2  0  0  0  0
 14 17  1  0  0  0  0
 14 35  1  6  0  0  0
 14 15  1  0  0  0  0
 14  5  1  0  0  0  0
 15 36  1  0  0  0  0
 15 37  1  0  0  0  0
 16  9  1  0  0  0  0
 16 38  1  0  0  0  0
 17 39  1  0  0  0  0
 18 40  1  0  0  0  0
 18 41  1  0  0  0  0
 18 42  1  0  0  0  0
 19 20  1  0  0  0  0
 19 43  1  0  0  0  0
 19 44  1  0  0  0  0
 20 21  2  0  0  0  0
 21 22  1  0  0  0  0
 21 45  1  0  0  0  0
 22 23  2  0  0  0  0
 22 46  1  0  0  0  0
 23 24  1  0  0  0  0
 23 26  1  0  0  0  0
 24 25  2  0  0  0  0
 24 47  1  0  0  0  0
 25 20  1  0  0  0  0
 25 48  1  0  0  0  0
 26 27  1  0  0  0  0
 27 49  1  0  0  0  0
 27 50  1  0  0  0  0
 27 51  1  0  0  0  0
M  END
>  <DRUGBANK_ID>
DB15784

>  <COMMON_NAME>
Carmoterol

>  <CAS_NUMBER>
147568-66-9

>  <UNII>
9810NUL4D1

>  <SYNONYMS>
Carmoterol; Quinoterol

$$$$
