
 OpenBabel10282417213D

139147  0  0  0  0  0  0  0  0999 V2000
    5.7372   12.5969    1.4771 C   0  0  0  0  0  0  0  0  0  0  0  0
    5.9917   12.8395    2.7808 C   0  0  0  0  0  0  0  0  0  0  0  0
    5.6719   13.8185    3.6764 C   0  0  0  0  0  0  0  0  0  0  0  0
    5.1972   14.5630    2.6308 C   0  0  0  0  0  0  0  0  0  0  0  0
    6.8250   11.9948    3.2860 C   0  0  0  0  0  0  0  0  0  0  0  0
    5.9160   13.9740    5.2139 C   0  0  0  0  0  0  0  0  0  0  0  0
    6.0788   11.4111    0.5484 C   0  0  0  0  0  0  0  0  0  0  0  0
    5.6293   15.0613    5.7228 O   0  0  0  0  0  0  0  0  0  0  0  0
    6.8731   11.7066    6.1300 C   0  0  0  0  0  0  0  0  0  0  0  0
    8.1447   11.7898    5.0453 C   0  0  0  0  0  0  0  0  0  0  0  0
    7.8744   10.3633    4.0518 O   0  0  0  0  0  0  0  0  0  0  0  0
    6.1019   10.4906    6.5832 C   0  0  0  0  0  0  0  0  0  0  0  0
    6.2747    8.6722    5.9057 C   0  0  0  0  0  0  0  0  0  0  0  0
    7.2470    8.5601    4.4498 C   0  0  0  0  0  0  0  0  0  0  0  0
    7.9055    7.4070    4.0221 C   0  0  0  0  0  0  0  0  0  0  0  0
    7.6973    6.2702    4.7335 C   0  0  0  0  0  0  0  0  0  0  0  0
    6.7485    6.3042    5.7729 C   0  0  0  0  0  0  0  0  0  0  0  0
    6.2278    7.4323    6.4780 C   0  0  0  0  0  0  0  0  0  0  0  0
    8.4343    5.1045    4.5779 O   0  0  0  0  0  0  0  0  0  0  0  0
    8.7870    7.4408    2.9407 C   0  0  0  0  0  0  0  0  0  0  0  0
    8.7941   12.7880    4.7303 O   0  0  0  0  0  0  0  0  0  0  0  0
    5.9456   11.5615   -0.6686 O   0  0  0  0  0  0  0  0  0  0  0  0
    7.0311    9.5302    2.1527 C   0  0  0  0  0  0  0  0  0  0  0  0
    8.4695    9.6219    2.4369 C   0  0  0  0  0  0  0  0  0  0  0  0
    6.5512   10.1151    4.8005 O   0  0  0  0  0  0  0  0  0  0  0  0
    5.7876    9.7306    3.3202 C   0  0  0  0  0  0  0  0  0  0  0  0
    8.2957    9.7381    5.5933 C   0  0  0  0  0  0  0  0  0  0  0  0
    9.4104    9.4755    4.1990 C   0  0  0  0  0  0  0  0  0  0  0  0
   10.5008    8.7870    4.6627 C   0  0  0  0  0  0  0  0  0  0  0  0
   10.7164    8.7318    6.0231 C   0  0  0  0  0  0  0  0  0  0  0  0
    9.7075    8.8519    7.0176 C   0  0  0  0  0  0  0  0  0  0  0  0
    8.4433    9.3099    6.9122 C   0  0  0  0  0  0  0  0  0  0  0  0
    9.7762    8.5694    8.3126 O   0  0  0  0  0  0  0  0  0  0  0  0
    7.5511    9.3257    8.1326 C   0  0  0  0  0  0  0  0  0  0  0  0
    4.6256   10.0059    3.0659 O   0  0  0  0  0  0  0  0  0  0  0  0
   10.9948    8.2826    8.8237 C   0  0  1  0  0  0  0  0  0  0  0  0
    9.3973    5.0255    3.4758 C   0  0  1  0  0  0  0  0  0  0  0  0
   10.7707    5.6561    3.5898 O   0  0  0  0  0  0  0  0  0  0  0  0
   11.9513    5.6259    2.4821 C   0  0  0  0  0  0  0  0  0  0  0  0
   12.0713    4.1824    2.3703 C   0  0  2  0  0  0  0  0  0  0  0  0
   10.6479    3.8412    1.8801 C   0  0  1  0  0  0  0  0  0  0  0  0
    9.6120    3.6710    2.9759 C   0  0  2  0  0  0  0  0  0  0  0  0
   11.9879    9.3091    8.8365 O   0  0  0  0  0  0  0  0  0  0  0  0
   13.2735    9.1536    9.7429 C   0  0  0  0  0  0  0  0  0  0  0  0
   12.7439    8.9122   11.0761 C   0  0  2  0  0  0  0  0  0  0  0  0
   11.9362    7.6201   10.8358 C   0  0  1  0  0  0  0  0  0  0  0  0
   10.6197    7.8827   10.2079 C   0  0  2  0  0  0  0  0  0  0  0  0
    9.9862    4.8877    0.9299 O   0  0  0  0  0  0  0  0  0  0  0  0
    9.7739    6.3765    0.9036 C   0  0  0  0  0  0  0  0  0  0  0  0
   10.9436    7.5761    1.5109 C   0  0  0  0  0  0  0  0  0  0  0  0
    8.7507    6.6971    0.2809 O   0  0  0  0  0  0  0  0  0  0  0  0
   12.3777    7.7390    1.7321 C   0  0  0  0  0  0  0  0  0  0  0  0
   12.9030    8.8080    2.3766 C   0  0  0  0  0  0  0  0  0  0  0  0
   11.8323    9.5604    2.2645 C   0  0  0  0  0  0  0  0  0  0  0  0
   11.7430   10.8784    2.8098 C   0  0  0  0  0  0  0  0  0  0  0  0
   12.4474    3.4896    3.5620 O   0  0  0  0  0  0  0  0  0  0  0  0
   13.2361    4.2757    4.4295 C   0  0  0  0  0  0  0  0  0  0  0  0
   12.0354    5.8982    0.4806 C   0  0  0  0  0  0  0  0  0  0  0  0
   13.2597    6.4849    3.4817 C   0  0  0  0  0  0  0  0  0  0  0  0
   14.5768    7.6326    9.7363 C   0  0  0  0  0  0  0  0  0  0  0  0
   14.0183   10.8225    9.4528 C   0  0  0  0  0  0  0  0  0  0  0  0
   12.5024    6.5760    9.8305 O   0  0  0  0  0  0  0  0  0  0  0  0
   12.8681    6.6103    8.3384 C   0  0  0  0  0  0  0  0  0  0  0  0
   12.7183    5.5377    7.7533 O   0  0  0  0  0  0  0  0  0  0  0  0
   13.6137    7.9683    7.5893 C   0  0  0  0  0  0  0  0  0  0  0  0
   14.5688    9.0045    7.9843 C   0  0  0  0  0  0  0  0  0  0  0  0
   15.1074    9.9353    7.2147 C   0  0  0  0  0  0  0  0  0  0  0  0
   14.7035    9.3247    6.1204 C   0  0  0  0  0  0  0  0  0  0  0  0
   15.2742    9.9019    4.9630 C   0  0  0  0  0  0  0  0  0  0  0  0
   11.9699    9.9830   11.6420 O   0  0  0  0  0  0  0  0  0  0  0  0
   12.3291   11.2584   11.1427 C   0  0  0  0  0  0  0  0  0  0  0  0
    5.2620   13.8737    1.3620 N   0  0  0  0  0  0  0  0  0  0  0  0
    6.3240   12.9843    6.2275 N   0  0  0  0  0  0  0  0  0  0  0  0
    5.1341   10.6775    7.5234 O   0  0  0  0  0  0  0  0  0  0  0  0
    6.5989   10.0662    0.8949 N   0  0  0  0  0  0  0  0  0  0  0  0
    9.0887    9.8996    1.2263 O   0  0  0  0  0  0  0  0  0  0  0  0
    8.3766    3.2160    2.4020 O   0  0  0  0  0  0  0  0  0  0  0  0
   11.0026    8.9301    1.3751 N   0  0  0  0  0  0  0  0  0  0  0  0
    9.8079    6.6998   10.2681 O   0  0  0  0  0  0  0  0  0  0  0  0
   13.9873    8.1494    6.2936 N   0  0  0  0  0  0  0  0  0  0  0  0
    4.8266   15.5552    2.6851 H   0  0  0  0  0  0  0  0  0  0  0  0
    7.8399   12.2649    3.0765 H   0  0  0  0  0  0  0  0  0  0  0  0
    6.1560   11.7549    4.1085 H   0  0  0  0  0  0  0  0  0  0  0  0
    6.8238   11.2532    2.6173 H   0  0  0  0  0  0  0  0  0  0  0  0
    6.2802    5.3771    6.0517 H   0  0  0  0  0  0  0  0  0  0  0  0
    6.3065    7.2502    7.5470 H   0  0  0  0  0  0  0  0  0  0  0  0
    8.3108    7.4868    2.0001 H   0  0  0  0  0  0  0  0  0  0  0  0
    9.5678    8.1370    2.8814 H   0  0  0  0  0  0  0  0  0  0  0  0
    9.6039    6.8807    3.1626 H   0  0  0  0  0  0  0  0  0  0  0  0
   11.0237    7.9764    4.1732 H   0  0  0  0  0  0  0  0  0  0  0  0
   11.7497    8.5513    6.2234 H   0  0  0  0  0  0  0  0  0  0  0  0
    7.5116   10.3639    8.4130 H   0  0  0  0  0  0  0  0  0  0  0  0
    6.5085    8.9997    8.0815 H   0  0  0  0  0  0  0  0  0  0  0  0
    7.8380    8.6834    8.9558 H   0  0  0  0  0  0  0  0  0  0  0  0
   11.1947    7.4849    8.1301 H   0  0  0  0  0  0  0  0  0  0  0  0
    8.7830    5.4338    2.6701 H   0  0  0  0  0  0  0  0  0  0  0  0
   12.8301    4.0986    1.5951 H   0  0  0  0  0  0  0  0  0  0  0  0
   10.7379    2.8791    1.3790 H   0  0  0  0  0  0  0  0  0  0  0  0
    9.9418    3.1070    3.8393 H   0  0  0  0  0  0  0  0  0  0  0  0
   13.6566    8.7339   11.6417 H   0  0  0  0  0  0  0  0  0  0  0  0
   11.7704    7.1870   11.8264 H   0  0  0  0  0  0  0  0  0  0  0  0
   10.0748    8.7120   10.6601 H   0  0  0  0  0  0  0  0  0  0  0  0
   13.1363    7.0126    1.5511 H   0  0  0  0  0  0  0  0  0  0  0  0
   13.8425    8.8759    2.8942 H   0  0  0  0  0  0  0  0  0  0  0  0
   11.7177   11.5006    1.9339 H   0  0  0  0  0  0  0  0  0  0  0  0
   10.8983   11.0379    3.4590 H   0  0  0  0  0  0  0  0  0  0  0  0
   12.6430   11.0032    3.4198 H   0  0  0  0  0  0  0  0  0  0  0  0
   14.1171    4.5975    3.8356 H   0  0  0  0  0  0  0  0  0  0  0  0
   12.5759    5.0544    4.8701 H   0  0  0  0  0  0  0  0  0  0  0  0
   13.6687    3.8736    5.3323 H   0  0  0  0  0  0  0  0  0  0  0  0
   11.9358    6.9719    0.0119 H   0  0  0  0  0  0  0  0  0  0  0  0
   13.0386    5.9773    0.0834 H   0  0  0  0  0  0  0  0  0  0  0  0
   11.1953    5.8430   -0.2594 H   0  0  0  0  0  0  0  0  0  0  0  0
   13.8007    6.2452    4.4033 H   0  0  0  0  0  0  0  0  0  0  0  0
   14.1648    6.6524    2.8813 H   0  0  0  0  0  0  0  0  0  0  0  0
   12.7894    7.3290    4.0086 H   0  0  0  0  0  0  0  0  0  0  0  0
   15.1906    7.4268    8.7715 H   0  0  0  0  0  0  0  0  0  0  0  0
   15.4999    7.8557   10.2341 H   0  0  0  0  0  0  0  0  0  0  0  0
   14.4018    6.5603    9.4951 H   0  0  0  0  0  0  0  0  0  0  0  0
   13.7246   11.8603    9.7040 H   0  0  0  0  0  0  0  0  0  0  0  0
   15.0525   10.8140    9.8096 H   0  0  0  0  0  0  0  0  0  0  0  0
   13.7732   11.1048    8.4100 H   0  0  0  0  0  0  0  0  0  0  0  0
   15.0539    9.2073    8.9322 H   0  0  0  0  0  0  0  0  0  0  0  0
   15.7152   10.7927    7.5275 H   0  0  0  0  0  0  0  0  0  0  0  0
   16.0987    9.2387    4.7369 H   0  0  0  0  0  0  0  0  0  0  0  0
   14.4371   10.0157    4.3160 H   0  0  0  0  0  0  0  0  0  0  0  0
   15.6560   10.8987    5.2521 H   0  0  0  0  0  0  0  0  0  0  0  0
   13.3968   11.4046   11.3967 H   0  0  0  0  0  0  0  0  0  0  0  0
   12.0302   11.3012   10.0753 H   0  0  0  0  0  0  0  0  0  0  0  0
   11.8505   12.1553   11.5103 H   0  0  0  0  0  0  0  0  0  0  0  0
    5.0169   14.2301    0.4658 H   0  0  0  0  0  0  0  0  0  0  0  0
    6.5061   13.3942    7.1370 H   0  0  0  0  0  0  0  0  0  0  0  0
    5.4351   11.5235    7.9134 H   0  0  0  0  0  0  0  0  0  0  0  0
    6.8595    9.5198    0.0804 H   0  0  0  0  0  0  0  0  0  0  0  0
    8.6350    9.2952    0.5736 H   0  0  0  0  0  0  0  0  0  0  0  0
    8.0273    3.9376    1.8319 H   0  0  0  0  0  0  0  0  0  0  0  0
   10.2542    9.3797    0.9450 H   0  0  0  0  0  0  0  0  0  0  0  0
    9.8245    6.2560    9.3993 H   0  0  0  0  0  0  0  0  0  0  0  0
   14.0105    7.3382    5.7319 H   0  0  0  0  0  0  0  0  0  0  0  0
  1  2  2  0  0  0  0
  1  7  1  0  0  0  0
  2  3  1  0  0  0  0
  2  5  1  0  0  0  0
  3  4  2  0  0  0  0
  3  6  1  0  0  0  0
  4 72  1  0  0  0  0
  4 81  1  0  0  0  0
  5 82  1  0  0  0  0
  5 83  1  0  0  0  0
  5 84  1  0  0  0  0
  6  8  2  0  0  0  0
  6 73  1  0  0  0  0
  7 22  2  0  0  0  0
  7 75  1  0  0  0  0
  9 10  1  0  0  0  0
  9 12  2  0  0  0  0
 10 11  1  0  0  0  0
 10 21  2  0  0  0  0
 11 14  1  0  0  0  0
 12 74  1  0  0  0  0
 13 12  1  0  0  0  0
 13 14  2  0  0  0  0
 14 15  1  0  0  0  0
 15 16  2  0  0  0  0
 15 20  1  0  0  0  0
 16 17  1  0  0  0  0
 16 19  1  0  0  0  0
 17 18  2  0  0  0  0
 17 85  1  0  0  0  0
 18 13  1  0  0  0  0
 18 86  1  0  0  0  0
 20 87  1  0  0  0  0
 20 88  1  0  0  0  0
 20 89  1  0  0  0  0
 23 24  2  0  0  0  0
 23 26  1  0  0  0  0
 24 28  1  0  0  0  0
 24 76  1  0  0  0  0
 25 26  1  0  0  0  0
 26 35  2  0  0  0  0
 27 25  1  0  0  0  0
 27 28  2  0  0  0  0
 28 29  1  0  0  0  0
 29 30  2  0  0  0  0
 29 90  1  0  0  0  0
 30 31  1  0  0  0  0
 30 91  1  0  0  0  0
 31 32  2  0  0  0  0
 31 33  1  0  0  0  0
 32 27  1  0  0  0  0
 32 34  1  0  0  0  0
 34 92  1  0  0  0  0
 34 93  1  0  0  0  0
 34 94  1  0  0  0  0
 36 43  1  0  0  0  0
 36 47  1  0  0  0  0
 36 95  1  6  0  0  0
 36 33  1  0  0  0  0
 37 38  1  0  0  0  0
 37 42  1  0  0  0  0
 37 96  1  6  0  0  0
 37 19  1  0  0  0  0
 38 39  1  0  0  0  0
 39 40  1  0  0  0  0
 39 58  1  0  0  0  0
 39 59  1  0  0  0  0
 40 41  1  0  0  0  0
 40 97  1  6  0  0  0
 40 56  1  0  0  0  0
 41 42  1  0  0  0  0
 41 48  1  0  0  0  0
 41 98  1  6  0  0  0
 42 99  1  1  0  0  0
 42 77  1  0  0  0  0
 43 44  1  0  0  0  0
 44 45  1  0  0  0  0
 44 60  1  0  0  0  0
 44 61  1  0  0  0  0
 45 46  1  0  0  0  0
 45100  1  1  0  0  0
 45 70  1  0  0  0  0
 46 47  1  0  0  0  0
 46 62  1  0  0  0  0
 46101  1  1  0  0  0
 47102  1  1  0  0  0
 47 79  1  0  0  0  0
 48 49  1  0  0  0  0
 49 50  1  0  0  0  0
 49 51  2  0  0  0  0
 50 52  2  0  0  0  0
 52 53  1  0  0  0  0
 52103  1  0  0  0  0
 53 54  2  0  0  0  0
 53104  1  0  0  0  0
 54 55  1  0  0  0  0
 54 78  1  0  0  0  0
 55105  1  0  0  0  0
 55106  1  0  0  0  0
 55107  1  0  0  0  0
 56 57  1  0  0  0  0
 57108  1  0  0  0  0
 57109  1  0  0  0  0
 57110  1  0  0  0  0
 58111  1  0  0  0  0
 58112  1  0  0  0  0
 58113  1  0  0  0  0
 59114  1  0  0  0  0
 59115  1  0  0  0  0
 59116  1  0  0  0  0
 60117  1  0  0  0  0
 60118  1  0  0  0  0
 60119  1  0  0  0  0
 61120  1  0  0  0  0
 61121  1  0  0  0  0
 61122  1  0  0  0  0
 62 63  1  0  0  0  0
 63 64  2  0  0  0  0
 63 65  1  0  0  0  0
 65 66  2  0  0  0  0
 66 67  1  0  0  0  0
 66123  1  0  0  0  0
 67 68  2  0  0  0  0
 67124  1  0  0  0  0
 68 69  1  0  0  0  0
 68 80  1  0  0  0  0
 69125  1  0  0  0  0
 69126  1  0  0  0  0
 69127  1  0  0  0  0
 70 71  1  0  0  0  0
 71128  1  0  0  0  0
 71129  1  0  0  0  0
 71130  1  0  0  0  0
 72  1  1  0  0  0  0
 72131  1  0  0  0  0
 73  9  1  0  0  0  0
 73132  1  0  0  0  0
 74133  1  0  0  0  0
 75 23  1  0  0  0  0
 75134  1  0  0  0  0
 76135  1  0  0  0  0
 77136  1  0  0  0  0
 78 50  1  0  0  0  0
 78137  1  0  0  0  0
 79138  1  0  0  0  0
 80 65  1  0  0  0  0
 80139  1  0  0  0  0
M  END
>  <DRUGBANK_ID>
DB13912

>  <COMMON_NAME>
Coumermycin A1

>  <CAS_NUMBER>
4434-05-3

>  <UNII>
PCH9QZ1IIH

>  <SYNONYMS>
Coumamycin; Coumermycin; Notomycin A1

$$$$
