
 OpenBabel10282417103D

 44 45  0  0  1  0  0  0  0  0999 V2000
    0.8845    0.1431   -0.4622 C   0  0  3  0  0  0  0  0  0  0  0  0
    0.2933   -1.2058    0.1908 C   0  0  3  0  0  0  0  0  0  0  0  0
    0.9044    0.0310   -2.0054 C   0  0  0  0  0  0  0  0  0  0  0  0
    0.9117   -2.6372   -0.1627 C   0  0  0  0  0  0  0  0  0  0  0  0
    1.4301   -1.0826   -2.6726 C   0  0  0  0  0  0  0  0  0  0  0  0
    2.3369   -2.9172    0.1420 N   0  0  0  0  0  0  0  0  0  0  0  0
    2.1599    0.5731    0.0318 O   0  0  0  0  0  0  0  0  0  0  0  0
    1.2780   -1.3742   -4.0310 C   0  0  0  0  0  0  0  0  0  0  0  0
    0.0836    1.3262    0.1412 C   0  0  0  0  0  0  0  0  0  0  0  0
    0.2587    0.9604   -2.8190 C   0  0  0  0  0  0  0  0  0  0  0  0
   -1.2369   -1.2391   -0.1574 C   0  0  0  0  0  0  0  0  0  0  0  0
    1.7697   -2.4788   -4.6615 O   0  0  0  0  0  0  0  0  0  0  0  0
   -0.0026    0.6487   -4.1650 C   0  0  0  0  0  0  0  0  0  0  0  0
    0.5201   -0.4835   -4.7673 C   0  0  0  0  0  0  0  0  0  0  0  0
    2.8871   -4.1459   -0.3976 C   0  0  0  0  0  0  0  0  0  0  0  0
    3.2877   -1.8492   -0.0684 C   0  0  0  0  0  0  0  0  0  0  0  0
    2.4375   -3.4459   -3.8470 C   0  0  0  0  0  0  0  0  0  0  0  0
   -1.4022    1.2997   -0.1121 C   0  0  0  0  0  0  0  0  0  0  0  0
   -2.0064   -0.0108    0.3457 C   0  0  0  0  0  0  0  0  0  0  0  0
    0.3810   -1.1320    1.2853 H   0  0  0  0  0  0  0  0  0  0  0  0
    0.3316   -3.3852    0.4007 H   0  0  0  0  0  0  0  0  0  0  0  0
    0.6353   -2.9074   -1.1910 H   0  0  0  0  0  0  0  0  0  0  0  0
    1.9385   -1.8475   -2.1278 H   0  0  0  0  0  0  0  0  0  0  0  0
    2.8241    0.5653   -0.6718 H   0  0  0  0  0  0  0  0  0  0  0  0
    0.2408    1.3273    1.2348 H   0  0  0  0  0  0  0  0  0  0  0  0
    0.5148    2.2827   -0.1868 H   0  0  0  0  0  0  0  0  0  0  0  0
   -0.1107    1.8903   -2.4268 H   0  0  0  0  0  0  0  0  0  0  0  0
   -1.3646   -1.3092   -1.2463 H   0  0  0  0  0  0  0  0  0  0  0  0
   -1.7149   -2.1337    0.2575 H   0  0  0  0  0  0  0  0  0  0  0  0
   -0.6602    1.3123   -4.7237 H   0  0  0  0  0  0  0  0  0  0  0  0
    0.3361   -0.6884   -5.8210 H   0  0  0  0  0  0  0  0  0  0  0  0
    2.9240   -4.1500   -1.4825 H   0  0  0  0  0  0  0  0  0  0  0  0
    3.9282   -4.2547   -0.0671 H   0  0  0  0  0  0  0  0  0  0  0  0
    2.3420   -5.0246   -0.0543 H   0  0  0  0  0  0  0  0  0  0  0  0
    3.4058   -1.4985   -1.0989 H   0  0  0  0  0  0  0  0  0  0  0  0
    2.9814   -1.0891    0.6203 H   0  0  0  0  0  0  0  0  0  0  0  0
    4.3077   -2.0507    0.2572 H   0  0  0  0  0  0  0  0  0  0  0  0
    3.3113   -3.0102   -3.3444 H   0  0  0  0  0  0  0  0  0  0  0  0
    1.7328   -3.8853   -3.1318 H   0  0  0  0  0  0  0  0  0  0  0  0
    2.8079   -4.2680   -4.4658 H   0  0  0  0  0  0  0  0  0  0  0  0
   -1.6310    1.4408   -1.1681 H   0  0  0  0  0  0  0  0  0  0  0  0
   -1.8610    2.1501    0.4033 H   0  0  0  0  0  0  0  0  0  0  0  0
   -3.0414   -0.0466   -0.0122 H   0  0  0  0  0  0  0  0  0  0  0  0
   -2.0399   -0.0261    1.4403 H   0  0  0  0  0  0  0  0  0  0  0  0
  1  7  1  0  0  0  0
  2  1  1  0  0  0  0
  2  4  1  0  0  0  0
  2 20  1  0  0  0  0
  3  1  1  0  0  0  0
  4 21  1  0  0  0  0
  4 22  1  0  0  0  0
  5  3  2  0  0  0  0
  5 23  1  0  0  0  0
  6  4  1  0  0  0  0
  7 24  1  0  0  0  0
  8  5  1  0  0  0  0
  9  1  1  0  0  0  0
  9 25  1  0  0  0  0
  9 26  1  0  0  0  0
 10  3  1  0  0  0  0
 10 27  1  0  0  0  0
 11  2  1  0  0  0  0
 11 19  1  0  0  0  0
 11 28  1  0  0  0  0
 11 29  1  0  0  0  0
 12  8  1  0  0  0  0
 13 10  2  0  0  0  0
 13 14  1  0  0  0  0
 13 30  1  0  0  0  0
 14  8  2  0  0  0  0
 14 31  1  0  0  0  0
 15  6  1  0  0  0  0
 15 32  1  0  0  0  0
 15 33  1  0  0  0  0
 15 34  1  0  0  0  0
 16  6  1  0  0  0  0
 16 35  1  0  0  0  0
 16 36  1  0  0  0  0
 16 37  1  0  0  0  0
 17 12  1  0  0  0  0
 17 38  1  0  0  0  0
 17 39  1  0  0  0  0
 17 40  1  0  0  0  0
 18  9  1  0  0  0  0
 18 41  1  0  0  0  0
 18 42  1  0  0  0  0
 19 18  1  0  0  0  0
 19 43  1  0  0  0  0
 19 44  1  0  0  0  0
M  END
>  <DRUGBANK_ID>
DB00193

>  <SECONDARY_ACCESSION_NUMBERS>
APRD00028

>  <COMMON_NAME>
Tramadol

>  <CAS_NUMBER>
27203-92-5

>  <UNII>
39J1LGJ30J

>  <SYNONYMS>
Tramadol; Tramadolum

$$$$
