
 OpenBabel10282417173D

 26 27  0  0  0  0  0  0  0  0999 V2000
    1.0283    0.0885   -0.1994 F   0  0  0  0  0  0  0  0  0  0  0  0
    2.8075   -1.0141   -0.7830 F   0  0  0  0  0  0  0  0  0  0  0  0
    2.7906    1.1632   -0.8898 F   0  0  0  0  0  0  0  0  0  0  0  0
    3.6027    2.5275    4.1002 N   0  0  0  0  0  0  0  0  0  0  0  0
    3.8660    2.5346    5.4663 N   0  0  0  0  0  0  0  0  0  0  0  0
    4.1483   -0.5305    7.3334 N   0  0  0  0  0  0  0  0  0  0  0  0
    3.9729    0.3574    8.2349 N   0  0  0  0  0  0  0  0  0  0  0  0
    5.1283   -0.5963    5.2210 N   0  0  0  0  0  0  0  0  0  0  0  0
    4.7531    2.5575    8.4368 N   0  0  0  0  0  0  0  0  0  0  0  0
    2.8486    0.1820    1.2907 C   0  0  0  0  0  0  0  0  0  0  0  0
    3.0722    1.4478    3.3577 C   0  0  0  0  0  0  0  0  0  0  0  0
    2.9910    1.4241    1.9639 C   0  0  0  0  0  0  0  0  0  0  0  0
    2.9685   -1.0203    1.9955 C   0  0  0  0  0  0  0  0  0  0  0  0
    2.7661    0.2578    3.9870 C   0  0  0  0  0  0  0  0  0  0  0  0
    2.8818   -0.9753    3.3618 C   0  0  0  0  0  0  0  0  0  0  0  0
    2.3903    0.1084   -0.1364 C   0  0  0  0  0  0  0  0  0  0  0  0
    4.2723    1.5475    6.2182 C   0  0  0  0  0  0  0  0  0  0  0  0
    4.5484    0.0816    6.1541 C   0  0  0  0  0  0  0  0  0  0  0  0
    4.2991    1.5910    7.7085 C   0  0  0  0  0  0  0  0  0  0  0  0
    3.3397    3.4399    3.7062 H   0  0  0  0  0  0  0  0  0  0  0  0
    5.2917   -0.0046    4.3999 H   0  0  0  0  0  0  0  0  0  0  0  0
    5.0576    3.3275    7.8364 H   0  0  0  0  0  0  0  0  0  0  0  0
    3.0003    2.3425    1.3753 H   0  0  0  0  0  0  0  0  0  0  0  0
    3.0256   -1.9864    1.4980 H   0  0  0  0  0  0  0  0  0  0  0  0
    2.5590    0.2712    5.0418 H   0  0  0  0  0  0  0  0  0  0  0  0
    2.9328   -1.8736    3.9708 H   0  0  0  0  0  0  0  0  0  0  0  0
  1 16  1  0  0  0  0
  2 16  1  0  0  0  0
  3 16  1  0  0  0  0
  4  5  1  0  0  0  0
  4 11  1  0  0  0  0
  4 20  1  0  0  0  0
  5 17  2  0  0  0  0
  6  7  2  0  0  0  0
  6 18  1  0  0  0  0
  7 19  1  0  0  0  0
  8 18  2  0  0  0  0
  8 21  1  0  0  0  0
  9 19  2  0  0  0  0
  9 22  1  0  0  0  0
 10 12  2  0  0  0  0
 10 13  1  0  0  0  0
 10 16  1  0  0  0  0
 11 12  1  0  0  0  0
 11 14  2  0  0  0  0
 12 23  1  0  0  0  0
 13 15  2  0  0  0  0
 13 24  1  0  0  0  0
 14 15  1  0  0  0  0
 14 25  1  0  0  0  0
 15 26  1  0  0  0  0
 17 18  1  0  0  0  0
 17 19  1  0  0  0  0
M  END
>  <DRUGBANK_ID>
DB08666

>  <COMMON_NAME>
5-imino-4-(3-trifluoromethyl-phenylazo)-5H-pyrazol-3-ylamine

$$$$
