
 OpenBabel10282417133D

  9  9  0  0  0  0  0  0  0  0999 V2000
   -0.3236    1.0397    0.0031 C   0  0  0  0  0  0  0  0  0  0  0  0
   -1.1698    0.0357    0.0007 N   0  0  0  0  0  0  0  0  0  0  0  0
   -0.3920   -1.0932   -0.0006 C   0  0  0  0  0  0  0  0  0  0  0  0
    0.9427   -0.7642    0.0025 C   0  0  0  0  0  0  0  0  0  0  0  0
    0.9707    0.6030   -0.0014 N   0  0  0  0  0  0  0  0  0  0  0  0
   -0.5845    2.0896    0.0078 H   0  0  0  0  0  0  0  0  0  0  0  0
   -0.8343   -2.0810   -0.0024 H   0  0  0  0  0  0  0  0  0  0  0  0
    1.8418   -1.3633    0.0056 H   0  0  0  0  0  0  0  0  0  0  0  0
    1.7936    1.1895   -0.0053 H   0  0  0  0  0  0  0  0  0  0  0  0
  1  2  2  0  0  0  0
  1  6  1  0  0  0  0
  2  3  1  0  0  0  0
  3  4  2  0  0  0  0
  3  7  1  0  0  0  0
  4  5  1  0  0  0  0
  4  8  1  0  0  0  0
  5  1  1  0  0  0  0
  5  9  1  0  0  0  0
M  END
>  <DRUGBANK_ID>
DB03366

>  <SECONDARY_ACCESSION_NUMBERS>
EXPT01865

>  <COMMON_NAME>
Imidazole

>  <CAS_NUMBER>
288-32-4

>  <UNII>
7GBN705NH1

$$$$
