1509
 OpenBabel10282417113D

 26 27  0  0  1  0  0  0  0  0999 V2000
   -1.4774   -1.1529   -0.0689 O   0  0  0  0  0  0  0  0  0  0  0  0
   -1.4637    1.2573    0.0287 O   0  0  0  0  0  0  0  0  0  0  0  0
    2.5606   -3.4326    1.3186 N   0  0  0  0  0  0  0  0  0  0  0  0
    3.4531   -1.4881   -0.0369 C   0  0  0  0  0  0  0  0  0  0  0  0
    3.6047   -2.4040    1.2072 C   0  0  3  0  0  0  0  0  0  0  0  0
    2.1638   -0.6930   -0.0734 C   0  0  0  0  0  0  0  0  0  0  0  0
    0.9353   -1.3625   -0.1856 C   0  0  0  0  0  0  0  0  0  0  0  0
   -0.2250   -0.6312   -0.0952 C   0  0  0  0  0  0  0  0  0  0  0  0
    2.1745    0.7163    0.0029 C   0  0  0  0  0  0  0  0  0  0  0  0
   -0.2076    0.7355   -0.0138 C   0  0  0  0  0  0  0  0  0  0  0  0
    4.9483   -3.1277    1.1669 C   0  0  0  0  0  0  0  0  0  0  0  0
    0.9752    1.4432    0.0107 C   0  0  0  0  0  0  0  0  0  0  0  0
   -2.2559    0.0498    0.0744 C   0  0  0  0  0  0  0  0  0  0  0  0
    2.7301   -4.0179    2.1343 H   0  0  0  0  0  0  0  0  0  0  0  0
    1.6721   -2.9712    1.5160 H   0  0  0  0  0  0  0  0  0  0  0  0
    3.5289   -2.0721   -0.9630 H   0  0  0  0  0  0  0  0  0  0  0  0
    4.3023   -0.7899   -0.0545 H   0  0  0  0  0  0  0  0  0  0  0  0
    3.5631   -1.7839    2.1113 H   0  0  0  0  0  0  0  0  0  0  0  0
    0.8766   -2.4367   -0.3149 H   0  0  0  0  0  0  0  0  0  0  0  0
    3.1183    1.2563    0.0516 H   0  0  0  0  0  0  0  0  0  0  0  0
    5.7767   -2.4128    1.1674 H   0  0  0  0  0  0  0  0  0  0  0  0
    5.0692   -3.7773    2.0414 H   0  0  0  0  0  0  0  0  0  0  0  0
    5.0360   -3.7510    0.2694 H   0  0  0  0  0  0  0  0  0  0  0  0
    0.9775    2.5260    0.0495 H   0  0  0  0  0  0  0  0  0  0  0  0
   -2.9970    0.0731   -0.7315 H   0  0  0  0  0  0  0  0  0  0  0  0
   -2.7802    0.0166    1.0371 H   0  0  0  0  0  0  0  0  0  0  0  0
  1  8  1  0  0  0  0
  1 13  1  0  0  0  0
  2 10  1  0  0  0  0
  2 13  1  0  0  0  0
  3  5  1  0  0  0  0
  3 14  1  0  0  0  0
  3 15  1  0  0  0  0
  4  5  1  0  0  0  0
  4  6  1  0  0  0  0
  4 16  1  0  0  0  0
  4 17  1  0  0  0  0
  5 11  1  0  0  0  0
  5 18  1  0  0  0  0
  6  7  2  0  0  0  0
  6  9  1  0  0  0  0
  7  8  1  0  0  0  0
  7 19  1  0  0  0  0
  8 10  2  0  0  0  0
  9 12  2  0  0  0  0
  9 20  1  0  0  0  0
 10 12  1  0  0  0  0
 11 21  1  0  0  0  0
 11 22  1  0  0  0  0
 11 23  1  0  0  0  0
 12 24  1  0  0  0  0
 13 25  1  0  0  0  0
 13 26  1  0  0  0  0
M  END
>  <DRUGBANK_ID>
DB01509

>  <COMMON_NAME>
Tenamfetamine

>  <CAS_NUMBER>
4764-17-4

>  <UNII>
XJZ28FJ27W

>  <SYNONYMS>
3,4-methylenedioxyamphetamine; MDA; Methylenedioxyamphetamine; Tenamfetamina; Tenamfetamine; Tenamfetaminum

$$$$
