
 OpenBabel10282417133D

 40 40  0  0  0  0  0  0  0  0999 V2000
    0.3271    1.2325   -0.1739 O   0  0  0  0  0  0  0  0  0  0  0  0
    1.1984    0.0900    0.2457 C   0  0  2  0  0  0  0  0  0  0  0  0
    0.6591   -1.2425   -0.3336 C   0  0  1  0  0  0  0  0  0  0  0  0
   -0.8440   -1.3693   -0.0192 C   0  0  2  0  0  0  0  0  0  0  0  0
   -1.6619   -0.1788   -0.5278 C   0  0  0  0  0  0  0  0  0  0  0  0
   -1.8034    2.4223   -0.7446 C   0  0  0  0  0  0  0  0  0  0  0  0
   -1.0618   -1.5152    1.3898 O   0  0  0  0  0  0  0  0  0  0  0  0
   -1.4412    3.6536   -0.2579 O   0  0  0  0  0  0  0  0  0  0  0  0
   -2.7498    2.3340   -1.5509 O   0  0  0  0  0  0  0  0  0  0  0  0
    1.6803    0.0131    1.8037 C   0  0  1  0  0  0  0  0  0  0  0  0
    1.3598    1.2437    2.7018 C   0  0  1  0  0  0  0  0  0  0  0  0
    1.2798   -1.1961    2.4710 O   0  0  0  0  0  0  0  0  0  0  0  0
   -0.0741    1.5760    2.6157 C   0  0  0  0  0  0  0  0  0  0  0  0
    1.5098    0.9985    4.0879 O   0  0  0  0  0  0  0  0  0  0  0  0
   -0.9555    0.5268    3.0260 O   0  0  0  0  0  0  0  0  0  0  0  0
    2.1632    0.2662   -0.2716 H   0  0  0  0  0  0  0  0  0  0  0  0
   -1.1474    1.1673   -0.0910 C   0  0  2  0  0  0  0  0  0  0  0  0
   -1.9546    1.6255    1.0698 O   0  0  0  0  0  0  0  0  0  0  0  0
    0.8486   -1.3235   -1.7936 N   0  0  0  0  0  0  0  0  0  0  0  0
    1.3375   -2.4328   -3.9080 C   0  0  0  0  0  0  0  0  0  0  0  0
    1.3692   -2.4464   -2.4012 C   0  0  0  0  0  0  0  0  0  0  0  0
    1.8264   -3.3970   -1.7788 O   0  0  0  0  0  0  0  0  0  0  0  0
    1.2072   -2.0835    0.1162 H   0  0  0  0  0  0  0  0  0  0  0  0
   -1.2291   -2.2782   -0.4923 H   0  0  0  0  0  0  0  0  0  0  0  0
   -1.6481   -0.1951   -1.6173 H   0  0  0  0  0  0  0  0  0  0  0  0
   -2.6876   -0.2896   -0.1676 H   0  0  0  0  0  0  0  0  0  0  0  0
   -1.9882   -1.8220    1.5000 H   0  0  0  0  0  0  0  0  0  0  0  0
   -0.8764    3.6605    0.5442 H   0  0  0  0  0  0  0  0  0  0  0  0
    2.7776   -0.0763    1.8217 H   0  0  0  0  0  0  0  0  0  0  0  0
    1.9236    2.1219    2.3569 H   0  0  0  0  0  0  0  0  0  0  0  0
    0.3933   -1.4829    2.1881 H   0  0  0  0  0  0  0  0  0  0  0  0
   -0.4416    2.5470    2.9353 H   0  0  0  0  0  0  0  0  0  0  0  0
   -0.0922    1.7117    1.5867 H   0  0  0  0  0  0  0  0  0  0  0  0
    0.7144    0.4548    4.2997 H   0  0  0  0  0  0  0  0  0  0  0  0
   -0.8809   -0.2413    2.4176 H   0  0  0  0  0  0  0  0  0  0  0  0
   -2.0247    1.0309    1.8389 H   0  0  0  0  0  0  0  0  0  0  0  0
    0.4439   -0.5988   -2.3737 H   0  0  0  0  0  0  0  0  0  0  0  0
    2.3634   -2.4636   -4.2843 H   0  0  0  0  0  0  0  0  0  0  0  0
    0.7958   -3.3173   -4.2580 H   0  0  0  0  0  0  0  0  0  0  0  0
    0.8408   -1.5443   -4.3057 H   0  0  0  0  0  0  0  0  0  0  0  0
  2  1  1  0  0  0  0
  2  3  1  0  0  0  0
  2 16  1  6  0  0  0
  2 10  1  0  0  0  0
  3 19  1  0  0  0  0
  3  4  1  0  0  0  0
  3 23  1  1  0  0  0
  4  5  1  0  0  0  0
  4 24  1  6  0  0  0
  4  7  1  0  0  0  0
  5 25  1  0  0  0  0
  5 26  1  0  0  0  0
  6  8  1  0  0  0  0
  6  9  2  0  0  0  0
  7 27  1  0  0  0  0
  8 28  1  0  0  0  0
 10 11  1  0  0  0  0
 10 12  1  0  0  0  0
 10 29  1  6  0  0  0
 11 13  1  0  0  0  0
 11 14  1  0  0  0  0
 11 30  1  6  0  0  0
 12 31  1  0  0  0  0
 13 15  1  0  0  0  0
 13 32  1  0  0  0  0
 13 33  1  0  0  0  0
 14 34  1  0  0  0  0
 15 35  1  0  0  0  0
 17  1  1  0  0  0  0
 17  5  1  0  0  0  0
 17 18  1  1  0  0  0
 17  6  1  0  0  0  0
 18 36  1  0  0  0  0
 19 21  1  0  0  0  0
 19 37  1  0  0  0  0
 20 38  1  0  0  0  0
 20 39  1  0  0  0  0
 20 40  1  0  0  0  0
 21 20  1  0  0  0  0
 21 22  2  0  0  0  0
M  END
>  <DRUGBANK_ID>
DB03721

>  <SECONDARY_ACCESSION_NUMBERS>
EXPT02292; EXPT02908; EXPT02909; DB01894; DB02344

>  <COMMON_NAME>
N-acetyl-alpha-neuraminic acid

>  <CAS_NUMBER>
21646-00-4

>  <UNII>
04A90EXP8V

>  <SYNONYMS>
N-Acetyl-alpha-D-neuraminic acid; O-sialic acid; Î±-Neu5Ac

$$$$
