
 OpenBabel10282417193D

 37 39  0  0  0  0  0  0  0  0999 V2000
    0.9880    0.1846   -0.0072 C   0  0  0  0  0  0  0  0  0  0  0  0
    0.4957    0.9763    1.1008 N   0  0  0  0  0  0  0  0  0  0  0  0
   -0.0399    0.5951    2.3296 C   0  0  0  0  0  0  0  0  0  0  0  0
   -0.1962    1.7771    3.0814 C   0  0  0  0  0  0  0  0  0  0  0  0
    0.2697    2.8769    2.2917 C   0  0  0  0  0  0  0  0  0  0  0  0
    0.6551    2.3590    1.0777 C   0  0  0  0  0  0  0  0  0  0  0  0
    1.1726    3.1911    0.0214 C   0  0  0  0  0  0  0  0  0  0  0  0
    1.3648    2.8115   -1.1381 O   0  0  0  0  0  0  0  0  0  0  0  0
    1.4855    4.6119    0.3848 C   0  0  0  0  0  0  0  0  0  0  0  0
    1.1484    5.1719    1.5662 C   0  0  0  0  0  0  0  0  0  0  0  0
    0.3630    4.3047    2.5830 C   0  0  0  0  0  0  0  0  0  0  0  0
   -0.1716    4.8067    3.5723 O   0  0  0  0  0  0  0  0  0  0  0  0
    1.1569    6.4827    1.9766 N   0  0  0  0  0  0  0  0  0  0  0  0
    1.3065    7.7604    1.3837 C   0  0  0  0  0  0  0  0  0  0  0  0
    2.1405    7.3034    2.6116 C   0  0  0  0  0  0  0  0  0  0  0  0
   -0.7174    1.8670    4.4884 C   0  0  0  0  0  0  0  0  0  0  0  0
   -2.0469    1.3628    4.5874 O   0  0  0  0  0  0  0  0  0  0  0  0
   -0.3557   -0.7376    2.7716 C   0  0  0  0  0  0  0  0  0  0  0  0
   -0.2533   -1.8911    2.1000 C   0  0  0  0  0  0  0  0  0  0  0  0
   -0.5941   -3.2518    2.5959 C   0  0  0  0  0  0  0  0  0  0  0  0
   -1.5596   -3.7994    1.7091 O   0  0  0  0  0  0  0  0  0  0  0  0
    0.6108    0.5973   -0.9428 H   0  0  0  0  0  0  0  0  0  0  0  0
    0.6472   -0.8313   -0.0271 H   0  0  0  0  0  0  0  0  0  0  0  0
    2.0801    0.1877    0.0319 H   0  0  0  0  0  0  0  0  0  0  0  0
    1.9644    5.1640   -0.4119 H   0  0  0  0  0  0  0  0  0  0  0  0
    1.8746    7.9894    0.4941 H   0  0  0  0  0  0  0  0  0  0  0  0
    0.3984    8.3301    1.5420 H   0  0  0  0  0  0  0  0  0  0  0  0
    1.8235    7.6214    3.5993 H   0  0  0  0  0  0  0  0  0  0  0  0
    3.2102    7.2626    2.4441 H   0  0  0  0  0  0  0  0  0  0  0  0
   -0.0815    1.2756    5.1561 H   0  0  0  0  0  0  0  0  0  0  0  0
   -0.7223    2.8879    4.8736 H   0  0  0  0  0  0  0  0  0  0  0  0
   -2.5686    1.8733    3.9447 H   0  0  0  0  0  0  0  0  0  0  0  0
   -0.7431   -0.8134    3.7913 H   0  0  0  0  0  0  0  0  0  0  0  0
    0.0994   -1.9834    1.0971 H   0  0  0  0  0  0  0  0  0  0  0  0
    0.3010   -3.8802    2.5442 H   0  0  0  0  0  0  0  0  0  0  0  0
   -0.9857   -3.2631    3.6139 H   0  0  0  0  0  0  0  0  0  0  0  0
   -2.3230   -3.1961    1.7177 H   0  0  0  0  0  0  0  0  0  0  0  0
  1  2  1  0  0  0  0
  1 22  1  0  0  0  0
  1 23  1  0  0  0  0
  1 24  1  0  0  0  0
  2  3  1  0  0  0  0
  2  6  1  0  0  0  0
  3  4  2  0  0  0  0
  3 18  1  0  0  0  0
  4  5  1  0  0  0  0
  4 16  1  0  0  0  0
  5  6  2  0  0  0  0
  5 11  1  0  0  0  0
  6  7  1  0  0  0  0
  7  8  2  0  0  0  0
  7  9  1  0  0  0  0
  9 10  2  0  0  0  0
  9 25  1  0  0  0  0
 10 11  1  0  0  0  0
 10 13  1  0  0  0  0
 11 12  2  0  0  0  0
 13 14  1  0  0  0  0
 13 15  1  0  0  0  0
 14 15  1  0  0  0  0
 14 26  1  0  0  0  0
 14 27  1  0  0  0  0
 15 28  1  0  0  0  0
 15 29  1  0  0  0  0
 16 17  1  0  0  0  0
 16 30  1  0  0  0  0
 16 31  1  0  0  0  0
 17 32  1  0  0  0  0
 18 19  2  0  0  0  0
 18 33  1  0  0  0  0
 19 20  1  0  0  0  0
 19 34  1  0  0  0  0
 20 21  1  0  0  0  0
 20 35  1  0  0  0  0
 20 36  1  0  0  0  0
 21 37  1  0  0  0  0
M  END
>  <DRUGBANK_ID>
DB12593

>  <COMMON_NAME>
Apaziquone

>  <CAS_NUMBER>
114560-48-4

>  <UNII>
H464ZO600O

>  <SYNONYMS>
Apaziquone; EOQUIN

$$$$
