5282443
 OpenBabel10282417103D

 43 45  0  0  0  0  0  0  0  0999 V2000
   -0.9991    0.3330    0.0742 N   0  0  0  0  0  0  0  0  0  0  0  0
    2.1582   -0.5427    3.6693 N   0  0  0  0  0  0  0  0  0  0  0  0
   -0.7250   -1.0303   -0.3430 C   0  0  0  0  0  0  0  0  0  0  0  0
    0.2349    1.1217   -0.0844 C   0  0  0  0  0  0  0  0  0  0  0  0
    1.3624    0.1121   -0.2325 C   0  0  0  0  0  0  0  0  0  0  0  0
    0.7280   -1.2457    0.0181 C   0  0  0  0  0  0  0  0  0  0  0  0
   -1.5051    0.4121    1.4397 C   0  0  0  0  0  0  0  0  0  0  0  0
   -0.5869   -0.0221    2.5614 C   0  0  0  0  0  0  0  0  0  0  0  0
    0.0326    0.6989    3.5394 C   0  0  0  0  0  0  0  0  0  0  0  0
   -0.2826    2.1396    3.7868 C   0  0  0  0  0  0  0  0  0  0  0  0
    1.0664   -0.0597    4.3239 C   0  0  0  0  0  0  0  0  0  0  0  0
   -1.4514    2.7581    3.3253 C   0  0  0  0  0  0  0  0  0  0  0  0
    0.5484    2.9282    4.5924 C   0  0  0  0  0  0  0  0  0  0  0  0
    0.9270   -0.1690    5.7042 C   0  0  0  0  0  0  0  0  0  0  0  0
   -0.8816    4.8664    4.2608 C   0  0  0  0  0  0  0  0  0  0  0  0
   -1.6904    4.1130    3.4343 C   0  0  0  0  0  0  0  0  0  0  0  0
    0.2204    4.2608    4.8704 C   0  0  0  0  0  0  0  0  0  0  0  0
    1.9404   -0.7696    6.4469 C   0  0  0  0  0  0  0  0  0  0  0  0
   -1.2799    6.2725    4.5514 C   0  0  0  0  0  0  0  0  0  0  0  0
    3.1273   -1.1288    4.4194 C   0  0  0  0  0  0  0  0  0  0  0  0
    3.0655   -1.2598    5.7982 C   0  0  0  0  0  0  0  0  0  0  0  0
   -0.8634   -1.0878   -1.4281 H   0  0  0  0  0  0  0  0  0  0  0  0
   -1.4129   -1.7526    0.1099 H   0  0  0  0  0  0  0  0  0  0  0  0
    0.4255    1.8191    0.7434 H   0  0  0  0  0  0  0  0  0  0  0  0
    0.1629    1.7541   -0.9774 H   0  0  0  0  0  0  0  0  0  0  0  0
    2.1780    0.3139    0.4690 H   0  0  0  0  0  0  0  0  0  0  0  0
    1.7562    0.1502   -1.2517 H   0  0  0  0  0  0  0  0  0  0  0  0
    0.8539   -1.5183    1.0677 H   0  0  0  0  0  0  0  0  0  0  0  0
    1.1813   -2.0512   -0.5581 H   0  0  0  0  0  0  0  0  0  0  0  0
   -1.7662    1.4554    1.4432 H   0  0  0  0  0  0  0  0  0  0  0  0
   -2.4604   -0.1169    1.5446 H   0  0  0  0  0  0  0  0  0  0  0  0
   -0.3905   -1.0913    2.5612 H   0  0  0  0  0  0  0  0  0  0  0  0
   -2.2805    2.2134    2.9006 H   0  0  0  0  0  0  0  0  0  0  0  0
    1.4355    2.5101    5.0609 H   0  0  0  0  0  0  0  0  0  0  0  0
    0.0501    0.2370    6.1935 H   0  0  0  0  0  0  0  0  0  0  0  0
   -2.5551    4.5360    2.9300 H   0  0  0  0  0  0  0  0  0  0  0  0
    0.8298    4.8159    5.5780 H   0  0  0  0  0  0  0  0  0  0  0  0
    1.8503   -0.8411    7.5268 H   0  0  0  0  0  0  0  0  0  0  0  0
   -1.5479    6.3597    5.6075 H   0  0  0  0  0  0  0  0  0  0  0  0
   -0.4673    6.9541    4.2974 H   0  0  0  0  0  0  0  0  0  0  0  0
   -2.1605    6.5555    3.9619 H   0  0  0  0  0  0  0  0  0  0  0  0
    3.9917   -1.4999    3.8722 H   0  0  0  0  0  0  0  0  0  0  0  0
    3.8708   -1.7292    6.3540 H   0  0  0  0  0  0  0  0  0  0  0  0
  1  3  1  0  0  0  0
  1  4  1  0  0  0  0
  1  7  1  0  0  0  0
  2 11  1  0  0  0  0
  2 20  2  0  0  0  0
  3  6  1  0  0  0  0
  3 22  1  0  0  0  0
  3 23  1  0  0  0  0
  4  5  1  0  0  0  0
  4 24  1  0  0  0  0
  4 25  1  0  0  0  0
  5  6  1  0  0  0  0
  5 26  1  0  0  0  0
  5 27  1  0  0  0  0
  6 28  1  0  0  0  0
  6 29  1  0  0  0  0
  7  8  1  0  0  0  0
  7 30  1  0  0  0  0
  7 31  1  0  0  0  0
  8  9  2  0  0  0  0
  8 32  1  0  0  0  0
  9 10  1  0  0  0  0
  9 11  1  0  0  0  0
 10 12  2  0  0  0  0
 10 13  1  0  0  0  0
 11 14  2  0  0  0  0
 12 16  1  0  0  0  0
 12 33  1  0  0  0  0
 13 17  2  0  0  0  0
 13 34  1  0  0  0  0
 14 18  1  0  0  0  0
 14 35  1  0  0  0  0
 15 16  2  0  0  0  0
 15 17  1  0  0  0  0
 15 19  1  0  0  0  0
 16 36  1  0  0  0  0
 17 37  1  0  0  0  0
 18 21  2  0  0  0  0
 18 38  1  0  0  0  0
 19 39  1  0  0  0  0
 19 40  1  0  0  0  0
 19 41  1  0  0  0  0
 20 21  1  0  0  0  0
 20 42  1  0  0  0  0
 21 43  1  0  0  0  0
M  END
>  <DRUGBANK_ID>
DB00427

>  <SECONDARY_ACCESSION_NUMBERS>
APRD00306

>  <COMMON_NAME>
Triprolidine

>  <CAS_NUMBER>
486-12-4

>  <UNII>
2L8T9S52QM

>  <SYNONYMS>
(E)-2-[3-(1-pyrrolidinyl)-1-p-toluenepropenyl]pyridine; trans-1-(2-pyridyl)-3-pyrrolidino-1-p-tolylprop-1-ene; trans-1-(4-methylphenyl)-1-(2-pyridyl)-3-pyrrolidinoprop-1-ene; Tripolidina; Triprolidin; Triprolidina; Triprolidine; Triprolidinum

$$$$
