
 OpenBabel10282417143D

 21 17  0  0  0  0  0  0  0  0999 V2000
    0.9381    0.0300    0.0726 Pt  0  2  0  0  0  0  0  0  0  0  0  0
    1.0467    0.0313    0.0827 Cl  0  5  0  0  0  0  0  0  0  0  0  0
    1.0481   -0.0097   -0.0871 Cl  0  5  0  0  0  0  0  0  0  0  0  0
    0.3520    1.1310    0.0020 N   0  0  0  0  0  0  0  0  0  0  0  0
    0.9258    0.0520   -0.0423 N   0  0  0  0  0  0  0  0  0  0  0  0
    0.9350   -0.0690   -0.0010 C   0  0  0  0  0  0  0  0  0  0  0  0
    0.1950   -1.2490    0.0120 C   0  0  0  0  0  0  0  0  0  0  0  0
    2.4420   -0.0980   -0.0070 C   0  0  0  0  0  0  0  0  0  0  0  0
   -1.1880   -1.1660   -0.0050 C   0  0  0  0  0  0  0  0  0  0  0  0
   -1.8060    0.0650   -0.0070 C   0  0  0  0  0  0  0  0  0  0  0  0
   -0.9880    1.2000    0.0050 C   0  0  0  0  0  0  0  0  0  0  0  0
    0.5858    0.5363   -0.8731 H   0  0  0  0  0  0  0  0  0  0  0  0
    0.5858   -0.9097   -0.0463 H   0  0  0  0  0  0  0  0  0  0  0  0
    1.9458    0.0520   -0.0423 H   0  0  0  0  0  0  0  0  0  0  0  0
    0.6846   -2.2002    0.0347 H   0  0  0  0  0  0  0  0  0  0  0  0
    2.8048    0.3999   -0.8818 H   0  0  0  0  0  0  0  0  0  0  0  0
    2.8118    0.3989    0.8655 H   0  0  0  0  0  0  0  0  0  0  0  0
    2.7792   -1.1135   -0.0089 H   0  0  0  0  0  0  0  0  0  0  0  0
   -1.7767   -2.0594   -0.0166 H   0  0  0  0  0  0  0  0  0  0  0  0
   -2.8726    0.1501   -0.0174 H   0  0  0  0  0  0  0  0  0  0  0  0
   -1.4509    2.1646    0.0171 H   0  0  0  0  0  0  0  0  0  0  0  0
  4  6  1  0  0  0  0
  4 11  2  0  0  0  0
  5 12  1  0  0  0  0
  5 13  1  0  0  0  0
  5 14  1  0  0  0  0
  6  7  2  0  0  0  0
  6  8  1  0  0  0  0
  7  9  1  0  0  0  0
  7 15  1  0  0  0  0
  8 16  1  0  0  0  0
  8 17  1  0  0  0  0
  8 18  1  0  0  0  0
  9 10  2  0  0  0  0
  9 19  1  0  0  0  0
 10 11  1  0  0  0  0
 10 20  1  0  0  0  0
 11 21  1  0  0  0  0
M  CHG  3   1   2   2  -1   3  -1
M  END
>  <DRUGBANK_ID>
DB04874

>  <COMMON_NAME>
Picoplatin

>  <CAS_NUMBER>
181630-15-9

>  <UNII>
B5TAN0L720

>  <SYNONYMS>
(SP-4-3)-Amminedichloro(2-methylpyridine)platinium; Picoplatin

$$$$
