
 OpenBabel10282417123D

 52 55  0  0  0  0  0  0  0  0999 V2000
    1.2132    0.5427    0.0180 C   0  0  0  0  0  0  0  0  0  0  0  0
    2.4276    1.3061   -0.0049 C   0  0  0  0  0  0  0  0  0  0  0  0
    3.6975    0.7034   -0.0068 C   0  0  0  0  0  0  0  0  0  0  0  0
    3.7973   -0.6749   -0.0035 C   0  0  0  0  0  0  0  0  0  0  0  0
    2.6349   -1.4397   -0.0075 C   0  0  0  0  0  0  0  0  0  0  0  0
    1.3561   -0.8499   -0.0008 C   0  0  0  0  0  0  0  0  0  0  0  0
    0.0105   -2.0209    0.0006 S   0  0  0  0  0  0  0  0  0  0  0  0
   -1.4487   -1.0269   -0.0127 C   0  0  0  0  0  0  0  0  0  0  0  0
   -1.4503    0.3372   -0.0078 C   0  0  0  0  0  0  0  0  0  0  0  0
   -0.2050    1.1361    0.0611 C   0  0  0  0  0  0  0  0  0  0  0  0
   -2.7141    0.9362   -0.0133 C   0  0  0  0  0  0  0  0  0  0  0  0
   -2.6930   -1.6887   -0.0102 C   0  0  0  0  0  0  0  0  0  0  0  0
   -3.9285   -1.0169   -0.0088 C   0  0  0  0  0  0  0  0  0  0  0  0
   -3.9386    0.3307   -0.0132 C   0  0  0  0  0  0  0  0  0  0  0  0
   -0.3528    2.4292    0.2264 C   0  0  0  0  0  0  0  0  0  0  0  0
   -1.5072    3.4939    0.2006 C   0  0  0  0  0  0  0  0  0  0  0  0
   -1.4821    4.4712    1.3842 C   0  0  0  0  0  0  0  0  0  0  0  0
   -0.3273    5.2943    1.2367 N   0  0  0  0  0  0  0  0  0  0  0  0
   -0.2966    7.6985    0.4500 C   0  0  0  0  0  0  0  0  0  0  0  0
   -0.1821    6.6866    1.6440 C   0  0  0  0  0  0  0  0  0  0  0  0
    0.2858    5.1263   -0.0479 C   0  0  0  0  0  0  0  0  0  0  0  0
   -0.1642    6.0305   -1.1647 C   0  0  0  0  0  0  0  0  0  0  0  0
    0.3381    7.3351   -0.8507 N   0  0  0  0  0  0  0  0  0  0  0  0
    1.8264    7.3483   -0.9359 C   0  0  0  0  0  0  0  0  0  0  0  0
    2.7735    6.4631   -0.0669 C   0  0  0  0  0  0  0  0  0  0  0  0
    2.9390    5.1404   -0.6145 O   0  0  0  0  0  0  0  0  0  0  0  0
   -5.3452    1.3214   -0.0025 Cl  0  0  0  0  0  0  0  0  0  0  0  0
    2.4613    2.3943   -0.0104 H   0  0  0  0  0  0  0  0  0  0  0  0
    4.5981    1.3179   -0.0035 H   0  0  0  0  0  0  0  0  0  0  0  0
    4.7676   -1.1630    0.0029 H   0  0  0  0  0  0  0  0  0  0  0  0
    2.7227   -2.5232   -0.0074 H   0  0  0  0  0  0  0  0  0  0  0  0
   -2.8832    1.9514   -0.0026 H   0  0  0  0  0  0  0  0  0  0  0  0
   -2.6990   -2.7671   -0.0019 H   0  0  0  0  0  0  0  0  0  0  0  0
   -4.8712   -1.5372   -0.0011 H   0  0  0  0  0  0  0  0  0  0  0  0
    0.6263    2.8908    0.3607 H   0  0  0  0  0  0  0  0  0  0  0  0
   -1.4351    3.9099   -0.8172 H   0  0  0  0  0  0  0  0  0  0  0  0
   -2.5714    3.4257    0.0798 H   0  0  0  0  0  0  0  0  0  0  0  0
   -2.4211    5.0326    1.3925 H   0  0  0  0  0  0  0  0  0  0  0  0
   -1.4442    3.8711    2.3057 H   0  0  0  0  0  0  0  0  0  0  0  0
   -1.3778    7.7876    0.2553 H   0  0  0  0  0  0  0  0  0  0  0  0
    0.0561    8.6893    0.7313 H   0  0  0  0  0  0  0  0  0  0  0  0
   -0.7736    6.9841    2.5163 H   0  0  0  0  0  0  0  0  0  0  0  0
    0.8451    6.7758    2.0126 H   0  0  0  0  0  0  0  0  0  0  0  0
    1.2482    4.9462    0.3796 H   0  0  0  0  0  0  0  0  0  0  0  0
    0.3391    4.2494   -0.6761 H   0  0  0  0  0  0  0  0  0  0  0  0
   -1.2645    6.0122   -1.2696 H   0  0  0  0  0  0  0  0  0  0  0  0
    0.1822    5.6375   -2.1326 H   0  0  0  0  0  0  0  0  0  0  0  0
    2.0599    7.0667   -1.9742 H   0  0  0  0  0  0  0  0  0  0  0  0
    2.1267    8.3861   -0.8137 H   0  0  0  0  0  0  0  0  0  0  0  0
    3.7890    6.8437   -0.0527 H   0  0  0  0  0  0  0  0  0  0  0  0
    2.4714    6.4271    0.9849 H   0  0  0  0  0  0  0  0  0  0  0  0
    2.1944    4.9757   -1.2199 H   0  0  0  0  0  0  0  0  0  0  0  0
  1  2  1  0  0  0  0
  1  6  2  0  0  0  0
  1 10  1  0  0  0  0
  2  3  2  0  0  0  0
  2 28  1  0  0  0  0
  3  4  1  0  0  0  0
  3 29  1  0  0  0  0
  4  5  2  0  0  0  0
  4 30  1  0  0  0  0
  5  6  1  0  0  0  0
  5 31  1  0  0  0  0
  6  7  1  0  0  0  0
  7  8  1  0  0  0  0
  8  9  2  0  0  0  0
  8 12  1  0  0  0  0
  9 10  1  0  0  0  0
 10 15  2  0  0  0  0
 11  9  1  0  0  0  0
 11 14  2  0  0  0  0
 11 32  1  0  0  0  0
 12 13  2  0  0  0  0
 12 33  1  0  0  0  0
 13 14  1  0  0  0  0
 13 34  1  0  0  0  0
 14 27  1  0  0  0  0
 15 16  1  0  0  0  0
 15 35  1  0  0  0  0
 16 17  1  0  0  0  0
 16 36  1  0  0  0  0
 16 37  1  0  0  0  0
 17 18  1  0  0  0  0
 17 38  1  0  0  0  0
 17 39  1  0  0  0  0
 18 21  1  0  0  0  0
 19 20  1  0  0  0  0
 19 23  1  0  0  0  0
 19 40  1  0  0  0  0
 19 41  1  0  0  0  0
 20 18  1  0  0  0  0
 20 42  1  0  0  0  0
 20 43  1  0  0  0  0
 21 22  1  0  0  0  0
 21 44  1  0  0  0  0
 21 45  1  0  0  0  0
 22 23  1  0  0  0  0
 22 46  1  0  0  0  0
 22 47  1  0  0  0  0
 23 24  1  0  0  0  0
 24 25  1  0  0  0  0
 24 48  1  0  0  0  0
 24 49  1  0  0  0  0
 25 26  1  0  0  0  0
 25 50  1  0  0  0  0
 25 51  1  0  0  0  0
 26 52  1  0  0  0  0
M  END
>  <DRUGBANK_ID>
DB01624

>  <SECONDARY_ACCESSION_NUMBERS>
DB08919; DB08920

>  <COMMON_NAME>
Zuclopenthixol

>  <CAS_NUMBER>
53772-83-1

>  <UNII>
47ISU063SG

>  <SYNONYMS>
(Z)-4-(3-(2-Chlorothioxanthen-9-ylidene)propyl)-1-piperazineethanol; Zuclopenthixol; Zuclopenthixolum; Zuclopentixol

$$$$
