
 OpenBabel10282417133D

 24 24  0  0  1  0  0  0  0  0999 V2000
    1.0766    0.0928    0.1126 C   0  0  0  0  0  0  0  0  0  0  0  0
    0.3608   -0.1946    1.4399 C   0  0  2  0  0  0  0  0  0  0  0  0
   -0.1848   -1.6444    1.5266 C   0  0  2  0  0  0  0  0  0  0  0  0
   -1.4577   -1.7910    0.6518 C   0  0  1  0  0  0  0  0  0  0  0  0
   -2.4919   -0.7190    1.0170 C   0  0  2  0  0  0  0  0  0  0  0  0
   -1.8479    0.6870    0.9533 C   0  0  1  0  0  0  0  0  0  0  0  0
   -0.4495   -1.9757    2.9444 N   0  0  0  0  0  0  0  0  0  0  0  0
   -1.1687   -1.7910   -0.7497 O   0  0  0  0  0  0  0  0  0  0  0  0
   -3.0095   -0.9862    2.3348 O   0  0  0  0  0  0  0  0  0  0  0  0
   -2.8007    1.6386    1.4139 O   0  0  0  0  0  0  0  0  0  0  0  0
   -0.6534    0.7905    1.7202 O   0  0  0  0  0  0  0  0  0  0  0  0
    1.1166   -0.0644    2.2262 H   0  0  0  0  0  0  0  0  0  0  0  0
    0.5886   -2.3379    1.1773 H   0  0  0  0  0  0  0  0  0  0  0  0
   -1.8872   -2.7808    0.8443 H   0  0  0  0  0  0  0  0  0  0  0  0
   -3.3423   -0.7423    0.3264 H   0  0  0  0  0  0  0  0  0  0  0  0
   -1.6167    0.9462   -0.0856 H   0  0  0  0  0  0  0  0  0  0  0  0
    0.7115    1.0011   -0.3731 H   0  0  0  0  0  0  0  0  0  0  0  0
    1.0066   -0.7387   -0.5943 H   0  0  0  0  0  0  0  0  0  0  0  0
    2.1517    0.2118    0.2860 H   0  0  0  0  0  0  0  0  0  0  0  0
   -0.7001   -2.9562    3.0491 H   0  0  0  0  0  0  0  0  0  0  0  0
   -1.2678   -1.4306    3.2545 H   0  0  0  0  0  0  0  0  0  0  0  0
   -1.0112   -0.8851   -1.0644 H   0  0  0  0  0  0  0  0  0  0  0  0
   -3.2922   -1.9162    2.3630 H   0  0  0  0  0  0  0  0  0  0  0  0
   -2.5953    2.4842    0.9811 H   0  0  0  0  0  0  0  0  0  0  0  0
  1 17  1  0  0  0  0
  1 18  1  0  0  0  0
  1 19  1  0  0  0  0
  2  1  1  0  0  0  0
  2 12  1  1  0  0  0
  3  2  1  0  0  0  0
  3 13  1  6  0  0  0
  3  7  1  0  0  0  0
  4  3  1  0  0  0  0
  4  8  1  0  0  0  0
  4 14  1  1  0  0  0
  5  4  1  0  0  0  0
  5 15  1  6  0  0  0
  5  9  1  0  0  0  0
  6  5  1  0  0  0  0
  6 16  1  6  0  0  0
  6 10  1  0  0  0  0
  7 20  1  0  0  0  0
  7 21  1  0  0  0  0
  8 22  1  0  0  0  0
  9 23  1  0  0  0  0
 10 24  1  0  0  0  0
 11  2  1  0  0  0  0
 11  6  1  0  0  0  0
M  END
>  <DRUGBANK_ID>
DB03439

>  <SECONDARY_ACCESSION_NUMBERS>
EXPT00456

>  <COMMON_NAME>
4,6-dideoxy-4-amino-alpha-D-glucose

$$$$
