
 OpenBabel10282417203D

 28 29  0  0  0  0  0  0  0  0999 V2000
   -0.6603   -1.2445    0.0281 N   0  0  0  0  0  0  0  0  0  0  0  0
   -1.4678   -0.1034    0.0232 C   0  0  0  0  0  0  0  0  0  0  0  0
   -0.7825    1.1043    0.1309 N   0  0  0  0  0  0  0  0  0  0  0  0
    0.7270   -1.1170    0.1029 C   0  0  0  0  0  0  0  0  0  0  0  0
    1.3537    0.0563    0.0145 C   0  0  0  0  0  0  0  0  0  0  0  0
    0.5676    1.2920   -0.0245 C   0  0  0  0  0  0  0  0  0  0  0  0
   -3.0010   -3.9154    0.6149 C   0  0  1  0  0  0  0  0  0  0  0  0
   -1.5262   -3.6040    0.8684 C   0  0  2  0  0  0  0  0  0  0  0  0
   -1.1675   -2.6094   -0.2510 C   0  0  1  0  0  0  0  0  0  0  0  0
   -2.1932   -2.6781   -1.2622 O   0  0  0  0  0  0  0  0  0  0  0  0
   -3.1469   -3.6947   -0.8864 C   0  0  2  0  0  0  0  0  0  0  0  0
   -4.5540   -3.2335   -1.2397 C   0  0  0  0  0  0  0  0  0  0  0  0
   -0.7105   -4.7873    0.6661 O   0  0  0  0  0  0  0  0  0  0  0  0
   -3.3786   -5.2334    1.0088 O   0  0  0  0  0  0  0  0  0  0  0  0
   -2.6887   -0.1033   -0.0844 O   0  0  0  0  0  0  0  0  0  0  0  0
    1.0827    2.4019   -0.1690 O   0  0  0  0  0  0  0  0  0  0  0  0
    2.6936    0.1510   -0.0635 F   0  0  0  0  0  0  0  0  0  0  0  0
   -1.3394    1.9466    0.1225 H   0  0  0  0  0  0  0  0  0  0  0  0
    1.3159   -2.0250    0.1714 H   0  0  0  0  0  0  0  0  0  0  0  0
   -3.6310   -3.2060    1.1629 H   0  0  0  0  0  0  0  0  0  0  0  0
   -1.3361   -3.2700    1.8919 H   0  0  0  0  0  0  0  0  0  0  0  0
   -0.3074   -3.0566   -0.7581 H   0  0  0  0  0  0  0  0  0  0  0  0
   -2.9417   -4.6280   -1.4332 H   0  0  0  0  0  0  0  0  0  0  0  0
   -4.7469   -2.2477   -0.8042 H   0  0  0  0  0  0  0  0  0  0  0  0
   -4.6729   -3.1346   -2.3229 H   0  0  0  0  0  0  0  0  0  0  0  0
   -5.3148   -3.9304   -0.8714 H   0  0  0  0  0  0  0  0  0  0  0  0
   -0.6922   -4.9848   -0.2894 H   0  0  0  0  0  0  0  0  0  0  0  0
   -4.1562   -5.5092    0.4924 H   0  0  0  0  0  0  0  0  0  0  0  0
  2  1  1  0  0  0  0
  3  2  1  0  0  0  0
  3 18  1  0  0  0  0
  4  1  1  0  0  0  0
  4 19  1  0  0  0  0
  5  4  2  0  0  0  0
  6  3  1  0  0  0  0
  6  5  1  0  0  0  0
  7 20  1  1  0  0  0
  7 14  1  0  0  0  0
  8  7  1  0  0  0  0
  8 21  1  1  0  0  0
  8 13  1  0  0  0  0
  9  1  1  0  0  0  0
  9  8  1  0  0  0  0
  9 22  1  6  0  0  0
 10  9  1  0  0  0  0
 11  7  1  0  0  0  0
 11 10  1  0  0  0  0
 11 23  1  6  0  0  0
 11 12  1  0  0  0  0
 12 24  1  0  0  0  0
 12 25  1  0  0  0  0
 12 26  1  0  0  0  0
 13 27  1  0  0  0  0
 14 28  1  0  0  0  0
 15  2  2  0  0  0  0
 16  6  2  0  0  0  0
 17  5  1  0  0  0  0
M  END
>  <DRUGBANK_ID>
DB12947

>  <COMMON_NAME>
Doxifluridine

>  <CAS_NUMBER>
3094-09-5

>  <UNII>
V1JK16Y2JP

>  <SYNONYMS>
1-(Î²-D-5-desoxyribofuranoxyl)-5-fluoruracil; 5-fluoro-5'-deoxyuridine; 5'-deoxy-5-fluorouridine; 5'-DFUR; Doxifluridina; Doxifluridine; Doxifluridinum

$$$$
