785
 OpenBabel10282417133D

 35 37  0  0  0  0  0  0  0  0999 V2000
    2.1682    0.7630   -0.0209 C   0  0  0  0  0  0  0  0  0  0  0  0
    2.1645   -0.6517   -0.0029 C   0  0  0  0  0  0  0  0  0  0  0  0
    0.9844   -1.4162    0.0125 C   0  0  0  0  0  0  0  0  0  0  0  0
   -0.2129   -0.7102    0.0007 C   0  0  0  0  0  0  0  0  0  0  0  0
   -0.2702    0.6727   -0.0345 C   0  0  0  0  0  0  0  0  0  0  0  0
    0.9201    1.4162   -0.0247 C   0  0  0  0  0  0  0  0  0  0  0  0
    3.4356    1.5404   -0.0536 C   0  0  0  0  0  0  0  0  0  0  0  0
    3.4279    2.8626   -0.0749 N   0  0  0  0  0  0  0  0  0  0  0  0
    4.6024    0.9322   -0.0759 N   0  3  0  0  0  0  0  0  0  0  0  0
   -1.5291   -1.0920    0.0421 N   0  0  0  0  0  0  0  0  0  0  0  0
   -1.5565    1.1238   -0.0955 N   0  0  0  0  0  0  0  0  0  0  0  0
   -2.3107    0.0407    0.0126 C   0  0  0  0  0  0  0  0  0  0  0  0
   -3.7773   -0.0347    0.0285 C   0  0  0  0  0  0  0  0  0  0  0  0
   -4.4476    0.6041   -1.0359 C   0  0  0  0  0  0  0  0  0  0  0  0
   -5.8339    0.5936   -1.1275 C   0  0  0  0  0  0  0  0  0  0  0  0
   -6.5758    1.1875   -2.1102 O   0  0  0  0  0  0  0  0  0  0  0  0
   -5.8592    1.8860   -3.1141 C   0  0  0  0  0  0  0  0  0  0  0  0
   -5.1216    2.8944   -2.5982 F   0  0  0  0  0  0  0  0  0  0  0  0
   -5.0577    1.0556   -3.8192 F   0  0  0  0  0  0  0  0  0  0  0  0
   -6.7423    2.4330   -3.9833 F   0  0  0  0  0  0  0  0  0  0  0  0
   -6.5529   -0.0688   -0.1408 C   0  0  0  0  0  0  0  0  0  0  0  0
   -5.8829   -0.7065    0.9170 C   0  0  0  0  0  0  0  0  0  0  0  0
   -4.4776   -0.7381    1.0461 C   0  0  0  0  0  0  0  0  0  0  0  0
   -3.9150   -1.3600    2.0148 O   0  5  0  0  0  0  0  0  0  0  0  0
    3.0846   -1.2277    0.0065 H   0  0  0  0  0  0  0  0  0  0  0  0
    1.0060   -2.5013    0.0365 H   0  0  0  0  0  0  0  0  0  0  0  0
    0.7954    2.4904   -0.0219 H   0  0  0  0  0  0  0  0  0  0  0  0
    4.2748    3.4103   -0.1045 H   0  0  0  0  0  0  0  0  0  0  0  0
    2.5624    3.3857   -0.0587 H   0  0  0  0  0  0  0  0  0  0  0  0
    4.6689   -0.0775   -0.0641 H   0  0  0  0  0  0  0  0  0  0  0  0
    5.4783    1.4339   -0.1045 H   0  0  0  0  0  0  0  0  0  0  0  0
   -1.9181   -2.0214    0.1286 H   0  0  0  0  0  0  0  0  0  0  0  0
   -3.8265    1.0896   -1.7806 H   0  0  0  0  0  0  0  0  0  0  0  0
   -7.6381   -0.1040   -0.1716 H   0  0  0  0  0  0  0  0  0  0  0  0
   -6.4827   -1.2042    1.6808 H   0  0  0  0  0  0  0  0  0  0  0  0
  1  2  2  0  0  0  0
  1  6  1  0  0  0  0
  1  7  1  0  0  0  0
  2  3  1  0  0  0  0
  2 25  1  0  0  0  0
  3  4  2  0  0  0  0
  3 26  1  0  0  0  0
  4  5  1  0  0  0  0
  4 10  1  0  0  0  0
  5  6  2  0  0  0  0
  5 11  1  0  0  0  0
  6 27  1  0  0  0  0
  7  8  1  0  0  0  0
  7  9  2  0  0  0  0
  8 28  1  0  0  0  0
  8 29  1  0  0  0  0
  9 30  1  0  0  0  0
  9 31  1  0  0  0  0
 10 12  1  0  0  0  0
 10 32  1  0  0  0  0
 11 12  2  0  0  0  0
 12 13  1  0  0  0  0
 13 14  2  0  0  0  0
 13 23  1  0  0  0  0
 14 15  1  0  0  0  0
 14 33  1  0  0  0  0
 15 16  1  0  0  0  0
 15 21  2  0  0  0  0
 16 17  1  0  0  0  0
 17 18  1  0  0  0  0
 17 19  1  0  0  0  0
 17 20  1  0  0  0  0
 21 22  1  0  0  0  0
 21 34  1  0  0  0  0
 22 23  2  0  0  0  0
 22 35  1  0  0  0  0
 23 24  1  0  0  0  0
M  CHG  2   9   1  24  -1
M  END
>  <DRUGBANK_ID>
DB03595

>  <SECONDARY_ACCESSION_NUMBERS>
EXPT00302

>  <COMMON_NAME>
CRA_9785

$$$$
