F9F
 OpenBabel10282417163D

 33 33  0  0  0  0  0  0  0  0999 V2000
    1.3592   -0.2556    0.0279 C   0  0  0  0  0  0  0  0  0  0  0  0
    0.4207   -1.2819   -0.0803 C   0  0  0  0  0  0  0  0  0  0  0  0
   -0.9375   -0.9823   -0.3175 C   0  0  0  0  0  0  0  0  0  0  0  0
   -1.3812    0.3568   -0.3556 C   0  0  0  0  0  0  0  0  0  0  0  0
   -0.4623    1.3711   -0.1012 C   0  0  0  0  0  0  0  0  0  0  0  0
    0.9028    1.0688    0.0099 C   0  0  0  0  0  0  0  0  0  0  0  0
    2.7134   -0.4118    0.1510 O   0  0  0  0  0  0  0  0  0  0  0  0
    3.2125   -1.7375    0.2822 C   0  0  0  0  0  0  0  0  0  0  0  0
    2.6895   -2.3437    1.3705 F   0  0  0  0  0  0  0  0  0  0  0  0
    2.9358   -2.4747   -0.8157 F   0  0  0  0  0  0  0  0  0  0  0  0
    4.5553   -1.6983    0.4309 F   0  0  0  0  0  0  0  0  0  0  0  0
   -3.0429    0.8917   -0.8932 S   0  0  0  0  0  0  0  0  0  0  0  0
   -3.7466    1.5221    0.4996 N   0  0  0  0  0  0  0  0  0  0  0  0
   -5.2165    1.6783    0.7159 C   0  0  0  0  0  0  0  0  0  0  0  0
   -5.9979    0.3502    0.8551 C   0  0  0  0  0  0  0  0  0  0  0  0
   -5.7061   -0.4234    2.0513 O   0  0  0  0  0  0  0  0  0  0  0  0
   -4.0113   -0.7091    2.2483 P   0  0  0  0  0  0  0  0  0  0  0  0
   -3.7979   -1.1871    0.7569 O   0  0  0  0  0  0  0  0  0  0  0  0
   -3.7146    0.7087    2.7001 O   0  0  0  0  0  0  0  0  0  0  0  0
   -2.3165   -0.9948    2.4454 O   0  0  0  0  0  0  0  0  0  0  0  0
   -2.8651    1.9947   -1.7798 O   0  0  0  0  0  0  0  0  0  0  0  0
   -3.7536   -0.2926   -1.3788 O   0  0  0  0  0  0  0  0  0  0  0  0
    0.7159   -2.3286   -0.0192 H   0  0  0  0  0  0  0  0  0  0  0  0
   -1.6230   -1.8238   -0.4075 H   0  0  0  0  0  0  0  0  0  0  0  0
   -0.8031    2.4009   -0.0335 H   0  0  0  0  0  0  0  0  0  0  0  0
    1.6126    1.8927    0.0520 H   0  0  0  0  0  0  0  0  0  0  0  0
   -3.2505    1.4383    1.4069 H   0  0  0  0  0  0  0  0  0  0  0  0
   -5.3635    2.2407    1.6538 H   0  0  0  0  0  0  0  0  0  0  0  0
   -5.6065    2.2998   -0.0890 H   0  0  0  0  0  0  0  0  0  0  0  0
   -7.0718    0.5617    0.8770 H   0  0  0  0  0  0  0  0  0  0  0  0
   -5.8334   -0.2839   -0.0174 H   0  0  0  0  0  0  0  0  0  0  0  0
   -4.1093   -2.0632    0.4710 H   0  0  0  0  0  0  0  0  0  0  0  0
   -1.8477   -0.6393    1.6860 H   0  0  0  0  0  0  0  0  0  0  0  0
  1  2  1  0  0  0  0
  1  6  2  0  0  0  0
  1  7  1  0  0  0  0
  2  3  2  0  0  0  0
  2 23  1  0  0  0  0
  3  4  1  0  0  0  0
  3 24  1  0  0  0  0
  4  5  2  0  0  0  0
  4 12  1  0  0  0  0
  5  6  1  0  0  0  0
  5 25  1  0  0  0  0
  6 26  1  0  0  0  0
  7  8  1  0  0  0  0
  8  9  1  0  0  0  0
  8 10  1  0  0  0  0
  8 11  1  0  0  0  0
 12 13  1  0  0  0  0
 12 21  2  0  0  0  0
 12 22  2  0  0  0  0
 13 14  1  0  0  0  0
 13 27  1  0  0  0  0
 14 15  1  0  0  0  0
 14 28  1  0  0  0  0
 14 29  1  0  0  0  0
 15 16  1  0  0  0  0
 15 30  1  0  0  0  0
 15 31  1  0  0  0  0
 16 17  1  0  0  0  0
 17 18  1  0  0  0  0
 17 19  2  0  0  0  0
 17 20  1  0  0  0  0
 18 32  1  0  0  0  0
 20 33  1  0  0  0  0
M  END
>  <DRUGBANK_ID>
DB07748

>  <COMMON_NAME>
2-({[4-(TRIFLUOROMETHOXY)PHENYL]SULFONYL}AMINO)ETHYL DIHYDROGEN PHOSPHATE

$$$$
