
 OpenBabel10282417203D

 52 53  0  0  0  0  0  0  0  0999 V2000
    0.9256    0.0385    0.0503 C   0  0  0  0  0  0  0  0  0  0  0  0
    0.4143    1.3418    0.6900 C   0  0  0  0  0  0  0  0  0  0  0  0
    0.9479    2.5279   -0.1185 C   0  0  0  0  0  0  0  0  0  0  0  0
   -1.1133    1.3394    0.6866 C   0  0  0  0  0  0  0  0  0  0  0  0
    0.9071    1.3727    2.1316 C   0  0  0  0  0  0  0  0  0  0  0  0
    1.6230    0.4952    2.6061 O   0  0  0  0  0  0  0  0  0  0  0  0
    0.4191    2.4928    2.8198 O   0  0  0  0  0  0  0  0  0  0  0  0
    0.9376    2.7245    4.1027 C   0  0  0  0  0  0  0  0  0  0  0  0
    2.2505    2.4235    4.3838 C   0  0  0  0  0  0  0  0  0  0  0  0
    2.6823    2.5455    5.6806 C   0  0  0  0  0  0  0  0  0  0  0  0
    2.0364    3.3492    6.5903 C   0  0  0  0  0  0  0  0  0  0  0  0
    0.6971    3.6414    6.3363 C   0  0  0  0  0  0  0  0  0  0  0  0
    0.1264    3.2593    5.1081 C   0  0  0  0  0  0  0  0  0  0  0  0
    2.7482    3.7817    8.1488 S   0  0  0  0  0  0  0  0  0  0  0  0
    2.6842    5.2262    8.3226 O   0  0  0  0  0  0  0  0  0  0  0  0
    1.9784    2.9709    9.0465 O   0  0  0  0  0  0  0  0  0  0  0  0
    4.4441    3.3899    8.2666 N   0  0  0  0  0  0  0  0  0  0  0  0
    5.2189    2.6147    7.3210 C   0  0  0  0  0  0  0  0  0  0  0  0
    5.3494    3.3103    6.0986 C   0  0  0  0  0  0  0  0  0  0  0  0
    5.8595    2.7082    4.9545 C   0  0  0  0  0  0  0  0  0  0  0  0
    6.4567    1.4674    5.0584 C   0  0  0  0  0  0  0  0  0  0  0  0
    6.4794    0.8109    6.2996 C   0  0  0  0  0  0  0  0  0  0  0  0
    5.7820    1.3019    7.4489 C   0  0  0  0  0  0  0  0  0  0  0  0
    5.7384    0.2602    8.5890 C   0  0  0  0  0  0  0  0  0  0  0  0
    6.3586   -0.8010    8.4641 O   0  0  0  0  0  0  0  0  0  0  0  0
    5.0382    0.3823    9.7724 N   0  0  0  0  0  0  0  0  0  0  0  0
    3.9535    1.2644   10.0292 C   0  0  0  0  0  0  0  0  0  0  0  0
    2.5264    0.8490   10.3130 C   0  0  0  0  0  0  0  0  0  0  0  0
    1.8185    1.3164   11.1935 O   0  0  0  0  0  0  0  0  0  0  0  0
    2.0016    0.2185    9.2262 O   0  0  0  0  0  0  0  0  0  0  0  0
    0.5750   -0.0669   -0.9802 H   0  0  0  0  0  0  0  0  0  0  0  0
    0.5840   -0.8367    0.6162 H   0  0  0  0  0  0  0  0  0  0  0  0
    2.0228    0.0076    0.0391 H   0  0  0  0  0  0  0  0  0  0  0  0
    0.6064    2.4666   -1.1594 H   0  0  0  0  0  0  0  0  0  0  0  0
    0.6035    3.4851    0.2865 H   0  0  0  0  0  0  0  0  0  0  0  0
    2.0435    2.5481   -0.1294 H   0  0  0  0  0  0  0  0  0  0  0  0
   -1.5029    0.5052    1.2803 H   0  0  0  0  0  0  0  0  0  0  0  0
   -1.5154    2.2643    1.1147 H   0  0  0  0  0  0  0  0  0  0  0  0
   -1.5000    1.2460   -0.3329 H   0  0  0  0  0  0  0  0  0  0  0  0
    2.9352    1.9854    3.6652 H   0  0  0  0  0  0  0  0  0  0  0  0
    3.5268    1.9369    5.9283 H   0  0  0  0  0  0  0  0  0  0  0  0
    0.0839    4.0909    7.1165 H   0  0  0  0  0  0  0  0  0  0  0  0
   -0.9415    3.3699    4.9548 H   0  0  0  0  0  0  0  0  0  0  0  0
    4.8208    3.4104    9.2137 H   0  0  0  0  0  0  0  0  0  0  0  0
    4.8446    4.2705    5.9913 H   0  0  0  0  0  0  0  0  0  0  0  0
    5.7223    3.1932    3.9910 H   0  0  0  0  0  0  0  0  0  0  0  0
    6.8839    1.0023    4.1711 H   0  0  0  0  0  0  0  0  0  0  0  0
    7.0411   -0.1269    6.3418 H   0  0  0  0  0  0  0  0  0  0  0  0
    5.0894   -0.4282   10.3769 H   0  0  0  0  0  0  0  0  0  0  0  0
    4.2793    2.0969   10.6618 H   0  0  0  0  0  0  0  0  0  0  0  0
    3.7834    1.6010    9.0302 H   0  0  0  0  0  0  0  0  0  0  0  0
    1.0893    0.5784    9.1627 H   0  0  0  0  0  0  0  0  0  0  0  0
  1  2  1  0  0  0  0
  1 31  1  0  0  0  0
  1 32  1  0  0  0  0
  1 33  1  0  0  0  0
  2  3  1  0  0  0  0
  2  4  1  0  0  0  0
  2  5  1  0  0  0  0
  3 34  1  0  0  0  0
  3 35  1  0  0  0  0
  3 36  1  0  0  0  0
  4 37  1  0  0  0  0
  4 38  1  0  0  0  0
  4 39  1  0  0  0  0
  5  6  2  0  0  0  0
  5  7  1  0  0  0  0
  7  8  1  0  0  0  0
  8  9  2  0  0  0  0
  8 13  1  0  0  0  0
  9 10  1  0  0  0  0
  9 40  1  0  0  0  0
 10 11  2  0  0  0  0
 10 41  1  0  0  0  0
 11 12  1  0  0  0  0
 11 14  1  0  0  0  0
 12 13  2  0  0  0  0
 12 42  1  0  0  0  0
 13 43  1  0  0  0  0
 14 15  2  0  0  0  0
 14 16  2  0  0  0  0
 14 17  1  0  0  0  0
 17 18  1  0  0  0  0
 17 44  1  0  0  0  0
 18 19  2  0  0  0  0
 18 23  1  0  0  0  0
 19 20  1  0  0  0  0
 19 45  1  0  0  0  0
 20 21  2  0  0  0  0
 20 46  1  0  0  0  0
 21 22  1  0  0  0  0
 21 47  1  0  0  0  0
 22 23  2  0  0  0  0
 22 48  1  0  0  0  0
 23 24  1  0  0  0  0
 24 25  2  0  0  0  0
 24 26  1  0  0  0  0
 26 27  1  0  0  0  0
 26 49  1  0  0  0  0
 27 28  1  0  0  0  0
 27 50  1  0  0  0  0
 27 51  1  0  0  0  0
 28 29  2  0  0  0  0
 28 30  1  0  0  0  0
 30 52  1  0  0  0  0
M  END
>  <DRUGBANK_ID>
DB12863

>  <COMMON_NAME>
Sivelestat

>  <CAS_NUMBER>
127373-66-4

>  <UNII>
DWI62G0P59

>  <SYNONYMS>
Sivelestat

$$$$
