
 OpenBabel10282417153D

 58 63  0  0  1  0  0  0  0  0999 V2000
    0.9972   -0.1084    0.0599 C   0  0  0  0  0  0  0  0  0  0  0  0
    0.5072    0.2559   -1.2542 N   0  0  0  0  0  0  0  0  0  0  0  0
   -0.4596   -0.5577   -1.8861 C   0  0  0  0  0  0  0  0  0  0  0  0
   -0.3348   -1.9474   -1.7152 C   0  0  0  0  0  0  0  0  0  0  0  0
   -1.2353   -2.8339   -2.2887 C   0  0  0  0  0  0  0  0  0  0  0  0
   -2.2879   -2.3453   -3.0454 C   0  0  0  0  0  0  0  0  0  0  0  0
   -2.4318   -0.9739   -3.2347 C   0  0  0  0  0  0  0  0  0  0  0  0
   -1.5198   -0.0719   -2.6652 C   0  0  0  0  0  0  0  0  0  0  0  0
   -1.7645    1.3675   -2.9192 C   0  0  0  0  0  0  0  0  0  0  0  0
   -0.8618    2.2453   -3.1518 N   0  0  0  0  0  0  0  0  0  0  0  0
    0.5483    1.9589   -3.0863 C   0  0  1  0  0  0  0  0  0  0  0  0
    1.0294    1.4320   -1.7559 C   0  0  0  0  0  0  0  0  0  0  0  0
    1.9608    1.9954   -1.1703 O   0  0  0  0  0  0  0  0  0  0  0  0
    1.1151    1.3855   -4.2149 N   0  0  0  0  0  0  0  0  0  0  0  0
    2.2356    2.2426   -5.0008 C   0  0  0  0  0  0  0  0  0  0  0  0
    2.4416    1.4469   -5.9628 O   0  0  0  0  0  0  0  0  0  0  0  0
    3.2363    3.7979   -4.7999 C   0  0  0  0  0  0  0  0  0  0  0  0
    3.4540    5.6865   -4.2280 C   0  0  0  0  0  0  0  0  0  0  0  0
    4.7335    5.6947   -4.0044 C   0  0  0  0  0  0  0  0  0  0  0  0
    5.1378    5.5106   -2.6582 C   0  0  0  0  0  0  0  0  0  0  0  0
    4.3657    4.4259   -2.1558 C   0  0  0  0  0  0  0  0  0  0  0  0
    2.9074    4.0464   -2.6919 C   0  0  0  0  0  0  0  0  0  0  0  0
    1.8134    4.8316   -3.8803 C   0  0  0  0  0  0  0  0  0  0  0  0
    3.4923    5.1666   -4.6511 C   0  0  0  0  0  0  0  0  0  0  0  0
    4.1843    4.3445   -5.5031 N   0  0  0  0  0  0  0  0  0  0  0  0
    3.9542    3.8979   -6.8162 C   0  0  0  0  0  0  0  0  0  0  0  0
    2.8249    4.9733   -7.0342 C   0  0  0  0  0  0  0  0  0  0  0  0
    1.5088    5.0069   -5.7155 C   0  0  0  0  0  0  0  0  0  0  0  0
   -3.1656    1.8706   -2.9021 C   0  0  0  0  0  0  0  0  0  0  0  0
   -3.6983    2.5175   -4.0203 C   0  0  0  0  0  0  0  0  0  0  0  0
   -4.9049    3.2070   -3.9061 C   0  0  0  0  0  0  0  0  0  0  0  0
   -5.6644    3.0803   -2.7485 C   0  0  0  0  0  0  0  0  0  0  0  0
   -5.2206    2.2552   -1.7160 C   0  0  0  0  0  0  0  0  0  0  0  0
   -3.9250    1.7406   -1.7413 C   0  0  0  0  0  0  0  0  0  0  0  0
    0.6362   -1.0767    0.3990 H   0  0  0  0  0  0  0  0  0  0  0  0
    0.6357    0.6467    0.7661 H   0  0  0  0  0  0  0  0  0  0  0  0
    2.0906   -0.1055    0.0559 H   0  0  0  0  0  0  0  0  0  0  0  0
    0.5013   -2.3680   -1.1605 H   0  0  0  0  0  0  0  0  0  0  0  0
   -1.1027   -3.9015   -2.1431 H   0  0  0  0  0  0  0  0  0  0  0  0
   -2.9967   -3.0329   -3.4944 H   0  0  0  0  0  0  0  0  0  0  0  0
   -3.2617   -0.6168   -3.8401 H   0  0  0  0  0  0  0  0  0  0  0  0
    1.0290    2.8824   -3.2120 H   0  0  0  0  0  0  0  0  0  0  0  0
    0.7423    0.4091   -4.3880 H   0  0  0  0  0  0  0  0  0  0  0  0
    2.8476    6.5220   -3.5065 H   0  0  0  0  0  0  0  0  0  0  0  0
    6.0147    5.9319   -2.1570 H   0  0  0  0  0  0  0  0  0  0  0  0
    4.9356    3.5631   -1.7515 H   0  0  0  0  0  0  0  0  0  0  0  0
    3.5888    3.0468   -3.1594 H   0  0  0  0  0  0  0  0  0  0  0  0
    5.0343    3.8357   -6.5101 H   0  0  0  0  0  0  0  0  0  0  0  0
    4.5456    3.8274   -7.7213 H   0  0  0  0  0  0  0  0  0  0  0  0
    3.3561    5.9491   -7.1123 H   0  0  0  0  0  0  0  0  0  0  0  0
    2.2969    4.7637   -7.9611 H   0  0  0  0  0  0  0  0  0  0  0  0
    1.0408    5.9974   -5.8615 H   0  0  0  0  0  0  0  0  0  0  0  0
    0.9651    4.0995   -5.9094 H   0  0  0  0  0  0  0  0  0  0  0  0
   -3.1781    2.4931   -4.9720 H   0  0  0  0  0  0  0  0  0  0  0  0
   -5.2636    3.8375   -4.7148 H   0  0  0  0  0  0  0  0  0  0  0  0
   -6.6046    3.6193   -2.6619 H   0  0  0  0  0  0  0  0  0  0  0  0
   -5.8804    2.0335   -0.8839 H   0  0  0  0  0  0  0  0  0  0  0  0
   -3.5130    1.2519   -0.8635 H   0  0  0  0  0  0  0  0  0  0  0  0
  1  2  1  0  0  0  0
  1 35  1  0  0  0  0
  1 36  1  0  0  0  0
  1 37  1  0  0  0  0
  2  3  1  0  0  0  0
  2 12  1  0  0  0  0
  3  4  2  0  0  0  0
  3  8  1  0  0  0  0
  4  5  1  0  0  0  0
  4 38  1  0  0  0  0
  5  6  2  0  0  0  0
  5 39  1  0  0  0  0
  6  7  1  0  0  0  0
  6 40  1  0  0  0  0
  7  8  2  0  0  0  0
  7 41  1  0  0  0  0
  8  9  1  0  0  0  0
  9 10  2  0  0  0  0
  9 29  1  0  0  0  0
 10 11  1  0  0  0  0
 11 12  1  0  0  0  0
 11 14  1  0  0  0  0
 11 42  1  6  0  0  0
 12 13  2  0  0  0  0
 14 15  1  0  0  0  0
 14 43  1  0  0  0  0
 15 16  2  0  0  0  0
 15 17  1  0  0  0  0
 17 18  2  0  0  0  0
 17 25  1  0  0  0  0
 18 19  1  0  0  0  0
 18 44  1  0  0  0  0
 19 20  2  0  0  0  0
 19 24  1  0  0  0  0
 20 21  1  0  0  0  0
 20 45  1  0  0  0  0
 21 22  2  0  0  0  0
 21 46  1  0  0  0  0
 22 23  1  0  0  0  0
 22 47  1  0  0  0  0
 23 24  2  0  0  0  0
 23 28  1  0  0  0  0
 24 25  1  0  0  0  0
 25 26  1  0  0  0  0
 26 27  1  0  0  0  0
 26 48  1  0  0  0  0
 26 49  1  0  0  0  0
 27 28  1  0  0  0  0
 27 50  1  0  0  0  0
 27 51  1  0  0  0  0
 28 52  1  0  0  0  0
 28 53  1  0  0  0  0
 29 30  2  0  0  0  0
 29 34  1  0  0  0  0
 30 31  1  0  0  0  0
 30 54  1  0  0  0  0
 31 32  2  0  0  0  0
 31 55  1  0  0  0  0
 32 33  1  0  0  0  0
 32 56  1  0  0  0  0
 33 34  2  0  0  0  0
 33 57  1  0  0  0  0
 34 58  1  0  0  0  0
M  END
>  <DRUGBANK_ID>
DB06435

>  <COMMON_NAME>
Tarazepide

>  <CAS_NUMBER>
141374-81-4

>  <UNII>
RK2972YZ2U

>  <SYNONYMS>
Tarazepide

$$$$
