PG5
 OpenBabel10282417123D

 30 29  0  0  0  0  0  0  0  0999 V2000
    1.8036   -0.6082    0.2349 C   0  0  0  0  0  0  0  0  0  0  0  0
    0.9482   -1.1756   -0.7718 O   0  0  0  0  0  0  0  0  0  0  0  0
    1.3438   -0.9187   -2.1300 C   0  0  0  0  0  0  0  0  0  0  0  0
    1.1563    0.5039   -2.7596 C   0  0  0  0  0  0  0  0  0  0  0  0
    1.2901    1.5887   -1.8722 O   0  0  0  0  0  0  0  0  0  0  0  0
    0.4004    1.6166   -0.7840 C   0  0  0  0  0  0  0  0  0  0  0  0
   -1.0303    1.1202   -0.5413 C   0  0  0  0  0  0  0  0  0  0  0  0
   -1.9201    0.2786   -1.2317 O   0  0  0  0  0  0  0  0  0  0  0  0
   -1.7863    0.2446   -2.6328 C   0  0  0  0  0  0  0  0  0  0  0  0
   -1.9738    1.6152   -3.3687 C   0  0  0  0  0  0  0  0  0  0  0  0
   -1.5782    2.8448   -2.7372 O   0  0  0  0  0  0  0  0  0  0  0  0
   -2.4336    3.2906   -1.6711 C   0  0  0  0  0  0  0  0  0  0  0  0
    1.1897   -0.4720    1.1473 H   0  0  0  0  0  0  0  0  0  0  0  0
    2.1975    0.3729   -0.0552 H   0  0  0  0  0  0  0  0  0  0  0  0
    2.7465   -1.1068    0.3893 H   0  0  0  0  0  0  0  0  0  0  0  0
    2.3966   -1.1797   -2.1869 H   0  0  0  0  0  0  0  0  0  0  0  0
    0.7969   -1.6468   -2.7480 H   0  0  0  0  0  0  0  0  0  0  0  0
    1.7465    0.5626   -3.6818 H   0  0  0  0  0  0  0  0  0  0  0  0
    0.2434    0.7769   -3.2502 H   0  0  0  0  0  0  0  0  0  0  0  0
    0.6411    0.8325   -0.1191 H   0  0  0  0  0  0  0  0  0  0  0  0
    0.6761    2.4660   -0.1521 H   0  0  0  0  0  0  0  0  0  0  0  0
   -1.3060    1.0971    0.5171 H   0  0  0  0  0  0  0  0  0  0  0  0
   -1.2711    2.1264   -0.7516 H   0  0  0  0  0  0  0  0  0  0  0  0
   -0.8733   -0.3103   -2.7187 H   0  0  0  0  0  0  0  0  0  0  0  0
   -2.3765   -0.5192   -3.1529 H   0  0  0  0  0  0  0  0  0  0  0  0
   -1.4268    1.5747   -4.3229 H   0  0  0  0  0  0  0  0  0  0  0  0
   -3.0266    1.7306   -3.6097 H   0  0  0  0  0  0  0  0  0  0  0  0
   -3.3765    3.7188   -1.9697 H   0  0  0  0  0  0  0  0  0  0  0  0
   -2.8275    2.4591   -1.0750 H   0  0  0  0  0  0  0  0  0  0  0  0
   -1.8197    3.9270   -1.0032 H   0  0  0  0  0  0  0  0  0  0  0  0
  1  2  1  0  0  0  0
  1 13  1  0  0  0  0
  1 14  1  0  0  0  0
  1 15  1  0  0  0  0
  2  3  1  0  0  0  0
  3  4  1  0  0  0  0
  3 16  1  0  0  0  0
  3 17  1  0  0  0  0
  4  5  1  0  0  0  0
  4 18  1  0  0  0  0
  4 19  1  0  0  0  0
  5  6  1  0  0  0  0
  6  7  1  0  0  0  0
  6 20  1  0  0  0  0
  6 21  1  0  0  0  0
  7  8  1  0  0  0  0
  7 22  1  0  0  0  0
  7 23  1  0  0  0  0
  8  9  1  0  0  0  0
  9 10  1  0  0  0  0
  9 24  1  0  0  0  0
  9 25  1  0  0  0  0
 10 11  1  0  0  0  0
 10 26  1  0  0  0  0
 10 27  1  0  0  0  0
 11 12  1  0  0  0  0
 12 28  1  0  0  0  0
 12 29  1  0  0  0  0
 12 30  1  0  0  0  0
M  END
>  <DRUGBANK_ID>
DB02078

>  <SECONDARY_ACCESSION_NUMBERS>
EXPT02565

>  <COMMON_NAME>
Triglyme

>  <CAS_NUMBER>
112-49-2

>  <UNII>
32YXG88KK0

>  <SYNONYMS>
1-methoxy-2-[2-(2-methoxyethoxy)ethoxy]ethane; 1,2-bis(2-methoxyethoxy)ethane; dimethyl ether of triethylene glycol; Glyme 4

$$$$
