
 OpenBabel10282417203D

 65 68  0  0  1  0  0  0  0  0999 V2000
   -2.4485    1.8238   -2.3778 C   0  0  0  0  0  0  0  0  0  0  0  0
   -4.0473    3.1164   -3.1946 C   0  0  0  0  0  0  0  0  0  0  0  0
   -5.8895    3.0877   -2.3573 C   0  0  0  0  0  0  0  0  0  0  0  0
   -4.3268    4.6954   -3.3817 C   0  0  0  0  0  0  0  0  0  0  0  0
   -4.7971    5.0196   -4.4815 O   0  0  0  0  0  0  0  0  0  0  0  0
   -4.1286    5.6405   -2.3404 N   0  0  0  0  0  0  0  0  0  0  0  0
   -3.7044    5.4212   -0.8369 C   0  0  2  0  0  0  0  0  0  0  0  0
   -2.3019    5.1016   -0.1742 C   0  0  0  0  0  0  0  0  0  0  0  0
   -2.3257    4.3332    1.1121 C   0  0  0  0  0  0  0  0  0  0  0  0
   -1.1907    4.3142    1.8816 C   0  0  0  0  0  0  0  0  0  0  0  0
   -1.5060    3.6442    3.0257 N   0  0  0  0  0  0  0  0  0  0  0  0
   -2.6739    2.9391    2.9017 C   0  0  0  0  0  0  0  0  0  0  0  0
   -3.2005    3.3261    1.7055 C   0  0  0  0  0  0  0  0  0  0  0  0
   -4.4829    2.7308    1.5879 C   0  0  0  0  0  0  0  0  0  0  0  0
   -5.1333    1.6534    2.0602 C   0  0  0  0  0  0  0  0  0  0  0  0
   -4.6561    1.4398    3.2802 C   0  0  0  0  0  0  0  0  0  0  0  0
   -3.4572    2.0913    3.7362 C   0  0  0  0  0  0  0  0  0  0  0  0
   -4.6756    4.4066   -0.3681 C   0  0  0  0  0  0  0  0  0  0  0  0
   -5.6286    4.8745    0.2720 O   0  0  0  0  0  0  0  0  0  0  0  0
   -4.5829    2.9886   -0.6210 N   0  0  0  0  0  0  0  0  0  0  0  0
   -4.0148    2.2518   -1.5984 C   0  0  2  0  0  0  0  0  0  0  0  0
   -2.4595    3.6847   -2.1658 C   0  0  0  0  0  0  0  0  0  0  0  0
   -1.7281    3.7997   -3.7310 C   0  0  0  0  0  0  0  0  0  0  0  0
   -1.9671    4.8082   -4.6556 C   0  0  0  0  0  0  0  0  0  0  0  0
   -1.6269    4.2814   -5.8694 N   0  0  0  0  0  0  0  0  0  0  0  0
   -0.9880    3.0719   -5.6975 C   0  0  0  0  0  0  0  0  0  0  0  0
   -1.0042    2.7274   -4.3668 C   0  0  0  0  0  0  0  0  0  0  0  0
   -0.5297    1.4178   -3.9658 C   0  0  0  0  0  0  0  0  0  0  0  0
    0.0104    0.5259   -4.7984 C   0  0  0  0  0  0  0  0  0  0  0  0
    0.1258    0.9603   -6.0826 C   0  0  0  0  0  0  0  0  0  0  0  0
   -0.3782    2.1956   -6.5720 C   0  0  0  0  0  0  0  0  0  0  0  0
   -4.9898    1.2970   -3.0249 N   0  0  0  0  0  0  0  0  0  0  0  0
   -4.8056    0.3299   -4.0860 C   0  0  0  0  0  0  0  0  0  0  0  0
   -5.1133    0.5452   -5.2709 O   0  0  0  0  0  0  0  0  0  0  0  0
   -3.7569    2.5339   -4.4528 N   0  0  0  0  0  0  0  0  0  0  0  0
   -2.2965    2.3039   -1.0621 H   0  0  0  0  0  0  0  0  0  0  0  0
   -1.4359    2.1145   -2.4320 H   0  0  0  0  0  0  0  0  0  0  0  0
   -2.3106    1.0194   -1.5360 H   0  0  0  0  0  0  0  0  0  0  0  0
   -6.1367    3.8025   -1.5668 H   0  0  0  0  0  0  0  0  0  0  0  0
   -6.7803    3.2203   -2.9404 H   0  0  0  0  0  0  0  0  0  0  0  0
   -6.1585    2.0831   -1.7690 H   0  0  0  0  0  0  0  0  0  0  0  0
   -3.8482    6.5327   -2.7460 H   0  0  0  0  0  0  0  0  0  0  0  0
   -3.9194    6.3839   -0.3717 H   0  0  0  0  0  0  0  0  0  0  0  0
   -1.6271    4.3539   -0.5297 H   0  0  0  0  0  0  0  0  0  0  0  0
   -1.5453    5.8503   -0.4651 H   0  0  0  0  0  0  0  0  0  0  0  0
   -0.2561    4.8334    1.6922 H   0  0  0  0  0  0  0  0  0  0  0  0
   -0.9590    3.6740    3.8611 H   0  0  0  0  0  0  0  0  0  0  0  0
   -5.3193    3.2239    1.1489 H   0  0  0  0  0  0  0  0  0  0  0  0
   -6.0764    1.3637    1.5857 H   0  0  0  0  0  0  0  0  0  0  0  0
   -5.2994    0.8346    3.8915 H   0  0  0  0  0  0  0  0  0  0  0  0
   -3.1741    1.9434    4.7546 H   0  0  0  0  0  0  0  0  0  0  0  0
   -5.2664    2.3286   -0.2803 H   0  0  0  0  0  0  0  0  0  0  0  0
   -3.8853    1.1284   -1.3524 H   0  0  0  0  0  0  0  0  0  0  0  0
   -2.5210    4.7176   -2.1652 H   0  0  0  0  0  0  0  0  0  0  0  0
   -1.3918    3.5387   -1.7827 H   0  0  0  0  0  0  0  0  0  0  0  0
   -2.6031    5.6888   -4.6129 H   0  0  0  0  0  0  0  0  0  0  0  0
   -1.8516    4.7373   -6.7411 H   0  0  0  0  0  0  0  0  0  0  0  0
   -0.5641    0.9325   -2.9725 H   0  0  0  0  0  0  0  0  0  0  0  0
    0.3439   -0.4038   -4.3554 H   0  0  0  0  0  0  0  0  0  0  0  0
    0.6538    0.2966   -6.7350 H   0  0  0  0  0  0  0  0  0  0  0  0
   -0.2554    2.4782   -7.5987 H   0  0  0  0  0  0  0  0  0  0  0  0
   -5.4814    1.9796   -3.6997 H   0  0  0  0  0  0  0  0  0  0  0  0
   -3.9891   -0.3225   -3.8177 H   0  0  0  0  0  0  0  0  0  0  0  0
   -3.5320    1.6508   -3.9983 H   0  0  0  0  0  0  0  0  0  0  0  0
   -4.5190    2.3182   -5.0591 H   0  0  0  0  0  0  0  0  0  0  0  0
  1  2  1  0  0  0  0
  1 36  1  0  0  0  0
  1 37  1  0  0  0  0
  1 38  1  0  0  0  0
  2  3  1  0  0  0  0
  2  4  1  0  0  0  0
  2 35  1  0  0  0  0
  3 39  1  0  0  0  0
  3 40  1  0  0  0  0
  3 41  1  0  0  0  0
  4  5  2  0  0  0  0
  4  6  1  0  0  0  0
  6 42  1  0  0  0  0
  7 18  1  0  0  0  0
  7 43  1  1  0  0  0
  7  8  1  0  0  0  0
  7  6  1  0  0  0  0
  8  9  1  0  0  0  0
  8 44  1  0  0  0  0
  8 45  1  0  0  0  0
  9 10  2  0  0  0  0
  9 13  1  0  0  0  0
 10 11  1  0  0  0  0
 10 46  1  0  0  0  0
 11 12  1  0  0  0  0
 11 47  1  0  0  0  0
 12 13  1  0  0  0  0
 12 17  2  0  0  0  0
 13 14  2  0  0  0  0
 14 15  1  0  0  0  0
 14 48  1  0  0  0  0
 15 16  2  0  0  0  0
 15 49  1  0  0  0  0
 16 17  1  0  0  0  0
 16 50  1  0  0  0  0
 17 51  1  0  0  0  0
 18 19  2  0  0  0  0
 18 20  1  0  0  0  0
 20 52  1  0  0  0  0
 21 32  1  0  0  0  0
 21 53  1  1  0  0  0
 21 22  1  0  0  0  0
 21 20  1  0  0  0  0
 22 23  1  0  0  0  0
 22 54  1  0  0  0  0
 22 55  1  0  0  0  0
 23 24  2  0  0  0  0
 23 27  1  0  0  0  0
 24 25  1  0  0  0  0
 24 56  1  0  0  0  0
 25 26  1  0  0  0  0
 25 57  1  0  0  0  0
 26 27  1  0  0  0  0
 26 31  2  0  0  0  0
 27 28  2  0  0  0  0
 28 29  1  0  0  0  0
 28 58  1  0  0  0  0
 29 30  2  0  0  0  0
 29 59  1  0  0  0  0
 30 31  1  0  0  0  0
 30 60  1  0  0  0  0
 31 61  1  0  0  0  0
 32 33  1  0  0  0  0
 32 62  1  0  0  0  0
 33 34  2  0  0  0  0
 33 63  1  0  0  0  0
 35 64  1  0  0  0  0
 35 65  1  0  0  0  0
M  END
>  <DRUGBANK_ID>
DB13074

>  <SECONDARY_ACCESSION_NUMBERS>
DB06066; DB05917

>  <COMMON_NAME>
Macimorelin

>  <CAS_NUMBER>
381231-18-1

>  <UNII>
8680B21W73

>  <SYNONYMS>
Macimorelin

$$$$
