
 OpenBabel10282417193D

 61 63  0  0  0  0  0  0  0  0999 V2000
    1.0354   -0.0231   -0.0616 C   0  0  0  0  0  0  0  0  0  0  0  0
    0.5033   -0.6606   -1.3605 C   0  0  0  0  0  0  0  0  0  0  0  0
    1.0088   -2.1074   -1.4404 C   0  0  0  0  0  0  0  0  0  0  0  0
   -1.0351   -0.6585   -1.3585 C   0  0  0  0  0  0  0  0  0  0  0  0
    0.9714    0.1573   -2.5487 C   0  0  0  0  0  0  0  0  0  0  0  0
    0.6030    1.5071   -2.5971 C   0  0  0  0  0  0  0  0  0  0  0  0
    1.0048    2.2758   -3.6529 C   0  0  0  0  0  0  0  0  0  0  0  0
    1.8118    1.7044   -4.6523 C   0  0  0  0  0  0  0  0  0  0  0  0
    2.2294    0.3928   -4.6052 C   0  0  0  0  0  0  0  0  0  0  0  0
    1.7643   -0.3917   -3.5776 C   0  0  0  0  0  0  0  0  0  0  0  0
    2.2231    2.5552   -5.7805 C   0  0  0  0  0  0  0  0  0  0  0  0
    3.6463    2.9261   -5.9229 N   0  0  0  0  0  0  0  0  0  0  0  0
    3.8252    3.7290   -7.1966 C   0  0  0  0  0  0  0  0  0  0  0  0
    3.1680    5.1006   -7.2003 C   0  0  0  0  0  0  0  0  0  0  0  0
    1.8378    5.2731   -6.7777 C   0  0  0  0  0  0  0  0  0  0  0  0
    1.3807    6.4586   -6.2584 C   0  0  0  0  0  0  0  0  0  0  0  0
    2.1519    7.5715   -6.4444 C   0  0  0  0  0  0  0  0  0  0  0  0
    3.3902    7.4953   -7.0951 C   0  0  0  0  0  0  0  0  0  0  0  0
    3.9011    6.2521   -7.4841 C   0  0  0  0  0  0  0  0  0  0  0  0
    4.1825    8.5869   -7.3402 O   0  0  0  0  0  0  0  0  0  0  0  0
    3.6596    9.8207   -6.8486 C   0  0  0  0  0  0  0  0  0  0  0  0
    2.4053   10.3007   -7.5765 C   0  0  0  0  0  0  0  0  0  0  0  0
    1.3411   10.6050   -7.0567 O   0  0  0  0  0  0  0  0  0  0  0  0
    2.5364   10.3098   -8.9169 O   0  0  0  0  0  0  0  0  0  0  0  0
    4.2677    3.6285   -4.4692 S   0  0  0  0  0  0  0  0  0  0  0  0
    3.6905    4.9531   -4.3064 O   0  0  0  0  0  0  0  0  0  0  0  0
    4.1834    2.6810   -3.3882 O   0  0  0  0  0  0  0  0  0  0  0  0
    5.9765    3.8229   -4.7772 C   0  0  0  0  0  0  0  0  0  0  0  0
    6.5614    5.0829   -4.8297 C   0  0  0  0  0  0  0  0  0  0  0  0
    7.9430    5.1678   -4.9352 C   0  0  0  0  0  0  0  0  0  0  0  0
    8.6733    3.9885   -4.9805 C   0  0  0  0  0  0  0  0  0  0  0  0
    8.1208    2.7537   -4.9414 N   0  0  0  0  0  0  0  0  0  0  0  0
    6.7735    2.6937   -4.8243 C   0  0  0  0  0  0  0  0  0  0  0  0
    0.7025   -0.5894    0.8124 H   0  0  0  0  0  0  0  0  0  0  0  0
    0.6874    1.0079    0.0744 H   0  0  0  0  0  0  0  0  0  0  0  0
    2.1320    0.0084   -0.0561 H   0  0  0  0  0  0  0  0  0  0  0  0
    0.6633   -2.6978   -0.5906 H   0  0  0  0  0  0  0  0  0  0  0  0
    0.6526   -2.5993   -2.3545 H   0  0  0  0  0  0  0  0  0  0  0  0
    2.1065   -2.1388   -1.4477 H   0  0  0  0  0  0  0  0  0  0  0  0
   -1.4483    0.3532   -1.2623 H   0  0  0  0  0  0  0  0  0  0  0  0
   -1.4277   -1.0740   -2.2947 H   0  0  0  0  0  0  0  0  0  0  0  0
   -1.4255   -1.2455   -0.5242 H   0  0  0  0  0  0  0  0  0  0  0  0
    0.0076    1.9732   -1.8169 H   0  0  0  0  0  0  0  0  0  0  0  0
    0.7243    3.3290   -3.6658 H   0  0  0  0  0  0  0  0  0  0  0  0
    2.9217    0.0099   -5.3477 H   0  0  0  0  0  0  0  0  0  0  0  0
    2.0538   -1.4352   -3.6036 H   0  0  0  0  0  0  0  0  0  0  0  0
    1.7981    2.1676   -6.7159 H   0  0  0  0  0  0  0  0  0  0  0  0
    1.6925    3.4464   -5.5057 H   0  0  0  0  0  0  0  0  0  0  0  0
    4.9055    3.8059   -7.3753 H   0  0  0  0  0  0  0  0  0  0  0  0
    3.4376    3.1502   -8.0458 H   0  0  0  0  0  0  0  0  0  0  0  0
    1.1108    4.4776   -6.7487 H   0  0  0  0  0  0  0  0  0  0  0  0
    0.4432    6.5118   -5.7140 H   0  0  0  0  0  0  0  0  0  0  0  0
    1.7009    8.4841   -6.0866 H   0  0  0  0  0  0  0  0  0  0  0  0
    4.8680    6.1842   -7.9780 H   0  0  0  0  0  0  0  0  0  0  0  0
    3.4703    9.7509   -5.7669 H   0  0  0  0  0  0  0  0  0  0  0  0
    4.4274   10.5883   -6.9667 H   0  0  0  0  0  0  0  0  0  0  0  0
    1.6366   10.5061   -9.2495 H   0  0  0  0  0  0  0  0  0  0  0  0
    5.9562    5.9836   -4.7589 H   0  0  0  0  0  0  0  0  0  0  0  0
    8.4401    6.1305   -4.9635 H   0  0  0  0  0  0  0  0  0  0  0  0
    9.7576    4.0080   -5.0433 H   0  0  0  0  0  0  0  0  0  0  0  0
    6.3554    1.6919   -4.7575 H   0  0  0  0  0  0  0  0  0  0  0  0
  1  2  1  0  0  0  0
  1 34  1  0  0  0  0
  1 35  1  0  0  0  0
  1 36  1  0  0  0  0
  2  3  1  0  0  0  0
  2  4  1  0  0  0  0
  2  5  1  0  0  0  0
  3 37  1  0  0  0  0
  3 38  1  0  0  0  0
  3 39  1  0  0  0  0
  4 40  1  0  0  0  0
  4 41  1  0  0  0  0
  4 42  1  0  0  0  0
  5  6  2  0  0  0  0
  5 10  1  0  0  0  0
  6  7  1  0  0  0  0
  6 43  1  0  0  0  0
  7  8  2  0  0  0  0
  7 44  1  0  0  0  0
  8  9  1  0  0  0  0
  8 11  1  0  0  0  0
  9 10  2  0  0  0  0
  9 45  1  0  0  0  0
 10 46  1  0  0  0  0
 11 12  1  0  0  0  0
 11 47  1  0  0  0  0
 11 48  1  0  0  0  0
 12 13  1  0  0  0  0
 12 25  1  0  0  0  0
 13 14  1  0  0  0  0
 13 49  1  0  0  0  0
 13 50  1  0  0  0  0
 14 15  2  0  0  0  0
 14 19  1  0  0  0  0
 15 16  1  0  0  0  0
 15 51  1  0  0  0  0
 16 17  2  0  0  0  0
 16 52  1  0  0  0  0
 17 18  1  0  0  0  0
 17 53  1  0  0  0  0
 18 19  2  0  0  0  0
 18 20  1  0  0  0  0
 19 54  1  0  0  0  0
 20 21  1  0  0  0  0
 21 22  1  0  0  0  0
 21 55  1  0  0  0  0
 21 56  1  0  0  0  0
 22 23  2  0  0  0  0
 22 24  1  0  0  0  0
 24 57  1  0  0  0  0
 25 26  2  0  0  0  0
 25 27  2  0  0  0  0
 25 28  1  0  0  0  0
 28 29  2  0  0  0  0
 28 33  1  0  0  0  0
 29 30  1  0  0  0  0
 29 58  1  0  0  0  0
 30 31  2  0  0  0  0
 30 59  1  0  0  0  0
 31 32  1  0  0  0  0
 31 60  1  0  0  0  0
 32 33  2  0  0  0  0
 33 61  1  0  0  0  0
M  END
>  <DRUGBANK_ID>
DB12022

>  <COMMON_NAME>
Evatanepag

>  <CAS_NUMBER>
223488-57-1

>  <UNII>
L266R6E31E

>  <SYNONYMS>
Evatanepag

$$$$
