
 OpenBabel10282417203D

 47 49  0  0  0  0  0  0  0  0999 V2000
    0.9673    0.0101   -0.1953 C   0  0  0  0  0  0  0  0  0  0  0  0
    0.4498    0.1369    1.2556 C   0  0  0  0  0  0  0  0  0  0  0  0
    1.1079   -1.0014    2.0205 C   0  0  0  0  0  0  0  0  0  0  0  0
    0.8303   -2.3322    1.5908 C   0  0  0  0  0  0  0  0  0  0  0  0
    1.3347   -3.4386    2.2452 C   0  0  0  0  0  0  0  0  0  0  0  0
    2.1204   -3.2309    3.3614 C   0  0  0  0  0  0  0  0  0  0  0  0
    2.3971   -1.9201    3.8012 C   0  0  0  0  0  0  0  0  0  0  0  0
    1.9227   -0.7621    3.1304 C   0  0  0  0  0  0  0  0  0  0  0  0
    2.1641    0.6951    3.5253 C   0  0  0  0  0  0  0  0  0  0  0  0
    3.0716    0.8963    4.5175 C   0  0  0  0  0  0  0  0  0  0  0  0
    3.5185    2.0814    5.3215 C   0  0  0  0  0  0  0  0  0  0  0  0
    2.8354    2.2310    6.6911 C   0  0  0  0  0  0  0  0  0  0  0  0
    3.4221    1.3344    7.6976 N   0  0  0  0  0  0  0  0  0  0  0  0
    2.8752    1.6249    9.0153 C   0  0  0  0  0  0  0  0  0  0  0  0
    3.1759   -0.0687    7.3810 C   0  0  0  0  0  0  0  0  0  0  0  0
    1.5201    1.8488    2.8193 C   0  0  0  0  0  0  0  0  0  0  0  0
    1.6461    3.2206    3.1114 C   0  0  0  0  0  0  0  0  0  0  0  0
    1.1080    4.2559    2.3515 C   0  0  0  0  0  0  0  0  0  0  0  0
    0.3504    3.9551    1.2547 C   0  0  0  0  0  0  0  0  0  0  0  0
    0.1668    2.6218    0.9419 C   0  0  0  0  0  0  0  0  0  0  0  0
    0.7497    1.5623    1.6956 C   0  0  0  0  0  0  0  0  0  0  0  0
   -1.0626   -0.0322    1.5279 C   0  0  0  0  0  0  0  0  0  0  0  0
    0.6564    0.8241   -0.8522 H   0  0  0  0  0  0  0  0  0  0  0  0
    0.6657   -0.9187   -0.6834 H   0  0  0  0  0  0  0  0  0  0  0  0
    2.0703    0.0284   -0.1906 H   0  0  0  0  0  0  0  0  0  0  0  0
    0.1879   -2.5049    0.7279 H   0  0  0  0  0  0  0  0  0  0  0  0
    1.0986   -4.4371    1.8883 H   0  0  0  0  0  0  0  0  0  0  0  0
    2.5175   -4.0895    3.8974 H   0  0  0  0  0  0  0  0  0  0  0  0
    2.9977   -1.8582    4.7037 H   0  0  0  0  0  0  0  0  0  0  0  0
    3.6504    0.0293    4.7792 H   0  0  0  0  0  0  0  0  0  0  0  0
    4.6075    2.0564    5.4158 H   0  0  0  0  0  0  0  0  0  0  0  0
    3.4010    3.0261    4.8340 H   0  0  0  0  0  0  0  0  0  0  0  0
    2.9952    3.2734    7.0076 H   0  0  0  0  0  0  0  0  0  0  0  0
    1.7422    2.1162    6.6163 H   0  0  0  0  0  0  0  0  0  0  0  0
    1.7924    1.4656    9.0500 H   0  0  0  0  0  0  0  0  0  0  0  0
    3.3532    0.9713    9.7516 H   0  0  0  0  0  0  0  0  0  0  0  0
    3.0958    2.6551    9.3105 H   0  0  0  0  0  0  0  0  0  0  0  0
    2.1249   -0.2602    7.1319 H   0  0  0  0  0  0  0  0  0  0  0  0
    3.8196   -0.3845    6.5659 H   0  0  0  0  0  0  0  0  0  0  0  0
    3.4836   -0.7316    8.1908 H   0  0  0  0  0  0  0  0  0  0  0  0
    2.1555    3.6335    3.9523 H   0  0  0  0  0  0  0  0  0  0  0  0
    1.2948    5.2813    2.6544 H   0  0  0  0  0  0  0  0  0  0  0  0
   -0.0998    4.7407    0.6635 H   0  0  0  0  0  0  0  0  0  0  0  0
   -0.4592    2.3936    0.0833 H   0  0  0  0  0  0  0  0  0  0  0  0
   -1.6777    0.7282    1.0423 H   0  0  0  0  0  0  0  0  0  0  0  0
   -1.4549   -1.0082    1.2349 H   0  0  0  0  0  0  0  0  0  0  0  0
   -1.2470    0.0653    2.6125 H   0  0  0  0  0  0  0  0  0  0  0  0
  1  2  1  0  0  0  0
  1 23  1  0  0  0  0
  1 24  1  0  0  0  0
  1 25  1  0  0  0  0
  2  3  1  0  0  0  0
  2 21  1  0  0  0  0
  2 22  1  0  0  0  0
  3  4  2  0  0  0  0
  3  8  1  0  0  0  0
  4  5  1  0  0  0  0
  4 26  1  0  0  0  0
  5  6  2  0  0  0  0
  5 27  1  0  0  0  0
  6  7  1  0  0  0  0
  6 28  1  0  0  0  0
  7  8  2  0  0  0  0
  7 29  1  0  0  0  0
  8  9  1  0  0  0  0
  9 10  2  0  0  0  0
  9 16  1  0  0  0  0
 10 11  1  0  0  0  0
 10 30  1  0  0  0  0
 11 12  1  0  0  0  0
 11 31  1  0  0  0  0
 11 32  1  0  0  0  0
 12 13  1  0  0  0  0
 12 33  1  0  0  0  0
 12 34  1  0  0  0  0
 13 14  1  0  0  0  0
 13 15  1  0  0  0  0
 14 35  1  0  0  0  0
 14 36  1  0  0  0  0
 14 37  1  0  0  0  0
 15 38  1  0  0  0  0
 15 39  1  0  0  0  0
 15 40  1  0  0  0  0
 16 17  2  0  0  0  0
 16 21  1  0  0  0  0
 17 18  1  0  0  0  0
 17 41  1  0  0  0  0
 18 19  2  0  0  0  0
 18 42  1  0  0  0  0
 19 20  1  0  0  0  0
 19 43  1  0  0  0  0
 20 21  2  0  0  0  0
 20 44  1  0  0  0  0
 22 45  1  0  0  0  0
 22 46  1  0  0  0  0
 22 47  1  0  0  0  0
M  END
>  <DRUGBANK_ID>
DB13384

>  <COMMON_NAME>
Melitracen

>  <CAS_NUMBER>
5118-29-6

>  <UNII>
Q7T0Y1109Z

>  <SYNONYMS>
Melitracen; Melitraceno

$$$$
