1610
 OpenBabel10282417123D

 47 48  0  0  1  0  0  0  0  0999 V2000
    0.8916    0.1546    0.1767 O   0  0  0  0  0  0  0  0  0  0  0  0
    2.4125   -2.5554    0.1604 O   0  0  0  0  0  0  0  0  0  0  0  0
    0.4860    0.0906    2.9435 O   0  0  0  0  0  0  0  0  0  0  0  0
    2.5355   -1.4009   -1.7958 O   0  0  0  0  0  0  0  0  0  0  0  0
    4.4489    4.2932   -3.7490 O   0  0  0  0  0  0  0  0  0  0  0  0
    2.7271    1.4094   -0.6852 N   0  0  0  0  0  0  0  0  0  0  0  0
    4.9751   -1.4549    0.9209 N   0  0  0  0  0  0  0  0  0  0  0  0
    4.1665    0.4673   -2.5792 N   0  0  0  0  0  0  0  0  0  0  0  0
    2.9560    3.5430   -1.3031 N   0  0  0  0  0  0  0  0  0  0  0  0
    5.0327    2.1037   -4.0703 N   0  0  0  0  0  0  0  0  0  0  0  0
    5.5601   -0.0698   -4.4112 N   0  0  0  0  0  0  0  0  0  0  0  0
    5.2304   -2.8479   -1.2095 C   0  0  0  0  0  0  0  0  0  0  0  0
    4.5969   -1.6671   -0.5058 C   0  0  1  0  0  0  0  0  0  0  0  0
    0.4955   -1.0946    0.8117 C   0  0  3  0  0  0  0  0  0  0  0  0
    0.9814   -2.3857    0.0893 C   0  0  0  0  0  0  0  0  0  0  0  0
    4.7046   -2.9674   -2.6492 C   0  0  0  0  0  0  0  0  0  0  0  0
    6.7392   -2.6975   -1.2391 C   0  0  0  0  0  0  0  0  0  0  0  0
    3.0845   -1.8950   -0.8105 C   0  0  0  0  0  0  0  0  0  0  0  0
    2.2682    0.4886    0.3301 C   0  0  0  0  0  0  0  0  0  0  0  0
    0.9214   -1.0984    2.2876 C   0  0  0  0  0  0  0  0  0  0  0  0
    3.5441    1.4093   -1.8073 C   0  0  0  0  0  0  0  0  0  0  0  0
    3.6472    2.7326   -2.1733 C   0  0  0  0  0  0  0  0  0  0  0  0
    2.4192    2.7282   -0.4357 C   0  0  0  0  0  0  0  0  0  0  0  0
    4.3919    3.1133   -3.3733 C   0  0  0  0  0  0  0  0  0  0  0  0
    4.8987    0.8684   -3.6836 C   0  0  0  0  0  0  0  0  0  0  0  0
    0.6704    0.8471    2.3584 H   0  0  0  0  0  0  0  0  0  0  0  0
    5.9981   -1.3749    0.9575 H   0  0  0  0  0  0  0  0  0  0  0  0
    4.7078   -0.5144    1.2293 H   0  0  0  0  0  0  0  0  0  0  0  0
    3.7928   -0.4750   -2.6213 H   0  0  0  0  0  0  0  0  0  0  0  0
    5.6167   -1.0601   -4.2813 H   0  0  0  0  0  0  0  0  0  0  0  0
    6.0735    0.2433   -5.2275 H   0  0  0  0  0  0  0  0  0  0  0  0
    4.9336   -3.7434   -0.6612 H   0  0  0  0  0  0  0  0  0  0  0  0
    4.9658   -0.7386   -0.9407 H   0  0  0  0  0  0  0  0  0  0  0  0
   -0.6032   -1.0963    0.7672 H   0  0  0  0  0  0  0  0  0  0  0  0
    0.5654   -3.2629    0.5940 H   0  0  0  0  0  0  0  0  0  0  0  0
    0.6235   -2.4222   -0.9488 H   0  0  0  0  0  0  0  0  0  0  0  0
    4.9513   -2.0549   -3.1516 H   0  0  0  0  0  0  0  0  0  0  0  0
    5.1335   -3.7961   -3.1996 H   0  0  0  0  0  0  0  0  0  0  0  0
    3.6199   -3.0586   -2.7596 H   0  0  0  0  0  0  0  0  0  0  0  0
    7.1501   -2.6517   -0.2282 H   0  0  0  0  0  0  0  0  0  0  0  0
    7.1690   -3.5599   -1.7477 H   0  0  0  0  0  0  0  0  0  0  0  0
    7.0451   -1.7859   -1.7691 H   0  0  0  0  0  0  0  0  0  0  0  0
    2.5080    0.8803    1.3251 H   0  0  0  0  0  0  0  0  0  0  0  0
    2.8578   -0.3700    0.3636 H   0  0  0  0  0  0  0  0  0  0  0  0
    0.5074   -1.9595    2.8175 H   0  0  0  0  0  0  0  0  0  0  0  0
    2.0098   -1.1433    2.3827 H   0  0  0  0  0  0  0  0  0  0  0  0
    1.8014    2.9887    0.4149 H   0  0  0  0  0  0  0  0  0  0  0  0
  1 14  1  0  0  0  0
  1 19  1  0  0  0  0
  2 15  1  0  0  0  0
  2 18  1  0  0  0  0
  3 20  1  0  0  0  0
  3 26  1  0  0  0  0
  4 18  2  0  0  0  0
  5 24  2  0  0  0  0
  6 19  1  0  0  0  0
  6 21  1  0  0  0  0
  6 23  1  0  0  0  0
  7 27  1  0  0  0  0
  7 28  1  0  0  0  0
  8 21  1  0  0  0  0
  8 25  1  0  0  0  0
  8 29  1  0  0  0  0
  9 22  1  0  0  0  0
  9 23  2  0  0  0  0
 10 24  1  0  0  0  0
 10 25  2  0  0  0  0
 11 25  1  0  0  0  0
 11 30  1  0  0  0  0
 11 31  1  0  0  0  0
 12 13  1  0  0  0  0
 12 16  1  0  0  0  0
 12 17  1  0  0  0  0
 12 32  1  0  0  0  0
 13  7  1  0  0  0  0
 13 18  1  0  0  0  0
 13 33  1  6  0  0  0
 14 15  1  0  0  0  0
 14 20  1  0  0  0  0
 14 34  1  0  0  0  0
 15 35  1  0  0  0  0
 15 36  1  0  0  0  0
 16 37  1  0  0  0  0
 16 38  1  0  0  0  0
 16 39  1  0  0  0  0
 17 40  1  0  0  0  0
 17 41  1  0  0  0  0
 17 42  1  0  0  0  0
 19 43  1  0  0  0  0
 19 44  1  0  0  0  0
 20 45  1  0  0  0  0
 20 46  1  0  0  0  0
 21 22  2  0  0  0  0
 22 24  1  0  0  0  0
 23 47  1  0  0  0  0
M  END
>  <DRUGBANK_ID>
DB01610

>  <COMMON_NAME>
Valganciclovir

>  <CAS_NUMBER>
175865-60-8

>  <UNII>
GCU97FKN3R

>  <SYNONYMS>
Valganciclovir

$$$$
