
 OpenBabel10282417243D

201202  0  0  1  0  0  0  0  0999 V2000
    4.2263    4.6680   -2.8682 C   0  0  0  0  0  0  0  0  0  0  0  0
    4.8891    5.4938   -3.9883 C   0  0  0  0  0  0  0  0  0  0  0  0
    5.7113    4.5104   -4.7011 C   0  0  0  0  0  0  0  0  0  0  0  0
    3.9324    5.7176   -5.0921 C   0  0  0  0  0  0  0  0  0  0  0  0
    5.5889    7.1962   -3.4046 Si  0  0  0  0  0  0  0  0  0  0  0  0
    4.4068    8.0532   -2.8087 F   0  0  0  0  0  0  0  0  0  0  0  0
    6.5505    7.3528   -1.9435 C   0  0  0  0  0  0  0  0  0  0  0  0
    6.7300    6.2780   -1.3575 C   0  0  0  0  0  0  0  0  0  0  0  0
    8.1842    6.2160   -0.5722 C   0  0  0  0  0  0  0  0  0  0  0  0
    9.1053    6.9664   -0.0125 C   0  0  0  0  0  0  0  0  0  0  0  0
    8.5960    8.0551   -0.4096 C   0  0  0  0  0  0  0  0  0  0  0  0
    7.3937    8.1972   -1.2703 C   0  0  0  0  0  0  0  0  0  0  0  0
   10.2557    6.7405    0.8955 C   0  0  0  0  0  0  0  0  0  0  0  0
   10.6248    7.4749    1.8078 O   0  0  0  0  0  0  0  0  0  0  0  0
   10.6270    5.4111    0.8884 N   0  0  0  0  0  0  0  0  0  0  0  0
   10.3849    3.5872    0.3863 C   0  0  0  0  0  0  0  0  0  0  0  0
   11.1238    2.0831   -0.9387 C   0  0  1  0  0  0  0  0  0  0  0  0
   11.9341    0.7129   -0.3121 N   0  0  0  0  0  0  0  0  0  0  0  0
   12.1659   -0.9801    0.0235 C   0  0  0  0  0  0  0  0  0  0  0  0
   12.6671   -1.5833    1.0642 O   0  0  0  0  0  0  0  0  0  0  0  0
   11.1429   -1.7296   -0.4986 C   0  0  0  0  0  0  0  0  0  0  0  0
    9.3597   -1.6697   -0.0791 C   0  0  0  0  0  0  0  0  0  0  0  0
    8.3937    0.3905   -0.0567 C   0  0  2  0  0  0  0  0  0  0  0  0
    9.6070    1.5866    0.1197 N   0  0  0  0  0  0  0  0  0  0  0  0
   10.9423    1.3908    1.1185 C   0  0  0  0  0  0  0  0  0  0  0  0
   12.7466    0.2855    1.4236 C   0  0  0  0  0  0  0  0  0  0  0  0
   13.9225    0.3463    0.3076 N   0  0  0  0  0  0  0  0  0  0  0  0
   15.1031   -0.3046    0.8899 C   0  0  0  0  0  0  0  0  0  0  0  0
   14.9087   -1.7228    0.2766 C   0  0  0  0  0  0  0  0  0  0  0  0
   15.4222   -1.8616   -0.9419 O   0  0  0  0  0  0  0  0  0  0  0  0
   14.1574   -2.6580    0.4623 O   0  0  0  0  0  0  0  0  0  0  0  0
   13.8373    0.6334   -1.4419 C   0  0  0  0  0  0  0  0  0  0  0  0
   14.2316    1.9725   -2.4678 C   0  0  0  0  0  0  0  0  0  0  0  0
   13.6348    3.3609   -2.6330 N   0  0  0  0  0  0  0  0  0  0  0  0
   14.6706    4.4237   -2.8894 C   0  0  0  0  0  0  0  0  0  0  0  0
   15.4471    4.1162   -4.0406 C   0  0  0  0  0  0  0  0  0  0  0  0
   15.3141    5.0896   -4.9378 O   0  0  0  0  0  0  0  0  0  0  0  0
   16.0905    3.0812   -4.0745 O   0  0  0  0  0  0  0  0  0  0  0  0
   12.7389    3.7321   -3.6576 C   0  0  0  0  0  0  0  0  0  0  0  0
   11.7395    4.7965   -3.4463 C   0  0  0  0  0  0  0  0  0  0  0  0
   10.7862    4.0400   -2.8146 N   0  0  0  0  0  0  0  0  0  0  0  0
   10.5756    2.5679   -3.3322 C   0  0  0  0  0  0  0  0  0  0  0  0
   11.6542    1.2692   -3.2063 C   0  0  0  0  0  0  0  0  0  0  0  0
   11.6572    0.2464   -2.3016 O   0  0  0  0  0  0  0  0  0  0  0  0
   12.5639    1.0931   -3.9763 O   0  0  0  0  0  0  0  0  0  0  0  0
   10.7171    4.3792   -1.5041 C   0  0  0  0  0  0  0  0  0  0  0  0
    9.5189    2.8565   -1.2092 C   0  0  0  0  0  0  0  0  0  0  0  0
    7.1050    0.8950    0.7104 C   0  0  0  0  0  0  0  0  0  0  0  0
    5.8943    1.5258    0.0179 O   0  0  0  0  0  0  0  0  0  0  0  0
    6.9501    0.5180    1.8550 O   0  0  0  0  0  0  0  0  0  0  0  0
    9.8798    0.8545   -1.8749 C   0  0  0  0  0  0  0  0  0  0  0  0
    9.5673    0.4241   -3.0082 O   0  0  0  0  0  0  0  0  0  0  0  0
    9.9194   -0.1346   -0.9276 N   0  0  0  0  0  0  0  0  0  0  0  0
    9.5878   -0.3521    1.2488 C   0  0  2  0  0  0  0  0  0  0  0  0
    9.5465    0.5457    2.3619 C   0  0  0  0  0  0  0  0  0  0  0  0
   11.3985    0.9399    3.1077 C   0  0  0  0  0  0  0  0  0  0  0  0
   12.5947    2.0329    2.2000 C   0  0  0  0  0  0  0  0  0  0  0  0
   12.7968    3.0432    0.3732 C   0  0  0  0  0  0  0  0  0  0  0  0
   13.1441    4.4866    0.1436 N   0  0  0  0  0  0  0  0  0  0  0  0
   14.0081    5.3845   -0.0235 C   0  0  0  0  0  0  0  0  0  0  0  0
   13.7626    6.4304    0.5112 O   0  0  0  0  0  0  0  0  0  0  0  0
   15.0095    4.5994   -0.5127 C   0  0  0  0  0  0  0  0  0  0  0  0
   15.8447    3.4820   -0.1221 C   0  0  0  0  0  0  0  0  0  0  0  0
   15.3186    2.2385    0.0703 C   0  0  0  0  0  0  0  0  0  0  0  0
   15.6814    1.3311   -0.6859 O   0  0  0  0  0  0  0  0  0  0  0  0
   14.5073    2.3314    1.1887 N   0  0  0  0  0  0  0  0  0  0  0  0
   13.7695    3.7046    2.2007 C   0  0  0  0  0  0  0  0  0  0  0  0
   12.1550    4.2464    2.0702 C   0  0  0  0  0  0  0  0  0  0  0  0
   10.8076    3.5952    2.8804 C   0  0  0  0  0  0  0  0  0  0  0  0
   10.6959    3.0155    4.3640 C   0  0  1  0  0  0  0  0  0  0  0  0
   10.5761    4.3304    5.1027 N   0  0  0  0  0  0  0  0  0  0  0  0
    9.3188    4.9730    5.5927 C   0  0  0  0  0  0  0  0  0  0  0  0
    9.1900    6.1940    5.5878 O   0  0  0  0  0  0  0  0  0  0  0  0
    8.0320    3.9618    5.6418 C   0  0  0  0  0  0  0  0  0  0  0  0
    7.0516    3.6458    4.4379 C   0  0  0  0  0  0  0  0  0  0  0  0
    7.7954    3.2794    3.2789 C   0  0  2  0  0  0  0  0  0  0  0  0
    8.6279    4.3402    3.5006 N   0  0  0  0  0  0  0  0  0  0  0  0
    9.1533    5.3277    2.7796 C   0  0  0  0  0  0  0  0  0  0  0  0
   10.3556    5.6402    3.1680 O   0  0  0  0  0  0  0  0  0  0  0  0
    8.5651    4.8150    1.2707 N   0  0  0  0  0  0  0  0  0  0  0  0
    7.6201    3.4799    0.2018 C   0  0  1  0  0  0  0  0  0  0  0  0
    6.9449    4.3467   -0.6096 C   0  0  0  0  0  0  0  0  0  0  0  0
    8.0104    4.8228   -2.2312 C   0  0  0  0  0  0  0  0  0  0  0  0
    7.7797    3.8514   -3.1718 C   0  0  0  0  0  0  0  0  0  0  0  0
    7.6043    3.7341   -4.4102 O   0  0  0  0  0  0  0  0  0  0  0  0
    8.9125    3.8308   -3.5548 O   0  0  0  0  0  0  0  0  0  0  0  0
    7.3224    2.0770   -1.2556 C   0  0  0  0  0  0  0  0  0  0  0  0
    6.7686    0.4026   -1.2348 O   0  0  0  0  0  0  0  0  0  0  0  0
    7.6443    1.9904   -2.4242 O   0  0  0  0  0  0  0  0  0  0  0  0
    6.7116    3.6420    2.4323 C   0  0  0  0  0  0  0  0  0  0  0  0
    6.2423    2.5420    1.9420 O   0  0  0  0  0  0  0  0  0  0  0  0
    6.4428    4.7606    2.0785 O   0  0  0  0  0  0  0  0  0  0  0  0
    9.4595    1.7197    4.7508 C   0  0  0  0  0  0  0  0  0  0  0  0
    9.6719    0.4292    4.6849 O   0  0  0  0  0  0  0  0  0  0  0  0
    8.2651    1.7105    4.9688 O   0  0  0  0  0  0  0  0  0  0  0  0
    9.9069   -1.3361    2.3494 C   0  0  0  0  0  0  0  0  0  0  0  0
    8.9357   -2.0257    2.9382 O   0  0  0  0  0  0  0  0  0  0  0  0
   11.0027   -1.4506    2.8353 O   0  0  0  0  0  0  0  0  0  0  0  0
    6.6885    7.9638   -4.6975 C   0  0  0  0  0  0  0  0  0  0  0  0
    7.8472    7.1177   -5.2496 C   0  0  0  0  0  0  0  0  0  0  0  0
    5.7506    8.3427   -5.8168 C   0  0  0  0  0  0  0  0  0  0  0  0
    7.3148    9.2364   -4.1442 C   0  0  0  0  0  0  0  0  0  0  0  0
    3.8718    3.7117   -3.2618 H   0  0  0  0  0  0  0  0  0  0  0  0
    3.4746    5.2702   -2.3980 H   0  0  0  0  0  0  0  0  0  0  0  0
    4.8702    4.3186   -2.0663 H   0  0  0  0  0  0  0  0  0  0  0  0
    5.4996    3.5332   -5.1474 H   0  0  0  0  0  0  0  0  0  0  0  0
    6.4664    4.9245   -5.3748 H   0  0  0  0  0  0  0  0  0  0  0  0
    5.9643    4.0403   -3.7696 H   0  0  0  0  0  0  0  0  0  0  0  0
    3.1798    6.3879   -4.7217 H   0  0  0  0  0  0  0  0  0  0  0  0
    4.4530    6.1179   -5.9457 H   0  0  0  0  0  0  0  0  0  0  0  0
    3.5552    4.7709   -5.4695 H   0  0  0  0  0  0  0  0  0  0  0  0
    6.2685    5.3569   -1.9675 H   0  0  0  0  0  0  0  0  0  0  0  0
    8.6359    5.2584   -0.6132 H   0  0  0  0  0  0  0  0  0  0  0  0
    9.2770    8.7249    0.0231 H   0  0  0  0  0  0  0  0  0  0  0  0
    7.0564    9.1682   -1.2439 H   0  0  0  0  0  0  0  0  0  0  0  0
   10.7973    5.3257    1.8978 H   0  0  0  0  0  0  0  0  0  0  0  0
    9.5046    3.1203    1.0265 H   0  0  0  0  0  0  0  0  0  0  0  0
    9.6818    4.1219   -0.1231 H   0  0  0  0  0  0  0  0  0  0  0  0
   11.6283    2.6846   -1.6351 H   0  0  0  0  0  0  0  0  0  0  0  0
   12.5284    1.3048    0.2418 H   0  0  0  0  0  0  0  0  0  0  0  0
   11.5095   -1.5306   -1.4859 H   0  0  0  0  0  0  0  0  0  0  0  0
   11.5268   -2.5755   -0.0179 H   0  0  0  0  0  0  0  0  0  0  0  0
    9.0360   -2.1531   -0.8193 H   0  0  0  0  0  0  0  0  0  0  0  0
    9.2055   -2.2305    0.7431 H   0  0  0  0  0  0  0  0  0  0  0  0
    8.3791    0.7160   -1.0213 H   0  0  0  0  0  0  0  0  0  0  0  0
   11.3185    2.3219    1.0396 H   0  0  0  0  0  0  0  0  0  0  0  0
   10.4760    1.7729    2.1370 H   0  0  0  0  0  0  0  0  0  0  0  0
   13.2813    0.1511    2.4900 H   0  0  0  0  0  0  0  0  0  0  0  0
   11.7912   -0.3303    1.5715 H   0  0  0  0  0  0  0  0  0  0  0  0
   16.0593    0.1618    0.6106 H   0  0  0  0  0  0  0  0  0  0  0  0
   15.1368    0.0946    1.9358 H   0  0  0  0  0  0  0  0  0  0  0  0
   15.9759   -1.1197   -1.1682 H   0  0  0  0  0  0  0  0  0  0  0  0
   13.5470   -0.3151   -1.8888 H   0  0  0  0  0  0  0  0  0  0  0  0
   12.9951    1.2456   -1.5554 H   0  0  0  0  0  0  0  0  0  0  0  0
   15.1703    2.2857   -2.1647 H   0  0  0  0  0  0  0  0  0  0  0  0
   14.4664    1.5073   -3.3857 H   0  0  0  0  0  0  0  0  0  0  0  0
   14.2333    5.4425   -2.6868 H   0  0  0  0  0  0  0  0  0  0  0  0
   15.5807    4.3603   -2.2889 H   0  0  0  0  0  0  0  0  0  0  0  0
   14.7528    5.8317   -4.6193 H   0  0  0  0  0  0  0  0  0  0  0  0
   13.2554    3.8450   -4.5473 H   0  0  0  0  0  0  0  0  0  0  0  0
   12.1979    2.9624   -4.0681 H   0  0  0  0  0  0  0  0  0  0  0  0
   12.0157    5.6546   -2.8215 H   0  0  0  0  0  0  0  0  0  0  0  0
   11.1516    4.9797   -4.3215 H   0  0  0  0  0  0  0  0  0  0  0  0
    9.6082    2.2633   -3.0569 H   0  0  0  0  0  0  0  0  0  0  0  0
   10.2126    2.5846   -4.3328 H   0  0  0  0  0  0  0  0  0  0  0  0
   11.2539    0.2050   -1.2865 H   0  0  0  0  0  0  0  0  0  0  0  0
   11.7549    4.3941   -1.2515 H   0  0  0  0  0  0  0  0  0  0  0  0
   10.6123    5.4562   -1.1399 H   0  0  0  0  0  0  0  0  0  0  0  0
    8.6824    3.2985   -1.4565 H   0  0  0  0  0  0  0  0  0  0  0  0
    8.9771    2.7400   -0.3458 H   0  0  0  0  0  0  0  0  0  0  0  0
    5.7923    1.4091   -1.0364 H   0  0  0  0  0  0  0  0  0  0  0  0
    8.9423   -0.6691   -1.5494 H   0  0  0  0  0  0  0  0  0  0  0  0
    8.3220   -0.7202    1.2817 H   0  0  0  0  0  0  0  0  0  0  0  0
    9.0258    1.3352    1.7185 H   0  0  0  0  0  0  0  0  0  0  0  0
    8.9845    1.3890    2.6192 H   0  0  0  0  0  0  0  0  0  0  0  0
   11.6639    2.0258    3.1962 H   0  0  0  0  0  0  0  0  0  0  0  0
   11.4412    0.7517    4.0934 H   0  0  0  0  0  0  0  0  0  0  0  0
   13.5217    1.8244    2.7746 H   0  0  0  0  0  0  0  0  0  0  0  0
   11.8122    0.9058    2.3953 H   0  0  0  0  0  0  0  0  0  0  0  0
   13.4927    2.7157   -0.3612 H   0  0  0  0  0  0  0  0  0  0  0  0
   12.6554    2.7774   -0.6177 H   0  0  0  0  0  0  0  0  0  0  0  0
   12.8366    5.2361    0.7054 H   0  0  0  0  0  0  0  0  0  0  0  0
   14.2422    4.2578   -1.1716 H   0  0  0  0  0  0  0  0  0  0  0  0
   15.5430    5.4220   -0.8253 H   0  0  0  0  0  0  0  0  0  0  0  0
   16.4370    3.0469   -0.9170 H   0  0  0  0  0  0  0  0  0  0  0  0
   16.0698    3.4564    0.9096 H   0  0  0  0  0  0  0  0  0  0  0  0
   13.9596    1.6185    0.6046 H   0  0  0  0  0  0  0  0  0  0  0  0
   13.4692    3.5224    3.2249 H   0  0  0  0  0  0  0  0  0  0  0  0
   14.3857    4.4845    1.9095 H   0  0  0  0  0  0  0  0  0  0  0  0
   12.3356    5.3534    2.1734 H   0  0  0  0  0  0  0  0  0  0  0  0
   11.7568    4.3169    0.8657 H   0  0  0  0  0  0  0  0  0  0  0  0
    9.8166    3.6966    2.4051 H   0  0  0  0  0  0  0  0  0  0  0  0
   10.4101    3.0480    2.1700 H   0  0  0  0  0  0  0  0  0  0  0  0
   11.7154    2.6625    4.5277 H   0  0  0  0  0  0  0  0  0  0  0  0
   11.0612    5.0920    4.5276 H   0  0  0  0  0  0  0  0  0  0  0  0
    8.5589    3.1230    6.0430 H   0  0  0  0  0  0  0  0  0  0  0  0
    7.2935    4.2722    6.3075 H   0  0  0  0  0  0  0  0  0  0  0  0
    6.3388    2.8002    4.4098 H   0  0  0  0  0  0  0  0  0  0  0  0
    6.6362    4.6169    4.1113 H   0  0  0  0  0  0  0  0  0  0  0  0
    7.9442    2.1763    3.2778 H   0  0  0  0  0  0  0  0  0  0  0  0
    9.3166    4.0135    4.1107 H   0  0  0  0  0  0  0  0  0  0  0  0
    9.3601    5.1685    0.7576 H   0  0  0  0  0  0  0  0  0  0  0  0
    7.8528    3.0232    1.0712 H   0  0  0  0  0  0  0  0  0  0  0  0
    5.9727    3.9083   -0.6426 H   0  0  0  0  0  0  0  0  0  0  0  0
    6.8062    5.1391    0.1981 H   0  0  0  0  0  0  0  0  0  0  0  0
    8.0390    5.8236   -2.7819 H   0  0  0  0  0  0  0  0  0  0  0  0
    9.0942    5.2227   -2.1771 H   0  0  0  0  0  0  0  0  0  0  0  0
    7.8391    4.6882   -4.3691 H   0  0  0  0  0  0  0  0  0  0  0  0
    6.6820   -0.2860   -0.4146 H   0  0  0  0  0  0  0  0  0  0  0  0
    7.0192    1.9350    2.1025 H   0  0  0  0  0  0  0  0  0  0  0  0
   10.5098    0.3203    5.1027 H   0  0  0  0  0  0  0  0  0  0  0  0
    8.0525   -1.7683    2.6653 H   0  0  0  0  0  0  0  0  0  0  0  0
    7.5073    6.2268   -5.7488 H   0  0  0  0  0  0  0  0  0  0  0  0
    8.3795    7.6354   -6.0473 H   0  0  0  0  0  0  0  0  0  0  0  0
    8.5705    6.8172   -4.4844 H   0  0  0  0  0  0  0  0  0  0  0  0
    4.8970    8.9060   -5.4223 H   0  0  0  0  0  0  0  0  0  0  0  0
    6.2525    8.8754   -6.6081 H   0  0  0  0  0  0  0  0  0  0  0  0
    5.3779    7.4663   -6.3140 H   0  0  0  0  0  0  0  0  0  0  0  0
    6.5388    9.8723   -3.7069 H   0  0  0  0  0  0  0  0  0  0  0  0
    8.0594    9.0133   -3.3747 H   0  0  0  0  0  0  0  0  0  0  0  0
    7.8300    9.7760   -4.9325 H   0  0  0  0  0  0  0  0  0  0  0  0
  1  2  1  0  0  0  0
  1103  1  0  0  0  0
  1104  1  0  0  0  0
  1105  1  0  0  0  0
  2  3  1  0  0  0  0
  2  4  1  0  0  0  0
  2  5  1  0  0  0  0
  3106  1  0  0  0  0
  3107  1  0  0  0  0
  3108  1  0  0  0  0
  4109  1  0  0  0  0
  4110  1  0  0  0  0
  4111  1  0  0  0  0
  5  6  1  0  0  0  0
  5  7  1  0  0  0  0
  5 99  1  0  0  0  0
  7  8  2  0  0  0  0
  7 12  1  0  0  0  0
  8  9  1  0  0  0  0
  8112  1  0  0  0  0
  9 10  2  0  0  0  0
  9113  1  0  0  0  0
 10 11  1  0  0  0  0
 10 13  1  0  0  0  0
 11 12  2  0  0  0  0
 11114  1  0  0  0  0
 12115  1  0  0  0  0
 13 14  2  0  0  0  0
 13 15  1  0  0  0  0
 15 16  1  0  0  0  0
 15116  1  0  0  0  0
 16117  1  0  0  0  0
 16118  1  0  0  0  0
 17 16  1  0  0  0  0
 17 18  1  0  0  0  0
 17 51  1  0  0  0  0
 17119  1  6  0  0  0
 18 19  1  0  0  0  0
 18120  1  0  0  0  0
 19 20  2  0  0  0  0
 19 21  1  0  0  0  0
 21 22  1  0  0  0  0
 21121  1  0  0  0  0
 21122  1  0  0  0  0
 22123  1  0  0  0  0
 22124  1  0  0  0  0
 23 48  1  0  0  0  0
 23125  1  6  0  0  0
 23 24  1  0  0  0  0
 23 22  1  0  0  0  0
 24 25  1  0  0  0  0
 24 47  1  0  0  0  0
 25 26  1  0  0  0  0
 25126  1  0  0  0  0
 25127  1  0  0  0  0
 26 27  1  0  0  0  0
 26128  1  0  0  0  0
 26129  1  0  0  0  0
 27 28  1  0  0  0  0
 27 32  1  0  0  0  0
 28 29  1  0  0  0  0
 28130  1  0  0  0  0
 28131  1  0  0  0  0
 29 30  1  0  0  0  0
 29 31  2  0  0  0  0
 30132  1  0  0  0  0
 32 33  1  0  0  0  0
 32133  1  0  0  0  0
 32134  1  0  0  0  0
 33 34  1  0  0  0  0
 33135  1  0  0  0  0
 33136  1  0  0  0  0
 34 35  1  0  0  0  0
 34 39  1  0  0  0  0
 35 36  1  0  0  0  0
 35137  1  0  0  0  0
 35138  1  0  0  0  0
 36 37  1  0  0  0  0
 36 38  2  0  0  0  0
 37139  1  0  0  0  0
 39 40  1  0  0  0  0
 39140  1  0  0  0  0
 39141  1  0  0  0  0
 40 41  1  0  0  0  0
 40142  1  0  0  0  0
 40143  1  0  0  0  0
 41 42  1  0  0  0  0
 41 46  1  0  0  0  0
 42 43  1  0  0  0  0
 42144  1  0  0  0  0
 42145  1  0  0  0  0
 43 44  1  0  0  0  0
 43 45  2  0  0  0  0
 44146  1  0  0  0  0
 46 47  1  0  0  0  0
 46147  1  0  0  0  0
 46148  1  0  0  0  0
 47149  1  0  0  0  0
 47150  1  0  0  0  0
 48 49  1  0  0  0  0
 48 50  2  0  0  0  0
 49151  1  0  0  0  0
 51 52  2  0  0  0  0
 51 53  1  0  0  0  0
 53152  1  0  0  0  0
 54 96  1  0  0  0  0
 54153  1  6  0  0  0
 54 55  1  0  0  0  0
 54 53  1  0  0  0  0
 55 56  1  0  0  0  0
 55154  1  0  0  0  0
 55155  1  0  0  0  0
 56 57  1  0  0  0  0
 56156  1  0  0  0  0
 56157  1  0  0  0  0
 57 58  1  0  0  0  0
 57158  1  0  0  0  0
 57159  1  0  0  0  0
 58 59  1  0  0  0  0
 58160  1  0  0  0  0
 58161  1  0  0  0  0
 59 60  1  0  0  0  0
 59162  1  0  0  0  0
 60 61  2  0  0  0  0
 60 62  1  0  0  0  0
 62 63  1  0  0  0  0
 62163  1  0  0  0  0
 62164  1  0  0  0  0
 63 64  1  0  0  0  0
 63165  1  0  0  0  0
 63166  1  0  0  0  0
 64 65  2  0  0  0  0
 64 66  1  0  0  0  0
 66 67  1  0  0  0  0
 66167  1  0  0  0  0
 67 68  1  0  0  0  0
 67168  1  0  0  0  0
 67169  1  0  0  0  0
 68 69  1  0  0  0  0
 68170  1  0  0  0  0
 68171  1  0  0  0  0
 69172  1  0  0  0  0
 69173  1  0  0  0  0
 70 69  1  0  0  0  0
 70 71  1  0  0  0  0
 70 93  1  0  0  0  0
 70174  1  1  0  0  0
 71 72  1  0  0  0  0
 71175  1  0  0  0  0
 72 73  2  0  0  0  0
 72 74  1  0  0  0  0
 74 75  1  0  0  0  0
 74176  1  0  0  0  0
 74177  1  0  0  0  0
 75178  1  0  0  0  0
 75179  1  0  0  0  0
 76 90  1  0  0  0  0
 76180  1  6  0  0  0
 76 77  1  0  0  0  0
 76 75  1  0  0  0  0
 77 78  1  0  0  0  0
 77181  1  0  0  0  0
 78 79  2  0  0  0  0
 78 80  1  0  0  0  0
 80182  1  0  0  0  0
 81 80  1  0  0  0  0
 81 82  1  0  0  0  0
 81 87  1  0  0  0  0
 81183  1  1  0  0  0
 82 83  1  0  0  0  0
 82184  1  0  0  0  0
 82185  1  0  0  0  0
 83 84  1  0  0  0  0
 83186  1  0  0  0  0
 83187  1  0  0  0  0
 84 85  1  0  0  0  0
 84 86  2  0  0  0  0
 85188  1  0  0  0  0
 87 88  1  0  0  0  0
 87 89  2  0  0  0  0
 88189  1  0  0  0  0
 90 91  1  0  0  0  0
 90 92  2  0  0  0  0
 91190  1  0  0  0  0
 93 94  1  0  0  0  0
 93 95  2  0  0  0  0
 94191  1  0  0  0  0
 96 97  1  0  0  0  0
 96 98  2  0  0  0  0
 97192  1  0  0  0  0
 99100  1  0  0  0  0
 99101  1  0  0  0  0
 99102  1  0  0  0  0
100193  1  0  0  0  0
100194  1  0  0  0  0
100195  1  0  0  0  0
101196  1  0  0  0  0
101197  1  0  0  0  0
101198  1  0  0  0  0
102199  1  0  0  0  0
102200  1  0  0  0  0
102201  1  0  0  0  0
M  ISO  1   6  18
M  END
>  <DRUGBANK_ID>
DB17851

>  <COMMON_NAME>
Flotufolastat F-18

>  <CAS_NUMBER>
2639294-14-5

>  <UNII>
811W19E3OL

>  <SYNONYMS>
18F-rhPSMA-7.3; Flotufolastat (18F); Flotufolastat F 18; rhPSMA-7.3C

$$$$
