
 OpenBabel10282417203D

 35 37  0  0  0  0  0  0  0  0999 V2000
    1.1289    0.0147    0.0953 C   0  0  0  0  0  0  0  0  0  0  0  0
    0.4299    0.5041   -0.9429 C   0  0  0  0  0  0  0  0  0  0  0  0
   -1.0622    0.4769   -0.9588 C   0  0  0  0  0  0  0  0  0  0  0  0
   -1.7240    1.7813   -1.1123 N   0  0  0  0  0  0  0  0  0  0  0  0
   -3.1733    1.5178   -1.2011 C   0  0  0  0  0  0  0  0  0  0  0  0
   -3.8202    1.1301    0.1154 C   0  0  0  0  0  0  0  0  0  0  0  0
   -4.1724   -0.2055    0.3696 C   0  0  0  0  0  0  0  0  0  0  0  0
   -4.8155   -0.5516    1.5552 C   0  0  0  0  0  0  0  0  0  0  0  0
   -5.0888    0.4256    2.5064 C   0  0  0  0  0  0  0  0  0  0  0  0
   -4.6896    1.7442    2.2866 C   0  0  0  0  0  0  0  0  0  0  0  0
   -4.0494    2.1187    1.0935 C   0  0  0  0  0  0  0  0  0  0  0  0
   -3.6362    3.5141    0.8513 C   0  0  0  0  0  0  0  0  0  0  0  0
   -4.5401    4.5576    1.1181 C   0  0  0  0  0  0  0  0  0  0  0  0
   -4.2102    5.8834    0.8551 C   0  0  0  0  0  0  0  0  0  0  0  0
   -2.9596    6.1920    0.3313 C   0  0  0  0  0  0  0  0  0  0  0  0
   -2.0431    5.1736    0.0509 C   0  0  0  0  0  0  0  0  0  0  0  0
   -2.3709    3.8264    0.2890 C   0  0  0  0  0  0  0  0  0  0  0  0
   -1.3637    2.7169   -0.0158 C   0  0  0  0  0  0  0  0  0  0  0  0
    0.6180   -0.3827    0.9680 H   0  0  0  0  0  0  0  0  0  0  0  0
    2.2100   -0.0016    0.0907 H   0  0  0  0  0  0  0  0  0  0  0  0
    0.9378    0.8820   -1.8235 H   0  0  0  0  0  0  0  0  0  0  0  0
   -1.3464   -0.1671   -1.8028 H   0  0  0  0  0  0  0  0  0  0  0  0
   -1.4195   -0.0291   -0.0538 H   0  0  0  0  0  0  0  0  0  0  0  0
   -3.3599    0.7272   -1.9413 H   0  0  0  0  0  0  0  0  0  0  0  0
   -3.6915    2.3849   -1.6309 H   0  0  0  0  0  0  0  0  0  0  0  0
   -3.9452   -0.9803   -0.3589 H   0  0  0  0  0  0  0  0  0  0  0  0
   -5.1108   -1.5821    1.7322 H   0  0  0  0  0  0  0  0  0  0  0  0
   -5.6107    0.1651    3.4229 H   0  0  0  0  0  0  0  0  0  0  0  0
   -4.8849    2.4863    3.0579 H   0  0  0  0  0  0  0  0  0  0  0  0
   -5.5293    4.3315    1.5108 H   0  0  0  0  0  0  0  0  0  0  0  0
   -4.9363    6.6671    1.0529 H   0  0  0  0  0  0  0  0  0  0  0  0
   -2.7018    7.2295    0.1348 H   0  0  0  0  0  0  0  0  0  0  0  0
   -1.0711    5.4418   -0.3571 H   0  0  0  0  0  0  0  0  0  0  0  0
   -0.4030    3.1824   -0.2770 H   0  0  0  0  0  0  0  0  0  0  0  0
   -1.1817    2.1821    0.9268 H   0  0  0  0  0  0  0  0  0  0  0  0
  1  2  2  0  0  0  0
  1 19  1  0  0  0  0
  1 20  1  0  0  0  0
  2  3  1  0  0  0  0
  2 21  1  0  0  0  0
  3  4  1  0  0  0  0
  3 22  1  0  0  0  0
  3 23  1  0  0  0  0
  4  5  1  0  0  0  0
  4 18  1  0  0  0  0
  5  6  1  0  0  0  0
  5 24  1  0  0  0  0
  5 25  1  0  0  0  0
  6  7  2  0  0  0  0
  6 11  1  0  0  0  0
  7  8  1  0  0  0  0
  7 26  1  0  0  0  0
  8  9  2  0  0  0  0
  8 27  1  0  0  0  0
  9 10  1  0  0  0  0
  9 28  1  0  0  0  0
 10 11  2  0  0  0  0
 10 29  1  0  0  0  0
 11 12  1  0  0  0  0
 12 13  2  0  0  0  0
 12 17  1  0  0  0  0
 13 14  1  0  0  0  0
 13 30  1  0  0  0  0
 14 15  2  0  0  0  0
 14 31  1  0  0  0  0
 15 16  1  0  0  0  0
 15 32  1  0  0  0  0
 16 17  2  0  0  0  0
 16 33  1  0  0  0  0
 17 18  1  0  0  0  0
 18 34  1  0  0  0  0
 18 35  1  0  0  0  0
M  END
>  <DRUGBANK_ID>
DB13727

>  <COMMON_NAME>
Azapetine

>  <CAS_NUMBER>
146-36-1

>  <UNII>
9TTR0UA2KC

$$$$
