IN4
 OpenBabel10282417173D

 50 51  0  0  0  0  0  0  0  0999 V2000
    1.4601   -0.2750    0.0320 C   0  0  0  0  0  0  0  0  0  0  0  0
    0.5742   -1.3632    0.0681 C   0  0  0  0  0  0  0  0  0  0  0  0
   -0.8004   -1.1623    0.0687 C   0  0  0  0  0  0  0  0  0  0  0  0
   -1.2937    0.1355    0.0234 C   0  0  0  0  0  0  0  0  0  0  0  0
   -0.3891    1.2123   -0.0429 C   0  0  0  0  0  0  0  0  0  0  0  0
    0.9843    1.0340   -0.0587 C   0  0  0  0  0  0  0  0  0  0  0  0
   -2.7691    0.3692   -0.1916 C   0  0  1  0  0  0  0  0  0  0  0  0
   -3.3715    1.2421    0.9757 C   0  0  0  0  0  0  0  0  0  0  0  0
   -2.8602    2.7022    1.1840 C   0  0  0  0  0  0  0  0  0  0  0  0
   -3.0783    3.6411    0.0127 C   0  0  0  0  0  0  0  0  0  0  0  0
    1.8892    2.2146   -0.2649 C   0  0  0  0  0  0  0  0  0  0  0  0
    1.4900    3.4451   -0.3909 N   0  0  0  0  0  0  0  0  0  0  0  0
    3.2320    2.0505   -0.3474 N   0  0  0  0  0  0  0  0  0  0  0  0
   -4.0400    3.3527   -0.9572 C   0  0  0  0  0  0  0  0  0  0  0  0
   -3.9858    3.9110   -2.2330 C   0  0  0  0  0  0  0  0  0  0  0  0
   -3.2637    5.0727   -2.4263 C   0  0  0  0  0  0  0  0  0  0  0  0
   -3.3507    5.7756   -3.7465 C   0  0  0  0  0  0  0  0  0  0  0  0
   -2.5316    5.5704   -1.3359 C   0  0  0  0  0  0  0  0  0  0  0  0
   -2.3371    4.8014   -0.1739 C   0  0  0  0  0  0  0  0  0  0  0  0
   -2.8540    6.9563   -3.9430 N   0  0  0  0  0  0  0  0  0  0  0  0
   -3.9774    5.2234   -4.8205 N   0  0  0  0  0  0  0  0  0  0  0  0
   -2.9670    0.9124   -1.6140 C   0  0  0  0  0  0  0  0  0  0  0  0
   -2.5073    0.1927   -2.8297 C   0  0  0  0  0  0  0  0  0  0  0  0
   -3.2559   -0.0662   -3.7824 O   0  0  0  0  0  0  0  0  0  0  0  0
   -1.1702    0.0480   -2.8245 O   0  0  0  0  0  0  0  0  0  0  0  0
   -0.6686   -0.6253   -3.9610 C   0  0  0  0  0  0  0  0  0  0  0  0
   -3.3028   -0.5918   -0.1523 H   0  0  0  0  0  0  0  0  0  0  0  0
    2.5212   -0.4841    0.0462 H   0  0  0  0  0  0  0  0  0  0  0  0
    0.9600   -2.3775    0.0534 H   0  0  0  0  0  0  0  0  0  0  0  0
   -1.4800   -2.0111    0.0340 H   0  0  0  0  0  0  0  0  0  0  0  0
   -0.7760    2.2086   -0.1778 H   0  0  0  0  0  0  0  0  0  0  0  0
   -4.4641    1.2760    0.8727 H   0  0  0  0  0  0  0  0  0  0  0  0
   -3.2007    0.7003    1.9177 H   0  0  0  0  0  0  0  0  0  0  0  0
   -3.3487    3.1433    2.0583 H   0  0  0  0  0  0  0  0  0  0  0  0
   -1.8035    2.6636    1.4783 H   0  0  0  0  0  0  0  0  0  0  0  0
    0.4806    3.5660   -0.3335 H   0  0  0  0  0  0  0  0  0  0  0  0
    3.6741    1.1524   -0.4430 H   0  0  0  0  0  0  0  0  0  0  0  0
    3.7573    2.8686   -0.6312 H   0  0  0  0  0  0  0  0  0  0  0  0
   -4.7348    2.5366   -0.8033 H   0  0  0  0  0  0  0  0  0  0  0  0
   -4.5139    3.4056   -3.0361 H   0  0  0  0  0  0  0  0  0  0  0  0
   -2.0956    6.5610   -1.3559 H   0  0  0  0  0  0  0  0  0  0  0  0
   -1.6253    5.1405    0.5764 H   0  0  0  0  0  0  0  0  0  0  0  0
   -2.4133    7.3242   -3.1014 H   0  0  0  0  0  0  0  0  0  0  0  0
   -4.3069    4.2728   -4.8784 H   0  0  0  0  0  0  0  0  0  0  0  0
   -3.9508    5.7579   -5.6804 H   0  0  0  0  0  0  0  0  0  0  0  0
   -4.0388    1.0236   -1.7924 H   0  0  0  0  0  0  0  0  0  0  0  0
   -2.4221    1.8521   -1.7220 H   0  0  0  0  0  0  0  0  0  0  0  0
   -1.1617   -1.5967   -4.0461 H   0  0  0  0  0  0  0  0  0  0  0  0
   -0.8224   -0.0185   -4.8574 H   0  0  0  0  0  0  0  0  0  0  0  0
    0.3994   -0.7792   -3.8041 H   0  0  0  0  0  0  0  0  0  0  0  0
  1  2  2  0  0  0  0
  1  6  1  0  0  0  0
  1 28  1  0  0  0  0
  2  3  1  0  0  0  0
  2 29  1  0  0  0  0
  3  4  2  0  0  0  0
  3 30  1  0  0  0  0
  4  5  1  0  0  0  0
  4  7  1  0  0  0  0
  5  6  2  0  0  0  0
  5 31  1  0  0  0  0
  6 11  1  0  0  0  0
  7  8  1  0  0  0  0
  7 22  1  0  0  0  0
  7 27  1  1  0  0  0
  8  9  1  0  0  0  0
  8 32  1  0  0  0  0
  8 33  1  0  0  0  0
  9 10  1  0  0  0  0
  9 34  1  0  0  0  0
  9 35  1  0  0  0  0
 10 14  2  0  0  0  0
 10 19  1  0  0  0  0
 11 12  2  0  0  0  0
 11 13  1  0  0  0  0
 12 36  1  0  0  0  0
 13 37  1  0  0  0  0
 13 38  1  0  0  0  0
 14 15  1  0  0  0  0
 14 39  1  0  0  0  0
 15 16  2  0  0  0  0
 15 40  1  0  0  0  0
 16 17  1  0  0  0  0
 16 18  1  0  0  0  0
 17 20  2  0  0  0  0
 17 21  1  0  0  0  0
 18 19  2  0  0  0  0
 18 41  1  0  0  0  0
 19 42  1  0  0  0  0
 20 43  1  0  0  0  0
 21 44  1  0  0  0  0
 21 45  1  0  0  0  0
 22 23  1  0  0  0  0
 22 46  1  0  0  0  0
 22 47  1  0  0  0  0
 23 24  2  0  0  0  0
 23 25  1  0  0  0  0
 25 26  1  0  0  0  0
 26 48  1  0  0  0  0
 26 49  1  0  0  0  0
 26 50  1  0  0  0  0
M  END
>  <DRUGBANK_ID>
DB07985

>  <COMMON_NAME>
+/-METHYL 4-(AMINOIMINOMETHYL)-BETA-[3- INH (AMINOIMINO)PHENYL]BENZENE PENTANOATE

$$$$
