
 OpenBabel10282417183D

 39 41  0  0  0  0  0  0  0  0999 V2000
    1.0197    0.0122    0.1490 O   0  0  0  0  0  0  0  0  0  0  0  0
    2.2471    0.0394   -0.0048 C   0  0  0  0  0  0  0  0  0  0  0  0
    2.9971    1.0136    0.8431 C   0  0  0  0  0  0  0  0  0  0  0  0
    2.6728    1.1517    2.1483 C   0  0  0  0  0  0  0  0  0  0  0  0
    1.7211    0.3900    2.8107 O   0  0  0  0  0  0  0  0  0  0  0  0
    3.3245    2.1851    2.9794 C   0  0  0  0  0  0  0  0  0  0  0  0
    4.3085    3.0068    2.4052 C   0  0  0  0  0  0  0  0  0  0  0  0
    4.6473    2.8305    1.0358 N   0  0  0  0  0  0  0  0  0  0  0  0
    5.6605    3.6691    0.4189 C   0  0  0  0  0  0  0  0  0  0  0  0
    3.9517    1.9596    0.2197 C   0  0  0  0  0  0  0  0  0  0  0  0
    4.1030    1.9605   -1.0066 O   0  0  0  0  0  0  0  0  0  0  0  0
    4.9139    4.0107    3.1788 C   0  0  0  0  0  0  0  0  0  0  0  0
    4.5498    4.2068    4.5092 C   0  0  0  0  0  0  0  0  0  0  0  0
    3.5860    3.3908    5.0871 C   0  0  0  0  0  0  0  0  0  0  0  0
    2.9780    2.3856    4.3290 C   0  0  0  0  0  0  0  0  0  0  0  0
    2.9427   -0.8526   -0.8362 N   0  0  0  0  0  0  0  0  0  0  0  0
    2.2033   -1.6732   -1.7521 C   0  0  0  0  0  0  0  0  0  0  0  0
    1.1452   -1.1216   -2.4853 C   0  0  0  0  0  0  0  0  0  0  0  0
    0.4166   -1.8947   -3.3905 C   0  0  0  0  0  0  0  0  0  0  0  0
    0.7451   -3.2324   -3.5856 C   0  0  0  0  0  0  0  0  0  0  0  0
    1.8186   -3.7889   -2.8932 C   0  0  0  0  0  0  0  0  0  0  0  0
    2.5306   -3.0208   -1.9636 C   0  0  0  0  0  0  0  0  0  0  0  0
    4.4050   -0.9734   -0.8884 C   0  0  0  0  0  0  0  0  0  0  0  0
    1.2124   -0.1338    2.1568 H   0  0  0  0  0  0  0  0  0  0  0  0
    5.3357    4.7125    0.4490 H   0  0  0  0  0  0  0  0  0  0  0  0
    6.6104    3.5346    0.9447 H   0  0  0  0  0  0  0  0  0  0  0  0
    5.8289    3.4013   -0.6282 H   0  0  0  0  0  0  0  0  0  0  0  0
    5.6643    4.6743    2.7612 H   0  0  0  0  0  0  0  0  0  0  0  0
    5.0180    5.0004    5.0862 H   0  0  0  0  0  0  0  0  0  0  0  0
    3.3028    3.5393    6.1264 H   0  0  0  0  0  0  0  0  0  0  0  0
    2.2209    1.7641    4.8041 H   0  0  0  0  0  0  0  0  0  0  0  0
    0.8921   -0.0699   -2.3779 H   0  0  0  0  0  0  0  0  0  0  0  0
   -0.4015   -1.4426   -3.9442 H   0  0  0  0  0  0  0  0  0  0  0  0
    0.1611   -3.8393   -4.2725 H   0  0  0  0  0  0  0  0  0  0  0  0
    2.0944   -4.8251   -3.0727 H   0  0  0  0  0  0  0  0  0  0  0  0
    3.3043   -3.5080   -1.3761 H   0  0  0  0  0  0  0  0  0  0  0  0
    4.8506   -0.0578   -1.2732 H   0  0  0  0  0  0  0  0  0  0  0  0
    4.7969   -1.1614    0.1132 H   0  0  0  0  0  0  0  0  0  0  0  0
    4.7410   -1.7497   -1.5811 H   0  0  0  0  0  0  0  0  0  0  0  0
  1  2  2  0  0  0  0
  2  3  1  0  0  0  0
  2 16  1  0  0  0  0
  3  4  2  0  0  0  0
  3 10  1  0  0  0  0
  4  5  1  0  0  0  0
  4  6  1  0  0  0  0
  5 24  1  0  0  0  0
  6  7  2  0  0  0  0
  6 15  1  0  0  0  0
  7  8  1  0  0  0  0
  7 12  1  0  0  0  0
  8  9  1  0  0  0  0
  8 10  1  0  0  0  0
  9 25  1  0  0  0  0
  9 26  1  0  0  0  0
  9 27  1  0  0  0  0
 10 11  2  0  0  0  0
 12 13  2  0  0  0  0
 12 28  1  0  0  0  0
 13 14  1  0  0  0  0
 13 29  1  0  0  0  0
 14 15  2  0  0  0  0
 14 30  1  0  0  0  0
 15 31  1  0  0  0  0
 16 17  1  0  0  0  0
 16 23  1  0  0  0  0
 17 18  2  0  0  0  0
 17 22  1  0  0  0  0
 18 19  1  0  0  0  0
 18 32  1  0  0  0  0
 19 20  2  0  0  0  0
 19 33  1  0  0  0  0
 20 21  1  0  0  0  0
 20 34  1  0  0  0  0
 21 22  2  0  0  0  0
 21 35  1  0  0  0  0
 22 36  1  0  0  0  0
 23 37  1  0  0  0  0
 23 38  1  0  0  0  0
 23 39  1  0  0  0  0
M  END
>  <DRUGBANK_ID>
DB11366

>  <COMMON_NAME>
Roquinimex

>  <CAS_NUMBER>
84088-42-6

>  <UNII>
372T2944C0

>  <SYNONYMS>
Linomide; Roquinimex

$$$$
