
 OpenBabel10282417203D

 57 60  0  0  0  0  0  0  0  0999 V2000
    1.3088   -0.7035    0.3164 C   0  0  0  0  0  0  0  0  0  0  0  0
    0.0422   -1.2257    0.6223 N   0  0  0  0  0  0  0  0  0  0  0  0
    1.4363    0.6771    0.0842 C   0  0  0  0  0  0  0  0  0  0  0  0
    2.3752   -1.5845    0.0724 C   0  0  0  0  0  0  0  0  0  0  0  0
   -1.0898   -0.6652    0.0041 C   0  0  0  0  0  0  0  0  0  0  0  0
    0.0519   -2.0663    1.8460 C   0  0  0  0  0  0  0  0  0  0  0  0
    0.0727    1.7957    0.4414 S   0  0  0  0  0  0  0  0  0  0  0  0
    2.6157    1.1613   -0.4583 C   0  0  0  0  0  0  0  0  0  0  0  0
    3.5535   -1.0828   -0.4562 C   0  0  0  0  0  0  0  0  0  0  0  0
   -1.2808    0.7231   -0.0299 C   0  0  0  0  0  0  0  0  0  0  0  0
   -2.0172   -1.4195   -0.7241 C   0  0  0  0  0  0  0  0  0  0  0  0
   -0.6704   -1.5379    3.1088 C   0  0  0  0  0  0  0  0  0  0  0  0
    3.6680    0.2826   -0.7422 C   0  0  0  0  0  0  0  0  0  0  0  0
    4.8661   -2.2023   -0.8782 S   0  0  0  0  0  0  0  0  0  0  0  0
   -2.4930    1.2722   -0.4840 C   0  0  0  0  0  0  0  0  0  0  0  0
   -3.2885   -0.9029   -1.0338 C   0  0  0  0  0  0  0  0  0  0  0  0
   -2.1912   -1.4141    3.0141 C   0  0  0  0  0  0  0  0  0  0  0  0
    5.3391   -2.9695    0.6507 C   0  0  0  0  0  0  0  0  0  0  0  0
    4.2813   -3.2337   -1.7290 O   0  0  0  0  0  0  0  0  0  0  0  0
    5.9810   -1.4082   -1.3318 O   0  0  0  0  0  0  0  0  0  0  0  0
   -3.5395    0.4467   -0.8824 C   0  0  0  0  0  0  0  0  0  0  0  0
   -2.9542   -2.6822    2.7819 N   0  0  0  0  0  0  0  0  0  0  0  0
   -3.2444   -2.7180    1.3668 C   0  0  0  0  0  0  0  0  0  0  0  0
   -2.2382   -3.9105    3.1321 C   0  0  0  0  0  0  0  0  0  0  0  0
   -3.8799   -3.8969    0.6776 C   0  0  0  0  0  0  0  0  0  0  0  0
   -2.9123   -5.1653    2.5839 C   0  0  0  0  0  0  0  0  0  0  0  0
   -3.1270   -5.1571    1.0608 C   0  0  0  0  0  0  0  0  0  0  0  0
   -3.9917   -6.3304    0.6692 C   0  0  0  0  0  0  0  0  0  0  0  0
   -3.4506   -7.2414   -0.1790 N   0  0  0  0  0  0  0  0  0  0  0  0
   -5.1399   -6.4801    1.0820 O   0  0  0  0  0  0  0  0  0  0  0  0
    2.2386   -2.6566    0.2084 H   0  0  0  0  0  0  0  0  0  0  0  0
   -0.2385   -3.0615    1.5177 H   0  0  0  0  0  0  0  0  0  0  0  0
    1.0792   -2.2436    2.2091 H   0  0  0  0  0  0  0  0  0  0  0  0
    2.6981    2.2159   -0.7000 H   0  0  0  0  0  0  0  0  0  0  0  0
   -1.8354   -2.4790   -0.9008 H   0  0  0  0  0  0  0  0  0  0  0  0
   -0.4606   -2.2082    3.9585 H   0  0  0  0  0  0  0  0  0  0  0  0
   -0.2367   -0.5792    3.4204 H   0  0  0  0  0  0  0  0  0  0  0  0
    4.5638    0.6760   -1.2122 H   0  0  0  0  0  0  0  0  0  0  0  0
   -2.6316    2.3468   -0.5199 H   0  0  0  0  0  0  0  0  0  0  0  0
   -4.1146   -1.5769   -1.2669 H   0  0  0  0  0  0  0  0  0  0  0  0
   -2.5904   -0.9419    3.9196 H   0  0  0  0  0  0  0  0  0  0  0  0
   -2.4084   -0.6538    2.2498 H   0  0  0  0  0  0  0  0  0  0  0  0
    4.5032   -3.5431    1.0551 H   0  0  0  0  0  0  0  0  0  0  0  0
    6.1704   -3.6482    0.4398 H   0  0  0  0  0  0  0  0  0  0  0  0
    5.6634   -2.2015    1.3546 H   0  0  0  0  0  0  0  0  0  0  0  0
   -4.5273    0.8435   -1.1019 H   0  0  0  0  0  0  0  0  0  0  0  0
   -2.2478   -2.7370    0.9613 H   0  0  0  0  0  0  0  0  0  0  0  0
   -3.8171   -1.8249    1.1231 H   0  0  0  0  0  0  0  0  0  0  0  0
   -2.1113   -3.9563    4.2147 H   0  0  0  0  0  0  0  0  0  0  0  0
   -1.2352   -3.9661    2.7215 H   0  0  0  0  0  0  0  0  0  0  0  0
   -3.8238   -3.7757   -0.4168 H   0  0  0  0  0  0  0  0  0  0  0  0
   -4.9412   -3.9272    0.9266 H   0  0  0  0  0  0  0  0  0  0  0  0
   -3.8766   -5.2675    3.0857 H   0  0  0  0  0  0  0  0  0  0  0  0
   -2.2873   -6.0245    2.8420 H   0  0  0  0  0  0  0  0  0  0  0  0
   -2.1625   -5.1910    0.5263 H   0  0  0  0  0  0  0  0  0  0  0  0
   -4.0423   -8.0245   -0.4277 H   0  0  0  0  0  0  0  0  0  0  0  0
   -2.5352   -7.1732   -0.5994 H   0  0  0  0  0  0  0  0  0  0  0  0
  1  2  1  0  0  0  0
  1  3  1  0  0  0  0
  1  4  2  0  0  0  0
  2  5  1  0  0  0  0
  2  6  1  0  0  0  0
  3  7  1  0  0  0  0
  3  8  2  0  0  0  0
  4  9  1  0  0  0  0
  4 31  1  0  0  0  0
  5 10  2  0  0  0  0
  5 11  1  0  0  0  0
  6 12  1  0  0  0  0
  6 32  1  0  0  0  0
  6 33  1  0  0  0  0
  7 10  1  0  0  0  0
  8 13  1  0  0  0  0
  8 34  1  0  0  0  0
  9 14  1  0  0  0  0
  9 13  2  0  0  0  0
 10 15  1  0  0  0  0
 11 16  2  0  0  0  0
 11 35  1  0  0  0  0
 12 17  1  0  0  0  0
 12 36  1  0  0  0  0
 12 37  1  0  0  0  0
 13 38  1  0  0  0  0
 14 18  1  0  0  0  0
 14 19  2  0  0  0  0
 14 20  2  0  0  0  0
 15 21  2  0  0  0  0
 15 39  1  0  0  0  0
 16 21  1  0  0  0  0
 16 40  1  0  0  0  0
 17 22  1  0  0  0  0
 17 41  1  0  0  0  0
 17 42  1  0  0  0  0
 18 43  1  0  0  0  0
 18 44  1  0  0  0  0
 18 45  1  0  0  0  0
 21 46  1  0  0  0  0
 22 23  1  0  0  0  0
 22 24  1  0  0  0  0
 23 25  1  0  0  0  0
 23 47  1  0  0  0  0
 23 48  1  0  0  0  0
 24 26  1  0  0  0  0
 24 49  1  0  0  0  0
 24 50  1  0  0  0  0
 25 27  1  0  0  0  0
 25 51  1  0  0  0  0
 25 52  1  0  0  0  0
 26 27  1  0  0  0  0
 26 53  1  0  0  0  0
 26 54  1  0  0  0  0
 27 28  1  0  0  0  0
 27 55  1  0  0  0  0
 28 29  1  0  0  0  0
 28 30  2  0  0  0  0
 29 56  1  0  0  0  0
 29 57  1  0  0  0  0
M  END
>  <DRUGBANK_ID>
DB13591

>  <COMMON_NAME>
Metopimazine

>  <CAS_NUMBER>
14008-44-7

>  <UNII>
238S75V9AV

>  <SYNONYMS>
Metopimazina; Metopimazine; Metopimazinum

$$$$
