
 OpenBabel10282417233D

 56 55  0  0  0  0  0  0  0  0999 V2000
    1.0640    0.1058    0.0040 C   0  0  0  0  0  0  0  0  0  0  0  0
    0.6231   -1.2369   -0.5583 C   0  0  0  0  0  0  0  0  0  0  0  0
    1.1134   -2.3924    0.3190 C   0  0  0  0  0  0  0  0  0  0  0  0
    0.5634   -2.3039    1.7400 C   0  0  0  0  0  0  0  0  0  0  0  0
   -0.9559   -2.2353    1.7405 C   0  0  0  0  0  0  0  0  0  0  0  0
   -1.5417   -3.5156    1.2188 C   0  0  0  0  0  0  0  0  0  0  0  0
   -2.3102   -4.3182    1.9539 C   0  0  0  0  0  0  0  0  0  0  0  0
   -2.6753   -3.9859    3.3493 C   0  0  0  0  0  0  0  0  0  0  0  0
   -4.1515   -3.9121    3.5020 C   0  0  0  0  0  0  0  0  0  0  0  0
   -4.7978   -4.6447    4.4070 C   0  0  0  0  0  0  0  0  0  0  0  0
   -4.0763   -5.6069    5.2736 C   0  0  0  0  0  0  0  0  0  0  0  0
   -4.3021   -5.3115    6.7103 C   0  0  0  0  0  0  0  0  0  0  0  0
   -4.7980   -6.2330    7.5319 C   0  0  0  0  0  0  0  0  0  0  0  0
   -5.2018   -7.5642    7.0262 C   0  0  0  0  0  0  0  0  0  0  0  0
   -4.5067   -8.6448    7.7565 C   0  0  0  0  0  0  0  0  0  0  0  0
   -5.2000   -9.6126    8.3508 C   0  0  0  0  0  0  0  0  0  0  0  0
   -6.6967   -9.6478    8.3024 C   0  0  0  0  0  0  0  0  0  0  0  0
   -7.2557  -10.9907    7.9179 C   0  0  0  0  0  0  0  0  0  0  0  0
   -6.7844  -12.1039    8.8296 C   0  0  0  0  0  0  0  0  0  0  0  0
   -7.3213  -12.0369   10.2616 C   0  0  0  0  0  0  0  0  0  0  0  0
   -8.0873  -12.9256   10.6306 O   0  0  0  0  0  0  0  0  0  0  0  0
   -6.8784  -10.9081   11.2115 C   0  0  0  0  0  0  0  0  0  0  0  0
   -5.5459  -10.6421   11.1313 F   0  0  0  0  0  0  0  0  0  0  0  0
   -7.5329   -9.7284   11.0237 F   0  0  0  0  0  0  0  0  0  0  0  0
   -7.1216  -11.2092   12.5175 F   0  0  0  0  0  0  0  0  0  0  0  0
    0.6658    0.2851    1.0084 H   0  0  0  0  0  0  0  0  0  0  0  0
    0.7097    0.9223   -0.6276 H   0  0  0  0  0  0  0  0  0  0  0  0
    2.1554    0.1449    0.0623 H   0  0  0  0  0  0  0  0  0  0  0  0
   -0.4687   -1.2496   -0.6585 H   0  0  0  0  0  0  0  0  0  0  0  0
    1.0064   -1.3659   -1.5737 H   0  0  0  0  0  0  0  0  0  0  0  0
    0.8183   -3.3452   -0.1361 H   0  0  0  0  0  0  0  0  0  0  0  0
    2.2068   -2.4021    0.3572 H   0  0  0  0  0  0  0  0  0  0  0  0
    0.9105   -3.1577    2.3369 H   0  0  0  0  0  0  0  0  0  0  0  0
    0.9540   -1.4177    2.2529 H   0  0  0  0  0  0  0  0  0  0  0  0
   -1.2388   -1.9807    2.7595 H   0  0  0  0  0  0  0  0  0  0  0  0
   -1.3635   -1.4064    1.1586 H   0  0  0  0  0  0  0  0  0  0  0  0
   -1.3086   -3.8266    0.2037 H   0  0  0  0  0  0  0  0  0  0  0  0
   -2.6581   -5.2669    1.5474 H   0  0  0  0  0  0  0  0  0  0  0  0
   -2.1416   -4.7199    3.9480 H   0  0  0  0  0  0  0  0  0  0  0  0
   -2.3124   -3.0414    3.7439 H   0  0  0  0  0  0  0  0  0  0  0  0
   -4.7000   -3.2148    2.8747 H   0  0  0  0  0  0  0  0  0  0  0  0
   -5.8792   -4.5774    4.4946 H   0  0  0  0  0  0  0  0  0  0  0  0
   -4.3874   -6.5766    4.8947 H   0  0  0  0  0  0  0  0  0  0  0  0
   -2.9950   -5.6629    5.1860 H   0  0  0  0  0  0  0  0  0  0  0  0
   -4.0168   -4.3369    7.0952 H   0  0  0  0  0  0  0  0  0  0  0  0
   -4.9652   -6.0063    8.5815 H   0  0  0  0  0  0  0  0  0  0  0  0
   -6.2847   -7.5270    7.0896 H   0  0  0  0  0  0  0  0  0  0  0  0
   -5.0276   -7.8043    5.9811 H   0  0  0  0  0  0  0  0  0  0  0  0
   -3.4183   -8.6473    7.7810 H   0  0  0  0  0  0  0  0  0  0  0  0
   -4.6348  -10.3528    8.9103 H   0  0  0  0  0  0  0  0  0  0  0  0
   -7.0485   -9.2872    9.2516 H   0  0  0  0  0  0  0  0  0  0  0  0
   -7.1745   -8.9536    7.6166 H   0  0  0  0  0  0  0  0  0  0  0  0
   -8.3500  -10.9246    7.9229 H   0  0  0  0  0  0  0  0  0  0  0  0
   -6.9642  -11.1988    6.8769 H   0  0  0  0  0  0  0  0  0  0  0  0
   -7.1540  -13.0388    8.3888 H   0  0  0  0  0  0  0  0  0  0  0  0
   -5.6959  -12.2083    8.8365 H   0  0  0  0  0  0  0  0  0  0  0  0
  1  2  1  0  0  0  0
  1 26  1  0  0  0  0
  1 27  1  0  0  0  0
  1 28  1  0  0  0  0
  2  3  1  0  0  0  0
  2 29  1  0  0  0  0
  2 30  1  0  0  0  0
  3  4  1  0  0  0  0
  3 31  1  0  0  0  0
  3 32  1  0  0  0  0
  4  5  1  0  0  0  0
  4 33  1  0  0  0  0
  4 34  1  0  0  0  0
  5  6  1  0  0  0  0
  5 35  1  0  0  0  0
  5 36  1  0  0  0  0
  6  7  2  0  0  0  0
  6 37  1  0  0  0  0
  7  8  1  0  0  0  0
  7 38  1  0  0  0  0
  8  9  1  0  0  0  0
  8 39  1  0  0  0  0
  8 40  1  0  0  0  0
  9 10  2  0  0  0  0
  9 41  1  0  0  0  0
 10 11  1  0  0  0  0
 10 42  1  0  0  0  0
 11 12  1  0  0  0  0
 11 43  1  0  0  0  0
 11 44  1  0  0  0  0
 12 13  2  0  0  0  0
 12 45  1  0  0  0  0
 13 14  1  0  0  0  0
 13 46  1  0  0  0  0
 14 15  1  0  0  0  0
 14 47  1  0  0  0  0
 14 48  1  0  0  0  0
 15 16  2  0  0  0  0
 15 49  1  0  0  0  0
 16 17  1  0  0  0  0
 16 50  1  0  0  0  0
 17 18  1  0  0  0  0
 17 51  1  0  0  0  0
 17 52  1  0  0  0  0
 18 19  1  0  0  0  0
 18 53  1  0  0  0  0
 18 54  1  0  0  0  0
 19 20  1  0  0  0  0
 19 55  1  0  0  0  0
 19 56  1  0  0  0  0
 20 21  2  0  0  0  0
 20 22  1  0  0  0  0
 22 23  1  0  0  0  0
 22 24  1  0  0  0  0
 22 25  1  0  0  0  0
M  END
>  <DRUGBANK_ID>
DB17022

>  <COMMON_NAME>
Arachidonyltrifluoromethane

>  <CAS_NUMBER>
149301-79-1

>  <UNII>
00XIW1CR0F

>  <SYNONYMS>
6,9,12,15-heneicosatetraen-2-one, 1,1,1-trifluoro-, (6z,9z,12z,15z)-; Aacocf3; Arachidonyl trifluoromethyl ketone

$$$$
