TCO
 OpenBabel10282417143D

 40 40  0  0  0  0  0  0  0  0999 V2000
   -0.4711    1.6168   -1.0467 N   0  0  0  0  0  0  0  0  0  0  0  0
    0.3720    1.2071    0.0672 C   0  0  2  0  0  0  0  0  0  0  0  0
    1.1507    0.0083   -0.5290 C   0  0  0  0  0  0  0  0  0  0  0  0
    1.3322   -1.1106   -0.0639 O   0  0  0  0  0  0  0  0  0  0  0  0
   -0.0604    2.1161    2.4188 C   0  0  0  0  0  0  0  0  0  0  0  0
    1.3261    1.8086    2.9788 C   0  0  0  0  0  0  0  0  0  0  0  0
    1.3691    0.4185    3.6116 C   0  0  0  0  0  0  0  0  0  0  0  0
    0.9212   -0.6378    2.6224 C   0  0  0  0  0  0  0  0  0  0  0  0
   -0.4405   -0.3235    1.9870 C   0  0  0  0  0  0  0  0  0  0  0  0
   -0.4833    1.0717    1.3583 C   0  0  0  0  0  0  0  0  0  0  0  0
   -0.5898    2.8495   -1.6136 C   0  0  0  0  0  0  0  0  0  0  0  0
   -1.3051    2.9820   -2.5895 O   0  0  0  0  0  0  0  0  0  0  0  0
    0.1386    3.8294   -1.0035 O   0  0  0  0  0  0  0  0  0  0  0  0
    0.6344    5.2134   -2.9795 C   0  0  0  0  0  0  0  0  0  0  0  0
    0.0794    5.1807   -1.5504 C   0  0  0  0  0  0  0  0  0  0  0  0
   -1.3470    5.7408   -1.4899 C   0  0  0  0  0  0  0  0  0  0  0  0
    0.9729    6.0916   -0.6837 C   0  0  0  0  0  0  0  0  0  0  0  0
    1.1171    1.9956    0.2052 H   0  0  0  0  0  0  0  0  0  0  0  0
   -1.0521    0.9180   -1.4960 H   0  0  0  0  0  0  0  0  0  0  0  0
    1.6601    0.2333   -1.4756 H   0  0  0  0  0  0  0  0  0  0  0  0
   -0.7831    2.1192    3.2469 H   0  0  0  0  0  0  0  0  0  0  0  0
   -0.0796    3.1257    1.9903 H   0  0  0  0  0  0  0  0  0  0  0  0
    2.0668    1.8692    2.1711 H   0  0  0  0  0  0  0  0  0  0  0  0
    1.6159    2.5597    3.7184 H   0  0  0  0  0  0  0  0  0  0  0  0
    2.4019    0.1962    3.9030 H   0  0  0  0  0  0  0  0  0  0  0  0
    0.7441    0.3735    4.5067 H   0  0  0  0  0  0  0  0  0  0  0  0
    1.7423   -0.6449    1.9090 H   0  0  0  0  0  0  0  0  0  0  0  0
    0.9047   -1.6446    3.0489 H   0  0  0  0  0  0  0  0  0  0  0  0
   -0.7222   -1.0684    1.2330 H   0  0  0  0  0  0  0  0  0  0  0  0
   -1.2148   -0.3947    2.7625 H   0  0  0  0  0  0  0  0  0  0  0  0
   -1.5353    1.2983    1.1187 H   0  0  0  0  0  0  0  0  0  0  0  0
    0.0555    4.5863   -3.6610 H   0  0  0  0  0  0  0  0  0  0  0  0
    0.6237    6.2303   -3.3849 H   0  0  0  0  0  0  0  0  0  0  0  0
    1.6630    4.8367   -3.0040 H   0  0  0  0  0  0  0  0  0  0  0  0
   -1.7216    5.7385   -0.4603 H   0  0  0  0  0  0  0  0  0  0  0  0
   -1.3856    6.7655   -1.8743 H   0  0  0  0  0  0  0  0  0  0  0  0
   -2.0494    5.1482   -2.0798 H   0  0  0  0  0  0  0  0  0  0  0  0
    0.6365    6.1140    0.3587 H   0  0  0  0  0  0  0  0  0  0  0  0
    2.0128    5.7474   -0.6752 H   0  0  0  0  0  0  0  0  0  0  0  0
    0.9642    7.1230   -1.0610 H   0  0  0  0  0  0  0  0  0  0  0  0
  1 11  1  0  0  0  0
  1 19  1  0  0  0  0
  2 10  1  0  0  0  0
  2 18  1  1  0  0  0
  2  3  1  0  0  0  0
  2  1  1  0  0  0  0
  3  4  2  0  0  0  0
  3 20  1  0  0  0  0
  5  6  1  0  0  0  0
  5 10  1  0  0  0  0
  5 21  1  0  0  0  0
  5 22  1  0  0  0  0
  6  7  1  0  0  0  0
  6 23  1  0  0  0  0
  6 24  1  0  0  0  0
  7  8  1  0  0  0  0
  7 25  1  0  0  0  0
  7 26  1  0  0  0  0
  8  9  1  0  0  0  0
  8 27  1  0  0  0  0
  8 28  1  0  0  0  0
  9 10  1  0  0  0  0
  9 29  1  0  0  0  0
  9 30  1  0  0  0  0
 10 31  1  0  0  0  0
 11 12  2  0  0  0  0
 11 13  1  0  0  0  0
 13 15  1  0  0  0  0
 14 15  1  0  0  0  0
 14 32  1  0  0  0  0
 14 33  1  0  0  0  0
 14 34  1  0  0  0  0
 15 16  1  0  0  0  0
 15 17  1  0  0  0  0
 16 35  1  0  0  0  0
 16 36  1  0  0  0  0
 16 37  1  0  0  0  0
 17 38  1  0  0  0  0
 17 39  1  0  0  0  0
 17 40  1  0  0  0  0
M  END
>  <DRUGBANK_ID>
DB04523

>  <SECONDARY_ACCESSION_NUMBERS>
EXPT03026

>  <COMMON_NAME>
Tert-Butyl(1s)-1-Cyclohexyl-2-Oxoethylcarbamate

$$$$
