
 OpenBabel10282417223D

 50 50  0  0  0  0  0  0  0  0999 V2000
    0.9736    0.0006   -0.2163 C   0  0  0  0  0  0  0  0  0  0  0  0
    0.5582   -1.3446   -0.3650 O   0  0  0  0  0  0  0  0  0  0  0  0
    1.3553   -2.3338    0.1472 C   0  0  0  0  0  0  0  0  0  0  0  0
    2.5240   -2.2197    0.9129 C   0  0  0  0  0  0  0  0  0  0  0  0
    3.1226   -1.0737    1.3562 O   0  0  0  0  0  0  0  0  0  0  0  0
    3.2248   -3.3608    1.2971 C   0  0  0  0  0  0  0  0  0  0  0  0
    2.7724   -4.6255    0.9478 C   0  0  0  0  0  0  0  0  0  0  0  0
    1.5940   -4.7777    0.2159 C   0  0  0  0  0  0  0  0  0  0  0  0
    1.0927   -6.1750   -0.0583 C   0  0  0  0  0  0  0  0  0  0  0  0
   -0.1696   -6.4558    0.5649 O   0  0  0  0  0  0  0  0  0  0  0  0
   -0.2638   -6.3210    1.9128 C   0  0  0  0  0  0  0  0  0  0  0  0
    0.6790   -6.1336    2.6749 O   0  0  0  0  0  0  0  0  0  0  0  0
   -1.6876   -6.4693    2.3957 C   0  0  0  0  0  0  0  0  0  0  0  0
   -2.6347   -5.4272    1.7990 C   0  0  0  0  0  0  0  0  0  0  0  0
   -2.8139   -5.5883    0.2866 C   0  0  0  0  0  0  0  0  0  0  0  0
   -3.3070   -6.9967   -0.0656 C   0  0  0  0  0  0  0  0  0  0  0  0
   -4.7046   -7.2398    0.5132 C   0  0  0  0  0  0  0  0  0  0  0  0
   -5.7166   -6.2414   -0.0593 C   0  0  0  0  0  0  0  0  0  0  0  0
   -5.7899   -6.3315   -1.5924 C   0  0  0  0  0  0  0  0  0  0  0  0
   -6.2421   -7.7281   -2.0138 C   0  0  0  0  0  0  0  0  0  0  0  0
   -6.7154   -5.2631   -2.1498 C   0  0  0  0  0  0  0  0  0  0  0  0
    0.8968   -3.6263   -0.1878 C   0  0  0  0  0  0  0  0  0  0  0  0
    0.7387    0.3414    0.7980 H   0  0  0  0  0  0  0  0  0  0  0  0
    0.4145    0.6305   -0.9124 H   0  0  0  0  0  0  0  0  0  0  0  0
    2.0313    0.1304   -0.4636 H   0  0  0  0  0  0  0  0  0  0  0  0
    2.4794   -0.3619    1.4464 H   0  0  0  0  0  0  0  0  0  0  0  0
    4.1247   -3.2599    1.8967 H   0  0  0  0  0  0  0  0  0  0  0  0
    3.3245   -5.4961    1.2924 H   0  0  0  0  0  0  0  0  0  0  0  0
    0.9667   -6.2932   -1.1424 H   0  0  0  0  0  0  0  0  0  0  0  0
    1.8100   -6.9424    0.2535 H   0  0  0  0  0  0  0  0  0  0  0  0
   -2.0194   -7.4980    2.2200 H   0  0  0  0  0  0  0  0  0  0  0  0
   -1.6877   -6.3531    3.4845 H   0  0  0  0  0  0  0  0  0  0  0  0
   -3.6106   -5.5108    2.2960 H   0  0  0  0  0  0  0  0  0  0  0  0
   -2.2841   -4.4147    2.0219 H   0  0  0  0  0  0  0  0  0  0  0  0
   -3.4908   -4.8152   -0.0895 H   0  0  0  0  0  0  0  0  0  0  0  0
   -1.8906   -5.3714   -0.2508 H   0  0  0  0  0  0  0  0  0  0  0  0
   -3.2882   -7.1299   -1.1515 H   0  0  0  0  0  0  0  0  0  0  0  0
   -2.6252   -7.7737    0.2925 H   0  0  0  0  0  0  0  0  0  0  0  0
   -5.0123   -8.2707    0.3155 H   0  0  0  0  0  0  0  0  0  0  0  0
   -4.6985   -7.1686    1.6060 H   0  0  0  0  0  0  0  0  0  0  0  0
   -6.7000   -6.4225    0.3870 H   0  0  0  0  0  0  0  0  0  0  0  0
   -5.4556   -5.2192    0.2422 H   0  0  0  0  0  0  0  0  0  0  0  0
   -4.8073   -6.1332   -2.0358 H   0  0  0  0  0  0  0  0  0  0  0  0
   -7.2221   -7.9552   -1.5825 H   0  0  0  0  0  0  0  0  0  0  0  0
   -6.3014   -7.8119   -3.1005 H   0  0  0  0  0  0  0  0  0  0  0  0
   -5.5427   -8.5014   -1.6795 H   0  0  0  0  0  0  0  0  0  0  0  0
   -6.3477   -4.2640   -1.8911 H   0  0  0  0  0  0  0  0  0  0  0  0
   -6.7554   -5.3323   -3.2414 H   0  0  0  0  0  0  0  0  0  0  0  0
   -7.7268   -5.3763   -1.7522 H   0  0  0  0  0  0  0  0  0  0  0  0
   -0.0205   -3.7291   -0.7673 H   0  0  0  0  0  0  0  0  0  0  0  0
  1  2  1  0  0  0  0
  1 23  1  0  0  0  0
  1 24  1  0  0  0  0
  1 25  1  0  0  0  0
  2  3  1  0  0  0  0
  3  4  2  0  0  0  0
  3 22  1  0  0  0  0
  4  5  1  0  0  0  0
  4  6  1  0  0  0  0
  5 26  1  0  0  0  0
  6  7  2  0  0  0  0
  6 27  1  0  0  0  0
  7  8  1  0  0  0  0
  7 28  1  0  0  0  0
  8  9  1  0  0  0  0
  8 22  2  0  0  0  0
  9 10  1  0  0  0  0
  9 29  1  0  0  0  0
  9 30  1  0  0  0  0
 10 11  1  0  0  0  0
 11 12  2  0  0  0  0
 11 13  1  0  0  0  0
 13 14  1  0  0  0  0
 13 31  1  0  0  0  0
 13 32  1  0  0  0  0
 14 15  1  0  0  0  0
 14 33  1  0  0  0  0
 14 34  1  0  0  0  0
 15 16  1  0  0  0  0
 15 35  1  0  0  0  0
 15 36  1  0  0  0  0
 16 17  1  0  0  0  0
 16 37  1  0  0  0  0
 16 38  1  0  0  0  0
 17 18  1  0  0  0  0
 17 39  1  0  0  0  0
 17 40  1  0  0  0  0
 18 19  1  0  0  0  0
 18 41  1  0  0  0  0
 18 42  1  0  0  0  0
 19 20  1  0  0  0  0
 19 21  1  0  0  0  0
 19 43  1  0  0  0  0
 20 44  1  0  0  0  0
 20 45  1  0  0  0  0
 20 46  1  0  0  0  0
 21 47  1  0  0  0  0
 21 48  1  0  0  0  0
 21 49  1  0  0  0  0
 22 50  1  0  0  0  0
M  END
>  <DRUGBANK_ID>
DB15398

>  <COMMON_NAME>
Dihydrocapsiate

>  <CAS_NUMBER>
205687-03-2

>  <UNII>
W2F7769AEU

$$$$
