
 OpenBabel10282417123D

 14 14  0  0  1  0  0  0  0  0999 V2000
    1.0514    0.1047    0.0034 N   0  0  0  0  0  0  0  0  0  0  0  0
    0.5670    1.2066   -0.8324 C   0  0  2  0  0  0  0  0  0  0  0  0
    1.3656    2.4657   -0.5987 C   0  0  0  0  0  0  0  0  0  0  0  0
    0.3528    3.5834   -0.6882 C   0  0  0  0  0  0  0  0  0  0  0  0
   -0.9429    2.9964   -0.7677 O   0  0  0  0  0  0  0  0  0  0  0  0
   -0.8421    1.6593   -0.5024 C   0  0  0  0  0  0  0  0  0  0  0  0
   -1.7835    0.9638   -0.1503 O   0  0  0  0  0  0  0  0  0  0  0  0
    0.6339   -0.7690   -0.3215 H   0  0  0  0  0  0  0  0  0  0  0  0
    2.0600    0.0044   -0.0850 H   0  0  0  0  0  0  0  0  0  0  0  0
    0.5886    0.9179   -1.8897 H   0  0  0  0  0  0  0  0  0  0  0  0
    1.8405    2.4813    0.3899 H   0  0  0  0  0  0  0  0  0  0  0  0
    2.1705    2.5779   -1.3332 H   0  0  0  0  0  0  0  0  0  0  0  0
    0.3737    4.2058    0.2122 H   0  0  0  0  0  0  0  0  0  0  0  0
    0.5308    4.2293   -1.5537 H   0  0  0  0  0  0  0  0  0  0  0  0
  1  8  1  0  0  0  0
  1  9  1  0  0  0  0
  2  1  1  0  0  0  0
  2  3  1  0  0  0  0
  2  6  1  0  0  0  0
  2 10  1  6  0  0  0
  3  4  1  0  0  0  0
  3 11  1  0  0  0  0
  3 12  1  0  0  0  0
  4  5  1  0  0  0  0
  4 13  1  0  0  0  0
  4 14  1  0  0  0  0
  5  6  1  0  0  0  0
  6  7  2  0  0  0  0
M  END
>  <DRUGBANK_ID>
DB02624

>  <SECONDARY_ACCESSION_NUMBERS>
EXPT01784

>  <COMMON_NAME>
Homoserine Lactone

>  <CAS_NUMBER>
1192-20-7

$$$$
