
 OpenBabel10282417173D

 52 54  0  0  0  0  0  0  0  0999 V2000
    1.0597   -0.0715   -0.0207 C   0  0  0  0  0  0  0  0  0  0  0  0
    0.5323    0.9928   -0.9533 C   0  0  0  0  0  0  0  0  0  0  0  0
    1.0347    0.7577   -2.2698 N   0  0  0  0  0  0  0  0  0  0  0  0
    0.3812    1.6382   -3.4863 S   0  0  0  0  0  0  0  0  0  0  0  0
    0.5499   -1.4636   -0.3693 C   0  0  0  0  0  0  0  0  0  0  0  0
    1.1153    3.1236   -3.1933 N   0  0  0  0  0  0  0  0  0  0  0  0
    0.9310    0.8826   -4.5971 O   0  0  0  0  0  0  0  0  0  0  0  0
   -1.0225    1.7549   -3.2463 O   0  0  0  0  0  0  0  0  0  0  0  0
    1.4432    4.0934   -4.2031 C   0  0  0  0  0  0  0  0  0  0  0  0
    2.3805    4.9626   -3.7346 N   0  0  0  0  0  0  0  0  0  0  0  0
    2.8984    5.8281   -4.6224 C   0  0  0  0  0  0  0  0  0  0  0  0
    2.5335    5.9379   -5.8977 N   0  0  0  0  0  0  0  0  0  0  0  0
    1.6007    5.0507   -6.3348 C   0  0  0  0  0  0  0  0  0  0  0  0
    0.9170    4.1308   -5.4885 C   0  0  0  0  0  0  0  0  0  0  0  0
    1.6400    5.0203   -7.7124 O   0  0  0  0  0  0  0  0  0  0  0  0
    0.9214    3.9773   -8.3315 C   0  0  0  0  0  0  0  0  0  0  0  0
    1.5297    2.5367   -8.2204 C   0  0  0  0  0  0  0  0  0  0  0  0
    2.0208    1.9685   -6.9839 O   0  0  0  0  0  0  0  0  0  0  0  0
    3.8309    3.3554   -6.7799 N   0  0  0  0  0  0  0  0  0  0  0  0
    3.1432    2.3358   -6.3081 C   0  0  0  0  0  0  0  0  0  0  0  0
    3.3070    1.8034   -5.0675 N   0  0  0  0  0  0  0  0  0  0  0  0
    4.2445    2.3444   -4.2579 C   0  0  0  0  0  0  0  0  0  0  0  0
    4.9880    3.4222   -4.6486 C   0  0  0  0  0  0  0  0  0  0  0  0
    4.7057    3.9013   -5.9116 C   0  0  0  0  0  0  0  0  0  0  0  0
    6.2331    4.2755   -3.5367 Br  0  0  0  0  0  0  0  0  0  0  0  0
   -2.7185    3.3173   -5.7052 C   0  0  0  0  0  0  0  0  0  0  0  0
   -1.5065    3.9263   -5.3725 C   0  0  0  0  0  0  0  0  0  0  0  0
   -0.3281    3.3705   -5.8133 C   0  0  0  0  0  0  0  0  0  0  0  0
   -0.4872    2.0952   -6.4322 C   0  0  0  0  0  0  0  0  0  0  0  0
   -1.6488    1.5871   -6.9593 C   0  0  0  0  0  0  0  0  0  0  0  0
   -2.7876    2.2106   -6.5628 C   0  0  0  0  0  0  0  0  0  0  0  0
   -4.4132    1.4576   -7.1127 Br  0  0  0  0  0  0  0  0  0  0  0  0
    0.7312    0.1923    0.9871 H   0  0  0  0  0  0  0  0  0  0  0  0
    2.1553   -0.0712   -0.0338 H   0  0  0  0  0  0  0  0  0  0  0  0
   -0.5619    0.9645   -0.9656 H   0  0  0  0  0  0  0  0  0  0  0  0
    0.8694    1.9824   -0.6428 H   0  0  0  0  0  0  0  0  0  0  0  0
    2.0077    0.5347   -2.4630 H   0  0  0  0  0  0  0  0  0  0  0  0
    0.9049   -2.1829    0.3737 H   0  0  0  0  0  0  0  0  0  0  0  0
   -0.5446   -1.4902   -0.3783 H   0  0  0  0  0  0  0  0  0  0  0  0
    0.9052   -1.7930   -1.3521 H   0  0  0  0  0  0  0  0  0  0  0  0
    0.7347    3.5890   -2.3754 H   0  0  0  0  0  0  0  0  0  0  0  0
    3.8268    6.3376   -4.3500 H   0  0  0  0  0  0  0  0  0  0  0  0
   -0.1196    4.1160   -8.0127 H   0  0  0  0  0  0  0  0  0  0  0  0
    0.8017    4.1812   -9.4054 H   0  0  0  0  0  0  0  0  0  0  0  0
    0.6416    1.9357   -8.5008 H   0  0  0  0  0  0  0  0  0  0  0  0
    2.2194    2.2281   -8.9931 H   0  0  0  0  0  0  0  0  0  0  0  0
    4.3355    1.9050   -3.2658 H   0  0  0  0  0  0  0  0  0  0  0  0
    5.0618    4.8727   -6.2384 H   0  0  0  0  0  0  0  0  0  0  0  0
   -3.6143    3.7151   -5.2587 H   0  0  0  0  0  0  0  0  0  0  0  0
   -1.4633    4.7802   -4.7000 H   0  0  0  0  0  0  0  0  0  0  0  0
    0.2662    1.3229   -6.5431 H   0  0  0  0  0  0  0  0  0  0  0  0
   -1.5912    0.6958   -7.5844 H   0  0  0  0  0  0  0  0  0  0  0  0
  1  2  1  0  0  0  0
  1  5  1  0  0  0  0
  1 33  1  0  0  0  0
  1 34  1  0  0  0  0
  2  3  1  0  0  0  0
  2 35  1  0  0  0  0
  2 36  1  0  0  0  0
  3  4  1  0  0  0  0
  3 37  1  0  0  0  0
  4  6  1  0  0  0  0
  4  7  2  0  0  0  0
  4  8  2  0  0  0  0
  5 38  1  0  0  0  0
  5 39  1  0  0  0  0
  5 40  1  0  0  0  0
  6  9  1  0  0  0  0
  6 41  1  0  0  0  0
  9 10  1  0  0  0  0
  9 14  2  0  0  0  0
 10 11  2  0  0  0  0
 11 12  1  0  0  0  0
 11 42  1  0  0  0  0
 12 13  2  0  0  0  0
 13 14  1  0  0  0  0
 13 15  1  0  0  0  0
 14 28  1  0  0  0  0
 15 16  1  0  0  0  0
 16 17  1  0  0  0  0
 16 43  1  0  0  0  0
 16 44  1  0  0  0  0
 17 18  1  0  0  0  0
 17 45  1  0  0  0  0
 17 46  1  0  0  0  0
 18 20  1  0  0  0  0
 19 20  1  0  0  0  0
 19 24  2  0  0  0  0
 20 21  2  0  0  0  0
 21 22  1  0  0  0  0
 22 23  2  0  0  0  0
 22 47  1  0  0  0  0
 23 24  1  0  0  0  0
 23 25  1  0  0  0  0
 24 48  1  0  0  0  0
 26 27  2  0  0  0  0
 26 31  1  0  0  0  0
 26 49  1  0  0  0  0
 27 28  1  0  0  0  0
 27 50  1  0  0  0  0
 28 29  2  0  0  0  0
 29 30  1  0  0  0  0
 29 51  1  0  0  0  0
 30 31  2  0  0  0  0
 30 52  1  0  0  0  0
 31 32  1  0  0  0  0
M  END
>  <DRUGBANK_ID>
DB08932

>  <COMMON_NAME>
Macitentan

>  <CAS_NUMBER>
441798-33-0

>  <UNII>
Z9K9Y9WMVL

>  <SYNONYMS>
MacitentÃ¡n; Macitentan; Macitentanum

$$$$
