
 OpenBabel10282417233D

 38 40  0  0  0  0  0  0  0  0999 V2000
   -1.8986    1.2396   -0.0152 C   0  0  0  0  0  0  0  0  0  0  0  0
   -0.5712    0.7877   -0.0063 C   0  0  0  0  0  0  0  0  0  0  0  0
   -0.3181   -0.6042   -0.0025 C   0  0  0  0  0  0  0  0  0  0  0  0
   -1.3972   -1.5024    0.0101 C   0  0  0  0  0  0  0  0  0  0  0  0
   -2.7112   -1.0327    0.0113 C   0  0  0  0  0  0  0  0  0  0  0  0
   -2.9612    0.3360   -0.0076 C   0  0  0  0  0  0  0  0  0  0  0  0
    0.5013    1.7002    0.0050 C   0  0  0  0  0  0  0  0  0  0  0  0
    1.8269    1.2508    0.0207 C   0  0  0  0  0  0  0  0  0  0  0  0
    2.0575   -0.1410    0.0011 C   0  0  0  0  0  0  0  0  0  0  0  0
    1.0055   -1.0549   -0.0091 C   0  0  0  0  0  0  0  0  0  0  0  0
    3.3098   -0.7067   -0.0062 O   0  0  0  0  0  0  0  0  0  0  0  0
    3.0019    2.1727    0.0752 C   0  0  0  0  0  0  0  0  0  0  0  0
    2.7990    3.5502    0.1188 N   0  0  0  0  0  0  0  0  0  0  0  0
    3.7717    4.5366    0.2092 N   0  0  0  0  0  0  0  0  0  0  0  0
    5.0221    4.2055    0.1558 C   0  0  0  0  0  0  0  0  0  0  0  0
    6.1259    5.1769    0.2005 C   0  0  0  0  0  0  0  0  0  0  0  0
    4.1042    1.6185    0.0916 O   0  0  0  0  0  0  0  0  0  0  0  0
    7.2348    4.9268   -0.6146 C   0  0  0  0  0  0  0  0  0  0  0  0
    8.3074    5.8030   -0.5786 C   0  0  0  0  0  0  0  0  0  0  0  0
    8.2919    6.9091    0.2690 C   0  0  0  0  0  0  0  0  0  0  0  0
    7.1977    7.1434    1.1027 C   0  0  0  0  0  0  0  0  0  0  0  0
    6.1033    6.2703    1.0673 C   0  0  0  0  0  0  0  0  0  0  0  0
    9.3776    7.7403    0.2496 O   0  0  0  0  0  0  0  0  0  0  0  0
    9.3761    5.5562   -1.3925 O   0  0  0  0  0  0  0  0  0  0  0  0
   -2.1187    2.3045   -0.0255 H   0  0  0  0  0  0  0  0  0  0  0  0
   -1.2219   -2.5764    0.0235 H   0  0  0  0  0  0  0  0  0  0  0  0
   -3.5398   -1.7360    0.0265 H   0  0  0  0  0  0  0  0  0  0  0  0
   -3.9839    0.7036   -0.0135 H   0  0  0  0  0  0  0  0  0  0  0  0
    0.2635    2.7574    0.0073 H   0  0  0  0  0  0  0  0  0  0  0  0
    1.2369   -2.1181   -0.0185 H   0  0  0  0  0  0  0  0  0  0  0  0
    3.9693    0.0250    0.0133 H   0  0  0  0  0  0  0  0  0  0  0  0
    1.8636    3.9404    0.1032 H   0  0  0  0  0  0  0  0  0  0  0  0
    5.3968    3.1838    0.0469 H   0  0  0  0  0  0  0  0  0  0  0  0
    7.2628    4.0711   -1.2831 H   0  0  0  0  0  0  0  0  0  0  0  0
    7.1753    7.9877    1.7841 H   0  0  0  0  0  0  0  0  0  0  0  0
    5.2536    6.4223    1.7281 H   0  0  0  0  0  0  0  0  0  0  0  0
    9.2201    8.4683    0.8757 H   0  0  0  0  0  0  0  0  0  0  0  0
   10.0102    6.2784   -1.2178 H   0  0  0  0  0  0  0  0  0  0  0  0
  1  2  1  0  0  0  0
  1 25  1  0  0  0  0
  2  3  2  0  0  0  0
  2  7  1  0  0  0  0
  3  4  1  0  0  0  0
  4  5  2  0  0  0  0
  4 26  1  0  0  0  0
  5  6  1  0  0  0  0
  5 27  1  0  0  0  0
  6  1  2  0  0  0  0
  6 28  1  0  0  0  0
  7  8  2  0  0  0  0
  7 29  1  0  0  0  0
  8  9  1  0  0  0  0
  8 12  1  0  0  0  0
  9 10  2  0  0  0  0
  9 11  1  0  0  0  0
 10  3  1  0  0  0  0
 10 30  1  0  0  0  0
 11 31  1  0  0  0  0
 12 13  1  0  0  0  0
 12 17  2  0  0  0  0
 13 14  1  0  0  0  0
 13 32  1  0  0  0  0
 14 15  2  0  0  0  0
 15 16  1  0  0  0  0
 15 33  1  0  0  0  0
 16 18  1  0  0  0  0
 18 19  2  0  0  0  0
 18 34  1  0  0  0  0
 19 20  1  0  0  0  0
 19 24  1  0  0  0  0
 20 21  2  0  0  0  0
 20 23  1  0  0  0  0
 21 22  1  0  0  0  0
 21 35  1  0  0  0  0
 22 16  2  0  0  0  0
 22 36  1  0  0  0  0
 23 37  1  0  0  0  0
 24 38  1  0  0  0  0
M  END
>  <DRUGBANK_ID>
DB15964

>  <COMMON_NAME>
Dynasore

>  <CAS_NUMBER>
304448-55-3

>  <SYNONYMS>
3-Hydroxynaphthalene-2-carboxylic acid (3,4-dihydroxybenzylidene)hydrazide; Dynamin Inhibitor I

$$$$
