
 OpenBabel10282417213D

 32 31  0  0  0  0  0  0  0  0999 V2000
    0.9060    0.0817   -0.0795 C   0  0  0  0  0  0  0  0  0  0  0  0
    0.4664    1.0315   -0.4162 H   0  0  0  0  0  0  0  0  0  0  0  0
    2.4083    0.0318   -0.1303 C   0  0  0  0  0  0  0  0  0  0  0  0
    3.0038   -1.3276    0.2461 C   0  0  3  0  0  0  0  0  0  0  0  0
    4.6026   -0.5842    2.7273 C   0  0  0  0  0  0  0  0  0  0  0  0
    4.5432   -1.2332    0.2459 C   0  0  0  0  0  0  0  0  0  0  0  0
    5.0660   -0.2486    1.2979 C   0  0  0  0  0  0  0  0  0  0  0  0
    6.6110   -2.0152    3.1975 C   0  0  0  0  0  0  0  0  0  0  0  0
    5.0827   -1.9648    3.2256 C   0  0  0  0  0  0  0  0  0  0  0  0
    4.5535   -2.2392    4.6256 C   0  0  0  0  0  0  0  0  0  0  0  0
    2.5587   -2.4386   -0.7009 C   0  0  0  0  0  0  0  0  0  0  0  0
    0.1801   -0.8192    0.3396 O   0  0  0  0  0  0  0  0  0  0  0  0
    4.5463   -3.0084    2.4147 O   0  0  0  0  0  0  0  0  0  0  0  0
    2.7426    0.3227   -1.1319 H   0  0  0  0  0  0  0  0  0  0  0  0
    2.7376    0.8133    0.5640 H   0  0  0  0  0  0  0  0  0  0  0  0
    2.6341   -1.6093    1.2393 H   0  0  0  0  0  0  0  0  0  0  0  0
    4.9666    0.2011    3.4021 H   0  0  0  0  0  0  0  0  0  0  0  0
    3.5085   -0.5238    2.7820 H   0  0  0  0  0  0  0  0  0  0  0  0
    4.9879   -2.2226    0.3976 H   0  0  0  0  0  0  0  0  0  0  0  0
    4.9065   -0.9360   -0.7443 H   0  0  0  0  0  0  0  0  0  0  0  0
    6.1587   -0.2079    1.2466 H   0  0  0  0  0  0  0  0  0  0  0  0
    4.7536    0.7707    1.0482 H   0  0  0  0  0  0  0  0  0  0  0  0
    7.0312   -1.2365    3.8428 H   0  0  0  0  0  0  0  0  0  0  0  0
    6.9849   -2.9903    3.5175 H   0  0  0  0  0  0  0  0  0  0  0  0
    7.0065   -1.8689    2.1867 H   0  0  0  0  0  0  0  0  0  0  0  0
    3.4569   -2.2583    4.6221 H   0  0  0  0  0  0  0  0  0  0  0  0
    4.8771   -3.2311    4.9610 H   0  0  0  0  0  0  0  0  0  0  0  0
    4.8959   -1.4892    5.3412 H   0  0  0  0  0  0  0  0  0  0  0  0
    2.9054   -2.2432   -1.7180 H   0  0  0  0  0  0  0  0  0  0  0  0
    2.9534   -3.4043   -0.3682 H   0  0  0  0  0  0  0  0  0  0  0  0
    1.4707   -2.5376   -0.7255 H   0  0  0  0  0  0  0  0  0  0  0  0
    4.9915   -3.8440    2.6310 H   0  0  0  0  0  0  0  0  0  0  0  0
  1 12  2  0  0  0  0
  1  2  1  0  0  0  0
  1  3  1  0  0  0  0
  3 14  1  0  0  0  0
  3 15  1  0  0  0  0
  4  3  1  0  0  0  0
  4 11  1  0  0  0  0
  4 16  1  0  0  0  0
  5 17  1  0  0  0  0
  5 18  1  0  0  0  0
  6  4  1  0  0  0  0
  6 19  1  0  0  0  0
  6 20  1  0  0  0  0
  7  5  1  0  0  0  0
  7  6  1  0  0  0  0
  7 21  1  0  0  0  0
  7 22  1  0  0  0  0
  8 23  1  0  0  0  0
  8 24  1  0  0  0  0
  8 25  1  0  0  0  0
  9  5  1  0  0  0  0
  9  8  1  0  0  0  0
  9 13  1  0  0  0  0
 10  9  1  0  0  0  0
 10 26  1  0  0  0  0
 10 27  1  0  0  0  0
 10 28  1  0  0  0  0
 11 29  1  0  0  0  0
 11 30  1  0  0  0  0
 11 31  1  0  0  0  0
 13 32  1  0  0  0  0
M  END
>  <DRUGBANK_ID>
DB14187

>  <COMMON_NAME>
Hydroxycitronellal

>  <CAS_NUMBER>
107-75-5

>  <UNII>
8SQ0VA4YUR

>  <SYNONYMS>
3,7-dimethyl-7-hydroxyoctan-1-al; 3,7-Dimethyl-7-hydroxyoctanal; 7-hydroxy-3,7-dimethyloctanal; 7-hydroxycitronellal; Citronellal hydrate; Cyclalia; Cyclosia; Fixol; hydroxy citronellal; Laurine; Lilyl aldehyde; Muguet synthetic; Muguettine principle; Oxydihydrocitronellal; Phixia

$$$$
