
 OpenBabel10282417133D

 21 20  0  0  1  0  0  0  0  0999 V2000
    0.2134   -0.1573   -2.2485 C   0  0  0  0  0  0  0  0  0  0  0  0
    0.5506    1.3193   -2.4553 C   0  0  1  0  0  0  0  0  0  0  0  0
    1.4012   -0.9287   -1.6691 C   0  0  1  0  0  0  0  0  0  0  0  0
    1.0039    2.0857   -1.1954 C   0  0  2  0  0  0  0  0  0  0  0  0
    1.0027   -2.3991   -1.3207 C   0  0  0  0  0  0  0  0  0  0  0  0
    0.5081    1.6850    0.2542 C   0  0  0  0  0  0  0  0  0  0  0  0
    1.5689    1.4384   -3.4862 O   0  0  0  0  0  0  0  0  0  0  0  0
    2.4459   -0.8826   -2.6964 O   0  0  0  0  0  0  0  0  0  0  0  0
    0.6169    3.4797   -1.4448 O   0  0  0  0  0  0  0  0  0  0  0  0
    1.6496   -3.2744   -1.9824 O   0  0  0  0  0  0  0  0  0  0  0  0
    0.0714   -2.5934   -0.4931 O   0  5  0  0  0  0  0  0  0  0  0  0
    0.5921    2.5934    1.1243 O   0  0  0  0  0  0  0  0  0  0  0  0
    0.0200    0.5316    0.4154 O   0  5  0  0  0  0  0  0  0  0  0  0
   -0.3194    1.8204   -2.8969 H   0  0  0  0  0  0  0  0  0  0  0  0
    1.8492   -0.4642   -0.7875 H   0  0  0  0  0  0  0  0  0  0  0  0
    2.1016    2.0940   -1.1604 H   0  0  0  0  0  0  0  0  0  0  0  0
   -0.0547   -0.5955   -3.2196 H   0  0  0  0  0  0  0  0  0  0  0  0
   -0.6913   -0.2363   -1.6380 H   0  0  0  0  0  0  0  0  0  0  0  0
    2.2745    0.8155   -3.1950 H   0  0  0  0  0  0  0  0  0  0  0  0
    2.1717   -1.6173   -3.2834 H   0  0  0  0  0  0  0  0  0  0  0  0
   -0.3013    3.4983   -1.1174 H   0  0  0  0  0  0  0  0  0  0  0  0
  1 17  1  0  0  0  0
  1 18  1  0  0  0  0
  2  1  1  0  0  0  0
  2  7  1  0  0  0  0
  2 14  1  6  0  0  0
  3  1  1  0  0  0  0
  3  8  1  0  0  0  0
  3 15  1  1  0  0  0
  4  9  1  0  0  0  0
  4 16  1  1  0  0  0
  4  6  1  0  0  0  0
  4  2  1  0  0  0  0
  5  3  1  0  0  0  0
  7 19  1  0  0  0  0
  8 20  1  0  0  0  0
  9 21  1  0  0  0  0
 10  5  2  0  0  0  0
 11  5  1  0  0  0  0
 12  6  2  0  0  0  0
 13  6  1  0  0  0  0
M  CHG  2  11  -1  13  -1
M  END
>  <DRUGBANK_ID>
DB03212

>  <SECONDARY_ACCESSION_NUMBERS>
EXPT01307

>  <COMMON_NAME>
4-Deoxyglucarate

$$$$
