
 OpenBabel10282417123D

 77 80  0  0  0  0  0  0  0  0999 V2000
    0.9344   -0.0304   -0.0620 O   0  0  0  0  0  0  0  0  0  0  0  0
    4.6006   -1.2898   -3.4162 C   0  0  0  0  0  0  0  0  0  0  0  0
    3.3785   -0.6563   -3.6485 C   0  0  0  0  0  0  0  0  0  0  0  0
    2.5216   -0.3522   -2.5836 C   0  0  0  0  0  0  0  0  0  0  0  0
    2.8621   -0.7356   -1.2977 C   0  0  0  0  0  0  0  0  0  0  0  0
    3.9999   -1.5165   -1.1019 C   0  0  0  0  0  0  0  0  0  0  0  0
    4.9576   -1.6642   -2.1204 C   0  0  0  0  0  0  0  0  0  0  0  0
    0.8406    0.6789   -4.3585 P   0  0  0  0  0  0  0  0  0  0  0  0
    0.2184   -0.7033   -4.5388 O   0  0  0  0  0  0  0  0  0  0  0  0
   -0.3039    1.6781   -3.7730 O   0  0  0  0  0  0  0  0  0  0  0  0
    0.3505    1.0645   -5.9722 O   0  0  0  0  0  0  0  0  0  0  0  0
    6.3789   -2.1029   -1.7961 C   0  0  0  0  0  0  0  0  0  0  0  0
    7.2048   -1.1031   -0.9350 C   0  0  1  0  0  0  0  0  0  0  0  0
    6.5495   -0.7520    0.4009 C   0  0  0  0  0  0  0  0  0  0  0  0
    7.0968   -1.1926    1.5801 N   0  0  0  0  0  0  0  0  0  0  0  0
    8.5927   -1.5407   -0.7549 N   0  0  0  0  0  0  0  0  0  0  0  0
    9.6341   -0.7107   -1.0941 C   0  0  0  0  0  0  0  0  0  0  0  0
   11.0101   -1.2344   -0.8043 C   0  0  0  0  0  0  0  0  0  0  0  0
    9.4735    0.3990   -1.6133 O   0  0  0  0  0  0  0  0  0  0  0  0
    5.5057   -0.0863    0.3897 O   0  0  0  0  0  0  0  0  0  0  0  0
    6.3550   -1.1086    2.8561 C   0  0  1  0  0  0  0  0  0  0  0  0
    5.4329    0.1226    2.8996 C   0  0  0  0  0  0  0  0  0  0  0  0
    5.0864    0.6886    4.2490 C   0  0  0  0  0  0  0  0  0  0  0  0
    4.2341   -0.2514    5.0464 C   0  0  0  0  0  0  0  0  0  0  0  0
    4.9539   -1.5414    5.3342 C   0  0  0  0  0  0  0  0  0  0  0  0
    4.9154   -2.5600    4.2937 N   0  0  0  0  0  0  0  0  0  0  0  0
    5.5555   -2.4198    3.0662 C   0  0  0  0  0  0  0  0  0  0  0  0
    4.2117   -3.8108    4.5846 C   0  0  0  0  0  0  0  0  0  0  0  0
    4.7603   -4.5976    5.7595 C   0  0  0  0  0  0  0  0  0  0  0  0
    5.5163   -3.2929    2.1941 O   0  0  0  0  0  0  0  0  0  0  0  0
    1.3307    0.2934   -2.7448 O   0  0  0  0  0  0  0  0  0  0  0  0
    4.7946   -4.0794    7.0671 C   0  0  0  0  0  0  0  0  0  0  0  0
    5.1763   -4.8264    8.1613 C   0  0  0  0  0  0  0  0  0  0  0  0
    5.4792   -6.1609    7.9895 C   0  0  0  0  0  0  0  0  0  0  0  0
    5.4039   -6.7193    6.7010 C   0  0  0  0  0  0  0  0  0  0  0  0
    5.1127   -5.9364    5.5861 C   0  0  0  0  0  0  0  0  0  0  0  0
    5.8520   -6.9787    9.1277 C   0  0  0  0  0  0  0  0  0  0  0  0
    5.0289   -7.0655   10.2582 C   0  0  0  0  0  0  0  0  0  0  0  0
    5.3141   -7.9937   11.2520 C   0  0  0  0  0  0  0  0  0  0  0  0
    6.4202   -8.8326   11.1182 C   0  0  0  0  0  0  0  0  0  0  0  0
    7.2679   -8.7163   10.0187 C   0  0  0  0  0  0  0  0  0  0  0  0
    7.0149   -7.7525    9.0559 C   0  0  0  0  0  0  0  0  0  0  0  0
    2.1513   -0.1826   -0.1178 C   0  0  0  0  0  0  0  0  0  0  0  0
    5.2588   -1.4851   -4.2606 H   0  0  0  0  0  0  0  0  0  0  0  0
    3.1442   -0.3966   -4.6761 H   0  0  0  0  0  0  0  0  0  0  0  0
    4.1954   -1.9068   -0.1057 H   0  0  0  0  0  0  0  0  0  0  0  0
   -0.5444    1.3509   -2.8771 H   0  0  0  0  0  0  0  0  0  0  0  0
   -0.5352    1.4612   -5.8656 H   0  0  0  0  0  0  0  0  0  0  0  0
    6.3495   -3.0941   -1.3331 H   0  0  0  0  0  0  0  0  0  0  0  0
    6.9220   -2.2248   -2.7452 H   0  0  0  0  0  0  0  0  0  0  0  0
    7.2148   -0.1383   -1.4597 H   0  0  0  0  0  0  0  0  0  0  0  0
    7.9854   -1.6739    1.5713 H   0  0  0  0  0  0  0  0  0  0  0  0
    8.7683   -2.4327   -0.3099 H   0  0  0  0  0  0  0  0  0  0  0  0
   11.5602   -1.3233   -1.7455 H   0  0  0  0  0  0  0  0  0  0  0  0
   11.5273   -0.5262   -0.1496 H   0  0  0  0  0  0  0  0  0  0  0  0
   10.9847   -2.2104   -0.3147 H   0  0  0  0  0  0  0  0  0  0  0  0
    7.1236   -1.0606    3.6354 H   0  0  0  0  0  0  0  0  0  0  0  0
    5.9144    0.9483    2.3657 H   0  0  0  0  0  0  0  0  0  0  0  0
    4.4827   -0.1175    2.4024 H   0  0  0  0  0  0  0  0  0  0  0  0
    6.0006    0.9431    4.7930 H   0  0  0  0  0  0  0  0  0  0  0  0
    4.5188    1.6138    4.1015 H   0  0  0  0  0  0  0  0  0  0  0  0
    4.0130    0.2360    6.0048 H   0  0  0  0  0  0  0  0  0  0  0  0
    3.2711   -0.4569    4.5639 H   0  0  0  0  0  0  0  0  0  0  0  0
    5.9895   -1.4023    5.6641 H   0  0  0  0  0  0  0  0  0  0  0  0
    4.3589   -1.8767    6.1606 H   0  0  0  0  0  0  0  0  0  0  0  0
    3.1612   -3.5697    4.7838 H   0  0  0  0  0  0  0  0  0  0  0  0
    4.2051   -4.4535    3.6952 H   0  0  0  0  0  0  0  0  0  0  0  0
    4.4982   -3.0849    7.3445 H   0  0  0  0  0  0  0  0  0  0  0  0
    5.1899   -4.3521    9.1395 H   0  0  0  0  0  0  0  0  0  0  0  0
    5.5443   -7.7908    6.5729 H   0  0  0  0  0  0  0  0  0  0  0  0
    5.1217   -6.3968    4.6002 H   0  0  0  0  0  0  0  0  0  0  0  0
    4.1418   -6.4402   10.3450 H   0  0  0  0  0  0  0  0  0  0  0  0
    4.6500   -8.0892   12.1055 H   0  0  0  0  0  0  0  0  0  0  0  0
    6.6230   -9.5842   11.8735 H   0  0  0  0  0  0  0  0  0  0  0  0
    8.1078   -9.3907    9.8891 H   0  0  0  0  0  0  0  0  0  0  0  0
    7.7018   -7.6213    8.2214 H   0  0  0  0  0  0  0  0  0  0  0  0
    2.7950    0.1445    0.7171 H   0  0  0  0  0  0  0  0  0  0  0  0
  2  3  1  0  0  0  0
  2  7  2  0  0  0  0
  2 44  1  0  0  0  0
  3  4  2  0  0  0  0
  3 45  1  0  0  0  0
  4  5  1  0  0  0  0
  4 31  1  0  0  0  0
  5  6  2  0  0  0  0
  5 43  1  0  0  0  0
  6  7  1  0  0  0  0
  6 46  1  0  0  0  0
  9  8  2  0  0  0  0
 10  8  1  0  0  0  0
 10 47  1  0  0  0  0
 11  8  1  0  0  0  0
 11 48  1  0  0  0  0
 12  7  1  0  0  0  0
 12 13  1  0  0  0  0
 12 49  1  0  0  0  0
 12 50  1  0  0  0  0
 13 14  1  0  0  0  0
 13 16  1  0  0  0  0
 13 51  1  6  0  0  0
 14 15  1  0  0  0  0
 14 20  2  0  0  0  0
 15 52  1  0  0  0  0
 16 53  1  0  0  0  0
 17 16  1  0  0  0  0
 17 18  1  0  0  0  0
 17 19  2  0  0  0  0
 18 54  1  0  0  0  0
 18 55  1  0  0  0  0
 18 56  1  0  0  0  0
 21 15  1  0  0  0  0
 21 22  1  0  0  0  0
 21 27  1  0  0  0  0
 21 57  1  1  0  0  0
 22 23  1  0  0  0  0
 22 58  1  0  0  0  0
 22 59  1  0  0  0  0
 23 24  1  0  0  0  0
 23 60  1  0  0  0  0
 23 61  1  0  0  0  0
 24 25  1  0  0  0  0
 24 62  1  0  0  0  0
 24 63  1  0  0  0  0
 25 26  1  0  0  0  0
 25 64  1  0  0  0  0
 25 65  1  0  0  0  0
 27 26  1  0  0  0  0
 27 30  2  0  0  0  0
 28 26  1  0  0  0  0
 28 29  1  0  0  0  0
 28 66  1  0  0  0  0
 28 67  1  0  0  0  0
 29 32  1  0  0  0  0
 29 36  2  0  0  0  0
 31  8  1  0  0  0  0
 32 33  2  0  0  0  0
 32 68  1  0  0  0  0
 33 34  1  0  0  0  0
 33 69  1  0  0  0  0
 34 35  2  0  0  0  0
 34 37  1  0  0  0  0
 35 36  1  0  0  0  0
 35 70  1  0  0  0  0
 36 71  1  0  0  0  0
 37 38  1  0  0  0  0
 37 42  2  0  0  0  0
 38 39  2  0  0  0  0
 38 72  1  0  0  0  0
 39 40  1  0  0  0  0
 39 73  1  0  0  0  0
 40 41  2  0  0  0  0
 40 74  1  0  0  0  0
 41 42  1  0  0  0  0
 41 75  1  0  0  0  0
 42 76  1  0  0  0  0
 43  1  2  0  0  0  0
 43 77  1  0  0  0  0
M  END
>  <DRUGBANK_ID>
DB01678

>  <SECONDARY_ACCESSION_NUMBERS>
EXPT00280

>  <COMMON_NAME>
RU84687

>  <SYNONYMS>
N-acetyl-N-[1-(1,1'-biphenyl-4-ylmethyl)-2-oxoazepan-3-yl]-3-formyl-O-phosphonotyrosinamide

$$$$
