
 OpenBabel10282417213D

 50 53  0  0  0  0  0  0  0  0999 V2000
    0.3645   -1.0707   -0.0371 N   0  0  0  0  0  0  0  0  0  0  0  0
   -3.1501    9.1733    0.5143 N   0  0  0  0  0  0  0  0  0  0  0  0
   -3.0362   10.3351    1.1240 C   0  0  0  0  0  0  0  0  0  0  0  0
   -0.9253   -0.6556    0.0042 C   0  0  0  0  0  0  0  0  0  0  0  0
    1.3590   -0.1428   -0.0029 C   0  0  0  0  0  0  0  0  0  0  0  0
   -2.7672   11.3928    0.2848 O   0  0  0  0  0  0  0  0  0  0  0  0
   -2.9164    9.4692   -0.8055 C   0  0  0  0  0  0  0  0  0  0  0  0
   -0.9993    1.0807    0.0554 S   0  0  0  0  0  0  0  0  0  0  0  0
   -2.6748   10.8165   -0.9541 C   0  0  0  0  0  0  0  0  0  0  0  0
    0.8194    1.2651    0.0573 C   0  0  3  0  0  0  0  0  0  0  0  0
   -0.6149    7.5330   -1.1613 C   0  0  0  0  0  0  0  0  0  0  0  0
   -1.9012   -1.3752    0.0082 O   0  0  0  0  0  0  0  0  0  0  0  0
   -3.1019   10.6349    2.5455 C   0  0  0  0  0  0  0  0  0  0  0  0
    2.5486   -0.4329   -0.0131 O   0  0  0  0  0  0  0  0  0  0  0  0
   -2.8845    8.4029   -1.8299 C   0  0  0  0  0  0  0  0  0  0  0  0
   -0.1104    6.1361   -1.2033 C   0  0  0  0  0  0  0  0  0  0  0  0
    1.3204    2.0776   -1.1300 C   0  0  0  0  0  0  0  0  0  0  0  0
   -1.4728    8.0721   -2.2927 C   0  0  0  0  0  0  0  0  0  0  0  0
   -0.3059    8.2341   -0.1980 O   0  0  0  0  0  0  0  0  0  0  0  0
    0.5992    5.6669   -0.0906 C   0  0  0  0  0  0  0  0  0  0  0  0
   -0.3436    5.2786   -2.2803 C   0  0  0  0  0  0  0  0  0  0  0  0
    0.8028    3.4918   -1.1268 C   0  0  0  0  0  0  0  0  0  0  0  0
    0.0577    3.9497   -2.2147 C   0  0  0  0  0  0  0  0  0  0  0  0
    1.0641    4.3559   -0.0570 C   0  0  0  0  0  0  0  0  0  0  0  0
   -2.3409   11.6692   -2.1101 C   0  0  0  0  0  0  0  0  0  0  0  0
   -2.2176   10.0097    3.4361 C   0  0  0  0  0  0  0  0  0  0  0  0
   -4.0317   11.5536    3.0473 C   0  0  0  0  0  0  0  0  0  0  0  0
   -2.2300   10.3345    4.7958 C   0  0  0  0  0  0  0  0  0  0  0  0
   -4.0147   11.9099    4.3988 C   0  0  0  0  0  0  0  0  0  0  0  0
   -3.1265   11.2879    5.2754 C   0  0  0  0  0  0  0  0  0  0  0  0
    0.5740   -2.0547   -0.0591 H   0  0  0  0  0  0  0  0  0  0  0  0
    1.1249    1.7057    1.0111 H   0  0  0  0  0  0  0  0  0  0  0  0
   -3.4704    8.7329   -2.6969 H   0  0  0  0  0  0  0  0  0  0  0  0
   -3.3767    7.5030   -1.4428 H   0  0  0  0  0  0  0  0  0  0  0  0
    2.4177    2.1284   -1.1269 H   0  0  0  0  0  0  0  0  0  0  0  0
    1.0646    1.5804   -2.0769 H   0  0  0  0  0  0  0  0  0  0  0  0
   -0.9541    8.9480   -2.6980 H   0  0  0  0  0  0  0  0  0  0  0  0
   -1.5593    7.3772   -3.1257 H   0  0  0  0  0  0  0  0  0  0  0  0
    0.7952    6.3230    0.7569 H   0  0  0  0  0  0  0  0  0  0  0  0
   -0.8320    5.5936   -3.1928 H   0  0  0  0  0  0  0  0  0  0  0  0
   -0.2283    3.2741   -3.0179 H   0  0  0  0  0  0  0  0  0  0  0  0
    1.6100    4.0186    0.8209 H   0  0  0  0  0  0  0  0  0  0  0  0
   -3.1064   12.4348   -2.2587 H   0  0  0  0  0  0  0  0  0  0  0  0
   -1.3695   12.1555   -1.9808 H   0  0  0  0  0  0  0  0  0  0  0  0
   -2.2883   11.0746   -3.0300 H   0  0  0  0  0  0  0  0  0  0  0  0
   -1.5064    9.2734    3.0646 H   0  0  0  0  0  0  0  0  0  0  0  0
   -4.7792   11.9877    2.3875 H   0  0  0  0  0  0  0  0  0  0  0  0
   -1.5284    9.8566    5.4748 H   0  0  0  0  0  0  0  0  0  0  0  0
   -4.6878   12.6801    4.7657 H   0  0  0  0  0  0  0  0  0  0  0  0
   -3.1374   11.5427    6.3323 H   0  0  0  0  0  0  0  0  0  0  0  0
  1 31  1  0  0  0  0
  2  7  1  0  0  0  0
  3  2  2  0  0  0  0
  3  6  1  0  0  0  0
  4  1  1  0  0  0  0
  5  1  1  0  0  0  0
  6  9  1  0  0  0  0
  7 15  1  0  0  0  0
  8  4  1  0  0  0  0
  9  7  2  0  0  0  0
 10  5  1  0  0  0  0
 10  8  1  0  0  0  0
 10 32  1  0  0  0  0
 11 16  1  0  0  0  0
 12  4  2  0  0  0  0
 13  3  1  0  0  0  0
 14  5  2  0  0  0  0
 15 18  1  0  0  0  0
 15 33  1  0  0  0  0
 15 34  1  0  0  0  0
 16 20  2  0  0  0  0
 16 21  1  0  0  0  0
 17 10  1  0  0  0  0
 17 35  1  0  0  0  0
 17 36  1  0  0  0  0
 18 11  1  0  0  0  0
 18 37  1  0  0  0  0
 18 38  1  0  0  0  0
 19 11  2  0  0  0  0
 20 24  1  0  0  0  0
 20 39  1  0  0  0  0
 21 23  2  0  0  0  0
 21 40  1  0  0  0  0
 22 17  1  0  0  0  0
 23 22  1  0  0  0  0
 23 41  1  0  0  0  0
 24 22  2  0  0  0  0
 24 42  1  0  0  0  0
 25  9  1  0  0  0  0
 25 43  1  0  0  0  0
 25 44  1  0  0  0  0
 25 45  1  0  0  0  0
 26 13  2  0  0  0  0
 26 46  1  0  0  0  0
 27 13  1  0  0  0  0
 27 47  1  0  0  0  0
 28 26  1  0  0  0  0
 28 48  1  0  0  0  0
 29 27  2  0  0  0  0
 29 30  1  0  0  0  0
 29 49  1  0  0  0  0
 30 28  2  0  0  0  0
 30 50  1  0  0  0  0
M  END
>  <DRUGBANK_ID>
DB14034

>  <COMMON_NAME>
Darglitazone

>  <CAS_NUMBER>
141200-24-0

>  <UNII>
AVP9C03Z3K

>  <SYNONYMS>
Darglitazone

$$$$
