ATU
 OpenBabel10282417133D

 33 36  0  0  0  0  0  0  0  0999 V2000
    1.9577   -1.8232    0.7606 N   0  0  0  0  0  0  0  0  0  0  0  0
    0.8499   -2.5335    0.3797 C   0  0  0  0  0  0  0  0  0  0  0  0
   -0.0165   -2.0107   -0.7466 C   0  0  0  0  0  0  0  0  0  0  0  0
    0.6370   -3.6343    0.8989 O   0  0  0  0  0  0  0  0  0  0  0  0
    1.5632    0.5243   -0.0125 C   0  0  0  0  0  0  0  0  0  0  0  0
    2.4065   -0.5598    0.3212 C   0  0  0  0  0  0  0  0  0  0  0  0
    3.7972   -0.3982    0.2649 C   0  0  0  0  0  0  0  0  0  0  0  0
    4.3559    0.8119   -0.1430 C   0  0  0  0  0  0  0  0  0  0  0  0
    3.5308    1.8896   -0.4468 C   0  0  0  0  0  0  0  0  0  0  0  0
    2.1442    1.7493   -0.3768 C   0  0  0  0  0  0  0  0  0  0  0  0
   -0.7831    1.3720    0.3641 N   0  0  0  0  0  0  0  0  0  0  0  0
   -0.6296   -0.7213   -0.3480 C   0  0  0  0  0  0  0  0  0  0  0  0
    0.1077    0.3950   -0.0066 C   0  0  0  0  0  0  0  0  0  0  0  0
   -2.0061   -0.3980   -0.2237 C   0  0  0  0  0  0  0  0  0  0  0  0
   -2.0781    0.9188    0.2296 C   0  0  0  0  0  0  0  0  0  0  0  0
   -3.2925    1.5683    0.4791 C   0  0  0  0  0  0  0  0  0  0  0  0
   -4.4699    0.8485    0.2464 C   0  0  0  0  0  0  0  0  0  0  0  0
   -4.4191   -0.4732   -0.2127 C   0  0  0  0  0  0  0  0  0  0  0  0
   -3.1955   -1.1155   -0.4491 C   0  0  0  0  0  0  0  0  0  0  0  0
   -5.6670   -1.2063   -0.4573 N   0  3  0  0  0  0  0  0  0  0  0  0
   -5.5837   -2.3713   -0.8700 O   0  0  0  0  0  0  0  0  0  0  0  0
   -6.7348   -0.6134   -0.2412 O   0  5  0  0  0  0  0  0  0  0  0  0
    2.5538   -2.3372    1.3976 H   0  0  0  0  0  0  0  0  0  0  0  0
    0.5972   -1.8923   -1.6484 H   0  0  0  0  0  0  0  0  0  0  0  0
   -0.7795   -2.7608   -0.9778 H   0  0  0  0  0  0  0  0  0  0  0  0
    4.4574   -1.2360    0.4788 H   0  0  0  0  0  0  0  0  0  0  0  0
    5.4351    0.9092   -0.2301 H   0  0  0  0  0  0  0  0  0  0  0  0
    3.9650    2.8381   -0.7527 H   0  0  0  0  0  0  0  0  0  0  0  0
    1.5229    2.6019   -0.6393 H   0  0  0  0  0  0  0  0  0  0  0  0
   -0.5293    2.2891    0.7036 H   0  0  0  0  0  0  0  0  0  0  0  0
   -3.3280    2.5923    0.8382 H   0  0  0  0  0  0  0  0  0  0  0  0
   -5.4244    1.3384    0.4303 H   0  0  0  0  0  0  0  0  0  0  0  0
   -3.1479   -2.1426   -0.8007 H   0  0  0  0  0  0  0  0  0  0  0  0
  1  2  1  0  0  0  0
  1  6  1  0  0  0  0
  1 23  1  0  0  0  0
  2  3  1  0  0  0  0
  2  4  2  0  0  0  0
  3 12  1  0  0  0  0
  3 24  1  0  0  0  0
  3 25  1  0  0  0  0
  5  6  2  0  0  0  0
  5 10  1  0  0  0  0
  5 13  1  0  0  0  0
  6  7  1  0  0  0  0
  7  8  2  0  0  0  0
  7 26  1  0  0  0  0
  8  9  1  0  0  0  0
  8 27  1  0  0  0  0
  9 10  2  0  0  0  0
  9 28  1  0  0  0  0
 10 29  1  0  0  0  0
 11 13  1  0  0  0  0
 11 15  1  0  0  0  0
 11 30  1  0  0  0  0
 12 13  2  0  0  0  0
 12 14  1  0  0  0  0
 14 15  2  0  0  0  0
 14 19  1  0  0  0  0
 15 16  1  0  0  0  0
 16 17  2  0  0  0  0
 16 31  1  0  0  0  0
 17 18  1  0  0  0  0
 17 32  1  0  0  0  0
 18 19  2  0  0  0  0
 18 20  1  0  0  0  0
 19 33  1  0  0  0  0
 20 21  2  0  0  0  0
 20 22  1  0  0  0  0
M  CHG  2  20   1  22  -1
M  END
>  <DRUGBANK_ID>
DB04014

>  <SECONDARY_ACCESSION_NUMBERS>
EXPT00590

>  <COMMON_NAME>
Alsterpaullone

$$$$
