
 OpenBabel10282417233D

 57 60  0  0  0  0  0  0  0  0999 V2000
    0.9960   -0.0319   -0.0205 C   0  0  0  0  0  0  0  0  0  0  0  0
    0.4768    0.8282   -1.1889 C   0  0  0  0  0  0  0  0  0  0  0  0
    0.6046    0.1788   -2.5613 C   0  0  0  0  0  0  0  0  0  0  0  0
   -1.0501    0.9230   -1.0932 C   0  0  0  0  0  0  0  0  0  0  0  0
    1.1359    2.1475   -1.1386 N   0  0  0  0  0  0  0  0  0  0  0  0
    2.6304    2.1684   -1.0915 C   0  0  0  0  0  0  0  0  0  0  0  0
    3.3516    1.6052   -2.3199 C   0  0  0  0  0  0  0  0  0  0  0  0
    3.5761    0.1904   -2.5125 C   0  0  0  0  0  0  0  0  0  0  0  0
    3.6137   -0.3689   -3.8215 C   0  0  0  0  0  0  0  0  0  0  0  0
    3.5000   -1.7932   -4.0550 N   0  0  0  0  0  0  0  0  0  0  0  0
    3.7099   -2.6225   -5.2285 C   0  0  0  0  0  0  0  0  0  0  0  0
    2.6316   -3.2750   -5.8440 C   0  0  0  0  0  0  0  0  0  0  0  0
    2.9445   -3.7964   -7.0693 C   0  0  0  0  0  0  0  0  0  0  0  0
    4.2194   -4.2223   -7.3865 N   0  0  0  0  0  0  0  0  0  0  0  0
    5.2997   -3.8611   -6.5660 C   0  0  0  0  0  0  0  0  0  0  0  0
    6.7735   -3.9988   -6.8490 C   0  0  0  0  0  0  0  0  0  0  0  0
    7.1669   -3.4370   -8.0249 C   0  0  0  0  0  0  0  0  0  0  0  0
    8.7687   -3.4429   -8.6602 Cl  0  0  0  0  0  0  0  0  0  0  0  0
    6.3658   -2.3449   -8.1824 C   0  0  0  0  0  0  0  0  0  0  0  0
    5.7235   -1.8644   -6.8899 C   0  0  0  0  0  0  0  0  0  0  0  0
    5.0307   -2.7656   -5.9684 C   0  0  0  0  0  0  0  0  0  0  0  0
    3.7162    0.5730   -4.8593 C   0  0  0  0  0  0  0  0  0  0  0  0
    3.8877    0.0904   -6.2409 C   0  0  0  0  0  0  0  0  0  0  0  0
    4.0186    1.0213   -7.3998 C   0  0  0  0  0  0  0  0  0  0  0  0
    4.9450    2.1220   -6.9415 C   0  0  0  0  0  0  0  0  0  0  0  0
    4.2643    2.8573   -5.7923 C   0  0  0  0  0  0  0  0  0  0  0  0
    3.8620    1.9608   -4.6433 C   0  0  0  0  0  0  0  0  0  0  0  0
    3.5893    2.4717   -3.3856 C   0  0  0  0  0  0  0  0  0  0  0  0
    3.5096    3.8183   -3.1688 O   0  0  0  0  0  0  0  0  0  0  0  0
    0.6325   -1.0595   -0.0813 H   0  0  0  0  0  0  0  0  0  0  0  0
    0.6861    0.3953    0.9422 H   0  0  0  0  0  0  0  0  0  0  0  0
    2.0858   -0.1070    0.0237 H   0  0  0  0  0  0  0  0  0  0  0  0
    0.2709   -0.8587   -2.6115 H   0  0  0  0  0  0  0  0  0  0  0  0
    0.2291    0.7884   -3.3904 H   0  0  0  0  0  0  0  0  0  0  0  0
    1.6089    0.0833   -2.8033 H   0  0  0  0  0  0  0  0  0  0  0  0
   -1.4007    1.3554   -0.1580 H   0  0  0  0  0  0  0  0  0  0  0  0
   -1.4549    1.5006   -1.9344 H   0  0  0  0  0  0  0  0  0  0  0  0
   -1.4709   -0.0910   -1.1821 H   0  0  0  0  0  0  0  0  0  0  0  0
    0.8208    2.7422   -1.9056 H   0  0  0  0  0  0  0  0  0  0  0  0
    2.9119    3.2232   -0.9559 H   0  0  0  0  0  0  0  0  0  0  0  0
    3.0103    1.6974   -0.1830 H   0  0  0  0  0  0  0  0  0  0  0  0
    3.3702   -0.4775   -1.6748 H   0  0  0  0  0  0  0  0  0  0  0  0
    2.9202   -2.2513   -3.3453 H   0  0  0  0  0  0  0  0  0  0  0  0
    1.6015   -3.3103   -5.4883 H   0  0  0  0  0  0  0  0  0  0  0  0
    2.1951   -3.8649   -7.8715 H   0  0  0  0  0  0  0  0  0  0  0  0
    7.4499   -3.4726   -6.0939 H   0  0  0  0  0  0  0  0  0  0  0  0
    5.6156   -2.7723   -8.9180 H   0  0  0  0  0  0  0  0  0  0  0  0
    6.4201   -1.2751   -6.2620 H   0  0  0  0  0  0  0  0  0  0  0  0
    3.1925   -0.6964   -6.5155 H   0  0  0  0  0  0  0  0  0  0  0  0
    4.9030   -0.2022   -6.0760 H   0  0  0  0  0  0  0  0  0  0  0  0
    3.0276    1.3802   -7.6814 H   0  0  0  0  0  0  0  0  0  0  0  0
    4.4487    0.4687   -8.2437 H   0  0  0  0  0  0  0  0  0  0  0  0
    5.9029    1.7009   -6.5931 H   0  0  0  0  0  0  0  0  0  0  0  0
    5.1700    2.7918   -7.7705 H   0  0  0  0  0  0  0  0  0  0  0  0
    4.9785    3.5990   -5.4274 H   0  0  0  0  0  0  0  0  0  0  0  0
    3.3661    3.3583   -6.1659 H   0  0  0  0  0  0  0  0  0  0  0  0
    3.8040    4.3007   -3.9562 H   0  0  0  0  0  0  0  0  0  0  0  0
  1  2  1  0  0  0  0
  1 30  1  0  0  0  0
  1 31  1  0  0  0  0
  1 32  1  0  0  0  0
  2  3  1  0  0  0  0
  2  4  1  0  0  0  0
  2  5  1  0  0  0  0
  3 33  1  0  0  0  0
  3 34  1  0  0  0  0
  3 35  1  0  0  0  0
  4 36  1  0  0  0  0
  4 37  1  0  0  0  0
  4 38  1  0  0  0  0
  5  6  1  0  0  0  0
  5 39  1  0  0  0  0
  6  7  1  0  0  0  0
  6 40  1  0  0  0  0
  6 41  1  0  0  0  0
  7  8  2  0  0  0  0
  7 28  1  0  0  0  0
  8  9  1  0  0  0  0
  8 42  1  0  0  0  0
  9 10  1  0  0  0  0
  9 22  2  0  0  0  0
 10 11  1  0  0  0  0
 10 43  1  0  0  0  0
 11 12  2  0  0  0  0
 11 21  1  0  0  0  0
 12 13  1  0  0  0  0
 12 44  1  0  0  0  0
 13 14  2  0  0  0  0
 13 45  1  0  0  0  0
 14 15  1  0  0  0  0
 15 16  2  0  0  0  0
 15 21  1  0  0  0  0
 16 17  1  0  0  0  0
 16 46  1  0  0  0  0
 17 18  1  0  0  0  0
 17 19  2  0  0  0  0
 19 20  1  0  0  0  0
 19 47  1  0  0  0  0
 20 21  2  0  0  0  0
 20 48  1  0  0  0  0
 22 23  1  0  0  0  0
 22 27  1  0  0  0  0
 23 24  1  0  0  0  0
 23 49  1  0  0  0  0
 23 50  1  0  0  0  0
 24 25  1  0  0  0  0
 24 51  1  0  0  0  0
 24 52  1  0  0  0  0
 25 26  1  0  0  0  0
 25 53  1  0  0  0  0
 25 54  1  0  0  0  0
 26 27  1  0  0  0  0
 26 55  1  0  0  0  0
 26 56  1  0  0  0  0
 27 28  2  0  0  0  0
 28 29  1  0  0  0  0
 29 57  1  0  0  0  0
M  END
>  <DRUGBANK_ID>
DB16249

>  <COMMON_NAME>
Naphthoquine

>  <CAS_NUMBER>
173531-57-2

>  <UNII>
TRY8UD4E2H

$$$$
