
 OpenBabel10282417213D

 60 66  0  0  0  0  0  0  0  0999 V2000
   -1.5060    1.5472    0.0359 C   0  0  0  0  0  0  0  0  0  0  0  0
   -2.8423    1.8977    0.0375 C   0  0  0  0  0  0  0  0  0  0  0  0
   -3.7692    0.8924   -0.0030 C   0  0  0  0  0  0  0  0  0  0  0  0
   -3.3744   -0.4641   -0.0860 C   0  0  0  0  0  0  0  0  0  0  0  0
   -1.0412    0.2094   -0.0597 C   0  0  0  0  0  0  0  0  0  0  0  0
   -1.9733   -0.8414   -0.1719 C   0  0  0  0  0  0  0  0  0  0  0  0
   -1.2102   -2.1268   -0.3369 N   0  0  0  0  0  0  0  0  0  0  0  0
    0.1933   -0.4182   -0.0752 C   0  0  0  0  0  0  0  0  0  0  0  0
    0.2182   -1.7826   -0.3639 C   0  0  0  0  0  0  0  0  0  0  0  0
    2.5769   -1.7107    0.1627 C   0  0  0  0  0  0  0  0  0  0  0  0
    1.5453   -2.3619   -0.4609 C   0  0  0  0  0  0  0  0  0  0  0  0
    2.3829   -3.1824   -1.3028 N   0  0  0  0  0  0  0  0  0  0  0  0
    3.7479   -2.4042    0.3137 C   0  0  0  0  0  0  0  0  0  0  0  0
    3.7056   -3.3362   -0.7249 C   0  0  0  0  0  0  0  0  0  0  0  0
    4.9235   -4.0392   -0.9872 C   0  0  0  0  0  0  0  0  0  0  0  0
    5.8849   -4.1124    0.0580 C   0  0  0  0  0  0  0  0  0  0  0  0
    5.7347   -3.3743    1.2220 C   0  0  0  0  0  0  0  0  0  0  0  0
    4.7960   -2.3606    1.2425 C   0  0  0  0  0  0  0  0  0  0  0  0
    1.3894    0.3665    0.0289 C   0  0  0  0  0  0  0  0  0  0  0  0
    2.6032   -0.3079    0.1464 C   0  0  0  0  0  0  0  0  0  0  0  0
    3.6885    0.6277    0.0779 C   0  0  0  0  0  0  0  0  0  0  0  0
    3.0526    1.7813   -0.2676 N   0  0  0  0  0  0  0  0  0  0  0  0
    1.7238    1.7663    0.0200 C   0  0  0  0  0  0  0  0  0  0  0  0
   -4.7372   -1.5244   -0.1175 Cl  0  0  0  0  0  0  0  0  0  0  0  0
    5.3214   -4.8124   -2.4694 Cl  0  0  0  0  0  0  0  0  0  0  0  0
   -1.9982   -3.4077   -0.0906 C   0  0  2  0  0  0  0  0  0  0  0  0
   -1.5517   -4.2302    1.0174 O   0  0  0  0  0  0  0  0  0  0  0  0
   -2.7021   -4.8087    1.7364 C   0  0  1  0  0  0  0  0  0  0  0  0
   -3.5968   -5.7264    0.8601 C   0  0  2  0  0  0  0  0  0  0  0  0
   -4.0053   -4.9743   -0.4185 C   0  0  1  0  0  0  0  0  0  0  0  0
   -2.7809   -4.2776   -1.1472 C   0  0  1  0  0  0  0  0  0  0  0  0
   -3.2908   -3.4950   -2.2300 O   0  0  0  0  0  0  0  0  0  0  0  0
   -4.7102   -5.8428   -1.3200 O   0  0  0  0  0  0  0  0  0  0  0  0
   -2.2000   -5.6419    2.9270 C   0  0  0  0  0  0  0  0  0  0  0  0
   -1.3277   -4.8756    3.7468 O   0  0  0  0  0  0  0  0  0  0  0  0
   -4.7551   -6.1057    1.6427 O   0  0  0  0  0  0  0  0  0  0  0  0
   -5.3696   -7.3296    1.2417 C   0  0  0  0  0  0  0  0  0  0  0  0
    1.1431    2.8236    0.2770 O   0  0  0  0  0  0  0  0  0  0  0  0
    4.8949    0.5631    0.2579 O   0  0  0  0  0  0  0  0  0  0  0  0
   -0.8333    2.3875    0.0743 H   0  0  0  0  0  0  0  0  0  0  0  0
   -3.1298    2.9465    0.0661 H   0  0  0  0  0  0  0  0  0  0  0  0
   -4.8212    1.1795    0.0064 H   0  0  0  0  0  0  0  0  0  0  0  0
    2.2335   -3.2848   -2.2981 H   0  0  0  0  0  0  0  0  0  0  0  0
    6.7728   -4.7435   -0.0166 H   0  0  0  0  0  0  0  0  0  0  0  0
    6.3524   -3.5467    2.0994 H   0  0  0  0  0  0  0  0  0  0  0  0
    4.7604   -1.6437    2.0553 H   0  0  0  0  0  0  0  0  0  0  0  0
    3.5555    2.6507   -0.3218 H   0  0  0  0  0  0  0  0  0  0  0  0
   -2.8510   -2.9208    0.3442 H   0  0  0  0  0  0  0  0  0  0  0  0
   -3.2991   -3.9785    2.1467 H   0  0  0  0  0  0  0  0  0  0  0  0
   -3.0483   -6.6365    0.5912 H   0  0  0  0  0  0  0  0  0  0  0  0
   -4.7624   -4.2347   -0.1368 H   0  0  0  0  0  0  0  0  0  0  0  0
   -2.1710   -5.0815   -1.5801 H   0  0  0  0  0  0  0  0  0  0  0  0
   -3.9568   -2.8805   -1.8626 H   0  0  0  0  0  0  0  0  0  0  0  0
   -4.0994   -6.5203   -1.6499 H   0  0  0  0  0  0  0  0  0  0  0  0
   -3.0316   -5.9924    3.5499 H   0  0  0  0  0  0  0  0  0  0  0  0
   -1.6472   -6.5200    2.5786 H   0  0  0  0  0  0  0  0  0  0  0  0
   -0.6299   -4.5434    3.1520 H   0  0  0  0  0  0  0  0  0  0  0  0
   -5.7609   -7.2710    0.2257 H   0  0  0  0  0  0  0  0  0  0  0  0
   -4.6591   -8.1575    1.3248 H   0  0  0  0  0  0  0  0  0  0  0  0
   -6.2167   -7.5409    1.9042 H   0  0  0  0  0  0  0  0  0  0  0  0
  1  2  2  0  0  0  0
  1 40  1  0  0  0  0
  2  3  1  0  0  0  0
  2 41  1  0  0  0  0
  3  4  2  0  0  0  0
  3 42  1  0  0  0  0
  4 24  1  0  0  0  0
  4  6  1  0  0  0  0
  5  6  2  0  0  0  0
  5  1  1  0  0  0  0
  6  7  1  0  0  0  0
  7  9  1  0  0  0  0
  8  9  2  0  0  0  0
  8  5  1  0  0  0  0
  9 11  1  0  0  0  0
 10 20  1  0  0  0  0
 10 11  2  0  0  0  0
 11 12  1  0  0  0  0
 12 14  1  0  0  0  0
 12 43  1  0  0  0  0
 13 10  1  0  0  0  0
 13 14  2  0  0  0  0
 14 15  1  0  0  0  0
 15 25  1  0  0  0  0
 15 16  2  0  0  0  0
 16 17  1  0  0  0  0
 16 44  1  0  0  0  0
 17 18  2  0  0  0  0
 17 45  1  0  0  0  0
 18 13  1  0  0  0  0
 18 46  1  0  0  0  0
 19 20  2  0  0  0  0
 19  8  1  0  0  0  0
 20 21  1  0  0  0  0
 21 22  1  0  0  0  0
 21 39  2  0  0  0  0
 22 23  1  0  0  0  0
 22 47  1  0  0  0  0
 23 19  1  0  0  0  0
 23 38  2  0  0  0  0
 26  7  1  0  0  0  0
 26 27  1  0  0  0  0
 26 31  1  0  0  0  0
 26 48  1  1  0  0  0
 27 28  1  0  0  0  0
 28 29  1  0  0  0  0
 28 34  1  0  0  0  0
 28 49  1  1  0  0  0
 29 30  1  0  0  0  0
 29 50  1  6  0  0  0
 29 36  1  0  0  0  0
 30 31  1  0  0  0  0
 30 33  1  0  0  0  0
 30 51  1  1  0  0  0
 31 32  1  0  0  0  0
 31 52  1  6  0  0  0
 32 53  1  0  0  0  0
 33 54  1  0  0  0  0
 34 35  1  0  0  0  0
 34 55  1  0  0  0  0
 34 56  1  0  0  0  0
 35 57  1  0  0  0  0
 36 37  1  0  0  0  0
 37 58  1  0  0  0  0
 37 59  1  0  0  0  0
 37 60  1  0  0  0  0
M  END
>  <DRUGBANK_ID>
DB14729

>  <COMMON_NAME>
Rebeccamycin

>  <CAS_NUMBER>
93908-02-2

>  <UNII>
Y96MQM21V9

$$$$
