
 OpenBabel10282417123D

 28 29  0  0  1  0  0  0  0  0999 V2000
    1.2069   -0.1101   -0.0457 C   0  0  0  0  0  0  0  0  0  0  0  0
    0.6451    1.0935    0.7143 C   0  0  2  0  0  0  0  0  0  0  0  0
   -0.8851    1.1704    0.4701 C   0  0  2  0  0  0  0  0  0  0  0  0
   -1.3779    2.3614   -0.3710 C   0  0  1  0  0  0  0  0  0  0  0  0
   -0.6493    3.6587    0.0063 C   0  0  1  0  0  0  0  0  0  0  0  0
    0.8510    3.4748   -0.2117 C   0  0  1  0  0  0  0  0  0  0  0  0
    2.9306    4.0442    0.5449 C   0  0  0  0  0  0  0  0  0  0  0  0
    2.6844    2.5476    0.8517 C   0  0  0  0  0  0  0  0  0  0  0  0
    1.6771    4.5385    0.2709 N   0  0  0  0  0  0  0  0  0  0  0  0
    1.3996    2.3019    0.3987 N   0  0  0  0  0  0  0  0  0  0  0  0
    0.7801   -0.0554   -1.4079 O   0  0  0  0  0  0  0  0  0  0  0  0
   -1.5337    1.2200    1.7504 O   0  0  0  0  0  0  0  0  0  0  0  0
   -1.2764    2.1701   -1.7901 O   0  0  0  0  0  0  0  0  0  0  0  0
   -1.1214    4.7349   -0.8147 O   0  0  0  0  0  0  0  0  0  0  0  0
    3.9963    4.6256    0.5530 O   0  0  0  0  0  0  0  0  0  0  0  0
    3.4171    1.8084    1.4759 O   0  0  0  0  0  0  0  0  0  0  0  0
    0.8317    0.9298    1.7852 H   0  0  0  0  0  0  0  0  0  0  0  0
   -1.2321    0.2414    0.0016 H   0  0  0  0  0  0  0  0  0  0  0  0
   -2.4488    2.4910   -0.1790 H   0  0  0  0  0  0  0  0  0  0  0  0
   -0.8514    3.9136    1.0512 H   0  0  0  0  0  0  0  0  0  0  0  0
    1.0579    3.3970   -1.2894 H   0  0  0  0  0  0  0  0  0  0  0  0
    0.8130   -1.0282    0.4026 H   0  0  0  0  0  0  0  0  0  0  0  0
    2.2990   -0.1540   -0.0208 H   0  0  0  0  0  0  0  0  0  0  0  0
    1.4923    5.5239    0.1337 H   0  0  0  0  0  0  0  0  0  0  0  0
    1.2410    0.6905   -1.8211 H   0  0  0  0  0  0  0  0  0  0  0  0
   -1.2373    2.0128    2.2278 H   0  0  0  0  0  0  0  0  0  0  0  0
   -0.4084    1.8071   -2.0263 H   0  0  0  0  0  0  0  0  0  0  0  0
   -1.1897    4.3855   -1.7271 H   0  0  0  0  0  0  0  0  0  0  0  0
  1 22  1  0  0  0  0
  1 23  1  0  0  0  0
  2  1  1  0  0  0  0
  2 17  1  1  0  0  0
  3  2  1  0  0  0  0
  3 12  1  0  0  0  0
  3 18  1  6  0  0  0
  4  3  1  0  0  0  0
  4 13  1  0  0  0  0
  4 19  1  1  0  0  0
  5  4  1  0  0  0  0
  5 14  1  0  0  0  0
  5 20  1  1  0  0  0
  6  5  1  0  0  0  0
  6 21  1  6  0  0  0
  8  7  1  0  0  0  0
  9  6  1  0  0  0  0
  9  7  1  0  0  0  0
  9 24  1  0  0  0  0
 10  2  1  0  0  0  0
 10  6  1  0  0  0  0
 10  8  1  0  0  0  0
 11  1  1  0  0  0  0
 11 25  1  0  0  0  0
 12 26  1  0  0  0  0
 13 27  1  0  0  0  0
 14 28  1  0  0  0  0
 15  7  2  0  0  0  0
 16  8  2  0  0  0  0
M  END
>  <DRUGBANK_ID>
DB02742

>  <SECONDARY_ACCESSION_NUMBERS>
EXPT01973

>  <COMMON_NAME>
Kifunensine

>  <CAS_NUMBER>
109944-15-2

>  <UNII>
0NI8960271

$$$$
