
 OpenBabel10282417133D

 43 44  0  0  1  0  0  0  0  0999 V2000
    1.0613   -0.1816    0.2542 C   0  0  0  0  0  0  0  0  0  0  0  0
    4.8250   -3.4447   -3.7990 C   0  0  0  0  0  0  0  0  0  0  0  0
    6.0885   -3.5403   -1.7493 C   0  0  0  0  0  0  0  0  0  0  0  0
    4.6718   -4.8380   -3.7816 C   0  0  0  0  0  0  0  0  0  0  0  0
    5.9350   -4.9328   -1.7290 C   0  0  0  0  0  0  0  0  0  0  0  0
    0.5622   -1.2818   -2.9924 C   0  0  0  0  0  0  0  0  0  0  0  0
    0.9862   -2.2079   -1.8518 C   0  0  0  0  0  0  0  0  0  0  0  0
    5.6854   -1.3073   -2.7923 C   0  0  0  0  0  0  0  0  0  0  0  0
    2.9043    2.7379   -2.6148 C   0  0  0  0  0  0  0  0  0  0  0  0
    5.5320   -2.7778   -2.7844 C   0  0  0  0  0  0  0  0  0  0  0  0
    5.2362   -5.5725   -2.7459 C   0  0  0  0  0  0  0  0  0  0  0  0
    1.0845    0.1450   -2.8733 C   0  0  1  0  0  0  0  0  0  0  0  0
    4.6390   -0.4691   -2.8324 C   0  0  0  0  0  0  0  0  0  0  0  0
    2.0878    3.2242   -3.7873 C   0  0  0  0  0  0  0  0  0  0  0  0
    2.6224    0.2297   -2.8546 C   0  0  0  0  0  0  0  0  0  0  0  0
    4.6798    1.0187   -2.8021 C   0  0  0  0  0  0  0  0  0  0  0  0
    0.4630    0.9127   -3.9447 N   0  0  0  0  0  0  0  0  0  0  0  0
    3.3299   -0.8573   -2.8896 N   0  0  0  0  0  0  0  0  0  0  0  0
    3.3523    1.3661   -2.7948 N   0  0  0  0  0  0  0  0  0  0  0  0
    5.1337   -6.9312   -2.6813 O   0  0  0  0  0  0  0  0  0  0  0  0
    0.9776    3.7291   -3.6852 O   0  0  0  0  0  0  0  0  0  0  0  0
    2.5970    2.9461   -5.0004 O   0  0  0  0  0  0  0  0  0  0  0  0
    5.6684    1.7361   -2.7636 O   0  0  0  0  0  0  0  0  0  0  0  0
    0.3023   -1.7838   -0.1917 S   0  0  0  0  0  0  0  0  0  0  0  0
    6.7012   -0.9253   -2.7500 H   0  0  0  0  0  0  0  0  0  0  0  0
    0.6919    0.6071   -1.9890 H   0  0  0  0  0  0  0  0  0  0  0  0
    0.8463    0.0099    1.3070 H   0  0  0  0  0  0  0  0  0  0  0  0
    0.5938    0.6776   -0.2293 H   0  0  0  0  0  0  0  0  0  0  0  0
    2.1446   -0.1596    0.1045 H   0  0  0  0  0  0  0  0  0  0  0  0
    4.3722   -2.8750   -4.6076 H   0  0  0  0  0  0  0  0  0  0  0  0
    6.6298   -3.0632   -0.9364 H   0  0  0  0  0  0  0  0  0  0  0  0
    4.1088   -5.3191   -4.5752 H   0  0  0  0  0  0  0  0  0  0  0  0
    6.3562   -5.5198   -0.9174 H   0  0  0  0  0  0  0  0  0  0  0  0
    0.8991   -1.7025   -3.9532 H   0  0  0  0  0  0  0  0  0  0  0  0
   -0.5357   -1.2725   -3.0459 H   0  0  0  0  0  0  0  0  0  0  0  0
    2.0646   -2.3529   -1.7752 H   0  0  0  0  0  0  0  0  0  0  0  0
    0.6066   -3.2069   -2.1063 H   0  0  0  0  0  0  0  0  0  0  0  0
    2.2896    2.7881   -1.7099 H   0  0  0  0  0  0  0  0  0  0  0  0
    3.7573    3.4143   -2.5033 H   0  0  0  0  0  0  0  0  0  0  0  0
    0.3338    1.8818   -3.6482 H   0  0  0  0  0  0  0  0  0  0  0  0
    1.0049    0.8652   -4.7989 H   0  0  0  0  0  0  0  0  0  0  0  0
    4.6478   -7.2541   -3.4573 H   0  0  0  0  0  0  0  0  0  0  0  0
    1.8899    3.1897   -5.6381 H   0  0  0  0  0  0  0  0  0  0  0  0
  1 27  1  0  0  0  0
  1 28  1  0  0  0  0
  1 29  1  0  0  0  0
  2 30  1  0  0  0  0
  3 31  1  0  0  0  0
  4  2  1  0  0  0  0
  4 32  1  0  0  0  0
  5  3  2  0  0  0  0
  5 33  1  0  0  0  0
  6 34  1  0  0  0  0
  6 35  1  0  0  0  0
  7  6  1  0  0  0  0
  7 36  1  0  0  0  0
  7 37  1  0  0  0  0
  9 38  1  0  0  0  0
  9 39  1  0  0  0  0
 10  2  2  0  0  0  0
 10  3  1  0  0  0  0
 10  8  1  0  0  0  0
 11  4  2  0  0  0  0
 11  5  1  0  0  0  0
 12  6  1  0  0  0  0
 12 17  1  0  0  0  0
 12 26  1  1  0  0  0
 13  8  2  0  0  0  0
 14  9  1  0  0  0  0
 15 12  1  0  0  0  0
 16 13  1  0  0  0  0
 17 40  1  0  0  0  0
 17 41  1  0  0  0  0
 18 13  1  0  0  0  0
 18 15  2  0  0  0  0
 19  9  1  0  0  0  0
 19 15  1  0  0  0  0
 19 16  1  0  0  0  0
 20 11  1  0  0  0  0
 20 42  1  0  0  0  0
 21 14  2  0  0  0  0
 22 14  1  0  0  0  0
 22 43  1  0  0  0  0
 23 16  2  0  0  0  0
 24  1  1  0  0  0  0
 24  7  1  0  0  0  0
 25  8  1  0  0  0  0
M  END
>  <DRUGBANK_ID>
DB03391

>  <SECONDARY_ACCESSION_NUMBERS>
EXPT00904

>  <COMMON_NAME>
Chromophore (Met-Tyr-Gly)

$$$$
