AE4
 OpenBabel10282417163D

 44 43  0  0  0  0  0  0  0  0999 V2000
    0.8596   -0.1500   -0.2633 C   0  0  0  0  0  0  0  0  0  0  0  0
    0.3236    1.2604   -0.1052 C   0  0  0  0  0  0  0  0  0  0  0  0
    1.0670    2.3174   -0.6459 O   0  0  0  0  0  0  0  0  0  0  0  0
    2.4578    2.1541   -0.2468 C   0  0  0  0  0  0  0  0  0  0  0  0
    2.8793    1.6784    1.2574 C   0  0  0  0  0  0  0  0  0  0  0  0
    2.2697    0.6601    2.0744 O   0  0  0  0  0  0  0  0  0  0  0  0
    0.9094    0.9954    2.6043 C   0  0  0  0  0  0  0  0  0  0  0  0
    0.1853    2.6281    2.4318 C   0  0  0  0  0  0  0  0  0  0  0  0
    2.3154    4.1825    2.1293 C   0  0  0  0  0  0  0  0  0  0  0  0
    0.8951    3.8153    1.9334 O   0  0  0  0  0  0  0  0  0  0  0  0
    3.3315    3.5634    3.4085 C   0  0  0  0  0  0  0  0  0  0  0  0
    2.8264    2.7720    4.5786 O   0  0  0  0  0  0  0  0  0  0  0  0
    1.4001    2.7183    4.9221 C   0  0  0  0  0  0  0  0  0  0  0  0
    0.3043    3.9701    5.2101 C   0  0  0  0  0  0  0  0  0  0  0  0
    0.5263    5.3136    4.7225 O   0  0  0  0  0  0  0  0  0  0  0  0
    1.9071    5.5270    4.6547 C   0  0  0  0  0  0  0  0  0  0  0  0
    2.7998    5.3606    5.8997 C   0  0  0  0  0  0  0  0  0  0  0  0
    2.6870    4.1712    6.6758 O   0  0  0  0  0  0  0  0  0  0  0  0
    0.6495   -0.4638   -1.2707 H   0  0  0  0  0  0  0  0  0  0  0  0
    0.4462   -0.8538    0.4697 H   0  0  0  0  0  0  0  0  0  0  0  0
    1.9415   -0.2166   -0.0975 H   0  0  0  0  0  0  0  0  0  0  0  0
   -0.7425    1.3752    0.1530 H   0  0  0  0  0  0  0  0  0  0  0  0
    0.6770    1.5335    0.8189 H   0  0  0  0  0  0  0  0  0  0  0  0
    2.8576    1.4188   -0.9264 H   0  0  0  0  0  0  0  0  0  0  0  0
    2.9175    3.1164   -0.5162 H   0  0  0  0  0  0  0  0  0  0  0  0
    3.9584    1.8709    1.4292 H   0  0  0  0  0  0  0  0  0  0  0  0
    2.4558    2.3568    1.8979 H   0  0  0  0  0  0  0  0  0  0  0  0
    0.2346    0.3915    2.0080 H   0  0  0  0  0  0  0  0  0  0  0  0
    0.6638    0.3890    3.4902 H   0  0  0  0  0  0  0  0  0  0  0  0
   -0.8780    2.5307    2.1257 H   0  0  0  0  0  0  0  0  0  0  0  0
   -0.1791    2.9809    3.3664 H   0  0  0  0  0  0  0  0  0  0  0  0
    2.8213    3.8987    1.2133 H   0  0  0  0  0  0  0  0  0  0  0  0
    2.5073    5.2407    1.8721 H   0  0  0  0  0  0  0  0  0  0  0  0
    4.3510    3.2432    3.1542 H   0  0  0  0  0  0  0  0  0  0  0  0
    3.7191    4.4935    3.8184 H   0  0  0  0  0  0  0  0  0  0  0  0
    1.2960    2.4714    3.8772 H   0  0  0  0  0  0  0  0  0  0  0  0
    0.9809    1.7570    5.2797 H   0  0  0  0  0  0  0  0  0  0  0  0
   -0.7283    3.7143    4.9192 H   0  0  0  0  0  0  0  0  0  0  0  0
    0.1954    4.1089    6.2770 H   0  0  0  0  0  0  0  0  0  0  0  0
    1.9947    4.6599    4.1149 H   0  0  0  0  0  0  0  0  0  0  0  0
    2.2878    6.2436    3.9075 H   0  0  0  0  0  0  0  0  0  0  0  0
    3.8578    5.3559    5.6104 H   0  0  0  0  0  0  0  0  0  0  0  0
    2.5852    6.1921    6.5458 H   0  0  0  0  0  0  0  0  0  0  0  0
    1.7792    4.0528    6.9751 H   0  0  0  0  0  0  0  0  0  0  0  0
  1  2  1  0  0  0  0
  1 19  1  0  0  0  0
  1 20  1  0  0  0  0
  1 21  1  0  0  0  0
  2  3  1  0  0  0  0
  2 22  1  0  0  0  0
  2 23  1  0  0  0  0
  3  4  1  0  0  0  0
  4  5  1  0  0  0  0
  4 24  1  0  0  0  0
  4 25  1  0  0  0  0
  5  6  1  0  0  0  0
  5 26  1  0  0  0  0
  5 27  1  0  0  0  0
  6  7  1  0  0  0  0
  7  8  1  0  0  0  0
  7 28  1  0  0  0  0
  7 29  1  0  0  0  0
  8 10  1  0  0  0  0
  8 30  1  0  0  0  0
  8 31  1  0  0  0  0
  9 10  1  0  0  0  0
  9 11  1  0  0  0  0
  9 32  1  0  0  0  0
  9 33  1  0  0  0  0
 11 12  1  0  0  0  0
 11 34  1  0  0  0  0
 11 35  1  0  0  0  0
 12 13  1  0  0  0  0
 13 14  1  0  0  0  0
 13 36  1  0  0  0  0
 13 37  1  0  0  0  0
 14 15  1  0  0  0  0
 14 38  1  0  0  0  0
 14 39  1  0  0  0  0
 15 16  1  0  0  0  0
 16 17  1  0  0  0  0
 16 40  1  0  0  0  0
 16 41  1  0  0  0  0
 17 18  1  0  0  0  0
 17 42  1  0  0  0  0
 17 43  1  0  0  0  0
 18 44  1  0  0  0  0
M  END
>  <DRUGBANK_ID>
DB07344

>  <COMMON_NAME>
3,6,9,12,15-PENTAOXAHEPTADECAN-1-OL

>  <UNII>
AV4Y6WN88C

$$$$
