
 OpenBabel10282417233D

108111  0  0  0  0  0  0  0  0999 V2000
    1.3980   -0.0292    0.5350 C   0  0  0  0  0  0  0  0  0  0  0  0
   -0.5321    1.3532    0.1654 C   0  0  0  0  0  0  0  0  0  0  0  0
    0.5315   -1.0266    1.0420 C   0  0  0  0  0  0  0  0  0  0  0  0
   -1.4230    0.2835    0.3987 C   0  0  0  0  0  0  0  0  0  0  0  0
   -0.3975   -3.9257   -8.9513 C   0  0  0  0  0  0  0  0  0  0  0  0
   -1.6308   -3.5078   -8.0781 C   0  0  0  0  0  0  0  0  0  0  0  0
   -1.0132   -1.3745   -7.6179 C   0  0  0  0  0  0  0  0  0  0  0  0
    0.4247   -1.9716   -6.6774 C   0  0  0  0  0  0  0  0  0  0  0  0
   -0.1854   -4.3777   -6.0024 C   0  0  0  0  0  0  0  0  0  0  0  0
   -1.5403   -3.6639   -5.4558 C   0  0  0  0  0  0  0  0  0  0  0  0
   -1.1644   -1.1767   -4.7683 C   0  0  0  0  0  0  0  0  0  0  0  0
    0.3670   -1.3996   -4.1256 C   0  0  0  0  0  0  0  0  0  0  0  0
   -0.2672   -3.8797   -3.0651 C   0  0  0  0  0  0  0  0  0  0  0  0
   -1.8217   -3.6248   -2.3766 C   0  0  0  0  0  0  0  0  0  0  0  0
   -1.1160   -1.4302   -2.0168 C   0  0  0  0  0  0  0  0  0  0  0  0
    0.3881   -1.6689   -1.5241 C   0  0  0  0  0  0  0  0  0  0  0  0
    0.2182   -3.7890   -0.4464 C   0  0  0  0  0  0  0  0  0  0  0  0
   -0.9957   -3.4137    0.5516 C   0  0  0  0  0  0  0  0  0  0  0  0
    5.3097   -2.5642  -17.8552 C   0  0  0  0  0  0  0  0  0  0  0  0
    6.8062   -3.8161  -16.3999 C   0  0  0  0  0  0  0  0  0  0  0  0
    7.7517   -2.7299  -18.4543 C   0  0  0  0  0  0  0  0  0  0  0  0
    4.9823   -2.2075  -13.3867 C   0  0  0  0  0  0  0  0  0  0  0  0
    2.8807   -3.1202  -12.7403 C   0  0  0  0  0  0  0  0  0  0  0  0
    1.8010    2.2937   -0.3055 C   0  0  0  0  0  0  0  0  0  0  0  0
    2.1828   -3.5385   -8.6813 C   0  0  0  0  0  0  0  0  0  0  0  0
    4.2498   -1.9805   -8.7858 C   0  0  0  0  0  0  0  0  0  0  0  0
    0.8669    1.1801    0.0978 C   0  0  0  0  0  0  0  0  0  0  0  0
    6.5957   -3.0216  -17.5372 C   0  0  0  0  0  0  0  0  0  0  0  0
    2.8628   -2.3315   -8.5729 C   0  0  0  0  0  0  0  0  0  0  0  0
   -0.9010   -0.9327    0.8818 C   0  0  0  0  0  0  0  0  0  0  0  0
    3.8475   -2.9704  -13.6877 C   0  0  0  0  0  0  0  0  0  0  0  0
    4.2426   -2.8840  -17.0236 C   0  0  0  0  0  0  0  0  0  0  0  0
    5.7410   -4.1520  -15.5839 C   0  0  0  0  0  0  0  0  0  0  0  0
    5.1285   -1.5722  -12.1479 C   0  0  0  0  0  0  0  0  0  0  0  0
    2.9443   -2.3402  -11.5930 C   0  0  0  0  0  0  0  0  0  0  0  0
    8.8353   -1.9753  -17.7680 C   0  0  0  0  0  0  0  0  0  0  0  0
    4.1284   -1.6821  -11.1820 C   0  0  0  0  0  0  0  0  0  0  0  0
    4.4887   -3.5795  -15.8348 C   0  0  0  0  0  0  0  0  0  0  0  0
    1.0233    4.3303   -1.5414 C   0  0  0  0  0  0  0  0  0  0  0  0
    2.3018   -2.4355  -17.6657 I   0  0  0  0  0  0  0  0  0  0  0  0
    6.0964   -5.4962  -13.9770 I   0  0  0  0  0  0  0  0  0  0  0  0
    6.8045   -0.3207  -11.9286 I   0  0  0  0  0  0  0  0  0  0  0  0
    0.9355   -1.4760  -11.7126 I   0  0  0  0  0  0  0  0  0  0  0  0
    0.6936    4.9550   -2.6169 N   0  0  0  0  0  0  0  0  0  0  0  0
    1.0011    5.0203   -0.3911 N   0  0  0  0  0  0  0  0  0  0  0  0
    1.3766    3.0238   -1.4843 N   0  0  0  0  0  0  0  0  0  0  0  0
    2.0192   -1.3005   -8.5574 N   0  0  0  0  0  0  0  0  0  0  0  0
    0.8807   -1.8194   -8.9254 N   0  0  0  0  0  0  0  0  0  0  0  0
    0.8761   -3.1674   -8.8855 N   0  0  0  0  0  0  0  0  0  0  0  0
   10.0319   -2.4233  -17.6033 O   0  0  0  0  0  0  0  0  0  0  0  0
    8.4884   -0.7792  -17.2928 O   0  0  0  0  0  0  0  0  0  0  0  0
   -2.1483   -2.2445   -7.7034 O   0  0  0  0  0  0  0  0  0  0  0  0
    0.8563   -3.4146   -6.4685 O   0  0  0  0  0  0  0  0  0  0  0  0
   -2.0424   -2.3262   -5.0075 O   0  0  0  0  0  0  0  0  0  0  0  0
    0.7245   -2.8156   -3.6451 O   0  0  0  0  0  0  0  0  0  0  0  0
   -2.2391   -2.2652   -2.2712 O   0  0  0  0  0  0  0  0  0  0  0  0
    1.1253   -2.8475   -1.0640 O   0  0  0  0  0  0  0  0  0  0  0  0
   -1.6607   -2.0938    0.5752 O   0  0  0  0  0  0  0  0  0  0  0  0
    4.3985   -1.1287   -9.9528 O   0  0  0  0  0  0  0  0  0  0  0  0
    3.5259   -3.5999  -14.8712 O   0  0  0  0  0  0  0  0  0  0  0  0
    2.4292   -0.3109    0.2689 H   0  0  0  0  0  0  0  0  0  0  0  0
   -0.9415    2.3506    0.0400 H   0  0  0  0  0  0  0  0  0  0  0  0
    1.0038   -2.0159    0.9819 H   0  0  0  0  0  0  0  0  0  0  0  0
   -2.4466    0.3889    0.0123 H   0  0  0  0  0  0  0  0  0  0  0  0
   -0.1142   -4.9572   -8.6604 H   0  0  0  0  0  0  0  0  0  0  0  0
   -0.8038   -3.8975   -9.9397 H   0  0  0  0  0  0  0  0  0  0  0  0
   -0.9541   -3.3822   -7.3332 H   0  0  0  0  0  0  0  0  0  0  0  0
   -2.2812   -4.3261   -7.7195 H   0  0  0  0  0  0  0  0  0  0  0  0
   -1.2630   -0.3295   -7.3844 H   0  0  0  0  0  0  0  0  0  0  0  0
   -0.9104   -1.2838   -8.6799 H   0  0  0  0  0  0  0  0  0  0  0  0
    0.0371   -2.1145   -5.7754 H   0  0  0  0  0  0  0  0  0  0  0  0
    1.1522   -1.1528   -6.4154 H   0  0  0  0  0  0  0  0  0  0  0  0
    0.3291   -5.2685   -5.6277 H   0  0  0  0  0  0  0  0  0  0  0  0
   -0.6771   -4.9888   -6.7423 H   0  0  0  0  0  0  0  0  0  0  0  0
   -0.6670   -3.3987   -4.9816 H   0  0  0  0  0  0  0  0  0  0  0  0
   -2.2008   -4.4258   -5.0145 H   0  0  0  0  0  0  0  0  0  0  0  0
   -1.6194   -0.2074   -4.5150 H   0  0  0  0  0  0  0  0  0  0  0  0
   -1.0285   -0.7645   -5.7211 H   0  0  0  0  0  0  0  0  0  0  0  0
    0.1094   -0.6082   -3.4388 H   0  0  0  0  0  0  0  0  0  0  0  0
    1.3017   -0.8025   -4.1240 H   0  0  0  0  0  0  0  0  0  0  0  0
    0.0684   -4.9068   -3.3266 H   0  0  0  0  0  0  0  0  0  0  0  0
   -1.0448   -3.7999   -3.6909 H   0  0  0  0  0  0  0  0  0  0  0  0
   -1.9480   -3.9123   -1.3740 H   0  0  0  0  0  0  0  0  0  0  0  0
   -2.5350   -4.3806   -2.7404 H   0  0  0  0  0  0  0  0  0  0  0  0
   -1.3070   -0.3681   -2.2609 H   0  0  0  0  0  0  0  0  0  0  0  0
   -0.7374   -1.9114   -2.8074 H   0  0  0  0  0  0  0  0  0  0  0  0
   -0.1286   -1.6296   -0.6812 H   0  0  0  0  0  0  0  0  0  0  0  0
    1.0512   -0.8077   -1.6785 H   0  0  0  0  0  0  0  0  0  0  0  0
    0.3574   -4.8589   -0.7234 H   0  0  0  0  0  0  0  0  0  0  0  0
   -0.3480   -3.6472   -1.2567 H   0  0  0  0  0  0  0  0  0  0  0  0
   -0.6353   -3.6092    1.5340 H   0  0  0  0  0  0  0  0  0  0  0  0
   -1.8273   -4.1387    0.3737 H   0  0  0  0  0  0  0  0  0  0  0  0
    5.1610   -1.9525  -18.7432 H   0  0  0  0  0  0  0  0  0  0  0  0
    7.8079   -4.1513  -16.1441 H   0  0  0  0  0  0  0  0  0  0  0  0
    8.1343   -3.6914  -18.8212 H   0  0  0  0  0  0  0  0  0  0  0  0
    7.4305   -2.1714  -19.3408 H   0  0  0  0  0  0  0  0  0  0  0  0
    5.7991   -2.1417  -14.0928 H   0  0  0  0  0  0  0  0  0  0  0  0
    1.9623   -3.6363  -13.0086 H   0  0  0  0  0  0  0  0  0  0  0  0
    1.8334    2.9230    0.5800 H   0  0  0  0  0  0  0  0  0  0  0  0
    2.8264    1.9303   -0.4525 H   0  0  0  0  0  0  0  0  0  0  0  0
    2.5080   -4.5570   -8.7006 H   0  0  0  0  0  0  0  0  0  0  0  0
    4.5820   -1.3965   -7.9158 H   0  0  0  0  0  0  0  0  0  0  0  0
    4.8263   -2.9025   -8.8495 H   0  0  0  0  0  0  0  0  0  0  0  0
    0.7379    4.3485   -3.4353 H   0  0  0  0  0  0  0  0  0  0  0  0
    1.2398    4.6565    0.5119 H   0  0  0  0  0  0  0  0  0  0  0  0
    0.7183    5.9888   -0.4257 H   0  0  0  0  0  0  0  0  0  0  0  0
    1.4292    2.5123   -2.3573 H   0  0  0  0  0  0  0  0  0  0  0  0
    9.2577   -0.3824  -16.8302 H   0  0  0  0  0  0  0  0  0  0  0  0
  1 61  1  0  0  0  0
  2 62  1  0  0  0  0
  3  1  1  0  0  0  0
  3 63  1  0  0  0  0
  4  2  2  0  0  0  0
  4 64  1  0  0  0  0
  5 65  1  0  0  0  0
  5 66  1  0  0  0  0
  6  5  1  0  0  0  0
  6 67  1  0  0  0  0
  6 68  1  0  0  0  0
  7 69  1  0  0  0  0
  7 70  1  0  0  0  0
  8  7  1  0  0  0  0
  8 71  1  0  0  0  0
  8 72  1  0  0  0  0
  9 73  1  0  0  0  0
  9 74  1  0  0  0  0
 10  9  1  0  0  0  0
 10 75  1  0  0  0  0
 10 76  1  0  0  0  0
 11 77  1  0  0  0  0
 11 78  1  0  0  0  0
 12 11  1  0  0  0  0
 12 79  1  0  0  0  0
 12 80  1  0  0  0  0
 13 81  1  0  0  0  0
 13 82  1  0  0  0  0
 14 13  1  0  0  0  0
 14 83  1  0  0  0  0
 14 84  1  0  0  0  0
 15 85  1  0  0  0  0
 15 86  1  0  0  0  0
 16 15  1  0  0  0  0
 16 87  1  0  0  0  0
 16 88  1  0  0  0  0
 17 89  1  0  0  0  0
 17 90  1  0  0  0  0
 18 17  1  0  0  0  0
 18 91  1  0  0  0  0
 18 92  1  0  0  0  0
 19 93  1  0  0  0  0
 20 94  1  0  0  0  0
 21 95  1  0  0  0  0
 21 96  1  0  0  0  0
 22 97  1  0  0  0  0
 23 98  1  0  0  0  0
 24 99  1  0  0  0  0
 24100  1  0  0  0  0
 25101  1  0  0  0  0
 26102  1  0  0  0  0
 26103  1  0  0  0  0
 27  1  2  0  0  0  0
 27  2  1  0  0  0  0
 27 24  1  0  0  0  0
 28 19  2  0  0  0  0
 28 20  1  0  0  0  0
 28 21  1  0  0  0  0
 29 25  2  0  0  0  0
 29 26  1  0  0  0  0
 30  3  2  0  0  0  0
 30  4  1  0  0  0  0
 31 22  2  0  0  0  0
 31 23  1  0  0  0  0
 32 19  1  0  0  0  0
 33 20  2  0  0  0  0
 34 22  1  0  0  0  0
 35 23  2  0  0  0  0
 36 21  1  0  0  0  0
 37 34  2  0  0  0  0
 37 35  1  0  0  0  0
 38 32  2  0  0  0  0
 38 33  1  0  0  0  0
 40 32  1  0  0  0  0
 41 33  1  0  0  0  0
 42 34  1  0  0  0  0
 43 35  1  0  0  0  0
 44 39  2  0  0  0  0
 44104  1  0  0  0  0
 45 39  1  0  0  0  0
 45105  1  0  0  0  0
 45106  1  0  0  0  0
 46 24  1  0  0  0  0
 46 39  1  0  0  0  0
 46107  1  0  0  0  0
 47 29  1  0  0  0  0
 48 47  2  0  0  0  0
 49  5  1  0  0  0  0
 49 25  1  0  0  0  0
 49 48  1  0  0  0  0
 50 36  2  0  0  0  0
 51 36  1  0  0  0  0
 51108  1  0  0  0  0
 52  6  1  0  0  0  0
 52  7  1  0  0  0  0
 53  8  1  0  0  0  0
 53  9  1  0  0  0  0
 54 10  1  0  0  0  0
 54 11  1  0  0  0  0
 55 12  1  0  0  0  0
 55 13  1  0  0  0  0
 56 14  1  0  0  0  0
 56 15  1  0  0  0  0
 57 16  1  0  0  0  0
 57 17  1  0  0  0  0
 58 18  1  0  0  0  0
 58 30  1  0  0  0  0
 59 26  1  0  0  0  0
 59 37  1  0  0  0  0
 60 31  1  0  0  0  0
 60 38  1  0  0  0  0
M  END
>  <DRUGBANK_ID>
DB17104

>  <COMMON_NAME>
BG-P400-TAT

>  <UNII>
70JCV6CT08

>  <SYNONYMS>
[4-(4-{1-[2-(2-{2-[2-(2-{2-[2-(4-guanidinomethyl-phenoxy)-ethoxy]-ethoxy}-ethoxy)-ethoxy]-ethoxy}-ethoxy)-ethyl]-1H-[1,2,3]triazol-4-ylmethoxy}-3,5-diiodo-phenoxy)-3,5-diiodo-phenyl]-acetic acid; 2-[4-[4-[[1-[2-[2-[2-[2-[2-[2-[2-[4-[(Diaminomethylideneamino)methyl]phenoxy]ethoxy]ethoxy]ethoxy]ethoxy]ethoxy]ethoxy]ethyl]triazol-4-yl]methoxy]-3,5-diiodophenoxy]-3,5-diiodophenyl]acetic acid

$$$$
