RRP
 OpenBabel10282417173D

 49 52  0  0  0  0  0  0  0  0999 V2000
    1.0599   -0.0302    0.1268 N   0  0  0  0  0  0  0  0  0  0  0  0
    0.4492    1.0782    0.3781 C   0  0  0  0  0  0  0  0  0  0  0  0
    1.1271    2.2340    0.6288 N   0  0  0  0  0  0  0  0  0  0  0  0
   -1.0326    1.0896    0.4091 C   0  0  0  0  0  0  0  0  0  0  0  0
   -1.7207    0.0112    0.9854 C   0  0  0  0  0  0  0  0  0  0  0  0
   -3.1146    0.0495    1.0782 C   0  0  0  0  0  0  0  0  0  0  0  0
   -3.7736    1.1558    0.5192 C   0  0  0  0  0  0  0  0  0  0  0  0
   -3.0943    2.2577    0.0203 C   0  0  0  0  0  0  0  0  0  0  0  0
   -1.7170    2.2081   -0.0791 C   0  0  0  0  0  0  0  0  0  0  0  0
   -3.8982   -1.0215    1.8132 C   0  0  0  0  0  0  0  0  0  0  0  0
   -4.5406   -0.4767    3.0231 N   0  0  0  0  0  0  0  0  0  0  0  0
   -5.6883    0.3187    2.9099 C   0  0  0  0  0  0  0  0  0  0  0  0
   -6.2525    0.5848    1.8491 O   0  0  0  0  0  0  0  0  0  0  0  0
   -6.2309    0.9928    4.1552 C   0  0  0  0  0  0  0  0  0  0  0  0
   -6.0975    0.2336    5.3934 N   0  0  0  0  0  0  0  0  0  0  0  0
   -4.6197   -0.2136    5.4890 C   0  0  0  0  0  0  0  0  0  0  0  0
   -4.2290   -1.1160    4.3072 C   0  0  0  0  0  0  0  0  0  0  0  0
   -7.2711   -1.0260    5.5372 S   0  0  0  0  0  0  0  0  0  0  0  0
   -7.0886   -1.9021    4.3785 O   0  0  0  0  0  0  0  0  0  0  0  0
   -7.0537   -1.5314    6.8625 O   0  0  0  0  0  0  0  0  0  0  0  0
   -9.1285   -0.6664    5.4247 C   0  0  0  0  0  0  0  0  0  0  0  0
  -10.1604   -0.0386    4.6678 C   0  0  0  0  0  0  0  0  0  0  0  0
  -11.5614   -0.2752    5.2194 C   0  0  0  0  0  0  0  0  0  0  0  0
  -11.4461   -1.2117    6.2382 C   0  0  0  0  0  0  0  0  0  0  0  0
   -9.8915   -1.8540    6.4044 S   0  0  0  0  0  0  0  0  0  0  0  0
  -12.5115   -1.6561    7.0360 C   0  0  0  0  0  0  0  0  0  0  0  0
  -13.7806   -1.1531    6.8482 C   0  0  0  0  0  0  0  0  0  0  0  0
  -15.0376   -1.7294    7.8737 Cl  0  0  0  0  0  0  0  0  0  0  0  0
  -14.0058   -0.2426    5.8312 C   0  0  0  0  0  0  0  0  0  0  0  0
  -12.9302    0.1637    4.9695 C   0  0  0  0  0  0  0  0  0  0  0  0
    2.0685    0.1210    0.1199 H   0  0  0  0  0  0  0  0  0  0  0  0
    0.6324    3.0032    1.0698 H   0  0  0  0  0  0  0  0  0  0  0  0
    2.1202    2.2045    0.8129 H   0  0  0  0  0  0  0  0  0  0  0  0
   -1.1555   -0.8388    1.3620 H   0  0  0  0  0  0  0  0  0  0  0  0
   -4.8519    1.1910    0.4540 H   0  0  0  0  0  0  0  0  0  0  0  0
   -3.6593    3.1315   -0.2900 H   0  0  0  0  0  0  0  0  0  0  0  0
   -1.1932    3.0206   -0.5709 H   0  0  0  0  0  0  0  0  0  0  0  0
   -4.6529   -1.4676    1.1561 H   0  0  0  0  0  0  0  0  0  0  0  0
   -3.2133   -1.8291    2.1087 H   0  0  0  0  0  0  0  0  0  0  0  0
   -5.7566    1.9741    4.2743 H   0  0  0  0  0  0  0  0  0  0  0  0
   -7.2953    1.1734    3.9917 H   0  0  0  0  0  0  0  0  0  0  0  0
   -3.9783    0.6835    5.4252 H   0  0  0  0  0  0  0  0  0  0  0  0
   -4.3811   -0.6782    6.4512 H   0  0  0  0  0  0  0  0  0  0  0  0
   -3.1557   -1.3497    4.3364 H   0  0  0  0  0  0  0  0  0  0  0  0
   -4.7487   -2.0774    4.3573 H   0  0  0  0  0  0  0  0  0  0  0  0
   -9.9769    0.5518    3.7717 H   0  0  0  0  0  0  0  0  0  0  0  0
  -12.3107   -2.3930    7.8053 H   0  0  0  0  0  0  0  0  0  0  0  0
  -15.0209    0.1469    5.7129 H   0  0  0  0  0  0  0  0  0  0  0  0
  -13.2197    0.8207    4.1435 H   0  0  0  0  0  0  0  0  0  0  0  0
  1  2  2  0  0  0  0
  1 31  1  0  0  0  0
  2  3  1  0  0  0  0
  2  4  1  0  0  0  0
  3 32  1  0  0  0  0
  3 33  1  0  0  0  0
  4  5  2  0  0  0  0
  4  9  1  0  0  0  0
  5  6  1  0  0  0  0
  5 34  1  0  0  0  0
  6  7  2  0  0  0  0
  6 10  1  0  0  0  0
  7  8  1  0  0  0  0
  7 35  1  0  0  0  0
  8  9  2  0  0  0  0
  8 36  1  0  0  0  0
  9 37  1  0  0  0  0
 10 11  1  0  0  0  0
 10 38  1  0  0  0  0
 10 39  1  0  0  0  0
 11 12  1  0  0  0  0
 11 17  1  0  0  0  0
 12 13  2  0  0  0  0
 12 14  1  0  0  0  0
 14 15  1  0  0  0  0
 14 40  1  0  0  0  0
 14 41  1  0  0  0  0
 15 16  1  0  0  0  0
 15 18  1  0  0  0  0
 16 17  1  0  0  0  0
 16 42  1  0  0  0  0
 16 43  1  0  0  0  0
 17 44  1  0  0  0  0
 17 45  1  0  0  0  0
 18 19  2  0  0  0  0
 18 20  2  0  0  0  0
 18 21  1  0  0  0  0
 21 22  2  0  0  0  0
 21 25  1  0  0  0  0
 22 23  1  0  0  0  0
 22 46  1  0  0  0  0
 23 24  2  0  0  0  0
 23 30  1  0  0  0  0
 24 25  1  0  0  0  0
 24 26  1  0  0  0  0
 26 27  2  0  0  0  0
 26 47  1  0  0  0  0
 27 28  1  0  0  0  0
 27 29  1  0  0  0  0
 29 30  2  0  0  0  0
 29 48  1  0  0  0  0
 30 49  1  0  0  0  0
M  END
>  <DRUGBANK_ID>
DB08487

>  <COMMON_NAME>
3-({4-[(6-CHLORO-1-BENZOTHIEN-2-YL)SULFONYL]-2-OXOPIPERAZIN-1-YL}METHYL)BENZENECARBOXIMIDAMIDE

$$$$
