
 OpenBabel10282417193D

 73 74  0  0  1  0  0  0  0  0999 V2000
    4.3570   -0.6032    0.1794 C   0  0  0  0  0  0  0  0  0  0  0  0
    3.2759   -1.3990   -0.2318 C   0  0  0  0  0  0  0  0  0  0  0  0
    2.0250   -0.8267   -0.4763 C   0  0  0  0  0  0  0  0  0  0  0  0
    1.8996    0.6087   -0.4178 C   0  0  0  0  0  0  0  0  0  0  0  0
    2.9332    1.3623    0.1780 C   0  0  0  0  0  0  0  0  0  0  0  0
    4.1708    0.7614    0.4332 C   0  0  0  0  0  0  0  0  0  0  0  0
    5.3060    1.5875    0.8858 N   0  3  0  0  0  0  0  0  0  0  0  0
    5.0875    2.7826    1.1329 O   0  0  0  0  0  0  0  0  0  0  0  0
    6.4151    1.0433    0.9700 O   0  5  0  0  0  0  0  0  0  0  0  0
    0.6391    1.2954   -0.8932 C   0  0  0  0  0  0  0  0  0  0  0  0
   -0.2125    0.5985   -1.4238 O   0  0  0  0  0  0  0  0  0  0  0  0
    0.4252    2.6558   -0.6488 N   0  0  0  0  0  0  0  0  0  0  0  0
   -0.9216    3.2256   -0.2812 C   0  0  2  0  0  0  0  0  0  0  0  0
   -2.1045    2.3300   -0.8122 C   0  0  0  0  0  0  0  0  0  0  0  0
   -2.1338    2.2432   -2.0452 O   0  0  0  0  0  0  0  0  0  0  0  0
   -3.0661    1.7005    0.0334 N   0  0  0  0  0  0  0  0  0  0  0  0
   -4.0043    0.6567   -0.3783 C   0  0  2  0  0  0  0  0  0  0  0  0
   -3.8222   -0.6791    0.3977 C   0  0  0  0  0  0  0  0  0  0  0  0
   -4.4048   -0.8882    1.4585 O   0  0  0  0  0  0  0  0  0  0  0  0
   -2.8161   -1.4880   -0.1060 N   0  0  0  0  0  0  0  0  0  0  0  0
   -2.2161   -2.6000    0.6238 C   0  0  1  0  0  0  0  0  0  0  0  0
   -0.9550   -3.1672   -0.1465 C   0  0  0  0  0  0  0  0  0  0  0  0
    0.4818   -2.6350    0.1820 C   0  0  0  0  0  0  0  0  0  0  0  0
    0.9617   -1.6664   -0.8075 O   0  0  0  0  0  0  0  0  0  0  0  0
   -1.9529   -2.1281    2.0795 C   0  0  0  0  0  0  0  0  0  0  0  0
   -2.4179   -2.7066    3.0604 O   0  0  0  0  0  0  0  0  0  0  0  0
   -1.1512   -1.0614    2.3145 N   0  0  0  0  0  0  0  0  0  0  0  0
   -0.4861   -0.2433    1.3621 C   0  0  0  0  0  0  0  0  0  0  0  0
   -0.6107    1.1213    1.8541 C   0  0  0  0  0  0  0  0  0  0  0  0
    0.3308    1.9384    1.9697 O   0  0  0  0  0  0  0  0  0  0  0  0
   -1.8748    1.4701    2.0539 O   0  0  0  0  0  0  0  0  0  0  0  0
   -3.8264    0.4519   -1.8431 C   0  0  0  0  0  0  0  0  0  0  0  0
   -4.8338   -0.4466   -2.4511 C   0  0  0  0  0  0  0  0  0  0  0  0
   -6.2024    0.2103   -2.2805 C   0  0  0  0  0  0  0  0  0  0  0  0
   -6.2765    1.6400   -2.8524 C   0  0  0  0  0  0  0  0  0  0  0  0
   -5.9188    1.6231   -4.2650 N   0  0  0  0  0  0  0  0  0  0  0  0
   -0.9824    4.6917   -0.7536 C   0  0  0  0  0  0  0  0  0  0  0  0
   -2.1584    5.0249   -1.6567 C   0  0  0  0  0  0  0  0  0  0  0  0
   -3.5037    5.0708   -0.9481 C   0  0  0  0  0  0  0  0  0  0  0  0
   -4.3905    5.8836   -1.1663 O   0  0  0  0  0  0  0  0  0  0  0  0
   -3.7048    4.0907   -0.0522 O   0  0  0  0  0  0  0  0  0  0  0  0
    5.3376   -1.0610    0.2979 H   0  0  0  0  0  0  0  0  0  0  0  0
    3.4320   -2.4591   -0.4121 H   0  0  0  0  0  0  0  0  0  0  0  0
    2.7923    2.4030    0.4588 H   0  0  0  0  0  0  0  0  0  0  0  0
    1.1962    3.2042   -0.3032 H   0  0  0  0  0  0  0  0  0  0  0  0
   -0.9174    3.3761    0.7915 H   0  0  0  0  0  0  0  0  0  0  0  0
   -3.2413    1.8178    1.0237 H   0  0  0  0  0  0  0  0  0  0  0  0
   -5.0024    1.0247   -0.0862 H   0  0  0  0  0  0  0  0  0  0  0  0
   -2.6685   -1.4865   -1.1065 H   0  0  0  0  0  0  0  0  0  0  0  0
   -2.9917   -3.3783    0.6643 H   0  0  0  0  0  0  0  0  0  0  0  0
   -0.9374   -4.2369    0.0948 H   0  0  0  0  0  0  0  0  0  0  0  0
   -1.1276   -3.0980   -1.2305 H   0  0  0  0  0  0  0  0  0  0  0  0
    0.4744   -2.2533    1.1897 H   0  0  0  0  0  0  0  0  0  0  0  0
    1.1980   -3.4525    0.3033 H   0  0  0  0  0  0  0  0  0  0  0  0
   -1.0801   -0.7531    3.2715 H   0  0  0  0  0  0  0  0  0  0  0  0
    0.5757   -0.4425    1.4381 H   0  0  0  0  0  0  0  0  0  0  0  0
   -0.8685   -0.4064    0.3567 H   0  0  0  0  0  0  0  0  0  0  0  0
   -1.9160    2.3634    1.6793 H   0  0  0  0  0  0  0  0  0  0  0  0
   -3.9343    1.4156   -2.3301 H   0  0  0  0  0  0  0  0  0  0  0  0
   -2.8073    0.1136   -2.0482 H   0  0  0  0  0  0  0  0  0  0  0  0
   -4.5363   -0.5553   -3.4967 H   0  0  0  0  0  0  0  0  0  0  0  0
   -4.7927   -1.4373   -1.9953 H   0  0  0  0  0  0  0  0  0  0  0  0
   -6.9396   -0.4391   -2.7474 H   0  0  0  0  0  0  0  0  0  0  0  0
   -6.4730    0.2512   -1.2173 H   0  0  0  0  0  0  0  0  0  0  0  0
   -7.2832    2.0351   -2.7096 H   0  0  0  0  0  0  0  0  0  0  0  0
   -5.6252    2.3498   -2.3196 H   0  0  0  0  0  0  0  0  0  0  0  0
   -5.9143    2.5722   -4.6308 H   0  0  0  0  0  0  0  0  0  0  0  0
   -4.9536    1.3009   -4.3729 H   0  0  0  0  0  0  0  0  0  0  0  0
   -1.0100    5.3535    0.1266 H   0  0  0  0  0  0  0  0  0  0  0  0
   -0.0415    4.9412   -1.2606 H   0  0  0  0  0  0  0  0  0  0  0  0
   -1.9847    6.0115   -2.0888 H   0  0  0  0  0  0  0  0  0  0  0  0
   -2.1770    4.3522   -2.5175 H   0  0  0  0  0  0  0  0  0  0  0  0
   -4.6623    3.8855    0.0375 H   0  0  0  0  0  0  0  0  0  0  0  0
  1  2  2  0  0  0  0
  1  6  1  0  0  0  0
  1 42  1  0  0  0  0
  2  3  1  0  0  0  0
  2 43  1  0  0  0  0
  3  4  2  0  0  0  0
  3 24  1  0  0  0  0
  4  5  1  0  0  0  0
  4 10  1  0  0  0  0
  5  6  2  0  0  0  0
  5 44  1  0  0  0  0
  6  7  1  0  0  0  0
  7  8  2  0  0  0  0
  7  9  1  0  0  0  0
 10 11  2  0  0  0  0
 10 12  1  0  0  0  0
 12 13  1  0  0  0  0
 12 45  1  0  0  0  0
 13 14  1  0  0  0  0
 13 46  1  1  0  0  0
 13 37  1  0  0  0  0
 14 15  2  0  0  0  0
 14 16  1  0  0  0  0
 16 17  1  0  0  0  0
 16 47  1  0  0  0  0
 17 18  1  0  0  0  0
 17 32  1  0  0  0  0
 17 48  1  1  0  0  0
 18 19  2  0  0  0  0
 18 20  1  0  0  0  0
 20 21  1  0  0  0  0
 20 49  1  0  0  0  0
 21 22  1  0  0  0  0
 21 25  1  0  0  0  0
 21 50  1  1  0  0  0
 22 23  1  0  0  0  0
 22 51  1  0  0  0  0
 22 52  1  0  0  0  0
 23 24  1  0  0  0  0
 23 53  1  0  0  0  0
 23 54  1  0  0  0  0
 25 26  2  0  0  0  0
 25 27  1  0  0  0  0
 27 28  1  0  0  0  0
 27 55  1  0  0  0  0
 28 29  1  0  0  0  0
 28 56  1  0  0  0  0
 28 57  1  0  0  0  0
 29 30  2  0  0  0  0
 29 31  1  0  0  0  0
 31 58  1  0  0  0  0
 32 33  1  0  0  0  0
 32 59  1  0  0  0  0
 32 60  1  0  0  0  0
 33 34  1  0  0  0  0
 33 61  1  0  0  0  0
 33 62  1  0  0  0  0
 34 35  1  0  0  0  0
 34 63  1  0  0  0  0
 34 64  1  0  0  0  0
 35 36  1  0  0  0  0
 35 65  1  0  0  0  0
 35 66  1  0  0  0  0
 36 67  1  0  0  0  0
 36 68  1  0  0  0  0
 37 38  1  0  0  0  0
 37 69  1  0  0  0  0
 37 70  1  0  0  0  0
 38 39  1  0  0  0  0
 38 71  1  0  0  0  0
 38 72  1  0  0  0  0
 39 40  2  0  0  0  0
 39 41  1  0  0  0  0
 41 73  1  0  0  0  0
M  CHG  2   7   1   9  -1
M  END
>  <DRUGBANK_ID>
DB12441

>  <COMMON_NAME>
Tavilermide

>  <CAS_NUMBER>
263251-78-1

>  <UNII>
NMG938VJ6T

>  <SYNONYMS>
Tavilermide

$$$$
