476
 OpenBabel10282417103D

 40 42  0  0  1  0  0  0  0  0999 V2000
   -1.0694   -0.0435    0.1410 S   0  0  0  0  0  0  0  0  0  0  0  0
   -1.0413    2.9213   -1.2548 O   0  0  0  0  0  0  0  0  0  0  0  0
    1.0618    3.5256    2.5286 N   0  0  0  0  0  0  0  0  0  0  0  0
   -0.2386    2.6613   -0.0694 C   0  0  1  0  0  0  0  0  0  0  0  0
   -0.9928    3.1065    1.2029 C   0  0  0  0  0  0  0  0  0  0  0  0
   -0.2116    2.8006    2.4940 C   0  0  0  0  0  0  0  0  0  0  0  0
    0.1247    1.1953    0.0606 C   0  0  0  0  0  0  0  0  0  0  0  0
   -0.4137    2.7728   -2.4823 C   0  0  0  0  0  0  0  0  0  0  0  0
   -0.5491    3.7671   -3.4780 C   0  0  0  0  0  0  0  0  0  0  0  0
    0.0072    3.5137   -4.7721 C   0  0  0  0  0  0  0  0  0  0  0  0
    1.4047    0.6670    0.1005 C   0  0  0  0  0  0  0  0  0  0  0  0
    0.2144    1.5731   -2.8298 C   0  0  0  0  0  0  0  0  0  0  0  0
   -1.2197    4.9924   -3.2875 C   0  0  0  0  0  0  0  0  0  0  0  0
    0.6908    2.3238   -5.0370 C   0  0  0  0  0  0  0  0  0  0  0  0
    0.7954    1.3517   -4.0682 C   0  0  0  0  0  0  0  0  0  0  0  0
   -0.1447    4.4451   -5.8015 C   0  0  0  0  0  0  0  0  0  0  0  0
    1.4009   -0.7542    0.0682 C   0  0  0  0  0  0  0  0  0  0  0  0
    0.1232   -1.2673    0.0602 C   0  0  0  0  0  0  0  0  0  0  0  0
    1.8290    3.1666    3.7128 C   0  0  0  0  0  0  0  0  0  0  0  0
   -1.3561    5.9158   -4.3302 C   0  0  0  0  0  0  0  0  0  0  0  0
   -0.8235    5.6388   -5.5871 C   0  0  0  0  0  0  0  0  0  0  0  0
    1.6261    3.2836    1.7160 H   0  0  0  0  0  0  0  0  0  0  0  0
    0.6716    3.2690   -0.1610 H   0  0  0  0  0  0  0  0  0  0  0  0
   -1.2281    4.1765    1.1478 H   0  0  0  0  0  0  0  0  0  0  0  0
   -1.9687    2.6039    1.2538 H   0  0  0  0  0  0  0  0  0  0  0  0
   -0.8264    3.0800    3.3570 H   0  0  0  0  0  0  0  0  0  0  0  0
   -0.0323    1.7217    2.5853 H   0  0  0  0  0  0  0  0  0  0  0  0
    2.2980    1.2801    0.0620 H   0  0  0  0  0  0  0  0  0  0  0  0
    0.2333    0.7183   -2.1823 H   0  0  0  0  0  0  0  0  0  0  0  0
   -1.6525    5.2315   -2.3172 H   0  0  0  0  0  0  0  0  0  0  0  0
    1.1221    2.1225   -6.0151 H   0  0  0  0  0  0  0  0  0  0  0  0
    1.2803    0.4003   -4.2625 H   0  0  0  0  0  0  0  0  0  0  0  0
    0.2566    4.2362   -6.7928 H   0  0  0  0  0  0  0  0  0  0  0  0
    2.2923   -1.3665    0.0223 H   0  0  0  0  0  0  0  0  0  0  0  0
   -0.1733   -2.3052    0.0111 H   0  0  0  0  0  0  0  0  0  0  0  0
    2.0725    2.0987    3.7197 H   0  0  0  0  0  0  0  0  0  0  0  0
    2.7698    3.7249    3.7098 H   0  0  0  0  0  0  0  0  0  0  0  0
    1.2857    3.4234    4.6258 H   0  0  0  0  0  0  0  0  0  0  0  0
   -1.8863    6.8497   -4.1658 H   0  0  0  0  0  0  0  0  0  0  0  0
   -0.9370    6.3477   -6.4020 H   0  0  0  0  0  0  0  0  0  0  0  0
  1  7  1  0  0  0  0
  1 18  1  0  0  0  0
  2  8  1  0  0  0  0
  3  6  1  0  0  0  0
  3 19  1  0  0  0  0
  3 22  1  0  0  0  0
  4  2  1  0  0  0  0
  4  5  1  0  0  0  0
  4  7  1  0  0  0  0
  4 23  1  6  0  0  0
  5  6  1  0  0  0  0
  5 24  1  0  0  0  0
  5 25  1  0  0  0  0
  6 26  1  0  0  0  0
  6 27  1  0  0  0  0
  7 11  2  0  0  0  0
  8  9  1  0  0  0  0
  8 12  2  0  0  0  0
  9 10  1  0  0  0  0
  9 13  2  0  0  0  0
 10 14  1  0  0  0  0
 10 16  2  0  0  0  0
 11 17  1  0  0  0  0
 11 28  1  0  0  0  0
 12 15  1  0  0  0  0
 12 29  1  0  0  0  0
 13 20  1  0  0  0  0
 13 30  1  0  0  0  0
 14 15  2  0  0  0  0
 14 31  1  0  0  0  0
 15 32  1  0  0  0  0
 16 21  1  0  0  0  0
 16 33  1  0  0  0  0
 17 18  2  0  0  0  0
 17 34  1  0  0  0  0
 18 35  1  0  0  0  0
 19 36  1  0  0  0  0
 19 37  1  0  0  0  0
 19 38  1  0  0  0  0
 20 21  2  0  0  0  0
 20 39  1  0  0  0  0
 21 40  1  0  0  0  0
M  END
>  <DRUGBANK_ID>
DB00476

>  <SECONDARY_ACCESSION_NUMBERS>
APRD00060

>  <COMMON_NAME>
Duloxetine

>  <CAS_NUMBER>
116539-59-4

>  <UNII>
O5TNM5N07U

>  <SYNONYMS>
(3S)-N-methyl-3-(1-naphthyloxy)-3-(2-thienyl)propan-1-amine; (S)-duloxetine; Duloxetina; Duloxetine

$$$$
