
 OpenBabel10282417223D

 19 18  0  0  0  0  0  0  0  0999 V2000
    2.7374    1.7008    3.9745 C   0  0  0  0  0  0  0  0  0  0  0  0
    1.8167    0.9764    2.9683 C   0  0  0  0  0  0  0  0  0  0  0  0
    3.4960    1.0529    4.6830 O   0  0  0  0  0  0  0  0  0  0  0  0
    1.7143   -0.2424    3.0977 O   0  0  0  0  0  0  0  0  0  0  0  0
    1.0048    1.7690    1.9371 C   0  0  2  0  0  0  0  0  0  0  0  0
    2.6479    3.0286    4.0741 O   0  0  0  0  0  0  0  0  0  0  0  0
    0.2153    0.8253    0.9902 C   0  0  0  0  0  0  0  0  0  0  0  0
    1.8408    2.7258    1.0860 C   0  0  0  0  0  0  0  0  0  0  0  0
    1.0835   -0.2174    0.2839 C   0  0  0  0  0  0  0  0  0  0  0  0
    0.2650    2.3499    2.5064 H   0  0  0  0  0  0  0  0  0  0  0  0
    1.9875    3.4943    3.5358 H   0  0  0  0  0  0  0  0  0  0  0  0
   -0.5806    0.3158    1.5478 H   0  0  0  0  0  0  0  0  0  0  0  0
   -0.2910    1.4255    0.2211 H   0  0  0  0  0  0  0  0  0  0  0  0
    1.1932    3.3017    0.4142 H   0  0  0  0  0  0  0  0  0  0  0  0
    2.4064    3.4515    1.6688 H   0  0  0  0  0  0  0  0  0  0  0  0
    2.5725    2.1861    0.4811 H   0  0  0  0  0  0  0  0  0  0  0  0
    1.5276   -0.9316    0.9800 H   0  0  0  0  0  0  0  0  0  0  0  0
    0.4878   -0.8084   -0.4153 H   0  0  0  0  0  0  0  0  0  0  0  0
    1.9013    0.2508   -0.2686 H   0  0  0  0  0  0  0  0  0  0  0  0
  2  1  1  0  0  0  0
  3  1  2  0  0  0  0
  4  2  2  0  0  0  0
  5  8  1  0  0  0  0
  5 10  1  1  0  0  0
  5  7  1  0  0  0  0
  5  2  1  0  0  0  0
  6  1  1  0  0  0  0
  6 11  1  0  0  0  0
  7 12  1  0  0  0  0
  7 13  1  0  0  0  0
  8 14  1  0  0  0  0
  8 15  1  0  0  0  0
  8 16  1  0  0  0  0
  9  7  1  0  0  0  0
  9 17  1  0  0  0  0
  9 18  1  0  0  0  0
  9 19  1  0  0  0  0
M  END
>  <DRUGBANK_ID>
DB15833

>  <COMMON_NAME>
alpha-Keto-isoleucine

>  <CAS_NUMBER>
24809-08-3

>  <UNII>
XQL9PAO004

>  <SYNONYMS>
L-2-Keto-3-methylvalerate

$$$$
