
 OpenBabel10282417123D

 28 29  0  0  0  0  0  0  0  0999 V2000
    2.5746   -0.0219   -0.0707 C   0  0  0  0  0  0  0  0  0  0  0  0
    1.6430   -1.2207    0.0780 C   0  0  0  0  0  0  0  0  0  0  0  0
   -0.8435   -1.4633    0.0873 C   0  0  0  0  0  0  0  0  0  0  0  0
    1.6901    1.1953    0.2033 C   0  0  1  0  0  0  0  0  0  0  0  0
   -2.2039   -0.7379    0.1062 C   0  0  1  0  0  0  0  0  0  0  0  0
    0.3182    0.7594   -0.3375 C   0  0  2  0  0  0  0  0  0  0  0  0
   -2.1805    0.7815   -0.1774 C   0  0  2  0  0  0  0  0  0  0  0  0
   -0.8839    1.4741    0.2779 C   0  0  2  0  0  0  0  0  0  0  0  0
    0.3245   -0.6521   -0.0348 N   0  0  3  0  0  0  0  0  0  0  0  0
    1.6827    1.4388    1.6108 O   0  0  0  0  0  0  0  0  0  0  0  0
   -3.0930   -1.3528   -0.8395 O   0  0  0  0  0  0  0  0  0  0  0  0
   -3.3056    1.3949    0.4867 O   0  0  0  0  0  0  0  0  0  0  0  0
   -0.8717    2.8561   -0.1016 O   0  0  0  0  0  0  0  0  0  0  0  0
    2.0690    2.0923   -0.2957 H   0  0  0  0  0  0  0  0  0  0  0  0
   -2.6575   -0.9024    1.0914 H   0  0  0  0  0  0  0  0  0  0  0  0
    0.3180    0.9036   -1.4274 H   0  0  0  0  0  0  0  0  0  0  0  0
   -2.3478    0.9736   -1.2439 H   0  0  0  0  0  0  0  0  0  0  0  0
   -0.8437    1.4566    1.3724 H   0  0  0  0  0  0  0  0  0  0  0  0
    3.4182   -0.0946    0.6226 H   0  0  0  0  0  0  0  0  0  0  0  0
    2.9540    0.0176   -1.0978 H   0  0  0  0  0  0  0  0  0  0  0  0
    1.7617   -1.6779    1.0661 H   0  0  0  0  0  0  0  0  0  0  0  0
    1.8467   -1.9784   -0.6856 H   0  0  0  0  0  0  0  0  0  0  0  0
   -0.7672   -1.9910    1.0479 H   0  0  0  0  0  0  0  0  0  0  0  0
   -0.8363   -2.2457   -0.6806 H   0  0  0  0  0  0  0  0  0  0  0  0
    1.2168    0.6923    2.0277 H   0  0  0  0  0  0  0  0  0  0  0  0
   -2.9569   -2.3191   -0.8085 H   0  0  0  0  0  0  0  0  0  0  0  0
   -3.2519    1.1686    1.4314 H   0  0  0  0  0  0  0  0  0  0  0  0
   -1.1171    2.9210   -1.0388 H   0  0  0  0  0  0  0  0  0  0  0  0
  1 19  1  0  0  0  0
  1 20  1  0  0  0  0
  2  1  1  0  0  0  0
  2 21  1  0  0  0  0
  2 22  1  0  0  0  0
  3 23  1  0  0  0  0
  3 24  1  0  0  0  0
  4  1  1  0  0  0  0
  4 10  1  0  0  0  0
  4 14  1  6  0  0  0
  5  3  1  0  0  0  0
  5 15  1  1  0  0  0
  5 11  1  0  0  0  0
  6  4  1  0  0  0  0
  6 16  1  6  0  0  0
  7  5  1  0  0  0  0
  7 17  1  6  0  0  0
  7 12  1  0  0  0  0
  8  6  1  0  0  0  0
  8  7  1  0  0  0  0
  8 13  1  0  0  0  0
  8 18  1  1  0  0  0
  9  2  1  0  0  0  0
  9  3  1  0  0  0  0
  9  6  1  0  0  0  0
 10 25  1  0  0  0  0
 11 26  1  0  0  0  0
 12 27  1  0  0  0  0
 13 28  1  0  0  0  0
M  END
>  <DRUGBANK_ID>
DB01816

>  <SECONDARY_ACCESSION_NUMBERS>
EXPT01055

>  <COMMON_NAME>
Castanospermine

>  <CAS_NUMBER>
79831-76-8

>  <UNII>
Q0I3184XM7

>  <SYNONYMS>
(1S-(1α,6β,7α,8β,8αβ))-octahydro-1,6,7,8-indolizinetetrol; (1S,6S,7R,8R,8aR)-1,6,7,8-tetrahydroxyindolizidine; 1,6,7,8-tetrahydroxyoctahydroindolizine

$$$$
