402
 OpenBabel10282417103D

 44 47  0  0  1  0  0  0  0  0999 V2000
    2.0417    0.0563   -0.0104 Cl  0  0  0  0  0  0  0  0  0  0  0  0
   -4.9241   -0.0559   -2.0897 O   0  0  0  0  0  0  0  0  0  0  0  0
   -4.3789   -1.5488   -3.6790 O   0  0  0  0  0  0  0  0  0  0  0  0
   -4.0625   -0.5475    2.4119 O   0  0  0  0  0  0  0  0  0  0  0  0
   -4.1346   -2.2154   -1.5096 N   0  0  0  0  0  0  0  0  0  0  0  0
   -3.8166   -4.3693    0.4806 N   0  0  0  0  0  0  0  0  0  0  0  0
   -3.9354    0.2135    0.1734 N   0  0  0  0  0  0  0  0  0  0  0  0
   -7.5911    0.5057   -0.5348 N   0  0  0  0  0  0  0  0  0  0  0  0
   -6.9484   -0.6469    1.9962 N   0  0  0  0  0  0  0  0  0  0  0  0
   -1.8079    1.3357   -0.0975 N   0  0  0  0  0  0  0  0  0  0  0  0
   -5.0973   -2.4925   -0.4831 C   0  0  0  0  0  0  0  0  0  0  0  0
   -3.4535   -3.4458   -1.9070 C   0  0  0  0  0  0  0  0  0  0  0  0
   -4.4624   -3.0877    0.7791 C   0  0  0  0  0  0  0  0  0  0  0  0
   -2.9044   -4.2487   -0.6885 C   0  0  0  0  0  0  0  0  0  0  0  0
   -4.9375    0.6584   -0.8047 C   0  0  2  0  0  0  0  0  0  0  0  0
   -4.4735   -1.2828   -2.4822 C   0  0  0  0  0  0  0  0  0  0  0  0
   -4.8840   -5.3241    0.2260 C   0  0  0  0  0  0  0  0  0  0  0  0
   -6.3090    0.4907   -0.0562 C   0  0  0  0  0  0  0  0  0  0  0  0
   -6.0386   -0.0097    1.2054 C   0  0  0  0  0  0  0  0  0  0  0  0
   -4.5699   -0.1257    1.3764 C   0  0  0  0  0  0  0  0  0  0  0  0
   -2.5066    0.1932    0.0072 C   0  0  0  0  0  0  0  0  0  0  0  0
   -1.7814   -1.0095    0.0720 C   0  0  0  0  0  0  0  0  0  0  0  0
   -8.5425   -0.0151    0.3175 C   0  0  0  0  0  0  0  0  0  0  0  0
   -8.2216   -0.6180    1.5316 C   0  0  0  0  0  0  0  0  0  0  0  0
   -0.3809   -1.1028    0.0114 C   0  0  0  0  0  0  0  0  0  0  0  0
   -0.4233    1.2397   -0.0681 C   0  0  0  0  0  0  0  0  0  0  0  0
    0.3251    0.0679   -0.0273 C   0  0  0  0  0  0  0  0  0  0  0  0
   -5.6525   -1.6197   -0.2867 H   0  0  0  0  0  0  0  0  0  0  0  0
   -5.8834   -3.1130   -0.9139 H   0  0  0  0  0  0  0  0  0  0  0  0
   -4.2080   -4.0513   -2.4181 H   0  0  0  0  0  0  0  0  0  0  0  0
   -2.6565   -3.2187   -2.6228 H   0  0  0  0  0  0  0  0  0  0  0  0
   -3.6921   -2.4674    1.2269 H   0  0  0  0  0  0  0  0  0  0  0  0
   -5.2160   -3.1599    1.5717 H   0  0  0  0  0  0  0  0  0  0  0  0
   -1.9655   -3.7994   -0.3414 H   0  0  0  0  0  0  0  0  0  0  0  0
   -2.5974   -5.2445   -1.0180 H   0  0  0  0  0  0  0  0  0  0  0  0
   -4.8095    1.7227   -1.0234 H   0  0  0  0  0  0  0  0  0  0  0  0
   -5.4715   -5.0674   -0.6591 H   0  0  0  0  0  0  0  0  0  0  0  0
   -4.4661   -6.3169    0.0865 H   0  0  0  0  0  0  0  0  0  0  0  0
   -5.5669   -5.3476    1.0832 H   0  0  0  0  0  0  0  0  0  0  0  0
   -2.2814   -1.9441    0.1491 H   0  0  0  0  0  0  0  0  0  0  0  0
   -9.5878    0.0645    0.0152 H   0  0  0  0  0  0  0  0  0  0  0  0
   -8.9789   -1.0801    2.1660 H   0  0  0  0  0  0  0  0  0  0  0  0
    0.1190   -2.0720    0.0239 H   0  0  0  0  0  0  0  0  0  0  0  0
    0.0989    2.1912   -0.0617 H   0  0  0  0  0  0  0  0  0  0  0  0
  1 27  1  0  0  0  0
  2 16  1  0  0  0  0
  3 16  2  0  0  0  0
  4 20  2  0  0  0  0
  5 11  1  0  0  0  0
  5 12  1  0  0  0  0
  5 16  1  0  0  0  0
  6 13  1  0  0  0  0
  6 14  1  0  0  0  0
  6 17  1  0  0  0  0
  7 15  1  0  0  0  0
  7 20  1  0  0  0  0
  7 21  1  0  0  0  0
  8 18  2  0  0  0  0
  8 23  1  0  0  0  0
  9 19  2  0  0  0  0
  9 24  1  0  0  0  0
 10 21  2  0  0  0  0
 10 26  1  0  0  0  0
 11 13  1  0  0  0  0
 11 28  1  0  0  0  0
 11 29  1  0  0  0  0
 12 14  1  0  0  0  0
 12 30  1  0  0  0  0
 12 31  1  0  0  0  0
 13 32  1  0  0  0  0
 13 33  1  0  0  0  0
 14 34  1  0  0  0  0
 14 35  1  0  0  0  0
 15 18  1  0  0  0  0
 15 36  1  6  0  0  0
 15  2  1  0  0  0  0
 17 37  1  0  0  0  0
 17 38  1  0  0  0  0
 17 39  1  0  0  0  0
 18 19  1  0  0  0  0
 19 20  1  0  0  0  0
 21 22  1  0  0  0  0
 22 25  2  0  0  0  0
 22 40  1  0  0  0  0
 23 24  2  0  0  0  0
 23 41  1  0  0  0  0
 24 42  1  0  0  0  0
 25 27  1  0  0  0  0
 25 43  1  0  0  0  0
 26 27  2  0  0  0  0
 26 44  1  0  0  0  0
M  END
>  <DRUGBANK_ID>
DB00402

>  <SECONDARY_ACCESSION_NUMBERS>
APRD00431

>  <COMMON_NAME>
Eszopiclone

>  <CAS_NUMBER>
138729-47-2

>  <UNII>
UZX80K71OE

>  <SYNONYMS>
(+)-(5S)-6-(5-Chloropyridin-2-yl)-7-oxo-6,7-dihydro-5H-pyrrolo(3,4-b)pyrazin-5-yl 4-methylpiperazine-1-carboxylate; (+)-(5S)-6-(5-chloropyridin-2-yl)-7-oxo-6,7-dihydro-5H-pyrrolo[3,4-b]pyrazin-5-yl-4-methylpiperazine-1-carboxylate; (+)-Zopiclone; (S)-6-(5-Chloro-2-pyridinyl)- 7-oxo- 6,7-dihydro- 5H-pyrrolo[3,4-b]pyrazin-5-yl- 4-methyl- 1-piperazinecarboxylate; (S)-Zopiclone; 1-Piperazinecarobxylic acid,4-methyl-,(5S)-6-(5-chloro-2-pyridinyl)-6,7-dihydro-7-oxo-5H-pyrrolo[3,4-b]pyrazin-5-yl ester; Esopiclone; Eszopiclone

$$$$
