
 OpenBabel10282417213D

 65 69  0  0  1  0  0  0  0  0999 V2000
   -2.9351   -0.8844    1.7587 C   0  0  0  0  0  0  0  0  0  0  0  0
   -9.9387   -2.3806   -3.1534 C   0  0  0  0  0  0  0  0  0  0  0  0
   -9.7441   -3.2702   -1.9386 C   0  0  0  0  0  0  0  0  0  0  0  0
  -10.1899   -1.0112   -2.5499 C   0  0  0  0  0  0  0  0  0  0  0  0
   -9.0061   -2.4053   -0.9437 C   0  0  0  0  0  0  0  0  0  0  0  0
   -7.8912   -0.3951   -1.8852 C   0  0  0  0  0  0  0  0  0  0  0  0
    1.1531    2.1643    0.0793 C   0  0  0  0  0  0  0  0  0  0  0  0
    3.6382   -1.3527   -0.1198 C   0  0  0  0  0  0  0  0  0  0  0  0
   -0.2654    2.0114   -0.4381 C   0  0  0  0  0  0  0  0  0  0  0  0
    2.2700   -1.4729   -0.3670 C   0  0  0  0  0  0  0  0  0  0  0  0
   -3.2143    1.6640    0.1499 C   0  0  0  0  0  0  0  0  0  0  0  0
   -4.5661    1.0237    0.0157 C   0  0  0  0  0  0  0  0  0  0  0  0
   -7.0473    0.0302   -0.7258 C   0  0  0  0  0  0  0  0  0  0  0  0
   -0.6925   -1.8515   -0.1419 C   0  0  0  0  0  0  0  0  0  0  0  0
   -2.2055   -1.9320   -0.4100 C   0  0  0  0  0  0  0  0  0  0  0  0
    3.3580    1.0187    0.2021 C   0  0  0  0  0  0  0  0  0  0  0  0
   -9.2016   -0.9534   -1.3999 C   0  0  0  0  0  0  0  0  0  0  0  0
    1.9816    0.9088   -0.0355 C   0  0  0  0  0  0  0  0  0  0  0  0
    4.1701   -0.1047    0.1665 C   0  0  0  0  0  0  0  0  0  0  0  0
    1.4175   -0.3584   -0.2977 C   0  0  0  0  0  0  0  0  0  0  0  0
   -0.0710   -0.4956   -0.5678 C   0  0  2  0  0  0  0  0  0  0  0  0
   -0.8423    0.6900    0.0646 C   0  0  2  0  0  0  0  0  0  0  0  0
   -2.2944    0.5567   -0.3134 C   0  0  1  0  0  0  0  0  0  0  0  0
   -4.3564   -0.4930   -0.2940 C   0  0  1  0  0  0  0  0  0  0  0  0
   -6.6213   -0.9949    0.3154 C   0  0  0  0  0  0  0  0  0  0  0  0
   -2.9344   -0.7387    0.2174 C   0  0  2  0  0  0  0  0  0  0  0  0
    5.4966    0.0720    0.4228 O   0  0  0  0  0  0  0  0  0  0  0  0
   -7.4047   -1.4843    1.1313 O   0  0  0  0  0  0  0  0  0  0  0  0
   -5.3122   -1.3286    0.3570 O   0  0  0  0  0  0  0  0  0  0  0  0
   -0.1834   -0.4289   -1.6612 H   0  0  0  0  0  0  0  0  0  0  0  0
   -0.7491    0.6688    1.1586 H   0  0  0  0  0  0  0  0  0  0  0  0
   -2.3510    0.5441   -1.4168 H   0  0  0  0  0  0  0  0  0  0  0  0
   -4.4027   -0.7171   -1.3699 H   0  0  0  0  0  0  0  0  0  0  0  0
   -3.3964   -0.0266    2.2565 H   0  0  0  0  0  0  0  0  0  0  0  0
   -3.4965   -1.7744    2.0669 H   0  0  0  0  0  0  0  0  0  0  0  0
   -1.9287   -0.9853    2.1702 H   0  0  0  0  0  0  0  0  0  0  0  0
   -9.0266   -2.3677   -3.7641 H   0  0  0  0  0  0  0  0  0  0  0  0
  -10.7696   -2.7123   -3.7754 H   0  0  0  0  0  0  0  0  0  0  0  0
  -10.7052   -3.5607   -1.5067 H   0  0  0  0  0  0  0  0  0  0  0  0
   -9.1742   -4.1750   -2.1676 H   0  0  0  0  0  0  0  0  0  0  0  0
  -10.0566   -0.2004   -3.2748 H   0  0  0  0  0  0  0  0  0  0  0  0
  -11.2042   -0.9407   -2.1466 H   0  0  0  0  0  0  0  0  0  0  0  0
   -9.3867   -2.5518    0.0714 H   0  0  0  0  0  0  0  0  0  0  0  0
   -7.9526   -2.7121   -0.9516 H   0  0  0  0  0  0  0  0  0  0  0  0
   -8.0424    0.4933   -2.5161 H   0  0  0  0  0  0  0  0  0  0  0  0
   -7.3321   -1.1114   -2.5032 H   0  0  0  0  0  0  0  0  0  0  0  0
    1.1091    2.4409    1.1407 H   0  0  0  0  0  0  0  0  0  0  0  0
    1.6349    2.9866   -0.4609 H   0  0  0  0  0  0  0  0  0  0  0  0
    4.2589   -2.2414   -0.1561 H   0  0  0  0  0  0  0  0  0  0  0  0
   -0.8598    2.8669   -0.0956 H   0  0  0  0  0  0  0  0  0  0  0  0
   -0.2811    2.0366   -1.5356 H   0  0  0  0  0  0  0  0  0  0  0  0
    1.8828   -2.4581   -0.6110 H   0  0  0  0  0  0  0  0  0  0  0  0
   -3.0521    1.9826    1.1817 H   0  0  0  0  0  0  0  0  0  0  0  0
   -3.1616    2.5454   -0.4979 H   0  0  0  0  0  0  0  0  0  0  0  0
   -5.1902    1.1792    0.9017 H   0  0  0  0  0  0  0  0  0  0  0  0
   -5.0248    1.5624   -0.8184 H   0  0  0  0  0  0  0  0  0  0  0  0
   -7.4544    0.8973   -0.1936 H   0  0  0  0  0  0  0  0  0  0  0  0
   -6.2138    0.3659   -1.3141 H   0  0  0  0  0  0  0  0  0  0  0  0
   -0.2243   -2.6774   -0.6868 H   0  0  0  0  0  0  0  0  0  0  0  0
   -0.4885   -2.0300    0.9205 H   0  0  0  0  0  0  0  0  0  0  0  0
   -2.3631   -1.9464   -1.4968 H   0  0  0  0  0  0  0  0  0  0  0  0
   -2.5998   -2.8819   -0.0291 H   0  0  0  0  0  0  0  0  0  0  0  0
    3.7988    1.9862    0.4264 H   0  0  0  0  0  0  0  0  0  0  0  0
   -9.5820   -0.3150   -0.5929 H   0  0  0  0  0  0  0  0  0  0  0  0
    5.9400   -0.7898    0.3759 H   0  0  0  0  0  0  0  0  0  0  0  0
  1 34  1  0  0  0  0
  1 35  1  0  0  0  0
  1 36  1  0  0  0  0
  2 37  1  0  0  0  0
  2 38  1  0  0  0  0
  3  2  1  0  0  0  0
  3 39  1  0  0  0  0
  3 40  1  0  0  0  0
  4  2  1  0  0  0  0
  4 41  1  0  0  0  0
  4 42  1  0  0  0  0
  5  3  1  0  0  0  0
  5 43  1  0  0  0  0
  5 44  1  0  0  0  0
  6 45  1  0  0  0  0
  6 46  1  0  0  0  0
  7 47  1  0  0  0  0
  7 48  1  0  0  0  0
  8 49  1  0  0  0  0
  9  7  1  0  0  0  0
  9 50  1  0  0  0  0
  9 51  1  0  0  0  0
 10  8  1  0  0  0  0
 10 52  1  0  0  0  0
 11 53  1  0  0  0  0
 11 54  1  0  0  0  0
 12 11  1  0  0  0  0
 12 55  1  0  0  0  0
 12 56  1  0  0  0  0
 13  6  1  0  0  0  0
 13 57  1  0  0  0  0
 13 58  1  0  0  0  0
 14 59  1  0  0  0  0
 14 60  1  0  0  0  0
 15 14  1  0  0  0  0
 15 61  1  0  0  0  0
 15 62  1  0  0  0  0
 16 63  1  0  0  0  0
 17  4  1  0  0  0  0
 17  5  1  0  0  0  0
 17  6  1  0  0  0  0
 17 64  1  0  0  0  0
 18  7  1  0  0  0  0
 18 16  2  0  0  0  0
 19  8  2  0  0  0  0
 19 16  1  0  0  0  0
 20 10  2  0  0  0  0
 20 18  1  0  0  0  0
 21 14  1  0  0  0  0
 21 20  1  0  0  0  0
 21 30  1  6  0  0  0
 22  9  1  0  0  0  0
 22 21  1  0  0  0  0
 22 31  1  1  0  0  0
 23 11  1  0  0  0  0
 23 22  1  0  0  0  0
 23 32  1  6  0  0  0
 24 12  1  0  0  0  0
 24 33  1  6  0  0  0
 24 29  1  0  0  0  0
 25 13  1  0  0  0  0
 26  1  1  1  0  0  0
 26 15  1  0  0  0  0
 26 23  1  0  0  0  0
 26 24  1  0  0  0  0
 27 19  1  0  0  0  0
 27 65  1  0  0  0  0
 28 25  2  0  0  0  0
 29 25  1  0  0  0  0
M  END
>  <DRUGBANK_ID>
DB13954

>  <SECONDARY_ACCESSION_NUMBERS>
DBSALT000067

>  <COMMON_NAME>
Estradiol cypionate

>  <CAS_NUMBER>
313-06-4

>  <UNII>
7E1DV054LO

>  <SYNONYMS>
Estradiol cypionate

$$$$
