
 OpenBabel10282417143D

 25 24  0  0  0  0  0  0  0  0999 V2000
    1.1035    0.0068    0.0745 C   0  0  0  0  0  0  0  0  0  0  0  0
    0.3525    0.9425    1.0637 C   0  0  1  0  0  0  0  0  0  0  0  0
   -0.5862    1.8784    0.2659 C   0  0  0  0  0  0  0  0  0  0  0  0
   -1.6659    1.1964   -0.6129 C   0  0  0  0  0  0  0  0  0  0  0  0
   -2.6508    0.2818    0.1188 C   0  0  0  0  0  0  0  0  0  0  0  0
   -2.4828    2.2497   -1.3526 C   0  0  0  0  0  0  0  0  0  0  0  0
   -0.2840    0.1246    2.1159 N   0  0  0  0  0  0  0  0  0  0  0  0
    0.5567   -0.7872   -0.6737 O   0  0  0  0  0  0  0  0  0  0  0  0
    2.4529    0.1213    0.0965 O   0  0  0  0  0  0  0  0  0  0  0  0
   -1.1862    0.8714    2.9854 C   0  0  0  0  0  0  0  0  0  0  0  0
    1.0985    1.5648    1.5735 H   0  0  0  0  0  0  0  0  0  0  0  0
   -1.0616    2.6007    0.9427 H   0  0  0  0  0  0  0  0  0  0  0  0
    0.0452    2.5058   -0.3807 H   0  0  0  0  0  0  0  0  0  0  0  0
   -1.1635    0.6069   -1.3848 H   0  0  0  0  0  0  0  0  0  0  0  0
   -3.1673    0.8157    0.9215 H   0  0  0  0  0  0  0  0  0  0  0  0
   -3.4155   -0.0974   -0.5643 H   0  0  0  0  0  0  0  0  0  0  0  0
   -2.1819   -0.6132    0.5222 H   0  0  0  0  0  0  0  0  0  0  0  0
   -1.8399    2.8854   -1.9669 H   0  0  0  0  0  0  0  0  0  0  0  0
   -3.2028    1.7568   -2.0147 H   0  0  0  0  0  0  0  0  0  0  0  0
   -3.0379    2.8781   -0.6494 H   0  0  0  0  0  0  0  0  0  0  0  0
   -0.7748   -0.6546    1.6767 H   0  0  0  0  0  0  0  0  0  0  0  0
    2.8021    0.6947    0.8007 H   0  0  0  0  0  0  0  0  0  0  0  0
   -1.8896    1.5297    2.4692 H   0  0  0  0  0  0  0  0  0  0  0  0
   -1.8078    0.1792    3.5622 H   0  0  0  0  0  0  0  0  0  0  0  0
   -0.6096    1.4844    3.6796 H   0  0  0  0  0  0  0  0  0  0  0  0
  2  1  1  0  0  0  0
  2  7  1  0  0  0  0
  2 11  1  1  0  0  0
  3  2  1  0  0  0  0
  3 12  1  0  0  0  0
  3 13  1  0  0  0  0
  4  3  1  0  0  0  0
  4 14  1  0  0  0  0
  5  4  1  0  0  0  0
  5 15  1  0  0  0  0
  5 16  1  0  0  0  0
  5 17  1  0  0  0  0
  6  4  1  0  0  0  0
  6 18  1  0  0  0  0
  6 19  1  0  0  0  0
  6 20  1  0  0  0  0
  7 10  1  0  0  0  0
  7 21  1  0  0  0  0
  8  1  2  0  0  0  0
  9  1  1  0  0  0  0
  9 22  1  0  0  0  0
 10 23  1  0  0  0  0
 10 24  1  0  0  0  0
 10 25  1  0  0  0  0
M  END
>  <DRUGBANK_ID>
DB04487

>  <SECONDARY_ACCESSION_NUMBERS>
EXPT02181

>  <COMMON_NAME>
N-Methylleucine

>  <CAS_NUMBER>
31321-74-1

>  <UNII>
RS2PMV5S1P

$$$$
