N5B
 OpenBabel10282417123D

 30 32  0  0  0  0  0  0  0  0999 V2000
   -0.2919    1.1137    0.0188 C   0  0  0  0  0  0  0  0  0  0  0  0
   -1.0859    2.4204    0.0619 C   0  0  0  0  0  0  0  0  0  0  0  0
    1.0890    0.7792   -0.0230 C   0  0  0  0  0  0  0  0  0  0  0  0
   -1.0518    0.0088    0.0064 N   0  0  0  0  0  0  0  0  0  0  0  0
   -0.7666    3.5127   -0.9553 C   0  0  0  0  0  0  0  0  0  0  0  0
   -0.8013    3.8278    0.4985 C   0  0  0  0  0  0  0  0  0  0  0  0
    1.1203   -0.6107   -0.0214 C   0  0  0  0  0  0  0  0  0  0  0  0
   -0.1898   -1.0066   -0.0160 N   0  0  0  0  0  0  0  0  0  0  0  0
    2.2373   -1.4512   -0.0148 N   0  0  0  0  0  0  0  0  0  0  0  0
    2.0928   -2.8883   -0.0550 C   0  0  0  0  0  0  0  0  0  0  0  0
    3.3178   -3.7216   -0.0291 C   0  0  0  0  0  0  0  0  0  0  0  0
    0.9705   -3.3887   -0.1038 O   0  0  0  0  0  0  0  0  0  0  0  0
    4.3622   -3.4172    0.8509 C   0  0  0  0  0  0  0  0  0  0  0  0
    3.3767   -4.8935   -0.8010 C   0  0  0  0  0  0  0  0  0  0  0  0
    5.4545   -4.2843    0.9598 C   0  0  0  0  0  0  0  0  0  0  0  0
    4.4529   -5.7745   -0.6563 C   0  0  0  0  0  0  0  0  0  0  0  0
    5.5009   -5.4581    0.2065 C   0  0  0  0  0  0  0  0  0  0  0  0
   -2.1304    2.1807    0.2522 H   0  0  0  0  0  0  0  0  0  0  0  0
    1.9388    1.4449   -0.0203 H   0  0  0  0  0  0  0  0  0  0  0  0
    0.1983    3.6672   -1.4230 H   0  0  0  0  0  0  0  0  0  0  0  0
   -1.5931    3.8150   -1.5944 H   0  0  0  0  0  0  0  0  0  0  0  0
   -1.6704    4.3963    0.8403 H   0  0  0  0  0  0  0  0  0  0  0  0
    0.1050    4.1321    0.9980 H   0  0  0  0  0  0  0  0  0  0  0  0
   -0.5501   -1.9578   -0.0081 H   0  0  0  0  0  0  0  0  0  0  0  0
    3.1572   -1.0309   -0.0177 H   0  0  0  0  0  0  0  0  0  0  0  0
    4.3222   -2.5439    1.4949 H   0  0  0  0  0  0  0  0  0  0  0  0
    2.5869   -5.1391   -1.5096 H   0  0  0  0  0  0  0  0  0  0  0  0
    6.2595   -4.0666    1.6596 H   0  0  0  0  0  0  0  0  0  0  0  0
    4.4685   -6.7199   -1.1974 H   0  0  0  0  0  0  0  0  0  0  0  0
    6.3503   -6.1337    0.3001 H   0  0  0  0  0  0  0  0  0  0  0  0
  1  2  1  0  0  0  0
  1  3  1  0  0  0  0
  1  4  2  0  0  0  0
  2  5  1  0  0  0  0
  2  6  1  0  0  0  0
  2 18  1  0  0  0  0
  3  7  2  0  0  0  0
  3 19  1  0  0  0  0
  4  8  1  0  0  0  0
  5  6  1  0  0  0  0
  5 20  1  0  0  0  0
  5 21  1  0  0  0  0
  6 22  1  0  0  0  0
  6 23  1  0  0  0  0
  7  8  1  0  0  0  0
  7  9  1  0  0  0  0
  8 24  1  0  0  0  0
  9 10  1  0  0  0  0
  9 25  1  0  0  0  0
 10 11  1  0  0  0  0
 10 12  2  0  0  0  0
 11 13  2  0  0  0  0
 11 14  1  0  0  0  0
 13 15  1  0  0  0  0
 13 26  1  0  0  0  0
 14 16  2  0  0  0  0
 14 27  1  0  0  0  0
 15 17  2  0  0  0  0
 15 28  1  0  0  0  0
 16 17  1  0  0  0  0
 16 29  1  0  0  0  0
 17 30  1  0  0  0  0
M  END
>  <DRUGBANK_ID>
DB02647

>  <SECONDARY_ACCESSION_NUMBERS>
EXPT02278

>  <COMMON_NAME>
N-(5-Cyclopropyl-1h-Pyrazol-3-Yl)Benzamide

$$$$
