IZZ
 OpenBabel10282417173D

 44 46  0  0  0  0  0  0  0  0999 V2000
    3.2083    2.0079    1.1828 O   0  0  0  0  0  0  0  0  0  0  0  0
    2.6427    1.1026    2.1291 C   0  0  0  0  0  0  0  0  0  0  0  0
    1.0958    1.1106    2.1229 C   0  0  2  0  0  0  0  0  0  0  0  0
    0.5102    1.1784    0.6892 C   0  0  0  0  0  0  0  0  0  0  0  0
    0.8771   -0.0961   -0.0893 C   0  0  0  0  0  0  0  0  0  0  0  0
   -1.0076    1.3556    0.6753 C   0  0  0  0  0  0  0  0  0  0  0  0
    0.6237    2.2181    2.9640 N   0  0  0  0  0  0  0  0  0  0  0  0
   -0.2130    2.0241    4.0442 C   0  0  0  0  0  0  0  0  0  0  0  0
    0.1499    0.9440    5.0146 C   0  0  0  0  0  0  0  0  0  0  0  0
   -0.6259    0.7376    6.0861 C   0  0  0  0  0  0  0  0  0  0  0  0
   -1.2549    2.7992    4.1941 N   0  0  0  0  0  0  0  0  0  0  0  0
   -2.0235    2.5091    5.3063 N   0  0  0  0  0  0  0  0  0  0  0  0
   -1.7659    1.5335    6.2599 C   0  0  0  0  0  0  0  0  0  0  0  0
   -2.6569    1.5261    7.2293 N   0  0  0  0  0  0  0  0  0  0  0  0
   -3.5282    2.5251    6.9033 C   0  0  0  0  0  0  0  0  0  0  0  0
   -3.1850    3.1457    5.7138 C   0  0  0  0  0  0  0  0  0  0  0  0
   -3.8140    4.2872    5.0668 C   0  0  0  0  0  0  0  0  0  0  0  0
   -4.3976    4.1860    3.7968 C   0  0  0  0  0  0  0  0  0  0  0  0
   -3.8809    5.5027    5.7572 C   0  0  0  0  0  0  0  0  0  0  0  0
   -4.4870    6.6110    5.1732 C   0  0  0  0  0  0  0  0  0  0  0  0
   -5.0517    6.5029    3.9025 C   0  0  0  0  0  0  0  0  0  0  0  0
   -5.0135    5.2937    3.2023 C   0  0  0  0  0  0  0  0  0  0  0  0
   -5.6424    5.1814    1.9739 N   0  0  0  0  0  0  0  0  0  0  0  0
    0.7635    0.1649    2.5702 H   0  0  0  0  0  0  0  0  0  0  0  0
    2.9791    1.6981    0.2896 H   0  0  0  0  0  0  0  0  0  0  0  0
    3.0186    0.0981    1.9066 H   0  0  0  0  0  0  0  0  0  0  0  0
    3.0262    1.3821    3.1154 H   0  0  0  0  0  0  0  0  0  0  0  0
    0.9246    2.0453    0.1600 H   0  0  0  0  0  0  0  0  0  0  0  0
    0.4311   -0.9811    0.3788 H   0  0  0  0  0  0  0  0  0  0  0  0
    0.5203   -0.0421   -1.1224 H   0  0  0  0  0  0  0  0  0  0  0  0
    1.9588   -0.2577   -0.1303 H   0  0  0  0  0  0  0  0  0  0  0  0
   -1.3007    2.2873    1.1682 H   0  0  0  0  0  0  0  0  0  0  0  0
   -1.3729    1.4110   -0.3559 H   0  0  0  0  0  0  0  0  0  0  0  0
   -1.5096    0.5229    1.1762 H   0  0  0  0  0  0  0  0  0  0  0  0
    0.5472    3.1200    2.5023 H   0  0  0  0  0  0  0  0  0  0  0  0
    1.0577    0.3850    4.8558 H   0  0  0  0  0  0  0  0  0  0  0  0
   -0.3828   -0.0106    6.8267 H   0  0  0  0  0  0  0  0  0  0  0  0
   -4.3662    2.7631    7.5474 H   0  0  0  0  0  0  0  0  0  0  0  0
   -4.3757    3.2352    3.2707 H   0  0  0  0  0  0  0  0  0  0  0  0
   -3.4498    5.5926    6.7516 H   0  0  0  0  0  0  0  0  0  0  0  0
   -4.5172    7.5565    5.7068 H   0  0  0  0  0  0  0  0  0  0  0  0
   -5.5229    7.3765    3.4610 H   0  0  0  0  0  0  0  0  0  0  0  0
   -6.0207    6.0011    1.5196 H   0  0  0  0  0  0  0  0  0  0  0  0
   -5.5763    4.3233    1.4448 H   0  0  0  0  0  0  0  0  0  0  0  0
  1  2  1  0  0  0  0
  1 25  1  0  0  0  0
  2 26  1  0  0  0  0
  2 27  1  0  0  0  0
  3  7  1  0  0  0  0
  3 24  1  1  0  0  0
  3  4  1  0  0  0  0
  3  2  1  0  0  0  0
  4  5  1  0  0  0  0
  4  6  1  0  0  0  0
  4 28  1  0  0  0  0
  5 29  1  0  0  0  0
  5 30  1  0  0  0  0
  5 31  1  0  0  0  0
  6 32  1  0  0  0  0
  6 33  1  0  0  0  0
  6 34  1  0  0  0  0
  7  8  1  0  0  0  0
  7 35  1  0  0  0  0
  8  9  1  0  0  0  0
  8 11  2  0  0  0  0
  9 10  2  0  0  0  0
  9 36  1  0  0  0  0
 10 13  1  0  0  0  0
 10 37  1  0  0  0  0
 11 12  1  0  0  0  0
 12 13  1  0  0  0  0
 12 16  1  0  0  0  0
 13 14  2  0  0  0  0
 14 15  1  0  0  0  0
 15 16  2  0  0  0  0
 15 38  1  0  0  0  0
 16 17  1  0  0  0  0
 17 18  2  0  0  0  0
 17 19  1  0  0  0  0
 18 22  1  0  0  0  0
 18 39  1  0  0  0  0
 19 20  2  0  0  0  0
 19 40  1  0  0  0  0
 20 21  1  0  0  0  0
 20 41  1  0  0  0  0
 21 22  2  0  0  0  0
 21 42  1  0  0  0  0
 22 23  1  0  0  0  0
 23 43  1  0  0  0  0
 23 44  1  0  0  0  0
M  END
>  <DRUGBANK_ID>
DB08004

>  <COMMON_NAME>
(2S)-2-{[3-(3-aminophenyl)imidazo[1,2-b]pyridazin-6-yl]amino}-3-methylbutan-1-ol

$$$$
