1499
 OpenBabel10282417113D

 45 46  0  0  1  0  0  0  0  0999 V2000
    0.3357    2.2242    0.4079 O   0  0  0  0  0  0  0  0  0  0  0  0
    0.1154    4.4632    0.5162 O   0  0  0  0  0  0  0  0  0  0  0  0
   -0.9128   -0.6778   -2.3598 N   0  0  0  0  0  0  0  0  0  0  0  0
    0.3603    0.9432   -0.3261 C   0  0  1  0  0  0  0  0  0  0  0  0
   -0.8999    0.0553    0.0377 C   0  0  2  0  0  0  0  0  0  0  0  0
    0.6176    1.3119   -1.7869 C   0  0  0  0  0  0  0  0  0  0  0  0
   -1.0285   -1.1010   -0.9490 C   0  0  0  0  0  0  0  0  0  0  0  0
    0.1866    0.2365   -2.7731 C   0  0  0  0  0  0  0  0  0  0  0  0
   -2.2725    0.6891    0.1621 C   0  0  0  0  0  0  0  0  0  0  0  0
    1.5483   -0.0535    0.0565 C   0  0  0  0  0  0  0  0  0  0  0  0
   -0.8695   -1.8883   -3.1850 C   0  0  0  0  0  0  0  0  0  0  0  0
   -3.4425   -0.2132    0.4987 C   0  0  0  0  0  0  0  0  0  0  0  0
    1.7083   -1.2403   -0.7080 C   0  0  0  0  0  0  0  0  0  0  0  0
    2.2700   -0.0364    1.2312 C   0  0  0  0  0  0  0  0  0  0  0  0
   -0.3272    3.3811    0.0768 C   0  0  0  0  0  0  0  0  0  0  0  0
    2.1517   -2.4517   -0.2279 C   0  0  0  0  0  0  0  0  0  0  0  0
    3.0144   -1.1875    1.5867 C   0  0  0  0  0  0  0  0  0  0  0  0
   -1.6870    3.4237   -0.6536 C   0  0  0  0  0  0  0  0  0  0  0  0
    2.8683   -2.4164    0.9235 C   0  0  0  0  0  0  0  0  0  0  0  0
   -1.8894    2.9883   -2.1063 C   0  0  0  0  0  0  0  0  0  0  0  0
   -0.7133   -0.3291    1.0554 H   0  0  0  0  0  0  0  0  0  0  0  0
    0.1836    2.2641   -2.0472 H   0  0  0  0  0  0  0  0  0  0  0  0
    1.6681    1.6048   -1.9477 H   0  0  0  0  0  0  0  0  0  0  0  0
   -1.9714   -1.6287   -0.8300 H   0  0  0  0  0  0  0  0  0  0  0  0
   -0.3981   -1.9340   -0.6329 H   0  0  0  0  0  0  0  0  0  0  0  0
    1.1064   -0.2860   -3.0621 H   0  0  0  0  0  0  0  0  0  0  0  0
   -0.0949    0.7130   -3.7181 H   0  0  0  0  0  0  0  0  0  0  0  0
   -2.2303    1.4266    0.9645 H   0  0  0  0  0  0  0  0  0  0  0  0
   -2.5498    1.1001   -0.7985 H   0  0  0  0  0  0  0  0  0  0  0  0
   -0.9889   -1.6279   -4.2367 H   0  0  0  0  0  0  0  0  0  0  0  0
    0.0769   -2.4308   -3.0677 H   0  0  0  0  0  0  0  0  0  0  0  0
   -1.6731   -2.5784   -2.9088 H   0  0  0  0  0  0  0  0  0  0  0  0
   -3.3141   -0.6296    1.4966 H   0  0  0  0  0  0  0  0  0  0  0  0
   -4.3583    0.3804    0.4469 H   0  0  0  0  0  0  0  0  0  0  0  0
   -3.5919   -1.0211   -0.2183 H   0  0  0  0  0  0  0  0  0  0  0  0
    1.2554   -1.3948   -1.6604 H   0  0  0  0  0  0  0  0  0  0  0  0
    2.2452    0.8254    1.8898 H   0  0  0  0  0  0  0  0  0  0  0  0
    1.8963   -3.3584   -0.7753 H   0  0  0  0  0  0  0  0  0  0  0  0
    3.7005   -1.1463    2.4223 H   0  0  0  0  0  0  0  0  0  0  0  0
   -2.4393    2.9899   -0.0042 H   0  0  0  0  0  0  0  0  0  0  0  0
   -2.0249    4.4677   -0.6272 H   0  0  0  0  0  0  0  0  0  0  0  0
    3.3203   -3.3379    1.2663 H   0  0  0  0  0  0  0  0  0  0  0  0
   -1.6630    1.9418   -2.2992 H   0  0  0  0  0  0  0  0  0  0  0  0
   -2.9372    3.0519   -2.4105 H   0  0  0  0  0  0  0  0  0  0  0  0
   -1.2798    3.5867   -2.7883 H   0  0  0  0  0  0  0  0  0  0  0  0
  1 15  1  0  0  0  0
  2 15  2  0  0  0  0
  3  7  1  0  0  0  0
  3  8  1  0  0  0  0
  3 11  1  0  0  0  0
  4  5  1  0  0  0  0
  4  6  1  0  0  0  0
  4 10  1  0  0  0  0
  4  1  1  1  0  0  0
  5  7  1  0  0  0  0
  5  9  1  0  0  0  0
  5 21  1  1  0  0  0
  6  8  1  0  0  0  0
  6 22  1  0  0  0  0
  6 23  1  0  0  0  0
  7 24  1  0  0  0  0
  7 25  1  0  0  0  0
  8 26  1  0  0  0  0
  8 27  1  0  0  0  0
  9 12  1  0  0  0  0
  9 28  1  0  0  0  0
  9 29  1  0  0  0  0
 10 13  2  0  0  0  0
 10 14  1  0  0  0  0
 11 30  1  0  0  0  0
 11 31  1  0  0  0  0
 11 32  1  0  0  0  0
 12 33  1  0  0  0  0
 12 34  1  0  0  0  0
 12 35  1  0  0  0  0
 13 16  1  0  0  0  0
 13 36  1  0  0  0  0
 14 17  2  0  0  0  0
 14 37  1  0  0  0  0
 15 18  1  0  0  0  0
 16 19  2  0  0  0  0
 16 38  1  0  0  0  0
 17 19  1  0  0  0  0
 17 39  1  0  0  0  0
 18 20  1  0  0  0  0
 18 40  1  0  0  0  0
 18 41  1  0  0  0  0
 19 42  1  0  0  0  0
 20 43  1  0  0  0  0
 20 44  1  0  0  0  0
 20 45  1  0  0  0  0
M  END
>  <DRUGBANK_ID>
DB01499

>  <COMMON_NAME>
Alphameprodine

>  <CAS_NUMBER>
468-51-9

>  <UNII>
1177I648L1

>  <SYNONYMS>
3alpha-Ethyl-1-methyl-4-phenyl-4alpha-piperidyl propionat; Alfameprodina; alpha-3-ethyl-1-methyl-4-phenyl-4-propionoxypiperidine; alpha-3-Ethyl-1-methyl-4-phenyl-4-propionyloxypiperidine; Alphameprodine; Alphameprodinum

$$$$
