
 OpenBabel10282417203D

 70 75  0  0  0  0  0  0  0  0999 V2000
    0.1338    0.8452   -0.0058 C   0  0  0  0  0  0  0  0  0  0  0  0
   -1.0937    1.4330   -0.0215 C   0  0  0  0  0  0  0  0  0  0  0  0
   -2.1728    0.6592   -0.0800 N   0  0  0  0  0  0  0  0  0  0  0  0
   -2.0441   -0.6890   -0.0968 C   0  0  0  0  0  0  0  0  0  0  0  0
   -0.8489   -1.3424   -0.0817 N   0  0  0  0  0  0  0  0  0  0  0  0
    0.2511   -0.5315   -0.0458 C   0  0  0  0  0  0  0  0  0  0  0  0
    1.5877   -0.9633   -0.0727 N   0  0  0  0  0  0  0  0  0  0  0  0
    2.3956    0.0826   -0.0024 C   0  0  0  0  0  0  0  0  0  0  0  0
    1.6276    1.6127    0.0370 S   0  0  0  0  0  0  0  0  0  0  0  0
    3.7471    0.1033   -0.0319 N   0  0  0  0  0  0  0  0  0  0  0  0
    4.4988    0.8040    1.0274 C   0  0  0  0  0  0  0  0  0  0  0  0
    5.5425    1.7579    0.4339 C   0  0  0  0  0  0  0  0  0  0  0  0
    6.4296    1.0307   -0.5584 N   0  0  0  0  0  0  0  0  0  0  0  0
    5.5673    0.6393   -1.7543 C   0  0  2  0  0  0  0  0  0  0  0  0
    4.4513   -0.2854   -1.2570 C   0  0  0  0  0  0  0  0  0  0  0  0
    6.3771   -0.0235   -2.8720 C   0  0  0  0  0  0  0  0  0  0  0  0
    5.8476   -0.1129   -4.1271 N   0  0  0  0  0  0  0  0  0  0  0  0
    6.6555   -0.7510   -5.1600 C   0  0  0  0  0  0  0  0  0  0  0  0
    5.9876   -1.9760   -5.7073 C   0  0  0  0  0  0  0  0  0  0  0  0
    4.6333   -1.9556   -6.0350 C   0  0  0  0  0  0  0  0  0  0  0  0
    4.0321   -3.0759   -6.5840 C   0  0  0  0  0  0  0  0  0  0  0  0
    4.7589   -4.2411   -6.8368 C   0  0  0  0  0  0  0  0  0  0  0  0
    6.1186   -4.2647   -6.5097 C   0  0  0  0  0  0  0  0  0  0  0  0
    6.7289   -3.1424   -5.9455 C   0  0  0  0  0  0  0  0  0  0  0  0
    4.2823   -5.3958   -7.3888 O   0  0  0  0  0  0  0  0  0  0  0  0
    2.9062   -5.4162   -7.7370 C   0  0  0  0  0  0  0  0  0  0  0  0
    2.1273   -5.2472   -6.6483 F   0  0  0  0  0  0  0  0  0  0  0  0
    2.6283   -4.4864   -8.6750 F   0  0  0  0  0  0  0  0  0  0  0  0
    2.6177   -6.6274   -8.2637 F   0  0  0  0  0  0  0  0  0  0  0  0
    2.7284   -2.9725   -6.8656 F   0  0  0  0  0  0  0  0  0  0  0  0
    7.4816   -0.5144   -2.7046 O   0  0  0  0  0  0  0  0  0  0  0  0
    7.5936   -0.0885    0.1890 S   0  0  0  0  0  0  0  0  0  0  0  0
    6.7156   -1.5032    0.9179 C   0  0  0  0  0  0  0  0  0  0  0  0
    5.9827   -2.4669    0.1967 C   0  0  0  0  0  0  0  0  0  0  0  0
    4.9778   -3.1990    0.8439 C   0  0  0  0  0  0  0  0  0  0  0  0
    4.9383   -3.2219    2.2369 C   0  0  0  0  0  0  0  0  0  0  0  0
    5.8415   -2.4297    2.9598 C   0  0  0  0  0  0  0  0  0  0  0  0
    6.7011   -1.5546    2.3083 C   0  0  0  0  0  0  0  0  0  0  0  0
    4.0329   -4.1669    2.9752 C   0  0  0  0  0  0  0  0  0  0  0  0
    4.7606   -5.1015    3.6476 F   0  0  0  0  0  0  0  0  0  0  0  0
    3.2646   -3.5444    3.9089 F   0  0  0  0  0  0  0  0  0  0  0  0
    3.1807   -4.8609    2.1746 F   0  0  0  0  0  0  0  0  0  0  0  0
    8.5767   -0.6478   -0.6833 O   0  0  0  0  0  0  0  0  0  0  0  0
    8.0861    0.6887    1.3288 O   0  0  0  0  0  0  0  0  0  0  0  0
   -3.3648   -1.4593    0.0234 C   0  0  0  0  0  0  0  0  0  0  0  0
   -4.5154   -1.4525   -0.9647 C   0  0  0  0  0  0  0  0  0  0  0  0
   -4.6271   -0.6175    0.2696 C   0  0  0  0  0  0  0  0  0  0  0  0
   -1.2193    2.5048    0.0026 H   0  0  0  0  0  0  0  0  0  0  0  0
    3.8552    1.3259    1.7455 H   0  0  0  0  0  0  0  0  0  0  0  0
    4.9951    0.0675    1.6445 H   0  0  0  0  0  0  0  0  0  0  0  0
    5.0169    2.5736   -0.0835 H   0  0  0  0  0  0  0  0  0  0  0  0
    6.1420    2.2380    1.2126 H   0  0  0  0  0  0  0  0  0  0  0  0
    5.1093    1.5461   -2.1794 H   0  0  0  0  0  0  0  0  0  0  0  0
    5.0508   -1.0572   -0.9034 H   0  0  0  0  0  0  0  0  0  0  0  0
    3.8552   -0.8112   -2.0089 H   0  0  0  0  0  0  0  0  0  0  0  0
    4.9545    0.2918   -4.3620 H   0  0  0  0  0  0  0  0  0  0  0  0
    6.8345   -0.0218   -5.9538 H   0  0  0  0  0  0  0  0  0  0  0  0
    7.6434   -1.0427   -4.7807 H   0  0  0  0  0  0  0  0  0  0  0  0
    4.0215   -1.0748   -5.8750 H   0  0  0  0  0  0  0  0  0  0  0  0
    6.7157   -5.1557   -6.6958 H   0  0  0  0  0  0  0  0  0  0  0  0
    7.7892   -3.1840   -5.6943 H   0  0  0  0  0  0  0  0  0  0  0  0
    6.0241   -2.5548   -0.8912 H   0  0  0  0  0  0  0  0  0  0  0  0
    4.2183   -3.7340    0.2656 H   0  0  0  0  0  0  0  0  0  0  0  0
    5.8576   -2.4689    4.0453 H   0  0  0  0  0  0  0  0  0  0  0  0
    7.3183   -0.8762    2.8909 H   0  0  0  0  0  0  0  0  0  0  0  0
   -3.2650   -2.4050    0.5467 H   0  0  0  0  0  0  0  0  0  0  0  0
   -4.4315   -0.9488   -1.9194 H   0  0  0  0  0  0  0  0  0  0  0  0
   -5.1577   -2.3296   -1.0026 H   0  0  0  0  0  0  0  0  0  0  0  0
   -5.3066   -0.9075    1.0602 H   0  0  0  0  0  0  0  0  0  0  0  0
   -4.5929    0.4623    0.1325 H   0  0  0  0  0  0  0  0  0  0  0  0
  1  2  1  0  0  0  0
  1  9  1  0  0  0  0
  2  3  2  0  0  0  0
  2 48  1  0  0  0  0
  3  4  1  0  0  0  0
  4  5  2  0  0  0  0
  4 45  1  0  0  0  0
  5  6  1  0  0  0  0
  6  1  2  0  0  0  0
  6  7  1  0  0  0  0
  7  8  2  0  0  0  0
  8  9  1  0  0  0  0
  8 10  1  0  0  0  0
 10 15  1  0  0  0  0
 11 10  1  0  0  0  0
 11 49  1  0  0  0  0
 11 50  1  0  0  0  0
 12 11  1  0  0  0  0
 12 51  1  0  0  0  0
 12 52  1  0  0  0  0
 13 12  1  0  0  0  0
 13 32  1  0  0  0  0
 14 13  1  0  0  0  0
 14 53  1  6  0  0  0
 14 16  1  0  0  0  0
 15 14  1  0  0  0  0
 15 54  1  0  0  0  0
 15 55  1  0  0  0  0
 16 17  1  0  0  0  0
 16 31  2  0  0  0  0
 17 18  1  0  0  0  0
 17 56  1  0  0  0  0
 18 19  1  0  0  0  0
 18 57  1  0  0  0  0
 18 58  1  0  0  0  0
 19 24  1  0  0  0  0
 20 19  2  0  0  0  0
 20 59  1  0  0  0  0
 21 20  1  0  0  0  0
 21 30  1  0  0  0  0
 22 21  2  0  0  0  0
 22 25  1  0  0  0  0
 23 22  1  0  0  0  0
 23 60  1  0  0  0  0
 24 23  2  0  0  0  0
 24 61  1  0  0  0  0
 25 26  1  0  0  0  0
 26 27  1  0  0  0  0
 26 28  1  0  0  0  0
 26 29  1  0  0  0  0
 32 33  1  0  0  0  0
 32 43  2  0  0  0  0
 32 44  2  0  0  0  0
 33 38  1  0  0  0  0
 34 33  2  0  0  0  0
 34 62  1  0  0  0  0
 35 34  1  0  0  0  0
 35 63  1  0  0  0  0
 36 35  2  0  0  0  0
 36 39  1  0  0  0  0
 37 36  1  0  0  0  0
 37 64  1  0  0  0  0
 38 37  2  0  0  0  0
 38 65  1  0  0  0  0
 39 40  1  0  0  0  0
 39 41  1  0  0  0  0
 39 42  1  0  0  0  0
 45 47  1  0  0  0  0
 45 66  1  0  0  0  0
 46 45  1  0  0  0  0
 46 47  1  0  0  0  0
 46 67  1  0  0  0  0
 46 68  1  0  0  0  0
 47 69  1  0  0  0  0
 47 70  1  0  0  0  0
M  END
>  <DRUGBANK_ID>
DB13095

>  <COMMON_NAME>
JTK-853

>  <CAS_NUMBER>
954389-09-4

>  <UNII>
WDX8QQD13B

$$$$
