
 OpenBabel10282417133D

 43 45  0  0  1  0  0  0  0  0999 V2000
    0.7366   -1.3070    2.1519 C   0  0  0  0  0  0  0  0  0  0  0  0
    2.2727   -2.8872    5.0698 C   0  0  0  0  0  0  0  0  0  0  0  0
    2.2715   -2.3595    6.3554 C   0  0  0  0  0  0  0  0  0  0  0  0
    3.0963   -2.3383    4.0806 C   0  0  0  0  0  0  0  0  0  0  0  0
    3.0691   -1.2546    6.6767 C   0  0  0  0  0  0  0  0  0  0  0  0
    5.2176   -0.5839    2.2189 C   0  0  0  0  0  0  0  0  0  0  0  0
    5.3712    0.4973    4.4659 C   0  0  0  0  0  0  0  0  0  0  0  0
    3.2237   -0.5807   -2.2909 C   0  0  0  0  0  0  0  0  0  0  0  0
    0.4217   -1.1581    0.6672 C   0  0  2  0  0  0  0  0  0  0  0  0
    4.8333   -0.4286    3.5999 C   0  0  0  0  0  0  0  0  0  0  0  0
    3.9048   -1.2174    4.3609 C   0  0  0  0  0  0  0  0  0  0  0  0
    3.8728   -0.7052    5.6613 C   0  0  0  0  0  0  0  0  0  0  0  0
    4.4065   -0.3762    1.1676 C   0  0  0  0  0  0  0  0  0  0  0  0
    2.2453   -1.6561   -2.7166 C   0  0  0  0  0  0  0  0  0  0  0  0
    1.0646    0.1140    0.0280 C   0  0  1  0  0  0  0  0  0  0  0  0
    2.5866   -0.0676    0.1024 C   0  0  0  0  0  0  0  0  0  0  0  0
    4.6549   -0.7128   -0.2661 C   0  0  0  0  0  0  0  0  0  0  0  0
    0.5529    0.4045   -1.3100 N   0  0  0  0  0  0  0  0  0  0  0  0
    4.7572    0.3509    5.6881 N   0  0  0  0  0  0  0  0  0  0  0  0
    3.1373    0.1163    1.2631 N   0  0  0  0  0  0  0  0  0  0  0  0
    3.4194   -0.5407   -0.8476 N   0  0  0  0  0  0  0  0  0  0  0  0
   -1.0045   -1.1507    0.5615 O   0  0  0  0  0  0  0  0  0  0  0  0
    1.2298   -1.4591   -3.3688 O   0  0  0  0  0  0  0  0  0  0  0  0
    2.5391   -2.8933   -2.2886 O   0  0  0  0  0  0  0  0  0  0  0  0
    5.7161   -1.0223   -0.7845 O   0  0  0  0  0  0  0  0  0  0  0  0
    6.2329   -0.9232    2.0351 H   0  0  0  0  0  0  0  0  0  0  0  0
    0.7788   -2.0488    0.1353 H   0  0  0  0  0  0  0  0  0  0  0  0
    0.8002    0.9867    0.6353 H   0  0  0  0  0  0  0  0  0  0  0  0
    0.1136   -0.6646    2.7787 H   0  0  0  0  0  0  0  0  0  0  0  0
    1.7576   -1.0611    2.3958 H   0  0  0  0  0  0  0  0  0  0  0  0
    0.5973   -2.3447    2.4655 H   0  0  0  0  0  0  0  0  0  0  0  0
    1.6332   -3.7316    4.8245 H   0  0  0  0  0  0  0  0  0  0  0  0
    1.6483   -2.8201    7.1197 H   0  0  0  0  0  0  0  0  0  0  0  0
    3.0858   -2.7536    3.0784 H   0  0  0  0  0  0  0  0  0  0  0  0
    3.0658   -0.8544    7.6865 H   0  0  0  0  0  0  0  0  0  0  0  0
    6.1243    1.2587    4.3215 H   0  0  0  0  0  0  0  0  0  0  0  0
    2.8508    0.3967   -2.6146 H   0  0  0  0  0  0  0  0  0  0  0  0
    4.1693   -0.7454   -2.8161 H   0  0  0  0  0  0  0  0  0  0  0  0
    1.1034    1.0993   -1.8007 H   0  0  0  0  0  0  0  0  0  0  0  0
    0.4500   -0.4324   -1.8873 H   0  0  0  0  0  0  0  0  0  0  0  0
    4.9488    0.9127    6.5062 H   0  0  0  0  0  0  0  0  0  0  0  0
   -1.3184   -0.3739    1.0584 H   0  0  0  0  0  0  0  0  0  0  0  0
    1.7897   -3.4458   -2.6039 H   0  0  0  0  0  0  0  0  0  0  0  0
  1 29  1  0  0  0  0
  1 30  1  0  0  0  0
  1 31  1  0  0  0  0
  2 32  1  0  0  0  0
  3  2  2  0  0  0  0
  3 33  1  0  0  0  0
  4  2  1  0  0  0  0
  4 34  1  0  0  0  0
  5  3  1  0  0  0  0
  5 35  1  0  0  0  0
  7 36  1  0  0  0  0
  8 37  1  0  0  0  0
  8 38  1  0  0  0  0
  9 22  1  0  0  0  0
  9 27  1  6  0  0  0
  9 15  1  0  0  0  0
  9  1  1  0  0  0  0
 10  6  1  0  0  0  0
 10  7  2  0  0  0  0
 11  4  2  0  0  0  0
 11 10  1  0  0  0  0
 12  5  2  0  0  0  0
 12 11  1  0  0  0  0
 13  6  2  0  0  0  0
 14  8  1  0  0  0  0
 15 18  1  0  0  0  0
 15 28  1  1  0  0  0
 16 15  1  0  0  0  0
 17 13  1  0  0  0  0
 18 39  1  0  0  0  0
 18 40  1  0  0  0  0
 19  7  1  0  0  0  0
 19 12  1  0  0  0  0
 19 41  1  0  0  0  0
 20 13  1  0  0  0  0
 20 16  2  0  0  0  0
 21  8  1  0  0  0  0
 21 16  1  0  0  0  0
 21 17  1  0  0  0  0
 22 42  1  0  0  0  0
 23 14  2  0  0  0  0
 24 14  1  0  0  0  0
 24 43  1  0  0  0  0
 25 17  2  0  0  0  0
 26  6  1  0  0  0  0
M  END
>  <DRUGBANK_ID>
DB03914

>  <SECONDARY_ACCESSION_NUMBERS>
EXPT01021

>  <COMMON_NAME>
[2-(1-amino-2-hydroxy-propyl)-4-(1H-indol-3-ylmethylene)-5-oxo-4,5-dihydro-imidazol-1-yl]-acetaldehyde

$$$$
