
 OpenBabel10282417203D

 36 36  0  0  0  0  0  0  0  0999 V2000
    1.9870    0.1947   -1.0258 C   0  0  0  0  0  0  0  0  0  0  0  0
    0.6299    0.0343   -0.5255 C   0  0  0  0  0  0  0  0  0  0  0  0
    0.0290    1.2353   -0.1983 C   0  0  0  0  0  0  0  0  0  0  0  0
   -1.3107    1.2959    0.0111 C   0  0  0  0  0  0  0  0  0  0  0  0
   -2.0036    0.0745    0.0246 C   0  0  0  0  0  0  0  0  0  0  0  0
   -1.2759   -1.1885    0.0222 C   0  0  0  0  0  0  0  0  0  0  0  0
    0.1180   -1.1987   -0.1381 C   0  0  0  0  0  0  0  0  0  0  0  0
    1.0731   -2.4142    0.0654 C   0  0  0  0  0  0  0  0  0  0  0  0
    0.5926   -3.5493   -0.0088 O   0  0  0  0  0  0  0  0  0  0  0  0
    2.5600   -2.2962    0.2951 N   0  0  0  0  0  0  0  0  0  0  0  0
    3.6539   -1.3924    0.6552 C   0  0  0  0  0  0  0  0  0  0  0  0
    4.8595   -1.6303    0.2547 N   0  0  0  0  0  0  0  0  0  0  0  0
    3.5530   -0.1613    1.2682 N   0  0  0  0  0  0  0  0  0  0  0  0
   -3.7762   -0.0772   -0.0264 S   0  0  0  0  0  0  0  0  0  0  0  0
   -4.0533   -0.7198   -1.2980 O   0  0  0  0  0  0  0  0  0  0  0  0
   -4.1349   -0.7133    1.2260 O   0  0  0  0  0  0  0  0  0  0  0  0
   -4.5894    1.4754   -0.0683 C   0  0  0  0  0  0  0  0  0  0  0  0
   -1.9325    2.9460    0.0638 S   0  0  0  0  0  0  0  0  0  0  0  0
   -2.5845    3.1346   -1.2365 O   0  0  0  0  0  0  0  0  0  0  0  0
   -2.5862    3.0927    1.3222 O   0  0  0  0  0  0  0  0  0  0  0  0
   -0.6776    4.1710    0.0564 C   0  0  0  0  0  0  0  0  0  0  0  0
    2.2364   -0.2419   -0.1270 H   0  0  0  0  0  0  0  0  0  0  0  0
    2.4281   -0.4722   -1.7592 H   0  0  0  0  0  0  0  0  0  0  0  0
    2.4476    1.1726   -0.9038 H   0  0  0  0  0  0  0  0  0  0  0  0
    0.6609    2.1154   -0.1683 H   0  0  0  0  0  0  0  0  0  0  0  0
   -1.8244   -2.1332    0.1087 H   0  0  0  0  0  0  0  0  0  0  0  0
    2.9433   -3.2097    0.0673 H   0  0  0  0  0  0  0  0  0  0  0  0
    4.9798   -2.5052   -0.2431 H   0  0  0  0  0  0  0  0  0  0  0  0
    2.6435    0.2080    1.5222 H   0  0  0  0  0  0  0  0  0  0  0  0
    4.0424    0.5297    0.6853 H   0  0  0  0  0  0  0  0  0  0  0  0
   -4.3610    2.0180    0.8401 H   0  0  0  0  0  0  0  0  0  0  0  0
   -4.3287    1.9814   -0.9909 H   0  0  0  0  0  0  0  0  0  0  0  0
   -5.6675    1.3564   -0.0863 H   0  0  0  0  0  0  0  0  0  0  0  0
   -0.0751    4.0937    0.9608 H   0  0  0  0  0  0  0  0  0  0  0  0
   -0.0843    4.1149   -0.8565 H   0  0  0  0  0  0  0  0  0  0  0  0
   -1.2124    5.1276    0.0621 H   0  0  0  0  0  0  0  0  0  0  0  0
  1  2  1  0  0  0  0
  1 22  1  0  0  0  0
  1 23  1  0  0  0  0
  1 24  1  0  0  0  0
  2  3  2  0  0  0  0
  2  7  1  0  0  0  0
  3  4  1  0  0  0  0
  3 25  1  0  0  0  0
  4  5  2  0  0  0  0
  4 18  1  0  0  0  0
  5  6  1  0  0  0  0
  5 14  1  0  0  0  0
  6  7  2  0  0  0  0
  6 26  1  0  0  0  0
  7  8  1  0  0  0  0
  8  9  2  0  0  0  0
  8 10  1  0  0  0  0
 10 11  1  0  0  0  0
 10 27  1  0  0  0  0
 11 12  2  0  0  0  0
 11 13  1  0  0  0  0
 12 28  1  0  0  0  0
 13 29  1  0  0  0  0
 13 30  1  0  0  0  0
 14 15  2  0  0  0  0
 14 16  2  0  0  0  0
 14 17  1  0  0  0  0
 17 31  1  0  0  0  0
 17 32  1  0  0  0  0
 17 33  1  0  0  0  0
 18 19  2  0  0  0  0
 18 20  2  0  0  0  0
 18 21  1  0  0  0  0
 21 34  1  0  0  0  0
 21 35  1  0  0  0  0
 21 36  1  0  0  0  0
M  END
>  <DRUGBANK_ID>
DB12861

>  <COMMON_NAME>
Rimeporide

>  <CAS_NUMBER>
187870-78-6

>  <UNII>
QH6B4V5743

>  <SYNONYMS>
Rimeporide

$$$$
