FXN
 OpenBabel10282417133D

 27 28  0  0  0  0  0  0  0  0999 V2000
    3.0772    0.4396    0.0016 F   0  0  0  0  0  0  0  0  0  0  0  0
    1.7944    0.0567    0.0067 C   0  0  0  0  0  0  0  0  0  0  0  0
    0.8171    1.0274    0.0044 C   0  0  0  0  0  0  0  0  0  0  0  0
    1.4628   -1.2949    0.0145 C   0  0  0  0  0  0  0  0  0  0  0  0
    0.1224   -1.7290    0.0106 C   0  0  0  0  0  0  0  0  0  0  0  0
   -0.8627   -0.7376   -0.0027 C   0  0  0  0  0  0  0  0  0  0  0  0
   -2.2470   -0.7858   -0.0194 N   0  0  0  0  0  0  0  0  0  0  0  0
   -0.5129    0.6010   -0.0020 C   0  0  0  0  0  0  0  0  0  0  0  0
   -1.6972    1.3337   -0.0099 C   0  0  0  0  0  0  0  0  0  0  0  0
   -2.7935    0.4983   -0.0054 C   0  0  0  0  0  0  0  0  0  0  0  0
   -4.2321    0.7361    0.0080 C   0  0  0  0  0  0  0  0  0  0  0  0
   -5.0382   -0.1886   -0.0096 O   0  0  0  0  0  0  0  0  0  0  0  0
   -4.7459    2.0178    0.0470 N   0  0  0  0  0  0  0  0  0  0  0  0
   -4.0873    3.3121    0.0840 C   0  0  0  0  0  0  0  0  0  0  0  0
   -4.2288    4.1275   -1.1907 C   0  0  0  0  0  0  0  0  0  0  0  0
   -5.8845    4.8505   -1.2811 S   0  0  0  0  0  0  0  0  0  0  0  0
    1.0647    2.0837    0.0070 H   0  0  0  0  0  0  0  0  0  0  0  0
    2.2710   -2.0177    0.0246 H   0  0  0  0  0  0  0  0  0  0  0  0
   -0.1243   -2.7840    0.0183 H   0  0  0  0  0  0  0  0  0  0  0  0
   -2.8031   -1.6323   -0.0366 H   0  0  0  0  0  0  0  0  0  0  0  0
   -1.5980    2.3978   -0.0144 H   0  0  0  0  0  0  0  0  0  0  0  0
   -5.7580    2.0228    0.0911 H   0  0  0  0  0  0  0  0  0  0  0  0
   -4.3746    3.8424    0.9956 H   0  0  0  0  0  0  0  0  0  0  0  0
   -3.0409    3.1927    0.2110 H   0  0  0  0  0  0  0  0  0  0  0  0
   -3.4871    4.9348   -1.1848 H   0  0  0  0  0  0  0  0  0  0  0  0
   -4.0349    3.5125   -2.0773 H   0  0  0  0  0  0  0  0  0  0  0  0
   -6.5488    3.6888   -1.2175 H   0  0  0  0  0  0  0  0  0  0  0  0
  1  2  1  0  0  0  0
  2  3  2  0  0  0  0
  2  4  1  0  0  0  0
  3  8  1  0  0  0  0
  3 17  1  0  0  0  0
  4  5  2  0  0  0  0
  4 18  1  0  0  0  0
  5  6  1  0  0  0  0
  5 19  1  0  0  0  0
  6  7  1  0  0  0  0
  6  8  2  0  0  0  0
  7 10  1  0  0  0  0
  7 20  1  0  0  0  0
  8  9  1  0  0  0  0
  9 10  2  0  0  0  0
  9 21  1  0  0  0  0
 10 11  1  0  0  0  0
 11 12  2  0  0  0  0
 11 13  1  0  0  0  0
 13 14  1  0  0  0  0
 13 22  1  0  0  0  0
 14 15  1  0  0  0  0
 14 23  1  0  0  0  0
 14 24  1  0  0  0  0
 15 16  1  0  0  0  0
 15 25  1  0  0  0  0
 15 26  1  0  0  0  0
 16 27  1  0  0  0  0
M  END
>  <DRUGBANK_ID>
DB03384

>  <SECONDARY_ACCESSION_NUMBERS>
EXPT01514

>  <COMMON_NAME>
Fica

$$$$
