1060
 OpenBabel10282417113D

 44 46  0  0  1  0  0  0  0  0999 V2000
   -2.2021   -6.1366    4.3786 S   0  0  0  0  0  0  0  0  0  0  0  0
   -2.2843   -1.7877    4.7354 O   0  0  0  0  0  0  0  0  0  0  0  0
   -3.9520   -2.6906    7.8401 O   0  0  0  0  0  0  0  0  0  0  0  0
   -5.1198   -4.5606    7.5593 O   0  0  0  0  0  0  0  0  0  0  0  0
   -0.0481   -4.2327    0.4797 O   0  0  0  0  0  0  0  0  0  0  0  0
   -6.9480   -2.1762    2.7715 O   0  0  0  0  0  0  0  0  0  0  0  0
   -3.4284   -3.8385    4.8993 N   0  0  0  0  0  0  0  0  0  0  0  0
   -1.2625   -3.8703    2.3012 N   0  0  0  0  0  0  0  0  0  0  0  0
   -2.1373   -3.4836   -1.3279 N   0  0  0  0  0  0  0  0  0  0  0  0
   -3.2058   -4.7979    3.7855 C   0  0  1  0  0  0  0  0  0  0  0  0
   -2.8953   -5.8531    6.0593 C   0  0  0  0  0  0  0  0  0  0  0  0
   -3.0760   -4.3149    6.2204 C   0  0  2  0  0  0  0  0  0  0  0  0
   -2.4829   -3.7140    3.0805 C   0  0  1  0  0  0  0  0  0  0  0  0
   -2.6616   -2.8690    4.3157 C   0  0  0  0  0  0  0  0  0  0  0  0
   -1.8333   -6.4123    6.9771 C   0  0  0  0  0  0  0  0  0  0  0  0
   -4.1999   -6.6566    6.0919 C   0  0  0  0  0  0  0  0  0  0  0  0
   -4.1339   -3.9004    7.2636 C   0  0  0  0  0  0  0  0  0  0  0  0
   -1.1877   -4.0666    0.9358 C   0  0  0  0  0  0  0  0  0  0  0  0
   -2.4721   -4.1070   -0.0360 C   0  0  1  0  0  0  0  0  0  0  0  0
   -3.7788   -3.4497    0.4191 C   0  0  0  0  0  0  0  0  0  0  0  0
   -4.9792   -4.1856    0.4113 C   0  0  0  0  0  0  0  0  0  0  0  0
   -3.7630   -2.1656    1.0242 C   0  0  0  0  0  0  0  0  0  0  0  0
   -6.0890   -3.7239    1.1305 C   0  0  0  0  0  0  0  0  0  0  0  0
   -4.8133   -1.8092    1.8804 C   0  0  0  0  0  0  0  0  0  0  0  0
   -5.9699   -2.5771    1.9130 C   0  0  0  0  0  0  0  0  0  0  0  0
   -4.1526   -5.0895    3.3086 H   0  0  0  0  0  0  0  0  0  0  0  0
   -3.2494   -2.1194    7.4767 H   0  0  0  0  0  0  0  0  0  0  0  0
   -7.7656   -2.6629    2.5800 H   0  0  0  0  0  0  0  0  0  0  0  0
   -0.3509   -3.7782    2.7430 H   0  0  0  0  0  0  0  0  0  0  0  0
   -1.4341   -2.7653   -1.1615 H   0  0  0  0  0  0  0  0  0  0  0  0
   -2.9650   -2.9844   -1.6579 H   0  0  0  0  0  0  0  0  0  0  0  0
   -2.1195   -3.8489    6.4981 H   0  0  0  0  0  0  0  0  0  0  0  0
   -3.2489   -3.4911    2.4233 H   0  0  0  0  0  0  0  0  0  0  0  0
   -2.1442   -6.3077    8.0156 H   0  0  0  0  0  0  0  0  0  0  0  0
   -1.6596   -7.4744    6.7686 H   0  0  0  0  0  0  0  0  0  0  0  0
   -0.8785   -5.8853    6.8473 H   0  0  0  0  0  0  0  0  0  0  0  0
   -4.0623   -7.6956    5.7792 H   0  0  0  0  0  0  0  0  0  0  0  0
   -4.5922   -6.7041    7.1089 H   0  0  0  0  0  0  0  0  0  0  0  0
   -4.9738   -6.2128    5.4485 H   0  0  0  0  0  0  0  0  0  0  0  0
   -2.6441   -5.1798   -0.2123 H   0  0  0  0  0  0  0  0  0  0  0  0
   -5.0344   -5.1479   -0.0984 H   0  0  0  0  0  0  0  0  0  0  0  0
   -2.8098   -1.6440    1.1458 H   0  0  0  0  0  0  0  0  0  0  0  0
   -7.0074   -4.3035    1.1204 H   0  0  0  0  0  0  0  0  0  0  0  0
   -4.6653   -1.0306    2.6295 H   0  0  0  0  0  0  0  0  0  0  0  0
  1 10  1  0  0  0  0
  1 11  1  0  0  0  0
  2 14  2  0  0  0  0
  3 17  1  0  0  0  0
  3 27  1  0  0  0  0
  4 17  2  0  0  0  0
  5 18  2  0  0  0  0
  6 25  1  0  0  0  0
  6 28  1  0  0  0  0
  7 10  1  0  0  0  0
  7 12  1  0  0  0  0
  7 14  1  0  0  0  0
  8 18  1  0  0  0  0
  8 29  1  0  0  0  0
  9 30  1  0  0  0  0
  9 31  1  0  0  0  0
 10 13  1  0  0  0  0
 10 26  1  6  0  0  0
 11 12  1  0  0  0  0
 11 15  1  0  0  0  0
 11 16  1  0  0  0  0
 12 32  1  1  0  0  0
 12 17  1  0  0  0  0
 13 14  1  0  0  0  0
 13 33  1  6  0  0  0
 13  8  1  0  0  0  0
 15 34  1  0  0  0  0
 15 35  1  0  0  0  0
 15 36  1  0  0  0  0
 16 37  1  0  0  0  0
 16 38  1  0  0  0  0
 16 39  1  0  0  0  0
 19 20  1  0  0  0  0
 19 40  1  6  0  0  0
 19 18  1  0  0  0  0
 19  9  1  0  0  0  0
 20 21  2  0  0  0  0
 20 22  1  0  0  0  0
 21 23  1  0  0  0  0
 21 41  1  0  0  0  0
 22 24  2  0  0  0  0
 22 42  1  0  0  0  0
 23 25  2  0  0  0  0
 23 43  1  0  0  0  0
 24 25  1  0  0  0  0
 24 44  1  0  0  0  0
M  END
>  <DRUGBANK_ID>
DB01060

>  <SECONDARY_ACCESSION_NUMBERS>
APRD00248

>  <COMMON_NAME>
Amoxicillin

>  <CAS_NUMBER>
26787-78-0

>  <UNII>
9EM05410Q9

>  <SYNONYMS>
(2S,5R,6R)-6-{[(2R)-2-amino-2-(4-hydroxyphenyl)acetyl]amino}-3,3-dimethyl-7-oxo-4-thia-1-azabicyclo[3.2.0]heptane-2-carboxylic acid; 6-(p-hydroxy-α-aminophenylacetamido)penicillanic acid; Amox; Amoxicilina; Amoxicillin; Amoxicillin (anhydrous); Amoxicillin anhydrous; Amoxicilline; Amoxicillinum; Amoxycillin; AX; p-Hydroxyampicillin; α-amino-p-hydroxybenzylpenicillin

$$$$
