
 OpenBabel10282417223D

 56 57  0  0  1  0  0  0  0  0999 V2000
   -6.8108    1.8532   -3.2534 C   0  0  0  0  0  0  0  0  0  0  0  0
   -6.8354    0.3469   -3.2741 C   0  0  0  0  0  0  0  0  0  0  0  0
   -6.5426   -0.0315   -4.7092 C   0  0  0  0  0  0  0  0  0  0  0  0
   -5.8471   -0.4902   -2.4570 C   0  0  0  0  0  0  0  0  0  0  0  0
   -6.1978   -1.4853   -1.8310 O   0  0  0  0  0  0  0  0  0  0  0  0
   -4.5605   -0.0515   -2.4710 O   0  0  0  0  0  0  0  0  0  0  0  0
   -3.6106   -0.6476   -1.5361 C   0  0  0  0  0  0  0  0  0  0  0  0
   -3.6950   -0.0933   -0.0598 C   0  0  1  0  0  0  0  0  0  0  0  0
   -3.0197    1.2024    0.0120 O   0  0  0  0  0  0  0  0  0  0  0  0
   -3.9963    2.2910   -0.1088 C   0  0  2  0  0  0  0  0  0  0  0  0
   -5.2432    1.7251    0.6347 C   0  0  1  0  0  0  0  0  0  0  0  0
   -6.6382    2.2401    0.3262 C   0  0  0  0  0  0  0  0  0  0  0  0
   -5.1487    0.2328    0.3657 C   0  0  2  0  0  0  0  0  0  0  0  0
   -5.7428   -0.6401    1.3336 O   0  0  0  0  0  0  0  0  0  0  0  0
   -5.1895   -0.6192    2.5686 C   0  0  0  0  0  0  0  0  0  0  0  0
   -4.2963    0.1380    2.9266 O   0  0  0  0  0  0  0  0  0  0  0  0
   -5.8179   -1.6285    3.4867 C   0  0  0  0  0  0  0  0  0  0  0  0
   -7.2967   -1.3268    3.6621 C   0  0  0  0  0  0  0  0  0  0  0  0
   -5.5905   -3.0623    3.0313 C   0  0  0  0  0  0  0  0  0  0  0  0
   -4.0163    2.7725   -1.5342 N   0  0  0  0  0  0  0  0  0  0  0  0
   -3.1647    2.2206   -2.4827 C   0  0  0  0  0  0  0  0  0  0  0  0
   -3.4093    2.3337   -3.7882 C   0  0  0  0  0  0  0  0  0  0  0  0
   -4.2885    3.4485   -4.1691 C   0  0  0  0  0  0  0  0  0  0  0  0
   -4.5236    3.6746   -5.4929 N   0  0  0  0  0  0  0  0  0  0  0  0
   -4.8861    4.1863   -3.2812 N   0  0  0  0  0  0  0  0  0  0  0  0
   -4.8438    3.8340   -1.9364 C   0  0  0  0  0  0  0  0  0  0  0  0
   -5.5777    4.4011   -1.1336 O   0  0  0  0  0  0  0  0  0  0  0  0
   -3.1623   -1.1554    0.8244 N   0  0  0  0  0  0  0  0  0  0  0  0
   -2.0075   -1.5999    0.6649 N   0  3  0  0  0  0  0  0  0  0  0  0
   -0.9891   -2.0690    0.5342 N   0  5  0  0  0  0  0  0  0  0  0  0
   -5.7931    2.0732   -3.4466 H   0  0  0  0  0  0  0  0  0  0  0  0
   -7.0993    2.3747   -2.3579 H   0  0  0  0  0  0  0  0  0  0  0  0
   -7.4076    2.3400   -4.0308 H   0  0  0  0  0  0  0  0  0  0  0  0
   -7.8380    0.0607   -2.9476 H   0  0  0  0  0  0  0  0  0  0  0  0
   -5.5228    0.2745   -4.9837 H   0  0  0  0  0  0  0  0  0  0  0  0
   -6.6155   -1.1107   -4.8266 H   0  0  0  0  0  0  0  0  0  0  0  0
   -7.2354    0.4737   -5.3850 H   0  0  0  0  0  0  0  0  0  0  0  0
   -3.6728   -1.7392   -1.5913 H   0  0  0  0  0  0  0  0  0  0  0  0
   -2.5977   -0.4255   -1.9092 H   0  0  0  0  0  0  0  0  0  0  0  0
   -3.6414    3.1483    0.4729 H   0  0  0  0  0  0  0  0  0  0  0  0
   -5.1314    1.8975    1.7077 H   0  0  0  0  0  0  0  0  0  0  0  0
   -7.4462    1.6794    0.8102 H   0  0  0  0  0  0  0  0  0  0  0  0
   -6.7593    3.2945    0.5701 H   0  0  0  0  0  0  0  0  0  0  0  0
   -6.8213    2.0907   -0.7152 H   0  0  0  0  0  0  0  0  0  0  0  0
   -5.8256    0.1300   -0.4513 H   0  0  0  0  0  0  0  0  0  0  0  0
   -5.3133   -1.4900    4.4496 H   0  0  0  0  0  0  0  0  0  0  0  0
   -7.8527   -1.4852    2.7312 H   0  0  0  0  0  0  0  0  0  0  0  0
   -7.7244   -1.9765    4.4306 H   0  0  0  0  0  0  0  0  0  0  0  0
   -7.4460   -0.2851    3.9646 H   0  0  0  0  0  0  0  0  0  0  0  0
   -4.5244   -3.2721    2.8968 H   0  0  0  0  0  0  0  0  0  0  0  0
   -5.9805   -3.7566    3.7837 H   0  0  0  0  0  0  0  0  0  0  0  0
   -6.0952   -3.2750    2.0826 H   0  0  0  0  0  0  0  0  0  0  0  0
   -2.4057    1.5332   -2.1462 H   0  0  0  0  0  0  0  0  0  0  0  0
   -3.0591    1.6196   -4.5231 H   0  0  0  0  0  0  0  0  0  0  0  0
   -4.0685    3.1561   -6.2319 H   0  0  0  0  0  0  0  0  0  0  0  0
   -5.1067    4.4606   -5.7500 H   0  0  0  0  0  0  0  0  0  0  0  0
  1  2  1  0  0  0  0
  1 31  1  0  0  0  0
  1 32  1  0  0  0  0
  1 33  1  0  0  0  0
  2  3  1  0  0  0  0
  2  4  1  0  0  0  0
  2 34  1  0  0  0  0
  3 35  1  0  0  0  0
  3 36  1  0  0  0  0
  3 37  1  0  0  0  0
  4  5  2  0  0  0  0
  4  6  1  0  0  0  0
  6  7  1  0  0  0  0
  7 38  1  0  0  0  0
  7 39  1  0  0  0  0
  8  9  1  0  0  0  0
  8 28  1  1  0  0  0
  8  7  1  0  0  0  0
 10  9  1  0  0  0  0
 10 20  1  0  0  0  0
 10 40  1  1  0  0  0
 11 10  1  0  0  0  0
 11 12  1  0  0  0  0
 11 13  1  0  0  0  0
 11 41  1  1  0  0  0
 12 42  1  0  0  0  0
 12 43  1  0  0  0  0
 12 44  1  0  0  0  0
 13  8  1  0  0  0  0
 13 14  1  0  0  0  0
 13 45  1  6  0  0  0
 14 15  1  0  0  0  0
 15 16  2  0  0  0  0
 15 17  1  0  0  0  0
 17 18  1  0  0  0  0
 17 19  1  0  0  0  0
 17 46  1  0  0  0  0
 18 47  1  0  0  0  0
 18 48  1  0  0  0  0
 18 49  1  0  0  0  0
 19 50  1  0  0  0  0
 19 51  1  0  0  0  0
 19 52  1  0  0  0  0
 20 21  1  0  0  0  0
 20 26  1  0  0  0  0
 21 22  2  0  0  0  0
 21 53  1  0  0  0  0
 22 23  1  0  0  0  0
 22 54  1  0  0  0  0
 23 24  1  0  0  0  0
 23 25  2  0  0  0  0
 24 55  1  0  0  0  0
 24 56  1  0  0  0  0
 25 26  1  0  0  0  0
 26 27  2  0  0  0  0
 28 29  2  0  0  0  0
 29 30  2  0  0  0  0
M  CHG  2  29   1  30  -1
M  END
>  <DRUGBANK_ID>
DB15152

>  <COMMON_NAME>
TMC-649128

>  <CAS_NUMBER>
1019639-33-8

>  <UNII>
9GE48QZN6X

$$$$
