C6L
 OpenBabel10282417163D

 34 33  0  0  0  0  0  0  0  0999 V2000
    4.8333   -2.4514    0.2284 O   0  0  0  0  0  0  0  0  0  0  0  0
    4.0224   -3.3731    0.2315 C   0  0  0  0  0  0  0  0  0  0  0  0
    4.4006   -4.7500   -0.3013 C   0  0  0  0  0  0  0  0  0  0  0  0
    4.3329   -5.8598    0.7528 C   0  0  0  0  0  0  0  0  0  0  0  0
    2.9154   -6.1504    1.2566 C   0  0  0  0  0  0  0  0  0  0  0  0
    1.9433   -6.4602    0.1109 C   0  0  0  0  0  0  0  0  0  0  0  0
    2.3277   -7.7635   -0.5668 C   0  0  0  0  0  0  0  0  0  0  0  0
    2.7250   -3.2116    0.6804 N   0  0  0  0  0  0  0  0  0  0  0  0
    2.3114   -2.0181    1.4207 C   0  0  2  0  0  0  0  0  0  0  0  0
    2.7598   -2.0996    2.9072 C   0  0  0  0  0  0  0  0  0  0  0  0
    3.9307   -2.2565    3.2472 O   0  0  0  0  0  0  0  0  0  0  0  0
    1.8109   -2.0183    3.8659 O   0  0  0  0  0  0  0  0  0  0  0  0
    0.8121   -1.7544    1.2305 C   0  0  0  0  0  0  0  0  0  0  0  0
    0.4062   -0.3678    1.7349 C   0  0  0  0  0  0  0  0  0  0  0  0
    1.0914    0.6430    1.0197 O   0  0  0  0  0  0  0  0  0  0  0  0
    2.8701   -1.1894    0.9767 H   0  0  0  0  0  0  0  0  0  0  0  0
    3.8040   -4.9783   -1.1906 H   0  0  0  0  0  0  0  0  0  0  0  0
    5.4353   -4.6926   -0.6643 H   0  0  0  0  0  0  0  0  0  0  0  0
    4.7571   -6.7798    0.3294 H   0  0  0  0  0  0  0  0  0  0  0  0
    4.9771   -5.6067    1.6024 H   0  0  0  0  0  0  0  0  0  0  0  0
    2.9327   -6.9859    1.9642 H   0  0  0  0  0  0  0  0  0  0  0  0
    2.5582   -5.3116    1.8608 H   0  0  0  0  0  0  0  0  0  0  0  0
    0.9218   -6.5202    0.4993 H   0  0  0  0  0  0  0  0  0  0  0  0
    1.9202   -5.6645   -0.6426 H   0  0  0  0  0  0  0  0  0  0  0  0
    2.3119   -8.5778    0.1627 H   0  0  0  0  0  0  0  0  0  0  0  0
    1.6376   -7.9967   -1.3796 H   0  0  0  0  0  0  0  0  0  0  0  0
    3.3323   -7.7125   -0.9989 H   0  0  0  0  0  0  0  0  0  0  0  0
    2.0593   -3.9618    0.5910 H   0  0  0  0  0  0  0  0  0  0  0  0
    0.8687   -1.9779    3.6314 H   0  0  0  0  0  0  0  0  0  0  0  0
    0.5718   -1.8165    0.1605 H   0  0  0  0  0  0  0  0  0  0  0  0
    0.2164   -2.5361    1.7209 H   0  0  0  0  0  0  0  0  0  0  0  0
   -0.6689   -0.2241    1.5952 H   0  0  0  0  0  0  0  0  0  0  0  0
    0.6033   -0.2132    2.7981 H   0  0  0  0  0  0  0  0  0  0  0  0
    2.0359    0.6273    1.2601 H   0  0  0  0  0  0  0  0  0  0  0  0
  2  1  2  0  0  0  0
  2  3  1  0  0  0  0
  3 17  1  0  0  0  0
  3 18  1  0  0  0  0
  4  3  1  0  0  0  0
  4 19  1  0  0  0  0
  4 20  1  0  0  0  0
  5  4  1  0  0  0  0
  5  6  1  0  0  0  0
  5 21  1  0  0  0  0
  5 22  1  0  0  0  0
  6  7  1  0  0  0  0
  6 23  1  0  0  0  0
  6 24  1  0  0  0  0
  7 25  1  0  0  0  0
  7 26  1  0  0  0  0
  7 27  1  0  0  0  0
  8  2  1  0  0  0  0
  8 28  1  0  0  0  0
  9 16  1  6  0  0  0
  9  8  1  0  0  0  0
 10  9  1  0  0  0  0
 10 12  1  0  0  0  0
 11 10  2  0  0  0  0
 12 29  1  0  0  0  0
 13  9  1  0  0  0  0
 13 30  1  0  0  0  0
 13 31  1  0  0  0  0
 14 13  1  0  0  0  0
 14 32  1  0  0  0  0
 14 33  1  0  0  0  0
 15 14  1  0  0  0  0
 15 34  1  0  0  0  0
M  END
>  <DRUGBANK_ID>
DB07532

>  <COMMON_NAME>
N-hexanoyl-L-homoserine

$$$$
