
 OpenBabel10282417133D

 27 26  0  0  0  0  0  0  0  0999 V2000
    1.0519   -0.0570   -0.1560 C   0  0  0  0  0  0  0  0  0  0  0  0
    0.5952   -1.4712    0.1659 C   0  0  0  0  0  0  0  0  0  0  0  0
    1.0836   -1.8961    1.5521 C   0  0  0  0  0  0  0  0  0  0  0  0
    0.5385   -0.9810    2.6558 C   0  0  0  0  0  0  0  0  0  0  0  0
   -0.9953   -0.9861    2.6968 C   0  0  0  0  0  0  0  0  0  0  0  0
   -1.5540   -2.3819    3.0013 C   0  0  0  0  0  0  0  0  0  0  0  0
   -1.0665   -2.9008    4.3510 C   0  0  0  0  0  0  0  0  0  0  0  0
   -1.5018   -2.0309    5.4188 N   0  0  0  0  0  0  0  0  0  0  0  0
   -2.3148   -2.4191    6.4330 C   0  0  0  0  0  0  0  0  0  0  0  0
   -2.7190   -1.6431    7.2919 O   0  0  0  0  0  0  0  0  0  0  0  0
    0.6609    0.6733    0.5595 H   0  0  0  0  0  0  0  0  0  0  0  0
    0.7003    0.2489   -1.1423 H   0  0  0  0  0  0  0  0  0  0  0  0
    2.1443   -0.0027   -0.1297 H   0  0  0  0  0  0  0  0  0  0  0  0
   -0.4973   -1.5306    0.0997 H   0  0  0  0  0  0  0  0  0  0  0  0
    0.9749   -2.1685   -0.5872 H   0  0  0  0  0  0  0  0  0  0  0  0
    0.7948   -2.9377    1.7368 H   0  0  0  0  0  0  0  0  0  0  0  0
    2.1788   -1.8892    1.5803 H   0  0  0  0  0  0  0  0  0  0  0  0
    0.9598   -1.2813    3.6203 H   0  0  0  0  0  0  0  0  0  0  0  0
    0.8955    0.0449    2.5231 H   0  0  0  0  0  0  0  0  0  0  0  0
   -1.3416   -0.2616    3.4413 H   0  0  0  0  0  0  0  0  0  0  0  0
   -1.4141   -0.6262    1.7506 H   0  0  0  0  0  0  0  0  0  0  0  0
   -2.6488   -2.3461    2.9800 H   0  0  0  0  0  0  0  0  0  0  0  0
   -1.2652   -3.0900    2.2156 H   0  0  0  0  0  0  0  0  0  0  0  0
   -1.4319   -3.9172    4.5188 H   0  0  0  0  0  0  0  0  0  0  0  0
    0.0254   -2.9493    4.3987 H   0  0  0  0  0  0  0  0  0  0  0  0
   -1.2488   -1.0487    5.4184 H   0  0  0  0  0  0  0  0  0  0  0  0
   -2.5689   -3.4884    6.4185 H   0  0  0  0  0  0  0  0  0  0  0  0
  1  2  1  0  0  0  0
  1 11  1  0  0  0  0
  1 12  1  0  0  0  0
  1 13  1  0  0  0  0
  2  3  1  0  0  0  0
  2 14  1  0  0  0  0
  2 15  1  0  0  0  0
  3  4  1  0  0  0  0
  3 16  1  0  0  0  0
  3 17  1  0  0  0  0
  4  5  1  0  0  0  0
  4 18  1  0  0  0  0
  4 19  1  0  0  0  0
  5  6  1  0  0  0  0
  5 20  1  0  0  0  0
  5 21  1  0  0  0  0
  6  7  1  0  0  0  0
  6 22  1  0  0  0  0
  6 23  1  0  0  0  0
  7  8  1  0  0  0  0
  7 24  1  0  0  0  0
  7 25  1  0  0  0  0
  8  9  1  0  0  0  0
  8 26  1  0  0  0  0
  9 10  2  0  0  0  0
  9 27  1  0  0  0  0
M  END
>  <DRUGBANK_ID>
DB04105

>  <SECONDARY_ACCESSION_NUMBERS>
EXPT01771

>  <COMMON_NAME>
N-Heptylformamide

>  <UNII>
E80SN819M5

$$$$
