
 OpenBabel10282417123D

 24 25  0  0  0  0  0  0  0  0999 V2000
    1.0740    0.0193    0.0645 N   0  0  0  0  0  0  0  0  0  0  0  0
    0.3390   -1.2515    0.1408 C   0  0  0  0  0  0  0  0  0  0  0  0
   -0.6768   -1.4612   -0.6475 C   0  0  0  0  0  0  0  0  0  0  0  0
   -1.3795   -2.6331   -0.5898 C   0  0  0  0  0  0  0  0  0  0  0  0
   -2.3001   -2.9926   -1.5680 C   0  0  0  0  0  0  0  0  0  0  0  0
   -2.5538   -2.1162   -2.7206 N   0  0  0  0  0  0  0  0  0  0  0  0
   -2.9450   -4.1465   -1.4366 N   0  0  0  0  0  0  0  0  0  0  0  0
   -2.7283   -4.9427   -0.4092 C   0  0  0  0  0  0  0  0  0  0  0  0
   -3.4750   -6.2057   -0.3194 N   0  0  0  0  0  0  0  0  0  0  0  0
   -1.8617   -4.6436    0.5436 N   0  0  0  0  0  0  0  0  0  0  0  0
   -1.1770   -3.5167    0.4892 C   0  0  0  0  0  0  0  0  0  0  0  0
   -0.2495   -3.1520    1.4585 C   0  0  0  0  0  0  0  0  0  0  0  0
    0.7269   -2.2146    1.0439 C   0  0  0  0  0  0  0  0  0  0  0  0
   -1.1563   -0.2062   -1.8151 Cl  0  0  0  0  0  0  0  0  0  0  0  0
   -2.3271   -0.4380   -2.7296 O   0  0  0  0  0  0  0  0  0  0  0  0
   -0.3905    1.0858   -1.8869 O   0  0  0  0  0  0  0  0  0  0  0  0
    0.5640    0.9011    0.0115 H   0  0  0  0  0  0  0  0  0  0  0  0
    2.0940    0.0193    0.0645 H   0  0  0  0  0  0  0  0  0  0  0  0
   -2.0519   -1.2327   -2.8097 H   0  0  0  0  0  0  0  0  0  0  0  0
   -3.2316   -2.3916   -3.4313 H   0  0  0  0  0  0  0  0  0  0  0  0
   -3.3204   -6.8346    0.4687 H   0  0  0  0  0  0  0  0  0  0  0  0
   -4.1477   -6.4532   -1.0451 H   0  0  0  0  0  0  0  0  0  0  0  0
   -0.2722   -3.5526    2.4504 H   0  0  0  0  0  0  0  0  0  0  0  0
    1.7284   -2.2535    1.4185 H   0  0  0  0  0  0  0  0  0  0  0  0
  1  2  1  0  0  0  0
  1 17  1  0  0  0  0
  1 18  1  0  0  0  0
  2  3  2  0  0  0  0
  2 13  1  0  0  0  0
  3  4  1  0  0  0  0
  3 14  1  0  0  0  0
  4  5  2  0  0  0  0
  4 11  1  0  0  0  0
  5  6  1  0  0  0  0
  5  7  1  0  0  0  0
  6 19  1  0  0  0  0
  6 20  1  0  0  0  0
  7  8  2  0  0  0  0
  8  9  1  0  0  0  0
  8 10  1  0  0  0  0
  9 21  1  0  0  0  0
  9 22  1  0  0  0  0
 10 11  2  0  0  0  0
 11 12  1  0  0  0  0
 12 13  2  0  0  0  0
 12 23  1  0  0  0  0
 13 24  1  0  0  0  0
 14 15  2  0  0  0  0
 14 16  2  0  0  0  0
M  END
>  <DRUGBANK_ID>
DB01929

>  <SECONDARY_ACCESSION_NUMBERS>
EXPT00950

>  <COMMON_NAME>
5-Chloryl-2,4,6-quinazolinetriamine

$$$$
