
 OpenBabel10282417133D

 38 40  0  0  0  0  0  0  0  0999 V2000
    1.1912   -0.1412    0.1628 O   0  0  0  0  0  0  0  0  0  0  0  0
   -3.0100   -1.2025   -1.7028 O   0  0  0  0  0  0  0  0  0  0  0  0
   -2.7215   -1.1327    4.1952 O   0  0  0  0  0  0  0  0  0  0  0  0
   -0.6846   -2.9822    0.8835 N   0  3  3  0  0  0  0  0  0  0  0  0
   -4.1304   -3.1324    2.0567 N   0  0  0  0  0  0  0  0  0  0  0  0
   -5.0616   -3.6432    5.4133 N   0  0  0  0  0  0  0  0  0  0  0  0
   -4.4888   -1.4415    5.5317 N   0  0  0  0  0  0  0  0  0  0  0  0
   -0.8901   -0.9599   -0.5658 C   0  0  1  0  0  0  0  0  0  0  0  0
   -1.3536   -1.6163    0.7168 C   0  0  0  0  0  0  0  0  0  0  0  0
    0.7855   -2.6006    0.1985 C   0  0  0  0  0  0  0  0  0  0  0  0
    0.5965   -1.2204   -0.5671 C   0  0  2  0  0  0  0  0  0  0  0  0
   -0.9548   -3.7994    2.5530 C   0  0  0  0  0  0  0  0  0  0  0  0
   -2.5325   -3.9902    3.5035 C   0  0  0  0  0  0  0  0  0  0  0  0
   -4.3136   -3.7999    4.0849 C   0  0  3  0  0  0  0  0  0  0  0  0
   -1.6226   -1.4977   -1.7875 C   0  0  0  0  0  0  0  0  0  0  0  0
   -4.6682   -2.5543    3.2982 C   0  0  3  0  0  0  0  0  0  0  0  0
   -2.8582   -3.3137    2.3963 C   0  0  0  0  0  0  0  0  0  0  0  0
   -3.8591   -1.5768    4.3176 C   0  0  0  0  0  0  0  0  0  0  0  0
   -5.2615   -2.4545    5.9386 C   0  0  0  0  0  0  0  0  0  0  0  0
   -1.0916   -3.6511    0.2123 H   0  0  0  0  0  0  0  0  0  0  0  0
   -4.4416   -4.1400    1.9943 H   0  0  0  0  0  0  0  0  0  0  0  0
   -3.9234   -1.0458    6.2934 H   0  0  0  0  0  0  0  0  0  0  0  0
    2.1381   -0.0601   -0.0626 H   0  0  0  0  0  0  0  0  0  0  0  0
   -3.4430   -1.6994   -0.9875 H   0  0  0  0  0  0  0  0  0  0  0  0
   -1.1173    0.1139   -0.4887 H   0  0  0  0  0  0  0  0  0  0  0  0
   -1.0566   -1.0312    1.5890 H   0  0  0  0  0  0  0  0  0  0  0  0
   -2.4232   -1.7678    0.6510 H   0  0  0  0  0  0  0  0  0  0  0  0
    1.0311   -3.3614   -0.5581 H   0  0  0  0  0  0  0  0  0  0  0  0
    1.5523   -2.5123    0.9700 H   0  0  0  0  0  0  0  0  0  0  0  0
    1.0087   -1.1919   -1.5897 H   0  0  0  0  0  0  0  0  0  0  0  0
   -0.5792   -4.8075    2.3100 H   0  0  0  0  0  0  0  0  0  0  0  0
   -0.2379   -3.2356    3.1438 H   0  0  0  0  0  0  0  0  0  0  0  0
   -4.9308   -4.6343    3.6790 H   0  0  0  0  0  0  0  0  0  0  0  0
   -1.2533   -1.0054   -2.6937 H   0  0  0  0  0  0  0  0  0  0  0  0
   -1.4881   -2.5756   -1.9073 H   0  0  0  0  0  0  0  0  0  0  0  0
   -5.6503   -2.1474    3.0665 H   0  0  0  0  0  0  0  0  0  0  0  0
   -2.4225   -2.3149    2.4411 H   0  0  0  0  0  0  0  0  0  0  0  0
   -5.9601   -2.1722    6.7611 H   0  0  0  0  0  0  0  0  0  0  0  0
  1 23  1  0  0  0  0
  2 15  1  0  0  0  0
  2 24  1  0  0  0  0
  3 18  2  0  0  0  0
  4  9  1  0  0  0  0
  4 10  1  0  0  0  0
  4 12  1  0  0  0  0
  4 20  1  0  0  0  0
  5 16  1  0  0  0  0
  5 17  1  0  0  0  0
  5 21  1  0  0  0  0
  6 14  1  0  0  0  0
  6 19  2  0  0  0  0
  7 18  1  0  0  0  0
  7 19  1  0  0  0  0
  7 22  1  0  0  0  0
  8  9  1  0  0  0  0
  8 11  1  0  0  0  0
  8 15  1  0  0  0  0
  8 25  1  1  0  0  0
  9 26  1  0  0  0  0
  9 27  1  0  0  0  0
 10 11  1  0  0  0  0
 10 28  1  0  0  0  0
 10 29  1  0  0  0  0
 11  1  1  0  0  0  0
 11 30  1  6  0  0  0
 12 13  1  0  0  0  0
 12 31  1  0  0  0  0
 12 32  1  0  0  0  0
 13 14  1  0  0  0  0
 13 17  2  0  0  0  0
 14 16  1  0  0  0  0
 14 33  1  0  0  0  0
 15 34  1  0  0  0  0
 15 35  1  0  0  0  0
 16 18  1  0  0  0  0
 16 36  1  0  0  0  0
 17 37  1  0  0  0  0
 19 38  1  0  0  0  0
M  CHG  1   4   1
M  END
>  <DRUGBANK_ID>
DB03551

>  <SECONDARY_ACCESSION_NUMBERS>
EXPT01206

>  <COMMON_NAME>
(3R,4R)-3-Hydroxy-4-(hydroxymethyl)-1-[(4-oxo-4,4a,5,7a-tetrahydro-3H-pyrrolo[3,2-d]pyrimidin-7-yl)methyl]pyrrolidinium

$$$$
