583
 OpenBabel10282417103D

 26 25  0  0  1  0  0  0  0  0999 V2000
    0.9422   -0.0637   -0.0338 O   0  0  0  0  0  0  0  0  0  0  0  0
   -0.3179    3.7743   -1.1838 O   0  5  0  0  0  0  0  0  0  0  0  0
    0.8050    1.9211   -1.9690 O   0  0  0  0  0  0  0  0  0  0  0  0
    2.6825    0.6724    2.2985 N   0  3  0  0  0  0  0  0  0  0  0  0
    1.1083    0.7263    2.2123 C   0  0  0  0  0  0  0  0  0  0  0  0
    0.5122    1.0077    0.8098 C   0  0  1  0  0  0  0  0  0  0  0  0
    3.3369    2.0047    1.9891 C   0  0  0  0  0  0  0  0  0  0  0  0
    3.0707    0.3153    3.7186 C   0  0  0  0  0  0  0  0  0  0  0  0
    3.2483   -0.3981    1.3680 C   0  0  0  0  0  0  0  0  0  0  0  0
    0.8598    2.3912    0.2858 C   0  0  0  0  0  0  0  0  0  0  0  0
    0.3571    2.7083   -1.0989 C   0  0  0  0  0  0  0  0  0  0  0  0
    1.2828    0.3517   -0.8623 H   0  0  0  0  0  0  0  0  0  0  0  0
    0.7714    1.4676    2.9463 H   0  0  0  0  0  0  0  0  0  0  0  0
    0.7723   -0.2658    2.5466 H   0  0  0  0  0  0  0  0  0  0  0  0
   -0.5810    0.9338    0.8831 H   0  0  0  0  0  0  0  0  0  0  0  0
    2.7956    2.7924    2.5210 H   0  0  0  0  0  0  0  0  0  0  0  0
    4.3819    1.9666    2.3023 H   0  0  0  0  0  0  0  0  0  0  0  0
    3.3816    2.1553    0.9179 H   0  0  0  0  0  0  0  0  0  0  0  0
    2.6627   -0.6679    3.9630 H   0  0  0  0  0  0  0  0  0  0  0  0
    4.1644    0.2941    3.7728 H   0  0  0  0  0  0  0  0  0  0  0  0
    2.6779    1.0862    4.3874 H   0  0  0  0  0  0  0  0  0  0  0  0
    2.7537   -1.3496    1.5860 H   0  0  0  0  0  0  0  0  0  0  0  0
    3.1251   -0.0953    0.3282 H   0  0  0  0  0  0  0  0  0  0  0  0
    4.3223   -0.4763    1.5595 H   0  0  0  0  0  0  0  0  0  0  0  0
    0.5997    3.1663    1.0144 H   0  0  0  0  0  0  0  0  0  0  0  0
    1.9117    2.4863    0.0632 H   0  0  0  0  0  0  0  0  0  0  0  0
  1 12  1  0  0  0  0
  2 11  1  0  0  0  0
  3 11  2  0  0  0  0
  4  5  1  0  0  0  0
  4  7  1  0  0  0  0
  4  8  1  0  0  0  0
  4  9  1  0  0  0  0
  5  6  1  0  0  0  0
  5 13  1  0  0  0  0
  5 14  1  0  0  0  0
  6  1  1  0  0  0  0
  6 10  1  0  0  0  0
  6 15  1  1  0  0  0
  7 16  1  0  0  0  0
  7 17  1  0  0  0  0
  7 18  1  0  0  0  0
  8 19  1  0  0  0  0
  8 20  1  0  0  0  0
  8 21  1  0  0  0  0
  9 22  1  0  0  0  0
  9 23  1  0  0  0  0
  9 24  1  0  0  0  0
 10 11  1  0  0  0  0
 10 25  1  0  0  0  0
 10 26  1  0  0  0  0
M  CHG  2   2  -1   4   1
M  END
>  <DRUGBANK_ID>
DB00583

>  <SECONDARY_ACCESSION_NUMBERS>
APRD01070

>  <COMMON_NAME>
Levocarnitine

>  <CAS_NUMBER>
541-15-1

>  <UNII>
0G389FZZ9M

>  <SYNONYMS>
(-)-Carnitine; (-)-L-Carnitine; (R)-Carnitine; 3-Carboxy-2-hydroxy-N,N,N-trimethyl-1-propanaminium hydroxide, inner salt; Carnitina; Carnitine; L-Carnitine; Levocarnitin; Levocarnitina; LÃ©vocarnitine; Levocarnitine; Levocarnitinum; Vitamin BT

$$$$
