
 OpenBabel10282417133D

 37 39  0  0  1  0  0  0  0  0999 V2000
    6.2942   -0.7731    0.2208 C   0  0  0  0  0  0  0  0  0  0  0  0
    4.9419   -1.1306    0.1849 C   0  0  0  0  0  0  0  0  0  0  0  0
    6.7007    0.5636    0.2048 C   0  0  0  0  0  0  0  0  0  0  0  0
    3.9416   -0.1641    0.1509 C   0  0  0  0  0  0  0  0  0  0  0  0
   -0.0864    4.7226    1.0269 C   0  0  0  0  0  0  0  0  0  0  0  0
    4.6449    3.3402    0.4865 C   0  0  0  0  0  0  0  0  0  0  0  0
    5.7161    1.5436    0.2243 C   0  0  0  0  0  0  0  0  0  0  0  0
    4.3833    1.1558    0.2173 C   0  0  0  0  0  0  0  0  0  0  0  0
    1.4329    4.5996    0.6158 C   0  0  2  0  0  0  0  0  0  0  0  0
    2.0650    4.7557   -0.8475 C   0  0  2  0  0  0  0  0  0  0  0  0
    2.2850    3.3333   -1.3600 C   0  0  2  0  0  0  0  0  0  0  0  0
    2.3615    2.5415   -0.0562 C   0  0  1  0  0  0  0  0  0  0  0  0
    5.8688    2.8983    0.2929 N   0  0  0  0  0  0  0  0  0  0  0  0
    3.7387    2.3472    0.2862 N   0  0  0  0  0  0  0  0  0  0  0  0
    3.2963    5.4737   -0.7558 O   0  0  0  0  0  0  0  0  0  0  0  0
    3.1722    3.0901   -2.4370 O   0  0  0  0  0  0  0  0  0  0  0  0
   -0.3030    5.4848   -1.1433 O   0  0  0  0  0  0  0  0  0  0  0  0
   -0.0655    2.5499   -0.9929 O   0  0  0  0  0  0  0  0  0  0  0  0
   -0.4122    4.0547   -2.9459 O   0  0  0  0  0  0  0  0  0  0  0  0
   -0.9835    3.8503    0.2758 O   0  0  0  0  0  0  0  0  0  0  0  0
    1.7573    3.2537    1.0344 O   0  0  0  0  0  0  0  0  0  0  0  0
   -0.6821    3.9582   -1.4243 P   0  0  0  0  0  0  0  0  0  0  0  0
    1.9642    5.2830    1.2882 H   0  0  0  0  0  0  0  0  0  0  0  0
    1.5687    5.3428   -1.6097 H   0  0  0  0  0  0  0  0  0  0  0  0
    1.4371    3.0172   -1.9204 H   0  0  0  0  0  0  0  0  0  0  0  0
    1.8665    1.5644   -0.1119 H   0  0  0  0  0  0  0  0  0  0  0  0
    7.0528   -1.5451    0.2759 H   0  0  0  0  0  0  0  0  0  0  0  0
    4.6593   -2.1794    0.1997 H   0  0  0  0  0  0  0  0  0  0  0  0
    7.7369    0.8661    0.2358 H   0  0  0  0  0  0  0  0  0  0  0  0
    2.8900   -0.4365    0.1319 H   0  0  0  0  0  0  0  0  0  0  0  0
   -0.2299    4.4580    2.0806 H   0  0  0  0  0  0  0  0  0  0  0  0
   -0.4548    5.7591    0.9615 H   0  0  0  0  0  0  0  0  0  0  0  0
    4.3845    4.3582    0.7101 H   0  0  0  0  0  0  0  0  0  0  0  0
    3.8814    5.1094   -1.4414 H   0  0  0  0  0  0  0  0  0  0  0  0
    4.0772    3.3442   -2.2416 H   0  0  0  0  0  0  0  0  0  0  0  0
   -1.0341    6.0837   -1.3957 H   0  0  0  0  0  0  0  0  0  0  0  0
   -0.4444    2.2727   -0.1312 H   0  0  0  0  0  0  0  0  0  0  0  0
  1 27  1  0  0  0  0
  2  1  2  0  0  0  0
  2 28  1  0  0  0  0
  3  1  1  0  0  0  0
  3 29  1  0  0  0  0
  4  2  1  0  0  0  0
  4 30  1  0  0  0  0
  5 31  1  0  0  0  0
  5 32  1  0  0  0  0
  6 33  1  0  0  0  0
  7  3  2  0  0  0  0
  8  4  2  0  0  0  0
  8  7  1  0  0  0  0
  9 23  1  1  0  0  0
  9  5  1  0  0  0  0
 10  9  1  0  0  0  0
 10 15  1  0  0  0  0
 10 24  1  6  0  0  0
 11 10  1  0  0  0  0
 11 16  1  0  0  0  0
 11 25  1  6  0  0  0
 12 11  1  0  0  0  0
 12 26  1  6  0  0  0
 12 14  1  0  0  0  0
 13  6  2  0  0  0  0
 13  7  1  0  0  0  0
 14  6  1  0  0  0  0
 14  8  1  0  0  0  0
 15 34  1  0  0  0  0
 16 35  1  0  0  0  0
 17 36  1  0  0  0  0
 18 37  1  0  0  0  0
 20  5  1  0  0  0  0
 21  9  1  0  0  0  0
 21 12  1  0  0  0  0
 22 17  1  0  0  0  0
 22 18  1  0  0  0  0
 22 19  2  0  0  0  0
 22 20  1  0  0  0  0
M  END
>  <DRUGBANK_ID>
DB03079

>  <SECONDARY_ACCESSION_NUMBERS>
EXPT00084

>  <COMMON_NAME>
Alpha-Ribazole-5'-Phosphate Derivative

$$$$
