
 OpenBabel10282417103D

 66 70  0  0  0  0  0  0  0  0999 V2000
   -0.2970   10.7441   -0.1865 N   0  0  0  0  0  0  0  0  0  0  0  0
    0.2800    9.6278    0.3588 C   0  0  0  0  0  0  0  0  0  0  0  0
   -0.7587    8.7266   -0.3582 C   0  0  2  0  0  0  0  0  0  0  0  0
   -1.4781   10.0666   -0.7040 C   0  0  1  0  0  0  0  0  0  0  0  0
   -1.2443   13.7696    3.7142 C   0  0  0  0  0  0  0  0  0  0  0  0
   -0.1381   12.0911    0.0552 C   0  0  0  0  0  0  0  0  0  0  0  0
   -1.7549   12.5109    3.8003 N   0  0  0  0  0  0  0  0  0  0  0  0
   -1.2405   14.2447    4.9436 N   0  0  0  0  0  0  0  0  0  0  0  0
   -1.8560   13.3031    5.7360 N   0  0  0  0  0  0  0  0  0  0  0  0
   -2.2064   12.2488    5.0265 N   0  0  0  0  0  0  0  0  0  0  0  0
   -1.3897    7.6001    0.4268 N   0  0  0  0  0  0  0  0  0  0  0  0
   -0.8138    3.3893   -0.5321 C   0  0  0  0  0  0  0  0  0  0  0  0
   -2.9635   10.5630    0.1506 S   0  0  0  0  0  0  0  0  0  0  0  0
   -0.8002    2.1545   -1.3589 C   0  0  0  0  0  0  0  0  0  0  0  0
   -1.2436   12.8909    0.1620 C   0  0  0  0  0  0  0  0  0  0  0  0
   -1.5134    6.3456   -0.1811 C   0  0  0  0  0  0  0  0  0  0  0  0
   -2.0480    3.9370   -0.2298 N   0  0  0  0  0  0  0  0  0  0  0  0
   -2.2068    5.1612    0.6078 C   0  0  2  0  0  0  0  0  0  0  0  0
    0.0649    1.1008   -1.0649 C   0  0  0  0  0  0  0  0  0  0  0  0
    1.2897   12.5660    0.3316 C   0  0  0  0  0  0  0  0  0  0  0  0
   -0.4936   14.5925    2.3959 S   0  0  0  0  0  0  0  0  0  0  0  0
   -1.6541    1.9707   -2.4350 C   0  0  0  0  0  0  0  0  0  0  0  0
   -1.8292    0.7804   -3.0753 N   0  0  0  0  0  0  0  0  0  0  0  0
   -2.6877   12.3779   -0.0530 C   0  0  0  0  0  0  0  0  0  0  0  0
   -0.0196   -0.1000   -1.7678 C   0  0  0  0  0  0  0  0  0  0  0  0
   -1.2212   14.3213    0.7369 C   0  0  0  0  0  0  0  0  0  0  0  0
   -3.7023    5.4375    0.8762 C   0  0  0  0  0  0  0  0  0  0  0  0
    0.2447    3.8114   -0.0777 O   0  0  0  0  0  0  0  0  0  0  0  0
   -1.1325    6.2042   -1.3483 O   0  0  0  0  0  0  0  0  0  0  0  0
    2.2866   11.8711    0.3904 O   0  0  0  0  0  0  0  0  0  0  0  0
   -1.0371   -0.2559   -2.7012 C   0  0  0  0  0  0  0  0  0  0  0  0
   -4.6307    4.3962    1.0547 C   0  0  0  0  0  0  0  0  0  0  0  0
   -4.2185    6.7450    0.9515 C   0  0  0  0  0  0  0  0  0  0  0  0
    0.9883    1.1487   -0.0537 O   0  0  0  0  0  0  0  0  0  0  0  0
   -1.9716   11.5304    2.8162 C   0  0  0  0  0  0  0  0  0  0  0  0
    1.4128   13.8983    0.4584 O   0  0  0  0  0  0  0  0  0  0  0  0
   -6.4692    5.9713    1.0888 C   0  0  0  0  0  0  0  0  0  0  0  0
   -5.5738    7.0181    1.1162 C   0  0  0  0  0  0  0  0  0  0  0  0
   -6.0087    4.6624    1.0721 C   0  0  0  0  0  0  0  0  0  0  0  0
   -7.8105    6.1972    1.0663 O   0  0  0  0  0  0  0  0  0  0  0  0
   -1.3524   -1.6162   -3.2620 C   0  0  0  0  0  0  0  0  0  0  0  0
   -1.6139   10.1942   -1.7775 H   0  0  0  0  0  0  0  0  0  0  0  0
   -0.3212    8.3201   -1.2758 H   0  0  0  0  0  0  0  0  0  0  0  0
    1.1515    9.4503    1.1619 O   0  0  0  0  0  0  0  0  0  0  0  0
   -1.6665    7.7157    1.3982 H   0  0  0  0  0  0  0  0  0  0  0  0
   -2.8813    3.4442   -0.5194 H   0  0  0  0  0  0  0  0  0  0  0  0
   -1.6807    4.9905    1.5562 H   0  0  0  0  0  0  0  0  0  0  0  0
   -2.2389    2.7908   -2.8427 H   0  0  0  0  0  0  0  0  0  0  0  0
   -3.0687   12.6677   -1.0325 H   0  0  0  0  0  0  0  0  0  0  0  0
   -3.3399   12.8466    0.6988 H   0  0  0  0  0  0  0  0  0  0  0  0
    0.6708   -0.9089   -1.5529 H   0  0  0  0  0  0  0  0  0  0  0  0
   -0.6651   14.9484    0.0229 H   0  0  0  0  0  0  0  0  0  0  0  0
   -2.2193   14.7662    0.7536 H   0  0  0  0  0  0  0  0  0  0  0  0
   -4.3112    3.3595    1.1415 H   0  0  0  0  0  0  0  0  0  0  0  0
   -3.6066    7.6248    0.8423 H   0  0  0  0  0  0  0  0  0  0  0  0
    1.0011    2.0582    0.3150 H   0  0  0  0  0  0  0  0  0  0  0  0
   -1.5501   10.5522    3.0299 H   0  0  0  0  0  0  0  0  0  0  0  0
   -3.0420   11.5084    2.6064 H   0  0  0  0  0  0  0  0  0  0  0  0
   -1.4005   11.8752    1.9993 H   0  0  0  0  0  0  0  0  0  0  0  0
    2.2921   14.0764    0.8584 H   0  0  0  0  0  0  0  0  0  0  0  0
   -5.8894    8.0513    1.2216 H   0  0  0  0  0  0  0  0  0  0  0  0
   -6.7262    3.8467    1.0630 H   0  0  0  0  0  0  0  0  0  0  0  0
   -7.9633    7.1553    1.0002 H   0  0  0  0  0  0  0  0  0  0  0  0
   -2.3543   -1.9278   -2.9423 H   0  0  0  0  0  0  0  0  0  0  0  0
   -1.3191   -1.6073   -4.3543 H   0  0  0  0  0  0  0  0  0  0  0  0
   -0.6484   -2.3751   -2.9021 H   0  0  0  0  0  0  0  0  0  0  0  0
  2  1  1  0  0  0  0
  2 44  2  0  0  0  0
  3  2  1  0  0  0  0
  3 11  1  0  0  0  0
  3 43  1  6  0  0  0
  4  1  1  0  0  0  0
  4  3  1  0  0  0  0
  4 42  1  6  0  0  0
  6  1  1  0  0  0  0
  7  5  1  0  0  0  0
  8  5  2  0  0  0  0
  9  8  1  0  0  0  0
 10  7  1  0  0  0  0
 10  9  2  0  0  0  0
 11 45  1  0  0  0  0
 13  4  1  0  0  0  0
 14 12  1  0  0  0  0
 15  6  2  0  0  0  0
 16 11  1  0  0  0  0
 17 12  1  0  0  0  0
 17 46  1  0  0  0  0
 18 27  1  0  0  0  0
 18 47  1  1  0  0  0
 18 17  1  0  0  0  0
 18 16  1  0  0  0  0
 19 14  2  0  0  0  0
 20  6  1  0  0  0  0
 21  5  1  0  0  0  0
 22 14  1  0  0  0  0
 22 48  1  0  0  0  0
 23 22  2  0  0  0  0
 24 13  1  0  0  0  0
 24 15  1  0  0  0  0
 24 49  1  0  0  0  0
 24 50  1  0  0  0  0
 25 19  1  0  0  0  0
 25 51  1  0  0  0  0
 26 15  1  0  0  0  0
 26 21  1  0  0  0  0
 26 52  1  0  0  0  0
 26 53  1  0  0  0  0
 28 12  2  0  0  0  0
 29 16  2  0  0  0  0
 30 20  2  0  0  0  0
 31 23  1  0  0  0  0
 31 25  2  0  0  0  0
 32 27  1  0  0  0  0
 32 54  1  0  0  0  0
 33 27  2  0  0  0  0
 33 55  1  0  0  0  0
 34 19  1  0  0  0  0
 34 56  1  0  0  0  0
 35  7  1  0  0  0  0
 35 57  1  0  0  0  0
 35 58  1  0  0  0  0
 35 59  1  0  0  0  0
 36 20  1  0  0  0  0
 36 60  1  0  0  0  0
 38 33  1  0  0  0  0
 38 37  2  0  0  0  0
 38 61  1  0  0  0  0
 39 32  2  0  0  0  0
 39 37  1  0  0  0  0
 39 62  1  0  0  0  0
 40 37  1  0  0  0  0
 40 63  1  0  0  0  0
 41 31  1  0  0  0  0
 41 64  1  0  0  0  0
 41 65  1  0  0  0  0
 41 66  1  0  0  0  0
M  END
>  <DRUGBANK_ID>
DB00430

>  <SECONDARY_ACCESSION_NUMBERS>
APRD00856

>  <COMMON_NAME>
Cefpiramide

>  <CAS_NUMBER>
70797-11-4

>  <UNII>
P936YA152N

>  <SYNONYMS>
Cefpiramide; Cefpiramido; Cefpiramidum

$$$$
