19529
 OpenBabel10282417213D

 32 33  0  0  0  0  0  0  0  0999 V2000
    1.2135   -0.4647   -0.5370 Cl  0  0  0  0  0  0  0  0  0  0  0  0
    3.3230    1.6222   -0.7123 Cl  0  0  0  0  0  0  0  0  0  0  0  0
   -0.5354    5.2363    1.5010 O   0  0  0  0  0  0  0  0  0  0  0  0
   -3.7090    6.3595    0.4560 O   0  0  0  0  0  0  0  0  0  0  0  0
    3.8225   -1.1523    1.7508 O   0  0  0  0  0  0  0  0  0  0  0  0
   -2.0804    4.0870    0.1356 O   0  0  0  0  0  0  0  0  0  0  0  0
    2.9267    0.8455    2.4176 N   0  0  0  0  0  0  0  0  0  0  0  0
    2.0728    1.9675    2.2632 C   0  0  0  0  0  0  0  0  0  0  0  0
    0.8579    1.7929    1.6355 C   0  0  0  0  0  0  0  0  0  0  0  0
    2.3533    3.2364    2.7881 C   0  0  0  0  0  0  0  0  0  0  0  0
    0.3052    4.1272    1.8039 C   0  0  0  0  0  0  0  0  0  0  0  0
    0.0259    2.8549    1.3390 C   0  0  0  0  0  0  0  0  0  0  0  0
    1.4453    4.3077    2.6002 C   0  0  0  0  0  0  0  0  0  0  0  0
    3.4090    0.5782    3.7743 C   0  0  0  0  0  0  0  0  0  0  0  0
    3.1935   -0.1274    1.4310 C   0  0  0  0  0  0  0  0  0  0  0  0
    2.8453    0.0467   -0.0670 C   0  0  0  0  0  0  0  0  0  0  0  0
   -2.3369    6.3721    0.4706 C   0  0  0  0  0  0  0  0  0  0  0  0
   -1.6736    5.1117    0.6616 C   0  0  0  0  0  0  0  0  0  0  0  0
   -1.8883    7.6363    0.1510 C   0  0  0  0  0  0  0  0  0  0  0  0
   -3.0431    8.4326   -0.0598 C   0  0  0  0  0  0  0  0  0  0  0  0
   -4.1248    7.6117    0.1506 C   0  0  0  0  0  0  0  0  0  0  0  0
    0.4828    0.8112    1.3986 H   0  0  0  0  0  0  0  0  0  0  0  0
    3.2862    3.4151    3.3208 H   0  0  0  0  0  0  0  0  0  0  0  0
   -0.8436    2.5924    0.7574 H   0  0  0  0  0  0  0  0  0  0  0  0
    1.6495    5.2620    3.0799 H   0  0  0  0  0  0  0  0  0  0  0  0
    3.0422   -0.4026    4.1013 H   0  0  0  0  0  0  0  0  0  0  0  0
    4.5023    0.5594    3.7756 H   0  0  0  0  0  0  0  0  0  0  0  0
    3.0541    1.3200    4.4967 H   0  0  0  0  0  0  0  0  0  0  0  0
    3.4632   -0.6720   -0.6081 H   0  0  0  0  0  0  0  0  0  0  0  0
   -0.8551    7.9233    0.0181 H   0  0  0  0  0  0  0  0  0  0  0  0
   -3.0865    9.4716   -0.3521 H   0  0  0  0  0  0  0  0  0  0  0  0
   -5.1972    7.7497    0.1056 H   0  0  0  0  0  0  0  0  0  0  0  0
  1 16  1  0  0  0  0
  2 16  1  0  0  0  0
  3 11  1  0  0  0  0
  3 18  1  0  0  0  0
  4 17  1  0  0  0  0
  4 21  1  0  0  0  0
  5 15  2  0  0  0  0
  6 18  2  0  0  0  0
  7  8  1  0  0  0  0
  7 14  1  0  0  0  0
  7 15  1  0  0  0  0
  8  9  2  0  0  0  0
  8 10  1  0  0  0  0
  9 12  1  0  0  0  0
  9 22  1  0  0  0  0
 10 13  2  0  0  0  0
 10 23  1  0  0  0  0
 11 12  2  0  0  0  0
 11 13  1  0  0  0  0
 12 24  1  0  0  0  0
 13 25  1  0  0  0  0
 14 26  1  0  0  0  0
 14 27  1  0  0  0  0
 14 28  1  0  0  0  0
 15 16  1  0  0  0  0
 16 29  1  0  0  0  0
 17 18  1  0  0  0  0
 17 19  2  0  0  0  0
 19 20  1  0  0  0  0
 19 30  1  0  0  0  0
 20 21  2  0  0  0  0
 20 31  1  0  0  0  0
 21 32  1  0  0  0  0
M  END
>  <DRUGBANK_ID>
DB14638

>  <SECONDARY_ACCESSION_NUMBERS>
DBSALT001813

>  <COMMON_NAME>
Diloxanide furoate

>  <CAS_NUMBER>
3736-81-0

>  <UNII>
YP4N72IW34

>  <SYNONYMS>
2,2-dichloroacetamido-4-n-methylphenyl 2-furoate; 4-(n-methyl-2,2-dichloroacetamido)phenyl 2-furoate; Dichlofurazol; Diloxanide furoate; Diloxanidi furoas

$$$$
