
 OpenBabel10282417143D

 57 60  0  0  1  0  0  0  0  0999 V2000
   -2.7024   -0.3688   -0.0648 C   0  0  0  0  0  0  0  0  0  0  0  0
   -0.3044   -2.5690    0.3040 C   0  0  0  0  0  0  0  0  0  0  0  0
    0.3011   -3.2297   -0.9900 C   0  0  0  0  0  0  0  0  0  0  0  0
    1.0916    1.7093   -5.1077 C   0  0  0  0  0  0  0  0  0  0  0  0
    0.0374    4.7985   -7.6155 C   0  0  0  0  0  0  0  0  0  0  0  0
   -1.4963    1.1129   -9.4023 C   0  0  0  0  0  0  0  0  0  0  0  0
   -1.2853   -0.0903    0.2114 C   0  0  0  0  0  0  0  0  0  0  0  0
    0.0321    0.5554   -5.0786 C   0  0  2  0  0  0  0  0  0  0  0  0
   -0.3117   -1.0307    0.5282 C   0  0  0  0  0  0  0  0  0  0  0  0
   -0.8817    3.1419   -9.4895 C   0  0  0  0  0  0  0  0  0  0  0  0
    0.2419   -0.8270   -5.7723 C   0  0  2  0  0  0  0  0  0  0  0  0
   -0.1634   -0.5763   -7.2068 C   0  0  2  0  0  0  0  0  0  0  0  0
   -0.5461    4.4605   -9.8279 C   0  0  0  0  0  0  0  0  0  0  0  0
   -0.7397    2.7816   -8.1607 C   0  0  0  0  0  0  0  0  0  0  0  0
    0.3895    1.3517    0.5444 C   0  0  0  0  0  0  0  0  0  0  0  0
   -1.2098    0.5210   -7.0386 C   0  0  2  0  0  0  0  0  0  0  0  0
    1.2273    2.6324    0.3313 C   0  0  0  0  0  0  0  0  0  0  0  0
   -0.7167    4.9437  -11.1083 N   0  0  0  0  0  0  0  0  0  0  0  0
   -0.0680    5.2871   -8.8735 N   0  0  0  0  0  0  0  0  0  0  0  0
   -0.3035    3.5774   -7.1740 N   0  0  0  0  0  0  0  0  0  0  0  0
   -1.3656    2.0995  -10.2572 N   0  0  0  0  0  0  0  0  0  0  0  0
   -0.8940    1.2450    0.2028 N   0  0  0  0  0  0  0  0  0  0  0  0
   -1.1464    1.4792   -8.1223 N   0  0  0  0  0  0  0  0  0  0  0  0
   -0.7836   -1.8071   -5.3722 O   0  0  0  0  0  0  0  0  0  0  0  0
   -0.8235   -1.7243   -7.8117 O   0  0  0  0  0  0  0  0  0  0  0  0
    0.6214    3.6810   -0.0604 O   0  5  0  0  0  0  0  0  0  0  0  0
    2.4800    2.6280    0.6573 O   0  0  0  0  0  0  0  0  0  0  0  0
    3.3704   -1.6052   -1.6615 O   0  5  0  0  0  0  0  0  0  0  0  0
    0.5736   -1.0769   -1.9331 O   0  0  0  0  0  0  0  0  0  0  0  0
    3.8148    1.3242   -2.8048 O   0  5  0  0  0  0  0  0  0  0  0  0
    1.9195   -0.2652   -3.6362 O   0  0  0  0  0  0  0  0  0  0  0  0
    1.6847   -2.9425   -1.2180 O   0  0  0  0  0  0  0  0  0  0  0  0
    2.3851    1.5772   -4.5356 O   0  0  0  0  0  0  0  0  0  0  0  0
   -1.1216    1.1355   -5.7649 O   0  0  0  0  0  0  0  0  0  0  0  0
    2.2100    0.4772   -1.2598 O   0  0  0  0  0  0  0  0  0  0  0  0
    1.9474   -1.2326   -1.2389 P   0  0  3  0  0  0  0  0  0  0  0  0
    2.2976    1.0272   -2.8977 P   0  0  3  0  0  0  0  0  0  0  0  0
    0.9329   -0.1138    1.3710 S   0  0  0  0  0  0  0  0  0  0  0  0
   -0.3188    0.3924   -4.0553 H   0  0  0  0  0  0  0  0  0  0  0  0
    1.2269   -1.2972   -5.6793 H   0  0  0  0  0  0  0  0  0  0  0  0
    0.6868   -0.3071   -7.8393 H   0  0  0  0  0  0  0  0  0  0  0  0
   -2.2228    0.1037   -7.0751 H   0  0  0  0  0  0  0  0  0  0  0  0
   -3.2689    0.0500    0.7733 H   0  0  0  0  0  0  0  0  0  0  0  0
   -3.0471    0.0868   -0.9943 H   0  0  0  0  0  0  0  0  0  0  0  0
   -2.9097   -1.4396   -0.0947 H   0  0  0  0  0  0  0  0  0  0  0  0
    0.1766   -3.0431    1.1602 H   0  0  0  0  0  0  0  0  0  0  0  0
   -1.3529   -2.8933    0.2961 H   0  0  0  0  0  0  0  0  0  0  0  0
    0.2231   -4.3217   -0.9122 H   0  0  0  0  0  0  0  0  0  0  0  0
   -0.2812   -3.0249   -1.9051 H   0  0  0  0  0  0  0  0  0  0  0  0
    0.6223    2.5578   -4.5914 H   0  0  0  0  0  0  0  0  0  0  0  0
    1.2599    2.0353   -6.1334 H   0  0  0  0  0  0  0  0  0  0  0  0
    0.4405    5.4777   -6.8676 H   0  0  0  0  0  0  0  0  0  0  0  0
   -1.8258    0.1044   -9.6231 H   0  0  0  0  0  0  0  0  0  0  0  0
   -0.9794    4.2736  -11.8170 H   0  0  0  0  0  0  0  0  0  0  0  0
   -0.3706    5.8654  -11.3058 H   0  0  0  0  0  0  0  0  0  0  0  0
   -1.2181   -1.4057   -4.5963 H   0  0  0  0  0  0  0  0  0  0  0  0
   -1.2379   -2.1596   -7.0259 H   0  0  0  0  0  0  0  0  0  0  0  0
  1 43  1  0  0  0  0
  1 44  1  0  0  0  0
  1 45  1  0  0  0  0
  2 46  1  0  0  0  0
  2 47  1  0  0  0  0
  3  2  1  0  0  0  0
  3 48  1  0  0  0  0
  3 49  1  0  0  0  0
  4 50  1  0  0  0  0
  4 51  1  0  0  0  0
  5 52  1  0  0  0  0
  6 53  1  0  0  0  0
  7  1  1  0  0  0  0
  8  4  1  0  0  0  0
  8 39  1  1  0  0  0
  9  2  1  0  0  0  0
  9  7  2  0  0  0  0
 11  8  1  0  0  0  0
 11 24  1  0  0  0  0
 11 40  1  1  0  0  0
 12 11  1  0  0  0  0
 12 25  1  0  0  0  0
 12 41  1  6  0  0  0
 13 10  2  0  0  0  0
 14 10  1  0  0  0  0
 16 12  1  0  0  0  0
 16 42  1  6  0  0  0
 16 23  1  0  0  0  0
 17 15  1  0  0  0  0
 18 13  1  0  0  0  0
 18 54  1  0  0  0  0
 18 55  1  0  0  0  0
 19  5  2  0  0  0  0
 19 13  1  0  0  0  0
 20  5  1  0  0  0  0
 20 14  2  0  0  0  0
 21  6  2  0  0  0  0
 21 10  1  0  0  0  0
 22  7  1  0  0  0  0
 22 15  2  0  0  0  0
 23  6  1  0  0  0  0
 23 14  1  0  0  0  0
 24 56  1  0  0  0  0
 25 57  1  0  0  0  0
 26 17  1  0  0  0  0
 27 17  2  0  0  0  0
 32  3  1  0  0  0  0
 33  4  1  0  0  0  0
 34  8  1  0  0  0  0
 34 16  1  0  0  0  0
 36 28  1  0  0  0  0
 36 29  2  0  0  0  0
 36 32  1  0  0  0  0
 36 35  1  0  0  0  0
 37 30  1  0  0  0  0
 37 31  2  0  0  0  0
 37 33  1  0  0  0  0
 37 35  1  0  0  0  0
 38  9  1  0  0  0  0
 38 15  1  0  0  0  0
M  CHG  3  26  -1  28  -1  30  -1
M  END
>  <DRUGBANK_ID>
DB04362

>  <SECONDARY_ACCESSION_NUMBERS>
EXPT00469

>  <COMMON_NAME>
Adenosine Diphosphate 5-(Beta-Ethyl)-4-Methyl-Thiazole-2-Carboxylic Acid

$$$$
