
 OpenBabel10282417153D

 96101  0  0  1  0  0  0  0  0999 V2000
    5.3530    1.8541   -1.9377 C   0  0  0  0  0  0  0  0  0  0  0  0
    4.8691    0.7425   -1.0573 C   0  0  1  0  0  0  0  0  0  0  0  0
    5.2321   -0.5868   -1.7388 C   0  0  2  0  0  0  0  0  0  0  0  0
    5.0684   -1.8201   -0.9128 C   0  0  2  0  0  0  0  0  0  0  0  0
    5.1537   -1.6535    0.6462 C   0  0  0  0  0  0  0  0  0  0  0  0
    4.5892   -0.1962    1.1055 C   0  0  1  0  0  0  0  0  0  0  0  0
    5.2528    0.7954    0.3168 O   0  0  0  0  0  0  0  0  0  0  0  0
    3.1754    0.1756    1.2570 O   0  0  0  0  0  0  0  0  0  0  0  0
    2.2915   -0.0259    0.1879 C   0  0  1  0  0  0  0  0  0  0  0  0
    2.4134   -1.4191   -0.0991 C   0  0  0  0  0  0  0  0  0  0  0  0
    2.0648   -2.5634    0.7717 C   0  0  1  0  0  0  0  0  0  0  0  0
    0.4959   -2.1849    0.8344 C   0  0  0  0  0  0  0  0  0  0  0  0
   -0.0726   -0.7206    0.7024 C   0  0  0  0  0  0  0  0  0  0  0  0
    0.8526    0.2819    0.3009 C   0  0  0  0  0  0  0  0  0  0  0  0
    0.4660    1.5701   -0.0544 C   0  0  0  0  0  0  0  0  0  0  0  0
   -0.8900    1.8468   -0.1327 C   0  0  0  0  0  0  0  0  0  0  0  0
   -1.8582    0.8768    0.1456 C   0  0  0  0  0  0  0  0  0  0  0  0
   -1.4589   -0.3599    0.6888 C   0  0  0  0  0  0  0  0  0  0  0  0
   -2.4984   -1.2006    1.0465 O   0  0  0  0  0  0  0  0  0  0  0  0
   -3.2849    1.1559   -0.2444 C   0  0  0  0  0  0  0  0  0  0  0  0
   -4.1785    0.3539   -0.4943 O   0  0  0  0  0  0  0  0  0  0  0  0
   -3.6972    2.5205   -0.3617 C   0  0  0  0  0  0  0  0  0  0  0  0
   -5.0730    2.7487   -0.4373 C   0  0  0  0  0  0  0  0  0  0  0  0
   -5.5103    4.0410   -0.3357 C   0  0  0  0  0  0  0  0  0  0  0  0
   -4.5757    5.0650   -0.1789 C   0  0  0  0  0  0  0  0  0  0  0  0
   -3.1999    4.8231   -0.1435 C   0  0  0  0  0  0  0  0  0  0  0  0
   -2.7529    3.5287   -0.2584 C   0  0  0  0  0  0  0  0  0  0  0  0
   -1.3105    3.2305   -0.2154 C   0  0  0  0  0  0  0  0  0  0  0  0
   -0.4294    4.0811   -0.1273 O   0  0  0  0  0  0  0  0  0  0  0  0
   -2.2374    5.7647    0.0220 O   0  0  0  0  0  0  0  0  0  0  0  0
   -2.6595    7.0984    0.1300 C   0  0  0  0  0  0  0  0  0  0  0  0
    1.4587    2.5113   -0.2166 O   0  0  0  0  0  0  0  0  0  0  0  0
    2.9517   -4.1014   -0.0741 C   0  0  0  0  0  0  0  0  0  0  0  0
    3.2397   -5.1737    0.6443 N   0  0  0  0  0  0  0  0  0  0  0  0
    3.4217   -6.5376    0.1271 N   0  0  0  0  0  0  0  0  0  0  0  0
    3.3600   -7.2979   -1.0787 C   0  0  0  0  0  0  0  0  0  0  0  0
    3.7499   -8.4718   -1.0519 O   0  0  0  0  0  0  0  0  0  0  0  0
    2.8167   -6.8247   -2.4354 C   0  0  0  0  0  0  0  0  0  0  0  0
    1.1825   -6.4322   -2.2165 C   0  0  0  0  0  0  0  0  0  0  0  0
    0.6927   -5.2351   -1.0696 C   0  0  0  0  0  0  0  0  0  0  0  0
    1.0858   -3.4873   -1.2934 C   0  0  0  0  0  0  0  0  0  0  0  0
    0.8973   -2.3167   -2.3321 C   0  0  0  0  0  0  0  0  0  0  0  0
   -0.4074   -1.9123   -2.3244 N   0  0  0  0  0  0  0  0  0  0  0  0
   -1.3538   -2.1035   -1.3872 C   0  0  0  0  0  0  0  0  0  0  0  0
   -1.6143   -2.8700   -0.4996 O   0  0  0  0  0  0  0  0  0  0  0  0
   -2.3914   -1.2743   -1.8337 C   0  0  0  0  0  0  0  0  0  0  0  0
   -2.4416   -1.5996   -3.0921 C   0  0  0  0  0  0  0  0  0  0  0  0
   -1.1326   -2.0790   -3.3937 C   0  0  0  0  0  0  0  0  0  0  0  0
   -0.7648   -2.7180   -4.4324 O   0  0  0  0  0  0  0  0  0  0  0  0
    2.8040   -4.3716   -2.0002 C   0  0  0  0  0  0  0  0  0  0  0  0
    1.5732   -4.4025   -3.1135 O   0  0  0  0  0  0  0  0  0  0  0  0
    2.2203   -2.2934    2.1346 O   0  0  0  0  0  0  0  0  0  0  0  0
    5.3577   -3.1011   -1.5635 N   0  0  0  0  0  0  0  0  0  0  0  0
    6.6129   -0.7163   -1.9922 O   0  0  0  0  0  0  0  0  0  0  0  0
    4.5173    2.5304   -2.1899 H   0  0  0  0  0  0  0  0  0  0  0  0
    5.6439    1.4397   -2.9051 H   0  0  0  0  0  0  0  0  0  0  0  0
    6.1241    2.3942   -1.4144 H   0  0  0  0  0  0  0  0  0  0  0  0
    3.8625    1.1063   -1.0861 H   0  0  0  0  0  0  0  0  0  0  0  0
    4.6028   -0.6980   -2.6570 H   0  0  0  0  0  0  0  0  0  0  0  0
    4.0759   -1.8878   -1.2211 H   0  0  0  0  0  0  0  0  0  0  0  0
    4.6211   -2.4585    1.1928 H   0  0  0  0  0  0  0  0  0  0  0  0
    6.1873   -1.8019    0.9408 H   0  0  0  0  0  0  0  0  0  0  0  0
    4.8948   -0.1454    2.1544 H   0  0  0  0  0  0  0  0  0  0  0  0
    2.5174    0.4004   -0.7872 H   0  0  0  0  0  0  0  0  0  0  0  0
    3.3447   -1.6534    0.1962 H   0  0  0  0  0  0  0  0  0  0  0  0
    2.5319   -1.4122   -1.1689 H   0  0  0  0  0  0  0  0  0  0  0  0
    0.1385   -2.4733   -0.0893 H   0  0  0  0  0  0  0  0  0  0  0  0
   -0.0185   -2.9724    1.3693 H   0  0  0  0  0  0  0  0  0  0  0  0
   -2.4821   -2.0693    0.5754 H   0  0  0  0  0  0  0  0  0  0  0  0
   -5.7851    1.9246   -0.5248 H   0  0  0  0  0  0  0  0  0  0  0  0
   -6.5735    4.2438   -0.3558 H   0  0  0  0  0  0  0  0  0  0  0  0
   -4.9552    6.0702   -0.0864 H   0  0  0  0  0  0  0  0  0  0  0  0
   -3.1820    7.3930   -0.7827 H   0  0  0  0  0  0  0  0  0  0  0  0
   -3.2808    7.2184    1.0203 H   0  0  0  0  0  0  0  0  0  0  0  0
   -1.7672    7.7161    0.2385 H   0  0  0  0  0  0  0  0  0  0  0  0
    1.0773    3.4047   -0.0294 H   0  0  0  0  0  0  0  0  0  0  0  0
    3.5627   -7.1738    0.9176 H   0  0  0  0  0  0  0  0  0  0  0  0
    3.6458   -6.0919   -2.7041 H   0  0  0  0  0  0  0  0  0  0  0  0
    2.9429   -7.2576   -3.4340 H   0  0  0  0  0  0  0  0  0  0  0  0
    0.8744   -6.1855   -3.2452 H   0  0  0  0  0  0  0  0  0  0  0  0
    0.5287   -7.2729   -2.0328 H   0  0  0  0  0  0  0  0  0  0  0  0
   -0.3700   -5.1172   -0.8509 H   0  0  0  0  0  0  0  0  0  0  0  0
    1.0292   -5.6212   -0.0587 H   0  0  0  0  0  0  0  0  0  0  0  0
    1.0564   -3.7073   -0.2492 H   0  0  0  0  0  0  0  0  0  0  0  0
    2.1001   -3.0267   -1.2818 H   0  0  0  0  0  0  0  0  0  0  0  0
    1.4374   -1.3317   -2.3523 H   0  0  0  0  0  0  0  0  0  0  0  0
    1.3703   -2.5052   -3.3156 H   0  0  0  0  0  0  0  0  0  0  0  0
   -3.1944   -1.0754   -1.1935 H   0  0  0  0  0  0  0  0  0  0  0  0
   -3.4207   -1.5947   -3.4921 H   0  0  0  0  0  0  0  0  0  0  0  0
    3.5017   -4.0313   -2.7338 H   0  0  0  0  0  0  0  0  0  0  0  0
    2.7476   -5.2968   -1.5693 H   0  0  0  0  0  0  0  0  0  0  0  0
    0.5882   -4.4582   -2.8016 H   0  0  0  0  0  0  0  0  0  0  0  0
    3.0030   -2.7388    2.4469 H   0  0  0  0  0  0  0  0  0  0  0  0
    5.2862   -2.9577   -2.5796 H   0  0  0  0  0  0  0  0  0  0  0  0
    4.5427   -3.6591   -1.3975 H   0  0  0  0  0  0  0  0  0  0  0  0
    6.8074   -0.3835   -2.8698 H   0  0  0  0  0  0  0  0  0  0  0  0
  1 55  1  0  0  0  0
  1 56  1  0  0  0  0
  1 57  1  0  0  0  0
  2  7  1  0  0  0  0
  2 58  1  6  0  0  0
  2  1  1  0  0  0  0
  3  2  1  0  0  0  0
  3  4  1  0  0  0  0
  3 59  1  6  0  0  0
  3 54  1  0  0  0  0
  4  5  1  0  0  0  0
  4 60  1  6  0  0  0
  4 53  1  0  0  0  0
  5 61  1  0  0  0  0
  5 62  1  0  0  0  0
  6  5  1  0  0  0  0
  6  7  1  0  0  0  0
  6  8  1  0  0  0  0
  6 63  1  1  0  0  0
  9 10  1  0  0  0  0
  9 14  1  0  0  0  0
  9 64  1  6  0  0  0
  9  8  1  0  0  0  0
 10 65  1  0  0  0  0
 10 66  1  0  0  0  0
 11 10  1  0  0  0  0
 11 12  1  0  0  0  0
 11 33  1  6  0  0  0
 11 52  1  0  0  0  0
 12 13  1  0  0  0  0
 12 67  1  0  0  0  0
 12 68  1  0  0  0  0
 13 14  2  0  0  0  0
 13 18  1  0  0  0  0
 14 15  1  0  0  0  0
 15 16  2  0  0  0  0
 15 32  1  0  0  0  0
 16 17  1  0  0  0  0
 16 28  1  0  0  0  0
 17 18  2  0  0  0  0
 17 20  1  0  0  0  0
 18 19  1  0  0  0  0
 19 69  1  0  0  0  0
 20 21  2  0  0  0  0
 20 22  1  0  0  0  0
 22 23  2  0  0  0  0
 22 27  1  0  0  0  0
 23 24  1  0  0  0  0
 23 70  1  0  0  0  0
 24 25  2  0  0  0  0
 24 71  1  0  0  0  0
 25 26  1  0  0  0  0
 25 72  1  0  0  0  0
 26 27  2  0  0  0  0
 26 30  1  0  0  0  0
 27 28  1  0  0  0  0
 28 29  2  0  0  0  0
 30 31  1  0  0  0  0
 31 73  1  0  0  0  0
 31 74  1  0  0  0  0
 31 75  1  0  0  0  0
 32 76  1  0  0  0  0
 33 34  2  0  0  0  0
 33 50  1  0  0  0  0
 34 35  1  0  0  0  0
 35 36  1  0  0  0  0
 35 77  1  0  0  0  0
 36 37  2  0  0  0  0
 36 38  1  0  0  0  0
 38 39  1  0  0  0  0
 38 78  1  0  0  0  0
 38 79  1  0  0  0  0
 39 40  1  0  0  0  0
 39 80  1  0  0  0  0
 39 81  1  0  0  0  0
 40 41  1  0  0  0  0
 40 82  1  0  0  0  0
 40 83  1  0  0  0  0
 41 42  1  0  0  0  0
 41 84  1  0  0  0  0
 41 85  1  0  0  0  0
 42 43  1  0  0  0  0
 42 86  1  0  0  0  0
 42 87  1  0  0  0  0
 43 44  1  0  0  0  0
 43 48  1  0  0  0  0
 44 45  2  0  0  0  0
 44 46  1  0  0  0  0
 46 47  2  0  0  0  0
 46 88  1  0  0  0  0
 47 48  1  0  0  0  0
 47 89  1  0  0  0  0
 48 49  2  0  0  0  0
 50 51  1  0  0  0  0
 50 90  1  0  0  0  0
 50 91  1  0  0  0  0
 51 92  1  0  0  0  0
 52 93  1  0  0  0  0
 53 94  1  0  0  0  0
 53 95  1  0  0  0  0
 54 96  1  0  0  0  0
M  END
>  <DRUGBANK_ID>
DB06013

>  <COMMON_NAME>
Aldoxorubicin

>  <CAS_NUMBER>
1361644-26-9

>  <UNII>
C28MV4IM0B

>  <SYNONYMS>
Aldoxorubicin

$$$$
