68740
 OpenBabel10282417103D

 26 26  0  0  0  0  0  0  0  0999 V2000
    0.9010    0.0120   -0.0072 P   0  0  0  0  0  0  0  0  0  0  0  0
    3.3410   -1.0161   -1.3928 P   0  0  0  0  0  0  0  0  0  0  0  0
    3.1656    1.4015   -0.2630 O   0  0  0  0  0  0  0  0  0  0  0  0
    2.4003   -0.0261   -2.3217 O   0  0  0  0  0  0  0  0  0  0  0  0
    4.7310   -0.1219   -1.3963 O   0  0  0  0  0  0  0  0  0  0  0  0
    1.0036   -1.2901    0.9803 O   0  0  0  0  0  0  0  0  0  0  0  0
    0.9382    1.3024    0.9927 O   0  0  0  0  0  0  0  0  0  0  0  0
    3.8571   -1.8860   -2.5651 O   0  0  0  0  0  0  0  0  0  0  0  0
   -0.6474    0.0120   -0.0072 O   0  0  0  0  0  0  0  0  0  0  0  0
    2.9742    0.2889    2.5285 N   0  0  0  0  0  0  0  0  0  0  0  0
    2.6746    2.0594    3.8430 N   0  0  0  0  0  0  0  0  0  0  0  0
    2.7310    0.0120   -0.0072 C   0  0  0  0  0  0  0  0  0  0  0  0
    3.3607   -0.4732    1.3448 C   0  0  0  0  0  0  0  0  0  0  0  0
    2.3147   -0.1676    3.6382 C   0  0  0  0  0  0  0  0  0  0  0  0
    3.1793    1.6303    2.6977 C   0  0  0  0  0  0  0  0  0  0  0  0
    2.1400    0.9485    4.4298 C   0  0  0  0  0  0  0  0  0  0  0  0
    2.9764    1.5421   -1.2221 H   0  0  0  0  0  0  0  0  0  0  0  0
    2.0492   -0.5168   -3.0982 H   0  0  0  0  0  0  0  0  0  0  0  0
    4.9097    0.4831   -0.6474 H   0  0  0  0  0  0  0  0  0  0  0  0
    0.2263   -1.8775    0.8931 H   0  0  0  0  0  0  0  0  0  0  0  0
    1.5967    1.9885    0.7417 H   0  0  0  0  0  0  0  0  0  0  0  0
    3.1263   -1.5296    1.5352 H   0  0  0  0  0  0  0  0  0  0  0  0
    4.4529   -0.4274    1.3137 H   0  0  0  0  0  0  0  0  0  0  0  0
    1.9968   -1.1906    3.7694 H   0  0  0  0  0  0  0  0  0  0  0  0
    3.6312    2.2601    1.9544 H   0  0  0  0  0  0  0  0  0  0  0  0
    1.6511    1.0148    5.3947 H   0  0  0  0  0  0  0  0  0  0  0  0
  1  6  1  0  0  0  0
  1  7  1  0  0  0  0
  1  9  2  0  0  0  0
  1 12  1  0  0  0  0
  2  4  1  0  0  0  0
  2  5  1  0  0  0  0
  2  8  2  0  0  0  0
  2 12  1  0  0  0  0
  3 12  1  0  0  0  0
  3 17  1  0  0  0  0
  4 18  1  0  0  0  0
  5 19  1  0  0  0  0
  6 20  1  0  0  0  0
  7 21  1  0  0  0  0
 10 13  1  0  0  0  0
 10 14  1  0  0  0  0
 10 15  1  0  0  0  0
 11 15  2  0  0  0  0
 11 16  1  0  0  0  0
 12 13  1  0  0  0  0
 13 22  1  0  0  0  0
 13 23  1  0  0  0  0
 14 16  2  0  0  0  0
 14 24  1  0  0  0  0
 15 25  1  0  0  0  0
 16 26  1  0  0  0  0
M  END
>  <DRUGBANK_ID>
DB00399

>  <SECONDARY_ACCESSION_NUMBERS>
APRD01294; DB06286

>  <COMMON_NAME>
Zoledronic acid

>  <CAS_NUMBER>
118072-93-8

>  <UNII>
70HZ18PH24

>  <SYNONYMS>
(1-hydroxy-2-(1H-imidazol-1-yl)ethylidene)bisphosphonic acid; (1-hydroxy-2-imidazol-1-ylethylidene)diphosphonic acid; ácido zoledrónico; Anhydrous Zoledronic Acid; Nanoparticles containing Zoledronic acid; Zol; Zoledronate; Zoledronic acid; Zoledronic Acid Anhydrous; Zoledronic Acid, Anhydrous

$$$$
