
 OpenBabel10282417173D

 51 53  0  0  0  0  0  0  0  0999 V2000
    1.0047    0.0994   -0.1316 S   0  0  0  0  0  0  0  0  0  0  0  0
    0.3938    1.6684   -0.2800 N   0  0  0  0  0  0  0  0  0  0  0  0
   -0.6340    2.0997   -1.1068 C   0  0  0  0  0  0  0  0  0  0  0  0
   -0.7309    3.4431   -1.3391 N   0  0  0  0  0  0  0  0  0  0  0  0
    0.5911   -0.9098   -1.5437 C   0  0  0  0  0  0  0  0  0  0  0  0
    0.3754   -0.4696    1.0430 O   0  0  0  0  0  0  0  0  0  0  0  0
    2.4486    0.2339   -0.1705 O   0  0  0  0  0  0  0  0  0  0  0  0
   -1.4129    1.3294   -1.6602 O   0  0  0  0  0  0  0  0  0  0  0  0
    0.2326   -0.3452   -2.7646 C   0  0  0  0  0  0  0  0  0  0  0  0
    0.6832   -2.3031   -1.4536 C   0  0  0  0  0  0  0  0  0  0  0  0
    0.3922   -3.0895   -2.5818 C   0  0  0  0  0  0  0  0  0  0  0  0
   -0.2226   -1.1228   -3.8200 C   0  0  0  0  0  0  0  0  0  0  0  0
   -0.0880   -2.5029   -3.7615 C   0  0  0  0  0  0  0  0  0  0  0  0
   -0.3699   -3.2922   -5.0018 C   0  0  0  0  0  0  0  0  0  0  0  0
   -1.5995    3.9242   -2.4246 C   0  0  1  0  0  0  0  0  0  0  0  0
   -2.9572    4.5236   -1.9511 C   0  0  1  0  0  0  0  0  0  0  0  0
   -1.0071    5.0761   -3.2946 C   0  0  1  0  0  0  0  0  0  0  0  0
   -2.6429    5.5704   -0.8621 C   0  0  0  0  0  0  0  0  0  0  0  0
   -2.0752    6.2011   -3.1354 C   0  0  2  0  0  0  0  0  0  0  0  0
   -2.0118    6.7213   -1.6704 C   0  0  0  0  0  0  0  0  0  0  0  0
   -3.4095    5.4040   -3.1507 C   0  0  0  0  0  0  0  0  0  0  0  0
   -1.9715    7.2979   -4.1807 C   0  0  0  0  0  0  0  0  0  0  0  0
    0.2988    5.4759   -2.9170 O   0  0  0  0  0  0  0  0  0  0  0  0
   -4.6668    6.2556   -2.8831 C   0  0  0  0  0  0  0  0  0  0  0  0
   -3.6885    4.6324   -4.4531 C   0  0  0  0  0  0  0  0  0  0  0  0
    0.8273    2.2953    0.3892 H   0  0  0  0  0  0  0  0  0  0  0  0
   -0.3479    4.0831   -0.6602 H   0  0  0  0  0  0  0  0  0  0  0  0
    0.2817    0.7189   -2.9414 H   0  0  0  0  0  0  0  0  0  0  0  0
    1.0403   -2.7827   -0.5437 H   0  0  0  0  0  0  0  0  0  0  0  0
    0.5641   -4.1628   -2.5452 H   0  0  0  0  0  0  0  0  0  0  0  0
   -0.6223   -0.6288   -4.7025 H   0  0  0  0  0  0  0  0  0  0  0  0
   -1.4182   -3.1841   -5.2974 H   0  0  0  0  0  0  0  0  0  0  0  0
    0.2653   -2.9226   -5.8164 H   0  0  0  0  0  0  0  0  0  0  0  0
   -0.1495   -4.3520   -4.8580 H   0  0  0  0  0  0  0  0  0  0  0  0
   -1.8166    3.0858   -3.1000 H   0  0  0  0  0  0  0  0  0  0  0  0
   -3.6866    3.7704   -1.6403 H   0  0  0  0  0  0  0  0  0  0  0  0
   -0.9336    4.7585   -4.3421 H   0  0  0  0  0  0  0  0  0  0  0  0
   -1.9777    5.1964   -0.0803 H   0  0  0  0  0  0  0  0  0  0  0  0
   -3.5518    5.8981   -0.3492 H   0  0  0  0  0  0  0  0  0  0  0  0
   -0.9955    6.9429   -1.3342 H   0  0  0  0  0  0  0  0  0  0  0  0
   -2.5860    7.6426   -1.5356 H   0  0  0  0  0  0  0  0  0  0  0  0
   -2.0981    6.8949   -5.1921 H   0  0  0  0  0  0  0  0  0  0  0  0
   -2.7491    8.0556   -4.0358 H   0  0  0  0  0  0  0  0  0  0  0  0
   -1.0015    7.7998   -4.1402 H   0  0  0  0  0  0  0  0  0  0  0  0
    0.3114    5.5980   -1.9576 H   0  0  0  0  0  0  0  0  0  0  0  0
   -4.8462    6.9462   -3.7150 H   0  0  0  0  0  0  0  0  0  0  0  0
   -5.5480    5.6133   -2.7850 H   0  0  0  0  0  0  0  0  0  0  0  0
   -4.6169    6.8673   -1.9803 H   0  0  0  0  0  0  0  0  0  0  0  0
   -2.8535    4.0294   -4.8127 H   0  0  0  0  0  0  0  0  0  0  0  0
   -4.5358    3.9528   -4.3183 H   0  0  0  0  0  0  0  0  0  0  0  0
   -3.9383    5.3284   -5.2625 H   0  0  0  0  0  0  0  0  0  0  0  0
  1  2  1  0  0  0  0
  1  5  1  0  0  0  0
  1  6  2  0  0  0  0
  1  7  2  0  0  0  0
  2  3  1  0  0  0  0
  2 26  1  0  0  0  0
  3  4  1  0  0  0  0
  3  8  2  0  0  0  0
  4 27  1  0  0  0  0
  5  9  2  0  0  0  0
  5 10  1  0  0  0  0
  9 12  1  0  0  0  0
  9 28  1  0  0  0  0
 10 11  2  0  0  0  0
 10 29  1  0  0  0  0
 11 13  1  0  0  0  0
 11 30  1  0  0  0  0
 12 13  2  0  0  0  0
 12 31  1  0  0  0  0
 13 14  1  0  0  0  0
 14 32  1  0  0  0  0
 14 33  1  0  0  0  0
 14 34  1  0  0  0  0
 15  4  1  0  0  0  0
 15 16  1  0  0  0  0
 15 17  1  0  0  0  0
 15 35  1  6  0  0  0
 16 18  1  0  0  0  0
 16 21  1  0  0  0  0
 16 36  1  1  0  0  0
 17 19  1  0  0  0  0
 17 23  1  0  0  0  0
 17 37  1  6  0  0  0
 18 20  1  0  0  0  0
 18 38  1  0  0  0  0
 18 39  1  0  0  0  0
 19 20  1  0  0  0  0
 19 21  1  0  0  0  0
 19 22  1  6  0  0  0
 20 40  1  0  0  0  0
 20 41  1  0  0  0  0
 21 24  1  0  0  0  0
 21 25  1  0  0  0  0
 22 42  1  0  0  0  0
 22 43  1  0  0  0  0
 22 44  1  0  0  0  0
 23 45  1  0  0  0  0
 24 46  1  0  0  0  0
 24 47  1  0  0  0  0
 24 48  1  0  0  0  0
 25 49  1  0  0  0  0
 25 50  1  0  0  0  0
 25 51  1  0  0  0  0
M  END
>  <DRUGBANK_ID>
DB08962

>  <COMMON_NAME>
Glibornuride

>  <CAS_NUMBER>
26944-48-9

>  <UNII>
VP83E7434R

>  <SYNONYMS>
Glibornurid; Glibornurida; Glibornuride; Glibornuridum

$$$$
