
 OpenBabel10282417203D

140144  0  0  0  0  0  0  0  0999 V2000
    0.9006    0.0124   -0.7320 C   0  0  0  0  0  0  0  0  0  0  0  0
    0.5758    1.3449    0.0999 N   0  0  0  0  0  0  0  0  0  0  0  0
   -1.1293    1.2939   -0.3016 C   0  0  0  0  0  0  0  0  0  0  0  0
    1.3716    1.8840    1.9171 C   0  0  0  0  0  0  0  0  0  0  0  0
    1.4828    1.0303    3.3650 C   0  0  0  0  0  0  0  0  0  0  0  0
    1.7351   -0.4539    3.4029 N   0  0  0  0  0  0  0  0  0  0  0  0
    2.5170   -1.2721    4.1445 C   0  0  0  0  0  0  0  0  0  0  0  0
    2.8622   -2.4236    3.9448 O   0  0  0  0  0  0  0  0  0  0  0  0
    2.7464   -0.5639    5.3310 C   0  0  0  0  0  0  0  0  0  0  0  0
    3.3225    0.6020    4.7794 O   0  0  0  0  0  0  0  0  0  0  0  0
    4.2709    0.5491    3.7730 C   0  0  0  0  0  0  0  0  0  0  0  0
    4.3329   -0.0798    2.4678 C   0  0  0  0  0  0  0  0  0  0  0  0
    5.5984   -0.3355    1.9750 C   0  0  0  0  0  0  0  0  0  0  0  0
    6.6828    0.3048    2.5342 C   0  0  0  0  0  0  0  0  0  0  0  0
    6.5292    1.1654    3.6277 C   0  0  0  0  0  0  0  0  0  0  0  0
    5.3176    1.2920    4.2739 C   0  0  0  0  0  0  0  0  0  0  0  0
    5.0469    2.2228    5.4598 C   0  0  0  0  0  0  0  0  0  0  0  0
    4.0427    3.3415    5.1326 C   0  0  0  0  0  0  0  0  0  0  0  0
    4.3547    4.1565    4.0213 C   0  0  0  0  0  0  0  0  0  0  0  0
    3.5053    5.1683    3.6093 C   0  0  0  0  0  0  0  0  0  0  0  0
    2.3115    5.3512    4.2761 C   0  0  0  0  0  0  0  0  0  0  0  0
    1.9238    4.5236    5.3497 C   0  0  0  0  0  0  0  0  0  0  0  0
    2.8131    3.5406    5.8339 C   0  0  0  0  0  0  0  0  0  0  0  0
    2.6005    2.7137    6.9159 O   0  0  0  0  0  0  0  0  0  0  0  0
    1.4713    2.8835    7.7708 C   0  0  0  0  0  0  0  0  0  0  0  0
    1.3224    4.2407    8.4808 C   0  0  0  0  0  0  0  0  0  0  0  0
    0.3404    4.9843    8.4936 O   0  0  0  0  0  0  0  0  0  0  0  0
    2.3672    4.6757    9.1790 N   0  0  0  0  0  0  0  0  0  0  0  0
    3.5429    3.9415    9.5579 C   0  0  0  0  0  0  0  0  0  0  0  0
    4.8414    4.5900    9.0780 C   0  0  0  0  0  0  0  0  0  0  0  0
    5.1021    5.9102    9.6920 N   0  0  0  0  0  0  0  0  0  0  0  0
    6.4020    6.4021    9.2498 C   0  0  0  0  0  0  0  0  0  0  0  0
    4.1123    6.9182    9.3129 C   0  0  0  0  0  0  0  0  0  0  0  0
    0.5390    4.8181    5.8483 C   0  0  0  0  0  0  0  0  0  0  0  0
   -0.5797    4.5796    4.9022 C   0  0  0  0  0  0  0  0  0  0  0  0
   -1.2815    5.7074    4.4923 C   0  0  0  0  0  0  0  0  0  0  0  0
   -2.2116    5.5958    3.4927 C   0  0  0  0  0  0  0  0  0  0  0  0
   -2.4086    4.3680    2.9052 C   0  0  0  0  0  0  0  0  0  0  0  0
   -1.7738    3.2180    3.3765 C   0  0  0  0  0  0  0  0  0  0  0  0
   -0.9357    3.2891    4.4792 C   0  0  0  0  0  0  0  0  0  0  0  0
   -0.4051    2.2559    5.1961 O   0  0  0  0  0  0  0  0  0  0  0  0
   -0.7885    0.9246    4.9960 C   0  0  0  0  0  0  0  0  0  0  0  0
   -2.0941    0.2553    4.9595 C   0  0  0  0  0  0  0  0  0  0  0  0
   -2.6898   -0.2868    4.0348 O   0  0  0  0  0  0  0  0  0  0  0  0
   -2.5564    0.0961    6.1557 N   0  0  0  0  0  0  0  0  0  0  0  0
   -1.8963    0.5658    7.3304 C   0  0  0  0  0  0  0  0  0  0  0  0
   -2.4979    1.8493    7.8511 C   0  0  0  0  0  0  0  0  0  0  0  0
   -3.9156    1.6244    8.1600 N   0  0  0  0  0  0  0  0  0  0  0  0
   -4.4274    2.7877    8.8510 C   0  0  0  0  0  0  0  0  0  0  0  0
   -4.7546    1.4314    6.9742 C   0  0  0  0  0  0  0  0  0  0  0  0
   -1.8951    2.0678    2.4477 C   0  0  0  0  0  0  0  0  0  0  0  0
   -0.6168    1.8052    1.7399 C   0  0  0  0  0  0  0  0  0  0  0  0
    0.1232    3.2500    0.8731 C   0  0  0  0  0  0  0  0  0  0  0  0
    1.7611    3.1320    0.1824 C   0  0  0  0  0  0  0  0  0  0  0  0
    2.7156    1.6434    0.2999 C   0  0  0  0  0  0  0  0  0  0  0  0
    2.0468    0.1804    1.1339 C   0  0  0  0  0  0  0  0  0  0  0  0
    0.2512    0.1527    1.7183 C   0  0  0  0  0  0  0  0  0  0  0  0
   -0.3629   -0.9242    2.6054 O   0  0  0  0  0  0  0  0  0  0  0  0
    0.2379   -2.3100    3.2645 C   0  0  0  0  0  0  0  0  0  0  0  0
    0.9329   -3.0096    2.1017 C   0  0  0  0  0  0  0  0  0  0  0  0
    2.0734   -3.2849    1.7637 O   0  0  0  0  0  0  0  0  0  0  0  0
    0.0707   -3.1687    1.1166 N   0  0  0  0  0  0  0  0  0  0  0  0
   -1.3422   -2.9959    1.2519 C   0  0  0  0  0  0  0  0  0  0  0  0
   -1.9282   -2.1069    0.1970 C   0  0  0  0  0  0  0  0  0  0  0  0
   -1.8321   -2.6808   -1.1453 N   0  0  0  0  0  0  0  0  0  0  0  0
   -2.5145   -1.7945   -2.0680 C   0  0  0  0  0  0  0  0  0  0  0  0
   -0.4677   -2.8537   -1.6357 C   0  0  0  0  0  0  0  0  0  0  0  0
    3.2668   -0.6787    1.5106 C   0  0  0  0  0  0  0  0  0  0  0  0
    0.3960    0.0119   -1.6859 H   0  0  0  0  0  0  0  0  0  0  0  0
    0.5682   -0.8725   -0.1647 H   0  0  0  0  0  0  0  0  0  0  0  0
    1.9561   -0.1848   -0.9670 H   0  0  0  0  0  0  0  0  0  0  0  0
   -1.6873    0.6099    0.3703 H   0  0  0  0  0  0  0  0  0  0  0  0
   -1.6363    2.2681   -0.2058 H   0  0  0  0  0  0  0  0  0  0  0  0
   -1.3438    0.9496   -1.3027 H   0  0  0  0  0  0  0  0  0  0  0  0
    2.4439    2.2348    2.0529 H   0  0  0  0  0  0  0  0  0  0  0  0
    1.0251    2.8465    2.4523 H   0  0  0  0  0  0  0  0  0  0  0  0
    1.5798    1.5501    4.2995 H   0  0  0  0  0  0  0  0  0  0  0  0
    0.4715    1.0880    3.4056 H   0  0  0  0  0  0  0  0  0  0  0  0
    1.4362   -0.9666    2.5961 H   0  0  0  0  0  0  0  0  0  0  0  0
    1.7249   -0.4234    5.7150 H   0  0  0  0  0  0  0  0  0  0  0  0
    3.3427   -1.2341    5.9127 H   0  0  0  0  0  0  0  0  0  0  0  0
    5.7108   -1.0232    1.1381 H   0  0  0  0  0  0  0  0  0  0  0  0
    7.6431    0.1752    2.0570 H   0  0  0  0  0  0  0  0  0  0  0  0
    7.3706    1.7344    3.9843 H   0  0  0  0  0  0  0  0  0  0  0  0
    5.9906    2.6683    5.7712 H   0  0  0  0  0  0  0  0  0  0  0  0
    4.6941    1.6312    6.3185 H   0  0  0  0  0  0  0  0  0  0  0  0
    5.2603    3.9790    3.4462 H   0  0  0  0  0  0  0  0  0  0  0  0
    3.7447    5.7926    2.7552 H   0  0  0  0  0  0  0  0  0  0  0  0
    1.6340    6.1327    3.9363 H   0  0  0  0  0  0  0  0  0  0  0  0
    0.5691    2.5543    7.2655 H   0  0  0  0  0  0  0  0  0  0  0  0
    1.5220    2.1597    8.5899 H   0  0  0  0  0  0  0  0  0  0  0  0
    2.0975    5.5396    9.6165 H   0  0  0  0  0  0  0  0  0  0  0  0
    3.5094    3.8613   10.6456 H   0  0  0  0  0  0  0  0  0  0  0  0
    3.4898    2.9262    9.1624 H   0  0  0  0  0  0  0  0  0  0  0  0
    5.6465    3.8945    9.3554 H   0  0  0  0  0  0  0  0  0  0  0  0
    4.8491    4.6551    7.9810 H   0  0  0  0  0  0  0  0  0  0  0  0
    6.4308    6.5265    8.1615 H   0  0  0  0  0  0  0  0  0  0  0  0
    6.5961    7.3727    9.7174 H   0  0  0  0  0  0  0  0  0  0  0  0
    7.2019    5.7246    9.5581 H   0  0  0  0  0  0  0  0  0  0  0  0
    3.9460    6.9503    8.2289 H   0  0  0  0  0  0  0  0  0  0  0  0
    3.1839    6.7651    9.8437 H   0  0  0  0  0  0  0  0  0  0  0  0
    4.3738    7.9128    9.6778 H   0  0  0  0  0  0  0  0  0  0  0  0
    0.5334    5.8319    6.2671 H   0  0  0  0  0  0  0  0  0  0  0  0
    0.1766    4.1657    6.5996 H   0  0  0  0  0  0  0  0  0  0  0  0
   -1.0749    6.6656    4.9569 H   0  0  0  0  0  0  0  0  0  0  0  0
   -2.7280    6.4639    3.1175 H   0  0  0  0  0  0  0  0  0  0  0  0
   -3.0271    4.2818    2.0200 H   0  0  0  0  0  0  0  0  0  0  0  0
   -0.7547    0.6470    4.0073 H   0  0  0  0  0  0  0  0  0  0  0  0
   -0.0630    0.2421    5.4591 H   0  0  0  0  0  0  0  0  0  0  0  0
   -3.4239   -0.3850    6.0046 H   0  0  0  0  0  0  0  0  0  0  0  0
   -1.9120   -0.2938    7.9821 H   0  0  0  0  0  0  0  0  0  0  0  0
   -0.8309    0.7815    7.1862 H   0  0  0  0  0  0  0  0  0  0  0  0
   -1.9113    2.0971    8.7471 H   0  0  0  0  0  0  0  0  0  0  0  0
   -2.3549    2.6963    7.1569 H   0  0  0  0  0  0  0  0  0  0  0  0
   -4.3727    3.6753    8.2127 H   0  0  0  0  0  0  0  0  0  0  0  0
   -5.4681    2.5885    9.1125 H   0  0  0  0  0  0  0  0  0  0  0  0
   -3.8695    2.9574    9.7733 H   0  0  0  0  0  0  0  0  0  0  0  0
   -4.5678    2.1766    6.1909 H   0  0  0  0  0  0  0  0  0  0  0  0
   -4.6693    0.4370    6.5733 H   0  0  0  0  0  0  0  0  0  0  0  0
   -5.8123    1.3776    7.2224 H   0  0  0  0  0  0  0  0  0  0  0  0
   -2.7714    2.1040    1.8019 H   0  0  0  0  0  0  0  0  0  0  0  0
   -2.0736    1.1953    2.9743 H   0  0  0  0  0  0  0  0  0  0  0  0
   -0.4200    4.1920    0.7920 H   0  0  0  0  0  0  0  0  0  0  0  0
    2.2261    3.9788   -0.3158 H   0  0  0  0  0  0  0  0  0  0  0  0
    3.7942    1.6662    0.1312 H   0  0  0  0  0  0  0  0  0  0  0  0
    0.6919   -2.1555    4.2448 H   0  0  0  0  0  0  0  0  0  0  0  0
   -0.5370   -2.9604    3.7026 H   0  0  0  0  0  0  0  0  0  0  0  0
    0.6102   -3.5460    0.3611 H   0  0  0  0  0  0  0  0  0  0  0  0
   -1.7446   -3.9917    1.3222 H   0  0  0  0  0  0  0  0  0  0  0  0
   -1.6308   -2.5427    2.2017 H   0  0  0  0  0  0  0  0  0  0  0  0
   -2.9594   -1.8889    0.5095 H   0  0  0  0  0  0  0  0  0  0  0  0
   -1.4287   -1.1524    0.2095 H   0  0  0  0  0  0  0  0  0  0  0  0
   -2.0463   -0.8087   -2.1227 H   0  0  0  0  0  0  0  0  0  0  0  0
   -2.4718   -2.2489   -3.0566 H   0  0  0  0  0  0  0  0  0  0  0  0
   -3.5603   -1.6778   -1.7785 H   0  0  0  0  0  0  0  0  0  0  0  0
    0.1179   -1.9496   -1.6126 H   0  0  0  0  0  0  0  0  0  0  0  0
    0.0675   -3.6408   -1.1339 H   0  0  0  0  0  0  0  0  0  0  0  0
   -0.4214   -3.2037   -2.6602 H   0  0  0  0  0  0  0  0  0  0  0  0
    3.6425   -1.0279    0.5428 H   0  0  0  0  0  0  0  0  0  0  0  0
    3.0878   -1.6198    1.9486 H   0  0  0  0  0  0  0  0  0  0  0  0
  1  2  1  0  0  0  0
  1 69  1  0  0  0  0
  1 70  1  0  0  0  0
  1 71  1  0  0  0  0
  2  3  1  0  0  0  0
  2  4  1  0  0  0  0
  3 72  1  0  0  0  0
  3 73  1  0  0  0  0
  3 74  1  0  0  0  0
  4  5  1  0  0  0  0
  4 75  1  0  0  0  0
  4 76  1  0  0  0  0
  5  6  1  0  0  0  0
  5 77  1  0  0  0  0
  5 78  1  0  0  0  0
  6  7  1  0  0  0  0
  6 79  1  0  0  0  0
  7  8  2  0  0  0  0
  7  9  1  0  0  0  0
  9 10  1  0  0  0  0
  9 80  1  0  0  0  0
  9 81  1  0  0  0  0
 10 11  1  0  0  0  0
 11 12  2  0  0  0  0
 11 16  1  0  0  0  0
 12 13  1  0  0  0  0
 12 68  1  0  0  0  0
 13 14  2  0  0  0  0
 13 82  1  0  0  0  0
 14 15  1  0  0  0  0
 14 83  1  0  0  0  0
 15 16  2  0  0  0  0
 15 84  1  0  0  0  0
 16 17  1  0  0  0  0
 17 18  1  0  0  0  0
 17 85  1  0  0  0  0
 17 86  1  0  0  0  0
 18 19  2  0  0  0  0
 18 23  1  0  0  0  0
 19 20  1  0  0  0  0
 19 87  1  0  0  0  0
 20 21  2  0  0  0  0
 20 88  1  0  0  0  0
 21 22  1  0  0  0  0
 21 89  1  0  0  0  0
 22 23  2  0  0  0  0
 22 34  1  0  0  0  0
 23 24  1  0  0  0  0
 24 25  1  0  0  0  0
 25 26  1  0  0  0  0
 25 90  1  0  0  0  0
 25 91  1  0  0  0  0
 26 27  2  0  0  0  0
 26 28  1  0  0  0  0
 28 29  1  0  0  0  0
 28 92  1  0  0  0  0
 29 30  1  0  0  0  0
 29 93  1  0  0  0  0
 29 94  1  0  0  0  0
 30 31  1  0  0  0  0
 30 95  1  0  0  0  0
 30 96  1  0  0  0  0
 31 32  1  0  0  0  0
 31 33  1  0  0  0  0
 32 97  1  0  0  0  0
 32 98  1  0  0  0  0
 32 99  1  0  0  0  0
 33100  1  0  0  0  0
 33101  1  0  0  0  0
 33102  1  0  0  0  0
 34 35  1  0  0  0  0
 34103  1  0  0  0  0
 34104  1  0  0  0  0
 35 36  2  0  0  0  0
 35 40  1  0  0  0  0
 36 37  1  0  0  0  0
 36105  1  0  0  0  0
 37 38  2  0  0  0  0
 37106  1  0  0  0  0
 38 39  1  0  0  0  0
 38107  1  0  0  0  0
 39 40  2  0  0  0  0
 39 51  1  0  0  0  0
 40 41  1  0  0  0  0
 41 42  1  0  0  0  0
 42 43  1  0  0  0  0
 42108  1  0  0  0  0
 42109  1  0  0  0  0
 43 44  2  0  0  0  0
 43 45  1  0  0  0  0
 45 46  1  0  0  0  0
 45110  1  0  0  0  0
 46 47  1  0  0  0  0
 46111  1  0  0  0  0
 46112  1  0  0  0  0
 47 48  1  0  0  0  0
 47113  1  0  0  0  0
 47114  1  0  0  0  0
 48 49  1  0  0  0  0
 48 50  1  0  0  0  0
 49115  1  0  0  0  0
 49116  1  0  0  0  0
 49117  1  0  0  0  0
 50118  1  0  0  0  0
 50119  1  0  0  0  0
 50120  1  0  0  0  0
 51 52  1  0  0  0  0
 51121  1  0  0  0  0
 51122  1  0  0  0  0
 52 53  2  0  0  0  0
 52 57  1  0  0  0  0
 53 54  1  0  0  0  0
 53123  1  0  0  0  0
 54 55  2  0  0  0  0
 54124  1  0  0  0  0
 55 56  1  0  0  0  0
 55125  1  0  0  0  0
 56 57  2  0  0  0  0
 56 68  1  0  0  0  0
 57 58  1  0  0  0  0
 58 59  1  0  0  0  0
 59 60  1  0  0  0  0
 59126  1  0  0  0  0
 59127  1  0  0  0  0
 60 61  2  0  0  0  0
 60 62  1  0  0  0  0
 62 63  1  0  0  0  0
 62128  1  0  0  0  0
 63 64  1  0  0  0  0
 63129  1  0  0  0  0
 63130  1  0  0  0  0
 64 65  1  0  0  0  0
 64131  1  0  0  0  0
 64132  1  0  0  0  0
 65 66  1  0  0  0  0
 65 67  1  0  0  0  0
 66133  1  0  0  0  0
 66134  1  0  0  0  0
 66135  1  0  0  0  0
 67136  1  0  0  0  0
 67137  1  0  0  0  0
 67138  1  0  0  0  0
 68139  1  0  0  0  0
 68140  1  0  0  0  0
M  END
>  <DRUGBANK_ID>
DB13123

>  <COMMON_NAME>
OTX-008

>  <CAS_NUMBER>
286936-40-1

>  <UNII>
8JI63CFH5V

$$$$
