
 OpenBabel10282417133D

 30 32  0  0  0  0  0  0  0  0999 V2000
    0.8697   -0.0030    0.1629 O   0  0  0  0  0  0  0  0  0  0  0  0
    0.3019    0.9467    0.9310 C   0  0  0  0  0  0  0  0  0  0  0  0
    0.9761    1.7853    1.5145 O   0  0  0  0  0  0  0  0  0  0  0  0
   -9.5169    3.6303    0.8021 O   0  0  0  0  0  0  0  0  0  0  0  0
   -8.4434    4.2023    0.7769 C   0  0  0  0  0  0  0  0  0  0  0  0
   -8.3957    5.5537    0.7150 O   0  0  0  0  0  0  0  0  0  0  0  0
   -2.2802    4.3361    0.7232 O   0  0  0  0  0  0  0  0  0  0  0  0
   -3.4546    4.6528    0.7298 C   0  0  0  0  0  0  0  0  0  0  0  0
   -3.7528    5.9590    0.6732 O   0  0  0  0  0  0  0  0  0  0  0  0
   -4.4693   -1.8568    1.0536 O   0  0  0  0  0  0  0  0  0  0  0  0
   -4.4901   -0.6353    0.9878 C   0  0  0  0  0  0  0  0  0  0  0  0
   -5.8157    0.1267    0.9595 C   0  0  0  0  0  0  0  0  0  0  0  0
   -6.8648   -0.5047    0.9893 O   0  0  0  0  0  0  0  0  0  0  0  0
   -3.2771    0.1448    0.9403 C   0  0  0  0  0  0  0  0  0  0  0  0
   -3.3073    1.5264    0.8916 C   0  0  0  0  0  0  0  0  0  0  0  0
   -1.9837    1.9200    0.9046 N   0  0  0  0  0  0  0  0  0  0  0  0
   -1.1293    0.8390    0.9148 C   0  0  0  0  0  0  0  0  0  0  0  0
   -1.9291   -0.2855    0.9381 C   0  0  0  0  0  0  0  0  0  0  0  0
   -4.5432    2.3406    0.8583 C   0  0  0  0  0  0  0  0  0  0  0  0
   -5.7722    1.6372    0.8927 C   0  0  0  0  0  0  0  0  0  0  0  0
   -7.0052    2.2310    0.8668 N   0  0  0  0  0  0  0  0  0  0  0  0
   -7.0669    3.5798    0.8057 C   0  0  0  0  0  0  0  0  0  0  0  0
   -5.9205    4.3602    0.7677 C   0  0  0  0  0  0  0  0  0  0  0  0
   -4.6459    3.7496    0.7900 C   0  0  0  0  0  0  0  0  0  0  0  0
    1.8323    0.1639    0.2223 H   0  0  0  0  0  0  0  0  0  0  0  0
   -9.3369    5.8385    0.7018 H   0  0  0  0  0  0  0  0  0  0  0  0
   -2.8629    6.3798    0.6407 H   0  0  0  0  0  0  0  0  0  0  0  0
   -1.6555    2.8819    0.8722 H   0  0  0  0  0  0  0  0  0  0  0  0
   -1.5776   -1.3091    0.9835 H   0  0  0  0  0  0  0  0  0  0  0  0
   -6.0199    5.4420    0.7184 H   0  0  0  0  0  0  0  0  0  0  0  0
  1  2  1  0  0  0  0
  1 25  1  0  0  0  0
  2  3  2  0  0  0  0
  2 17  1  0  0  0  0
  4  5  2  0  0  0  0
  5  6  1  0  0  0  0
  5 22  1  0  0  0  0
  6 26  1  0  0  0  0
  7  8  2  0  0  0  0
  8  9  1  0  0  0  0
  8 24  1  0  0  0  0
  9 27  1  0  0  0  0
 10 11  2  0  0  0  0
 11 12  1  0  0  0  0
 11 14  1  0  0  0  0
 12 13  2  0  0  0  0
 12 20  1  0  0  0  0
 14 15  2  0  0  0  0
 14 18  1  0  0  0  0
 15 16  1  0  0  0  0
 15 19  1  0  0  0  0
 16 17  1  0  0  0  0
 16 28  1  0  0  0  0
 17 18  2  0  0  0  0
 18 29  1  0  0  0  0
 19 20  2  0  0  0  0
 19 24  1  0  0  0  0
 20 21  1  0  0  0  0
 21 22  2  0  0  0  0
 22 23  1  0  0  0  0
 23 24  2  0  0  0  0
 23 30  1  0  0  0  0
M  END
>  <DRUGBANK_ID>
DB03205

>  <SECONDARY_ACCESSION_NUMBERS>
EXPT02652

>  <COMMON_NAME>
Pyrroloquinoline Quinone

>  <CAS_NUMBER>
72909-34-3

>  <UNII>
47819QGH5L

$$$$
