FOK
 OpenBabel10282417123D

 63 65  0  0  0  0  0  0  0  0999 V2000
   -1.4659   -1.4646   -0.7741 C   0  0  1  0  0  0  0  0  0  0  0  0
   -1.4768   -2.8536   -0.4590 O   0  0  0  0  0  0  0  0  0  0  0  0
   -2.7629   -0.7891    0.1223 C   0  0  0  0  0  0  0  0  0  0  0  0
   -2.7560    0.8695   -0.0173 C   0  0  0  0  0  0  0  0  0  0  0  0
   -1.3140    1.8437    0.5927 C   0  0  0  0  0  0  0  0  0  0  0  0
    0.1233    1.2736   -0.4558 C   0  0  2  0  0  0  0  0  0  0  0  0
    1.4456    1.6090    0.3104 C   0  0  2  0  0  0  0  0  0  0  0  0
    1.7359    2.9990    0.3815 O   0  0  0  0  0  0  0  0  0  0  0  0
    2.5780    0.7594   -0.1898 C   0  0  2  0  0  0  0  0  0  0  0  0
    2.7916    1.2457   -1.6406 O   0  0  0  0  0  0  0  0  0  0  0  0
    2.6601   -1.0001    0.1331 C   0  0  1  0  0  0  0  0  0  0  0  0
    2.9825   -2.2967    1.2269 O   0  0  0  0  0  0  0  0  0  0  0  0
    1.2324   -1.5049   -0.0626 C   0  0  1  0  0  0  0  0  0  0  0  0
    0.8682   -1.8935    1.3673 O   0  0  0  0  0  0  0  0  0  0  0  0
    0.0318   -0.6227   -0.4948 C   0  0  1  0  0  0  0  0  0  0  0  0
    1.4142   -2.6469   -1.0819 C   0  0  0  0  0  0  0  0  0  0  0  0
    0.7911   -2.7222   -2.1311 O   0  0  0  0  0  0  0  0  0  0  0  0
    2.5767   -3.5638   -0.8229 C   0  0  0  0  0  0  0  0  0  0  0  0
    2.4439   -3.8293    0.6540 C   0  0  2  0  0  0  0  0  0  0  0  0
    0.9758   -4.4439    0.9222 C   0  0  0  0  0  0  0  0  0  0  0  0
    0.3702   -5.2416   -0.0022 C   0  0  0  0  0  0  0  0  0  0  0  0
    3.1099   -5.2466    1.0923 C   0  0  0  0  0  0  0  0  0  0  0  0
    4.0880   -0.9379   -0.4373 C   0  0  0  0  0  0  0  0  0  0  0  0
   -1.8546    3.2457    0.6926 C   0  0  0  0  0  0  0  0  0  0  0  0
   -0.7649    1.7736    2.1884 C   0  0  0  0  0  0  0  0  0  0  0  0
   -0.4722   -0.3421    0.7915 C   0  0  0  0  0  0  0  0  0  0  0  0
    2.2550    1.0896   -2.8952 C   0  0  0  0  0  0  0  0  0  0  0  0
    2.4248    1.8463   -3.7833 O   0  0  0  0  0  0  0  0  0  0  0  0
    1.5383   -0.2055   -3.0937 C   0  0  0  0  0  0  0  0  0  0  0  0
   -1.5904   -1.3978   -1.8460 H   0  0  0  0  0  0  0  0  0  0  0  0
    0.0299    1.6545   -1.4832 H   0  0  0  0  0  0  0  0  0  0  0  0
    1.4675    1.3481    1.3626 H   0  0  0  0  0  0  0  0  0  0  0  0
    3.4374    1.2725    0.2561 H   0  0  0  0  0  0  0  0  0  0  0  0
   -2.1336   -3.2368   -1.0703 H   0  0  0  0  0  0  0  0  0  0  0  0
   -3.7149   -1.2919   -0.0536 H   0  0  0  0  0  0  0  0  0  0  0  0
   -2.6695   -1.0758    1.1941 H   0  0  0  0  0  0  0  0  0  0  0  0
   -3.7362    1.3015    0.2011 H   0  0  0  0  0  0  0  0  0  0  0  0
   -2.6571    0.9942   -1.1085 H   0  0  0  0  0  0  0  0  0  0  0  0
    2.1141    3.1408    1.2762 H   0  0  0  0  0  0  0  0  0  0  0  0
    1.3057   -1.2668    1.9940 H   0  0  0  0  0  0  0  0  0  0  0  0
    2.6231   -4.4402   -1.4629 H   0  0  0  0  0  0  0  0  0  0  0  0
    3.4488   -2.9855   -1.0903 H   0  0  0  0  0  0  0  0  0  0  0  0
    0.6436   -4.5937    1.9530 H   0  0  0  0  0  0  0  0  0  0  0  0
   -0.4269   -5.9429    0.2307 H   0  0  0  0  0  0  0  0  0  0  0  0
    0.7201   -5.3180   -1.0307 H   0  0  0  0  0  0  0  0  0  0  0  0
    3.8378   -5.2712    1.8958 H   0  0  0  0  0  0  0  0  0  0  0  0
    2.3606   -5.9984    1.4779 H   0  0  0  0  0  0  0  0  0  0  0  0
    3.4168   -5.8288    0.2054 H   0  0  0  0  0  0  0  0  0  0  0  0
    4.8011   -1.6696   -0.0705 H   0  0  0  0  0  0  0  0  0  0  0  0
    4.0917   -0.7966   -1.5145 H   0  0  0  0  0  0  0  0  0  0  0  0
    4.6076   -0.0492   -0.0266 H   0  0  0  0  0  0  0  0  0  0  0  0
   -2.6560    3.1601    1.4534 H   0  0  0  0  0  0  0  0  0  0  0  0
   -1.1324    3.9540    1.1087 H   0  0  0  0  0  0  0  0  0  0  0  0
   -2.3013    3.6135   -0.2193 H   0  0  0  0  0  0  0  0  0  0  0  0
   -1.5543    1.7938    2.9300 H   0  0  0  0  0  0  0  0  0  0  0  0
   -0.1287    0.9630    2.5702 H   0  0  0  0  0  0  0  0  0  0  0  0
   -0.0675    2.6163    2.3332 H   0  0  0  0  0  0  0  0  0  0  0  0
   -1.0773   -0.6738    1.5945 H   0  0  0  0  0  0  0  0  0  0  0  0
    0.3357    0.1152    1.2489 H   0  0  0  0  0  0  0  0  0  0  0  0
   -1.1102    0.1397    0.1294 H   0  0  0  0  0  0  0  0  0  0  0  0
    2.2340   -0.9927   -2.8216 H   0  0  0  0  0  0  0  0  0  0  0  0
    0.6214   -0.2092   -2.5353 H   0  0  0  0  0  0  0  0  0  0  0  0
    1.2244   -0.3376   -4.1276 H   0  0  0  0  0  0  0  0  0  0  0  0
  1  3  1  0  0  0  0
  1 15  1  0  0  0  0
  1  2  1  0  0  0  0
  1 30  1  6  0  0  0
  2 34  1  0  0  0  0
  3  4  1  0  0  0  0
  3 35  1  0  0  0  0
  3 36  1  0  0  0  0
  4  5  1  0  0  0  0
  4 37  1  0  0  0  0
  4 38  1  0  0  0  0
  5  6  1  0  0  0  0
  5 24  1  0  0  0  0
  5 25  1  0  0  0  0
  6  7  1  0  0  0  0
  6 15  1  0  0  0  0
  6 31  1  1  0  0  0
  7  9  1  0  0  0  0
  7  8  1  0  0  0  0
  7 32  1  1  0  0  0
  8 39  1  0  0  0  0
  9 11  1  0  0  0  0
  9 33  1  1  0  0  0
  9 10  1  0  0  0  0
 10 27  1  0  0  0  0
 11 12  1  0  0  0  0
 11 13  1  0  0  0  0
 11 23  1  6  0  0  0
 12 19  1  0  0  0  0
 13 15  1  0  0  0  0
 13 16  1  0  0  0  0
 13 14  1  1  0  0  0
 14 40  1  0  0  0  0
 15 26  1  6  0  0  0
 16 18  1  0  0  0  0
 16 17  2  0  0  0  0
 18 19  1  0  0  0  0
 18 41  1  0  0  0  0
 18 42  1  0  0  0  0
 19 22  1  0  0  0  0
 19 20  1  1  0  0  0
 20 21  2  0  0  0  0
 20 43  1  0  0  0  0
 21 44  1  0  0  0  0
 21 45  1  0  0  0  0
 22 46  1  0  0  0  0
 22 47  1  0  0  0  0
 22 48  1  0  0  0  0
 23 49  1  0  0  0  0
 23 50  1  0  0  0  0
 23 51  1  0  0  0  0
 24 52  1  0  0  0  0
 24 53  1  0  0  0  0
 24 54  1  0  0  0  0
 25 55  1  0  0  0  0
 25 56  1  0  0  0  0
 25 57  1  0  0  0  0
 26 58  1  0  0  0  0
 26 59  1  0  0  0  0
 26 60  1  0  0  0  0
 27 28  2  0  0  0  0
 27 29  1  0  0  0  0
 29 61  1  0  0  0  0
 29 62  1  0  0  0  0
 29 63  1  0  0  0  0
M  END
>  <DRUGBANK_ID>
DB02587

>  <SECONDARY_ACCESSION_NUMBERS>
EXPT01467

>  <COMMON_NAME>
Colforsin

>  <CAS_NUMBER>
66575-29-9

>  <UNII>
1F7A44V6OU

>  <SYNONYMS>
7β-acetoxy-8,13-epoxy-1α,6β,9α-trihydroxylabd-14-en-11-one; Coleonolk; Colforsin; colforsina; colforsine; colforsinum; Forskolin

$$$$
