835
 OpenBabel10282417113D

 38 39  0  0  1  0  0  0  0  0999 V2000
   -1.6739   -0.1668   -0.0045 Br  0  0  0  0  0  0  0  0  0  0  0  0
    4.9622    3.1318    0.0443 N   0  0  0  0  0  0  0  0  0  0  0  0
    6.5345    0.9299    1.3707 N   0  0  0  0  0  0  0  0  0  0  0  0
    4.6630   -0.1527    0.0680 C   0  0  3  0  0  0  0  0  0  0  0  0
    5.2014    0.7508   -1.0856 C   0  0  0  0  0  0  0  0  0  0  0  0
    4.7893    2.2602   -1.1425 C   0  0  0  0  0  0  0  0  0  0  0  0
    3.0813   -0.1503    0.0646 C   0  0  0  0  0  0  0  0  0  0  0  0
    5.4473    0.0990    1.4162 C   0  0  0  0  0  0  0  0  0  0  0  0
    2.3656   -1.3414    0.0588 C   0  0  0  0  0  0  0  0  0  0  0  0
    2.2693    1.0136   -0.0191 C   0  0  0  0  0  0  0  0  0  0  0  0
    4.8623   -0.2115    2.6478 C   0  0  0  0  0  0  0  0  0  0  0  0
    4.6255    4.5240   -0.1997 C   0  0  0  0  0  0  0  0  0  0  0  0
    4.2566    2.8230    1.2865 C   0  0  0  0  0  0  0  0  0  0  0  0
    0.9485   -1.3587    0.0234 C   0  0  0  0  0  0  0  0  0  0  0  0
    0.8727    1.0223   -0.0141 C   0  0  0  0  0  0  0  0  0  0  0  0
    5.2749    0.4811    3.7995 C   0  0  0  0  0  0  0  0  0  0  0  0
    0.2129   -0.1653    0.0098 C   0  0  0  0  0  0  0  0  0  0  0  0
    6.8560    1.6492    2.4821 C   0  0  0  0  0  0  0  0  0  0  0  0
    6.2515    1.4662    3.7120 C   0  0  0  0  0  0  0  0  0  0  0  0
    4.9580   -1.1831   -0.1886 H   0  0  0  0  0  0  0  0  0  0  0  0
    6.2979    0.6848   -1.1324 H   0  0  0  0  0  0  0  0  0  0  0  0
    4.8638    0.2918   -2.0302 H   0  0  0  0  0  0  0  0  0  0  0  0
    5.3953    2.6830   -1.9585 H   0  0  0  0  0  0  0  0  0  0  0  0
    3.7840    2.3341   -1.5731 H   0  0  0  0  0  0  0  0  0  0  0  0
    2.8918   -2.2959    0.0504 H   0  0  0  0  0  0  0  0  0  0  0  0
    2.6506    2.0030   -0.1175 H   0  0  0  0  0  0  0  0  0  0  0  0
    3.9810   -0.8377    2.6964 H   0  0  0  0  0  0  0  0  0  0  0  0
    3.5384    4.6494   -0.2805 H   0  0  0  0  0  0  0  0  0  0  0  0
    4.9670    5.1069    0.6656 H   0  0  0  0  0  0  0  0  0  0  0  0
    5.1097    4.9285   -1.0855 H   0  0  0  0  0  0  0  0  0  0  0  0
    3.2281    3.1856    1.3665 H   0  0  0  0  0  0  0  0  0  0  0  0
    4.1366    1.7801    1.4500 H   0  0  0  0  0  0  0  0  0  0  0  0
    4.7934    3.2209    2.1475 H   0  0  0  0  0  0  0  0  0  0  0  0
    0.4254   -2.3021   -0.0021 H   0  0  0  0  0  0  0  0  0  0  0  0
    0.3568    1.9869   -0.0488 H   0  0  0  0  0  0  0  0  0  0  0  0
    4.7448    0.3376    4.7381 H   0  0  0  0  0  0  0  0  0  0  0  0
    7.5103    2.5048    2.3130 H   0  0  0  0  0  0  0  0  0  0  0  0
    6.4702    2.1266    4.5467 H   0  0  0  0  0  0  0  0  0  0  0  0
  1 17  1  0  0  0  0
  2  6  1  0  0  0  0
  2 12  1  0  0  0  0
  2 13  1  0  0  0  0
  3  8  1  0  0  0  0
  3 18  2  0  0  0  0
  4  5  1  0  0  0  0
  4  7  1  0  0  0  0
  4  8  1  0  0  0  0
  4 20  1  0  0  0  0
  5  6  1  0  0  0  0
  5 21  1  0  0  0  0
  5 22  1  0  0  0  0
  6 23  1  0  0  0  0
  6 24  1  0  0  0  0
  7  9  2  0  0  0  0
  7 10  1  0  0  0  0
  8 11  2  0  0  0  0
  9 14  1  0  0  0  0
  9 25  1  0  0  0  0
 10 15  2  0  0  0  0
 10 26  1  0  0  0  0
 11 16  1  0  0  0  0
 11 27  1  0  0  0  0
 12 28  1  0  0  0  0
 12 29  1  0  0  0  0
 12 30  1  0  0  0  0
 13 31  1  0  0  0  0
 13 32  1  0  0  0  0
 13 33  1  0  0  0  0
 14 17  2  0  0  0  0
 14 34  1  0  0  0  0
 15 17  1  0  0  0  0
 15 35  1  0  0  0  0
 16 19  2  0  0  0  0
 16 36  1  0  0  0  0
 18 19  1  0  0  0  0
 18 37  1  0  0  0  0
 19 38  1  0  0  0  0
M  END
>  <DRUGBANK_ID>
DB00835

>  <SECONDARY_ACCESSION_NUMBERS>
APRD00832

>  <COMMON_NAME>
Brompheniramine

>  <CAS_NUMBER>
86-22-6

>  <UNII>
H57G17P2FN

>  <SYNONYMS>
[3-(4-Bromo-phenyl)-3-pyridin-2-yl-propyl]-dimethyl-amine; 1-(p-bromophenyl)-1-(2-pyridyl)-3-dimethylaminopropane; 2-(p-bromo-α-(2-dimethylaminoethyl)benzyl)pyridine; 3-(4-bromophenyl)-N,N-dimethyl-3-(2-pyridinyl)-1-propanamine; 3-(p-bromophenyl)-3-(2-pyridyl)-N,N-dimethylpropylamine; BPN; Bromfeniramina; Brompheniramin; Bromphéniramine; Brompheniramine; Brompheniraminum

$$$$
