611
 OpenBabel10282417103D

 53 57  0  0  1  0  0  0  0  0999 V2000
   -8.0668    5.3767    6.3150 O   0  0  0  0  0  0  0  0  0  0  0  0
   -1.3118    6.8602    3.2767 O   0  0  0  0  0  0  0  0  0  0  0  0
   -5.4364    3.5323    7.1509 N   0  0  0  0  0  0  0  0  0  0  0  0
   -5.2522    6.5091    7.0438 C   0  0  1  0  0  0  0  0  0  0  0  0
   -6.6896    5.7207    6.6732 C   0  0  1  0  0  0  0  0  0  0  0  0
   -6.1636    4.7642    7.7861 C   0  0  2  0  0  0  0  0  0  0  0  0
   -3.9182    5.0045    7.6962 C   0  0  0  0  0  0  0  0  0  0  0  0
   -7.2459    7.0575    7.7225 C   0  0  0  0  0  0  0  0  0  0  0  0
   -6.7391    7.6422    6.1372 C   0  0  0  0  0  0  0  0  0  0  0  0
   -3.2471    6.5344    7.0355 C   0  0  0  0  0  0  0  0  0  0  0  0
   -4.0775    3.8624    6.8429 C   0  0  0  0  0  0  0  0  0  0  0  0
   -5.3073    5.9626    8.5154 C   0  0  0  0  0  0  0  0  0  0  0  0
   -7.7859    7.1766    9.0020 C   0  0  0  0  0  0  0  0  0  0  0  0
   -6.8262    8.4408    8.0207 C   0  0  0  0  0  0  0  0  0  0  0  0
   -4.5197    6.8284    6.7783 C   0  0  0  0  0  0  0  0  0  0  0  0
   -6.0594    3.0727    5.8942 C   0  0  0  0  0  0  0  0  0  0  0  0
   -5.8948    3.8472    4.5829 C   0  0  0  0  0  0  0  0  0  0  0  0
   -4.4599    4.2286    3.9550 C   0  0  0  0  0  0  0  0  0  0  0  0
   -6.1340    5.2929    4.5585 C   0  0  0  0  0  0  0  0  0  0  0  0
   -2.1270    6.4613    5.6812 C   0  0  0  0  0  0  0  0  0  0  0  0
   -5.1987    5.4599    3.4953 C   0  0  0  0  0  0  0  0  0  0  0  0
   -4.3537    7.4540    5.2580 C   0  0  0  0  0  0  0  0  0  0  0  0
   -2.1975    6.8715    4.3158 C   0  0  0  0  0  0  0  0  0  0  0  0
   -3.3251    7.5483    4.1554 C   0  0  0  0  0  0  0  0  0  0  0  0
   -6.7745    4.4333    8.6155 H   0  0  0  0  0  0  0  0  0  0  0  0
   -8.1999    4.9351    5.4520 H   0  0  0  0  0  0  0  0  0  0  0  0
   -1.3814    7.7532    2.8598 H   0  0  0  0  0  0  0  0  0  0  0  0
   -2.8605    4.8748    8.2806 H   0  0  0  0  0  0  0  0  0  0  0  0
   -4.1620    4.5107    8.7182 H   0  0  0  0  0  0  0  0  0  0  0  0
   -8.1969    8.1212    7.2629 H   0  0  0  0  0  0  0  0  0  0  0  0
   -8.3243    7.0471    6.9700 H   0  0  0  0  0  0  0  0  0  0  0  0
   -6.0489    8.3961    5.8508 H   0  0  0  0  0  0  0  0  0  0  0  0
   -7.6380    7.6645    5.4822 H   0  0  0  0  0  0  0  0  0  0  0  0
   -3.1920    3.3060    6.4735 H   0  0  0  0  0  0  0  0  0  0  0  0
   -4.1922    4.4650    6.0211 H   0  0  0  0  0  0  0  0  0  0  0  0
   -4.4453    6.2174    9.1136 H   0  0  0  0  0  0  0  0  0  0  0  0
   -5.9705    6.5600    9.0342 H   0  0  0  0  0  0  0  0  0  0  0  0
   -8.4246    7.7163    9.7073 H   0  0  0  0  0  0  0  0  0  0  0  0
   -8.5297    6.3853    8.6134 H   0  0  0  0  0  0  0  0  0  0  0  0
   -6.2479    8.3297    8.9754 H   0  0  0  0  0  0  0  0  0  0  0  0
   -5.8026    8.8124    7.9011 H   0  0  0  0  0  0  0  0  0  0  0  0
   -5.6203    2.1132    5.6454 H   0  0  0  0  0  0  0  0  0  0  0  0
   -7.1182    2.9809    6.1134 H   0  0  0  0  0  0  0  0  0  0  0  0
   -6.6654    3.5868    3.8786 H   0  0  0  0  0  0  0  0  0  0  0  0
   -3.5337    4.3531    4.5680 H   0  0  0  0  0  0  0  0  0  0  0  0
   -4.0499    3.7815    3.0934 H   0  0  0  0  0  0  0  0  0  0  0  0
   -7.0054    5.9317    4.5241 H   0  0  0  0  0  0  0  0  0  0  0  0
   -5.5494    5.4909    5.3952 H   0  0  0  0  0  0  0  0  0  0  0  0
   -1.0622    6.1018    5.7953 H   0  0  0  0  0  0  0  0  0  0  0  0
   -4.6328    6.2526    3.7545 H   0  0  0  0  0  0  0  0  0  0  0  0
   -5.5092    5.9954    2.6308 H   0  0  0  0  0  0  0  0  0  0  0  0
   -5.2696    7.6010    4.7068 H   0  0  0  0  0  0  0  0  0  0  0  0
   -3.6914    7.6338    3.0988 H   0  0  0  0  0  0  0  0  0  0  0  0
  1 26  1  0  0  0  0
  2 27  1  0  0  0  0
  2 23  1  0  0  0  0
  3  6  1  0  0  0  0
  3 11  1  0  0  0  0
  3 16  1  0  0  0  0
  4  5  1  0  0  0  0
  4  7  1  0  0  0  0
  4  8  1  0  0  0  0
  4 10  1  1  0  0  0
  5  6  1  0  0  0  0
  5  9  1  0  0  0  0
  5  1  1  1  0  0  0
  6 12  1  0  0  0  0
  6 25  1  1  0  0  0
  7 11  1  0  0  0  0
  7 28  1  0  0  0  0
  7 29  1  0  0  0  0
  8 13  1  0  0  0  0
  8 30  1  0  0  0  0
  8 31  1  0  0  0  0
  9 14  1  0  0  0  0
  9 32  1  0  0  0  0
  9 33  1  0  0  0  0
 10 15  2  0  0  0  0
 10 20  1  0  0  0  0
 11 34  1  0  0  0  0
 11 35  1  0  0  0  0
 12 15  1  0  0  0  0
 12 36  1  0  0  0  0
 12 37  1  0  0  0  0
 13 14  1  0  0  0  0
 13 38  1  0  0  0  0
 13 39  1  0  0  0  0
 14 40  1  0  0  0  0
 14 41  1  0  0  0  0
 15 22  1  0  0  0  0
 16 17  1  0  0  0  0
 16 42  1  0  0  0  0
 16 43  1  0  0  0  0
 17 18  1  0  0  0  0
 17 19  1  0  0  0  0
 17 44  1  0  0  0  0
 18 21  1  0  0  0  0
 18 45  1  0  0  0  0
 18 46  1  0  0  0  0
 19 21  1  0  0  0  0
 19 47  1  0  0  0  0
 19 48  1  0  0  0  0
 20 23  2  0  0  0  0
 20 49  1  0  0  0  0
 21 50  1  0  0  0  0
 21 51  1  0  0  0  0
 22 24  2  0  0  0  0
 22 52  1  0  0  0  0
 23 24  1  0  0  0  0
 24 53  1  0  0  0  0
M  END
>  <DRUGBANK_ID>
DB00611

>  <SECONDARY_ACCESSION_NUMBERS>
APRD00835

>  <COMMON_NAME>
Butorphanol

>  <CAS_NUMBER>
42408-82-2

>  <UNII>
QV897JC36D

>  <SYNONYMS>
(−)-17-(cyclobutylmethyl)morphinan-3,14-diol; (−)-butorphanol; (−)-N-cyclobutylmethyl-3,14-dihydroxymorphinan; Butorfanol; Butorphanol; Butorphanolum

$$$$
