
 OpenBabel10282417203D

 58 60  0  0  0  0  0  0  0  0999 V2000
    1.1692    0.0501    0.0419 C   0  0  0  0  0  0  0  0  0  0  0  0
    0.7085    0.5835   -1.2903 C   0  0  0  0  0  0  0  0  0  0  0  0
    1.0475   -0.2930   -2.4850 C   0  0  0  0  0  0  0  0  0  0  0  0
   -6.6408   -3.3826   -5.1797 C   0  0  0  0  0  0  0  0  0  0  0  0
   -3.3530    2.1241   -7.0844 C   0  0  0  0  0  0  0  0  0  0  0  0
   -6.1306   -3.6715   -3.9219 C   0  0  0  0  0  0  0  0  0  0  0  0
   -5.8587   -2.6506   -6.0614 C   0  0  0  0  0  0  0  0  0  0  0  0
   -2.0523    1.9796   -6.5946 C   0  0  0  0  0  0  0  0  0  0  0  0
   -4.4095    1.4910   -6.4427 C   0  0  0  0  0  0  0  0  0  0  0  0
   -4.8620   -3.1762   -3.5327 C   0  0  0  0  0  0  0  0  0  0  0  0
   -4.5548   -2.2638   -5.7109 C   0  0  0  0  0  0  0  0  0  0  0  0
   -1.8046    1.1739   -5.4664 C   0  0  0  0  0  0  0  0  0  0  0  0
   -4.1745    0.7600   -5.2909 C   0  0  0  0  0  0  0  0  0  0  0  0
   -1.6460   -5.2015   -4.0290 C   0  0  0  0  0  0  0  0  0  0  0  0
   -2.2755   -4.8271   -2.6770 C   0  0  0  0  0  0  0  0  0  0  0  0
    0.3900   -1.6383   -2.3321 C   0  0  0  0  0  0  0  0  0  0  0  0
   -1.7020   -2.2550   -1.1011 C   0  0  0  0  0  0  0  0  0  0  0  0
   -4.0366   -2.4512   -4.4256 C   0  0  0  0  0  0  0  0  0  0  0  0
   -2.8846    0.5320   -4.8302 C   0  0  0  0  0  0  0  0  0  0  0  0
   -1.2794   -6.6252   -4.1118 C   0  0  0  0  0  0  0  0  0  0  0  0
   -1.3925   -4.7925   -1.4593 C   0  0  0  0  0  0  0  0  0  0  0  0
   -1.5920   -2.2446   -3.6553 C   0  0  0  0  0  0  0  0  0  0  0  0
   -1.9541   -0.1956   -2.6914 C   0  0  0  0  0  0  0  0  0  0  0  0
   -1.1812   -1.5437   -2.3721 C   0  0  0  0  0  0  0  0  0  0  0  0
   -2.8046   -1.7560   -4.1153 N   0  0  0  0  0  0  0  0  0  0  0  0
   -2.8195   -0.4107   -3.7630 N   0  0  0  0  0  0  0  0  0  0  0  0
   -1.7160   -7.4475   -4.8928 O   0  0  0  0  0  0  0  0  0  0  0  0
   -0.2798   -6.8655   -3.2459 O   0  0  0  0  0  0  0  0  0  0  0  0
   -0.9848   -5.8283   -0.9444 O   0  0  0  0  0  0  0  0  0  0  0  0
   -0.8253   -2.8798   -4.3243 O   0  0  0  0  0  0  0  0  0  0  0  0
   -1.9496    0.8815   -2.1246 O   0  0  0  0  0  0  0  0  0  0  0  0
   -1.1219   -3.5933   -0.8755 O   0  0  0  0  0  0  0  0  0  0  0  0
    0.7564   -0.9446    0.2408 H   0  0  0  0  0  0  0  0  0  0  0  0
    0.7627    0.6936    0.8269 H   0  0  0  0  0  0  0  0  0  0  0  0
    2.2521    0.0030    0.0876 H   0  0  0  0  0  0  0  0  0  0  0  0
   -0.3462    0.6057   -1.0989 H   0  0  0  0  0  0  0  0  0  0  0  0
    0.9963    1.6160   -1.4897 H   0  0  0  0  0  0  0  0  0  0  0  0
    0.6990    0.1343   -3.4328 H   0  0  0  0  0  0  0  0  0  0  0  0
    2.1328   -0.4113   -2.5752 H   0  0  0  0  0  0  0  0  0  0  0  0
   -7.6322   -3.7258   -5.4734 H   0  0  0  0  0  0  0  0  0  0  0  0
   -3.5537    2.7434   -7.9551 H   0  0  0  0  0  0  0  0  0  0  0  0
   -6.7425   -4.2537   -3.2310 H   0  0  0  0  0  0  0  0  0  0  0  0
   -6.2611   -2.3660   -7.0301 H   0  0  0  0  0  0  0  0  0  0  0  0
   -1.2388    2.4880   -7.1127 H   0  0  0  0  0  0  0  0  0  0  0  0
   -5.4224    1.5527   -6.8236 H   0  0  0  0  0  0  0  0  0  0  0  0
   -4.6007   -3.3885   -2.5009 H   0  0  0  0  0  0  0  0  0  0  0  0
   -3.9415   -1.7759   -6.4632 H   0  0  0  0  0  0  0  0  0  0  0  0
   -0.7725    1.0684   -5.1385 H   0  0  0  0  0  0  0  0  0  0  0  0
   -5.0019    0.3321   -4.7334 H   0  0  0  0  0  0  0  0  0  0  0  0
   -2.3019   -4.9091   -4.8641 H   0  0  0  0  0  0  0  0  0  0  0  0
   -0.6572   -4.7961   -4.2550 H   0  0  0  0  0  0  0  0  0  0  0  0
   -3.1540   -5.4474   -2.4871 H   0  0  0  0  0  0  0  0  0  0  0  0
   -2.7062   -3.8463   -2.6854 H   0  0  0  0  0  0  0  0  0  0  0  0
    0.8241   -2.3023   -3.0909 H   0  0  0  0  0  0  0  0  0  0  0  0
    0.7580   -2.1308   -1.4194 H   0  0  0  0  0  0  0  0  0  0  0  0
   -1.3521   -1.6843   -0.2214 H   0  0  0  0  0  0  0  0  0  0  0  0
   -2.7862   -2.2985   -0.9813 H   0  0  0  0  0  0  0  0  0  0  0  0
   -0.1525   -7.8236   -3.1598 H   0  0  0  0  0  0  0  0  0  0  0  0
  1 33  1  0  0  0  0
  1 34  1  0  0  0  0
  1 35  1  0  0  0  0
  2  1  1  0  0  0  0
  2 36  1  0  0  0  0
  2 37  1  0  0  0  0
  3  2  1  0  0  0  0
  3 38  1  0  0  0  0
  3 39  1  0  0  0  0
  4 40  1  0  0  0  0
  5 41  1  0  0  0  0
  6  4  2  0  0  0  0
  6 42  1  0  0  0  0
  7  4  1  0  0  0  0
  7 43  1  0  0  0  0
  8  5  2  0  0  0  0
  8 44  1  0  0  0  0
  9  5  1  0  0  0  0
  9 45  1  0  0  0  0
 10  6  1  0  0  0  0
 10 46  1  0  0  0  0
 11  7  2  0  0  0  0
 11 47  1  0  0  0  0
 12  8  1  0  0  0  0
 12 48  1  0  0  0  0
 13  9  2  0  0  0  0
 13 49  1  0  0  0  0
 14 50  1  0  0  0  0
 14 51  1  0  0  0  0
 15 14  1  0  0  0  0
 15 52  1  0  0  0  0
 15 53  1  0  0  0  0
 16  3  1  0  0  0  0
 16 54  1  0  0  0  0
 16 55  1  0  0  0  0
 17 56  1  0  0  0  0
 17 57  1  0  0  0  0
 18 10  2  0  0  0  0
 18 11  1  0  0  0  0
 19 12  2  0  0  0  0
 19 13  1  0  0  0  0
 20 14  1  0  0  0  0
 21 15  1  0  0  0  0
 24 16  1  0  0  0  0
 24 17  1  0  0  0  0
 24 22  1  0  0  0  0
 24 23  1  0  0  0  0
 25 18  1  0  0  0  0
 25 22  1  0  0  0  0
 26 19  1  0  0  0  0
 26 23  1  0  0  0  0
 26 25  1  0  0  0  0
 27 20  2  0  0  0  0
 28 20  1  0  0  0  0
 28 58  1  0  0  0  0
 29 21  2  0  0  0  0
 30 22  2  0  0  0  0
 31 23  2  0  0  0  0
 32 17  1  0  0  0  0
 32 21  1  0  0  0  0
M  END
>  <DRUGBANK_ID>
DB13232

>  <COMMON_NAME>
Suxibuzone

>  <CAS_NUMBER>
27470-51-5

>  <UNII>
86TDZ5WP2B

>  <SYNONYMS>
suxibuzona; Suxibuzone

$$$$
