
 OpenBabel10282417243D

151146  0  0  1  0  0  0  0  0999 V2000
   -2.2891   -1.1222   -0.3228 Mg  0  2  0  0  0  0  0  0  0  0  0  0
   -0.2394   -0.3480    8.3192 N   0  0  0  0  0  0  0  0  0  0  0  0
   -0.6690   -0.9607    7.0977 C   0  0  0  0  0  0  0  0  0  0  0  0
   -1.8298   -0.1312    6.6579 C   0  0  0  0  0  0  0  0  0  0  0  0
   -1.8032    1.3794    6.3002 C   0  0  0  0  0  0  0  0  0  0  0  0
   -0.9319    1.7555    5.1041 C   0  0  0  0  0  0  0  0  0  0  0  0
   -1.6278    1.3404    3.8139 C   0  0  2  0  0  0  0  0  0  0  0  0
   -0.8010    1.7070    2.6937 N   0  0  0  0  0  0  0  0  0  0  0  0
   -3.1472    1.3678    3.0593 C   0  0  0  0  0  0  0  0  0  0  0  0
   -3.3539    0.4746    2.1379 O   0  5  0  0  0  0  0  0  0  0  0  0
   -3.8632    2.3311    3.4302 O   0  0  0  0  0  0  0  0  0  0  0  0
   -0.9899   -8.4189   -1.9777 N   0  0  0  0  0  0  0  0  0  0  0  0
   -2.2083   -7.6243   -1.8570 C   0  0  0  0  0  0  0  0  0  0  0  0
   -2.2126   -6.8045   -0.5689 C   0  0  0  0  0  0  0  0  0  0  0  0
   -1.0416   -5.8234   -0.4694 C   0  0  0  0  0  0  0  0  0  0  0  0
   -0.8943   -4.8454   -1.6428 C   0  0  0  0  0  0  0  0  0  0  0  0
   -1.6453   -3.5414   -1.5567 C   0  0  2  0  0  0  0  0  0  0  0  0
   -1.2710   -2.8055   -0.2732 N   0  0  0  0  0  0  0  0  0  0  0  0
   -3.2033   -3.4937   -1.5449 C   0  0  0  0  0  0  0  0  0  0  0  0
   -3.5951   -2.4940   -2.2013 O   0  5  0  0  0  0  0  0  0  0  0  0
   -3.6792   -3.9172   -0.4484 O   0  0  0  0  0  0  0  0  0  0  0  0
    2.1806   -0.2109   -0.8385 C   0  0  0  0  0  0  0  0  0  0  0  0
    1.3717    0.9776   -1.5581 C   0  0  0  0  0  0  0  0  0  0  0  0
    1.3395    0.4810   -2.9336 C   0  0  0  0  0  0  0  0  0  0  0  0
    0.2559    0.0736   -3.6044 C   0  0  0  0  0  0  0  0  0  0  0  0
   -1.1878    0.1838   -3.2254 C   0  0  0  0  0  0  0  0  0  0  0  0
   -1.9146    1.0760   -4.1704 C   0  0  0  0  0  0  0  0  0  0  0  0
   -2.9077    0.6525   -4.9573 C   0  0  0  0  0  0  0  0  0  0  0  0
   -3.3879   -0.7532   -4.9577 C   0  0  0  0  0  0  0  0  0  0  0  0
   -4.8447   -0.8306   -4.6732 C   0  0  0  0  0  0  0  0  0  0  0  0
   -5.6877   -1.4531   -5.4972 C   0  0  0  0  0  0  0  0  0  0  0  0
   -5.2218   -2.0593   -6.7688 C   0  0  0  0  0  0  0  0  0  0  0  0
   -5.5622   -3.5024   -6.8470 C   0  0  0  0  0  0  0  0  0  0  0  0
   -6.2847   -3.9913   -7.8547 C   0  0  0  0  0  0  0  0  0  0  0  0
   -6.8318   -3.1112   -8.9200 C   0  0  0  0  0  0  0  0  0  0  0  0
   -6.3936   -3.5589  -10.2622 C   0  0  0  0  0  0  0  0  0  0  0  0
   -7.2700   -3.8921  -11.2103 C   0  0  0  0  0  0  0  0  0  0  0  0
   -8.7589   -3.8301  -11.0115 C   0  0  0  0  0  0  0  0  0  0  0  0
   -9.4196   -2.8929  -12.0106 C   0  0  0  0  0  0  0  0  0  0  0  0
   -9.2395   -3.3623  -13.4476 C   0  0  0  0  0  0  0  0  0  0  0  0
   -9.7751   -4.7798  -13.6379 C   0  0  0  0  0  0  0  0  0  0  0  0
  -10.7808   -4.8650  -14.5438 O   0  0  0  0  0  0  0  0  0  0  0  0
   -9.3676   -5.7481  -13.0670 O   0  0  0  0  0  0  0  0  0  0  0  0
    0.2879    0.4042    0.7076 C   0  0  0  0  0  0  0  0  0  0  0  0
    0.4859   -0.9755    1.2496 C   0  0  0  0  0  0  0  0  0  0  0  0
    0.9680   -1.0792    2.5988 C   0  0  0  0  0  0  0  0  0  0  0  0
    0.0033   -1.3686    3.4732 C   0  0  0  0  0  0  0  0  0  0  0  0
   -1.4784   -1.6019    3.0863 C   0  0  0  0  0  0  0  0  0  0  0  0
   -2.2808   -2.4761    3.9415 C   0  0  0  0  0  0  0  0  0  0  0  0
   -3.3782   -2.1331    4.6542 C   0  0  0  0  0  0  0  0  0  0  0  0
   -3.9674   -0.7754    4.9364 C   0  0  0  0  0  0  0  0  0  0  0  0
   -5.3651   -0.3962    4.7064 C   0  0  0  0  0  0  0  0  0  0  0  0
   -6.0488    0.2308    5.6827 C   0  0  0  0  0  0  0  0  0  0  0  0
   -5.4880    0.5836    7.0350 C   0  0  0  0  0  0  0  0  0  0  0  0
   -5.7827    1.9835    7.4393 C   0  0  0  0  0  0  0  0  0  0  0  0
   -6.4621    2.2520    8.5538 C   0  0  0  0  0  0  0  0  0  0  0  0
   -6.9949    1.1572    9.4041 C   0  0  0  0  0  0  0  0  0  0  0  0
   -6.5467    1.3018   10.8067 C   0  0  0  0  0  0  0  0  0  0  0  0
   -7.4216    1.4217   11.8045 C   0  0  0  0  0  0  0  0  0  0  0  0
   -8.9097    1.4027   11.5922 C   0  0  0  0  0  0  0  0  0  0  0  0
   -9.5696    0.2732   12.3659 C   0  0  0  0  0  0  0  0  0  0  0  0
   -9.3887    0.4257   13.8691 C   0  0  0  0  0  0  0  0  0  0  0  0
   -9.9226    1.7760   14.3547 C   0  0  0  0  0  0  0  0  0  0  0  0
  -10.9311    1.6609   15.2604 O   0  0  0  0  0  0  0  0  0  0  0  0
   -9.5185    2.8361   14.0061 O   0  0  0  0  0  0  0  0  0  0  0  0
   -0.1105    0.6397    8.0899 H   0  0  0  0  0  0  0  0  0  0  0  0
   -1.0602   -0.3438    8.9304 H   0  0  0  0  0  0  0  0  0  0  0  0
    0.0967   -0.9767    6.3316 H   0  0  0  0  0  0  0  0  0  0  0  0
   -1.0111   -2.0040    7.2236 H   0  0  0  0  0  0  0  0  0  0  0  0
   -1.9780   -0.6640    5.7493 H   0  0  0  0  0  0  0  0  0  0  0  0
   -2.6358   -0.3346    7.3760 H   0  0  0  0  0  0  0  0  0  0  0  0
   -2.8177    1.7032    6.0290 H   0  0  0  0  0  0  0  0  0  0  0  0
   -1.5192    1.9638    7.1699 H   0  0  0  0  0  0  0  0  0  0  0  0
   -0.6714    2.8069    5.0411 H   0  0  0  0  0  0  0  0  0  0  0  0
    0.0243    1.2055    5.2270 H   0  0  0  0  0  0  0  0  0  0  0  0
   -1.3972    0.3398    4.0807 H   0  0  0  0  0  0  0  0  0  0  0  0
    0.1847    1.5732    2.8483 H   0  0  0  0  0  0  0  0  0  0  0  0
   -1.0512    2.6536    2.4386 H   0  0  0  0  0  0  0  0  0  0  0  0
   -0.1708   -7.8145   -1.9465 H   0  0  0  0  0  0  0  0  0  0  0  0
   -0.9125   -9.0271   -1.1625 H   0  0  0  0  0  0  0  0  0  0  0  0
   -2.3075   -6.9728   -2.7299 H   0  0  0  0  0  0  0  0  0  0  0  0
   -3.0759   -8.2895   -1.8755 H   0  0  0  0  0  0  0  0  0  0  0  0
   -3.1684   -6.2812   -0.4858 H   0  0  0  0  0  0  0  0  0  0  0  0
   -2.1737   -7.4813    0.2956 H   0  0  0  0  0  0  0  0  0  0  0  0
   -1.0875   -5.3118    0.4980 H   0  0  0  0  0  0  0  0  0  0  0  0
   -0.1096   -6.3978   -0.4277 H   0  0  0  0  0  0  0  0  0  0  0  0
    0.1664   -4.5695   -1.6945 H   0  0  0  0  0  0  0  0  0  0  0  0
   -1.1160   -5.3086   -2.6058 H   0  0  0  0  0  0  0  0  0  0  0  0
   -1.2951   -2.8956   -2.3694 H   0  0  0  0  0  0  0  0  0  0  0  0
   -0.3509   -3.2533   -0.0248 H   0  0  0  0  0  0  0  0  0  0  0  0
   -1.8480   -3.3487    0.4364 H   0  0  0  0  0  0  0  0  0  0  0  0
    1.6793   -1.1771   -1.0460 H   0  0  0  0  0  0  0  0  0  0  0  0
    2.3409   -0.1860    0.2483 H   0  0  0  0  0  0  0  0  0  0  0  0
    3.2321   -0.2938   -1.0835 H   0  0  0  0  0  0  0  0  0  0  0  0
    0.2990    1.1881   -1.3785 H   0  0  0  0  0  0  0  0  0  0  0  0
    1.7408    1.9849   -1.3451 H   0  0  0  0  0  0  0  0  0  0  0  0
    2.3366    0.2864   -3.3002 H   0  0  0  0  0  0  0  0  0  0  0  0
    0.4493   -0.4345   -4.5473 H   0  0  0  0  0  0  0  0  0  0  0  0
   -1.5582   -0.8397   -3.2002 H   0  0  0  0  0  0  0  0  0  0  0  0
   -1.4214    0.5390   -2.2191 H   0  0  0  0  0  0  0  0  0  0  0  0
   -1.6054    2.1170   -4.2288 H   0  0  0  0  0  0  0  0  0  0  0  0
   -3.3680    1.3324   -5.6740 H   0  0  0  0  0  0  0  0  0  0  0  0
   -3.0429   -1.1618   -5.9035 H   0  0  0  0  0  0  0  0  0  0  0  0
   -2.9214   -1.4184   -4.2418 H   0  0  0  0  0  0  0  0  0  0  0  0
   -5.2148   -0.4358   -3.7305 H   0  0  0  0  0  0  0  0  0  0  0  0
   -6.7465   -1.5077   -5.2540 H   0  0  0  0  0  0  0  0  0  0  0  0
   -5.6257   -1.4048   -7.5355 H   0  0  0  0  0  0  0  0  0  0  0  0
   -4.1560   -2.0305   -6.9763 H   0  0  0  0  0  0  0  0  0  0  0  0
   -5.1749   -4.1684   -6.0795 H   0  0  0  0  0  0  0  0  0  0  0  0
   -6.5255   -5.0513   -7.8898 H   0  0  0  0  0  0  0  0  0  0  0  0
   -7.9008   -3.0914   -8.7325 H   0  0  0  0  0  0  0  0  0  0  0  0
   -6.5645   -2.0586   -8.8882 H   0  0  0  0  0  0  0  0  0  0  0  0
   -5.3241   -3.5869  -10.4681 H   0  0  0  0  0  0  0  0  0  0  0  0
   -6.8779   -4.2317  -12.1660 H   0  0  0  0  0  0  0  0  0  0  0  0
   -9.1588   -4.8430  -11.0326 H   0  0  0  0  0  0  0  0  0  0  0  0
   -9.0720   -3.4729  -10.0332 H   0  0  0  0  0  0  0  0  0  0  0  0
  -10.4850   -2.8178  -11.7635 H   0  0  0  0  0  0  0  0  0  0  0  0
   -9.0029   -1.8810  -11.8881 H   0  0  0  0  0  0  0  0  0  0  0  0
   -9.7244   -2.6514  -14.1209 H   0  0  0  0  0  0  0  0  0  0  0  0
   -8.1809   -3.3662  -13.7275 H   0  0  0  0  0  0  0  0  0  0  0  0
  -11.0190   -4.0398  -14.9933 H   0  0  0  0  0  0  0  0  0  0  0  0
   -0.4552    1.1826    0.7994 H   0  0  0  0  0  0  0  0  0  0  0  0
   -0.1228    0.0570   -0.2334 H   0  0  0  0  0  0  0  0  0  0  0  0
    1.1870    1.0343    0.7757 H   0  0  0  0  0  0  0  0  0  0  0  0
   -0.4861   -1.3614    1.1195 H   0  0  0  0  0  0  0  0  0  0  0  0
    1.0321   -1.7321    0.6840 H   0  0  0  0  0  0  0  0  0  0  0  0
    2.0095   -0.8299    2.8181 H   0  0  0  0  0  0  0  0  0  0  0  0
    0.3135   -1.1096    4.4730 H   0  0  0  0  0  0  0  0  0  0  0  0
   -1.9837   -0.6898    3.0740 H   0  0  0  0  0  0  0  0  0  0  0  0
   -1.7775   -1.7812    2.0567 H   0  0  0  0  0  0  0  0  0  0  0  0
   -1.9027   -3.4852    3.9366 H   0  0  0  0  0  0  0  0  0  0  0  0
   -3.7471   -2.8821    5.3389 H   0  0  0  0  0  0  0  0  0  0  0  0
   -3.8827   -0.6985    6.0015 H   0  0  0  0  0  0  0  0  0  0  0  0
   -3.3470    0.0270    4.6209 H   0  0  0  0  0  0  0  0  0  0  0  0
   -5.7555   -0.4703    3.7015 H   0  0  0  0  0  0  0  0  0  0  0  0
   -7.0841    0.4988    5.5029 H   0  0  0  0  0  0  0  0  0  0  0  0
   -5.8323   -0.2178    7.6851 H   0  0  0  0  0  0  0  0  0  0  0  0
   -4.4160    0.5530    7.1998 H   0  0  0  0  0  0  0  0  0  0  0  0
   -5.3655    2.7870    6.8347 H   0  0  0  0  0  0  0  0  0  0  0  0
   -6.6750    3.2819    8.8315 H   0  0  0  0  0  0  0  0  0  0  0  0
   -8.0631    1.1664    9.2142 H   0  0  0  0  0  0  0  0  0  0  0  0
   -6.7229    0.1360    9.1538 H   0  0  0  0  0  0  0  0  0  0  0  0
   -5.4759    1.2815   11.0073 H   0  0  0  0  0  0  0  0  0  0  0  0
   -7.0280    1.5475   12.8097 H   0  0  0  0  0  0  0  0  0  0  0  0
   -9.3101    2.3881   11.8258 H   0  0  0  0  0  0  0  0  0  0  0  0
   -9.2236    1.2612   10.5607 H   0  0  0  0  0  0  0  0  0  0  0  0
  -10.6347    0.2520   12.1076 H   0  0  0  0  0  0  0  0  0  0  0  0
   -9.1519   -0.6889   12.0299 H   0  0  0  0  0  0  0  0  0  0  0  0
   -9.8734   -0.4117   14.3757 H   0  0  0  0  0  0  0  0  0  0  0  0
   -8.3302    0.3705   14.1434 H   0  0  0  0  0  0  0  0  0  0  0  0
  -11.1672    0.7592   15.5218 H   0  0  0  0  0  0  0  0  0  0  0  0
  2  3  1  0  0  0  0
  2 66  1  0  0  0  0
  2 67  1  0  0  0  0
  3  4  1  0  0  0  0
  3 68  1  0  0  0  0
  3 69  1  0  0  0  0
  4  5  1  0  0  0  0
  4 70  1  0  0  0  0
  4 71  1  0  0  0  0
  5  6  1  0  0  0  0
  5 72  1  0  0  0  0
  5 73  1  0  0  0  0
  6 74  1  0  0  0  0
  6 75  1  0  0  0  0
  7  9  1  0  0  0  0
  7 76  1  1  0  0  0
  7  8  1  0  0  0  0
  7  6  1  0  0  0  0
  8 77  1  0  0  0  0
  8 78  1  0  0  0  0
  9 10  1  0  0  0  0
  9 11  2  0  0  0  0
 12 13  1  0  0  0  0
 12 79  1  0  0  0  0
 12 80  1  0  0  0  0
 13 14  1  0  0  0  0
 13 81  1  0  0  0  0
 13 82  1  0  0  0  0
 14 15  1  0  0  0  0
 14 83  1  0  0  0  0
 14 84  1  0  0  0  0
 15 16  1  0  0  0  0
 15 85  1  0  0  0  0
 15 86  1  0  0  0  0
 16 87  1  0  0  0  0
 16 88  1  0  0  0  0
 17 19  1  0  0  0  0
 17 89  1  6  0  0  0
 17 18  1  0  0  0  0
 17 16  1  0  0  0  0
 18 90  1  0  0  0  0
 18 91  1  0  0  0  0
 19 20  1  0  0  0  0
 19 21  2  0  0  0  0
 22 23  1  0  0  0  0
 22 92  1  0  0  0  0
 22 93  1  0  0  0  0
 22 94  1  0  0  0  0
 23 24  1  0  0  0  0
 23 95  1  0  0  0  0
 23 96  1  0  0  0  0
 24 25  2  0  0  0  0
 24 97  1  0  0  0  0
 25 26  1  0  0  0  0
 25 98  1  0  0  0  0
 26 27  1  0  0  0  0
 26 99  1  0  0  0  0
 26100  1  0  0  0  0
 27 28  2  0  0  0  0
 27101  1  0  0  0  0
 28 29  1  0  0  0  0
 28102  1  0  0  0  0
 29 30  1  0  0  0  0
 29103  1  0  0  0  0
 29104  1  0  0  0  0
 30 31  2  0  0  0  0
 30105  1  0  0  0  0
 31 32  1  0  0  0  0
 31106  1  0  0  0  0
 32 33  1  0  0  0  0
 32107  1  0  0  0  0
 32108  1  0  0  0  0
 33 34  2  0  0  0  0
 33109  1  0  0  0  0
 34 35  1  0  0  0  0
 34110  1  0  0  0  0
 35 36  1  0  0  0  0
 35111  1  0  0  0  0
 35112  1  0  0  0  0
 36 37  2  0  0  0  0
 36113  1  0  0  0  0
 37 38  1  0  0  0  0
 37114  1  0  0  0  0
 38 39  1  0  0  0  0
 38115  1  0  0  0  0
 38116  1  0  0  0  0
 39 40  1  0  0  0  0
 39117  1  0  0  0  0
 39118  1  0  0  0  0
 40 41  1  0  0  0  0
 40119  1  0  0  0  0
 40120  1  0  0  0  0
 41 42  1  0  0  0  0
 41 43  2  0  0  0  0
 42121  1  0  0  0  0
 44 45  1  0  0  0  0
 44122  1  0  0  0  0
 44123  1  0  0  0  0
 44124  1  0  0  0  0
 45 46  1  0  0  0  0
 45125  1  0  0  0  0
 45126  1  0  0  0  0
 46 47  2  0  0  0  0
 46127  1  0  0  0  0
 47 48  1  0  0  0  0
 47128  1  0  0  0  0
 48 49  1  0  0  0  0
 48129  1  0  0  0  0
 48130  1  0  0  0  0
 49 50  2  0  0  0  0
 49131  1  0  0  0  0
 50 51  1  0  0  0  0
 50132  1  0  0  0  0
 51 52  1  0  0  0  0
 51133  1  0  0  0  0
 51134  1  0  0  0  0
 52 53  2  0  0  0  0
 52135  1  0  0  0  0
 53 54  1  0  0  0  0
 53136  1  0  0  0  0
 54 55  1  0  0  0  0
 54137  1  0  0  0  0
 54138  1  0  0  0  0
 55 56  2  0  0  0  0
 55139  1  0  0  0  0
 56 57  1  0  0  0  0
 56140  1  0  0  0  0
 57 58  1  0  0  0  0
 57141  1  0  0  0  0
 57142  1  0  0  0  0
 58 59  2  0  0  0  0
 58143  1  0  0  0  0
 59 60  1  0  0  0  0
 59144  1  0  0  0  0
 60 61  1  0  0  0  0
 60145  1  0  0  0  0
 60146  1  0  0  0  0
 61 62  1  0  0  0  0
 61147  1  0  0  0  0
 61148  1  0  0  0  0
 62 63  1  0  0  0  0
 62149  1  0  0  0  0
 62150  1  0  0  0  0
 63 64  1  0  0  0  0
 63 65  2  0  0  0  0
 64151  1  0  0  0  0
M  CHG  3   1   2  10  -1  20  -1
M  END
>  <DRUGBANK_ID>
DB17912

>  <COMMON_NAME>
TP-252

>  <CAS_NUMBER>
1841444-50-5

>  <UNII>
QDG62BO0C2

>  <SYNONYMS>
Magnesium bislysinate biseicosapentaenoate; Magnesium lysinate bis eicosapentaenoate; Magnesium, bis(l-lysinato-.kappa.n2,.kappa.o1)-, (t-4)-, (5z,8z,11z,14z,17z)-5,8,11,14,17-eicosapentaenoate (1:2)

$$$$
