
 OpenBabel10282417163D

 46 46  0  0  0  0  0  0  0  0999 V2000
   -3.6200    4.7508   -8.5515 C   0  0  0  0  0  0  0  0  0  0  0  0
   -3.2505    5.9120   -7.8532 C   0  0  0  0  0  0  0  0  0  0  0  0
   -3.4497    7.1697   -8.4163 C   0  0  0  0  0  0  0  0  0  0  0  0
   -3.9366    7.2588   -9.7112 C   0  0  0  0  0  0  0  0  0  0  0  0
   -4.2602    6.1240  -10.4385 C   0  0  0  0  0  0  0  0  0  0  0  0
   -4.1037    4.8797   -9.8586 C   0  0  0  0  0  0  0  0  0  0  0  0
   -4.0792    8.4604  -10.2797 F   0  0  0  0  0  0  0  0  0  0  0  0
   -3.6323    3.3497   -7.9966 C   0  0  0  0  0  0  0  0  0  0  0  0
   -5.3915    2.7146   -8.0315 S   0  0  0  0  0  0  0  0  0  0  0  0
   -6.4110    3.9862   -7.0565 C   0  0  0  0  0  0  0  0  0  0  0  0
   -6.0448    4.4061   -5.6112 C   0  0  1  0  0  0  0  0  0  0  0  0
   -4.6225    4.9439   -5.3060 C   0  0  0  0  0  0  0  0  0  0  0  0
   -4.5533    6.1217   -4.6547 O   0  0  0  0  0  0  0  0  0  0  0  0
   -3.5703    4.3730   -5.5263 O   0  0  0  0  0  0  0  0  0  0  0  0
   -7.0344    4.8736   -4.6156 N   0  0  0  0  0  0  0  0  0  0  0  0
   -7.5087    4.2518   -3.4945 C   0  0  0  0  0  0  0  0  0  0  0  0
   -8.2658    4.9025   -2.7709 O   0  0  0  0  0  0  0  0  0  0  0  0
   -7.1363    3.0272   -3.0411 N   0  0  0  0  0  0  0  0  0  0  0  0
   -6.4081    1.7819   -3.4724 C   0  0  2  0  0  0  0  0  0  0  0  0
   -5.1751    2.0564   -4.2933 C   0  0  0  0  0  0  0  0  0  0  0  0
   -4.4056    2.9735   -3.6658 O   0  0  0  0  0  0  0  0  0  0  0  0
   -5.0100    1.6924   -5.4188 O   0  0  0  0  0  0  0  0  0  0  0  0
   -7.2341    0.6133   -4.0454 C   0  0  0  0  0  0  0  0  0  0  0  0
   -6.4183   -0.4660   -4.8189 C   0  0  0  0  0  0  0  0  0  0  0  0
   -5.1662   -0.9202   -4.0660 C   0  0  0  0  0  0  0  0  0  0  0  0
   -5.0861   -2.2448   -3.8681 O   0  0  0  0  0  0  0  0  0  0  0  0
   -4.3069   -0.1843   -3.6071 O   0  0  0  0  0  0  0  0  0  0  0  0
   -2.8141    5.8867   -6.8580 H   0  0  0  0  0  0  0  0  0  0  0  0
   -3.2138    8.0689   -7.8558 H   0  0  0  0  0  0  0  0  0  0  0  0
   -4.6398    6.1958  -11.4480 H   0  0  0  0  0  0  0  0  0  0  0  0
   -4.3961    3.9847  -10.4057 H   0  0  0  0  0  0  0  0  0  0  0  0
   -3.0306    2.7236   -8.6714 H   0  0  0  0  0  0  0  0  0  0  0  0
   -3.1089    3.1652   -7.0596 H   0  0  0  0  0  0  0  0  0  0  0  0
   -6.6284    4.8324   -7.7011 H   0  0  0  0  0  0  0  0  0  0  0  0
   -7.3552    3.4204   -6.9632 H   0  0  0  0  0  0  0  0  0  0  0  0
   -6.1400    3.4350   -5.2542 H   0  0  0  0  0  0  0  0  0  0  0  0
   -5.3961    6.4001   -4.2709 H   0  0  0  0  0  0  0  0  0  0  0  0
   -7.4128    5.8104   -4.7204 H   0  0  0  0  0  0  0  0  0  0  0  0
   -7.6597    2.8399   -2.1881 H   0  0  0  0  0  0  0  0  0  0  0  0
   -5.9627    1.4128   -2.5357 H   0  0  0  0  0  0  0  0  0  0  0  0
   -4.9840    3.6185   -3.2177 H   0  0  0  0  0  0  0  0  0  0  0  0
   -7.7277    0.1135   -3.1999 H   0  0  0  0  0  0  0  0  0  0  0  0
   -8.0354    0.9943   -4.6889 H   0  0  0  0  0  0  0  0  0  0  0  0
   -7.0652   -1.3181   -5.0471 H   0  0  0  0  0  0  0  0  0  0  0  0
   -6.1131   -0.1234   -5.8157 H   0  0  0  0  0  0  0  0  0  0  0  0
   -5.7970   -2.7530   -4.2892 H   0  0  0  0  0  0  0  0  0  0  0  0
  1  2  1  0  0  0  0
  1  6  2  0  0  0  0
  1  8  1  0  0  0  0
  2  3  2  0  0  0  0
  2 28  1  0  0  0  0
  3  4  1  0  0  0  0
  3 29  1  0  0  0  0
  4  5  2  0  0  0  0
  4  7  1  0  0  0  0
  5  6  1  0  0  0  0
  5 30  1  0  0  0  0
  6 31  1  0  0  0  0
  8 32  1  0  0  0  0
  8 33  1  0  0  0  0
  9  8  1  0  0  0  0
 10  9  1  0  0  0  0
 10 34  1  0  0  0  0
 10 35  1  0  0  0  0
 11 10  1  0  0  0  0
 11 36  1  1  0  0  0
 12 11  1  0  0  0  0
 12 13  1  0  0  0  0
 12 14  2  0  0  0  0
 13 37  1  0  0  0  0
 15 11  1  0  0  0  0
 15 16  1  0  0  0  0
 15 38  1  0  0  0  0
 16 17  2  0  0  0  0
 16 18  1  0  0  0  0
 18 39  1  0  0  0  0
 19 23  1  0  0  0  0
 19 40  1  1  0  0  0
 19 20  1  0  0  0  0
 19 18  1  0  0  0  0
 20 21  1  0  0  0  0
 20 22  2  0  0  0  0
 21 41  1  0  0  0  0
 23 24  1  0  0  0  0
 23 42  1  0  0  0  0
 23 43  1  0  0  0  0
 24 25  1  0  0  0  0
 24 44  1  0  0  0  0
 24 45  1  0  0  0  0
 25 26  1  0  0  0  0
 25 27  2  0  0  0  0
 26 46  1  0  0  0  0
M  END
>  <DRUGBANK_ID>
DB07754

>  <COMMON_NAME>
DCFBC

>  <CAS_NUMBER>
564482-79-7

>  <UNII>
40R868KZFF

$$$$
