
 OpenBabel10282417233D

 30 31  0  0  1  0  0  0  0  0999 V2000
    2.6255    0.9584    3.4442 O   0  0  0  0  0  0  0  0  0  0  0  0
    2.3509    0.3540    2.4072 C   0  0  0  0  0  0  0  0  0  0  0  0
    3.0911    0.6489    1.0708 C   0  0  1  0  0  0  0  0  0  0  0  0
    3.1011    2.1576    0.7770 C   0  0  0  0  0  0  0  0  0  0  0  0
    4.4405    2.6493    1.3241 C   0  0  0  0  0  0  0  0  0  0  0  0
    5.3090    1.4352    1.1561 C   0  0  0  0  0  0  0  0  0  0  0  0
    6.5288    1.4147    1.1185 O   0  0  0  0  0  0  0  0  0  0  0  0
    4.4951    0.3268    1.0622 N   0  0  0  0  0  0  0  0  0  0  0  0
    1.2959   -0.5500    2.3377 N   0  0  0  0  0  0  0  0  0  0  0  0
    1.3472   -1.8220    1.6303 C   0  0  0  0  0  0  0  0  0  0  0  0
    0.1934   -1.9099    0.6394 C   0  0  0  0  0  0  0  0  0  0  0  0
   -1.1524   -1.6561    1.3279 C   0  0  0  0  0  0  0  0  0  0  0  0
   -1.1230   -0.3766    2.1737 C   0  0  0  0  0  0  0  0  0  0  0  0
    0.0824   -0.3526    3.1244 C   0  0  0  0  0  0  0  0  0  0  0  0
    2.6033    0.1251    0.2441 H   0  0  0  0  0  0  0  0  0  0  0  0
    2.2549    2.7079    1.1992 H   0  0  0  0  0  0  0  0  0  0  0  0
    3.0940    2.3201   -0.3096 H   0  0  0  0  0  0  0  0  0  0  0  0
    4.3834    2.9022    2.3870 H   0  0  0  0  0  0  0  0  0  0  0  0
    4.8293    3.5005    0.7580 H   0  0  0  0  0  0  0  0  0  0  0  0
    4.8947   -0.6004    1.0112 H   0  0  0  0  0  0  0  0  0  0  0  0
    1.2433   -2.6137    2.3859 H   0  0  0  0  0  0  0  0  0  0  0  0
    2.3160   -1.9690    1.1472 H   0  0  0  0  0  0  0  0  0  0  0  0
    0.1849   -2.8940    0.1587 H   0  0  0  0  0  0  0  0  0  0  0  0
    0.3387   -1.1589   -0.1457 H   0  0  0  0  0  0  0  0  0  0  0  0
   -1.9426   -1.5850    0.5710 H   0  0  0  0  0  0  0  0  0  0  0  0
   -1.4034   -2.5097    1.9697 H   0  0  0  0  0  0  0  0  0  0  0  0
   -1.0645    0.4855    1.4963 H   0  0  0  0  0  0  0  0  0  0  0  0
   -2.0578   -0.2831    2.7370 H   0  0  0  0  0  0  0  0  0  0  0  0
    0.1169    0.5979    3.6657 H   0  0  0  0  0  0  0  0  0  0  0  0
    0.0035   -1.1643    3.8572 H   0  0  0  0  0  0  0  0  0  0  0  0
  1  2  2  0  0  0  0
  2  9  1  0  0  0  0
  3  4  1  0  0  0  0
  3  8  1  0  0  0  0
  3 15  1  6  0  0  0
  3  2  1  0  0  0  0
  4  5  1  0  0  0  0
  4 16  1  0  0  0  0
  4 17  1  0  0  0  0
  5  6  1  0  0  0  0
  5 18  1  0  0  0  0
  5 19  1  0  0  0  0
  6  7  2  0  0  0  0
  6  8  1  0  0  0  0
  8 20  1  0  0  0  0
  9 10  1  0  0  0  0
  9 14  1  0  0  0  0
 10 11  1  0  0  0  0
 10 21  1  0  0  0  0
 10 22  1  0  0  0  0
 11 12  1  0  0  0  0
 11 23  1  0  0  0  0
 11 24  1  0  0  0  0
 12 13  1  0  0  0  0
 12 25  1  0  0  0  0
 12 26  1  0  0  0  0
 13 14  1  0  0  0  0
 13 27  1  0  0  0  0
 13 28  1  0  0  0  0
 14 29  1  0  0  0  0
 14 30  1  0  0  0  0
M  END
>  <DRUGBANK_ID>
DB16163

>  <COMMON_NAME>
Fasoracetam

>  <CAS_NUMBER>
110958-19-5

>  <UNII>
42O8UF5CJB

>  <SYNONYMS>
Fasoracetam

$$$$
