
 OpenBabel10282417183D

 60 63  0  0  0  0  0  0  0  0999 V2000
    0.8759   -0.0884   -0.2615 C   0  0  0  0  0  0  0  0  0  0  0  0
    0.4341    1.3409    0.0581 C   0  0  0  0  0  0  0  0  0  0  0  0
    0.9624    2.2053   -1.1010 C   0  0  0  0  0  0  0  0  0  0  0  0
   -1.1012    1.3746    0.0753 C   0  0  0  0  0  0  0  0  0  0  0  0
    1.0019    1.8747    1.4134 C   0  0  0  0  0  0  0  0  0  0  0  0
    0.6289    1.1657    2.6306 N   0  0  0  0  0  0  0  0  0  0  0  0
    0.8811   -0.1625    2.9049 C   0  0  0  0  0  0  0  0  0  0  0  0
    0.2531   -0.4064    4.1151 C   0  0  0  0  0  0  0  0  0  0  0  0
    0.2530   -1.7272    4.5832 C   0  0  0  0  0  0  0  0  0  0  0  0
    0.7822   -2.7162    3.7445 C   0  0  0  0  0  0  0  0  0  0  0  0
    1.3675   -2.3521    2.5376 C   0  0  0  0  0  0  0  0  0  0  0  0
    1.5282   -1.0669    2.1442 N   0  0  0  0  0  0  0  0  0  0  0  0
    1.8625   -3.3884    1.6313 C   0  0  0  0  0  0  0  0  0  0  0  0
    1.1537   -4.4792    1.1405 C   0  0  0  0  0  0  0  0  0  0  0  0
    2.1079   -5.2363    0.4893 N   0  0  0  0  0  0  0  0  0  0  0  0
    3.3127   -4.5790    0.5591 C   0  0  0  0  0  0  0  0  0  0  0  0
    3.1729   -3.4466    1.2182 N   0  0  0  0  0  0  0  0  0  0  0  0
    4.6257   -5.0879    0.0036 C   0  0  0  0  0  0  0  0  0  0  0  0
    5.1475   -4.0794   -1.0348 C   0  0  0  0  0  0  0  0  0  0  0  0
    5.6400   -5.1815    1.1602 C   0  0  0  0  0  0  0  0  0  0  0  0
    4.5099   -6.4696   -0.6596 C   0  0  0  0  0  0  0  0  0  0  0  0
   -0.2478   -4.8741    1.2017 C   0  0  0  0  0  0  0  0  0  0  0  0
   -0.6412   -6.0113    1.9204 C   0  0  0  0  0  0  0  0  0  0  0  0
   -1.9928   -6.3580    1.9995 C   0  0  0  0  0  0  0  0  0  0  0  0
   -2.9253   -5.6555    1.2454 C   0  0  0  0  0  0  0  0  0  0  0  0
   -2.5396   -4.5760    0.4620 C   0  0  0  0  0  0  0  0  0  0  0  0
   -1.2168   -4.1311    0.5132 C   0  0  0  0  0  0  0  0  0  0  0  0
   -4.2150   -6.0144    1.2868 F   0  0  0  0  0  0  0  0  0  0  0  0
   -0.2657    0.7486    4.6351 N   0  0  0  0  0  0  0  0  0  0  0  0
   -0.0248    1.6835    3.7350 C   0  0  0  0  0  0  0  0  0  0  0  0
   -0.3724    2.9668    3.8699 N   0  0  0  0  0  0  0  0  0  0  0  0
    0.6790   -0.3805   -1.2953 H   0  0  0  0  0  0  0  0  0  0  0  0
    0.2936   -0.7973    0.3285 H   0  0  0  0  0  0  0  0  0  0  0  0
    1.9525   -0.2065   -0.0880 H   0  0  0  0  0  0  0  0  0  0  0  0
    0.6256    1.8023   -2.0647 H   0  0  0  0  0  0  0  0  0  0  0  0
    0.6171    3.2403   -1.0347 H   0  0  0  0  0  0  0  0  0  0  0  0
    2.0591    2.2076   -1.1182 H   0  0  0  0  0  0  0  0  0  0  0  0
   -1.5009    0.7960    0.9159 H   0  0  0  0  0  0  0  0  0  0  0  0
   -1.4799    2.3976    0.1614 H   0  0  0  0  0  0  0  0  0  0  0  0
   -1.5092    0.9346   -0.8413 H   0  0  0  0  0  0  0  0  0  0  0  0
    2.0980    1.9099    1.4025 H   0  0  0  0  0  0  0  0  0  0  0  0
    0.6718    2.9163    1.5207 H   0  0  0  0  0  0  0  0  0  0  0  0
   -0.1740   -1.9785    5.5444 H   0  0  0  0  0  0  0  0  0  0  0  0
    0.7561   -3.7592    4.0404 H   0  0  0  0  0  0  0  0  0  0  0  0
    1.9431   -6.1294    0.0450 H   0  0  0  0  0  0  0  0  0  0  0  0
    5.2661   -3.0808   -0.5975 H   0  0  0  0  0  0  0  0  0  0  0  0
    6.1230   -4.3847   -1.4296 H   0  0  0  0  0  0  0  0  0  0  0  0
    4.4553   -3.9863   -1.8797 H   0  0  0  0  0  0  0  0  0  0  0  0
    5.3071   -5.8951    1.9232 H   0  0  0  0  0  0  0  0  0  0  0  0
    6.6235   -5.5051    0.8021 H   0  0  0  0  0  0  0  0  0  0  0  0
    5.7722   -4.2123    1.6564 H   0  0  0  0  0  0  0  0  0  0  0  0
    4.1614   -7.2295    0.0494 H   0  0  0  0  0  0  0  0  0  0  0  0
    3.8121   -6.4545   -1.5046 H   0  0  0  0  0  0  0  0  0  0  0  0
    5.4820   -6.8027   -1.0437 H   0  0  0  0  0  0  0  0  0  0  0  0
    0.0933   -6.6153    2.4472 H   0  0  0  0  0  0  0  0  0  0  0  0
   -2.3233   -7.1718    2.6371 H   0  0  0  0  0  0  0  0  0  0  0  0
   -3.2691   -4.0799   -0.1704 H   0  0  0  0  0  0  0  0  0  0  0  0
   -0.9470   -3.2074    0.0052 H   0  0  0  0  0  0  0  0  0  0  0  0
   -0.1927    3.7103    3.2061 H   0  0  0  0  0  0  0  0  0  0  0  0
   -0.7701    3.2673    4.7549 H   0  0  0  0  0  0  0  0  0  0  0  0
  1  2  1  0  0  0  0
  1 32  1  0  0  0  0
  1 33  1  0  0  0  0
  1 34  1  0  0  0  0
  2  3  1  0  0  0  0
  2  4  1  0  0  0  0
  2  5  1  0  0  0  0
  3 35  1  0  0  0  0
  3 36  1  0  0  0  0
  3 37  1  0  0  0  0
  4 38  1  0  0  0  0
  4 39  1  0  0  0  0
  4 40  1  0  0  0  0
  5  6  1  0  0  0  0
  5 41  1  0  0  0  0
  5 42  1  0  0  0  0
  6  7  1  0  0  0  0
  6 30  1  0  0  0  0
  7  8  1  0  0  0  0
  7 12  2  0  0  0  0
  8  9  2  0  0  0  0
  8 29  1  0  0  0  0
  9 10  1  0  0  0  0
  9 43  1  0  0  0  0
 10 11  2  0  0  0  0
 10 44  1  0  0  0  0
 11 12  1  0  0  0  0
 11 13  1  0  0  0  0
 13 14  2  0  0  0  0
 13 17  1  0  0  0  0
 14 15  1  0  0  0  0
 14 22  1  0  0  0  0
 15 16  1  0  0  0  0
 15 45  1  0  0  0  0
 16 17  2  0  0  0  0
 16 18  1  0  0  0  0
 18 19  1  0  0  0  0
 18 20  1  0  0  0  0
 18 21  1  0  0  0  0
 19 46  1  0  0  0  0
 19 47  1  0  0  0  0
 19 48  1  0  0  0  0
 20 49  1  0  0  0  0
 20 50  1  0  0  0  0
 20 51  1  0  0  0  0
 21 52  1  0  0  0  0
 21 53  1  0  0  0  0
 21 54  1  0  0  0  0
 22 23  2  0  0  0  0
 22 27  1  0  0  0  0
 23 24  1  0  0  0  0
 23 55  1  0  0  0  0
 24 25  2  0  0  0  0
 24 56  1  0  0  0  0
 25 26  1  0  0  0  0
 25 28  1  0  0  0  0
 26 27  2  0  0  0  0
 26 57  1  0  0  0  0
 27 58  1  0  0  0  0
 29 30  2  0  0  0  0
 30 31  1  0  0  0  0
 31 59  1  0  0  0  0
 31 60  1  0  0  0  0
M  END
>  <DRUGBANK_ID>
DB11787

>  <COMMON_NAME>
Ralimetinib

>  <CAS_NUMBER>
862505-00-8

>  <UNII>
73I34XW4HD

>  <SYNONYMS>
Ralimetinib

$$$$
