
 OpenBabel10282417123D

124123  0  0  0  0  0  0  0  0999 V2000
    1.4202    0.0370    0.0290 C   0  0  0  0  0  0  0  0  0  0  0  0
    1.0200    1.9907    0.2497 C   0  0  3  0  0  0  0  0  0  0  0  0
    1.3379    0.1992   -3.1589 P   0  0  3  0  0  0  0  0  0  0  0  0
    3.8579    0.6680   -4.1207 C   0  0  3  0  0  0  0  0  0  0  0  0
    4.5649    0.2660   -5.2859 C   0  0  0  0  0  0  0  0  0  0  0  0
    2.6162    1.5163   -4.4028 C   0  0  0  0  0  0  0  0  0  0  0  0
    4.1256    2.2278   -6.8018 C   0  0  0  0  0  0  0  0  0  0  0  0
    0.9046   -0.4672   -1.5534 O   0  0  0  0  0  0  0  0  0  0  0  0
    4.9289    1.4088   -6.0638 O   0  0  0  0  0  0  0  0  0  0  0  0
    1.5736    1.8055   -3.5366 O   0  0  0  0  0  0  0  0  0  0  0  0
    2.6093    2.1243   -6.7202 C   0  0  0  0  0  0  0  0  0  0  0  0
    1.4561    3.5271   -0.5682 C   0  0  0  0  0  0  0  0  0  0  0  0
    2.8190   -0.6208   -1.7858 C   0  0  0  0  0  0  0  0  0  0  0  0
   -0.1801    0.3877   -3.3878 O   0  0  0  0  0  0  0  0  0  0  0  0
    3.3994   -0.7168   -3.3218 O   0  0  0  0  0  0  0  0  0  0  0  0
    3.2215    0.9587   -2.4467 O   0  0  0  0  0  0  0  0  0  0  0  0
    1.9404    3.3898   -5.9372 C   0  0  0  0  0  0  0  0  0  0  0  0
    2.1655    4.5720   -6.8112 C   0  0  0  0  0  0  0  0  0  0  0  0
    1.4804    4.2371   -8.1107 C   0  0  0  0  0  0  0  0  0  0  0  0
   -0.0105    4.0191   -7.8402 C   0  0  0  0  0  0  0  0  0  0  0  0
   -0.5828    5.2933   -7.2237 C   0  0  0  0  0  0  0  0  0  0  0  0
   -0.3356    6.4541   -8.1854 C   0  0  0  0  0  0  0  0  0  0  0  0
   -1.0142    6.1491   -9.5200 C   0  0  0  0  0  0  0  0  0  0  0  0
    2.0048    1.2579   -1.3553 C   0  0  0  0  0  0  0  0  0  0  0  0
    0.1627    1.5847   -1.5537 C   0  0  0  0  0  0  0  0  0  0  0  0
   -0.6358    0.3847   -0.2612 C   0  0  0  0  0  0  0  0  0  0  0  0
   -0.0472    0.9299    1.5948 C   0  0  0  0  0  0  0  0  0  0  0  0
   -0.0995    2.8929    1.9029 C   0  0  0  0  0  0  0  0  0  0  0  0
   -1.5775    3.4126    1.5372 C   0  0  0  0  0  0  0  0  0  0  0  0
   -2.1435    2.3133    2.3940 C   0  0  0  0  0  0  0  0  0  0  0  0
   -1.4513    2.5738    3.7479 C   0  0  0  0  0  0  0  0  0  0  0  0
    1.3629    3.9268   -1.9538 O   0  0  0  0  0  0  0  0  0  0  0  0
   -0.6782    2.2788    0.1660 O   0  0  0  0  0  0  0  0  0  0  0  0
   -2.5140    5.9685   -9.2905 C   0  0  0  0  0  0  0  0  0  0  0  0
   -3.0912    7.2512   -8.6932 C   0  0  0  0  0  0  0  0  0  0  0  0
   -2.8512    8.4122   -9.6577 C   0  0  0  0  0  0  0  0  0  0  0  0
   -3.5334    8.1178  -10.9951 C   0  0  0  0  0  0  0  0  0  0  0  0
   -5.0409    7.9534  -10.7912 C   0  0  0  0  0  0  0  0  0  0  0  0
   -1.6659    4.0671    3.9881 C   0  0  0  0  0  0  0  0  0  0  0  0
   -3.1742    4.2708    3.9253 C   0  0  0  0  0  0  0  0  0  0  0  0
   -3.7938    3.3557    4.9747 C   0  0  0  0  0  0  0  0  0  0  0  0
   -3.2079    3.7181    6.3380 C   0  0  0  0  0  0  0  0  0  0  0  0
   -3.5237    5.1794    6.6579 C   0  0  0  0  0  0  0  0  0  0  0  0
    4.6487    3.1021   -7.4791 O   0  0  0  0  0  0  0  0  0  0  0  0
    2.8346   -1.7169   -1.1706 O   0  0  0  0  0  0  0  0  0  0  0  0
   -5.6398    9.2222  -10.1900 C   0  0  0  0  0  0  0  0  0  0  0  0
   -5.3994   10.3966  -11.1212 C   0  0  0  0  0  0  0  0  0  0  0  0
   -5.0329    5.4036    6.6631 C   0  0  0  0  0  0  0  0  0  0  0  0
   -5.6791    4.5156    7.7106 C   0  0  0  0  0  0  0  0  0  0  0  0
    0.9342   -0.7699    0.6291 H   0  0  0  0  0  0  0  0  0  0  0  0
    2.4889   -0.1401    0.2504 H   0  0  0  0  0  0  0  0  0  0  0  0
    1.6033    2.1996    1.2065 H   0  0  0  0  0  0  0  0  0  0  0  0
    4.5412    1.3872   -3.5165 H   0  0  0  0  0  0  0  0  0  0  0  0
    5.4246   -0.2265   -4.8270 H   0  0  0  0  0  0  0  0  0  0  0  0
    3.8995   -0.4257   -5.7749 H   0  0  0  0  0  0  0  0  0  0  0  0
    1.9528    0.9334   -5.0130 H   0  0  0  0  0  0  0  0  0  0  0  0
    3.1575    2.4044   -4.6317 H   0  0  0  0  0  0  0  0  0  0  0  0
    2.0551    1.8829   -7.6176 H   0  0  0  0  0  0  0  0  0  0  0  0
    2.4577    1.0988   -6.4277 H   0  0  0  0  0  0  0  0  0  0  0  0
    0.7396    4.2656   -0.2357 H   0  0  0  0  0  0  0  0  0  0  0  0
    2.4716    3.6401   -0.2102 H   0  0  0  0  0  0  0  0  0  0  0  0
    3.6764    0.7994   -1.4905 H   0  0  0  0  0  0  0  0  0  0  0  0
    0.8940    3.1965   -5.6436 H   0  0  0  0  0  0  0  0  0  0  0  0
    2.3412    3.7876   -4.9834 H   0  0  0  0  0  0  0  0  0  0  0  0
    1.8082    5.4779   -6.3159 H   0  0  0  0  0  0  0  0  0  0  0  0
    3.2339    4.7420   -6.9205 H   0  0  0  0  0  0  0  0  0  0  0  0
    1.6971    5.0195   -8.8265 H   0  0  0  0  0  0  0  0  0  0  0  0
    1.8951    3.3555   -8.5952 H   0  0  0  0  0  0  0  0  0  0  0  0
   -0.5033    3.7339   -8.7688 H   0  0  0  0  0  0  0  0  0  0  0  0
   -0.2223    3.1684   -7.1846 H   0  0  0  0  0  0  0  0  0  0  0  0
   -1.6405    5.1518   -6.9976 H   0  0  0  0  0  0  0  0  0  0  0  0
   -0.1472    5.5215   -6.2477 H   0  0  0  0  0  0  0  0  0  0  0  0
   -0.6883    7.3846   -7.7391 H   0  0  0  0  0  0  0  0  0  0  0  0
    0.7280    6.6428   -8.3474 H   0  0  0  0  0  0  0  0  0  0  0  0
   -0.7949    6.9439  -10.2349 H   0  0  0  0  0  0  0  0  0  0  0  0
   -0.6049    5.2583  -10.0020 H   0  0  0  0  0  0  0  0  0  0  0  0
    2.6656    1.6323   -0.4919 H   0  0  0  0  0  0  0  0  0  0  0  0
    2.4679    2.2790   -1.8497 H   0  0  0  0  0  0  0  0  0  0  0  0
   -0.2397    2.6330   -1.3901 H   0  0  0  0  0  0  0  0  0  0  0  0
   -0.1364    2.0199   -2.5591 H   0  0  0  0  0  0  0  0  0  0  0  0
   -1.5739    0.4747   -0.8220 H   0  0  0  0  0  0  0  0  0  0  0  0
   -0.6116   -0.7104   -0.4018 H   0  0  0  0  0  0  0  0  0  0  0  0
   -0.2833    0.2545    2.4221 H   0  0  0  0  0  0  0  0  0  0  0  0
    1.1018    0.6933    1.8340 H   0  0  0  0  0  0  0  0  0  0  0  0
    0.5729    3.2468    2.6923 H   0  0  0  0  0  0  0  0  0  0  0  0
    0.4176    3.6237    1.2682 H   0  0  0  0  0  0  0  0  0  0  0  0
   -1.6448    4.4991    1.5880 H   0  0  0  0  0  0  0  0  0  0  0  0
   -1.9830    3.4433    0.4760 H   0  0  0  0  0  0  0  0  0  0  0  0
   -3.2128    2.3124    2.3107 H   0  0  0  0  0  0  0  0  0  0  0  0
   -1.9470    1.2716    2.1240 H   0  0  0  0  0  0  0  0  0  0  0  0
   -1.7952    1.8689    4.4786 H   0  0  0  0  0  0  0  0  0  0  0  0
   -0.3738    2.3429    3.8186 H   0  0  0  0  0  0  0  0  0  0  0  0
    1.1523    3.2205   -2.5966 H   0  0  0  0  0  0  0  0  0  0  0  0
   -1.5301    1.8740   -0.1798 H   0  0  0  0  0  0  0  0  0  0  0  0
   -3.0000    5.6929  -10.2281 H   0  0  0  0  0  0  0  0  0  0  0  0
   -2.7343    5.1236   -8.6341 H   0  0  0  0  0  0  0  0  0  0  0  0
   -4.1509    7.1111   -8.4720 H   0  0  0  0  0  0  0  0  0  0  0  0
   -2.6562    7.4845   -7.7182 H   0  0  0  0  0  0  0  0  0  0  0  0
   -3.2056    9.3426   -9.2101 H   0  0  0  0  0  0  0  0  0  0  0  0
   -1.7861    8.5980   -9.8195 H   0  0  0  0  0  0  0  0  0  0  0  0
   -3.3082    8.9129  -11.7073 H   0  0  0  0  0  0  0  0  0  0  0  0
   -3.1241    7.2227  -11.4717 H   0  0  0  0  0  0  0  0  0  0  0  0
   -5.5194    7.7176  -11.7448 H   0  0  0  0  0  0  0  0  0  0  0  0
   -5.2586    7.1005  -10.1378 H   0  0  0  0  0  0  0  0  0  0  0  0
   -1.1765    4.3635    4.9027 H   0  0  0  0  0  0  0  0  0  0  0  0
   -1.1728    4.7400    3.2731 H   0  0  0  0  0  0  0  0  0  0  0  0
   -3.4029    5.3221    4.0548 H   0  0  0  0  0  0  0  0  0  0  0  0
   -3.6159    4.0536    2.9451 H   0  0  0  0  0  0  0  0  0  0  0  0
   -4.8767    3.4389    4.9353 H   0  0  0  0  0  0  0  0  0  0  0  0
   -3.6227    2.2934    4.7702 H   0  0  0  0  0  0  0  0  0  0  0  0
   -3.5950    3.0386    7.0949 H   0  0  0  0  0  0  0  0  0  0  0  0
   -2.1264    3.5550    6.3818 H   0  0  0  0  0  0  0  0  0  0  0  0
   -3.0887    5.4470    7.6224 H   0  0  0  0  0  0  0  0  0  0  0  0
   -3.0559    5.8554    5.9319 H   0  0  0  0  0  0  0  0  0  0  0  0
   -6.7084    9.0821  -10.0163 H   0  0  0  0  0  0  0  0  0  0  0  0
   -5.2060    9.4383   -9.2068 H   0  0  0  0  0  0  0  0  0  0  0  0
   -5.8587   10.1944  -12.0929 H   0  0  0  0  0  0  0  0  0  0  0  0
   -5.8117   11.3121  -10.7005 H   0  0  0  0  0  0  0  0  0  0  0  0
   -4.3325   10.5798  -11.2839 H   0  0  0  0  0  0  0  0  0  0  0  0
   -5.2506    6.4544    6.8605 H   0  0  0  0  0  0  0  0  0  0  0  0
   -5.4709    5.1908    5.6807 H   0  0  0  0  0  0  0  0  0  0  0  0
   -5.2635    4.7487    8.6949 H   0  0  0  0  0  0  0  0  0  0  0  0
   -6.7583    4.6562    7.7211 H   0  0  0  0  0  0  0  0  0  0  0  0
   -5.5041    3.4530    7.5138 H   0  0  0  0  0  0  0  0  0  0  0  0
  1  8  1  0  0  0  0
  1 50  1  0  0  0  0
  1 51  1  0  0  0  0
  2  1  1  0  0  0  0
  2 33  1  0  0  0  0
  2 52  1  0  0  0  0
  3 16  1  0  0  0  0
  3 10  1  0  0  0  0
  4 15  1  0  0  0  0
  4  5  1  0  0  0  0
  4  6  1  0  0  0  0
  4 53  1  0  0  0  0
  5 54  1  0  0  0  0
  5 55  1  0  0  0  0
  6 56  1  0  0  0  0
  6 57  1  0  0  0  0
  7  9  1  0  0  0  0
  7 44  2  0  0  0  0
  8  3  1  0  0  0  0
  9  5  1  0  0  0  0
 10  6  1  0  0  0  0
 11  7  1  0  0  0  0
 11 17  1  0  0  0  0
 11 58  1  0  0  0  0
 11 59  1  0  0  0  0
 12  2  1  0  0  0  0
 12 32  1  0  0  0  0
 12 60  1  0  0  0  0
 12 61  1  0  0  0  0
 13 15  1  0  0  0  0
 13 45  2  0  0  0  0
 14  3  2  0  0  0  0
 16 62  1  0  0  0  0
 17 18  1  0  0  0  0
 17 63  1  0  0  0  0
 17 64  1  0  0  0  0
 18 19  1  0  0  0  0
 18 65  1  0  0  0  0
 18 66  1  0  0  0  0
 19 20  1  0  0  0  0
 19 67  1  0  0  0  0
 19 68  1  0  0  0  0
 20 21  1  0  0  0  0
 20 69  1  0  0  0  0
 20 70  1  0  0  0  0
 21 22  1  0  0  0  0
 21 71  1  0  0  0  0
 21 72  1  0  0  0  0
 22 23  1  0  0  0  0
 22 73  1  0  0  0  0
 22 74  1  0  0  0  0
 23 34  1  0  0  0  0
 23 75  1  0  0  0  0
 23 76  1  0  0  0  0
 24 13  1  0  0  0  0
 24 25  1  0  0  0  0
 24 77  1  0  0  0  0
 24 78  1  0  0  0  0
 25 26  1  0  0  0  0
 25 79  1  0  0  0  0
 25 80  1  0  0  0  0
 26 27  1  0  0  0  0
 26 81  1  0  0  0  0
 26 82  1  0  0  0  0
 27 28  1  0  0  0  0
 27 83  1  0  0  0  0
 27 84  1  0  0  0  0
 28 29  1  0  0  0  0
 28 85  1  0  0  0  0
 28 86  1  0  0  0  0
 29 30  1  0  0  0  0
 29 87  1  0  0  0  0
 29 88  1  0  0  0  0
 30 31  1  0  0  0  0
 30 89  1  0  0  0  0
 30 90  1  0  0  0  0
 31 39  1  0  0  0  0
 31 91  1  0  0  0  0
 31 92  1  0  0  0  0
 32 93  1  0  0  0  0
 33 94  1  0  0  0  0
 34 35  1  0  0  0  0
 34 95  1  0  0  0  0
 34 96  1  0  0  0  0
 35 36  1  0  0  0  0
 35 97  1  0  0  0  0
 35 98  1  0  0  0  0
 36 37  1  0  0  0  0
 36 99  1  0  0  0  0
 36100  1  0  0  0  0
 37 38  1  0  0  0  0
 37101  1  0  0  0  0
 37102  1  0  0  0  0
 38 46  1  0  0  0  0
 38103  1  0  0  0  0
 38104  1  0  0  0  0
 39 40  1  0  0  0  0
 39105  1  0  0  0  0
 39106  1  0  0  0  0
 40 41  1  0  0  0  0
 40107  1  0  0  0  0
 40108  1  0  0  0  0
 41 42  1  0  0  0  0
 41109  1  0  0  0  0
 41110  1  0  0  0  0
 42 43  1  0  0  0  0
 42111  1  0  0  0  0
 42112  1  0  0  0  0
 43 48  1  0  0  0  0
 43113  1  0  0  0  0
 43114  1  0  0  0  0
 46 47  1  0  0  0  0
 46115  1  0  0  0  0
 46116  1  0  0  0  0
 47117  1  0  0  0  0
 47118  1  0  0  0  0
 47119  1  0  0  0  0
 48 49  1  0  0  0  0
 48120  1  0  0  0  0
 48121  1  0  0  0  0
 49122  1  0  0  0  0
 49123  1  0  0  0  0
 49124  1  0  0  0  0
M  END
>  <DRUGBANK_ID>
DB02043

>  <SECONDARY_ACCESSION_NUMBERS>
EXPT02025

>  <COMMON_NAME>
1,2-Dipalmitoyl-Phosphatidyl-Glycerole

>  <UNII>
VA9U6BR3SB

$$$$
