
 OpenBabel10282417143D

 30 30  0  0  0  0  0  0  0  0999 V2000
    1.0093    0.0665   -0.0530 C   0  0  0  0  0  0  0  0  0  0  0  0
    0.5900    1.4088    0.4955 C   0  0  0  0  0  0  0  0  0  0  0  0
   -0.0893    2.1853   -0.1769 O   0  0  0  0  0  0  0  0  0  0  0  0
    0.8873    1.7219    1.8002 N   0  0  0  0  0  0  0  0  0  0  0  0
    1.7634    1.0660    2.6911 C   0  0  0  0  0  0  0  0  0  0  0  0
    2.9524    0.4743    2.2200 C   0  0  0  0  0  0  0  0  0  0  0  0
    3.8552   -0.1720    3.0707 C   0  0  0  0  0  0  0  0  0  0  0  0
    3.6482   -0.1256    4.4329 C   0  0  0  0  0  0  0  0  0  0  0  0
    2.5853    0.6400    4.8795 C   0  0  0  0  0  0  0  0  0  0  0  0
    1.5430    1.0968    4.0763 C   0  0  0  0  0  0  0  0  0  0  0  0
    0.2942    1.4818    4.6454 N   0  0  0  0  0  0  0  0  0  0  0  0
   -0.1725    1.3799    5.9454 C   0  0  0  0  0  0  0  0  0  0  0  0
   -1.3362    1.7096    6.1942 O   0  0  0  0  0  0  0  0  0  0  0  0
    0.7181    0.8674    7.0935 C   0  0  0  0  0  0  0  0  0  0  0  0
    1.2180   -0.4601    6.9481 O   0  0  0  0  0  0  0  0  0  0  0  0
    4.5493   -0.8345    5.3823 C   0  0  0  0  0  0  0  0  0  0  0  0
    4.2259   -0.7981    6.6937 O   0  0  0  0  0  0  0  0  0  0  0  0
    5.5375   -1.4420    4.9793 O   0  0  0  0  0  0  0  0  0  0  0  0
    0.5413   -0.1031   -1.0249 H   0  0  0  0  0  0  0  0  0  0  0  0
    0.6970   -0.7288    0.6300 H   0  0  0  0  0  0  0  0  0  0  0  0
    2.0812    0.0238   -0.2341 H   0  0  0  0  0  0  0  0  0  0  0  0
    0.4501    2.5827    2.1153 H   0  0  0  0  0  0  0  0  0  0  0  0
    3.2543    0.5456    1.1836 H   0  0  0  0  0  0  0  0  0  0  0  0
    4.7488   -0.6413    2.6672 H   0  0  0  0  0  0  0  0  0  0  0  0
    2.6371    0.9019    5.9087 H   0  0  0  0  0  0  0  0  0  0  0  0
   -0.4494    1.7380    3.9999 H   0  0  0  0  0  0  0  0  0  0  0  0
    1.5443    1.5791    7.2109 H   0  0  0  0  0  0  0  0  0  0  0  0
    0.1994    0.9103    8.0509 H   0  0  0  0  0  0  0  0  0  0  0  0
    0.4460   -1.0256    6.7454 H   0  0  0  0  0  0  0  0  0  0  0  0
    3.3251   -0.5169    6.9632 H   0  0  0  0  0  0  0  0  0  0  0  0
  1  2  1  0  0  0  0
  1 19  1  0  0  0  0
  1 20  1  0  0  0  0
  1 21  1  0  0  0  0
  2  3  2  0  0  0  0
  2  4  1  0  0  0  0
  4  5  1  0  0  0  0
  4 22  1  0  0  0  0
  5  6  2  0  0  0  0
  5 10  1  0  0  0  0
  6  7  1  0  0  0  0
  6 23  1  0  0  0  0
  7  8  2  0  0  0  0
  7 24  1  0  0  0  0
  8  9  1  0  0  0  0
  8 16  1  0  0  0  0
  9 10  2  0  0  0  0
  9 25  1  0  0  0  0
 10 11  1  0  0  0  0
 11 12  1  0  0  0  0
 11 26  1  0  0  0  0
 12 13  2  0  0  0  0
 12 14  1  0  0  0  0
 14 15  1  0  0  0  0
 14 27  1  0  0  0  0
 14 28  1  0  0  0  0
 15 29  1  0  0  0  0
 16 17  1  0  0  0  0
 16 18  2  0  0  0  0
 17 30  1  0  0  0  0
M  END
>  <DRUGBANK_ID>
DB04565

>  <SECONDARY_ACCESSION_NUMBERS>
EXPT02962

>  <COMMON_NAME>
4-(Acetylamino)-3-[(Hydroxyacetyl)Amino]Benzoic Acid

$$$$
