
 OpenBabel10282417113D

 46 49  0  0  0  0  0  0  0  0999 V2000
    1.2559    0.2899   -0.3589 O   0  0  0  0  0  0  0  0  0  0  0  0
   -4.0041   -9.3585    3.0996 O   0  0  0  0  0  0  0  0  0  0  0  0
   -0.4173   -1.6522    0.3389 C   0  0  1  0  0  0  0  0  0  0  0  0
   -0.4206   -3.0909   -0.2475 C   0  0  2  0  0  0  0  0  0  0  0  0
   -1.1009   -4.3140    0.4130 C   0  0  2  0  0  0  0  0  0  0  0  0
    0.6049   -0.6675   -1.1733 C   0  0  2  0  0  0  0  0  0  0  0  0
   -2.2193   -1.7511    0.9264 C   0  0  0  0  0  0  0  0  0  0  0  0
    1.0772   -3.1255   -0.3968 C   0  0  0  0  0  0  0  0  0  0  0  0
   -2.8203   -3.0282    1.6455 C   0  0  0  0  0  0  0  0  0  0  0  0
    1.3699   -2.0226   -1.4529 C   0  0  0  0  0  0  0  0  0  0  0  0
   -0.9802   -5.4701   -0.5878 C   0  0  0  0  0  0  0  0  0  0  0  0
    0.0134   -1.5501    1.8466 C   0  0  0  0  0  0  0  0  0  0  0  0
   -3.0666   -5.6380    1.3819 C   0  0  0  0  0  0  0  0  0  0  0  0
   -1.1179   -6.7721    0.1571 C   0  0  0  0  0  0  0  0  0  0  0  0
   -2.3098   -6.8078    1.0652 C   0  0  0  0  0  0  0  0  0  0  0  0
   -0.9151   -0.6675   -1.1733 C   0  0  0  0  0  0  0  0  0  0  0  0
   -4.1931   -5.8145    2.1915 C   0  0  0  0  0  0  0  0  0  0  0  0
   -2.6250   -8.0456    1.6579 C   0  0  0  0  0  0  0  0  0  0  0  0
   -4.5125   -7.0655    2.7658 C   0  0  0  0  0  0  0  0  0  0  0  0
   -3.6918   -8.1738    2.4978 C   0  0  0  0  0  0  0  0  0  0  0  0
   -2.2189   -0.6675   -1.1733 C   0  0  0  0  0  0  0  0  0  0  0  0
   -0.5646   -4.5351    1.3419 H   0  0  0  0  0  0  0  0  0  0  0  0
   -2.6207   -4.2732    0.7762 C   0  0  2  0  0  0  0  0  0  0  0  0
   -3.2430   -4.1586   -0.1318 H   0  0  0  0  0  0  0  0  0  0  0  0
   -0.9115   -3.0577   -1.2344 H   0  0  0  0  0  0  0  0  0  0  0  0
    2.0949   -0.1062   -0.0691 H   0  0  0  0  0  0  0  0  0  0  0  0
   -3.3422  -10.0216    2.8218 H   0  0  0  0  0  0  0  0  0  0  0  0
   -2.4656   -0.8597    1.5271 H   0  0  0  0  0  0  0  0  0  0  0  0
   -2.9940   -1.7992    0.1568 H   0  0  0  0  0  0  0  0  0  0  0  0
    1.4565   -4.1129   -0.6385 H   0  0  0  0  0  0  0  0  0  0  0  0
    1.5620   -2.8706    0.5555 H   0  0  0  0  0  0  0  0  0  0  0  0
   -2.4519   -3.1642    2.6615 H   0  0  0  0  0  0  0  0  0  0  0  0
   -3.9150   -2.8782    1.7601 H   0  0  0  0  0  0  0  0  0  0  0  0
    1.0279   -2.4240   -2.4136 H   0  0  0  0  0  0  0  0  0  0  0  0
    2.4503   -1.8846   -1.4821 H   0  0  0  0  0  0  0  0  0  0  0  0
   -1.7505   -5.3842   -1.3708 H   0  0  0  0  0  0  0  0  0  0  0  0
   -0.0249   -5.4606   -1.1107 H   0  0  0  0  0  0  0  0  0  0  0  0
   -0.3221   -2.4719    2.3586 H   0  0  0  0  0  0  0  0  0  0  0  0
    1.0623   -1.4421    2.0773 H   0  0  0  0  0  0  0  0  0  0  0  0
   -0.5490   -0.7647    2.3826 H   0  0  0  0  0  0  0  0  0  0  0  0
   -1.1714   -7.5858   -0.5748 H   0  0  0  0  0  0  0  0  0  0  0  0
   -0.2201   -6.9159    0.7697 H   0  0  0  0  0  0  0  0  0  0  0  0
   -4.8683   -4.9842    2.4202 H   0  0  0  0  0  0  0  0  0  0  0  0
   -1.9794   -8.9066    1.4376 H   0  0  0  0  0  0  0  0  0  0  0  0
   -5.3626   -7.1874    3.4156 H   0  0  0  0  0  0  0  0  0  0  0  0
   -3.2662   -0.5338   -1.3411 H   0  0  0  0  0  0  0  0  0  0  0  0
  1 26  1  0  0  0  0
  2 20  1  0  0  0  0
  2 27  1  0  0  0  0
  3  4  1  0  0  0  0
  3  6  1  0  0  0  0
  3  7  1  0  0  0  0
  3 12  1  1  0  0  0
  4  5  1  0  0  0  0
  4  8  1  0  0  0  0
  4 25  1  6  0  0  0
  5 11  1  0  0  0  0
  5 22  1  1  0  0  0
  5 23  1  0  0  0  0
  6  1  1  0  0  0  0
  6 10  1  0  0  0  0
  6 16  1  6  0  0  0
  7  9  1  0  0  0  0
  7 28  1  0  0  0  0
  7 29  1  0  0  0  0
  8 10  1  0  0  0  0
  8 30  1  0  0  0  0
  8 31  1  0  0  0  0
  9 32  1  0  0  0  0
  9 33  1  0  0  0  0
 10 34  1  0  0  0  0
 10 35  1  0  0  0  0
 11 14  1  0  0  0  0
 11 36  1  0  0  0  0
 11 37  1  0  0  0  0
 12 38  1  0  0  0  0
 12 39  1  0  0  0  0
 12 40  1  0  0  0  0
 13 15  2  0  0  0  0
 13 17  1  0  0  0  0
 14 15  1  0  0  0  0
 14 41  1  0  0  0  0
 14 42  1  0  0  0  0
 15 18  1  0  0  0  0
 16 21  3  0  0  0  0
 17 19  2  0  0  0  0
 17 43  1  0  0  0  0
 18 20  2  0  0  0  0
 18 44  1  0  0  0  0
 19 20  1  0  0  0  0
 19 45  1  0  0  0  0
 21 46  1  0  0  0  0
 23  9  1  0  0  0  0
 23 13  1  0  0  0  0
 23 24  1  6  0  0  0
M  END
>  <DRUGBANK_ID>
DB00977

>  <SECONDARY_ACCESSION_NUMBERS>
APRD00691

>  <COMMON_NAME>
Ethinylestradiol

>  <CAS_NUMBER>
57-63-6

>  <UNII>
423D2T571U

>  <SYNONYMS>
17-ethinyl-3,17-estradiol; 17-ethinyl-3,17-oestradiol; 17-ethinylestradiol; 17alpha-Ethinyl estradiol; 17Î±-ethynylestradiol; Ethinyl estradiol; Ethinylestradiol; Ethinylestradiolum; Ethinyloestradiol; Ethynyl estradiol; Etinilestradiol

$$$$
