349
 OpenBabel10282417103D

 34 36  0  0  0  0  0  0  0  0999 V2000
    1.2144   -0.0773    0.0640 Cl  0  0  0  0  0  0  0  0  0  0  0  0
    6.2466   -3.3693   -2.1056 O   0  0  0  0  0  0  0  0  0  0  0  0
    7.8721    0.4762   -2.1508 O   0  0  0  0  0  0  0  0  0  0  0  0
    5.8602   -2.4783   -0.0037 N   0  0  0  0  0  0  0  0  0  0  0  0
    7.0860    0.1122   -0.0382 N   0  0  0  0  0  0  0  0  0  0  0  0
    5.0605   -1.2843    0.1427 C   0  0  0  0  0  0  0  0  0  0  0  0
    5.6970   -0.0184    0.1313 C   0  0  0  0  0  0  0  0  0  0  0  0
    7.8443   -1.7805   -1.3234 C   0  0  0  0  0  0  0  0  0  0  0  0
    6.5920   -2.6122   -1.1942 C   0  0  0  0  0  0  0  0  0  0  0  0
    7.6117   -0.3101   -1.2340 C   0  0  0  0  0  0  0  0  0  0  0  0
    5.8994   -3.5082    1.0210 C   0  0  0  0  0  0  0  0  0  0  0  0
    3.6559   -1.2834    0.1347 C   0  0  0  0  0  0  0  0  0  0  0  0
    4.9749    1.1858    0.1367 C   0  0  0  0  0  0  0  0  0  0  0  0
    7.9249    0.4009    1.1069 C   0  0  0  0  0  0  0  0  0  0  0  0
    2.9380   -0.0683    0.1205 C   0  0  0  0  0  0  0  0  0  0  0  0
    3.5894    1.1626    0.1202 C   0  0  0  0  0  0  0  0  0  0  0  0
    7.1351   -3.9645    1.5413 C   0  0  0  0  0  0  0  0  0  0  0  0
    4.7561   -4.1184    1.5535 C   0  0  0  0  0  0  0  0  0  0  0  0
    7.2182   -5.0267    2.4741 C   0  0  0  0  0  0  0  0  0  0  0  0
    4.8355   -5.1430    2.5260 C   0  0  0  0  0  0  0  0  0  0  0  0
    6.0645   -5.6295    2.9559 C   0  0  0  0  0  0  0  0  0  0  0  0
    8.5603   -2.0844   -0.5568 H   0  0  0  0  0  0  0  0  0  0  0  0
    8.3155   -1.9845   -2.2945 H   0  0  0  0  0  0  0  0  0  0  0  0
    3.0894   -2.2042    0.0511 H   0  0  0  0  0  0  0  0  0  0  0  0
    5.4970    2.1394    0.0750 H   0  0  0  0  0  0  0  0  0  0  0  0
    8.5792   -0.4533    1.3094 H   0  0  0  0  0  0  0  0  0  0  0  0
    8.5557    1.2625    0.8691 H   0  0  0  0  0  0  0  0  0  0  0  0
    7.3266    0.6188    1.9968 H   0  0  0  0  0  0  0  0  0  0  0  0
    3.0351    2.0980    0.0700 H   0  0  0  0  0  0  0  0  0  0  0  0
    8.0701   -3.4727    1.2871 H   0  0  0  0  0  0  0  0  0  0  0  0
    3.7685   -3.8774    1.1848 H   0  0  0  0  0  0  0  0  0  0  0  0
    8.1830   -5.3810    2.8374 H   0  0  0  0  0  0  0  0  0  0  0  0
    3.9259   -5.5772    2.9378 H   0  0  0  0  0  0  0  0  0  0  0  0
    6.1189   -6.4610    3.6595 H   0  0  0  0  0  0  0  0  0  0  0  0
  1 15  1  0  0  0  0
  2  9  2  0  0  0  0
  3 10  2  0  0  0  0
  4  6  1  0  0  0  0
  4  9  1  0  0  0  0
  4 11  1  0  0  0  0
  5  7  1  0  0  0  0
  5 10  1  0  0  0  0
  5 14  1  0  0  0  0
  6  7  2  0  0  0  0
  6 12  1  0  0  0  0
  7 13  1  0  0  0  0
  8  9  1  0  0  0  0
  8 10  1  0  0  0  0
  8 22  1  0  0  0  0
  8 23  1  0  0  0  0
 11 17  2  0  0  0  0
 11 18  1  0  0  0  0
 12 15  2  0  0  0  0
 12 24  1  0  0  0  0
 13 16  2  0  0  0  0
 13 25  1  0  0  0  0
 14 26  1  0  0  0  0
 14 27  1  0  0  0  0
 14 28  1  0  0  0  0
 15 16  1  0  0  0  0
 16 29  1  0  0  0  0
 17 19  1  0  0  0  0
 17 30  1  0  0  0  0
 18 20  2  0  0  0  0
 18 31  1  0  0  0  0
 19 21  2  0  0  0  0
 19 32  1  0  0  0  0
 20 21  1  0  0  0  0
 20 33  1  0  0  0  0
 21 34  1  0  0  0  0
M  END
>  <DRUGBANK_ID>
DB00349

>  <SECONDARY_ACCESSION_NUMBERS>
APRD00307

>  <COMMON_NAME>
Clobazam

>  <CAS_NUMBER>
22316-47-8

>  <UNII>
2MRO291B4U

>  <SYNONYMS>
1-phenyl-5-methyl-8-chloro-1,2,4,5-tetrahydro-2,4-dioxo-3H-1,5-benzodiazepine; 7-Chloro-1-methyl-5-phenyl-1,5-dihydro-benzo[b][1,4]diazepine-2,4-dione; Clobazam; Clobazamum

$$$$
