3CC
 OpenBabel10282417163D

 49 50  0  0  0  0  0  0  0  0999 V2000
   -1.2254   -0.8178    0.0704 C   0  0  0  0  0  0  0  0  0  0  0  0
   -2.4706   -0.3324   -0.0226 C   0  0  0  0  0  0  0  0  0  0  0  0
   -2.3822    1.0379   -0.1053 C   0  0  0  0  0  0  0  0  0  0  0  0
   -1.0767    1.8339   -0.0686 C   0  0  0  0  0  0  0  0  0  0  0  0
    0.1442   -0.0175   -0.2104 C   0  0  0  0  0  0  0  0  0  0  0  0
    0.2209    1.3113   -0.1230 C   0  0  0  0  0  0  0  0  0  0  0  0
    1.7162    1.7332   -0.0096 C   0  0  0  0  0  0  0  0  0  0  0  0
    2.6842    0.5790   -0.4716 C   0  0  2  0  0  0  0  0  0  0  0  0
    1.7019   -0.4837   -0.4332 C   0  0  0  0  0  0  0  0  0  0  0  0
   -3.9082   -1.4219   -0.1982 S   0  0  0  0  0  0  0  0  0  0  0  0
   -4.7130   -1.2908    1.0519 O   0  0  0  0  0  0  0  0  0  0  0  0
   -4.4688   -1.2421   -1.4709 O   0  0  0  0  0  0  0  0  0  0  0  0
   -3.4212   -3.0789   -0.1508 N   0  0  0  0  0  0  0  0  0  0  0  0
    3.9220    0.1298    0.3918 N   0  0  0  0  0  0  0  0  0  0  0  0
    4.2757   -0.9520    1.2308 C   0  0  0  0  0  0  0  0  0  0  0  0
    5.4418   -0.9394    1.6619 O   0  0  0  0  0  0  0  0  0  0  0  0
    3.3879   -2.2619    1.5943 C   0  0  0  0  0  0  0  0  0  0  0  0
    2.0294   -2.0526    2.3847 C   0  0  0  0  0  0  0  0  0  0  0  0
    0.8565   -1.5467    1.5807 C   0  0  0  0  0  0  0  0  0  0  0  0
    0.5459   -2.4688   -0.0688 C   0  0  0  0  0  0  0  0  0  0  0  0
    3.2437   -3.1226    0.3144 C   0  0  0  0  0  0  0  0  0  0  0  0
    4.4135   -3.7475   -0.3849 C   0  0  0  0  0  0  0  0  0  0  0  0
    4.9908   -4.7567    0.5348 C   0  0  0  0  0  0  0  0  0  0  0  0
    2.9831    0.5292   -1.5307 H   0  0  0  0  0  0  0  0  0  0  0  0
   -1.3283   -1.8968    0.2931 H   0  0  0  0  0  0  0  0  0  0  0  0
   -3.3233    1.5662   -0.1774 H   0  0  0  0  0  0  0  0  0  0  0  0
   -1.1936    2.9073   -0.0291 H   0  0  0  0  0  0  0  0  0  0  0  0
    1.9603    1.9267    1.0400 H   0  0  0  0  0  0  0  0  0  0  0  0
    1.9235    2.5675   -0.6654 H   0  0  0  0  0  0  0  0  0  0  0  0
    2.0160   -1.1966   -1.1675 H   0  0  0  0  0  0  0  0  0  0  0  0
    2.1694   -0.9575    0.3850 H   0  0  0  0  0  0  0  0  0  0  0  0
   -3.0426   -3.3988    0.7393 H   0  0  0  0  0  0  0  0  0  0  0  0
   -4.2514   -3.6629   -0.3562 H   0  0  0  0  0  0  0  0  0  0  0  0
    4.7470    0.6947    0.2136 H   0  0  0  0  0  0  0  0  0  0  0  0
    3.9641   -2.8369    2.3384 H   0  0  0  0  0  0  0  0  0  0  0  0
    1.6017   -2.9426    2.8376 H   0  0  0  0  0  0  0  0  0  0  0  0
    2.2374   -1.3355    3.2063 H   0  0  0  0  0  0  0  0  0  0  0  0
   -0.0265   -1.1287    2.1209 H   0  0  0  0  0  0  0  0  0  0  0  0
    1.2575   -0.4691    1.6289 H   0  0  0  0  0  0  0  0  0  0  0  0
    0.0687   -3.4070    0.1001 H   0  0  0  0  0  0  0  0  0  0  0  0
   -0.0043   -1.9368   -0.9354 H   0  0  0  0  0  0  0  0  0  0  0  0
    1.2286   -2.6604   -0.9218 H   0  0  0  0  0  0  0  0  0  0  0  0
    2.4277   -3.8489    0.4152 H   0  0  0  0  0  0  0  0  0  0  0  0
    3.0705   -2.4730   -0.5158 H   0  0  0  0  0  0  0  0  0  0  0  0
    4.0411   -4.2034   -1.3194 H   0  0  0  0  0  0  0  0  0  0  0  0
    5.1263   -2.9721   -0.6896 H   0  0  0  0  0  0  0  0  0  0  0  0
    4.2202   -5.4990    0.7654 H   0  0  0  0  0  0  0  0  0  0  0  0
    5.8550   -5.2165    0.0667 H   0  0  0  0  0  0  0  0  0  0  0  0
    5.2878   -4.2575    1.4577 H   0  0  0  0  0  0  0  0  0  0  0  0
  1  2  2  0  0  0  0
  1 25  1  0  0  0  0
  2 10  1  0  0  0  0
  3  2  1  0  0  0  0
  3 26  1  0  0  0  0
  4  3  2  0  0  0  0
  4 27  1  0  0  0  0
  5  1  1  0  0  0  0
  6  5  2  0  0  0  0
  6  4  1  0  0  0  0
  7  6  1  0  0  0  0
  7 28  1  0  0  0  0
  7 29  1  0  0  0  0
  8  7  1  0  0  0  0
  8  9  1  0  0  0  0
  8 24  1  6  0  0  0
  8 14  1  0  0  0  0
  9  5  1  0  0  0  0
  9 30  1  0  0  0  0
  9 31  1  0  0  0  0
 10 11  2  0  0  0  0
 12 10  2  0  0  0  0
 13 10  1  0  0  0  0
 13 32  1  0  0  0  0
 13 33  1  0  0  0  0
 14 34  1  0  0  0  0
 15 14  1  0  0  0  0
 16 15  2  0  0  0  0
 17 15  1  0  0  0  0
 17 18  1  0  0  0  0
 17 35  1  0  0  0  0
 18 19  1  0  0  0  0
 18 36  1  0  0  0  0
 18 37  1  0  0  0  0
 19 20  1  0  0  0  0
 19 38  1  0  0  0  0
 19 39  1  0  0  0  0
 20 40  1  0  0  0  0
 20 41  1  0  0  0  0
 20 42  1  0  0  0  0
 21 17  1  0  0  0  0
 21 43  1  0  0  0  0
 21 44  1  0  0  0  0
 22 21  1  0  0  0  0
 22 45  1  0  0  0  0
 22 46  1  0  0  0  0
 23 22  1  0  0  0  0
 23 47  1  0  0  0  0
 23 48  1  0  0  0  0
 23 49  1  0  0  0  0
M  END
>  <DRUGBANK_ID>
DB07048

>  <COMMON_NAME>
N-[(2R)-5-(aminosulfonyl)-2,3-dihydro-1H-inden-2-yl]-2-propylpentanamide

$$$$
