
 OpenBabel10282417183D

 54 56  0  0  0  0  0  0  0  0999 V2000
    0.9340   -0.2543   -0.4469 C   0  0  0  0  0  0  0  0  0  0  0  0
    1.1682    0.5916    2.5962 C   0  0  0  0  0  0  0  0  0  0  0  0
    0.3416    1.5750    1.8080 C   0  0  0  0  0  0  0  0  0  0  0  0
    0.7114    0.7424    4.0097 C   0  0  0  0  0  0  0  0  0  0  0  0
   -2.1560    4.0913   -0.1658 C   0  0  0  0  0  0  0  0  0  0  0  0
   -2.6054    2.7697   -0.1396 C   0  0  0  0  0  0  0  0  0  0  0  0
    0.6656    3.0312    1.9843 C   0  0  0  0  0  0  0  0  0  0  0  0
   -0.8563    4.3685   -0.5857 C   0  0  0  0  0  0  0  0  0  0  0  0
   -1.7770    1.7181   -0.5538 C   0  0  0  0  0  0  0  0  0  0  0  0
   -0.7941    0.4464    4.1124 C   0  0  0  0  0  0  0  0  0  0  0  0
    3.2717    4.1459   -4.3626 C   0  0  0  0  0  0  0  0  0  0  0  0
    2.7949    4.2939   -3.0548 C   0  0  0  0  0  0  0  0  0  0  0  0
    2.0700    3.3019    1.4055 C   0  0  0  0  0  0  0  0  0  0  0  0
    2.2455    1.9968   -4.5207 C   0  0  0  0  0  0  0  0  0  0  0  0
    2.9987    2.9928   -5.0842 C   0  0  0  0  0  0  0  0  0  0  0  0
    0.0165    3.3024   -0.9269 C   0  0  0  0  0  0  0  0  0  0  0  0
    2.0079    3.2937   -2.4481 C   0  0  0  0  0  0  0  0  0  0  0  0
   -0.4643    1.9670   -0.9425 C   0  0  0  0  0  0  0  0  0  0  0  0
    1.7394    2.1431   -3.2310 C   0  0  0  0  0  0  0  0  0  0  0  0
   -1.1514   -0.9857    3.7808 C   0  0  0  0  0  0  0  0  0  0  0  0
    1.5014    3.5889   -1.0373 C   0  0  3  0  0  0  0  0  0  0  0  0
    3.5644    2.7681   -6.6840 Cl  0  0  0  0  0  0  0  0  0  0  0  0
    2.3473    2.9452   -0.0103 N   0  0  0  0  0  0  0  0  0  0  0  0
    0.4162    0.8626   -1.2698 N   0  0  0  0  0  0  0  0  0  0  0  0
   -1.5447   -1.8107    4.5874 O   0  0  0  0  0  0  0  0  0  0  0  0
   -1.0026   -1.3252    2.4828 O   0  0  0  0  0  0  0  0  0  0  0  0
    1.6366   -0.4247   -3.0243 O   0  0  0  0  0  0  0  0  0  0  0  0
   -0.4748    0.8411   -3.5984 O   0  0  0  0  0  0  0  0  0  0  0  0
    0.7516    0.7311   -2.8644 S   0  0  0  0  0  0  0  0  0  0  0  0
    0.7732   -1.2301   -0.9009 H   0  0  0  0  0  0  0  0  0  0  0  0
    0.4089   -0.3866    0.4829 H   0  0  0  0  0  0  0  0  0  0  0  0
    2.0159   -0.1283   -0.2599 H   0  0  0  0  0  0  0  0  0  0  0  0
    1.0430   -0.4517    2.2942 H   0  0  0  0  0  0  0  0  0  0  0  0
    2.2331    0.7534    2.4148 H   0  0  0  0  0  0  0  0  0  0  0  0
   -0.7274    1.3432    1.7636 H   0  0  0  0  0  0  0  0  0  0  0  0
    0.6797    1.4224    0.8321 H   0  0  0  0  0  0  0  0  0  0  0  0
    1.3115    0.0855    4.6361 H   0  0  0  0  0  0  0  0  0  0  0  0
    0.9196    1.7722    4.3182 H   0  0  0  0  0  0  0  0  0  0  0  0
   -2.7866    4.8899    0.2221 H   0  0  0  0  0  0  0  0  0  0  0  0
   -3.5937    2.5459    0.2529 H   0  0  0  0  0  0  0  0  0  0  0  0
    0.5315    3.3516    3.0155 H   0  0  0  0  0  0  0  0  0  0  0  0
   -0.0694    3.6304    1.4689 H   0  0  0  0  0  0  0  0  0  0  0  0
   -0.4803    5.3885   -0.4756 H   0  0  0  0  0  0  0  0  0  0  0  0
   -2.1204    0.6925   -0.4758 H   0  0  0  0  0  0  0  0  0  0  0  0
   -1.1070    0.6689    5.1311 H   0  0  0  0  0  0  0  0  0  0  0  0
   -1.4291    1.1019    3.5022 H   0  0  0  0  0  0  0  0  0  0  0  0
    3.8554    4.9384   -4.8161 H   0  0  0  0  0  0  0  0  0  0  0  0
    3.0310    5.2127   -2.5165 H   0  0  0  0  0  0  0  0  0  0  0  0
    2.7792    2.7217    2.0093 H   0  0  0  0  0  0  0  0  0  0  0  0
    2.3223    4.3466    1.5767 H   0  0  0  0  0  0  0  0  0  0  0  0
    2.0174    1.0883   -5.0783 H   0  0  0  0  0  0  0  0  0  0  0  0
    1.6525    4.6648   -0.8509 H   0  0  0  0  0  0  0  0  0  0  0  0
    2.2750    1.9414   -0.1487 H   0  0  0  0  0  0  0  0  0  0  0  0
   -1.1337   -2.2971    2.4380 H   0  0  0  0  0  0  0  0  0  0  0  0
  1 30  1  0  0  0  0
  1 31  1  0  0  0  0
  1 32  1  0  0  0  0
  2 33  1  0  0  0  0
  2 34  1  0  0  0  0
  3  2  1  0  0  0  0
  3 35  1  0  0  0  0
  3 36  1  0  0  0  0
  4  2  1  0  0  0  0
  4 37  1  0  0  0  0
  4 38  1  0  0  0  0
  5 39  1  0  0  0  0
  6  5  2  0  0  0  0
  6 40  1  0  0  0  0
  7  3  1  0  0  0  0
  7 41  1  0  0  0  0
  7 42  1  0  0  0  0
  8  5  1  0  0  0  0
  8 43  1  0  0  0  0
  9  6  1  0  0  0  0
  9 44  1  0  0  0  0
 10  4  1  0  0  0  0
 10 45  1  0  0  0  0
 10 46  1  0  0  0  0
 11 47  1  0  0  0  0
 12 11  2  0  0  0  0
 12 48  1  0  0  0  0
 13  7  1  0  0  0  0
 13 49  1  0  0  0  0
 13 50  1  0  0  0  0
 14 51  1  0  0  0  0
 15 11  1  0  0  0  0
 15 14  2  0  0  0  0
 16  8  2  0  0  0  0
 17 12  1  0  0  0  0
 18  9  2  0  0  0  0
 18 16  1  0  0  0  0
 19 14  1  0  0  0  0
 19 17  2  0  0  0  0
 20 10  1  0  0  0  0
 21 16  1  0  0  0  0
 21 17  1  0  0  0  0
 21 52  1  0  0  0  0
 22 15  1  0  0  0  0
 23 13  1  0  0  0  0
 23 21  1  0  0  0  0
 23 53  1  0  0  0  0
 24  1  1  0  0  0  0
 24 18  1  0  0  0  0
 25 20  2  0  0  0  0
 26 20  1  0  0  0  0
 26 54  1  0  0  0  0
 29 19  1  0  0  0  0
 29 24  1  0  0  0  0
 29 27  2  0  0  0  0
 29 28  2  0  0  0  0
M  END
>  <DRUGBANK_ID>
DB09289

>  <COMMON_NAME>
Tianeptine

>  <CAS_NUMBER>
72797-41-2

>  <UNII>
0T493YFU8O

>  <SYNONYMS>
Tianeptina; Tianeptine

$$$$
