
 OpenBabel10282417193D

 42 44  0  0  1  0  0  0  0  0999 V2000
    1.0941    0.1582    0.1505 C   0  0  0  0  0  0  0  0  0  0  0  0
    0.5103    1.4932    0.3343 N   0  0  0  0  0  0  0  0  0  0  0  0
    1.1933    2.6778    0.7016 C   0  0  0  0  0  0  0  0  0  0  0  0
    2.3356    2.7328    1.1291 O   0  0  0  0  0  0  0  0  0  0  0  0
    0.3176    3.7371    0.4927 N   0  0  0  0  0  0  0  0  0  0  0  0
   -0.8364    3.2280   -0.0839 C   0  0  0  0  0  0  0  0  0  0  0  0
   -1.6378    3.8335   -0.7848 O   0  0  0  0  0  0  0  0  0  0  0  0
   -0.9435    1.7489    0.3353 C   0  0  2  0  0  0  0  0  0  0  0  0
   -1.4837    1.7762    1.8020 C   0  0  0  0  0  0  0  0  0  0  0  0
   -0.8831    0.7823    2.6324 O   0  0  0  0  0  0  0  0  0  0  0  0
   -1.7697    0.8482   -0.5750 C   0  0  0  0  0  0  0  0  0  0  0  0
   -1.3583    0.6333   -1.8960 C   0  0  0  0  0  0  0  0  0  0  0  0
   -2.0743   -0.2140   -2.7396 C   0  0  0  0  0  0  0  0  0  0  0  0
   -3.2202   -0.8607   -2.2842 C   0  0  0  0  0  0  0  0  0  0  0  0
   -3.6319   -0.6961   -0.9733 C   0  0  0  0  0  0  0  0  0  0  0  0
   -2.9431    0.1846   -0.1470 C   0  0  0  0  0  0  0  0  0  0  0  0
    0.5842    5.1374    0.6154 C   0  0  0  0  0  0  0  0  0  0  0  0
    1.7101    5.7464    0.0518 C   0  0  0  0  0  0  0  0  0  0  0  0
    1.8934    7.1497    0.1061 C   0  0  0  0  0  0  0  0  0  0  0  0
    0.9679    7.9853    0.7440 C   0  0  0  0  0  0  0  0  0  0  0  0
   -0.1941    7.4058    1.2699 C   0  0  0  0  0  0  0  0  0  0  0  0
   -0.3407    5.9852    1.2573 C   0  0  0  0  0  0  0  0  0  0  0  0
   -1.3530    8.2596    1.7365 C   0  0  0  0  0  0  0  0  0  0  0  0
   -2.4851    7.9622    1.0393 F   0  0  0  0  0  0  0  0  0  0  0  0
   -1.6529    8.0715    3.0471 F   0  0  0  0  0  0  0  0  0  0  0  0
   -1.1892    9.5983    1.5774 F   0  0  0  0  0  0  0  0  0  0  0  0
    1.2466    9.3910    0.8751 C   0  0  0  0  0  0  0  0  0  0  0  0
    1.4619   10.5291    1.0375 N   0  0  0  0  0  0  0  0  0  0  0  0
    0.8080   -0.2341   -0.8315 H   0  0  0  0  0  0  0  0  0  0  0  0
    0.7184   -0.5461    0.8975 H   0  0  0  0  0  0  0  0  0  0  0  0
    2.1860    0.1768    0.1739 H   0  0  0  0  0  0  0  0  0  0  0  0
   -1.3320    2.7468    2.2821 H   0  0  0  0  0  0  0  0  0  0  0  0
   -2.5626    1.6447    1.8632 H   0  0  0  0  0  0  0  0  0  0  0  0
   -0.9200   -0.0665    2.1570 H   0  0  0  0  0  0  0  0  0  0  0  0
   -0.4601    1.1182   -2.2740 H   0  0  0  0  0  0  0  0  0  0  0  0
   -1.7292   -0.3706   -3.7564 H   0  0  0  0  0  0  0  0  0  0  0  0
   -3.8056   -1.4814   -2.9539 H   0  0  0  0  0  0  0  0  0  0  0  0
   -4.4916   -1.2374   -0.5849 H   0  0  0  0  0  0  0  0  0  0  0  0
   -3.3972    0.3227    0.8295 H   0  0  0  0  0  0  0  0  0  0  0  0
    2.4484    5.1531   -0.4811 H   0  0  0  0  0  0  0  0  0  0  0  0
    2.7604    7.5958   -0.3830 H   0  0  0  0  0  0  0  0  0  0  0  0
   -1.1894    5.5524    1.7901 H   0  0  0  0  0  0  0  0  0  0  0  0
  1  2  1  0  0  0  0
  1 29  1  0  0  0  0
  1 30  1  0  0  0  0
  1 31  1  0  0  0  0
  2  3  1  0  0  0  0
  2  8  1  0  0  0  0
  3  4  2  0  0  0  0
  3  5  1  0  0  0  0
  5  6  1  0  0  0  0
  5 17  1  0  0  0  0
  6  7  2  0  0  0  0
  6  8  1  0  0  0  0
  8 11  1  0  0  0  0
  8  9  1  1  0  0  0
  9 10  1  0  0  0  0
  9 32  1  0  0  0  0
  9 33  1  0  0  0  0
 10 34  1  0  0  0  0
 11 12  2  0  0  0  0
 11 16  1  0  0  0  0
 12 13  1  0  0  0  0
 12 35  1  0  0  0  0
 13 14  2  0  0  0  0
 13 36  1  0  0  0  0
 14 15  1  0  0  0  0
 14 37  1  0  0  0  0
 15 16  2  0  0  0  0
 15 38  1  0  0  0  0
 16 39  1  0  0  0  0
 17 18  2  0  0  0  0
 17 22  1  0  0  0  0
 18 19  1  0  0  0  0
 18 40  1  0  0  0  0
 19 20  2  0  0  0  0
 19 41  1  0  0  0  0
 20 21  1  0  0  0  0
 20 27  1  0  0  0  0
 21 22  2  0  0  0  0
 21 23  1  0  0  0  0
 22 42  1  0  0  0  0
 23 24  1  0  0  0  0
 23 25  1  0  0  0  0
 23 26  1  0  0  0  0
 27 28  3  0  0  0  0
M  END
>  <DRUGBANK_ID>
DB12461

>  <COMMON_NAME>
GLPG-0492

>  <CAS_NUMBER>
1215085-92-9

>  <UNII>
8O59X1ACZT

$$$$
