PVB
 OpenBabel10282417123D

 55 57  0  0  0  0  0  0  0  0999 V2000
   -5.2279   -3.0210    3.3298 N   0  0  0  0  0  0  0  0  0  0  0  0
   -5.2029    1.9182    1.5742 C   0  0  0  0  0  0  0  0  0  0  0  0
   -5.5996    0.9611    2.6082 N   0  0  0  0  0  0  0  0  0  0  0  0
   -5.4366   -0.4055    2.7080 C   0  0  0  0  0  0  0  0  0  0  0  0
   -4.9057   -1.2530    1.8541 N   0  0  0  0  0  0  0  0  0  0  0  0
   -4.7288   -2.5243    2.1833 C   0  0  0  0  0  0  0  0  0  0  0  0
   -5.8912   -2.1767    4.2115 C   0  0  0  0  0  0  0  0  0  0  0  0
   -5.9392   -0.7882    3.9180 C   0  0  0  0  0  0  0  0  0  0  0  0
   -6.4191    0.3265    4.5778 N   0  0  0  0  0  0  0  0  0  0  0  0
   -6.2216    1.3397    3.7687 C   0  0  0  0  0  0  0  0  0  0  0  0
   -6.4773   -2.7093    5.3743 N   0  0  0  0  0  0  0  0  0  0  0  0
   -7.1607   -1.9796    6.3589 C   0  0  0  0  0  0  0  0  0  0  0  0
   -8.2786   -1.2047    6.0305 C   0  0  0  0  0  0  0  0  0  0  0  0
   -8.8630   -0.3404    6.9627 C   0  0  0  0  0  0  0  0  0  0  0  0
   -8.3568   -0.2425    8.2704 C   0  0  0  0  0  0  0  0  0  0  0  0
   -7.2459   -1.0317    8.6038 C   0  0  0  0  0  0  0  0  0  0  0  0
   -6.4895   -1.0264   10.1614 Cl  0  0  0  0  0  0  0  0  0  0  0  0
   -6.6577   -1.8880    7.6555 C   0  0  0  0  0  0  0  0  0  0  0  0
   -9.0808    0.7146    9.1748 C   0  0  0  0  0  0  0  0  0  0  0  0
   -8.6255    0.8174   10.4458 O   0  0  0  0  0  0  0  0  0  0  0  0
  -10.0308    1.3552    8.8013 O   0  0  0  0  0  0  0  0  0  0  0  0
   -3.9977   -3.3238    1.2991 N   0  0  0  0  0  0  0  0  0  0  0  0
   -3.2936   -2.8753    0.0268 C   0  0  2  0  0  0  0  0  0  0  0  0
   -3.4385   -1.3432   -0.1983 C   0  0  0  0  0  0  0  0  0  0  0  0
   -2.6803   -0.4068    0.7636 C   0  0  0  0  0  0  0  0  0  0  0  0
   -3.6434   -0.6621   -1.5369 C   0  0  0  0  0  0  0  0  0  0  0  0
   -3.9001   -3.6052   -1.2171 C   0  0  0  0  0  0  0  0  0  0  0  0
   -3.1361   -3.4615   -2.4250 O   0  0  0  0  0  0  0  0  0  0  0  0
   -6.3836    2.6302    0.9229 C   0  0  0  0  0  0  0  0  0  0  0  0
   -4.1715    2.9413    2.0883 C   0  0  0  0  0  0  0  0  0  0  0  0
   -2.2330   -3.1661    0.0929 H   0  0  0  0  0  0  0  0  0  0  0  0
   -4.7815    1.3831    0.7308 H   0  0  0  0  0  0  0  0  0  0  0  0
   -6.4980    2.3662    3.9634 H   0  0  0  0  0  0  0  0  0  0  0  0
   -6.2139   -3.6641    5.5667 H   0  0  0  0  0  0  0  0  0  0  0  0
   -8.6634   -1.2202    5.0110 H   0  0  0  0  0  0  0  0  0  0  0  0
   -9.7030    0.2738    6.6377 H   0  0  0  0  0  0  0  0  0  0  0  0
   -5.7608   -2.4429    7.9199 H   0  0  0  0  0  0  0  0  0  0  0  0
   -7.8505    0.2707   10.6700 H   0  0  0  0  0  0  0  0  0  0  0  0
   -3.9684   -4.3059    1.5473 H   0  0  0  0  0  0  0  0  0  0  0  0
   -4.5017   -1.2816   -0.0090 H   0  0  0  0  0  0  0  0  0  0  0  0
   -1.8206    0.1175    0.3476 H   0  0  0  0  0  0  0  0  0  0  0  0
   -3.3587    0.4032    0.9568 H   0  0  0  0  0  0  0  0  0  0  0  0
   -2.4576   -0.7884    1.7673 H   0  0  0  0  0  0  0  0  0  0  0  0
   -4.2585   -1.2662   -2.2056 H   0  0  0  0  0  0  0  0  0  0  0  0
   -4.2752    0.2209   -1.3643 H   0  0  0  0  0  0  0  0  0  0  0  0
   -2.7130   -0.3537   -2.0031 H   0  0  0  0  0  0  0  0  0  0  0  0
   -3.9684   -4.6827   -1.0615 H   0  0  0  0  0  0  0  0  0  0  0  0
   -4.9237   -3.2481   -1.3899 H   0  0  0  0  0  0  0  0  0  0  0  0
   -2.9529   -2.5303   -2.6279 H   0  0  0  0  0  0  0  0  0  0  0  0
   -6.9385    3.2419    1.6364 H   0  0  0  0  0  0  0  0  0  0  0  0
   -6.0287    3.2808    0.1134 H   0  0  0  0  0  0  0  0  0  0  0  0
   -7.0605    1.8933    0.4793 H   0  0  0  0  0  0  0  0  0  0  0  0
   -3.2878    2.4530    2.5150 H   0  0  0  0  0  0  0  0  0  0  0  0
   -3.8258    3.5989    1.2809 H   0  0  0  0  0  0  0  0  0  0  0  0
   -4.6001    3.5858    2.8648 H   0  0  0  0  0  0  0  0  0  0  0  0
  1  6  1  0  0  0  0
  1  7  2  0  0  0  0
  2  3  1  0  0  0  0
  2 29  1  0  0  0  0
  2 30  1  0  0  0  0
  2 32  1  0  0  0  0
  3  4  1  0  0  0  0
  3 10  1  0  0  0  0
  4  5  1  0  0  0  0
  4  8  2  0  0  0  0
  5  6  2  0  0  0  0
  6 22  1  0  0  0  0
  7  8  1  0  0  0  0
  7 11  1  0  0  0  0
  8  9  1  0  0  0  0
  9 10  2  0  0  0  0
 10 33  1  0  0  0  0
 11 12  1  0  0  0  0
 11 34  1  0  0  0  0
 12 13  2  0  0  0  0
 12 18  1  0  0  0  0
 13 14  1  0  0  0  0
 13 35  1  0  0  0  0
 14 15  2  0  0  0  0
 14 36  1  0  0  0  0
 15 16  1  0  0  0  0
 15 19  1  0  0  0  0
 16 17  1  0  0  0  0
 16 18  2  0  0  0  0
 18 37  1  0  0  0  0
 19 20  1  0  0  0  0
 19 21  2  0  0  0  0
 20 38  1  0  0  0  0
 22 39  1  0  0  0  0
 23 27  1  0  0  0  0
 23 31  1  1  0  0  0
 23 24  1  0  0  0  0
 23 22  1  0  0  0  0
 24 25  1  0  0  0  0
 24 26  1  0  0  0  0
 24 40  1  0  0  0  0
 25 41  1  0  0  0  0
 25 42  1  0  0  0  0
 25 43  1  0  0  0  0
 26 44  1  0  0  0  0
 26 45  1  0  0  0  0
 26 46  1  0  0  0  0
 27 28  1  0  0  0  0
 27 47  1  0  0  0  0
 27 48  1  0  0  0  0
 28 49  1  0  0  0  0
 29 50  1  0  0  0  0
 29 51  1  0  0  0  0
 29 52  1  0  0  0  0
 30 53  1  0  0  0  0
 30 54  1  0  0  0  0
 30 55  1  0  0  0  0
M  END
>  <DRUGBANK_ID>
DB02733

>  <SECONDARY_ACCESSION_NUMBERS>
EXPT02705

>  <COMMON_NAME>
Purvalanol

$$$$
