
 OpenBabel10282417203D

 44 47  0  0  0  0  0  0  0  0999 V2000
   -0.6143   -1.0984   -0.8036 C   0  0  0  0  0  0  0  0  0  0  0  0
   -1.9111   -1.5824   -1.3781 C   0  0  0  0  0  0  0  0  0  0  0  0
    1.5392    1.1604    1.0856 C   0  0  2  0  0  0  0  0  0  0  0  0
   -2.8484   -0.8658   -0.4139 C   0  0  0  0  0  0  0  0  0  0  0  0
   -0.3164    0.5252   -0.9642 C   0  0  2  0  0  0  0  0  0  0  0  0
    0.8636    1.3524   -0.2028 C   0  0  2  0  0  0  0  0  0  0  0  0
    0.7843   -1.4192   -0.1932 C   0  0  0  0  0  0  0  0  0  0  0  0
    1.6190   -0.5308    0.5383 C   0  0  0  0  0  0  0  0  0  0  0  0
    0.4007    2.5477    1.9248 C   0  0  2  0  0  0  0  0  0  0  0  0
   -3.8929   -1.4678    0.1582 C   0  0  0  0  0  0  0  0  0  0  0  0
   -0.2235    1.3919    2.6628 C   0  0  0  0  0  0  0  0  0  0  0  0
   -3.2735   -2.6784   -2.1423 C   0  0  0  0  0  0  0  0  0  0  0  0
   -1.6467    1.2071   -0.6945 C   0  0  0  0  0  0  0  0  0  0  0  0
    1.1369    2.8538   -0.3691 C   0  0  0  0  0  0  0  0  0  0  0  0
   -0.5841    0.3227    2.9620 C   0  0  0  0  0  0  0  0  0  0  0  0
   -2.5852    0.4550    0.1753 C   0  0  0  0  0  0  0  0  0  0  0  0
   -3.8633   -2.9001   -0.1089 C   0  0  0  0  0  0  0  0  0  0  0  0
    0.1238    3.4457    0.4892 C   0  0  0  0  0  0  0  0  0  0  0  0
   -2.9843   -3.6879    0.2349 O   0  0  0  0  0  0  0  0  0  0  0  0
   -4.6301   -3.1442   -1.2956 C   0  0  0  0  0  0  0  0  0  0  0  0
   -0.9312    3.2480    2.0281 O   0  0  0  0  0  0  0  0  0  0  0  0
    3.1053    1.4931    1.3178 C   0  0  0  0  0  0  0  0  0  0  0  0
    0.0877    1.1491    0.5297 H   0  0  0  0  0  0  0  0  0  0  0  0
    0.0435    0.6504   -1.9804 H   0  0  0  0  0  0  0  0  0  0  0  0
    1.2006   -2.4252   -0.3328 H   0  0  0  0  0  0  0  0  0  0  0  0
    2.6887   -0.8594    0.5352 H   0  0  0  0  0  0  0  0  0  0  0  0
   -4.7982   -0.8805   -0.0038 H   0  0  0  0  0  0  0  0  0  0  0  0
   -3.1018   -3.6674   -2.6072 H   0  0  0  0  0  0  0  0  0  0  0  0
   -3.6823   -2.1362   -3.0340 H   0  0  0  0  0  0  0  0  0  0  0  0
   -2.0605    1.5227   -1.6384 H   0  0  0  0  0  0  0  0  0  0  0  0
   -1.5713    2.0476   -0.0485 H   0  0  0  0  0  0  0  0  0  0  0  0
    2.0014    3.2725    0.1726 H   0  0  0  0  0  0  0  0  0  0  0  0
    1.2600    3.1997   -1.3809 H   0  0  0  0  0  0  0  0  0  0  0  0
   -0.7347   -0.7401    2.8241 H   0  0  0  0  0  0  0  0  0  0  0  0
   -3.4838    1.0596    0.3207 H   0  0  0  0  0  0  0  0  0  0  0  0
   -2.2013    0.3426    1.1975 H   0  0  0  0  0  0  0  0  0  0  0  0
    0.2101    4.5450    0.6260 H   0  0  0  0  0  0  0  0  0  0  0  0
   -0.8184    3.4850   -0.0971 H   0  0  0  0  0  0  0  0  0  0  0  0
   -4.9570   -4.1962   -1.1772 H   0  0  0  0  0  0  0  0  0  0  0  0
   -5.5524   -2.5284   -1.3544 H   0  0  0  0  0  0  0  0  0  0  0  0
   -1.6303    2.9201    2.6183 H   0  0  0  0  0  0  0  0  0  0  0  0
    3.3710    1.1444    2.3228 H   0  0  0  0  0  0  0  0  0  0  0  0
    3.8184    0.9471    0.6682 H   0  0  0  0  0  0  0  0  0  0  0  0
    3.4389    2.5385    1.2397 H   0  0  0  0  0  0  0  0  0  0  0  0
  2  1  2  0  0  0  0
  3  8  1  0  0  0  0
  3 22  1  6  0  0  0
  4  2  1  0  0  0  0
  4 16  1  0  0  0  0
  5  1  1  0  0  0  0
  5 24  1  6  0  0  0
  6  5  1  0  0  0  0
  6 23  1  1  0  0  0
  6  3  1  0  0  0  0
  7  1  1  0  0  0  0
  7 25  1  0  0  0  0
  8  7  2  0  0  0  0
  8 26  1  0  0  0  0
  9  3  1  0  0  0  0
  9 18  1  0  0  0  0
  9 21  1  0  0  0  0
  9 11  1  6  0  0  0
 10  4  2  0  0  0  0
 10 17  1  0  0  0  0
 10 27  1  0  0  0  0
 12  2  1  0  0  0  0
 12 28  1  0  0  0  0
 12 29  1  0  0  0  0
 13  5  1  0  0  0  0
 13 30  1  0  0  0  0
 13 31  1  0  0  0  0
 14  6  1  0  0  0  0
 14 32  1  0  0  0  0
 14 33  1  0  0  0  0
 15 11  3  0  0  0  0
 15 34  1  0  0  0  0
 16 13  1  0  0  0  0
 16 35  1  0  0  0  0
 16 36  1  0  0  0  0
 17 20  1  0  0  0  0
 18 14  1  0  0  0  0
 18 37  1  0  0  0  0
 18 38  1  0  0  0  0
 19 17  2  0  0  0  0
 20 12  1  0  0  0  0
 20 39  1  0  0  0  0
 20 40  1  0  0  0  0
 21 41  1  0  0  0  0
 22 42  1  0  0  0  0
 22 43  1  0  0  0  0
 22 44  1  0  0  0  0
M  END
>  <DRUGBANK_ID>
DB13563

>  <COMMON_NAME>
Norgestrienone

>  <CAS_NUMBER>
848-21-5

>  <UNII>
89386PYU9O

>  <SYNONYMS>
Norgestrienone

$$$$
