1069
 OpenBabel10282417113D

 40 42  0  0  1  0  0  0  0  0999 V2000
    0.0479    1.6962    0.1337 S   0  0  0  0  0  0  0  0  0  0  0  0
    0.0521   -1.3249    0.6105 N   0  0  0  0  0  0  0  0  0  0  0  0
   -2.2666   -1.2201    3.1777 N   0  0  0  0  0  0  0  0  0  0  0  0
   -0.8075   -1.5721    3.2081 C   0  0  3  0  0  0  0  0  0  0  0  0
   -0.1150   -2.1807    1.8563 C   0  0  0  0  0  0  0  0  0  0  0  0
    1.3283   -0.7623    0.3562 C   0  0  0  0  0  0  0  0  0  0  0  0
   -1.0366   -0.8884   -0.1952 C   0  0  0  0  0  0  0  0  0  0  0  0
   -0.6434   -2.6316    4.3261 C   0  0  0  0  0  0  0  0  0  0  0  0
    1.4521    0.6064    0.0572 C   0  0  0  0  0  0  0  0  0  0  0  0
   -1.1907    0.5183   -0.4355 C   0  0  0  0  0  0  0  0  0  0  0  0
   -2.9013   -0.7272    4.3892 C   0  0  0  0  0  0  0  0  0  0  0  0
   -2.4643   -0.1172    2.2761 C   0  0  0  0  0  0  0  0  0  0  0  0
    2.4187   -1.6047    0.1235 C   0  0  0  0  0  0  0  0  0  0  0  0
   -2.1353   -1.7307   -0.4752 C   0  0  0  0  0  0  0  0  0  0  0  0
    2.6471    1.1326   -0.4505 C   0  0  0  0  0  0  0  0  0  0  0  0
   -2.4364    1.0560   -0.7959 C   0  0  0  0  0  0  0  0  0  0  0  0
    3.5963   -1.0848   -0.4389 C   0  0  0  0  0  0  0  0  0  0  0  0
   -3.3793   -1.1711   -0.8259 C   0  0  0  0  0  0  0  0  0  0  0  0
    3.7012    0.2715   -0.7187 C   0  0  0  0  0  0  0  0  0  0  0  0
   -3.5316    0.2116   -0.9713 C   0  0  0  0  0  0  0  0  0  0  0  0
   -0.2235   -0.6887    3.5008 H   0  0  0  0  0  0  0  0  0  0  0  0
   -0.6055   -3.1236    1.5889 H   0  0  0  0  0  0  0  0  0  0  0  0
    0.8948   -2.4792    2.1836 H   0  0  0  0  0  0  0  0  0  0  0  0
    0.4072   -2.8734    4.5112 H   0  0  0  0  0  0  0  0  0  0  0  0
   -1.0395   -2.2804    5.2854 H   0  0  0  0  0  0  0  0  0  0  0  0
   -1.1723   -3.5577    4.0704 H   0  0  0  0  0  0  0  0  0  0  0  0
   -2.4160    0.1860    4.7488 H   0  0  0  0  0  0  0  0  0  0  0  0
   -3.9436   -0.4704    4.1397 H   0  0  0  0  0  0  0  0  0  0  0  0
   -2.9726   -1.4726    5.1758 H   0  0  0  0  0  0  0  0  0  0  0  0
   -1.8095    0.7429    2.4352 H   0  0  0  0  0  0  0  0  0  0  0  0
   -2.2218   -0.6074    1.4010 H   0  0  0  0  0  0  0  0  0  0  0  0
   -3.4965    0.1786    2.0805 H   0  0  0  0  0  0  0  0  0  0  0  0
    2.3209   -2.6751    0.2509 H   0  0  0  0  0  0  0  0  0  0  0  0
   -2.0994   -2.7803   -0.1992 H   0  0  0  0  0  0  0  0  0  0  0  0
    2.7128    2.1837   -0.7038 H   0  0  0  0  0  0  0  0  0  0  0  0
   -2.5887    2.1338   -0.7966 H   0  0  0  0  0  0  0  0  0  0  0  0
    4.4010   -1.7625   -0.7043 H   0  0  0  0  0  0  0  0  0  0  0  0
   -4.2647   -1.8045   -0.8421 H   0  0  0  0  0  0  0  0  0  0  0  0
    4.5991    0.6665   -1.1964 H   0  0  0  0  0  0  0  0  0  0  0  0
   -4.5187    0.6418   -1.1275 H   0  0  0  0  0  0  0  0  0  0  0  0
  1  9  1  0  0  0  0
  1 10  1  0  0  0  0
  2  5  1  0  0  0  0
  2  6  1  0  0  0  0
  2  7  1  0  0  0  0
  3  4  1  0  0  0  0
  3 11  1  0  0  0  0
  3 12  1  0  0  0  0
  4  5  1  0  0  0  0
  4  8  1  0  0  0  0
  4 21  1  0  0  0  0
  5 22  1  0  0  0  0
  5 23  1  0  0  0  0
  6  9  1  0  0  0  0
  6 13  2  0  0  0  0
  7 10  1  0  0  0  0
  7 14  2  0  0  0  0
  8 24  1  0  0  0  0
  8 25  1  0  0  0  0
  8 26  1  0  0  0  0
  9 15  2  0  0  0  0
 10 16  2  0  0  0  0
 11 27  1  0  0  0  0
 11 28  1  0  0  0  0
 11 29  1  0  0  0  0
 12 30  1  0  0  0  0
 12 31  1  0  0  0  0
 12 32  1  0  0  0  0
 13 17  1  0  0  0  0
 13 33  1  0  0  0  0
 14 18  1  0  0  0  0
 14 34  1  0  0  0  0
 15 19  1  0  0  0  0
 15 35  1  0  0  0  0
 16 20  1  0  0  0  0
 16 36  1  0  0  0  0
 17 19  2  0  0  0  0
 17 37  1  0  0  0  0
 18 20  2  0  0  0  0
 18 38  1  0  0  0  0
 19 39  1  0  0  0  0
 20 40  1  0  0  0  0
M  END
>  <DRUGBANK_ID>
DB01069

>  <SECONDARY_ACCESSION_NUMBERS>
APRD00601

>  <COMMON_NAME>
Promethazine

>  <CAS_NUMBER>
60-87-7

>  <UNII>
FF28EJQ494

>  <SYNONYMS>
(2-dimethylamino-2-methyl)ethyl-N-dibenzoparathiazine; 10-(2-Dimethylaminopropyl)phenothiazine; 10-[2-(dimethylamino)propyl]phenothiazine; N-(2'-dimethylamino-2'-methyl)ethylphenothiazine; N,N,alpha-trimethyl-10H-phenothiazine-10-ethanamine; N,N,Î±-trimethyl-10H-phenothiazine-10-ethanamine; Proazamine; Prometazina; Promethazine; Promethazinum

$$$$
