TYB
 OpenBabel10282417133D

 23 23  0  0  0  0  0  0  0  0999 V2000
    0.9369    2.5391   -0.3559 N   0  0  0  0  0  0  0  0  0  0  0  0
    0.5077    1.4055    0.4933 C   0  0  2  0  0  0  0  0  0  0  0  0
    1.2732    0.1818   -0.0313 C   0  0  0  0  0  0  0  0  0  0  0  0
    2.5005    0.1661   -0.1773 O   0  0  0  0  0  0  0  0  0  0  0  0
   -1.0400    1.3164    0.5168 C   0  0  0  0  0  0  0  0  0  0  0  0
   -1.5593    0.2336    1.4400 C   0  0  0  0  0  0  0  0  0  0  0  0
   -2.2465    0.5125    2.6293 C   0  0  0  0  0  0  0  0  0  0  0  0
   -1.3096   -1.1061    1.1259 C   0  0  0  0  0  0  0  0  0  0  0  0
   -2.5750   -0.5290    3.5131 C   0  0  0  0  0  0  0  0  0  0  0  0
   -1.5252   -2.1207    2.0428 C   0  0  0  0  0  0  0  0  0  0  0  0
   -2.1742   -1.8318    3.2252 C   0  0  0  0  0  0  0  0  0  0  0  0
   -2.4227   -2.8865    4.0487 O   0  0  0  0  0  0  0  0  0  0  0  0
    0.8622    1.5753    1.5174 H   0  0  0  0  0  0  0  0  0  0  0  0
    0.6631    2.3497   -1.3216 H   0  0  0  0  0  0  0  0  0  0  0  0
    1.9644    2.5051   -0.3808 H   0  0  0  0  0  0  0  0  0  0  0  0
    0.7052   -0.6861   -0.3643 H   0  0  0  0  0  0  0  0  0  0  0  0
   -1.4385    2.2885    0.8471 H   0  0  0  0  0  0  0  0  0  0  0  0
   -1.4441    1.1515   -0.4898 H   0  0  0  0  0  0  0  0  0  0  0  0
   -2.5381    1.5319    2.8794 H   0  0  0  0  0  0  0  0  0  0  0  0
   -0.9368   -1.3998    0.1552 H   0  0  0  0  0  0  0  0  0  0  0  0
   -3.1232   -0.3038    4.4226 H   0  0  0  0  0  0  0  0  0  0  0  0
   -1.2015   -3.1309    1.8146 H   0  0  0  0  0  0  0  0  0  0  0  0
   -2.9687   -2.5876    4.7911 H   0  0  0  0  0  0  0  0  0  0  0  0
  1 14  1  0  0  0  0
  1 15  1  0  0  0  0
  2  5  1  0  0  0  0
  2 13  1  1  0  0  0
  2  3  1  0  0  0  0
  2  1  1  0  0  0  0
  3  4  2  0  0  0  0
  3 16  1  0  0  0  0
  5  6  1  0  0  0  0
  5 17  1  0  0  0  0
  5 18  1  0  0  0  0
  6  7  2  0  0  0  0
  6  8  1  0  0  0  0
  7  9  1  0  0  0  0
  7 19  1  0  0  0  0
  8 10  2  0  0  0  0
  8 20  1  0  0  0  0
  9 11  2  0  0  0  0
  9 21  1  0  0  0  0
 10 11  1  0  0  0  0
 10 22  1  0  0  0  0
 11 12  1  0  0  0  0
 12 23  1  0  0  0  0
M  END
>  <DRUGBANK_ID>
DB03978

>  <SECONDARY_ACCESSION_NUMBERS>
EXPT03134

>  <COMMON_NAME>
Tyrosinal

$$$$
