
 OpenBabel10282417143D

 30 32  0  0  0  0  0  0  0  0999 V2000
    1.1359    1.4161    0.0228 O   0  0  0  0  0  0  0  0  0  0  0  0
   -3.5757    1.4155   -0.0034 O   0  0  0  0  0  0  0  0  0  0  0  0
    7.5341   -3.0606   -0.1400 O   0  0  0  0  0  0  0  0  0  0  0  0
    2.3831   -0.7786    0.0254 C   0  0  0  0  0  0  0  0  0  0  0  0
    2.4020    0.7327   -0.0051 C   0  0  0  0  0  0  0  0  0  0  0  0
   -0.0148   -0.7285    0.0026 C   0  0  0  0  0  0  0  0  0  0  0  0
    1.2404   -1.4702    0.0194 C   0  0  0  0  0  0  0  0  0  0  0  0
   -0.0068    0.6686    0.0046 C   0  0  0  0  0  0  0  0  0  0  0  0
    3.6913   -1.4686    0.0379 C   0  0  0  0  0  0  0  0  0  0  0  0
   -1.2386   -1.4089   -0.0025 C   0  0  0  0  0  0  0  0  0  0  0  0
   -1.2132    1.3772   -0.0001 C   0  0  0  0  0  0  0  0  0  0  0  0
    4.6335   -1.2083    1.0421 C   0  0  0  0  0  0  0  0  0  0  0  0
    4.0349   -2.3621   -0.9885 C   0  0  0  0  0  0  0  0  0  0  0  0
   -2.4217    0.6876   -0.0027 C   0  0  0  0  0  0  0  0  0  0  0  0
   -2.4450   -0.7027   -0.0021 C   0  0  0  0  0  0  0  0  0  0  0  0
    5.9260   -1.7350    0.9569 C   0  0  0  0  0  0  0  0  0  0  0  0
    5.3003   -2.9600   -1.0255 C   0  0  0  0  0  0  0  0  0  0  0  0
    6.2534   -2.5971   -0.0814 C   0  0  0  0  0  0  0  0  0  0  0  0
   -4.3333    0.8074   -0.0047 H   0  0  0  0  0  0  0  0  0  0  0  0
    7.6481   -3.5700   -0.9591 H   0  0  0  0  0  0  0  0  0  0  0  0
    2.9093    1.0606   -0.9206 H   0  0  0  0  0  0  0  0  0  0  0  0
    2.9761    1.1219    0.8425 H   0  0  0  0  0  0  0  0  0  0  0  0
    1.2106   -2.5549    0.0315 H   0  0  0  0  0  0  0  0  0  0  0  0
   -1.2610   -2.4957   -0.0012 H   0  0  0  0  0  0  0  0  0  0  0  0
   -1.2117    2.4635    0.0019 H   0  0  0  0  0  0  0  0  0  0  0  0
    4.3765   -0.5908    1.8996 H   0  0  0  0  0  0  0  0  0  0  0  0
    3.3247   -2.5814   -1.7826 H   0  0  0  0  0  0  0  0  0  0  0  0
   -3.3808   -1.2522    0.0018 H   0  0  0  0  0  0  0  0  0  0  0  0
    6.6766   -1.4691    1.6961 H   0  0  0  0  0  0  0  0  0  0  0  0
    5.5222   -3.6873   -1.7998 H   0  0  0  0  0  0  0  0  0  0  0  0
  1  5  1  0  0  0  0
  1  8  1  0  0  0  0
  2 14  1  0  0  0  0
  2 19  1  0  0  0  0
  3 18  1  0  0  0  0
  3 20  1  0  0  0  0
  4  5  1  0  0  0  0
  4  7  2  0  0  0  0
  4  9  1  0  0  0  0
  5 21  1  0  0  0  0
  5 22  1  0  0  0  0
  6  7  1  0  0  0  0
  6  8  2  0  0  0  0
  6 10  1  0  0  0  0
  7 23  1  0  0  0  0
  8 11  1  0  0  0  0
  9 12  2  0  0  0  0
  9 13  1  0  0  0  0
 10 15  2  0  0  0  0
 10 24  1  0  0  0  0
 11 14  2  0  0  0  0
 11 25  1  0  0  0  0
 12 16  1  0  0  0  0
 12 26  1  0  0  0  0
 13 17  2  0  0  0  0
 13 27  1  0  0  0  0
 14 15  1  0  0  0  0
 15 28  1  0  0  0  0
 16 18  2  0  0  0  0
 16 29  1  0  0  0  0
 17 18  1  0  0  0  0
 17 30  1  0  0  0  0
M  END
>  <DRUGBANK_ID>
DB04915

>  <COMMON_NAME>
Idronoxil

>  <CAS_NUMBER>
81267-65-4

>  <UNII>
995FT1W541

>  <SYNONYMS>
(+/-)-cis-3-(4-hydroxyphenyl)-4-(4-methoxyphenyl)-3,4-dihydro-2H-cromen-7-ol; 3-(4-hydroxyphenyl)-2H-chromen-7-ol; Dehydroequol; Haginin E; Idronoxil; Phenoxodiol

$$$$
