
 OpenBabel10282417223D

 92 92  0  0  0  0  0  0  0  0999 V2000
    1.0845    0.0689   -1.3279 C   0  0  0  0  0  0  0  0  0  0  0  0
    0.5043   -1.5858   -1.3714 C   0  0  0  0  0  0  0  0  0  0  0  0
    0.6032   -2.9319   -0.0499 C   0  0  0  0  0  0  0  0  0  0  0  0
    0.2586   -2.7488    1.6931 C   0  0  0  0  0  0  0  0  0  0  0  0
   -1.2217   -2.7163    2.0116 C   0  0  0  0  0  0  0  0  0  0  0  0
   -1.7626   -3.8240    1.1364 C   0  0  0  0  0  0  0  0  0  0  0  0
   -1.1614   -5.0482    1.8014 C   0  0  0  0  0  0  0  0  0  0  0  0
   -1.6187   -4.9547    3.2630 C   0  0  0  0  0  0  0  0  0  0  0  0
   -3.1518   -4.7986    3.2224 C   0  0  0  0  0  0  0  0  0  0  0  0
   -3.6815   -6.0383    2.5017 C   0  0  0  0  0  0  0  0  0  0  0  0
   -3.1598   -7.2564    3.2657 C   0  0  0  0  0  0  0  0  0  0  0  0
   -3.6394   -7.1574    4.7168 C   0  0  0  0  0  0  0  0  0  0  0  0
   -5.1699   -7.1347    4.7360 C   0  0  0  0  0  0  0  0  0  0  0  0
   -5.7204   -8.4185    4.1081 C   0  0  0  0  0  0  0  0  0  0  0  0
   -5.2170   -9.6515    4.8589 C   0  0  0  0  0  0  0  0  0  0  0  0
   -5.6642   -9.5988    6.3102 C   0  0  0  0  0  0  0  0  0  0  0  0
    0.3995    1.3632   -1.8258 N   0  3  0  0  0  0  0  0  0  0  0  0
    1.0209    1.4242   -3.1206 C   0  0  0  0  0  0  0  0  0  0  0  0
   -1.0580    1.2186   -1.8291 C   0  0  0  0  0  0  0  0  0  0  0  0
    0.7847    2.7515   -1.0122 C   0  0  0  0  0  0  0  0  0  0  0  0
    1.6455   -0.8224    0.8954 C   0  0  0  0  0  0  0  0  0  0  0  0
    2.9517   -0.3776    0.7837 C   0  0  0  0  0  0  0  0  0  0  0  0
    2.8769    0.9410    1.0498 C   0  0  0  0  0  0  0  0  0  0  0  0
    1.5357    1.5695    1.5064 C   0  0  0  0  0  0  0  0  0  0  0  0
    0.0017    1.0325    1.4062 C   0  0  0  0  0  0  0  0  0  0  0  0
   -1.4994    1.6124    1.2028 C   0  0  0  0  0  0  0  0  0  0  0  0
   -2.7571    0.9465    0.7221 C   0  0  0  0  0  0  0  0  0  0  0  0
   -2.6593   -0.3524    0.3568 C   0  0  0  0  0  0  0  0  0  0  0  0
   -1.3360   -0.8089    0.3905 C   0  0  0  0  0  0  0  0  0  0  0  0
    0.0560   -0.2613    1.0144 C   0  0  0  0  0  0  0  0  0  0  0  0
   -3.8502    1.6620    0.2381 O   0  0  0  0  0  0  0  0  0  0  0  0
   -5.0491    0.8563    0.0366 C   0  0  0  0  0  0  0  0  0  0  0  0
    4.0477   -1.3579    0.1566 C   0  0  1  0  0  0  0  0  0  0  0  0
    4.1899   -2.4535    1.2949 C   0  0  0  0  0  0  0  0  0  0  0  0
    4.1508   -3.6343    0.9732 O   0  0  0  0  0  0  0  0  0  0  0  0
    4.2460   -1.9329    2.4933 O   0  5  0  0  0  0  0  0  0  0  0  0
    3.9038   -2.1876   -1.2207 C   0  0  0  0  0  0  0  0  0  0  0  0
    1.1569    0.5346   -0.4162 H   0  0  0  0  0  0  0  0  0  0  0  0
    2.1433    0.0624   -1.5897 H   0  0  0  0  0  0  0  0  0  0  0  0
   -0.4986   -1.6080   -1.8114 H   0  0  0  0  0  0  0  0  0  0  0  0
    1.1397   -1.9930   -2.1602 H   0  0  0  0  0  0  0  0  0  0  0  0
    0.1887   -3.8436   -0.4811 H   0  0  0  0  0  0  0  0  0  0  0  0
    1.6315   -3.3253    0.0307 H   0  0  0  0  0  0  0  0  0  0  0  0
    0.7960   -3.5371    2.2391 H   0  0  0  0  0  0  0  0  0  0  0  0
    0.6939   -1.9486    2.3098 H   0  0  0  0  0  0  0  0  0  0  0  0
   -1.3979   -2.6906    3.0856 H   0  0  0  0  0  0  0  0  0  0  0  0
   -1.7971   -1.8084    1.9835 H   0  0  0  0  0  0  0  0  0  0  0  0
   -2.8434   -3.7565    1.0164 H   0  0  0  0  0  0  0  0  0  0  0  0
   -1.4995   -3.8164    0.0820 H   0  0  0  0  0  0  0  0  0  0  0  0
   -1.4450   -5.9469    1.2604 H   0  0  0  0  0  0  0  0  0  0  0  0
   -0.0706   -5.0924    1.7411 H   0  0  0  0  0  0  0  0  0  0  0  0
   -1.2226   -5.7832    3.8377 H   0  0  0  0  0  0  0  0  0  0  0  0
   -1.1692   -4.1539    3.8536 H   0  0  0  0  0  0  0  0  0  0  0  0
   -3.5438   -4.6401    4.2250 H   0  0  0  0  0  0  0  0  0  0  0  0
   -3.5284   -3.8977    2.7221 H   0  0  0  0  0  0  0  0  0  0  0  0
   -4.7672   -5.9952    2.4215 H   0  0  0  0  0  0  0  0  0  0  0  0
   -3.3726   -6.0960    1.4520 H   0  0  0  0  0  0  0  0  0  0  0  0
   -3.4656   -8.1727    2.7643 H   0  0  0  0  0  0  0  0  0  0  0  0
   -2.0684   -7.3398    3.2437 H   0  0  0  0  0  0  0  0  0  0  0  0
   -3.2155   -7.9741    5.3021 H   0  0  0  0  0  0  0  0  0  0  0  0
   -3.2546   -6.2707    5.2331 H   0  0  0  0  0  0  0  0  0  0  0  0
   -5.5243   -6.9916    5.7581 H   0  0  0  0  0  0  0  0  0  0  0  0
   -5.5752   -6.2648    4.2073 H   0  0  0  0  0  0  0  0  0  0  0  0
   -6.8127   -8.3862    4.1046 H   0  0  0  0  0  0  0  0  0  0  0  0
   -5.4365   -8.4949    3.0508 H   0  0  0  0  0  0  0  0  0  0  0  0
   -5.5918  -10.5559    4.3738 H   0  0  0  0  0  0  0  0  0  0  0  0
   -4.1238   -9.7294    4.8126 H   0  0  0  0  0  0  0  0  0  0  0  0
   -6.7560   -9.5554    6.3574 H   0  0  0  0  0  0  0  0  0  0  0  0
   -5.3096  -10.4723    6.8568 H   0  0  0  0  0  0  0  0  0  0  0  0
   -5.2708   -8.7204    6.8328 H   0  0  0  0  0  0  0  0  0  0  0  0
    0.7434    0.4731   -3.5750 H   0  0  0  0  0  0  0  0  0  0  0  0
    0.6436    2.3098   -3.5965 H   0  0  0  0  0  0  0  0  0  0  0  0
    2.0991    1.4832   -2.9220 H   0  0  0  0  0  0  0  0  0  0  0  0
   -1.1974    0.9222   -0.8454 H   0  0  0  0  0  0  0  0  0  0  0  0
   -1.6174    2.1520   -1.8947 H   0  0  0  0  0  0  0  0  0  0  0  0
   -1.3957    0.3687   -2.4136 H   0  0  0  0  0  0  0  0  0  0  0  0
    0.3185    2.8486   -0.0277 H   0  0  0  0  0  0  0  0  0  0  0  0
    1.8719    2.8229   -0.9067 H   0  0  0  0  0  0  0  0  0  0  0  0
    0.3706    3.6097   -1.5448 H   0  0  0  0  0  0  0  0  0  0  0  0
    1.8504   -1.6720    0.2965 H   0  0  0  0  0  0  0  0  0  0  0  0
    3.6975    1.5437    0.6518 H   0  0  0  0  0  0  0  0  0  0  0  0
    1.6655    2.6464    1.6061 H   0  0  0  0  0  0  0  0  0  0  0  0
   -1.5408    2.6900    0.9948 H   0  0  0  0  0  0  0  0  0  0  0  0
   -3.4354   -0.9686   -0.1124 H   0  0  0  0  0  0  0  0  0  0  0  0
   -1.3719   -1.7766   -0.1316 H   0  0  0  0  0  0  0  0  0  0  0  0
   -5.0252    0.2726   -0.9009 H   0  0  0  0  0  0  0  0  0  0  0  0
   -5.1868    0.1801    0.8875 H   0  0  0  0  0  0  0  0  0  0  0  0
   -5.9347    1.4977   -0.0179 H   0  0  0  0  0  0  0  0  0  0  0  0
    4.9856   -0.8099    0.0233 H   0  0  0  0  0  0  0  0  0  0  0  0
    3.7462   -1.5652   -2.1096 H   0  0  0  0  0  0  0  0  0  0  0  0
    4.8217   -2.7726   -1.4315 H   0  0  0  0  0  0  0  0  0  0  0  0
    3.1225   -2.9591   -1.2460 H   0  0  0  0  0  0  0  0  0  0  0  0
  1 17  1  0  0  0  0
  1  2  1  0  0  0  0
  1 38  1  0  0  0  0
  1 39  1  0  0  0  0
  2  3  1  0  0  0  0
  2 40  1  0  0  0  0
  2 41  1  0  0  0  0
  3  4  1  0  0  0  0
  3 42  1  0  0  0  0
  3 43  1  0  0  0  0
  4  5  1  0  0  0  0
  4 44  1  0  0  0  0
  4 45  1  0  0  0  0
  5  6  1  0  0  0  0
  5 46  1  0  0  0  0
  5 47  1  0  0  0  0
  6  7  1  0  0  0  0
  6 48  1  0  0  0  0
  6 49  1  0  0  0  0
  7  8  1  0  0  0  0
  7 50  1  0  0  0  0
  7 51  1  0  0  0  0
  8  9  1  0  0  0  0
  8 52  1  0  0  0  0
  8 53  1  0  0  0  0
  9 10  1  0  0  0  0
  9 54  1  0  0  0  0
  9 55  1  0  0  0  0
 10 11  1  0  0  0  0
 10 56  1  0  0  0  0
 10 57  1  0  0  0  0
 11 12  1  0  0  0  0
 11 58  1  0  0  0  0
 11 59  1  0  0  0  0
 12 13  1  0  0  0  0
 12 60  1  0  0  0  0
 12 61  1  0  0  0  0
 13 14  1  0  0  0  0
 13 62  1  0  0  0  0
 13 63  1  0  0  0  0
 14 15  1  0  0  0  0
 14 64  1  0  0  0  0
 14 65  1  0  0  0  0
 15 16  1  0  0  0  0
 15 66  1  0  0  0  0
 15 67  1  0  0  0  0
 16 68  1  0  0  0  0
 16 69  1  0  0  0  0
 16 70  1  0  0  0  0
 17 18  1  0  0  0  0
 17 19  1  0  0  0  0
 17 20  1  0  0  0  0
 18 71  1  0  0  0  0
 18 72  1  0  0  0  0
 18 73  1  0  0  0  0
 19 74  1  0  0  0  0
 19 75  1  0  0  0  0
 19 76  1  0  0  0  0
 20 77  1  0  0  0  0
 20 78  1  0  0  0  0
 20 79  1  0  0  0  0
 21 22  1  0  0  0  0
 21 30  2  0  0  0  0
 21 80  1  0  0  0  0
 22 23  2  0  0  0  0
 22 33  1  0  0  0  0
 23 24  1  0  0  0  0
 23 81  1  0  0  0  0
 24 25  2  0  0  0  0
 24 82  1  0  0  0  0
 25 26  1  0  0  0  0
 25 30  1  0  0  0  0
 26 27  2  0  0  0  0
 26 83  1  0  0  0  0
 27 28  1  0  0  0  0
 27 31  1  0  0  0  0
 28 29  2  0  0  0  0
 28 84  1  0  0  0  0
 29 30  1  0  0  0  0
 29 85  1  0  0  0  0
 31 32  1  0  0  0  0
 32 86  1  0  0  0  0
 32 87  1  0  0  0  0
 32 88  1  0  0  0  0
 33 37  1  0  0  0  0
 33 89  1  6  0  0  0
 34 33  1  0  0  0  0
 34 35  2  0  0  0  0
 34 36  1  0  0  0  0
 37 90  1  0  0  0  0
 37 91  1  0  0  0  0
 37 92  1  0  0  0  0
M  CHG  2  17   1  36  -1
M  END
>  <DRUGBANK_ID>
DB15877

>  <COMMON_NAME>
Cetyltrimethylammonium naproxenate

>  <CAS_NUMBER>
102580-74-5

>  <UNII>
5333CM4X3G

>  <SYNONYMS>
Cetyl trimethylammonium naproxenate; Cetyltrimethylammonium naproxenate

$$$$
