
 OpenBabel10282417123D

 16 16  0  0  1  0  0  0  0  0999 V2000
    0.8337    1.3531   -0.2294 C   0  0  0  0  0  0  0  0  0  0  0  0
   -0.7597   -1.3539    0.2460 C   0  0  0  0  0  0  0  0  0  0  0  0
    1.4481    0.0149    0.2215 C   0  0  2  0  0  0  0  0  0  0  0  0
    0.6885   -1.2387   -0.2579 C   0  0  2  0  0  0  0  0  0  0  0  0
    1.5961   -0.0391    1.6453 O   0  0  0  0  0  0  0  0  0  0  0  0
    0.7515   -1.3285   -1.6883 O   0  0  0  0  0  0  0  0  0  0  0  0
   -0.8555    1.6042    0.4003 S   0  0  0  0  0  0  0  0  0  0  0  0
   -1.7973   -0.0162   -0.4246 S   0  0  0  0  0  0  0  0  0  0  0  0
    2.4595   -0.0315   -0.2029 H   0  0  0  0  0  0  0  0  0  0  0  0
    1.2239   -2.1166    0.1250 H   0  0  0  0  0  0  0  0  0  0  0  0
    1.4391    2.1840    0.1446 H   0  0  0  0  0  0  0  0  0  0  0  0
    0.8148    1.4247   -1.3225 H   0  0  0  0  0  0  0  0  0  0  0  0
   -1.1956   -2.2967   -0.0993 H   0  0  0  0  0  0  0  0  0  0  0  0
   -0.8054   -1.3447    1.3402 H   0  0  0  0  0  0  0  0  0  0  0  0
    2.4043    0.4433    1.8808 H   0  0  0  0  0  0  0  0  0  0  0  0
    0.1386   -0.6618   -2.0502 H   0  0  0  0  0  0  0  0  0  0  0  0
  1 11  1  0  0  0  0
  1 12  1  0  0  0  0
  2 13  1  0  0  0  0
  2 14  1  0  0  0  0
  3  1  1  0  0  0  0
  3  9  1  6  0  0  0
  3  5  1  0  0  0  0
  4  2  1  0  0  0  0
  4  3  1  0  0  0  0
  4  6  1  0  0  0  0
  4 10  1  1  0  0  0
  5 15  1  0  0  0  0
  6 16  1  0  0  0  0
  7  1  1  0  0  0  0
  8  2  1  0  0  0  0
  8  7  1  0  0  0  0
M  END
>  <DRUGBANK_ID>
DB02693

>  <SECONDARY_ACCESSION_NUMBERS>
EXPT01093

>  <COMMON_NAME>
(4S,5S)-1,2-dithiane-4,5-diol

>  <UNII>
8T052MD8AP

>  <SYNONYMS>
oxidized dithiothreitol

$$$$
