
 OpenBabel10282417103D

179186  0  0  0  0  0  0  0  0999 V2000
    1.7179    0.7181   -3.6109 C   0  0  0  0  0  0  0  0  0  0  0  0
    1.8990    1.9179   -3.8339 O   0  0  0  0  0  0  0  0  0  0  0  0
    0.6417    1.9517   -1.3170 N   0  0  0  0  0  0  0  0  0  0  0  0
    1.2780    0.6084   -2.1921 C   0  0  1  0  0  0  0  0  0  0  0  0
    0.5381   -0.4893   -1.8444 C   0  0  0  0  0  0  0  0  0  0  0  0
    0.7866    0.1498   -0.1493 C   0  0  0  0  0  0  0  0  0  0  0  0
    4.7977   -0.8454   -5.6868 C   0  0  0  0  0  0  0  0  0  0  0  0
    4.9881   -1.7146   -6.5486 O   0  0  0  0  0  0  0  0  0  0  0  0
    2.1680   -0.4333   -4.4360 N   0  0  0  0  0  0  0  0  0  0  0  0
    3.2130   -0.2129   -5.5226 C   0  0  1  0  0  0  0  0  0  0  0  0
    3.2738    1.2998   -5.7145 C   0  0  0  0  0  0  0  0  0  0  0  0
    3.7611    1.6795   -6.9531 C   0  0  0  0  0  0  0  0  0  0  0  0
    3.1424    1.3303   -8.0990 C   0  0  0  0  0  0  0  0  0  0  0  0
    3.8742    2.0036   -8.9933 N   0  0  0  0  0  0  0  0  0  0  0  0
    4.8781    2.6657   -8.3396 C   0  0  0  0  0  0  0  0  0  0  0  0
    4.8402    2.4707   -7.0556 N   0  0  0  0  0  0  0  0  0  0  0  0
    7.4234   -0.5975   -2.8453 C   0  0  0  0  0  0  0  0  0  0  0  0
    8.2644    0.0644   -2.1759 O   0  0  0  0  0  0  0  0  0  0  0  0
    5.9453   -0.4815   -4.9753 N   0  0  0  0  0  0  0  0  0  0  0  0
    6.1630    0.4184   -3.8454 C   0  0  1  0  0  0  0  0  0  0  0  0
    4.7461    0.8546   -3.4127 C   0  0  0  0  0  0  0  0  0  0  0  0
    4.1271    2.0792   -2.2787 C   0  0  0  0  0  0  0  0  0  0  0  0
    3.0235    2.2759   -1.4759 C   0  0  0  0  0  0  0  0  0  0  0  0
    2.9916    2.8750   -0.1614 N   0  0  0  0  0  0  0  0  0  0  0  0
    4.2378    3.2957   -0.1669 C   0  0  0  0  0  0  0  0  0  0  0  0
    4.7955    3.8926    0.9022 C   0  0  0  0  0  0  0  0  0  0  0  0
    6.0070    4.3352    0.4584 C   0  0  0  0  0  0  0  0  0  0  0  0
    6.7101    3.8271   -0.6553 C   0  0  0  0  0  0  0  0  0  0  0  0
    6.2161    2.8960   -1.4847 C   0  0  0  0  0  0  0  0  0  0  0  0
    4.8712    2.8861   -1.4148 C   0  0  0  0  0  0  0  0  0  0  0  0
    4.0943   -0.6761   -2.0726 C   0  0  0  0  0  0  0  0  0  0  0  0
    3.0465   -0.8295   -2.5879 O   0  0  0  0  0  0  0  0  0  0  0  0
    6.8753   -2.1824   -2.2363 N   0  0  0  0  0  0  0  0  0  0  0  0
    4.9668   -2.5455   -1.9530 C   0  0  1  0  0  0  0  0  0  0  0  0
    4.2048   -3.9400   -0.7604 C   0  0  0  0  0  0  0  0  0  0  0  0
    2.8561   -4.2388   -0.7507 O   0  0  0  0  0  0  0  0  0  0  0  0
    5.9185   -2.2511    0.5394 C   0  0  0  0  0  0  0  0  0  0  0  0
    6.4796   -2.9934   -0.2821 O   0  0  0  0  0  0  0  0  0  0  0  0
    4.8606    0.5009   -0.6781 N   0  0  0  0  0  0  0  0  0  0  0  0
    5.5886   -0.3332    0.6915 C   0  0  1  0  0  0  0  0  0  0  0  0
    4.8556    0.0559    1.9721 C   0  0  0  0  0  0  0  0  0  0  0  0
    5.8012   -0.7045    2.6662 C   0  0  0  0  0  0  0  0  0  0  0  0
    5.3690   -0.9300    4.3293 C   0  0  0  0  0  0  0  0  0  0  0  0
    6.5489   -1.6941    5.4052 C   0  0  0  0  0  0  0  0  0  0  0  0
    8.0922   -2.3607    4.8778 C   0  0  0  0  0  0  0  0  0  0  0  0
    9.1532   -2.8099    5.5359 O   0  0  0  0  0  0  0  0  0  0  0  0
    8.6300   -2.1605    3.2992 C   0  0  0  0  0  0  0  0  0  0  0  0
    7.4022   -1.2997    1.9691 C   0  0  0  0  0  0  0  0  0  0  0  0
    3.0809   -3.6370    2.5516 C   0  0  0  0  0  0  0  0  0  0  0  0
    2.8544   -4.5026    3.3892 O   0  0  0  0  0  0  0  0  0  0  0  0
    5.3797   -3.2052    1.3106 N   0  0  0  0  0  0  0  0  0  0  0  0
    4.5460   -3.1360    2.4704 C   0  0  2  0  0  0  0  0  0  0  0  0
    5.5423   -3.4563    3.4956 C   0  0  0  0  0  0  0  0  0  0  0  0
    6.7935   -2.5889    3.2027 C   0  0  0  0  0  0  0  0  0  0  0  0
    7.8181   -3.4148    1.8966 C   0  0  0  0  0  0  0  0  0  0  0  0
    9.1816   -2.4785    1.2347 C   0  0  0  0  0  0  0  0  0  0  0  0
    9.5647   -0.8339    1.8371 C   0  0  0  0  0  0  0  0  0  0  0  0
    8.6439    0.0141    3.0267 C   0  0  0  0  0  0  0  0  0  0  0  0
    7.4398   -0.7446    3.7452 C   0  0  0  0  0  0  0  0  0  0  0  0
    1.0719   -2.8500   -0.8703 C   0  0  0  0  0  0  0  0  0  0  0  0
    1.6385   -3.0829   -1.9751 O   0  0  0  0  0  0  0  0  0  0  0  0
    2.0003   -3.1150    1.8312 N   0  0  0  0  0  0  0  0  0  0  0  0
    1.9935   -2.3417    0.6387 C   0  0  1  0  0  0  0  0  0  0  0  0
    3.3786   -1.9007    0.5698 C   0  0  0  0  0  0  0  0  0  0  0  0
    3.8528   -1.0921   -0.3359 C   0  0  0  0  0  0  0  0  0  0  0  0
    3.1286    0.0958    0.2621 C   0  0  0  0  0  0  0  0  0  0  0  0
    5.7878   -0.8633   -1.3440 C   0  0  0  0  0  0  0  0  0  0  0  0
   -2.4940   -2.5373   -0.1977 C   0  0  0  0  0  0  0  0  0  0  0  0
   -2.7473   -3.5237   -0.9009 O   0  0  0  0  0  0  0  0  0  0  0  0
   -0.2474   -2.8952   -1.0276 N   0  0  0  0  0  0  0  0  0  0  0  0
   -1.0536   -2.0924   -0.2013 C   0  0  1  0  0  0  0  0  0  0  0  0
   -1.1851   -0.6666   -0.4948 C   0  0  0  0  0  0  0  0  0  0  0  0
   -1.1903    0.0197    1.2317 C   0  0  0  0  0  0  0  0  0  0  0  0
   -0.6143   -0.2072    2.5763 C   0  0  0  0  0  0  0  0  0  0  0  0
    0.6305    0.4464    2.8493 N   0  0  0  0  0  0  0  0  0  0  0  0
    0.8653    1.5958    3.5261 C   0  0  0  0  0  0  0  0  0  0  0  0
    1.9595    2.2583    3.4178 N   0  0  0  0  0  0  0  0  0  0  0  0
   -0.0304    1.9384    4.4462 N   0  0  0  0  0  0  0  0  0  0  0  0
   -3.0804    0.9513    0.1883 C   0  0  0  0  0  0  0  0  0  0  0  0
   -2.9663    0.1521   -0.7156 O   0  0  0  0  0  0  0  0  0  0  0  0
   -3.4153   -1.7928    0.6483 N   0  0  0  0  0  0  0  0  0  0  0  0
   -3.8789   -0.1166    0.8875 C   0  0  1  0  0  0  0  0  0  0  0  0
   -3.9222   -0.1979    2.3741 C   0  0  0  0  0  0  0  0  0  0  0  0
   -4.7624   -1.4189    2.5210 C   0  0  0  0  0  0  0  0  0  0  0  0
   -4.2637   -2.5179    1.5396 C   0  0  0  0  0  0  0  0  0  0  0  0
   -2.4256    3.4337    2.7451 C   0  0  0  0  0  0  0  0  0  0  0  0
   -2.0879    4.5944    2.9492 O   0  0  0  0  0  0  0  0  0  0  0  0
   -2.3940    2.1251    0.5204 N   0  0  0  0  0  0  0  0  0  0  0  0
   -3.0199    2.9791    1.4138 C   0  0  0  0  0  0  0  0  0  0  0  0
   -2.4215    2.5589    3.7883 N   0  0  0  0  0  0  0  0  0  0  0  0
    0.7218    1.6529    0.0199 C   0  0  0  0  0  0  0  0  0  0  0  0
    0.6112    2.4257    0.9561 O   0  0  0  0  0  0  0  0  0  0  0  0
   10.6904   -0.1492    1.6419 C   0  0  0  0  0  0  0  0  0  0  0  0
   10.7853    1.1441    2.2007 C   0  0  0  0  0  0  0  0  0  0  0  0
    9.8276    1.8398    3.0152 C   0  0  0  0  0  0  0  0  0  0  0  0
    8.7104    1.2652    3.4660 C   0  0  0  0  0  0  0  0  0  0  0  0
    1.1054    2.8702   -1.2585 H   0  0  0  0  0  0  0  0  0  0  0  0
    1.9611    0.0034   -1.5305 H   0  0  0  0  0  0  0  0  0  0  0  0
    0.9169   -1.3959   -2.2458 H   0  0  0  0  0  0  0  0  0  0  0  0
   -0.2043   -0.2665   -2.5960 H   0  0  0  0  0  0  0  0  0  0  0  0
    0.5509   -0.5621    0.6434 H   0  0  0  0  0  0  0  0  0  0  0  0
   -0.0883    0.6307   -0.0097 H   0  0  0  0  0  0  0  0  0  0  0  0
    2.4080   -1.3012   -3.9122 H   0  0  0  0  0  0  0  0  0  0  0  0
    2.6821   -0.7482   -6.3118 H   0  0  0  0  0  0  0  0  0  0  0  0
    2.2668    1.6841   -5.6517 H   0  0  0  0  0  0  0  0  0  0  0  0
    3.9064    1.9311   -5.0694 H   0  0  0  0  0  0  0  0  0  0  0  0
    2.2747    0.6970   -8.2373 H   0  0  0  0  0  0  0  0  0  0  0  0
    3.6882    2.0103   -9.9737 H   0  0  0  0  0  0  0  0  0  0  0  0
    5.6099    3.2790   -8.8255 H   0  0  0  0  0  0  0  0  0  0  0  0
    6.7459   -1.0943   -5.0561 H   0  0  0  0  0  0  0  0  0  0  0  0
    6.4352    1.4505   -4.0054 H   0  0  0  0  0  0  0  0  0  0  0  0
    3.8537    0.8766   -3.9137 H   0  0  0  0  0  0  0  0  0  0  0  0
    4.4582   -0.2262   -3.6725 H   0  0  0  0  0  0  0  0  0  0  0  0
    2.4225    1.5094   -1.2272 H   0  0  0  0  0  0  0  0  0  0  0  0
    2.4696    2.5436    0.7224 H   0  0  0  0  0  0  0  0  0  0  0  0
    4.2063    4.2002    1.7673 H   0  0  0  0  0  0  0  0  0  0  0  0
    6.4168    5.1747    0.9689 H   0  0  0  0  0  0  0  0  0  0  0  0
    7.6483    4.2052   -0.9916 H   0  0  0  0  0  0  0  0  0  0  0  0
    6.7349    2.3739   -2.2639 H   0  0  0  0  0  0  0  0  0  0  0  0
    7.2807   -2.0922   -1.2285 H   0  0  0  0  0  0  0  0  0  0  0  0
    4.6382   -2.9378   -2.8990 H   0  0  0  0  0  0  0  0  0  0  0  0
    4.6462   -4.7472   -0.2126 H   0  0  0  0  0  0  0  0  0  0  0  0
    3.9029   -3.6952    0.2810 H   0  0  0  0  0  0  0  0  0  0  0  0
    2.7023   -3.3463   -1.0955 H   0  0  0  0  0  0  0  0  0  0  0  0
    4.9124    1.3768   -0.2518 H   0  0  0  0  0  0  0  0  0  0  0  0
    6.4719    0.3357    0.7060 H   0  0  0  0  0  0  0  0  0  0  0  0
    4.6926    1.0915    2.2494 H   0  0  0  0  0  0  0  0  0  0  0  0
    3.8359   -0.3420    2.2731 H   0  0  0  0  0  0  0  0  0  0  0  0
    4.7348   -0.0821    4.6571 H   0  0  0  0  0  0  0  0  0  0  0  0
    6.7047   -1.0471    6.2734 H   0  0  0  0  0  0  0  0  0  0  0  0
    8.9736   -2.3883    6.3638 H   0  0  0  0  0  0  0  0  0  0  0  0
    9.3985   -2.9343    3.1383 H   0  0  0  0  0  0  0  0  0  0  0  0
    7.5890   -1.2887    0.8745 H   0  0  0  0  0  0  0  0  0  0  0  0
    5.7398   -4.0844    0.9274 H   0  0  0  0  0  0  0  0  0  0  0  0
    4.3085   -2.1373    2.7221 H   0  0  0  0  0  0  0  0  0  0  0  0
    5.0934   -3.2607    4.4470 H   0  0  0  0  0  0  0  0  0  0  0  0
    5.8019   -4.4928    3.2988 H   0  0  0  0  0  0  0  0  0  0  0  0
    7.7762   -4.4841    1.7042 H   0  0  0  0  0  0  0  0  0  0  0  0
   10.0776   -3.0314    0.9502 H   0  0  0  0  0  0  0  0  0  0  0  0
    6.9397    0.0860    4.2849 H   0  0  0  0  0  0  0  0  0  0  0  0
    1.2307   -3.7384    1.7639 H   0  0  0  0  0  0  0  0  0  0  0  0
    1.6838   -1.4420    1.0661 H   0  0  0  0  0  0  0  0  0  0  0  0
    3.9209   -1.6005    1.3476 H   0  0  0  0  0  0  0  0  0  0  0  0
    4.1317   -2.3006    0.0411 H   0  0  0  0  0  0  0  0  0  0  0  0
    3.2035   -1.7076   -1.0525 H   0  0  0  0  0  0  0  0  0  0  0  0
    3.4886    0.7518    0.9923 H   0  0  0  0  0  0  0  0  0  0  0  0
    3.3004    0.9273   -0.2234 H   0  0  0  0  0  0  0  0  0  0  0  0
    2.2963    0.0914    0.8165 H   0  0  0  0  0  0  0  0  0  0  0  0
    5.6495   -1.0932   -2.6368 H   0  0  0  0  0  0  0  0  0  0  0  0
    5.8978    0.2272   -1.9306 H   0  0  0  0  0  0  0  0  0  0  0  0
    6.6586   -0.3806   -0.9035 H   0  0  0  0  0  0  0  0  0  0  0  0
   -0.4911   -2.9804   -2.0226 H   0  0  0  0  0  0  0  0  0  0  0  0
   -0.5467   -2.2434    0.7554 H   0  0  0  0  0  0  0  0  0  0  0  0
   -0.9536    0.3837   -1.1711 H   0  0  0  0  0  0  0  0  0  0  0  0
   -1.6944   -0.5135   -1.5647 H   0  0  0  0  0  0  0  0  0  0  0  0
   -0.9737    1.0543    1.2063 H   0  0  0  0  0  0  0  0  0  0  0  0
   -2.1206    0.0228    1.5938 H   0  0  0  0  0  0  0  0  0  0  0  0
   -1.3372    0.3198    3.1899 H   0  0  0  0  0  0  0  0  0  0  0  0
   -0.7294   -1.2653    2.6921 H   0  0  0  0  0  0  0  0  0  0  0  0
    1.2885    0.3403    2.1206 H   0  0  0  0  0  0  0  0  0  0  0  0
    2.5668    1.7945    2.7556 H   0  0  0  0  0  0  0  0  0  0  0  0
   -0.9556    1.6116    4.2907 H   0  0  0  0  0  0  0  0  0  0  0  0
    0.0341    2.8741    4.8262 H   0  0  0  0  0  0  0  0  0  0  0  0
   -4.7565    0.0353    0.2271 H   0  0  0  0  0  0  0  0  0  0  0  0
   -3.0277   -0.4841    2.9490 H   0  0  0  0  0  0  0  0  0  0  0  0
   -4.1930    0.7707    2.7510 H   0  0  0  0  0  0  0  0  0  0  0  0
   -4.7359   -1.7356    3.5579 H   0  0  0  0  0  0  0  0  0  0  0  0
   -5.7367   -1.0504    2.2236 H   0  0  0  0  0  0  0  0  0  0  0  0
   -3.7224   -3.3439    2.0258 H   0  0  0  0  0  0  0  0  0  0  0  0
   -5.0865   -2.8673    0.9189 H   0  0  0  0  0  0  0  0  0  0  0  0
   -1.3880    2.4467    0.4799 H   0  0  0  0  0  0  0  0  0  0  0  0
   -3.1009    3.8363    0.7587 H   0  0  0  0  0  0  0  0  0  0  0  0
   -3.9070    2.4062    1.6007 H   0  0  0  0  0  0  0  0  0  0  0  0
   -2.5817    1.5731    3.6874 H   0  0  0  0  0  0  0  0  0  0  0  0
   -1.9960    2.9119    4.6463 H   0  0  0  0  0  0  0  0  0  0  0  0
   11.4499   -0.6655    1.0901 H   0  0  0  0  0  0  0  0  0  0  0  0
   11.6736    1.6901    1.9481 H   0  0  0  0  0  0  0  0  0  0  0  0
    9.9554    2.8540    3.3440 H   0  0  0  0  0  0  0  0  0  0  0  0
    7.9513    1.6929    4.1136 H   0  0  0  0  0  0  0  0  0  0  0  0
  1  2  2  0  0  0  0
  1  4  1  0  0  0  0
  1  9  1  0  0  0  0
  3 97  1  0  0  0  0
  4  3  1  0  0  0  0
  4  5  1  0  0  0  0
  4 98  1  1  0  0  0
  5  6  1  0  0  0  0
  5 99  1  0  0  0  0
  5100  1  0  0  0  0
  6 91  1  0  0  0  0
  6101  1  0  0  0  0
  6102  1  0  0  0  0
  7  8  2  0  0  0  0
  7 19  1  0  0  0  0
  9103  1  0  0  0  0
 10 11  1  0  0  0  0
 10104  1  6  0  0  0
 10  7  1  0  0  0  0
 10  9  1  0  0  0  0
 11 12  1  0  0  0  0
 11105  1  0  0  0  0
 11106  1  0  0  0  0
 12 13  2  0  0  0  0
 12 16  1  0  0  0  0
 13 14  1  0  0  0  0
 13107  1  0  0  0  0
 14 15  1  0  0  0  0
 14108  1  0  0  0  0
 15 16  2  0  0  0  0
 15109  1  0  0  0  0
 17 18  2  0  0  0  0
 17 33  1  0  0  0  0
 19110  1  0  0  0  0
 20 21  1  0  0  0  0
 20111  1  6  0  0  0
 20 17  1  0  0  0  0
 20 19  1  0  0  0  0
 21 22  1  0  0  0  0
 21112  1  0  0  0  0
 21113  1  0  0  0  0
 22 23  2  0  0  0  0
 22 30  1  0  0  0  0
 23 24  1  0  0  0  0
 23114  1  0  0  0  0
 24 25  1  0  0  0  0
 24115  1  0  0  0  0
 25 26  2  0  0  0  0
 25 30  1  0  0  0  0
 26 27  1  0  0  0  0
 26116  1  0  0  0  0
 27 28  2  0  0  0  0
 27117  1  0  0  0  0
 28 29  1  0  0  0  0
 28118  1  0  0  0  0
 29 30  2  0  0  0  0
 29119  1  0  0  0  0
 31 32  2  0  0  0  0
 31 39  1  0  0  0  0
 33120  1  0  0  0  0
 34 35  1  0  0  0  0
 34121  1  6  0  0  0
 34 31  1  0  0  0  0
 34 33  1  0  0  0  0
 35 36  1  0  0  0  0
 35122  1  0  0  0  0
 35123  1  0  0  0  0
 36124  1  0  0  0  0
 37 38  2  0  0  0  0
 37 51  1  0  0  0  0
 39125  1  0  0  0  0
 40 41  1  0  0  0  0
 40126  1  1  0  0  0
 40 37  1  0  0  0  0
 40 39  1  0  0  0  0
 41 42  1  0  0  0  0
 41127  1  0  0  0  0
 41128  1  0  0  0  0
 42 43  2  0  0  0  0
 42 48  1  0  0  0  0
 43 44  1  0  0  0  0
 43129  1  0  0  0  0
 44 45  2  0  0  0  0
 44130  1  0  0  0  0
 45 46  1  0  0  0  0
 45 47  1  0  0  0  0
 46131  1  0  0  0  0
 47 48  2  0  0  0  0
 47132  1  0  0  0  0
 48133  1  0  0  0  0
 49 50  2  0  0  0  0
 49 52  1  0  0  0  0
 49 62  1  0  0  0  0
 51 52  1  0  0  0  0
 51134  1  0  0  0  0
 52 53  1  0  0  0  0
 52135  1  1  0  0  0
 53 54  1  0  0  0  0
 53136  1  0  0  0  0
 53137  1  0  0  0  0
 54 55  1  0  0  0  0
 54 59  2  0  0  0  0
 55 56  2  0  0  0  0
 55138  1  0  0  0  0
 56 57  1  0  0  0  0
 56139  1  0  0  0  0
 57 58  2  0  0  0  0
 57 93  1  0  0  0  0
 58 59  1  0  0  0  0
 59140  1  0  0  0  0
 60 61  2  0  0  0  0
 60 70  1  0  0  0  0
 62141  1  0  0  0  0
 63 64  1  0  0  0  0
 63142  1  1  0  0  0
 63 60  1  0  0  0  0
 63 62  1  0  0  0  0
 64 65  1  0  0  0  0
 64143  1  0  0  0  0
 64144  1  0  0  0  0
 65 66  1  0  0  0  0
 65 67  1  0  0  0  0
 65145  1  0  0  0  0
 66146  1  0  0  0  0
 66147  1  0  0  0  0
 66148  1  0  0  0  0
 67149  1  0  0  0  0
 67150  1  0  0  0  0
 67151  1  0  0  0  0
 68 69  2  0  0  0  0
 68 81  1  0  0  0  0
 70152  1  0  0  0  0
 71 72  1  0  0  0  0
 71153  1  1  0  0  0
 71 68  1  0  0  0  0
 71 70  1  0  0  0  0
 72 73  1  0  0  0  0
 72154  1  0  0  0  0
 72155  1  0  0  0  0
 73 74  1  0  0  0  0
 73156  1  0  0  0  0
 73157  1  0  0  0  0
 74 75  1  0  0  0  0
 74158  1  0  0  0  0
 74159  1  0  0  0  0
 75 76  1  0  0  0  0
 75160  1  0  0  0  0
 76 77  2  0  0  0  0
 76 78  1  0  0  0  0
 77161  1  0  0  0  0
 78162  1  0  0  0  0
 78163  1  0  0  0  0
 79 80  2  0  0  0  0
 79 88  1  0  0  0  0
 81 82  1  0  0  0  0
 81 85  1  0  0  0  0
 82 83  1  0  0  0  0
 82164  1  6  0  0  0
 82 79  1  0  0  0  0
 83 84  1  0  0  0  0
 83165  1  0  0  0  0
 83166  1  0  0  0  0
 84 85  1  0  0  0  0
 84167  1  0  0  0  0
 84168  1  0  0  0  0
 85169  1  0  0  0  0
 85170  1  0  0  0  0
 86 87  2  0  0  0  0
 86 89  1  0  0  0  0
 86 90  1  0  0  0  0
 88 89  1  0  0  0  0
 88171  1  0  0  0  0
 89172  1  0  0  0  0
 89173  1  0  0  0  0
 90174  1  0  0  0  0
 90175  1  0  0  0  0
 91  3  1  0  0  0  0
 91 92  2  0  0  0  0
 93 94  2  0  0  0  0
 93176  1  0  0  0  0
 94 95  1  0  0  0  0
 94177  1  0  0  0  0
 95 96  2  0  0  0  0
 95178  1  0  0  0  0
 96 58  1  0  0  0  0
 96179  1  0  0  0  0
M  END
>  <DRUGBANK_ID>
DB00666

>  <SECONDARY_ACCESSION_NUMBERS>
APRD01129

>  <COMMON_NAME>
Nafarelin

>  <CAS_NUMBER>
76932-56-4

>  <UNII>
1X0094V6JV

>  <SYNONYMS>
Nafarelin; Nafarelina; Nafaréline; Nafarelinum

$$$$
