
 OpenBabel10282417203D

124127  0  0  0  0  0  0  0  0999 V2000
    1.2543   -4.8261    9.1807 C   0  0  2  0  0  0  0  0  0  0  0  0
   -0.8160   -4.4933    8.9150 C   0  0  0  0  0  0  0  0  0  0  0  0
    0.0866   -4.3863    9.8142 O   0  0  0  0  0  0  0  0  0  0  0  0
    2.1143   -4.9612    7.1325 C   0  0  0  0  0  0  0  0  0  0  0  0
    2.1377   -4.4705   10.5751 C   0  0  0  0  0  0  0  0  0  0  0  0
    0.6044   -5.1289    5.6412 C   0  0  1  0  0  0  0  0  0  0  0  0
    2.3148   -3.0085   11.0307 C   0  0  1  0  0  0  0  0  0  0  0  0
    2.7762   -5.3581   11.1355 O   0  0  0  0  0  0  0  0  0  0  0  0
    1.0101   -3.6606    4.0462 C   0  0  1  0  0  0  0  0  0  0  0  0
   -0.1542   -6.4622    5.3686 C   0  0  0  0  0  0  0  0  0  0  0  0
    3.9579   -2.4031   10.6682 C   0  0  2  0  0  0  0  0  0  0  0  0
    1.0878   -2.1322   10.5956 C   0  0  0  0  0  0  0  0  0  0  0  0
    0.9488   -1.7766    4.9503 C   0  0  2  0  0  0  0  0  0  0  0  0
    2.8291   -3.7476    3.5554 O   0  0  0  0  0  0  0  0  0  0  0  0
    3.8500   -0.7098   10.8993 C   0  0  2  0  0  0  0  0  0  0  0  0
    4.4823   -2.9007    9.2384 O   0  0  0  0  0  0  0  0  0  0  0  0
    2.1561   -1.0880    5.7525 C   0  0  2  0  0  0  0  0  0  0  0  0
    0.5667   -1.4727    6.7922 C   0  0  0  0  0  0  0  0  0  0  0  0
    4.3811    0.7721    9.8055 C   0  0  2  0  0  0  0  0  0  0  0  0
    3.6935   -0.2525   12.3256 C   0  0  0  0  0  0  0  0  0  0  0  0
    2.9578   -2.1085    7.0853 O   0  0  0  0  0  0  0  0  0  0  0  0
    2.1201    0.5024    6.1262 C   0  0  2  0  0  0  0  0  0  0  0  0
    3.2097    1.5795    8.7312 O   0  0  0  0  0  0  0  0  0  0  0  0
    5.7456    0.9541    9.0394 C   0  0  0  0  0  0  0  0  0  0  0  0
    3.2333    1.5396    7.2202 C   0  0  0  0  0  0  0  0  0  0  0  0
    0.6920    0.8995    6.1262 C   0  0  0  0  0  0  0  0  0  0  0  0
    4.2438    2.0320    6.7023 O   0  0  0  0  0  0  0  0  0  0  0  0
    2.4193   -3.1620    7.9446 C   0  0  1  0  0  0  0  0  0  0  0  0
    0.8506   -3.8172    7.7054 C   0  0  0  0  0  0  0  0  0  0  0  0
    3.2611   -4.2359    8.8144 O   0  0  0  0  0  0  0  0  0  0  0  0
    0.8575   -5.9854    7.7837 C   0  0  1  0  0  0  0  0  0  0  0  0
    3.7800   -5.5917    8.6471 C   0  0  2  0  0  0  0  0  0  0  0  0
    2.5585   -6.6248    8.5199 C   0  0  2  0  0  0  0  0  0  0  0  0
   -0.3386   -6.4891    7.8018 O   0  0  0  0  0  0  0  0  0  0  0  0
    5.0009   -5.8965    9.5170 C   0  0  0  0  0  0  0  0  0  0  0  0
    3.0568   -7.6764    7.6075 O   0  0  0  0  0  0  0  0  0  0  0  0
   -0.4077   -7.1909    8.9488 C   0  0  0  0  0  0  0  0  0  0  0  0
    3.6995   -2.6242    3.9348 C   0  0  1  0  0  0  0  0  0  0  0  0
    4.0620   -2.4926    5.3686 C   0  0  1  0  0  0  0  0  0  0  0  0
    4.9177   -2.2306    3.4541 O   0  0  0  0  0  0  0  0  0  0  0  0
    4.3478   -0.8220    6.1199 C   0  0  2  0  0  0  0  0  0  0  0  0
    2.7956   -3.0397    5.5686 O   0  0  0  0  0  0  0  0  0  0  0  0
    5.0634   -0.8288    3.8678 C   0  0  1  0  0  0  0  0  0  0  0  0
    5.5007   -0.4211    5.3208 C   0  0  0  0  0  0  0  0  0  0  0  0
    4.1100   -0.4308    7.6936 N   0  0  0  0  0  0  0  0  0  0  0  0
    2.7785   -0.5239    8.5913 C   0  0  0  0  0  0  0  0  0  0  0  0
    5.2051   -1.1095    8.2313 C   0  0  0  0  0  0  0  0  0  0  0  0
    6.2320   -0.5531    3.0687 C   0  0  0  0  0  0  0  0  0  0  0  0
    1.7568   -3.7221    5.6426 C   0  0  0  0  0  0  0  0  0  0  0  0
    2.2343   -5.3720    4.6781 C   0  0  0  0  0  0  0  0  0  0  0  0
    0.4084   -3.3280    5.7071 O   0  0  0  0  0  0  0  0  0  0  0  0
    3.7251   -7.4643    6.3962 C   0  0  0  0  0  0  0  0  0  0  0  0
    4.2375   -6.4980    5.8444 O   0  0  0  0  0  0  0  0  0  0  0  0
    3.8710   -8.7274    5.7339 C   0  0  0  0  0  0  0  0  0  0  0  0
    5.3130   -3.5661    8.2575 C   0  0  0  0  0  0  0  0  0  0  0  0
    6.6880   -3.2236    8.2663 C   0  0  0  0  0  0  0  0  0  0  0  0
    5.0308   -4.0844    7.1648 O   0  0  0  0  0  0  0  0  0  0  0  0
   -1.1907   -4.4172    7.7889 H   0  0  0  0  0  0  0  0  0  0  0  0
   -1.2527   -3.4554    8.3664 H   0  0  0  0  0  0  0  0  0  0  0  0
    2.8085   -5.6838    6.8698 H   0  0  0  0  0  0  0  0  0  0  0  0
    3.0496   -4.4070    6.8825 H   0  0  0  0  0  0  0  0  0  0  0  0
   -0.2522   -4.8561    6.2817 H   0  0  0  0  0  0  0  0  0  0  0  0
    2.1569   -3.0364   12.1032 H   0  0  0  0  0  0  0  0  0  0  0  0
    1.0197   -3.9112    2.9844 H   0  0  0  0  0  0  0  0  0  0  0  0
   -0.8111   -6.9804    6.0924 H   0  0  0  0  0  0  0  0  0  0  0  0
   -0.9537   -6.0211    4.8125 H   0  0  0  0  0  0  0  0  0  0  0  0
    0.5549   -7.2784    5.2468 H   0  0  0  0  0  0  0  0  0  0  0  0
    4.7622   -2.8549   11.2302 H   0  0  0  0  0  0  0  0  0  0  0  0
    1.2575   -2.4199    9.6489 H   0  0  0  0  0  0  0  0  0  0  0  0
    0.0511   -2.3831   10.3633 H   0  0  0  0  0  0  0  0  0  0  0  0
    1.1329   -1.0708   10.4149 H   0  0  0  0  0  0  0  0  0  0  0  0
   -0.0931   -1.5114    4.8181 H   0  0  0  0  0  0  0  0  0  0  0  0
    2.7598   -0.7152   10.9520 H   0  0  0  0  0  0  0  0  0  0  0  0
    2.7840   -1.0077    4.8756 H   0  0  0  0  0  0  0  0  0  0  0  0
    1.4134   -1.6312    7.3459 H   0  0  0  0  0  0  0  0  0  0  0  0
    0.8827   -0.6010    7.2873 H   0  0  0  0  0  0  0  0  0  0  0  0
   -0.1107   -1.7087    7.5926 H   0  0  0  0  0  0  0  0  0  0  0  0
    4.5620    1.4738   10.5941 H   0  0  0  0  0  0  0  0  0  0  0  0
    3.3604    0.7862   12.2216 H   0  0  0  0  0  0  0  0  0  0  0  0
    2.8793   -0.7554   12.8905 H   0  0  0  0  0  0  0  0  0  0  0  0
    4.6457   -0.4049   12.7942 H   0  0  0  0  0  0  0  0  0  0  0  0
    2.3814    0.8132    5.0750 H   0  0  0  0  0  0  0  0  0  0  0  0
    5.7772    0.7559    7.9494 H   0  0  0  0  0  0  0  0  0  0  0  0
    5.8847    1.9844    8.8049 H   0  0  0  0  0  0  0  0  0  0  0  0
    6.5543    0.3390    9.4582 H   0  0  0  0  0  0  0  0  0  0  0  0
    0.9254    1.7967    6.6233 H   0  0  0  0  0  0  0  0  0  0  0  0
    0.3403    0.5708    5.1424 H   0  0  0  0  0  0  0  0  0  0  0  0
   -0.0736    0.4886    6.8028 H   0  0  0  0  0  0  0  0  0  0  0  0
    2.2056   -2.4700    8.6037 H   0  0  0  0  0  0  0  0  0  0  0  0
    0.0830   -3.3544    7.2419 H   0  0  0  0  0  0  0  0  0  0  0  0
    0.4822   -3.1675    8.4702 H   0  0  0  0  0  0  0  0  0  0  0  0
    1.2874   -6.5385    6.8957 H   0  0  0  0  0  0  0  0  0  0  0  0
    4.3768   -5.6952    7.7505 H   0  0  0  0  0  0  0  0  0  0  0  0
    2.2723   -6.9169    9.5139 H   0  0  0  0  0  0  0  0  0  0  0  0
    5.4255   -6.8056    9.1005 H   0  0  0  0  0  0  0  0  0  0  0  0
    5.7974   -5.1461    9.4747 H   0  0  0  0  0  0  0  0  0  0  0  0
    4.8137   -5.9210   10.5715 H   0  0  0  0  0  0  0  0  0  0  0  0
    0.4507   -7.8530    8.8894 H   0  0  0  0  0  0  0  0  0  0  0  0
   -0.3254   -6.4699    9.7473 H   0  0  0  0  0  0  0  0  0  0  0  0
   -1.3997   -7.4562    8.6791 H   0  0  0  0  0  0  0  0  0  0  0  0
    2.9586   -1.9849    3.5003 H   0  0  0  0  0  0  0  0  0  0  0  0
    4.9527   -2.8712    5.7987 H   0  0  0  0  0  0  0  0  0  0  0  0
    3.9016    0.0321    5.6715 H   0  0  0  0  0  0  0  0  0  0  0  0
    4.1584   -0.2663    3.5480 H   0  0  0  0  0  0  0  0  0  0  0  0
    6.3263   -0.9324    5.7769 H   0  0  0  0  0  0  0  0  0  0  0  0
    5.6105    0.6768    5.3581 H   0  0  0  0  0  0  0  0  0  0  0  0
    2.8929   -1.3359    9.2241 H   0  0  0  0  0  0  0  0  0  0  0  0
    2.5689    0.0379    9.5140 H   0  0  0  0  0  0  0  0  0  0  0  0
    1.8143   -0.0285    8.4376 H   0  0  0  0  0  0  0  0  0  0  0  0
    4.9339   -1.9217    7.6720 H   0  0  0  0  0  0  0  0  0  0  0  0
    6.1969   -0.9525    7.8300 H   0  0  0  0  0  0  0  0  0  0  0  0
    5.3594   -1.2160    9.3153 H   0  0  0  0  0  0  0  0  0  0  0  0
    5.9525   -0.8776    2.0700 H   0  0  0  0  0  0  0  0  0  0  0  0
    6.4488    0.4975    3.1722 H   0  0  0  0  0  0  0  0  0  0  0  0
    6.9895   -1.2147    3.5054 H   0  0  0  0  0  0  0  0  0  0  0  0
    2.1727   -6.3934    5.0227 H   0  0  0  0  0  0  0  0  0  0  0  0
    1.4091   -5.5416    3.8756 H   0  0  0  0  0  0  0  0  0  0  0  0
    3.1920   -5.0898    4.9851 H   0  0  0  0  0  0  0  0  0  0  0  0
    4.5408   -9.2041    6.4371 H   0  0  0  0  0  0  0  0  0  0  0  0
    2.8809   -9.1546    5.6129 H   0  0  0  0  0  0  0  0  0  0  0  0
    4.3459   -8.5169    4.7709 H   0  0  0  0  0  0  0  0  0  0  0  0
    7.1178   -4.1961    8.1448 H   0  0  0  0  0  0  0  0  0  0  0  0
    6.7749   -2.6433    7.3226 H   0  0  0  0  0  0  0  0  0  0  0  0
    6.7175   -2.7171    9.2137 H   0  0  0  0  0  0  0  0  0  0  0  0
  1  2  1  0  0  0  0
  1  3  1  6  0  0  0
  1  4  1  0  0  0  0
  1  5  1  0  0  0  0
  2  3  1  0  0  0  0
  2 58  1  0  0  0  0
  2 59  1  0  0  0  0
  4  6  1  0  0  0  0
  4 60  1  0  0  0  0
  4 61  1  0  0  0  0
  5  7  1  0  0  0  0
  5  8  2  0  0  0  0
  6  9  1  0  0  0  0
  6 10  1  0  0  0  0
  6 62  1  1  0  0  0
  7 11  1  0  0  0  0
  7 63  1  1  0  0  0
  7 12  1  0  0  0  0
  9 13  1  0  0  0  0
  9 64  1  6  0  0  0
  9 14  1  0  0  0  0
 10 65  1  0  0  0  0
 10 66  1  0  0  0  0
 10 67  1  0  0  0  0
 11 15  1  0  0  0  0
 11 68  1  1  0  0  0
 11 16  1  0  0  0  0
 12 69  1  0  0  0  0
 12 70  1  0  0  0  0
 12 71  1  0  0  0  0
 13 17  1  0  0  0  0
 13 72  1  6  0  0  0
 13 18  1  0  0  0  0
 15 19  1  0  0  0  0
 15 20  1  0  0  0  0
 15 73  1  6  0  0  0
 16 55  1  0  0  0  0
 17 22  1  0  0  0  0
 17 74  1  6  0  0  0
 17 21  1  0  0  0  0
 18 75  1  0  0  0  0
 18 76  1  0  0  0  0
 18 77  1  0  0  0  0
 19 23  1  0  0  0  0
 19 78  1  1  0  0  0
 19 24  1  0  0  0  0
 20 79  1  0  0  0  0
 20 80  1  0  0  0  0
 20 81  1  0  0  0  0
 22 25  1  0  0  0  0
 22 82  1  6  0  0  0
 22 26  1  0  0  0  0
 23 25  1  0  0  0  0
 24 83  1  0  0  0  0
 24 84  1  0  0  0  0
 24 85  1  0  0  0  0
 25 27  2  0  0  0  0
 26 86  1  0  0  0  0
 26 87  1  0  0  0  0
 26 88  1  0  0  0  0
 28 29  1  0  0  0  0
 28 30  1  0  0  0  0
 28 89  1  1  0  0  0
 28 21  1  0  0  0  0
 29 31  1  0  0  0  0
 29 90  1  0  0  0  0
 29 91  1  0  0  0  0
 30 32  1  0  0  0  0
 31 33  1  0  0  0  0
 31 92  1  6  0  0  0
 31 34  1  0  0  0  0
 32 35  1  0  0  0  0
 32 33  1  0  0  0  0
 32 93  1  6  0  0  0
 33 36  1  0  0  0  0
 33 94  1  1  0  0  0
 34 37  1  0  0  0  0
 35 95  1  0  0  0  0
 35 96  1  0  0  0  0
 35 97  1  0  0  0  0
 36 52  1  0  0  0  0
 37 98  1  0  0  0  0
 37 99  1  0  0  0  0
 37100  1  0  0  0  0
 38 39  1  0  0  0  0
 38 40  1  0  0  0  0
 38101  1  6  0  0  0
 38 14  1  0  0  0  0
 39 41  1  0  0  0  0
 39102  1  1  0  0  0
 39 42  1  0  0  0  0
 40 43  1  0  0  0  0
 41 44  1  0  0  0  0
 41 45  1  0  0  0  0
 41103  1  6  0  0  0
 42 49  1  0  0  0  0
 43 44  1  0  0  0  0
 43 48  1  0  0  0  0
 43104  1  6  0  0  0
 44105  1  0  0  0  0
 44106  1  0  0  0  0
 45 46  1  0  0  0  0
 45 47  1  0  0  0  0
 46107  1  0  0  0  0
 46108  1  0  0  0  0
 46109  1  0  0  0  0
 47110  1  0  0  0  0
 47111  1  0  0  0  0
 47112  1  0  0  0  0
 48113  1  0  0  0  0
 48114  1  0  0  0  0
 48115  1  0  0  0  0
 49 50  1  0  0  0  0
 49 51  2  0  0  0  0
 50116  1  0  0  0  0
 50117  1  0  0  0  0
 50118  1  0  0  0  0
 52 53  2  0  0  0  0
 52 54  1  0  0  0  0
 54119  1  0  0  0  0
 54120  1  0  0  0  0
 54121  1  0  0  0  0
 55 56  1  0  0  0  0
 55 57  2  0  0  0  0
 56122  1  0  0  0  0
 56123  1  0  0  0  0
 56124  1  0  0  0  0
M  END
>  <DRUGBANK_ID>
DB13179

>  <SECONDARY_ACCESSION_NUMBERS>
DB01361

>  <COMMON_NAME>
Troleandomycin

>  <CAS_NUMBER>
2751-09-9

>  <UNII>
C4DZ64560D

>  <SYNONYMS>
Oleandocetine; Oleandomycin triacetate; Oleandomycin triacetyl ester; Triacetyloleandomycin; Triacetyloleandomycinum; Tribiocillina; Troleandomicina; Troleandomycin; Troleandomycine

$$$$
