
 OpenBabel10282417103D

 61 63  0  0  1  0  0  0  0  0999 V2000
    2.9280    3.2240    3.4376 C   0  0  0  0  0  0  0  0  0  0  0  0
    3.0109    3.2363    1.8802 C   0  0  0  0  0  0  0  0  0  0  0  0
    2.9894    1.9669    4.0300 C   0  0  0  0  0  0  0  0  0  0  0  0
    3.0670    4.4885    1.4139 N   0  0  0  0  0  0  0  0  0  0  0  0
    2.8178    4.3621    4.2971 C   0  0  0  0  0  0  0  0  0  0  0  0
    2.9413    1.8399    5.4235 C   0  0  0  0  0  0  0  0  0  0  0  0
    2.9345    5.1565    0.1460 C   0  0  1  0  0  0  0  0  0  0  0  0
    2.7762    4.2122    5.6944 C   0  0  0  0  0  0  0  0  0  0  0  0
    3.5018    6.4775    0.6866 C   0  0  2  0  0  0  0  0  0  0  0  0
    2.8453    2.9433    6.2732 C   0  0  0  0  0  0  0  0  0  0  0  0
    3.2770    7.4597   -1.5378 N   0  0  0  0  0  0  0  0  0  0  0  0
    2.9460    7.5368   -0.1365 C   0  0  0  0  0  0  0  0  0  0  0  0
    3.3040    4.9896   -1.3854 C   0  0  0  0  0  0  0  0  0  0  0  0
    3.0096    2.3116    1.1184 O   0  0  0  0  0  0  0  0  0  0  0  0
    2.8336    6.2511   -2.1740 C   0  0  0  0  0  0  0  0  0  0  0  0
    2.7624    2.7286    7.6413 N   0  0  0  0  0  0  0  0  0  0  0  0
    2.6541    5.6211    6.7010 Cl  0  0  0  0  0  0  0  0  0  0  0  0
    3.1056    0.9160    3.1760 O   0  0  0  0  0  0  0  0  0  0  0  0
    5.5014   10.6727    0.8856 C   0  0  0  0  0  0  0  0  0  0  0  0
    4.9024    6.5621    0.9510 O   0  0  0  0  0  0  0  0  0  0  0  0
    2.7369   10.7172    0.3008 C   0  0  0  0  0  0  0  0  0  0  0  0
    6.8144   10.6193    1.1471 F   0  0  0  0  0  0  0  0  0  0  0  0
    4.5708   10.7863    1.9101 C   0  0  0  0  0  0  0  0  0  0  0  0
    5.0695   10.6841   -0.4187 C   0  0  0  0  0  0  0  0  0  0  0  0
    3.1876   10.7246    1.6240 C   0  0  0  0  0  0  0  0  0  0  0  0
    3.7136   10.9644   -0.6751 C   0  0  0  0  0  0  0  0  0  0  0  0
    2.8131    8.6381   -2.2127 C   0  0  0  0  0  0  0  0  0  0  0  0
    1.3602    9.0827   -2.1445 C   0  0  0  0  0  0  0  0  0  0  0  0
    1.3974   10.5135    0.0353 O   0  0  0  0  0  0  0  0  0  0  0  0
    0.8221    9.3961   -0.7287 C   0  0  0  0  0  0  0  0  0  0  0  0
    3.1996   -0.3797    3.7110 C   0  0  0  0  0  0  0  0  0  0  0  0
    5.7220    6.2713   -0.1608 C   0  0  0  0  0  0  0  0  0  0  0  0
    2.7041    5.0919    2.1267 H   0  0  0  0  0  0  0  0  0  0  0  0
    2.7696    5.3905    3.9435 H   0  0  0  0  0  0  0  0  0  0  0  0
    2.9883    0.8576    5.8752 H   0  0  0  0  0  0  0  0  0  0  0  0
    1.8436    5.0595    0.0437 H   0  0  0  0  0  0  0  0  0  0  0  0
    3.0585    6.7322    1.6679 H   0  0  0  0  0  0  0  0  0  0  0  0
    1.8913    7.3556    0.0052 H   0  0  0  0  0  0  0  0  0  0  0  0
    3.2760    8.4336    0.3691 H   0  0  0  0  0  0  0  0  0  0  0  0
    4.3526    4.8597   -1.6492 H   0  0  0  0  0  0  0  0  0  0  0  0
    2.7963    4.1481   -1.8601 H   0  0  0  0  0  0  0  0  0  0  0  0
    3.2537    6.2744   -3.1876 H   0  0  0  0  0  0  0  0  0  0  0  0
    1.7433    6.2713   -2.2552 H   0  0  0  0  0  0  0  0  0  0  0  0
    2.7490    3.5224    8.2711 H   0  0  0  0  0  0  0  0  0  0  0  0
    2.8640    1.8005    8.0285 H   0  0  0  0  0  0  0  0  0  0  0  0
    4.9336   10.8863    2.9267 H   0  0  0  0  0  0  0  0  0  0  0  0
    5.7635   10.4390   -1.2227 H   0  0  0  0  0  0  0  0  0  0  0  0
    2.4821   10.6707    2.4463 H   0  0  0  0  0  0  0  0  0  0  0  0
    3.4379   11.1034   -1.7193 H   0  0  0  0  0  0  0  0  0  0  0  0
    3.3096    9.2852   -1.5753 H   0  0  0  0  0  0  0  0  0  0  0  0
    3.3216    8.8597   -3.1555 H   0  0  0  0  0  0  0  0  0  0  0  0
    1.2632   10.0135   -2.7113 H   0  0  0  0  0  0  0  0  0  0  0  0
    0.7539    8.3263   -2.6610 H   0  0  0  0  0  0  0  0  0  0  0  0
   -0.2442    9.6254   -0.8587 H   0  0  0  0  0  0  0  0  0  0  0  0
    0.6809    8.5145   -0.0990 H   0  0  0  0  0  0  0  0  0  0  0  0
    4.0919   -0.4676    4.3357 H   0  0  0  0  0  0  0  0  0  0  0  0
    2.2874   -0.6256    4.2597 H   0  0  0  0  0  0  0  0  0  0  0  0
    3.2956   -1.0706    2.8716 H   0  0  0  0  0  0  0  0  0  0  0  0
    5.6336    5.2138   -0.3964 H   0  0  0  0  0  0  0  0  0  0  0  0
    5.4885    6.9174   -1.0073 H   0  0  0  0  0  0  0  0  0  0  0  0
    6.7681    6.4331    0.0796 H   0  0  0  0  0  0  0  0  0  0  0  0
  2  1  1  0  0  0  0
  3  1  1  0  0  0  0
  4  2  1  0  0  0  0
  4 33  1  0  0  0  0
  5  1  2  0  0  0  0
  5 34  1  0  0  0  0
  6  3  2  0  0  0  0
  6 35  1  0  0  0  0
  7 36  1  6  0  0  0
  7  4  1  0  0  0  0
  8  5  1  0  0  0  0
  9  7  1  0  0  0  0
  9 37  1  1  0  0  0
  9 20  1  0  0  0  0
 10  6  1  0  0  0  0
 10  8  2  0  0  0  0
 12  9  1  0  0  0  0
 12 11  1  0  0  0  0
 12 38  1  0  0  0  0
 12 39  1  0  0  0  0
 13  7  1  0  0  0  0
 13 40  1  0  0  0  0
 13 41  1  0  0  0  0
 14  2  2  0  0  0  0
 15 11  1  0  0  0  0
 15 13  1  0  0  0  0
 15 42  1  0  0  0  0
 15 43  1  0  0  0  0
 16 10  1  0  0  0  0
 16 44  1  0  0  0  0
 16 45  1  0  0  0  0
 17  8  1  0  0  0  0
 18  3  1  0  0  0  0
 22 19  1  0  0  0  0
 23 19  2  0  0  0  0
 23 46  1  0  0  0  0
 24 19  1  0  0  0  0
 24 47  1  0  0  0  0
 25 21  2  0  0  0  0
 25 23  1  0  0  0  0
 25 48  1  0  0  0  0
 26 21  1  0  0  0  0
 26 24  2  0  0  0  0
 26 49  1  0  0  0  0
 27 11  1  0  0  0  0
 27 50  1  0  0  0  0
 27 51  1  0  0  0  0
 28 27  1  0  0  0  0
 28 52  1  0  0  0  0
 28 53  1  0  0  0  0
 29 21  1  0  0  0  0
 30 28  1  0  0  0  0
 30 29  1  0  0  0  0
 30 54  1  0  0  0  0
 30 55  1  0  0  0  0
 31 18  1  0  0  0  0
 31 56  1  0  0  0  0
 31 57  1  0  0  0  0
 31 58  1  0  0  0  0
 32 20  1  0  0  0  0
 32 59  1  0  0  0  0
 32 60  1  0  0  0  0
 32 61  1  0  0  0  0
M  END
>  <DRUGBANK_ID>
DB00604

>  <SECONDARY_ACCESSION_NUMBERS>
APRD00454

>  <COMMON_NAME>
Cisapride

>  <CAS_NUMBER>
81098-60-4

>  <UNII>
UVL329170W

>  <SYNONYMS>
Cisaprid; Cisaprida; Cisapride; Cisapridum

$$$$
