
 OpenBabel10282417123D

 19 19  0  0  0  0  0  0  0  0999 V2000
   -2.3369    1.1981    0.0033 C   0  0  0  0  0  0  0  0  0  0  0  0
   -1.1047    0.3486   -0.0056 C   0  0  0  0  0  0  0  0  0  0  0  0
   -1.2640   -0.9843   -0.0015 N   0  0  0  0  0  0  0  0  0  0  0  0
   -0.1311   -1.7072    0.0086 C   0  0  0  0  0  0  0  0  0  0  0  0
    1.1411   -1.1665    0.0197 C   0  0  0  0  0  0  0  0  0  0  0  0
    2.3327   -2.0634    0.0124 C   0  0  0  0  0  0  0  0  0  0  0  0
    2.3370   -2.8997    1.1628 O   0  0  0  0  0  0  0  0  0  0  0  0
    1.1949    0.2177   -0.0029 C   0  0  0  0  0  0  0  0  0  0  0  0
    2.3694    0.9214    0.0645 N   0  0  0  0  0  0  0  0  0  0  0  0
    0.0852    0.9754   -0.0099 N   0  0  0  0  0  0  0  0  0  0  0  0
   -2.3482    1.8307    0.8961 H   0  0  0  0  0  0  0  0  0  0  0  0
   -2.3570    1.8363   -0.8849 H   0  0  0  0  0  0  0  0  0  0  0  0
   -3.2409    0.5811    0.0066 H   0  0  0  0  0  0  0  0  0  0  0  0
   -0.2802   -2.7859    0.0116 H   0  0  0  0  0  0  0  0  0  0  0  0
    2.3164   -2.6987   -0.8799 H   0  0  0  0  0  0  0  0  0  0  0  0
    3.2811   -1.5217   -0.0013 H   0  0  0  0  0  0  0  0  0  0  0  0
    2.3069   -2.3137    1.9401 H   0  0  0  0  0  0  0  0  0  0  0  0
    2.2688    1.9265   -0.0198 H   0  0  0  0  0  0  0  0  0  0  0  0
    3.2814    0.5140   -0.0488 H   0  0  0  0  0  0  0  0  0  0  0  0
  1  2  1  0  0  0  0
  1 11  1  0  0  0  0
  1 12  1  0  0  0  0
  1 13  1  0  0  0  0
  2  3  2  0  0  0  0
  2 10  1  0  0  0  0
  3  4  1  0  0  0  0
  4  5  2  0  0  0  0
  4 14  1  0  0  0  0
  5  6  1  0  0  0  0
  5  8  1  0  0  0  0
  6  7  1  0  0  0  0
  6 15  1  0  0  0  0
  6 16  1  0  0  0  0
  7 17  1  0  0  0  0
  8  9  1  0  0  0  0
  8 10  2  0  0  0  0
  9 18  1  0  0  0  0
  9 19  1  0  0  0  0
M  END
>  <DRUGBANK_ID>
DB02022

>  <SECONDARY_ACCESSION_NUMBERS>
EXPT01759

>  <COMMON_NAME>
4-Amino-5-Hydroxymethyl-2-Methylpyrimidine

>  <CAS_NUMBER>
73-67-6

>  <UNII>
G62V17J09J

$$$$
