
 OpenBabel10282417113D

 54 56  0  0  1  0  0  0  0  0999 V2000
    1.1063   -0.9200   -0.1470 C   0  0  0  0  0  0  0  0  0  0  0  0
    1.5956   -2.3042   -0.5669 C   0  0  0  0  0  0  0  0  0  0  0  0
    0.1452   -0.8089    0.9857 C   0  0  0  0  0  0  0  0  0  0  0  0
    0.5581   -0.8195    2.3499 C   0  0  0  0  0  0  0  0  0  0  0  0
    2.9899   -2.2464   -0.3752 C   0  0  0  0  0  0  0  0  0  0  0  0
   -0.0838   -1.7437    3.2011 C   0  0  0  0  0  0  0  0  0  0  0  0
    1.7140    0.2370   -0.3682 C   0  0  0  0  0  0  0  0  0  0  0  0
   -1.0612   -1.3669    0.5285 C   0  0  0  0  0  0  0  0  0  0  0  0
    4.2169   -0.9502   -0.5020 C   0  0  0  0  0  0  0  0  0  0  0  0
    0.1501   -3.4428   -0.8262 C   0  0  1  0  0  0  0  0  0  0  0  0
   -1.1588   -2.5150    2.6954 C   0  0  0  0  0  0  0  0  0  0  0  0
    2.6816    0.8182   -1.2498 C   0  0  0  0  0  0  0  0  0  0  0  0
    3.9517    0.4212   -1.2442 C   0  0  0  0  0  0  0  0  0  0  0  0
   -1.6919   -2.2530    1.4101 C   0  0  0  0  0  0  0  0  0  0  0  0
   -0.5043   -6.1014   -0.9455 C   0  0  0  0  0  0  0  0  0  0  0  0
   -0.1163   -4.8621   -1.5142 N   0  0  0  0  0  0  0  0  0  0  0  0
   -1.3088   -1.3686   -1.0052 C   0  0  0  0  0  0  0  0  0  0  0  0
    5.2639   -1.0715    0.1287 O   0  0  0  0  0  0  0  0  0  0  0  0
   -0.6414   -2.5310   -1.7700 C   0  0  0  0  0  0  0  0  0  0  0  0
   -0.8884   -7.0375   -1.6086 O   0  0  0  0  0  0  0  0  0  0  0  0
    1.6397   -0.1830    2.9024 O   0  0  0  0  0  0  0  0  0  0  0  0
    0.3105   -2.0344    4.4838 O   0  0  0  0  0  0  0  0  0  0  0  0
   -0.5018   -6.1794    0.5558 C   0  0  0  0  0  0  0  0  0  0  0  0
   -1.7426   -3.6163    3.2896 O   0  0  0  0  0  0  0  0  0  0  0  0
    5.0077    1.2798   -1.6898 O   0  0  0  0  0  0  0  0  0  0  0  0
    2.2572    1.0056    2.4394 C   0  0  0  0  0  0  0  0  0  0  0  0
    1.2705   -1.2413    5.1578 C   0  0  0  0  0  0  0  0  0  0  0  0
   -1.4602   -3.8570    4.6645 C   0  0  0  0  0  0  0  0  0  0  0  0
    4.6181    2.3898   -2.5535 C   0  0  0  0  0  0  0  0  0  0  0  0
    3.1601   -2.1536    0.7375 H   0  0  0  0  0  0  0  0  0  0  0  0
    2.3706    0.1873    0.4849 H   0  0  0  0  0  0  0  0  0  0  0  0
   -0.4207   -3.6062    0.0880 H   0  0  0  0  0  0  0  0  0  0  0  0
    2.3972    1.7897   -1.6433 H   0  0  0  0  0  0  0  0  0  0  0  0
   -2.4577   -2.9301    1.0325 H   0  0  0  0  0  0  0  0  0  0  0  0
   -0.8285   -4.8386   -2.2676 H   0  0  0  0  0  0  0  0  0  0  0  0
   -2.3790   -1.2933   -1.1960 H   0  0  0  0  0  0  0  0  0  0  0  0
   -0.8834   -0.4640   -1.4679 H   0  0  0  0  0  0  0  0  0  0  0  0
   -1.3516   -2.9475   -2.5009 H   0  0  0  0  0  0  0  0  0  0  0  0
    0.1650   -2.2380   -2.4571 H   0  0  0  0  0  0  0  0  0  0  0  0
    0.2371   -5.4757    0.9161 H   0  0  0  0  0  0  0  0  0  0  0  0
   -1.4948   -5.9432    0.9564 H   0  0  0  0  0  0  0  0  0  0  0  0
   -0.2174   -7.1852    0.8759 H   0  0  0  0  0  0  0  0  0  0  0  0
    3.1621    0.7212    1.8945 H   0  0  0  0  0  0  0  0  0  0  0  0
    1.5756    1.6559    1.8809 H   0  0  0  0  0  0  0  0  0  0  0  0
    2.7012    1.5751    3.2572 H   0  0  0  0  0  0  0  0  0  0  0  0
    2.2662   -1.4123    4.7371 H   0  0  0  0  0  0  0  0  0  0  0  0
    0.9778   -0.1868    5.1571 H   0  0  0  0  0  0  0  0  0  0  0  0
    1.3088   -1.5622    6.2020 H   0  0  0  0  0  0  0  0  0  0  0  0
   -0.4284   -4.2007    4.8069 H   0  0  0  0  0  0  0  0  0  0  0  0
   -1.6924   -2.9690    5.2614 H   0  0  0  0  0  0  0  0  0  0  0  0
   -2.1095   -4.6593    5.0244 H   0  0  0  0  0  0  0  0  0  0  0  0
    4.0060    1.9963   -3.3695 H   0  0  0  0  0  0  0  0  0  0  0  0
    4.0720    3.1833   -2.0189 H   0  0  0  0  0  0  0  0  0  0  0  0
    5.4797    2.8888   -3.0290 H   0  0  0  0  0  0  0  0  0  0  0  0
  2  1  1  0  0  0  0
  3  1  1  0  0  0  0
  4  3  1  0  0  0  0
  5  2  2  0  0  0  0
  5 30  1  0  0  0  0
  6  4  2  0  0  0  0
  6 11  1  0  0  0  0
  7  1  2  0  0  0  0
  7 31  1  0  0  0  0
  8  3  2  0  0  0  0
  9  5  1  0  0  0  0
 10  2  1  0  0  0  0
 10 16  1  0  0  0  0
 10 32  1  6  0  0  0
 11 14  2  0  0  0  0
 12  7  1  0  0  0  0
 12 33  1  0  0  0  0
 13 12  2  0  0  0  0
 13  9  1  0  0  0  0
 14  8  1  0  0  0  0
 14 34  1  0  0  0  0
 15 16  1  0  0  0  0
 16 35  1  0  0  0  0
 17  8  1  0  0  0  0
 17 36  1  0  0  0  0
 17 37  1  0  0  0  0
 18  9  2  0  0  0  0
 19 10  1  0  0  0  0
 19 17  1  0  0  0  0
 19 38  1  0  0  0  0
 19 39  1  0  0  0  0
 20 15  2  0  0  0  0
 21  4  1  0  0  0  0
 22  6  1  0  0  0  0
 23 15  1  0  0  0  0
 23 40  1  0  0  0  0
 23 41  1  0  0  0  0
 23 42  1  0  0  0  0
 24 11  1  0  0  0  0
 25 13  1  0  0  0  0
 26 21  1  0  0  0  0
 26 43  1  0  0  0  0
 26 44  1  0  0  0  0
 26 45  1  0  0  0  0
 27 22  1  0  0  0  0
 27 46  1  0  0  0  0
 27 47  1  0  0  0  0
 27 48  1  0  0  0  0
 28 24  1  0  0  0  0
 28 49  1  0  0  0  0
 28 50  1  0  0  0  0
 28 51  1  0  0  0  0
 29 25  1  0  0  0  0
 29 52  1  0  0  0  0
 29 53  1  0  0  0  0
 29 54  1  0  0  0  0
M  END
>  <DRUGBANK_ID>
DB01394

>  <COMMON_NAME>
Colchicine

>  <CAS_NUMBER>
64-86-8

>  <UNII>
SML2Y3J35T

>  <SYNONYMS>
Colchicin; Colchicina; Colchicine; Colchicinum

$$$$
