
 OpenBabel10282417183D

 82 87  0  0  1  0  0  0  0  0999 V2000
   -4.9270    3.7331    4.8325 C   0  0  0  0  0  0  0  0  0  0  0  0
   -2.0986    8.5645   12.2520 C   0  0  0  0  0  0  0  0  0  0  0  0
   -3.4559   -0.4536    3.6524 C   0  0  0  0  0  0  0  0  0  0  0  0
   -2.9071    0.9021    4.1314 C   0  0  0  0  0  0  0  0  0  0  0  0
   -2.1506    5.4291   15.0470 C   0  0  0  0  0  0  0  0  0  0  0  0
   -2.2547    4.1226   14.6200 C   0  0  0  0  0  0  0  0  0  0  0  0
   -2.1325    6.4757   14.1247 C   0  0  0  0  0  0  0  0  0  0  0  0
   -3.8585   -0.6749    2.3697 C   0  0  0  0  0  0  0  0  0  0  0  0
   -2.9686    2.1130    3.2900 C   0  0  0  0  0  0  0  0  0  0  0  0
   -2.0528   -0.6665    5.2739 C   0  0  0  0  0  0  0  0  0  0  0  0
   -2.6156   -1.0645    9.4881 C   0  0  0  0  0  0  0  0  0  0  0  0
   -2.8025   -0.0964    7.6871 C   0  0  0  0  0  0  0  0  0  0  0  0
   -1.7106   -3.5278    6.7026 C   0  0  0  0  0  0  0  0  0  0  0  0
   -4.1098    2.6276    5.6012 C   0  0  1  0  0  0  0  0  0  0  0  0
   -2.3474    3.8711   13.2625 C   0  0  0  0  0  0  0  0  0  0  0  0
   -2.4517    0.4596    9.8866 C   0  0  0  0  0  0  0  0  0  0  0  0
   -4.1685   -0.5118    5.7190 C   0  0  1  0  0  0  0  0  0  0  0  0
   -2.2203    6.2382   12.7570 C   0  0  0  0  0  0  0  0  0  0  0  0
   -2.0930    1.1912    7.5572 C   0  0  1  0  0  0  0  0  0  0  0  0
   -2.7261   -2.6476    7.4427 C   0  0  0  0  0  0  0  0  0  0  0  0
   -4.5118    0.7167    2.3292 C   0  0  2  0  0  0  0  0  0  0  0  0
   -1.1964    1.1108    5.4724 C   0  0  1  0  0  0  0  0  0  0  0  0
   -2.3329    4.9155   12.3309 C   0  0  0  0  0  0  0  0  0  0  0  0
   -2.2518    1.5526    8.9519 C   0  0  0  0  0  0  0  0  0  0  0  0
   -2.5705    2.1424   11.4864 C   0  0  0  0  0  0  0  0  0  0  0  0
   -2.5273    3.1941   10.5377 C   0  0  0  0  0  0  0  0  0  0  0  0
   -2.4716    2.4707   12.8851 C   0  0  0  0  0  0  0  0  0  0  0  0
   -2.6232    0.7866   11.1674 C   0  0  0  0  0  0  0  0  0  0  0  0
   -2.4430    4.6016   10.9086 C   0  0  0  0  0  0  0  0  0  0  0  0
   -2.4442    2.9011    9.2198 C   0  0  0  0  0  0  0  0  0  0  0  0
   -5.0958    1.0797    5.1812 C   0  0  2  0  0  0  0  0  0  0  0  0
   -2.1436   -1.3233    8.1150 C   0  0  2  0  0  0  0  0  0  0  0  0
   -5.1211   -1.6548    5.5673 N   0  0  0  0  0  0  0  0  0  0  0  0
   -1.5201   -4.7003    7.4586 O   0  0  0  0  0  0  0  0  0  0  0  0
   -3.8950   -3.0129    7.5660 O   0  0  0  0  0  0  0  0  0  0  0  0
   -2.4629    1.6021   13.7470 O   0  0  0  0  0  0  0  0  0  0  0  0
   -2.7372   -0.2272   12.0587 O   0  0  0  0  0  0  0  0  0  0  0  0
   -2.4377    5.4527   10.0233 O   0  0  0  0  0  0  0  0  0  0  0  0
   -2.5335    3.8204    8.2044 O   0  0  0  0  0  0  0  0  0  0  0  0
   -0.7618   -1.1805    7.8695 O   0  0  0  0  0  0  0  0  0  0  0  0
   -2.2075    7.2227   11.8115 O   0  0  0  0  0  0  0  0  0  0  0  0
   -3.4351    1.6664    2.0750 O   0  0  0  0  0  0  0  0  0  0  0  0
   -2.2847    2.6094    5.4247 O   0  0  0  0  0  0  0  0  0  0  0  0
   -0.8410    1.1800    6.8282 O   0  0  0  0  0  0  0  0  0  0  0  0
   -5.5512    1.0706    3.5607 O   0  0  0  0  0  0  0  0  0  0  0  0
   -4.1962    2.9159    6.6391 H   0  0  0  0  0  0  0  0  0  0  0  0
   -4.4561   -0.1279    6.6353 H   0  0  0  0  0  0  0  0  0  0  0  0
   -2.7955    1.8682    7.1312 H   0  0  0  0  0  0  0  0  0  0  0  0
   -5.0640    0.6427    1.4249 H   0  0  0  0  0  0  0  0  0  0  0  0
   -0.5245    1.2475    4.4989 H   0  0  0  0  0  0  0  0  0  0  0  0
   -6.0513    1.1179    5.7530 H   0  0  0  0  0  0  0  0  0  0  0  0
   -4.3977    4.6719    4.8918 H   0  0  0  0  0  0  0  0  0  0  0  0
   -5.9384    3.7369    5.2562 H   0  0  0  0  0  0  0  0  0  0  0  0
   -5.1811    3.5822    3.7618 H   0  0  0  0  0  0  0  0  0  0  0  0
   -2.9566    8.8343   12.8750 H   0  0  0  0  0  0  0  0  0  0  0  0
   -1.1539    8.7200   12.7815 H   0  0  0  0  0  0  0  0  0  0  0  0
   -2.1030    9.2152   11.3733 H   0  0  0  0  0  0  0  0  0  0  0  0
   -3.3958   -1.4956    4.1274 H   0  0  0  0  0  0  0  0  0  0  0  0
   -4.3785   -0.2009    4.0073 H   0  0  0  0  0  0  0  0  0  0  0  0
   -3.4312    1.1423    5.0315 H   0  0  0  0  0  0  0  0  0  0  0  0
   -2.7731    0.8729    5.2398 H   0  0  0  0  0  0  0  0  0  0  0  0
   -2.0836    5.6362   16.1073 H   0  0  0  0  0  0  0  0  0  0  0  0
   -2.2699    3.2998   15.3321 H   0  0  0  0  0  0  0  0  0  0  0  0
   -2.0494    7.4823   14.5102 H   0  0  0  0  0  0  0  0  0  0  0  0
   -2.8433   -0.8818    2.0243 H   0  0  0  0  0  0  0  0  0  0  0  0
   -4.4648   -1.5764    2.5887 H   0  0  0  0  0  0  0  0  0  0  0  0
   -3.8427    2.6060    3.5511 H   0  0  0  0  0  0  0  0  0  0  0  0
   -2.3473    3.0360    3.4182 H   0  0  0  0  0  0  0  0  0  0  0  0
   -1.5365   -1.5678    5.5356 H   0  0  0  0  0  0  0  0  0  0  0  0
   -1.7208   -0.9133    4.2090 H   0  0  0  0  0  0  0  0  0  0  0  0
   -3.7012   -1.3368    9.5408 H   0  0  0  0  0  0  0  0  0  0  0  0
   -2.0165   -1.7223   10.0807 H   0  0  0  0  0  0  0  0  0  0  0  0
   -2.7462   -0.4524    6.8002 H   0  0  0  0  0  0  0  0  0  0  0  0
   -3.8571   -0.0252    8.0634 H   0  0  0  0  0  0  0  0  0  0  0  0
   -2.0290   -3.7601    5.6760 H   0  0  0  0  0  0  0  0  0  0  0  0
   -0.7397   -3.0363    6.6201 H   0  0  0  0  0  0  0  0  0  0  0  0
   -5.9928   -1.4118    6.0739 H   0  0  0  0  0  0  0  0  0  0  0  0
   -5.4689   -1.6998    4.6081 H   0  0  0  0  0  0  0  0  0  0  0  0
   -1.3431   -4.3919    8.3647 H   0  0  0  0  0  0  0  0  0  0  0  0
   -2.7667   -1.0968   11.6324 H   0  0  0  0  0  0  0  0  0  0  0  0
   -2.5117    4.7489    8.5444 H   0  0  0  0  0  0  0  0  0  0  0  0
   -0.6314   -0.8803    6.9427 H   0  0  0  0  0  0  0  0  0  0  0  0
  1 52  1  0  0  0  0
  1 53  1  0  0  0  0
  1 54  1  0  0  0  0
  2 55  1  0  0  0  0
  2 56  1  0  0  0  0
  2 57  1  0  0  0  0
  3 58  1  0  0  0  0
  3 59  1  0  0  0  0
  4  3  1  0  0  0  0
  4 60  1  0  0  0  0
  4 61  1  0  0  0  0
  5 62  1  0  0  0  0
  6  5  2  0  0  0  0
  6 63  1  0  0  0  0
  7  5  1  0  0  0  0
  7 64  1  0  0  0  0
  8  3  1  0  0  0  0
  8 65  1  0  0  0  0
  8 66  1  0  0  0  0
  9  4  1  0  0  0  0
  9 67  1  0  0  0  0
  9 68  1  0  0  0  0
 10 69  1  0  0  0  0
 10 70  1  0  0  0  0
 11 71  1  0  0  0  0
 11 72  1  0  0  0  0
 12 73  1  0  0  0  0
 12 74  1  0  0  0  0
 13 75  1  0  0  0  0
 13 76  1  0  0  0  0
 14 46  1  1  0  0  0
 14  1  1  0  0  0  0
 15  6  1  0  0  0  0
 16 11  1  0  0  0  0
 17 10  1  0  0  0  0
 17 33  1  0  0  0  0
 17 47  1  1  0  0  0
 18  7  2  0  0  0  0
 19 12  1  0  0  0  0
 19 48  1  6  0  0  0
 19 44  1  0  0  0  0
 20 13  1  0  0  0  0
 21  8  1  0  0  0  0
 21 49  1  6  0  0  0
 21 45  1  0  0  0  0
 22 10  1  0  0  0  0
 22 44  1  0  0  0  0
 22 50  1  6  0  0  0
 23 15  2  0  0  0  0
 23 18  1  0  0  0  0
 24 16  1  0  0  0  0
 24 19  1  0  0  0  0
 26 25  2  0  0  0  0
 27 15  1  0  0  0  0
 27 25  1  0  0  0  0
 28 16  2  0  0  0  0
 28 25  1  0  0  0  0
 29 23  1  0  0  0  0
 29 26  1  0  0  0  0
 30 24  2  0  0  0  0
 30 26  1  0  0  0  0
 31 14  1  0  0  0  0
 31 17  1  0  0  0  0
 31 45  1  0  0  0  0
 31 51  1  1  0  0  0
 32 11  1  0  0  0  0
 32 12  1  0  0  0  0
 32 20  1  6  0  0  0
 32 40  1  0  0  0  0
 33 77  1  0  0  0  0
 33 78  1  0  0  0  0
 34 13  1  0  0  0  0
 34 79  1  0  0  0  0
 35 20  2  0  0  0  0
 36 27  2  0  0  0  0
 37 28  1  0  0  0  0
 37 80  1  0  0  0  0
 38 29  2  0  0  0  0
 39 30  1  0  0  0  0
 39 81  1  0  0  0  0
 40 82  1  0  0  0  0
 41  2  1  0  0  0  0
 41 18  1  0  0  0  0
 42  9  1  0  0  0  0
 42 21  1  0  0  0  0
 43 14  1  0  0  0  0
 43 22  1  0  0  0  0
M  END
>  <DRUGBANK_ID>
DB11616

>  <COMMON_NAME>
Pirarubicin

>  <CAS_NUMBER>
72496-41-4

>  <UNII>
D58G680W0G

>  <SYNONYMS>
Adriamycin, tetrahydropyranyl; Pirarubicin; Theprubicin; THP-Adm; THP-Doxorubicin

$$$$
