
 OpenBabel10282417133D

 19 18  0  0  1  0  0  0  0  0999 V2000
   -1.1296   -4.2399    1.1217 C   0  0  0  0  0  0  0  0  0  0  0  0
   -1.5820   -2.7865    1.0870 C   0  0  0  0  0  0  0  0  0  0  0  0
   -0.9718   -1.9468    2.2221 C   0  0  0  0  0  0  0  0  0  0  0  0
    0.5760   -1.9196    2.2679 C   0  0  2  0  0  0  0  0  0  0  0  0
    1.1859   -2.2389    0.9683 N   0  0  0  0  0  0  0  0  0  0  0  0
    1.0747   -2.8868    3.3725 C   0  0  0  0  0  0  0  0  0  0  0  0
    1.8314   -2.3014    4.3314 O   0  0  0  0  0  0  0  0  0  0  0  0
    0.8104   -4.0832    3.4370 O   0  0  0  0  0  0  0  0  0  0  0  0
   -0.0435   -4.3487    1.0688 H   0  0  0  0  0  0  0  0  0  0  0  0
   -1.5296   -4.7915    0.2691 H   0  0  0  0  0  0  0  0  0  0  0  0
   -1.4623   -4.7162    2.0478 H   0  0  0  0  0  0  0  0  0  0  0  0
   -1.3358   -2.3388    0.1162 H   0  0  0  0  0  0  0  0  0  0  0  0
   -2.6751   -2.7477    1.1533 H   0  0  0  0  0  0  0  0  0  0  0  0
   -1.3426   -0.9177    2.1188 H   0  0  0  0  0  0  0  0  0  0  0  0
   -1.3726   -2.3150    3.1766 H   0  0  0  0  0  0  0  0  0  0  0  0
    0.8832   -0.9013    2.5347 H   0  0  0  0  0  0  0  0  0  0  0  0
    2.1576   -1.9684    0.8819 H   0  0  0  0  0  0  0  0  0  0  0  0
    0.6563   -1.8493    0.1929 H   0  0  0  0  0  0  0  0  0  0  0  0
    1.9954   -1.3493    4.2163 H   0  0  0  0  0  0  0  0  0  0  0  0
  1  2  1  0  0  0  0
  1  9  1  0  0  0  0
  1 10  1  0  0  0  0
  1 11  1  0  0  0  0
  2  3  1  0  0  0  0
  2 12  1  0  0  0  0
  2 13  1  0  0  0  0
  3 14  1  0  0  0  0
  3 15  1  0  0  0  0
  4  6  1  0  0  0  0
  4 16  1  1  0  0  0
  4  5  1  0  0  0  0
  4  3  1  0  0  0  0
  5 17  1  0  0  0  0
  5 18  1  0  0  0  0
  6  7  1  0  0  0  0
  6  8  2  0  0  0  0
  7 19  1  0  0  0  0
M  END
>  <DRUGBANK_ID>
DB04185

>  <SECONDARY_ACCESSION_NUMBERS>
EXPT00144; EXPT02397; DB03519

>  <COMMON_NAME>
Norvaline

>  <CAS_NUMBER>
6600-40-4

>  <UNII>
A70UKS48FE

>  <SYNONYMS>
(S)-2-Aminopentanoic acid; 2-Aminopentanoic acid; 2-Aminovaleric acid; L-2-aminopentanoic acid; L-2-Aminovaleric acid; L-Norvaline

$$$$
