
 OpenBabel10282417213D

 16 15  0  0  0  0  0  0  0  0999 V2000
    1.0305   -0.1124   -0.1271 C   0  0  0  0  0  0  0  0  0  0  0  0
    0.2195    0.3009    1.1048 C   0  0  3  0  0  0  0  0  0  0  0  0
   -0.6687    1.5354    0.8545 C   0  0  3  0  0  0  0  0  0  0  0  0
   -1.7362    1.3199   -0.2132 C   0  0  0  0  0  0  0  0  0  0  0  0
    0.5497   -0.6042   -1.1394 O   0  0  0  0  0  0  0  0  0  0  0  0
    2.3705    0.0528   -0.0198 O   0  0  0  0  0  0  0  0  0  0  0  0
   -2.9390    1.1743   -0.0504 O   0  0  0  0  0  0  0  0  0  0  0  0
   -1.2121    1.2529   -1.4498 O   0  0  0  0  0  0  0  0  0  0  0  0
   -1.4666    2.1088    2.4286 S   0  0  0  0  0  0  0  0  0  0  0  0
   -0.7029   -1.1842    1.7020 S   0  0  0  0  0  0  0  0  0  0  0  0
    0.9331    0.5395    1.9040 H   0  0  0  0  0  0  0  0  0  0  0  0
   -0.0535    2.3830    0.5315 H   0  0  0  0  0  0  0  0  0  0  0  0
    2.7337    0.2983    0.8515 H   0  0  0  0  0  0  0  0  0  0  0  0
   -1.8880    0.8365   -2.0275 H   0  0  0  0  0  0  0  0  0  0  0  0
   -2.2222    1.0107    2.6268 H   0  0  0  0  0  0  0  0  0  0  0  0
   -1.5554   -1.2673    0.6651 H   0  0  0  0  0  0  0  0  0  0  0  0
  1  2  1  0  0  0  0
  1  5  2  0  0  0  0
  1  6  1  0  0  0  0
  2  3  1  0  0  0  0
  2 10  1  0  0  0  0
  2 11  1  0  0  0  0
  3  4  1  0  0  0  0
  3  9  1  0  0  0  0
  3 12  1  0  0  0  0
  4  7  2  0  0  0  0
  4  8  1  0  0  0  0
  6 13  1  0  0  0  0
  8 14  1  0  0  0  0
  9 15  1  0  0  0  0
 10 16  1  0  0  0  0
M  END
>  <DRUGBANK_ID>
DB14089

>  <COMMON_NAME>
Dimercaptosuccinic acid

>  <CAS_NUMBER>
2418-14-6

>  <UNII>
4S9JU7XF01

>  <SYNONYMS>
2,3-Dimercaptobutanedioic acid; 2,3-Dimercaptosuccinic acid

$$$$
