Coumarin
 OpenBabel10282417143D

 17 18  0  0  0  0  0  0  0  0999 V2000
   -3.2206    0.5573    0.0932 O   0  0  0  0  0  0  0  0  0  0  0  0
   -2.0664    0.1621   -0.0089 C   0  0  0  0  0  0  0  0  0  0  0  0
   -0.9879    1.0310   -0.0829 O   0  0  0  0  0  0  0  0  0  0  0  0
    0.3329    0.5454   -0.0561 C   0  0  0  0  0  0  0  0  0  0  0  0
    1.3546    1.4909   -0.0627 C   0  0  0  0  0  0  0  0  0  0  0  0
    2.6765    1.0589    0.0090 C   0  0  0  0  0  0  0  0  0  0  0  0
    2.9613   -0.3069    0.0864 C   0  0  0  0  0  0  0  0  0  0  0  0
    1.9255   -1.2479    0.0737 C   0  0  0  0  0  0  0  0  0  0  0  0
    0.5980   -0.8220   -0.0033 C   0  0  0  0  0  0  0  0  0  0  0  0
   -0.5168   -1.7541   -0.0536 C   0  0  0  0  0  0  0  0  0  0  0  0
   -1.7664   -1.2801   -0.0736 C   0  0  0  0  0  0  0  0  0  0  0  0
    1.1204    2.5498   -0.1182 H   0  0  0  0  0  0  0  0  0  0  0  0
    3.4847    1.7859    0.0091 H   0  0  0  0  0  0  0  0  0  0  0  0
    3.9948   -0.6391    0.1529 H   0  0  0  0  0  0  0  0  0  0  0  0
    2.1697   -2.3062    0.1251 H   0  0  0  0  0  0  0  0  0  0  0  0
   -0.3182   -2.8194   -0.0897 H   0  0  0  0  0  0  0  0  0  0  0  0
   -2.6266   -1.9360   -0.1258 H   0  0  0  0  0  0  0  0  0  0  0  0
  1  2  2  0  0  0  0
  2  3  1  0  0  0  0
  2 11  1  0  0  0  0
  3  4  1  0  0  0  0
  4  5  2  0  0  0  0
  4  9  1  0  0  0  0
  5  6  1  0  0  0  0
  5 12  1  0  0  0  0
  6  7  2  0  0  0  0
  6 13  1  0  0  0  0
  7  8  1  0  0  0  0
  7 14  1  0  0  0  0
  8  9  2  0  0  0  0
  8 15  1  0  0  0  0
  9 10  1  0  0  0  0
 10 11  2  0  0  0  0
 10 16  1  0  0  0  0
 11 17  1  0  0  0  0
M  END
>  <DRUGBANK_ID>
DB04665

>  <COMMON_NAME>
Coumarin

>  <CAS_NUMBER>
91-64-5

>  <UNII>
A4VZ22K1WT

>  <SYNONYMS>
1,2-benzopyrone; 2H-1-benzopyran-2-one; 2H-benzo(b)pyran-2-one; Coumarinic lactone; Cumarin

$$$$
