TIO
 OpenBabel10282417173D

 32 32  0  0  0  0  0  0  0  0999 V2000
    2.9670    3.6546    0.8483 S   0  0  0  0  0  0  0  0  0  0  0  0
    2.3183    2.6639   -0.5458 C   0  0  0  0  0  0  0  0  0  0  0  0
    0.7454    2.6167   -0.6608 C   0  0  2  0  0  0  0  0  0  0  0  0
    0.4315    1.1141   -1.2229 C   0  0  0  0  0  0  0  0  0  0  0  0
    1.3742    0.3567   -1.5063 O   0  0  0  0  0  0  0  0  0  0  0  0
    0.3298    3.9824   -1.4805 C   0  0  0  0  0  0  0  0  0  0  0  0
   -1.1303    4.4464   -1.4092 C   0  0  0  0  0  0  0  0  0  0  0  0
   -1.9808    3.4368   -1.5982 C   0  0  0  0  0  0  0  0  0  0  0  0
   -1.8625    5.6032   -1.3392 C   0  0  0  0  0  0  0  0  0  0  0  0
   -3.3573    3.3369   -1.2618 C   0  0  0  0  0  0  0  0  0  0  0  0
   -3.3169    5.5952   -1.1818 C   0  0  0  0  0  0  0  0  0  0  0  0
   -4.0763    4.4469   -1.0993 C   0  0  0  0  0  0  0  0  0  0  0  0
   -0.7658    0.4678   -1.3823 N   0  0  0  0  0  0  0  0  0  0  0  0
   -2.1365    0.8817   -1.3074 C   0  0  0  0  0  0  0  0  0  0  0  0
   -2.8158    1.2387   -2.8665 C   0  0  0  0  0  0  0  0  0  0  0  0
   -4.0353    1.3193   -3.1286 O   0  0  0  0  0  0  0  0  0  0  0  0
   -1.9642    1.8196   -3.7731 O   0  0  0  0  0  0  0  0  0  0  0  0
    0.3271    2.6715    0.3544 H   0  0  0  0  0  0  0  0  0  0  0  0
    2.4479    4.8393    0.5077 H   0  0  0  0  0  0  0  0  0  0  0  0
    2.7503    3.0502   -1.4782 H   0  0  0  0  0  0  0  0  0  0  0  0
    2.7679    1.6772   -0.3946 H   0  0  0  0  0  0  0  0  0  0  0  0
    0.9435    4.8100   -1.1155 H   0  0  0  0  0  0  0  0  0  0  0  0
    0.6243    3.7967   -2.5257 H   0  0  0  0  0  0  0  0  0  0  0  0
   -1.3751    2.6684   -2.0378 H   0  0  0  0  0  0  0  0  0  0  0  0
   -1.3700    6.5530   -1.4656 H   0  0  0  0  0  0  0  0  0  0  0  0
   -3.9214    2.4088   -1.1698 H   0  0  0  0  0  0  0  0  0  0  0  0
   -3.8744    6.5147   -1.1072 H   0  0  0  0  0  0  0  0  0  0  0  0
   -5.1526    4.3278   -1.0008 H   0  0  0  0  0  0  0  0  0  0  0  0
   -0.6707   -0.4264   -1.8373 H   0  0  0  0  0  0  0  0  0  0  0  0
   -2.8395    0.2956   -0.7076 H   0  0  0  0  0  0  0  0  0  0  0  0
   -1.9980    1.6621   -0.5403 H   0  0  0  0  0  0  0  0  0  0  0  0
   -2.4881    2.5000   -4.2771 H   0  0  0  0  0  0  0  0  0  0  0  0
  1  2  1  0  0  0  0
  1 19  1  0  0  0  0
  2 20  1  0  0  0  0
  2 21  1  0  0  0  0
  3  6  1  0  0  0  0
  3 18  1  1  0  0  0
  3  4  1  0  0  0  0
  3  2  1  0  0  0  0
  4  5  2  0  0  0  0
  4 13  1  0  0  0  0
  6  7  1  0  0  0  0
  6 22  1  0  0  0  0
  6 23  1  0  0  0  0
  7  8  2  0  0  0  0
  7  9  1  0  0  0  0
  8 10  1  0  0  0  0
  8 24  1  0  0  0  0
  9 11  2  0  0  0  0
  9 25  1  0  0  0  0
 10 12  2  0  0  0  0
 10 26  1  0  0  0  0
 11 12  1  0  0  0  0
 11 27  1  0  0  0  0
 12 28  1  0  0  0  0
 13 14  1  0  0  0  0
 13 29  1  0  0  0  0
 14 15  1  0  0  0  0
 14 30  1  0  0  0  0
 14 31  1  0  0  0  0
 15 16  2  0  0  0  0
 15 17  1  0  0  0  0
 17 32  1  0  0  0  0
M  END
>  <DRUGBANK_ID>
DB08626

>  <SECONDARY_ACCESSION_NUMBERS>
DB01654

>  <COMMON_NAME>
Thiorphan

>  <CAS_NUMBER>
76721-89-6

>  <UNII>
XJ8Z52GK3X

$$$$
