
 OpenBabel10282417203D

 49 52  0  0  1  0  0  0  0  0999 V2000
    0.9328   -0.0303    0.0822 C   0  0  0  0  0  0  0  0  0  0  0  0
    0.4489    0.6902   -1.1839 C   0  0  1  0  0  0  0  0  0  0  0  0
    0.9440   -0.0069   -2.4417 C   0  0  0  0  0  0  0  0  0  0  0  0
    1.4969    0.7392   -3.4952 C   0  0  0  0  0  0  0  0  0  0  0  0
    1.8381    0.1118   -4.6974 C   0  0  0  0  0  0  0  0  0  0  0  0
    1.6435   -1.2558   -4.8347 C   0  0  0  0  0  0  0  0  0  0  0  0
    1.1270   -2.0180   -3.8007 C   0  0  0  0  0  0  0  0  0  0  0  0
    0.7698   -1.3926   -2.6069 C   0  0  0  0  0  0  0  0  0  0  0  0
    1.9509   -1.8520   -5.9977 F   0  0  0  0  0  0  0  0  0  0  0  0
   -1.0150    0.7274   -1.2648 N   0  0  0  0  0  0  0  0  0  0  0  0
   -1.6688    1.9534   -1.1694 C   0  0  0  0  0  0  0  0  0  0  0  0
   -1.2895    3.0215   -1.9574 C   0  0  0  0  0  0  0  0  0  0  0  0
   -1.9895    4.2246   -1.8867 C   0  0  0  0  0  0  0  0  0  0  0  0
   -3.0501    4.3338   -0.9901 C   0  0  0  0  0  0  0  0  0  0  0  0
   -3.3899    3.2259   -0.2169 C   0  0  0  0  0  0  0  0  0  0  0  0
   -2.7108    2.0482   -0.3186 N   0  0  0  0  0  0  0  0  0  0  0  0
   -4.4290    3.3746    0.7534 N   0  0  0  0  0  0  0  0  0  0  0  0
   -4.9102    2.2514    1.4617 C   0  0  0  0  0  0  0  0  0  0  0  0
   -4.1026    1.6204    2.4131 C   0  0  0  0  0  0  0  0  0  0  0  0
   -4.4618    0.5042    3.0970 N   0  0  0  0  0  0  0  0  0  0  0  0
   -5.6668    0.0047    2.7601 C   0  0  0  0  0  0  0  0  0  0  0  0
   -6.4837    0.6173    1.8216 C   0  0  0  0  0  0  0  0  0  0  0  0
   -6.1440    1.7680    1.1812 N   0  0  0  0  0  0  0  0  0  0  0  0
   -1.5598    5.3278   -2.7138 C   0  0  0  0  0  0  0  0  0  0  0  0
   -0.9631    6.5585   -2.3698 C   0  0  0  0  0  0  0  0  0  0  0  0
   -0.5646    7.2523   -3.4402 N   0  0  0  0  0  0  0  0  0  0  0  0
   -0.8916    6.4559   -4.4756 N   0  0  0  0  0  0  0  0  0  0  0  0
   -1.5213    5.3045   -4.0952 C   0  0  0  0  0  0  0  0  0  0  0  0
   -0.4871    6.8260   -5.8116 C   0  0  0  0  0  0  0  0  0  0  0  0
    0.5773   -1.0639    0.1473 H   0  0  0  0  0  0  0  0  0  0  0  0
    0.5943    0.4820    0.9878 H   0  0  0  0  0  0  0  0  0  0  0  0
    2.0300   -0.0644    0.1033 H   0  0  0  0  0  0  0  0  0  0  0  0
    0.8830    1.6983   -1.1394 H   0  0  0  0  0  0  0  0  0  0  0  0
    1.6432    1.8121   -3.4002 H   0  0  0  0  0  0  0  0  0  0  0  0
    2.2369    0.6848   -5.5267 H   0  0  0  0  0  0  0  0  0  0  0  0
    0.9792   -3.0845   -3.9248 H   0  0  0  0  0  0  0  0  0  0  0  0
    0.3252   -1.9937   -1.8193 H   0  0  0  0  0  0  0  0  0  0  0  0
   -1.4981    0.0133   -0.7357 H   0  0  0  0  0  0  0  0  0  0  0  0
   -0.4626    2.9187   -2.6514 H   0  0  0  0  0  0  0  0  0  0  0  0
   -3.6014    5.2647   -0.8991 H   0  0  0  0  0  0  0  0  0  0  0  0
   -5.2311    3.8098    0.3079 H   0  0  0  0  0  0  0  0  0  0  0  0
   -3.1273    2.0273    2.6526 H   0  0  0  0  0  0  0  0  0  0  0  0
   -5.9570   -0.9107    3.2632 H   0  0  0  0  0  0  0  0  0  0  0  0
   -7.4382    0.1788    1.5492 H   0  0  0  0  0  0  0  0  0  0  0  0
   -0.7684    6.9601   -1.3837 H   0  0  0  0  0  0  0  0  0  0  0  0
   -1.8455    4.5681   -4.8165 H   0  0  0  0  0  0  0  0  0  0  0  0
   -0.8733    7.8239   -6.0328 H   0  0  0  0  0  0  0  0  0  0  0  0
    0.6060    6.8226   -5.8503 H   0  0  0  0  0  0  0  0  0  0  0  0
   -0.8844    6.1031   -6.5283 H   0  0  0  0  0  0  0  0  0  0  0  0
  1 30  1  0  0  0  0
  1 31  1  0  0  0  0
  1 32  1  0  0  0  0
  2  1  1  0  0  0  0
  2  3  1  0  0  0  0
  2 10  1  0  0  0  0
  2 33  1  1  0  0  0
  3  4  2  0  0  0  0
  3  8  1  0  0  0  0
  4  5  1  0  0  0  0
  4 34  1  0  0  0  0
  5  6  2  0  0  0  0
  5 35  1  0  0  0  0
  6  7  1  0  0  0  0
  6  9  1  0  0  0  0
  7  8  2  0  0  0  0
  7 36  1  0  0  0  0
  8 37  1  0  0  0  0
 10 11  1  0  0  0  0
 10 38  1  0  0  0  0
 11 12  2  0  0  0  0
 11 16  1  0  0  0  0
 12 13  1  0  0  0  0
 12 39  1  0  0  0  0
 13 14  2  0  0  0  0
 13 24  1  0  0  0  0
 14 15  1  0  0  0  0
 14 40  1  0  0  0  0
 15 16  2  0  0  0  0
 15 17  1  0  0  0  0
 17 18  1  0  0  0  0
 17 41  1  0  0  0  0
 18 19  2  0  0  0  0
 18 23  1  0  0  0  0
 19 20  1  0  0  0  0
 19 42  1  0  0  0  0
 20 21  2  0  0  0  0
 21 22  1  0  0  0  0
 21 43  1  0  0  0  0
 22 23  2  0  0  0  0
 22 44  1  0  0  0  0
 24 25  1  0  0  0  0
 24 28  2  0  0  0  0
 25 26  2  0  0  0  0
 25 45  1  0  0  0  0
 26 27  1  0  0  0  0
 27 28  1  0  0  0  0
 27 29  1  0  0  0  0
 28 46  1  0  0  0  0
 29 47  1  0  0  0  0
 29 48  1  0  0  0  0
 29 49  1  0  0  0  0
M  END
>  <DRUGBANK_ID>
DB12784

>  <COMMON_NAME>
Ilginatinib

>  <CAS_NUMBER>
1239358-86-1

>  <UNII>
56R994WX4L

>  <SYNONYMS>
(S)-N-(1-(4-FLUOROPHENYL)ETHYL)-4-(1-METHYL-1H-PYRAZOL-4-YL)-N'-(PYRAZIN-2-YL)PYRIDINE-2,6-DIAMINE; 2,6-PYRIDINEDIAMINE, N2-((1S)-1-(4-FLUOROPHENYL)ETHYL)-4-(1-METHYL-1H-PYRAZOL-4-YL)-N6-2-PYRAZINYL-

$$$$
