
 OpenBabel10282417153D

 52 55  0  0  1  0  0  0  0  0999 V2000
    0.3250    1.8740    1.8865 C   0  0  0  0  0  0  0  0  0  0  0  0
    0.1152    1.6306    0.3774 C   0  0  1  0  0  0  0  0  0  0  0  0
   -0.9032    0.8571   -0.4924 C   0  0  0  0  0  0  0  0  0  0  0  0
   -0.4756    0.8072   -2.0448 C   0  0  1  0  0  0  0  0  0  0  0  0
   -0.1827    2.2538   -2.5460 C   0  0  0  0  0  0  0  0  0  0  0  0
    0.8432    2.8348   -1.6926 N   0  0  0  0  0  0  0  0  0  0  0  0
    0.4664    2.9951   -0.2976 C   0  0  0  0  0  0  0  0  0  0  0  0
    2.0549    3.3223   -2.1630 C   0  0  0  0  0  0  0  0  0  0  0  0
    2.0373    4.4284   -3.0237 C   0  0  0  0  0  0  0  0  0  0  0  0
    3.2155    5.1041   -3.3360 C   0  0  0  0  0  0  0  0  0  0  0  0
    4.4488    4.5046   -3.0723 C   0  0  0  0  0  0  0  0  0  0  0  0
    4.5372    3.3170   -2.3532 C   0  0  0  0  0  0  0  0  0  0  0  0
    3.3456    2.8270   -1.7946 C   0  0  0  0  0  0  0  0  0  0  0  0
    3.6938    1.8577   -0.9076 O   0  0  0  0  0  0  0  0  0  0  0  0
    2.7415    1.2514   -0.1586 C   0  0  0  0  0  0  0  0  0  0  0  0
    5.8059    2.6494   -2.1971 N   0  0  0  0  0  0  0  0  0  0  0  0
    6.9067    3.2189   -2.7877 C   0  0  0  0  0  0  0  0  0  0  0  0
    6.9383    4.3627   -3.4799 C   0  0  0  0  0  0  0  0  0  0  0  0
    5.6681    5.1018   -3.6430 C   0  0  0  0  0  0  0  0  0  0  0  0
    5.5841    6.1558   -4.2605 O   0  0  0  0  0  0  0  0  0  0  0  0
    8.1960    4.8514   -4.0689 C   0  0  0  0  0  0  0  0  0  0  0  0
    8.3562    5.8523   -4.7127 O   0  0  0  0  0  0  0  0  0  0  0  0
    9.2468    4.0358   -3.8156 O   0  0  0  0  0  0  0  0  0  0  0  0
    5.9388    1.2914   -1.5697 C   0  0  0  0  0  0  0  0  0  0  0  0
    6.6427    1.1372   -0.2354 C   0  0  0  0  0  0  0  0  0  0  0  0
    7.1626    0.4434   -1.4625 C   0  0  0  0  0  0  0  0  0  0  0  0
    0.5806   -0.1634   -2.4630 N   0  0  0  0  0  0  0  0  0  0  0  0
    1.2779    1.4022    2.2057 H   0  0  0  0  0  0  0  0  0  0  0  0
   -0.4512    1.5272    2.5527 H   0  0  0  0  0  0  0  0  0  0  0  0
    0.5416    2.9343    2.0876 H   0  0  0  0  0  0  0  0  0  0  0  0
    0.7823    0.7754    0.3562 H   0  0  0  0  0  0  0  0  0  0  0  0
   -1.0125   -0.1805   -0.1446 H   0  0  0  0  0  0  0  0  0  0  0  0
   -1.8830    1.3319   -0.4096 H   0  0  0  0  0  0  0  0  0  0  0  0
   -1.3484    0.4442   -2.5918 H   0  0  0  0  0  0  0  0  0  0  0  0
    0.0999    2.2659   -3.6046 H   0  0  0  0  0  0  0  0  0  0  0  0
   -1.1096    2.8359   -2.4550 H   0  0  0  0  0  0  0  0  0  0  0  0
   -0.4224    3.6350   -0.2102 H   0  0  0  0  0  0  0  0  0  0  0  0
    1.2545    3.5516    0.2253 H   0  0  0  0  0  0  0  0  0  0  0  0
    1.1018    4.8155   -3.4200 H   0  0  0  0  0  0  0  0  0  0  0  0
    3.1766    6.0797   -3.8159 H   0  0  0  0  0  0  0  0  0  0  0  0
    2.5076    1.9513    0.6318 H   0  0  0  0  0  0  0  0  0  0  0  0
    1.9670    1.0462   -0.8573 H   0  0  0  0  0  0  0  0  0  0  0  0
    2.9934    0.2862    0.2785 H   0  0  0  0  0  0  0  0  0  0  0  0
    7.8117    2.6460   -2.6459 H   0  0  0  0  0  0  0  0  0  0  0  0
    9.9870    4.5035   -4.2543 H   0  0  0  0  0  0  0  0  0  0  0  0
    5.0920    0.6423   -1.7953 H   0  0  0  0  0  0  0  0  0  0  0  0
    7.1899    1.9863    0.1589 H   0  0  0  0  0  0  0  0  0  0  0  0
    6.1614    0.5453    0.5370 H   0  0  0  0  0  0  0  0  0  0  0  0
    6.9979   -0.6261   -1.5549 H   0  0  0  0  0  0  0  0  0  0  0  0
    8.0506    0.7754   -1.9705 H   0  0  0  0  0  0  0  0  0  0  0  0
    0.8118    0.0161   -3.4457 H   0  0  0  0  0  0  0  0  0  0  0  0
    1.4873    0.0019   -2.0392 H   0  0  0  0  0  0  0  0  0  0  0  0
  1 28  1  0  0  0  0
  1 29  1  0  0  0  0
  1 30  1  0  0  0  0
  2  3  1  0  0  0  0
  2  7  1  0  0  0  0
  2 31  1  6  0  0  0
  2  1  1  0  0  0  0
  3  4  1  0  0  0  0
  3 32  1  0  0  0  0
  3 33  1  0  0  0  0
  4  5  1  0  0  0  0
  4 27  1  0  0  0  0
  4 34  1  6  0  0  0
  5  6  1  0  0  0  0
  5 35  1  0  0  0  0
  5 36  1  0  0  0  0
  6  7  1  0  0  0  0
  6  8  1  0  0  0  0
  7 37  1  0  0  0  0
  7 38  1  0  0  0  0
  8  9  2  0  0  0  0
  8 13  1  0  0  0  0
  9 10  1  0  0  0  0
  9 39  1  0  0  0  0
 10 11  2  0  0  0  0
 10 40  1  0  0  0  0
 11 12  1  0  0  0  0
 11 19  1  0  0  0  0
 12 13  2  0  0  0  0
 12 16  1  0  0  0  0
 13 14  1  0  0  0  0
 14 15  1  0  0  0  0
 15 41  1  0  0  0  0
 15 42  1  0  0  0  0
 15 43  1  0  0  0  0
 16 17  1  0  0  0  0
 16 24  1  0  0  0  0
 17 18  2  0  0  0  0
 17 44  1  0  0  0  0
 18 19  1  0  0  0  0
 18 21  1  0  0  0  0
 19 20  2  0  0  0  0
 21 22  2  0  0  0  0
 21 23  1  0  0  0  0
 23 45  1  0  0  0  0
 24 25  1  0  0  0  0
 24 26  1  0  0  0  0
 24 46  1  0  0  0  0
 25 26  1  0  0  0  0
 25 47  1  0  0  0  0
 25 48  1  0  0  0  0
 26 49  1  0  0  0  0
 26 50  1  0  0  0  0
 27 51  1  0  0  0  0
 27 52  1  0  0  0  0
M  END
>  <DRUGBANK_ID>
DB06600

>  <COMMON_NAME>
Nemonoxacin

>  <CAS_NUMBER>
378746-64-6

>  <UNII>
P94L0PVO94

>  <SYNONYMS>
Nemonoxacin

$$$$
