
 OpenBabel10282417203D

 47 49  0  0  0  0  0  0  0  0999 V2000
    1.5048   -0.4570   -0.0213 C   0  0  0  0  0  0  0  0  0  0  0  0
   -4.1554    2.3388   -3.9601 C   0  0  0  0  0  0  0  0  0  0  0  0
   -2.0224    5.6834   -1.9716 C   0  0  0  0  0  0  0  0  0  0  0  0
    0.5579   -1.4763   -0.0300 C   0  0  0  0  0  0  0  0  0  0  0  0
    1.0572    0.8449    0.0404 C   0  0  0  0  0  0  0  0  0  0  0  0
   -3.2394    1.2845   -3.9771 C   0  0  0  0  0  0  0  0  0  0  0  0
   -4.7224    2.7215   -2.7575 C   0  0  0  0  0  0  0  0  0  0  0  0
   -3.2151    5.7593   -1.0199 C   0  0  0  0  0  0  0  0  0  0  0  0
   -1.6509    4.2540   -2.2324 C   0  0  0  0  0  0  0  0  0  0  0  0
   -0.8302   -1.2209   -0.0839 C   0  0  0  0  0  0  0  0  0  0  0  0
   -0.3091    1.0439    0.1324 C   0  0  0  0  0  0  0  0  0  0  0  0
   -2.8391    0.6456   -2.7866 C   0  0  0  0  0  0  0  0  0  0  0  0
   -4.3652    2.0478   -1.5861 C   0  0  0  0  0  0  0  0  0  0  0  0
   -3.2951    1.3050    1.0260 C   0  0  0  0  0  0  0  0  0  0  0  0
   -3.0026    4.9856    0.2889 C   0  0  0  0  0  0  0  0  0  0  0  0
   -1.5250    3.5134   -0.9182 C   0  0  0  0  0  0  0  0  0  0  0  0
   -2.6833    2.7251    1.2085 C   0  0  0  0  0  0  0  0  0  0  0  0
   -1.3206    0.0923   -0.0634 C   0  0  0  0  0  0  0  0  0  0  0  0
   -3.3572    1.0442   -1.5465 C   0  0  0  0  0  0  0  0  0  0  0  0
   -2.8423    0.4493   -0.1929 C   0  0  0  0  0  0  0  0  0  0  0  0
   -2.6642    3.6002    0.0133 N   0  0  0  0  0  0  0  0  0  0  0  0
   -3.5933   -0.7842   -0.0717 O   0  0  0  0  0  0  0  0  0  0  0  0
    2.5689   -0.6424   -0.0140 H   0  0  0  0  0  0  0  0  0  0  0  0
   -4.3719    2.9073   -4.8607 H   0  0  0  0  0  0  0  0  0  0  0  0
   -2.2528    6.1675   -2.9246 H   0  0  0  0  0  0  0  0  0  0  0  0
   -1.1565    6.1855   -1.5307 H   0  0  0  0  0  0  0  0  0  0  0  0
    0.9112   -2.5063   -0.0018 H   0  0  0  0  0  0  0  0  0  0  0  0
    1.7292    1.6948    0.0561 H   0  0  0  0  0  0  0  0  0  0  0  0
   -2.7896    0.9957   -4.9230 H   0  0  0  0  0  0  0  0  0  0  0  0
   -5.3535    3.6065   -2.6946 H   0  0  0  0  0  0  0  0  0  0  0  0
   -3.4168    6.8068   -0.7887 H   0  0  0  0  0  0  0  0  0  0  0  0
   -4.1050    5.3648   -1.5265 H   0  0  0  0  0  0  0  0  0  0  0  0
   -2.3958    3.7920   -2.8715 H   0  0  0  0  0  0  0  0  0  0  0  0
   -0.7114    4.1642   -2.7927 H   0  0  0  0  0  0  0  0  0  0  0  0
   -1.5195   -2.0572   -0.1034 H   0  0  0  0  0  0  0  0  0  0  0  0
   -0.5227    2.0597    0.4014 H   0  0  0  0  0  0  0  0  0  0  0  0
   -2.0769   -0.1275   -2.8386 H   0  0  0  0  0  0  0  0  0  0  0  0
   -4.7937    2.4611   -0.6759 H   0  0  0  0  0  0  0  0  0  0  0  0
   -4.3933    1.3945    1.0184 H   0  0  0  0  0  0  0  0  0  0  0  0
   -3.1234    0.7232    1.9448 H   0  0  0  0  0  0  0  0  0  0  0  0
   -2.2223    5.4568    0.8955 H   0  0  0  0  0  0  0  0  0  0  0  0
   -3.9409    5.0214    0.8549 H   0  0  0  0  0  0  0  0  0  0  0  0
   -1.3825    2.5028   -1.2786 H   0  0  0  0  0  0  0  0  0  0  0  0
   -0.6056    3.8599   -0.4319 H   0  0  0  0  0  0  0  0  0  0  0  0
   -3.3054    3.1883    1.9877 H   0  0  0  0  0  0  0  0  0  0  0  0
   -1.7156    2.6609    1.7159 H   0  0  0  0  0  0  0  0  0  0  0  0
   -4.4644   -0.6182   -0.4729 H   0  0  0  0  0  0  0  0  0  0  0  0
  1 23  1  0  0  0  0
  2 24  1  0  0  0  0
  3 25  1  0  0  0  0
  3 26  1  0  0  0  0
  4  1  2  0  0  0  0
  4 27  1  0  0  0  0
  5  1  1  0  0  0  0
  5 28  1  0  0  0  0
  6  2  2  0  0  0  0
  6 29  1  0  0  0  0
  7  2  1  0  0  0  0
  7 30  1  0  0  0  0
  8  3  1  0  0  0  0
  8 31  1  0  0  0  0
  8 32  1  0  0  0  0
  9  3  1  0  0  0  0
  9 33  1  0  0  0  0
  9 34  1  0  0  0  0
 10  4  1  0  0  0  0
 10 35  1  0  0  0  0
 11  5  2  0  0  0  0
 11 36  1  0  0  0  0
 12  6  1  0  0  0  0
 12 37  1  0  0  0  0
 13  7  2  0  0  0  0
 13 38  1  0  0  0  0
 14 39  1  0  0  0  0
 14 40  1  0  0  0  0
 15  8  1  0  0  0  0
 15 41  1  0  0  0  0
 15 42  1  0  0  0  0
 16  9  1  0  0  0  0
 16 43  1  0  0  0  0
 16 44  1  0  0  0  0
 17 14  1  0  0  0  0
 17 45  1  0  0  0  0
 17 46  1  0  0  0  0
 18 10  2  0  0  0  0
 18 11  1  0  0  0  0
 19 12  2  0  0  0  0
 19 13  1  0  0  0  0
 20 14  1  0  0  0  0
 20 18  1  0  0  0  0
 20 19  1  0  0  0  0
 21 15  1  0  0  0  0
 21 16  1  0  0  0  0
 21 17  1  0  0  0  0
 22 20  1  0  0  0  0
 22 47  1  0  0  0  0
M  END
>  <DRUGBANK_ID>
DB13642

>  <COMMON_NAME>
Pridinol

>  <CAS_NUMBER>
511-45-5

>  <UNII>
9E75Q6SUUB

>  <SYNONYMS>
Pridinol

$$$$
