NND
 OpenBabel10282417173D

 51 51  0  0  0  0  0  0  0  0999 V2000
    1.6355    0.8120    1.7346 O   0  0  0  0  0  0  0  0  0  0  0  0
    1.5597    2.2281    1.5745 C   0  0  0  0  0  0  0  0  0  0  0  0
    1.1661    2.6483    0.1331 C   0  0  2  0  0  0  0  0  0  0  0  0
    2.4559    2.7533   -0.7112 C   0  0  1  0  0  0  0  0  0  0  0  0
    3.1184    1.4778   -0.7534 O   0  0  0  0  0  0  0  0  0  0  0  0
    3.3364    3.3919   -2.8852 O   0  0  0  0  0  0  0  0  0  0  0  0
    1.2894    4.4780   -2.1120 C   0  0  1  0  0  0  0  0  0  0  0  0
    0.9812    4.9526   -3.4250 O   0  0  0  0  0  0  0  0  0  0  0  0
    0.2220    3.7904    0.0237 N   0  0  0  0  0  0  0  0  0  0  0  0
   -1.0962    3.6326    0.6812 C   0  0  0  0  0  0  0  0  0  0  0  0
   -2.0562    2.5622    0.1173 C   0  0  0  0  0  0  0  0  0  0  0  0
   -0.0106    4.1882   -1.3718 C   0  0  0  0  0  0  0  0  0  0  0  0
   -1.5783    1.1249    0.2595 C   0  0  0  0  0  0  0  0  0  0  0  0
   -1.3105    0.7867    1.7252 C   0  0  0  0  0  0  0  0  0  0  0  0
   -2.5866    0.5753    2.4995 C   0  0  0  0  0  0  0  0  0  0  0  0
   -3.3405   -0.5898    1.8710 C   0  0  0  0  0  0  0  0  0  0  0  0
   -2.4935   -1.8767    1.8641 C   0  0  0  0  0  0  0  0  0  0  0  0
   -3.2552   -2.3962    4.1831 C   0  0  0  0  0  0  0  0  0  0  0  0
   -2.0450   -2.2731    3.2730 C   0  0  0  0  0  0  0  0  0  0  0  0
    2.1297    3.1963   -2.1453 C   0  0  2  0  0  0  0  0  0  0  0  0
    0.7113    1.8019   -0.3549 H   0  0  0  0  0  0  0  0  0  0  0  0
    3.1617    3.4488   -0.2444 H   0  0  0  0  0  0  0  0  0  0  0  0
    1.5880    2.4007   -2.6747 H   0  0  0  0  0  0  0  0  0  0  0  0
    1.8417    5.2756   -1.6058 H   0  0  0  0  0  0  0  0  0  0  0  0
    1.1009    0.3788    1.0270 H   0  0  0  0  0  0  0  0  0  0  0  0
    0.8632    2.6103    2.3240 H   0  0  0  0  0  0  0  0  0  0  0  0
    2.5335    2.6261    1.8711 H   0  0  0  0  0  0  0  0  0  0  0  0
    2.5445    0.8339   -1.2157 H   0  0  0  0  0  0  0  0  0  0  0  0
    3.9038    3.9811   -2.3628 H   0  0  0  0  0  0  0  0  0  0  0  0
    0.5097    4.2562   -3.9020 H   0  0  0  0  0  0  0  0  0  0  0  0
   -0.9757    3.5181    1.7624 H   0  0  0  0  0  0  0  0  0  0  0  0
   -1.6249    4.5941    0.6094 H   0  0  0  0  0  0  0  0  0  0  0  0
   -3.0173    2.6581    0.6381 H   0  0  0  0  0  0  0  0  0  0  0  0
   -2.2962    2.7579   -0.9321 H   0  0  0  0  0  0  0  0  0  0  0  0
   -0.6518    5.0782   -1.4147 H   0  0  0  0  0  0  0  0  0  0  0  0
   -0.5515    3.4070   -1.9244 H   0  0  0  0  0  0  0  0  0  0  0  0
   -2.3047    0.4622   -0.2106 H   0  0  0  0  0  0  0  0  0  0  0  0
   -0.7237    0.8868   -0.3617 H   0  0  0  0  0  0  0  0  0  0  0  0
   -0.6724   -0.0960    1.7986 H   0  0  0  0  0  0  0  0  0  0  0  0
   -0.7711    1.5603    2.2563 H   0  0  0  0  0  0  0  0  0  0  0  0
   -2.3300    0.3870    3.5487 H   0  0  0  0  0  0  0  0  0  0  0  0
   -3.1856    1.4911    2.5119 H   0  0  0  0  0  0  0  0  0  0  0  0
   -4.2891   -0.7266    2.3899 H   0  0  0  0  0  0  0  0  0  0  0  0
   -3.6419   -0.3544    0.8479 H   0  0  0  0  0  0  0  0  0  0  0  0
   -3.0791   -2.6808    1.4114 H   0  0  0  0  0  0  0  0  0  0  0  0
   -1.6087   -1.7820    1.2192 H   0  0  0  0  0  0  0  0  0  0  0  0
   -3.9610   -3.1166    3.7593 H   0  0  0  0  0  0  0  0  0  0  0  0
   -2.9654   -2.7138    5.1842 H   0  0  0  0  0  0  0  0  0  0  0  0
   -3.7777   -1.4402    4.2938 H   0  0  0  0  0  0  0  0  0  0  0  0
   -1.4999   -3.2212    3.2324 H   0  0  0  0  0  0  0  0  0  0  0  0
   -1.3390   -1.5421    3.6889 H   0  0  0  0  0  0  0  0  0  0  0  0
  1  2  1  0  0  0  0
  1 25  1  0  0  0  0
  2 26  1  0  0  0  0
  2 27  1  0  0  0  0
  3  4  1  0  0  0  0
  3  9  1  0  0  0  0
  3 21  1  6  0  0  0
  3  2  1  0  0  0  0
  4  5  1  0  0  0  0
  4 20  1  0  0  0  0
  4 22  1  1  0  0  0
  5 28  1  0  0  0  0
  6 29  1  0  0  0  0
  7  8  1  0  0  0  0
  7 12  1  0  0  0  0
  7 20  1  0  0  0  0
  7 24  1  1  0  0  0
  8 30  1  0  0  0  0
  9 10  1  0  0  0  0
  9 12  1  0  0  0  0
 10 11  1  0  0  0  0
 10 31  1  0  0  0  0
 10 32  1  0  0  0  0
 11 13  1  0  0  0  0
 11 33  1  0  0  0  0
 11 34  1  0  0  0  0
 12 35  1  0  0  0  0
 12 36  1  0  0  0  0
 13 14  1  0  0  0  0
 13 37  1  0  0  0  0
 13 38  1  0  0  0  0
 14 15  1  0  0  0  0
 14 39  1  0  0  0  0
 14 40  1  0  0  0  0
 15 16  1  0  0  0  0
 15 41  1  0  0  0  0
 15 42  1  0  0  0  0
 16 17  1  0  0  0  0
 16 43  1  0  0  0  0
 16 44  1  0  0  0  0
 17 19  1  0  0  0  0
 17 45  1  0  0  0  0
 17 46  1  0  0  0  0
 18 19  1  0  0  0  0
 18 47  1  0  0  0  0
 18 48  1  0  0  0  0
 18 49  1  0  0  0  0
 19 50  1  0  0  0  0
 19 51  1  0  0  0  0
 20  6  1  0  0  0  0
 20 23  1  6  0  0  0
M  END
>  <DRUGBANK_ID>
DB08283

>  <COMMON_NAME>
(2R,3R,4R,5S)-2-(HYDROXYMETHYL)-1-NONYLPIPERIDINE-3,4,5-TRIOL

$$$$
