
 OpenBabel10282417173D

 40 41  0  0  0  0  0  0  0  0999 V2000
   -1.1128    0.5543    0.1803 N   0  0  0  0  0  0  0  0  0  0  0  0
   -1.9001   -1.9511    0.2931 C   0  0  0  0  0  0  0  0  0  0  0  0
   -1.5808   -2.9530    0.9246 O   0  0  0  0  0  0  0  0  0  0  0  0
   -0.9480   -0.8616   -0.2437 C   0  0  2  0  0  0  0  0  0  0  0  0
    0.1611    1.2640    0.0547 C   0  0  0  0  0  0  0  0  0  0  0  0
    1.2323    0.1753   -0.0842 C   0  0  2  0  0  0  0  0  0  0  0  0
    0.5000   -1.1403    0.1854 C   0  0  0  0  0  0  0  0  0  0  0  0
   -3.1752   -1.7710   -0.1081 O   0  0  0  0  0  0  0  0  0  0  0  0
   -2.3038    1.0828    0.6296 C   0  0  0  0  0  0  0  0  0  0  0  0
   -2.4271    2.5593    0.9819 C   0  0  1  0  0  0  0  0  0  0  0  0
   -3.2950    0.3781    0.8303 O   0  0  0  0  0  0  0  0  0  0  0  0
   -3.4818    3.2269    0.0766 C   0  0  0  0  0  0  0  0  0  0  0  0
   -2.8096    2.6638    2.4631 C   0  0  0  0  0  0  0  0  0  0  0  0
   -5.2111    2.6274    0.1835 S   0  0  0  0  0  0  0  0  0  0  0  0
    2.7669    0.5119    0.8758 S   0  0  0  0  0  0  0  0  0  0  0  0
    2.2366    0.6094    2.5822 C   0  0  0  0  0  0  0  0  0  0  0  0
    1.7070   -0.4989    3.2467 C   0  0  0  0  0  0  0  0  0  0  0  0
    2.5247    1.7538    3.3353 C   0  0  0  0  0  0  0  0  0  0  0  0
    1.3852   -0.4529    4.6019 C   0  0  0  0  0  0  0  0  0  0  0  0
    2.2992    1.7669    4.7184 C   0  0  0  0  0  0  0  0  0  0  0  0
    1.6943    0.6781    5.3435 C   0  0  0  0  0  0  0  0  0  0  0  0
   -0.9963   -0.9004   -1.3379 H   0  0  0  0  0  0  0  0  0  0  0  0
    0.3135    1.9260    0.9084 H   0  0  0  0  0  0  0  0  0  0  0  0
    0.1254    1.8725   -0.8583 H   0  0  0  0  0  0  0  0  0  0  0  0
    1.5696    0.1520   -1.1302 H   0  0  0  0  0  0  0  0  0  0  0  0
    0.4676   -1.3887    1.2392 H   0  0  0  0  0  0  0  0  0  0  0  0
    0.9584   -1.9928   -0.3273 H   0  0  0  0  0  0  0  0  0  0  0  0
   -3.7263   -1.7559    0.7073 H   0  0  0  0  0  0  0  0  0  0  0  0
   -1.4775    3.0824    0.8347 H   0  0  0  0  0  0  0  0  0  0  0  0
   -3.5269    4.2942    0.3164 H   0  0  0  0  0  0  0  0  0  0  0  0
   -3.1802    3.1336   -0.9711 H   0  0  0  0  0  0  0  0  0  0  0  0
   -2.0679    2.1681    3.0985 H   0  0  0  0  0  0  0  0  0  0  0  0
   -2.8923    3.7099    2.7717 H   0  0  0  0  0  0  0  0  0  0  0  0
   -3.7704    2.1788    2.6708 H   0  0  0  0  0  0  0  0  0  0  0  0
   -4.9276    1.3155    0.0399 H   0  0  0  0  0  0  0  0  0  0  0  0
    1.5819   -1.4510    2.7479 H   0  0  0  0  0  0  0  0  0  0  0  0
    2.9669    2.6318    2.8694 H   0  0  0  0  0  0  0  0  0  0  0  0
    0.9451   -1.3260    5.0765 H   0  0  0  0  0  0  0  0  0  0  0  0
    2.6213    2.6158    5.3164 H   0  0  0  0  0  0  0  0  0  0  0  0
    1.4924    0.6947    6.4110 H   0  0  0  0  0  0  0  0  0  0  0  0
  1  5  1  0  0  0  0
  1  9  1  0  0  0  0
  2  3  2  0  0  0  0
  4  1  1  0  0  0  0
  4  7  1  0  0  0  0
  4 22  1  6  0  0  0
  4  2  1  0  0  0  0
  5  6  1  0  0  0  0
  5 23  1  0  0  0  0
  5 24  1  0  0  0  0
  6  7  1  0  0  0  0
  6 15  1  0  0  0  0
  6 25  1  6  0  0  0
  7 26  1  0  0  0  0
  7 27  1  0  0  0  0
  8  2  1  0  0  0  0
  8 28  1  0  0  0  0
  9 10  1  0  0  0  0
  9 11  2  0  0  0  0
 10 12  1  0  0  0  0
 10 13  1  0  0  0  0
 10 29  1  6  0  0  0
 12 14  1  0  0  0  0
 12 30  1  0  0  0  0
 12 31  1  0  0  0  0
 13 32  1  0  0  0  0
 13 33  1  0  0  0  0
 13 34  1  0  0  0  0
 14 35  1  0  0  0  0
 15 16  1  0  0  0  0
 17 16  1  0  0  0  0
 17 36  1  0  0  0  0
 18 16  2  0  0  0  0
 18 37  1  0  0  0  0
 19 17  2  0  0  0  0
 19 38  1  0  0  0  0
 20 18  1  0  0  0  0
 20 39  1  0  0  0  0
 21 19  1  0  0  0  0
 21 20  2  0  0  0  0
 21 40  1  0  0  0  0
M  END
>  <DRUGBANK_ID>
DB08766

>  <COMMON_NAME>
Zofenoprilat

>  <CAS_NUMBER>
75176-37-3

>  <UNII>
4G4WDK2YBS

>  <SYNONYMS>
Zofenoprilat

$$$$
