
 OpenBabel10282417233D

 54 54  0  0  1  0  0  0  0  0999 V2000
    6.4054   -2.5740   -2.7510 C   0  0  0  0  0  0  0  0  0  0  0  0
    5.2356   -3.5915   -2.3414 C   0  0  0  0  0  0  0  0  0  0  0  0
    5.6124   -3.8501   -0.8691 C   0  0  0  0  0  0  0  0  0  0  0  0
    3.6190   -3.4224   -2.3433 C   0  0  0  0  0  0  0  0  0  0  0  0
    2.7570   -2.9715   -3.6013 C   0  0  2  0  0  0  0  0  0  0  0  0
    1.3035   -3.0078   -3.3846 N   0  0  0  0  0  0  0  0  0  0  0  0
    0.5059   -2.4490   -2.4142 C   0  0  0  0  0  0  0  0  0  0  0  0
   -0.7107   -2.5817   -2.5848 O   0  0  0  0  0  0  0  0  0  0  0  0
    1.0717   -1.6637   -1.1727 C   0  0  2  0  0  0  0  0  0  0  0  0
    0.1884   -1.9178    0.0639 C   0  0  0  0  0  0  0  0  0  0  0  0
    0.2420   -0.8344    0.9911 O   0  0  0  0  0  0  0  0  0  0  0  0
    1.3298   -0.1968   -1.3754 N   0  0  0  0  0  0  0  0  0  0  0  0
    2.4229    0.6036   -1.0757 C   0  0  0  0  0  0  0  0  0  0  0  0
    2.3307    1.8279   -1.1772 O   0  0  0  0  0  0  0  0  0  0  0  0
    3.7973   -0.0139   -0.7940 C   0  0  1  0  0  0  0  0  0  0  0  0
    3.6899   -0.8932    0.4113 N   0  0  0  0  0  0  0  0  0  0  0  0
    4.1140   -0.7442   -2.0806 C   0  0  0  0  0  0  0  0  0  0  0  0
    4.4819   -0.2295   -3.4513 C   0  0  0  0  0  0  0  0  0  0  0  0
    4.2448    1.0857   -3.7173 C   0  0  0  0  0  0  0  0  0  0  0  0
    4.2556    1.5420   -5.0273 C   0  0  0  0  0  0  0  0  0  0  0  0
    4.5864    0.7045   -6.0909 C   0  0  0  0  0  0  0  0  0  0  0  0
    4.5737    1.1234   -7.3776 O   0  0  0  0  0  0  0  0  0  0  0  0
    4.9200   -0.5972   -5.8758 C   0  0  0  0  0  0  0  0  0  0  0  0
    4.8145   -1.0449   -4.5709 C   0  0  0  0  0  0  0  0  0  0  0  0
    3.2164   -3.8965   -4.7476 C   0  0  0  0  0  0  0  0  0  0  0  0
    3.4540   -3.3031   -5.9489 O   0  0  0  0  0  0  0  0  0  0  0  0
    3.3846   -5.0764   -4.5971 O   0  0  0  0  0  0  0  0  0  0  0  0
    6.4820   -1.6327   -2.1802 H   0  0  0  0  0  0  0  0  0  0  0  0
    6.5135   -2.3144   -3.7967 H   0  0  0  0  0  0  0  0  0  0  0  0
    7.3794   -3.0271   -2.5707 H   0  0  0  0  0  0  0  0  0  0  0  0
    5.3970   -4.4820   -2.9449 H   0  0  0  0  0  0  0  0  0  0  0  0
    5.5954   -2.9196   -0.2887 H   0  0  0  0  0  0  0  0  0  0  0  0
    4.9390   -4.5521   -0.3789 H   0  0  0  0  0  0  0  0  0  0  0  0
    6.6393   -4.2134   -0.8166 H   0  0  0  0  0  0  0  0  0  0  0  0
    3.1298   -4.3465   -1.9958 H   0  0  0  0  0  0  0  0  0  0  0  0
    3.4219   -2.8620   -1.4376 H   0  0  0  0  0  0  0  0  0  0  0  0
    2.8248   -1.9452   -3.9462 H   0  0  0  0  0  0  0  0  0  0  0  0
    0.7559   -3.2696   -4.2030 H   0  0  0  0  0  0  0  0  0  0  0  0
    1.9799   -2.1328   -0.8609 H   0  0  0  0  0  0  0  0  0  0  0  0
   -0.8546   -2.1138   -0.1900 H   0  0  0  0  0  0  0  0  0  0  0  0
    0.5628   -2.8082    0.5872 H   0  0  0  0  0  0  0  0  0  0  0  0
    1.1869   -0.6293    1.1163 H   0  0  0  0  0  0  0  0  0  0  0  0
    0.5091    0.3556   -1.5854 H   0  0  0  0  0  0  0  0  0  0  0  0
    4.6196    0.6860   -0.6308 H   0  0  0  0  0  0  0  0  0  0  0  0
    4.5298   -1.4642    0.5239 H   0  0  0  0  0  0  0  0  0  0  0  0
    3.6827   -0.2943    1.2386 H   0  0  0  0  0  0  0  0  0  0  0  0
    4.8025   -1.4641   -1.7242 H   0  0  0  0  0  0  0  0  0  0  0  0
    3.1722   -1.1945   -2.3028 H   0  0  0  0  0  0  0  0  0  0  0  0
    3.9774    1.7465   -2.9074 H   0  0  0  0  0  0  0  0  0  0  0  0
    3.9721    2.5715   -5.1735 H   0  0  0  0  0  0  0  0  0  0  0  0
    4.4909    2.0881   -7.3529 H   0  0  0  0  0  0  0  0  0  0  0  0
    5.1788   -1.2691   -6.6955 H   0  0  0  0  0  0  0  0  0  0  0  0
    4.9220   -2.1201   -4.5067 H   0  0  0  0  0  0  0  0  0  0  0  0
    3.3057   -2.3434   -6.0446 H   0  0  0  0  0  0  0  0  0  0  0  0
  1  2  1  0  0  0  0
  1 28  1  0  0  0  0
  1 29  1  0  0  0  0
  1 30  1  0  0  0  0
  2  3  1  0  0  0  0
  2  4  1  0  0  0  0
  2 31  1  0  0  0  0
  3 32  1  0  0  0  0
  3 33  1  0  0  0  0
  3 34  1  0  0  0  0
  4 35  1  0  0  0  0
  4 36  1  0  0  0  0
  5 25  1  0  0  0  0
  5 37  1  6  0  0  0
  5  6  1  0  0  0  0
  5  4  1  0  0  0  0
  6  7  1  0  0  0  0
  6 38  1  0  0  0  0
  7  8  2  0  0  0  0
  9 12  1  0  0  0  0
  9 39  1  1  0  0  0
  9 10  1  0  0  0  0
  9  7  1  0  0  0  0
 10 11  1  0  0  0  0
 10 40  1  0  0  0  0
 10 41  1  0  0  0  0
 11 42  1  0  0  0  0
 12 13  1  0  0  0  0
 12 43  1  0  0  0  0
 13 14  2  0  0  0  0
 15 13  1  0  0  0  0
 15 16  1  0  0  0  0
 15 17  1  0  0  0  0
 15 44  1  1  0  0  0
 16 45  1  0  0  0  0
 16 46  1  0  0  0  0
 17 18  1  0  0  0  0
 17 47  1  0  0  0  0
 17 48  1  0  0  0  0
 18 19  2  0  0  0  0
 18 24  1  0  0  0  0
 19 20  1  0  0  0  0
 19 49  1  0  0  0  0
 20 21  2  0  0  0  0
 20 50  1  0  0  0  0
 21 22  1  0  0  0  0
 21 23  1  0  0  0  0
 22 51  1  0  0  0  0
 23 24  2  0  0  0  0
 23 52  1  0  0  0  0
 24 53  1  0  0  0  0
 25 26  1  0  0  0  0
 25 27  2  0  0  0  0
 26 54  1  0  0  0  0
M  END
>  <DRUGBANK_ID>
DB17300

>  <COMMON_NAME>
Tyroserleutide

>  <CAS_NUMBER>
138168-48-6

>  <UNII>
L9TIM50J8N

>  <SYNONYMS>
L-leucine, l-tyrosyl-l-seryl-; L-tyrosine-l-serine-l-leucine

$$$$
