
 OpenBabel10282417233D

135137  0  0  0  0  0  0  0  0999 V2000
   -1.7153   -9.7151   -9.4391 C   0  0  0  0  0  0  0  0  0  0  0  0
   -0.3937   -9.0873   -7.9859 C   0  0  0  0  0  0  0  0  0  0  0  0
    0.6166   -8.6991   -6.3697 C   0  0  0  0  0  0  0  0  0  0  0  0
    1.3284   -8.5281   -4.3253 C   0  0  0  0  0  0  0  0  0  0  0  0
    0.8593   -9.5706   -2.4550 C   0  0  1  0  0  0  0  0  0  0  0  0
   -0.9213   -9.4823   -2.2200 C   0  0  0  0  0  0  0  0  0  0  0  0
    0.5677  -10.9729   -2.2235 O   0  0  0  0  0  0  0  0  0  0  0  0
    0.0138  -11.5230   -3.2613 C   0  0  0  0  0  0  0  0  0  0  0  0
    0.2731  -12.7564   -3.2706 O   0  0  0  0  0  0  0  0  0  0  0  0
   -1.0981  -10.3769   -4.6714 C   0  0  0  0  0  0  0  0  0  0  0  0
    0.1362  -11.1083   -6.3689 C   0  0  2  0  0  0  0  0  0  0  0  0
   -0.2187  -12.4088   -7.0277 C   0  0  1  0  0  0  0  0  0  0  0  0
   -1.7903  -12.3681   -7.0405 C   0  0  2  0  0  0  0  0  0  0  0  0
   -1.9963  -11.3580   -8.0030 C   0  0  2  0  0  0  0  0  0  0  0  0
   -1.2355  -11.7358   -9.3329 C   0  0  0  0  0  0  0  0  0  0  0  0
   -2.0473  -12.9170   -9.8590 C   0  0  1  0  0  0  0  0  0  0  0  0
   -1.9471  -14.1792   -9.0513 C   0  0  0  0  0  0  0  0  0  0  0  0
   -3.5406  -12.5212   -9.8808 C   0  0  1  0  0  0  0  0  0  0  0  0
   -4.3317  -12.5712   -8.6205 O   0  0  0  0  0  0  0  0  0  0  0  0
   -3.1080  -10.6510  -10.1436 C   0  0  0  0  0  0  0  0  0  0  0  0
   -2.4846   -9.9807   -7.5551 C   0  0  0  0  0  0  0  0  0  0  0  0
   -2.7787   -8.4004   -8.4651 C   0  0  0  0  0  0  0  0  0  0  0  0
   -3.7259   -7.6536   -8.3460 O   0  0  0  0  0  0  0  0  0  0  0  0
   -2.7982  -12.2152   -5.9442 O   0  0  0  0  0  0  0  0  0  0  0  0
   -2.6631  -11.2111   -5.0201 C   0  0  2  0  0  0  0  0  0  0  0  0
   -3.1663   -9.5055   -5.3484 O   0  0  0  0  0  0  0  0  0  0  0  0
   -2.3313   -8.2081   -5.2740 C   0  0  1  0  0  0  0  0  0  0  0  0
   -0.7183   -8.2212   -5.1932 C   0  0  1  0  0  0  0  0  0  0  0  0
   -0.3675   -6.9129   -4.7778 O   0  0  0  0  0  0  0  0  0  0  0  0
   -0.8300   -6.6571   -3.4785 C   0  0  1  0  0  0  0  0  0  0  0  0
   -0.0659   -7.6137   -2.6251 C   0  0  0  0  0  0  0  0  0  0  0  0
   -0.6074   -7.8863   -0.8545 C   0  0  2  0  0  0  0  0  0  0  0  0
   -2.3765   -8.1734   -0.9217 C   0  0  0  0  0  0  0  0  0  0  0  0
   -0.1799   -6.5410   -0.5252 C   0  0  1  0  0  0  0  0  0  0  0  0
    1.2888   -6.5584   -0.5762 O   0  0  0  0  0  0  0  0  0  0  0  0
    2.1514   -6.4362   -1.6441 C   0  0  0  0  0  0  0  0  0  0  0  0
    1.7162   -6.1619   -3.0325 C   0  0  0  0  0  0  0  0  0  0  0  0
    1.7390   -5.0693   -3.9388 C   0  0  0  0  0  0  0  0  0  0  0  0
    3.1833   -5.1995   -4.1637 C   0  0  0  0  0  0  0  0  0  0  0  0
    0.9846   -5.1947   -5.2739 C   0  0  0  0  0  0  0  0  0  0  0  0
    3.3441   -6.6394   -1.5295 O   0  0  0  0  0  0  0  0  0  0  0  0
   -0.8183   -5.4696   -1.4463 C   0  0  2  0  0  0  0  0  0  0  0  0
   -2.2797   -5.5177   -1.4841 C   0  0  0  0  0  0  0  0  0  0  0  0
   -0.6912   -5.3899   -2.8907 O   0  0  0  0  0  0  0  0  0  0  0  0
   -0.0504   -9.0112   -0.0447 O   0  0  0  0  0  0  0  0  0  0  0  0
   -0.9870   -8.1097   -6.2524 H   0  0  0  0  0  0  0  0  0  0  0  0
    0.4551  -10.0286   -4.7512 C   0  0  1  0  0  0  0  0  0  0  0  0
   -0.7305  -11.9220   -4.9318 C   0  0  1  0  0  0  0  0  0  0  0  0
   -1.5213  -12.7309   -4.1574 O   0  0  0  0  0  0  0  0  0  0  0  0
    2.1291  -10.0210   -5.0510 N   0  0  0  0  0  0  0  0  0  0  0  0
    2.4405  -10.7648   -3.8883 C   0  0  0  0  0  0  0  0  0  0  0  0
    2.5547   -9.5759   -6.5228 C   0  0  0  0  0  0  0  0  0  0  0  0
   -2.6591   -7.0841   -6.2704 C   0  0  0  0  0  0  0  0  0  0  0  0
   -2.9027  -10.8881   -4.0152 H   0  0  0  0  0  0  0  0  0  0  0  0
    0.7409  -12.2986   -8.1031 O   0  0  0  0  0  0  0  0  0  0  0  0
    0.6499  -13.4429   -8.8025 C   0  0  0  0  0  0  0  0  0  0  0  0
    1.6237  -11.5639   -6.3359 O   0  0  0  0  0  0  0  0  0  0  0  0
    1.9263  -13.1664   -4.9405 O   0  0  0  0  0  0  0  0  0  0  0  0
    3.8977  -11.6800   -5.3784 C   0  0  0  0  0  0  0  0  0  0  0  0
    2.4419  -12.3109   -5.6321 C   0  0  0  0  0  0  0  0  0  0  0  0
   -4.6531  -11.3265   -8.0902 C   0  0  0  0  0  0  0  0  0  0  0  0
   -4.5126  -10.2053   -8.5725 O   0  0  0  0  0  0  0  0  0  0  0  0
   -4.8402  -11.2009   -6.6566 C   0  0  0  0  0  0  0  0  0  0  0  0
   -6.2619  -11.2226   -6.7462 C   0  0  0  0  0  0  0  0  0  0  0  0
   -2.3795  -10.8459  -10.0944 H   0  0  0  0  0  0  0  0  0  0  0  0
   -0.0105   -8.0403   -7.7963 H   0  0  0  0  0  0  0  0  0  0  0  0
    0.8303   -9.6314   -6.2123 H   0  0  0  0  0  0  0  0  0  0  0  0
    2.2578   -8.0484   -3.6364 H   0  0  0  0  0  0  0  0  0  0  0  0
    2.6218   -8.8893   -3.8333 H   0  0  0  0  0  0  0  0  0  0  0  0
    1.5208   -9.4993   -1.5380 H   0  0  0  0  0  0  0  0  0  0  0  0
   -1.3700  -10.0710   -1.4807 H   0  0  0  0  0  0  0  0  0  0  0  0
   -1.3879   -8.4247   -2.2633 H   0  0  0  0  0  0  0  0  0  0  0  0
   -1.6066   -9.4704   -3.0098 H   0  0  0  0  0  0  0  0  0  0  0  0
   -1.2438   -9.4559   -4.4816 H   0  0  0  0  0  0  0  0  0  0  0  0
   -1.5410  -10.0821   -5.5375 H   0  0  0  0  0  0  0  0  0  0  0  0
    0.1891  -10.5084   -7.2183 H   0  0  0  0  0  0  0  0  0  0  0  0
    0.1305  -13.1171   -6.3196 H   0  0  0  0  0  0  0  0  0  0  0  0
   -2.2407  -13.2571   -6.9962 H   0  0  0  0  0  0  0  0  0  0  0  0
   -2.9403  -11.6025   -7.9372 H   0  0  0  0  0  0  0  0  0  0  0  0
   -0.2596  -11.2964   -9.2498 H   0  0  0  0  0  0  0  0  0  0  0  0
   -0.9737  -11.0430  -10.3830 H   0  0  0  0  0  0  0  0  0  0  0  0
   -1.6042  -12.9671  -10.8556 H   0  0  0  0  0  0  0  0  0  0  0  0
   -2.0183  -15.1113   -9.4996 H   0  0  0  0  0  0  0  0  0  0  0  0
   -1.0264  -14.4914   -8.6599 H   0  0  0  0  0  0  0  0  0  0  0  0
   -2.2552  -14.1404   -8.0735 H   0  0  0  0  0  0  0  0  0  0  0  0
   -3.8713  -13.5425  -10.4230 H   0  0  0  0  0  0  0  0  0  0  0  0
   -4.0322  -10.3675  -10.7959 H   0  0  0  0  0  0  0  0  0  0  0  0
   -2.2656   -9.3594   -6.8014 H   0  0  0  0  0  0  0  0  0  0  0  0
   -1.5204  -10.2634   -7.2249 H   0  0  0  0  0  0  0  0  0  0  0  0
   -2.0473   -8.0719   -9.3410 H   0  0  0  0  0  0  0  0  0  0  0  0
   -2.6449   -8.0005   -4.3217 H   0  0  0  0  0  0  0  0  0  0  0  0
   -1.8536   -6.8950   -3.5337 H   0  0  0  0  0  0  0  0  0  0  0  0
   -0.3720   -8.2951   -3.4029 H   0  0  0  0  0  0  0  0  0  0  0  0
    0.9640   -7.8689   -2.4347 H   0  0  0  0  0  0  0  0  0  0  0  0
   -2.7391   -9.0894   -1.4563 H   0  0  0  0  0  0  0  0  0  0  0  0
   -2.7669   -8.0170    0.0177 H   0  0  0  0  0  0  0  0  0  0  0  0
   -2.8667   -7.6795   -1.7492 H   0  0  0  0  0  0  0  0  0  0  0  0
   -0.5812   -6.4565    0.4776 H   0  0  0  0  0  0  0  0  0  0  0  0
    1.6017   -6.8098   -3.8397 H   0  0  0  0  0  0  0  0  0  0  0  0
    0.8146   -6.1453   -2.6477 H   0  0  0  0  0  0  0  0  0  0  0  0
    1.3302   -4.2966   -3.3321 H   0  0  0  0  0  0  0  0  0  0  0  0
    3.4412   -6.1356   -4.6921 H   0  0  0  0  0  0  0  0  0  0  0  0
    3.4309   -4.3277   -4.7065 H   0  0  0  0  0  0  0  0  0  0  0  0
    3.6824   -5.2134   -3.1966 H   0  0  0  0  0  0  0  0  0  0  0  0
   -0.1130   -5.1164   -5.1721 H   0  0  0  0  0  0  0  0  0  0  0  0
    1.1902   -4.3404   -5.8678 H   0  0  0  0  0  0  0  0  0  0  0  0
    1.2565   -6.1082   -5.8512 H   0  0  0  0  0  0  0  0  0  0  0  0
   -0.4291   -4.5642   -1.0349 H   0  0  0  0  0  0  0  0  0  0  0  0
   -2.7373   -5.7029   -0.5365 H   0  0  0  0  0  0  0  0  0  0  0  0
   -2.7061   -4.7985   -2.1562 H   0  0  0  0  0  0  0  0  0  0  0  0
   -2.5257   -6.2771   -2.1763 H   0  0  0  0  0  0  0  0  0  0  0  0
   -0.2744   -9.9301   -0.3577 H   0  0  0  0  0  0  0  0  0  0  0  0
    0.1626   -9.7850   -3.7925 H   0  0  0  0  0  0  0  0  0  0  0  0
   -1.1682  -11.6488   -5.7631 H   0  0  0  0  0  0  0  0  0  0  0  0
   -1.5338  -12.2230   -3.3458 H   0  0  0  0  0  0  0  0  0  0  0  0
    1.7742  -11.5368   -3.9883 H   0  0  0  0  0  0  0  0  0  0  0  0
    3.4182  -10.8094   -3.6099 H   0  0  0  0  0  0  0  0  0  0  0  0
    2.3147  -10.6005   -2.8564 H   0  0  0  0  0  0  0  0  0  0  0  0
    2.0645  -10.1482   -7.3626 H   0  0  0  0  0  0  0  0  0  0  0  0
    2.2486   -8.5724   -6.9474 H   0  0  0  0  0  0  0  0  0  0  0  0
    3.5496   -9.5757   -6.4228 H   0  0  0  0  0  0  0  0  0  0  0  0
   -3.7177   -7.1772   -6.4046 H   0  0  0  0  0  0  0  0  0  0  0  0
   -2.2820   -6.1107   -6.0288 H   0  0  0  0  0  0  0  0  0  0  0  0
   -2.0483   -7.1331   -7.2022 H   0  0  0  0  0  0  0  0  0  0  0  0
    0.5599  -14.2946   -8.1399 H   0  0  0  0  0  0  0  0  0  0  0  0
   -0.3054  -13.1693   -9.0165 H   0  0  0  0  0  0  0  0  0  0  0  0
    0.7060  -13.5390   -9.8732 H   0  0  0  0  0  0  0  0  0  0  0  0
    4.3402  -11.6627   -6.3238 H   0  0  0  0  0  0  0  0  0  0  0  0
    4.1768  -10.5939   -5.0270 H   0  0  0  0  0  0  0  0  0  0  0  0
    4.2020  -12.2599   -4.5090 H   0  0  0  0  0  0  0  0  0  0  0  0
   -4.5033  -11.9557   -5.9939 H   0  0  0  0  0  0  0  0  0  0  0  0
   -4.5073  -10.2180   -6.3437 H   0  0  0  0  0  0  0  0  0  0  0  0
   -6.4636  -12.2148   -7.1393 H   0  0  0  0  0  0  0  0  0  0  0  0
   -6.6253  -11.0426   -5.7617 H   0  0  0  0  0  0  0  0  0  0  0  0
   -6.5309  -10.4409   -7.4592 H   0  0  0  0  0  0  0  0  0  0  0  0
  1 20  2  0  0  0  0
  1 65  1  0  0  0  0
  2  1  1  0  0  0  0
  2 66  1  0  0  0  0
  3  2  2  0  0  0  0
  3  4  1  0  0  0  0
  3 67  1  0  0  0  0
  4  5  1  0  0  0  0
  4 68  1  0  0  0  0
  4 69  1  0  0  0  0
  5  6  1  0  0  0  0
  5  7  1  0  0  0  0
  5 70  1  1  0  0  0
  6 71  1  0  0  0  0
  6 72  1  0  0  0  0
  6 73  1  0  0  0  0
  7  8  1  0  0  0  0
  8 10  1  0  0  0  0
  9  8  2  0  0  0  0
 10 11  1  0  0  0  0
 10 74  1  0  0  0  0
 10 75  1  0  0  0  0
 11 12  1  0  0  0  0
 11 57  1  0  0  0  0
 11 76  1  6  0  0  0
 12 13  1  0  0  0  0
 12 77  1  1  0  0  0
 12 55  1  0  0  0  0
 13 24  1  0  0  0  0
 13 78  1  6  0  0  0
 14 13  1  0  0  0  0
 14 21  1  0  0  0  0
 14 79  1  6  0  0  0
 15 14  1  0  0  0  0
 15 80  1  0  0  0  0
 15 81  1  0  0  0  0
 16 15  1  0  0  0  0
 16 17  1  0  0  0  0
 16 82  1  6  0  0  0
 17 83  1  0  0  0  0
 17 84  1  0  0  0  0
 17 85  1  0  0  0  0
 18 16  1  0  0  0  0
 18 19  1  0  0  0  0
 18 86  1  6  0  0  0
 19 61  1  0  0  0  0
 20 18  1  0  0  0  0
 20 87  1  0  0  0  0
 21 88  1  0  0  0  0
 21 89  1  0  0  0  0
 22 21  1  0  0  0  0
 22 90  1  0  0  0  0
 23 22  2  0  0  0  0
 25 26  1  0  0  0  0
 25 54  1  1  0  0  0
 25 24  1  0  0  0  0
 26 27  1  0  0  0  0
 27 28  1  0  0  0  0
 27 53  1  0  0  0  0
 27 91  1  1  0  0  0
 28 47  1  0  0  0  0
 28 46  1  6  0  0  0
 28 29  1  0  0  0  0
 30 44  1  0  0  0  0
 30 92  1  1  0  0  0
 30 29  1  0  0  0  0
 31 30  1  0  0  0  0
 31 93  1  0  0  0  0
 31 94  1  0  0  0  0
 32 31  1  0  0  0  0
 32 33  1  0  0  0  0
 32 45  1  1  0  0  0
 33 95  1  0  0  0  0
 33 96  1  0  0  0  0
 33 97  1  0  0  0  0
 34 32  1  0  0  0  0
 34 98  1  1  0  0  0
 34 35  1  0  0  0  0
 35 36  1  0  0  0  0
 36 37  1  0  0  0  0
 36 41  2  0  0  0  0
 37 38  1  0  0  0  0
 37 99  1  0  0  0  0
 37100  1  0  0  0  0
 38 39  1  0  0  0  0
 38 40  1  0  0  0  0
 38101  1  0  0  0  0
 39102  1  0  0  0  0
 39103  1  0  0  0  0
 39104  1  0  0  0  0
 40105  1  0  0  0  0
 40106  1  0  0  0  0
 40107  1  0  0  0  0
 42 34  1  0  0  0  0
 42 43  1  0  0  0  0
 42108  1  1  0  0  0
 43109  1  0  0  0  0
 43110  1  0  0  0  0
 43111  1  0  0  0  0
 44 42  1  0  0  0  0
 45112  1  0  0  0  0
 47 48  1  0  0  0  0
 47 50  1  0  0  0  0
 47113  1  1  0  0  0
 48 25  1  0  0  0  0
 48 49  1  0  0  0  0
 48114  1  6  0  0  0
 49115  1  0  0  0  0
 50 51  1  0  0  0  0
 50 52  1  0  0  0  0
 51116  1  0  0  0  0
 51117  1  0  0  0  0
 51118  1  0  0  0  0
 52119  1  0  0  0  0
 52120  1  0  0  0  0
 52121  1  0  0  0  0
 53122  1  0  0  0  0
 53123  1  0  0  0  0
 53124  1  0  0  0  0
 56 55  1  0  0  0  0
 56125  1  0  0  0  0
 56126  1  0  0  0  0
 56127  1  0  0  0  0
 57 60  1  0  0  0  0
 59128  1  0  0  0  0
 59129  1  0  0  0  0
 59130  1  0  0  0  0
 60 58  2  0  0  0  0
 60 59  1  0  0  0  0
 61 62  2  0  0  0  0
 61 63  1  0  0  0  0
 63 64  1  0  0  0  0
 63131  1  0  0  0  0
 63132  1  0  0  0  0
 64133  1  0  0  0  0
 64134  1  0  0  0  0
 64135  1  0  0  0  0
M  END
>  <DRUGBANK_ID>
DB15981

>  <COMMON_NAME>
Josamycin propionate

>  <CAS_NUMBER>
40922-77-8

>  <UNII>
053VA4B06Y

>  <SYNONYMS>
Josamycin propionate

$$$$
