
 OpenBabel10282417203D

 99102  0  0  1  0  0  0  0  0999 V2000
    3.7609   -5.5124   -2.8975 C   0  0  0  0  0  0  0  0  0  0  0  0
    3.6763   -5.9424   -4.1529 O   0  0  0  0  0  0  0  0  0  0  0  0
    2.7486   -4.4718   -2.9301 O   0  0  0  0  0  0  0  0  0  0  0  0
    1.3907   -4.4386   -3.6081 C   0  0  0  0  0  0  0  0  0  0  0  0
    1.0283   -5.5786   -3.9045 O   0  0  0  0  0  0  0  0  0  0  0  0
   -0.0140   -2.9801   -3.1211 C   0  0  2  0  0  0  0  0  0  0  0  0
   -0.2397   -3.2700   -1.1321 C   0  0  1  0  0  0  0  0  0  0  0  0
   -1.9642   -2.5730    0.0511 C   0  0  1  0  0  0  0  0  0  0  0  0
   -2.7020   -1.3707   -1.4979 C   0  0  2  0  0  0  0  0  0  0  0  0
   -1.3844   -1.1986   -2.9611 C   0  0  2  0  0  0  0  0  0  0  0  0
   -1.0023   -2.3548   -3.7299 O   0  0  0  0  0  0  0  0  0  0  0  0
   -0.1530   -0.4161   -2.5995 O   0  0  0  0  0  0  0  0  0  0  0  0
    0.5692   -1.4180   -1.0721 C   0  0  2  0  0  0  0  0  0  0  0  0
    1.5390   -2.8286   -2.3338 C   0  0  1  0  0  0  0  0  0  0  0  0
    0.1689   -4.5446   -2.0297 C   0  0  2  0  0  0  0  0  0  0  0  0
   -1.1228   -4.1896   -0.2241 C   0  0  2  0  0  0  0  0  0  0  0  0
   -1.3649   -2.3342   -1.3041 O   0  0  0  0  0  0  0  0  0  0  0  0
   -0.9946   -1.0449    0.0935 C   0  0  2  0  0  0  0  0  0  0  0  0
   -1.2561    0.4918    0.7780 C   0  0  0  0  0  0  0  0  0  0  0  0
   -0.6237    0.9532    1.7139 O   0  0  0  0  0  0  0  0  0  0  0  0
   -1.6310    1.1948   -0.3064 O   0  0  0  0  0  0  0  0  0  0  0  0
   -2.0654    2.4802   -0.3852 C   0  0  0  0  0  0  0  0  0  0  0  0
   -2.8545    2.3657    0.7231 O   0  0  0  0  0  0  0  0  0  0  0  0
    0.3481   -4.2496    1.0655 O   0  0  0  0  0  0  0  0  0  0  0  0
    2.0363   -2.8900    1.1179 C   0  0  2  0  0  0  0  0  0  0  0  0
    0.7141   -1.0711    1.0146 C   0  0  1  0  0  0  0  0  0  0  0  0
    0.2427    0.1455   -0.7631 C   0  0  2  0  0  0  0  0  0  0  0  0
    1.6726   -0.8007   -2.0990 C   0  0  2  0  0  0  0  0  0  0  0  0
    1.6739   -2.4565   -0.7854 O   0  0  0  0  0  0  0  0  0  0  0  0
    2.7225   -3.3789   -0.8724 C   0  0  2  0  0  0  0  0  0  0  0  0
    3.4141   -4.9217   -0.7927 C   0  0  0  0  0  0  0  0  0  0  0  0
    4.5057   -5.1254   -0.3119 O   0  0  0  0  0  0  0  0  0  0  0  0
    2.3281   -5.8528   -1.0797 O   0  0  0  0  0  0  0  0  0  0  0  0
    2.1561   -7.2933   -1.1815 C   0  0  0  0  0  0  0  0  0  0  0  0
    2.5528   -7.6474   -2.5021 O   0  0  0  0  0  0  0  0  0  0  0  0
    3.0766   -0.3186   -1.8082 O   0  0  0  0  0  0  0  0  0  0  0  0
    3.5165   -0.8189   -0.1567 C   0  0  2  0  0  0  0  0  0  0  0  0
    3.7081   -2.7624    0.3552 C   0  0  1  0  0  0  0  0  0  0  0  0
    1.8922   -4.2054    0.3493 C   0  0  2  0  0  0  0  0  0  0  0  0
    0.7247   -2.7081    1.6074 C   0  0  2  0  0  0  0  0  0  0  0  0
    2.1671   -1.4482    0.7386 O   0  0  0  0  0  0  0  0  0  0  0  0
    2.8415   -0.2992    1.0897 C   0  0  2  0  0  0  0  0  0  0  0  0
    2.1898    1.1879    1.3404 C   0  0  0  0  0  0  0  0  0  0  0  0
    1.9190    1.5350    2.4753 O   0  0  0  0  0  0  0  0  0  0  0  0
    1.6942    1.8213    0.2992 O   0  0  0  0  0  0  0  0  0  0  0  0
    0.7836    2.9966    0.3287 C   0  0  0  0  0  0  0  0  0  0  0  0
   -0.1614    3.1519    1.3818 O   0  0  0  0  0  0  0  0  0  0  0  0
    1.3379   -2.9090    3.0774 O   0  0  0  0  0  0  0  0  0  0  0  0
    2.1597   -5.3908    0.9632 O   0  0  0  0  0  0  0  0  0  0  0  0
    4.7814   -2.6001   -1.1650 O   0  0  0  0  0  0  0  0  0  0  0  0
    0.3345    1.3441   -1.0207 O   0  0  0  0  0  0  0  0  0  0  0  0
   -0.2212   -1.1532    2.5422 O   0  0  0  0  0  0  0  0  0  0  0  0
    0.3206   -5.8372   -1.7882 O   0  0  0  0  0  0  0  0  0  0  0  0
    2.5856   -2.4909   -3.4038 O   0  0  0  0  0  0  0  0  0  0  0  0
   -2.9332   -0.0603   -1.2504 O   0  0  0  0  0  0  0  0  0  0  0  0
   -2.4122   -2.4165    1.3169 O   0  0  0  0  0  0  0  0  0  0  0  0
   -1.6174   -4.6536   -1.7456 O   0  0  0  0  0  0  0  0  0  0  0  0
    4.7487   -5.3593   -2.4216 H   0  0  0  0  0  0  0  0  0  0  0  0
    3.6924   -6.2832   -2.1076 H   0  0  0  0  0  0  0  0  0  0  0  0
    4.1199   -6.7777   -4.0770 H   0  0  0  0  0  0  0  0  0  0  0  0
    0.1061   -2.1910   -2.4265 H   0  0  0  0  0  0  0  0  0  0  0  0
    0.3117   -4.1199   -0.5174 H   0  0  0  0  0  0  0  0  0  0  0  0
   -0.4548   -2.5298    0.0078 H   0  0  0  0  0  0  0  0  0  0  0  0
   -3.2340   -2.1963   -1.9237 H   0  0  0  0  0  0  0  0  0  0  0  0
   -1.7535   -0.7182   -3.8062 H   0  0  0  0  0  0  0  0  0  0  0  0
    1.6922   -0.1937   -0.7262 H   0  0  0  0  0  0  0  0  0  0  0  0
    2.5222   -1.9088   -1.7507 H   0  0  0  0  0  0  0  0  0  0  0  0
   -0.6805   -4.4317   -3.0032 H   0  0  0  0  0  0  0  0  0  0  0  0
   -2.3486   -4.3280   -0.1603 H   0  0  0  0  0  0  0  0  0  0  0  0
   -0.9273   -1.4974    1.0121 H   0  0  0  0  0  0  0  0  0  0  0  0
   -1.2479    3.1293   -0.3255 H   0  0  0  0  0  0  0  0  0  0  0  0
   -2.4327    2.6823   -1.3880 H   0  0  0  0  0  0  0  0  0  0  0  0
   -3.3765    1.5746    0.4698 H   0  0  0  0  0  0  0  0  0  0  0  0
    2.3688   -3.8404    1.9632 H   0  0  0  0  0  0  0  0  0  0  0  0
    1.0901   -0.2968    1.6079 H   0  0  0  0  0  0  0  0  0  0  0  0
   -0.8215   -0.4101   -1.2589 H   0  0  0  0  0  0  0  0  0  0  0  0
    1.1538   -1.1433   -3.3168 H   0  0  0  0  0  0  0  0  0  0  0  0
    3.2832   -2.7915   -1.2949 H   0  0  0  0  0  0  0  0  0  0  0  0
    2.7353   -7.5135   -0.3040 H   0  0  0  0  0  0  0  0  0  0  0  0
    1.1094   -7.6287   -1.1615 H   0  0  0  0  0  0  0  0  0  0  0  0
    2.1968   -6.9098   -3.0899 H   0  0  0  0  0  0  0  0  0  0  0  0
    4.3551   -0.1760   -0.1268 H   0  0  0  0  0  0  0  0  0  0  0  0
    4.2862   -2.8938    1.2141 H   0  0  0  0  0  0  0  0  0  0  0  0
    1.5335   -4.3042   -0.8644 H   0  0  0  0  0  0  0  0  0  0  0  0
   -0.3650   -2.8994    1.3648 H   0  0  0  0  0  0  0  0  0  0  0  0
    2.8929   -0.7539    2.0740 H   0  0  0  0  0  0  0  0  0  0  0  0
    1.5566    3.6805    0.4336 H   0  0  0  0  0  0  0  0  0  0  0  0
    0.3847    3.2176   -0.7130 H   0  0  0  0  0  0  0  0  0  0  0  0
   -0.9386    2.5319    1.3615 H   0  0  0  0  0  0  0  0  0  0  0  0
    2.3352   -2.7761    2.9823 H   0  0  0  0  0  0  0  0  0  0  0  0
    3.0912   -5.1593    1.0290 H   0  0  0  0  0  0  0  0  0  0  0  0
    4.2132   -2.3685   -2.1287 H   0  0  0  0  0  0  0  0  0  0  0  0
    0.6300    1.0821   -0.0893 H   0  0  0  0  0  0  0  0  0  0  0  0
   -0.9737   -1.8230    2.4760 H   0  0  0  0  0  0  0  0  0  0  0  0
    1.0414   -5.6217   -1.2211 H   0  0  0  0  0  0  0  0  0  0  0  0
    2.0025   -2.2509   -4.1105 H   0  0  0  0  0  0  0  0  0  0  0  0
   -2.0340    0.3843   -1.3604 H   0  0  0  0  0  0  0  0  0  0  0  0
   -3.1302   -2.8980    0.9171 H   0  0  0  0  0  0  0  0  0  0  0  0
   -2.2616   -4.1273   -2.1454 H   0  0  0  0  0  0  0  0  0  0  0  0
  1  2  1  0  0  0  0
  1  3  1  0  0  0  0
  1 58  1  0  0  0  0
  1 59  1  0  0  0  0
  2 60  1  0  0  0  0
  3  4  1  0  0  0  0
  4  5  2  0  0  0  0
  6  7  1  0  0  0  0
  6 11  1  0  0  0  0
  6 61  1  1  0  0  0
  6  4  1  0  0  0  0
  7  8  1  0  0  0  0
  7 57  1  0  0  0  0
  7 62  1  1  0  0  0
  8  9  1  0  0  0  0
  8 56  1  0  0  0  0
  8 63  1  1  0  0  0
  9 10  1  0  0  0  0
  9 55  1  0  0  0  0
  9 64  1  6  0  0  0
 10 11  1  0  0  0  0
 10 65  1  6  0  0  0
 10 12  1  0  0  0  0
 13 12  1  0  0  0  0
 13 14  1  0  0  0  0
 13 18  1  0  0  0  0
 13 66  1  1  0  0  0
 14 15  1  0  0  0  0
 14 54  1  0  0  0  0
 14 67  1  1  0  0  0
 15 16  1  0  0  0  0
 15 53  1  0  0  0  0
 15 68  1  6  0  0  0
 16 17  1  0  0  0  0
 16 69  1  1  0  0  0
 16 24  1  0  0  0  0
 17 18  1  0  0  0  0
 18 19  1  0  0  0  0
 18 70  1  1  0  0  0
 19 20  2  0  0  0  0
 19 21  1  0  0  0  0
 21 22  1  0  0  0  0
 22 23  1  0  0  0  0
 22 71  1  0  0  0  0
 22 72  1  0  0  0  0
 23 73  1  0  0  0  0
 25 24  1  0  0  0  0
 25 26  1  0  0  0  0
 25 30  1  0  0  0  0
 25 74  1  1  0  0  0
 26 27  1  0  0  0  0
 26 52  1  0  0  0  0
 26 75  1  1  0  0  0
 27 28  1  0  0  0  0
 27 51  1  0  0  0  0
 27 76  1  6  0  0  0
 28 29  1  0  0  0  0
 28 77  1  6  0  0  0
 28 36  1  0  0  0  0
 29 30  1  0  0  0  0
 30 31  1  0  0  0  0
 30 78  1  6  0  0  0
 31 32  2  0  0  0  0
 31 33  1  0  0  0  0
 33 34  1  0  0  0  0
 34 35  1  0  0  0  0
 34 79  1  0  0  0  0
 34 80  1  0  0  0  0
 35 81  1  0  0  0  0
 37 36  1  0  0  0  0
 37 38  1  0  0  0  0
 37 42  1  0  0  0  0
 37 82  1  1  0  0  0
 38 39  1  0  0  0  0
 38 50  1  0  0  0  0
 38 83  1  1  0  0  0
 39 40  1  0  0  0  0
 39 49  1  0  0  0  0
 39 84  1  6  0  0  0
 40 41  1  0  0  0  0
 40 85  1  6  0  0  0
 40 48  1  0  0  0  0
 41 42  1  0  0  0  0
 42 43  1  0  0  0  0
 42 86  1  1  0  0  0
 43 44  2  0  0  0  0
 43 45  1  0  0  0  0
 45 46  1  0  0  0  0
 46 47  1  0  0  0  0
 46 87  1  0  0  0  0
 46 88  1  0  0  0  0
 47 89  1  0  0  0  0
 48 90  1  0  0  0  0
 49 91  1  0  0  0  0
 50 92  1  0  0  0  0
 51 93  1  0  0  0  0
 52 94  1  0  0  0  0
 53 95  1  0  0  0  0
 54 96  1  0  0  0  0
 55 97  1  0  0  0  0
 56 98  1  0  0  0  0
 57 99  1  0  0  0  0
M  END
>  <DRUGBANK_ID>
DB13621

>  <COMMON_NAME>
Tetragalacturonic acid hydroxymethylester

>  <CAS_NUMBER>
53008-15-4

>  <UNII>
94C20R1E96

$$$$
