
 OpenBabel10282417193D

 43 46  0  0  0  0  0  0  0  0999 V2000
    1.0738    0.0844   -0.0289 C   0  0  0  0  0  0  0  0  0  0  0  0
    0.5504    0.5784   -1.3571 C   0  0  0  0  0  0  0  0  0  0  0  0
   -0.1635   -0.1753   -2.0227 O   0  0  0  0  0  0  0  0  0  0  0  0
    0.9534    1.8537   -1.7690 N   0  0  0  0  0  0  0  0  0  0  0  0
    1.7893    2.7413   -0.9537 C   0  0  0  0  0  0  0  0  0  0  0  0
    0.4775    2.3892   -3.0143 C   0  0  0  0  0  0  0  0  0  0  0  0
   -0.8572    2.2310   -3.4073 C   0  0  0  0  0  0  0  0  0  0  0  0
   -1.3213    2.7545   -4.6179 C   0  0  0  0  0  0  0  0  0  0  0  0
   -0.4622    3.4709   -5.4446 C   0  0  0  0  0  0  0  0  0  0  0  0
    0.8554    3.7039   -5.0425 C   0  0  0  0  0  0  0  0  0  0  0  0
    1.3292    3.1174   -3.8542 C   0  0  0  0  0  0  0  0  0  0  0  0
    1.7239    4.6015   -5.8231 C   0  0  0  0  0  0  0  0  0  0  0  0
    1.3437    5.8813   -6.0047 C   0  0  0  0  0  0  0  0  0  0  0  0
    2.3002    6.7384   -6.7438 C   0  0  0  0  0  0  0  0  0  0  0  0
    3.4595    6.3732   -7.1935 N   0  0  0  0  0  0  0  0  0  0  0  0
    3.8237    5.0719   -6.9731 C   0  0  0  0  0  0  0  0  0  0  0  0
    2.9671    4.1761   -6.3149 N   0  0  0  0  0  0  0  0  0  0  0  0
    3.5182    2.9412   -6.2234 N   0  0  0  0  0  0  0  0  0  0  0  0
    4.7061    3.0596   -6.8074 C   0  0  0  0  0  0  0  0  0  0  0  0
    4.9748    4.3625   -7.2796 C   0  0  0  0  0  0  0  0  0  0  0  0
    6.1948    4.7895   -7.9518 C   0  0  0  0  0  0  0  0  0  0  0  0
    7.0871    3.9718   -8.1912 O   0  0  0  0  0  0  0  0  0  0  0  0
    6.3058    6.1972   -8.2798 C   0  0  0  0  0  0  0  0  0  0  0  0
    6.3059    7.2850   -7.4266 C   0  0  0  0  0  0  0  0  0  0  0  0
    6.3747    8.5246   -8.1228 C   0  0  0  0  0  0  0  0  0  0  0  0
    6.4748    8.3444   -9.4842 C   0  0  0  0  0  0  0  0  0  0  0  0
    6.4999    6.6840   -9.9104 S   0  0  0  0  0  0  0  0  0  0  0  0
    0.7183   -0.9380    0.1371 H   0  0  0  0  0  0  0  0  0  0  0  0
    0.6986    0.7066    0.7873 H   0  0  0  0  0  0  0  0  0  0  0  0
    2.1669    0.0579   -0.0329 H   0  0  0  0  0  0  0  0  0  0  0  0
    2.7054    3.0118   -1.4835 H   0  0  0  0  0  0  0  0  0  0  0  0
    1.2156    3.6463   -0.7211 H   0  0  0  0  0  0  0  0  0  0  0  0
    2.0812    2.2916   -0.0039 H   0  0  0  0  0  0  0  0  0  0  0  0
   -1.5630    1.7087   -2.7664 H   0  0  0  0  0  0  0  0  0  0  0  0
   -2.3584    2.6104   -4.9081 H   0  0  0  0  0  0  0  0  0  0  0  0
   -0.8243    3.8395   -6.4018 H   0  0  0  0  0  0  0  0  0  0  0  0
    2.3904    3.1812   -3.6251 H   0  0  0  0  0  0  0  0  0  0  0  0
    0.4267    6.3232   -5.6386 H   0  0  0  0  0  0  0  0  0  0  0  0
    1.9731    7.7796   -6.9065 H   0  0  0  0  0  0  0  0  0  0  0  0
    5.3392    2.1820   -6.8624 H   0  0  0  0  0  0  0  0  0  0  0  0
    6.2118    7.1906   -6.3523 H   0  0  0  0  0  0  0  0  0  0  0  0
    6.3447    9.4966   -7.6469 H   0  0  0  0  0  0  0  0  0  0  0  0
    6.5395    9.1098  -10.2464 H   0  0  0  0  0  0  0  0  0  0  0  0
  1  2  1  0  0  0  0
  1 28  1  0  0  0  0
  1 29  1  0  0  0  0
  1 30  1  0  0  0  0
  2  3  2  0  0  0  0
  2  4  1  0  0  0  0
  4  5  1  0  0  0  0
  4  6  1  0  0  0  0
  5 31  1  0  0  0  0
  5 32  1  0  0  0  0
  5 33  1  0  0  0  0
  6  7  2  0  0  0  0
  6 11  1  0  0  0  0
  7  8  1  0  0  0  0
  7 34  1  0  0  0  0
  8  9  2  0  0  0  0
  8 35  1  0  0  0  0
  9 10  1  0  0  0  0
  9 36  1  0  0  0  0
 10 11  2  0  0  0  0
 10 12  1  0  0  0  0
 11 37  1  0  0  0  0
 12 13  2  0  0  0  0
 12 17  1  0  0  0  0
 13 14  1  0  0  0  0
 13 38  1  0  0  0  0
 14 15  2  0  0  0  0
 14 39  1  0  0  0  0
 15 16  1  0  0  0  0
 16 17  1  0  0  0  0
 16 20  2  0  0  0  0
 17 18  1  0  0  0  0
 18 19  2  0  0  0  0
 19 20  1  0  0  0  0
 19 40  1  0  0  0  0
 20 21  1  0  0  0  0
 21 22  2  0  0  0  0
 21 23  1  0  0  0  0
 23 24  2  0  0  0  0
 23 27  1  0  0  0  0
 24 25  1  0  0  0  0
 24 41  1  0  0  0  0
 25 26  2  0  0  0  0
 25 42  1  0  0  0  0
 26 27  1  0  0  0  0
 26 43  1  0  0  0  0
M  END
>  <DRUGBANK_ID>
DB12590

>  <COMMON_NAME>
Indiplon

>  <CAS_NUMBER>
325715-02-4

>  <UNII>
8BT63DA42E

>  <SYNONYMS>
Indiplon

$$$$
