
 OpenBabel10282417173D

 48 48  0  0  0  0  0  0  0  0999 V2000
    1.0315    0.1788   -0.2284 N   0  0  0  0  0  0  0  0  0  0  0  0
    0.4257    1.0440    0.7023 C   0  0  0  0  0  0  0  0  0  0  0  0
    0.5813   -0.7657   -1.2270 C   0  0  0  0  0  0  0  0  0  0  0  0
   -1.1344    1.1921    0.8679 C   0  0  3  0  0  0  0  0  0  0  0  0
    1.1841    1.6666    1.4323 O   0  0  0  0  0  0  0  0  0  0  0  0
   -1.7224    0.6734    2.1726 N   0  0  0  0  0  0  0  0  0  0  0  0
   -0.4670   -0.5329   -2.1469 C   0  0  0  0  0  0  0  0  0  0  0  0
    1.0761   -2.1098   -1.1661 C   0  0  0  0  0  0  0  0  0  0  0  0
   -0.6082   -2.8606   -2.7971 C   0  0  0  0  0  0  0  0  0  0  0  0
   -1.6371    2.6375    0.5157 C   0  0  0  0  0  0  0  0  0  0  0  0
   -3.2106    0.7271    2.2073 C   0  0  0  0  0  0  0  0  0  0  0  0
   -1.2285   -0.6418    2.6475 C   0  0  0  0  0  0  0  0  0  0  0  0
   -1.0582   -1.5665   -2.8970 C   0  0  0  0  0  0  0  0  0  0  0  0
    0.4543   -3.1305   -1.9430 C   0  0  0  0  0  0  0  0  0  0  0  0
    1.9933   -2.5912   -0.0564 C   0  0  0  0  0  0  0  0  0  0  0  0
   -1.1346    0.7642   -2.3462 C   0  0  0  0  0  0  0  0  0  0  0  0
   -1.6735   -1.9622    1.9714 C   0  0  0  0  0  0  0  0  0  0  0  0
   -4.0027   -0.1038    1.1867 C   0  0  0  0  0  0  0  0  0  0  0  0
   -1.2084    3.2280   -0.8253 C   0  0  0  0  0  0  0  0  0  0  0  0
   -1.4707   -1.9442    0.5009 C   0  0  0  0  0  0  0  0  0  0  0  0
    2.0037    0.0655    0.0471 H   0  0  0  0  0  0  0  0  0  0  0  0
   -1.5603    0.5362    0.1609 H   0  0  0  0  0  0  0  0  0  0  0  0
   -1.1327   -3.6459   -3.3332 H   0  0  0  0  0  0  0  0  0  0  0  0
   -2.7315    2.6178    0.4535 H   0  0  0  0  0  0  0  0  0  0  0  0
   -1.3672    3.3496    1.3010 H   0  0  0  0  0  0  0  0  0  0  0  0
   -3.5549    0.4569    3.2137 H   0  0  0  0  0  0  0  0  0  0  0  0
   -3.5373    1.7658    2.0987 H   0  0  0  0  0  0  0  0  0  0  0  0
   -0.1318   -0.6136    2.6804 H   0  0  0  0  0  0  0  0  0  0  0  0
   -1.5178   -0.7505    3.7016 H   0  0  0  0  0  0  0  0  0  0  0  0
   -1.9338   -1.3500   -3.5093 H   0  0  0  0  0  0  0  0  0  0  0  0
    0.7122   -4.1775   -1.7930 H   0  0  0  0  0  0  0  0  0  0  0  0
    2.9466   -2.0643   -0.0786 H   0  0  0  0  0  0  0  0  0  0  0  0
    1.5270   -2.4546    0.9281 H   0  0  0  0  0  0  0  0  0  0  0  0
    2.1916   -3.6669   -0.1433 H   0  0  0  0  0  0  0  0  0  0  0  0
   -1.8048    0.9027   -1.5139 H   0  0  0  0  0  0  0  0  0  0  0  0
   -0.3743    1.5286   -2.4786 H   0  0  0  0  0  0  0  0  0  0  0  0
   -1.8295    0.8104   -3.1862 H   0  0  0  0  0  0  0  0  0  0  0  0
   -1.0401   -2.7733    2.3463 H   0  0  0  0  0  0  0  0  0  0  0  0
   -2.6903   -2.2605    2.2032 H   0  0  0  0  0  0  0  0  0  0  0  0
   -4.0022   -1.1673    1.4162 H   0  0  0  0  0  0  0  0  0  0  0  0
   -5.0594    0.1676    1.1871 H   0  0  0  0  0  0  0  0  0  0  0  0
   -3.6449    0.0306    0.1637 H   0  0  0  0  0  0  0  0  0  0  0  0
   -1.8430    2.8431   -1.6285 H   0  0  0  0  0  0  0  0  0  0  0  0
   -1.3901    4.3008   -0.8936 H   0  0  0  0  0  0  0  0  0  0  0  0
   -0.1533    3.0394   -1.0362 H   0  0  0  0  0  0  0  0  0  0  0  0
   -0.4287   -1.7084    0.4837 H   0  0  0  0  0  0  0  0  0  0  0  0
   -1.6440   -2.8798   -0.0214 H   0  0  0  0  0  0  0  0  0  0  0  0
   -2.0203   -1.1979   -0.0580 H   0  0  0  0  0  0  0  0  0  0  0  0
  1 21  1  0  0  0  0
  2  1  1  0  0  0  0
  3  1  1  0  0  0  0
  4  2  1  0  0  0  0
  4 22  1  0  0  0  0
  5  2  2  0  0  0  0
  6  4  1  0  0  0  0
  7  3  1  0  0  0  0
  8  3  2  0  0  0  0
  9 14  2  0  0  0  0
  9 23  1  0  0  0  0
 10  4  1  0  0  0  0
 10 24  1  0  0  0  0
 10 25  1  0  0  0  0
 11  6  1  0  0  0  0
 11 26  1  0  0  0  0
 11 27  1  0  0  0  0
 12  6  1  0  0  0  0
 12 28  1  0  0  0  0
 12 29  1  0  0  0  0
 13  7  2  0  0  0  0
 13  9  1  0  0  0  0
 13 30  1  0  0  0  0
 14  8  1  0  0  0  0
 14 31  1  0  0  0  0
 15  8  1  0  0  0  0
 15 32  1  0  0  0  0
 15 33  1  0  0  0  0
 15 34  1  0  0  0  0
 16  7  1  0  0  0  0
 16 35  1  0  0  0  0
 16 36  1  0  0  0  0
 16 37  1  0  0  0  0
 17 12  1  0  0  0  0
 17 38  1  0  0  0  0
 17 39  1  0  0  0  0
 18 11  1  0  0  0  0
 18 40  1  0  0  0  0
 18 41  1  0  0  0  0
 18 42  1  0  0  0  0
 19 10  1  0  0  0  0
 19 43  1  0  0  0  0
 19 44  1  0  0  0  0
 19 45  1  0  0  0  0
 20 17  1  0  0  0  0
 20 46  1  0  0  0  0
 20 47  1  0  0  0  0
 20 48  1  0  0  0  0
M  END
>  <DRUGBANK_ID>
DB08987

>  <COMMON_NAME>
Etidocaine

>  <CAS_NUMBER>
36637-18-0

>  <UNII>
I6CQM0F31V

>  <SYNONYMS>
Etidocaina; Etidocaine; Etidocainum

$$$$
