
 OpenBabel10282417123D

 43 45  0  0  1  0  0  0  0  0999 V2000
    1.0016    0.0138   -0.0214 C   0  0  0  0  0  0  0  0  0  0  0  0
    0.4518    0.8727   -1.1238 C   0  0  0  0  0  0  0  0  0  0  0  0
   -1.8239    2.1389   -4.8661 C   0  0  0  0  0  0  0  0  0  0  0  0
   -0.4286   -1.1795   -6.9049 C   0  0  0  0  0  0  0  0  0  0  0  0
    1.1977    2.4530   -8.7248 C   0  0  0  0  0  0  0  0  0  0  0  0
   -1.1825    3.5180   -4.8861 C   0  0  2  0  0  0  0  0  0  0  0  0
    0.7082    0.3914   -8.7185 C   0  0  0  0  0  0  0  0  0  0  0  0
   -1.3657    4.7232   -5.7995 C   0  0  2  0  0  0  0  0  0  0  0  0
   -0.6378    4.3477   -7.0922 C   0  0  2  0  0  0  0  0  0  0  0  0
    0.5190   -0.9766   -8.9897 C   0  0  0  0  0  0  0  0  0  0  0  0
    0.2314    0.8826   -7.5090 C   0  0  0  0  0  0  0  0  0  0  0  0
    0.4260    3.3738   -6.6287 C   0  0  2  0  0  0  0  0  0  0  0  0
    0.8702   -1.5420  -10.1935 N   0  0  0  0  0  0  0  0  0  0  0  0
   -0.0235   -1.7668   -8.0433 N   0  0  0  0  0  0  0  0  0  0  0  0
   -0.4210    0.1336   -6.6010 N   0  0  0  0  0  0  0  0  0  0  0  0
    1.2736    1.3872   -9.4781 N   0  0  0  0  0  0  0  0  0  0  0  0
    0.8826    0.2990   -2.3944 N   0  0  0  0  0  0  0  0  0  0  0  0
    0.5839    2.2162   -7.5075 N   0  0  0  0  0  0  0  0  0  0  0  0
   -0.6225    5.8289   -5.2012 O   0  0  0  0  0  0  0  0  0  0  0  0
   -0.0047    5.4573   -7.7348 O   0  0  0  0  0  0  0  0  0  0  0  0
    0.9830    2.5888   -3.1672 O   0  0  0  0  0  0  0  0  0  0  0  0
    1.2428    0.6594   -4.7582 O   0  0  0  0  0  0  0  0  0  0  0  0
   -1.1259    1.2887   -3.8690 O   0  0  0  0  0  0  0  0  0  0  0  0
    0.1466    3.1373   -5.2778 O   0  0  0  0  0  0  0  0  0  0  0  0
    0.5336    1.3088   -3.6720 S   0  0  0  0  0  0  0  0  0  0  0  0
   -1.2059    3.8689   -3.8446 H   0  0  0  0  0  0  0  0  0  0  0  0
   -2.3877    5.0805   -5.9422 H   0  0  0  0  0  0  0  0  0  0  0  0
   -1.3348    3.8805   -7.7905 H   0  0  0  0  0  0  0  0  0  0  0  0
    1.4265    3.8175   -6.5686 H   0  0  0  0  0  0  0  0  0  0  0  0
    0.6607   -1.0178   -0.1375 H   0  0  0  0  0  0  0  0  0  0  0  0
    0.6674    0.4077    0.9387 H   0  0  0  0  0  0  0  0  0  0  0  0
    2.0975    0.0157   -0.0442 H   0  0  0  0  0  0  0  0  0  0  0  0
   -0.6399    0.9009   -1.1110 H   0  0  0  0  0  0  0  0  0  0  0  0
    0.8418    1.8878   -0.9905 H   0  0  0  0  0  0  0  0  0  0  0  0
   -1.7572    1.6664   -5.8398 H   0  0  0  0  0  0  0  0  0  0  0  0
   -2.8977    2.1446   -4.6373 H   0  0  0  0  0  0  0  0  0  0  0  0
   -0.8094   -1.8505   -6.1373 H   0  0  0  0  0  0  0  0  0  0  0  0
    1.5432    3.4449   -8.9890 H   0  0  0  0  0  0  0  0  0  0  0  0
    1.2482   -0.9414  -10.9117 H   0  0  0  0  0  0  0  0  0  0  0  0
    0.6801   -2.5190  -10.3398 H   0  0  0  0  0  0  0  0  0  0  0  0
    1.8999    0.1955   -2.4619 H   0  0  0  0  0  0  0  0  0  0  0  0
    0.2295    5.4805   -4.8661 H   0  0  0  0  0  0  0  0  0  0  0  0
    0.5393    5.9134   -7.0604 H   0  0  0  0  0  0  0  0  0  0  0  0
  1 30  1  0  0  0  0
  1 31  1  0  0  0  0
  1 32  1  0  0  0  0
  2  1  1  0  0  0  0
  2 33  1  0  0  0  0
  2 34  1  0  0  0  0
  3 35  1  0  0  0  0
  3 36  1  0  0  0  0
  4 37  1  0  0  0  0
  5 38  1  0  0  0  0
  6  3  1  0  0  0  0
  6 26  1  1  0  0  0
  8  6  1  0  0  0  0
  8 19  1  0  0  0  0
  8 27  1  6  0  0  0
  9  8  1  0  0  0  0
  9 20  1  0  0  0  0
  9 28  1  6  0  0  0
 10  7  2  0  0  0  0
 11  7  1  0  0  0  0
 12  9  1  0  0  0  0
 12 29  1  6  0  0  0
 12 18  1  0  0  0  0
 13 10  1  0  0  0  0
 13 39  1  0  0  0  0
 13 40  1  0  0  0  0
 14  4  2  0  0  0  0
 14 10  1  0  0  0  0
 15  4  1  0  0  0  0
 15 11  2  0  0  0  0
 16  5  2  0  0  0  0
 16  7  1  0  0  0  0
 17  2  1  0  0  0  0
 17 41  1  0  0  0  0
 18  5  1  0  0  0  0
 18 11  1  0  0  0  0
 19 42  1  0  0  0  0
 20 43  1  0  0  0  0
 23  3  1  0  0  0  0
 24  6  1  0  0  0  0
 24 12  1  0  0  0  0
 25 17  1  0  0  0  0
 25 21  2  0  0  0  0
 25 22  2  0  0  0  0
 25 23  1  0  0  0  0
M  END
>  <DRUGBANK_ID>
DB02162

>  <SECONDARY_ACCESSION_NUMBERS>
EXPT00240

>  <COMMON_NAME>
5'-O-(N-Ethyl-Sulfamoyl)Adenosine

$$$$
