
 OpenBabel10282417153D

 74 76  0  0  1  0  0  0  0  0999 V2000
   -0.6872    2.0478    0.0590 B   0  0  0  0  0  0  0  0  0  0  0  0
    0.2327    1.0698    0.9293 C   0  0  2  0  0  0  0  0  0  0  0  0
    0.9927    0.1329    0.0046 C   0  0  0  0  0  0  0  0  0  0  0  0
    1.9669    0.9215   -0.8553 C   0  0  0  0  0  0  0  0  0  0  0  0
    2.9729    1.6291    0.0378 C   0  0  0  0  0  0  0  0  0  0  0  0
    3.6865    0.6677    0.8013 O   0  0  0  0  0  0  0  0  0  0  0  0
    2.7764   -0.0690    1.6046 C   0  0  0  0  0  0  0  0  0  0  0  0
   -0.6124    0.2821    1.8382 N   0  0  0  0  0  0  0  0  0  0  0  0
   -0.4163    0.3776    3.2920 C   0  0  0  0  0  0  0  0  0  0  0  0
   -1.1470   -0.3034    4.0778 O   0  0  0  0  0  0  0  0  0  0  0  0
    0.6604    1.2908    3.8552 C   0  0  2  0  0  0  0  0  0  0  0  0
    0.9199    1.0029    5.3081 C   0  0  0  0  0  0  0  0  0  0  0  0
    1.6772    2.2779    5.7877 C   0  0  0  0  0  0  0  0  0  0  0  0
    1.0412    3.3977    4.9598 C   0  0  0  0  0  0  0  0  0  0  0  0
    0.2246    2.6989    3.8965 N   0  0  0  0  0  0  0  0  0  0  0  0
   -0.8146    3.3117    3.0566 C   0  0  0  0  0  0  0  0  0  0  0  0
   -1.0970    4.5433    3.1924 O   0  0  0  0  0  0  0  0  0  0  0  0
   -1.5515    2.4722    2.0257 C   0  0  1  0  0  0  0  0  0  0  0  0
   -0.5554    1.9092    1.0251 C   0  0  0  0  0  0  0  0  0  0  0  0
    0.4590    1.0423    1.7530 C   0  0  0  0  0  0  0  0  0  0  0  0
    1.3855    1.5759    2.5405 C   0  0  0  0  0  0  0  0  0  0  0  0
    2.1478    0.7807    3.3617 C   0  0  0  0  0  0  0  0  0  0  0  0
    2.0364   -0.5815    3.3227 C   0  0  0  0  0  0  0  0  0  0  0  0
    1.0560   -1.0697    2.5848 C   0  0  0  0  0  0  0  0  0  0  0  0
    0.3354   -0.3306    1.6170 C   0  0  0  0  0  0  0  0  0  0  0  0
   -2.2465    1.3664    2.7004 N   0  0  0  0  0  0  0  0  0  0  0  0
   -3.7078    1.2451    2.5977 C   0  0  0  0  0  0  0  0  0  0  0  0
   -4.3087    0.2891    3.1810 O   0  0  0  0  0  0  0  0  0  0  0  0
   -4.4482    2.1960    1.8467 O   0  0  0  0  0  0  0  0  0  0  0  0
   -5.8599    2.0788    1.7475 C   0  0  0  0  0  0  0  0  0  0  0  0
   -6.2138    0.7476    1.1050 C   0  0  0  0  0  0  0  0  0  0  0  0
   -5.4410   -0.2711    1.4631 C   0  0  0  0  0  0  0  0  0  0  0  0
   -5.7002   -1.5404    1.0052 C   0  0  0  0  0  0  0  0  0  0  0  0
   -6.6996   -1.7714    0.1012 C   0  0  0  0  0  0  0  0  0  0  0  0
   -7.4911   -0.7505   -0.1729 C   0  0  0  0  0  0  0  0  0  0  0  0
   -7.2020    0.5974    0.1461 C   0  0  0  0  0  0  0  0  0  0  0  0
   -0.0855    3.0654   -0.8643 O   0  0  0  0  0  0  0  0  0  0  0  0
   -2.1779    1.9328    0.1792 O   0  0  0  0  0  0  0  0  0  0  0  0
    0.9280    1.6487    1.5005 H   0  0  0  0  0  0  0  0  0  0  0  0
    1.5304   -0.5915    0.5799 H   0  0  0  0  0  0  0  0  0  0  0  0
    0.2845   -0.3652   -0.6241 H   0  0  0  0  0  0  0  0  0  0  0  0
    2.4823    0.2541   -1.5140 H   0  0  0  0  0  0  0  0  0  0  0  0
    1.4292    1.6459   -1.4306 H   0  0  0  0  0  0  0  0  0  0  0  0
    3.6588    2.1842   -0.5675 H   0  0  0  0  0  0  0  0  0  0  0  0
    2.4576    2.2965    0.6965 H   0  0  0  0  0  0  0  0  0  0  0  0
    2.2610    0.5984    2.2633 H   0  0  0  0  0  0  0  0  0  0  0  0
    2.0682   -0.5671    0.9759 H   0  0  0  0  0  0  0  0  0  0  0  0
    3.3141   -0.7934    2.1799 H   0  0  0  0  0  0  0  0  0  0  0  0
   -1.3349   -0.3306    1.4602 H   0  0  0  0  0  0  0  0  0  0  0  0
    1.5060    1.1252    3.2209 H   0  0  0  0  0  0  0  0  0  0  0  0
    0.0277    0.8076    5.8654 H   0  0  0  0  0  0  0  0  0  0  0  0
    1.5260    0.1289    5.4247 H   0  0  0  0  0  0  0  0  0  0  0  0
    1.5979    2.4401    6.8423 H   0  0  0  0  0  0  0  0  0  0  0  0
    2.7251    2.1999    5.5859 H   0  0  0  0  0  0  0  0  0  0  0  0
    0.4384    4.0442    5.5628 H   0  0  0  0  0  0  0  0  0  0  0  0
    1.7976    4.0066    4.5106 H   0  0  0  0  0  0  0  0  0  0  0  0
   -2.2656    3.0825    1.5133 H   0  0  0  0  0  0  0  0  0  0  0  0
   -1.0741    1.3183    0.2994 H   0  0  0  0  0  0  0  0  0  0  0  0
   -0.0496    2.7141    0.5340 H   0  0  0  0  0  0  0  0  0  0  0  0
    1.5398    2.6347    2.5355 H   0  0  0  0  0  0  0  0  0  0  0  0
    2.8387    1.2339    4.0415 H   0  0  0  0  0  0  0  0  0  0  0  0
    2.7074   -1.2177    3.8611 H   0  0  0  0  0  0  0  0  0  0  0  0
    0.7880   -2.0955    2.7287 H   0  0  0  0  0  0  0  0  0  0  0  0
   -0.2516   -0.7905    0.8497 H   0  0  0  0  0  0  0  0  0  0  0  0
   -1.7147    0.6833    3.2398 H   0  0  0  0  0  0  0  0  0  0  0  0
   -6.2915    2.1289    2.7253 H   0  0  0  0  0  0  0  0  0  0  0  0
   -6.2428    2.8776    1.1472 H   0  0  0  0  0  0  0  0  0  0  0  0
   -4.6089   -0.1020    2.1142 H   0  0  0  0  0  0  0  0  0  0  0  0
   -5.1114   -2.3599    1.3612 H   0  0  0  0  0  0  0  0  0  0  0  0
   -6.8331   -2.7279   -0.3594 H   0  0  0  0  0  0  0  0  0  0  0  0
   -8.4154   -0.9569   -0.6709 H   0  0  0  0  0  0  0  0  0  0  0  0
   -7.7014    1.4255   -0.3119 H   0  0  0  0  0  0  0  0  0  0  0  0
    0.9118    3.0058   -0.8217 H   0  0  0  0  0  0  0  0  0  0  0  0
   -2.4049    1.2104    0.8324 H   0  0  0  0  0  0  0  0  0  0  0  0
  1 37  1  0  0  0  0
  1 38  1  0  0  0  0
  2  8  1  0  0  0  0
  2 39  1  1  0  0  0
  2  3  1  0  0  0  0
  2  1  1  0  0  0  0
  3  4  1  0  0  0  0
  3 40  1  0  0  0  0
  3 41  1  0  0  0  0
  4  5  1  0  0  0  0
  4 42  1  0  0  0  0
  4 43  1  0  0  0  0
  5  6  1  0  0  0  0
  5 44  1  0  0  0  0
  5 45  1  0  0  0  0
  6  7  1  0  0  0  0
  7 46  1  0  0  0  0
  7 47  1  0  0  0  0
  7 48  1  0  0  0  0
  8  9  1  0  0  0  0
  8 49  1  0  0  0  0
  9 10  2  0  0  0  0
 11  9  1  0  0  0  0
 11 12  1  0  0  0  0
 11 15  1  0  0  0  0
 11 50  1  6  0  0  0
 12 13  1  0  0  0  0
 12 51  1  0  0  0  0
 12 52  1  0  0  0  0
 13 14  1  0  0  0  0
 13 53  1  0  0  0  0
 13 54  1  0  0  0  0
 14 15  1  0  0  0  0
 14 55  1  0  0  0  0
 14 56  1  0  0  0  0
 15 16  1  0  0  0  0
 16 17  2  0  0  0  0
 16 18  1  0  0  0  0
 18 19  1  0  0  0  0
 18 26  1  0  0  0  0
 18 57  1  6  0  0  0
 19 20  1  0  0  0  0
 19 58  1  0  0  0  0
 19 59  1  0  0  0  0
 20 21  2  0  0  0  0
 20 25  1  0  0  0  0
 21 22  1  0  0  0  0
 21 60  1  0  0  0  0
 22 23  2  0  0  0  0
 22 61  1  0  0  0  0
 23 24  1  0  0  0  0
 23 62  1  0  0  0  0
 24 25  2  0  0  0  0
 24 63  1  0  0  0  0
 25 64  1  0  0  0  0
 26 27  1  0  0  0  0
 26 65  1  0  0  0  0
 27 28  2  0  0  0  0
 27 29  1  0  0  0  0
 29 30  1  0  0  0  0
 30 31  1  0  0  0  0
 30 66  1  0  0  0  0
 30 67  1  0  0  0  0
 31 32  2  0  0  0  0
 31 36  1  0  0  0  0
 32 33  1  0  0  0  0
 32 68  1  0  0  0  0
 33 34  2  0  0  0  0
 33 69  1  0  0  0  0
 34 35  1  0  0  0  0
 34 70  1  0  0  0  0
 35 36  2  0  0  0  0
 35 71  1  0  0  0  0
 36 72  1  0  0  0  0
 37 73  1  0  0  0  0
 38 74  1  0  0  0  0
M  END
>  <DRUGBANK_ID>
DB05714

>  <COMMON_NAME>
Flovagatran

>  <CAS_NUMBER>
871576-03-3

>  <UNII>
2WA50NUH6H

>  <SYNONYMS>
Flovagatran

$$$$
