
 OpenBabel10282417213D

 61 64  0  0  0  0  0  0  0  0999 V2000
    3.1923    2.7690   -0.7137 Cl  0  0  0  0  0  0  0  0  0  0  0  0
    0.7056   -0.5682    0.6595 F   0  0  0  0  0  0  0  0  0  0  0  0
    0.7966    3.3624   -4.1946 O   0  0  0  0  0  0  0  0  0  0  0  0
    4.2833    5.4216    0.8806 O   0  0  0  0  0  0  0  0  0  0  0  0
    5.8174   -0.3894   -2.5739 O   0  0  0  0  0  0  0  0  0  0  0  0
    5.4412    5.0928   -2.4161 O   0  0  0  0  0  0  0  0  0  0  0  0
    5.8045    3.2284   -1.1504 O   0  0  0  0  0  0  0  0  0  0  0  0
    0.7133    3.2016   -0.8691 C   0  0  2  0  0  0  0  0  0  0  0  0
    1.7293    2.5073   -1.9320 C   0  0  2  0  0  0  0  0  0  0  0  0
    0.9185    5.1158   -0.6052 C   0  0  1  0  0  0  0  0  0  0  0  0
    1.7929    5.1692   -1.7729 C   0  0  1  0  0  0  0  0  0  0  0  0
    1.9002    0.9045   -2.3596 C   0  0  2  0  0  0  0  0  0  0  0  0
    1.8438    3.3292   -3.2518 C   0  0  2  0  0  0  0  0  0  0  0  0
    2.8692    6.1408   -0.8553 C   0  0  2  0  0  0  0  0  0  0  0  0
    2.4874    4.5764   -2.8625 C   0  0  0  0  0  0  0  0  0  0  0  0
    0.7801    1.9295    0.3551 C   0  0  0  0  0  0  0  0  0  0  0  0
    2.3316    0.0983   -1.1007 C   0  0  0  0  0  0  0  0  0  0  0  0
    1.2752    6.9356   -1.5450 C   0  0  0  0  0  0  0  0  0  0  0  0
    2.7997    7.2693   -1.7341 C   0  0  1  0  0  0  0  0  0  0  0  0
    1.0056    0.4006   -0.2474 C   0  0  1  0  0  0  0  0  0  0  0  0
    3.0944    0.7801   -3.1884 C   0  0  0  0  0  0  0  0  0  0  0  0
    0.0533    5.3116   -2.4224 C   0  0  0  0  0  0  0  0  0  0  0  0
    4.2019    5.7048   -0.3154 C   0  0  0  0  0  0  0  0  0  0  0  0
    1.0035    0.5219   -3.6132 C   0  0  0  0  0  0  0  0  0  0  0  0
    3.7329   -0.2297   -1.0360 C   0  0  0  0  0  0  0  0  0  0  0  0
    3.7297   -0.3222   -3.5939 C   0  0  0  0  0  0  0  0  0  0  0  0
    4.5981   -0.3846   -2.4088 C   0  0  0  0  0  0  0  0  0  0  0  0
    3.3831    8.5870   -1.2790 C   0  0  0  0  0  0  0  0  0  0  0  0
    5.4244    5.8242   -1.2094 C   0  0  0  0  0  0  0  0  0  0  0  0
    5.5811    3.7557   -2.2115 C   0  0  0  0  0  0  0  0  0  0  0  0
    5.2500    3.0234   -3.4721 C   0  0  0  0  0  0  0  0  0  0  0  0
   -0.3417    3.0756   -1.1610 H   0  0  0  0  0  0  0  0  0  0  0  0
    1.3043    5.1800    0.3972 H   0  0  0  0  0  0  0  0  0  0  0  0
    0.0663    3.9391   -3.9737 H   0  0  0  0  0  0  0  0  0  0  0  0
    2.5571    2.9837   -3.9555 H   0  0  0  0  0  0  0  0  0  0  0  0
    2.4591    6.5614    0.1055 H   0  0  0  0  0  0  0  0  0  0  0  0
    2.7427    5.2222   -3.7080 H   0  0  0  0  0  0  0  0  0  0  0  0
    3.4303    4.3163   -2.4413 H   0  0  0  0  0  0  0  0  0  0  0  0
    1.6360    2.0057    1.0300 H   0  0  0  0  0  0  0  0  0  0  0  0
   -0.1014    1.9641    1.0098 H   0  0  0  0  0  0  0  0  0  0  0  0
    0.6478    7.8178   -1.4656 H   0  0  0  0  0  0  0  0  0  0  0  0
    1.1477    6.9083   -2.6642 H   0  0  0  0  0  0  0  0  0  0  0  0
    3.2489    7.0250   -2.7142 H   0  0  0  0  0  0  0  0  0  0  0  0
    0.1675    0.3044   -0.9660 H   0  0  0  0  0  0  0  0  0  0  0  0
    3.3184    1.6215   -3.7334 H   0  0  0  0  0  0  0  0  0  0  0  0
   -0.4941    4.3752   -2.4086 H   0  0  0  0  0  0  0  0  0  0  0  0
   -0.6238    5.9426   -1.7933 H   0  0  0  0  0  0  0  0  0  0  0  0
    0.0329    5.7173   -3.4350 H   0  0  0  0  0  0  0  0  0  0  0  0
   -0.0082    0.9151   -3.6249 H   0  0  0  0  0  0  0  0  0  0  0  0
    1.4356    1.0123   -4.5229 H   0  0  0  0  0  0  0  0  0  0  0  0
    1.0306   -0.5361   -3.9181 H   0  0  0  0  0  0  0  0  0  0  0  0
    4.4938   -0.2714   -0.2332 H   0  0  0  0  0  0  0  0  0  0  0  0
    4.1538   -0.1662   -4.5777 H   0  0  0  0  0  0  0  0  0  0  0  0
    4.3982    8.4777   -0.8784 H   0  0  0  0  0  0  0  0  0  0  0  0
    3.4771    9.2703   -2.1339 H   0  0  0  0  0  0  0  0  0  0  0  0
    2.7687    9.0561   -0.5176 H   0  0  0  0  0  0  0  0  0  0  0  0
    5.5031    6.8654   -1.5137 H   0  0  0  0  0  0  0  0  0  0  0  0
    6.3012    5.6056   -0.5998 H   0  0  0  0  0  0  0  0  0  0  0  0
    4.4171    3.4492   -4.0366 H   0  0  0  0  0  0  0  0  0  0  0  0
    6.0744    2.8944   -4.1467 H   0  0  0  0  0  0  0  0  0  0  0  0
    4.9712    2.0522   -3.1078 H   0  0  0  0  0  0  0  0  0  0  0  0
  3 34  1  0  0  0  0
  4 23  2  0  0  0  0
  5 27  2  0  0  0  0
  6 29  1  0  0  0  0
  6 30  1  0  0  0  0
  7 30  2  0  0  0  0
  8  9  1  0  0  0  0
  8 10  1  0  0  0  0
  8 16  1  0  0  0  0
  8 32  1  6  0  0  0
  9  1  1  1  0  0  0
  9 12  1  0  0  0  0
  9 13  1  0  0  0  0
 10 11  1  0  0  0  0
 10 18  1  0  0  0  0
 10 33  1  1  0  0  0
 11 14  1  0  0  0  0
 11 15  1  0  0  0  0
 11 22  1  6  0  0  0
 12 17  1  0  0  0  0
 12 21  1  0  0  0  0
 12 24  1  6  0  0  0
 13  3  1  0  0  0  0
 13 15  1  0  0  0  0
 13 35  1  6  0  0  0
 14 19  1  0  0  0  0
 14 36  1  1  0  0  0
 14 23  1  0  0  0  0
 15 37  1  0  0  0  0
 15 38  1  0  0  0  0
 16 20  1  0  0  0  0
 16 39  1  0  0  0  0
 16 40  1  0  0  0  0
 17 20  1  0  0  0  0
 17 25  2  0  0  0  0
 18 19  1  0  0  0  0
 18 41  1  0  0  0  0
 18 42  1  0  0  0  0
 19 28  1  0  0  0  0
 19 43  1  6  0  0  0
 20  2  1  0  0  0  0
 20 44  1  6  0  0  0
 21 26  2  0  0  0  0
 21 45  1  0  0  0  0
 22 46  1  0  0  0  0
 22 47  1  0  0  0  0
 22 48  1  0  0  0  0
 23 29  1  0  0  0  0
 24 49  1  0  0  0  0
 24 50  1  0  0  0  0
 24 51  1  0  0  0  0
 25 27  1  0  0  0  0
 25 52  1  0  0  0  0
 26 27  1  0  0  0  0
 26 53  1  0  0  0  0
 28 54  1  0  0  0  0
 28 55  1  0  0  0  0
 28 56  1  0  0  0  0
 29 57  1  0  0  0  0
 29 58  1  0  0  0  0
 30 31  1  0  0  0  0
 31 59  1  0  0  0  0
 31 60  1  0  0  0  0
 31 61  1  0  0  0  0
M  END
>  <DRUGBANK_ID>
DB14652

>  <SECONDARY_ACCESSION_NUMBERS>
DBSALT000939

>  <COMMON_NAME>
Clocortolone acetate

>  <CAS_NUMBER>
4258-85-9

>  <UNII>
85061HTR8T

>  <SYNONYMS>
Clocortolone acetate

$$$$
