
 OpenBabel10282417143D

155155  0  0  0  0  0  0  0  0999 V2000
    1.3379   -0.7875   -0.4523 C   0  0  2  0  0  0  0  0  0  0  0  0
    0.6421   -1.6620    1.1811 C   0  0  1  0  0  0  0  0  0  0  0  0
    1.0811    1.0994   -1.0268 C   0  0  0  0  0  0  0  0  0  0  0  0
    0.9286   -1.1634    2.8953 C   0  0  0  0  0  0  0  0  0  0  0  0
   -0.9536   -1.4520    1.3004 O   0  0  0  0  0  0  0  0  0  0  0  0
    1.5856    2.3091   -1.4519 O   0  0  0  0  0  0  0  0  0  0  0  0
    0.0860   -0.4776    3.7812 C   0  0  0  0  0  0  0  0  0  0  0  0
    0.5756    0.6033    4.8812 C   0  0  0  0  0  0  0  0  0  0  0  0
    0.0770    2.1250    4.8313 C   0  0  0  0  0  0  0  0  0  0  0  0
   -1.4421    2.1971    4.8373 C   0  0  0  0  0  0  0  0  0  0  0  0
   -1.9559    1.3765    6.0176 C   0  0  0  0  0  0  0  0  0  0  0  0
    3.1028    1.5702    1.8782 C   0  0  1  0  0  0  0  0  0  0  0  0
    2.7110    0.5785    0.8801 C   0  0  2  0  0  0  0  0  0  0  0  0
    2.2955    2.9563    1.4458 C   0  0  1  0  0  0  0  0  0  0  0  0
    3.2994    1.0877   -0.4522 O   0  0  0  0  0  0  0  0  0  0  0  0
    1.0345    0.4127    1.2406 C   0  0  0  0  0  0  0  0  0  0  0  0
    3.0699    3.3764    0.1674 C   0  0  2  0  0  0  0  0  0  0  0  0
    0.5550    3.3469    1.4171 O   0  0  0  0  0  0  0  0  0  0  0  0
    2.8612    2.3967   -0.9618 C   0  0  2  0  0  0  0  0  0  0  0  0
    0.5541    1.3822    2.1126 O   0  0  0  0  0  0  0  0  0  0  0  0
    4.5128    3.2370    0.3377 O   0  0  0  0  0  0  0  0  0  0  0  0
    2.9315    1.1263    3.1881 O   0  0  0  0  0  0  0  0  0  0  0  0
   -0.8800    2.6588    0.3145 S   0  0  0  0  0  0  0  0  0  0  0  0
   -0.7535    3.1486   -1.0444 O   0  0  0  0  0  0  0  0  0  0  0  0
   -1.1682    1.2616    0.5849 O   0  0  0  0  0  0  0  0  0  0  0  0
   -2.4552    2.6086    0.4828 O   0  0  0  0  0  0  0  0  0  0  0  0
   -1.4292    1.9607    7.3330 C   0  0  0  0  0  0  0  0  0  0  0  0
   -1.9347    3.3940    7.4895 C   0  0  0  0  0  0  0  0  0  0  0  0
   -3.4638    3.3923    7.4872 C   0  0  0  0  0  0  0  0  0  0  0  0
   -3.9733    2.5354    8.6474 C   0  0  0  0  0  0  0  0  0  0  0  0
   -3.4620    3.1123    9.9684 C   0  0  0  0  0  0  0  0  0  0  0  0
   -3.9671    4.5482   10.1329 C   0  0  0  0  0  0  0  0  0  0  0  0
   -5.4980    4.5705   10.1512 C   0  0  0  0  0  0  0  0  0  0  0  0
   -6.0338    3.7158   11.2980 C   0  0  0  0  0  0  0  0  0  0  0  0
   -5.5253    4.2530   12.6242 C   0  0  0  0  0  0  0  0  0  0  0  0
    1.4328   -0.6219   -4.8557 C   0  0  0  0  0  0  0  0  0  0  0  0
    2.9813   -0.6103   -4.8512 C   0  0  0  0  0  0  0  0  0  0  0  0
    3.5645   -2.0195   -5.0055 C   0  0  0  0  0  0  0  0  0  0  0  0
    2.9810   -2.6362   -6.2718 C   0  0  0  0  0  0  0  0  0  0  0  0
    3.4661   -1.7835   -7.4373 C   0  0  0  0  0  0  0  0  0  0  0  0
    4.9962   -1.7781   -7.4281 C   0  0  0  0  0  0  0  0  0  0  0  0
    5.4994   -3.2159   -7.5622 C   0  0  0  0  0  0  0  0  0  0  0  0
    4.9814   -3.7968   -8.8769 C   0  0  0  0  0  0  0  0  0  0  0  0
    5.4869   -2.9364  -10.0354 C   0  0  0  0  0  0  0  0  0  0  0  0
    7.0160   -2.9326  -10.0280 C   0  0  0  0  0  0  0  0  0  0  0  0
    7.5227   -4.3671  -10.1809 C   0  0  0  0  0  0  0  0  0  0  0  0
    0.5880   -1.1986   -1.5631 N   0  0  0  0  0  0  0  0  0  0  0  0
    1.4206   -1.1825   -2.5907 C   0  0  0  0  0  0  0  0  0  0  0  0
    0.8091   -1.5411   -3.8333 C   0  0  2  0  0  0  0  0  0  0  0  0
    2.7027   -1.1755   -2.4347 O   0  0  0  0  0  0  0  0  0  0  0  0
    1.1235   -2.9344   -3.8852 O   0  0  0  0  0  0  0  0  0  0  0  0
    7.0067   -4.9451  -11.4992 C   0  0  0  0  0  0  0  0  0  0  0  0
    7.5133   -4.0859  -12.6583 C   0  0  0  0  0  0  0  0  0  0  0  0
    9.0425   -4.0833  -12.6527 C   0  0  0  0  0  0  0  0  0  0  0  0
    9.5496   -5.5178  -12.8065 C   0  0  0  0  0  0  0  0  0  0  0  0
    9.0350   -6.0968  -14.1252 C   0  0  0  0  0  0  0  0  0  0  0  0
    9.5424   -5.2410  -15.2868 C   0  0  0  0  0  0  0  0  0  0  0  0
   11.0719   -5.2386  -15.2860 C   0  0  0  0  0  0  0  0  0  0  0  0
   11.5891   -6.6711  -15.4425 C   0  0  0  0  0  0  0  0  0  0  0  0
   11.1030   -7.2661  -16.7669 C   0  0  0  0  0  0  0  0  0  0  0  0
   11.5911   -6.4249  -17.9446 C   0  0  0  0  0  0  0  0  0  0  0  0
   13.1091   -6.3867  -17.9584 C   0  0  0  0  0  0  0  0  0  0  0  0
    2.4412   -0.9567   -0.5550 H   0  0  0  0  0  0  0  0  0  0  0  0
    0.8144   -2.7556    1.1717 H   0  0  0  0  0  0  0  0  0  0  0  0
    0.0589    1.1081   -1.3554 H   0  0  0  0  0  0  0  0  0  0  0  0
    1.1616    1.6929   -0.1029 H   0  0  0  0  0  0  0  0  0  0  0  0
    1.9967   -0.9974    3.0577 H   0  0  0  0  0  0  0  0  0  0  0  0
   -1.1949   -0.4709    1.3917 H   0  0  0  0  0  0  0  0  0  0  0  0
   -0.9493   -0.2278    3.4740 H   0  0  0  0  0  0  0  0  0  0  0  0
    0.3078    0.1806    5.8353 H   0  0  0  0  0  0  0  0  0  0  0  0
    1.6578    0.6753    4.9280 H   0  0  0  0  0  0  0  0  0  0  0  0
    0.4869    2.6504    5.7090 H   0  0  0  0  0  0  0  0  0  0  0  0
    0.4632    2.7476    4.0112 H   0  0  0  0  0  0  0  0  0  0  0  0
   -1.7873    3.2390    4.8878 H   0  0  0  0  0  0  0  0  0  0  0  0
   -1.8455    1.8210    3.8964 H   0  0  0  0  0  0  0  0  0  0  0  0
   -3.0448    1.3269    5.9883 H   0  0  0  0  0  0  0  0  0  0  0  0
   -1.6616    0.3293    5.9413 H   0  0  0  0  0  0  0  0  0  0  0  0
    4.1948    1.5574    1.8161 H   0  0  0  0  0  0  0  0  0  0  0  0
    3.1988   -0.4135    1.0353 H   0  0  0  0  0  0  0  0  0  0  0  0
    2.6428    3.5670    2.2958 H   0  0  0  0  0  0  0  0  0  0  0  0
    0.4073    0.6355    0.4837 H   0  0  0  0  0  0  0  0  0  0  0  0
    0.1843   -0.1524    0.6588 H   0  0  0  0  0  0  0  0  0  0  0  0
    2.7672    4.3957   -0.0385 H   0  0  0  0  0  0  0  0  0  0  0  0
    3.2934    2.6965   -1.9208 H   0  0  0  0  0  0  0  0  0  0  0  0
    0.4849    1.0430    2.8853 H   0  0  0  0  0  0  0  0  0  0  0  0
    4.7068    2.2795    0.1394 H   0  0  0  0  0  0  0  0  0  0  0  0
    1.9971    1.2714    3.2922 H   0  0  0  0  0  0  0  0  0  0  0  0
   -2.4748    1.6261    0.0818 H   0  0  0  0  0  0  0  0  0  0  0  0
   -1.7324    1.3197    8.1650 H   0  0  0  0  0  0  0  0  0  0  0  0
   -0.3379    1.9479    7.3955 H   0  0  0  0  0  0  0  0  0  0  0  0
   -1.5210    3.8348    8.4000 H   0  0  0  0  0  0  0  0  0  0  0  0
   -1.5634    4.0518    6.7003 H   0  0  0  0  0  0  0  0  0  0  0  0
   -3.8342    4.4184    7.5354 H   0  0  0  0  0  0  0  0  0  0  0  0
   -3.8768    3.0226    6.5458 H   0  0  0  0  0  0  0  0  0  0  0  0
   -5.0636    2.4800    8.6148 H   0  0  0  0  0  0  0  0  0  0  0  0
   -3.6654    1.4902    8.5567 H   0  0  0  0  0  0  0  0  0  0  0  0
   -3.7689    2.4684   10.7955 H   0  0  0  0  0  0  0  0  0  0  0  0
   -2.3702    3.0958   10.0293 H   0  0  0  0  0  0  0  0  0  0  0  0
   -3.5463    4.9860   11.0398 H   0  0  0  0  0  0  0  0  0  0  0  0
   -3.5969    5.2036    9.3391 H   0  0  0  0  0  0  0  0  0  0  0  0
   -5.8515    5.6008   10.2419 H   0  0  0  0  0  0  0  0  0  0  0  0
   -5.9088    4.2076    9.2014 H   0  0  0  0  0  0  0  0  0  0  0  0
   -7.1258    3.7110   11.2782 H   0  0  0  0  0  0  0  0  0  0  0  0
   -5.7336    2.6673   11.1865 H   0  0  0  0  0  0  0  0  0  0  0  0
   -5.8521    5.2891   12.7502 H   0  0  0  0  0  0  0  0  0  0  0  0
   -5.8914    3.6472   13.4517 H   0  0  0  0  0  0  0  0  0  0  0  0
   -4.4323    4.2353   12.6840 H   0  0  0  0  0  0  0  0  0  0  0  0
    1.0393   -0.9354   -5.8186 H   0  0  0  0  0  0  0  0  0  0  0  0
    1.0817    0.4029   -4.6820 H   0  0  0  0  0  0  0  0  0  0  0  0
    3.3288    0.0663   -5.6296 H   0  0  0  0  0  0  0  0  0  0  0  0
    3.4158   -0.1180   -3.9761 H   0  0  0  0  0  0  0  0  0  0  0  0
    4.6527   -1.9737   -4.9864 H   0  0  0  0  0  0  0  0  0  0  0  0
    3.4501   -2.6909   -4.1632 H   0  0  0  0  0  0  0  0  0  0  0  0
    3.2722   -3.6855   -6.3501 H   0  0  0  0  0  0  0  0  0  0  0  0
    1.8888   -2.6886   -6.2790 H   0  0  0  0  0  0  0  0  0  0  0  0
    3.0448   -2.1554   -8.3717 H   0  0  0  0  0  0  0  0  0  0  0  0
    3.0917   -0.7588   -7.3828 H   0  0  0  0  0  0  0  0  0  0  0  0
    5.3671   -1.1187   -8.2119 H   0  0  0  0  0  0  0  0  0  0  0  0
    5.4198   -1.3238   -6.5303 H   0  0  0  0  0  0  0  0  0  0  0  0
    6.5889   -3.2326   -7.4939 H   0  0  0  0  0  0  0  0  0  0  0  0
    5.1919   -3.8541   -6.7296 H   0  0  0  0  0  0  0  0  0  0  0  0
    5.2870   -4.8411   -8.9653 H   0  0  0  0  0  0  0  0  0  0  0  0
    3.8908   -3.8538   -8.9074 H   0  0  0  0  0  0  0  0  0  0  0  0
    5.0736   -3.3051  -10.9763 H   0  0  0  0  0  0  0  0  0  0  0  0
    5.1153   -1.9102   -9.9880 H   0  0  0  0  0  0  0  0  0  0  0  0
    7.3871   -2.2723  -10.8149 H   0  0  0  0  0  0  0  0  0  0  0  0
    7.4288   -2.4903   -9.1183 H   0  0  0  0  0  0  0  0  0  0  0  0
    8.6130   -4.3822  -10.1167 H   0  0  0  0  0  0  0  0  0  0  0  0
    7.2163   -5.0086   -9.3515 H   0  0  0  0  0  0  0  0  0  0  0  0
   -0.3440   -0.7617   -1.6644 H   0  0  0  0  0  0  0  0  0  0  0  0
   -0.2740   -1.4440   -3.7465 H   0  0  0  0  0  0  0  0  0  0  0  0
    1.9887   -3.0346   -3.4336 H   0  0  0  0  0  0  0  0  0  0  0  0
    7.3129   -5.9897  -11.5891 H   0  0  0  0  0  0  0  0  0  0  0  0
    5.9163   -5.0025  -11.5313 H   0  0  0  0  0  0  0  0  0  0  0  0
    7.1003   -4.4553  -13.5996 H   0  0  0  0  0  0  0  0  0  0  0  0
    7.1422   -3.0596  -12.6101 H   0  0  0  0  0  0  0  0  0  0  0  0
    9.4134   -3.4233  -13.4400 H   0  0  0  0  0  0  0  0  0  0  0  0
    9.4553   -3.6412  -11.7430 H   0  0  0  0  0  0  0  0  0  0  0  0
   10.6399   -5.5327  -12.7422 H   0  0  0  0  0  0  0  0  0  0  0  0
    9.2430   -6.1592  -11.9769 H   0  0  0  0  0  0  0  0  0  0  0  0
    9.3411   -7.1413  -14.2143 H   0  0  0  0  0  0  0  0  0  0  0  0
    7.9442   -6.1533  -14.1568 H   0  0  0  0  0  0  0  0  0  0  0  0
    9.1297   -5.6125  -16.2273 H   0  0  0  0  0  0  0  0  0  0  0  0
    9.1710   -4.2140  -15.2371 H   0  0  0  0  0  0  0  0  0  0  0  0
   11.4400   -4.5774  -16.0733 H   0  0  0  0  0  0  0  0  0  0  0  0
   11.4822   -4.7957  -14.3741 H   0  0  0  0  0  0  0  0  0  0  0  0
   12.6781   -6.6803  -15.3715 H   0  0  0  0  0  0  0  0  0  0  0  0
   11.2751   -7.3105  -14.6122 H   0  0  0  0  0  0  0  0  0  0  0  0
   11.4536   -8.2972  -16.8596 H   0  0  0  0  0  0  0  0  0  0  0  0
   10.0086   -7.3305  -16.7919 H   0  0  0  0  0  0  0  0  0  0  0  0
   11.2082   -6.8388  -18.8799 H   0  0  0  0  0  0  0  0  0  0  0  0
   11.1980   -5.4027  -17.8933 H   0  0  0  0  0  0  0  0  0  0  0  0
   13.5012   -7.4043  -18.0421 H   0  0  0  0  0  0  0  0  0  0  0  0
   13.4723   -5.7817  -18.7878 H   0  0  0  0  0  0  0  0  0  0  0  0
   13.5184   -5.9425  -17.0453 H   0  0  0  0  0  0  0  0  0  0  0  0
  1  2  1  0  0  0  0
  1  3  1  0  0  0  0
  1 47  1  0  0  0  0
  1 63  1  6  0  0  0
  2  4  1  0  0  0  0
  2  5  1  0  0  0  0
  2 64  1  6  0  0  0
  3  6  1  0  0  0  0
  3 65  1  0  0  0  0
  3 66  1  0  0  0  0
  4  7  2  0  0  0  0
  4 67  1  0  0  0  0
  5 68  1  0  0  0  0
  7  8  1  0  0  0  0
  7 69  1  0  0  0  0
  8  9  1  0  0  0  0
  8 70  1  0  0  0  0
  8 71  1  0  0  0  0
  9 10  1  0  0  0  0
  9 72  1  0  0  0  0
  9 73  1  0  0  0  0
 10 11  1  0  0  0  0
 10 74  1  0  0  0  0
 10 75  1  0  0  0  0
 11 27  1  0  0  0  0
 11 76  1  0  0  0  0
 11 77  1  0  0  0  0
 12 13  1  0  0  0  0
 12 14  1  0  0  0  0
 12 22  1  0  0  0  0
 12 78  1  6  0  0  0
 13 15  1  0  0  0  0
 13 79  1  1  0  0  0
 13 16  1  0  0  0  0
 14 17  1  0  0  0  0
 14 18  1  0  0  0  0
 14 80  1  1  0  0  0
 15 19  1  0  0  0  0
 16 20  1  0  0  0  0
 16 81  1  0  0  0  0
 16 82  1  0  0  0  0
 17 21  1  0  0  0  0
 17 19  1  0  0  0  0
 17 83  1  6  0  0  0
 18 23  1  0  0  0  0
 19  6  1  0  0  0  0
 19 84  1  6  0  0  0
 20 85  1  0  0  0  0
 21 86  1  0  0  0  0
 22 87  1  0  0  0  0
 23 24  2  0  0  0  0
 23 25  2  0  0  0  0
 23 26  1  0  0  0  0
 26 88  1  0  0  0  0
 27 28  1  0  0  0  0
 27 89  1  0  0  0  0
 27 90  1  0  0  0  0
 28 29  1  0  0  0  0
 28 91  1  0  0  0  0
 28 92  1  0  0  0  0
 29 30  1  0  0  0  0
 29 93  1  0  0  0  0
 29 94  1  0  0  0  0
 30 31  1  0  0  0  0
 30 95  1  0  0  0  0
 30 96  1  0  0  0  0
 31 32  1  0  0  0  0
 31 97  1  0  0  0  0
 31 98  1  0  0  0  0
 32 33  1  0  0  0  0
 32 99  1  0  0  0  0
 32100  1  0  0  0  0
 33 34  1  0  0  0  0
 33101  1  0  0  0  0
 33102  1  0  0  0  0
 34 35  1  0  0  0  0
 34103  1  0  0  0  0
 34104  1  0  0  0  0
 35105  1  0  0  0  0
 35106  1  0  0  0  0
 35107  1  0  0  0  0
 36 37  1  0  0  0  0
 36 49  1  0  0  0  0
 36108  1  0  0  0  0
 36109  1  0  0  0  0
 37 38  1  0  0  0  0
 37110  1  0  0  0  0
 37111  1  0  0  0  0
 38 39  1  0  0  0  0
 38112  1  0  0  0  0
 38113  1  0  0  0  0
 39 40  1  0  0  0  0
 39114  1  0  0  0  0
 39115  1  0  0  0  0
 40 41  1  0  0  0  0
 40116  1  0  0  0  0
 40117  1  0  0  0  0
 41 42  1  0  0  0  0
 41118  1  0  0  0  0
 41119  1  0  0  0  0
 42 43  1  0  0  0  0
 42120  1  0  0  0  0
 42121  1  0  0  0  0
 43 44  1  0  0  0  0
 43122  1  0  0  0  0
 43123  1  0  0  0  0
 44 45  1  0  0  0  0
 44124  1  0  0  0  0
 44125  1  0  0  0  0
 45 46  1  0  0  0  0
 45126  1  0  0  0  0
 45127  1  0  0  0  0
 46 52  1  0  0  0  0
 46128  1  0  0  0  0
 46129  1  0  0  0  0
 47 48  1  0  0  0  0
 47130  1  0  0  0  0
 48 49  1  0  0  0  0
 48 50  2  0  0  0  0
 49 51  1  0  0  0  0
 49131  1  1  0  0  0
 51132  1  0  0  0  0
 52 53  1  0  0  0  0
 52133  1  0  0  0  0
 52134  1  0  0  0  0
 53 54  1  0  0  0  0
 53135  1  0  0  0  0
 53136  1  0  0  0  0
 54 55  1  0  0  0  0
 54137  1  0  0  0  0
 54138  1  0  0  0  0
 55 56  1  0  0  0  0
 55139  1  0  0  0  0
 55140  1  0  0  0  0
 56 57  1  0  0  0  0
 56141  1  0  0  0  0
 56142  1  0  0  0  0
 57 58  1  0  0  0  0
 57143  1  0  0  0  0
 57144  1  0  0  0  0
 58 59  1  0  0  0  0
 58145  1  0  0  0  0
 58146  1  0  0  0  0
 59 60  1  0  0  0  0
 59147  1  0  0  0  0
 59148  1  0  0  0  0
 60 61  1  0  0  0  0
 60149  1  0  0  0  0
 60150  1  0  0  0  0
 61 62  1  0  0  0  0
 61151  1  0  0  0  0
 61152  1  0  0  0  0
 62153  1  0  0  0  0
 62154  1  0  0  0  0
 62155  1  0  0  0  0
M  END
>  <DRUGBANK_ID>
DB04780

>  <COMMON_NAME>
Sulfatide

>  <SYNONYMS>
2-hydroxytetracosanoyl sulfatide; 2-hydroxytetracosanoylgalactosylceramide sulfate

$$$$
