517
 OpenBabel10282417163D

 35 37  0  0  0  0  0  0  0  0999 V2000
   -1.0243    0.0643   -0.0015 N   0  0  0  0  0  0  0  0  0  0  0  0
   -0.2092    1.1562   -0.0065 C   0  0  0  0  0  0  0  0  0  0  0  0
    1.0829    0.7012   -0.0121 C   0  0  0  0  0  0  0  0  0  0  0  0
    1.0328   -0.7178    0.0002 C   0  0  0  0  0  0  0  0  0  0  0  0
   -0.2978   -1.1050    0.0365 C   0  0  0  0  0  0  0  0  0  0  0  0
   -0.9210   -2.4992    0.1117 C   0  0  2  0  0  0  0  0  0  0  0  0
   -1.6917   -2.7953   -1.1951 C   0  0  0  0  0  0  0  0  0  0  0  0
   -1.7645   -2.7440    1.3425 C   0  0  0  0  0  0  0  0  0  0  0  0
   -2.9058   -2.1865    1.7322 C   0  0  0  0  0  0  0  0  0  0  0  0
   -3.7113   -1.2228    1.1140 C   0  0  0  0  0  0  0  0  0  0  0  0
   -1.4698   -3.7287    2.4120 C   0  0  0  0  0  0  0  0  0  0  0  0
   -0.5220   -4.4840    2.3779 O   0  0  0  0  0  0  0  0  0  0  0  0
   -2.4506   -3.6504    3.4015 N   0  0  0  0  0  0  0  0  0  0  0  0
   -3.2740   -2.7428    3.0098 C   0  0  0  0  0  0  0  0  0  0  0  0
   -4.5145   -2.1666    3.6103 C   0  0  0  0  0  0  0  0  0  0  0  0
   -5.1930   -1.1732    2.9746 C   0  0  0  0  0  0  0  0  0  0  0  0
   -4.7759   -0.6429    1.6617 C   0  0  0  0  0  0  0  0  0  0  0  0
   -5.4769    0.3559    1.0072 N   0  0  0  0  0  0  0  0  0  0  0  0
   -5.2656    1.0504   -0.1618 C   0  0  0  0  0  0  0  0  0  0  0  0
   -6.0644    1.9073   -0.5341 O   0  0  0  0  0  0  0  0  0  0  0  0
   -4.1411    0.8631   -0.9013 N   0  0  0  0  0  0  0  0  0  0  0  0
   -0.0849   -3.2130    0.1213 H   0  0  0  0  0  0  0  0  0  0  0  0
   -2.0216    0.1679    0.0186 H   0  0  0  0  0  0  0  0  0  0  0  0
   -0.6369    2.1506    0.0036 H   0  0  0  0  0  0  0  0  0  0  0  0
    1.9609    1.3316   -0.0110 H   0  0  0  0  0  0  0  0  0  0  0  0
    1.8856   -1.3847    0.0079 H   0  0  0  0  0  0  0  0  0  0  0  0
   -1.0590   -2.6448   -2.0782 H   0  0  0  0  0  0  0  0  0  0  0  0
   -2.0586   -3.8271   -1.2147 H   0  0  0  0  0  0  0  0  0  0  0  0
   -2.5568   -2.1422   -1.3365 H   0  0  0  0  0  0  0  0  0  0  0  0
   -3.3856   -1.0420    0.1364 H   0  0  0  0  0  0  0  0  0  0  0  0
   -4.8278   -2.5855    4.5586 H   0  0  0  0  0  0  0  0  0  0  0  0
   -6.1014   -0.7800    3.4274 H   0  0  0  0  0  0  0  0  0  0  0  0
   -6.3112    0.7071    1.4697 H   0  0  0  0  0  0  0  0  0  0  0  0
   -3.7759   -0.0477   -1.0881 H   0  0  0  0  0  0  0  0  0  0  0  0
   -4.1403    1.3725   -1.7791 H   0  0  0  0  0  0  0  0  0  0  0  0
  1  5  1  0  0  0  0
  1  2  1  0  0  0  0
  1 23  1  0  0  0  0
  2  3  2  0  0  0  0
  2 24  1  0  0  0  0
  3  4  1  0  0  0  0
  3 25  1  0  0  0  0
  4  5  2  0  0  0  0
  4 26  1  0  0  0  0
  5  6  1  0  0  0  0
  6  8  1  0  0  0  0
  6  7  1  0  0  0  0
  6 22  1  1  0  0  0
  7 27  1  0  0  0  0
  7 28  1  0  0  0  0
  7 29  1  0  0  0  0
  8  9  2  0  0  0  0
  8 11  1  0  0  0  0
  9 14  1  0  0  0  0
  9 10  1  0  0  0  0
 10 17  2  0  0  0  0
 10 30  1  0  0  0  0
 11 13  1  0  0  0  0
 11 12  2  0  0  0  0
 13 14  2  0  0  0  0
 14 15  1  0  0  0  0
 15 16  2  0  0  0  0
 15 31  1  0  0  0  0
 16 17  1  0  0  0  0
 16 32  1  0  0  0  0
 17 18  1  0  0  0  0
 18 19  1  0  0  0  0
 18 33  1  0  0  0  0
 19 20  2  0  0  0  0
 19 21  1  0  0  0  0
 21 34  1  0  0  0  0
 21 35  1  0  0  0  0
M  END
>  <DRUGBANK_ID>
DB07132

>  <COMMON_NAME>
1-{2-OXO-3-[(1R)-1-(1H-PYRROL-2-YL)ETHYL]-2H-INDOL-5-YL}UREA

$$$$
