
 OpenBabel10282417153D

144145  0  0  0  0  0  0  0  0999 V2000
    0.9130   -0.0459   -0.0183 Gd  0  1  0  0  0  0  0  0  0  0  0  0
    4.1530   -1.5277   -4.1438 O   0  0  0  0  0  0  0  0  0  0  0  0
    4.6321    8.1095   -2.0668 O   0  0  0  0  0  0  0  0  0  0  0  0
    3.9810    7.4463    0.0445 O   0  0  0  0  0  0  0  0  0  0  0  0
    3.4384    4.8776    0.7537 O   0  0  0  0  0  0  0  0  0  0  0  0
    5.8356    8.0297   -1.9796 O   0  0  0  0  0  0  0  0  0  0  0  0
    2.2917    3.0810   -1.0723 O   0  0  0  0  0  0  0  0  0  0  0  0
    6.3713    7.0866    0.6089 O   0  0  0  0  0  0  0  0  0  0  0  0
    1.0444    5.2437    0.2099 O   0  0  0  0  0  0  0  0  0  0  0  0
    8.2258    7.6701   -1.4152 O   0  0  0  0  0  0  0  0  0  0  0  0
   -0.1023    3.4471   -1.6160 O   0  0  0  0  0  0  0  0  0  0  0  0
    1.0614   -0.0134   -0.0778 O   0  5  0  0  0  0  0  0  0  0  0  0
    0.9256    0.0563    0.0360 O   0  5  0  0  0  0  0  0  0  0  0  0
    3.1168   -0.9127   -0.7124 O   0  0  0  0  0  0  0  0  0  0  0  0
    2.9810   -0.1980    1.1069 O   0  0  0  0  0  0  0  0  0  0  0  0
    7.9097    9.6978   -8.1685 N   0  5  0  0  0  0  0  0  0  0  0  0
    5.7462    2.4467   -5.5713 N   0  0  0  0  0  0  0  0  0  0  0  0
    6.3772    5.3023   -6.3696 N   0  0  0  0  0  0  0  0  0  0  0  0
    5.3720    5.9125   -4.2776 N   0  0  0  0  0  0  0  0  0  0  0  0
    4.8138    3.4026   -3.5764 N   0  0  0  0  0  0  0  0  0  0  0  0
    7.2752   10.7310   -6.4270 C   0  0  0  0  0  0  0  0  0  0  0  0
    6.9811    9.4934   -6.2531 C   0  0  0  0  0  0  0  0  0  0  0  0
    7.8461   10.9089   -7.5998 C   0  0  0  0  0  0  0  0  0  0  0  0
    7.3429    8.7976   -7.2761 C   0  0  0  0  0  0  0  0  0  0  0  0
    4.7254    1.8444   -3.6664 C   0  0  0  0  0  0  0  0  0  0  0  0
    6.0158    7.0890   -5.0619 C   0  0  0  0  0  0  0  0  0  0  0  0
    7.0023   11.8362   -5.4197 C   0  0  0  0  0  0  0  0  0  0  0  0
    6.3024    8.9285   -5.0159 C   0  0  0  0  0  0  0  0  0  0  0  0
    5.3314    1.3638   -4.9353 C   0  0  0  0  0  0  0  0  0  0  0  0
    6.5682    6.6108   -6.3558 C   0  0  0  0  0  0  0  0  0  0  0  0
    5.4501   -0.0766   -5.4058 C   0  0  0  0  0  0  0  0  0  0  0  0
    7.2193    7.4529   -7.4409 C   0  0  0  0  0  0  0  0  0  0  0  0
    3.9546    0.9423   -2.7165 C   0  0  0  0  0  0  0  0  0  0  0  0
    5.9905    8.5198   -4.5495 C   0  0  0  0  0  0  0  0  0  0  0  0
    4.8499    3.1610   -3.6817 C   0  0  0  0  0  0  0  0  0  0  0  0
    5.5507    6.0141   -4.4475 C   0  0  0  0  0  0  0  0  0  0  0  0
    2.7805    0.3172   -3.4522 C   0  0  0  0  0  0  0  0  0  0  0  0
    4.5512    8.9486   -4.3151 C   0  0  0  0  0  0  0  0  0  0  0  0
    5.4556    3.5238   -4.8239 C   0  0  0  0  0  0  0  0  0  0  0  0
    5.7713    4.9427   -5.2264 C   0  0  0  0  0  0  0  0  0  0  0  0
    5.5088   11.9178   -5.1494 C   0  0  0  0  0  0  0  0  0  0  0  0
    4.9889    8.2745   -5.4126 C   0  0  0  0  0  0  0  0  0  0  0  0
    4.3842    4.1072   -2.5871 C   0  0  0  0  0  0  0  0  0  0  0  0
    4.8776    5.9947   -3.0848 C   0  0  0  0  0  0  0  0  0  0  0  0
    3.2954   -0.5029   -4.6239 C   0  0  0  0  0  0  0  0  0  0  0  0
    3.9101    8.0309   -3.2870 C   0  0  0  0  0  0  0  0  0  0  0  0
    5.7365    4.8075   -5.1759 C   0  0  0  0  0  0  0  0  0  0  0  0
    5.4821    3.6652   -4.8591 C   0  0  0  0  0  0  0  0  0  0  0  0
    4.7740    5.6601   -3.1332 C   0  0  0  0  0  0  0  0  0  0  0  0
    4.4954    4.4031   -2.7836 C   0  0  0  0  0  0  0  0  0  0  0  0
    4.4126    6.7146   -2.2492 C   0  0  0  0  0  0  0  0  0  0  0  0
    3.8514    4.1631   -1.5454 C   0  0  0  0  0  0  0  0  0  0  0  0
    4.0544    6.4117   -0.9254 C   0  0  0  0  0  0  0  0  0  0  0  0
    3.7899    5.1839   -0.5876 C   0  0  0  0  0  0  0  0  0  0  0  0
    4.2698    8.7868   -0.3241 C   0  0  0  0  0  0  0  0  0  0  0  0
    3.1495    3.5374    1.1235 C   0  0  0  0  0  0  0  0  0  0  0  0
    5.6948    8.8731   -0.8459 C   0  0  0  0  0  0  0  0  0  0  0  0
    1.9700    3.0303    0.3099 C   0  0  0  0  0  0  0  0  0  0  0  0
    5.5469    6.6891   -1.6110 C   0  0  0  0  0  0  0  0  0  0  0  0
    2.5806    4.4212   -1.4421 C   0  0  0  0  0  0  0  0  0  0  0  0
    6.5121    6.2432   -0.5247 C   0  0  0  0  0  0  0  0  0  0  0  0
    1.3661    5.2944   -1.1722 C   0  0  0  0  0  0  0  0  0  0  0  0
    6.6600    8.4272    0.2403 C   0  0  0  0  0  0  0  0  0  0  0  0
    0.7555    3.9035    0.5798 C   0  0  0  0  0  0  0  0  0  0  0  0
    8.0850    8.5135   -0.2815 C   0  0  0  0  0  0  0  0  0  0  0  0
   -0.4240    3.3964   -0.2339 C   0  0  0  0  0  0  0  0  0  0  0  0
    7.9371    6.3295   -1.0466 C   0  0  0  0  0  0  0  0  0  0  0  0
    0.1866    4.7873   -1.9859 C   0  0  0  0  0  0  0  0  0  0  0  0
    3.2414    1.0621    0.6812 C   0  0  0  0  0  0  0  0  0  0  0  0
    3.1056    0.3604   -1.2447 C   0  0  0  0  0  0  0  0  0  0  0  0
    2.4814   -0.0134   -0.0778 C   0  0  0  0  0  0  0  0  0  0  0  0
    2.3456    0.0563    0.0360 C   0  0  0  0  0  0  0  0  0  0  0  0
    4.9254   -1.1165   -3.6598 H   0  0  0  0  0  0  0  0  0  0  0  0
    5.5790    7.8274   -2.2210 H   0  0  0  0  0  0  0  0  0  0  0  0
    7.5188   11.6226   -4.5073 H   0  0  0  0  0  0  0  0  0  0  0  0
    7.3451   12.7702   -5.8134 H   0  0  0  0  0  0  0  0  0  0  0  0
    6.9403    8.2002   -4.5604 H   0  0  0  0  0  0  0  0  0  0  0  0
    6.1115    9.7197   -4.3213 H   0  0  0  0  0  0  0  0  0  0  0  0
    5.9107   -0.2961   -6.3463 H   0  0  0  0  0  0  0  0  0  0  0  0
    7.5804    6.9880   -8.3345 H   0  0  0  0  0  0  0  0  0  0  0  0
    3.5921    1.5195   -1.8917 H   0  0  0  0  0  0  0  0  0  0  0  0
    4.6008    0.1700   -2.3547 H   0  0  0  0  0  0  0  0  0  0  0  0
    6.5345    8.5791   -3.6300 H   0  0  0  0  0  0  0  0  0  0  0  0
    6.4418    9.1659   -5.2733 H   0  0  0  0  0  0  0  0  0  0  0  0
    2.1343    1.0894   -3.8140 H   0  0  0  0  0  0  0  0  0  0  0  0
    2.2379   -0.3179   -2.7835 H   0  0  0  0  0  0  0  0  0  0  0  0
    4.5333    9.9559   -3.9544 H   0  0  0  0  0  0  0  0  0  0  0  0
    4.0071    8.8894   -5.2346 H   0  0  0  0  0  0  0  0  0  0  0  0
    5.1660   10.9838   -4.7557 H   0  0  0  0  0  0  0  0  0  0  0  0
    5.3167   12.6958   -4.4403 H   0  0  0  0  0  0  0  0  0  0  0  0
    4.9923   12.1314   -6.0618 H   0  0  0  0  0  0  0  0  0  0  0  0
    5.1799    7.4834   -6.1072 H   0  0  0  0  0  0  0  0  0  0  0  0
    4.5112    7.8769   -4.5416 H   0  0  0  0  0  0  0  0  0  0  0  0
    4.3511    9.0029   -5.8681 H   0  0  0  0  0  0  0  0  0  0  0  0
    5.2224    4.6529   -2.2069 H   0  0  0  0  0  0  0  0  0  0  0  0
    3.6657    4.7910   -2.9886 H   0  0  0  0  0  0  0  0  0  0  0  0
    3.9365    3.5437   -1.7952 H   0  0  0  0  0  0  0  0  0  0  0  0
    3.8847    5.6082   -3.1830 H   0  0  0  0  0  0  0  0  0  0  0  0
    5.4383    5.3726   -2.4189 H   0  0  0  0  0  0  0  0  0  0  0  0
    4.8359    6.9897   -2.6934 H   0  0  0  0  0  0  0  0  0  0  0  0
    3.8380    0.1322   -5.2926 H   0  0  0  0  0  0  0  0  0  0  0  0
    2.4689   -0.9429   -5.1418 H   0  0  0  0  0  0  0  0  0  0  0  0
    2.8969    8.3327   -3.1220 H   0  0  0  0  0  0  0  0  0  0  0  0
    3.9279    7.0236   -3.6477 H   0  0  0  0  0  0  0  0  0  0  0  0
    6.2229    5.0128   -6.1066 H   0  0  0  0  0  0  0  0  0  0  0  0
    5.7410    2.8515   -5.5039 H   0  0  0  0  0  0  0  0  0  0  0  0
    4.4137    7.7290   -2.5897 H   0  0  0  0  0  0  0  0  0  0  0  0
    3.4143    3.2077   -1.3425 H   0  0  0  0  0  0  0  0  0  0  0  0
    3.5903    9.1007   -1.0888 H   0  0  0  0  0  0  0  0  0  0  0  0
    4.1637    9.4224    0.5301 H   0  0  0  0  0  0  0  0  0  0  0  0
    4.0044    2.9227    0.9335 H   0  0  0  0  0  0  0  0  0  0  0  0
    2.9071    3.4991    2.1650 H   0  0  0  0  0  0  0  0  0  0  0  0
    5.9124    9.8833   -1.1237 H   0  0  0  0  0  0  0  0  0  0  0  0
    6.3743    8.5592   -0.0813 H   0  0  0  0  0  0  0  0  0  0  0  0
    1.7522    2.0204    0.5886 H   0  0  0  0  0  0  0  0  0  0  0  0
    1.1150    3.6450    0.4999 H   0  0  0  0  0  0  0  0  0  0  0  0
    4.5437    6.6284   -1.2437 H   0  0  0  0  0  0  0  0  0  0  0  0
    5.6530    6.0536   -2.4652 H   0  0  0  0  0  0  0  0  0  0  0  0
    3.4109    4.7782   -0.8693 H   0  0  0  0  0  0  0  0  0  0  0  0
    2.8230    4.4594   -2.4836 H   0  0  0  0  0  0  0  0  0  0  0  0
    6.2945    5.2331   -0.2470 H   0  0  0  0  0  0  0  0  0  0  0  0
    7.5152    6.3040   -0.8921 H   0  0  0  0  0  0  0  0  0  0  0  0
    1.5838    6.3043   -1.4509 H   0  0  0  0  0  0  0  0  0  0  0  0
    0.5358    4.9375   -1.7450 H   0  0  0  0  0  0  0  0  0  0  0  0
    5.9805    8.7411   -0.5244 H   0  0  0  0  0  0  0  0  0  0  0  0
    6.5539    9.0628    1.0946 H   0  0  0  0  0  0  0  0  0  0  0  0
    1.6104    3.2888    0.3898 H   0  0  0  0  0  0  0  0  0  0  0  0
    0.5131    3.8653    1.6213 H   0  0  0  0  0  0  0  0  0  0  0  0
    8.3026    9.5237   -0.5593 H   0  0  0  0  0  0  0  0  0  0  0  0
    8.7645    8.1996    0.4832 H   0  0  0  0  0  0  0  0  0  0  0  0
   -0.6418    2.3866    0.0448 H   0  0  0  0  0  0  0  0  0  0  0  0
   -1.2790    4.0111   -0.0439 H   0  0  0  0  0  0  0  0  0  0  0  0
    8.6166    6.0156   -0.2819 H   0  0  0  0  0  0  0  0  0  0  0  0
    6.9340    6.2688   -0.6792 H   0  0  0  0  0  0  0  0  0  0  0  0
    8.0432    5.6940   -1.9008 H   0  0  0  0  0  0  0  0  0  0  0  0
   -0.6683    5.4020   -1.7959 H   0  0  0  0  0  0  0  0  0  0  0  0
    1.0169    5.1443   -1.4131 H   0  0  0  0  0  0  0  0  0  0  0  0
    0.4290    4.8256   -3.0274 H   0  0  0  0  0  0  0  0  0  0  0  0
    2.9829    2.0242    0.2908 H   0  0  0  0  0  0  0  0  0  0  0  0
    2.9829    1.0168    1.7185 H   0  0  0  0  0  0  0  0  0  0  0  0
    4.2934    0.9023    0.5684 H   0  0  0  0  0  0  0  0  0  0  0  0
    2.8471   -0.3600   -1.9925 H   0  0  0  0  0  0  0  0  0  0  0  0
    2.8471    1.3400   -1.5888 H   0  0  0  0  0  0  0  0  0  0  0  0
    4.1576    0.3152   -1.0545 H   0  0  0  0  0  0  0  0  0  0  0  0
  2 45  1  0  0  0  0
  2 73  1  0  0  0  0
  3 46  1  0  0  0  0
  3 74  1  0  0  0  0
  4 53  1  0  0  0  0
  4 55  1  0  0  0  0
  5 54  1  0  0  0  0
  5 56  1  0  0  0  0
  6 57  1  0  0  0  0
  6 59  1  0  0  0  0
  7 58  1  0  0  0  0
  7 60  1  0  0  0  0
  8 61  1  0  0  0  0
  8 63  1  0  0  0  0
  9 62  1  0  0  0  0
  9 64  1  0  0  0  0
 10 65  1  0  0  0  0
 10 67  1  0  0  0  0
 11 66  1  0  0  0  0
 11 68  1  0  0  0  0
 12 71  1  0  0  0  0
 13 72  1  0  0  0  0
 14 71  2  0  0  0  0
 15 72  2  0  0  0  0
 16 23  1  0  0  0  0
 16 24  1  0  0  0  0
 17 29  2  0  0  0  0
 17 39  1  0  0  0  0
 18 30  2  0  0  0  0
 18 40  1  0  0  0  0
 19 47  1  0  0  0  0
 19 49  2  0  0  0  0
 20 48  1  0  0  0  0
 20 50  2  0  0  0  0
 21 22  2  0  0  0  0
 21 23  1  0  0  0  0
 21 27  1  0  0  0  0
 22 24  1  0  0  0  0
 22 28  1  0  0  0  0
 23 31  2  0  0  0  0
 24 32  2  0  0  0  0
 25 29  1  0  0  0  0
 25 33  1  0  0  0  0
 25 35  2  0  0  0  0
 26 30  1  0  0  0  0
 26 34  1  0  0  0  0
 26 36  2  0  0  0  0
 27 41  1  0  0  0  0
 27 75  1  0  0  0  0
 27 76  1  0  0  0  0
 28 42  1  0  0  0  0
 28 77  1  0  0  0  0
 28 78  1  0  0  0  0
 29 31  1  0  0  0  0
 30 32  1  0  0  0  0
 31 79  1  0  0  0  0
 32 80  1  0  0  0  0
 33 37  1  0  0  0  0
 33 81  1  0  0  0  0
 33 82  1  0  0  0  0
 34 38  1  0  0  0  0
 34 83  1  0  0  0  0
 34 84  1  0  0  0  0
 35 39  1  0  0  0  0
 35 43  1  0  0  0  0
 36 40  1  0  0  0  0
 36 44  1  0  0  0  0
 37 45  1  0  0  0  0
 37 85  1  0  0  0  0
 37 86  1  0  0  0  0
 38 46  1  0  0  0  0
 38 87  1  0  0  0  0
 38 88  1  0  0  0  0
 39 47  2  0  0  0  0
 40 48  2  0  0  0  0
 41 89  1  0  0  0  0
 41 90  1  0  0  0  0
 41 91  1  0  0  0  0
 42 92  1  0  0  0  0
 42 93  1  0  0  0  0
 42 94  1  0  0  0  0
 43 95  1  0  0  0  0
 43 96  1  0  0  0  0
 43 97  1  0  0  0  0
 44 98  1  0  0  0  0
 44 99  1  0  0  0  0
 44100  1  0  0  0  0
 45101  1  0  0  0  0
 45102  1  0  0  0  0
 46103  1  0  0  0  0
 46104  1  0  0  0  0
 47105  1  0  0  0  0
 48106  1  0  0  0  0
 49 50  1  0  0  0  0
 49 51  1  0  0  0  0
 50 52  1  0  0  0  0
 51 53  2  0  0  0  0
 51107  1  0  0  0  0
 52 54  2  0  0  0  0
 52108  1  0  0  0  0
 53 54  1  0  0  0  0
 55 57  1  0  0  0  0
 55109  1  0  0  0  0
 55110  1  0  0  0  0
 56 58  1  0  0  0  0
 56111  1  0  0  0  0
 56112  1  0  0  0  0
 57113  1  0  0  0  0
 57114  1  0  0  0  0
 58115  1  0  0  0  0
 58116  1  0  0  0  0
 59 61  1  0  0  0  0
 59117  1  0  0  0  0
 59118  1  0  0  0  0
 60 62  1  0  0  0  0
 60119  1  0  0  0  0
 60120  1  0  0  0  0
 61121  1  0  0  0  0
 61122  1  0  0  0  0
 62123  1  0  0  0  0
 62124  1  0  0  0  0
 63 65  1  0  0  0  0
 63125  1  0  0  0  0
 63126  1  0  0  0  0
 64 66  1  0  0  0  0
 64127  1  0  0  0  0
 64128  1  0  0  0  0
 65129  1  0  0  0  0
 65130  1  0  0  0  0
 66131  1  0  0  0  0
 66132  1  0  0  0  0
 67133  1  0  0  0  0
 67134  1  0  0  0  0
 67135  1  0  0  0  0
 68136  1  0  0  0  0
 68137  1  0  0  0  0
 68138  1  0  0  0  0
 69 71  1  0  0  0  0
 69139  1  0  0  0  0
 69140  1  0  0  0  0
 69141  1  0  0  0  0
 70 72  1  0  0  0  0
 70142  1  0  0  0  0
 70143  1  0  0  0  0
 70144  1  0  0  0  0
M  CHG  4   1   3  12  -1  13  -1  16  -1
M  END
>  <DRUGBANK_ID>
DB05428

>  <COMMON_NAME>
Motexafin gadolinium

>  <CAS_NUMBER>
246252-06-2

>  <UNII>
0BG5NE3APZ

>  <SYNONYMS>
Gadolinium texaphyrin; Motexafin gadolinium

$$$$
