
 OpenBabel10282417193D

 55 59  0  0  1  0  0  0  0  0999 V2000
    1.0002   -0.1128    0.0462 C   0  0  0  0  0  0  0  0  0  0  0  0
    0.4937   -1.5093    0.4791 C   0  0  0  0  0  0  0  0  0  0  0  0
    1.0126   -1.7882    1.8952 C   0  0  0  0  0  0  0  0  0  0  0  0
   -1.0420   -1.4775    0.4854 C   0  0  0  0  0  0  0  0  0  0  0  0
    0.9803   -2.5541   -0.4937 C   0  0  0  0  0  0  0  0  0  0  0  0
    1.6427   -2.3559   -1.6138 N   0  0  0  0  0  0  0  0  0  0  0  0
    1.7831   -3.5756   -2.2160 N   0  0  0  0  0  0  0  0  0  0  0  0
    1.1891   -4.4611   -1.4419 C   0  0  0  0  0  0  0  0  0  0  0  0
    0.6514   -3.8890   -0.3058 O   0  0  0  0  0  0  0  0  0  0  0  0
    0.9368   -5.8883   -1.7997 C   0  0  2  0  0  0  0  0  0  0  0  0
   -0.5156   -6.3525   -1.7359 C   0  0  2  0  0  0  0  0  0  0  0  0
   -0.5516   -7.2926   -0.5421 C   0  0  2  0  0  0  0  0  0  0  0  0
    0.8772   -7.8243   -0.5007 C   0  0  1  0  0  0  0  0  0  0  0  0
    1.7218   -6.7810   -1.0000 O   0  0  0  0  0  0  0  0  0  0  0  0
    1.2773   -8.2101    0.8357 N   0  0  0  0  0  0  0  0  0  0  0  0
    0.6190   -9.1510    1.5800 C   0  0  0  0  0  0  0  0  0  0  0  0
    1.1350   -9.2468    2.7820 N   0  0  0  0  0  0  0  0  0  0  0  0
    2.2038   -8.3762    2.7998 C   0  0  0  0  0  0  0  0  0  0  0  0
    2.3059   -7.7113    1.5879 C   0  0  0  0  0  0  0  0  0  0  0  0
    3.2140   -6.7894    1.2563 N   0  0  0  0  0  0  0  0  0  0  0  0
    4.0653   -6.5433    2.2667 C   0  0  0  0  0  0  0  0  0  0  0  0
    4.0850   -7.1090    3.4956 N   0  0  0  0  0  0  0  0  0  0  0  0
    3.1615   -8.0657    3.7887 C   0  0  0  0  0  0  0  0  0  0  0  0
    3.2061   -8.6882    5.0497 N   0  0  0  0  0  0  0  0  0  0  0  0
    2.2916   -9.6488    5.5176 C   0  0  0  0  0  0  0  0  0  0  0  0
    2.1513  -10.8634    4.8270 C   0  0  0  0  0  0  0  0  0  0  0  0
    1.1474  -11.7741    5.1554 C   0  0  0  0  0  0  0  0  0  0  0  0
    0.2774  -11.4860    6.2014 C   0  0  0  0  0  0  0  0  0  0  0  0
    0.3950  -10.2924    6.9095 C   0  0  0  0  0  0  0  0  0  0  0  0
    1.3930   -9.3820    6.5583 C   0  0  0  0  0  0  0  0  0  0  0  0
    1.4556   -8.2126    7.2145 F   0  0  0  0  0  0  0  0  0  0  0  0
   -0.9528  -12.6157    6.6132 Cl  0  0  0  0  0  0  0  0  0  0  0  0
   -1.5113   -8.3445   -0.6784 O   0  0  0  0  0  0  0  0  0  0  0  0
   -0.8756   -7.1002   -2.9169 O   0  0  0  0  0  0  0  0  0  0  0  0
    0.6478    0.6708    0.7277 H   0  0  0  0  0  0  0  0  0  0  0  0
    0.6507    0.1482   -0.9604 H   0  0  0  0  0  0  0  0  0  0  0  0
    2.0961   -0.0693    0.0324 H   0  0  0  0  0  0  0  0  0  0  0  0
    0.6641   -1.0214    2.5985 H   0  0  0  0  0  0  0  0  0  0  0  0
    0.6676   -2.7589    2.2660 H   0  0  0  0  0  0  0  0  0  0  0  0
    2.1084   -1.7893    1.9255 H   0  0  0  0  0  0  0  0  0  0  0  0
   -1.4381   -1.2597   -0.5137 H   0  0  0  0  0  0  0  0  0  0  0  0
   -1.4603   -2.4381    0.8046 H   0  0  0  0  0  0  0  0  0  0  0  0
   -1.4197   -0.7058    1.1668 H   0  0  0  0  0  0  0  0  0  0  0  0
    1.3159   -6.0145   -2.8204 H   0  0  0  0  0  0  0  0  0  0  0  0
   -1.2358   -5.5346   -1.6409 H   0  0  0  0  0  0  0  0  0  0  0  0
   -0.7854   -6.7361    0.3727 H   0  0  0  0  0  0  0  0  0  0  0  0
    0.9983   -8.7158   -1.1316 H   0  0  0  0  0  0  0  0  0  0  0  0
   -0.2310   -9.7188    1.2261 H   0  0  0  0  0  0  0  0  0  0  0  0
    4.8286   -5.7990    2.0633 H   0  0  0  0  0  0  0  0  0  0  0  0
    3.6908   -8.1266    5.7370 H   0  0  0  0  0  0  0  0  0  0  0  0
    2.7951  -11.0710    3.9746 H   0  0  0  0  0  0  0  0  0  0  0  0
    1.0409  -12.6826    4.5697 H   0  0  0  0  0  0  0  0  0  0  0  0
   -0.2914  -10.0528    7.7144 H   0  0  0  0  0  0  0  0  0  0  0  0
   -1.5363   -8.6197   -1.6159 H   0  0  0  0  0  0  0  0  0  0  0  0
   -0.1682   -7.7323   -3.1369 H   0  0  0  0  0  0  0  0  0  0  0  0
  1  2  1  0  0  0  0
  1 35  1  0  0  0  0
  1 36  1  0  0  0  0
  1 37  1  0  0  0  0
  2  3  1  0  0  0  0
  2  4  1  0  0  0  0
  2  5  1  0  0  0  0
  3 38  1  0  0  0  0
  3 39  1  0  0  0  0
  3 40  1  0  0  0  0
  4 41  1  0  0  0  0
  4 42  1  0  0  0  0
  4 43  1  0  0  0  0
  5  6  2  0  0  0  0
  5  9  1  0  0  0  0
  6  7  1  0  0  0  0
  7  8  2  0  0  0  0
  8  9  1  0  0  0  0
 10  8  1  0  0  0  0
 10 11  1  0  0  0  0
 10 14  1  0  0  0  0
 10 44  1  6  0  0  0
 11 12  1  0  0  0  0
 11 34  1  0  0  0  0
 11 45  1  1  0  0  0
 12 13  1  0  0  0  0
 12 33  1  0  0  0  0
 12 46  1  1  0  0  0
 13 14  1  0  0  0  0
 13 47  1  6  0  0  0
 13 15  1  0  0  0  0
 15 16  1  0  0  0  0
 15 19  1  0  0  0  0
 16 17  2  0  0  0  0
 16 48  1  0  0  0  0
 17 18  1  0  0  0  0
 18 19  1  0  0  0  0
 18 23  2  0  0  0  0
 19 20  2  0  0  0  0
 20 21  1  0  0  0  0
 21 22  2  0  0  0  0
 21 49  1  0  0  0  0
 22 23  1  0  0  0  0
 23 24  1  0  0  0  0
 24 25  1  0  0  0  0
 24 50  1  0  0  0  0
 25 26  2  0  0  0  0
 25 30  1  0  0  0  0
 26 27  1  0  0  0  0
 26 51  1  0  0  0  0
 27 28  2  0  0  0  0
 27 52  1  0  0  0  0
 28 29  1  0  0  0  0
 28 32  1  0  0  0  0
 29 30  2  0  0  0  0
 29 53  1  0  0  0  0
 30 31  1  0  0  0  0
 33 54  1  0  0  0  0
 34 55  1  0  0  0  0
M  END
>  <DRUGBANK_ID>
DB12760

>  <COMMON_NAME>
GW-493838

>  <CAS_NUMBER>
253124-46-8

>  <UNII>
93OG0JL22O

$$$$
