
 OpenBabel10282417213D

 15 15  0  0  0  0  0  0  0  0999 V2000
   -0.7414   -1.2014    0.0102 C   0  0  0  0  0  0  0  0  0  0  0  0
   -0.7336    1.2030    0.0122 C   0  0  0  0  0  0  0  0  0  0  0  0
    0.6590   -1.2121    0.0146 C   0  0  0  0  0  0  0  0  0  0  0  0
    0.6632    1.2003    0.0219 C   0  0  0  0  0  0  0  0  0  0  0  0
   -1.4498    0.0036    0.0046 C   0  0  0  0  0  0  0  0  0  0  0  0
    1.3498   -0.0053    0.0159 C   0  0  0  0  0  0  0  0  0  0  0  0
   -2.8318    0.0162    0.0002 N   0  0  0  0  0  0  0  0  0  0  0  0
    2.7122    0.0442    0.0087 O   0  0  0  0  0  0  0  0  0  0  0  0
   -1.2768   -2.1473    0.0122 H   0  0  0  0  0  0  0  0  0  0  0  0
   -1.2574    2.1541    0.0086 H   0  0  0  0  0  0  0  0  0  0  0  0
    1.1821   -2.1624    0.0199 H   0  0  0  0  0  0  0  0  0  0  0  0
    1.2105    2.1380    0.0325 H   0  0  0  0  0  0  0  0  0  0  0  0
   -3.3342    0.8928    0.0099 H   0  0  0  0  0  0  0  0  0  0  0  0
   -3.3611   -0.8436   -0.0278 H   0  0  0  0  0  0  0  0  0  0  0  0
    3.0588   -0.8609   -0.0412 H   0  0  0  0  0  0  0  0  0  0  0  0
  1  9  1  0  0  0  0
  2 10  1  0  0  0  0
  3  1  1  0  0  0  0
  3 11  1  0  0  0  0
  4  2  2  0  0  0  0
  4 12  1  0  0  0  0
  5  1  2  0  0  0  0
  5  2  1  0  0  0  0
  6  3  2  0  0  0  0
  6  4  1  0  0  0  0
  7  5  1  0  0  0  0
  7 13  1  0  0  0  0
  7 14  1  0  0  0  0
  8  6  1  0  0  0  0
  8 15  1  0  0  0  0
M  END
>  <DRUGBANK_ID>
DB14144

>  <COMMON_NAME>
p-Aminophenol

>  <CAS_NUMBER>
123-30-8

>  <UNII>
R7P8FRP05V

>  <SYNONYMS>
4-Aminobenzenol; 4-Aminophenol; 4-Hydroxyaniline; p-hydroxyaniline

$$$$
