
 OpenBabel10282417203D

 38 39  0  0  0  0  0  0  0  0999 V2000
    1.7550   -0.6660   -0.8335 C   0  0  0  0  0  0  0  0  0  0  0  0
   -0.7847   -0.7234   -1.6871 C   0  0  0  0  0  0  0  0  0  0  0  0
   -0.2510    0.5417    3.2391 C   0  0  0  0  0  0  0  0  0  0  0  0
    5.1921    3.4729   -3.9282 C   0  0  0  0  0  0  0  0  0  0  0  0
   -0.1177   -0.2790    2.1843 C   0  0  0  0  0  0  0  0  0  0  0  0
   -0.2578    1.9233    2.9970 C   0  0  0  0  0  0  0  0  0  0  0  0
    4.7363    2.1894   -3.7459 C   0  0  0  0  0  0  0  0  0  0  0  0
    4.2890    4.5274   -3.8231 C   0  0  0  0  0  0  0  0  0  0  0  0
   -0.0735    0.3001    0.9142 C   0  0  0  0  0  0  0  0  0  0  0  0
   -0.0380    2.4685    1.6966 C   0  0  0  0  0  0  0  0  0  0  0  0
    3.3838    1.9778   -3.4806 C   0  0  0  0  0  0  0  0  0  0  0  0
    2.9569    4.3020   -3.4310 C   0  0  0  0  0  0  0  0  0  0  0  0
    0.8972    0.5465   -2.5986 C   0  0  0  0  0  0  0  0  0  0  0  0
    0.1042    1.6599    0.5923 C   0  0  0  0  0  0  0  0  0  0  0  0
    2.4766    3.0126   -3.2019 C   0  0  0  0  0  0  0  0  0  0  0  0
    0.5064    1.9281   -2.0001 C   0  0  0  0  0  0  0  0  0  0  0  0
    0.6841   -0.7049   -1.8972 N   0  0  0  0  0  0  0  0  0  0  0  0
    0.6276    2.2380   -0.5585 O   0  0  0  0  0  0  0  0  0  0  0  0
    1.1455    2.9617   -2.8530 O   0  0  0  0  0  0  0  0  0  0  0  0
    1.7149   -1.4706   -0.0967 H   0  0  0  0  0  0  0  0  0  0  0  0
    1.7997    0.2926   -0.3137 H   0  0  0  0  0  0  0  0  0  0  0  0
    2.7871   -0.6386   -1.2173 H   0  0  0  0  0  0  0  0  0  0  0  0
   -1.2052    0.2338   -1.3331 H   0  0  0  0  0  0  0  0  0  0  0  0
   -1.3000   -0.8782   -2.6402 H   0  0  0  0  0  0  0  0  0  0  0  0
   -1.1483   -1.5012   -1.0092 H   0  0  0  0  0  0  0  0  0  0  0  0
   -0.3772    0.1056    4.2264 H   0  0  0  0  0  0  0  0  0  0  0  0
    6.2317    3.6353   -4.1899 H   0  0  0  0  0  0  0  0  0  0  0  0
   -0.0376   -1.3704    2.2628 H   0  0  0  0  0  0  0  0  0  0  0  0
   -0.4096    2.5816    3.8364 H   0  0  0  0  0  0  0  0  0  0  0  0
    5.3926    1.3280   -3.8560 H   0  0  0  0  0  0  0  0  0  0  0  0
    4.6248    5.5344   -4.0462 H   0  0  0  0  0  0  0  0  0  0  0  0
   -0.0710   -0.5021    0.2445 H   0  0  0  0  0  0  0  0  0  0  0  0
    0.0214    3.5482    1.5776 H   0  0  0  0  0  0  0  0  0  0  0  0
    3.1631    0.9327   -3.6146 H   0  0  0  0  0  0  0  0  0  0  0  0
    2.2876    5.1517   -3.3213 H   0  0  0  0  0  0  0  0  0  0  0  0
    1.9501    0.5142   -2.6355 H   0  0  0  0  0  0  0  0  0  0  0  0
    0.5819    0.4617   -3.6480 H   0  0  0  0  0  0  0  0  0  0  0  0
   -0.5592    2.0756   -2.2135 H   0  0  0  0  0  0  0  0  0  0  0  0
  1 20  1  0  0  0  0
  1 21  1  0  0  0  0
  1 22  1  0  0  0  0
  2 23  1  0  0  0  0
  2 24  1  0  0  0  0
  2 25  1  0  0  0  0
  3 26  1  0  0  0  0
  4 27  1  0  0  0  0
  5  3  2  0  0  0  0
  5 28  1  0  0  0  0
  6  3  1  0  0  0  0
  6 29  1  0  0  0  0
  7  4  2  0  0  0  0
  7 30  1  0  0  0  0
  8  4  1  0  0  0  0
  8 31  1  0  0  0  0
  9  5  1  0  0  0  0
  9 32  1  0  0  0  0
 10  6  2  0  0  0  0
 10 33  1  0  0  0  0
 11  7  1  0  0  0  0
 11 34  1  0  0  0  0
 12  8  2  0  0  0  0
 12 35  1  0  0  0  0
 13 36  1  0  0  0  0
 13 37  1  0  0  0  0
 14  9  2  0  0  0  0
 14 10  1  0  0  0  0
 15 11  2  0  0  0  0
 15 12  1  0  0  0  0
 16 13  1  0  0  0  0
 16 38  1  0  0  0  0
 17  1  1  0  0  0  0
 17  2  1  0  0  0  0
 17 13  1  0  0  0  0
 18 14  1  0  0  0  0
 18 16  1  0  0  0  0
 19 15  1  0  0  0  0
 19 16  1  0  0  0  0
M  END
>  <DRUGBANK_ID>
DB13219

>  <COMMON_NAME>
Medifoxamine

>  <CAS_NUMBER>
32359-34-5

>  <UNII>
KWU7C2A1NT

>  <SYNONYMS>
Medifoxamine

$$$$
