4812
 OpenBabel10282417143D

 33 35  0  0  1  0  0  0  0  0999 V2000
   -2.0758   -0.0063   -0.0173 Cl  0  0  0  0  0  0  0  0  0  0  0  0
    4.5960    0.6085    1.0296 O   0  0  0  0  0  0  0  0  0  0  0  0
   10.8260    0.8829   -2.6552 O   0  0  0  0  0  0  0  0  0  0  0  0
    9.0530   -0.2508   -3.4266 O   0  0  0  0  0  0  0  0  0  0  0  0
    4.6543   -0.5953   -0.8960 N   0  0  0  0  0  0  0  0  0  0  0  0
    9.6845   -0.6019   -1.0956 C   0  0  3  0  0  0  0  0  0  0  0  0
    8.3501   -0.2626   -0.4385 C   0  0  0  0  0  0  0  0  0  0  0  0
    5.9262   -0.3270   -0.4821 C   0  0  0  0  0  0  0  0  0  0  0  0
    7.1500   -0.6571   -1.0658 C   0  0  0  0  0  0  0  0  0  0  0  0
    5.9116    0.3840    0.7044 C   0  0  0  0  0  0  0  0  0  0  0  0
    8.2896    0.4290    0.7875 C   0  0  0  0  0  0  0  0  0  0  0  0
    7.0611    0.7728    1.3888 C   0  0  0  0  0  0  0  0  0  0  0  0
    9.8470   -2.1228   -1.2072 C   0  0  0  0  0  0  0  0  0  0  0  0
    3.9028   -0.0073    0.0114 C   0  0  0  0  0  0  0  0  0  0  0  0
    2.4489    0.0164    0.0637 C   0  0  0  0  0  0  0  0  0  0  0  0
    9.8018    0.0153   -2.4925 C   0  0  0  0  0  0  0  0  0  0  0  0
    1.7349    1.2213    0.0471 C   0  0  0  0  0  0  0  0  0  0  0  0
    1.7392   -1.1948    0.0218 C   0  0  0  0  0  0  0  0  0  0  0  0
    0.3347    1.2129    0.0116 C   0  0  0  0  0  0  0  0  0  0  0  0
    0.3413   -1.2045   -0.0032 C   0  0  0  0  0  0  0  0  0  0  0  0
   -0.3553    0.0009   -0.0013 C   0  0  0  0  0  0  0  0  0  0  0  0
   11.3853    1.0503   -1.8760 H   0  0  0  0  0  0  0  0  0  0  0  0
   10.5034   -0.2239   -0.4700 H   0  0  0  0  0  0  0  0  0  0  0  0
    7.1440   -1.1974   -2.0077 H   0  0  0  0  0  0  0  0  0  0  0  0
    9.2100    0.7150    1.2971 H   0  0  0  0  0  0  0  0  0  0  0  0
    7.0147    1.3129    2.3270 H   0  0  0  0  0  0  0  0  0  0  0  0
    9.0750   -2.5682   -1.8462 H   0  0  0  0  0  0  0  0  0  0  0  0
   10.8142   -2.3848   -1.6477 H   0  0  0  0  0  0  0  0  0  0  0  0
    9.7730   -2.6016   -0.2242 H   0  0  0  0  0  0  0  0  0  0  0  0
    2.2632    2.1720    0.0245 H   0  0  0  0  0  0  0  0  0  0  0  0
    2.2791   -2.1403   -0.0030 H   0  0  0  0  0  0  0  0  0  0  0  0
   -0.2108    2.1526   -0.0183 H   0  0  0  0  0  0  0  0  0  0  0  0
   -0.1918   -2.1513   -0.0350 H   0  0  0  0  0  0  0  0  0  0  0  0
  1 21  1  0  0  0  0
  2 10  1  0  0  0  0
  2 14  1  0  0  0  0
  3 16  1  0  0  0  0
  3 22  1  0  0  0  0
  4 16  2  0  0  0  0
  5  8  1  0  0  0  0
  5 14  2  0  0  0  0
  6  7  1  0  0  0  0
  6 13  1  0  0  0  0
  6 16  1  0  0  0  0
  6 23  1  0  0  0  0
  7  9  2  0  0  0  0
  7 11  1  0  0  0  0
  8  9  1  0  0  0  0
  8 10  2  0  0  0  0
  9 24  1  0  0  0  0
 10 12  1  0  0  0  0
 11 12  2  0  0  0  0
 11 25  1  0  0  0  0
 12 26  1  0  0  0  0
 13 27  1  0  0  0  0
 13 28  1  0  0  0  0
 13 29  1  0  0  0  0
 14 15  1  0  0  0  0
 15 17  2  0  0  0  0
 15 18  1  0  0  0  0
 17 19  1  0  0  0  0
 17 30  1  0  0  0  0
 18 20  2  0  0  0  0
 18 31  1  0  0  0  0
 19 21  2  0  0  0  0
 19 32  1  0  0  0  0
 20 21  1  0  0  0  0
 20 33  1  0  0  0  0
M  END
>  <DRUGBANK_ID>
DB04812

>  <COMMON_NAME>
Benoxaprofen

>  <CAS_NUMBER>
51234-28-7

>  <UNII>
17SZX404IM

>  <SYNONYMS>
(±)-benoxaprofen; (1)-2-(4-Chlorophenyl)benzoxazole-5-propionic acid; 2-(4-Chlorophenyl)-alpha-methyl-5-benzoxazoleacetic acid; 2-(4-chlorophenyl)-α-methyl-5-benzoxazoleacetic acid; 2-(p-chlorophenyl)-α-methyl-5-benzoxazoleacetic acid; Benoxaprofen; Benoxaprofene; Benoxaprofeno; Benoxaprofenum; DL-benoxaprofen

$$$$
