
 OpenBabel10282417133D

 53 55  0  0  0  0  0  0  0  0999 V2000
    0.5386    1.3037   -1.0494 C   0  0  1  0  0  0  0  0  0  0  0  0
    1.2926   -0.2758   -1.2211 C   0  0  1  0  0  0  0  0  0  0  0  0
    2.2545   -0.7038   -0.2078 O   0  0  0  0  0  0  0  0  0  0  0  0
   -0.7755    1.0517   -0.3803 C   0  0  1  0  0  0  0  0  0  0  0  0
    0.1274   -1.3080   -1.1112 C   0  0  2  0  0  0  0  0  0  0  0  0
    0.1244   -2.4094   -3.4158 C   0  0  0  0  0  0  0  0  0  0  0  0
   -2.1364   -2.6486   -2.8258 C   0  0  0  0  0  0  0  0  0  0  0  0
   -1.9838   -2.5328   -4.1566 C   0  0  0  0  0  0  0  0  0  0  0  0
   -0.6357   -2.0403   -2.3563 N   0  0  0  0  0  0  0  0  0  0  0  0
   -0.6129   -2.5361   -4.5087 N   0  0  0  0  0  0  0  0  0  0  0  0
   -3.5523   -2.5784   -2.2021 N   0  0  0  0  0  0  0  0  0  0  0  0
   -3.2867   -2.4393   -4.9016 C   0  0  0  0  0  0  0  0  0  0  0  0
   -3.4484   -2.8480   -6.0082 O   0  0  0  0  0  0  0  0  0  0  0  0
   -4.4950   -1.8899   -2.8176 C   0  0  0  0  0  0  0  0  0  0  0  0
   -5.4682   -1.0371   -2.2117 N   0  0  0  0  0  0  0  0  0  0  0  0
   -4.4069   -1.8952   -4.1704 N   0  0  0  0  0  0  0  0  0  0  0  0
   -2.4197    1.8414   -0.1709 C   0  0  0  0  0  0  0  0  0  0  0  0
   -3.6381    1.1896    0.4388 O   0  0  0  0  0  0  0  0  0  0  0  0
   -2.2450   -0.5393    0.0225 O   0  0  0  0  0  0  0  0  0  0  0  0
   -1.3309    0.5733   -2.3014 O   0  0  0  0  0  0  0  0  0  0  0  0
   -3.9861   -0.7326    2.2947 O   0  0  0  0  0  0  0  0  0  0  0  0
   -2.1972   -1.6126   -1.1055 O   0  0  0  0  0  0  0  0  0  0  0  0
   -3.6043   -0.3540    0.8918 P   0  0  3  0  0  0  0  0  0  0  0  0
   -4.3830   -1.4765    0.0964 O   0  0  0  0  0  0  0  0  0  0  0  0
   -2.5655   -0.2696   -1.6560 P   0  0  0  0  0  0  0  0  0  0  0  0
   -2.8859    0.0001   -3.3346 O   0  0  0  0  0  0  0  0  0  0  0  0
   -0.4502   -0.3730   -0.1606 O   0  0  0  0  0  0  0  0  0  0  0  0
    0.8096    2.3496   -0.1800 O   0  0  0  0  0  0  0  0  0  0  0  0
    1.0901    0.4197    1.2974 O   0  0  0  0  0  0  0  0  0  0  0  0
   -0.7503    1.7022    2.4291 O   0  0  0  0  0  0  0  0  0  0  0  0
    2.9112    2.2769    0.8058 O   0  0  0  0  0  0  0  0  0  0  0  0
   -0.1338   -1.0719    2.7208 O   0  0  0  0  0  0  0  0  0  0  0  0
    1.5102    2.0958    1.3813 P   0  0  3  0  0  0  0  0  0  0  0  0
    2.2108    1.8421    2.9426 O   0  0  0  0  0  0  0  0  0  0  0  0
   -0.4877    0.1864    1.9675 P   0  0  0  0  0  0  0  0  0  0  0  0
   -2.0655   -0.0469    2.6376 O   0  0  0  0  0  0  0  0  0  0  0  0
    0.4590    1.7208   -2.0494 H   0  0  0  0  0  0  0  0  0  0  0  0
    1.8494   -0.3011   -2.1409 H   0  0  0  0  0  0  0  0  0  0  0  0
    1.7569   -0.8471    0.6381 H   0  0  0  0  0  0  0  0  0  0  0  0
   -0.6805    1.6142    0.5121 H   0  0  0  0  0  0  0  0  0  0  0  0
    0.3013   -2.1765   -0.4518 H   0  0  0  0  0  0  0  0  0  0  0  0
    1.1957   -2.4476   -3.2455 H   0  0  0  0  0  0  0  0  0  0  0  0
   -5.4614   -0.8476   -1.1964 H   0  0  0  0  0  0  0  0  0  0  0  0
   -6.4104   -0.8754   -2.5669 H   0  0  0  0  0  0  0  0  0  0  0  0
   -5.2844   -1.8151   -4.6550 H   0  0  0  0  0  0  0  0  0  0  0  0
   -2.2764    2.8247    0.3007 H   0  0  0  0  0  0  0  0  0  0  0  0
   -2.8313    2.0778   -1.1454 H   0  0  0  0  0  0  0  0  0  0  0  0
   -1.5400    1.5354   -2.3696 H   0  0  0  0  0  0  0  0  0  0  0  0
   -3.7185   -2.2386    0.1894 H   0  0  0  0  0  0  0  0  0  0  0  0
   -2.1022    0.3720   -3.7785 H   0  0  0  0  0  0  0  0  0  0  0  0
   -0.6445    2.2767    3.1965 H   0  0  0  0  0  0  0  0  0  0  0  0
    2.7683    1.0391    2.8832 H   0  0  0  0  0  0  0  0  0  0  0  0
   -2.1311   -0.9806    2.9411 H   0  0  0  0  0  0  0  0  0  0  0  0
  1  2  1  0  0  0  0
  1 28  1  0  0  0  0
  1 37  1  6  0  0  0
  2  5  1  0  0  0  0
  2  3  1  0  0  0  0
  2 38  1  6  0  0  0
  3 39  1  0  0  0  0
  4  1  1  0  0  0  0
  4 17  1  0  0  0  0
  4 40  1  1  0  0  0
  5  9  1  0  0  0  0
  5 41  1  1  0  0  0
  6  9  1  0  0  0  0
  6 42  1  0  0  0  0
  7 11  1  0  0  0  0
  8  7  2  0  0  0  0
  8 12  1  0  0  0  0
  9  7  1  0  0  0  0
 10  6  2  0  0  0  0
 10  8  1  0  0  0  0
 11 14  2  0  0  0  0
 12 13  2  0  0  0  0
 14 16  1  0  0  0  0
 14 15  1  0  0  0  0
 15 43  1  0  0  0  0
 15 44  1  0  0  0  0
 16 12  1  0  0  0  0
 16 45  1  0  0  0  0
 17 18  1  0  0  0  0
 17 46  1  0  0  0  0
 17 47  1  0  0  0  0
 18 23  1  0  0  0  0
 19 25  1  0  0  0  0
 20 48  1  0  0  0  0
 23 19  1  0  0  0  0
 23 21  2  0  0  0  0
 23 24  1  0  0  0  0
 24 49  1  0  0  0  0
 25 20  1  0  0  0  0
 25 22  2  0  0  0  0
 25 26  1  0  0  0  0
 26 50  1  0  0  0  0
 27  4  1  0  0  0  0
 27  5  1  0  0  0  0
 28 33  1  0  0  0  0
 29 35  1  0  0  0  0
 30 51  1  0  0  0  0
 33 29  1  0  0  0  0
 33 31  2  0  0  0  0
 33 34  1  0  0  0  0
 34 52  1  0  0  0  0
 35 30  1  0  0  0  0
 35 32  2  0  0  0  0
 35 36  1  0  0  0  0
 36 53  1  0  0  0  0
M  END
>  <DRUGBANK_ID>
DB04022

>  <SECONDARY_ACCESSION_NUMBERS>
EXPT01534

>  <COMMON_NAME>
Guanosine tetraphosphate

>  <CAS_NUMBER>
33503-72-9

>  <SYNONYMS>
Guanosine-5',3'-tetraphosphate

$$$$
