
 OpenBabel10282417113D

106107  0  0  0  0  0  0  0  0999 V2000
   -1.4168   -0.2932    0.1078 C   0  0  0  0  0  0  0  0  0  0  0  0
   -0.2816   -1.2591    0.0266 C   0  0  0  0  0  0  0  0  0  0  0  0
    1.0973   -0.8778   -0.0903 C   0  0  0  0  0  0  0  0  0  0  0  0
    1.2941    0.5555   -0.2097 C   0  0  0  0  0  0  0  0  0  0  0  0
    0.3098    1.5670   -0.0099 C   0  0  0  0  0  0  0  0  0  0  0  0
   -1.0292    1.1101    0.0364 C   0  0  0  0  0  0  0  0  0  0  0  0
   -2.4607    2.6825   -1.0572 I   0  0  0  0  0  0  0  0  0  0  0  0
    0.6665    3.0461    0.1311 C   0  0  0  0  0  0  0  0  0  0  0  0
    1.9777    3.4109    0.2130 N   0  0  0  0  0  0  0  0  0  0  0  0
    2.4010    4.7985    0.0612 C   0  0  0  0  0  0  0  0  0  0  0  0
    3.3223    5.1936    1.2089 C   0  0  3  0  0  0  0  0  0  0  0  0
    4.6030    4.3609    1.1969 C   0  0  0  0  0  0  0  0  0  0  0  0
    5.3620    4.5428   -0.0002 O   0  0  0  0  0  0  0  0  0  0  0  0
    3.6493    6.5746    1.1175 O   0  0  0  0  0  0  0  0  0  0  0  0
   -0.1745    3.9627    0.2255 O   0  0  0  0  0  0  0  0  0  0  0  0
    2.8080    1.3564   -1.9545 I   0  0  0  0  0  0  0  0  0  0  0  0
    2.2115   -1.9896    0.1064 C   0  0  0  0  0  0  0  0  0  0  0  0
    2.0258   -3.1925    0.2686 O   0  0  0  0  0  0  0  0  0  0  0  0
   -0.5750   -3.5808   -0.7146 I   0  0  0  0  0  0  0  0  0  0  0  0
   -2.8672   -0.6761    0.3045 N   0  0  0  0  0  0  0  0  0  0  0  0
   -3.0753   -2.1416    0.5656 C   0  0  0  0  0  0  0  0  0  0  0  0
   -3.8025   -2.6569    1.7735 C   0  0  3  0  0  0  0  0  0  0  0  0
   -5.1416   -2.0372    1.8150 C   0  0  0  0  0  0  0  0  0  0  0  0
   -6.0217   -2.2869    0.5320 N   0  0  0  0  0  0  0  0  0  0  0  0
   -7.3649   -2.6788    0.8630 C   0  0  0  0  0  0  0  0  0  0  0  0
   -7.8519   -3.8365    0.2055 C   0  0  0  0  0  0  0  0  0  0  0  0
   -9.1915   -4.2585    0.2813 C   0  0  0  0  0  0  0  0  0  0  0  0
  -10.0339   -3.5683    1.2251 C   0  0  0  0  0  0  0  0  0  0  0  0
   -9.5831   -2.4499    2.0272 C   0  0  0  0  0  0  0  0  0  0  0  0
   -8.2299   -2.0189    1.8140 C   0  0  0  0  0  0  0  0  0  0  0  0
   -7.4527   -0.2463    3.1074 I   0  0  0  0  0  0  0  0  0  0  0  0
  -10.4531   -1.7182    3.0677 C   0  0  0  0  0  0  0  0  0  0  0  0
  -12.0373   -4.4942    1.5878 I   0  0  0  0  0  0  0  0  0  0  0  0
   -9.7236   -5.3543   -0.6155 C   0  0  0  0  0  0  0  0  0  0  0  0
   -8.9346   -5.9020   -1.5762 N   0  0  0  0  0  0  0  0  0  0  0  0
   -9.3939   -7.0157   -2.3853 C   0  0  0  0  0  0  0  0  0  0  0  0
   -9.2777   -6.6849   -3.8687 C   0  0  3  0  0  0  0  0  0  0  0  0
   -7.8222   -6.4189   -4.2733 C   0  0  0  0  0  0  0  0  0  0  0  0
   -7.0082   -7.5690   -4.0389 O   0  0  0  0  0  0  0  0  0  0  0  0
   -9.7998   -7.7734   -4.6285 O   0  0  0  0  0  0  0  0  0  0  0  0
  -10.8840   -5.7715   -0.5690 O   0  0  0  0  0  0  0  0  0  0  0  0
   -6.1812   -5.3616   -0.4457 I   0  0  0  0  0  0  0  0  0  0  0  0
   -5.6630   -2.0933   -0.8775 C   0  0  0  0  0  0  0  0  0  0  0  0
   -4.5825   -1.7044   -1.3318 O   0  0  0  0  0  0  0  0  0  0  0  0
   -6.6675   -2.1827   -2.0064 C   0  0  0  0  0  0  0  0  0  0  0  0
   -3.9964   -4.0698    1.7344 O   0  0  0  0  0  0  0  0  0  0  0  0
   -3.8390    0.3432    0.5754 C   0  0  0  0  0  0  0  0  0  0  0  0
   -3.5259    1.2840    1.3243 O   0  0  0  0  0  0  0  0  0  0  0  0
   -5.3479    0.4081    0.1807 C   0  0  0  0  0  0  0  0  0  0  0  0
    3.5449   -1.7353    0.2308 N   0  0  0  0  0  0  0  0  0  0  0  0
    4.1037   -0.4569    0.3013 C   0  0  0  0  0  0  0  0  0  0  0  0
    4.9079   -0.0505    1.4892 C   0  0  3  0  0  0  0  0  0  0  0  0
    6.2188   -0.7795    1.4470 C   0  0  0  0  0  0  0  0  0  0  0  0
    5.1182    1.3566    1.3735 O   0  0  0  0  0  0  0  0  0  0  0  0
    6.9335   -0.4115    0.2611 O   0  0  0  0  0  0  0  0  0  0  0  0
  -11.7241   -2.1297    3.3051 N   0  0  0  0  0  0  0  0  0  0  0  0
  -10.0897   -0.7508    3.7303 O   0  0  0  0  0  0  0  0  0  0  0  0
  -12.6191   -1.4991    4.2552 C   0  0  0  0  0  0  0  0  0  0  0  0
  -13.8837   -0.9676    3.5723 C   0  0  3  0  0  0  0  0  0  0  0  0
  -14.7013   -2.0760    2.8974 C   0  0  0  0  0  0  0  0  0  0  0  0
  -15.1036   -3.0660    3.8452 O   0  0  0  0  0  0  0  0  0  0  0  0
  -14.6989   -0.3296    4.5566 O   0  0  0  0  0  0  0  0  0  0  0  0
    2.6918    2.6945    0.1794 H   0  0  0  0  0  0  0  0  0  0  0  0
    2.9007    4.8867   -0.9120 H   0  0  0  0  0  0  0  0  0  0  0  0
    1.5526    5.4905   -0.0029 H   0  0  0  0  0  0  0  0  0  0  0  0
    2.7943    5.0164    2.1532 H   0  0  0  0  0  0  0  0  0  0  0  0
    5.2474    4.6092    2.0421 H   0  0  0  0  0  0  0  0  0  0  0  0
    4.3308    3.3178    1.2851 H   0  0  0  0  0  0  0  0  0  0  0  0
    4.8473    4.2165   -0.7570 H   0  0  0  0  0  0  0  0  0  0  0  0
    4.2441    6.6640    0.3508 H   0  0  0  0  0  0  0  0  0  0  0  0
   -3.3289   -2.7375   -0.3138 H   0  0  0  0  0  0  0  0  0  0  0  0
   -2.1249   -2.5334    0.8415 H   0  0  0  0  0  0  0  0  0  0  0  0
   -3.2042   -2.4314    2.6671 H   0  0  0  0  0  0  0  0  0  0  0  0
   -5.6536   -2.4328    2.6981 H   0  0  0  0  0  0  0  0  0  0  0  0
   -4.9151   -1.0011    2.0647 H   0  0  0  0  0  0  0  0  0  0  0  0
   -7.9645   -5.6300   -1.6485 H   0  0  0  0  0  0  0  0  0  0  0  0
   -8.7985   -7.8931   -2.1096 H   0  0  0  0  0  0  0  0  0  0  0  0
  -10.4278   -7.2924   -2.1489 H   0  0  0  0  0  0  0  0  0  0  0  0
   -9.8825   -5.7973   -4.0893 H   0  0  0  0  0  0  0  0  0  0  0  0
   -7.7626   -6.1910   -5.3399 H   0  0  0  0  0  0  0  0  0  0  0  0
   -7.3963   -5.5681   -3.7308 H   0  0  0  0  0  0  0  0  0  0  0  0
   -6.9753   -7.7521   -3.0847 H   0  0  0  0  0  0  0  0  0  0  0  0
   -9.1731   -8.5139   -4.5282 H   0  0  0  0  0  0  0  0  0  0  0  0
   -7.0059   -3.1897   -2.2156 H   0  0  0  0  0  0  0  0  0  0  0  0
   -7.4675   -1.4618   -1.8719 H   0  0  0  0  0  0  0  0  0  0  0  0
   -6.1336   -1.8921   -2.9329 H   0  0  0  0  0  0  0  0  0  0  0  0
   -4.6659   -4.2298    1.0423 H   0  0  0  0  0  0  0  0  0  0  0  0
   -5.6798    0.1545   -0.8199 H   0  0  0  0  0  0  0  0  0  0  0  0
   -5.9693   -0.1076    0.8867 H   0  0  0  0  0  0  0  0  0  0  0  0
   -5.7463    1.4125    0.3345 H   0  0  0  0  0  0  0  0  0  0  0  0
    4.1218   -2.5782    0.2038 H   0  0  0  0  0  0  0  0  0  0  0  0
    4.6032   -0.3065   -0.6534 H   0  0  0  0  0  0  0  0  0  0  0  0
    3.2820    0.2040    0.4319 H   0  0  0  0  0  0  0  0  0  0  0  0
    4.3273   -0.2182    2.4022 H   0  0  0  0  0  0  0  0  0  0  0  0
    6.8167   -0.4809    2.3054 H   0  0  0  0  0  0  0  0  0  0  0  0
    6.0424   -1.8583    1.4569 H   0  0  0  0  0  0  0  0  0  0  0  0
    5.7244    1.5148    0.6214 H   0  0  0  0  0  0  0  0  0  0  0  0
    6.4634   -0.7450   -0.5238 H   0  0  0  0  0  0  0  0  0  0  0  0
  -12.0763   -2.9233    2.7994 H   0  0  0  0  0  0  0  0  0  0  0  0
  -12.8612   -2.2531    5.0117 H   0  0  0  0  0  0  0  0  0  0  0  0
  -12.1227   -0.6879    4.7977 H   0  0  0  0  0  0  0  0  0  0  0  0
  -13.6078   -0.2189    2.8206 H   0  0  0  0  0  0  0  0  0  0  0  0
  -15.6092   -1.6697    2.4457 H   0  0  0  0  0  0  0  0  0  0  0  0
  -14.1441   -2.5526    2.0921 H   0  0  0  0  0  0  0  0  0  0  0  0
  -14.3138   -3.5183    4.1877 H   0  0  0  0  0  0  0  0  0  0  0  0
  -15.0565   -1.0405    5.1217 H   0  0  0  0  0  0  0  0  0  0  0  0
  1  2  1  0  0  0  0
  1  6  2  0  0  0  0
  1 20  1  0  0  0  0
  2  3  2  0  0  0  0
  2 19  1  0  0  0  0
  3  4  1  0  0  0  0
  3 17  1  0  0  0  0
  4 16  1  0  0  0  0
  5  4  2  0  0  0  0
  5  8  1  0  0  0  0
  6  5  1  0  0  0  0
  6  7  1  0  0  0  0
  8  9  1  0  0  0  0
  8 15  2  0  0  0  0
  9 10  1  0  0  0  0
  9 63  1  0  0  0  0
 10 11  1  0  0  0  0
 10 64  1  0  0  0  0
 10 65  1  0  0  0  0
 11 12  1  0  0  0  0
 11 14  1  0  0  0  0
 11 66  1  0  0  0  0
 12 13  1  0  0  0  0
 12 67  1  0  0  0  0
 12 68  1  0  0  0  0
 13 69  1  0  0  0  0
 14 70  1  0  0  0  0
 17 18  2  0  0  0  0
 17 50  1  0  0  0  0
 20 21  1  0  0  0  0
 20 47  1  0  0  0  0
 21 22  1  0  0  0  0
 21 71  1  0  0  0  0
 21 72  1  0  0  0  0
 22 23  1  0  0  0  0
 22 46  1  0  0  0  0
 22 73  1  0  0  0  0
 23 24  1  0  0  0  0
 23 74  1  0  0  0  0
 23 75  1  0  0  0  0
 24 25  1  0  0  0  0
 24 43  1  0  0  0  0
 25 26  1  0  0  0  0
 25 30  2  0  0  0  0
 26 27  2  0  0  0  0
 26 42  1  0  0  0  0
 27 28  1  0  0  0  0
 27 34  1  0  0  0  0
 28 33  1  0  0  0  0
 29 28  2  0  0  0  0
 29 32  1  0  0  0  0
 30 29  1  0  0  0  0
 30 31  1  0  0  0  0
 32 56  1  0  0  0  0
 32 57  2  0  0  0  0
 34 35  1  0  0  0  0
 34 41  2  0  0  0  0
 35 36  1  0  0  0  0
 35 76  1  0  0  0  0
 36 37  1  0  0  0  0
 36 77  1  0  0  0  0
 36 78  1  0  0  0  0
 37 38  1  0  0  0  0
 37 40  1  0  0  0  0
 37 79  1  0  0  0  0
 38 39  1  0  0  0  0
 38 80  1  0  0  0  0
 38 81  1  0  0  0  0
 39 82  1  0  0  0  0
 40 83  1  0  0  0  0
 43 44  2  0  0  0  0
 43 45  1  0  0  0  0
 45 84  1  0  0  0  0
 45 85  1  0  0  0  0
 45 86  1  0  0  0  0
 46 87  1  0  0  0  0
 47 48  2  0  0  0  0
 47 49  1  0  0  0  0
 49 88  1  0  0  0  0
 49 89  1  0  0  0  0
 49 90  1  0  0  0  0
 50 51  1  0  0  0  0
 50 91  1  0  0  0  0
 51 52  1  0  0  0  0
 51 92  1  0  0  0  0
 51 93  1  0  0  0  0
 52 53  1  0  0  0  0
 52 54  1  0  0  0  0
 52 94  1  0  0  0  0
 53 55  1  0  0  0  0
 53 95  1  0  0  0  0
 53 96  1  0  0  0  0
 54 97  1  0  0  0  0
 55 98  1  0  0  0  0
 56 58  1  0  0  0  0
 56 99  1  0  0  0  0
 58 59  1  0  0  0  0
 58100  1  0  0  0  0
 58101  1  0  0  0  0
 59 60  1  0  0  0  0
 59 62  1  0  0  0  0
 59102  1  0  0  0  0
 60 61  1  0  0  0  0
 60103  1  0  0  0  0
 60104  1  0  0  0  0
 61105  1  0  0  0  0
 62106  1  0  0  0  0
M  END
>  <DRUGBANK_ID>
DB01249

>  <COMMON_NAME>
Iodixanol

>  <CAS_NUMBER>
92339-11-2

>  <UNII>
HW8W27HTXX

>  <SYNONYMS>
5,5'-((2-hydroxytrimethylene)bis(acetylimino))bis(N,N'-bis(2,3-dihydroxypropyl)-2,4,6-triiodoisophthalamide); Indixanol; Iodixanol; Iodixanolum

$$$$
