
 OpenBabel10282417123D

 60 62  0  0  0  0  0  0  0  0999 V2000
    0.6334   -0.1051    0.2749 S   0  0  0  0  0  0  0  0  0  0  0  0
   -0.7337    5.2147    0.4697 S   0  0  0  0  0  0  0  0  0  0  0  0
   -0.5238   -0.8383   -0.2949 O   0  0  0  0  0  0  0  0  0  0  0  0
    0.5997   -0.6185    1.6902 O   0  0  0  0  0  0  0  0  0  0  0  0
    2.8764    3.5935   -2.0312 O   0  0  0  0  0  0  0  0  0  0  0  0
    1.8633    2.1014    3.6536 O   0  0  0  0  0  0  0  0  0  0  0  0
    4.0775    1.9010    3.3537 O   0  0  0  0  0  0  0  0  0  0  0  0
    0.0835    1.4714    0.0079 N   0  0  0  0  0  0  0  0  0  0  0  0
    3.1059    2.7602    0.3495 N   0  0  0  0  0  0  0  0  0  0  0  0
    0.7169    2.5357   -1.1171 C   0  0  1  0  0  0  0  0  0  0  0  0
   -0.1403    1.8824    1.4367 C   0  0  0  0  0  0  0  0  0  0  0  0
   -0.1432    3.9389   -1.1740 C   0  0  0  0  0  0  0  0  0  0  0  0
   -0.9915    3.4853    1.9960 C   0  0  0  0  0  0  0  0  0  0  0  0
    2.3005    3.1104   -1.0430 C   0  0  0  0  0  0  0  0  0  0  0  0
    2.8800   -0.1427   -0.6475 C   0  0  0  0  0  0  0  0  0  0  0  0
    2.9297    1.2731    1.4457 C   0  0  1  0  0  0  0  0  0  0  0  0
    2.7281   -0.6958    1.2951 C   0  0  0  0  0  0  0  0  0  0  0  0
    3.6708    0.9062   -0.8588 C   0  0  0  0  0  0  0  0  0  0  0  0
    3.9681   -1.3183   -0.5100 C   0  0  0  0  0  0  0  0  0  0  0  0
    2.9414    1.7500    2.8885 C   0  0  0  0  0  0  0  0  0  0  0  0
    1.8430   -1.7495   -0.2232 C   0  0  0  0  0  0  0  0  0  0  0  0
    5.0404    0.9979   -0.4270 C   0  0  0  0  0  0  0  0  0  0  0  0
    5.3095   -1.3690   -0.3737 C   0  0  0  0  0  0  0  0  0  0  0  0
    5.8304   -0.1367   -0.2376 C   0  0  0  0  0  0  0  0  0  0  0  0
    1.2609   -0.8691   -1.7126 C   0  0  0  0  0  0  0  0  0  0  0  0
    1.9678   -3.0493   -0.5044 C   0  0  0  0  0  0  0  0  0  0  0  0
    7.2828   -0.0775   -0.0776 C   0  0  0  0  0  0  0  0  0  0  0  0
    0.2701   -1.1622   -2.5605 C   0  0  0  0  0  0  0  0  0  0  0  0
    1.2782   -3.3251   -1.6913 C   0  0  0  0  0  0  0  0  0  0  0  0
    0.5720    2.5803    3.1931 C   0  0  0  0  0  0  0  0  0  0  0  0
    0.3354   -2.4964   -2.5181 C   0  0  0  0  0  0  0  0  0  0  0  0
    0.7549    3.5338    1.5496 C   0  0  0  0  0  0  0  0  0  0  0  0
    4.0763    3.0184    0.1482 H   0  0  0  0  0  0  0  0  0  0  0  0
    0.5170    2.0567   -2.1187 H   0  0  0  0  0  0  0  0  0  0  0  0
    0.4216    1.0674    2.0668 H   0  0  0  0  0  0  0  0  0  0  0  0
    1.0694    2.0120    1.6111 H   0  0  0  0  0  0  0  0  0  0  0  0
    0.2581    4.5451   -1.9938 H   0  0  0  0  0  0  0  0  0  0  0  0
   -1.1633    3.6246   -1.3251 H   0  0  0  0  0  0  0  0  0  0  0  0
   -2.1353    3.4764    1.9641 H   0  0  0  0  0  0  0  0  0  0  0  0
   -0.4879    4.2047    2.8746 H   0  0  0  0  0  0  0  0  0  0  0  0
    2.0553    1.1613    0.9645 H   0  0  0  0  0  0  0  0  0  0  0  0
    2.5347   -1.1524    2.2748 H   0  0  0  0  0  0  0  0  0  0  0  0
    3.8266   -0.7014    1.4064 H   0  0  0  0  0  0  0  0  0  0  0  0
    2.7906    1.4322   -0.8105 H   0  0  0  0  0  0  0  0  0  0  0  0
    3.7561   -2.1427    0.2043 H   0  0  0  0  0  0  0  0  0  0  0  0
    5.5320    1.9220   -0.0943 H   0  0  0  0  0  0  0  0  0  0  0  0
    5.7389   -2.3159   -0.0448 H   0  0  0  0  0  0  0  0  0  0  0  0
    1.2242    0.2730   -1.7303 H   0  0  0  0  0  0  0  0  0  0  0  0
    2.7370   -3.6623   -0.0851 H   0  0  0  0  0  0  0  0  0  0  0  0
    7.6006   -0.6192    0.8155 H   0  0  0  0  0  0  0  0  0  0  0  0
    7.6270   -0.5687   -0.9924 H   0  0  0  0  0  0  0  0  0  0  0  0
    7.5987    0.9601   -0.0631 H   0  0  0  0  0  0  0  0  0  0  0  0
   -0.6343   -0.5016   -2.5985 H   0  0  0  0  0  0  0  0  0  0  0  0
    1.4430   -4.3283   -2.0139 H   0  0  0  0  0  0  0  0  0  0  0  0
   -0.2443    1.5157    3.2852 H   0  0  0  0  0  0  0  0  0  0  0  0
   -0.2853    2.8119    3.9471 H   0  0  0  0  0  0  0  0  0  0  0  0
   -0.4393   -2.9933   -3.0567 H   0  0  0  0  0  0  0  0  0  0  0  0
    1.3193    3.3042    0.6168 H   0  0  0  0  0  0  0  0  0  0  0  0
   -0.2809    3.3041    0.6231 H   0  0  0  0  0  0  0  0  0  0  0  0
    1.2896    4.5147    1.7593 H   0  0  0  0  0  0  0  0  0  0  0  0
  1  3  2  0  0  0  0
  1  4  2  0  0  0  0
  1  8  1  0  0  0  0
  1 15  1  0  0  0  0
  2 12  1  0  0  0  0
  2 13  1  0  0  0  0
  5 14  2  0  0  0  0
  6 20  1  0  0  0  0
  6 30  1  0  0  0  0
  7 20  2  0  0  0  0
  8 10  1  0  0  0  0
  8 11  1  0  0  0  0
  9 14  1  0  0  0  0
  9 33  1  0  0  0  0
 10 12  1  0  0  0  0
 10 34  1  6  0  0  0
 10 14  1  0  0  0  0
 11 13  1  0  0  0  0
 11 35  1  0  0  0  0
 11 36  1  0  0  0  0
 12 37  1  0  0  0  0
 12 38  1  0  0  0  0
 13 39  1  0  0  0  0
 13 40  1  0  0  0  0
 15 18  2  0  0  0  0
 15 19  1  0  0  0  0
 16  9  1  0  0  0  0
 16 17  1  0  0  0  0
 16 20  1  0  0  0  0
 16 41  1  6  0  0  0
 17 21  1  0  0  0  0
 17 42  1  0  0  0  0
 17 43  1  0  0  0  0
 18 22  1  0  0  0  0
 18 44  1  0  0  0  0
 19 23  2  0  0  0  0
 19 45  1  0  0  0  0
 21 25  2  0  0  0  0
 21 26  1  0  0  0  0
 22 24  2  0  0  0  0
 22 46  1  0  0  0  0
 23 24  1  0  0  0  0
 23 47  1  0  0  0  0
 24 27  1  0  0  0  0
 25 28  1  0  0  0  0
 25 48  1  0  0  0  0
 26 29  2  0  0  0  0
 26 49  1  0  0  0  0
 27 50  1  0  0  0  0
 27 51  1  0  0  0  0
 27 52  1  0  0  0  0
 28 31  2  0  0  0  0
 28 53  1  0  0  0  0
 29 31  1  0  0  0  0
 29 54  1  0  0  0  0
 30 32  1  0  0  0  0
 30 55  1  0  0  0  0
 30 56  1  0  0  0  0
 31 57  1  0  0  0  0
 32 58  1  0  0  0  0
 32 59  1  0  0  0  0
 32 60  1  0  0  0  0
M  END
>  <DRUGBANK_ID>
DB01712

>  <SECONDARY_ACCESSION_NUMBERS>
EXPT02976

>  <COMMON_NAME>
(3R)-4-(p-toluenesulfonyl)-1,4-thiazane-3-carboxylicacid-L-phenylalanine ethyl ester

$$$$
