
 OpenBabel10282417143D

 38 40  0  0  0  0  0  0  0  0999 V2000
   -2.0853    2.4577   -0.0686 O   0  0  0  0  0  0  0  0  0  0  0  0
   -1.6650    1.3287    0.0592 C   0  0  0  0  0  0  0  0  0  0  0  0
   -2.6249    0.2566    0.0428 N   0  0  0  0  0  0  0  0  0  0  0  0
   -2.3491   -1.0183    0.0777 C   0  0  0  0  0  0  0  0  0  0  0  0
   -1.0260   -1.1913    0.2164 C   0  0  0  0  0  0  0  0  0  0  0  0
    0.3632   -0.1073    0.3421 C   0  0  0  0  0  0  0  0  0  0  0  0
   -0.1227    1.1149    0.1840 C   0  0  0  0  0  0  0  0  0  0  0  0
    1.0217    1.9090    0.0459 C   0  0  0  0  0  0  0  0  0  0  0  0
    2.5389    1.4848   -0.0047 C   0  0  0  0  0  0  0  0  0  0  0  0
    3.1236    0.2171    0.0527 C   0  0  0  0  0  0  0  0  0  0  0  0
    2.1102   -0.6239    0.2635 C   0  0  0  0  0  0  0  0  0  0  0  0
    2.8862   -2.8046    0.1488 S   0  0  0  0  0  0  0  0  0  0  0  0
    3.6891   -3.0121   -1.0365 O   0  0  0  0  0  0  0  0  0  0  0  0
    3.4266   -3.1655    1.4574 O   0  0  0  0  0  0  0  0  0  0  0  0
    1.2921   -4.1169   -0.0823 N   0  0  0  0  0  0  0  0  0  0  0  0
    0.7513   -3.8316   -1.5334 C   0  0  0  0  0  0  0  0  0  0  0  0
    1.1975   -2.4915   -1.9414 C   0  0  0  0  0  0  0  0  0  0  0  0
    0.7517   -1.9200   -0.7153 N   0  0  0  0  0  0  0  0  0  0  0  0
    0.8169   -2.1020    1.1868 C   0  0  0  0  0  0  0  0  0  0  0  0
    0.0009   -3.0184    1.9519 C   0  0  0  0  0  0  0  0  0  0  0  0
    0.1392   -4.1849    1.0594 C   0  0  0  0  0  0  0  0  0  0  0  0
   -3.6149    0.4423   -0.0859 H   0  0  0  0  0  0  0  0  0  0  0  0
   -2.9803   -1.9094   -0.0635 H   0  0  0  0  0  0  0  0  0  0  0  0
   -0.9514   -2.2599    0.0044 H   0  0  0  0  0  0  0  0  0  0  0  0
    0.8474    2.9715   -0.0709 H   0  0  0  0  0  0  0  0  0  0  0  0
    3.2527    2.2994   -0.1068 H   0  0  0  0  0  0  0  0  0  0  0  0
    4.1465   -0.1253   -0.0549 H   0  0  0  0  0  0  0  0  0  0  0  0
   -0.3573   -3.8075   -1.5713 H   0  0  0  0  0  0  0  0  0  0  0  0
    1.1444   -4.5262   -2.2534 H   0  0  0  0  0  0  0  0  0  0  0  0
    0.6741   -2.0036   -2.7909 H   0  0  0  0  0  0  0  0  0  0  0  0
    2.2106   -2.1276   -2.1356 H   0  0  0  0  0  0  0  0  0  0  0  0
    0.6949   -0.9663   -1.1337 H   0  0  0  0  0  0  0  0  0  0  0  0
    0.5723   -1.1985    1.8298 H   0  0  0  0  0  0  0  0  0  0  0  0
    1.7792   -2.0418    1.7171 H   0  0  0  0  0  0  0  0  0  0  0  0
    0.4686   -3.0610    2.9463 H   0  0  0  0  0  0  0  0  0  0  0  0
   -0.9958   -2.5845    2.1605 H   0  0  0  0  0  0  0  0  0  0  0  0
    0.3177   -5.0094    1.7371 H   0  0  0  0  0  0  0  0  0  0  0  0
   -0.8552   -4.3112    0.6037 H   0  0  0  0  0  0  0  0  0  0  0  0
  1  2  2  0  0  0  0
  2  3  1  0  0  0  0
  2  7  1  0  0  0  0
  3  4  1  0  0  0  0
  3 22  1  0  0  0  0
  4  5  2  0  0  0  0
  4 23  1  0  0  0  0
  5  6  1  0  0  0  0
  5 24  1  0  0  0  0
  6  7  1  0  0  0  0
  6 11  2  0  0  0  0
  7  8  2  0  0  0  0
  8  9  1  0  0  0  0
  8 25  1  0  0  0  0
  9 10  2  0  0  0  0
  9 26  1  0  0  0  0
 10 11  1  0  0  0  0
 10 27  1  0  0  0  0
 11 12  1  0  0  0  0
 12 13  2  0  0  0  0
 12 14  2  0  0  0  0
 12 15  1  0  0  0  0
 15 16  1  0  0  0  0
 15 21  1  0  0  0  0
 16 17  1  0  0  0  0
 16 28  1  0  0  0  0
 16 29  1  0  0  0  0
 17 18  1  0  0  0  0
 17 30  1  0  0  0  0
 17 31  1  0  0  0  0
 18 19  1  0  0  0  0
 18 32  1  0  0  0  0
 19 20  1  0  0  0  0
 19 33  1  0  0  0  0
 19 34  1  0  0  0  0
 20 21  1  0  0  0  0
 20 35  1  0  0  0  0
 20 36  1  0  0  0  0
 21 37  1  0  0  0  0
 21 38  1  0  0  0  0
M  END
>  <DRUGBANK_ID>
DB04707

>  <COMMON_NAME>
Hydroxyfasudil

>  <CAS_NUMBER>
105628-72-6

>  <UNII>
EYH4AU7P63

>  <SYNONYMS>
Hydroxy-fasudil

$$$$
