
 OpenBabel10282417193D

 27 27  0  0  0  0  0  0  0  0999 V2000
    1.2091    0.0881    0.3157 C   0  0  0  0  0  0  0  0  0  0  0  0
    0.8714   -2.5788   -2.0048 C   0  0  0  0  0  0  0  0  0  0  0  0
    1.6971   -2.7921   -0.7264 C   0  0  0  0  0  0  0  0  0  0  0  0
   -0.1803   -2.5323    2.3630 C   0  0  0  0  0  0  0  0  0  0  0  0
    0.6696   -1.1803    0.9155 C   0  0  0  0  0  0  0  0  0  0  0  0
    0.4936   -3.3282    1.4705 C   0  0  0  0  0  0  0  0  0  0  0  0
   -1.6495   -1.3613   -3.4216 N   0  0  0  0  0  0  0  0  0  0  0  0
   -0.1028   -1.2182    1.9854 N   0  0  0  0  0  0  0  0  0  0  0  0
    0.3950   -1.2041   -2.1166 N   0  0  0  0  0  0  0  0  0  0  0  0
    0.9764   -2.4793    0.4972 N   0  0  0  0  0  0  0  0  0  0  0  0
    0.6695   -4.7442    1.5570 N   0  0  0  0  0  0  0  0  0  0  0  0
    1.2897   -5.3154    0.6560 O   0  0  0  0  0  0  0  0  0  0  0  0
    0.1726   -5.3040    2.5406 O   0  0  0  0  0  0  0  0  0  0  0  0
   -0.4424    0.8254   -3.3077 O   0  0  0  0  0  0  0  0  0  0  0  0
    0.5320   -1.1111   -4.6375 O   0  0  0  0  0  0  0  0  0  0  0  0
   -0.1887   -0.5778   -3.5233 S   0  0  0  0  0  0  0  0  0  0  0  0
    0.8467    0.9530    0.8756 H   0  0  0  0  0  0  0  0  0  0  0  0
    0.9142    0.3305   -0.7006 H   0  0  0  0  0  0  0  0  0  0  0  0
    2.2994    0.0614    0.3115 H   0  0  0  0  0  0  0  0  0  0  0  0
    1.4967   -2.8372   -2.8633 H   0  0  0  0  0  0  0  0  0  0  0  0
   -0.0068   -3.2281   -1.9734 H   0  0  0  0  0  0  0  0  0  0  0  0
    2.6289   -2.2172   -0.7048 H   0  0  0  0  0  0  0  0  0  0  0  0
    2.0006   -3.8359   -0.7255 H   0  0  0  0  0  0  0  0  0  0  0  0
   -0.6984   -2.8289    3.2680 H   0  0  0  0  0  0  0  0  0  0  0  0
   -2.2557   -1.0265   -4.1704 H   0  0  0  0  0  0  0  0  0  0  0  0
   -1.5309   -2.3691   -3.4793 H   0  0  0  0  0  0  0  0  0  0  0  0
   -0.2887   -0.9409   -1.4035 H   0  0  0  0  0  0  0  0  0  0  0  0
  1 17  1  0  0  0  0
  1 18  1  0  0  0  0
  1 19  1  0  0  0  0
  2 20  1  0  0  0  0
  2 21  1  0  0  0  0
  3  2  1  0  0  0  0
  3 22  1  0  0  0  0
  3 23  1  0  0  0  0
  4 24  1  0  0  0  0
  5  1  1  0  0  0  0
  6  4  2  0  0  0  0
  7 25  1  0  0  0  0
  7 26  1  0  0  0  0
  8  4  1  0  0  0  0
  8  5  2  0  0  0  0
  9  2  1  0  0  0  0
  9 27  1  0  0  0  0
 10  3  1  0  0  0  0
 10  5  1  0  0  0  0
 10  6  1  0  0  0  0
 11  6  1  0  0  0  0
 12 11  2  0  0  0  0
 13 11  2  0  0  0  0
 16  7  1  0  0  0  0
 16  9  1  0  0  0  0
 16 14  2  0  0  0  0
 16 15  2  0  0  0  0
M  END
>  <DRUGBANK_ID>
DB12741

>  <COMMON_NAME>
DTP-348

>  <CAS_NUMBER>
1383370-92-0

>  <UNII>
2HB46A9CNM

$$$$
