
 OpenBabel10282417213D

266274  0  0  1  0  0  0  0  0999 V2000
  -19.3595    8.6057   -0.7899 C   0  0  0  0  0  0  0  0  0  0  0  0
  -17.8943    7.2417   -0.4710 C   0  0  0  0  0  0  0  0  0  0  0  0
  -18.8645    6.6462    0.4374 C   0  0  0  0  0  0  0  0  0  0  0  0
  -17.7242    6.1155   -2.3924 C   0  0  0  0  0  0  0  0  0  0  0  0
  -17.2550    6.4265   -3.9223 C   0  0  1  0  0  0  0  0  0  0  0  0
  -15.5998    7.6958   -4.5139 N   0  0  0  0  0  0  0  0  0  0  0  0
  -14.3910    6.7814   -5.5596 C   0  0  0  0  0  0  0  0  0  0  0  0
  -13.1932    6.8491   -5.2600 O   0  0  0  0  0  0  0  0  0  0  0  0
  -14.9060    5.1303   -5.9128 C   0  0  2  0  0  0  0  0  0  0  0  0
  -16.2348    4.9558   -5.5954 N   0  0  0  0  0  0  0  0  0  0  0  0
  -17.0783    4.9951   -3.7463 C   0  0  0  0  0  0  0  0  0  0  0  0
  -18.5465    5.0982   -3.8596 O   0  0  0  0  0  0  0  0  0  0  0  0
  -16.0926    6.5885   -2.4671 C   0  0  1  0  0  0  0  0  0  0  0  0
  -14.0598    5.9189   -1.4948 C   0  0  0  0  0  0  0  0  0  0  0  0
  -13.4301    5.1628   -3.1111 O   0  0  0  0  0  0  0  0  0  0  0  0
  -15.7986    8.4713   -2.7425 N   0  0  0  0  0  0  0  0  0  0  0  0
  -16.6159    9.5298   -2.9314 C   0  0  0  0  0  0  0  0  0  0  0  0
  -16.6644   10.1792   -3.9745 O   0  0  0  0  0  0  0  0  0  0  0  0
  -17.5772    9.6751   -1.9095 C   0  0  1  0  0  0  0  0  0  0  0  0
  -16.9755   10.0268   -0.6075 C   0  0  0  0  0  0  0  0  0  0  0  0
  -17.0354   11.3124   -1.2574 C   0  0  0  0  0  0  0  0  0  0  0  0
  -18.2966   11.4839   -2.1487 C   0  0  0  0  0  0  0  0  0  0  0  0
  -18.8297   10.1727   -2.5993 N   0  0  0  0  0  0  0  0  0  0  0  0
  -20.5332    9.4906   -3.0227 C   0  0  0  0  0  0  0  0  0  0  0  0
  -21.7876   10.3304   -3.1650 O   0  0  0  0  0  0  0  0  0  0  0  0
  -20.9704    7.8298   -2.9687 C   0  0  1  0  0  0  0  0  0  0  0  0
  -20.6613    7.0955   -4.2165 C   0  0  0  0  0  0  0  0  0  0  0  0
  -19.2962    7.3640   -4.2876 C   0  0  0  0  0  0  0  0  0  0  0  0
  -18.5638    7.5079   -2.0780 C   0  0  0  0  0  0  0  0  0  0  0  0
  -17.8086    6.2969   -5.4876 C   0  0  0  0  0  0  0  0  0  0  0  0
  -21.1015    7.3447   -1.4904 N   0  0  0  0  0  0  0  0  0  0  0  0
  -21.7303    6.2304   -1.1727 C   0  0  0  0  0  0  0  0  0  0  0  0
  -21.2556    5.4850   -0.2877 O   0  0  0  0  0  0  0  0  0  0  0  0
  -23.1119    6.9640   -1.8157 C   0  0  1  0  0  0  0  0  0  0  0  0
  -23.6047    8.3359   -1.6462 C   0  0  0  0  0  0  0  0  0  0  0  0
  -22.7320    9.2009   -2.2324 C   0  0  0  0  0  0  0  0  0  0  0  0
  -22.6294    9.0683   -4.0382 C   0  0  0  0  0  0  0  0  0  0  0  0
  -21.7526    9.8534   -4.9928 C   0  0  0  0  0  0  0  0  0  0  0  0
  -20.6993   10.9886   -4.4256 C   0  0  0  0  0  0  0  0  0  0  0  0
  -20.7154   11.4433   -2.5762 C   0  0  0  0  0  0  0  0  0  0  0  0
  -21.6164   10.2674   -1.3793 C   0  0  0  0  0  0  0  0  0  0  0  0
  -23.0377    6.0499   -2.8743 N   0  0  0  0  0  0  0  0  0  0  0  0
  -23.3200    4.7637   -2.8296 C   0  0  0  0  0  0  0  0  0  0  0  0
  -23.0061    4.3345   -3.9682 O   0  0  0  0  0  0  0  0  0  0  0  0
  -24.5339    4.1845   -1.5260 C   0  0  1  0  0  0  0  0  0  0  0  0
  -23.8850    3.6873   -0.3149 C   0  0  0  0  0  0  0  0  0  0  0  0
  -23.3257    4.7466    0.4336 C   0  0  0  0  0  0  0  0  0  0  0  0
  -22.7260    5.1001    1.5534 C   0  0  0  0  0  0  0  0  0  0  0  0
  -21.8881    6.3535    1.9333 C   0  0  0  0  0  0  0  0  0  0  0  0
  -21.7228    7.5259    1.2896 C   0  0  0  0  0  0  0  0  0  0  0  0
  -22.6657    7.3907    0.4057 C   0  0  0  0  0  0  0  0  0  0  0  0
  -23.4554    5.9174   -0.0259 C   0  0  0  0  0  0  0  0  0  0  0  0
  -25.7503    5.2621   -0.8548 N   0  0  0  0  0  0  0  0  0  0  0  0
  -27.1224    4.9650   -0.8361 C   0  0  0  0  0  0  0  0  0  0  0  0
  -27.9890    5.8466   -0.9863 O   0  0  0  0  0  0  0  0  0  0  0  0
  -26.9560    3.5431   -1.6555 C   0  0  2  0  0  0  0  0  0  0  0  0
  -25.8698    3.2953   -3.6877 N   0  0  0  0  0  0  0  0  0  0  0  0
  -26.3637    4.3965   -5.1448 C   0  0  0  0  0  0  0  0  0  0  0  0
  -25.4196    4.5727   -5.9269 O   0  0  0  0  0  0  0  0  0  0  0  0
  -27.2478    6.0261   -4.3146 C   0  0  1  0  0  0  0  0  0  0  0  0
  -28.5233    5.6203   -3.9546 C   0  0  0  0  0  0  0  0  0  0  0  0
  -27.4461    4.7123   -3.4919 C   0  0  0  0  0  0  0  0  0  0  0  0
  -25.5240    5.0002   -3.5272 C   0  0  0  0  0  0  0  0  0  0  0  0
  -26.7100    4.5068   -2.9343 N   0  0  0  0  0  0  0  0  0  0  0  0
  -26.9211    2.4881   -2.9322 C   0  0  0  0  0  0  0  0  0  0  0  0
  -27.9757    3.0583   -3.1401 C   0  0  0  0  0  0  0  0  0  0  0  0
  -29.1884    1.8706   -1.9395 C   0  0  0  0  0  0  0  0  0  0  0  0
  -28.5319    0.2313   -2.3138 C   0  0  0  0  0  0  0  0  0  0  0  0
  -26.9922    0.1986   -2.8070 C   0  0  0  0  0  0  0  0  0  0  0  0
  -26.1168    1.3095   -2.6555 C   0  0  0  0  0  0  0  0  0  0  0  0
  -26.7541    6.8536   -2.7553 N   0  0  0  0  0  0  0  0  0  0  0  0
  -26.2777    8.0170   -2.3684 C   0  0  0  0  0  0  0  0  0  0  0  0
  -26.0288    8.3899   -1.2418 O   0  0  0  0  0  0  0  0  0  0  0  0
  -25.9985    8.6145   -3.5856 C   0  0  2  0  0  0  0  0  0  0  0  0
  -25.5502    7.4920   -4.4938 N   0  0  0  0  0  0  0  0  0  0  0  0
  -24.8151    9.1118   -4.1041 C   0  0  0  0  0  0  0  0  0  0  0  0
  -25.4307    9.2544   -5.6900 C   0  0  0  0  0  0  0  0  0  0  0  0
  -26.9442    8.2343   -5.9890 C   0  0  0  0  0  0  0  0  0  0  0  0
  -26.9323    9.5152   -6.0302 N   0  0  0  0  0  0  0  0  0  0  0  0
  -26.0175    9.0684   -7.2029 C   0  0  0  0  0  0  0  0  0  0  0  0
  -24.7569    9.3318   -6.8302 C   0  0  0  0  0  0  0  0  0  0  0  0
  -23.7676    9.4913   -7.7519 C   0  0  0  0  0  0  0  0  0  0  0  0
  -24.1438    8.9808   -8.9910 C   0  0  0  0  0  0  0  0  0  0  0  0
  -25.2881    8.2013   -9.1498 C   0  0  0  0  0  0  0  0  0  0  0  0
  -26.2822    8.2046   -8.2431 C   0  0  0  0  0  0  0  0  0  0  0  0
  -29.0964    3.6525   -2.1273 C   0  0  1  0  0  0  0  0  0  0  0  0
  -29.0684    1.9661   -3.6572 C   0  0  0  0  0  0  0  0  0  0  0  0
  -29.6948    3.5999   -0.8150 O   0  0  0  0  0  0  0  0  0  0  0  0
  -14.0447    3.8950   -5.5157 C   0  0  1  0  0  0  0  0  0  0  0  0
  -14.3157    2.6758   -6.3011 C   0  0  0  0  0  0  0  0  0  0  0  0
  -12.7985    4.2853   -5.8142 O   0  0  0  0  0  0  0  0  0  0  0  0
  -17.8052    4.5673   -5.2311 C   0  0  0  0  0  0  0  0  0  0  0  0
  -18.5121    4.4018   -6.3128 O   0  0  0  0  0  0  0  0  0  0  0  0
  -16.2923    3.2832   -4.8122 N   0  0  0  0  0  0  0  0  0  0  0  0
  -14.8968    2.7571   -3.2805 C   0  0  2  0  0  0  0  0  0  0  0  0
  -15.9085    1.7241   -1.9395 C   0  0  0  0  0  0  0  0  0  0  0  0
  -16.1396    3.4320   -1.1364 C   0  0  0  0  0  0  0  0  0  0  0  0
  -15.3716    4.8721   -2.4179 C   0  0  0  0  0  0  0  0  0  0  0  0
  -16.4915    3.8201   -1.3938 N   0  0  0  0  0  0  0  0  0  0  0  0
  -16.5866    4.5703    0.3307 C   0  0  0  0  0  0  0  0  0  0  0  0
  -17.0640    3.4153    0.4270 C   0  0  0  0  0  0  0  0  0  0  0  0
  -18.1977    3.9216    1.0800 C   0  0  0  0  0  0  0  0  0  0  0  0
  -17.9979    5.1904    1.9479 C   0  0  0  0  0  0  0  0  0  0  0  0
  -16.9153    6.3295    1.7661 C   0  0  0  0  0  0  0  0  0  0  0  0
  -16.1148    6.1959    0.7477 C   0  0  0  0  0  0  0  0  0  0  0  0
  -14.3920    3.8466   -1.5207 C   0  0  0  0  0  0  0  0  0  0  0  0
  -13.1587    3.9617   -1.5622 O   0  0  0  0  0  0  0  0  0  0  0  0
  -16.0235    5.3200   -0.9880 N   0  0  0  0  0  0  0  0  0  0  0  0
  -18.0210    4.7154   -1.7121 C   0  0  2  0  0  0  0  0  0  0  0  0
  -18.8871    3.5092   -3.4887 C   0  0  0  0  0  0  0  0  0  0  0  0
  -18.4958    1.9027   -3.1686 C   0  0  0  0  0  0  0  0  0  0  0  0
  -19.0952    1.0672   -1.7814 C   0  0  0  0  0  0  0  0  0  0  0  0
  -19.5556    0.0950   -2.4334 O   0  0  0  0  0  0  0  0  0  0  0  0
  -19.4833    1.3407   -0.6497 O   0  0  0  0  0  0  0  0  0  0  0  0
  -19.3312    6.3204   -2.7997 C   0  0  0  0  0  0  0  0  0  0  0  0
  -20.0914    5.8305   -1.8494 O   0  0  0  0  0  0  0  0  0  0  0  0
  -18.2109    8.0635   -3.4310 N   0  0  0  0  0  0  0  0  0  0  0  0
  -17.2689    7.7922   -4.8475 C   0  0  2  0  0  0  0  0  0  0  0  0
  -18.7788    7.1749   -6.3515 C   0  0  0  0  0  0  0  0  0  0  0  0
  -18.7564    8.2150   -7.1045 C   0  0  0  0  0  0  0  0  0  0  0  0
  -17.2614    8.5247   -7.0722 C   0  0  0  0  0  0  0  0  0  0  0  0
  -16.2071    7.6182   -7.6074 N   0  0  0  0  0  0  0  0  0  0  0  0
  -15.7569    7.9063   -8.8058 C   0  0  0  0  0  0  0  0  0  0  0  0
  -14.8480    7.1097   -9.3741 N   0  0  0  0  0  0  0  0  0  0  0  0
  -16.2821    8.9502   -9.3228 N   0  0  0  0  0  0  0  0  0  0  0  0
  -15.6795    6.1310   -4.2867 C   0  0  0  0  0  0  0  0  0  0  0  0
  -14.5211    6.4917   -3.7518 O   0  0  0  0  0  0  0  0  0  0  0  0
  -15.5626    4.4736   -3.9274 N   0  0  0  0  0  0  0  0  0  0  0  0
  -17.1578    3.2738   -3.2395 C   0  0  2  0  0  0  0  0  0  0  0  0
  -17.5498    2.2436   -5.1766 C   0  0  0  0  0  0  0  0  0  0  0  0
  -16.2995    1.0264   -4.9362 C   0  0  0  0  0  0  0  0  0  0  0  0
  -16.6749    0.0162   -3.9427 C   0  0  0  0  0  0  0  0  0  0  0  0
  -18.0754   -0.2116   -4.4267 C   0  0  0  0  0  0  0  0  0  0  0  0
  -18.1577   -0.4744   -5.7800 N   0  0  0  0  0  0  0  0  0  0  0  0
  -18.9456    3.1493   -1.9010 C   0  0  0  0  0  0  0  0  0  0  0  0
  -18.3037    2.7399   -0.9507 O   0  0  0  0  0  0  0  0  0  0  0  0
  -20.2198    3.3339   -2.1944 O   0  0  0  0  0  0  0  0  0  0  0  0
  -19.8655    8.3688   -1.7648 H   0  0  0  0  0  0  0  0  0  0  0  0
  -19.2913    8.8582   -1.8437 H   0  0  0  0  0  0  0  0  0  0  0  0
  -19.3090    9.5009   -0.3805 H   0  0  0  0  0  0  0  0  0  0  0  0
  -17.1148    7.8837   -0.2468 H   0  0  0  0  0  0  0  0  0  0  0  0
  -19.6126    5.9090    0.3072 H   0  0  0  0  0  0  0  0  0  0  0  0
  -18.2084    5.8864    0.1764 H   0  0  0  0  0  0  0  0  0  0  0  0
  -18.9056    7.5086    1.0053 H   0  0  0  0  0  0  0  0  0  0  0  0
  -17.0348    5.4741   -2.3518 H   0  0  0  0  0  0  0  0  0  0  0  0
  -19.0750    4.9955   -2.5293 H   0  0  0  0  0  0  0  0  0  0  0  0
  -18.1206    6.6264   -3.8602 H   0  0  0  0  0  0  0  0  0  0  0  0
  -15.1534    7.6561   -3.4299 H   0  0  0  0  0  0  0  0  0  0  0  0
  -15.3074    5.1992   -6.8630 H   0  0  0  0  0  0  0  0  0  0  0  0
  -16.5809    4.0466   -5.8806 H   0  0  0  0  0  0  0  0  0  0  0  0
  -16.6336    6.6957   -1.4798 H   0  0  0  0  0  0  0  0  0  0  0  0
  -13.7636    6.9081   -1.2466 H   0  0  0  0  0  0  0  0  0  0  0  0
  -14.3120    5.1032   -0.4000 H   0  0  0  0  0  0  0  0  0  0  0  0
  -14.2491    4.9239   -3.7446 H   0  0  0  0  0  0  0  0  0  0  0  0
  -15.5082    8.7554   -3.8880 H   0  0  0  0  0  0  0  0  0  0  0  0
  -17.7063    8.9317   -1.2751 H   0  0  0  0  0  0  0  0  0  0  0  0
  -17.6275    9.6938    0.2507 H   0  0  0  0  0  0  0  0  0  0  0  0
  -16.0496    9.4032   -0.5554 H   0  0  0  0  0  0  0  0  0  0  0  0
  -17.0166   11.9815   -0.4581 H   0  0  0  0  0  0  0  0  0  0  0  0
  -16.1967   11.3641   -1.9400 H   0  0  0  0  0  0  0  0  0  0  0  0
  -18.9132   12.0827   -1.4843 H   0  0  0  0  0  0  0  0  0  0  0  0
  -18.1738   11.7921   -3.1530 H   0  0  0  0  0  0  0  0  0  0  0  0
  -21.9315    7.6057   -3.1924 H   0  0  0  0  0  0  0  0  0  0  0  0
  -20.5785    6.0197   -4.1248 H   0  0  0  0  0  0  0  0  0  0  0  0
  -20.4866    7.7460   -5.0072 H   0  0  0  0  0  0  0  0  0  0  0  0
  -18.8785    8.7358   -4.7657 H   0  0  0  0  0  0  0  0  0  0  0  0
  -18.6625    6.2595   -1.2650 H   0  0  0  0  0  0  0  0  0  0  0  0
  -17.3719    7.7715   -1.9939 H   0  0  0  0  0  0  0  0  0  0  0  0
  -19.1969    7.1329   -1.3716 H   0  0  0  0  0  0  0  0  0  0  0  0
  -17.1566    6.9106   -6.1479 H   0  0  0  0  0  0  0  0  0  0  0  0
  -16.7109    6.4721   -5.5374 H   0  0  0  0  0  0  0  0  0  0  0  0
  -18.6623    5.9430   -5.1116 H   0  0  0  0  0  0  0  0  0  0  0  0
  -20.4221    7.2334   -0.6876 H   0  0  0  0  0  0  0  0  0  0  0  0
  -24.1488    7.1140   -0.9901 H   0  0  0  0  0  0  0  0  0  0  0  0
  -24.4113    8.1426   -2.2158 H   0  0  0  0  0  0  0  0  0  0  0  0
  -23.7880    8.7889   -0.6510 H   0  0  0  0  0  0  0  0  0  0  0  0
  -23.1936    8.6636   -4.7819 H   0  0  0  0  0  0  0  0  0  0  0  0
  -22.3568   10.0719   -5.8127 H   0  0  0  0  0  0  0  0  0  0  0  0
  -19.8514   10.9815   -5.0720 H   0  0  0  0  0  0  0  0  0  0  0  0
  -20.0077   11.2250   -1.8919 H   0  0  0  0  0  0  0  0  0  0  0  0
  -21.0647    9.4394   -0.7619 H   0  0  0  0  0  0  0  0  0  0  0  0
  -22.3711    6.1472   -3.6119 H   0  0  0  0  0  0  0  0  0  0  0  0
  -24.9977    3.3003   -1.8365 H   0  0  0  0  0  0  0  0  0  0  0  0
  -24.6668    3.4104    0.3531 H   0  0  0  0  0  0  0  0  0  0  0  0
  -23.1553    3.0226   -0.7139 H   0  0  0  0  0  0  0  0  0  0  0  0
  -22.7442    4.2556    2.1524 H   0  0  0  0  0  0  0  0  0  0  0  0
  -21.1248    6.1301    2.6278 H   0  0  0  0  0  0  0  0  0  0  0  0
  -20.8611    8.1818    1.1142 H   0  0  0  0  0  0  0  0  0  0  0  0
  -22.2739    8.1080   -0.3938 H   0  0  0  0  0  0  0  0  0  0  0  0
  -23.9866    5.7409   -1.1782 H   0  0  0  0  0  0  0  0  0  0  0  0
  -25.5279    6.2595   -0.8982 H   0  0  0  0  0  0  0  0  0  0  0  0
  -26.7426    2.7830   -0.8861 H   0  0  0  0  0  0  0  0  0  0  0  0
  -25.4235    2.4608   -4.0673 H   0  0  0  0  0  0  0  0  0  0  0  0
  -27.2941    6.7097   -5.0245 H   0  0  0  0  0  0  0  0  0  0  0  0
  -29.0223    6.5074   -3.5539 H   0  0  0  0  0  0  0  0  0  0  0  0
  -28.9072    5.2306   -4.8607 H   0  0  0  0  0  0  0  0  0  0  0  0
  -24.5620    3.9486   -3.6860 H   0  0  0  0  0  0  0  0  0  0  0  0
  -26.1335    5.4923   -2.8427 H   0  0  0  0  0  0  0  0  0  0  0  0
  -30.3126    2.1454   -2.2236 H   0  0  0  0  0  0  0  0  0  0  0  0
  -29.1548   -0.5032   -2.0250 H   0  0  0  0  0  0  0  0  0  0  0  0
  -26.4610   -0.5886   -3.2384 H   0  0  0  0  0  0  0  0  0  0  0  0
  -25.0532    1.4575   -2.7863 H   0  0  0  0  0  0  0  0  0  0  0  0
  -26.7296    6.3961   -1.8749 H   0  0  0  0  0  0  0  0  0  0  0  0
  -26.5583    9.5711   -3.5917 H   0  0  0  0  0  0  0  0  0  0  0  0
  -25.6520    6.5771   -4.7845 H   0  0  0  0  0  0  0  0  0  0  0  0
  -25.3127    7.5871   -5.4846 H   0  0  0  0  0  0  0  0  0  0  0  0
  -24.4268    9.9070   -3.4108 H   0  0  0  0  0  0  0  0  0  0  0  0
  -24.0978    7.9602   -3.9521 H   0  0  0  0  0  0  0  0  0  0  0  0
  -27.7587    7.5960   -6.5490 H   0  0  0  0  0  0  0  0  0  0  0  0
  -26.9655    9.2133   -5.0369 H   0  0  0  0  0  0  0  0  0  0  0  0
  -22.8054    9.9487   -7.6317 H   0  0  0  0  0  0  0  0  0  0  0  0
  -23.5568    9.1690   -9.8735 H   0  0  0  0  0  0  0  0  0  0  0  0
  -25.4885    7.6553  -10.0367 H   0  0  0  0  0  0  0  0  0  0  0  0
  -27.2580    7.7701   -8.2961 H   0  0  0  0  0  0  0  0  0  0  0  0
  -29.6211    4.2003   -2.9747 H   0  0  0  0  0  0  0  0  0  0  0  0
  -27.9574    1.5771   -2.5082 H   0  0  0  0  0  0  0  0  0  0  0  0
  -29.8735    1.2966   -3.7447 H   0  0  0  0  0  0  0  0  0  0  0  0
  -28.0848    1.6497   -4.3957 H   0  0  0  0  0  0  0  0  0  0  0  0
  -29.1492    2.8964   -0.3812 H   0  0  0  0  0  0  0  0  0  0  0  0
  -13.7712    3.6272   -4.5169 H   0  0  0  0  0  0  0  0  0  0  0  0
  -14.7957    2.9695   -7.2048 H   0  0  0  0  0  0  0  0  0  0  0  0
  -13.8302    1.8082   -5.9045 H   0  0  0  0  0  0  0  0  0  0  0  0
  -15.1608    2.0728   -6.2102 H   0  0  0  0  0  0  0  0  0  0  0  0
  -13.0619    4.7142   -6.6213 H   0  0  0  0  0  0  0  0  0  0  0  0
  -15.9563    2.8819   -5.5525 H   0  0  0  0  0  0  0  0  0  0  0  0
  -14.1763    2.1746   -3.7968 H   0  0  0  0  0  0  0  0  0  0  0  0
  -16.8927    1.4209   -2.2627 H   0  0  0  0  0  0  0  0  0  0  0  0
  -15.3528    1.4449   -1.1935 H   0  0  0  0  0  0  0  0  0  0  0  0
  -14.8124    6.4652   -2.3567 H   0  0  0  0  0  0  0  0  0  0  0  0
  -15.8673    4.3128   -2.5496 H   0  0  0  0  0  0  0  0  0  0  0  0
  -19.1883    3.5974    0.6683 H   0  0  0  0  0  0  0  0  0  0  0  0
  -18.9885    5.6335    2.1279 H   0  0  0  0  0  0  0  0  0  0  0  0
  -17.1058    7.4242    1.6794 H   0  0  0  0  0  0  0  0  0  0  0  0
  -15.7369    7.3007   -0.1165 H   0  0  0  0  0  0  0  0  0  0  0  0
  -15.5702    6.1976   -0.8889 H   0  0  0  0  0  0  0  0  0  0  0  0
  -18.7811    4.6182   -0.8668 H   0  0  0  0  0  0  0  0  0  0  0  0
  -19.6651    3.7297   -4.2901 H   0  0  0  0  0  0  0  0  0  0  0  0
  -18.3540    3.4100   -4.3011 H   0  0  0  0  0  0  0  0  0  0  0  0
  -18.0569    1.4096   -3.8516 H   0  0  0  0  0  0  0  0  0  0  0  0
  -17.1728    1.7980   -3.5647 H   0  0  0  0  0  0  0  0  0  0  0  0
  -19.6058    0.4505   -3.3306 H   0  0  0  0  0  0  0  0  0  0  0  0
  -18.9676    8.8116   -3.4213 H   0  0  0  0  0  0  0  0  0  0  0  0
  -16.8094    8.6807   -5.0022 H   0  0  0  0  0  0  0  0  0  0  0  0
  -17.9019    6.1401   -7.0987 H   0  0  0  0  0  0  0  0  0  0  0  0
  -19.7021    6.1997   -5.9404 H   0  0  0  0  0  0  0  0  0  0  0  0
  -19.0001    7.2956   -7.6639 H   0  0  0  0  0  0  0  0  0  0  0  0
  -19.2572    8.4311   -6.1617 H   0  0  0  0  0  0  0  0  0  0  0  0
  -17.4949    9.4017   -7.5380 H   0  0  0  0  0  0  0  0  0  0  0  0
  -16.7833    9.1029   -6.3253 H   0  0  0  0  0  0  0  0  0  0  0  0
  -15.8507    6.8259   -7.0928 H   0  0  0  0  0  0  0  0  0  0  0  0
  -14.5130    7.3460  -10.2991 H   0  0  0  0  0  0  0  0  0  0  0  0
  -14.4267    6.2918   -8.9648 H   0  0  0  0  0  0  0  0  0  0  0  0
  -15.9497    9.1751  -10.2383 H   0  0  0  0  0  0  0  0  0  0  0  0
  -16.1301    3.5575   -3.8021 H   0  0  0  0  0  0  0  0  0  0  0  0
  -16.2261    2.9582   -2.6937 H   0  0  0  0  0  0  0  0  0  0  0  0
  -18.6056    2.3357   -5.4369 H   0  0  0  0  0  0  0  0  0  0  0  0
  -17.1193    2.7996   -6.4519 H   0  0  0  0  0  0  0  0  0  0  0  0
  -16.2278    0.8415   -5.9596 H   0  0  0  0  0  0  0  0  0  0  0  0
  -15.3406    1.3584   -4.5993 H   0  0  0  0  0  0  0  0  0  0  0  0
  -15.8598   -0.6263   -3.9370 H   0  0  0  0  0  0  0  0  0  0  0  0
  -16.6145    0.0478   -2.8327 H   0  0  0  0  0  0  0  0  0  0  0  0
  -18.4218   -0.8280   -3.6460 H   0  0  0  0  0  0  0  0  0  0  0  0
  -18.9141    0.6908   -4.6704 H   0  0  0  0  0  0  0  0  0  0  0  0
  -19.1632   -0.5209   -5.8849 H   0  0  0  0  0  0  0  0  0  0  0  0
  -17.8969    0.3972   -6.2677 H   0  0  0  0  0  0  0  0  0  0  0  0
  -17.6341    2.0654   -0.8964 H   0  0  0  0  0  0  0  0  0  0  0  0
  1  2  1  0  0  0  0
  1138  1  0  0  0  0
  1139  1  0  0  0  0
  1140  1  0  0  0  0
  2  3  1  0  0  0  0
  2  4  1  0  0  0  0
  2141  1  0  0  0  0
  3142  1  0  0  0  0
  3143  1  0  0  0  0
  3144  1  0  0  0  0
  4145  1  0  0  0  0
  4146  1  0  0  0  0
  5  4  1  0  0  0  0
  5  6  1  0  0  0  0
  5 92  1  0  0  0  0
  5147  1  6  0  0  0
  6  7  1  0  0  0  0
  6148  1  0  0  0  0
  7  8  2  0  0  0  0
  9 89  1  0  0  0  0
  9149  1  6  0  0  0
  9 10  1  0  0  0  0
  9  7  1  0  0  0  0
 10 11  1  0  0  0  0
 10150  1  0  0  0  0
 11 12  2  0  0  0  0
 13 11  1  0  0  0  0
 13 14  1  0  0  0  0
 13 16  1  0  0  0  0
 13151  1  1  0  0  0
 14 15  1  0  0  0  0
 14152  1  0  0  0  0
 14153  1  0  0  0  0
 15154  1  0  0  0  0
 16 17  1  0  0  0  0
 16155  1  0  0  0  0
 17 18  2  0  0  0  0
 19 20  1  0  0  0  0
 19 23  1  0  0  0  0
 19156  1  1  0  0  0
 19 17  1  0  0  0  0
 20 21  1  0  0  0  0
 20157  1  0  0  0  0
 20158  1  0  0  0  0
 21 22  1  0  0  0  0
 21159  1  0  0  0  0
 21160  1  0  0  0  0
 22 23  1  0  0  0  0
 22161  1  0  0  0  0
 22162  1  0  0  0  0
 23 24  1  0  0  0  0
 24 25  2  0  0  0  0
 26 24  1  0  0  0  0
 26 27  1  0  0  0  0
 26 31  1  0  0  0  0
 26163  1  6  0  0  0
 27 28  1  0  0  0  0
 27164  1  0  0  0  0
 27165  1  0  0  0  0
 28 29  1  0  0  0  0
 28 30  1  0  0  0  0
 28166  1  0  0  0  0
 29167  1  0  0  0  0
 29168  1  0  0  0  0
 29169  1  0  0  0  0
 30170  1  0  0  0  0
 30171  1  0  0  0  0
 30172  1  0  0  0  0
 31 32  1  0  0  0  0
 31173  1  0  0  0  0
 32 33  2  0  0  0  0
 34 32  1  0  0  0  0
 34 35  1  0  0  0  0
 34 42  1  0  0  0  0
 34174  1  1  0  0  0
 35 36  1  0  0  0  0
 35175  1  0  0  0  0
 35176  1  0  0  0  0
 36 37  2  0  0  0  0
 36 41  1  0  0  0  0
 37 38  1  0  0  0  0
 37177  1  0  0  0  0
 38 39  2  0  0  0  0
 38178  1  0  0  0  0
 39 40  1  0  0  0  0
 39179  1  0  0  0  0
 40 41  2  0  0  0  0
 40180  1  0  0  0  0
 41181  1  0  0  0  0
 42 43  1  0  0  0  0
 42182  1  0  0  0  0
 43 44  2  0  0  0  0
 45 43  1  0  0  0  0
 45 46  1  0  0  0  0
 45 53  1  0  0  0  0
 45183  1  6  0  0  0
 46 47  1  0  0  0  0
 46184  1  0  0  0  0
 46185  1  0  0  0  0
 47 48  2  0  0  0  0
 47 52  1  0  0  0  0
 48 49  1  0  0  0  0
 48186  1  0  0  0  0
 49 50  2  0  0  0  0
 49187  1  0  0  0  0
 50 51  1  0  0  0  0
 50188  1  0  0  0  0
 51 52  2  0  0  0  0
 51189  1  0  0  0  0
 52190  1  0  0  0  0
 53 54  1  0  0  0  0
 53191  1  0  0  0  0
 54 55  2  0  0  0  0
 56 86  1  0  0  0  0
 56192  1  1  0  0  0
 56 57  1  0  0  0  0
 56 54  1  0  0  0  0
 57 58  1  0  0  0  0
 57193  1  0  0  0  0
 58 59  2  0  0  0  0
 60 58  1  0  0  0  0
 60 61  1  0  0  0  0
 60 71  1  0  0  0  0
 60194  1  6  0  0  0
 61 62  1  0  0  0  0
 61195  1  0  0  0  0
 61196  1  0  0  0  0
 62 63  2  0  0  0  0
 62 66  1  0  0  0  0
 63 64  1  0  0  0  0
 63197  1  0  0  0  0
 64 65  1  0  0  0  0
 64198  1  0  0  0  0
 65 66  2  0  0  0  0
 65 70  1  0  0  0  0
 66 67  1  0  0  0  0
 67 68  2  0  0  0  0
 67199  1  0  0  0  0
 68 69  1  0  0  0  0
 68200  1  0  0  0  0
 69 70  2  0  0  0  0
 69201  1  0  0  0  0
 70202  1  0  0  0  0
 71 72  1  0  0  0  0
 71203  1  0  0  0  0
 72 73  2  0  0  0  0
 74 76  1  0  0  0  0
 74204  1  6  0  0  0
 74 75  1  0  0  0  0
 74 72  1  0  0  0  0
 75205  1  0  0  0  0
 75206  1  0  0  0  0
 76 77  1  0  0  0  0
 76207  1  0  0  0  0
 76208  1  0  0  0  0
 77 78  2  0  0  0  0
 77 81  1  0  0  0  0
 78 79  1  0  0  0  0
 78209  1  0  0  0  0
 79 80  1  0  0  0  0
 79210  1  0  0  0  0
 80 81  2  0  0  0  0
 80 85  1  0  0  0  0
 81 82  1  0  0  0  0
 82 83  2  0  0  0  0
 82211  1  0  0  0  0
 83 84  1  0  0  0  0
 83212  1  0  0  0  0
 84 85  2  0  0  0  0
 84213  1  0  0  0  0
 85214  1  0  0  0  0
 86 87  1  0  0  0  0
 86 88  1  0  0  0  0
 86215  1  6  0  0  0
 87216  1  0  0  0  0
 87217  1  0  0  0  0
 87218  1  0  0  0  0
 88219  1  0  0  0  0
 89 90  1  0  0  0  0
 89 91  1  0  0  0  0
 89220  1  1  0  0  0
 90221  1  0  0  0  0
 90222  1  0  0  0  0
 90223  1  0  0  0  0
 91224  1  0  0  0  0
 92 93  2  0  0  0  0
 92 94  1  0  0  0  0
 94225  1  0  0  0  0
 95106  1  0  0  0  0
 95226  1  6  0  0  0
 95 96  1  0  0  0  0
 95 94  1  0  0  0  0
 96 97  1  0  0  0  0
 96227  1  0  0  0  0
 96228  1  0  0  0  0
 97 98  2  0  0  0  0
 97101  1  0  0  0  0
 98 99  1  0  0  0  0
 98229  1  0  0  0  0
 99100  1  0  0  0  0
 99230  1  0  0  0  0
100101  2  0  0  0  0
100105  1  0  0  0  0
101102  1  0  0  0  0
102103  2  0  0  0  0
102231  1  0  0  0  0
103104  1  0  0  0  0
103232  1  0  0  0  0
104105  2  0  0  0  0
104233  1  0  0  0  0
105234  1  0  0  0  0
106107  2  0  0  0  0
106108  1  0  0  0  0
108235  1  0  0  0  0
109115  1  0  0  0  0
109236  1  1  0  0  0
109110  1  0  0  0  0
109108  1  0  0  0  0
110111  1  0  0  0  0
110237  1  0  0  0  0
110238  1  0  0  0  0
111112  1  0  0  0  0
111239  1  0  0  0  0
111240  1  0  0  0  0
112113  1  0  0  0  0
112114  2  0  0  0  0
113241  1  0  0  0  0
115116  2  0  0  0  0
115117  1  0  0  0  0
117242  1  0  0  0  0
118126  1  0  0  0  0
118243  1  6  0  0  0
118119  1  0  0  0  0
118117  1  0  0  0  0
119120  1  0  0  0  0
119244  1  0  0  0  0
119245  1  0  0  0  0
120121  1  0  0  0  0
120246  1  0  0  0  0
120247  1  0  0  0  0
121122  1  0  0  0  0
121248  1  0  0  0  0
121249  1  0  0  0  0
122123  1  0  0  0  0
122250  1  0  0  0  0
123124  1  0  0  0  0
123125  2  0  0  0  0
124251  1  0  0  0  0
124252  1  0  0  0  0
125253  1  0  0  0  0
126127  2  0  0  0  0
126128  1  0  0  0  0
128254  1  0  0  0  0
129135  1  0  0  0  0
129255  1  1  0  0  0
129130  1  0  0  0  0
129128  1  0  0  0  0
130131  1  0  0  0  0
130256  1  0  0  0  0
130257  1  0  0  0  0
131132  1  0  0  0  0
131258  1  0  0  0  0
131259  1  0  0  0  0
132133  1  0  0  0  0
132260  1  0  0  0  0
132261  1  0  0  0  0
133134  1  0  0  0  0
133262  1  0  0  0  0
133263  1  0  0  0  0
134264  1  0  0  0  0
134265  1  0  0  0  0
135136  1  0  0  0  0
135137  2  0  0  0  0
136266  1  0  0  0  0
M  END
>  <DRUGBANK_ID>
DB14786

>  <COMMON_NAME>
Nerofe

>  <CAS_NUMBER>
1311294-45-7

>  <UNII>
SR717JCM7M

>  <SYNONYMS>
TRP-TRP-THR-PHE-PHE-LEU-PRO-SER-THR-LEU-TRP-GLU-ARG-LYS, (ALL D)-; tumor-cells apoptosis factor; tumor-cells apoptosis factor hormone-peptide; WWTFFLPSTLWERK, (ALL D)-

$$$$
