
 OpenBabel10282417123D

  9  8  0  0  1  0  0  0  0  0999 V2000
    0.9737    0.0738    0.0621 C   0  0  0  0  0  0  0  0  0  0  0  0
    0.3637    0.0385   -1.6629 P   0  0  1  0  0  0  0  0  0  0  0  0
    0.1668   -1.5896   -1.6188 O   0  0  0  0  0  0  0  0  0  0  0  0
   -0.9592    0.6811   -1.2498 O   0  0  0  0  0  0  0  0  0  0  0  0
    0.5937   -0.7698    0.6459 H   0  0  0  0  0  0  0  0  0  0  0  0
    0.6861    1.0041    0.5619 H   0  0  0  0  0  0  0  0  0  0  0  0
    2.0662    0.0251    0.0431 H   0  0  0  0  0  0  0  0  0  0  0  0
   -0.0963    0.0119   -2.9637 H   0  0  0  0  0  0  0  0  0  0  0  0
    0.9468   -2.1337   -1.8373 H   0  0  0  0  0  0  0  0  0  0  0  0
  1  2  1  0  0  0  0
  1  5  1  0  0  0  0
  1  6  1  0  0  0  0
  1  7  1  0  0  0  0
  2  3  1  0  0  0  0
  2  4  2  0  0  0  0
  2  8  1  6  0  0  0
  3  9  1  0  0  0  0
M  END
>  <DRUGBANK_ID>
DB02845

>  <SECONDARY_ACCESSION_NUMBERS>
EXPT02226; DB04390

>  <COMMON_NAME>
Methylphosphinic Acid

>  <CAS_NUMBER>
4206-94-4

$$$$
