
 OpenBabel10282417223D

 34 36  0  0  0  0  0  0  0  0999 V2000
   -0.7389   -0.9323   -0.2261 O   0  0  0  0  0  0  0  0  0  0  0  0
    1.8329    0.8194    1.3434 O   0  0  0  0  0  0  0  0  0  0  0  0
   -0.0114    2.5341    0.4856 O   0  0  0  0  0  0  0  0  0  0  0  0
   -3.5334   -0.0193    0.0915 O   0  0  0  0  0  0  0  0  0  0  0  0
    1.4311   -1.6282   -2.4326 N   0  0  0  0  0  0  0  0  0  0  0  0
    0.9512   -0.5789   -3.1386 N   0  0  0  0  0  0  0  0  0  0  0  0
    1.1181   -2.2016    2.3751 N   0  0  0  0  0  0  0  0  0  0  0  0
    1.8608   -1.6435   -5.1041 N   0  0  0  0  0  0  0  0  0  0  0  0
    3.0175   -3.6424   -5.0613 N   0  0  0  0  0  0  0  0  0  0  0  0
    0.6975   -1.0253    0.0159 C   0  0  2  0  0  0  0  0  0  0  0  0
    1.2393    0.4317    0.0891 C   0  0  1  0  0  0  0  0  0  0  0  0
    0.0047    1.2865   -0.1923 C   0  0  1  0  0  0  0  0  0  0  0  0
   -1.1402    0.3830    0.2282 C   0  0  1  0  0  0  0  0  0  0  0  0
    1.3480   -1.8800   -1.0645 C   0  0  0  0  0  0  0  0  0  0  0  0
   -2.4800    0.8294   -0.3601 C   0  0  0  0  0  0  0  0  0  0  0  0
    2.0604   -3.0610   -0.8487 C   0  0  0  0  0  0  0  0  0  0  0  0
    0.9094   -1.7006    1.3404 C   0  0  0  0  0  0  0  0  0  0  0  0
    2.1336   -2.6467   -3.0225 C   0  0  0  0  0  0  0  0  0  0  0  0
    2.5354   -3.5454   -2.0704 C   0  0  0  0  0  0  0  0  0  0  0  0
    2.3409   -2.6398   -4.4321 C   0  0  0  0  0  0  0  0  0  0  0  0
    1.1891   -0.6519   -4.4215 C   0  0  0  0  0  0  0  0  0  0  0  0
    1.2451    0.5967    2.0878 H   0  0  0  0  0  0  0  0  0  0  0  0
    0.2305    2.3862    1.4176 H   0  0  0  0  0  0  0  0  0  0  0  0
   -3.3172   -0.9198   -0.2113 H   0  0  0  0  0  0  0  0  0  0  0  0
    3.3969   -4.4243   -4.5457 H   0  0  0  0  0  0  0  0  0  0  0  0
    3.1416   -3.6277   -6.0634 H   0  0  0  0  0  0  0  0  0  0  0  0
    2.0067    0.6125   -0.6701 H   0  0  0  0  0  0  0  0  0  0  0  0
   -0.0560    1.4795   -1.2689 H   0  0  0  0  0  0  0  0  0  0  0  0
   -1.2464    0.3561    1.3229 H   0  0  0  0  0  0  0  0  0  0  0  0
   -2.7213    1.8475   -0.0348 H   0  0  0  0  0  0  0  0  0  0  0  0
   -2.4727    0.8060   -1.4537 H   0  0  0  0  0  0  0  0  0  0  0  0
    2.2297   -3.5357    0.1103 H   0  0  0  0  0  0  0  0  0  0  0  0
    3.1091   -4.4471   -2.2261 H   0  0  0  0  0  0  0  0  0  0  0  0
    0.8192    0.1665   -5.0679 H   0  0  0  0  0  0  0  0  0  0  0  0
  1 10  1  0  0  0  0
  1 13  1  0  0  0  0
  2 22  1  0  0  0  0
  3 23  1  0  0  0  0
  4 15  1  0  0  0  0
  4 24  1  0  0  0  0
  5  6  1  0  0  0  0
  5 14  1  0  0  0  0
  5 18  1  0  0  0  0
  6 21  2  0  0  0  0
  7 17  3  0  0  0  0
  8 20  2  0  0  0  0
  8 21  1  0  0  0  0
  9 20  1  0  0  0  0
  9 25  1  0  0  0  0
  9 26  1  0  0  0  0
 10 11  1  0  0  0  0
 10 17  1  1  0  0  0
 10 14  1  0  0  0  0
 11  2  1  0  0  0  0
 11 12  1  0  0  0  0
 11 27  1  6  0  0  0
 12  3  1  0  0  0  0
 12 13  1  0  0  0  0
 12 28  1  6  0  0  0
 13 15  1  0  0  0  0
 13 29  1  1  0  0  0
 14 16  2  0  0  0  0
 15 30  1  0  0  0  0
 15 31  1  0  0  0  0
 16 19  1  0  0  0  0
 16 32  1  0  0  0  0
 18 19  2  0  0  0  0
 18 20  1  0  0  0  0
 19 33  1  0  0  0  0
 21 34  1  0  0  0  0
M  END
>  <DRUGBANK_ID>
DB15686

>  <COMMON_NAME>
GS-441524

>  <CAS_NUMBER>
1191237-69-0

>  <UNII>
1BQK176DT6

$$$$
