
 OpenBabel10282417123D

 34 37  0  0  0  0  0  0  0  0999 V2000
    5.9045    3.9239    3.3888 N   0  0  0  0  0  0  0  0  0  0  0  0
    5.4084    4.5403    2.3131 C   0  0  0  0  0  0  0  0  0  0  0  0
    4.6548    2.0004    2.7282 C   0  0  0  0  0  0  0  0  0  0  0  0
    4.2863    2.7217    1.6151 C   0  0  0  0  0  0  0  0  0  0  0  0
    5.5543    2.6343    3.6046 C   0  0  0  0  0  0  0  0  0  0  0  0
    4.6631    3.9820    1.3589 N   0  0  0  0  0  0  0  0  0  0  0  0
    2.1975    2.4659    0.1857 C   0  0  2  0  0  0  0  0  0  0  0  0
    2.5387    2.8756   -1.1802 O   0  0  0  0  0  0  0  0  0  0  0  0
    2.0603    4.2298   -1.3068 C   0  0  1  0  0  0  0  0  0  0  0  0
    2.2997    4.7238    0.0828 C   0  0  2  0  0  0  0  0  0  0  0  0
    1.6834    3.6763    0.9529 C   0  0  1  0  0  0  0  0  0  0  0  0
    0.2616    3.6779    1.0194 O   0  0  0  0  0  0  0  0  0  0  0  0
    1.9884    5.9998    0.4422 O   0  0  0  0  0  0  0  0  0  0  0  0
    2.8983    5.0733   -2.2411 C   0  0  0  0  0  0  0  0  0  0  0  0
    2.5708    6.4120   -2.0901 O   0  0  0  0  0  0  0  0  0  0  0  0
    0.7767    7.6902   -1.0159 O   0  0  0  0  0  0  0  0  0  0  0  0
    2.1050    7.0630   -0.7168 P   0  0  3  0  0  0  0  0  0  0  0  0
    3.5298    7.7425   -0.4770 O   0  0  0  0  0  0  0  0  0  0  0  0
    3.3330    1.9498    0.9612 N   0  0  0  0  0  0  0  0  0  0  0  0
    3.1856    0.8090    1.7233 C   0  0  0  0  0  0  0  0  0  0  0  0
    3.9973    0.7887    2.7587 N   0  0  0  0  0  0  0  0  0  0  0  0
    6.0678    2.0124    4.7242 N   0  0  0  0  0  0  0  0  0  0  0  0
    5.6139    5.6036    2.2023 H   0  0  0  0  0  0  0  0  0  0  0  0
    1.4459    1.6779    0.0766 H   0  0  0  0  0  0  0  0  0  0  0  0
    0.9979    4.2897   -1.5841 H   0  0  0  0  0  0  0  0  0  0  0  0
    3.3726    4.7387    0.1075 H   0  0  0  0  0  0  0  0  0  0  0  0
    2.0196    3.7799    1.9887 H   0  0  0  0  0  0  0  0  0  0  0  0
    0.0355    3.1438    1.8074 H   0  0  0  0  0  0  0  0  0  0  0  0
    2.7144    4.8436   -3.2901 H   0  0  0  0  0  0  0  0  0  0  0  0
    3.9729    4.9924   -2.0629 H   0  0  0  0  0  0  0  0  0  0  0  0
    4.0754    7.6446   -1.2940 H   0  0  0  0  0  0  0  0  0  0  0  0
    2.4117    0.0786    1.5157 H   0  0  0  0  0  0  0  0  0  0  0  0
    5.9586    1.0069    4.7394 H   0  0  0  0  0  0  0  0  0  0  0  0
    6.9134    2.4380    5.0772 H   0  0  0  0  0  0  0  0  0  0  0  0
  1  2  2  0  0  0  0
  2 23  1  0  0  0  0
  3 21  1  0  0  0  0
  3  4  1  0  0  0  0
  3  5  2  0  0  0  0
  4 19  1  0  0  0  0
  4  6  2  0  0  0  0
  5  1  1  0  0  0  0
  6  2  1  0  0  0  0
  7 11  1  0  0  0  0
  7 24  1  6  0  0  0
  7 19  1  0  0  0  0
  8  7  1  0  0  0  0
  9  8  1  0  0  0  0
  9 14  1  0  0  0  0
  9 10  1  0  0  0  0
  9 25  1  6  0  0  0
 10 13  1  0  0  0  0
 10 11  1  0  0  0  0
 10 26  1  1  0  0  0
 11 27  1  1  0  0  0
 11 12  1  0  0  0  0
 12 28  1  0  0  0  0
 13 17  1  0  0  0  0
 14 29  1  0  0  0  0
 14 30  1  0  0  0  0
 15 14  1  0  0  0  0
 17 15  1  0  0  0  0
 17 16  2  0  0  0  0
 17 18  1  0  0  0  0
 18 31  1  0  0  0  0
 20 19  1  0  0  0  0
 20 32  1  0  0  0  0
 21 20  2  0  0  0  0
 22  5  1  0  0  0  0
 22 33  1  0  0  0  0
 22 34  1  0  0  0  0
M  END
>  <DRUGBANK_ID>
DB02527

>  <SECONDARY_ACCESSION_NUMBERS>
EXPT00959

>  <COMMON_NAME>
Cyclic adenosine monophosphate

>  <CAS_NUMBER>
60-92-4

>  <UNII>
E0399OZS9N

>  <SYNONYMS>
3',5'-cyclic AMP; Adenosine 3',5'-cyclic monophosphate; Adenosine 3',5'-cyclic phosphate; Adenosine 3',5'-phosphate; AMPC; cAMP; Cyclic adenylic acid; Cyclic AMP

$$$$
