C4P
 OpenBabel10282417133D

 61 63  0  0  0  0  0  0  0  0999 V2000
   -2.2726   -0.9612   -0.7380 N   0  0  0  0  0  0  0  0  0  0  0  0
   -2.9557   -1.8874   -1.4486 C   0  0  0  0  0  0  0  0  0  0  0  0
   -4.0150   -1.6406   -2.0447 O   0  0  0  0  0  0  0  0  0  0  0  0
   -2.4888   -3.1349   -1.5298 N   0  0  0  0  0  0  0  0  0  0  0  0
   -1.4805   -3.8148   -0.7321 C   0  0  0  0  0  0  0  0  0  0  0  0
   -0.4184   -4.3460   -1.6953 C   0  0  0  0  0  0  0  0  0  0  0  0
   -0.9968   -5.1415   -2.7539 O   0  0  0  0  0  0  0  0  0  0  0  0
   -1.9797   -4.3967   -3.4922 C   0  0  0  0  0  0  0  0  0  0  0  0
   -3.0929   -3.9529   -2.5698 C   0  0  0  0  0  0  0  0  0  0  0  0
   -3.0066    0.1152   -0.0648 C   0  0  2  0  0  0  0  0  0  0  0  0
   -2.9221   -0.2081    1.4447 C   0  0  0  0  0  0  0  0  0  0  0  0
   -3.6793   -0.9855    2.0231 O   0  0  0  0  0  0  0  0  0  0  0  0
   -1.8704    0.3103    2.1526 N   0  0  0  0  0  0  0  0  0  0  0  0
   -0.7122    0.9899    1.5955 C   0  0  2  0  0  0  0  0  0  0  0  0
    0.3325   -0.0927    1.3435 C   0  0  0  0  0  0  0  0  0  0  0  0
    0.7005   -0.9417    2.1461 O   0  0  0  0  0  0  0  0  0  0  0  0
   -0.3307    2.2075    2.4324 C   0  0  0  0  0  0  0  0  0  0  0  0
    1.0400    3.2056    1.7300 S   0  0  0  0  0  0  0  0  0  0  0  0
    2.4509    2.0309    1.6324 C   0  0  0  0  0  0  0  0  0  0  0  0
    2.9357    1.4922    2.9541 C   0  0  0  0  0  0  0  0  0  0  0  0
    4.2994    1.4740    3.2411 C   0  0  0  0  0  0  0  0  0  0  0  0
    4.7486    1.0580    4.5000 C   0  0  0  0  0  0  0  0  0  0  0  0
    3.8483    0.6665    5.4919 C   0  0  0  0  0  0  0  0  0  0  0  0
    2.5012    0.6414    5.2133 C   0  0  0  0  0  0  0  0  0  0  0  0
    2.0862    0.9644    3.9337 C   0  0  0  0  0  0  0  0  0  0  0  0
   -4.4607    0.1712   -0.5170 C   0  0  0  0  0  0  0  0  0  0  0  0
   -5.3991    1.0440    0.2058 C   0  0  0  0  0  0  0  0  0  0  0  0
   -6.6738    0.5103    0.4428 C   0  0  0  0  0  0  0  0  0  0  0  0
   -7.5362    1.1807    1.2756 C   0  0  0  0  0  0  0  0  0  0  0  0
   -7.1121    2.3736    1.8568 C   0  0  0  0  0  0  0  0  0  0  0  0
   -5.8423    2.9024    1.5965 C   0  0  0  0  0  0  0  0  0  0  0  0
   -4.9998    2.2699    0.7090 C   0  0  0  0  0  0  0  0  0  0  0  0
   -2.5433    1.0742   -0.3015 H   0  0  0  0  0  0  0  0  0  0  0  0
   -0.9441    1.3763    0.6067 H   0  0  0  0  0  0  0  0  0  0  0  0
   -1.2651   -1.0039   -0.7305 H   0  0  0  0  0  0  0  0  0  0  0  0
   -1.9960   -4.6458   -0.2328 H   0  0  0  0  0  0  0  0  0  0  0  0
   -1.0585   -3.1666    0.0421 H   0  0  0  0  0  0  0  0  0  0  0  0
    0.1179   -3.5057   -2.1507 H   0  0  0  0  0  0  0  0  0  0  0  0
    0.2995   -4.9724   -1.1618 H   0  0  0  0  0  0  0  0  0  0  0  0
   -2.3956   -5.0170   -4.2889 H   0  0  0  0  0  0  0  0  0  0  0  0
   -1.4985   -3.5230   -3.9540 H   0  0  0  0  0  0  0  0  0  0  0  0
   -3.6240   -4.7720   -2.0796 H   0  0  0  0  0  0  0  0  0  0  0  0
   -3.8224   -3.3987   -3.1724 H   0  0  0  0  0  0  0  0  0  0  0  0
   -1.8118   -0.0670    3.0967 H   0  0  0  0  0  0  0  0  0  0  0  0
    0.7508   -0.0915    0.3209 H   0  0  0  0  0  0  0  0  0  0  0  0
   -1.2022    2.8751    2.4701 H   0  0  0  0  0  0  0  0  0  0  0  0
   -0.1978    2.0008    3.4954 H   0  0  0  0  0  0  0  0  0  0  0  0
    2.2727    1.2380    0.9047 H   0  0  0  0  0  0  0  0  0  0  0  0
    3.2541    2.6172    1.1679 H   0  0  0  0  0  0  0  0  0  0  0  0
    5.0250    1.7794    2.4905 H   0  0  0  0  0  0  0  0  0  0  0  0
    5.8107    1.0582    4.7175 H   0  0  0  0  0  0  0  0  0  0  0  0
    4.1888    0.3485    6.4701 H   0  0  0  0  0  0  0  0  0  0  0  0
    1.7587    0.3530    5.9524 H   0  0  0  0  0  0  0  0  0  0  0  0
    1.0569    0.7295    3.7491 H   0  0  0  0  0  0  0  0  0  0  0  0
   -4.5153    0.4298   -1.5826 H   0  0  0  0  0  0  0  0  0  0  0  0
   -4.8681   -0.8274   -0.3206 H   0  0  0  0  0  0  0  0  0  0  0  0
   -6.9515   -0.4603    0.0258 H   0  0  0  0  0  0  0  0  0  0  0  0
   -8.5036    0.7451    1.4987 H   0  0  0  0  0  0  0  0  0  0  0  0
   -7.7791    2.8986    2.5276 H   0  0  0  0  0  0  0  0  0  0  0  0
   -5.4934    3.7908    2.1085 H   0  0  0  0  0  0  0  0  0  0  0  0
   -4.0271    2.6855    0.4663 H   0  0  0  0  0  0  0  0  0  0  0  0
  1  2  1  0  0  0  0
  1 35  1  0  0  0  0
  2  3  2  0  0  0  0
  2  4  1  0  0  0  0
  4  5  1  0  0  0  0
  4  9  1  0  0  0  0
  5  6  1  0  0  0  0
  5 36  1  0  0  0  0
  5 37  1  0  0  0  0
  6  7  1  0  0  0  0
  6 38  1  0  0  0  0
  6 39  1  0  0  0  0
  7  8  1  0  0  0  0
  8  9  1  0  0  0  0
  8 40  1  0  0  0  0
  8 41  1  0  0  0  0
  9 42  1  0  0  0  0
  9 43  1  0  0  0  0
 10 26  1  0  0  0  0
 10 33  1  6  0  0  0
 10 11  1  0  0  0  0
 10  1  1  0  0  0  0
 11 12  2  0  0  0  0
 11 13  1  0  0  0  0
 13 44  1  0  0  0  0
 14 17  1  0  0  0  0
 14 34  1  6  0  0  0
 14 15  1  0  0  0  0
 14 13  1  0  0  0  0
 15 16  2  0  0  0  0
 15 45  1  0  0  0  0
 17 18  1  0  0  0  0
 17 46  1  0  0  0  0
 17 47  1  0  0  0  0
 18 19  1  0  0  0  0
 19 20  1  0  0  0  0
 19 48  1  0  0  0  0
 19 49  1  0  0  0  0
 20 21  2  0  0  0  0
 20 25  1  0  0  0  0
 21 22  1  0  0  0  0
 21 50  1  0  0  0  0
 22 23  2  0  0  0  0
 22 51  1  0  0  0  0
 23 24  1  0  0  0  0
 23 52  1  0  0  0  0
 24 25  2  0  0  0  0
 24 53  1  0  0  0  0
 25 54  1  0  0  0  0
 26 27  1  0  0  0  0
 26 55  1  0  0  0  0
 26 56  1  0  0  0  0
 27 28  2  0  0  0  0
 27 32  1  0  0  0  0
 28 29  1  0  0  0  0
 28 57  1  0  0  0  0
 29 30  2  0  0  0  0
 29 58  1  0  0  0  0
 30 31  1  0  0  0  0
 30 59  1  0  0  0  0
 31 32  2  0  0  0  0
 31 60  1  0  0  0  0
 32 61  1  0  0  0  0
M  END
>  <DRUGBANK_ID>
DB03984

>  <SECONDARY_ACCESSION_NUMBERS>
EXPT00813

>  <COMMON_NAME>
Morpholine-4-Carboxylic Acid [1-(2-Benzylsulfanyl-1-Formyl-Ethylcarbamoyl)-2-Phenyl-Ethyl]-Amide

$$$$
