VZZ
 OpenBabel10282417173D

 39 38  0  0  0  0  0  0  0  0999 V2000
    1.0735    0.1970    0.0166 O   0  0  0  0  0  0  0  0  0  0  0  0
    2.2870    0.0574   -0.0009 C   0  0  0  0  0  0  0  0  0  0  0  0
    3.0494    0.4336    1.0436 O   0  0  0  0  0  0  0  0  0  0  0  0
    3.0702   -0.5285   -1.1581 C   0  0  0  0  0  0  0  0  0  0  0  0
    2.6610   -1.9769   -1.4261 C   0  0  0  0  0  0  0  0  0  0  0  0
    1.1743   -2.0969   -1.7769 C   0  0  0  0  0  0  0  0  0  0  0  0
    0.8369   -1.2438   -3.0045 C   0  0  0  0  0  0  0  0  0  0  0  0
    1.6265   -1.7394   -4.2213 C   0  0  0  0  0  0  0  0  0  0  0  0
    1.2573   -3.1873   -4.5201 C   0  0  0  0  0  0  0  0  0  0  0  0
   -0.2370   -3.2707   -4.7923 C   0  0  0  0  0  0  0  0  0  0  0  0
   -0.6102   -2.4024   -6.0098 C   0  0  0  0  0  0  0  0  0  0  0  0
    0.0182   -2.9804   -7.2718 C   0  0  0  0  0  0  0  0  0  0  0  0
   -0.4344   -4.4264   -7.4959 C   0  0  0  0  0  0  0  0  0  0  0  0
   -1.8589   -4.4980   -7.7574 O   0  0  0  0  0  0  0  0  0  0  0  0
   -2.7901   -4.4220   -6.7645 C   0  0  0  0  0  0  0  0  0  0  0  0
   -2.5810   -4.3966   -5.5577 O   0  0  0  0  0  0  0  0  0  0  0  0
   -4.4553   -4.2715   -7.2807 S   0  0  0  0  0  0  0  0  0  0  0  0
    4.0061    0.3210    0.9083 H   0  0  0  0  0  0  0  0  0  0  0  0
    2.9108    0.1145   -2.0316 H   0  0  0  0  0  0  0  0  0  0  0  0
    4.1467   -0.4849   -0.9727 H   0  0  0  0  0  0  0  0  0  0  0  0
    3.2745   -2.3782   -2.2442 H   0  0  0  0  0  0  0  0  0  0  0  0
    2.8860   -2.6113   -0.5645 H   0  0  0  0  0  0  0  0  0  0  0  0
    0.9167   -3.1504   -1.9309 H   0  0  0  0  0  0  0  0  0  0  0  0
    0.5372   -1.8120   -0.9381 H   0  0  0  0  0  0  0  0  0  0  0  0
   -0.2452   -1.2629   -3.1739 H   0  0  0  0  0  0  0  0  0  0  0  0
    1.0412   -0.1828   -2.8455 H   0  0  0  0  0  0  0  0  0  0  0  0
    1.4340   -1.0873   -5.0771 H   0  0  0  0  0  0  0  0  0  0  0  0
    2.7058   -1.6580   -4.0816 H   0  0  0  0  0  0  0  0  0  0  0  0
    1.8401   -3.5702   -5.3621 H   0  0  0  0  0  0  0  0  0  0  0  0
    1.5165   -3.8641   -3.6994 H   0  0  0  0  0  0  0  0  0  0  0  0
   -0.4629   -4.3314   -4.9072 H   0  0  0  0  0  0  0  0  0  0  0  0
   -0.8487   -2.9836   -3.9310 H   0  0  0  0  0  0  0  0  0  0  0  0
   -1.6895   -2.3027   -6.1356 H   0  0  0  0  0  0  0  0  0  0  0  0
   -0.3107   -1.3593   -5.8777 H   0  0  0  0  0  0  0  0  0  0  0  0
   -0.2594   -2.3573   -8.1271 H   0  0  0  0  0  0  0  0  0  0  0  0
    1.1134   -2.9269   -7.2082 H   0  0  0  0  0  0  0  0  0  0  0  0
    0.0780   -4.8008   -8.3886 H   0  0  0  0  0  0  0  0  0  0  0  0
   -0.1361   -5.1124   -6.6949 H   0  0  0  0  0  0  0  0  0  0  0  0
   -4.8777   -3.8867   -6.0648 H   0  0  0  0  0  0  0  0  0  0  0  0
  1  2  2  0  0  0  0
  2  3  1  0  0  0  0
  2  4  1  0  0  0  0
  3 18  1  0  0  0  0
  4  5  1  0  0  0  0
  4 19  1  0  0  0  0
  4 20  1  0  0  0  0
  5  6  1  0  0  0  0
  5 21  1  0  0  0  0
  5 22  1  0  0  0  0
  6  7  1  0  0  0  0
  6 23  1  0  0  0  0
  6 24  1  0  0  0  0
  7  8  1  0  0  0  0
  7 25  1  0  0  0  0
  7 26  1  0  0  0  0
  8  9  1  0  0  0  0
  8 27  1  0  0  0  0
  8 28  1  0  0  0  0
  9 10  1  0  0  0  0
  9 29  1  0  0  0  0
  9 30  1  0  0  0  0
 10 11  1  0  0  0  0
 10 31  1  0  0  0  0
 10 32  1  0  0  0  0
 11 12  1  0  0  0  0
 11 33  1  0  0  0  0
 11 34  1  0  0  0  0
 12 13  1  0  0  0  0
 12 35  1  0  0  0  0
 12 36  1  0  0  0  0
 13 14  1  0  0  0  0
 13 37  1  0  0  0  0
 13 38  1  0  0  0  0
 14 15  1  0  0  0  0
 15 16  2  0  0  0  0
 15 17  1  0  0  0  0
 17 39  1  0  0  0  0
M  END
>  <DRUGBANK_ID>
DB08712

>  <COMMON_NAME>
11-[(MERCAPTOCARBONYL)OXY]UNDECANOIC ACID

$$$$
