PDZ
 OpenBabel10282417173D

 35 37  0  0  0  0  0  0  0  0999 V2000
    1.3782   -0.2106   -0.0118 C   0  0  0  0  0  0  0  0  0  0  0  0
    0.5366   -1.3249   -0.0174 C   0  0  0  0  0  0  0  0  0  0  0  0
   -0.8405   -1.1599   -0.1046 C   0  0  0  0  0  0  0  0  0  0  0  0
   -1.3759    0.1159   -0.1711 C   0  0  0  0  0  0  0  0  0  0  0  0
   -0.5524    1.2314   -0.0207 C   0  0  0  0  0  0  0  0  0  0  0  0
    0.8354    1.0760   -0.0278 C   0  0  0  0  0  0  0  0  0  0  0  0
   -1.0469    2.4936    0.2068 O   0  0  0  0  0  0  0  0  0  0  0  0
   -2.3790    2.6249    0.5428 C   0  0  0  0  0  0  0  0  0  0  0  0
   -3.0314    2.0404    1.6347 C   0  0  0  0  0  0  0  0  0  0  0  0
   -4.3987    2.2724    1.8284 C   0  0  0  0  0  0  0  0  0  0  0  0
   -5.0771    3.2118    1.0517 C   0  0  0  0  0  0  0  0  0  0  0  0
   -4.3983    3.9024    0.0475 C   0  0  0  0  0  0  0  0  0  0  0  0
   -3.1064    3.4780   -0.2792 C   0  0  0  0  0  0  0  0  0  0  0  0
   -5.0007    5.1454   -0.5697 C   0  0  0  0  0  0  0  0  0  0  0  0
   -2.2641    0.9794    2.7627 Cl  0  0  0  0  0  0  0  0  0  0  0  0
   -2.5491    3.8716   -1.4331 F   0  0  0  0  0  0  0  0  0  0  0  0
   -4.2140    6.4174   -0.2095 C   0  0  0  0  0  0  0  0  0  0  0  0
   -2.8222    6.5541   -0.7043 C   0  0  0  0  0  0  0  0  0  0  0  0
   -2.0784    7.5702   -0.2739 C   0  0  0  0  0  0  0  0  0  0  0  0
   -2.6973    8.6053    0.5550 C   0  0  0  0  0  0  0  0  0  0  0  0
   -4.0222    8.4230    0.8551 N   0  0  0  0  0  0  0  0  0  0  0  0
   -4.7854    7.3278    0.5248 N   0  0  0  0  0  0  0  0  0  0  0  0
   -2.0437    9.5858    0.9127 O   0  0  0  0  0  0  0  0  0  0  0  0
    2.4546   -0.3503    0.0413 H   0  0  0  0  0  0  0  0  0  0  0  0
    0.9500   -2.3268    0.0392 H   0  0  0  0  0  0  0  0  0  0  0  0
   -1.5126   -2.0113   -0.0825 H   0  0  0  0  0  0  0  0  0  0  0  0
   -2.4526    0.2183   -0.2465 H   0  0  0  0  0  0  0  0  0  0  0  0
    1.4954    1.9407   -0.0173 H   0  0  0  0  0  0  0  0  0  0  0  0
   -4.9338    1.7546    2.6210 H   0  0  0  0  0  0  0  0  0  0  0  0
   -6.1253    3.4186    1.2584 H   0  0  0  0  0  0  0  0  0  0  0  0
   -5.0784    5.0467   -1.6559 H   0  0  0  0  0  0  0  0  0  0  0  0
   -6.0240    5.2729   -0.1875 H   0  0  0  0  0  0  0  0  0  0  0  0
   -2.3957    5.8405   -1.3818 H   0  0  0  0  0  0  0  0  0  0  0  0
   -1.0434    7.6872   -0.5644 H   0  0  0  0  0  0  0  0  0  0  0  0
   -4.4746    9.1459    1.4040 H   0  0  0  0  0  0  0  0  0  0  0  0
  1  2  2  0  0  0  0
  1  6  1  0  0  0  0
  1 24  1  0  0  0  0
  2  3  1  0  0  0  0
  2 25  1  0  0  0  0
  3  4  2  0  0  0  0
  3 26  1  0  0  0  0
  4  5  1  0  0  0  0
  4 27  1  0  0  0  0
  5  6  2  0  0  0  0
  5  7  1  0  0  0  0
  6 28  1  0  0  0  0
  7  8  1  0  0  0  0
  8  9  2  0  0  0  0
  8 13  1  0  0  0  0
  9 10  1  0  0  0  0
  9 15  1  0  0  0  0
 10 11  2  0  0  0  0
 10 29  1  0  0  0  0
 11 12  1  0  0  0  0
 11 30  1  0  0  0  0
 12 13  2  0  0  0  0
 12 14  1  0  0  0  0
 13 16  1  0  0  0  0
 14 17  1  0  0  0  0
 14 31  1  0  0  0  0
 14 32  1  0  0  0  0
 17 18  1  0  0  0  0
 17 22  2  0  0  0  0
 18 19  2  0  0  0  0
 18 33  1  0  0  0  0
 19 20  1  0  0  0  0
 19 34  1  0  0  0  0
 20 21  1  0  0  0  0
 20 23  2  0  0  0  0
 21 22  1  0  0  0  0
 21 35  1  0  0  0  0
M  END
>  <DRUGBANK_ID>
DB08379

>  <COMMON_NAME>
6-(4-chloro-2-fluoro-3-phenoxybenzyl)pyridazin-3(2H)-one

$$$$
