
 OpenBabel10282417113D

 54 54  0  0  0  0  0  0  0  0999 V2000
   -1.3382   -1.8984   -6.4789 C   0  0  0  0  0  0  0  0  0  0  0  0
   -1.0834   -3.0936   -6.3471 O   0  0  0  0  0  0  0  0  0  0  0  0
   -0.4034   -0.8933   -7.1621 C   0  0  1  0  0  0  0  0  0  0  0  0
    0.4370   -0.1466   -6.0930 C   0  0  1  0  0  0  0  0  0  0  0  0
    1.1674    0.9256   -6.6910 O   0  0  0  0  0  0  0  0  0  0  0  0
   -0.4342    0.5469   -5.0356 C   0  0  2  0  0  0  0  0  0  0  0  0
   -1.7590    0.7340   -5.5711 O   0  0  0  0  0  0  0  0  0  0  0  0
    0.1061    1.9278   -4.5375 C   0  0  2  0  0  0  0  0  0  0  0  0
   -0.2521    2.1157   -3.1539 O   0  0  0  0  0  0  0  0  0  0  0  0
   -0.5416    3.0916   -5.3208 C   0  0  0  0  0  0  0  0  0  0  0  0
   -0.1604    4.3640   -4.8218 O   0  0  0  0  0  0  0  0  0  0  0  0
    0.3321   -1.6294   -8.2051 N   0  0  0  0  0  0  0  0  0  0  0  0
    1.6450   -1.3971   -8.5482 C   0  0  0  0  0  0  0  0  0  0  0  0
    2.2725   -2.2435   -9.5710 C   0  0  0  0  0  0  0  0  0  0  0  0
    2.3515   -0.5419   -8.0701 O   0  0  0  0  0  0  0  0  0  0  0  0
    1.7752   -2.2438  -10.8973 C   0  0  0  0  0  0  0  0  0  0  0  0
    2.4666   -2.9406  -11.9054 C   0  0  0  0  0  0  0  0  0  0  0  0
    3.7616   -3.4588  -11.5222 C   0  0  0  0  0  0  0  0  0  0  0  0
    4.2980   -3.6092  -10.1832 C   0  0  0  0  0  0  0  0  0  0  0  0
    3.5022   -2.9192   -9.2122 C   0  0  0  0  0  0  0  0  0  0  0  0
    1.9105   -2.9844  -13.2384 N   0  0  0  0  0  0  0  0  0  0  0  0
    2.2566   -3.6175  -14.4168 C   0  0  0  0  0  0  0  0  0  0  0  0
    1.5561   -3.4644  -15.4199 O   0  0  0  0  0  0  0  0  0  0  0  0
    3.5087   -4.4300  -14.4882 C   0  0  0  0  0  0  0  0  0  0  0  0
    0.1374   -0.9490  -11.4679 I   0  0  0  0  0  0  0  0  0  0  0  0
    5.2842   -1.9647  -12.6395 I   0  0  0  0  0  0  0  0  0  0  0  0
    4.0923   -2.6514   -6.9491 I   0  0  0  0  0  0  0  0  0  0  0  0
    5.5680   -4.3578   -9.9161 N   0  0  0  0  0  0  0  0  0  0  0  0
    6.3843   -5.1633  -10.7496 C   0  0  0  0  0  0  0  0  0  0  0  0
    7.4165   -5.7172  -10.3454 O   0  0  0  0  0  0  0  0  0  0  0  0
    6.0792   -5.3439  -12.1895 C   0  0  0  0  0  0  0  0  0  0  0  0
    6.1317   -4.3098   -8.5837 C   0  0  0  0  0  0  0  0  0  0  0  0
   -2.2800   -1.4901   -6.0705 H   0  0  0  0  0  0  0  0  0  0  0  0
   -1.0168   -0.1746   -7.7188 H   0  0  0  0  0  0  0  0  0  0  0  0
    1.1336   -0.8438   -5.6001 H   0  0  0  0  0  0  0  0  0  0  0  0
    1.8892    0.5099   -7.2146 H   0  0  0  0  0  0  0  0  0  0  0  0
   -0.5515   -0.1522   -4.2018 H   0  0  0  0  0  0  0  0  0  0  0  0
   -1.6710    1.3334   -6.3411 H   0  0  0  0  0  0  0  0  0  0  0  0
    1.2018    2.0018   -4.5716 H   0  0  0  0  0  0  0  0  0  0  0  0
   -0.6044    1.2747   -2.8178 H   0  0  0  0  0  0  0  0  0  0  0  0
   -0.3047    3.0433   -6.3888 H   0  0  0  0  0  0  0  0  0  0  0  0
   -1.6311    3.0532   -5.2058 H   0  0  0  0  0  0  0  0  0  0  0  0
   -0.4135    4.3379   -3.8796 H   0  0  0  0  0  0  0  0  0  0  0  0
   -0.2294   -2.2371   -8.7884 H   0  0  0  0  0  0  0  0  0  0  0  0
    1.0560   -2.4439  -13.3796 H   0  0  0  0  0  0  0  0  0  0  0  0
    4.3048   -3.7003  -14.5682 H   0  0  0  0  0  0  0  0  0  0  0  0
    3.5438   -5.0883  -13.6249 H   0  0  0  0  0  0  0  0  0  0  0  0
    3.6544   -5.0538  -15.3749 H   0  0  0  0  0  0  0  0  0  0  0  0
    5.0362   -5.6120  -12.2981 H   0  0  0  0  0  0  0  0  0  0  0  0
    6.4292   -4.4355  -12.6592 H   0  0  0  0  0  0  0  0  0  0  0  0
    6.6714   -6.1198  -12.6873 H   0  0  0  0  0  0  0  0  0  0  0  0
    6.4108   -3.2756   -8.3674 H   0  0  0  0  0  0  0  0  0  0  0  0
    5.4275   -4.7887   -7.9037 H   0  0  0  0  0  0  0  0  0  0  0  0
    7.0555   -4.8741   -8.4406 H   0  0  0  0  0  0  0  0  0  0  0  0
  1  2  2  0  0  0  0
  1 33  1  0  0  0  0
  3  4  1  0  0  0  0
  3 34  1  6  0  0  0
  3 12  1  0  0  0  0
  3  1  1  0  0  0  0
  4  5  1  0  0  0  0
  4 35  1  1  0  0  0
  5 36  1  0  0  0  0
  6 37  1  1  0  0  0
  6  7  1  0  0  0  0
  6  4  1  0  0  0  0
  7 38  1  0  0  0  0
  8 10  1  0  0  0  0
  8 39  1  6  0  0  0
  8  9  1  0  0  0  0
  8  6  1  0  0  0  0
  9 40  1  0  0  0  0
 10 11  1  0  0  0  0
 10 41  1  0  0  0  0
 10 42  1  0  0  0  0
 11 43  1  0  0  0  0
 12 13  1  0  0  0  0
 12 44  1  0  0  0  0
 13 14  1  0  0  0  0
 13 15  2  0  0  0  0
 14 16  2  0  0  0  0
 14 20  1  0  0  0  0
 16 17  1  0  0  0  0
 16 25  1  0  0  0  0
 17 18  2  0  0  0  0
 17 21  1  0  0  0  0
 18 19  1  0  0  0  0
 18 26  1  0  0  0  0
 19 20  2  0  0  0  0
 19 28  1  0  0  0  0
 20 27  1  0  0  0  0
 21 22  1  0  0  0  0
 21 45  1  0  0  0  0
 22 23  2  0  0  0  0
 22 24  1  0  0  0  0
 24 46  1  0  0  0  0
 24 47  1  0  0  0  0
 24 48  1  0  0  0  0
 28 29  1  0  0  0  0
 28 32  1  0  0  0  0
 29 30  2  0  0  0  0
 29 31  1  0  0  0  0
 31 49  1  0  0  0  0
 31 50  1  0  0  0  0
 31 51  1  0  0  0  0
 32 52  1  0  0  0  0
 32 53  1  0  0  0  0
 32 54  1  0  0  0  0
M  END
>  <DRUGBANK_ID>
DB01578

>  <COMMON_NAME>
Metrizamide

>  <CAS_NUMBER>
31112-62-6

>  <UNII>
RHH3W8F1CO

>  <SYNONYMS>
Metrizamida; Metrizamide; Metrizamidum

$$$$
