659
 OpenBabel10282417103D

 22 21  0  0  0  0  0  0  0  0999 V2000
    0.9528   -0.0754    0.0292 S   0  0  0  0  0  0  0  0  0  0  0  0
    0.5344    1.0597    1.1001 O   0  0  0  0  0  0  0  0  0  0  0  0
    0.5064    0.3518   -1.2713 O   0  0  0  0  0  0  0  0  0  0  0  0
    0.5635   -1.3391    0.6197 O   0  0  0  0  0  0  0  0  0  0  0  0
    4.5275    2.8622    3.7823 O   0  0  0  0  0  0  0  0  0  0  0  0
    3.3778    2.3289    1.9330 N   0  0  0  0  0  0  0  0  0  0  0  0
    3.2923    1.4027   -0.3364 C   0  0  0  0  0  0  0  0  0  0  0  0
    2.7427    0.0502    0.0991 C   0  0  0  0  0  0  0  0  0  0  0  0
    2.8908    2.5451    0.5821 C   0  0  0  0  0  0  0  0  0  0  0  0
    4.1643    3.1785    2.6535 C   0  0  0  0  0  0  0  0  0  0  0  0
    4.5452    4.4745    2.0005 C   0  0  0  0  0  0  0  0  0  0  0  0
    0.6984    0.7892    2.0248 H   0  0  0  0  0  0  0  0  0  0  0  0
    3.1470    1.4895    2.4516 H   0  0  0  0  0  0  0  0  0  0  0  0
    4.3897    1.3462   -0.3661 H   0  0  0  0  0  0  0  0  0  0  0  0
    2.9648    1.6308   -1.3567 H   0  0  0  0  0  0  0  0  0  0  0  0
    3.0703   -0.2278    1.1053 H   0  0  0  0  0  0  0  0  0  0  0  0
    3.1186   -0.7210   -0.5831 H   0  0  0  0  0  0  0  0  0  0  0  0
    3.2733    3.4790    0.1707 H   0  0  0  0  0  0  0  0  0  0  0  0
    1.8153    2.6968    0.6255 H   0  0  0  0  0  0  0  0  0  0  0  0
    5.1099    4.2733    1.0852 H   0  0  0  0  0  0  0  0  0  0  0  0
    3.6414    5.0469    1.7705 H   0  0  0  0  0  0  0  0  0  0  0  0
    5.1704    5.0601    2.6752 H   0  0  0  0  0  0  0  0  0  0  0  0
  1  2  1  0  0  0  0
  1  3  2  0  0  0  0
  1  4  2  0  0  0  0
  1  8  1  0  0  0  0
  2 12  1  0  0  0  0
  5 10  2  0  0  0  0
  6  9  1  0  0  0  0
  6 10  1  0  0  0  0
  6 13  1  0  0  0  0
  7  8  1  0  0  0  0
  7  9  1  0  0  0  0
  7 14  1  0  0  0  0
  7 15  1  0  0  0  0
  8 16  1  0  0  0  0
  8 17  1  0  0  0  0
  9 18  1  0  0  0  0
  9 19  1  0  0  0  0
 10 11  1  0  0  0  0
 11 20  1  0  0  0  0
 11 21  1  0  0  0  0
 11 22  1  0  0  0  0
M  END
>  <DRUGBANK_ID>
DB00659

>  <SECONDARY_ACCESSION_NUMBERS>
APRD00661

>  <COMMON_NAME>
Acamprosate

>  <CAS_NUMBER>
77337-76-9

>  <UNII>
N4K14YGM3J

>  <SYNONYMS>
3-Acetamido-1-propanesulfonic acid; Acamprosate; Acamprosato; Acamprosatum; N-acetyl homotaurine; N-Acetylhomotaurine

$$$$
