
 OpenBabel10282417223D

 30 32  0  0  0  0  0  0  0  0999 V2000
   -0.3102   -1.0231   -0.0445 C   0  0  0  0  0  0  0  0  0  0  0  0
   -1.2352   -0.0978   -0.0265 N   0  0  0  0  0  0  0  0  0  0  0  0
   -0.4840    1.1805   -0.1604 C   0  0  0  0  0  0  0  0  0  0  0  0
    0.9847    0.8450    0.1191 C   0  0  0  0  0  0  0  0  0  0  0  0
    0.9780   -0.5664   -0.1589 N   0  0  0  0  0  0  0  0  0  0  0  0
   -0.6555   -2.4930    0.0437 C   0  0  0  0  0  0  0  0  0  0  0  0
   -1.3244   -2.8797    1.3579 C   0  0  0  0  0  0  0  0  0  0  0  0
   -2.5526   -2.2615    1.6633 C   0  0  0  0  0  0  0  0  0  0  0  0
   -3.2310   -2.5399    2.8421 C   0  0  0  0  0  0  0  0  0  0  0  0
   -2.7127   -3.4779    3.7274 C   0  0  0  0  0  0  0  0  0  0  0  0
   -1.4990   -4.1549    3.4550 C   0  0  0  0  0  0  0  0  0  0  0  0
   -0.9595   -5.1338    4.3228 C   0  0  0  0  0  0  0  0  0  0  0  0
    0.2374   -5.7905    4.0457 C   0  0  0  0  0  0  0  0  0  0  0  0
    0.9358   -5.4795    2.8924 C   0  0  0  0  0  0  0  0  0  0  0  0
    0.4297   -4.5213    2.0176 C   0  0  0  0  0  0  0  0  0  0  0  0
   -0.7871   -3.8428    2.2560 C   0  0  0  0  0  0  0  0  0  0  0  0
   -3.6358   -3.7655    5.1699 Cl  0  0  0  0  0  0  0  0  0  0  0  0
   -0.8733    1.9307    0.5331 H   0  0  0  0  0  0  0  0  0  0  0  0
   -0.6148    1.5409   -1.1861 H   0  0  0  0  0  0  0  0  0  0  0  0
    1.6697    1.4021   -0.5238 H   0  0  0  0  0  0  0  0  0  0  0  0
    1.2321    1.0309    1.1707 H   0  0  0  0  0  0  0  0  0  0  0  0
    1.8034   -1.1407   -0.0883 H   0  0  0  0  0  0  0  0  0  0  0  0
   -1.3368   -2.7383   -0.7797 H   0  0  0  0  0  0  0  0  0  0  0  0
    0.2579   -3.0554   -0.1534 H   0  0  0  0  0  0  0  0  0  0  0  0
   -2.9873   -1.5316    0.9811 H   0  0  0  0  0  0  0  0  0  0  0  0
   -4.1603   -2.0194    3.0580 H   0  0  0  0  0  0  0  0  0  0  0  0
   -1.4782   -5.4054    5.2412 H   0  0  0  0  0  0  0  0  0  0  0  0
    0.6206   -6.5407    4.7304 H   0  0  0  0  0  0  0  0  0  0  0  0
    1.8724   -5.9793    2.6636 H   0  0  0  0  0  0  0  0  0  0  0  0
    1.0255   -4.3251    1.1317 H   0  0  0  0  0  0  0  0  0  0  0  0
  1  2  2  0  0  0  0
  1  5  1  0  0  0  0
  1  6  1  0  0  0  0
  2  3  1  0  0  0  0
  3  4  1  0  0  0  0
  3 18  1  0  0  0  0
  3 19  1  0  0  0  0
  4  5  1  0  0  0  0
  4 20  1  0  0  0  0
  4 21  1  0  0  0  0
  5 22  1  0  0  0  0
  6  7  1  0  0  0  0
  6 23  1  0  0  0  0
  6 24  1  0  0  0  0
  7  8  1  0  0  0  0
  7 16  2  0  0  0  0
  8  9  2  0  0  0  0
  8 25  1  0  0  0  0
  9 10  1  0  0  0  0
  9 26  1  0  0  0  0
 10 11  2  0  0  0  0
 10 17  1  0  0  0  0
 11 12  1  0  0  0  0
 11 16  1  0  0  0  0
 12 13  2  0  0  0  0
 12 27  1  0  0  0  0
 13 14  1  0  0  0  0
 13 28  1  0  0  0  0
 14 15  2  0  0  0  0
 14 29  1  0  0  0  0
 15 16  1  0  0  0  0
 15 30  1  0  0  0  0
M  END
>  <DRUGBANK_ID>
DB15881

>  <COMMON_NAME>
Clonazoline

>  <CAS_NUMBER>
17692-28-3

>  <UNII>
YH9K692U9S

>  <SYNONYMS>
Clonazolina; Clonazoline; Clonazolinum

$$$$
