
 OpenBabel10282417233D

 48 50  0  0  0  0  0  0  0  0999 V2000
    0.8713    0.2820   -0.1287 C   0  0  0  0  0  0  0  0  0  0  0  0
    0.3469    1.6789   -0.3208 C   0  0  0  0  0  0  0  0  0  0  0  0
    1.1811    2.6899   -0.0282 N   0  0  0  0  0  0  0  0  0  0  0  0
    0.4970    3.8043   -0.3276 N   0  0  0  0  0  0  0  0  0  0  0  0
    1.1236    5.1068   -0.1333 C   0  0  0  0  0  0  0  0  0  0  0  0
    1.4158    5.9350   -1.3981 C   0  0  0  0  0  0  0  0  0  0  0  0
    0.2860    6.2206   -2.3574 C   0  0  0  0  0  0  0  0  0  0  0  0
   -0.2989    7.4331   -2.2584 O   0  0  0  0  0  0  0  0  0  0  0  0
   -0.1157    5.4010   -3.1801 O   0  0  0  0  0  0  0  0  0  0  0  0
   -0.8053    3.5651   -0.6825 C   0  0  0  0  0  0  0  0  0  0  0  0
   -1.7234    4.7161   -0.9299 C   0  0  0  0  0  0  0  0  0  0  0  0
   -0.9421    2.1686   -0.7831 C   0  0  0  0  0  0  0  0  0  0  0  0
   -2.1030    1.3404   -1.3482 C   0  0  0  0  0  0  0  0  0  0  0  0
   -3.3889    1.5976   -0.5776 C   0  0  0  0  0  0  0  0  0  0  0  0
   -4.0077    2.8670   -0.6460 C   0  0  0  0  0  0  0  0  0  0  0  0
   -5.0722    3.2982    0.1675 C   0  0  0  0  0  0  0  0  0  0  0  0
   -5.4847    4.7415    0.2155 C   0  0  0  0  0  0  0  0  0  0  0  0
   -5.7095    2.3310    0.9121 C   0  0  0  0  0  0  0  0  0  0  0  0
   -6.8094    2.5853    1.6737 O   0  0  0  0  0  0  0  0  0  0  0  0
   -5.2472    1.0254    0.8519 C   0  0  0  0  0  0  0  0  0  0  0  0
   -4.1014    0.6405    0.1360 C   0  0  0  0  0  0  0  0  0  0  0  0
   -3.9091   -0.8458    0.2347 C   0  0  0  0  0  0  0  0  0  0  0  0
   -5.0712   -1.3152    1.1387 C   0  0  0  0  0  0  0  0  0  0  0  0
   -5.9073   -0.1079    1.5457 C   0  0  0  0  0  0  0  0  0  0  0  0
    0.5568   -0.4065   -0.9183 H   0  0  0  0  0  0  0  0  0  0  0  0
    0.5546   -0.1305    0.8365 H   0  0  0  0  0  0  0  0  0  0  0  0
    1.9723    0.2656   -0.1200 H   0  0  0  0  0  0  0  0  0  0  0  0
    0.5079    5.6551    0.5914 H   0  0  0  0  0  0  0  0  0  0  0  0
    2.0816    4.9209    0.3725 H   0  0  0  0  0  0  0  0  0  0  0  0
    1.8771    6.8880   -1.1143 H   0  0  0  0  0  0  0  0  0  0  0  0
    2.1571    5.4000   -1.9994 H   0  0  0  0  0  0  0  0  0  0  0  0
    0.1513    8.1119   -1.7239 H   0  0  0  0  0  0  0  0  0  0  0  0
   -2.0856    4.7173   -1.9653 H   0  0  0  0  0  0  0  0  0  0  0  0
   -2.5479    4.7527   -0.2247 H   0  0  0  0  0  0  0  0  0  0  0  0
   -1.2773    5.6874   -0.7334 H   0  0  0  0  0  0  0  0  0  0  0  0
   -2.2623    1.6069   -2.4026 H   0  0  0  0  0  0  0  0  0  0  0  0
   -1.8524    0.2735   -1.3359 H   0  0  0  0  0  0  0  0  0  0  0  0
   -3.6467    3.5600   -1.3902 H   0  0  0  0  0  0  0  0  0  0  0  0
   -6.5028    4.8574   -0.1652 H   0  0  0  0  0  0  0  0  0  0  0  0
   -5.4499    5.1065    1.2510 H   0  0  0  0  0  0  0  0  0  0  0  0
   -4.8266    5.3916   -0.3692 H   0  0  0  0  0  0  0  0  0  0  0  0
   -7.0314    3.5259    1.6082 H   0  0  0  0  0  0  0  0  0  0  0  0
   -2.9432   -1.1109    0.6741 H   0  0  0  0  0  0  0  0  0  0  0  0
   -3.9946   -1.3262   -0.7478 H   0  0  0  0  0  0  0  0  0  0  0  0
   -4.7001   -1.8242    2.0357 H   0  0  0  0  0  0  0  0  0  0  0  0
   -5.7073   -2.0449    0.6217 H   0  0  0  0  0  0  0  0  0  0  0  0
   -5.8730    0.0646    2.6247 H   0  0  0  0  0  0  0  0  0  0  0  0
   -6.9440   -0.1988    1.2064 H   0  0  0  0  0  0  0  0  0  0  0  0
  1  2  1  0  0  0  0
  1 25  1  0  0  0  0
  1 26  1  0  0  0  0
  1 27  1  0  0  0  0
  2  3  2  0  0  0  0
  2 12  1  0  0  0  0
  3  4  1  0  0  0  0
  4  5  1  0  0  0  0
  4 10  1  0  0  0  0
  5  6  1  0  0  0  0
  5 28  1  0  0  0  0
  5 29  1  0  0  0  0
  6  7  1  0  0  0  0
  6 30  1  0  0  0  0
  6 31  1  0  0  0  0
  7  8  1  0  0  0  0
  7  9  2  0  0  0  0
  8 32  1  0  0  0  0
 10 11  1  0  0  0  0
 10 12  2  0  0  0  0
 11 33  1  0  0  0  0
 11 34  1  0  0  0  0
 11 35  1  0  0  0  0
 12 13  1  0  0  0  0
 13 14  1  0  0  0  0
 13 36  1  0  0  0  0
 13 37  1  0  0  0  0
 14 15  2  0  0  0  0
 14 21  1  0  0  0  0
 15 16  1  0  0  0  0
 15 38  1  0  0  0  0
 16 17  1  0  0  0  0
 16 18  2  0  0  0  0
 17 39  1  0  0  0  0
 17 40  1  0  0  0  0
 17 41  1  0  0  0  0
 18 19  1  0  0  0  0
 18 20  1  0  0  0  0
 19 42  1  0  0  0  0
 20 21  2  0  0  0  0
 20 24  1  0  0  0  0
 21 22  1  0  0  0  0
 22 23  1  0  0  0  0
 22 43  1  0  0  0  0
 22 44  1  0  0  0  0
 23 24  1  0  0  0  0
 23 45  1  0  0  0  0
 23 46  1  0  0  0  0
 24 47  1  0  0  0  0
 24 48  1  0  0  0  0
M  END
>  <DRUGBANK_ID>
DB16046

>  <COMMON_NAME>
TRC150094

>  <CAS_NUMBER>
1092551-88-6

>  <UNII>
B93608MTGW

$$$$
