
 OpenBabel10282417183D

 29 31  0  0  0  0  0  0  0  0999 V2000
   -0.0611    0.7944   -0.0349 C   0  0  0  0  0  0  0  0  0  0  0  0
    0.7426   -0.4675    0.0939 C   0  0  0  0  0  0  0  0  0  0  0  0
   -0.7463   -0.5589   -0.1543 C   0  0  0  0  0  0  0  0  0  0  0  0
   -1.7487   -1.0932    0.8622 C   0  0  0  0  0  0  0  0  0  0  0  0
   -3.1406   -0.5151    0.6444 C   0  0  0  0  0  0  0  0  0  0  0  0
   -3.8556   -0.5530   -0.6971 C   0  0  0  0  0  0  0  0  0  0  0  0
   -3.4091    0.7640   -0.1294 C   0  0  0  0  0  0  0  0  0  0  0  0
   -1.8545   -2.5318    0.6940 N   0  0  0  0  0  0  0  0  0  0  0  0
   -1.5919   -3.5162    1.5965 C   0  0  0  0  0  0  0  0  0  0  0  0
   -1.0597   -4.6519    1.2970 N   0  0  0  0  0  0  0  0  0  0  0  0
   -1.1442   -5.4408    2.5311 C   0  0  0  0  0  0  0  0  0  0  0  0
   -1.6079   -4.4686    3.5897 C   0  0  0  0  0  0  0  0  0  0  0  0
   -2.0062   -3.3024    2.8716 O   0  0  0  0  0  0  0  0  0  0  0  0
   -0.1578    1.4106    0.8516 H   0  0  0  0  0  0  0  0  0  0  0  0
    0.0251    1.3768   -0.9495 H   0  0  0  0  0  0  0  0  0  0  0  0
    1.3983   -0.7358   -0.7287 H   0  0  0  0  0  0  0  0  0  0  0  0
    1.1534   -0.6900    1.0709 H   0  0  0  0  0  0  0  0  0  0  0  0
   -1.0513   -0.8204   -1.1626 H   0  0  0  0  0  0  0  0  0  0  0  0
   -1.4238   -0.8452    1.8809 H   0  0  0  0  0  0  0  0  0  0  0  0
   -3.7606   -0.7056    1.5159 H   0  0  0  0  0  0  0  0  0  0  0  0
   -3.3484   -0.9175   -1.5828 H   0  0  0  0  0  0  0  0  0  0  0  0
   -4.9204   -0.7633   -0.7001 H   0  0  0  0  0  0  0  0  0  0  0  0
   -4.1725    1.4415    0.2357 H   0  0  0  0  0  0  0  0  0  0  0  0
   -2.6056    1.2795   -0.6414 H   0  0  0  0  0  0  0  0  0  0  0  0
   -1.7987   -2.8512   -0.2618 H   0  0  0  0  0  0  0  0  0  0  0  0
   -0.1905   -5.9081    2.8031 H   0  0  0  0  0  0  0  0  0  0  0  0
   -1.8711   -6.2484    2.3849 H   0  0  0  0  0  0  0  0  0  0  0  0
   -2.4392   -4.8812    4.1742 H   0  0  0  0  0  0  0  0  0  0  0  0
   -0.8031   -4.1976    4.2801 H   0  0  0  0  0  0  0  0  0  0  0  0
  1  2  1  0  0  0  0
  1  3  1  0  0  0  0
  1 14  1  0  0  0  0
  1 15  1  0  0  0  0
  2  3  1  0  0  0  0
  2 16  1  0  0  0  0
  2 17  1  0  0  0  0
  3  4  1  0  0  0  0
  3 18  1  0  0  0  0
  4  5  1  0  0  0  0
  4  8  1  0  0  0  0
  4 19  1  0  0  0  0
  5  6  1  0  0  0  0
  5  7  1  0  0  0  0
  5 20  1  0  0  0  0
  6  7  1  0  0  0  0
  6 21  1  0  0  0  0
  6 22  1  0  0  0  0
  7 23  1  0  0  0  0
  7 24  1  0  0  0  0
  8  9  1  0  0  0  0
  8 25  1  0  0  0  0
  9 10  2  0  0  0  0
  9 13  1  0  0  0  0
 10 11  1  0  0  0  0
 11 12  1  0  0  0  0
 11 26  1  0  0  0  0
 11 27  1  0  0  0  0
 12 13  1  0  0  0  0
 12 28  1  0  0  0  0
 12 29  1  0  0  0  0
M  END
>  <DRUGBANK_ID>
DB11738

>  <COMMON_NAME>
Rilmenidine

>  <CAS_NUMBER>
54187-04-1

>  <UNII>
P67IM25ID8

>  <SYNONYMS>
HYPERIUM; Rilmenidine

$$$$
