
 OpenBabel10282417203D

 71 73  0  0  0  0  0  0  0  0999 V2000
    0.8791   -0.7457    2.0591 O   0  0  0  0  0  0  0  0  0  0  0  0
    0.0424    0.1701    1.2696 C   0  0  2  0  0  0  0  0  0  0  0  0
    0.2252   -1.1720   -0.7673 C   0  0  0  0  0  0  0  0  0  0  0  0
    0.2470    0.1917   -0.2915 C   0  0  0  0  0  0  0  0  0  0  0  0
    0.8338   -1.5471   -1.9579 C   0  0  0  0  0  0  0  0  0  0  0  0
    1.4881   -0.5682   -2.7186 C   0  0  0  0  0  0  0  0  0  0  0  0
    1.5001    0.8426   -2.3637 C   0  0  0  0  0  0  0  0  0  0  0  0
    2.2926    1.7097   -3.2942 C   0  0  0  0  0  0  0  0  0  0  0  0
    1.9413    1.7821   -4.6254 C   0  0  0  0  0  0  0  0  0  0  0  0
    3.0161    2.7833   -5.4881 S   0  0  0  0  0  0  0  0  0  0  0  0
    3.4743    2.4248   -3.0093 N   0  0  0  0  0  0  0  0  0  0  0  0
    0.8743    1.2899   -1.1088 C   0  0  0  0  0  0  0  0  0  0  0  0
    5.0983    1.4381    0.0953 C   0  0  0  0  0  0  0  0  0  0  0  0
    3.6373    1.2937    0.1384 C   0  0  0  0  0  0  0  0  0  0  0  0
    3.1937   -0.1379    0.0055 C   0  0  0  0  0  0  0  0  0  0  0  0
    3.1965   -1.0711    1.1650 C   0  0  0  0  0  0  0  0  0  0  0  0
    2.3061   -0.5361    2.2961 C   0  0  0  0  0  0  0  0  0  0  0  0
    8.0729    5.0507   -4.5867 C   0  0  0  0  0  0  0  0  0  0  0  0
    9.0526    6.0915   -4.5313 C   0  0  0  0  0  0  0  0  0  0  0  0
    6.8172    5.3093   -5.1039 C   0  0  0  0  0  0  0  0  0  0  0  0
    5.6193    4.4370   -5.2291 C   0  0  0  0  0  0  0  0  0  0  0  0
    5.1966    3.7031   -4.1351 N   0  0  0  0  0  0  0  0  0  0  0  0
    5.0146    4.5678   -6.2931 O   0  0  0  0  0  0  0  0  0  0  0  0
    6.5925    6.5636   -5.6216 C   0  0  0  0  0  0  0  0  0  0  0  0
    7.4760    7.6269   -5.4743 C   0  0  0  0  0  0  0  0  0  0  0  0
    8.8007    7.4442   -4.9601 C   0  0  0  0  0  0  0  0  0  0  0  0
    9.9992    9.7756   -5.2120 C   0  0  0  0  0  0  0  0  0  0  0  0
    9.9513    8.4664   -4.8563 C   0  0  0  0  0  0  0  0  0  0  0  0
    3.9811    2.9998   -4.0897 C   0  0  0  0  0  0  0  0  0  0  0  0
    1.1763    2.6413   -0.7641 O   0  0  0  0  0  0  0  0  0  0  0  0
    1.4694    3.4621    0.4500 C   0  0  0  0  0  0  0  0  0  0  0  0
    5.5344    0.9430   -1.2608 C   0  0  0  0  0  0  0  0  0  0  0  0
   11.2240   10.6223   -5.0489 C   0  0  0  0  0  0  0  0  0  0  0  0
    8.8043   10.4097   -5.7599 C   0  0  0  0  0  0  0  0  0  0  0  0
   11.0712   11.9187   -5.4388 O   0  0  0  0  0  0  0  0  0  0  0  0
   12.2610   10.2196   -4.6111 O   0  0  0  0  0  0  0  0  0  0  0  0
    6.4855    9.0058   -5.8956 Cl  0  0  0  0  0  0  0  0  0  0  0  0
   10.5769    5.5793   -3.8498 Cl  0  0  0  0  0  0  0  0  0  0  0  0
    0.2678    1.5336    1.7264 C   0  0  0  0  0  0  0  0  0  0  0  0
   -1.0072   -0.0724    1.4759 H   0  0  0  0  0  0  0  0  0  0  0  0
   -0.0208   -1.9772   -0.0618 H   0  0  0  0  0  0  0  0  0  0  0  0
    0.9146   -2.6095   -2.2049 H   0  0  0  0  0  0  0  0  0  0  0  0
    2.1133   -0.9486   -3.5358 H   0  0  0  0  0  0  0  0  0  0  0  0
    1.1037    1.3131   -5.1145 H   0  0  0  0  0  0  0  0  0  0  0  0
    5.3031    2.5065    0.2269 H   0  0  0  0  0  0  0  0  0  0  0  0
    5.4801    0.8726    0.9424 H   0  0  0  0  0  0  0  0  0  0  0  0
    3.2603    1.9219   -0.6683 H   0  0  0  0  0  0  0  0  0  0  0  0
    3.2989    1.7191    1.0688 H   0  0  0  0  0  0  0  0  0  0  0  0
    3.4007   -0.6286   -0.9436 H   0  0  0  0  0  0  0  0  0  0  0  0
    2.1736   -0.0035   -0.0145 H   0  0  0  0  0  0  0  0  0  0  0  0
    4.2367   -1.2395    1.4332 H   0  0  0  0  0  0  0  0  0  0  0  0
    2.7494   -2.0120    0.8197 H   0  0  0  0  0  0  0  0  0  0  0  0
    2.5629    0.4911    2.5847 H   0  0  0  0  0  0  0  0  0  0  0  0
    2.5695   -1.1275    3.1786 H   0  0  0  0  0  0  0  0  0  0  0  0
    8.3316    4.0419   -4.2780 H   0  0  0  0  0  0  0  0  0  0  0  0
    5.7030    3.7484   -3.2607 H   0  0  0  0  0  0  0  0  0  0  0  0
    5.6439    6.7528   -6.1314 H   0  0  0  0  0  0  0  0  0  0  0  0
   10.8905    8.0668   -4.4558 H   0  0  0  0  0  0  0  0  0  0  0  0
    0.5562    3.8534    0.9141 H   0  0  0  0  0  0  0  0  0  0  0  0
    2.0778    3.0572    1.2777 H   0  0  0  0  0  0  0  0  0  0  0  0
    2.0897    4.3348    0.2149 H   0  0  0  0  0  0  0  0  0  0  0  0
    5.1970    1.6508   -2.0052 H   0  0  0  0  0  0  0  0  0  0  0  0
    6.6073    0.8743   -1.3342 H   0  0  0  0  0  0  0  0  0  0  0  0
    5.0980   -0.0168   -1.5521 H   0  0  0  0  0  0  0  0  0  0  0  0
    8.5786    9.8465   -6.6711 H   0  0  0  0  0  0  0  0  0  0  0  0
    8.0998   10.3839   -4.9229 H   0  0  0  0  0  0  0  0  0  0  0  0
    8.7568   11.4370   -6.0882 H   0  0  0  0  0  0  0  0  0  0  0  0
   10.2264   12.2350   -5.7887 H   0  0  0  0  0  0  0  0  0  0  0  0
   -0.3566    2.1761    1.1041 H   0  0  0  0  0  0  0  0  0  0  0  0
    0.2214    1.8238    2.7655 H   0  0  0  0  0  0  0  0  0  0  0  0
    1.3168    1.5675    1.5013 H   0  0  0  0  0  0  0  0  0  0  0  0
  2 39  1  0  0  0  0
  2 40  1  1  0  0  0
  2  4  1  0  0  0  0
  2  1  1  0  0  0  0
  3  4  1  0  0  0  0
  3  5  2  0  0  0  0
  3 41  1  0  0  0  0
  4 12  2  0  0  0  0
  5  6  1  0  0  0  0
  5 42  1  0  0  0  0
  6  7  2  0  0  0  0
  6 43  1  0  0  0  0
  7  8  1  0  0  0  0
  8  9  2  0  0  0  0
  8 11  1  0  0  0  0
  9 10  1  0  0  0  0
  9 44  1  0  0  0  0
 11 29  2  0  0  0  0
 12  7  1  0  0  0  0
 12 30  1  0  0  0  0
 13 14  1  0  0  0  0
 13 32  1  0  0  0  0
 13 45  1  0  0  0  0
 13 46  1  0  0  0  0
 14 15  1  0  0  0  0
 14 47  1  0  0  0  0
 14 48  1  0  0  0  0
 15 49  1  0  0  0  0
 15 50  1  0  0  0  0
 16 17  1  0  0  0  0
 16 15  1  0  0  0  0
 16 51  1  0  0  0  0
 16 52  1  0  0  0  0
 17  1  1  0  0  0  0
 17 53  1  0  0  0  0
 17 54  1  0  0  0  0
 18 19  1  0  0  0  0
 18 55  1  0  0  0  0
 19 26  2  0  0  0  0
 19 38  1  0  0  0  0
 20 18  2  0  0  0  0
 20 24  1  0  0  0  0
 21 20  1  0  0  0  0
 21 22  1  0  0  0  0
 22 56  1  0  0  0  0
 23 21  2  0  0  0  0
 24 25  2  0  0  0  0
 24 57  1  0  0  0  0
 25 37  1  0  0  0  0
 26 25  1  0  0  0  0
 26 28  1  0  0  0  0
 27 33  1  0  0  0  0
 27 34  1  0  0  0  0
 28 27  2  0  0  0  0
 28 58  1  0  0  0  0
 29 10  1  0  0  0  0
 29 22  1  0  0  0  0
 30 31  1  0  0  0  0
 31 59  1  0  0  0  0
 31 60  1  0  0  0  0
 31 61  1  0  0  0  0
 32 62  1  0  0  0  0
 32 63  1  0  0  0  0
 32 64  1  0  0  0  0
 33 35  1  0  0  0  0
 33 36  2  0  0  0  0
 34 65  1  0  0  0  0
 34 66  1  0  0  0  0
 34 67  1  0  0  0  0
 35 68  1  0  0  0  0
 39 69  1  0  0  0  0
 39 70  1  0  0  0  0
 39 71  1  0  0  0  0
M  END
>  <DRUGBANK_ID>
DB13125

>  <COMMON_NAME>
Lusutrombopag

>  <CAS_NUMBER>
1110766-97-6

>  <UNII>
6LL5JFU42F

>  <SYNONYMS>
Lusutrombopag

$$$$
