
 OpenBabel10282417123D

 77 78  0  0  0  0  0  0  0  0999 V2000
    1.3760   -0.2488   -0.0040 C   0  0  0  0  0  0  0  0  0  0  0  0
   -4.0315   -0.7858    2.4244 C   0  0  0  0  0  0  0  0  0  0  0  0
   -4.0122    2.2427    1.0783 C   0  0  0  0  0  0  0  0  0  0  0  0
   -4.8532    4.4787    2.2800 C   0  0  1  0  0  0  0  0  0  0  0  0
   -6.3066    4.5842    2.8106 C   0  0  0  0  0  0  0  0  0  0  0  0
   -6.5541    4.1714    4.2219 C   0  0  0  0  0  0  0  0  0  0  0  0
   -6.0029    5.2324    5.0855 C   0  0  0  0  0  0  0  0  0  0  0  0
    0.4469   -1.2953   -0.1303 C   0  0  0  0  0  0  0  0  0  0  0  0
   -3.8085    5.6362    2.5994 C   0  0  0  0  0  0  0  0  0  0  0  0
   -2.9159    7.8770    2.5533 C   0  0  0  0  0  0  0  0  0  0  0  0
   -3.6578    7.0800    0.3787 C   0  0  0  0  0  0  0  0  0  0  0  0
   -3.1458    6.0043   -0.5549 C   0  0  0  0  0  0  0  0  0  0  0  0
   -3.8671    4.6988   -0.4393 C   0  0  0  0  0  0  0  0  0  0  0  0
   -5.5799    4.6225   -0.6511 C   0  0  0  0  0  0  0  0  0  0  0  0
   -0.9098   -1.0786   -0.0851 C   0  0  0  0  0  0  0  0  0  0  0  0
   -6.3055    5.9142   -0.1745 C   0  0  0  0  0  0  0  0  0  0  0  0
   -7.8170    5.9421   -0.1356 C   0  0  0  0  0  0  0  0  0  0  0  0
   -8.5209    4.7390    0.4439 C   0  0  0  0  0  0  0  0  0  0  0  0
   -7.9601    3.4590   -0.1290 C   0  0  0  0  0  0  0  0  0  0  0  0
   -6.4501    3.3470   -0.1520 C   0  0  0  0  0  0  0  0  0  0  0  0
   -1.3636    0.2208   -0.0166 C   0  0  0  0  0  0  0  0  0  0  0  0
   -0.4554    1.2952    0.0162 C   0  0  0  0  0  0  0  0  0  0  0  0
    0.9204    1.0627   -0.0012 C   0  0  0  0  0  0  0  0  0  0  0  0
   -2.8359    0.4499   -0.0219 C   0  0  0  0  0  0  0  0  0  0  0  0
   -3.1564    0.4500    2.4702 C   0  0  0  0  0  0  0  0  0  0  0  0
   -4.2995    3.0523    2.1824 N   0  0  0  0  0  0  0  0  0  0  0  0
   -3.6237    6.8186    1.8497 N   0  0  0  0  0  0  0  0  0  0  0  0
   -3.2530    1.1414    1.2259 N   0  0  0  0  0  0  0  0  0  0  0  0
   -3.3416   -1.9157    2.6958 O   0  0  0  0  0  0  0  0  0  0  0  0
   -5.2189   -0.7855    2.1460 O   0  0  0  0  0  0  0  0  0  0  0  0
   -4.2852    2.4145   -0.1024 O   0  0  0  0  0  0  0  0  0  0  0  0
    2.2115   -2.5327    1.2787 O   0  0  0  0  0  0  0  0  0  0  0  0
   -6.5795    6.3038    5.3572 O   0  0  0  0  0  0  0  0  0  0  0  0
   -4.7146    5.0173    5.3308 O   0  0  0  0  0  0  0  0  0  0  0  0
   -3.1224    5.5013    3.6239 O   0  0  0  0  0  0  0  0  0  0  0  0
    2.9953   -2.3957   -1.2433 O   0  0  0  0  0  0  0  0  0  0  0  0
    3.8985   -3.7175    0.4582 O   0  0  0  0  0  0  0  0  0  0  0  0
    2.7341   -0.4703    0.1904 O   0  0  0  0  0  0  0  0  0  0  0  0
    3.3163   -2.0939    0.3243 P   0  0  0  0  0  0  0  0  0  0  0  0
   -5.0720    4.7304    1.3016 H   0  0  0  0  0  0  0  0  0  0  0  0
   -6.7412    5.5799    2.6309 H   0  0  0  0  0  0  0  0  0  0  0  0
   -6.9417    3.8828    2.2781 H   0  0  0  0  0  0  0  0  0  0  0  0
   -7.6351    4.0871    4.3825 H   0  0  0  0  0  0  0  0  0  0  0  0
   -6.1060    3.1900    4.3853 H   0  0  0  0  0  0  0  0  0  0  0  0
    0.7245   -2.3404   -0.2087 H   0  0  0  0  0  0  0  0  0  0  0  0
   -1.8816    7.8724    2.1983 H   0  0  0  0  0  0  0  0  0  0  0  0
   -3.3897    8.8399    2.3353 H   0  0  0  0  0  0  0  0  0  0  0  0
   -2.9276    7.7353    3.6348 H   0  0  0  0  0  0  0  0  0  0  0  0
   -4.6166    7.5009    0.1101 H   0  0  0  0  0  0  0  0  0  0  0  0
   -3.0066    7.9434    0.1729 H   0  0  0  0  0  0  0  0  0  0  0  0
   -3.1771    6.2776   -1.6088 H   0  0  0  0  0  0  0  0  0  0  0  0
   -2.0837    5.8303   -0.3011 H   0  0  0  0  0  0  0  0  0  0  0  0
   -3.3317    3.9896   -1.0840 H   0  0  0  0  0  0  0  0  0  0  0  0
   -3.4652    4.4039    0.5336 H   0  0  0  0  0  0  0  0  0  0  0  0
   -5.6569    4.5846   -1.7365 H   0  0  0  0  0  0  0  0  0  0  0  0
   -1.5882   -1.9282   -0.0901 H   0  0  0  0  0  0  0  0  0  0  0  0
   -6.0104    6.2570    0.8209 H   0  0  0  0  0  0  0  0  0  0  0  0
   -6.0136    6.7081   -0.8583 H   0  0  0  0  0  0  0  0  0  0  0  0
   -8.1224    6.8324    0.4299 H   0  0  0  0  0  0  0  0  0  0  0  0
   -8.1369    6.0699   -1.1675 H   0  0  0  0  0  0  0  0  0  0  0  0
   -8.5271    4.7571    1.5393 H   0  0  0  0  0  0  0  0  0  0  0  0
   -9.5843    4.7938    0.1962 H   0  0  0  0  0  0  0  0  0  0  0  0
   -8.3664    2.6066    0.4373 H   0  0  0  0  0  0  0  0  0  0  0  0
   -8.2785    3.3511   -1.1636 H   0  0  0  0  0  0  0  0  0  0  0  0
   -6.2509    2.4524   -0.7535 H   0  0  0  0  0  0  0  0  0  0  0  0
   -6.2186    3.0020    0.8517 H   0  0  0  0  0  0  0  0  0  0  0  0
   -0.8351    2.3141    0.0821 H   0  0  0  0  0  0  0  0  0  0  0  0
    1.6092    1.9016    0.0010 H   0  0  0  0  0  0  0  0  0  0  0  0
   -3.0162    0.9988   -0.9624 H   0  0  0  0  0  0  0  0  0  0  0  0
   -3.4131   -0.4764   -0.1478 H   0  0  0  0  0  0  0  0  0  0  0  0
   -2.1024    0.2593    2.6549 H   0  0  0  0  0  0  0  0  0  0  0  0
   -3.5301    1.0451    3.2964 H   0  0  0  0  0  0  0  0  0  0  0  0
   -4.1838    2.6653    3.0926 H   0  0  0  0  0  0  0  0  0  0  0  0
   -2.3853   -1.7660    2.8358 H   0  0  0  0  0  0  0  0  0  0  0  0
   -4.1844    5.8069    5.0502 H   0  0  0  0  0  0  0  0  0  0  0  0
    2.8872   -1.5458   -1.7196 H   0  0  0  0  0  0  0  0  0  0  0  0
    3.7434   -4.1169   -0.4180 H   0  0  0  0  0  0  0  0  0  0  0  0
  1  8  2  0  0  0  0
  1 23  1  0  0  0  0
  1 38  1  0  0  0  0
  2 25  1  0  0  0  0
  2 29  1  0  0  0  0
  2 30  2  0  0  0  0
  3 26  1  0  0  0  0
  3 28  1  0  0  0  0
  3 31  2  0  0  0  0
  4  5  1  0  0  0  0
  4  9  1  0  0  0  0
  4 26  1  0  0  0  0
  4 40  1  6  0  0  0
  5  6  1  0  0  0  0
  5 41  1  0  0  0  0
  5 42  1  0  0  0  0
  6  7  1  0  0  0  0
  6 43  1  0  0  0  0
  6 44  1  0  0  0  0
  7 33  2  0  0  0  0
  7 34  1  0  0  0  0
  8 15  1  0  0  0  0
  8 45  1  0  0  0  0
  9 27  1  0  0  0  0
  9 35  2  0  0  0  0
 10 27  1  0  0  0  0
 10 46  1  0  0  0  0
 10 47  1  0  0  0  0
 10 48  1  0  0  0  0
 11 12  1  0  0  0  0
 11 27  1  0  0  0  0
 11 49  1  0  0  0  0
 11 50  1  0  0  0  0
 12 13  1  0  0  0  0
 12 51  1  0  0  0  0
 12 52  1  0  0  0  0
 13 14  1  0  0  0  0
 13 53  1  0  0  0  0
 13 54  1  0  0  0  0
 14 16  1  0  0  0  0
 14 20  1  0  0  0  0
 14 55  1  0  0  0  0
 15 21  2  0  0  0  0
 15 56  1  0  0  0  0
 16 17  1  0  0  0  0
 16 57  1  0  0  0  0
 16 58  1  0  0  0  0
 17 18  1  0  0  0  0
 17 59  1  0  0  0  0
 17 60  1  0  0  0  0
 18 19  1  0  0  0  0
 18 61  1  0  0  0  0
 18 62  1  0  0  0  0
 19 20  1  0  0  0  0
 19 63  1  0  0  0  0
 19 64  1  0  0  0  0
 20 65  1  0  0  0  0
 20 66  1  0  0  0  0
 21 22  1  0  0  0  0
 21 24  1  0  0  0  0
 22 23  2  0  0  0  0
 22 67  1  0  0  0  0
 23 68  1  0  0  0  0
 24 28  1  0  0  0  0
 24 69  1  0  0  0  0
 24 70  1  0  0  0  0
 25 28  1  0  0  0  0
 25 71  1  0  0  0  0
 25 72  1  0  0  0  0
 26 73  1  0  0  0  0
 29 74  1  0  0  0  0
 32 39  2  0  0  0  0
 34 75  1  0  0  0  0
 36 39  1  0  0  0  0
 36 76  1  0  0  0  0
 37 39  1  0  0  0  0
 37 77  1  0  0  0  0
 38 39  1  0  0  0  0
M  END
>  <DRUGBANK_ID>
DB01773

>  <SECONDARY_ACCESSION_NUMBERS>
EXPT03200

>  <COMMON_NAME>
4-[3-carboxymethyl-3-(4-phosphonooxy-benzyl)-ureido]-4-[(3-cyclohexyl-propyl)-methyl-carbamoyl]butyric acid

$$$$
