
 OpenBabel10282417153D

 65 68  0  0  0  0  0  0  0  0999 V2000
    1.2448    1.8376    0.9215 C   0  0  0  0  0  0  0  0  0  0  0  0
   -0.7605    1.5860    0.5646 C   0  0  0  0  0  0  0  0  0  0  0  0
   -1.5253    0.0399   -0.2187 N   0  0  0  0  0  0  0  0  0  0  0  0
   -0.7437   -1.2791    0.2077 C   0  0  0  0  0  0  0  0  0  0  0  0
    1.2756   -1.2339   -0.0172 C   0  0  0  0  0  0  0  0  0  0  0  0
    2.0255    0.1051    1.0676 O   0  0  0  0  0  0  0  0  0  0  0  0
   -1.7971   -0.2301   -1.8083 C   0  0  0  0  0  0  0  0  0  0  0  0
   -0.6217   -0.5543   -2.9350 C   0  0  0  0  0  0  0  0  0  0  0  0
    0.3570   -1.7884   -2.5978 C   0  0  0  0  0  0  0  0  0  0  0  0
   -0.3634   -3.0365   -2.4829 N   0  0  0  0  0  0  0  0  0  0  0  0
    0.6151   -4.2743   -1.7101 S   0  0  0  0  0  0  0  0  0  0  0  0
    0.6586   -4.1788    0.1898 C   0  0  0  0  0  0  0  0  0  0  0  0
    1.0715    1.4752    7.6086 C   0  0  0  0  0  0  0  0  0  0  0  0
    1.0619    0.2260    7.3549 C   0  0  0  0  0  0  0  0  0  0  0  0
    0.9930   -0.1650    5.8733 C   0  0  0  0  0  0  0  0  0  0  0  0
    1.0937    0.2339    7.9669 C   0  0  0  0  0  0  0  0  0  0  0  0
    1.0574   -1.5629    7.0901 C   0  0  0  0  0  0  0  0  0  0  0  0
    0.9940   -1.4398    5.7885 C   0  0  0  0  0  0  0  0  0  0  0  0
    1.0017   -4.1745    5.7455 N   0  0  0  0  0  0  0  0  0  0  0  0
    1.0625   -3.4003    7.0820 C   0  0  0  0  0  0  0  0  0  0  0  0
    0.9509   -3.5533    4.5654 C   0  0  0  0  0  0  0  0  0  0  0  0
    0.9429   -2.2225    4.6106 C   0  0  0  0  0  0  0  0  0  0  0  0
    0.8736   -1.6630    3.2664 C   0  0  0  0  0  0  0  0  0  0  0  0
    0.8908   -4.1071    3.1966 C   0  0  0  0  0  0  0  0  0  0  0  0
    0.8374   -2.9900    2.4992 C   0  0  0  0  0  0  0  0  0  0  0  0
    0.6804   -3.1643    1.1425 C   0  0  0  0  0  0  0  0  0  0  0  0
    0.7528   -5.3191    0.9033 C   0  0  0  0  0  0  0  0  0  0  0  0
    0.8462   -5.2732    2.3791 C   0  0  0  0  0  0  0  0  0  0  0  0
    1.1081   -4.1993    8.0147 O   0  0  0  0  0  0  0  0  0  0  0  0
   -0.1481   -5.4519   -2.0531 O   0  0  0  0  0  0  0  0  0  0  0  0
    1.9764   -4.0719   -2.1699 O   0  0  0  0  0  0  0  0  0  0  0  0
    0.8170    0.5989   -0.5501 C   0  0  0  0  0  0  0  0  0  0  0  0
    0.5355    1.5189   -1.8932 S   0  0  0  0  0  0  0  0  0  0  0  0
    1.4153    0.8129   -2.8051 O   0  0  0  0  0  0  0  0  0  0  0  0
   -0.8373    1.9172   -2.0237 O   0  0  0  0  0  0  0  0  0  0  0  0
    1.1588    2.9297   -1.8308 O   0  0  0  0  0  0  0  0  0  0  0  0
    1.8868    1.9305   -0.0732 H   0  0  0  0  0  0  0  0  0  0  0  0
    1.7656    2.8046    0.7399 H   0  0  0  0  0  0  0  0  0  0  0  0
   -1.0635    1.3796    1.5969 H   0  0  0  0  0  0  0  0  0  0  0  0
   -1.3181    2.4042    0.1180 H   0  0  0  0  0  0  0  0  0  0  0  0
   -0.9627   -1.2541    1.2950 H   0  0  0  0  0  0  0  0  0  0  0  0
   -1.3222   -2.1551   -0.1435 H   0  0  0  0  0  0  0  0  0  0  0  0
    1.9578   -2.0754   -0.0805 H   0  0  0  0  0  0  0  0  0  0  0  0
    1.4443   -0.9818   -1.0733 H   0  0  0  0  0  0  0  0  0  0  0  0
   -2.4387   -1.1124   -1.9328 H   0  0  0  0  0  0  0  0  0  0  0  0
   -2.4660    0.5833   -2.1340 H   0  0  0  0  0  0  0  0  0  0  0  0
   -0.7010   -0.5809   -4.0256 H   0  0  0  0  0  0  0  0  0  0  0  0
   -0.4054    0.4571   -3.3738 H   0  0  0  0  0  0  0  0  0  0  0  0
    1.4820   -1.7377   -2.7033 H   0  0  0  0  0  0  0  0  0  0  0  0
    0.3688   -2.0056   -1.5498 H   0  0  0  0  0  0  0  0  0  0  0  0
   -1.2009   -2.8182   -1.9326 H   0  0  0  0  0  0  0  0  0  0  0  0
    1.0302    2.1592    6.7795 H   0  0  0  0  0  0  0  0  0  0  0  0
    1.1244   -0.9621    8.5677 H   0  0  0  0  0  0  0  0  0  0  0  0
    0.9547    0.5179    5.0591 H   0  0  0  0  0  0  0  0  0  0  0  0
    1.1521    0.5488    9.2208 H   0  0  0  0  0  0  0  0  0  0  0  0
    1.0002   -5.1983    5.6394 H   0  0  0  0  0  0  0  0  0  0  0  0
    1.7502   -1.0338    3.0670 H   0  0  0  0  0  0  0  0  0  0  0  0
   -0.0266   -1.0398    3.1552 H   0  0  0  0  0  0  0  0  0  0  0  0
    0.5886   -2.1508    1.1756 H   0  0  0  0  0  0  0  0  0  0  0  0
    0.7390   -6.2400    0.3357 H   0  0  0  0  0  0  0  0  0  0  0  0
    0.8778   -6.2287    2.8541 H   0  0  0  0  0  0  0  0  0  0  0  0
    0.2537    0.0308    0.2570 H   0  0  0  0  0  0  0  0  0  0  0  0
    0.4607    0.4747    0.7163 H   0  0  0  0  0  0  0  0  0  0  0  0
    2.0302    0.4135   -0.7091 H   0  0  0  0  0  0  0  0  0  0  0  0
    0.7196    3.1465   -2.6977 H   0  0  0  0  0  0  0  0  0  0  0  0
  1  2  1  0  0  0  0
  1  6  1  0  0  0  0
  1 37  1  0  0  0  0
  1 38  1  0  0  0  0
  2  3  1  0  0  0  0
  2 39  1  0  0  0  0
  2 40  1  0  0  0  0
  3  4  1  0  0  0  0
  3  7  1  0  0  0  0
  4  5  1  0  0  0  0
  4 41  1  0  0  0  0
  4 42  1  0  0  0  0
  5  6  1  0  0  0  0
  5 43  1  0  0  0  0
  5 44  1  0  0  0  0
  7  8  1  0  0  0  0
  7 45  1  0  0  0  0
  7 46  1  0  0  0  0
  8  9  1  0  0  0  0
  8 47  1  0  0  0  0
  8 48  1  0  0  0  0
  9 10  1  0  0  0  0
  9 49  1  0  0  0  0
  9 50  1  0  0  0  0
 10 11  1  0  0  0  0
 10 51  1  0  0  0  0
 11 12  1  0  0  0  0
 11 30  2  0  0  0  0
 11 31  2  0  0  0  0
 12 27  1  0  0  0  0
 13 14  2  0  0  0  0
 13 52  1  0  0  0  0
 14 15  1  0  0  0  0
 14 53  1  0  0  0  0
 15 18  2  0  0  0  0
 15 54  1  0  0  0  0
 16 13  1  0  0  0  0
 16 55  1  0  0  0  0
 17 16  2  0  0  0  0
 17 18  1  0  0  0  0
 17 20  1  0  0  0  0
 18 22  1  0  0  0  0
 19 20  1  0  0  0  0
 19 56  1  0  0  0  0
 20 29  2  0  0  0  0
 21 19  1  0  0  0  0
 21 22  2  0  0  0  0
 22 23  1  0  0  0  0
 23 25  1  0  0  0  0
 23 57  1  0  0  0  0
 23 58  1  0  0  0  0
 24 21  1  0  0  0  0
 24 25  2  0  0  0  0
 25 26  1  0  0  0  0
 26 12  2  0  0  0  0
 26 59  1  0  0  0  0
 27 28  2  0  0  0  0
 27 60  1  0  0  0  0
 28 24  1  0  0  0  0
 28 61  1  0  0  0  0
 32 33  1  0  0  0  0
 32 62  1  0  0  0  0
 32 63  1  0  0  0  0
 32 64  1  0  0  0  0
 33 34  2  0  0  0  0
 33 35  2  0  0  0  0
 33 36  1  0  0  0  0
 36 65  1  0  0  0  0
M  END
>  <DRUGBANK_ID>
DB05549

>  <COMMON_NAME>
INO-1001

>  <CAS_NUMBER>
501364-91-6

>  <UNII>
55E08EN074

>  <SYNONYMS>
(9-(N-(3-Morpholinopropyl)-sulfonyl)-5,6-dihydro-5-oxo-11-H-indeno (1,2-C) isoquinoline methanesulfonic acid

$$$$
