
 OpenBabel10282417133D

 45 46  0  0  0  0  0  0  0  0999 V2000
   -0.7986    0.3946    0.6972 N   0  0  0  0  0  0  0  0  0  0  0  0
    0.2133    1.3478    0.2190 C   0  0  1  0  0  0  0  0  0  0  0  0
   -1.8938   -1.2827    0.0212 C   0  0  2  0  0  0  0  0  0  0  0  0
    0.9448   -1.1342   -0.5293 S   0  0  0  0  0  0  0  0  0  0  0  0
    0.3438    2.5644    1.1624 C   0  0  0  0  0  0  0  0  0  0  0  0
   -1.9745   -2.0055   -1.2843 N   0  0  0  0  0  0  0  0  0  0  0  0
   -0.4969    3.5922    0.8980 O   0  0  0  0  0  0  0  0  0  0  0  0
    1.0991    2.6354    2.1213 O   0  0  0  0  0  0  0  0  0  0  0  0
   -2.2433   -3.3507   -1.2871 C   0  0  0  0  0  0  0  0  0  0  0  0
   -2.1769   -4.0491   -2.6293 C   0  0  0  0  0  0  0  0  0  0  0  0
   -1.4045   -6.3048   -1.6256 C   0  0  0  0  0  0  0  0  0  0  0  0
   -2.7749   -6.9758   -1.8232 C   0  0  1  0  0  0  0  0  0  0  0  0
   -2.8672   -7.6403   -3.2139 C   0  0  0  0  0  0  0  0  0  0  0  0
   -3.0668   -8.9790   -3.1846 O   0  0  0  0  0  0  0  0  0  0  0  0
   -2.7769   -7.0365   -4.2735 O   0  0  0  0  0  0  0  0  0  0  0  0
   -1.1204   -5.1602   -2.6200 C   0  0  0  0  0  0  0  0  0  0  0  0
   -2.5179   -3.9466   -0.2484 O   0  0  0  0  0  0  0  0  0  0  0  0
   -3.0209   -7.9427   -0.7376 N   0  0  0  0  0  0  0  0  0  0  0  0
   -1.9784    0.2618    0.0063 C   0  0  0  0  0  0  0  0  0  0  0  0
   -2.6614    1.1077   -0.5199 O   0  0  0  0  0  0  0  0  0  0  0  0
    2.4157    1.0981   -1.0926 C   0  0  0  0  0  0  0  0  0  0  0  0
    1.5292    0.5433    0.0224 C   0  0  0  0  0  0  0  0  0  0  0  0
    2.3569    0.3380    1.2996 C   0  0  0  0  0  0  0  0  0  0  0  0
   -0.4858   -1.0526    0.6075 C   0  0  1  0  0  0  0  0  0  0  0  0
   -0.3122   -1.5107    1.5856 H   0  0  0  0  0  0  0  0  0  0  0  0
   -0.1103    1.7346   -0.7596 H   0  0  0  0  0  0  0  0  0  0  0  0
   -2.5949   -1.7101    0.7502 H   0  0  0  0  0  0  0  0  0  0  0  0
   -1.7630   -1.5360   -2.1573 H   0  0  0  0  0  0  0  0  0  0  0  0
   -1.1806    3.4353    0.2186 H   0  0  0  0  0  0  0  0  0  0  0  0
   -3.1748   -4.4420   -2.8512 H   0  0  0  0  0  0  0  0  0  0  0  0
   -1.9510   -3.3355   -3.4287 H   0  0  0  0  0  0  0  0  0  0  0  0
   -0.6018   -7.0484   -1.7070 H   0  0  0  0  0  0  0  0  0  0  0  0
   -1.3225   -5.9160   -0.6028 H   0  0  0  0  0  0  0  0  0  0  0  0
   -3.5845   -6.2422   -1.7592 H   0  0  0  0  0  0  0  0  0  0  0  0
   -3.1465   -9.3020   -2.2695 H   0  0  0  0  0  0  0  0  0  0  0  0
   -1.0287   -5.5732   -3.6304 H   0  0  0  0  0  0  0  0  0  0  0  0
   -0.1371   -4.7291   -2.3964 H   0  0  0  0  0  0  0  0  0  0  0  0
   -3.9638   -8.3202   -0.7537 H   0  0  0  0  0  0  0  0  0  0  0  0
   -2.2854   -8.6310   -0.6245 H   0  0  0  0  0  0  0  0  0  0  0  0
    2.7763    2.1009   -0.8426 H   0  0  0  0  0  0  0  0  0  0  0  0
    3.2978    0.4637   -1.2494 H   0  0  0  0  0  0  0  0  0  0  0  0
    1.8829    1.1650   -2.0484 H   0  0  0  0  0  0  0  0  0  0  0  0
    3.1607   -0.3926    1.1642 H   0  0  0  0  0  0  0  0  0  0  0  0
    2.8572    1.2667    1.5943 H   0  0  0  0  0  0  0  0  0  0  0  0
    1.7355    0.0104    2.1415 H   0  0  0  0  0  0  0  0  0  0  0  0
  1  2  1  0  0  0  0
  1 19  1  0  0  0  0
  2 22  1  0  0  0  0
  2 26  1  6  0  0  0
  2  5  1  0  0  0  0
  3 19  1  0  0  0  0
  3 27  1  1  0  0  0
  3  6  1  0  0  0  0
  4 22  1  0  0  0  0
  5  7  1  0  0  0  0
  5  8  2  0  0  0  0
  6  9  1  0  0  0  0
  6 28  1  0  0  0  0
  7 29  1  0  0  0  0
  9 10  1  0  0  0  0
  9 17  2  0  0  0  0
 10 16  1  0  0  0  0
 10 30  1  0  0  0  0
 10 31  1  0  0  0  0
 11 12  1  0  0  0  0
 11 32  1  0  0  0  0
 11 33  1  0  0  0  0
 12 13  1  0  0  0  0
 12 18  1  0  0  0  0
 12 34  1  1  0  0  0
 13 14  1  0  0  0  0
 13 15  2  0  0  0  0
 14 35  1  0  0  0  0
 16 11  1  0  0  0  0
 16 36  1  0  0  0  0
 16 37  1  0  0  0  0
 18 38  1  0  0  0  0
 18 39  1  0  0  0  0
 19 20  2  0  0  0  0
 21 40  1  0  0  0  0
 21 41  1  0  0  0  0
 21 42  1  0  0  0  0
 22 21  1  0  0  0  0
 22 23  1  0  0  0  0
 23 43  1  0  0  0  0
 23 44  1  0  0  0  0
 23 45  1  0  0  0  0
 24  1  1  0  0  0  0
 24  3  1  0  0  0  0
 24  4  1  0  0  0  0
 24 25  1  1  0  0  0
M  END
>  <DRUGBANK_ID>
DB03550

>  <SECONDARY_ACCESSION_NUMBERS>
EXPT01909

>  <COMMON_NAME>
Isopenicillin N

>  <CAS_NUMBER>
58678-43-6

$$$$
