
 OpenBabel10282417223D

 45 47  0  0  0  0  0  0  0  0999 V2000
    1.0546   -0.0120   -0.0857 C   0  0  0  0  0  0  0  0  0  0  0  0
    0.4975   -1.2979    0.1695 O   0  0  0  0  0  0  0  0  0  0  0  0
    0.9706   -2.3217   -0.6057 C   0  0  0  0  0  0  0  0  0  0  0  0
    0.0646   -3.3566   -0.8750 C   0  0  0  0  0  0  0  0  0  0  0  0
    0.4705   -4.5191   -1.5574 C   0  0  0  0  0  0  0  0  0  0  0  0
   -0.3971   -5.5973   -1.8187 C   0  0  0  0  0  0  0  0  0  0  0  0
    0.0667   -6.7574   -2.4508 C   0  0  0  0  0  0  0  0  0  0  0  0
    1.4048   -6.8581   -2.8477 C   0  0  0  0  0  0  0  0  0  0  0  0
    2.2572   -5.7699   -2.6173 C   0  0  0  0  0  0  0  0  0  0  0  0
    1.8112   -4.6135   -1.9777 C   0  0  0  0  0  0  0  0  0  0  0  0
    2.7007   -3.5616   -1.7395 C   0  0  0  0  0  0  0  0  0  0  0  0
    2.2873   -2.4272   -1.0454 C   0  0  0  0  0  0  0  0  0  0  0  0
    1.9253   -8.1066   -3.5331 C   0  0  3  0  0  0  0  0  0  0  0  0
    2.4393   -7.7881   -4.9384 C   0  0  0  0  0  0  0  0  0  0  0  0
    2.9478   -8.8684   -2.6953 C   0  0  0  0  0  0  0  0  0  0  0  0
    2.7675  -10.0272   -2.3213 O   0  0  0  0  0  0  0  0  0  0  0  0
    4.0807   -8.0982   -2.4198 O   0  0  0  0  0  0  0  0  0  0  0  0
    5.1759   -8.6711   -1.7427 C   0  0  0  0  0  0  0  0  0  0  0  0
    5.6267   -9.9514   -2.0379 C   0  0  0  0  0  0  0  0  0  0  0  0
    6.7543  -10.4603   -1.3882 C   0  0  0  0  0  0  0  0  0  0  0  0
    7.4759   -9.6866   -0.4633 C   0  0  0  0  0  0  0  0  0  0  0  0
    7.0488   -8.3656   -0.2411 C   0  0  0  0  0  0  0  0  0  0  0  0
    5.8798   -7.8723   -0.8434 C   0  0  0  0  0  0  0  0  0  0  0  0
    8.6322  -10.2824    0.2933 C   0  0  0  0  0  0  0  0  0  0  0  0
    9.2934   -9.4954    1.2046 N   0  0  0  0  0  0  0  0  0  0  0  0
    9.1785  -11.8644    0.1672 S   0  0  0  0  0  0  0  0  0  0  0  0
    0.6708    0.6738    0.6759 H   0  0  0  0  0  0  0  0  0  0  0  0
    0.7268    0.3476   -1.0656 H   0  0  0  0  0  0  0  0  0  0  0  0
    2.1453    0.0154   -0.0082 H   0  0  0  0  0  0  0  0  0  0  0  0
   -0.9631   -3.2578   -0.5333 H   0  0  0  0  0  0  0  0  0  0  0  0
   -1.4421   -5.5466   -1.5196 H   0  0  0  0  0  0  0  0  0  0  0  0
   -0.6282   -7.5773   -2.6274 H   0  0  0  0  0  0  0  0  0  0  0  0
    3.2985   -5.8243   -2.9272 H   0  0  0  0  0  0  0  0  0  0  0  0
    3.7348   -3.6285   -2.0698 H   0  0  0  0  0  0  0  0  0  0  0  0
    3.0303   -1.6683   -0.8326 H   0  0  0  0  0  0  0  0  0  0  0  0
    1.0855   -8.8046   -3.6616 H   0  0  0  0  0  0  0  0  0  0  0  0
    3.2823   -7.0891   -4.9237 H   0  0  0  0  0  0  0  0  0  0  0  0
    2.7740   -8.6937   -5.4534 H   0  0  0  0  0  0  0  0  0  0  0  0
    1.6451   -7.3293   -5.5411 H   0  0  0  0  0  0  0  0  0  0  0  0
    5.1045  -10.5797   -2.7528 H   0  0  0  0  0  0  0  0  0  0  0  0
    7.0452  -11.4795   -1.6290 H   0  0  0  0  0  0  0  0  0  0  0  0
    7.6047   -7.6898    0.3991 H   0  0  0  0  0  0  0  0  0  0  0  0
    5.5288   -6.8737   -0.5950 H   0  0  0  0  0  0  0  0  0  0  0  0
   10.0362   -9.9256    1.7457 H   0  0  0  0  0  0  0  0  0  0  0  0
    9.0649   -8.5419    1.4390 H   0  0  0  0  0  0  0  0  0  0  0  0
  1  2  1  0  0  0  0
  1 27  1  0  0  0  0
  1 28  1  0  0  0  0
  1 29  1  0  0  0  0
  2  3  1  0  0  0  0
  3  4  2  0  0  0  0
  3 12  1  0  0  0  0
  4  5  1  0  0  0  0
  4 30  1  0  0  0  0
  5  6  2  0  0  0  0
  5 10  1  0  0  0  0
  6  7  1  0  0  0  0
  6 31  1  0  0  0  0
  7  8  2  0  0  0  0
  7 32  1  0  0  0  0
  8  9  1  0  0  0  0
  8 13  1  0  0  0  0
  9 10  2  0  0  0  0
  9 33  1  0  0  0  0
 10 11  1  0  0  0  0
 11 12  2  0  0  0  0
 11 34  1  0  0  0  0
 12 35  1  0  0  0  0
 13 14  1  0  0  0  0
 13 15  1  0  0  0  0
 13 36  1  0  0  0  0
 14 37  1  0  0  0  0
 14 38  1  0  0  0  0
 14 39  1  0  0  0  0
 15 16  2  0  0  0  0
 15 17  1  0  0  0  0
 17 18  1  0  0  0  0
 18 19  2  0  0  0  0
 18 23  1  0  0  0  0
 19 20  1  0  0  0  0
 19 40  1  0  0  0  0
 20 21  2  0  0  0  0
 20 41  1  0  0  0  0
 21 22  1  0  0  0  0
 21 24  1  0  0  0  0
 22 23  2  0  0  0  0
 22 42  1  0  0  0  0
 23 43  1  0  0  0  0
 24 25  1  0  0  0  0
 24 26  2  0  0  0  0
 25 44  1  0  0  0  0
 25 45  1  0  0  0  0
M  END
>  <DRUGBANK_ID>
DB15377

>  <COMMON_NAME>
ATB-346

>  <CAS_NUMBER>
1226895-20-0

>  <UNII>
3096O7WP53

$$$$
