
 OpenBabel10282417223D

 58 61  0  0  1  0  0  0  0  0999 V2000
    1.0331    0.0088   -0.1125 C   0  0  0  0  0  0  0  0  0  0  0  0
    0.4805    1.1382    0.7566 C   0  0  2  0  0  0  0  0  0  0  0  0
    0.5361    2.4519   -0.0855 C   0  0  0  0  0  0  0  0  0  0  0  0
    1.2084    3.1719    1.0976 C   0  0  0  0  0  0  0  0  0  0  0  0
    1.4531    1.8237    1.6452 N   0  0  0  0  0  0  0  0  0  0  0  0
    2.3492    1.4874    2.6450 C   0  0  0  0  0  0  0  0  0  0  0  0
    2.8983    2.3701    3.3043 O   0  0  0  0  0  0  0  0  0  0  0  0
    2.6660    0.0755    2.9065 C   0  0  0  0  0  0  0  0  0  0  0  0
    2.5369   -0.4951    4.1608 C   0  0  0  0  0  0  0  0  0  0  0  0
    2.9808   -2.1457    4.2004 S   0  0  0  0  0  0  0  0  0  0  0  0
    3.4429   -2.1405    2.5454 C   0  0  0  0  0  0  0  0  0  0  0  0
    3.3194   -0.8573    2.0036 C   0  0  0  0  0  0  0  0  0  0  0  0
    3.8157   -0.6726    0.6916 C   0  0  0  0  0  0  0  0  0  0  0  0
    4.1307   -1.7599   -0.1245 C   0  0  0  0  0  0  0  0  0  0  0  0
    4.2075   -3.0268    0.4213 C   0  0  0  0  0  0  0  0  0  0  0  0
    3.9233   -3.2251    1.7754 C   0  0  0  0  0  0  0  0  0  0  0  0
   -0.8681    0.5346    1.3505 C   0  0  0  0  0  0  0  0  0  0  0  0
   -1.1145   -0.6760    1.1807 O   0  0  0  0  0  0  0  0  0  0  0  0
   -1.8429    1.2815    2.0137 N   0  0  0  0  0  0  0  0  0  0  0  0
   -1.6636    2.6427    2.4184 C   0  0  0  0  0  0  0  0  0  0  0  0
   -2.6331    3.6526    1.8370 C   0  0  0  0  0  0  0  0  0  0  0  0
   -4.0007    3.5530    2.4826 C   0  0  0  0  0  0  0  0  0  0  0  0
   -3.9526    3.6371    3.9927 C   0  0  0  0  0  0  0  0  0  0  0  0
   -4.8758    4.4784    4.4924 O   0  0  0  0  0  0  0  0  0  0  0  0
   -3.2391    2.9734    4.7052 O   0  0  0  0  0  0  0  0  0  0  0  0
   -3.0242    0.5505    2.4508 C   0  0  0  0  0  0  0  0  0  0  0  0
   -3.8708    0.1455    1.2531 C   0  0  0  0  0  0  0  0  0  0  0  0
   -4.5167    1.0423    0.3798 C   0  0  0  0  0  0  0  0  0  0  0  0
   -5.1935    0.6050   -0.7536 C   0  0  0  0  0  0  0  0  0  0  0  0
   -5.1887   -0.7444   -1.0673 C   0  0  0  0  0  0  0  0  0  0  0  0
   -4.5277   -1.6453   -0.2367 C   0  0  0  0  0  0  0  0  0  0  0  0
   -4.4752   -3.3112   -0.6474 Cl  0  0  0  0  0  0  0  0  0  0  0  0
   -3.8903   -1.2112    0.9185 C   0  0  0  0  0  0  0  0  0  0  0  0
    0.4365   -0.1126   -1.0223 H   0  0  0  0  0  0  0  0  0  0  0  0
    0.9967   -0.9564    0.4146 H   0  0  0  0  0  0  0  0  0  0  0  0
    2.0296    0.2056   -0.4583 H   0  0  0  0  0  0  0  0  0  0  0  0
    1.2221    2.4298   -0.9449 H   0  0  0  0  0  0  0  0  0  0  0  0
   -0.4247    2.8269   -0.4484 H   0  0  0  0  0  0  0  0  0  0  0  0
    2.0804    3.7930    0.8834 H   0  0  0  0  0  0  0  0  0  0  0  0
    0.5897    3.8681    1.6797 H   0  0  0  0  0  0  0  0  0  0  0  0
    2.1933   -0.0245    5.0724 H   0  0  0  0  0  0  0  0  0  0  0  0
    3.8254    0.3275    0.2673 H   0  0  0  0  0  0  0  0  0  0  0  0
    4.2971   -1.6022   -1.1873 H   0  0  0  0  0  0  0  0  0  0  0  0
    4.5139   -3.8624   -0.2035 H   0  0  0  0  0  0  0  0  0  0  0  0
    4.0439   -4.2114    2.2147 H   0  0  0  0  0  0  0  0  0  0  0  0
   -1.4430    2.7293    3.4815 H   0  0  0  0  0  0  0  0  0  0  0  0
   -0.7512    2.9016    1.9836 H   0  0  0  0  0  0  0  0  0  0  0  0
   -2.2327    4.6649    1.9792 H   0  0  0  0  0  0  0  0  0  0  0  0
   -2.6869    3.5122    0.7455 H   0  0  0  0  0  0  0  0  0  0  0  0
   -4.6887    4.2583    2.0137 H   0  0  0  0  0  0  0  0  0  0  0  0
   -4.4676    2.5946    2.3120 H   0  0  0  0  0  0  0  0  0  0  0  0
   -5.4383    4.8819    3.8114 H   0  0  0  0  0  0  0  0  0  0  0  0
   -2.6848   -0.3264    3.0195 H   0  0  0  0  0  0  0  0  0  0  0  0
   -3.6035    1.0994    3.1886 H   0  0  0  0  0  0  0  0  0  0  0  0
   -4.4964    2.1150    0.4952 H   0  0  0  0  0  0  0  0  0  0  0  0
   -5.6923    1.3283   -1.3938 H   0  0  0  0  0  0  0  0  0  0  0  0
   -5.6832   -1.0838   -1.9694 H   0  0  0  0  0  0  0  0  0  0  0  0
   -3.3205   -1.9153    1.5232 H   0  0  0  0  0  0  0  0  0  0  0  0
  1 34  1  0  0  0  0
  1 35  1  0  0  0  0
  1 36  1  0  0  0  0
  2  1  1  0  0  0  0
  2  3  1  0  0  0  0
  2  5  1  0  0  0  0
  2 17  1  1  0  0  0
  3  4  1  0  0  0  0
  3 37  1  0  0  0  0
  3 38  1  0  0  0  0
  4  5  1  0  0  0  0
  4 39  1  0  0  0  0
  4 40  1  0  0  0  0
  5  6  1  0  0  0  0
  6  7  2  0  0  0  0
  6  8  1  0  0  0  0
  8  9  2  0  0  0  0
  8 12  1  0  0  0  0
  9 10  1  0  0  0  0
  9 41  1  0  0  0  0
 10 11  1  0  0  0  0
 11 12  2  0  0  0  0
 11 16  1  0  0  0  0
 12 13  1  0  0  0  0
 13 14  2  0  0  0  0
 13 42  1  0  0  0  0
 14 15  1  0  0  0  0
 14 43  1  0  0  0  0
 15 16  2  0  0  0  0
 15 44  1  0  0  0  0
 16 45  1  0  0  0  0
 17 18  2  0  0  0  0
 17 19  1  0  0  0  0
 19 20  1  0  0  0  0
 19 26  1  0  0  0  0
 20 21  1  0  0  0  0
 20 46  1  0  0  0  0
 20 47  1  0  0  0  0
 21 22  1  0  0  0  0
 21 48  1  0  0  0  0
 21 49  1  0  0  0  0
 22 23  1  0  0  0  0
 22 50  1  0  0  0  0
 22 51  1  0  0  0  0
 23 24  1  0  0  0  0
 23 25  2  0  0  0  0
 24 52  1  0  0  0  0
 26 27  1  0  0  0  0
 26 53  1  0  0  0  0
 26 54  1  0  0  0  0
 27 28  2  0  0  0  0
 27 33  1  0  0  0  0
 28 29  1  0  0  0  0
 28 55  1  0  0  0  0
 29 30  2  0  0  0  0
 29 56  1  0  0  0  0
 30 31  1  0  0  0  0
 30 57  1  0  0  0  0
 31 32  1  0  0  0  0
 31 33  2  0  0  0  0
 33 58  1  0  0  0  0
M  END
>  <DRUGBANK_ID>
DB15406

>  <COMMON_NAME>
GLPG-0974

>  <CAS_NUMBER>
1391076-61-1

>  <UNII>
X7REK61AIS

$$$$
