77A
 OpenBabel10282417163D

 48 49  0  0  0  0  0  0  0  0999 V2000
    0.9282   -0.1656   -0.1471 N   0  0  0  0  0  0  0  0  0  0  0  0
    0.2345    1.0581   -0.0483 C   0  0  0  0  0  0  0  0  0  0  0  0
    0.6758    2.1085   -0.8755 C   0  0  0  0  0  0  0  0  0  0  0  0
   -0.0223    3.3186   -0.9193 C   0  0  0  0  0  0  0  0  0  0  0  0
   -1.1310    3.5196   -0.1081 C   0  0  0  0  0  0  0  0  0  0  0  0
   -1.5187    2.5107    0.7771 C   0  0  0  0  0  0  0  0  0  0  0  0
   -0.8382    1.2788    0.8381 C   0  0  0  0  0  0  0  0  0  0  0  0
   -1.3125    0.4818    1.8507 O   0  0  0  0  0  0  0  0  0  0  0  0
   -0.5945   -0.6726    2.2590 C   0  0  0  0  0  0  0  0  0  0  0  0
    0.4660    4.5589   -2.0109 Cl  0  0  0  0  0  0  0  0  0  0  0  0
    0.3267   -1.3742   -0.3462 C   0  0  0  0  0  0  0  0  0  0  0  0
   -0.8447   -1.5221   -0.7194 O   0  0  0  0  0  0  0  0  0  0  0  0
    1.0500   -2.4953   -0.0527 N   0  0  0  0  0  0  0  0  0  0  0  0
    2.4344   -2.5625    0.0759 C   0  0  0  0  0  0  0  0  0  0  0  0
    3.0890   -1.6023    0.7541 N   0  0  0  0  0  0  0  0  0  0  0  0
    4.4339   -1.6763    0.7536 C   0  0  0  0  0  0  0  0  0  0  0  0
    5.1107   -2.6548    0.0417 C   0  0  0  0  0  0  0  0  0  0  0  0
    4.4682   -3.6263   -0.6510 N   0  0  0  0  0  0  0  0  0  0  0  0
    3.1168   -3.5647   -0.6031 C   0  0  0  0  0  0  0  0  0  0  0  0
    5.1788   -0.7649    1.4653 O   0  0  0  0  0  0  0  0  0  0  0  0
    4.5185    0.0186    2.4840 C   0  0  2  0  0  0  0  0  0  0  0  0
    3.7418   -0.7759    3.5758 C   0  0  0  0  0  0  0  0  0  0  0  0
    4.5739   -1.6711    4.4179 N   0  0  0  0  0  0  0  0  0  0  0  0
    5.2880   -2.6735    3.6284 C   0  0  0  0  0  0  0  0  0  0  0  0
    3.6666    1.0866    1.8119 C   0  0  0  0  0  0  0  0  0  0  0  0
    3.7189   -2.3698    5.3824 C   0  0  0  0  0  0  0  0  0  0  0  0
    5.3253    0.5520    3.0060 H   0  0  0  0  0  0  0  0  0  0  0  0
    1.9304   -0.1465   -0.2946 H   0  0  0  0  0  0  0  0  0  0  0  0
    1.5204    1.9680   -1.5451 H   0  0  0  0  0  0  0  0  0  0  0  0
   -1.6908    4.4512   -0.1507 H   0  0  0  0  0  0  0  0  0  0  0  0
   -2.3631    2.6895    1.4404 H   0  0  0  0  0  0  0  0  0  0  0  0
   -0.8014   -1.4994    1.5881 H   0  0  0  0  0  0  0  0  0  0  0  0
    0.4771   -0.4875    2.3923 H   0  0  0  0  0  0  0  0  0  0  0  0
   -0.9971   -1.0421    3.2042 H   0  0  0  0  0  0  0  0  0  0  0  0
    0.5302   -3.3495   -0.1933 H   0  0  0  0  0  0  0  0  0  0  0  0
    6.1938   -2.6890    0.0210 H   0  0  0  0  0  0  0  0  0  0  0  0
    2.5925   -4.2898   -1.2160 H   0  0  0  0  0  0  0  0  0  0  0  0
    3.2685   -0.0383    4.2417 H   0  0  0  0  0  0  0  0  0  0  0  0
    2.9167   -1.3463    3.1377 H   0  0  0  0  0  0  0  0  0  0  0  0
    4.5985   -3.2685    3.0186 H   0  0  0  0  0  0  0  0  0  0  0  0
    6.0460   -2.2120    2.9924 H   0  0  0  0  0  0  0  0  0  0  0  0
    5.8549   -3.3575    4.2655 H   0  0  0  0  0  0  0  0  0  0  0  0
    2.8370    0.6330    1.2869 H   0  0  0  0  0  0  0  0  0  0  0  0
    3.2323    1.7924    2.5209 H   0  0  0  0  0  0  0  0  0  0  0  0
    4.2544    1.6196    1.0581 H   0  0  0  0  0  0  0  0  0  0  0  0
    2.9587   -2.9817    4.8817 H   0  0  0  0  0  0  0  0  0  0  0  0
    4.3234   -3.0281    6.0163 H   0  0  0  0  0  0  0  0  0  0  0  0
    3.2149   -1.6606    6.0462 H   0  0  0  0  0  0  0  0  0  0  0  0
  1 11  1  0  0  0  0
  1  2  1  0  0  0  0
  1 28  1  0  0  0  0
  2  3  1  0  0  0  0
  2  7  2  0  0  0  0
  3  4  2  0  0  0  0
  3 29  1  0  0  0  0
  4 10  1  0  0  0  0
  4  5  1  0  0  0  0
  5  6  2  0  0  0  0
  5 30  1  0  0  0  0
  6  7  1  0  0  0  0
  6 31  1  0  0  0  0
  7  8  1  0  0  0  0
  8  9  1  0  0  0  0
  9 32  1  0  0  0  0
  9 33  1  0  0  0  0
  9 34  1  0  0  0  0
 11 12  2  0  0  0  0
 11 13  1  0  0  0  0
 13 14  1  0  0  0  0
 13 35  1  0  0  0  0
 14 15  2  0  0  0  0
 14 19  1  0  0  0  0
 15 16  1  0  0  0  0
 16 20  1  0  0  0  0
 16 17  2  0  0  0  0
 17 18  1  0  0  0  0
 17 36  1  0  0  0  0
 18 19  2  0  0  0  0
 19 37  1  0  0  0  0
 20 21  1  0  0  0  0
 21 25  1  0  0  0  0
 21 22  1  0  0  0  0
 21 27  1  1  0  0  0
 22 23  1  0  0  0  0
 22 38  1  0  0  0  0
 22 39  1  0  0  0  0
 23 26  1  0  0  0  0
 23 24  1  0  0  0  0
 24 40  1  0  0  0  0
 24 41  1  0  0  0  0
 24 42  1  0  0  0  0
 25 43  1  0  0  0  0
 25 44  1  0  0  0  0
 25 45  1  0  0  0  0
 26 46  1  0  0  0  0
 26 47  1  0  0  0  0
 26 48  1  0  0  0  0
M  END
>  <DRUGBANK_ID>
DB07228

>  <COMMON_NAME>
1-(5-CHLORO-2-METHOXYPHENYL)-3-{6-[2-(DIMETHYLAMINO)-1-METHYLETHOXY]PYRAZIN-2-YL}UREA

$$$$
