
 OpenBabel10282417203D

 52 54  0  0  1  0  0  0  0  0999 V2000
   -1.5737   -0.7159    0.9760 C   0  0  0  0  0  0  0  0  0  0  0  0
   -2.1130   -2.4802    3.0620 C   0  0  0  0  0  0  0  0  0  0  0  0
   -4.1041   -1.7561    6.7991 C   0  0  0  0  0  0  0  0  0  0  0  0
   -1.5016    2.2125    6.1786 C   0  0  0  0  0  0  0  0  0  0  0  0
    0.6277    0.9213    6.3195 C   0  0  0  0  0  0  0  0  0  0  0  0
   -2.2557   -0.1421    2.1852 C   0  0  0  0  0  0  0  0  0  0  0  0
   -1.1055   -2.5104    9.9402 C   0  0  0  0  0  0  0  0  0  0  0  0
   -0.8993   -4.9650    9.3585 C   0  0  0  0  0  0  0  0  0  0  0  0
   -1.1643   -1.1619    9.5233 C   0  0  0  0  0  0  0  0  0  0  0  0
   -0.8141   -5.8959    8.3959 C   0  0  0  0  0  0  0  0  0  0  0  0
   -2.9979   -1.2280    2.9448 C   0  0  2  0  0  0  0  0  0  0  0  0
   -3.5378   -2.6767    5.7844 C   0  0  0  0  0  0  0  0  0  0  0  0
   -0.9277   -3.5500    9.0213 C   0  0  0  0  0  0  0  0  0  0  0  0
   -1.0685   -0.8346    8.1812 C   0  0  0  0  0  0  0  0  0  0  0  0
   -0.7494   -5.5495    6.9711 C   0  0  0  0  0  0  0  0  0  0  0  0
   -0.9415   -1.8706    7.2792 C   0  0  0  0  0  0  0  0  0  0  0  0
   -0.8082   -3.2049    7.6979 C   0  0  0  0  0  0  0  0  0  0  0  0
   -1.1916   -1.6271    5.8533 C   0  0  2  0  0  0  0  0  0  0  0  0
   -1.4654   -0.1963    5.3958 C   0  0  2  0  0  0  0  0  0  0  0  0
   -3.6276   -0.4798    4.1156 C   0  0  0  0  0  0  0  0  0  0  0  0
   -0.9084    0.8139    6.4371 C   0  0  0  0  0  0  0  0  0  0  0  0
   -4.2565   -3.4487    5.1508 O   0  0  0  0  0  0  0  0  0  0  0  0
   -0.7193   -6.4167    6.0908 O   0  0  0  0  0  0  0  0  0  0  0  0
   -4.8416   -0.2687    4.1346 O   0  0  0  0  0  0  0  0  0  0  0  0
   -2.2227   -2.5932    5.5014 O   0  0  0  0  0  0  0  0  0  0  0  0
   -0.6696   -4.2008    6.6945 O   0  0  0  0  0  0  0  0  0  0  0  0
   -2.8636    0.0609    5.1004 O   0  0  0  0  0  0  0  0  0  0  0  0
   -1.2459    0.4675    7.8038 O   0  0  0  0  0  0  0  0  0  0  0  0
   -3.8651   -1.5734    2.3621 H   0  0  0  0  0  0  0  0  0  0  0  0
   -0.2533   -1.9211    5.3542 H   0  0  0  0  0  0  0  0  0  0  0  0
   -0.9021   -0.0008    4.4886 H   0  0  0  0  0  0  0  0  0  0  0  0
   -0.8332   -1.4714    1.2608 H   0  0  0  0  0  0  0  0  0  0  0  0
   -1.0166    0.0623    0.4667 H   0  0  0  0  0  0  0  0  0  0  0  0
   -2.3210   -1.1787    0.3287 H   0  0  0  0  0  0  0  0  0  0  0  0
   -1.1540   -2.2219    3.5138 H   0  0  0  0  0  0  0  0  0  0  0  0
   -2.5759   -3.3336    3.5544 H   0  0  0  0  0  0  0  0  0  0  0  0
   -1.8467   -2.9343    2.1088 H   0  0  0  0  0  0  0  0  0  0  0  0
   -4.8801   -1.1376    6.3472 H   0  0  0  0  0  0  0  0  0  0  0  0
   -4.5120   -2.3512    7.6068 H   0  0  0  0  0  0  0  0  0  0  0  0
   -3.3654   -1.0721    7.1884 H   0  0  0  0  0  0  0  0  0  0  0  0
   -2.5936    2.2066    6.2706 H   0  0  0  0  0  0  0  0  0  0  0  0
   -1.1423    2.9347    6.9194 H   0  0  0  0  0  0  0  0  0  0  0  0
   -1.2448    2.5823    5.1786 H   0  0  0  0  0  0  0  0  0  0  0  0
    1.0213    1.6473    7.0387 H   0  0  0  0  0  0  0  0  0  0  0  0
    1.1219   -0.0306    6.5379 H   0  0  0  0  0  0  0  0  0  0  0  0
    0.9351    1.2321    5.3139 H   0  0  0  0  0  0  0  0  0  0  0  0
   -1.4774    0.3130    2.7924 H   0  0  0  0  0  0  0  0  0  0  0  0
   -2.9384    0.6791    1.9451 H   0  0  0  0  0  0  0  0  0  0  0  0
   -1.2112   -2.7301   10.9973 H   0  0  0  0  0  0  0  0  0  0  0  0
   -0.9436   -5.2477   10.4011 H   0  0  0  0  0  0  0  0  0  0  0  0
   -1.3296   -0.3688   10.2468 H   0  0  0  0  0  0  0  0  0  0  0  0
   -0.7725   -6.9555    8.6146 H   0  0  0  0  0  0  0  0  0  0  0  0
  1 32  1  0  0  0  0
  1 33  1  0  0  0  0
  1 34  1  0  0  0  0
  2 35  1  0  0  0  0
  2 36  1  0  0  0  0
  2 37  1  0  0  0  0
  3 38  1  0  0  0  0
  3 39  1  0  0  0  0
  3 40  1  0  0  0  0
  4 41  1  0  0  0  0
  4 42  1  0  0  0  0
  4 43  1  0  0  0  0
  5 44  1  0  0  0  0
  5 45  1  0  0  0  0
  5 46  1  0  0  0  0
  6  1  1  0  0  0  0
  6 47  1  0  0  0  0
  6 48  1  0  0  0  0
  7 49  1  0  0  0  0
  8 50  1  0  0  0  0
  9  7  2  0  0  0  0
  9 51  1  0  0  0  0
 10  8  2  0  0  0  0
 10 52  1  0  0  0  0
 11  2  1  0  0  0  0
 11  6  1  0  0  0  0
 11 29  1  6  0  0  0
 12  3  1  0  0  0  0
 13  7  1  0  0  0  0
 13  8  1  0  0  0  0
 14  9  1  0  0  0  0
 15 10  1  0  0  0  0
 16 14  2  0  0  0  0
 17 13  2  0  0  0  0
 17 16  1  0  0  0  0
 18 16  1  0  0  0  0
 18 25  1  0  0  0  0
 18 30  1  6  0  0  0
 19 18  1  0  0  0  0
 19 31  1  6  0  0  0
 19 27  1  0  0  0  0
 20 11  1  0  0  0  0
 21  4  1  0  0  0  0
 21  5  1  0  0  0  0
 21 19  1  0  0  0  0
 22 12  2  0  0  0  0
 23 15  2  0  0  0  0
 24 20  2  0  0  0  0
 25 12  1  0  0  0  0
 26 15  1  0  0  0  0
 26 17  1  0  0  0  0
 27 20  1  0  0  0  0
 28 14  1  0  0  0  0
 28 21  1  0  0  0  0
M  END
>  <DRUGBANK_ID>
DB13355

>  <COMMON_NAME>
Visnadine

>  <CAS_NUMBER>
477-32-7

>  <UNII>
0RL4V0K263

>  <SYNONYMS>
Visnadine

$$$$
