
 OpenBabel10282417203D

  4  2  0  0  0  0  0  0  0  0999 V2000
    0.9507   -0.0566   -0.0660 Na  0  3  0  0  0  0  0  0  0  0  0  0
    1.0607    0.0793   -0.0048 O   0  0  0  0  0  0  0  0  0  0  0  0
    2.5643    0.0793   -0.0048 Cl  0  0  0  0  0  0  0  0  0  0  0  0
    4.2443    0.0793   -0.0048 O   0  5  0  0  0  0  0  0  0  0  0  0
  2  3  2  0  0  0  0
  3  4  1  0  0  0  0
M  CHG  2   1   1   4  -1
M  END
>  <DRUGBANK_ID>
DB13210

>  <COMMON_NAME>
Sodium chlorite

>  <CAS_NUMBER>
7758-19-2

>  <UNII>
G538EBV4VF

$$$$
