7PY
 OpenBabel10282417163D

 47 50  0  0  0  0  0  0  0  0999 V2000
    1.0081    0.0292   -0.0267 C   0  0  0  0  0  0  0  0  0  0  0  0
    0.5568   -0.5367    1.1956 O   0  0  0  0  0  0  0  0  0  0  0  0
    0.8512   -1.8623    1.4118 C   0  0  0  0  0  0  0  0  0  0  0  0
    2.1831   -2.3218    1.2966 C   0  0  0  0  0  0  0  0  0  0  0  0
   -0.1491   -2.6887    1.9745 C   0  0  0  0  0  0  0  0  0  0  0  0
   -1.4885   -2.3862    2.0835 O   0  0  0  0  0  0  0  0  0  0  0  0
   -1.9860   -1.2527    1.3806 C   0  0  0  0  0  0  0  0  0  0  0  0
    0.2318   -3.9405    2.4942 C   0  0  0  0  0  0  0  0  0  0  0  0
   -0.6896   -4.6787    3.2100 O   0  0  0  0  0  0  0  0  0  0  0  0
   -0.1768   -5.8180    3.9118 C   0  0  0  0  0  0  0  0  0  0  0  0
    1.5453   -4.3827    2.3188 C   0  0  0  0  0  0  0  0  0  0  0  0
    2.5519   -3.5869    1.7627 C   0  0  0  0  0  0  0  0  0  0  0  0
    3.8829   -4.0573    1.7298 N   0  0  0  0  0  0  0  0  0  0  0  0
    4.3279   -5.3114    2.1739 C   0  0  0  0  0  0  0  0  0  0  0  0
    5.2075   -5.4016    3.2056 N   0  0  0  0  0  0  0  0  0  0  0  0
    5.4175   -6.6748    3.6329 C   0  0  0  0  0  0  0  0  0  0  0  0
    3.7451   -6.3681    1.5643 N   0  0  0  0  0  0  0  0  0  0  0  0
    3.9965   -7.6131    1.9865 C   0  0  0  0  0  0  0  0  0  0  0  0
    4.8515   -7.8147    3.0578 C   0  0  0  0  0  0  0  0  0  0  0  0
    5.3322   -8.9578    3.7309 C   0  0  0  0  0  0  0  0  0  0  0  0
    6.2238   -8.5160    4.6814 C   0  0  0  0  0  0  0  0  0  0  0  0
    6.2634   -7.1299    4.6516 N   0  0  0  0  0  0  0  0  0  0  0  0
    7.1134   -6.3701    5.4991 C   0  0  0  0  0  0  0  0  0  0  0  0
    6.5624   -5.4311    6.3634 C   0  0  0  0  0  0  0  0  0  0  0  0
    7.4268   -4.7145    7.1953 C   0  0  0  0  0  0  0  0  0  0  0  0
    8.7989   -4.9330    7.1167 C   0  0  0  0  0  0  0  0  0  0  0  0
    9.2526   -5.9175    6.2564 C   0  0  0  0  0  0  0  0  0  0  0  0
    8.4401   -6.6724    5.4823 N   0  0  0  0  0  0  0  0  0  0  0  0
    0.6005    1.0455   -0.0786 H   0  0  0  0  0  0  0  0  0  0  0  0
    0.6241   -0.5282   -0.8862 H   0  0  0  0  0  0  0  0  0  0  0  0
    2.0961    0.1149   -0.0588 H   0  0  0  0  0  0  0  0  0  0  0  0
    2.9477   -1.6619    0.9010 H   0  0  0  0  0  0  0  0  0  0  0  0
   -1.6853   -0.3310    1.8875 H   0  0  0  0  0  0  0  0  0  0  0  0
   -1.6915   -1.2526    0.3241 H   0  0  0  0  0  0  0  0  0  0  0  0
   -3.0802   -1.2793    1.4034 H   0  0  0  0  0  0  0  0  0  0  0  0
    0.1023   -6.6065    3.2031 H   0  0  0  0  0  0  0  0  0  0  0  0
    0.6738   -5.5619    4.5593 H   0  0  0  0  0  0  0  0  0  0  0  0
   -0.9603   -6.2201    4.5594 H   0  0  0  0  0  0  0  0  0  0  0  0
    1.8199   -5.3680    2.6675 H   0  0  0  0  0  0  0  0  0  0  0  0
    4.6252   -3.4015    1.5435 H   0  0  0  0  0  0  0  0  0  0  0  0
    3.5010   -8.4157    1.4544 H   0  0  0  0  0  0  0  0  0  0  0  0
    5.0796   -9.9891    3.5233 H   0  0  0  0  0  0  0  0  0  0  0  0
    6.8144   -9.0641    5.4023 H   0  0  0  0  0  0  0  0  0  0  0  0
    5.4901   -5.2869    6.4400 H   0  0  0  0  0  0  0  0  0  0  0  0
    7.0354   -3.9823    7.8970 H   0  0  0  0  0  0  0  0  0  0  0  0
    9.4966   -4.3538    7.7132 H   0  0  0  0  0  0  0  0  0  0  0  0
   10.3152   -6.1240    6.1574 H   0  0  0  0  0  0  0  0  0  0  0  0
  1  2  1  0  0  0  0
  1 29  1  0  0  0  0
  1 30  1  0  0  0  0
  1 31  1  0  0  0  0
  2  3  1  0  0  0  0
  3  4  2  0  0  0  0
  3  5  1  0  0  0  0
  4 12  1  0  0  0  0
  4 32  1  0  0  0  0
  5  6  1  0  0  0  0
  5  8  2  0  0  0  0
  6  7  1  0  0  0  0
  7 33  1  0  0  0  0
  7 34  1  0  0  0  0
  7 35  1  0  0  0  0
  8  9  1  0  0  0  0
  8 11  1  0  0  0  0
  9 10  1  0  0  0  0
 10 36  1  0  0  0  0
 10 37  1  0  0  0  0
 10 38  1  0  0  0  0
 11 12  2  0  0  0  0
 11 39  1  0  0  0  0
 12 13  1  0  0  0  0
 13 14  1  0  0  0  0
 13 40  1  0  0  0  0
 14 15  1  0  0  0  0
 14 17  2  0  0  0  0
 15 16  2  0  0  0  0
 16 19  1  0  0  0  0
 16 22  1  0  0  0  0
 17 18  1  0  0  0  0
 18 19  2  0  0  0  0
 18 41  1  0  0  0  0
 19 20  1  0  0  0  0
 20 21  2  0  0  0  0
 20 42  1  0  0  0  0
 21 22  1  0  0  0  0
 21 43  1  0  0  0  0
 22 23  1  0  0  0  0
 23 24  2  0  0  0  0
 23 28  1  0  0  0  0
 24 25  1  0  0  0  0
 24 44  1  0  0  0  0
 25 26  2  0  0  0  0
 25 45  1  0  0  0  0
 26 27  1  0  0  0  0
 26 46  1  0  0  0  0
 27 28  2  0  0  0  0
 27 47  1  0  0  0  0
M  END
>  <DRUGBANK_ID>
DB07248

>  <COMMON_NAME>
7-PYRIDIN-2-YL-N-(3,4,5-TRIMETHOXYPHENYL)-7H-PYRROLO[2,3-D]PYRIMIDIN-2-AMINE

$$$$
