
 OpenBabel10282417203D

 53 57  0  0  1  0  0  0  0  0999 V2000
    2.3662    0.3404   -0.7938 C   0  0  0  0  0  0  0  0  0  0  0  0
    1.6173    1.4780   -0.5753 C   0  0  0  0  0  0  0  0  0  0  0  0
    0.2186    1.3769   -0.6424 C   0  0  0  0  0  0  0  0  0  0  0  0
   -0.4290    0.1012   -0.7113 C   0  0  0  0  0  0  0  0  0  0  0  0
    0.3418   -1.0842   -0.7124 C   0  0  0  0  0  0  0  0  0  0  0  0
    1.7117   -0.8728   -1.0545 C   0  0  0  0  0  0  0  0  0  0  0  0
   -0.1944   -2.5376   -0.1989 C   0  0  0  0  0  0  0  0  0  0  0  0
    0.1170   -3.4964   -1.3885 C   0  0  0  0  0  0  0  0  0  0  0  0
   -0.9264   -3.5898   -2.3487 C   0  0  0  0  0  0  0  0  0  0  0  0
   -0.6849   -4.0611   -3.6410 C   0  0  0  0  0  0  0  0  0  0  0  0
    0.5967   -4.4254   -4.0203 C   0  0  0  0  0  0  0  0  0  0  0  0
    1.6184   -4.3886   -3.0959 C   0  0  0  0  0  0  0  0  0  0  0  0
    1.3935   -3.9899   -1.7812 C   0  0  0  0  0  0  0  0  0  0  0  0
    2.8971   -4.1173   -0.9192 Cl  0  0  0  0  0  0  0  0  0  0  0  0
   -0.0071   -3.2032    1.2158 N   0  0  0  0  0  0  0  0  0  0  0  0
    1.3481   -3.5266    1.6222 C   0  0  2  0  0  0  0  0  0  0  0  0
    1.3736   -4.1031    3.0219 C   0  0  0  0  0  0  0  0  0  0  0  0
    0.1274   -3.5411    3.6403 C   0  0  0  0  0  0  0  0  0  0  0  0
   -0.5378   -2.6981    2.5122 C   0  0  1  0  0  0  0  0  0  0  0  0
   -0.0957   -1.2950    2.8384 C   0  0  0  0  0  0  0  0  0  0  0  0
    1.3308   -1.0340    2.3219 C   0  0  2  0  0  0  0  0  0  0  0  0
    2.0861   -2.2125    1.6178 C   0  0  0  0  0  0  0  0  0  0  0  0
    2.3654   -0.4380    3.1976 C   0  0  0  0  0  0  0  0  0  0  0  0
    2.6424   -1.0757    4.3392 N   0  0  0  0  0  0  0  0  0  0  0  0
    3.5350   -0.4650    5.0900 C   0  0  0  0  0  0  0  0  0  0  0  0
    4.1450    0.7439    4.7854 C   0  0  0  0  0  0  0  0  0  0  0  0
    3.8391    1.2887    3.5584 C   0  0  0  0  0  0  0  0  0  0  0  0
    3.0167    0.6825    2.7485 N   0  0  0  0  0  0  0  0  0  0  0  0
    1.0600    0.1321    1.5835 O   0  0  0  0  0  0  0  0  0  0  0  0
   -2.1125    0.0929   -0.3166 Cl  0  0  0  0  0  0  0  0  0  0  0  0
    3.4215    0.3103   -0.4984 H   0  0  0  0  0  0  0  0  0  0  0  0
    2.1022    2.3487   -0.1321 H   0  0  0  0  0  0  0  0  0  0  0  0
   -0.3469    2.2497   -0.3167 H   0  0  0  0  0  0  0  0  0  0  0  0
    2.4052   -1.6856   -1.2126 H   0  0  0  0  0  0  0  0  0  0  0  0
   -1.2890   -2.4298   -0.1906 H   0  0  0  0  0  0  0  0  0  0  0  0
   -1.9275   -3.2143   -2.1270 H   0  0  0  0  0  0  0  0  0  0  0  0
   -1.4858   -4.0935   -4.3729 H   0  0  0  0  0  0  0  0  0  0  0  0
    0.8277   -4.7396   -5.0301 H   0  0  0  0  0  0  0  0  0  0  0  0
    2.6310   -4.6397   -3.4047 H   0  0  0  0  0  0  0  0  0  0  0  0
    1.7229   -4.3429    1.0266 H   0  0  0  0  0  0  0  0  0  0  0  0
    2.2954   -3.8113    3.5435 H   0  0  0  0  0  0  0  0  0  0  0  0
    1.3491   -5.1977    3.0174 H   0  0  0  0  0  0  0  0  0  0  0  0
    0.4217   -2.9394    4.5128 H   0  0  0  0  0  0  0  0  0  0  0  0
   -0.5169   -4.3406    4.0054 H   0  0  0  0  0  0  0  0  0  0  0  0
   -1.6265   -2.7856    2.5841 H   0  0  0  0  0  0  0  0  0  0  0  0
   -0.1572   -1.0297    3.8983 H   0  0  0  0  0  0  0  0  0  0  0  0
   -0.8752   -0.6609    2.3914 H   0  0  0  0  0  0  0  0  0  0  0  0
    2.2450   -2.0154    0.5972 H   0  0  0  0  0  0  0  0  0  0  0  0
    3.1236   -2.3511    1.9423 H   0  0  0  0  0  0  0  0  0  0  0  0
    3.7393   -0.9893    6.0161 H   0  0  0  0  0  0  0  0  0  0  0  0
    4.8071    1.2326    5.4598 H   0  0  0  0  0  0  0  0  0  0  0  0
    4.2306    2.2388    3.2085 H   0  0  0  0  0  0  0  0  0  0  0  0
    0.1687    0.0800    1.2494 H   0  0  0  0  0  0  0  0  0  0  0  0
  1  2  2  0  0  0  0
  1  6  1  0  0  0  0
  1 31  1  0  0  0  0
  2  3  1  0  0  0  0
  2 32  1  0  0  0  0
  3  4  2  0  0  0  0
  3 33  1  0  0  0  0
  4  5  1  0  0  0  0
  4 30  1  0  0  0  0
  5  6  2  0  0  0  0
  5  7  1  0  0  0  0
  6 34  1  0  0  0  0
  7  8  1  0  0  0  0
  7 15  1  0  0  0  0
  7 35  1  0  0  0  0
  8  9  2  0  0  0  0
  8 13  1  0  0  0  0
  9 10  1  0  0  0  0
  9 36  1  0  0  0  0
 10 11  2  0  0  0  0
 10 37  1  0  0  0  0
 11 12  1  0  0  0  0
 11 38  1  0  0  0  0
 12 13  2  0  0  0  0
 12 39  1  0  0  0  0
 13 14  1  0  0  0  0
 16 15  1  0  0  0  0
 16 17  1  0  0  0  0
 16 22  1  0  0  0  0
 16 40  1  6  0  0  0
 17 18  1  0  0  0  0
 17 41  1  0  0  0  0
 17 42  1  0  0  0  0
 18 19  1  0  0  0  0
 18 43  1  0  0  0  0
 18 44  1  0  0  0  0
 19 15  1  0  0  0  0
 19 20  1  0  0  0  0
 19 45  1  1  0  0  0
 20 21  1  0  0  0  0
 20 46  1  0  0  0  0
 20 47  1  0  0  0  0
 21 22  1  0  0  0  0
 21 29  1  6  0  0  0
 21 23  1  0  0  0  0
 22 48  1  0  0  0  0
 22 49  1  0  0  0  0
 23 24  2  0  0  0  0
 23 28  1  0  0  0  0
 24 25  1  0  0  0  0
 25 26  2  0  0  0  0
 25 50  1  0  0  0  0
 26 27  1  0  0  0  0
 26 51  1  0  0  0  0
 27 28  2  0  0  0  0
 27 52  1  0  0  0  0
 29 53  1  0  0  0  0
M  END
>  <DRUGBANK_ID>
DB12782

>  <COMMON_NAME>
SCH-486757

>  <CAS_NUMBER>
524019-25-8

>  <UNII>
2HV668N62T

$$$$
