
 OpenBabel10282417123D

 25 25  0  0  1  0  0  0  0  0999 V2000
    1.0379    0.0330    0.0531 C   0  0  0  0  0  0  0  0  0  0  0  0
    0.5101    0.2908   -1.3700 C   0  0  2  0  0  0  0  0  0  0  0  0
    1.1495   -0.7224   -2.3268 C   0  0  2  0  0  0  0  0  0  0  0  0
    2.1609   -0.2135   -3.3407 C   0  0  1  0  0  0  0  0  0  0  0  0
    2.1814    1.2771   -3.6145 C   0  0  2  0  0  0  0  0  0  0  0  0
    1.3840    2.1565   -2.6635 C   0  0  0  0  0  0  0  0  0  0  0  0
    0.6650    1.7125   -1.6859 N   0  0  0  0  0  0  0  0  0  0  0  0
    1.5342    3.5110   -2.8746 N   0  0  0  0  0  0  0  0  0  0  0  0
    0.5991   -1.2225    0.5706 O   0  0  0  0  0  0  0  0  0  0  0  0
    0.1085   -1.4347   -3.0109 O   0  0  0  0  0  0  0  0  0  0  0  0
    3.4865   -0.6089   -2.9342 O   0  0  0  0  0  0  0  0  0  0  0  0
    1.7938    1.5356   -4.9631 O   0  0  0  0  0  0  0  0  0  0  0  0
    0.7585    4.3763   -2.1099 O   0  0  0  0  0  0  0  0  0  0  0  0
   -0.5719    0.0992   -1.3524 H   0  0  0  0  0  0  0  0  0  0  0  0
    1.6664   -1.4976   -1.7508 H   0  0  0  0  0  0  0  0  0  0  0  0
    1.9870   -0.7520   -4.2807 H   0  0  0  0  0  0  0  0  0  0  0  0
    3.2129    1.6425   -3.5297 H   0  0  0  0  0  0  0  0  0  0  0  0
    0.6832    0.8048    0.7422 H   0  0  0  0  0  0  0  0  0  0  0  0
    2.1331    0.0523    0.0662 H   0  0  0  0  0  0  0  0  0  0  0  0
    1.9481    3.8762   -3.7313 H   0  0  0  0  0  0  0  0  0  0  0  0
    0.8398   -1.9374   -0.0444 H   0  0  0  0  0  0  0  0  0  0  0  0
   -0.4099   -0.7842   -3.5163 H   0  0  0  0  0  0  0  0  0  0  0  0
    3.6872   -0.1759   -2.0855 H   0  0  0  0  0  0  0  0  0  0  0  0
    2.3938    1.0073   -5.5239 H   0  0  0  0  0  0  0  0  0  0  0  0
    0.3126    3.7788   -1.4720 H   0  0  0  0  0  0  0  0  0  0  0  0
  1 18  1  0  0  0  0
  1 19  1  0  0  0  0
  2  1  1  0  0  0  0
  2 14  1  1  0  0  0
  3  2  1  0  0  0  0
  3 10  1  0  0  0  0
  3 15  1  1  0  0  0
  4  3  1  0  0  0  0
  4 11  1  0  0  0  0
  4 16  1  6  0  0  0
  5  4  1  0  0  0  0
  5 17  1  1  0  0  0
  5 12  1  0  0  0  0
  6  5  1  0  0  0  0
  7  2  1  0  0  0  0
  7  6  2  0  0  0  0
  8  6  1  0  0  0  0
  8 20  1  0  0  0  0
  9  1  1  0  0  0  0
  9 21  1  0  0  0  0
 10 22  1  0  0  0  0
 11 23  1  0  0  0  0
 12 24  1  0  0  0  0
 13  8  1  0  0  0  0
 13 25  1  0  0  0  0
M  END
>  <DRUGBANK_ID>
DB02376

>  <SECONDARY_ACCESSION_NUMBERS>
EXPT01630

>  <COMMON_NAME>
D-gluconhydroximo-1,5-lactam

$$$$
