
 OpenBabel10282417203D

 70 71  0  0  0  0  0  0  0  0999 V2000
    0.3995    1.3763    0.0795 C   0  0  0  0  0  0  0  0  0  0  0  0
   -0.9877    0.9682    0.1436 C   0  0  0  0  0  0  0  0  0  0  0  0
    1.3421    0.2941    0.0702 C   0  0  0  0  0  0  0  0  0  0  0  0
    0.6832    2.8256    0.0231 N   0  0  0  0  0  0  0  0  0  0  0  0
   -1.4200   -0.4210    0.1883 C   0  0  0  0  0  0  0  0  0  0  0  0
   -2.4485    2.6014   -0.0280 I   0  0  0  0  0  0  0  0  0  0  0  0
    0.9170   -1.0356    0.1407 C   0  0  0  0  0  0  0  0  0  0  0  0
    3.5451   -0.0344   -0.2010 I   0  0  0  0  0  0  0  0  0  0  0  0
    1.8695    3.3038   -0.4680 C   0  0  0  0  0  0  0  0  0  0  0  0
   -0.4159   -1.4020    0.1507 C   0  0  0  0  0  0  0  0  0  0  0  0
   -2.8623   -0.8224    0.2997 C   0  0  0  0  0  0  0  0  0  0  0  0
    2.4205    4.7466   -0.3899 C   0  0  0  0  0  0  0  0  0  0  0  0
    2.5527    2.5243   -1.1062 O   0  0  0  0  0  0  0  0  0  0  0  0
   -0.5965   -3.5089   -0.0399 I   0  0  0  0  0  0  0  0  0  0  0  0
   -3.2140   -2.1049    0.3856 O   0  0  0  0  0  0  0  0  0  0  0  0
   -3.8128    0.0137    0.3581 O   0  0  0  0  0  0  0  0  0  0  0  0
    3.6951    5.0568    0.4482 C   0  0  0  0  0  0  0  0  0  0  0  0
    4.8426    4.2746    0.7112 O   0  0  0  0  0  0  0  0  0  0  0  0
    4.4231    2.9067    0.8797 C   0  0  0  0  0  0  0  0  0  0  0  0
    3.2014    2.6487    1.8215 C   0  0  0  0  0  0  0  0  0  0  0  0
    2.0251    3.5051    2.2454 O   0  0  0  0  0  0  0  0  0  0  0  0
    2.1559    4.9040    2.7121 C   0  0  0  0  0  0  0  0  0  0  0  0
    3.4975    5.3940    3.3922 C   0  0  0  0  0  0  0  0  0  0  0  0
    4.4227    4.3719    3.9206 O   0  0  0  0  0  0  0  0  0  0  0  0
    4.0383    2.9532    4.3360 C   0  0  0  0  0  0  0  0  0  0  0  0
    3.0665    2.4370    5.3830 C   0  0  0  0  0  0  0  0  0  0  0  0
    1.8502    3.1955    5.5073 O   0  0  0  0  0  0  0  0  0  0  0  0
    2.2159    4.5573    5.6764 C   0  0  0  0  0  0  0  0  0  0  0  0
    3.4470    5.1276    6.4813 C   0  0  0  0  0  0  0  0  0  0  0  0
    4.8961    4.4193    6.4841 C   0  0  0  0  0  0  0  0  0  0  0  0
    6.0505    5.0383    6.0090 N   0  0  0  0  0  0  0  0  0  0  0  0
    5.0547    3.2844    6.9457 O   0  0  0  0  0  0  0  0  0  0  0  0
    7.2931    4.2464    6.0682 C   0  0  0  0  0  0  0  0  0  0  0  0
    7.5200    3.0566    5.2645 C   0  0  0  0  0  0  0  0  0  0  0  0
    8.3339    4.6014    6.9178 C   0  0  0  0  0  0  0  0  0  0  0  0
    8.6260    2.1523    5.3728 C   0  0  0  0  0  0  0  0  0  0  0  0
    7.1424    3.3201    3.1641 I   0  0  0  0  0  0  0  0  0  0  0  0
    9.5093    3.8197    6.9404 C   0  0  0  0  0  0  0  0  0  0  0  0
    8.2393    6.2928    8.1484 I   0  0  0  0  0  0  0  0  0  0  0  0
    9.6665    2.6369    6.1638 C   0  0  0  0  0  0  0  0  0  0  0  0
    8.6348    0.8583    4.4978 C   0  0  0  0  0  0  0  0  0  0  0  0
   11.6316    1.8664    6.1415 I   0  0  0  0  0  0  0  0  0  0  0  0
    9.7875    0.1612    4.4219 O   0  0  0  0  0  0  0  0  0  0  0  0
    7.6843    0.4194    3.8821 O   0  0  0  0  0  0  0  0  0  0  0  0
   -0.1105    3.4619    0.1116 H   0  0  0  0  0  0  0  0  0  0  0  0
    1.6764   -1.8192    0.1386 H   0  0  0  0  0  0  0  0  0  0  0  0
    2.7907    4.9502   -1.3805 H   0  0  0  0  0  0  0  0  0  0  0  0
    1.6020    5.4276   -0.1129 H   0  0  0  0  0  0  0  0  0  0  0  0
   -2.5004   -2.7729    0.3486 H   0  0  0  0  0  0  0  0  0  0  0  0
    3.8119    6.1037    0.7713 H   0  0  0  0  0  0  0  0  0  0  0  0
    3.2753    4.6332    1.2629 H   0  0  0  0  0  0  0  0  0  0  0  0
    4.2519    2.6332   -0.1150 H   0  0  0  0  0  0  0  0  0  0  0  0
    5.2608    2.2733    1.2184 H   0  0  0  0  0  0  0  0  0  0  0  0
    3.0427    1.6098    2.1999 H   0  0  0  0  0  0  0  0  0  0  0  0
    3.9254    3.0739    2.4308 H   0  0  0  0  0  0  0  0  0  0  0  0
    2.1692    5.6294    1.9084 H   0  0  0  0  0  0  0  0  0  0  0  0
    1.1548    5.3180    2.9075 H   0  0  0  0  0  0  0  0  0  0  0  0
    4.0090    6.3484    3.1377 H   0  0  0  0  0  0  0  0  0  0  0  0
    3.0610    5.9824    4.1915 H   0  0  0  0  0  0  0  0  0  0  0  0
    3.1892    2.7707    3.7553 H   0  0  0  0  0  0  0  0  0  0  0  0
    4.7570    2.1860    3.9807 H   0  0  0  0  0  0  0  0  0  0  0  0
    2.8747    1.3900    5.1062 H   0  0  0  0  0  0  0  0  0  0  0  0
    3.4449    2.4406    6.3593 H   0  0  0  0  0  0  0  0  0  0  0  0
    2.7171    4.4949    4.8028 H   0  0  0  0  0  0  0  0  0  0  0  0
    1.4491    5.2833    5.3373 H   0  0  0  0  0  0  0  0  0  0  0  0
    3.6048    6.1778    6.1774 H   0  0  0  0  0  0  0  0  0  0  0  0
    3.0522    5.1029    7.4845 H   0  0  0  0  0  0  0  0  0  0  0  0
    6.1060    6.0409    6.1555 H   0  0  0  0  0  0  0  0  0  0  0  0
   10.3378    4.1333    7.5745 H   0  0  0  0  0  0  0  0  0  0  0  0
   10.5147    0.4922    4.9690 H   0  0  0  0  0  0  0  0  0  0  0  0
  1  2  1  0  0  0  0
  1  3  2  0  0  0  0
  1  4  1  0  0  0  0
  2  5  2  0  0  0  0
  2  6  1  0  0  0  0
  3  7  1  0  0  0  0
  3  8  1  0  0  0  0
  4  9  1  0  0  0  0
  4 45  1  0  0  0  0
  5 10  1  0  0  0  0
  5 11  1  0  0  0  0
  7 10  2  0  0  0  0
  7 46  1  0  0  0  0
  9 12  1  0  0  0  0
  9 13  2  0  0  0  0
 10 14  1  0  0  0  0
 11 15  1  0  0  0  0
 11 16  2  0  0  0  0
 12 17  1  0  0  0  0
 12 47  1  0  0  0  0
 12 48  1  0  0  0  0
 15 49  1  0  0  0  0
 17 18  1  0  0  0  0
 17 50  1  0  0  0  0
 17 51  1  0  0  0  0
 18 19  1  0  0  0  0
 19 20  1  0  0  0  0
 19 52  1  0  0  0  0
 19 53  1  0  0  0  0
 20 21  1  0  0  0  0
 20 54  1  0  0  0  0
 20 55  1  0  0  0  0
 21 22  1  0  0  0  0
 22 23  1  0  0  0  0
 22 56  1  0  0  0  0
 22 57  1  0  0  0  0
 23 24  1  0  0  0  0
 23 58  1  0  0  0  0
 23 59  1  0  0  0  0
 24 25  1  0  0  0  0
 25 26  1  0  0  0  0
 25 60  1  0  0  0  0
 25 61  1  0  0  0  0
 26 27  1  0  0  0  0
 26 62  1  0  0  0  0
 26 63  1  0  0  0  0
 27 28  1  0  0  0  0
 28 29  1  0  0  0  0
 28 64  1  0  0  0  0
 28 65  1  0  0  0  0
 29 30  1  0  0  0  0
 29 66  1  0  0  0  0
 29 67  1  0  0  0  0
 30 31  1  0  0  0  0
 30 32  2  0  0  0  0
 31 33  1  0  0  0  0
 31 68  1  0  0  0  0
 33 34  2  0  0  0  0
 33 35  1  0  0  0  0
 34 36  1  0  0  0  0
 34 37  1  0  0  0  0
 35 38  2  0  0  0  0
 35 39  1  0  0  0  0
 36 40  2  0  0  0  0
 36 41  1  0  0  0  0
 38 40  1  0  0  0  0
 38 69  1  0  0  0  0
 40 42  1  0  0  0  0
 41 43  1  0  0  0  0
 41 44  2  0  0  0  0
 43 70  1  0  0  0  0
M  END
>  <DRUGBANK_ID>
DB13539

>  <COMMON_NAME>
Iodoxamic acid

>  <CAS_NUMBER>
31127-82-9

>  <UNII>
NS1Y283HW4

>  <SYNONYMS>
Acidum iodoxamicum; Iodoxamic acid

$$$$
