
 OpenBabel10282417133D

 14 13  0  0  1  0  0  0  0  0999 V2000
    0.8443   -1.4191    1.9562 N   0  0  0  0  0  0  0  0  0  0  0  0
    0.3993   -1.2345    0.5540 C   0  0  2  0  0  0  0  0  0  0  0  0
    1.0183    0.0314   -0.0536 C   0  0  0  0  0  0  0  0  0  0  0  0
    2.4332   -0.1402   -0.1678 O   0  0  0  0  0  0  0  0  0  0  0  0
   -1.1294   -1.1427    0.5250 C   0  0  0  0  0  0  0  0  0  0  0  0
   -1.7441   -2.1226   -0.1770 O   0  0  0  0  0  0  0  0  0  0  0  0
   -1.7646   -0.2674    1.1048 O   0  0  0  0  0  0  0  0  0  0  0  0
    0.5545   -0.5924    2.4888 H   0  0  0  0  0  0  0  0  0  0  0  0
    1.8561   -1.4659    2.0237 H   0  0  0  0  0  0  0  0  0  0  0  0
    0.7353   -2.1071   -0.0162 H   0  0  0  0  0  0  0  0  0  0  0  0
    0.6283    0.2332   -1.0570 H   0  0  0  0  0  0  0  0  0  0  0  0
    0.8273    0.9202    0.5592 H   0  0  0  0  0  0  0  0  0  0  0  0
    2.7626   -0.4003    0.7083 H   0  0  0  0  0  0  0  0  0  0  0  0
   -1.1533   -2.8069   -0.5452 H   0  0  0  0  0  0  0  0  0  0  0  0
  1  8  1  0  0  0  0
  1  9  1  0  0  0  0
  2  5  1  0  0  0  0
  2 10  1  6  0  0  0
  2  3  1  0  0  0  0
  2  1  1  0  0  0  0
  3  4  1  0  0  0  0
  3 11  1  0  0  0  0
  3 12  1  0  0  0  0
  4 13  1  0  0  0  0
  5  6  1  0  0  0  0
  5  7  2  0  0  0  0
  6 14  1  0  0  0  0
M  END
>  <DRUGBANK_ID>
DB03929

>  <SECONDARY_ACCESSION_NUMBERS>
EXPT01275

>  <COMMON_NAME>
D-Serine

>  <CAS_NUMBER>
312-84-5

>  <UNII>
1K77H2Z9B1

$$$$
