2A6
 OpenBabel10282417163D

 45 48  0  0  0  0  0  0  0  0999 V2000
    1.9096    0.7631    0.2768 C   0  0  0  0  0  0  0  0  0  0  0  0
   -2.3410   -0.0311   -0.0551 C   0  0  0  0  0  0  0  0  0  0  0  0
    2.3928   -3.2927   -0.0317 C   0  0  0  0  0  0  0  0  0  0  0  0
    3.1550   -2.9857   -1.3557 C   0  0  0  0  0  0  0  0  0  0  0  0
    4.4796   -3.7581   -1.4710 C   0  0  0  0  0  0  0  0  0  0  0  0
    5.2903   -3.2952   -2.6928 C   0  0  0  0  0  0  0  0  0  0  0  0
    5.5862   -1.7972   -2.6652 C   0  0  0  0  0  0  0  0  0  0  0  0
    4.2991   -1.0160   -2.6063 C   0  0  0  0  0  0  0  0  0  0  0  0
    3.4569   -1.4990   -1.4627 C   0  0  0  0  0  0  0  0  0  0  0  0
    3.8139    4.9250   -1.1436 C   0  0  0  0  0  0  0  0  0  0  0  0
    3.1095    5.6761   -0.2009 C   0  0  0  0  0  0  0  0  0  0  0  0
    2.4898    5.0396    0.8670 C   0  0  0  0  0  0  0  0  0  0  0  0
    2.5496    3.6556    0.9696 C   0  0  0  0  0  0  0  0  0  0  0  0
    2.0144   -0.5708    0.4940 N   0  0  0  0  0  0  0  0  0  0  0  0
    0.9419   -1.3712    0.2846 C   0  0  0  0  0  0  0  0  0  0  0  0
    1.0666   -2.7318    0.0654 O   0  0  0  0  0  0  0  0  0  0  0  0
   -0.2693   -0.7495    0.1291 C   0  0  0  0  0  0  0  0  0  0  0  0
   -1.5650   -1.1589   -0.0219 N   0  0  0  0  0  0  0  0  0  0  0  0
   -1.6140    1.0636   -0.0473 N   0  0  0  0  0  0  0  0  0  0  0  0
   -0.3263    0.6227    0.0663 C   0  0  0  0  0  0  0  0  0  0  0  0
    0.7597    1.4073    0.0863 N   0  0  0  0  0  0  0  0  0  0  0  0
    3.1092    1.4832    0.0995 N   0  0  0  0  0  0  0  0  0  0  0  0
    3.2311    2.8772    0.0268 C   0  0  0  0  0  0  0  0  0  0  0  0
    3.8966    3.5289   -1.0203 C   0  0  0  0  0  0  0  0  0  0  0  0
   -3.4219   -0.0644   -0.0848 H   0  0  0  0  0  0  0  0  0  0  0  0
    2.9761   -3.0416    0.8620 H   0  0  0  0  0  0  0  0  0  0  0  0
    2.2416   -4.3812    0.0076 H   0  0  0  0  0  0  0  0  0  0  0  0
    2.5078   -3.2606   -2.1981 H   0  0  0  0  0  0  0  0  0  0  0  0
    5.0809   -3.6116   -0.5640 H   0  0  0  0  0  0  0  0  0  0  0  0
    4.2825   -4.8334   -1.5519 H   0  0  0  0  0  0  0  0  0  0  0  0
    6.2345   -3.8442   -2.7446 H   0  0  0  0  0  0  0  0  0  0  0  0
    4.7231   -3.5264   -3.6030 H   0  0  0  0  0  0  0  0  0  0  0  0
    6.2041   -1.5529   -1.7916 H   0  0  0  0  0  0  0  0  0  0  0  0
    6.1400   -1.4887   -3.5562 H   0  0  0  0  0  0  0  0  0  0  0  0
    4.4961    0.0541   -2.4622 H   0  0  0  0  0  0  0  0  0  0  0  0
    3.7244   -1.1185   -3.5318 H   0  0  0  0  0  0  0  0  0  0  0  0
    2.5153   -0.9781   -1.6148 H   0  0  0  0  0  0  0  0  0  0  0  0
    3.9690   -1.2033   -0.5368 H   0  0  0  0  0  0  0  0  0  0  0  0
    4.2728    5.4308   -1.9905 H   0  0  0  0  0  0  0  0  0  0  0  0
    3.0316    6.7550   -0.2995 H   0  0  0  0  0  0  0  0  0  0  0  0
    1.9321    5.6017    1.6087 H   0  0  0  0  0  0  0  0  0  0  0  0
    2.0425    3.1602    1.7942 H   0  0  0  0  0  0  0  0  0  0  0  0
   -1.8916   -2.1124   -0.0262 H   0  0  0  0  0  0  0  0  0  0  0  0
    3.9168    0.9160   -0.0883 H   0  0  0  0  0  0  0  0  0  0  0  0
    4.4371    2.9701   -1.7799 H   0  0  0  0  0  0  0  0  0  0  0  0
  1 14  2  0  0  0  0
  1 21  1  0  0  0  0
  1 22  1  0  0  0  0
  2 18  1  0  0  0  0
  2 19  2  0  0  0  0
  2 25  1  0  0  0  0
  3  4  1  0  0  0  0
  3 16  1  0  0  0  0
  3 26  1  0  0  0  0
  3 27  1  0  0  0  0
  4  5  1  0  0  0  0
  4  9  1  0  0  0  0
  4 28  1  0  0  0  0
  5  6  1  0  0  0  0
  5 29  1  0  0  0  0
  5 30  1  0  0  0  0
  6  7  1  0  0  0  0
  6 31  1  0  0  0  0
  6 32  1  0  0  0  0
  7  8  1  0  0  0  0
  7 33  1  0  0  0  0
  7 34  1  0  0  0  0
  8  9  1  0  0  0  0
  8 35  1  0  0  0  0
  8 36  1  0  0  0  0
  9 37  1  0  0  0  0
  9 38  1  0  0  0  0
 10 11  2  0  0  0  0
 10 24  1  0  0  0  0
 10 39  1  0  0  0  0
 11 12  1  0  0  0  0
 11 40  1  0  0  0  0
 12 13  2  0  0  0  0
 12 41  1  0  0  0  0
 13 23  1  0  0  0  0
 13 42  1  0  0  0  0
 14 15  1  0  0  0  0
 15 16  1  0  0  0  0
 15 17  2  0  0  0  0
 17 18  1  0  0  0  0
 17 20  1  0  0  0  0
 18 43  1  0  0  0  0
 19 20  1  0  0  0  0
 20 21  2  0  0  0  0
 22 23  1  0  0  0  0
 22 44  1  0  0  0  0
 23 24  2  0  0  0  0
 24 45  1  0  0  0  0
M  END
>  <DRUGBANK_ID>
DB06948

>  <COMMON_NAME>
2-ANILINO-6-CYCLOHEXYLMETHOXYPURINE

$$$$
