
 OpenBabel10282417203D

160163  0  0  1  0  0  0  0  0999 V2000
    6.8822    7.6049   -4.3356 C   0  0  0  0  0  0  0  0  0  0  0  0
    6.0861    6.9463   -3.3563 O   0  0  0  0  0  0  0  0  0  0  0  0
    4.7994    6.8298   -3.7933 C   0  0  0  0  0  0  0  0  0  0  0  0
    4.6230    5.7770   -4.7059 C   0  0  0  0  0  0  0  0  0  0  0  0
    3.3615    5.2364   -4.9994 C   0  0  0  0  0  0  0  0  0  0  0  0
    2.2710    5.6750   -4.2760 C   0  0  0  0  0  0  0  0  0  0  0  0
    2.6178    6.5815   -3.2789 C   0  0  0  0  0  0  0  0  0  0  0  0
    3.7152    7.4248   -3.1963 C   0  0  0  0  0  0  0  0  0  0  0  0
    3.4648    8.8468   -2.6481 C   0  0  0  0  0  0  0  0  0  0  0  0
    2.4273    9.4938   -2.8214 O   0  0  0  0  0  0  0  0  0  0  0  0
    4.3534    9.6408   -2.0150 N   0  0  0  0  0  0  0  0  0  0  0  0
    5.7388    9.6068   -2.2504 C   0  0  1  0  0  0  0  0  0  0  0  0
    6.1400   10.4530   -3.4979 C   0  0  0  0  0  0  0  0  0  0  0  0
    6.4950   11.8455   -3.1433 C   0  0  0  0  0  0  0  0  0  0  0  0
    7.7124   11.7718   -2.2562 C   0  0  0  0  0  0  0  0  0  0  0  0
    9.0165   11.1139   -2.5636 C   0  0  0  0  0  0  0  0  0  0  0  0
    9.5770   12.0891   -3.4405 N   0  0  0  0  0  0  0  0  0  0  0  0
    6.5648    9.2622   -0.9430 C   0  0  0  0  0  0  0  0  0  0  0  0
    7.2762    8.2465   -0.9365 O   0  0  0  0  0  0  0  0  0  0  0  0
    6.6809   10.1548    0.1446 N   0  0  0  0  0  0  0  0  0  0  0  0
    6.0830   11.4584    0.2026 C   0  0  0  0  0  0  0  0  0  0  0  0
    4.7318   11.5529   -0.0386 C   0  0  0  0  0  0  0  0  0  0  0  0
    4.1760   12.6681   -0.6502 C   0  0  0  0  0  0  0  0  0  0  0  0
    4.9366   13.7921   -0.8934 C   0  0  0  0  0  0  0  0  0  0  0  0
    6.2322   13.8476   -0.3222 C   0  0  0  0  0  0  0  0  0  0  0  0
    6.8147   12.6551    0.2226 C   0  0  0  0  0  0  0  0  0  0  0  0
    7.0581   15.0669   -0.0645 C   0  0  0  0  0  0  0  0  0  0  0  0
    8.2661   15.0124    0.1073 O   0  0  0  0  0  0  0  0  0  0  0  0
    6.4261   16.2160    0.3125 N   0  0  0  0  0  0  0  0  0  0  0  0
    5.1506   16.7515   -0.0781 C   0  0  1  0  0  0  0  0  0  0  0  0
    4.1383   16.8686    1.0982 C   0  0  0  0  0  0  0  0  0  0  0  0
    4.2105   18.2084    1.7225 C   0  0  0  0  0  0  0  0  0  0  0  0
    3.7196   19.2130    0.7101 C   0  0  0  0  0  0  0  0  0  0  0  0
    2.3761   19.2822    0.0795 C   0  0  0  0  0  0  0  0  0  0  0  0
    1.6199   19.7710    1.1857 N   0  0  0  0  0  0  0  0  0  0  0  0
    5.1858   17.7063   -1.4627 C   0  0  0  0  0  0  0  0  0  0  0  0
    4.4982   17.4179   -2.4542 O   0  0  0  0  0  0  0  0  0  0  0  0
    5.7553   19.0135   -1.4850 N   0  0  0  0  0  0  0  0  0  0  0  0
    6.4417   19.5980   -0.3824 C   0  0  0  0  0  0  0  0  0  0  0  0
    7.4305   18.8174    0.1524 C   0  0  0  0  0  0  0  0  0  0  0  0
    7.7141   18.8516    1.5041 C   0  0  0  0  0  0  0  0  0  0  0  0
    7.0988   19.7668    2.3306 C   0  0  0  0  0  0  0  0  0  0  0  0
    6.3692   20.8227    1.7316 C   0  0  0  0  0  0  0  0  0  0  0  0
    6.0455   20.7380    0.3360 C   0  0  0  0  0  0  0  0  0  0  0  0
    5.9804   22.1213    2.3701 C   0  0  0  0  0  0  0  0  0  0  0  0
    5.0775   22.8204    1.9258 O   0  0  0  0  0  0  0  0  0  0  0  0
    6.8322   22.7079    3.2623 N   0  0  0  0  0  0  0  0  0  0  0  0
    7.7183   22.1131    4.2285 C   0  0  1  0  0  0  0  0  0  0  0  0
    9.2161   22.3881    3.9423 C   0  0  0  0  0  0  0  0  0  0  0  0
    9.6794   23.6191    4.6300 C   0  0  0  0  0  0  0  0  0  0  0  0
    9.6585   23.3575    6.1152 C   0  0  0  0  0  0  0  0  0  0  0  0
   10.3660   22.2724    6.8557 C   0  0  0  0  0  0  0  0  0  0  0  0
   11.6958   22.7872    6.8399 N   0  0  0  0  0  0  0  0  0  0  0  0
    7.0452   21.8317    5.7191 C   0  0  0  0  0  0  0  0  0  0  0  0
    7.0015   20.6843    6.1908 O   0  0  0  0  0  0  0  0  0  0  0  0
    6.7248   22.8657    6.6336 N   0  0  0  0  0  0  0  0  0  0  0  0
    6.8945   24.2658    6.3939 C   0  0  0  0  0  0  0  0  0  0  0  0
    6.4025   24.7399    5.2033 C   0  0  0  0  0  0  0  0  0  0  0  0
    6.8995   25.8947    4.6039 C   0  0  0  0  0  0  0  0  0  0  0  0
    7.7575   26.7433    5.2932 C   0  0  0  0  0  0  0  0  0  0  0  0
    8.1248   26.3875    6.6104 C   0  0  0  0  0  0  0  0  0  0  0  0
    7.7029   25.1339    7.1565 C   0  0  0  0  0  0  0  0  0  0  0  0
    8.9246   27.3089    7.4616 C   0  0  0  0  0  0  0  0  0  0  0  0
    9.4742   26.9103    8.5304 O   0  0  0  0  0  0  0  0  0  0  0  0
    8.9667   28.6166    7.1239 N   0  0  0  0  0  0  0  0  0  0  0  0
    8.2481   27.9005    4.7415 O   0  0  0  0  0  0  0  0  0  0  0  0
    7.6839   28.3251    3.5012 C   0  0  0  0  0  0  0  0  0  0  0  0
    7.1051   19.4457    3.6794 O   0  0  0  0  0  0  0  0  0  0  0  0
    8.4019   19.0220    4.1985 C   0  0  0  0  0  0  0  0  0  0  0  0
    4.4053   14.6975   -1.7995 O   0  0  0  0  0  0  0  0  0  0  0  0
    2.9968   15.0287   -1.5869 C   0  0  0  0  0  0  0  0  0  0  0  0
    0.9438    5.1555   -4.4443 N   0  0  0  0  0  0  0  0  0  0  0  0
   -0.3402    5.4362   -3.9636 C   0  0  0  0  0  0  0  0  0  0  0  0
   -1.2478    4.7300   -4.4411 O   0  0  0  0  0  0  0  0  0  0  0  0
   -0.7897    6.5134   -2.8780 C   0  0  2  0  0  0  0  0  0  0  0  0
    0.3739    7.2665   -2.4129 C   0  0  0  0  0  0  0  0  0  0  0  0
    0.5728    8.3534   -1.4208 C   0  0  0  0  0  0  0  0  0  0  0  0
    0.1747    8.1025   -0.0099 C   0  0  0  0  0  0  0  0  0  0  0  0
    1.0249    6.9878    0.6455 C   0  0  0  0  0  0  0  0  0  0  0  0
    2.4504    7.3098    0.8190 N   0  0  0  0  0  0  0  0  0  0  0  0
   -1.3424    5.8633   -1.6759 N   0  0  0  0  0  0  0  0  0  0  0  0
    7.6735    8.1343   -3.7948 H   0  0  0  0  0  0  0  0  0  0  0  0
    6.2899    8.3268   -4.9160 H   0  0  0  0  0  0  0  0  0  0  0  0
    7.3314    6.8792   -4.9986 H   0  0  0  0  0  0  0  0  0  0  0  0
    5.5230    5.3705   -5.1523 H   0  0  0  0  0  0  0  0  0  0  0  0
    3.3224    4.4084   -5.6961 H   0  0  0  0  0  0  0  0  0  0  0  0
    2.4877    6.0818   -2.3028 H   0  0  0  0  0  0  0  0  0  0  0  0
    3.9431   10.5637   -1.9641 H   0  0  0  0  0  0  0  0  0  0  0  0
    5.7673    8.6876   -2.7255 H   0  0  0  0  0  0  0  0  0  0  0  0
    7.0170   10.0653   -4.0145 H   0  0  0  0  0  0  0  0  0  0  0  0
    5.3344   10.4586   -4.2497 H   0  0  0  0  0  0  0  0  0  0  0  0
    6.6465   12.5181   -3.9851 H   0  0  0  0  0  0  0  0  0  0  0  0
    5.6095   12.2180   -2.6400 H   0  0  0  0  0  0  0  0  0  0  0  0
    7.9014   12.7549   -1.8527 H   0  0  0  0  0  0  0  0  0  0  0  0
    7.4581   11.1104   -1.4899 H   0  0  0  0  0  0  0  0  0  0  0  0
    9.5681   11.0076   -1.6133 H   0  0  0  0  0  0  0  0  0  0  0  0
    8.9140   10.1000   -2.9694 H   0  0  0  0  0  0  0  0  0  0  0  0
   10.4304   11.7633   -3.8583 H   0  0  0  0  0  0  0  0  0  0  0  0
    8.8884   12.3106   -4.1563 H   0  0  0  0  0  0  0  0  0  0  0  0
    7.6111   10.0357    0.5387 H   0  0  0  0  0  0  0  0  0  0  0  0
    4.1256   10.6643    0.0618 H   0  0  0  0  0  0  0  0  0  0  0  0
    3.1761   12.5945   -1.0619 H   0  0  0  0  0  0  0  0  0  0  0  0
    7.9012   12.6606    0.3827 H   0  0  0  0  0  0  0  0  0  0  0  0
    6.9779   16.7387    0.9623 H   0  0  0  0  0  0  0  0  0  0  0  0
    4.6768   15.8788   -0.3788 H   0  0  0  0  0  0  0  0  0  0  0  0
    3.1071   16.7020    0.7635 H   0  0  0  0  0  0  0  0  0  0  0  0
    4.3317   16.0915    1.8528 H   0  0  0  0  0  0  0  0  0  0  0  0
    3.7246   18.3183    2.6886 H   0  0  0  0  0  0  0  0  0  0  0  0
    5.2673   18.3080    1.9363 H   0  0  0  0  0  0  0  0  0  0  0  0
    3.9646   20.2041    1.0537 H   0  0  0  0  0  0  0  0  0  0  0  0
    4.2239   18.9965   -0.1766 H   0  0  0  0  0  0  0  0  0  0  0  0
    2.4496   20.0033   -0.7537 H   0  0  0  0  0  0  0  0  0  0  0  0
    2.0603   18.3276   -0.3570 H   0  0  0  0  0  0  0  0  0  0  0  0
    0.6352   19.7649    0.9909 H   0  0  0  0  0  0  0  0  0  0  0  0
    1.8257   19.1950    1.9995 H   0  0  0  0  0  0  0  0  0  0  0  0
    5.1798   19.6101   -2.0792 H   0  0  0  0  0  0  0  0  0  0  0  0
    7.8074   18.0006   -0.4492 H   0  0  0  0  0  0  0  0  0  0  0  0
    8.2830   18.0338    1.9291 H   0  0  0  0  0  0  0  0  0  0  0  0
    5.2828   21.4336   -0.0384 H   0  0  0  0  0  0  0  0  0  0  0  0
    6.8050   23.7087    3.1942 H   0  0  0  0  0  0  0  0  0  0  0  0
    7.8223   21.1634    3.8220 H   0  0  0  0  0  0  0  0  0  0  0  0
    9.8451   21.5471    4.2640 H   0  0  0  0  0  0  0  0  0  0  0  0
    9.3894   22.4755    2.8595 H   0  0  0  0  0  0  0  0  0  0  0  0
   10.6471   23.9891    4.3014 H   0  0  0  0  0  0  0  0  0  0  0  0
    8.9628   24.3880    4.3377 H   0  0  0  0  0  0  0  0  0  0  0  0
    9.8123   24.2987    6.6234 H   0  0  0  0  0  0  0  0  0  0  0  0
    8.7066   22.9838    6.3178 H   0  0  0  0  0  0  0  0  0  0  0  0
    9.9292   22.2179    7.8686 H   0  0  0  0  0  0  0  0  0  0  0  0
   10.2250   21.2799    6.4094 H   0  0  0  0  0  0  0  0  0  0  0  0
   12.3532   22.1166    7.1982 H   0  0  0  0  0  0  0  0  0  0  0  0
   11.9305   23.0400    5.8832 H   0  0  0  0  0  0  0  0  0  0  0  0
    6.8800   22.5172    7.5795 H   0  0  0  0  0  0  0  0  0  0  0  0
    5.6844   24.1181    4.6853 H   0  0  0  0  0  0  0  0  0  0  0  0
    6.6212   26.0685    3.5707 H   0  0  0  0  0  0  0  0  0  0  0  0
    8.2103   24.7979    8.0687 H   0  0  0  0  0  0  0  0  0  0  0  0
    8.5701   28.9304    6.2387 H   0  0  0  0  0  0  0  0  0  0  0  0
    9.3481   29.3061    7.7548 H   0  0  0  0  0  0  0  0  0  0  0  0
    8.0700   27.7126    2.6801 H   0  0  0  0  0  0  0  0  0  0  0  0
    6.5890   28.3077    3.5302 H   0  0  0  0  0  0  0  0  0  0  0  0
    7.9860   29.3615    3.3236 H   0  0  0  0  0  0  0  0  0  0  0  0
    8.3385   17.9767    4.4893 H   0  0  0  0  0  0  0  0  0  0  0  0
    9.2263   19.2058    3.4973 H   0  0  0  0  0  0  0  0  0  0  0  0
    8.6847   19.5917    5.0933 H   0  0  0  0  0  0  0  0  0  0  0  0
    2.4167   14.6462   -2.4221 H   0  0  0  0  0  0  0  0  0  0  0  0
    2.6116   14.6761   -0.6210 H   0  0  0  0  0  0  0  0  0  0  0  0
    2.8358   16.1158   -1.5541 H   0  0  0  0  0  0  0  0  0  0  0  0
    0.8694    4.4372   -5.1611 H   0  0  0  0  0  0  0  0  0  0  0  0
   -1.4944    7.2217   -3.3200 H   0  0  0  0  0  0  0  0  0  0  0  0
    0.8960    6.4527   -1.9259 H   0  0  0  0  0  0  0  0  0  0  0  0
    0.7843    7.6752   -3.3391 H   0  0  0  0  0  0  0  0  0  0  0  0
    1.6492    8.3757   -1.2986 H   0  0  0  0  0  0  0  0  0  0  0  0
    0.2606    9.3090   -1.8432 H   0  0  0  0  0  0  0  0  0  0  0  0
    0.3298    9.0465    0.5215 H   0  0  0  0  0  0  0  0  0  0  0  0
   -0.8885    7.8686   -0.0103 H   0  0  0  0  0  0  0  0  0  0  0  0
    0.5941    6.7861    1.6252 H   0  0  0  0  0  0  0  0  0  0  0  0
    0.9741    6.0509    0.0811 H   0  0  0  0  0  0  0  0  0  0  0  0
    2.9258    6.5134    1.2447 H   0  0  0  0  0  0  0  0  0  0  0  0
    2.9180    7.4387   -0.0784 H   0  0  0  0  0  0  0  0  0  0  0  0
   -2.2261    5.4202   -1.8951 H   0  0  0  0  0  0  0  0  0  0  0  0
   -0.7007    5.1354   -1.3593 H   0  0  0  0  0  0  0  0  0  0  0  0
  1  2  1  0  0  0  0
  1 82  1  0  0  0  0
  1 83  1  0  0  0  0
  1 84  1  0  0  0  0
  2  3  1  0  0  0  0
  3  4  2  0  0  0  0
  3  8  1  0  0  0  0
  4  5  1  0  0  0  0
  4 85  1  0  0  0  0
  5  6  2  0  0  0  0
  5 86  1  0  0  0  0
  6  7  1  0  0  0  0
  6 72  1  0  0  0  0
  7  8  2  0  0  0  0
  7 87  1  0  0  0  0
  8  9  1  0  0  0  0
  9 10  2  0  0  0  0
  9 11  1  0  0  0  0
 11 88  1  0  0  0  0
 12 11  1  0  0  0  0
 12 13  1  0  0  0  0
 12 18  1  0  0  0  0
 12 89  1  6  0  0  0
 13 14  1  0  0  0  0
 13 90  1  0  0  0  0
 13 91  1  0  0  0  0
 14 15  1  0  0  0  0
 14 92  1  0  0  0  0
 14 93  1  0  0  0  0
 15 16  1  0  0  0  0
 15 94  1  0  0  0  0
 15 95  1  0  0  0  0
 16 17  1  0  0  0  0
 16 96  1  0  0  0  0
 16 97  1  0  0  0  0
 17 98  1  0  0  0  0
 17 99  1  0  0  0  0
 18 19  2  0  0  0  0
 18 20  1  0  0  0  0
 20 21  1  0  0  0  0
 20100  1  0  0  0  0
 21 22  2  0  0  0  0
 21 26  1  0  0  0  0
 22 23  1  0  0  0  0
 22101  1  0  0  0  0
 23 24  2  0  0  0  0
 23102  1  0  0  0  0
 24 25  1  0  0  0  0
 24 70  1  0  0  0  0
 25 26  2  0  0  0  0
 25 27  1  0  0  0  0
 26103  1  0  0  0  0
 27 28  2  0  0  0  0
 27 29  1  0  0  0  0
 29104  1  0  0  0  0
 30 29  1  0  0  0  0
 30 31  1  0  0  0  0
 30 36  1  0  0  0  0
 30105  1  6  0  0  0
 31 32  1  0  0  0  0
 31106  1  0  0  0  0
 31107  1  0  0  0  0
 32 33  1  0  0  0  0
 32108  1  0  0  0  0
 32109  1  0  0  0  0
 33 34  1  0  0  0  0
 33110  1  0  0  0  0
 33111  1  0  0  0  0
 34 35  1  0  0  0  0
 34112  1  0  0  0  0
 34113  1  0  0  0  0
 35114  1  0  0  0  0
 35115  1  0  0  0  0
 36 37  2  0  0  0  0
 36 38  1  0  0  0  0
 38 39  1  0  0  0  0
 38116  1  0  0  0  0
 39 40  2  0  0  0  0
 39 44  1  0  0  0  0
 40 41  1  0  0  0  0
 40117  1  0  0  0  0
 41 42  2  0  0  0  0
 41118  1  0  0  0  0
 42 43  1  0  0  0  0
 42 68  1  0  0  0  0
 43 44  2  0  0  0  0
 43 45  1  0  0  0  0
 44119  1  0  0  0  0
 45 46  2  0  0  0  0
 45 47  1  0  0  0  0
 47120  1  0  0  0  0
 48 47  1  0  0  0  0
 48 49  1  0  0  0  0
 48 54  1  0  0  0  0
 48121  1  6  0  0  0
 49 50  1  0  0  0  0
 49122  1  0  0  0  0
 49123  1  0  0  0  0
 50 51  1  0  0  0  0
 50124  1  0  0  0  0
 50125  1  0  0  0  0
 51 52  1  0  0  0  0
 51126  1  0  0  0  0
 51127  1  0  0  0  0
 52 53  1  0  0  0  0
 52128  1  0  0  0  0
 52129  1  0  0  0  0
 53130  1  0  0  0  0
 53131  1  0  0  0  0
 54 55  2  0  0  0  0
 54 56  1  0  0  0  0
 56 57  1  0  0  0  0
 56132  1  0  0  0  0
 57 58  2  0  0  0  0
 57 62  1  0  0  0  0
 58 59  1  0  0  0  0
 58133  1  0  0  0  0
 59 60  2  0  0  0  0
 59134  1  0  0  0  0
 60 61  1  0  0  0  0
 60 66  1  0  0  0  0
 61 62  2  0  0  0  0
 61 63  1  0  0  0  0
 62135  1  0  0  0  0
 63 64  2  0  0  0  0
 63 65  1  0  0  0  0
 65136  1  0  0  0  0
 65137  1  0  0  0  0
 66 67  1  0  0  0  0
 67138  1  0  0  0  0
 67139  1  0  0  0  0
 67140  1  0  0  0  0
 68 69  1  0  0  0  0
 69141  1  0  0  0  0
 69142  1  0  0  0  0
 69143  1  0  0  0  0
 70 71  1  0  0  0  0
 71144  1  0  0  0  0
 71145  1  0  0  0  0
 71146  1  0  0  0  0
 72 73  1  0  0  0  0
 72147  1  0  0  0  0
 73 74  2  0  0  0  0
 75 81  1  0  0  0  0
 75148  1  6  0  0  0
 75 76  1  0  0  0  0
 75 73  1  0  0  0  0
 76 77  1  0  0  0  0
 76149  1  0  0  0  0
 76150  1  0  0  0  0
 77 78  1  0  0  0  0
 77151  1  0  0  0  0
 77152  1  0  0  0  0
 78 79  1  0  0  0  0
 78153  1  0  0  0  0
 78154  1  0  0  0  0
 79 80  1  0  0  0  0
 79155  1  0  0  0  0
 79156  1  0  0  0  0
 80157  1  0  0  0  0
 80158  1  0  0  0  0
 81159  1  0  0  0  0
 81160  1  0  0  0  0
M  END
>  <DRUGBANK_ID>
DB12955

>  <COMMON_NAME>
Delparantag

>  <CAS_NUMBER>
872454-31-4

>  <UNII>
FSY46235ZO

>  <SYNONYMS>
Delparantag

$$$$
