
 OpenBabel10282417123D

 69 73  0  0  0  0  0  0  0  0999 V2000
    1.1049   -0.5476    0.3454 C   0  0  0  0  0  0  0  0  0  0  0  0
    0.8284   -1.9588   -0.2097 C   0  0  0  0  0  0  0  0  0  0  0  0
    1.0942   -2.8143    1.0156 C   0  0  0  0  0  0  0  0  0  0  0  0
    0.5576   -2.2783    2.3420 N   0  0  0  0  0  0  0  0  0  0  0  0
    0.4890   -0.8917    2.8778 C   0  0  0  0  0  0  0  0  0  0  0  0
    0.0227   -0.9203    4.1045 N   0  0  0  0  0  0  0  0  0  0  0  0
   -0.2805   -2.2238    4.3977 C   0  0  0  0  0  0  0  0  0  0  0  0
   -0.8001   -2.4571    5.7438 C   0  0  0  0  0  0  0  0  0  0  0  0
   -1.9271   -1.7464    6.2074 C   0  0  0  0  0  0  0  0  0  0  0  0
   -2.4252   -1.9382    7.5074 C   0  0  0  0  0  0  0  0  0  0  0  0
   -1.7695   -2.8042    8.3803 C   0  0  0  0  0  0  0  0  0  0  0  0
   -2.4833   -3.1020    9.9281 Cl  0  0  0  0  0  0  0  0  0  0  0  0
   -0.5784   -3.4129    7.9703 C   0  0  0  0  0  0  0  0  0  0  0  0
    0.3364   -4.4301    9.0279 Cl  0  0  0  0  0  0  0  0  0  0  0  0
   -0.0903   -3.2262    6.6662 C   0  0  0  0  0  0  0  0  0  0  0  0
    0.0303   -3.1181    3.3551 C   0  0  0  0  0  0  0  0  0  0  0  0
   -0.1012   -4.6010    3.2494 C   0  0  0  0  0  0  0  0  0  0  0  0
    0.9596   -5.4358    2.9867 C   0  0  0  0  0  0  0  0  0  0  0  0
    0.6928   -6.7915    2.9967 C   0  0  0  0  0  0  0  0  0  0  0  0
   -0.5194   -7.3226    3.2352 N   0  0  0  0  0  0  0  0  0  0  0  0
   -1.5063   -6.4546    3.4608 C   0  0  0  0  0  0  0  0  0  0  0  0
   -2.7504   -6.9965    3.6865 N   0  0  0  0  0  0  0  0  0  0  0  0
   -3.9129   -6.1881    3.9982 C   0  0  0  0  0  0  0  0  0  0  0  0
   -4.2756   -5.3007    2.7993 C   0  0  0  0  0  0  0  0  0  0  0  0
   -5.4022   -4.3324    3.1201 C   0  0  0  0  0  0  0  0  0  0  0  0
   -5.0839   -3.5067    4.3615 C   0  0  0  0  0  0  0  0  0  0  0  0
   -4.8191   -4.4037    5.5658 C   0  0  0  0  0  0  0  0  0  0  0  0
   -3.6960   -5.3901    5.2910 C   0  0  0  0  0  0  0  0  0  0  0  0
   -1.3257   -5.1108    3.4662 N   0  0  0  0  0  0  0  0  0  0  0  0
    0.8247    0.6807    2.1222 C   0  0  0  0  0  0  0  0  0  0  0  0
   -0.5179    0.8910    0.7384 C   0  0  0  0  0  0  0  0  0  0  0  0
   -0.0606    0.2174   -1.0662 C   0  0  0  0  0  0  0  0  0  0  0  0
    1.7778   -0.0112   -1.5388 N   0  0  0  0  0  0  0  0  0  0  0  0
    3.1238   -0.1874   -0.1451 C   0  0  0  0  0  0  0  0  0  0  0  0
    2.6708    0.7106    1.5519 C   0  0  0  0  0  0  0  0  0  0  0  0
    1.4935   -0.8151    1.2961 H   0  0  0  0  0  0  0  0  0  0  0  0
    0.9991    0.7021    0.0911 H   0  0  0  0  0  0  0  0  0  0  0  0
    1.6865    0.5353    0.1205 H   0  0  0  0  0  0  0  0  0  0  0  0
   -0.2085   -2.2406   -0.4326 H   0  0  0  0  0  0  0  0  0  0  0  0
    1.2743   -2.2909   -1.1725 H   0  0  0  0  0  0  0  0  0  0  0  0
    0.6239   -3.7682    0.7831 H   0  0  0  0  0  0  0  0  0  0  0  0
    2.1788   -2.9527    1.1040 H   0  0  0  0  0  0  0  0  0  0  0  0
   -2.4293   -1.0263    5.5611 H   0  0  0  0  0  0  0  0  0  0  0  0
   -3.3320   -1.4264    7.8256 H   0  0  0  0  0  0  0  0  0  0  0  0
    0.8640   -3.6595    6.3843 H   0  0  0  0  0  0  0  0  0  0  0  0
    1.9580   -5.0688    2.8101 H   0  0  0  0  0  0  0  0  0  0  0  0
    1.4788   -7.5202    2.8163 H   0  0  0  0  0  0  0  0  0  0  0  0
   -2.7931   -8.0040    3.7532 H   0  0  0  0  0  0  0  0  0  0  0  0
   -4.7647   -6.8648    4.1688 H   0  0  0  0  0  0  0  0  0  0  0  0
   -3.4169   -4.7039    2.4799 H   0  0  0  0  0  0  0  0  0  0  0  0
   -4.5410   -5.9241    1.9367 H   0  0  0  0  0  0  0  0  0  0  0  0
   -5.5550   -3.6663    2.2643 H   0  0  0  0  0  0  0  0  0  0  0  0
   -6.3321   -4.8902    3.2748 H   0  0  0  0  0  0  0  0  0  0  0  0
   -4.2067   -2.8753    4.1682 H   0  0  0  0  0  0  0  0  0  0  0  0
   -5.9201   -2.8355    4.5812 H   0  0  0  0  0  0  0  0  0  0  0  0
   -4.5479   -3.7872    6.4287 H   0  0  0  0  0  0  0  0  0  0  0  0
   -5.7303   -4.9507    5.8289 H   0  0  0  0  0  0  0  0  0  0  0  0
   -3.5689   -6.0728    6.1392 H   0  0  0  0  0  0  0  0  0  0  0  0
   -2.7731   -4.8096    5.2402 H   0  0  0  0  0  0  0  0  0  0  0  0
    0.6978    1.4324    2.9183 H   0  0  0  0  0  0  0  0  0  0  0  0
   -1.3917    0.3693    1.1531 H   0  0  0  0  0  0  0  0  0  0  0  0
   -0.6131    1.9614    0.5927 H   0  0  0  0  0  0  0  0  0  0  0  0
   -0.6122   -0.6625   -0.6185 H   0  0  0  0  0  0  0  0  0  0  0  0
   -0.7561   -0.0332   -1.9237 H   0  0  0  0  0  0  0  0  0  0  0  0
    1.9216   -0.9106   -2.0548 H   0  0  0  0  0  0  0  0  0  0  0  0
    4.0993    0.1174   -0.4925 H   0  0  0  0  0  0  0  0  0  0  0  0
    3.1938   -1.2628    0.1784 H   0  0  0  0  0  0  0  0  0  0  0  0
    2.8232    1.7681    1.3314 H   0  0  0  0  0  0  0  0  0  0  0  0
    3.3215    0.3887    2.3807 H   0  0  0  0  0  0  0  0  0  0  0  0
  1  2  1  0  0  0  0
  1 36  1  0  0  0  0
  1 37  1  0  0  0  0
  1 38  1  0  0  0  0
  2  3  1  0  0  0  0
  2 39  1  0  0  0  0
  2 40  1  0  0  0  0
  3  4  1  0  0  0  0
  3 41  1  0  0  0  0
  3 42  1  0  0  0  0
  4  5  1  0  0  0  0
  4 16  1  0  0  0  0
  5  6  2  0  0  0  0
  5 30  1  0  0  0  0
  6  7  1  0  0  0  0
  7  8  1  0  0  0  0
  7 16  2  0  0  0  0
  8  9  2  0  0  0  0
  8 15  1  0  0  0  0
  9 10  1  0  0  0  0
  9 43  1  0  0  0  0
 10 11  2  0  0  0  0
 10 44  1  0  0  0  0
 11 12  1  0  0  0  0
 11 13  1  0  0  0  0
 13 14  1  0  0  0  0
 13 15  2  0  0  0  0
 15 45  1  0  0  0  0
 16 17  1  0  0  0  0
 17 18  2  0  0  0  0
 17 29  1  0  0  0  0
 18 19  1  0  0  0  0
 18 46  1  0  0  0  0
 19 20  2  0  0  0  0
 19 47  1  0  0  0  0
 20 21  1  0  0  0  0
 21 22  1  0  0  0  0
 21 29  2  0  0  0  0
 22 23  1  0  0  0  0
 22 48  1  0  0  0  0
 23 24  1  0  0  0  0
 23 28  1  0  0  0  0
 23 49  1  0  0  0  0
 24 25  1  0  0  0  0
 24 50  1  0  0  0  0
 24 51  1  0  0  0  0
 25 26  1  0  0  0  0
 25 52  1  0  0  0  0
 25 53  1  0  0  0  0
 26 27  1  0  0  0  0
 26 54  1  0  0  0  0
 26 55  1  0  0  0  0
 27 28  1  0  0  0  0
 27 56  1  0  0  0  0
 27 57  1  0  0  0  0
 28 58  1  0  0  0  0
 28 59  1  0  0  0  0
 30 31  1  0  0  0  0
 30 35  1  0  0  0  0
 30 60  1  0  0  0  0
 31 32  1  0  0  0  0
 31 61  1  0  0  0  0
 31 62  1  0  0  0  0
 32 33  1  0  0  0  0
 32 63  1  0  0  0  0
 32 64  1  0  0  0  0
 33 34  1  0  0  0  0
 33 65  1  0  0  0  0
 34 35  1  0  0  0  0
 34 66  1  0  0  0  0
 34 67  1  0  0  0  0
 35 68  1  0  0  0  0
 35 69  1  0  0  0  0
M  END
>  <DRUGBANK_ID>
DB02388

>  <SECONDARY_ACCESSION_NUMBERS>
EXPT00330

>  <COMMON_NAME>
Cyclohexyl-{4-[5-(3,4-Dichlorophenyl)-2-Piperidin-4-Yl-3-Propyl-3h-Imidazol-4-Yl]-Pyrimidin-2-Yl}Amine

$$$$
