
 OpenBabel10282417223D

 48 50  0  0  0  0  0  0  0  0999 V2000
    0.0234   -1.2550    0.6328 N   0  0  0  0  0  0  0  0  0  0  0  0
    1.2858   -0.7087    0.3051 C   0  0  0  0  0  0  0  0  0  0  0  0
   -1.1161   -0.6984    0.0168 C   0  0  0  0  0  0  0  0  0  0  0  0
    0.0866   -2.0641    1.9316 C   0  0  0  0  0  0  0  0  0  0  0  0
    1.4134    0.6759    0.0685 C   0  0  0  0  0  0  0  0  0  0  0  0
    2.3676   -1.5645    0.0559 C   0  0  0  0  0  0  0  0  0  0  0  0
   -1.2995    0.7014   -0.0408 C   0  0  0  0  0  0  0  0  0  0  0  0
   -2.0867   -1.4491   -0.6642 C   0  0  0  0  0  0  0  0  0  0  0  0
   -0.8099   -1.6596    3.1752 C   0  0  3  0  0  0  0  0  0  0  0  0
    0.0467    1.7871    0.4145 S   0  0  0  0  0  0  0  0  0  0  0  0
    2.5970    1.1714   -0.4590 C   0  0  0  0  0  0  0  0  0  0  0  0
    3.5449   -1.0625   -0.4739 C   0  0  0  0  0  0  0  0  0  0  0  0
   -2.5139    1.2440   -0.4815 C   0  0  0  0  0  0  0  0  0  0  0  0
   -3.3525   -0.9450   -0.9516 C   0  0  0  0  0  0  0  0  0  0  0  0
   -2.2991   -1.3817    2.8287 C   0  0  0  0  0  0  0  0  0  0  0  0
   -0.6679   -2.5790    4.3912 N   0  0  0  0  0  0  0  0  0  0  0  0
    3.6542    0.3043   -0.7453 C   0  0  0  0  0  0  0  0  0  0  0  0
   -3.5774    0.4255   -0.8467 C   0  0  0  0  0  0  0  0  0  0  0  0
   -3.1320   -2.5687    2.5094 N   0  0  0  0  0  0  0  0  0  0  0  0
   -1.3583   -2.0083    5.5618 C   0  0  0  0  0  0  0  0  0  0  0  0
   -1.2072   -3.9338    4.2093 C   0  0  0  0  0  0  0  0  0  0  0  0
   -4.4700   -2.1632    2.1288 C   0  0  0  0  0  0  0  0  0  0  0  0
   -2.5556   -3.4574    1.5155 C   0  0  0  0  0  0  0  0  0  0  0  0
   -0.0109   -3.1205    1.6729 H   0  0  0  0  0  0  0  0  0  0  0  0
    1.1163   -2.0240    2.3284 H   0  0  0  0  0  0  0  0  0  0  0  0
    2.2610   -2.6380    0.2127 H   0  0  0  0  0  0  0  0  0  0  0  0
   -1.9127   -2.5035   -0.8980 H   0  0  0  0  0  0  0  0  0  0  0  0
   -0.3747   -0.7015    3.5066 H   0  0  0  0  0  0  0  0  0  0  0  0
    2.6886    2.2313   -0.6839 H   0  0  0  0  0  0  0  0  0  0  0  0
    4.3619   -1.7383   -0.7090 H   0  0  0  0  0  0  0  0  0  0  0  0
   -2.6481    2.3256   -0.5258 H   0  0  0  0  0  0  0  0  0  0  0  0
   -4.1691   -1.6187   -1.1967 H   0  0  0  0  0  0  0  0  0  0  0  0
   -2.7566   -0.8538    3.6761 H   0  0  0  0  0  0  0  0  0  0  0  0
   -2.3550   -0.6133    2.0602 H   0  0  0  0  0  0  0  0  0  0  0  0
    4.5609    0.6915   -1.1944 H   0  0  0  0  0  0  0  0  0  0  0  0
   -4.5523    0.8316   -1.0817 H   0  0  0  0  0  0  0  0  0  0  0  0
   -2.4300   -1.8478    5.3985 H   0  0  0  0  0  0  0  0  0  0  0  0
   -1.2885   -2.6827    6.4231 H   0  0  0  0  0  0  0  0  0  0  0  0
   -0.9016   -1.0593    5.8529 H   0  0  0  0  0  0  0  0  0  0  0  0
   -2.2941   -3.9610    4.0834 H   0  0  0  0  0  0  0  0  0  0  0  0
   -0.7070   -4.4471    3.3872 H   0  0  0  0  0  0  0  0  0  0  0  0
   -1.0384   -4.5706    5.0816 H   0  0  0  0  0  0  0  0  0  0  0  0
   -4.4711   -1.4178    1.3346 H   0  0  0  0  0  0  0  0  0  0  0  0
   -5.0382   -3.0330    1.7869 H   0  0  0  0  0  0  0  0  0  0  0  0
   -4.9944   -1.7465    2.9907 H   0  0  0  0  0  0  0  0  0  0  0  0
   -1.9461   -2.8774    0.8811 H   0  0  0  0  0  0  0  0  0  0  0  0
   -1.8330   -4.1900    1.8616 H   0  0  0  0  0  0  0  0  0  0  0  0
   -3.2650   -4.0078    0.8992 H   0  0  0  0  0  0  0  0  0  0  0  0
  1  2  1  0  0  0  0
  1  3  1  0  0  0  0
  1  4  1  0  0  0  0
  2  5  1  0  0  0  0
  2  6  2  0  0  0  0
  3  8  1  0  0  0  0
  3  7  2  0  0  0  0
  4  9  1  0  0  0  0
  4 24  1  0  0  0  0
  4 25  1  0  0  0  0
  5 10  1  0  0  0  0
  5 11  2  0  0  0  0
  6 12  1  0  0  0  0
  6 26  1  0  0  0  0
  7 13  1  0  0  0  0
  7 10  1  0  0  0  0
  8 14  2  0  0  0  0
  8 27  1  0  0  0  0
  9 15  1  0  0  0  0
  9 16  1  0  0  0  0
  9 28  1  0  0  0  0
 11 17  1  0  0  0  0
 11 29  1  0  0  0  0
 12 17  2  0  0  0  0
 12 30  1  0  0  0  0
 13 18  2  0  0  0  0
 13 31  1  0  0  0  0
 14 18  1  0  0  0  0
 14 32  1  0  0  0  0
 15 19  1  0  0  0  0
 15 33  1  0  0  0  0
 15 34  1  0  0  0  0
 16 20  1  0  0  0  0
 16 21  1  0  0  0  0
 17 35  1  0  0  0  0
 18 36  1  0  0  0  0
 19 22  1  0  0  0  0
 19 23  1  0  0  0  0
 20 37  1  0  0  0  0
 20 38  1  0  0  0  0
 20 39  1  0  0  0  0
 21 40  1  0  0  0  0
 21 41  1  0  0  0  0
 21 42  1  0  0  0  0
 22 43  1  0  0  0  0
 22 44  1  0  0  0  0
 22 45  1  0  0  0  0
 23 46  1  0  0  0  0
 23 47  1  0  0  0  0
 23 48  1  0  0  0  0
M  END
>  <DRUGBANK_ID>
DB15596

>  <COMMON_NAME>
Aminopromazine

>  <CAS_NUMBER>
58-37-7

>  <UNII>
S9SDD93U5U

>  <SYNONYMS>
Aminopromazina; Aminopromazine; Aminopromazinum; Proquamezine

$$$$
