NLT
 OpenBabel10282417173D

 59 59  0  0  0  0  0  0  0  0999 V2000
    0.8763   -0.1048    0.0905 N   0  0  0  0  0  0  0  0  0  0  0  0
    0.1773   -0.6649   -0.9475 C   0  0  0  0  0  0  0  0  0  0  0  0
   -1.0485   -0.6215   -1.0003 O   0  0  0  0  0  0  0  0  0  0  0  0
    0.9944   -1.3587   -2.0268 C   0  0  0  0  0  0  0  0  0  0  0  0
    1.8769   -0.3841   -2.8093 C   0  0  0  0  0  0  0  0  0  0  0  0
    2.9718    0.2433   -1.9473 C   0  0  0  0  0  0  0  0  0  0  0  0
    3.8278   -0.8465   -1.2833 C   0  0  0  0  0  0  0  0  0  0  0  0
    4.5947   -1.6161   -2.3591 C   0  0  0  0  0  0  0  0  0  0  0  0
    5.4985   -0.6528   -3.1319 C   0  0  0  0  0  0  0  0  0  0  0  0
    6.4882    0.0179   -2.1729 C   0  0  0  0  0  0  0  0  0  0  0  0
    7.3773   -1.0394   -1.5097 C   0  0  0  0  0  0  0  0  0  0  0  0
    8.1853   -1.8053   -2.5633 C   0  0  0  0  0  0  0  0  0  0  0  0
    9.0685   -0.8630   -3.3827 C   0  0  0  0  0  0  0  0  0  0  0  0
   10.0547   -0.1405   -2.4795 C   0  0  0  0  0  0  0  0  0  0  0  0
    0.2809    0.7653    1.1005 C   0  0  1  0  0  0  0  0  0  0  0  0
    0.7073    0.2553    2.4971 C   0  0  0  0  0  0  0  0  0  0  0  0
    2.1930    0.3485    2.7994 C   0  0  0  0  0  0  0  0  0  0  0  0
    3.0232   -0.7830    2.8344 C   0  0  0  0  0  0  0  0  0  0  0  0
    4.4087   -0.6434    3.0118 C   0  0  0  0  0  0  0  0  0  0  0  0
    4.9659    0.6284    3.1112 C   0  0  0  0  0  0  0  0  0  0  0  0
    4.1578    1.7513    3.0980 C   0  0  0  0  0  0  0  0  0  0  0  0
    2.7774    1.6047    3.0042 C   0  0  0  0  0  0  0  0  0  0  0  0
    6.3071    0.8334    3.2357 O   0  0  0  0  0  0  0  0  0  0  0  0
    0.6431    2.2492    0.8216 C   0  0  0  0  0  0  0  0  0  0  0  0
   -0.4013    3.1085    0.8195 O   0  0  0  0  0  0  0  0  0  0  0  0
    1.7768    2.6677    0.5968 O   0  0  0  0  0  0  0  0  0  0  0  0
   -0.8064    0.6777    1.0129 H   0  0  0  0  0  0  0  0  0  0  0  0
    1.8843   -0.1628    0.1421 H   0  0  0  0  0  0  0  0  0  0  0  0
    1.5614   -2.1884   -1.5897 H   0  0  0  0  0  0  0  0  0  0  0  0
    0.3012   -1.8358   -2.7281 H   0  0  0  0  0  0  0  0  0  0  0  0
    2.3326   -0.9138   -3.6567 H   0  0  0  0  0  0  0  0  0  0  0  0
    1.2689    0.4070   -3.2575 H   0  0  0  0  0  0  0  0  0  0  0  0
    3.5716    0.9310   -2.5480 H   0  0  0  0  0  0  0  0  0  0  0  0
    2.5554    0.9299   -1.2131 H   0  0  0  0  0  0  0  0  0  0  0  0
    4.4923   -0.3961   -0.5393 H   0  0  0  0  0  0  0  0  0  0  0  0
    3.2460   -1.5554   -0.6882 H   0  0  0  0  0  0  0  0  0  0  0  0
    5.1617   -2.4314   -1.8992 H   0  0  0  0  0  0  0  0  0  0  0  0
    3.9182   -2.1288   -3.0491 H   0  0  0  0  0  0  0  0  0  0  0  0
    6.0016   -1.1859   -3.9418 H   0  0  0  0  0  0  0  0  0  0  0  0
    4.9241    0.1115   -3.6624 H   0  0  0  0  0  0  0  0  0  0  0  0
    7.0717    0.7686   -2.7120 H   0  0  0  0  0  0  0  0  0  0  0  0
    5.9807    0.6056   -1.4007 H   0  0  0  0  0  0  0  0  0  0  0  0
    8.0276   -0.5643   -0.7711 H   0  0  0  0  0  0  0  0  0  0  0  0
    6.7881   -1.7463   -0.9156 H   0  0  0  0  0  0  0  0  0  0  0  0
    8.7944   -2.5705   -2.0733 H   0  0  0  0  0  0  0  0  0  0  0  0
    7.5211   -2.3592   -3.2381 H   0  0  0  0  0  0  0  0  0  0  0  0
    9.6013   -1.4328   -4.1488 H   0  0  0  0  0  0  0  0  0  0  0  0
    8.4654   -0.1296   -3.9315 H   0  0  0  0  0  0  0  0  0  0  0  0
   10.6817   -0.8696   -1.9583 H   0  0  0  0  0  0  0  0  0  0  0  0
   10.6875    0.5335   -3.0576 H   0  0  0  0  0  0  0  0  0  0  0  0
    9.5501    0.4703   -1.7237 H   0  0  0  0  0  0  0  0  0  0  0  0
    0.1532    0.7852    3.2789 H   0  0  0  0  0  0  0  0  0  0  0  0
    0.4068   -0.8006    2.5695 H   0  0  0  0  0  0  0  0  0  0  0  0
    2.6053   -1.7817    2.7218 H   0  0  0  0  0  0  0  0  0  0  0  0
    5.0340   -1.5297    3.0561 H   0  0  0  0  0  0  0  0  0  0  0  0
    4.5915    2.7456    3.1460 H   0  0  0  0  0  0  0  0  0  0  0  0
    2.1705    2.5067    3.0257 H   0  0  0  0  0  0  0  0  0  0  0  0
    6.7578   -0.0235    3.2818 H   0  0  0  0  0  0  0  0  0  0  0  0
   -1.2823    2.6930    0.7739 H   0  0  0  0  0  0  0  0  0  0  0  0
  1  2  1  0  0  0  0
  1 28  1  0  0  0  0
  2  3  2  0  0  0  0
  2  4  1  0  0  0  0
  4  5  1  0  0  0  0
  4 29  1  0  0  0  0
  4 30  1  0  0  0  0
  5  6  1  0  0  0  0
  5 31  1  0  0  0  0
  5 32  1  0  0  0  0
  6  7  1  0  0  0  0
  6 33  1  0  0  0  0
  6 34  1  0  0  0  0
  7  8  1  0  0  0  0
  7 35  1  0  0  0  0
  7 36  1  0  0  0  0
  8  9  1  0  0  0  0
  8 37  1  0  0  0  0
  8 38  1  0  0  0  0
  9 10  1  0  0  0  0
  9 39  1  0  0  0  0
  9 40  1  0  0  0  0
 10 11  1  0  0  0  0
 10 41  1  0  0  0  0
 10 42  1  0  0  0  0
 11 12  1  0  0  0  0
 11 43  1  0  0  0  0
 11 44  1  0  0  0  0
 12 13  1  0  0  0  0
 12 45  1  0  0  0  0
 12 46  1  0  0  0  0
 13 14  1  0  0  0  0
 13 47  1  0  0  0  0
 13 48  1  0  0  0  0
 14 49  1  0  0  0  0
 14 50  1  0  0  0  0
 14 51  1  0  0  0  0
 15  1  1  0  0  0  0
 15 16  1  0  0  0  0
 15 24  1  0  0  0  0
 15 27  1  6  0  0  0
 16 17  1  0  0  0  0
 16 52  1  0  0  0  0
 16 53  1  0  0  0  0
 17 18  1  0  0  0  0
 17 22  2  0  0  0  0
 18 19  2  0  0  0  0
 18 54  1  0  0  0  0
 19 20  1  0  0  0  0
 19 55  1  0  0  0  0
 20 21  2  0  0  0  0
 20 23  1  0  0  0  0
 21 22  1  0  0  0  0
 21 56  1  0  0  0  0
 22 57  1  0  0  0  0
 23 58  1  0  0  0  0
 24 25  1  0  0  0  0
 24 26  2  0  0  0  0
 25 59  1  0  0  0  0
M  END
>  <DRUGBANK_ID>
DB08275

>  <COMMON_NAME>
N-DODECANOYL-L-TYROSINE

>  <UNII>
VQH3Z7D3LC

$$$$
