
 OpenBabel10282417153D

 44 45  0  0  0  0  0  0  0  0999 V2000
    1.1028    0.0850   -0.1911 C   0  0  0  0  0  0  0  0  0  0  0  0
    2.8967   -7.9772   -4.3760 C   0  0  0  0  0  0  0  0  0  0  0  0
   -0.4566   -5.3406    4.4479 C   0  0  0  0  0  0  0  0  0  0  0  0
    0.4914   -0.9826   -1.0878 C   0  0  0  0  0  0  0  0  0  0  0  0
    0.4775   -6.9537   -1.8837 C   0  0  0  0  0  0  0  0  0  0  0  0
    0.3185   -7.9634   -0.7393 C   0  0  0  0  0  0  0  0  0  0  0  0
    1.9361   -6.8004   -2.3329 C   0  0  0  0  0  0  0  0  0  0  0  0
    0.9152   -2.3899   -0.6773 C   0  0  0  0  0  0  0  0  0  0  0  0
    1.2227   -7.6893    0.4766 C   0  0  0  0  0  0  0  0  0  0  0  0
   -0.1788   -2.1780    1.6434 C   0  0  0  0  0  0  0  0  0  0  0  0
    2.4523   -8.0566   -2.9598 C   0  0  0  0  0  0  0  0  0  0  0  0
    0.5737   -4.1233    1.1049 C   0  0  0  0  0  0  0  0  0  0  0  0
    0.0478   -4.1544    2.3515 C   0  0  0  0  0  0  0  0  0  0  0  0
    1.1747   -5.2367    0.5214 C   0  0  0  0  0  0  0  0  0  0  0  0
    0.4072   -6.5178    2.4713 C   0  0  0  0  0  0  0  0  0  0  0  0
   -0.3707   -2.9228    2.7190 N   0  0  0  0  0  0  0  0  0  0  0  0
    0.0129   -5.3210    3.0789 N   0  0  0  0  0  0  0  0  0  0  0  0
    0.4496   -2.8517    0.6297 N   0  0  0  0  0  0  0  0  0  0  0  0
    0.8727   -6.4396    1.1477 N   0  0  0  0  0  0  0  0  0  0  0  0
    2.5364   -9.1090   -2.3264 O   0  0  0  0  0  0  0  0  0  0  0  0
    1.9063   -5.0580   -0.4465 O   0  0  0  0  0  0  0  0  0  0  0  0
    0.3635   -7.5926    3.0758 O   0  0  0  0  0  0  0  0  0  0  0  0
    0.8851   -0.0462    0.8657 H   0  0  0  0  0  0  0  0  0  0  0  0
    0.7183    1.0704   -0.4580 H   0  0  0  0  0  0  0  0  0  0  0  0
    2.1926    0.0712   -0.2645 H   0  0  0  0  0  0  0  0  0  0  0  0
    3.9264   -8.3339   -4.4222 H   0  0  0  0  0  0  0  0  0  0  0  0
    2.2264   -8.5947   -4.9730 H   0  0  0  0  0  0  0  0  0  0  0  0
    2.8621   -6.9457   -4.7333 H   0  0  0  0  0  0  0  0  0  0  0  0
    0.1934   -4.7071    5.0583 H   0  0  0  0  0  0  0  0  0  0  0  0
   -1.4862   -4.9759    4.4840 H   0  0  0  0  0  0  0  0  0  0  0  0
   -0.4349   -6.3519    4.8644 H   0  0  0  0  0  0  0  0  0  0  0  0
   -0.6027   -0.9221   -1.0976 H   0  0  0  0  0  0  0  0  0  0  0  0
    0.8228   -0.7858   -2.1174 H   0  0  0  0  0  0  0  0  0  0  0  0
   -0.1410   -7.2435   -2.7394 H   0  0  0  0  0  0  0  0  0  0  0  0
    0.0441   -5.9950   -1.5697 H   0  0  0  0  0  0  0  0  0  0  0  0
    0.5307   -8.9670   -1.1210 H   0  0  0  0  0  0  0  0  0  0  0  0
   -0.7310   -7.9894   -0.4234 H   0  0  0  0  0  0  0  0  0  0  0  0
    2.0339   -5.9354   -2.9976 H   0  0  0  0  0  0  0  0  0  0  0  0
    2.6640   -6.6309   -1.5352 H   0  0  0  0  0  0  0  0  0  0  0  0
    0.5440   -3.0962   -1.4365 H   0  0  0  0  0  0  0  0  0  0  0  0
    2.0120   -2.4619   -0.6890 H   0  0  0  0  0  0  0  0  0  0  0  0
    2.2817   -7.6466    0.2072 H   0  0  0  0  0  0  0  0  0  0  0  0
    1.1314   -8.5427    1.1571 H   0  0  0  0  0  0  0  0  0  0  0  0
   -0.4936   -1.1505    1.5750 H   0  0  0  0  0  0  0  0  0  0  0  0
  1 23  1  0  0  0  0
  1 24  1  0  0  0  0
  1 25  1  0  0  0  0
  2 26  1  0  0  0  0
  2 27  1  0  0  0  0
  2 28  1  0  0  0  0
  3 29  1  0  0  0  0
  3 30  1  0  0  0  0
  3 31  1  0  0  0  0
  4  1  1  0  0  0  0
  4 32  1  0  0  0  0
  4 33  1  0  0  0  0
  5 34  1  0  0  0  0
  5 35  1  0  0  0  0
  6  5  1  0  0  0  0
  6 36  1  0  0  0  0
  6 37  1  0  0  0  0
  7  5  1  0  0  0  0
  7 38  1  0  0  0  0
  7 39  1  0  0  0  0
  8  4  1  0  0  0  0
  8 40  1  0  0  0  0
  8 41  1  0  0  0  0
  9  6  1  0  0  0  0
  9 42  1  0  0  0  0
  9 43  1  0  0  0  0
 10 44  1  0  0  0  0
 11  2  1  0  0  0  0
 11  7  1  0  0  0  0
 13 12  2  0  0  0  0
 14 12  1  0  0  0  0
 16 10  2  0  0  0  0
 16 13  1  0  0  0  0
 17  3  1  0  0  0  0
 17 13  1  0  0  0  0
 17 15  1  0  0  0  0
 18  8  1  0  0  0  0
 18 10  1  0  0  0  0
 18 12  1  0  0  0  0
 19  9  1  0  0  0  0
 19 14  1  0  0  0  0
 19 15  1  0  0  0  0
 20 11  2  0  0  0  0
 21 14  2  0  0  0  0
 22 15  2  0  0  0  0
M  END
>  <DRUGBANK_ID>
DB06479

>  <COMMON_NAME>
Propentofylline

>  <CAS_NUMBER>
55242-55-2

>  <UNII>
5RTA398U4H

>  <SYNONYMS>
Propentofylline

$$$$
