
 OpenBabel10282417193D

 36 37  0  0  0  0  0  0  0  0999 V2000
   -1.6229   -0.0027   -0.1005 C   0  0  0  0  0  0  0  0  0  0  0  0
   -0.8760    1.2244    0.4134 C   0  0  0  0  0  0  0  0  0  0  0  0
    0.5529    1.1338   -0.0622 C   0  0  0  0  0  0  0  0  0  0  0  0
    1.2456   -0.1181    0.2491 N   0  0  0  0  0  0  0  0  0  0  0  0
    0.5260   -1.2914   -0.2253 C   0  0  0  0  0  0  0  0  0  0  0  0
   -0.8959   -1.2885    0.2894 C   0  0  0  0  0  0  0  0  0  0  0  0
    2.6114   -0.1680   -0.2928 C   0  0  0  0  0  0  0  0  0  0  0  0
    2.7665   -0.0948   -1.8738 C   0  0  3  0  0  0  0  0  0  0  0  0
    2.4381    1.2624   -2.4578 C   0  0  0  0  0  0  0  0  0  0  0  0
    3.0485    2.4102   -1.7924 N   0  0  0  0  0  0  0  0  0  0  0  0
    2.4759    3.6615   -1.9895 C   0  0  0  0  0  0  0  0  0  0  0  0
    3.2432    4.5436   -1.2794 C   0  0  0  0  0  0  0  0  0  0  0  0
    4.2263    3.8958   -0.6093 N   0  0  0  0  0  0  0  0  0  0  0  0
    4.1207    2.6159   -0.9231 C   0  0  0  0  0  0  0  0  0  0  0  0
    5.1036    1.7206   -0.2986 N   0  3  0  0  0  0  0  0  0  0  0  0
    5.8208    2.1784    0.5831 O   0  0  0  0  0  0  0  0  0  0  0  0
    5.1901    0.5439   -0.6915 O   0  5  0  0  0  0  0  0  0  0  0  0
    4.0127   -0.4583   -2.4787 O   0  0  0  0  0  0  0  0  0  0  0  0
   -2.6418   -0.0048    0.2858 H   0  0  0  0  0  0  0  0  0  0  0  0
   -1.6862    0.0490   -1.1983 H   0  0  0  0  0  0  0  0  0  0  0  0
   -1.3191    2.1300   -0.0254 H   0  0  0  0  0  0  0  0  0  0  0  0
   -0.9172    1.3193    1.5003 H   0  0  0  0  0  0  0  0  0  0  0  0
    0.3983    1.1865   -1.1257 H   0  0  0  0  0  0  0  0  0  0  0  0
    1.1237    2.0151    0.2537 H   0  0  0  0  0  0  0  0  0  0  0  0
    1.0514   -2.1960    0.1047 H   0  0  0  0  0  0  0  0  0  0  0  0
    0.4899   -1.3149   -1.3182 H   0  0  0  0  0  0  0  0  0  0  0  0
   -0.8825   -1.3930    1.3783 H   0  0  0  0  0  0  0  0  0  0  0  0
   -1.4074   -2.1544   -0.1386 H   0  0  0  0  0  0  0  0  0  0  0  0
    3.0761    0.6551    0.2462 H   0  0  0  0  0  0  0  0  0  0  0  0
    3.1407   -1.0480    0.0967 H   0  0  0  0  0  0  0  0  0  0  0  0
    2.1245   -0.8644   -2.3006 H   0  0  0  0  0  0  0  0  0  0  0  0
    2.7037    1.3183   -3.5188 H   0  0  0  0  0  0  0  0  0  0  0  0
    1.3577    1.4241   -2.5227 H   0  0  0  0  0  0  0  0  0  0  0  0
    1.6037    3.8188   -2.6141 H   0  0  0  0  0  0  0  0  0  0  0  0
    3.1470    5.6165   -1.2072 H   0  0  0  0  0  0  0  0  0  0  0  0
    4.7083    0.1497   -2.1628 H   0  0  0  0  0  0  0  0  0  0  0  0
  1  2  1  0  0  0  0
  1  6  1  0  0  0  0
  1 19  1  0  0  0  0
  1 20  1  0  0  0  0
  2  3  1  0  0  0  0
  2 21  1  0  0  0  0
  2 22  1  0  0  0  0
  3  4  1  0  0  0  0
  3 23  1  0  0  0  0
  3 24  1  0  0  0  0
  4  5  1  0  0  0  0
  4  7  1  0  0  0  0
  5  6  1  0  0  0  0
  5 25  1  0  0  0  0
  5 26  1  0  0  0  0
  6 27  1  0  0  0  0
  6 28  1  0  0  0  0
  7  8  1  0  0  0  0
  7 29  1  0  0  0  0
  7 30  1  0  0  0  0
  8  9  1  0  0  0  0
  8 18  1  0  0  0  0
  8 31  1  0  0  0  0
  9 10  1  0  0  0  0
  9 32  1  0  0  0  0
  9 33  1  0  0  0  0
 10 11  1  0  0  0  0
 10 14  1  0  0  0  0
 11 12  2  0  0  0  0
 11 34  1  0  0  0  0
 12 13  1  0  0  0  0
 12 35  1  0  0  0  0
 13 14  2  0  0  0  0
 14 15  1  0  0  0  0
 15 16  2  0  0  0  0
 15 17  1  0  0  0  0
 18 36  1  0  0  0  0
M  CHG  2  15   1  17  -1
M  END
>  <DRUGBANK_ID>
DB12485

>  <COMMON_NAME>
Pimonidazole

>  <CAS_NUMBER>
70132-50-2

>  <UNII>
46JO4D76R2

>  <SYNONYMS>
Pimonidazole

$$$$
