
 OpenBabel10282417183D

 73 77  0  0  0  0  0  0  0  0999 V2000
    0.5897   -1.2536   -0.0328 C   0  0  2  0  0  0  0  0  0  0  0  0
    1.1844   -2.4893   -0.5352 N   0  0  0  0  0  0  0  0  0  0  0  0
    2.6344   -2.4995   -0.2721 C   0  0  0  0  0  0  0  0  0  0  0  0
    0.5641   -3.6182    0.1665 C   0  0  0  0  0  0  0  0  0  0  0  0
   -0.5025    0.0364    2.5678 C   0  0  0  0  0  0  0  0  0  0  0  0
    0.7590    0.6274    2.7987 C   0  0  0  0  0  0  0  0  0  0  0  0
    1.6883   -0.0331    3.6133 C   0  0  0  0  0  0  0  0  0  0  0  0
    1.3177   -1.1240    4.4024 C   0  0  0  0  0  0  0  0  0  0  0  0
    0.0061   -1.5954    4.3244 C   0  0  0  0  0  0  0  0  0  0  0  0
   -0.8667   -1.0823    3.3523 C   0  0  0  0  0  0  0  0  0  0  0  0
   -1.4462    0.5573    1.4844 C   0  0  0  0  0  0  0  0  0  0  0  0
   -1.0429    0.4508    0.0592 N   0  0  0  0  0  0  0  0  0  0  0  0
    1.1922    1.9497    2.2205 C   0  0  0  0  0  0  0  0  0  0  0  0
   -0.8794   -0.9570   -0.3514 C   0  0  0  0  0  0  0  0  0  0  0  0
    1.2684    0.0135   -0.5253 C   0  0  0  0  0  0  0  0  0  0  0  0
    0.1731    1.0817   -0.4828 C   0  0  0  0  0  0  0  0  0  0  0  0
    1.7384    2.7850    3.1412 F   0  0  0  0  0  0  0  0  0  0  0  0
    2.1569    1.8290    1.2706 F   0  0  0  0  0  0  0  0  0  0  0  0
    0.1682    2.6668    1.6928 F   0  0  0  0  0  0  0  0  0  0  0  0
    2.3801   -1.6686    5.3006 C   0  0  0  0  0  0  0  0  0  0  0  0
    2.0344   -2.7430    6.1066 N   0  0  0  0  0  0  0  0  0  0  0  0
    2.9170   -3.3024    7.0481 C   0  0  0  0  0  0  0  0  0  0  0  0
    3.7977   -2.5159    7.7798 C   0  0  0  0  0  0  0  0  0  0  0  0
    4.5924   -3.0918    8.7664 C   0  0  0  0  0  0  0  0  0  0  0  0
    4.5194   -4.4672    9.0341 C   0  0  0  0  0  0  0  0  0  0  0  0
    3.5872   -5.2639    8.3403 C   0  0  0  0  0  0  0  0  0  0  0  0
    2.8395   -4.6710    7.3053 C   0  0  0  0  0  0  0  0  0  0  0  0
    3.4710   -6.6461    8.6456 N   0  0  0  0  0  0  0  0  0  0  0  0
    2.4803   -7.4737    8.1163 C   0  0  0  0  0  0  0  0  0  0  0  0
    1.4739   -7.8891    8.9020 N   0  0  0  0  0  0  0  0  0  0  0  0
    0.5199   -8.6402    8.3148 C   0  0  0  0  0  0  0  0  0  0  0  0
    0.5595   -9.0189    6.9956 C   0  0  0  0  0  0  0  0  0  0  0  0
    1.6450   -8.5712    6.2782 C   0  0  0  0  0  0  0  0  0  0  0  0
    2.5917   -7.7961    6.8227 N   0  0  0  0  0  0  0  0  0  0  0  0
    1.8526   -8.8917    4.8790 C   0  0  0  0  0  0  0  0  0  0  0  0
    0.9053   -8.6380    3.9061 C   0  0  0  0  0  0  0  0  0  0  0  0
    1.0542   -8.9383    2.6004 N   0  0  0  0  0  0  0  0  0  0  0  0
    2.2201   -9.5158    2.2710 C   0  0  0  0  0  0  0  0  0  0  0  0
    3.2216   -9.8083    3.1136 N   0  0  0  0  0  0  0  0  0  0  0  0
    3.0159   -9.4722    4.4056 C   0  0  0  0  0  0  0  0  0  0  0  0
    5.4772   -5.0701   10.0222 C   0  0  0  0  0  0  0  0  0  0  0  0
    3.4913   -1.1800    5.2414 O   0  0  0  0  0  0  0  0  0  0  0  0
    0.7104   -1.3062    1.0488 H   0  0  0  0  0  0  0  0  0  0  0  0
    3.0837   -3.3946   -0.7061 H   0  0  0  0  0  0  0  0  0  0  0  0
    3.1456   -1.6532   -0.7458 H   0  0  0  0  0  0  0  0  0  0  0  0
    2.8672   -2.4630    0.8007 H   0  0  0  0  0  0  0  0  0  0  0  0
    0.9102   -4.5580   -0.2658 H   0  0  0  0  0  0  0  0  0  0  0  0
    0.7912   -3.6136    1.2415 H   0  0  0  0  0  0  0  0  0  0  0  0
   -0.5255   -3.5970    0.0610 H   0  0  0  0  0  0  0  0  0  0  0  0
    2.7109    0.3484    3.6519 H   0  0  0  0  0  0  0  0  0  0  0  0
   -0.3676   -2.3612    4.9961 H   0  0  0  0  0  0  0  0  0  0  0  0
   -1.8340   -1.5704    3.2201 H   0  0  0  0  0  0  0  0  0  0  0  0
   -1.7679    1.5698    1.7517 H   0  0  0  0  0  0  0  0  0  0  0  0
   -2.3885   -0.0114    1.5680 H   0  0  0  0  0  0  0  0  0  0  0  0
   -1.0520   -1.0334   -1.4323 H   0  0  0  0  0  0  0  0  0  0  0  0
   -1.5938   -1.6161    0.1467 H   0  0  0  0  0  0  0  0  0  0  0  0
    2.1336    0.1797    0.1201 H   0  0  0  0  0  0  0  0  0  0  0  0
    1.6495   -0.0702   -1.5465 H   0  0  0  0  0  0  0  0  0  0  0  0
    0.5212    2.0424   -0.1162 H   0  0  0  0  0  0  0  0  0  0  0  0
   -0.0477    1.3774   -1.5160 H   0  0  0  0  0  0  0  0  0  0  0  0
    1.1699   -3.2355    5.9593 H   0  0  0  0  0  0  0  0  0  0  0  0
    3.8582   -1.4442    7.6108 H   0  0  0  0  0  0  0  0  0  0  0  0
    5.2662   -2.4497    9.3276 H   0  0  0  0  0  0  0  0  0  0  0  0
    2.2188   -5.2836    6.6583 H   0  0  0  0  0  0  0  0  0  0  0  0
    3.5426   -6.8181    9.6397 H   0  0  0  0  0  0  0  0  0  0  0  0
   -0.3053   -8.9470    8.9529 H   0  0  0  0  0  0  0  0  0  0  0  0
   -0.2009   -9.6510    6.5572 H   0  0  0  0  0  0  0  0  0  0  0  0
   -0.0379   -8.1596    4.1560 H   0  0  0  0  0  0  0  0  0  0  0  0
    2.3649   -9.7688    1.2270 H   0  0  0  0  0  0  0  0  0  0  0  0
    3.8407   -9.7079    5.0759 H   0  0  0  0  0  0  0  0  0  0  0  0
    4.9367   -5.5479   10.8440 H   0  0  0  0  0  0  0  0  0  0  0  0
    6.1059   -5.8111    9.5165 H   0  0  0  0  0  0  0  0  0  0  0  0
    6.1417   -4.3141   10.4521 H   0  0  0  0  0  0  0  0  0  0  0  0
  1 15  1  0  0  0  0
  1 43  1  1  0  0  0
  1  2  1  0  0  0  0
  2  4  1  0  0  0  0
  2  3  1  0  0  0  0
  3 44  1  0  0  0  0
  3 45  1  0  0  0  0
  3 46  1  0  0  0  0
  4 47  1  0  0  0  0
  4 48  1  0  0  0  0
  4 49  1  0  0  0  0
  5  6  2  0  0  0  0
  5 11  1  0  0  0  0
  6  7  1  0  0  0  0
  6 13  1  0  0  0  0
  7  8  2  0  0  0  0
  7 50  1  0  0  0  0
  8  9  1  0  0  0  0
  8 20  1  0  0  0  0
  9 10  2  0  0  0  0
  9 51  1  0  0  0  0
 10  5  1  0  0  0  0
 10 52  1  0  0  0  0
 11 12  1  0  0  0  0
 11 53  1  0  0  0  0
 11 54  1  0  0  0  0
 12 14  1  0  0  0  0
 13 17  1  0  0  0  0
 13 18  1  0  0  0  0
 13 19  1  0  0  0  0
 14  1  1  0  0  0  0
 14 55  1  0  0  0  0
 14 56  1  0  0  0  0
 15 16  1  0  0  0  0
 15 57  1  0  0  0  0
 15 58  1  0  0  0  0
 16 12  1  0  0  0  0
 16 59  1  0  0  0  0
 16 60  1  0  0  0  0
 20 21  1  0  0  0  0
 20 42  2  0  0  0  0
 21 22  1  0  0  0  0
 21 61  1  0  0  0  0
 22 23  2  0  0  0  0
 23 24  1  0  0  0  0
 23 62  1  0  0  0  0
 24 25  2  0  0  0  0
 24 63  1  0  0  0  0
 25 26  1  0  0  0  0
 25 41  1  0  0  0  0
 26 27  2  0  0  0  0
 26 28  1  0  0  0  0
 27 22  1  0  0  0  0
 27 64  1  0  0  0  0
 28 29  1  0  0  0  0
 28 65  1  0  0  0  0
 29 30  2  0  0  0  0
 30 31  1  0  0  0  0
 31 32  2  0  0  0  0
 31 66  1  0  0  0  0
 32 33  1  0  0  0  0
 32 67  1  0  0  0  0
 33 34  2  0  0  0  0
 33 35  1  0  0  0  0
 34 29  1  0  0  0  0
 35 36  2  0  0  0  0
 36 37  1  0  0  0  0
 36 68  1  0  0  0  0
 37 38  2  0  0  0  0
 38 39  1  0  0  0  0
 38 69  1  0  0  0  0
 39 40  2  0  0  0  0
 40 35  1  0  0  0  0
 40 70  1  0  0  0  0
 41 71  1  0  0  0  0
 41 72  1  0  0  0  0
 41 73  1  0  0  0  0
M  END
>  <DRUGBANK_ID>
DB11851

>  <COMMON_NAME>
Bafetinib

>  <CAS_NUMBER>
859212-16-1

>  <UNII>
NVW4Z03I9B

>  <SYNONYMS>
Baf√©tinib; Bafetinib; Bafetinibum

$$$$
