
 OpenBabel10282417103D

 50 51  0  0  0  0  0  0  0  0999 V2000
   -5.3921   -2.4780   -4.5844 C   0  0  2  0  0  0  0  0  0  0  0  0
   -6.1527   -1.3172   -5.2763 C   0  0  0  0  0  0  0  0  0  0  0  0
   -5.2877   -3.5999   -5.5977 C   0  0  0  0  0  0  0  0  0  0  0  0
   -5.9190   -3.0557   -3.2667 C   0  0  0  0  0  0  0  0  0  0  0  0
   -7.2856   -1.6853   -5.9858 N   0  0  0  0  0  0  0  0  0  0  0  0
   -5.7442   -0.1609   -5.1788 O   0  0  0  0  0  0  0  0  0  0  0  0
   -4.4344   -4.7218   -5.0843 C   0  0  0  0  0  0  0  0  0  0  0  0
   -5.1249   -4.2213   -2.7293 C   0  0  0  0  0  0  0  0  0  0  0  0
   -8.4844   -0.9120   -6.4120 C   0  0  2  0  0  0  0  0  0  0  0  0
   -4.9674   -5.3159   -3.7694 C   0  0  2  0  0  0  0  0  0  0  0  0
   -9.5963   -0.7817   -5.2998 C   0  0  0  0  0  0  0  0  0  0  0  0
   -9.1097   -1.7951   -7.5269 C   0  0  0  0  0  0  0  0  0  0  0  0
   -4.0480   -6.4367   -3.2439 C   0  0  0  0  0  0  0  0  0  0  0  0
   -9.1333   -0.9052   -3.8654 C   0  0  0  0  0  0  0  0  0  0  0  0
   -9.3130   -1.2033   -8.7284 O   0  0  0  0  0  0  0  0  0  0  0  0
   -9.3669   -2.9683   -7.3583 O   0  0  0  0  0  0  0  0  0  0  0  0
   -2.5688   -6.0575   -3.3686 C   0  0  0  0  0  0  0  0  0  0  0  0
   -4.3585   -6.7910   -1.7844 C   0  0  0  0  0  0  0  0  0  0  0  0
   -9.7228   -1.7747   -2.9417 C   0  0  0  0  0  0  0  0  0  0  0  0
   -8.0113   -0.1887   -3.4691 C   0  0  0  0  0  0  0  0  0  0  0  0
   -9.0698   -2.0710   -1.7382 C   0  0  0  0  0  0  0  0  0  0  0  0
   -7.2973   -0.5652   -2.3400 C   0  0  0  0  0  0  0  0  0  0  0  0
   -7.8254   -1.5116   -1.4660 C   0  0  0  0  0  0  0  0  0  0  0  0
   -4.3894   -2.0882   -4.3532 H   0  0  0  0  0  0  0  0  0  0  0  0
   -6.2713   -4.0260   -5.8128 H   0  0  0  0  0  0  0  0  0  0  0  0
   -4.8752   -3.1912   -6.5250 H   0  0  0  0  0  0  0  0  0  0  0  0
   -5.7759   -2.3445   -2.4615 H   0  0  0  0  0  0  0  0  0  0  0  0
   -6.9699   -3.3554   -3.3444 H   0  0  0  0  0  0  0  0  0  0  0  0
   -7.3812   -2.6609   -6.2158 H   0  0  0  0  0  0  0  0  0  0  0  0
   -4.3790   -5.4957   -5.8531 H   0  0  0  0  0  0  0  0  0  0  0  0
   -3.4399   -4.2893   -4.9423 H   0  0  0  0  0  0  0  0  0  0  0  0
   -5.6418   -4.5915   -1.8325 H   0  0  0  0  0  0  0  0  0  0  0  0
   -4.1448   -3.8603   -2.3931 H   0  0  0  0  0  0  0  0  0  0  0  0
   -8.1918    0.0701   -6.7985 H   0  0  0  0  0  0  0  0  0  0  0  0
   -5.9694   -5.7358   -3.9500 H   0  0  0  0  0  0  0  0  0  0  0  0
  -10.0880    0.1923   -5.4066 H   0  0  0  0  0  0  0  0  0  0  0  0
  -10.3886   -1.5238   -5.4720 H   0  0  0  0  0  0  0  0  0  0  0  0
   -4.2309   -7.3239   -3.8625 H   0  0  0  0  0  0  0  0  0  0  0  0
   -9.0043   -0.2882   -8.8391 H   0  0  0  0  0  0  0  0  0  0  0  0
   -2.3472   -5.1394   -2.8130 H   0  0  0  0  0  0  0  0  0  0  0  0
   -1.9268   -6.8541   -2.9931 H   0  0  0  0  0  0  0  0  0  0  0  0
   -2.2834   -5.8945   -4.4129 H   0  0  0  0  0  0  0  0  0  0  0  0
   -5.4172   -7.0422   -1.6585 H   0  0  0  0  0  0  0  0  0  0  0  0
   -3.7535   -7.6360   -1.4505 H   0  0  0  0  0  0  0  0  0  0  0  0
   -4.1262   -5.9581   -1.1088 H   0  0  0  0  0  0  0  0  0  0  0  0
  -10.6720   -2.2558   -3.1602 H   0  0  0  0  0  0  0  0  0  0  0  0
   -7.5779    0.5345   -4.1538 H   0  0  0  0  0  0  0  0  0  0  0  0
   -9.4884   -2.7979   -1.0486 H   0  0  0  0  0  0  0  0  0  0  0  0
   -6.2503   -0.2604   -2.2687 H   0  0  0  0  0  0  0  0  0  0  0  0
   -7.2166   -1.8879   -0.6456 H   0  0  0  0  0  0  0  0  0  0  0  0
  1 24  1  1  0  0  0
  1  2  1  0  0  0  0
  3  1  1  0  0  0  0
  3 25  1  0  0  0  0
  3 26  1  0  0  0  0
  4  1  1  0  0  0  0
  4 27  1  0  0  0  0
  4 28  1  0  0  0  0
  5  2  1  0  0  0  0
  5 29  1  0  0  0  0
  6  2  2  0  0  0  0
  7  3  1  0  0  0  0
  7 30  1  0  0  0  0
  7 31  1  0  0  0  0
  8  4  1  0  0  0  0
  8 32  1  0  0  0  0
  8 33  1  0  0  0  0
  9 12  1  0  0  0  0
  9 34  1  6  0  0  0
  9 11  1  0  0  0  0
  9  5  1  0  0  0  0
 10  7  1  0  0  0  0
 10  8  1  0  0  0  0
 10 35  1  6  0  0  0
 10 13  1  0  0  0  0
 11 36  1  0  0  0  0
 11 37  1  0  0  0  0
 13 38  1  0  0  0  0
 14 11  1  0  0  0  0
 15 12  1  0  0  0  0
 15 39  1  0  0  0  0
 16 12  2  0  0  0  0
 17 13  1  0  0  0  0
 17 40  1  0  0  0  0
 17 41  1  0  0  0  0
 17 42  1  0  0  0  0
 18 13  1  0  0  0  0
 18 43  1  0  0  0  0
 18 44  1  0  0  0  0
 18 45  1  0  0  0  0
 19 14  2  0  0  0  0
 19 46  1  0  0  0  0
 20 14  1  0  0  0  0
 20 47  1  0  0  0  0
 21 19  1  0  0  0  0
 21 48  1  0  0  0  0
 22 20  2  0  0  0  0
 22 49  1  0  0  0  0
 23 21  2  0  0  0  0
 23 22  1  0  0  0  0
 23 50  1  0  0  0  0
M  END
>  <DRUGBANK_ID>
DB00731

>  <SECONDARY_ACCESSION_NUMBERS>
APRD00593

>  <COMMON_NAME>
Nateglinide

>  <CAS_NUMBER>
105816-04-4

>  <UNII>
41X3PWK4O2

>  <SYNONYMS>
Nateglinida; NatÃ©glinide; Nateglinide; Nateglinidum

$$$$
