
 OpenBabel10282417133D

 24 24  0  0  1  0  0  0  0  0999 V2000
   -0.9382    1.1619   -0.0709 C   0  0  0  0  0  0  0  0  0  0  0  0
   -1.1658   -2.1375    1.0144 C   0  0  0  0  0  0  0  0  0  0  0  0
    0.4453    0.6655    0.2942 C   0  0  1  0  0  0  0  0  0  0  0  0
   -0.9906   -1.1855   -0.1827 C   0  0  2  0  0  0  0  0  0  0  0  0
    0.4508   -0.7069   -0.3770 C   0  0  2  0  0  0  0  0  0  0  0  0
    1.4799    1.5254   -0.1477 O   0  0  0  0  0  0  0  0  0  0  0  0
    1.4258   -1.5992    0.1384 O   0  0  0  0  0  0  0  0  0  0  0  0
   -4.7593   -2.0966    1.4512 O   0  0  0  0  0  0  0  0  0  0  0  0
   -3.1761   -1.3622    3.1512 O   0  0  0  0  0  0  0  0  0  0  0  0
   -4.3318    0.1873    1.8482 O   0  0  0  0  0  0  0  0  0  0  0  0
   -1.7893    0.0089    0.0038 O   0  0  0  0  0  0  0  0  0  0  0  0
   -2.5354   -2.4890    1.2500 O   0  0  0  0  0  0  0  0  0  0  0  0
   -3.4834   -1.0767    1.5657 P   0  0  0  0  0  0  0  0  0  0  0  0
    0.5406    0.5606    1.3812 H   0  0  0  0  0  0  0  0  0  0  0  0
   -1.3749   -1.6755   -1.0828 H   0  0  0  0  0  0  0  0  0  0  0  0
    0.6561   -0.5906   -1.4471 H   0  0  0  0  0  0  0  0  0  0  0  0
   -1.3001    1.9445    0.6040 H   0  0  0  0  0  0  0  0  0  0  0  0
   -0.9797    1.5589   -1.0918 H   0  0  0  0  0  0  0  0  0  0  0  0
   -0.6148   -3.0681    0.8517 H   0  0  0  0  0  0  0  0  0  0  0  0
   -0.7787   -1.6719    1.9277 H   0  0  0  0  0  0  0  0  0  0  0  0
    1.4357    1.6074   -1.1164 H   0  0  0  0  0  0  0  0  0  0  0  0
    1.4281   -1.5600    1.1109 H   0  0  0  0  0  0  0  0  0  0  0  0
   -5.2247   -1.9702    0.6085 H   0  0  0  0  0  0  0  0  0  0  0  0
   -2.3631   -1.8725    3.2929 H   0  0  0  0  0  0  0  0  0  0  0  0
  1 17  1  0  0  0  0
  1 18  1  0  0  0  0
  2 19  1  0  0  0  0
  2 20  1  0  0  0  0
  3  1  1  0  0  0  0
  3  6  1  0  0  0  0
  3 14  1  1  0  0  0
  4  2  1  0  0  0  0
  4 15  1  6  0  0  0
  5  3  1  0  0  0  0
  5  4  1  0  0  0  0
  5  7  1  0  0  0  0
  5 16  1  6  0  0  0
  6 21  1  0  0  0  0
  7 22  1  0  0  0  0
  8 23  1  0  0  0  0
  9 24  1  0  0  0  0
 11  1  1  0  0  0  0
 11  4  1  0  0  0  0
 12  2  1  0  0  0  0
 13  8  1  0  0  0  0
 13  9  1  0  0  0  0
 13 10  2  0  0  0  0
 13 12  1  0  0  0  0
M  END
>  <DRUGBANK_ID>
DB03936

>  <SECONDARY_ACCESSION_NUMBERS>
EXPT02797

>  <COMMON_NAME>
1-Deoxy-Ribofuranose-5'-Phosphate

$$$$
