
 OpenBabel10282417153D

105108  0  0  1  0  0  0  0  0999 V2000
    1.8741    1.8695    3.5775 C   0  0  0  0  0  0  0  0  0  0  0  0
    2.4229    1.6387    2.1706 C   0  0  0  0  0  0  0  0  0  0  0  0
    3.7749    2.1521    2.1730 N   0  0  0  0  0  0  0  0  0  0  0  0
    4.5143    1.6504    0.9733 C   0  0  0  0  0  0  0  0  0  0  0  0
    3.8600    1.7552   -0.3922 C   0  0  0  0  0  0  0  0  0  0  0  0
    3.6749    3.6241    2.5519 C   0  0  0  0  0  0  0  0  0  0  0  0
    2.6478    4.4247    1.7073 C   0  0  0  0  0  0  0  0  0  0  0  0
    3.0637    4.3962    0.4534 C   0  0  0  0  0  0  0  0  0  0  0  0
    2.1932    4.2343   -0.6574 C   0  0  0  0  0  0  0  0  0  0  0  0
    1.2735    5.1822   -0.7630 C   0  0  0  0  0  0  0  0  0  0  0  0
    0.6273    5.2363    0.4517 C   0  0  0  0  0  0  0  0  0  0  0  0
    1.3158    4.8267    1.7086 C   0  0  0  0  0  0  0  0  0  0  0  0
   -0.7390    5.4271    0.4712 O   0  0  0  0  0  0  0  0  0  0  0  0
   -1.3162    5.5443   -0.8505 C   0  0  0  0  0  0  0  0  0  0  0  0
    0.9340    5.8332   -1.9125 O   0  0  0  0  0  0  0  0  0  0  0  0
    1.7135    6.0323   -3.1194 C   0  0  0  0  0  0  0  0  0  0  0  0
    2.8571    7.0841   -3.0482 C   0  0  0  0  0  0  0  0  0  0  0  0
    4.2913    6.7949   -2.2914 C   0  0  1  0  0  0  0  0  0  0  0  0
    4.1562    5.7012   -1.3852 C   0  0  0  0  0  0  0  0  0  0  0  0
    4.9930    4.4628   -1.5939 C   0  0  0  0  0  0  0  0  0  0  0  0
    6.0012    4.9431   -2.5239 C   0  0  2  0  0  0  0  0  0  0  0  0
    5.2982    6.2882   -3.2764 C   0  0  2  0  0  0  0  0  0  0  0  0
    6.6632    6.4334   -3.8390 C   0  0  0  0  0  0  0  0  0  0  0  0
    6.6194    5.2267   -4.8505 C   0  0  0  0  0  0  0  0  0  0  0  0
    7.3161    4.1561   -4.0129 C   0  0  1  0  0  0  0  0  0  0  0  0
    7.7510    4.5201   -2.5749 C   0  0  1  0  0  0  0  0  0  0  0  0
    9.4376    5.3852   -3.1147 C   0  0  1  0  0  0  0  0  0  0  0  0
    9.5739    5.2386   -4.7453 C   0  0  0  0  0  0  0  0  0  0  0  0
    9.3578    3.8268   -5.1283 C   0  0  0  0  0  0  0  0  0  0  0  0
    8.1741    3.2298   -4.7006 C   0  0  0  0  0  0  0  0  0  0  0  0
    7.8896    1.8969   -4.7872 C   0  0  0  0  0  0  0  0  0  0  0  0
    8.8368    1.1414   -5.4289 C   0  0  0  0  0  0  0  0  0  0  0  0
   10.0003    1.7535   -5.9350 C   0  0  0  0  0  0  0  0  0  0  0  0
   10.3100    3.0801   -5.7287 C   0  0  0  0  0  0  0  0  0  0  0  0
   10.8725    1.0502   -6.6992 O   0  0  0  0  0  0  0  0  0  0  0  0
   10.0249    6.9083   -3.2351 C   0  0  0  0  0  0  0  0  0  0  0  0
    5.3020    7.7237   -3.8201 C   0  0  0  0  0  0  0  0  0  0  0  0
    0.8416   -0.1064   -0.2161 C   0  0  0  0  0  0  0  0  0  0  0  0
    0.3650   -0.1084   -1.6113 C   0  0  0  0  0  0  0  0  0  0  0  0
   -0.4138   -0.9366   -2.1512 O   0  0  0  0  0  0  0  0  0  0  0  0
    0.7922    0.9548   -2.3051 O   0  0  0  0  0  0  0  0  0  0  0  0
    0.2837   -1.2443    0.6513 C   0  0  0  0  0  0  0  0  0  0  0  0
    0.7009   -1.1670    2.1283 C   0  0  0  0  0  0  0  0  0  0  0  0
   -0.0409   -0.0636    2.8080 C   0  0  0  0  0  0  0  0  0  0  0  0
   -0.4701   -0.1042    3.9757 O   0  0  0  0  0  0  0  0  0  0  0  0
   -0.1178    1.0445    2.0453 O   0  0  0  0  0  0  0  0  0  0  0  0
   -1.2673   -1.2998    0.6091 C   0  0  0  0  0  0  0  0  0  0  0  0
   -1.9275   -2.3100    0.3366 O   0  0  0  0  0  0  0  0  0  0  0  0
   -1.8991   -0.1924    1.0331 O   0  0  0  0  0  0  0  0  0  0  0  0
    0.9247   -2.4396    0.1710 O   0  0  0  0  0  0  0  0  0  0  0  0
    2.4672    1.3013    4.2869 H   0  0  0  0  0  0  0  0  0  0  0  0
    0.8567    1.6438    3.8264 H   0  0  0  0  0  0  0  0  0  0  0  0
    1.7876    2.9272    3.8005 H   0  0  0  0  0  0  0  0  0  0  0  0
    2.4747    0.5977    1.8782 H   0  0  0  0  0  0  0  0  0  0  0  0
    1.8268    2.1262    1.3893 H   0  0  0  0  0  0  0  0  0  0  0  0
    5.4858    2.1551    0.9289 H   0  0  0  0  0  0  0  0  0  0  0  0
    4.7307    0.5778    1.0626 H   0  0  0  0  0  0  0  0  0  0  0  0
    3.8782    2.7846   -0.5034 H   0  0  0  0  0  0  0  0  0  0  0  0
    4.4483    1.4869   -1.2694 H   0  0  0  0  0  0  0  0  0  0  0  0
    2.7993    1.5572   -0.5242 H   0  0  0  0  0  0  0  0  0  0  0  0
    3.4240    3.7278    3.6087 H   0  0  0  0  0  0  0  0  0  0  0  0
    4.7031    4.0146    2.5321 H   0  0  0  0  0  0  0  0  0  0  0  0
    4.1529    4.3384    0.4524 H   0  0  0  0  0  0  0  0  0  0  0  0
    2.4872    3.7686   -1.5930 H   0  0  0  0  0  0  0  0  0  0  0  0
    0.7660    4.8036    2.6338 H   0  0  0  0  0  0  0  0  0  0  0  0
   -1.0429    6.5185   -1.2781 H   0  0  0  0  0  0  0  0  0  0  0  0
   -1.0394    4.7189   -1.5369 H   0  0  0  0  0  0  0  0  0  0  0  0
   -2.3975    5.5215   -0.7785 H   0  0  0  0  0  0  0  0  0  0  0  0
    2.0444    5.0961   -3.5923 H   0  0  0  0  0  0  0  0  0  0  0  0
    1.0106    6.4584   -3.8617 H   0  0  0  0  0  0  0  0  0  0  0  0
    3.0701    7.2484   -4.1180 H   0  0  0  0  0  0  0  0  0  0  0  0
    2.4788    8.0371   -2.6633 H   0  0  0  0  0  0  0  0  0  0  0  0
    4.5882    7.6389   -1.6461 H   0  0  0  0  0  0  0  0  0  0  0  0
    3.2805    5.3803   -1.8717 H   0  0  0  0  0  0  0  0  0  0  0  0
    3.8970    6.1490   -0.4243 H   0  0  0  0  0  0  0  0  0  0  0  0
    4.3250    3.7194   -2.1287 H   0  0  0  0  0  0  0  0  0  0  0  0
    5.4353    3.8975   -0.7838 H   0  0  0  0  0  0  0  0  0  0  0  0
    5.6359    4.0738   -3.1699 H   0  0  0  0  0  0  0  0  0  0  0  0
    7.3217    6.5611   -2.9404 H   0  0  0  0  0  0  0  0  0  0  0  0
    7.1039    7.2277   -4.4589 H   0  0  0  0  0  0  0  0  0  0  0  0
    7.1538    5.5705   -5.7390 H   0  0  0  0  0  0  0  0  0  0  0  0
    5.6428    4.9081   -5.2118 H   0  0  0  0  0  0  0  0  0  0  0  0
    7.9124    4.9610   -3.9966 H   0  0  0  0  0  0  0  0  0  0  0  0
    7.9506    3.5263   -2.1017 H   0  0  0  0  0  0  0  0  0  0  0  0
   10.2152    4.7682   -2.6342 H   0  0  0  0  0  0  0  0  0  0  0  0
   10.1483    5.7671   -5.5088 H   0  0  0  0  0  0  0  0  0  0  0  0
    8.7746    5.9573   -4.9851 H   0  0  0  0  0  0  0  0  0  0  0  0
    6.9811    1.4968   -4.3476 H   0  0  0  0  0  0  0  0  0  0  0  0
    8.6650    0.0790   -5.5149 H   0  0  0  0  0  0  0  0  0  0  0  0
   11.2468    3.5400   -6.0076 H   0  0  0  0  0  0  0  0  0  0  0  0
   10.3912    0.2558   -6.9723 H   0  0  0  0  0  0  0  0  0  0  0  0
    9.3902    7.7427   -2.9544 H   0  0  0  0  0  0  0  0  0  0  0  0
   11.0524    6.9837   -2.8427 H   0  0  0  0  0  0  0  0  0  0  0  0
   10.2977    7.2020   -4.2876 H   0  0  0  0  0  0  0  0  0  0  0  0
    6.0955    8.3305   -3.3464 H   0  0  0  0  0  0  0  0  0  0  0  0
    5.1784    7.5518   -4.8994 H   0  0  0  0  0  0  0  0  0  0  0  0
    4.5059    8.4365   -3.6258 H   0  0  0  0  0  0  0  0  0  0  0  0
    0.5495    0.8919    0.1086 H   0  0  0  0  0  0  0  0  0  0  0  0
    1.9334   -0.1723   -0.2301 H   0  0  0  0  0  0  0  0  0  0  0  0
    0.3635    0.8681   -3.1805 H   0  0  0  0  0  0  0  0  0  0  0  0
    0.4530   -2.0969    2.6528 H   0  0  0  0  0  0  0  0  0  0  0  0
    1.7918   -1.1043    2.2523 H   0  0  0  0  0  0  0  0  0  0  0  0
   -0.3934    1.8900    2.4544 H   0  0  0  0  0  0  0  0  0  0  0  0
   -2.8469   -0.3764    1.1849 H   0  0  0  0  0  0  0  0  0  0  0  0
    0.4446   -3.1944    0.5572 H   0  0  0  0  0  0  0  0  0  0  0  0
  1  2  1  0  0  0  0
  1 51  1  0  0  0  0
  1 52  1  0  0  0  0
  1 53  1  0  0  0  0
  2  3  1  0  0  0  0
  2 54  1  0  0  0  0
  2 55  1  0  0  0  0
  3  4  1  0  0  0  0
  3  6  1  0  0  0  0
  4  5  1  0  0  0  0
  4 56  1  0  0  0  0
  4 57  1  0  0  0  0
  5 58  1  0  0  0  0
  5 59  1  0  0  0  0
  5 60  1  0  0  0  0
  6  7  1  0  0  0  0
  6 61  1  0  0  0  0
  6 62  1  0  0  0  0
  7  8  2  0  0  0  0
  7 12  1  0  0  0  0
  8  9  1  0  0  0  0
  8 63  1  0  0  0  0
  9 10  2  0  0  0  0
  9 64  1  0  0  0  0
 10 11  1  0  0  0  0
 10 15  1  0  0  0  0
 11 12  2  0  0  0  0
 11 13  1  0  0  0  0
 12 65  1  0  0  0  0
 13 14  1  0  0  0  0
 14 66  1  0  0  0  0
 14 67  1  0  0  0  0
 14 68  1  0  0  0  0
 15 16  1  0  0  0  0
 16 17  1  0  0  0  0
 16 69  1  0  0  0  0
 16 70  1  0  0  0  0
 17 71  1  0  0  0  0
 17 72  1  0  0  0  0
 18 19  1  0  0  0  0
 18 22  1  0  0  0  0
 18 73  1  1  0  0  0
 18 17  1  0  0  0  0
 19 20  1  0  0  0  0
 19 74  1  0  0  0  0
 19 75  1  0  0  0  0
 20 76  1  0  0  0  0
 20 77  1  0  0  0  0
 21 20  1  0  0  0  0
 21 22  1  0  0  0  0
 21 78  1  1  0  0  0
 22 23  1  0  0  0  0
 22 37  1  6  0  0  0
 23 24  1  0  0  0  0
 23 79  1  0  0  0  0
 23 80  1  0  0  0  0
 24 81  1  0  0  0  0
 24 82  1  0  0  0  0
 25 24  1  0  0  0  0
 25 26  1  0  0  0  0
 25 30  1  0  0  0  0
 25 83  1  6  0  0  0
 26 21  1  0  0  0  0
 26 27  1  0  0  0  0
 26 84  1  1  0  0  0
 27 28  1  0  0  0  0
 27 36  1  0  0  0  0
 27 85  1  1  0  0  0
 28 29  1  0  0  0  0
 28 86  1  0  0  0  0
 28 87  1  0  0  0  0
 29 30  2  0  0  0  0
 29 34  1  0  0  0  0
 30 31  1  0  0  0  0
 31 32  2  0  0  0  0
 31 88  1  0  0  0  0
 32 33  1  0  0  0  0
 32 89  1  0  0  0  0
 33 34  2  0  0  0  0
 33 35  1  0  0  0  0
 34 90  1  0  0  0  0
 35 91  1  0  0  0  0
 36 92  1  0  0  0  0
 36 93  1  0  0  0  0
 36 94  1  0  0  0  0
 37 95  1  0  0  0  0
 37 96  1  0  0  0  0
 37 97  1  0  0  0  0
 38 39  1  0  0  0  0
 38 42  1  0  0  0  0
 38 98  1  0  0  0  0
 38 99  1  0  0  0  0
 39 40  2  0  0  0  0
 39 41  1  0  0  0  0
 41100  1  0  0  0  0
 42 43  1  0  0  0  0
 42 47  1  0  0  0  0
 42 50  1  0  0  0  0
 43 44  1  0  0  0  0
 43101  1  0  0  0  0
 43102  1  0  0  0  0
 44 45  2  0  0  0  0
 44 46  1  0  0  0  0
 46103  1  0  0  0  0
 47 48  2  0  0  0  0
 47 49  1  0  0  0  0
 49104  1  0  0  0  0
 50105  1  0  0  0  0
M  END
>  <DRUGBANK_ID>
DB05966

>  <COMMON_NAME>
TAS-108

>  <CAS_NUMBER>
229634-97-3

>  <UNII>
9B29N23K7E

$$$$
