
 OpenBabel10282417133D

 37 39  0  0  0  0  0  0  0  0999 V2000
    0.9915    0.1537   -0.0912 S   0  0  0  0  0  0  0  0  0  0  0  0
    0.1474   -5.0530    1.7245 O   0  0  0  0  0  0  0  0  0  0  0  0
    2.1783   -3.3968    1.1130 O   0  0  0  0  0  0  0  0  0  0  0  0
   -4.2129   -4.9044    7.0831 O   0  0  0  0  0  0  0  0  0  0  0  0
    0.5955   -1.9065    3.5707 N   0  3  0  0  0  0  0  0  0  0  0  0
   -1.3747   -5.0334    6.3143 N   0  0  0  0  0  0  0  0  0  0  0  0
   -2.6770   -2.8570    3.9315 N   0  0  0  0  0  0  0  0  0  0  0  0
   -4.5591   -3.5007    5.2908 N   0  0  0  0  0  0  0  0  0  0  0  0
    0.4496   -3.4161    3.5506 C   0  0  2  0  0  0  0  0  0  0  0  0
    1.0946   -1.4962    2.1934 C   0  0  1  0  0  0  0  0  0  0  0  0
    0.0109   -3.6957    2.1103 C   0  0  1  0  0  0  0  0  0  0  0  0
    0.9124   -2.7579    1.3152 C   0  0  2  0  0  0  0  0  0  0  0  0
   -0.4946   -3.9143    4.5724 C   0  0  0  0  0  0  0  0  0  0  0  0
    0.4950   -0.1931    1.6474 C   0  0  0  0  0  0  0  0  0  0  0  0
   -1.8731   -3.6379    4.6706 C   0  0  0  0  0  0  0  0  0  0  0  0
   -0.2098   -4.7838    5.6184 C   0  0  0  0  0  0  0  0  0  0  0  0
   -2.3931   -4.3284    5.7305 C   0  0  0  0  0  0  0  0  0  0  0  0
   -3.7806   -4.2911    6.1124 C   0  0  0  0  0  0  0  0  0  0  0  0
    2.8153    0.0650   -0.0193 C   0  0  0  0  0  0  0  0  0  0  0  0
   -4.0018   -2.8815    4.3038 C   0  0  0  0  0  0  0  0  0  0  0  0
    1.2458   -1.6396    4.3238 H   0  0  0  0  0  0  0  0  0  0  0  0
   -0.3124   -1.4958    3.8326 H   0  0  0  0  0  0  0  0  0  0  0  0
   -1.4765   -5.6425    7.1220 H   0  0  0  0  0  0  0  0  0  0  0  0
   -2.4700   -2.4195    3.0446 H   0  0  0  0  0  0  0  0  0  0  0  0
    1.0770   -5.2408    1.4909 H   0  0  0  0  0  0  0  0  0  0  0  0
    2.7074   -3.4346    1.9279 H   0  0  0  0  0  0  0  0  0  0  0  0
    1.4503   -3.8320    3.7354 H   0  0  0  0  0  0  0  0  0  0  0  0
    2.1584   -1.3073    2.3604 H   0  0  0  0  0  0  0  0  0  0  0  0
   -1.0349   -3.4183    1.9543 H   0  0  0  0  0  0  0  0  0  0  0  0
    0.4679   -2.5720    0.3333 H   0  0  0  0  0  0  0  0  0  0  0  0
    0.8040    0.6623    2.2586 H   0  0  0  0  0  0  0  0  0  0  0  0
   -0.6016   -0.2158    1.6661 H   0  0  0  0  0  0  0  0  0  0  0  0
    0.7095   -5.2754    5.9217 H   0  0  0  0  0  0  0  0  0  0  0  0
    3.2132    0.1769   -1.0334 H   0  0  0  0  0  0  0  0  0  0  0  0
    3.2138    0.8752    0.5953 H   0  0  0  0  0  0  0  0  0  0  0  0
    3.1746   -0.8961    0.3588 H   0  0  0  0  0  0  0  0  0  0  0  0
   -4.6200   -2.2594    3.6331 H   0  0  0  0  0  0  0  0  0  0  0  0
  1 14  1  0  0  0  0
  1 19  1  0  0  0  0
  2 25  1  0  0  0  0
  3 26  1  0  0  0  0
  4 18  2  0  0  0  0
  5  9  1  0  0  0  0
  5 10  1  0  0  0  0
  5 21  1  0  0  0  0
  5 22  1  0  0  0  0
  6 16  1  0  0  0  0
  6 17  1  0  0  0  0
  6 23  1  0  0  0  0
  7 15  1  0  0  0  0
  7 20  1  0  0  0  0
  7 24  1  0  0  0  0
  8 18  1  0  0  0  0
  8 20  2  0  0  0  0
  9 11  1  0  0  0  0
  9 27  1  1  0  0  0
  9 13  1  0  0  0  0
 10 12  1  0  0  0  0
 10 14  1  0  0  0  0
 10 28  1  1  0  0  0
 11  2  1  0  0  0  0
 11 12  1  0  0  0  0
 11 29  1  6  0  0  0
 12  3  1  0  0  0  0
 12 30  1  6  0  0  0
 13 15  1  0  0  0  0
 13 16  2  0  0  0  0
 14 31  1  0  0  0  0
 14 32  1  0  0  0  0
 15 17  2  0  0  0  0
 16 33  1  0  0  0  0
 17 18  1  0  0  0  0
 19 34  1  0  0  0  0
 19 35  1  0  0  0  0
 19 36  1  0  0  0  0
 20 37  1  0  0  0  0
M  CHG  1   5   1
M  END
>  <DRUGBANK_ID>
DB03881

>  <SECONDARY_ACCESSION_NUMBERS>
EXPT02245

>  <COMMON_NAME>
(2S,3R,4S,5S)-3,4-Dihydroxy-2-[(methylsulfanyl)methyl]-5-(4-oxo-4,5-dihydro-1H-pyrrolo[3,2-d]pyrimidin-7-yl)pyrrolidinium

$$$$
