34T
 OpenBabel10282417163D

 27 28  0  0  0  0  0  0  0  0999 V2000
    0.9671    0.0258    0.0418 S   0  0  0  0  0  0  0  0  0  0  0  0
    0.5948   -0.8596    1.1335 O   0  0  0  0  0  0  0  0  0  0  0  0
    2.3854    3.7526   -1.9996 C   0  0  0  0  0  0  0  0  0  0  0  0
    2.6339    4.9525   -1.0904 C   0  0  1  0  0  0  0  0  0  0  0  0
    1.3072    5.2856   -0.4040 C   0  0  0  0  0  0  0  0  0  0  0  0
    0.6748    4.0541    0.2095 C   0  0  0  0  0  0  0  0  0  0  0  0
   -0.3157    4.2387    1.1847 C   0  0  0  0  0  0  0  0  0  0  0  0
   -0.9091    3.1406    1.7949 C   0  0  0  0  0  0  0  0  0  0  0  0
   -0.5222    1.8532    1.4296 C   0  0  0  0  0  0  0  0  0  0  0  0
    0.4583    1.6685    0.4437 C   0  0  0  0  0  0  0  0  0  0  0  0
    1.0794    2.7536   -0.1867 C   0  0  0  0  0  0  0  0  0  0  0  0
    3.7351    4.6609   -0.0588 C   0  0  0  0  0  0  0  0  0  0  0  0
    2.0380    2.6064   -1.1820 N   0  0  0  0  0  0  0  0  0  0  0  0
    2.9475    5.8108   -1.6962 H   0  0  0  0  0  0  0  0  0  0  0  0
    0.5815   -0.2517   -1.3240 O   0  0  0  0  0  0  0  0  0  0  0  0
    2.3128    0.0419    0.0569 H   0  0  0  0  0  0  0  0  0  0  0  0
    1.5674    3.9557   -2.7043 H   0  0  0  0  0  0  0  0  0  0  0  0
    3.2732    3.5264   -2.5989 H   0  0  0  0  0  0  0  0  0  0  0  0
    1.4732    6.0504    0.3644 H   0  0  0  0  0  0  0  0  0  0  0  0
    0.6030    5.7020   -1.1364 H   0  0  0  0  0  0  0  0  0  0  0  0
   -0.6157    5.2442    1.4736 H   0  0  0  0  0  0  0  0  0  0  0  0
   -1.6697    3.2927    2.5563 H   0  0  0  0  0  0  0  0  0  0  0  0
   -0.9886    0.9994    1.9163 H   0  0  0  0  0  0  0  0  0  0  0  0
    4.6740    4.4077   -0.5592 H   0  0  0  0  0  0  0  0  0  0  0  0
    3.9002    5.5283    0.5861 H   0  0  0  0  0  0  0  0  0  0  0  0
    3.4837    3.8218    0.6002 H   0  0  0  0  0  0  0  0  0  0  0  0
    2.4905    1.7313   -1.4045 H   0  0  0  0  0  0  0  0  0  0  0  0
  1 10  1  0  0  0  0
  1 15  2  0  0  0  0
  1 16  1  0  0  0  0
  2  1  2  0  0  0  0
  3  4  1  0  0  0  0
  3 17  1  0  0  0  0
  3 18  1  0  0  0  0
  4 12  1  0  0  0  0
  4 14  1  6  0  0  0
  5  4  1  0  0  0  0
  5 19  1  0  0  0  0
  5 20  1  0  0  0  0
  6  5  1  0  0  0  0
  7  6  1  0  0  0  0
  7 21  1  0  0  0  0
  8  7  2  0  0  0  0
  8 22  1  0  0  0  0
  9  8  1  0  0  0  0
  9 10  2  0  0  0  0
  9 23  1  0  0  0  0
 10 11  1  0  0  0  0
 11  6  2  0  0  0  0
 11 13  1  0  0  0  0
 12 24  1  0  0  0  0
 12 25  1  0  0  0  0
 12 26  1  0  0  0  0
 13  3  1  0  0  0  0
 13 27  1  0  0  0  0
M  END
>  <DRUGBANK_ID>
DB07016

>  <COMMON_NAME>
(3R)-8-(dioxidosulfanyl)-3-methyl-1,2,3,4-tetrahydroquinoline

$$$$
