
 OpenBabel10282417153D

 37 40  0  0  1  0  0  0  0  0999 V2000
   -1.9471    0.2827    0.0188 Br  0  0  0  0  0  0  0  0  0  0  0  0
    3.1440    1.4084    0.0348 F   0  0  0  0  0  0  0  0  0  0  0  0
    3.2393   -3.9131    0.6201 O   0  0  0  0  0  0  0  0  0  0  0  0
    5.5863   -5.8094    1.3667 O   0  0  0  0  0  0  0  0  0  0  0  0
    1.9270   -6.4787    3.9500 O   0  0  0  0  0  0  0  0  0  0  0  0
    6.0851   -0.4898    1.7655 O   0  0  0  0  0  0  0  0  0  0  0  0
    5.4168   -3.6029    3.4224 N   0  0  0  0  0  0  0  0  0  0  0  0
    4.4566   -2.0595    1.2745 N   0  0  0  0  0  0  0  0  0  0  0  0
    3.7784   -6.4370    2.6164 N   0  0  0  0  0  0  0  0  0  0  0  0
    4.3255   -4.1680    2.6627 C   0  0  1  0  0  0  0  0  0  0  0  0
    3.0729   -4.3948    3.5223 C   0  0  0  0  0  0  0  0  0  0  0  0
    3.9663   -3.3485    1.4433 C   0  0  0  0  0  0  0  0  0  0  0  0
    4.6801   -5.5443    2.1423 C   0  0  0  0  0  0  0  0  0  0  0  0
    5.9625   -2.3855    3.1253 C   0  0  0  0  0  0  0  0  0  0  0  0
    2.8329   -5.8718    3.4020 C   0  0  0  0  0  0  0  0  0  0  0  0
    5.5264   -1.5548    2.0255 C   0  0  0  0  0  0  0  0  0  0  0  0
    6.0197   -4.1537    4.5206 C   0  0  0  0  0  0  0  0  0  0  0  0
    4.0710   -1.3080    0.0585 C   0  0  0  0  0  0  0  0  0  0  0  0
    6.9684   -2.1719    4.0521 C   0  0  0  0  0  0  0  0  0  0  0  0
    6.9996   -3.2811    4.9318 C   0  0  0  0  0  0  0  0  0  0  0  0
    2.6079   -0.9009    0.0011 C   0  0  0  0  0  0  0  0  0  0  0  0
    2.2180    0.4394    0.0276 C   0  0  0  0  0  0  0  0  0  0  0  0
    1.5809   -1.8489   -0.1203 C   0  0  0  0  0  0  0  0  0  0  0  0
    0.8691    0.8085    0.0112 C   0  0  0  0  0  0  0  0  0  0  0  0
    0.2361   -1.5094   -0.0443 C   0  0  0  0  0  0  0  0  0  0  0  0
   -0.1173   -0.1741    0.0090 C   0  0  0  0  0  0  0  0  0  0  0  0
    3.7839   -7.4116    2.3581 H   0  0  0  0  0  0  0  0  0  0  0  0
    2.1912   -3.8530    3.1616 H   0  0  0  0  0  0  0  0  0  0  0  0
    3.2218   -4.1449    4.5787 H   0  0  0  0  0  0  0  0  0  0  0  0
    5.7212   -5.1144    4.9247 H   0  0  0  0  0  0  0  0  0  0  0  0
    4.3068   -1.9265   -0.8178 H   0  0  0  0  0  0  0  0  0  0  0  0
    4.6948   -0.4117   -0.0430 H   0  0  0  0  0  0  0  0  0  0  0  0
    7.6108   -1.3002    4.0856 H   0  0  0  0  0  0  0  0  0  0  0  0
    7.6645   -3.4313    5.7730 H   0  0  0  0  0  0  0  0  0  0  0  0
    1.7790   -2.8942   -0.3070 H   0  0  0  0  0  0  0  0  0  0  0  0
    0.6055    1.8602    0.0010 H   0  0  0  0  0  0  0  0  0  0  0  0
   -0.5041   -2.3056   -0.0563 H   0  0  0  0  0  0  0  0  0  0  0  0
  1 26  1  0  0  0  0
  2 22  1  0  0  0  0
  3 12  2  0  0  0  0
  4 13  2  0  0  0  0
  5 15  2  0  0  0  0
  6 16  2  0  0  0  0
  7 10  1  0  0  0  0
  7 14  1  0  0  0  0
  7 17  1  0  0  0  0
  8 12  1  0  0  0  0
  8 16  1  0  0  0  0
  8 18  1  0  0  0  0
  9 13  1  0  0  0  0
  9 15  1  0  0  0  0
  9 27  1  0  0  0  0
 10 11  1  0  0  0  0
 10 12  1  6  0  0  0
 10 13  1  0  0  0  0
 11 15  1  0  0  0  0
 11 28  1  0  0  0  0
 11 29  1  0  0  0  0
 14 16  1  0  0  0  0
 14 19  2  0  0  0  0
 17 20  2  0  0  0  0
 17 30  1  0  0  0  0
 18 21  1  0  0  0  0
 18 31  1  0  0  0  0
 18 32  1  0  0  0  0
 19 20  1  0  0  0  0
 19 33  1  0  0  0  0
 20 34  1  0  0  0  0
 21 22  2  0  0  0  0
 21 23  1  0  0  0  0
 22 24  1  0  0  0  0
 23 25  2  0  0  0  0
 23 35  1  0  0  0  0
 24 26  2  0  0  0  0
 24 36  1  0  0  0  0
 25 26  1  0  0  0  0
 25 37  1  0  0  0  0
M  END
>  <DRUGBANK_ID>
DB05327

>  <SECONDARY_ACCESSION_NUMBERS>
DB12811

>  <COMMON_NAME>
Ranirestat

>  <CAS_NUMBER>
147254-64-6

>  <UNII>
Z26P56GFTV

>  <SYNONYMS>
Ranirestat

$$$$
