1024
 OpenBabel10282417113D

 43 44  0  0  0  0  0  0  0  0999 V2000
   -2.3959    0.0045   -0.0524 O   0  0  0  0  0  0  0  0  0  0  0  0
    3.3249    1.5017   -0.1023 O   0  0  0  0  0  0  0  0  0  0  0  0
    0.7661   -2.7484   -0.0210 O   0  0  0  0  0  0  0  0  0  0  0  0
   -2.0676   -2.2378    0.3039 O   0  0  0  0  0  0  0  0  0  0  0  0
    2.8782   -7.8448    1.2938 O   0  0  0  0  0  0  0  0  0  0  0  0
    2.0503   -6.2206    0.0033 O   0  0  0  0  0  0  0  0  0  0  0  0
   -0.2151    0.7123    0.0529 C   0  0  0  0  0  0  0  0  0  0  0  0
    2.1857   -0.7324   -0.0305 C   0  0  0  0  0  0  0  0  0  0  0  0
   -0.2416   -0.6592    0.0609 C   0  0  0  0  0  0  0  0  0  0  0  0
    0.9965    1.4102    0.0053 C   0  0  0  0  0  0  0  0  0  0  0  0
    2.2200    0.6843   -0.0424 C   0  0  0  0  0  0  0  0  0  0  0  0
    0.9222   -1.3934    0.0105 C   0  0  0  0  0  0  0  0  0  0  0  0
    3.4054   -1.5973   -0.1095 C   0  0  0  0  0  0  0  0  0  0  0  0
   -1.6100    1.1970    0.1232 C   0  0  0  0  0  0  0  0  0  0  0  0
   -1.6308   -1.1145    0.1174 C   0  0  0  0  0  0  0  0  0  0  0  0
    3.6012   -2.4384    1.1082 C   0  0  0  0  0  0  0  0  0  0  0  0
    0.9663    2.9140    0.0025 C   0  0  0  0  0  0  0  0  0  0  0  0
    3.8168   -3.7554    0.9791 C   0  0  0  0  0  0  0  0  0  0  0  0
    3.8744   -4.6636    2.1726 C   0  0  0  0  0  0  0  0  0  0  0  0
    2.6907   -5.6339    2.2637 C   0  0  0  0  0  0  0  0  0  0  0  0
    3.9812   -4.3412   -0.4034 C   0  0  0  0  0  0  0  0  0  0  0  0
    4.6392    0.9805   -0.1730 C   0  0  0  0  0  0  0  0  0  0  0  0
    2.5070   -6.5671    1.0830 C   0  0  0  0  0  0  0  0  0  0  0  0
    1.6080   -3.2213    0.0034 H   0  0  0  0  0  0  0  0  0  0  0  0
    3.0504   -8.0842    2.2205 H   0  0  0  0  0  0  0  0  0  0  0  0
    3.3091   -2.1340   -1.0574 H   0  0  0  0  0  0  0  0  0  0  0  0
    4.3766   -1.1574   -0.2267 H   0  0  0  0  0  0  0  0  0  0  0  0
   -1.8561    1.5996    1.1091 H   0  0  0  0  0  0  0  0  0  0  0  0
   -1.8512    1.9124   -0.6658 H   0  0  0  0  0  0  0  0  0  0  0  0
    3.5442   -1.9449    2.0793 H   0  0  0  0  0  0  0  0  0  0  0  0
    0.4081    3.2738   -0.8673 H   0  0  0  0  0  0  0  0  0  0  0  0
    0.4904    3.2759    0.9190 H   0  0  0  0  0  0  0  0  0  0  0  0
    1.9629    3.3600   -0.0450 H   0  0  0  0  0  0  0  0  0  0  0  0
    4.8349   -5.1880    2.1722 H   0  0  0  0  0  0  0  0  0  0  0  0
    3.8683   -4.0522    3.0899 H   0  0  0  0  0  0  0  0  0  0  0  0
    2.7868   -6.2212    3.1824 H   0  0  0  0  0  0  0  0  0  0  0  0
    1.7554   -5.0687    2.3614 H   0  0  0  0  0  0  0  0  0  0  0  0
    3.0382   -4.2690   -0.9615 H   0  0  0  0  0  0  0  0  0  0  0  0
    4.7426   -3.8039   -0.9764 H   0  0  0  0  0  0  0  0  0  0  0  0
    4.2942   -5.3816   -0.3756 H   0  0  0  0  0  0  0  0  0  0  0  0
    4.8701    0.4142    0.7382 H   0  0  0  0  0  0  0  0  0  0  0  0
    4.7740    0.4219   -1.1082 H   0  0  0  0  0  0  0  0  0  0  0  0
    5.3769    1.7830   -0.2123 H   0  0  0  0  0  0  0  0  0  0  0  0
  1 14  1  0  0  0  0
  1 15  1  0  0  0  0
  2 11  1  0  0  0  0
  2 22  1  0  0  0  0
  3 12  1  0  0  0  0
  3 24  1  0  0  0  0
  4 15  2  0  0  0  0
  5 23  1  0  0  0  0
  5 25  1  0  0  0  0
  6 23  2  0  0  0  0
  7  9  1  0  0  0  0
  7 10  2  0  0  0  0
  7 14  1  0  0  0  0
  8 11  2  0  0  0  0
  8 12  1  0  0  0  0
  8 13  1  0  0  0  0
  9 12  2  0  0  0  0
  9 15  1  0  0  0  0
 10 11  1  0  0  0  0
 10 17  1  0  0  0  0
 13 16  1  0  0  0  0
 13 26  1  0  0  0  0
 13 27  1  0  0  0  0
 14 28  1  0  0  0  0
 14 29  1  0  0  0  0
 16 18  2  0  0  0  0
 16 30  1  0  0  0  0
 17 31  1  0  0  0  0
 17 32  1  0  0  0  0
 17 33  1  0  0  0  0
 18 19  1  0  0  0  0
 18 21  1  0  0  0  0
 19 20  1  0  0  0  0
 19 34  1  0  0  0  0
 19 35  1  0  0  0  0
 20 23  1  0  0  0  0
 20 36  1  0  0  0  0
 20 37  1  0  0  0  0
 21 38  1  0  0  0  0
 21 39  1  0  0  0  0
 21 40  1  0  0  0  0
 22 41  1  0  0  0  0
 22 42  1  0  0  0  0
 22 43  1  0  0  0  0
M  END
>  <DRUGBANK_ID>
DB01024

>  <SECONDARY_ACCESSION_NUMBERS>
APRD01603; EXPT02208

>  <COMMON_NAME>
Mycophenolic acid

>  <CAS_NUMBER>
24280-93-1

>  <UNII>
HU9DX48N0T

>  <SYNONYMS>
(e)-6-(4-Hydroxy-6-methoxy-7-methyl-3-oxo-5-phthalanyl)-4-methyl-4-hexenoic acid; Acide mycophenolique; Acido micofenolico; Acidum mycophenolicum; Micofenolico acido; Mycophenolate; Mycophenolic acid; Mycophenols√§ure

$$$$
