0AG
 OpenBabel10282417163D

 31 30  0  0  0  0  0  0  0  0999 V2000
    3.5126   -3.1444   -5.9773 C   0  0  0  0  0  0  0  0  0  0  0  0
    2.2042   -2.8456   -5.2585 C   0  0  0  0  0  0  0  0  0  0  0  0
    2.0563   -3.5516   -4.0106 O   0  0  0  0  0  0  0  0  0  0  0  0
    2.0132   -4.9106   -4.0455 C   0  0  0  0  0  0  0  0  0  0  0  0
    2.0474   -5.5919   -5.0655 O   0  0  0  0  0  0  0  0  0  0  0  0
    1.9794   -5.4961   -2.8072 N   0  0  0  0  0  0  0  0  0  0  0  0
    1.8733   -4.7562   -1.5512 C   0  0  2  0  0  0  0  0  0  0  0  0
    3.0228   -3.7417   -1.4737 C   0  0  0  0  0  0  0  0  0  0  0  0
    3.0484   -2.7193   -0.8063 O   0  0  0  0  0  0  0  0  0  0  0  0
    2.0180   -5.6844   -0.3238 C   0  0  0  0  0  0  0  0  0  0  0  0
    1.7868   -4.9517    1.0170 C   0  0  0  0  0  0  0  0  0  0  0  0
    0.3740   -4.3769    1.0890 C   0  0  0  0  0  0  0  0  0  0  0  0
    2.0335   -5.8787    2.2051 C   0  0  0  0  0  0  0  0  0  0  0  0
    4.1274   -4.1732   -2.1307 O   0  0  0  0  0  0  0  0  0  0  0  0
    0.9008   -4.2554   -1.5836 H   0  0  0  0  0  0  0  0  0  0  0  0
    4.3727   -2.8867   -5.3512 H   0  0  0  0  0  0  0  0  0  0  0  0
    3.5767   -2.5797   -6.9129 H   0  0  0  0  0  0  0  0  0  0  0  0
    3.6069   -4.2036   -6.2263 H   0  0  0  0  0  0  0  0  0  0  0  0
    2.1847   -1.7738   -5.0211 H   0  0  0  0  0  0  0  0  0  0  0  0
    1.3371   -3.0487   -5.8937 H   0  0  0  0  0  0  0  0  0  0  0  0
    1.9917   -6.5051   -2.8081 H   0  0  0  0  0  0  0  0  0  0  0  0
    1.3278   -6.5350   -0.3999 H   0  0  0  0  0  0  0  0  0  0  0  0
    3.0288   -6.1186   -0.3184 H   0  0  0  0  0  0  0  0  0  0  0  0
    2.5040   -4.1292    1.1156 H   0  0  0  0  0  0  0  0  0  0  0  0
   -0.3695   -5.1772    1.0161 H   0  0  0  0  0  0  0  0  0  0  0  0
    0.2177   -3.8381    2.0274 H   0  0  0  0  0  0  0  0  0  0  0  0
    0.1843   -3.6638    0.2825 H   0  0  0  0  0  0  0  0  0  0  0  0
    3.0575   -6.2665    2.1935 H   0  0  0  0  0  0  0  0  0  0  0  0
    1.8955   -5.3347    3.1466 H   0  0  0  0  0  0  0  0  0  0  0  0
    1.3418   -6.7260    2.1961 H   0  0  0  0  0  0  0  0  0  0  0  0
    4.8091   -3.4863   -2.0189 H   0  0  0  0  0  0  0  0  0  0  0  0
  1  2  1  0  0  0  0
  1 16  1  0  0  0  0
  1 17  1  0  0  0  0
  1 18  1  0  0  0  0
  2  3  1  0  0  0  0
  2 19  1  0  0  0  0
  2 20  1  0  0  0  0
  3  4  1  0  0  0  0
  4  5  2  0  0  0  0
  4  6  1  0  0  0  0
  6 21  1  0  0  0  0
  7 10  1  0  0  0  0
  7 15  1  1  0  0  0
  7  8  1  0  0  0  0
  7  6  1  0  0  0  0
  8  9  2  0  0  0  0
  8 14  1  0  0  0  0
 10 11  1  0  0  0  0
 10 22  1  0  0  0  0
 10 23  1  0  0  0  0
 11 12  1  0  0  0  0
 11 13  1  0  0  0  0
 11 24  1  0  0  0  0
 12 25  1  0  0  0  0
 12 26  1  0  0  0  0
 12 27  1  0  0  0  0
 13 28  1  0  0  0  0
 13 29  1  0  0  0  0
 13 30  1  0  0  0  0
 14 31  1  0  0  0  0
M  END
>  <DRUGBANK_ID>
DB06839

>  <COMMON_NAME>
N-(ethoxycarbonyl)-L-leucine

$$$$
