
 OpenBabel10282417173D

 49 50  0  0  0  0  0  0  0  0999 V2000
    1.8947    0.4253    0.3546 C   0  0  0  0  0  0  0  0  0  0  0  0
    1.6077   -4.5452    1.0603 C   0  0  0  0  0  0  0  0  0  0  0  0
    1.3948   -0.9515    0.8322 C   0  0  0  0  0  0  0  0  0  0  0  0
    1.3277   -3.3253    2.0813 C   0  0  0  0  0  0  0  0  0  0  0  0
   -2.7576    0.7536    0.9949 C   0  0  0  0  0  0  0  0  0  0  0  0
   -2.2167   -6.0838   -2.5076 C   0  0  0  0  0  0  0  0  0  0  0  0
   -1.5890    0.9663    0.2948 C   0  0  0  0  0  0  0  0  0  0  0  0
   -3.2727   -0.5375    1.0617 C   0  0  0  0  0  0  0  0  0  0  0  0
   -2.6430   -4.7834   -2.8323 C   0  0  0  0  0  0  0  0  0  0  0  0
   -1.2988   -6.3199   -1.5216 C   0  0  0  0  0  0  0  0  0  0  0  0
   -1.1114   -0.0620   -0.5398 C   0  0  0  0  0  0  0  0  0  0  0  0
   -2.5535   -1.6218    0.5395 C   0  0  0  0  0  0  0  0  0  0  0  0
   -2.0554   -3.6788   -2.2448 C   0  0  0  0  0  0  0  0  0  0  0  0
   -0.8789   -5.2213   -0.8130 C   0  0  0  0  0  0  0  0  0  0  0  0
    3.2221   -2.0725    1.4393 C   0  0  0  0  0  0  0  0  0  0  0  0
    3.4002   -2.7268   -0.0166 C   0  0  0  0  0  0  0  0  0  0  0  0
   -1.4704   -1.4174   -0.3582 C   0  0  0  0  0  0  0  0  0  0  0  0
   -1.1352   -3.8919   -1.2658 C   0  0  0  0  0  0  0  0  0  0  0  0
    0.9792   -2.3751   -1.6245 C   0  0  0  0  0  0  0  0  0  0  0  0
   -0.4605   -2.6633   -0.6835 C   0  0  0  0  0  0  0  0  0  0  0  0
    1.8607   -1.8985    1.8650 N   0  0  0  0  0  0  0  0  0  0  0  0
    0.8362   -1.8796   -2.8156 O   0  0  0  0  0  0  0  0  0  0  0  0
   -0.4084   -3.0392    0.6395 O   0  0  0  0  0  0  0  0  0  0  0  0
    2.3174   -2.6365   -1.2513 O   0  0  0  0  0  0  0  0  0  0  0  0
    1.5594    1.2276    0.9971 H   0  0  0  0  0  0  0  0  0  0  0  0
    1.5099    0.6433   -0.6619 H   0  0  0  0  0  0  0  0  0  0  0  0
    2.9688    0.4209    0.1563 H   0  0  0  0  0  0  0  0  0  0  0  0
    2.6261   -4.9314    1.0810 H   0  0  0  0  0  0  0  0  0  0  0  0
    1.0406   -5.4513    1.2951 H   0  0  0  0  0  0  0  0  0  0  0  0
    1.4045   -4.3319    0.0023 H   0  0  0  0  0  0  0  0  0  0  0  0
    0.3951   -1.0539    0.5783 H   0  0  0  0  0  0  0  0  0  0  0  0
    1.7911   -1.3816   -0.0218 H   0  0  0  0  0  0  0  0  0  0  0  0
    1.7349   -3.7069    3.0214 H   0  0  0  0  0  0  0  0  0  0  0  0
    0.2804   -3.2754    2.4297 H   0  0  0  0  0  0  0  0  0  0  0  0
   -3.2883    1.6027    1.4169 H   0  0  0  0  0  0  0  0  0  0  0  0
   -2.6561   -6.9355   -3.0114 H   0  0  0  0  0  0  0  0  0  0  0  0
   -1.0784    1.9301    0.3459 H   0  0  0  0  0  0  0  0  0  0  0  0
   -4.2465   -0.7095    1.5054 H   0  0  0  0  0  0  0  0  0  0  0  0
   -3.4173   -4.6056   -3.5552 H   0  0  0  0  0  0  0  0  0  0  0  0
   -0.9338   -7.3036   -1.2334 H   0  0  0  0  0  0  0  0  0  0  0  0
   -0.2984    0.1935   -1.1991 H   0  0  0  0  0  0  0  0  0  0  0  0
   -2.8197   -2.6232    0.8839 H   0  0  0  0  0  0  0  0  0  0  0  0
   -2.3368   -2.6602   -2.5049 H   0  0  0  0  0  0  0  0  0  0  0  0
   -0.4246   -5.4805    0.1276 H   0  0  0  0  0  0  0  0  0  0  0  0
    3.6681   -1.0708    1.4861 H   0  0  0  0  0  0  0  0  0  0  0  0
    3.7193   -2.6212    2.2420 H   0  0  0  0  0  0  0  0  0  0  0  0
    4.3326   -2.3034   -0.4048 H   0  0  0  0  0  0  0  0  0  0  0  0
    3.6131   -3.7836    0.0558 H   0  0  0  0  0  0  0  0  0  0  0  0
   -0.9002   -3.8398    0.8646 H   0  0  0  0  0  0  0  0  0  0  0  0
  1 25  1  0  0  0  0
  1 26  1  0  0  0  0
  1 27  1  0  0  0  0
  2 28  1  0  0  0  0
  2 29  1  0  0  0  0
  2 30  1  0  0  0  0
  3  1  1  0  0  0  0
  3 31  1  0  0  0  0
  3 32  1  0  0  0  0
  4  2  1  0  0  0  0
  4 33  1  0  0  0  0
  4 34  1  0  0  0  0
  5 35  1  0  0  0  0
  6 36  1  0  0  0  0
  7  5  2  0  0  0  0
  7 37  1  0  0  0  0
  8  5  1  0  0  0  0
  8 38  1  0  0  0  0
  9  6  2  0  0  0  0
  9 39  1  0  0  0  0
 10  6  1  0  0  0  0
 10 40  1  0  0  0  0
 11  7  1  0  0  0  0
 11 41  1  0  0  0  0
 12  8  2  0  0  0  0
 12 42  1  0  0  0  0
 13  9  1  0  0  0  0
 13 43  1  0  0  0  0
 14 10  2  0  0  0  0
 14 44  1  0  0  0  0
 15 45  1  0  0  0  0
 15 46  1  0  0  0  0
 16 15  1  0  0  0  0
 16 47  1  0  0  0  0
 16 48  1  0  0  0  0
 17 11  2  0  0  0  0
 17 12  1  0  0  0  0
 18 13  2  0  0  0  0
 18 14  1  0  0  0  0
 20 17  1  0  0  0  0
 20 18  1  0  0  0  0
 20 19  1  0  0  0  0
 21  3  1  0  0  0  0
 21  4  1  0  0  0  0
 21 15  1  0  0  0  0
 22 19  2  0  0  0  0
 23 20  1  0  0  0  0
 23 49  1  0  0  0  0
 24 16  1  0  0  0  0
 24 19  1  0  0  0  0
M  END
>  <DRUGBANK_ID>
DB09023

>  <COMMON_NAME>
Benactyzine

>  <CAS_NUMBER>
302-40-9

>  <UNII>
595EG71R3F

>  <SYNONYMS>
Benactyzine

$$$$
