RM2
 OpenBabel10282417173D

 27 28  0  0  0  0  0  0  0  0999 V2000
   -5.9532    0.5477   -5.5995 C   0  0  0  0  0  0  0  0  0  0  0  0
   -5.4757    0.0225   -4.4768 C   0  0  0  0  0  0  0  0  0  0  0  0
   -4.8698   -1.3049   -4.1871 C   0  0  0  0  0  0  0  0  0  0  0  0
   -4.0124   -1.6476   -3.2992 N   0  0  0  0  0  0  0  0  0  0  0  0
   -3.2926   -0.7886   -2.3299 C   0  0  2  0  0  0  0  0  0  0  0  0
   -3.8684   -0.9533   -0.9123 C   0  0  0  0  0  0  0  0  0  0  0  0
   -4.6231    0.3464   -0.5436 C   0  0  0  0  0  0  0  0  0  0  0  0
   -4.2500    1.3018   -1.6441 C   0  0  0  0  0  0  0  0  0  0  0  0
   -3.3687    0.6938   -2.5512 C   0  0  0  0  0  0  0  0  0  0  0  0
   -2.9503    1.3191   -3.7272 C   0  0  0  0  0  0  0  0  0  0  0  0
   -4.8019    2.5343   -1.9785 C   0  0  0  0  0  0  0  0  0  0  0  0
   -4.4630    3.1407   -3.2029 C   0  0  0  0  0  0  0  0  0  0  0  0
   -3.5349    2.5368   -4.0695 C   0  0  0  0  0  0  0  0  0  0  0  0
   -5.7887    3.0687   -1.2041 O   0  0  0  0  0  0  0  0  0  0  0  0
   -2.2349   -1.0806   -2.3263 H   0  0  0  0  0  0  0  0  0  0  0  0
   -6.0983    0.0123   -6.5259 H   0  0  0  0  0  0  0  0  0  0  0  0
   -6.1507    1.6246   -5.5979 H   0  0  0  0  0  0  0  0  0  0  0  0
   -5.4684    0.6881   -3.6386 H   0  0  0  0  0  0  0  0  0  0  0  0
   -5.2218   -2.0979   -4.8692 H   0  0  0  0  0  0  0  0  0  0  0  0
   -4.5034   -1.8438   -0.8204 H   0  0  0  0  0  0  0  0  0  0  0  0
   -3.0477   -1.1026   -0.1957 H   0  0  0  0  0  0  0  0  0  0  0  0
   -5.6995    0.1491   -0.4856 H   0  0  0  0  0  0  0  0  0  0  0  0
   -4.2795    0.7225    0.4260 H   0  0  0  0  0  0  0  0  0  0  0  0
   -2.3993    0.7446   -4.4694 H   0  0  0  0  0  0  0  0  0  0  0  0
   -4.9923    4.0213   -3.5593 H   0  0  0  0  0  0  0  0  0  0  0  0
   -3.4003    2.9180   -5.0807 H   0  0  0  0  0  0  0  0  0  0  0  0
   -6.0334    3.9345   -1.5737 H   0  0  0  0  0  0  0  0  0  0  0  0
  1  2  2  0  0  0  0
  1 16  1  0  0  0  0
  1 17  1  0  0  0  0
  2  3  1  0  0  0  0
  2 18  1  0  0  0  0
  3  4  2  0  0  0  0
  3 19  1  0  0  0  0
  5  6  1  0  0  0  0
  5  9  1  0  0  0  0
  5 15  1  1  0  0  0
  5  4  1  0  0  0  0
  6  7  1  0  0  0  0
  6 20  1  0  0  0  0
  6 21  1  0  0  0  0
  7  8  1  0  0  0  0
  7 22  1  0  0  0  0
  7 23  1  0  0  0  0
  8  9  2  0  0  0  0
  8 11  1  0  0  0  0
  9 10  1  0  0  0  0
 10 13  2  0  0  0  0
 10 24  1  0  0  0  0
 11 12  2  0  0  0  0
 11 14  1  0  0  0  0
 12 13  1  0  0  0  0
 12 25  1  0  0  0  0
 13 26  1  0  0  0  0
 14 27  1  0  0  0  0
M  END
>  <DRUGBANK_ID>
DB08480

>  <COMMON_NAME>
4-HYDROXY-N-PROPARGYL-1(R)-AMINOINDAN

$$$$
