
 OpenBabel10282417123D

 27 27  0  0  0  0  0  0  0  0999 V2000
   -0.0881    1.9877    0.2670 O   0  0  0  0  0  0  0  0  0  0  0  0
    0.0611   -2.1788    0.5771 O   0  0  0  0  0  0  0  0  0  0  0  0
   -2.4321   -0.8104   -0.2539 O   0  0  0  0  0  0  0  0  0  0  0  0
    2.4494   -0.6497   -0.2700 O   0  0  0  0  0  0  0  0  0  0  0  0
   -2.4728    3.4458   -0.0466 O   0  0  0  0  0  0  0  0  0  0  0  0
    1.7412    2.5192   -2.3641 O   0  0  0  0  0  0  0  0  0  0  0  0
    0.6505    0.5960   -2.6487 N   0  0  0  0  0  0  0  0  0  0  0  0
    0.0074   -0.9013   -0.0708 C   0  0  1  0  0  0  0  0  0  0  0  0
   -1.2915   -0.1423    0.2880 C   0  0  1  0  0  0  0  0  0  0  0  0
    1.2540   -0.0465    0.2278 C   0  0  2  0  0  0  0  0  0  0  0  0
   -1.2814    1.3298   -0.1686 C   0  0  1  0  0  0  0  0  0  0  0  0
    1.0897    1.3958   -0.2880 C   0  0  1  0  0  0  0  0  0  0  0  0
   -2.5019    2.0829    0.3753 C   0  0  0  0  0  0  0  0  0  0  0  0
    1.2005    1.5481   -1.8333 C   0  0  0  0  0  0  0  0  0  0  0  0
   -0.1305    0.0122   -2.4005 H   0  0  0  0  0  0  0  0  0  0  0  0
    0.6766    0.8064   -3.6401 H   0  0  0  0  0  0  0  0  0  0  0  0
    0.1433   -2.0534    1.5356 H   0  0  0  0  0  0  0  0  0  0  0  0
   -2.3839   -0.8071   -1.2249 H   0  0  0  0  0  0  0  0  0  0  0  0
    2.4119   -0.6704   -1.2438 H   0  0  0  0  0  0  0  0  0  0  0  0
   -1.6314    3.8167    0.2811 H   0  0  0  0  0  0  0  0  0  0  0  0
   -0.0034   -1.2121   -1.1119 H   0  0  0  0  0  0  0  0  0  0  0  0
   -1.3964   -0.1730    1.3786 H   0  0  0  0  0  0  0  0  0  0  0  0
    1.3714   -0.0170    1.3199 H   0  0  0  0  0  0  0  0  0  0  0  0
   -1.3453    1.4196   -1.2580 H   0  0  0  0  0  0  0  0  0  0  0  0
    1.9402    1.9703    0.1072 H   0  0  0  0  0  0  0  0  0  0  0  0
   -3.4243    1.6391   -0.0110 H   0  0  0  0  0  0  0  0  0  0  0  0
   -2.5271    2.0694    1.4681 H   0  0  0  0  0  0  0  0  0  0  0  0
  1 11  1  0  0  0  0
  1 12  1  0  0  0  0
  2 17  1  0  0  0  0
  3 18  1  0  0  0  0
  4 19  1  0  0  0  0
  5 13  1  0  0  0  0
  5 20  1  0  0  0  0
  6 14  2  0  0  0  0
  7 14  1  0  0  0  0
  7 15  1  0  0  0  0
  7 16  1  0  0  0  0
  8  2  1  0  0  0  0
  8  9  1  0  0  0  0
  8 10  1  0  0  0  0
  8 21  1  6  0  0  0
  9  3  1  0  0  0  0
  9 11  1  0  0  0  0
  9 22  1  1  0  0  0
 10  4  1  0  0  0  0
 10 12  1  0  0  0  0
 10 23  1  1  0  0  0
 11 13  1  0  0  0  0
 11 24  1  6  0  0  0
 12 25  1  1  0  0  0
 12 14  1  0  0  0  0
 13 26  1  0  0  0  0
 13 27  1  0  0  0  0
M  END
>  <DRUGBANK_ID>
DB02720

>  <SECONDARY_ACCESSION_NUMBERS>
EXPT01605

>  <COMMON_NAME>
alpha-D-glucopyranosyl-2-carboxylic acid amide

>  <CAS_NUMBER>
58825-13-1

$$$$
