
 OpenBabel10282417133D

 17 16  0  0  0  0  0  0  0  0999 V2000
    0.9992    0.0588    0.0912 C   0  0  0  0  0  0  0  0  0  0  0  0
    0.4690   -0.9992    1.0440 C   0  0  0  0  0  0  0  0  0  0  0  0
    1.0481   -0.9028    2.4443 C   0  0  0  0  0  0  0  0  0  0  0  0
   -0.9406   -1.0047    1.1159 O   0  0  0  0  0  0  0  0  0  0  0  0
   -1.8161    0.2930    1.4521 P   0  0  0  0  0  0  0  0  0  0  0  0
   -2.2972    0.7173   -0.0086 O   0  0  0  0  0  0  0  0  0  0  0  0
   -3.0825   -0.4545    2.0711 O   0  0  0  0  0  0  0  0  0  0  0  0
   -1.2074    1.3635    2.2735 O   0  0  0  0  0  0  0  0  0  0  0  0
    0.7039    1.0656    0.3981 H   0  0  0  0  0  0  0  0  0  0  0  0
    0.5922   -0.1004   -0.9137 H   0  0  0  0  0  0  0  0  0  0  0  0
    2.0909    0.0220    0.0317 H   0  0  0  0  0  0  0  0  0  0  0  0
    0.7419   -1.9792    0.6350 H   0  0  0  0  0  0  0  0  0  0  0  0
    0.7521    0.0260    2.9371 H   0  0  0  0  0  0  0  0  0  0  0  0
    0.6602   -1.7198    3.0631 H   0  0  0  0  0  0  0  0  0  0  0  0
    2.1396   -0.9559    2.4327 H   0  0  0  0  0  0  0  0  0  0  0  0
   -1.6095    1.2331   -0.4624 H   0  0  0  0  0  0  0  0  0  0  0  0
   -2.7747   -1.2979    2.4489 H   0  0  0  0  0  0  0  0  0  0  0  0
  1  2  1  0  0  0  0
  1  9  1  0  0  0  0
  1 10  1  0  0  0  0
  1 11  1  0  0  0  0
  2  3  1  0  0  0  0
  2  4  1  0  0  0  0
  2 12  1  0  0  0  0
  3 13  1  0  0  0  0
  3 14  1  0  0  0  0
  3 15  1  0  0  0  0
  4  5  1  0  0  0  0
  5  6  1  0  0  0  0
  5  7  1  0  0  0  0
  5  8  2  0  0  0  0
  6 16  1  0  0  0  0
  7 17  1  0  0  0  0
M  END
>  <DRUGBANK_ID>
DB03976

>  <SECONDARY_ACCESSION_NUMBERS>
EXPT01937; EXPT02177; DB04251

>  <COMMON_NAME>
Phosphorylisopropane

>  <UNII>
7H0HVR60ZW

$$$$
