
 OpenBabel10282417123D

 17 18  0  0  0  0  0  0  0  0999 V2000
   -2.1670    0.6539    0.0145 C   0  0  0  0  0  0  0  0  0  0  0  0
   -1.0156    1.4712    0.0007 C   0  0  0  0  0  0  0  0  0  0  0  0
   -2.1273   -0.7734    0.0044 C   0  0  0  0  0  0  0  0  0  0  0  0
    1.4260    1.2221   -0.0009 C   0  0  0  0  0  0  0  0  0  0  0  0
    0.1558    0.7162   -0.0042 C   0  0  0  0  0  0  0  0  0  0  0  0
   -0.9097   -1.5015   -0.0129 C   0  0  0  0  0  0  0  0  0  0  0  0
    0.2686   -0.7313   -0.0079 C   0  0  0  0  0  0  0  0  0  0  0  0
    2.2346    0.1232    0.0084 N   0  0  0  0  0  0  0  0  0  0  0  0
    1.5771   -1.0461   -0.0029 N   0  0  0  0  0  0  0  0  0  0  0  0
   -0.8802   -2.9482   -0.0355 N   0  0  0  0  0  0  0  0  0  0  0  0
    0.2073   -3.5379   -0.0560 O   0  0  0  0  0  0  0  0  0  0  0  0
   -1.9777   -3.5265   -0.0372 O   0  0  0  0  0  0  0  0  0  0  0  0
   -3.1460    1.1377    0.0348 H   0  0  0  0  0  0  0  0  0  0  0  0
   -1.0663    2.5524    0.0007 H   0  0  0  0  0  0  0  0  0  0  0  0
   -3.0775   -1.3097    0.0110 H   0  0  0  0  0  0  0  0  0  0  0  0
    1.8347    2.2220    0.0026 H   0  0  0  0  0  0  0  0  0  0  0  0
    3.2492    0.0907    0.0237 H   0  0  0  0  0  0  0  0  0  0  0  0
  1 13  1  0  0  0  0
  2  1  2  0  0  0  0
  2 14  1  0  0  0  0
  3  1  1  0  0  0  0
  3 15  1  0  0  0  0
  4 16  1  0  0  0  0
  5  2  1  0  0  0  0
  5  4  2  0  0  0  0
  6  3  2  0  0  0  0
  7  5  1  0  0  0  0
  7  6  1  0  0  0  0
  8  4  1  0  0  0  0
  8 17  1  0  0  0  0
  9  7  2  0  0  0  0
  9  8  1  0  0  0  0
 10  6  1  0  0  0  0
 11 10  2  0  0  0  0
 12 10  2  0  0  0  0
M  END
>  <DRUGBANK_ID>
DB02207

>  <SECONDARY_ACCESSION_NUMBERS>
EXPT00314

>  <COMMON_NAME>
7-Nitroindazole

>  <CAS_NUMBER>
2942-42-9

>  <UNII>
UX0N37CMVH

$$$$
