
 OpenBabel10282417173D

 54 56  0  0  0  0  0  0  0  0999 V2000
   -1.2341    0.4692   -0.1672 O   0  0  0  0  0  0  0  0  0  0  0  0
    0.0493    0.9796   -0.0881 N   0  0  0  0  0  0  0  0  0  0  0  0
    0.8461   -0.0932   -0.0297 C   0  0  0  0  0  0  0  0  0  0  0  0
    2.3082    0.0474    0.0043 C   0  0  0  0  0  0  0  0  0  0  0  0
    0.1159   -1.2921   -0.0225 C   0  0  0  0  0  0  0  0  0  0  0  0
   -1.1835   -0.8870   -0.0704 C   0  0  0  0  0  0  0  0  0  0  0  0
   -2.4441   -1.6371    0.0350 C   0  0  0  0  0  0  0  0  0  0  0  0
   -3.1435   -1.2938    1.3577 C   0  0  0  0  0  0  0  0  0  0  0  0
   -3.6080    0.1743    1.4141 C   0  0  0  0  0  0  0  0  0  0  0  0
   -4.4393    0.4739    0.1938 C   0  0  0  0  0  0  0  0  0  0  0  0
   -5.5954   -0.5030    0.2313 C   0  0  0  0  0  0  0  0  0  0  0  0
   -6.7153   -0.0901    1.1795 C   0  0  0  0  0  0  0  0  0  0  0  0
   -7.1788    1.3643    1.0352 C   0  0  0  0  0  0  0  0  0  0  0  0
   -8.0312    1.6828   -0.0939 O   0  0  0  0  0  0  0  0  0  0  0  0
   -7.5745    1.4633   -1.3641 C   0  0  0  0  0  0  0  0  0  0  0  0
   -7.3466    0.1882   -1.8577 C   0  0  0  0  0  0  0  0  0  0  0  0
   -6.5504   -0.0119   -2.9966 C   0  0  0  0  0  0  0  0  0  0  0  0
   -6.4164    1.0247   -3.8866 C   0  0  0  0  0  0  0  0  0  0  0  0
   -7.0223    2.2464   -3.5847 C   0  0  0  0  0  0  0  0  0  0  0  0
   -7.5086    2.4953   -2.2847 C   0  0  0  0  0  0  0  0  0  0  0  0
   -5.6724    0.8564   -5.1461 C   0  0  0  0  0  0  0  0  0  0  0  0
   -4.8460    1.7011   -5.6320 N   0  0  0  0  0  0  0  0  0  0  0  0
   -4.5792    1.1824   -6.9842 C   0  0  2  0  0  0  0  0  0  0  0  0
   -5.3353    2.0845   -7.9523 C   0  0  0  0  0  0  0  0  0  0  0  0
   -5.1121   -0.2399   -6.9647 C   0  0  0  0  0  0  0  0  0  0  0  0
   -5.9685   -0.2854   -5.8260 O   0  0  0  0  0  0  0  0  0  0  0  0
    2.6526    0.5913   -0.8788 H   0  0  0  0  0  0  0  0  0  0  0  0
    2.6288    0.5744    0.9064 H   0  0  0  0  0  0  0  0  0  0  0  0
    2.7745   -0.9429   -0.0004 H   0  0  0  0  0  0  0  0  0  0  0  0
    0.4597   -2.3105    0.0347 H   0  0  0  0  0  0  0  0  0  0  0  0
   -3.0615   -1.4718   -0.8570 H   0  0  0  0  0  0  0  0  0  0  0  0
   -2.2350   -2.7116    0.0218 H   0  0  0  0  0  0  0  0  0  0  0  0
   -3.9827   -1.9867    1.4833 H   0  0  0  0  0  0  0  0  0  0  0  0
   -2.5148   -1.5064    2.2223 H   0  0  0  0  0  0  0  0  0  0  0  0
   -4.2004    0.3533    2.3163 H   0  0  0  0  0  0  0  0  0  0  0  0
   -2.7750    0.8754    1.4742 H   0  0  0  0  0  0  0  0  0  0  0  0
   -4.7451    1.5214    0.1334 H   0  0  0  0  0  0  0  0  0  0  0  0
   -3.8849    0.3538   -0.7459 H   0  0  0  0  0  0  0  0  0  0  0  0
   -5.7967   -0.6352   -0.8014 H   0  0  0  0  0  0  0  0  0  0  0  0
   -5.3839   -1.5563    0.4146 H   0  0  0  0  0  0  0  0  0  0  0  0
   -7.5670   -0.7688    1.0722 H   0  0  0  0  0  0  0  0  0  0  0  0
   -6.3455   -0.2484    2.2050 H   0  0  0  0  0  0  0  0  0  0  0  0
   -7.7828    1.5749    1.9299 H   0  0  0  0  0  0  0  0  0  0  0  0
   -6.3523    2.0808    1.1270 H   0  0  0  0  0  0  0  0  0  0  0  0
   -7.6209   -0.6717   -1.2541 H   0  0  0  0  0  0  0  0  0  0  0  0
   -6.0191   -0.9524   -3.1424 H   0  0  0  0  0  0  0  0  0  0  0  0
   -7.1174    3.0006   -4.3580 H   0  0  0  0  0  0  0  0  0  0  0  0
   -7.8681    3.4838   -2.0210 H   0  0  0  0  0  0  0  0  0  0  0  0
   -3.5098    1.1969   -7.2184 H   0  0  0  0  0  0  0  0  0  0  0  0
   -4.9722    3.1149   -7.8684 H   0  0  0  0  0  0  0  0  0  0  0  0
   -5.2089    1.7525   -8.9857 H   0  0  0  0  0  0  0  0  0  0  0  0
   -6.4074    2.1005   -7.7220 H   0  0  0  0  0  0  0  0  0  0  0  0
   -5.6688   -0.5020   -7.8720 H   0  0  0  0  0  0  0  0  0  0  0  0
   -4.3097   -0.9747   -6.8311 H   0  0  0  0  0  0  0  0  0  0  0  0
  2  1  1  0  0  0  0
  3  2  2  0  0  0  0
  3  4  1  0  0  0  0
  3  5  1  0  0  0  0
  4 27  1  0  0  0  0
  4 28  1  0  0  0  0
  4 29  1  0  0  0  0
  5  6  2  0  0  0  0
  5 30  1  0  0  0  0
  6  1  1  0  0  0  0
  7  6  1  0  0  0  0
  7  8  1  0  0  0  0
  7 31  1  0  0  0  0
  7 32  1  0  0  0  0
  8  9  1  0  0  0  0
  8 33  1  0  0  0  0
  8 34  1  0  0  0  0
  9 10  1  0  0  0  0
  9 35  1  0  0  0  0
  9 36  1  0  0  0  0
 10 11  1  0  0  0  0
 10 37  1  0  0  0  0
 10 38  1  0  0  0  0
 11 12  1  0  0  0  0
 11 39  1  0  0  0  0
 11 40  1  0  0  0  0
 12 13  1  0  0  0  0
 12 41  1  0  0  0  0
 12 42  1  0  0  0  0
 13 14  1  0  0  0  0
 13 43  1  0  0  0  0
 13 44  1  0  0  0  0
 15 14  1  0  0  0  0
 15 16  2  0  0  0  0
 15 20  1  0  0  0  0
 16 17  1  0  0  0  0
 16 45  1  0  0  0  0
 17 18  2  0  0  0  0
 17 46  1  0  0  0  0
 18 19  1  0  0  0  0
 19 20  2  0  0  0  0
 19 47  1  0  0  0  0
 20 48  1  0  0  0  0
 21 18  1  0  0  0  0
 21 22  2  0  0  0  0
 21 26  1  0  0  0  0
 23 22  1  0  0  0  0
 23 24  1  0  0  0  0
 23 25  1  0  0  0  0
 23 49  1  6  0  0  0
 24 50  1  0  0  0  0
 24 51  1  0  0  0  0
 24 52  1  0  0  0  0
 25 26  1  0  0  0  0
 25 53  1  0  0  0  0
 25 54  1  0  0  0  0
M  END
>  <DRUGBANK_ID>
DB08727

>  <COMMON_NAME>
3-Methyl-5-(7-{4-[(4R)-4-methyl-4,5-dihydro-1,3-oxazol-2-yl]phenoxy}heptyl)-1,2-oxazole

>  <CAS_NUMBER>
98524-87-9

$$$$
