
 OpenBabel10282417143D

 26 25  0  0  1  0  0  0  0  0999 V2000
    0.9229    0.0209   -0.0601 N   0  0  0  0  0  0  0  0  0  0  0  0
    0.4329   -0.4283   -1.3712 C   0  0  1  0  0  0  0  0  0  0  0  0
    0.9395   -1.8346   -1.6469 C   0  0  0  0  0  0  0  0  0  0  0  0
    0.4329   -2.7765   -0.5668 C   0  0  0  0  0  0  0  0  0  0  0  0
   -1.0871   -2.7765   -0.5668 C   0  0  0  0  0  0  0  0  0  0  0  0
   -1.7673   -3.9326   -0.7934 C   0  0  0  0  0  0  0  0  0  0  0  0
   -3.3673   -3.9326   -0.7934 B   0  5  0  0  0  0  0  0  0  0  0  0
   -3.8673   -4.3909   -2.1313 O   0  0  0  0  0  0  0  0  0  0  0  0
   -3.8673   -4.8621    0.2725 O   0  0  0  0  0  0  0  0  0  0  0  0
   -3.8673   -2.5448   -0.5214 O   0  0  0  0  0  0  0  0  0  0  0  0
   -1.0871   -0.4283   -1.3712 C   0  0  0  0  0  0  0  0  0  0  0  0
   -1.7971    0.3800   -2.2981 O   0  0  0  0  0  0  0  0  0  0  0  0
   -1.7226   -1.1517   -0.5417 O   0  0  0  0  0  0  0  0  0  0  0  0
    0.5829   -0.6111    0.6647 H   0  0  0  0  0  0  0  0  0  0  0  0
    1.9429    0.0209   -0.0601 H   0  0  0  0  0  0  0  0  0  0  0  0
    0.7895    0.2348   -2.1316 H   0  0  0  0  0  0  0  0  0  0  0  0
    0.5829   -2.1615   -2.6012 H   0  0  0  0  0  0  0  0  0  0  0  0
    2.0095   -1.8346   -1.6469 H   0  0  0  0  0  0  0  0  0  0  0  0
    0.7895   -3.7664   -0.7608 H   0  0  0  0  0  0  0  0  0  0  0  0
    0.7895   -2.4495    0.3876 H   0  0  0  0  0  0  0  0  0  0  0  0
   -1.6221   -1.8671   -0.3886 H   0  0  0  0  0  0  0  0  0  0  0  0
   -1.2323   -4.8419   -0.9716 H   0  0  0  0  0  0  0  0  0  0  0  0
   -3.5340   -3.7713   -2.8419 H   0  0  0  0  0  0  0  0  0  0  0  0
   -3.5340   -5.7873    0.0911 H   0  0  0  0  0  0  0  0  0  0  0  0
   -4.8673   -2.5448   -0.5214 H   0  0  0  0  0  0  0  0  0  0  0  0
   -1.2971    0.9492   -2.9508 H   0  0  0  0  0  0  0  0  0  0  0  0
  1 14  1  0  0  0  0
  1 15  1  0  0  0  0
  2  1  1  0  0  0  0
  2  3  1  0  0  0  0
  2 11  1  0  0  0  0
  2 16  1  6  0  0  0
  3  4  1  0  0  0  0
  3 17  1  0  0  0  0
  3 18  1  0  0  0  0
  4  5  1  0  0  0  0
  4 19  1  0  0  0  0
  4 20  1  0  0  0  0
  5  6  2  0  0  0  0
  5 21  1  0  0  0  0
  6  7  1  0  0  0  0
  6 22  1  0  0  0  0
  7  8  1  0  0  0  0
  7  9  1  0  0  0  0
  7 10  1  0  0  0  0
  8 23  1  0  0  0  0
  9 24  1  0  0  0  0
 10 25  1  0  0  0  0
 11 12  1  0  0  0  0
 11 13  2  0  0  0  0
 12 26  1  0  0  0  0
M  CHG  1   7  -1
M  END
>  <DRUGBANK_ID>
DB04585

>  <COMMON_NAME>
DEHYDRO-2(S)-AMINO-6-BORONOHEXANOIC ACID

$$$$
