
 OpenBabel10282417133D

 35 35  0  0  0  0  0  0  0  0999 V2000
   -0.0274    2.0368    0.2962 O   0  0  0  0  0  0  0  0  0  0  0  0
    2.4776   -0.6486   -0.2264 O   0  0  0  0  0  0  0  0  0  0  0  0
    0.0935   -2.1348    0.3345 O   0  0  0  0  0  0  0  0  0  0  0  0
   -2.4090   -0.7652   -0.2568 O   0  0  0  0  0  0  0  0  0  0  0  0
   -2.4809    3.4674    0.0008 O   0  0  0  0  0  0  0  0  0  0  0  0
    0.2929    2.0291   -2.5746 O   0  0  0  0  0  0  0  0  0  0  0  0
    4.2654    3.5342    0.0608 O   0  0  0  0  0  0  0  0  0  0  0  0
    3.1710    2.9674   -1.7661 O   0  0  0  0  0  0  0  0  0  0  0  0
    2.3019    2.2653    0.2423 N   0  0  0  0  0  0  0  0  0  0  0  0
    2.1091    0.7165   -2.5160 N   0  0  0  0  0  0  0  0  0  0  0  0
    1.2762    0.0002    0.2191 C   0  0  1  0  0  0  0  0  0  0  0  0
    1.1653    1.4762   -0.2913 C   0  0  1  0  0  0  0  0  0  0  0  0
    0.0298   -0.8050   -0.1973 C   0  0  2  0  0  0  0  0  0  0  0  0
   -1.2556   -0.1023    0.2653 C   0  0  1  0  0  0  0  0  0  0  0  0
   -1.2405    1.3751   -0.1474 C   0  0  1  0  0  0  0  0  0  0  0  0
   -2.4801    2.0985    0.3947 C   0  0  0  0  0  0  0  0  0  0  0  0
    1.1340    1.4563   -1.8874 C   0  0  0  0  0  0  0  0  0  0  0  0
    3.2157    2.9281   -0.5418 C   0  0  0  0  0  0  0  0  0  0  0  0
    4.4724    3.5981    1.4678 C   0  0  0  0  0  0  0  0  0  0  0  0
    2.4098    2.2724    1.2429 H   0  0  0  0  0  0  0  0  0  0  0  0
    3.0285    0.8057   -2.0838 H   0  0  0  0  0  0  0  0  0  0  0  0
    2.1558    0.9749   -3.4972 H   0  0  0  0  0  0  0  0  0  0  0  0
    2.3514   -0.8439   -1.1780 H   0  0  0  0  0  0  0  0  0  0  0  0
    0.1064   -2.0852    1.3059 H   0  0  0  0  0  0  0  0  0  0  0  0
   -2.3539   -0.7829   -1.2302 H   0  0  0  0  0  0  0  0  0  0  0  0
   -1.6151    3.8318    0.2591 H   0  0  0  0  0  0  0  0  0  0  0  0
    1.3350   -0.0109    1.3165 H   0  0  0  0  0  0  0  0  0  0  0  0
    0.0106   -0.9448   -1.2839 H   0  0  0  0  0  0  0  0  0  0  0  0
   -1.3216   -0.1784    1.3570 H   0  0  0  0  0  0  0  0  0  0  0  0
   -1.3327    1.4486   -1.2319 H   0  0  0  0  0  0  0  0  0  0  0  0
   -3.3919    1.6419   -0.0067 H   0  0  0  0  0  0  0  0  0  0  0  0
   -2.5184    2.0624    1.4858 H   0  0  0  0  0  0  0  0  0  0  0  0
    3.6306    4.1008    1.9461 H   0  0  0  0  0  0  0  0  0  0  0  0
    4.6383    2.5959    1.8672 H   0  0  0  0  0  0  0  0  0  0  0  0
    5.3763    4.1938    1.6290 H   0  0  0  0  0  0  0  0  0  0  0  0
  1 12  1  0  0  0  0
  1 15  1  0  0  0  0
  2 23  1  0  0  0  0
  3 24  1  0  0  0  0
  4 25  1  0  0  0  0
  5 16  1  0  0  0  0
  5 26  1  0  0  0  0
  6 17  2  0  0  0  0
  7 18  1  0  0  0  0
  7 19  1  0  0  0  0
  8 18  2  0  0  0  0
  9 18  1  0  0  0  0
  9 20  1  0  0  0  0
 10 17  1  0  0  0  0
 10 21  1  0  0  0  0
 10 22  1  0  0  0  0
 11  2  1  0  0  0  0
 11 12  1  0  0  0  0
 11 13  1  0  0  0  0
 11 27  1  1  0  0  0
 12  9  1  0  0  0  0
 12 17  1  6  0  0  0
 13  3  1  0  0  0  0
 13 14  1  0  0  0  0
 13 28  1  6  0  0  0
 14  4  1  0  0  0  0
 14 15  1  0  0  0  0
 14 29  1  1  0  0  0
 15 16  1  0  0  0  0
 15 30  1  6  0  0  0
 16 31  1  0  0  0  0
 16 32  1  0  0  0  0
 19 33  1  0  0  0  0
 19 34  1  0  0  0  0
 19 35  1  0  0  0  0
M  END
>  <DRUGBANK_ID>
DB04013

>  <SECONDARY_ACCESSION_NUMBERS>
EXPT01017

>  <COMMON_NAME>
1-Deoxy-1-methoxycarbamido-beta-D-gluco-2-heptulopyranosonamide

$$$$
