
 OpenBabel10282417193D

 53 54  0  0  1  0  0  0  0  0999 V2000
    2.8680    0.4877   -1.7005 C   0  0  0  0  0  0  0  0  0  0  0  0
    2.3967   -0.7900   -2.3465 C   0  0  0  0  0  0  0  0  0  0  0  0
    2.8905   -1.9344   -1.6397 O   0  0  0  0  0  0  0  0  0  0  0  0
    2.2552   -2.2464   -0.3706 C   0  0  2  0  0  0  0  0  0  0  0  0
    0.7488   -2.4444   -0.6136 C   0  0  0  0  0  0  0  0  0  0  0  0
    0.2696   -3.7633   -0.3367 O   0  0  0  0  0  0  0  0  0  0  0  0
    0.6566   -4.7289   -1.2225 C   0  0  0  0  0  0  0  0  0  0  0  0
    1.9629   -4.8997   -1.6803 C   0  0  0  0  0  0  0  0  0  0  0  0
    2.3316   -5.9691   -2.4649 C   0  0  0  0  0  0  0  0  0  0  0  0
    1.3796   -6.9060   -2.8251 C   0  0  0  0  0  0  0  0  0  0  0  0
    0.0661   -6.7737   -2.3431 C   0  0  0  0  0  0  0  0  0  0  0  0
   -0.3041   -5.6684   -1.5725 C   0  0  0  0  0  0  0  0  0  0  0  0
    1.7677   -7.9923   -3.7782 C   0  0  0  0  0  0  0  0  0  0  0  0
    1.6001   -9.2348   -3.2592 F   0  0  0  0  0  0  0  0  0  0  0  0
    1.0306   -7.9414   -4.9199 F   0  0  0  0  0  0  0  0  0  0  0  0
    3.0706   -7.9193   -4.1757 F   0  0  0  0  0  0  0  0  0  0  0  0
    2.7277   -1.3054    0.7390 C   0  0  0  0  0  0  0  0  0  0  0  0
    2.2627   -1.6532    2.4549 S   0  0  0  0  0  0  0  0  0  0  0  0
    0.4853   -1.5211    2.3591 C   0  0  0  0  0  0  0  0  0  0  0  0
   -0.2062   -2.7276    2.3889 C   0  0  0  0  0  0  0  0  0  0  0  0
   -1.5954   -2.7623    2.3795 C   0  0  0  0  0  0  0  0  0  0  0  0
   -2.3400   -1.5870    2.3747 C   0  0  0  0  0  0  0  0  0  0  0  0
   -1.6587   -0.3570    2.3975 C   0  0  0  0  0  0  0  0  0  0  0  0
   -0.2465   -0.3287    2.2850 C   0  0  0  0  0  0  0  0  0  0  0  0
   -2.3919    0.9214    2.7097 C   0  0  0  0  0  0  0  0  0  0  0  0
   -3.7104   -1.5440    2.3475 O   0  0  0  0  0  0  0  0  0  0  0  0
   -4.4081   -2.7757    2.2125 C   0  0  0  0  0  0  0  0  0  0  0  0
   -4.1364   -3.5785    0.9392 C   0  0  0  0  0  0  0  0  0  0  0  0
   -3.7182   -4.7149    0.8884 O   0  0  0  0  0  0  0  0  0  0  0  0
   -4.3823   -2.8850   -0.1938 O   0  0  0  0  0  0  0  0  0  0  0  0
    2.2992    0.6956   -0.8005 H   0  0  0  0  0  0  0  0  0  0  0  0
    2.6746    1.3599   -2.3188 H   0  0  0  0  0  0  0  0  0  0  0  0
    3.9263    0.4056   -1.4370 H   0  0  0  0  0  0  0  0  0  0  0  0
    1.3085   -0.7777   -2.4430 H   0  0  0  0  0  0  0  0  0  0  0  0
    2.7792   -0.8472   -3.3704 H   0  0  0  0  0  0  0  0  0  0  0  0
    2.6926   -3.1868   -0.0171 H   0  0  0  0  0  0  0  0  0  0  0  0
    0.1974   -1.7394   -0.0014 H   0  0  0  0  0  0  0  0  0  0  0  0
    0.3955   -2.2051   -1.6163 H   0  0  0  0  0  0  0  0  0  0  0  0
    2.7918   -4.2516   -1.4681 H   0  0  0  0  0  0  0  0  0  0  0  0
    3.3712   -6.0394   -2.7801 H   0  0  0  0  0  0  0  0  0  0  0  0
   -0.6736   -7.5366   -2.5711 H   0  0  0  0  0  0  0  0  0  0  0  0
   -1.3361   -5.5406   -1.2529 H   0  0  0  0  0  0  0  0  0  0  0  0
    3.8250   -1.2382    0.6663 H   0  0  0  0  0  0  0  0  0  0  0  0
    2.3388   -0.3151    0.6173 H   0  0  0  0  0  0  0  0  0  0  0  0
    0.3330   -3.6708    2.3316 H   0  0  0  0  0  0  0  0  0  0  0  0
   -2.0420   -3.7478    2.3986 H   0  0  0  0  0  0  0  0  0  0  0  0
    0.2581    0.6296    2.1728 H   0  0  0  0  0  0  0  0  0  0  0  0
   -1.9568    1.3496    3.6210 H   0  0  0  0  0  0  0  0  0  0  0  0
   -2.3250    1.6458    1.8957 H   0  0  0  0  0  0  0  0  0  0  0  0
   -3.4497    0.7501    2.9367 H   0  0  0  0  0  0  0  0  0  0  0  0
   -4.2243   -3.4050    3.0918 H   0  0  0  0  0  0  0  0  0  0  0  0
   -5.4824   -2.5567    2.2262 H   0  0  0  0  0  0  0  0  0  0  0  0
   -4.0739   -3.4796   -0.9088 H   0  0  0  0  0  0  0  0  0  0  0  0
  1  2  1  0  0  0  0
  1 31  1  0  0  0  0
  1 32  1  0  0  0  0
  1 33  1  0  0  0  0
  2  3  1  0  0  0  0
  2 34  1  0  0  0  0
  2 35  1  0  0  0  0
  4 17  1  0  0  0  0
  4 36  1  1  0  0  0
  4  5  1  0  0  0  0
  4  3  1  0  0  0  0
  5  6  1  0  0  0  0
  5 37  1  0  0  0  0
  5 38  1  0  0  0  0
  6  7  1  0  0  0  0
  7  8  2  0  0  0  0
  7 12  1  0  0  0  0
  8  9  1  0  0  0  0
  8 39  1  0  0  0  0
  9 10  2  0  0  0  0
  9 40  1  0  0  0  0
 10 11  1  0  0  0  0
 10 13  1  0  0  0  0
 11 12  2  0  0  0  0
 11 41  1  0  0  0  0
 12 42  1  0  0  0  0
 13 14  1  0  0  0  0
 13 15  1  0  0  0  0
 13 16  1  0  0  0  0
 17 18  1  0  0  0  0
 17 43  1  0  0  0  0
 17 44  1  0  0  0  0
 18 19  1  0  0  0  0
 19 20  2  0  0  0  0
 19 24  1  0  0  0  0
 20 21  1  0  0  0  0
 20 45  1  0  0  0  0
 21 22  2  0  0  0  0
 21 46  1  0  0  0  0
 22 23  1  0  0  0  0
 22 26  1  0  0  0  0
 23 24  2  0  0  0  0
 23 25  1  0  0  0  0
 24 47  1  0  0  0  0
 25 48  1  0  0  0  0
 25 49  1  0  0  0  0
 25 50  1  0  0  0  0
 26 27  1  0  0  0  0
 27 28  1  0  0  0  0
 27 51  1  0  0  0  0
 27 52  1  0  0  0  0
 28 29  2  0  0  0  0
 28 30  1  0  0  0  0
 30 53  1  0  0  0  0
M  END
>  <DRUGBANK_ID>
DB12390

>  <COMMON_NAME>
Seladelpar

>  <CAS_NUMBER>
851528-79-5

>  <UNII>
7C00L34NB9

>  <SYNONYMS>
Seladelpar

$$$$
