
 OpenBabel10282417183D

 47 49  0  0  1  0  0  0  0  0999 V2000
    0.9191    0.1269    0.0743 C   0  0  0  0  0  0  0  0  0  0  0  0
    0.4238    1.1735   -0.9078 C   0  0  0  0  0  0  0  0  0  0  0  0
    0.8942    0.9365   -2.3596 C   0  0  0  0  0  0  0  0  0  0  0  0
    0.4501   -0.3507   -3.0579 C   0  0  0  0  0  0  0  0  0  0  0  0
    0.8126   -1.6325   -2.6903 C   0  0  0  0  0  0  0  0  0  0  0  0
    0.4733   -2.8500   -3.3774 C   0  0  0  0  0  0  0  0  0  0  0  0
   -0.2628   -2.8193   -4.6061 C   0  0  0  0  0  0  0  0  0  0  0  0
   -0.7576   -1.4579   -4.8686 C   0  0  0  0  0  0  0  0  0  0  0  0
   -0.3822   -0.2634   -4.2077 C   0  0  0  0  0  0  0  0  0  0  0  0
   -1.7668   -1.1610   -5.8526 O   0  0  0  0  0  0  0  0  0  0  0  0
   -2.6604   -2.2664   -5.8309 C   0  0  0  0  0  0  0  0  0  0  0  0
   -1.7150   -3.4101   -6.0895 C   0  0  1  0  0  0  0  0  0  0  0  0
   -0.6875   -4.2196   -5.4098 C   0  0  1  0  0  0  0  0  0  0  0  0
   -0.6307   -5.1095   -7.0352 C   0  0  0  0  0  0  0  0  0  0  0  0
   -1.2821   -4.6545   -8.2083 C   0  0  0  0  0  0  0  0  0  0  0  0
   -1.0656   -3.1399   -8.5301 C   0  0  0  0  0  0  0  0  0  0  0  0
   -0.5440   -2.7982   -7.2019 C   0  0  0  0  0  0  0  0  0  0  0  0
   -2.7412   -5.1967   -8.3298 C   0  0  0  0  0  0  0  0  0  0  0  0
   -3.8060   -2.4744   -6.8992 C   0  0  0  0  0  0  0  0  0  0  0  0
   -3.5787   -1.9214   -4.6682 C   0  0  0  0  0  0  0  0  0  0  0  0
    0.7678   -4.0386   -2.8284 O   0  0  0  0  0  0  0  0  0  0  0  0
    0.4689   -0.8428   -0.1411 H   0  0  0  0  0  0  0  0  0  0  0  0
    0.6342    0.3736    1.1006 H   0  0  0  0  0  0  0  0  0  0  0  0
    2.0100    0.0380    0.0308 H   0  0  0  0  0  0  0  0  0  0  0  0
   -0.6693    1.2320   -0.8664 H   0  0  0  0  0  0  0  0  0  0  0  0
    0.7959    2.1523   -0.5651 H   0  0  0  0  0  0  0  0  0  0  0  0
    0.5706    1.8141   -2.9356 H   0  0  0  0  0  0  0  0  0  0  0  0
    1.9935    0.9807   -2.3846 H   0  0  0  0  0  0  0  0  0  0  0  0
    1.4246   -1.7400   -1.7696 H   0  0  0  0  0  0  0  0  0  0  0  0
   -0.7424    0.6798   -4.5588 H   0  0  0  0  0  0  0  0  0  0  0  0
   -2.4181   -4.2327   -6.2227 H   0  0  0  0  0  0  0  0  0  0  0  0
   -1.0147   -4.9977   -4.7149 H   0  0  0  0  0  0  0  0  0  0  0  0
    0.2627   -5.6499   -7.3569 H   0  0  0  0  0  0  0  0  0  0  0  0
   -1.4464   -2.7874   -9.4902 H   0  0  0  0  0  0  0  0  0  0  0  0
   -0.1264   -2.7247   -8.9147 H   0  0  0  0  0  0  0  0  0  0  0  0
    0.4632   -3.3547   -7.1653 H   0  0  0  0  0  0  0  0  0  0  0  0
   -0.0365   -1.8521   -6.9865 H   0  0  0  0  0  0  0  0  0  0  0  0
   -3.4679   -4.6918   -7.6999 H   0  0  0  0  0  0  0  0  0  0  0  0
   -3.2152   -5.1998   -9.3134 H   0  0  0  0  0  0  0  0  0  0  0  0
   -2.7596   -6.2084   -7.9123 H   0  0  0  0  0  0  0  0  0  0  0  0
   -4.3461   -3.3975   -6.5919 H   0  0  0  0  0  0  0  0  0  0  0  0
   -4.5958   -1.7227   -6.8843 H   0  0  0  0  0  0  0  0  0  0  0  0
   -3.5156   -2.5963   -7.9430 H   0  0  0  0  0  0  0  0  0  0  0  0
   -3.0964   -1.7639   -3.7102 H   0  0  0  0  0  0  0  0  0  0  0  0
   -3.9896   -0.9286   -4.9455 H   0  0  0  0  0  0  0  0  0  0  0  0
   -4.4415   -2.5829   -4.5672 H   0  0  0  0  0  0  0  0  0  0  0  0
    1.5497   -3.8801   -2.2216 H   0  0  0  0  0  0  0  0  0  0  0  0
  1  2  1  0  0  0  0
  1 22  1  0  0  0  0
  1 23  1  0  0  0  0
  1 24  1  0  0  0  0
  2  3  1  0  0  0  0
  2 25  1  0  0  0  0
  2 26  1  0  0  0  0
  3 27  1  0  0  0  0
  3 28  1  0  0  0  0
  3  4  1  0  0  0  0
  4  5  2  0  0  0  0
  4  9  1  0  0  0  0
  5  6  1  0  0  0  0
  5 29  1  0  0  0  0
  6  7  2  0  0  0  0
  6 21  1  0  0  0  0
  7  8  1  0  0  0  0
  8  9  2  0  0  0  0
  8 10  1  0  0  0  0
  9 30  1  0  0  0  0
 10 11  1  0  0  0  0
 11 12  1  0  0  0  0
 11 19  1  0  0  0  0
 11 20  1  0  0  0  0
 12 13  1  0  0  0  0
 12 17  1  0  0  0  0
 12 31  1  1  0  0  0
 13  7  1  0  0  0  0
 13 14  1  0  0  0  0
 13 32  1  1  0  0  0
 14 15  2  0  0  0  0
 14 33  1  0  0  0  0
 15 16  1  0  0  0  0
 15 18  1  0  0  0  0
 16 17  1  0  0  0  0
 16 34  1  0  0  0  0
 16 35  1  0  0  0  0
 17 36  1  0  0  0  0
 17 37  1  0  0  0  0
 18 38  1  0  0  0  0
 18 39  1  0  0  0  0
 18 40  1  0  0  0  0
 19 41  1  0  0  0  0
 19 42  1  0  0  0  0
 19 43  1  0  0  0  0
 20 44  1  0  0  0  0
 20 45  1  0  0  0  0
 20 46  1  0  0  0  0
 21 47  1  0  0  0  0
M  END
>  <DRUGBANK_ID>
DB11755

>  <COMMON_NAME>
Tetrahydrocannabivarin

>  <CAS_NUMBER>
31262-37-0

>  <UNII>
I5YE3I47D8

>  <SYNONYMS>
THCV

$$$$
