505
 OpenBabel10282417103D

 59 60  0  0  1  0  0  0  0  0999 V2000
    1.1261   -0.1802    0.2573 O   0  0  0  0  0  0  0  0  0  0  0  0
   -0.6528    3.0545   -1.0270 N   0  3  0  0  0  0  0  0  0  0  0  0
    1.1139    0.4374    2.5318 C   0  0  0  0  0  0  0  0  0  0  0  0
    0.4522    0.7068    1.1708 C   0  0  3  0  0  0  0  0  0  0  0  0
    1.0590    2.2385    0.7082 C   0  0  0  0  0  0  0  0  0  0  0  0
    0.8303    2.8749   -0.7254 C   0  0  0  0  0  0  0  0  0  0  0  0
    0.7930   -1.0298    2.8436 C   0  0  0  0  0  0  0  0  0  0  0  0
    0.7610    1.5160    3.5759 C   0  0  0  0  0  0  0  0  0  0  0  0
    1.0793   -1.3975    4.2597 C   0  0  0  0  0  0  0  0  0  0  0  0
    0.8746    1.0148    4.9992 C   0  0  0  0  0  0  0  0  0  0  0  0
    0.3895   -0.4191    5.1968 C   0  0  0  0  0  0  0  0  0  0  0  0
   -1.3284    3.9333    0.1626 C   0  0  0  0  0  0  0  0  0  0  0  0
   -1.2168    3.4973   -2.3637 C   0  0  0  0  0  0  0  0  0  0  0  0
   -1.1683    1.6903   -0.9460 C   0  0  0  0  0  0  0  0  0  0  0  0
   -1.2693    0.2524    1.3483 C   0  0  0  0  0  0  0  0  0  0  0  0
   -0.8644    5.3629    0.0438 C   0  0  0  0  0  0  0  0  0  0  0  0
   -0.8529    2.5412   -3.4817 C   0  0  0  0  0  0  0  0  0  0  0  0
   -0.4316    0.4707   -1.7205 C   0  0  0  0  0  0  0  0  0  0  0  0
   -2.1598   -0.2377    0.3082 C   0  0  0  0  0  0  0  0  0  0  0  0
   -2.0015    0.5805    2.4706 C   0  0  0  0  0  0  0  0  0  0  0  0
   -3.5259    0.1403    0.2290 C   0  0  0  0  0  0  0  0  0  0  0  0
   -3.4182    0.6478    2.4947 C   0  0  0  0  0  0  0  0  0  0  0  0
   -4.1572    0.5752    1.3134 C   0  0  0  0  0  0  0  0  0  0  0  0
    2.0887   -0.0107    0.2653 H   0  0  0  0  0  0  0  0  0  0  0  0
    2.2123    0.4890    2.4348 H   0  0  0  0  0  0  0  0  0  0  0  0
    0.8079    2.9929    1.4584 H   0  0  0  0  0  0  0  0  0  0  0  0
    2.1630    2.1754    0.7717 H   0  0  0  0  0  0  0  0  0  0  0  0
    1.3186    3.8462   -0.8510 H   0  0  0  0  0  0  0  0  0  0  0  0
    1.2818    2.2415   -1.4846 H   0  0  0  0  0  0  0  0  0  0  0  0
   -0.2575   -1.2756    2.6831 H   0  0  0  0  0  0  0  0  0  0  0  0
    1.3259   -1.6864    2.1437 H   0  0  0  0  0  0  0  0  0  0  0  0
    1.3992    2.4029    3.4553 H   0  0  0  0  0  0  0  0  0  0  0  0
   -0.2173    1.9721    3.4170 H   0  0  0  0  0  0  0  0  0  0  0  0
    0.6965   -2.4111    4.4163 H   0  0  0  0  0  0  0  0  0  0  0  0
    2.1604   -1.4044    4.4100 H   0  0  0  0  0  0  0  0  0  0  0  0
    0.3089    1.6864    5.6543 H   0  0  0  0  0  0  0  0  0  0  0  0
    1.9275    1.0820    5.2873 H   0  0  0  0  0  0  0  0  0  0  0  0
   -0.6977   -0.4703    5.0532 H   0  0  0  0  0  0  0  0  0  0  0  0
    0.5868   -0.7268    6.2245 H   0  0  0  0  0  0  0  0  0  0  0  0
   -2.4175    3.8280    0.0988 H   0  0  0  0  0  0  0  0  0  0  0  0
   -1.0452    3.5273    1.1447 H   0  0  0  0  0  0  0  0  0  0  0  0
   -2.3151    3.4675   -2.2383 H   0  0  0  0  0  0  0  0  0  0  0  0
   -0.9113    4.5136   -2.5678 H   0  0  0  0  0  0  0  0  0  0  0  0
   -1.0414    1.6858    0.0930 H   0  0  0  0  0  0  0  0  0  0  0  0
   -2.2507    1.7490   -1.0621 H   0  0  0  0  0  0  0  0  0  0  0  0
   -1.2084    5.7807   -0.9010 H   0  0  0  0  0  0  0  0  0  0  0  0
   -1.2636    5.9800    0.8533 H   0  0  0  0  0  0  0  0  0  0  0  0
    0.2252    5.4222    0.0879 H   0  0  0  0  0  0  0  0  0  0  0  0
   -1.5056    1.6645   -3.4433 H   0  0  0  0  0  0  0  0  0  0  0  0
   -1.0696    2.9447   -4.4606 H   0  0  0  0  0  0  0  0  0  0  0  0
    0.1976    2.2403   -3.4273 H   0  0  0  0  0  0  0  0  0  0  0  0
    0.6201    0.5822   -1.9723 H   0  0  0  0  0  0  0  0  0  0  0  0
   -0.3706   -0.5044   -1.2160 H   0  0  0  0  0  0  0  0  0  0  0  0
   -0.9994    0.1486   -2.5920 H   0  0  0  0  0  0  0  0  0  0  0  0
   -1.9377   -0.6559   -0.6439 H   0  0  0  0  0  0  0  0  0  0  0  0
   -1.5610    0.7529    3.4423 H   0  0  0  0  0  0  0  0  0  0  0  0
   -4.0127    0.1323   -0.7654 H   0  0  0  0  0  0  0  0  0  0  0  0
   -3.9187    0.7669    3.4330 H   0  0  0  0  0  0  0  0  0  0  0  0
   -5.2273    0.7928    1.2822 H   0  0  0  0  0  0  0  0  0  0  0  0
  1  4  1  0  0  0  0
  1 24  1  0  0  0  0
  2  6  1  0  0  0  0
  2 12  1  0  0  0  0
  2 13  1  0  0  0  0
  2 14  1  0  0  0  0
  3  4  1  0  0  0  0
  3  7  1  0  0  0  0
  3  8  1  0  0  0  0
  3 25  1  0  0  0  0
  4  5  1  0  0  0  0
  4 15  1  0  0  0  0
  5  6  1  0  0  0  0
  5 26  1  0  0  0  0
  5 27  1  0  0  0  0
  6 28  1  0  0  0  0
  6 29  1  0  0  0  0
  7  9  1  0  0  0  0
  7 30  1  0  0  0  0
  7 31  1  0  0  0  0
  8 10  1  0  0  0  0
  8 32  1  0  0  0  0
  8 33  1  0  0  0  0
  9 11  1  0  0  0  0
  9 34  1  0  0  0  0
  9 35  1  0  0  0  0
 10 11  1  0  0  0  0
 10 36  1  0  0  0  0
 10 37  1  0  0  0  0
 11 38  1  0  0  0  0
 11 39  1  0  0  0  0
 12 16  1  0  0  0  0
 12 40  1  0  0  0  0
 12 41  1  0  0  0  0
 13 17  1  0  0  0  0
 13 42  1  0  0  0  0
 13 43  1  0  0  0  0
 14 18  1  0  0  0  0
 14 44  1  0  0  0  0
 14 45  1  0  0  0  0
 15 19  2  0  0  0  0
 15 20  1  0  0  0  0
 16 46  1  0  0  0  0
 16 47  1  0  0  0  0
 16 48  1  0  0  0  0
 17 49  1  0  0  0  0
 17 50  1  0  0  0  0
 17 51  1  0  0  0  0
 18 52  1  0  0  0  0
 18 53  1  0  0  0  0
 18 54  1  0  0  0  0
 19 21  1  0  0  0  0
 19 55  1  0  0  0  0
 20 22  2  0  0  0  0
 20 56  1  0  0  0  0
 21 23  2  0  0  0  0
 21 57  1  0  0  0  0
 22 23  1  0  0  0  0
 22 58  1  0  0  0  0
 23 59  1  0  0  0  0
M  CHG  1   2   1
M  END
>  <DRUGBANK_ID>
DB00505

>  <SECONDARY_ACCESSION_NUMBERS>
APRD00286

>  <COMMON_NAME>
Tridihexethyl

>  <CAS_NUMBER>
60-49-1

>  <UNII>
7HE50A367X

$$$$
