
 OpenBabel10282417163D

 53 55  0  0  0  0  0  0  0  0999 V2000
    1.6505   -0.0002   -0.0959 Br  0  0  0  0  0  0  0  0  0  0  0  0
   -7.5425   -4.5098    0.8553 O   0  0  0  0  0  0  0  0  0  0  0  0
   -5.5230   -7.2109    2.4793 O   0  0  0  0  0  0  0  0  0  0  0  0
   -3.6177   -5.3194    0.4287 N   0  0  0  0  0  0  0  0  0  0  0  0
   -4.3536   -0.0478    0.0290 N   0  0  0  0  0  0  0  0  0  0  0  0
   -0.3806    2.4298   -0.2997 N   0  0  0  0  0  0  0  0  0  0  0  0
   -2.3491    1.1464    0.0313 N   0  0  0  0  0  0  0  0  0  0  0  0
   -2.2852   -1.1934   -0.0007 N   0  0  0  0  0  0  0  0  0  0  0  0
   -5.6937   -6.0984    1.5772 C   0  0  2  0  0  0  0  0  0  0  0  0
   -4.3950   -5.2634    1.6751 C   0  0  0  0  0  0  0  0  0  0  0  0
   -7.0763   -5.4619    1.8301 C   0  0  0  0  0  0  0  0  0  0  0  0
   -2.5227   -4.3569    0.4909 C   0  0  0  0  0  0  0  0  0  0  0  0
   -3.1314   -6.6669    0.2055 C   0  0  0  0  0  0  0  0  0  0  0  0
   -6.9277   -3.2909    0.8073 C   0  0  0  0  0  0  0  0  0  0  0  0
   -6.1154   -2.7890    1.8127 C   0  0  0  0  0  0  0  0  0  0  0  0
   -7.0560   -2.5532   -0.3653 C   0  0  0  0  0  0  0  0  0  0  0  0
   -5.2059   -1.1185    0.3087 C   0  0  0  0  0  0  0  0  0  0  0  0
   -5.1705   -1.7983    1.5212 C   0  0  0  0  0  0  0  0  0  0  0  0
   -6.2236   -1.4474   -0.5921 C   0  0  0  0  0  0  0  0  0  0  0  0
   -2.9522   -0.0425    0.0487 C   0  0  0  0  0  0  0  0  0  0  0  0
   -0.9913    1.1849   -0.0555 C   0  0  0  0  0  0  0  0  0  0  0  0
   -0.9829    3.6861   -0.1473 C   0  0  0  0  0  0  0  0  0  0  0  0
   -0.2361    0.0289   -0.0738 C   0  0  0  0  0  0  0  0  0  0  0  0
   -1.7447    4.0133    0.9810 C   0  0  0  0  0  0  0  0  0  0  0  0
   -0.7893    4.6515   -1.1384 C   0  0  0  0  0  0  0  0  0  0  0  0
   -0.9393   -1.1422   -0.0583 C   0  0  0  0  0  0  0  0  0  0  0  0
   -2.3445    5.2671    1.0921 C   0  0  0  0  0  0  0  0  0  0  0  0
   -1.3680    5.9143   -1.0184 C   0  0  0  0  0  0  0  0  0  0  0  0
   -2.1605    6.2152    0.0883 C   0  0  0  0  0  0  0  0  0  0  0  0
   -4.7154    0.8682    0.2452 H   0  0  0  0  0  0  0  0  0  0  0  0
    0.6279    2.4405   -0.1919 H   0  0  0  0  0  0  0  0  0  0  0  0
   -4.7424   -7.6973    2.1580 H   0  0  0  0  0  0  0  0  0  0  0  0
   -5.7783   -6.5221    0.5726 H   0  0  0  0  0  0  0  0  0  0  0  0
   -4.5434   -4.2255    1.8726 H   0  0  0  0  0  0  0  0  0  0  0  0
   -3.7847   -5.5683    2.5371 H   0  0  0  0  0  0  0  0  0  0  0  0
   -7.2188   -5.1037    2.8545 H   0  0  0  0  0  0  0  0  0  0  0  0
   -7.7836   -6.3030    1.7530 H   0  0  0  0  0  0  0  0  0  0  0  0
   -1.8726   -4.5220    1.3564 H   0  0  0  0  0  0  0  0  0  0  0  0
   -1.9204   -4.3770   -0.4222 H   0  0  0  0  0  0  0  0  0  0  0  0
   -2.9333   -3.3520    0.5750 H   0  0  0  0  0  0  0  0  0  0  0  0
   -2.5687   -7.0215    1.0732 H   0  0  0  0  0  0  0  0  0  0  0  0
   -3.9656   -7.3540    0.0348 H   0  0  0  0  0  0  0  0  0  0  0  0
   -2.5164   -6.7149   -0.6931 H   0  0  0  0  0  0  0  0  0  0  0  0
   -6.0487   -3.2906    2.7737 H   0  0  0  0  0  0  0  0  0  0  0  0
   -7.7729   -2.8509   -1.1254 H   0  0  0  0  0  0  0  0  0  0  0  0
   -4.3488   -1.6428    2.2174 H   0  0  0  0  0  0  0  0  0  0  0  0
   -6.3069   -0.8947   -1.5231 H   0  0  0  0  0  0  0  0  0  0  0  0
   -1.8917    3.2820    1.7716 H   0  0  0  0  0  0  0  0  0  0  0  0
   -0.2322    4.3987   -2.0371 H   0  0  0  0  0  0  0  0  0  0  0  0
   -0.4539   -2.1093   -0.1094 H   0  0  0  0  0  0  0  0  0  0  0  0
   -2.9582    5.4973    1.9585 H   0  0  0  0  0  0  0  0  0  0  0  0
   -1.2121    6.6559   -1.7963 H   0  0  0  0  0  0  0  0  0  0  0  0
   -2.6413    7.1862    0.1641 H   0  0  0  0  0  0  0  0  0  0  0  0
  1 23  1  0  0  0  0
  2 11  1  0  0  0  0
  2 14  1  0  0  0  0
  3 32  1  0  0  0  0
  4 10  1  0  0  0  0
  4 12  1  0  0  0  0
  4 13  1  0  0  0  0
  5 17  1  0  0  0  0
  5 20  1  0  0  0  0
  5 30  1  0  0  0  0
  6 21  1  0  0  0  0
  6 22  1  0  0  0  0
  6 31  1  0  0  0  0
  7 20  1  0  0  0  0
  7 21  2  0  0  0  0
  8 20  2  0  0  0  0
  8 26  1  0  0  0  0
  9 11  1  0  0  0  0
  9 33  1  6  0  0  0
  9 10  1  0  0  0  0
  9  3  1  0  0  0  0
 10 34  1  0  0  0  0
 10 35  1  0  0  0  0
 11 36  1  0  0  0  0
 11 37  1  0  0  0  0
 12 38  1  0  0  0  0
 12 39  1  0  0  0  0
 12 40  1  0  0  0  0
 13 41  1  0  0  0  0
 13 42  1  0  0  0  0
 13 43  1  0  0  0  0
 14 15  2  0  0  0  0
 14 16  1  0  0  0  0
 15 18  1  0  0  0  0
 15 44  1  0  0  0  0
 16 19  2  0  0  0  0
 16 45  1  0  0  0  0
 17 18  2  0  0  0  0
 17 19  1  0  0  0  0
 18 46  1  0  0  0  0
 19 47  1  0  0  0  0
 21 23  1  0  0  0  0
 22 24  2  0  0  0  0
 22 25  1  0  0  0  0
 23 26  2  0  0  0  0
 24 27  1  0  0  0  0
 24 48  1  0  0  0  0
 25 28  2  0  0  0  0
 25 49  1  0  0  0  0
 26 50  1  0  0  0  0
 27 29  2  0  0  0  0
 27 51  1  0  0  0  0
 28 29  1  0  0  0  0
 28 52  1  0  0  0  0
 29 53  1  0  0  0  0
M  END
>  <DRUGBANK_ID>
DB07504

>  <COMMON_NAME>
(2R)-1-{4-[(4-Anilino-5-bromo-2-pyrimidinyl)amino]phenoxy}-3-(dimethylamino)-2-propanol

$$$$
