
 OpenBabel10282417203D

 23 24  0  0  0  0  0  0  0  0999 V2000
    0.6889    1.1835    0.0198 C   0  0  0  0  0  0  0  0  0  0  0  0
   -0.7046    1.1890    0.0166 C   0  0  0  0  0  0  0  0  0  0  0  0
   -1.4162   -0.0181    0.0066 C   0  0  0  0  0  0  0  0  0  0  0  0
   -0.7444   -1.2558    0.0120 C   0  0  0  0  0  0  0  0  0  0  0  0
    0.6664   -1.2382    0.0342 C   0  0  0  0  0  0  0  0  0  0  0  0
    1.3691   -0.0302    0.0262 C   0  0  0  0  0  0  0  0  0  0  0  0
    3.0896   -0.0358    0.0104 Cl  0  0  0  0  0  0  0  0  0  0  0  0
   -1.4622   -2.5339   -0.0187 C   0  0  0  0  0  0  0  0  0  0  0  0
   -2.2347   -2.7668   -1.0768 N   0  0  0  0  0  0  0  0  0  0  0  0
   -2.8844   -3.9185   -1.0433 C   0  0  0  0  0  0  0  0  0  0  0  0
   -2.8013   -4.8047   -0.0650 N   0  0  0  0  0  0  0  0  0  0  0  0
   -1.9821   -4.4880    0.9262 C   0  0  0  0  0  0  0  0  0  0  0  0
   -1.2783   -3.3670    1.0031 N   0  0  0  0  0  0  0  0  0  0  0  0
   -1.8401   -5.3961    1.9371 N   0  0  0  0  0  0  0  0  0  0  0  0
   -3.6853   -4.2158   -2.1079 N   0  0  0  0  0  0  0  0  0  0  0  0
   -3.1446    0.0979    0.0233 Cl  0  0  0  0  0  0  0  0  0  0  0  0
    1.2325    2.1251    0.0179 H   0  0  0  0  0  0  0  0  0  0  0  0
   -1.2360    2.1380    0.0218 H   0  0  0  0  0  0  0  0  0  0  0  0
    1.2183   -2.1772    0.0430 H   0  0  0  0  0  0  0  0  0  0  0  0
   -2.4595   -6.1902    1.9328 H   0  0  0  0  0  0  0  0  0  0  0  0
   -1.3292   -5.1127    2.7555 H   0  0  0  0  0  0  0  0  0  0  0  0
   -4.2399   -5.0538   -2.0626 H   0  0  0  0  0  0  0  0  0  0  0  0
   -3.8256   -3.5028   -2.8031 H   0  0  0  0  0  0  0  0  0  0  0  0
  1  2  2  0  0  0  0
  1  6  1  0  0  0  0
  1 17  1  0  0  0  0
  2  3  1  0  0  0  0
  2 18  1  0  0  0  0
  3  4  2  0  0  0  0
  3 16  1  0  0  0  0
  4  5  1  0  0  0  0
  4  8  1  0  0  0  0
  5  6  2  0  0  0  0
  5 19  1  0  0  0  0
  6  7  1  0  0  0  0
  8  9  2  0  0  0  0
  8 13  1  0  0  0  0
  9 10  1  0  0  0  0
 10 11  2  0  0  0  0
 10 15  1  0  0  0  0
 11 12  1  0  0  0  0
 12 13  2  0  0  0  0
 12 14  1  0  0  0  0
 14 20  1  0  0  0  0
 14 21  1  0  0  0  0
 15 22  1  0  0  0  0
 15 23  1  0  0  0  0
M  END
>  <DRUGBANK_ID>
DB13056

>  <COMMON_NAME>
Irsogladine

>  <CAS_NUMBER>
57381-26-7

>  <UNII>
QBX79NZC1D

>  <SYNONYMS>
Irsogladine

$$$$
