
 OpenBabel10282417123D

 45 46  0  0  1  0  0  0  0  0999 V2000
   -4.5637    1.0124    1.7598 C   0  0  0  0  0  0  0  0  0  0  0  0
   -4.9608    0.6662    0.3563 C   0  0  0  0  0  0  0  0  0  0  0  0
   -4.0328    0.0433   -0.4293 C   0  0  0  0  0  0  0  0  0  0  0  0
   -4.5306   -0.6165   -1.5252 C   0  0  0  0  0  0  0  0  0  0  0  0
   -5.7315   -0.2385   -2.1164 C   0  0  0  0  0  0  0  0  0  0  0  0
   -6.0235   -0.5440   -3.5559 C   0  0  0  0  0  0  0  0  0  0  0  0
   -5.1931    0.2474   -4.4704 N   0  3  0  0  0  0  0  0  0  0  0  0
   -5.7474    1.1045   -5.3234 C   0  0  0  0  0  0  0  0  0  0  0  0
   -4.5837    1.8066   -6.3421 S   0  0  0  0  0  0  0  0  0  0  0  0
   -3.3795    0.7816   -5.7076 C   0  0  0  0  0  0  0  0  0  0  0  0
   -1.9596    0.7964   -6.0719 C   0  0  0  0  0  0  0  0  0  0  0  0
   -1.7704    0.5273   -7.5724 C   0  0  0  0  0  0  0  0  0  0  0  0
   -2.5143    1.4458   -8.3814 O   0  0  0  0  0  0  0  0  0  0  0  0
   -2.0551    3.0403   -8.2918 P   0  0  2  0  0  0  0  0  0  0  0  0
   -3.0773    3.4285   -9.6324 O   0  0  0  0  0  0  0  0  0  0  0  0
   -0.8651    3.1618   -9.2502 O   0  0  0  0  0  0  0  0  0  0  0  0
   -1.0329    2.6521   -6.9512 O   0  0  0  0  0  0  0  0  0  0  0  0
   -0.1429    3.8033   -6.2511 P   0  0  2  0  0  0  0  0  0  0  0  0
   -0.0586    4.9531   -7.3667 O   0  0  0  0  0  0  0  0  0  0  0  0
    1.2529    3.3041   -6.1009 O   0  5  0  0  0  0  0  0  0  0  0  0
   -0.9338    4.3599   -5.0883 O   0  0  0  0  0  0  0  0  0  0  0  0
   -3.8296    0.0790   -4.6457 C   0  0  0  0  0  0  0  0  0  0  0  0
   -2.9113   -0.7004   -3.8003 C   0  0  0  0  0  0  0  0  0  0  0  0
   -6.6031    0.4490   -1.2968 C   0  0  0  0  0  0  0  0  0  0  0  0
   -7.9370    0.5936   -1.6340 N   0  0  0  0  0  0  0  0  0  0  0  0
   -6.2541    0.8195   -0.0438 N   0  0  0  0  0  0  0  0  0  0  0  0
   -3.4829    0.8853    1.9125 H   0  0  0  0  0  0  0  0  0  0  0  0
   -5.0667    0.3345    2.4568 H   0  0  0  0  0  0  0  0  0  0  0  0
   -4.8219    2.0468    1.9803 H   0  0  0  0  0  0  0  0  0  0  0  0
   -2.9782   -0.0039   -0.1717 H   0  0  0  0  0  0  0  0  0  0  0  0
   -3.9183   -1.4141   -1.9145 H   0  0  0  0  0  0  0  0  0  0  0  0
   -5.8674   -1.5981   -3.7965 H   0  0  0  0  0  0  0  0  0  0  0  0
   -7.0644   -0.3229   -3.8143 H   0  0  0  0  0  0  0  0  0  0  0  0
   -6.7923    1.3629   -5.4198 H   0  0  0  0  0  0  0  0  0  0  0  0
   -1.6940    1.7104   -5.5246 H   0  0  0  0  0  0  0  0  0  0  0  0
   -1.2688    0.1208   -5.5714 H   0  0  0  0  0  0  0  0  0  0  0  0
   -0.7078    0.5512   -7.8518 H   0  0  0  0  0  0  0  0  0  0  0  0
   -2.1251   -0.4846   -7.7879 H   0  0  0  0  0  0  0  0  0  0  0  0
   -3.2045    4.3931   -9.6231 H   0  0  0  0  0  0  0  0  0  0  0  0
    0.9020    5.0463   -7.5398 H   0  0  0  0  0  0  0  0  0  0  0  0
   -2.7144   -0.1313   -2.8894 H   0  0  0  0  0  0  0  0  0  0  0  0
   -3.2662   -1.7216   -3.6929 H   0  0  0  0  0  0  0  0  0  0  0  0
   -1.8948   -0.8258   -4.1673 H   0  0  0  0  0  0  0  0  0  0  0  0
   -8.2279    0.7933   -2.5754 H   0  0  0  0  0  0  0  0  0  0  0  0
   -8.4146    1.1541   -0.9316 H   0  0  0  0  0  0  0  0  0  0  0  0
  1  2  1  0  0  0  0
  1 27  1  0  0  0  0
  1 28  1  0  0  0  0
  1 29  1  0  0  0  0
  2  3  2  0  0  0  0
  2 26  1  0  0  0  0
  3  4  1  0  0  0  0
  3 30  1  0  0  0  0
  4  5  2  0  0  0  0
  4 31  1  0  0  0  0
  5  6  1  0  0  0  0
  5 24  1  0  0  0  0
  6  7  1  0  0  0  0
  6 32  1  0  0  0  0
  6 33  1  0  0  0  0
  7  8  2  0  0  0  0
  7 22  1  0  0  0  0
  8  9  1  0  0  0  0
  8 34  1  0  0  0  0
  9 10  1  0  0  0  0
 10 11  1  0  0  0  0
 10 22  2  0  0  0  0
 11 12  1  0  0  0  0
 11 35  1  0  0  0  0
 11 36  1  0  0  0  0
 12 13  1  0  0  0  0
 12 37  1  0  0  0  0
 12 38  1  0  0  0  0
 14 16  2  6  0  0  0
 14 17  1  0  0  0  0
 14 15  1  0  0  0  0
 14 13  1  0  0  0  0
 15 39  1  0  0  0  0
 18 20  1  1  0  0  0
 18 21  2  0  0  0  0
 18 19  1  0  0  0  0
 18 17  1  0  0  0  0
 19 40  1  0  0  0  0
 22 23  1  0  0  0  0
 23 41  1  0  0  0  0
 23 42  1  0  0  0  0
 23 43  1  0  0  0  0
 24 25  1  0  0  0  0
 24 26  2  0  0  0  0
 25 44  1  0  0  0  0
 25 45  1  0  0  0  0
M  CHG  2   7   1  20  -1
M  END
>  <DRUGBANK_ID>
DB01658

>  <SECONDARY_ACCESSION_NUMBERS>
EXPT02273

>  <COMMON_NAME>
1'-Deazo-Thiamin Diphosphate

$$$$
