
 OpenBabel10282417233D

 64 69  0  0  1  0  0  0  0  0999 V2000
    1.0792    0.8963   -2.5220 C   0  0  0  0  0  0  0  0  0  0  0  0
    0.1729    0.9442   -1.3432 C   0  0  2  0  0  0  0  0  0  0  0  0
    0.8212    0.2435   -0.0750 N   0  0  0  0  0  0  0  0  0  0  0  0
    2.1116    0.3813    0.4716 C   0  0  0  0  0  0  0  0  0  0  0  0
    2.6348   -0.5168    1.1260 O   0  0  0  0  0  0  0  0  0  0  0  0
    2.8009    1.6284    0.3153 C   0  0  0  0  0  0  0  0  0  0  0  0
    4.1451    1.8216    0.0276 C   0  0  0  0  0  0  0  0  0  0  0  0
    5.2026    0.9689   -0.2014 N   0  0  0  0  0  0  0  0  0  0  0  0
    6.3426    1.5209   -0.4950 C   0  0  0  0  0  0  0  0  0  0  0  0
    6.6000    2.9803   -0.6204 C   0  0  0  0  0  0  0  0  0  0  0  0
    5.5373    3.7632   -0.3884 C   0  0  0  0  0  0  0  0  0  0  0  0
    4.3005    3.2101   -0.0492 N   0  0  0  0  0  0  0  0  0  0  0  0
    3.1450    3.8694    0.2295 N   0  0  0  0  0  0  0  0  0  0  0  0
    2.2785    2.9112    0.5329 C   0  0  0  0  0  0  0  0  0  0  0  0
    1.0344    3.1192    0.9931 N   0  0  0  0  0  0  0  0  0  0  0  0
   -1.3584    0.4140   -1.9736 C   0  0  0  0  0  0  0  0  0  0  0  0
   -1.8650   -0.2764   -3.1505 C   0  0  0  0  0  0  0  0  0  0  0  0
   -2.3816   -1.9204   -2.9981 C   0  0  0  0  0  0  0  0  0  0  0  0
   -1.7086   -2.4943   -1.9251 C   0  0  0  0  0  0  0  0  0  0  0  0
   -1.1321   -1.5218   -1.0844 C   0  0  0  0  0  0  0  0  0  0  0  0
    0.0998   -1.6493   -1.1842 O   0  0  0  0  0  0  0  0  0  0  0  0
   -1.8696   -0.3051   -0.9367 N   0  0  0  0  0  0  0  0  0  0  0  0
   -3.3227   -0.1473   -0.8604 C   0  0  0  0  0  0  0  0  0  0  0  0
   -3.9800    0.9970   -1.4406 C   0  0  0  0  0  0  0  0  0  0  0  0
   -5.3619    1.0320   -1.6095 C   0  0  0  0  0  0  0  0  0  0  0  0
   -6.1118    0.0597   -0.9729 C   0  0  0  0  0  0  0  0  0  0  0  0
   -5.4777   -0.9931   -0.3084 C   0  0  0  0  0  0  0  0  0  0  0  0
   -4.1069   -1.1772   -0.3978 C   0  0  0  0  0  0  0  0  0  0  0  0
   -1.4412   -3.8324   -1.6233 C   0  0  0  0  0  0  0  0  0  0  0  0
   -2.0255   -4.7729   -2.4231 C   0  0  0  0  0  0  0  0  0  0  0  0
   -2.9472   -4.3157   -3.3788 C   0  0  0  0  0  0  0  0  0  0  0  0
   -3.2251   -2.8975   -3.5844 C   0  0  0  0  0  0  0  0  0  0  0  0
   -0.5331   -4.1305   -0.5568 C   0  0  0  0  0  0  0  0  0  0  0  0
    0.2740   -4.1612    0.3567 C   0  0  0  0  0  0  0  0  0  0  0  0
    1.1949   -4.2517    1.4298 C   0  0  0  0  0  0  0  0  0  0  0  0
    1.8209   -3.2611    2.1473 C   0  0  0  0  0  0  0  0  0  0  0  0
    2.6140   -3.8846    3.0720 N   0  0  0  0  0  0  0  0  0  0  0  0
    3.4791   -3.2637    4.0504 C   0  0  0  0  0  0  0  0  0  0  0  0
    2.4933   -5.2291    3.0389 N   0  0  0  0  0  0  0  0  0  0  0  0
    1.6418   -5.4373    2.0293 C   0  0  0  0  0  0  0  0  0  0  0  0
    0.8033    0.0433   -3.1413 H   0  0  0  0  0  0  0  0  0  0  0  0
    2.1314    0.8046   -2.2653 H   0  0  0  0  0  0  0  0  0  0  0  0
    0.8906    1.8173   -3.0737 H   0  0  0  0  0  0  0  0  0  0  0  0
    0.0605    1.9708   -0.9866 H   0  0  0  0  0  0  0  0  0  0  0  0
    0.5966   -0.7486    0.0268 H   0  0  0  0  0  0  0  0  0  0  0  0
    7.2229    0.8794   -0.6846 H   0  0  0  0  0  0  0  0  0  0  0  0
    7.5870    3.3344   -0.8835 H   0  0  0  0  0  0  0  0  0  0  0  0
    5.5796    4.8416   -0.4495 H   0  0  0  0  0  0  0  0  0  0  0  0
    0.3898    2.3416    1.1288 H   0  0  0  0  0  0  0  0  0  0  0  0
    0.5941    4.0217    0.8840 H   0  0  0  0  0  0  0  0  0  0  0  0
   -2.6644    0.2378   -3.7149 H   0  0  0  0  0  0  0  0  0  0  0  0
   -3.4256    1.8211   -1.8971 H   0  0  0  0  0  0  0  0  0  0  0  0
   -5.8411    1.8077   -2.2071 H   0  0  0  0  0  0  0  0  0  0  0  0
   -7.1951    0.1088   -0.9961 H   0  0  0  0  0  0  0  0  0  0  0  0
   -6.0422   -1.7008    0.2833 H   0  0  0  0  0  0  0  0  0  0  0  0
   -3.6786   -2.1442   -0.1696 H   0  0  0  0  0  0  0  0  0  0  0  0
   -1.7993   -5.8235   -2.2641 H   0  0  0  0  0  0  0  0  0  0  0  0
   -3.4252   -5.0876   -3.9916 H   0  0  0  0  0  0  0  0  0  0  0  0
   -4.1610   -2.7126   -4.1224 H   0  0  0  0  0  0  0  0  0  0  0  0
    1.7887   -2.1898    2.0946 H   0  0  0  0  0  0  0  0  0  0  0  0
    3.1233   -3.5289    5.0504 H   0  0  0  0  0  0  0  0  0  0  0  0
    4.4991   -3.6320    3.9073 H   0  0  0  0  0  0  0  0  0  0  0  0
    3.4605   -2.1772    3.9313 H   0  0  0  0  0  0  0  0  0  0  0  0
    1.3577   -6.4436    1.7616 H   0  0  0  0  0  0  0  0  0  0  0  0
  1 41  1  0  0  0  0
  1 42  1  0  0  0  0
  1 43  1  0  0  0  0
  2 16  1  0  0  0  0
  2 44  1  1  0  0  0
  2  3  1  0  0  0  0
  2  1  1  0  0  0  0
  3  4  1  0  0  0  0
  3 45  1  0  0  0  0
  4  5  2  0  0  0  0
  4  6  1  0  0  0  0
  6  7  2  0  0  0  0
  6 14  1  0  0  0  0
  7  8  1  0  0  0  0
  7 12  1  0  0  0  0
  8  9  2  0  0  0  0
  9 10  1  0  0  0  0
  9 46  1  0  0  0  0
 10 11  2  0  0  0  0
 10 47  1  0  0  0  0
 11 12  1  0  0  0  0
 11 48  1  0  0  0  0
 12 13  1  0  0  0  0
 13 14  2  0  0  0  0
 14 15  1  0  0  0  0
 15 49  1  0  0  0  0
 15 50  1  0  0  0  0
 16 17  2  0  0  0  0
 16 22  1  0  0  0  0
 17 18  1  0  0  0  0
 17 51  1  0  0  0  0
 18 19  2  0  0  0  0
 18 32  1  0  0  0  0
 19 20  1  0  0  0  0
 19 29  1  0  0  0  0
 20 21  2  0  0  0  0
 20 22  1  0  0  0  0
 22 23  1  0  0  0  0
 23 24  2  0  0  0  0
 23 28  1  0  0  0  0
 24 25  1  0  0  0  0
 24 52  1  0  0  0  0
 25 26  2  0  0  0  0
 25 53  1  0  0  0  0
 26 27  1  0  0  0  0
 26 54  1  0  0  0  0
 27 28  2  0  0  0  0
 27 55  1  0  0  0  0
 28 56  1  0  0  0  0
 29 30  2  0  0  0  0
 29 33  1  0  0  0  0
 30 31  1  0  0  0  0
 30 57  1  0  0  0  0
 31 32  2  0  0  0  0
 31 58  1  0  0  0  0
 32 59  1  0  0  0  0
 33 34  3  0  0  0  0
 34 35  1  0  0  0  0
 35 36  2  0  0  0  0
 35 40  1  0  0  0  0
 36 37  1  0  0  0  0
 36 60  1  0  0  0  0
 37 38  1  0  0  0  0
 37 39  1  0  0  0  0
 38 61  1  0  0  0  0
 38 62  1  0  0  0  0
 38 63  1  0  0  0  0
 39 40  2  0  0  0  0
 40 64  1  0  0  0  0
M  END
>  <DRUGBANK_ID>
DB16296

>  <COMMON_NAME>
IPI-549

>  <CAS_NUMBER>
1693758-51-8

>  <UNII>
FOF5155FMZ

>  <SYNONYMS>
Pi3k-gamma inhibitor ipi-549

$$$$
