
 OpenBabel10282417123D

 11 10  0  0  1  0  0  0  0  0999 V2000
    0.9790    0.0678   -0.0312 C   0  0  0  0  0  0  0  0  0  0  0  0
    0.4159   -1.2234   -0.6152 C   0  0  1  0  0  0  0  0  0  0  0  0
    1.0277   -2.6051    0.3555 Cl  0  0  0  0  0  0  0  0  0  0  0  0
   -1.1115   -1.2666   -0.6248 C   0  0  0  0  0  0  0  0  0  0  0  0
   -1.8118    0.0032   -1.6639 Cl  0  0  0  0  0  0  0  0  0  0  0  0
    0.6278    0.2295    0.9933 H   0  0  0  0  0  0  0  0  0  0  0  0
    0.6855    0.9368   -0.6282 H   0  0  0  0  0  0  0  0  0  0  0  0
    2.0744    0.0448   -0.0147 H   0  0  0  0  0  0  0  0  0  0  0  0
    0.8038   -1.3672   -1.6287 H   0  0  0  0  0  0  0  0  0  0  0  0
   -1.4723   -2.2241   -1.0146 H   0  0  0  0  0  0  0  0  0  0  0  0
   -1.5224   -1.1303    0.3803 H   0  0  0  0  0  0  0  0  0  0  0  0
  1  2  1  0  0  0  0
  1  6  1  0  0  0  0
  1  7  1  0  0  0  0
  1  8  1  0  0  0  0
  2  3  1  0  0  0  0
  2  4  1  0  0  0  0
  2  9  1  6  0  0  0
  4  5  1  0  0  0  0
  4 10  1  0  0  0  0
  4 11  1  0  0  0  0
M  END
>  <DRUGBANK_ID>
DB01701

>  <SECONDARY_ACCESSION_NUMBERS>
EXPT00992

>  <COMMON_NAME>
1,2-Dichloro-Propane

>  <CAS_NUMBER>
78-87-5

>  <UNII>
RRZ023OFWL

$$$$
