
 OpenBabel10282417133D

 44 46  0  0  0  0  0  0  0  0999 V2000
    1.0928   -0.3565   -0.6734 C   0  0  0  0  0  0  0  0  0  0  0  0
    0.9915    1.1440   -2.4968 C   0  0  0  0  0  0  0  0  0  0  0  0
   -1.7591   -0.9904    3.5264 C   0  0  0  0  0  0  0  0  0  0  0  0
   -0.4669   -1.4862    3.7528 C   0  0  0  0  0  0  0  0  0  0  0  0
   -2.0165   -0.0910    2.4715 C   0  0  0  0  0  0  0  0  0  0  0  0
    4.5805   -3.9240    3.2016 C   0  0  0  0  0  0  0  0  0  0  0  0
    5.5471   -1.2646    3.3479 C   0  0  0  0  0  0  0  0  0  0  0  0
   -0.9438    1.0701   -0.6944 C   0  0  0  0  0  0  0  0  0  0  0  0
    0.5576    1.0208   -1.0406 C   0  0  0  0  0  0  0  0  0  0  0  0
    0.6008   -0.9646    3.0338 C   0  0  0  0  0  0  0  0  0  0  0  0
    5.9675   -3.6904    3.3832 C   0  0  0  0  0  0  0  0  0  0  0  0
    6.4271   -2.3546    3.4518 C   0  0  0  0  0  0  0  0  0  0  0  0
    3.6871   -2.8391    3.1494 C   0  0  0  0  0  0  0  0  0  0  0  0
    4.1931   -1.5544    3.2241 C   0  0  0  0  0  0  0  0  0  0  0  0
   -0.9642    0.4407    1.7278 C   0  0  0  0  0  0  0  0  0  0  0  0
    0.3316    0.1311    2.1835 C   0  0  0  0  0  0  0  0  0  0  0  0
    6.8797   -4.8875    3.5184 C   0  0  0  0  0  0  0  0  0  0  0  0
    1.9571   -1.5395    3.1287 C   0  0  0  0  0  0  0  0  0  0  0  0
    8.0814   -1.8781    3.6937 Cl  0  0  0  0  0  0  0  0  0  0  0  0
    6.4970   -6.1157    3.4696 N   0  0  0  0  0  0  0  0  0  0  0  0
    8.2190   -4.7357    3.7124 N   0  0  0  0  0  0  0  0  0  0  0  0
    2.3105   -2.8145    3.0605 N   0  0  0  0  0  0  0  0  0  0  0  0
    3.0889   -0.7552    3.1802 N   0  0  0  0  0  0  0  0  0  0  0  0
    1.4108    0.8601    1.7371 O   0  0  0  0  0  0  0  0  0  0  0  0
   -1.2538    1.3357    0.7200 O   0  0  0  0  0  0  0  0  0  0  0  0
    0.7713   -1.1731   -1.3175 H   0  0  0  0  0  0  0  0  0  0  0  0
    0.6482   -0.6880    0.2366 H   0  0  0  0  0  0  0  0  0  0  0  0
    2.1828   -0.3358   -0.5837 H   0  0  0  0  0  0  0  0  0  0  0  0
    0.6823    0.2567   -3.0602 H   0  0  0  0  0  0  0  0  0  0  0  0
    0.6320    2.0385   -3.0026 H   0  0  0  0  0  0  0  0  0  0  0  0
    2.0934    1.1607   -2.5223 H   0  0  0  0  0  0  0  0  0  0  0  0
   -2.5719   -1.3118    4.1747 H   0  0  0  0  0  0  0  0  0  0  0  0
   -0.2887   -2.2294    4.5279 H   0  0  0  0  0  0  0  0  0  0  0  0
   -3.0399    0.2217    2.2771 H   0  0  0  0  0  0  0  0  0  0  0  0
    4.1458   -4.9112    3.1370 H   0  0  0  0  0  0  0  0  0  0  0  0
    5.9056   -0.2417    3.4120 H   0  0  0  0  0  0  0  0  0  0  0  0
   -1.3917    1.9141   -1.2417 H   0  0  0  0  0  0  0  0  0  0  0  0
   -1.4658    0.1751   -1.0590 H   0  0  0  0  0  0  0  0  0  0  0  0
    1.0349    1.8359   -0.4779 H   0  0  0  0  0  0  0  0  0  0  0  0
    5.4911   -6.2332    3.3266 H   0  0  0  0  0  0  0  0  0  0  0  0
    8.6641   -3.8350    3.7889 H   0  0  0  0  0  0  0  0  0  0  0  0
    8.7830   -5.5680    3.8042 H   0  0  0  0  0  0  0  0  0  0  0  0
    3.0793    0.2560    3.1534 H   0  0  0  0  0  0  0  0  0  0  0  0
    2.0103    0.1958    1.3506 H   0  0  0  0  0  0  0  0  0  0  0  0
  1 26  1  0  0  0  0
  1 27  1  0  0  0  0
  1 28  1  0  0  0  0
  2 29  1  0  0  0  0
  2 30  1  0  0  0  0
  2 31  1  0  0  0  0
  3 32  1  0  0  0  0
  4  3  2  0  0  0  0
  4 33  1  0  0  0  0
  5  3  1  0  0  0  0
  5 34  1  0  0  0  0
  6 35  1  0  0  0  0
  7 36  1  0  0  0  0
  8 37  1  0  0  0  0
  8 38  1  0  0  0  0
  9  1  1  0  0  0  0
  9  2  1  0  0  0  0
  9  8  1  0  0  0  0
  9 39  1  0  0  0  0
 10  4  1  0  0  0  0
 11  6  2  0  0  0  0
 12  7  2  0  0  0  0
 12 11  1  0  0  0  0
 13  6  1  0  0  0  0
 14  7  1  0  0  0  0
 14 13  2  0  0  0  0
 15  5  2  0  0  0  0
 16 10  2  0  0  0  0
 16 15  1  0  0  0  0
 17 11  1  0  0  0  0
 18 10  1  0  0  0  0
 19 12  1  0  0  0  0
 20 17  2  0  0  0  0
 20 40  1  0  0  0  0
 21 17  1  0  0  0  0
 21 41  1  0  0  0  0
 21 42  1  0  0  0  0
 22 13  1  0  0  0  0
 22 18  2  0  0  0  0
 23 14  1  0  0  0  0
 23 18  1  0  0  0  0
 23 43  1  0  0  0  0
 24 16  1  0  0  0  0
 24 44  1  0  0  0  0
 25  8  1  0  0  0  0
 25 15  1  0  0  0  0
M  END
>  <DRUGBANK_ID>
DB02989

>  <SECONDARY_ACCESSION_NUMBERS>
EXPT00346

>  <COMMON_NAME>
CRA_10972

$$$$
