307
 OpenBabel10282417103D

 54 56  0  0  0  0  0  0  0  0999 V2000
    0.8468   -0.0741    0.1720 O   0  0  0  0  0  0  0  0  0  0  0  0
    0.9859    1.6932    1.5578 O   0  0  0  0  0  0  0  0  0  0  0  0
   -8.1322   -2.1857   -2.7764 C   0  0  0  0  0  0  0  0  0  0  0  0
   -8.1977   -4.2789   -0.5711 C   0  0  0  0  0  0  0  0  0  0  0  0
   -8.4548   -3.6801   -3.0053 C   0  0  0  0  0  0  0  0  0  0  0  0
   -9.1501   -4.2731   -1.7842 C   0  0  0  0  0  0  0  0  0  0  0  0
   -7.4729   -1.9527   -1.4128 C   0  0  0  0  0  0  0  0  0  0  0  0
   -7.5113   -2.9226   -0.3939 C   0  0  0  0  0  0  0  0  0  0  0  0
   -7.2002   -1.7321   -3.9194 C   0  0  0  0  0  0  0  0  0  0  0  0
   -9.4454   -1.3798   -2.8397 C   0  0  0  0  0  0  0  0  0  0  0  0
   -9.0353   -4.6265    0.6793 C   0  0  0  0  0  0  0  0  0  0  0  0
   -7.1224   -5.3642   -0.7803 C   0  0  0  0  0  0  0  0  0  0  0  0
   -6.8221   -0.7264   -1.1472 C   0  0  0  0  0  0  0  0  0  0  0  0
   -6.8794   -2.6380    0.8318 C   0  0  0  0  0  0  0  0  0  0  0  0
   -6.2044   -0.4510    0.0852 C   0  0  0  0  0  0  0  0  0  0  0  0
   -6.2583   -1.4160    1.0980 C   0  0  0  0  0  0  0  0  0  0  0  0
   -5.4393    0.8170    0.2633 C   0  0  0  0  0  0  0  0  0  0  0  0
   -5.6714   -1.1984    2.4649 C   0  0  0  0  0  0  0  0  0  0  0  0
   -3.9609    0.8574    0.5278 C   0  0  0  0  0  0  0  0  0  0  0  0
   -6.1698    1.9466    0.1655 C   0  0  0  0  0  0  0  0  0  0  0  0
   -3.2579    2.0478    0.7549 C   0  0  0  0  0  0  0  0  0  0  0  0
   -3.2155   -0.3403    0.5641 C   0  0  0  0  0  0  0  0  0  0  0  0
   -1.8637    2.0510    0.8615 C   0  0  0  0  0  0  0  0  0  0  0  0
   -1.8506   -0.3567    0.8468 C   0  0  0  0  0  0  0  0  0  0  0  0
   -1.1609    0.8472    0.8955 C   0  0  0  0  0  0  0  0  0  0  0  0
    0.3074    0.8718    0.9600 C   0  0  0  0  0  0  0  0  0  0  0  0
    1.8130    0.0845    0.2031 H   0  0  0  0  0  0  0  0  0  0  0  0
   -7.5342   -4.2362   -3.2198 H   0  0  0  0  0  0  0  0  0  0  0  0
   -9.0848   -3.8116   -3.8935 H   0  0  0  0  0  0  0  0  0  0  0  0
  -10.0545   -3.6986   -1.5504 H   0  0  0  0  0  0  0  0  0  0  0  0
   -9.5013   -5.2879   -2.0069 H   0  0  0  0  0  0  0  0  0  0  0  0
   -7.6506   -1.9199   -4.8990 H   0  0  0  0  0  0  0  0  0  0  0  0
   -6.9818   -0.6604   -3.8779 H   0  0  0  0  0  0  0  0  0  0  0  0
   -6.2408   -2.2620   -3.8748 H   0  0  0  0  0  0  0  0  0  0  0  0
  -10.1428   -1.6654   -2.0446 H   0  0  0  0  0  0  0  0  0  0  0  0
   -9.2684   -0.3063   -2.7251 H   0  0  0  0  0  0  0  0  0  0  0  0
   -9.9543   -1.5406   -3.7968 H   0  0  0  0  0  0  0  0  0  0  0  0
   -9.5601   -5.5782    0.5565 H   0  0  0  0  0  0  0  0  0  0  0  0
   -8.4206   -4.7280    1.5796 H   0  0  0  0  0  0  0  0  0  0  0  0
   -9.7777   -3.8445    0.8813 H   0  0  0  0  0  0  0  0  0  0  0  0
   -6.4967   -5.1625   -1.6565 H   0  0  0  0  0  0  0  0  0  0  0  0
   -6.4429   -5.4337    0.0746 H   0  0  0  0  0  0  0  0  0  0  0  0
   -7.5866   -6.3460   -0.9255 H   0  0  0  0  0  0  0  0  0  0  0  0
   -6.7830    0.0408   -1.9179 H   0  0  0  0  0  0  0  0  0  0  0  0
   -6.8630   -3.3878    1.6180 H   0  0  0  0  0  0  0  0  0  0  0  0
   -4.5892   -1.0886    2.4369 H   0  0  0  0  0  0  0  0  0  0  0  0
   -6.1101   -0.3092    2.9228 H   0  0  0  0  0  0  0  0  0  0  0  0
   -5.8520   -2.0558    3.1186 H   0  0  0  0  0  0  0  0  0  0  0  0
   -5.7544    2.9390    0.2832 H   0  0  0  0  0  0  0  0  0  0  0  0
   -7.2374    1.9296   -0.0388 H   0  0  0  0  0  0  0  0  0  0  0  0
   -3.7667    3.0025    0.8339 H   0  0  0  0  0  0  0  0  0  0  0  0
   -3.6945   -1.3061    0.4151 H   0  0  0  0  0  0  0  0  0  0  0  0
   -1.3343    2.9986    0.9068 H   0  0  0  0  0  0  0  0  0  0  0  0
   -1.3429   -1.3036    1.0094 H   0  0  0  0  0  0  0  0  0  0  0  0
  1 26  1  0  0  0  0
  1 27  1  0  0  0  0
  2 26  2  0  0  0  0
  3  5  1  0  0  0  0
  3  7  1  0  0  0  0
  3  9  1  0  0  0  0
  3 10  1  0  0  0  0
  4  6  1  0  0  0  0
  4  8  1  0  0  0  0
  4 11  1  0  0  0  0
  4 12  1  0  0  0  0
  5  6  1  0  0  0  0
  5 28  1  0  0  0  0
  5 29  1  0  0  0  0
  6 30  1  0  0  0  0
  6 31  1  0  0  0  0
  7  8  2  0  0  0  0
  7 13  1  0  0  0  0
  8 14  1  0  0  0  0
  9 32  1  0  0  0  0
  9 33  1  0  0  0  0
  9 34  1  0  0  0  0
 10 35  1  0  0  0  0
 10 36  1  0  0  0  0
 10 37  1  0  0  0  0
 11 38  1  0  0  0  0
 11 39  1  0  0  0  0
 11 40  1  0  0  0  0
 12 41  1  0  0  0  0
 12 42  1  0  0  0  0
 12 43  1  0  0  0  0
 13 15  2  0  0  0  0
 13 44  1  0  0  0  0
 14 16  2  0  0  0  0
 14 45  1  0  0  0  0
 15 16  1  0  0  0  0
 15 17  1  0  0  0  0
 16 18  1  0  0  0  0
 17 19  1  0  0  0  0
 17 20  2  0  0  0  0
 18 46  1  0  0  0  0
 18 47  1  0  0  0  0
 18 48  1  0  0  0  0
 19 21  2  0  0  0  0
 19 22  1  0  0  0  0
 20 49  1  0  0  0  0
 20 50  1  0  0  0  0
 21 23  1  0  0  0  0
 21 51  1  0  0  0  0
 22 24  2  0  0  0  0
 22 52  1  0  0  0  0
 23 25  2  0  0  0  0
 23 53  1  0  0  0  0
 24 25  1  0  0  0  0
 24 54  1  0  0  0  0
 25 26  1  0  0  0  0
M  END
>  <DRUGBANK_ID>
DB00307

>  <SECONDARY_ACCESSION_NUMBERS>
APRD00114

>  <COMMON_NAME>
Bexarotene

>  <CAS_NUMBER>
153559-49-0

>  <UNII>
A61RXM4375

>  <SYNONYMS>
4-[1-(3,5,5,8,8-pentamethyltetralin-2-yl)ethenyl]benzoic acid; 4-[1-(5,6,7,8,-Tetrahydro-3,5,5,8,8-pentamethyl-2-naphtalenyl)ethenyl]benzoic acid; Bexaroten; Bexarot√®ne; Bexarotene; Bexaroteno; Bexarotenum; p-(1-(5,6,7,8-Tetrahydro-3,5,5,8,8-pentamethyl-2-naphthyl)vinyl)benzoic acid

$$$$
