
 OpenBabel10282417163D

152159  0  0  1  0  0  0  0  0999 V2000
   10.0507    0.1472  -15.8673 C   0  0  2  0  0  0  0  0  0  0  0  0
   11.4667   -0.6918  -15.3113 O   0  0  0  0  0  0  0  0  0  0  0  0
   13.0723   -0.1770  -15.8366 C   0  0  1  0  0  0  0  0  0  0  0  0
   12.7611   -0.4084  -17.5436 C   0  0  2  0  0  0  0  0  0  0  0  0
   11.5178    0.5175  -18.3260 C   0  0  1  0  0  0  0  0  0  0  0  0
   10.0654   -0.0519  -17.3618 C   0  0  0  0  0  0  0  0  0  0  0  0
   10.3904    4.4276  -15.7990 C   0  0  2  0  0  0  0  0  0  0  0  0
    9.6810    4.3685  -17.0223 O   0  0  0  0  0  0  0  0  0  0  0  0
    9.4661    3.0867  -17.4987 C   0  0  1  0  0  0  0  0  0  0  0  0
   10.6836    2.3137  -17.1657 C   0  0  1  0  0  0  0  0  0  0  0  0
   11.4075    2.5480  -16.0221 C   0  0  1  0  0  0  0  0  0  0  0  0
   11.8087    3.9269  -15.8985 C   0  0  0  0  0  0  0  0  0  0  0  0
   10.1671    1.5602  -16.0631 O   0  0  0  0  0  0  0  0  0  0  0  0
    7.8413    2.5030  -12.0459 C   0  0  2  0  0  0  0  0  0  0  0  0
    9.1432    2.2489  -12.0816 O   0  0  0  0  0  0  0  0  0  0  0  0
   10.9307    2.1413  -13.0856 C   0  0  1  0  0  0  0  0  0  0  0  0
   10.3566    2.6013  -14.0522 C   0  0  2  0  0  0  0  0  0  0  0  0
    8.5051    3.1186  -13.4866 C   0  0  1  0  0  0  0  0  0  0  0  0
    7.2891    2.0357  -13.2601 C   0  0  0  0  0  0  0  0  0  0  0  0
   10.4276   -3.1474  -18.1652 C   0  0  2  0  0  0  0  0  0  0  0  0
   11.2238   -4.7082  -18.7228 O   0  0  0  0  0  0  0  0  0  0  0  0
   10.3732   -5.8431  -20.0460 C   0  0  1  0  0  0  0  0  0  0  0  0
    8.3500   -5.6662  -20.1483 C   0  0  2  0  0  0  0  0  0  0  0  0
    8.1052   -4.1470  -19.9708 C   0  0  1  0  0  0  0  0  0  0  0  0
    8.8196   -2.8856  -18.4230 C   0  0  0  0  0  0  0  0  0  0  0  0
    9.4363   -5.0657  -18.5025 C   0  0  2  0  0  0  0  0  0  0  0  0
   10.3535   -4.0029  -20.1684 C   0  0  2  0  0  0  0  0  0  0  0  0
   10.1565   -2.2475  -20.1636 C   0  0  1  0  0  0  0  0  0  0  0  0
    8.1201   -2.0913  -20.0137 C   0  0  0  0  0  0  0  0  0  0  0  0
    7.1808   -3.4968  -18.5813 C   0  0  1  0  0  0  0  0  0  0  0  0
    7.8105   -4.9075  -18.0870 O   0  0  0  0  0  0  0  0  0  0  0  0
    7.5408   -0.9104  -17.6544 C   0  0  0  0  0  0  0  0  0  0  0  0
    8.5298   -1.9775  -16.5734 C   0  0  0  0  0  0  0  0  0  0  0  0
    8.3210   -3.7307  -16.9655 O   0  0  0  0  0  0  0  0  0  0  0  0
    6.9485    0.1419  -17.2508 C   0  0  0  0  0  0  0  0  0  0  0  0
    7.2630    0.2095  -15.8655 C   0  0  0  0  0  0  0  0  0  0  0  0
    8.2630   -1.0512  -14.8703 C   0  0  0  0  0  0  0  0  0  0  0  0
    8.9516   -2.1528  -15.3518 C   0  0  0  0  0  0  0  0  0  0  0  0
    7.2109    1.8396  -15.5384 C   0  0  0  0  0  0  0  0  0  0  0  0
    8.5295    2.1916  -14.8658 C   0  0  0  0  0  0  0  0  0  0  0  0
    9.2630    0.9812  -13.4583 C   0  0  0  0  0  0  0  0  0  0  0  0
    9.1873   -0.5996  -13.5997 C   0  0  0  0  0  0  0  0  0  0  0  0
    8.4037    4.4143  -14.6694 C   0  0  0  0  0  0  0  0  0  0  0  0
    8.8734    4.6692  -12.6566 C   0  0  2  0  0  0  0  0  0  0  0  0
   10.4108    3.7291  -11.8391 C   0  0  1  0  0  0  0  0  0  0  0  0
   10.4733    1.4573  -11.6129 C   0  0  0  0  0  0  0  0  0  0  0  0
   10.3641   -5.4255  -17.0364 C   0  0  0  0  0  0  0  0  0  0  0  0
   10.9019   -2.0874  -18.9950 O   0  0  0  0  0  0  0  0  0  0  0  0
    9.5855   -4.4886  -21.8996 O   0  0  0  0  0  0  0  0  0  0  0  0
   13.5443    6.2931  -13.5379 O   0  0  0  0  0  0  0  0  0  0  0  0
   12.3485    6.0604  -13.5554 C   0  0  0  0  0  0  0  0  0  0  0  0
   11.9084    4.8132  -13.0886 C   0  0  1  0  0  0  0  0  0  0  0  0
   12.7372    7.5687  -15.7260 O   0  0  0  0  0  0  0  0  0  0  0  0
   11.4400    7.1013  -15.5271 C   0  0  1  0  0  0  0  0  0  0  0  0
   11.2093    6.8052  -14.0640 C   0  0  2  0  0  0  0  0  0  0  0  0
    7.9251    3.9149  -11.6884 O   0  0  0  0  0  0  0  0  0  0  0  0
   13.4433    3.8297  -13.3817 O   0  0  0  0  0  0  0  0  0  0  0  0
    8.1758    5.4121  -15.3520 O   0  0  0  0  0  0  0  0  0  0  0  0
    6.9774    3.3801  -16.4981 O   0  0  0  0  0  0  0  0  0  0  0  0
    6.6296    1.1368  -18.3869 O   0  0  0  0  0  0  0  0  0  0  0  0
   11.2760    7.8189  -13.1111 O   0  0  0  0  0  0  0  0  0  0  0  0
   10.4100    8.0843  -15.9602 C   0  0  0  0  0  0  0  0  0  0  0  0
   13.9689    3.7109  -12.0649 C   0  0  0  0  0  0  0  0  0  0  0  0
   11.7298    3.1301  -12.8322 C   0  0  0  0  0  0  0  0  0  0  0  0
    9.9623    3.6891  -14.6135 O   0  0  0  0  0  0  0  0  0  0  0  0
    8.7069   -3.4895  -20.8828 O   0  0  0  0  0  0  0  0  0  0  0  0
   11.2718   -5.3209  -21.5528 C   0  0  0  0  0  0  0  0  0  0  0  0
    7.4493   -6.5753  -19.1901 O   0  0  0  0  0  0  0  0  0  0  0  0
   11.2131    0.9672  -14.0404 O   0  0  0  0  0  0  0  0  0  0  0  0
    8.4288    2.1473  -17.2305 C   0  0  0  0  0  0  0  0  0  0  0  0
   13.8091    1.2390  -15.3792 C   0  0  0  0  0  0  0  0  0  0  0  0
   12.4837    2.2554  -18.2047 C   0  0  0  0  0  0  0  0  0  0  0  0
   10.7631    0.5389  -19.4853 O   0  0  0  0  0  0  0  0  0  0  0  0
   12.3460   -1.6997  -17.3077 O   0  0  0  0  0  0  0  0  0  0  0  0
   11.7278    1.0917  -16.6067 O   0  0  0  0  0  0  0  0  0  0  0  0
    6.8844   -0.8261  -19.0956 C   0  0  0  0  0  0  0  0  0  0  0  0
    9.1978    0.3359  -15.2400 H   0  0  0  0  0  0  0  0  0  0  0  0
   13.7104   -0.9187  -15.3746 H   0  0  0  0  0  0  0  0  0  0  0  0
   13.5400    0.1192  -18.0387 H   0  0  0  0  0  0  0  0  0  0  0  0
   10.2220   -1.0593  -17.3623 H   0  0  0  0  0  0  0  0  0  0  0  0
    9.3876    0.5050  -17.8905 H   0  0  0  0  0  0  0  0  0  0  0  0
   10.2745    5.3899  -15.4140 H   0  0  0  0  0  0  0  0  0  0  0  0
    9.3323    3.0677  -18.6070 H   0  0  0  0  0  0  0  0  0  0  0  0
   10.7553    2.3720  -18.2194 H   0  0  0  0  0  0  0  0  0  0  0  0
   11.9910    2.0774  -15.2446 H   0  0  0  0  0  0  0  0  0  0  0  0
   12.7330    4.4526  -16.2235 H   0  0  0  0  0  0  0  0  0  0  0  0
   12.4599    3.5831  -15.0705 H   0  0  0  0  0  0  0  0  0  0  0  0
    7.3560    1.7781  -11.4339 H   0  0  0  0  0  0  0  0  0  0  0  0
   12.1502    1.5722  -12.9095 H   0  0  0  0  0  0  0  0  0  0  0  0
   10.3149    1.9931  -14.7168 H   0  0  0  0  0  0  0  0  0  0  0  0
    7.3604    3.3764  -14.4439 H   0  0  0  0  0  0  0  0  0  0  0  0
    7.3756    0.9740  -13.6629 H   0  0  0  0  0  0  0  0  0  0  0  0
    6.4276    2.4633  -13.7647 H   0  0  0  0  0  0  0  0  0  0  0  0
   10.7142   -3.0397  -17.1096 H   0  0  0  0  0  0  0  0  0  0  0  0
   10.5755   -6.8759  -19.8689 H   0  0  0  0  0  0  0  0  0  0  0  0
    7.5556   -5.4961  -20.9140 H   0  0  0  0  0  0  0  0  0  0  0  0
    7.1202   -3.7930  -20.4065 H   0  0  0  0  0  0  0  0  0  0  0  0
    7.4872   -2.6888  -17.4337 H   0  0  0  0  0  0  0  0  0  0  0  0
    8.9372   -1.7933  -18.5347 H   0  0  0  0  0  0  0  0  0  0  0  0
    9.4170   -6.3006  -18.5887 H   0  0  0  0  0  0  0  0  0  0  0  0
   11.6388   -4.1106  -20.1647 H   0  0  0  0  0  0  0  0  0  0  0  0
   10.7120   -1.9182  -21.0537 H   0  0  0  0  0  0  0  0  0  0  0  0
    8.6927   -1.1169  -19.9267 H   0  0  0  0  0  0  0  0  0  0  0  0
    7.7418   -2.1503  -21.1951 H   0  0  0  0  0  0  0  0  0  0  0  0
    6.1695   -3.3043  -18.1756 H   0  0  0  0  0  0  0  0  0  0  0  0
    9.9994   -2.5896  -15.2345 H   0  0  0  0  0  0  0  0  0  0  0  0
   10.3103   -1.0072  -13.4398 H   0  0  0  0  0  0  0  0  0  0  0  0
    9.2935    5.6280  -12.4940 H   0  0  0  0  0  0  0  0  0  0  0  0
   10.5917    4.0965  -10.8653 H   0  0  0  0  0  0  0  0  0  0  0  0
   11.4599    0.8758  -11.6786 H   0  0  0  0  0  0  0  0  0  0  0  0
   10.1001    1.5351  -10.6281 H   0  0  0  0  0  0  0  0  0  0  0  0
   10.0022   -4.7330  -16.3119 H   0  0  0  0  0  0  0  0  0  0  0  0
   10.3184   -6.4995  -16.9204 H   0  0  0  0  0  0  0  0  0  0  0  0
   11.4789   -5.2455  -17.0806 H   0  0  0  0  0  0  0  0  0  0  0  0
    9.6340   -3.7086  -22.4707 H   0  0  0  0  0  0  0  0  0  0  0  0
   11.6479    4.5634  -14.1534 H   0  0  0  0  0  0  0  0  0  0  0  0
   12.7832    7.6757  -16.6816 H   0  0  0  0  0  0  0  0  0  0  0  0
   11.4101    6.2842  -16.2516 H   0  0  0  0  0  0  0  0  0  0  0  0
   10.2208    6.3604  -13.8953 H   0  0  0  0  0  0  0  0  0  0  0  0
    7.1489    3.3547  -17.5854 H   0  0  0  0  0  0  0  0  0  0  0  0
    6.8105    1.0947  -19.3590 H   0  0  0  0  0  0  0  0  0  0  0  0
   10.5812    8.4047  -13.4109 H   0  0  0  0  0  0  0  0  0  0  0  0
   10.6181    8.3750  -16.9842 H   0  0  0  0  0  0  0  0  0  0  0  0
    9.4005    7.6681  -15.8854 H   0  0  0  0  0  0  0  0  0  0  0  0
   10.5003    8.9514  -15.3139 H   0  0  0  0  0  0  0  0  0  0  0  0
   13.9759    4.7558  -11.8864 H   0  0  0  0  0  0  0  0  0  0  0  0
   13.3695    3.2840  -11.2284 H   0  0  0  0  0  0  0  0  0  0  0  0
   14.8145    3.0692  -12.0050 H   0  0  0  0  0  0  0  0  0  0  0  0
   12.0753    2.7976  -11.9014 H   0  0  0  0  0  0  0  0  0  0  0  0
   12.0040    4.0527  -11.7632 H   0  0  0  0  0  0  0  0  0  0  0  0
   10.6085    4.1414  -13.2351 H   0  0  0  0  0  0  0  0  0  0  0  0
    9.0423   -3.3477  -19.9700 H   0  0  0  0  0  0  0  0  0  0  0  0
   12.2529   -5.3185  -21.1786 H   0  0  0  0  0  0  0  0  0  0  0  0
   10.2845   -5.8633  -21.4272 H   0  0  0  0  0  0  0  0  0  0  0  0
   11.2493   -3.9688  -21.8204 H   0  0  0  0  0  0  0  0  0  0  0  0
    7.8512   -6.6435  -18.2764 H   0  0  0  0  0  0  0  0  0  0  0  0
   11.4588    0.6118  -14.9008 H   0  0  0  0  0  0  0  0  0  0  0  0
    7.2110    2.0322  -17.2323 H   0  0  0  0  0  0  0  0  0  0  0  0
    8.4421    1.6497  -18.0997 H   0  0  0  0  0  0  0  0  0  0  0  0
    8.6392    1.3509  -16.5509 H   0  0  0  0  0  0  0  0  0  0  0  0
   13.6409    1.5054  -14.3276 H   0  0  0  0  0  0  0  0  0  0  0  0
   14.4519    1.6481  -16.1610 H   0  0  0  0  0  0  0  0  0  0  0  0
   13.4787    2.2316  -15.6542 H   0  0  0  0  0  0  0  0  0  0  0  0
   13.4392    2.6819  -18.0845 H   0  0  0  0  0  0  0  0  0  0  0  0
   11.9664    3.3343  -17.9024 H   0  0  0  0  0  0  0  0  0  0  0  0
   12.8463    2.0801  -17.2112 H   0  0  0  0  0  0  0  0  0  0  0  0
   11.4368    1.0493  -19.9029 H   0  0  0  0  0  0  0  0  0  0  0  0
   11.7223   -1.6108  -16.5282 H   0  0  0  0  0  0  0  0  0  0  0  0
   11.4470    0.1761  -16.5232 H   0  0  0  0  0  0  0  0  0  0  0  0
    5.8353   -0.6990  -19.2135 H   0  0  0  0  0  0  0  0  0  0  0  0
    7.3740   -0.2976  -20.0480 H   0  0  0  0  0  0  0  0  0  0  0  0
    6.5928   -1.8060  -19.2097 H   0  0  0  0  0  0  0  0  0  0  0  0
  1  2  1  0  0  0  0
  1  6  1  0  0  0  0
  1 77  1  1  0  0  0
  1 13  1  0  0  0  0
  2  3  1  0  0  0  0
  3  4  1  0  0  0  0
  3 71  1  0  0  0  0
  3 78  1  1  0  0  0
  4  5  1  0  0  0  0
  4 79  1  6  0  0  0
  4 74  1  0  0  0  0
  5  6  1  0  0  0  0
  5 72  1  0  0  0  0
  5 73  1  6  0  0  0
  6 80  1  0  0  0  0
  6 81  1  0  0  0  0
  7  8  1  0  0  0  0
  7 12  1  0  0  0  0
  7 82  1  1  0  0  0
  7 65  1  0  0  0  0
  8  9  1  0  0  0  0
  9 10  1  0  0  0  0
  9 70  1  0  0  0  0
  9 83  1  6  0  0  0
 10 11  1  0  0  0  0
 10 75  1  0  0  0  0
 10 84  1  6  0  0  0
 11 12  1  0  0  0  0
 11 85  1  6  0  0  0
 11 13  1  0  0  0  0
 12 86  1  0  0  0  0
 12 87  1  0  0  0  0
 14 15  1  0  0  0  0
 14 19  1  0  0  0  0
 14 88  1  1  0  0  0
 14 56  1  0  0  0  0
 15 16  1  0  0  0  0
 16 17  1  0  0  0  0
 16 64  1  0  0  0  0
 16 89  1  6  0  0  0
 17 18  1  0  0  0  0
 17 90  1  6  0  0  0
 17 69  1  0  0  0  0
 18 19  1  0  0  0  0
 18 91  1  6  0  0  0
 18 65  1  0  0  0  0
 19 92  1  0  0  0  0
 19 93  1  0  0  0  0
 20 21  1  0  0  0  0
 20 25  1  0  0  0  0
 20 48  1  0  0  0  0
 20 94  1  1  0  0  0
 21 22  1  0  0  0  0
 22 23  1  0  0  0  0
 22 67  1  0  0  0  0
 22 95  1  1  0  0  0
 23 24  1  0  0  0  0
 23 96  1  6  0  0  0
 23 68  1  0  0  0  0
 24 25  1  0  0  0  0
 24 66  1  0  0  0  0
 24 97  1  6  0  0  0
 25 98  1  0  0  0  0
 25 99  1  0  0  0  0
 26 27  1  0  0  0  0
 26 31  1  0  0  0  0
 26100  1  6  0  0  0
 26 47  1  0  0  0  0
 27 28  1  0  0  0  0
 27101  1  6  0  0  0
 27 49  1  0  0  0  0
 28 29  1  0  0  0  0
 28 48  1  0  0  0  0
 28102  1  6  0  0  0
 29 30  1  0  0  0  0
 29103  1  0  0  0  0
 29104  1  0  0  0  0
 30 31  1  0  0  0  0
 30105  1  1  0  0  0
 30 34  1  0  0  0  0
 32 33  2  0  0  0  0
 32 35  1  0  0  0  0
 32 76  1  0  0  0  0
 33 34  1  0  0  0  0
 33 38  1  0  0  0  0
 35 36  2  0  0  0  0
 35 60  1  0  0  0  0
 36 37  1  0  0  0  0
 36 39  1  0  0  0  0
 37 38  2  0  0  0  0
 37 42  1  0  0  0  0
 38106  1  0  0  0  0
 39 40  2  0  0  0  0
 39 59  1  0  0  0  0
 40 41  1  0  0  0  0
 40 43  1  0  0  0  0
 41 42  2  0  0  0  0
 41 46  1  0  0  0  0
 42107  1  0  0  0  0
 43 44  1  0  0  0  0
 43 58  2  0  0  0  0
 44 45  1  0  0  0  0
 44108  1  1  0  0  0
 44 56  1  0  0  0  0
 45 46  1  0  0  0  0
 45 52  1  0  0  0  0
 45109  1  1  0  0  0
 46110  1  0  0  0  0
 46111  1  0  0  0  0
 47112  1  0  0  0  0
 47113  1  0  0  0  0
 47114  1  0  0  0  0
 49115  1  0  0  0  0
 50 51  2  0  0  0  0
 51 52  1  0  0  0  0
 52 57  1  0  0  0  0
 52116  1  6  0  0  0
 53117  1  0  0  0  0
 54 62  1  0  0  0  0
 54118  1  6  0  0  0
 54 53  1  0  0  0  0
 54 55  1  0  0  0  0
 55119  1  1  0  0  0
 55 61  1  0  0  0  0
 55 51  1  0  0  0  0
 57 63  1  0  0  0  0
 59120  1  0  0  0  0
 60121  1  0  0  0  0
 61122  1  0  0  0  0
 62123  1  0  0  0  0
 62124  1  0  0  0  0
 62125  1  0  0  0  0
 63126  1  0  0  0  0
 63127  1  0  0  0  0
 63128  1  0  0  0  0
 64129  1  0  0  0  0
 64130  1  0  0  0  0
 64131  1  0  0  0  0
 66132  1  0  0  0  0
 67133  1  0  0  0  0
 67134  1  0  0  0  0
 67135  1  0  0  0  0
 68136  1  0  0  0  0
 69137  1  0  0  0  0
 70138  1  0  0  0  0
 70139  1  0  0  0  0
 70140  1  0  0  0  0
 71141  1  0  0  0  0
 71142  1  0  0  0  0
 71143  1  0  0  0  0
 72144  1  0  0  0  0
 72145  1  0  0  0  0
 72146  1  0  0  0  0
 73147  1  0  0  0  0
 74148  1  0  0  0  0
 75149  1  0  0  0  0
 76150  1  0  0  0  0
 76151  1  0  0  0  0
 76152  1  0  0  0  0
M  END
>  <DRUGBANK_ID>
DB06810

>  <COMMON_NAME>
Plicamycin

>  <CAS_NUMBER>
18378-89-7

>  <UNII>
NIJ123W41V

>  <SYNONYMS>
Aureolic acid; Mithramycin; Mithramycine; Mithramycinum; Plicamicina; Plicamycin; Plicamycine; Plicamycinum

$$$$
