
 OpenBabel10282417133D

 27 27  0  0  0  0  0  0  0  0999 V2000
    1.0771   -0.0246    0.0161 C   0  0  0  0  0  0  0  0  0  0  0  0
    0.6485   -1.4576    0.1133 C   0  0  0  0  0  0  0  0  0  0  0  0
    1.5225   -2.5330   -0.1516 C   0  0  0  0  0  0  0  0  0  0  0  0
    2.7998   -2.1606   -0.4807 O   0  0  0  0  0  0  0  0  0  0  0  0
    1.0873   -3.8658   -0.0559 C   0  0  0  0  0  0  0  0  0  0  0  0
    2.0699   -4.9666   -0.2622 C   0  0  0  0  0  0  0  0  0  0  0  0
    1.8091   -6.1520   -0.0888 O   0  0  0  0  0  0  0  0  0  0  0  0
   -0.2571   -4.1193    0.2814 C   0  0  0  0  0  0  0  0  0  0  0  0
   -0.8517   -5.4919    0.5074 C   0  0  0  0  0  0  0  0  0  0  0  0
   -1.2298   -5.6792    1.8653 O   0  0  0  0  0  0  0  0  0  0  0  0
    0.0792   -5.4217    2.9667 P   0  0  0  0  0  0  0  0  0  0  0  0
   -0.6423   -3.9871    3.2772 O   0  0  0  0  0  0  0  0  0  0  0  0
   -0.8169   -6.3116    4.0048 O   0  0  0  0  0  0  0  0  0  0  0  0
    1.2507   -5.1911    3.9525 O   0  0  0  0  0  0  0  0  0  0  0  0
   -1.1103   -3.0182    0.5120 C   0  0  0  0  0  0  0  0  0  0  0  0
   -0.6790   -1.7015    0.4424 N   0  3  0  0  0  0  0  0  0  0  0  0
   -1.4905   -0.7643    0.7009 O   0  5  0  0  0  0  0  0  0  0  0  0
    0.7004    0.5628    0.8591 H   0  0  0  0  0  0  0  0  0  0  0  0
    0.7101    0.4054   -0.9204 H   0  0  0  0  0  0  0  0  0  0  0  0
    2.1666    0.0761    0.0323 H   0  0  0  0  0  0  0  0  0  0  0  0
    3.4138   -2.8839   -0.6672 H   0  0  0  0  0  0  0  0  0  0  0  0
    3.0906   -4.7024   -0.5583 H   0  0  0  0  0  0  0  0  0  0  0  0
   -1.7397   -5.6039   -0.1236 H   0  0  0  0  0  0  0  0  0  0  0  0
   -0.2192   -6.3312    0.2475 H   0  0  0  0  0  0  0  0  0  0  0  0
   -0.0795   -3.2457    3.0021 H   0  0  0  0  0  0  0  0  0  0  0  0
   -1.3362   -6.9745    3.5197 H   0  0  0  0  0  0  0  0  0  0  0  0
   -2.1424   -3.0979    0.8385 H   0  0  0  0  0  0  0  0  0  0  0  0
  1  2  1  0  0  0  0
  1 18  1  0  0  0  0
  1 19  1  0  0  0  0
  1 20  1  0  0  0  0
  2  3  2  0  0  0  0
  2 16  1  0  0  0  0
  3  4  1  0  0  0  0
  3  5  1  0  0  0  0
  4 21  1  0  0  0  0
  5  6  1  0  0  0  0
  5  8  2  0  0  0  0
  6  7  2  0  0  0  0
  6 22  1  0  0  0  0
  8  9  1  0  0  0  0
  8 15  1  0  0  0  0
  9 10  1  0  0  0  0
  9 23  1  0  0  0  0
  9 24  1  0  0  0  0
 10 11  1  0  0  0  0
 11 12  1  0  0  0  0
 11 13  1  0  0  0  0
 11 14  2  0  0  0  0
 12 25  1  0  0  0  0
 13 26  1  0  0  0  0
 15 16  2  0  0  0  0
 15 27  1  0  0  0  0
 16 17  1  0  0  0  0
M  CHG  2  16   1  17  -1
M  END
>  <DRUGBANK_ID>
DB03629

>  <SECONDARY_ACCESSION_NUMBERS>
EXPT02377

>  <COMMON_NAME>
Pyridoxal-5'-Phosphate-N-Oxide

$$$$
