
 OpenBabel10282417143D

 28 27  0  0  0  0  0  0  0  0999 V2000
    0.9711   -0.0047   -0.1868 N   0  0  0  0  0  0  0  0  0  0  0  0
    0.4413   -1.1811    0.5362 C   0  0  0  0  0  0  0  0  0  0  0  0
    0.9398   -1.1078    2.0300 C   0  0  0  0  0  0  0  0  0  0  0  0
    0.5416    0.1189    2.8661 C   0  0  0  0  0  0  0  0  0  0  0  0
   -0.8370    0.1419    3.1886 O   0  0  0  0  0  0  0  0  0  0  0  0
   -1.1160   -1.1698    0.5227 C   0  0  0  0  0  0  0  0  0  0  0  0
   -1.8827   -0.9758   -0.7742 C   0  0  0  0  0  0  0  0  0  0  0  0
   -1.7957   -2.0993   -1.6114 O   0  0  0  0  0  0  0  0  0  0  0  0
    1.0943   -2.4691   -0.0868 C   0  0  0  0  0  0  0  0  0  0  0  0
    0.9892   -2.7597   -1.5893 C   0  0  0  0  0  0  0  0  0  0  0  0
    0.8994   -1.5888   -2.3913 O   0  0  0  0  0  0  0  0  0  0  0  0
    0.6275    0.8548    0.2451 H   0  0  0  0  0  0  0  0  0  0  0  0
    1.9891    0.0326   -0.0765 H   0  0  0  0  0  0  0  0  0  0  0  0
    0.5924   -2.0083    2.5542 H   0  0  0  0  0  0  0  0  0  0  0  0
    2.0386   -1.1501    2.0365 H   0  0  0  0  0  0  0  0  0  0  0  0
    1.0704    0.0852    3.8240 H   0  0  0  0  0  0  0  0  0  0  0  0
    0.8219    1.0579    2.3798 H   0  0  0  0  0  0  0  0  0  0  0  0
   -1.2762    0.7745    2.5843 H   0  0  0  0  0  0  0  0  0  0  0  0
   -1.4794   -2.0657    1.0422 H   0  0  0  0  0  0  0  0  0  0  0  0
   -1.4621   -0.3135    1.0926 H   0  0  0  0  0  0  0  0  0  0  0  0
   -2.9445   -0.8260   -0.5466 H   0  0  0  0  0  0  0  0  0  0  0  0
   -1.5435   -0.0859   -1.3131 H   0  0  0  0  0  0  0  0  0  0  0  0
   -1.0254   -1.9096   -2.1837 H   0  0  0  0  0  0  0  0  0  0  0  0
    2.1741   -2.4271    0.1199 H   0  0  0  0  0  0  0  0  0  0  0  0
    0.7350   -3.3583    0.4472 H   0  0  0  0  0  0  0  0  0  0  0  0
    1.8395   -3.3535   -1.9432 H   0  0  0  0  0  0  0  0  0  0  0  0
    0.1236   -3.3941   -1.7968 H   0  0  0  0  0  0  0  0  0  0  0  0
    0.9368   -0.8111   -1.7879 H   0  0  0  0  0  0  0  0  0  0  0  0
  1  2  1  0  0  0  0
  1 12  1  0  0  0  0
  1 13  1  0  0  0  0
  2  3  1  0  0  0  0
  2  6  1  0  0  0  0
  2  9  1  0  0  0  0
  3  4  1  0  0  0  0
  3 14  1  0  0  0  0
  3 15  1  0  0  0  0
  4  5  1  0  0  0  0
  4 16  1  0  0  0  0
  4 17  1  0  0  0  0
  5 18  1  0  0  0  0
  6  7  1  0  0  0  0
  6 19  1  0  0  0  0
  6 20  1  0  0  0  0
  7  8  1  0  0  0  0
  7 21  1  0  0  0  0
  7 22  1  0  0  0  0
  8 23  1  0  0  0  0
  9 10  1  0  0  0  0
  9 24  1  0  0  0  0
  9 25  1  0  0  0  0
 10 11  1  0  0  0  0
 10 26  1  0  0  0  0
 10 27  1  0  0  0  0
 11 28  1  0  0  0  0
M  END
>  <DRUGBANK_ID>
DB04237

>  <SECONDARY_ACCESSION_NUMBERS>
EXPT03004

>  <COMMON_NAME>
Tris(Hydroxyethyl)Aminomethane

$$$$
