
 OpenBabel10282417193D

 41 45  0  0  1  0  0  0  0  0999 V2000
    1.1215   -0.0569    0.0401 C   0  0  0  0  0  0  0  0  0  0  0  0
    0.5456    0.9041    1.0939 C   0  0  1  0  0  0  0  0  0  0  0  0
    1.0995    2.3268    0.9580 C   0  0  0  0  0  0  0  0  0  0  0  0
    0.2630    3.4697    1.3568 C   0  0  0  0  0  0  0  0  0  0  0  0
    0.6457    4.7480    1.1623 C   0  0  0  0  0  0  0  0  0  0  0  0
    1.9160    5.0249    0.6023 C   0  0  0  0  0  0  0  0  0  0  0  0
    2.5168    6.1642    0.3273 N   0  0  0  0  0  0  0  0  0  0  0  0
    3.7401    5.8122   -0.1792 C   0  0  0  0  0  0  0  0  0  0  0  0
    3.8888    4.4447   -0.2176 C   0  0  0  0  0  0  0  0  0  0  0  0
    2.7161    3.9389    0.2822 N   0  0  0  0  0  0  0  0  0  0  0  0
    2.3212    2.6136    0.4513 C   0  0  0  0  0  0  0  0  0  0  0  0
   -0.9202    0.8564    1.0519 N   0  0  0  0  0  0  0  0  0  0  0  0
   -1.7275    0.9489   -0.0461 C   0  0  0  0  0  0  0  0  0  0  0  0
   -3.0089    0.9397    0.4863 C   0  0  0  0  0  0  0  0  0  0  0  0
   -4.1114    1.0099   -0.3054 N   0  0  0  0  0  0  0  0  0  0  0  0
   -3.7928    1.0868   -1.6287 C   0  0  0  0  0  0  0  0  0  0  0  0
   -2.4915    1.0996   -2.1363 C   0  0  0  0  0  0  0  0  0  0  0  0
   -1.3904    1.0305   -1.3511 N   0  0  0  0  0  0  0  0  0  0  0  0
   -2.2468    1.1606   -3.5559 C   0  0  0  0  0  0  0  0  0  0  0  0
   -2.6247    2.1161   -4.5205 C   0  0  0  0  0  0  0  0  0  0  0  0
   -2.2189    1.7858   -5.7510 N   0  0  0  0  0  0  0  0  0  0  0  0
   -1.5614    0.6244   -5.5678 N   0  0  0  0  0  0  0  0  0  0  0  0
   -1.5590    0.2030   -4.2701 C   0  0  0  0  0  0  0  0  0  0  0  0
   -0.9601   -0.0537   -6.6910 C   0  0  0  0  0  0  0  0  0  0  0  0
   -2.9407    0.8527    1.8483 N   0  0  0  0  0  0  0  0  0  0  0  0
   -1.6526    0.7927    2.1931 N   0  0  0  0  0  0  0  0  0  0  0  0
    0.8966    0.2876   -0.9754 H   0  0  0  0  0  0  0  0  0  0  0  0
    0.7027   -1.0617    0.1522 H   0  0  0  0  0  0  0  0  0  0  0  0
    2.2091   -0.1416    0.1063 H   0  0  0  0  0  0  0  0  0  0  0  0
    0.8259    0.5267    2.0880 H   0  0  0  0  0  0  0  0  0  0  0  0
   -0.7049    3.2952    1.8169 H   0  0  0  0  0  0  0  0  0  0  0  0
    0.0043    5.5749    1.4386 H   0  0  0  0  0  0  0  0  0  0  0  0
    4.4511    6.5669   -0.4889 H   0  0  0  0  0  0  0  0  0  0  0  0
    4.7012    3.8144   -0.5481 H   0  0  0  0  0  0  0  0  0  0  0  0
    3.0422    1.8704    0.1353 H   0  0  0  0  0  0  0  0  0  0  0  0
   -4.6466    1.1173   -2.2994 H   0  0  0  0  0  0  0  0  0  0  0  0
   -3.1756    3.0377   -4.3782 H   0  0  0  0  0  0  0  0  0  0  0  0
   -1.0866   -0.7225   -3.9721 H   0  0  0  0  0  0  0  0  0  0  0  0
   -1.7395   -0.2783   -7.4232 H   0  0  0  0  0  0  0  0  0  0  0  0
   -0.1956    0.5962   -7.1230 H   0  0  0  0  0  0  0  0  0  0  0  0
   -0.5020   -0.9833   -6.3427 H   0  0  0  0  0  0  0  0  0  0  0  0
  1 27  1  0  0  0  0
  1 28  1  0  0  0  0
  1 29  1  0  0  0  0
  2  1  1  0  0  0  0
  2  3  1  0  0  0  0
  2 12  1  0  0  0  0
  2 30  1  1  0  0  0
  3  4  1  0  0  0  0
  3 11  2  0  0  0  0
  4  5  2  0  0  0  0
  4 31  1  0  0  0  0
  5  6  1  0  0  0  0
  5 32  1  0  0  0  0
  6  7  2  0  0  0  0
  6 10  1  0  0  0  0
  7  8  1  0  0  0  0
  8  9  2  0  0  0  0
  8 33  1  0  0  0  0
  9 10  1  0  0  0  0
  9 34  1  0  0  0  0
 10 11  1  0  0  0  0
 11 35  1  0  0  0  0
 12 13  1  0  0  0  0
 12 26  1  0  0  0  0
 13 14  1  0  0  0  0
 13 18  2  0  0  0  0
 14 15  2  0  0  0  0
 14 25  1  0  0  0  0
 15 16  1  0  0  0  0
 16 17  2  0  0  0  0
 16 36  1  0  0  0  0
 17 18  1  0  0  0  0
 17 19  1  0  0  0  0
 19 20  1  0  0  0  0
 19 23  2  0  0  0  0
 20 21  2  0  0  0  0
 20 37  1  0  0  0  0
 21 22  1  0  0  0  0
 22 23  1  0  0  0  0
 22 24  1  0  0  0  0
 23 38  1  0  0  0  0
 24 39  1  0  0  0  0
 24 40  1  0  0  0  0
 24 41  1  0  0  0  0
 25 26  2  0  0  0  0
M  END
>  <DRUGBANK_ID>
DB12048

>  <COMMON_NAME>
Savolitinib

>  <CAS_NUMBER>
1313725-88-0

>  <UNII>
2A2DA6857R

>  <SYNONYMS>
Savolitinib; Volitinib

$$$$
