573
 OpenBabel10282417103D

 32 33  0  0  1  0  0  0  0  0999 V2000
    1.0298   -0.0453   -0.1487 O   0  0  0  0  0  0  0  0  0  0  0  0
    2.0942    5.9880   -1.7085 O   0  0  0  0  0  0  0  0  0  0  0  0
    0.2103    6.3520   -0.5481 O   0  0  0  0  0  0  0  0  0  0  0  0
    0.2529    4.4249   -2.0510 C   0  0  3  0  0  0  0  0  0  0  0  0
   -0.1044    3.3382   -1.0521 C   0  0  0  0  0  0  0  0  0  0  0  0
    0.4748    2.0708   -1.1589 C   0  0  0  0  0  0  0  0  0  0  0  0
   -0.9815    4.8043   -2.8614 C   0  0  0  0  0  0  0  0  0  0  0  0
   -0.9642    3.5962    0.0269 C   0  0  0  0  0  0  0  0  0  0  0  0
    0.3249    1.1396   -0.1256 C   0  0  0  0  0  0  0  0  0  0  0  0
    0.8285    5.6645   -1.3585 C   0  0  0  0  0  0  0  0  0  0  0  0
   -1.1298    2.6607    1.0470 C   0  0  0  0  0  0  0  0  0  0  0  0
   -0.4958    1.4212    0.9668 C   0  0  0  0  0  0  0  0  0  0  0  0
    2.4135    0.0318   -0.0864 C   0  0  0  0  0  0  0  0  0  0  0  0
    3.1422    1.2259   -0.0011 C   0  0  0  0  0  0  0  0  0  0  0  0
    3.1083   -1.1804   -0.0607 C   0  0  0  0  0  0  0  0  0  0  0  0
    4.5308    1.2198    0.0903 C   0  0  0  0  0  0  0  0  0  0  0  0
    4.4987   -1.1875    0.1092 C   0  0  0  0  0  0  0  0  0  0  0  0
    5.2104    0.0116    0.1563 C   0  0  0  0  0  0  0  0  0  0  0  0
    2.5312    5.4043   -2.3548 H   0  0  0  0  0  0  0  0  0  0  0  0
    1.0101    4.0369   -2.7461 H   0  0  0  0  0  0  0  0  0  0  0  0
    1.1291    1.8276   -1.9926 H   0  0  0  0  0  0  0  0  0  0  0  0
   -1.7645    5.2279   -2.2225 H   0  0  0  0  0  0  0  0  0  0  0  0
   -0.7363    5.5531   -3.6197 H   0  0  0  0  0  0  0  0  0  0  0  0
   -1.4035    3.9255   -3.3621 H   0  0  0  0  0  0  0  0  0  0  0  0
   -1.4864    4.5501    0.1014 H   0  0  0  0  0  0  0  0  0  0  0  0
   -1.7222    2.9254    1.9198 H   0  0  0  0  0  0  0  0  0  0  0  0
   -0.6249    0.6994    1.7675 H   0  0  0  0  0  0  0  0  0  0  0  0
    2.6578    2.1950    0.0066 H   0  0  0  0  0  0  0  0  0  0  0  0
    2.5761   -2.1243   -0.1508 H   0  0  0  0  0  0  0  0  0  0  0  0
    5.0654    2.1640    0.1413 H   0  0  0  0  0  0  0  0  0  0  0  0
    5.0308   -2.1288    0.2209 H   0  0  0  0  0  0  0  0  0  0  0  0
    6.2922    0.0082    0.2555 H   0  0  0  0  0  0  0  0  0  0  0  0
  1  9  1  0  0  0  0
  1 13  1  0  0  0  0
  2 10  1  0  0  0  0
  2 19  1  0  0  0  0
  3 10  2  0  0  0  0
  4  5  1  0  0  0  0
  4  7  1  0  0  0  0
  4 10  1  0  0  0  0
  4 20  1  0  0  0  0
  5  6  2  0  0  0  0
  5  8  1  0  0  0  0
  6  9  1  0  0  0  0
  6 21  1  0  0  0  0
  7 22  1  0  0  0  0
  7 23  1  0  0  0  0
  7 24  1  0  0  0  0
  8 11  2  0  0  0  0
  8 25  1  0  0  0  0
  9 12  2  0  0  0  0
 11 12  1  0  0  0  0
 11 26  1  0  0  0  0
 12 27  1  0  0  0  0
 13 14  2  0  0  0  0
 13 15  1  0  0  0  0
 14 16  1  0  0  0  0
 14 28  1  0  0  0  0
 15 17  2  0  0  0  0
 15 29  1  0  0  0  0
 16 18  2  0  0  0  0
 16 30  1  0  0  0  0
 17 18  1  0  0  0  0
 17 31  1  0  0  0  0
 18 32  1  0  0  0  0
M  END
>  <DRUGBANK_ID>
DB00573

>  <SECONDARY_ACCESSION_NUMBERS>
APRD00970

>  <COMMON_NAME>
Fenoprofen

>  <CAS_NUMBER>
29679-58-1

>  <UNII>
RA33EAC7KY

>  <SYNONYMS>
(+/-)-fenoprofen; (+/-)-m-phenoxyhydratropic acid; (±)-2-(3-phenoxyphenyl)propionic acid; 2-(3-phenoxyphenyl)propionic acid; 2-(m-phenoxyphenyl)propionic acid; 3-phenoxyhydratropic acid; DL-2-(3-phenoxyphenyl)propionic acid; Fenoprofen; Fénoprofène; Fenoprofeno; Fenoprofenum; α-(m-phenoxyphenyl)propionic acid; α-methyl-3-phenoxybenzeneacetic acid

$$$$
