
 OpenBabel10282417223D

 56 61  0  0  0  0  0  0  0  0999 V2000
   -0.9144   -0.2358    1.3860 C   0  0  0  0  0  0  0  0  0  0  0  0
    0.4755   -0.7638    1.0302 C   0  0  1  0  0  0  0  0  0  0  0  0
    1.0095    0.0274   -0.0579 O   0  0  0  0  0  0  0  0  0  0  0  0
    1.4761   -1.0537    2.2075 C   0  0  0  0  0  0  0  0  0  0  0  0
    1.0298   -2.5373    2.1919 C   0  0  1  0  0  0  0  0  0  0  0  0
   -0.1386   -2.6798    3.0845 N   0  0  0  0  0  0  0  0  0  0  0  0
    0.5232   -2.2884    0.7466 C   0  0  0  0  0  0  0  0  0  0  0  0
    1.9576   -3.7706    2.4745 C   0  0  0  0  0  0  0  0  0  0  0  0
    2.6606   -3.9459    3.6840 C   0  0  0  0  0  0  0  0  0  0  0  0
    3.2682   -5.1673    4.0085 C   0  0  0  0  0  0  0  0  0  0  0  0
    3.2094   -6.2444    3.1159 C   0  0  0  0  0  0  0  0  0  0  0  0
    2.5296   -6.0929    1.9133 C   0  0  0  0  0  0  0  0  0  0  0  0
    1.9504   -4.8693    1.5910 C   0  0  0  0  0  0  0  0  0  0  0  0
    3.8340   -7.5181    3.4086 C   0  0  0  0  0  0  0  0  0  0  0  0
    3.5356   -8.3316    4.4904 C   0  0  0  0  0  0  0  0  0  0  0  0
    4.3980   -9.3866    4.3413 N   0  0  0  0  0  0  0  0  0  0  0  0
    4.6448  -10.5084    5.2224 C   0  0  0  0  0  0  0  0  0  0  0  0
    5.1281  -11.6702    4.5138 O   0  0  0  0  0  0  0  0  0  0  0  0
    6.0946  -11.4057    3.5710 C   0  0  0  0  0  0  0  0  0  0  0  0
    7.0023  -12.4166    3.2855 C   0  0  0  0  0  0  0  0  0  0  0  0
    7.9743  -12.1520    2.3373 C   0  0  0  0  0  0  0  0  0  0  0  0
    8.0705  -10.9827    1.6631 N   0  0  0  0  0  0  0  0  0  0  0  0
    7.1434  -10.0280    1.9411 C   0  0  0  0  0  0  0  0  0  0  0  0
    6.1442  -10.1920    2.8822 C   0  0  0  0  0  0  0  0  0  0  0  0
    5.1529   -9.1920    3.2135 C   0  0  0  0  0  0  0  0  0  0  0  0
    4.8216   -8.0720    2.6160 N   0  0  0  0  0  0  0  0  0  0  0  0
    2.5836   -8.1565    5.5760 C   0  0  0  0  0  0  0  0  0  0  0  0
    3.0393   -8.0122    6.8896 C   0  0  0  0  0  0  0  0  0  0  0  0
    2.1381   -7.7380    7.9170 C   0  0  0  0  0  0  0  0  0  0  0  0
    0.7820   -7.5838    7.6318 C   0  0  0  0  0  0  0  0  0  0  0  0
    0.3223   -7.7140    6.3224 C   0  0  0  0  0  0  0  0  0  0  0  0
    1.2174   -8.0246    5.2992 C   0  0  0  0  0  0  0  0  0  0  0  0
   -1.2288   -0.5066    2.3970 H   0  0  0  0  0  0  0  0  0  0  0  0
   -1.6632   -0.6214    0.6851 H   0  0  0  0  0  0  0  0  0  0  0  0
   -0.9481    0.8571    1.3367 H   0  0  0  0  0  0  0  0  0  0  0  0
    0.8312    0.9533    0.1793 H   0  0  0  0  0  0  0  0  0  0  0  0
    2.5259   -0.9083    1.9184 H   0  0  0  0  0  0  0  0  0  0  0  0
    1.3077   -0.4921    3.1323 H   0  0  0  0  0  0  0  0  0  0  0  0
   -0.0554   -3.4966    3.6956 H   0  0  0  0  0  0  0  0  0  0  0  0
   -1.0198   -2.8334    2.5980 H   0  0  0  0  0  0  0  0  0  0  0  0
   -0.4083   -2.7830    0.4550 H   0  0  0  0  0  0  0  0  0  0  0  0
    1.2695   -2.5316   -0.0248 H   0  0  0  0  0  0  0  0  0  0  0  0
    2.6773   -3.1354    4.4127 H   0  0  0  0  0  0  0  0  0  0  0  0
    3.7559   -5.2755    4.9744 H   0  0  0  0  0  0  0  0  0  0  0  0
    2.4101   -6.9327    1.2343 H   0  0  0  0  0  0  0  0  0  0  0  0
    1.4256   -4.7879    0.6419 H   0  0  0  0  0  0  0  0  0  0  0  0
    3.7119  -10.7802    5.7219 H   0  0  0  0  0  0  0  0  0  0  0  0
    5.3913  -10.2001    5.9636 H   0  0  0  0  0  0  0  0  0  0  0  0
    6.9622  -13.3718    3.7941 H   0  0  0  0  0  0  0  0  0  0  0  0
    8.7271  -12.8955    2.0876 H   0  0  0  0  0  0  0  0  0  0  0  0
    7.2448   -9.1059    1.3755 H   0  0  0  0  0  0  0  0  0  0  0  0
    4.1010   -8.0709    7.1151 H   0  0  0  0  0  0  0  0  0  0  0  0
    2.4990   -7.6157    8.9344 H   0  0  0  0  0  0  0  0  0  0  0  0
    0.0834   -7.3488    8.4304 H   0  0  0  0  0  0  0  0  0  0  0  0
   -0.7282   -7.5547    6.0935 H   0  0  0  0  0  0  0  0  0  0  0  0
    0.8471   -8.1330    4.2815 H   0  0  0  0  0  0  0  0  0  0  0  0
  1 33  1  0  0  0  0
  1 34  1  0  0  0  0
  1 35  1  0  0  0  0
  2  4  1  0  0  0  0
  2  7  1  0  0  0  0
  2  3  1  6  0  0  0
  2  1  1  0  0  0  0
  3 36  1  0  0  0  0
  4 37  1  0  0  0  0
  4 38  1  0  0  0  0
  5  4  1  0  0  0  0
  5  7  1  0  0  0  0
  5  8  1  0  0  0  0
  5  6  1  1  0  0  0
  6 39  1  0  0  0  0
  6 40  1  0  0  0  0
  7 41  1  0  0  0  0
  7 42  1  0  0  0  0
  8  9  2  0  0  0  0
  8 13  1  0  0  0  0
  9 10  1  0  0  0  0
  9 43  1  0  0  0  0
 10 11  2  0  0  0  0
 10 44  1  0  0  0  0
 11 12  1  0  0  0  0
 11 14  1  0  0  0  0
 12 13  2  0  0  0  0
 12 45  1  0  0  0  0
 13 46  1  0  0  0  0
 14 15  2  0  0  0  0
 14 26  1  0  0  0  0
 15 16  1  0  0  0  0
 15 27  1  0  0  0  0
 16 17  1  0  0  0  0
 16 25  1  0  0  0  0
 17 18  1  0  0  0  0
 17 47  1  0  0  0  0
 17 48  1  0  0  0  0
 18 19  1  0  0  0  0
 19 20  2  0  0  0  0
 19 24  1  0  0  0  0
 20 21  1  0  0  0  0
 20 49  1  0  0  0  0
 21 22  2  0  0  0  0
 21 50  1  0  0  0  0
 22 23  1  0  0  0  0
 23 24  2  0  0  0  0
 23 51  1  0  0  0  0
 24 25  1  0  0  0  0
 25 26  2  0  0  0  0
 27 28  2  0  0  0  0
 27 32  1  0  0  0  0
 28 29  1  0  0  0  0
 28 52  1  0  0  0  0
 29 30  2  0  0  0  0
 29 53  1  0  0  0  0
 30 31  1  0  0  0  0
 30 54  1  0  0  0  0
 31 32  2  0  0  0  0
 31 55  1  0  0  0  0
 32 56  1  0  0  0  0
M  END
>  <DRUGBANK_ID>
DB15054

>  <COMMON_NAME>
TAS-117

>  <CAS_NUMBER>
1402602-94-1

>  <UNII>
QI52W1ZIIB

$$$$
