
 OpenBabel10282417173D

 61 64  0  0  0  0  0  0  0  0999 V2000
    1.0036   -0.1543    0.0259 O   0  0  0  0  0  0  0  0  0  0  0  0
    2.2128   -0.0120   -0.0552 C   0  0  0  0  0  0  0  0  0  0  0  0
    3.0891   -1.2642   -0.0502 C   0  0  0  0  0  0  0  0  0  0  0  0
    2.3743   -2.4910   -0.0613 C   0  0  0  0  0  0  0  0  0  0  0  0
    3.0146   -3.7371   -0.0571 C   0  0  0  0  0  0  0  0  0  0  0  0
    4.3996   -3.7987   -0.0300 C   0  0  0  0  0  0  0  0  0  0  0  0
    5.1560   -2.6180    0.0163 C   0  0  0  0  0  0  0  0  0  0  0  0
    6.6319   -2.7034    0.0193 C   0  0  0  0  0  0  0  0  0  0  0  0
    7.3075   -3.2432   -1.0771 C   0  0  0  0  0  0  0  0  0  0  0  0
    8.6965   -3.1478   -1.1732 C   0  0  0  0  0  0  0  0  0  0  0  0
    9.4361   -2.4880   -0.1899 C   0  0  0  0  0  0  0  0  0  0  0  0
    8.7686   -1.9111    0.8869 C   0  0  0  0  0  0  0  0  0  0  0  0
    7.3957   -2.1008    1.0339 C   0  0  0  0  0  0  0  0  0  0  0  0
   10.7958   -2.3657   -0.1604 O   0  0  0  0  0  0  0  0  0  0  0  0
   11.5133   -3.0999   -1.1396 C   0  0  0  0  0  0  0  0  0  0  0  0
   11.1944   -4.4131   -1.1107 F   0  0  0  0  0  0  0  0  0  0  0  0
   11.2704   -2.6050   -2.3725 F   0  0  0  0  0  0  0  0  0  0  0  0
   12.8359   -2.9871   -0.8931 F   0  0  0  0  0  0  0  0  0  0  0  0
    4.5011   -1.3339   -0.0005 C   0  0  0  0  0  0  0  0  0  0  0  0
    5.4213   -0.1420   -0.0076 C   0  0  0  0  0  0  0  0  0  0  0  0
    2.8018    1.2399   -0.2288 N   0  0  0  0  0  0  0  0  0  0  0  0
    2.1344    2.4728   -0.1872 C   0  0  0  0  0  0  0  0  0  0  0  0
    1.0845    2.7142    0.6650 C   0  0  0  0  0  0  0  0  0  0  0  0
    0.5064    3.9718    0.6368 C   0  0  0  0  0  0  0  0  0  0  0  0
    0.9637    4.9695   -0.2367 C   0  0  0  0  0  0  0  0  0  0  0  0
    1.9961    4.7494   -1.0673 N   0  0  0  0  0  0  0  0  0  0  0  0
    2.5755    3.5240   -0.9980 C   0  0  0  0  0  0  0  0  0  0  0  0
    0.3490    6.1935   -0.1841 N   0  0  0  0  0  0  0  0  0  0  0  0
    0.3957    6.9217    1.0749 C   0  0  0  0  0  0  0  0  0  0  0  0
   -0.9987    7.5053    1.3459 C   0  0  1  0  0  0  0  0  0  0  0  0
   -0.8858    8.2072    2.1807 H   0  0  0  0  0  0  0  0  0  0  0  0
   -1.4715    8.2901    0.2273 O   0  0  0  0  0  0  0  0  0  0  0  0
   -1.4055    7.6275   -1.0654 C   0  0  1  0  0  0  0  0  0  0  0  0
   -1.5895    8.4112   -1.8096 H   0  0  0  0  0  0  0  0  0  0  0  0
   -0.0021    7.0064   -1.3433 C   0  0  0  0  0  0  0  0  0  0  0  0
   -2.5528    6.6255   -1.2102 C   0  0  0  0  0  0  0  0  0  0  0  0
   -2.0064    6.4434    1.8057 C   0  0  0  0  0  0  0  0  0  0  0  0
    1.2832   -2.4924   -0.0753 H   0  0  0  0  0  0  0  0  0  0  0  0
    2.4323   -4.6570   -0.0740 H   0  0  0  0  0  0  0  0  0  0  0  0
    4.8926   -4.7709   -0.0433 H   0  0  0  0  0  0  0  0  0  0  0  0
    6.7544   -3.7174   -1.8852 H   0  0  0  0  0  0  0  0  0  0  0  0
    9.1595   -3.5853   -2.0517 H   0  0  0  0  0  0  0  0  0  0  0  0
    9.3037   -1.3040    1.6144 H   0  0  0  0  0  0  0  0  0  0  0  0
    6.9036   -1.6876    1.9142 H   0  0  0  0  0  0  0  0  0  0  0  0
    6.0778   -0.1542    0.8564 H   0  0  0  0  0  0  0  0  0  0  0  0
    5.9894   -0.1101   -0.9440 H   0  0  0  0  0  0  0  0  0  0  0  0
    4.9881    0.8209    0.1672 H   0  0  0  0  0  0  0  0  0  0  0  0
    3.6892    1.3148   -0.6773 H   0  0  0  0  0  0  0  0  0  0  0  0
    0.7351    1.9672    1.3698 H   0  0  0  0  0  0  0  0  0  0  0  0
   -0.3282    4.1645    1.2961 H   0  0  0  0  0  0  0  0  0  0  0  0
    3.4265    3.3952   -1.6617 H   0  0  0  0  0  0  0  0  0  0  0  0
    0.7166    6.3024    1.9214 H   0  0  0  0  0  0  0  0  0  0  0  0
    1.1300    7.7330    0.9849 H   0  0  0  0  0  0  0  0  0  0  0  0
    0.7279    7.8188   -1.4598 H   0  0  0  0  0  0  0  0  0  0  0  0
   -0.0244    6.4349   -2.2785 H   0  0  0  0  0  0  0  0  0  0  0  0
   -3.3459    6.8335   -0.4848 H   0  0  0  0  0  0  0  0  0  0  0  0
   -3.0370    6.6901   -2.1850 H   0  0  0  0  0  0  0  0  0  0  0  0
   -2.2012    5.5927   -1.0903 H   0  0  0  0  0  0  0  0  0  0  0  0
   -2.5551    5.9606    1.0085 H   0  0  0  0  0  0  0  0  0  0  0  0
   -1.5448    5.6205    2.3539 H   0  0  0  0  0  0  0  0  0  0  0  0
   -2.7666    6.9053    2.4407 H   0  0  0  0  0  0  0  0  0  0  0  0
  1  2  2  0  0  0  0
  2  3  1  0  0  0  0
  2 21  1  0  0  0  0
  3  4  2  0  0  0  0
  3 19  1  0  0  0  0
  4  5  1  0  0  0  0
  4 38  1  0  0  0  0
  5  6  2  0  0  0  0
  5 39  1  0  0  0  0
  6  7  1  0  0  0  0
  6 40  1  0  0  0  0
  7  8  1  0  0  0  0
  7 19  2  0  0  0  0
  8  9  2  0  0  0  0
  8 13  1  0  0  0  0
  9 10  1  0  0  0  0
  9 41  1  0  0  0  0
 10 11  2  0  0  0  0
 10 42  1  0  0  0  0
 11 12  1  0  0  0  0
 11 14  1  0  0  0  0
 12 13  2  0  0  0  0
 12 43  1  0  0  0  0
 13 44  1  0  0  0  0
 14 15  1  0  0  0  0
 15 16  1  0  0  0  0
 15 17  1  0  0  0  0
 15 18  1  0  0  0  0
 19 20  1  0  0  0  0
 20 45  1  0  0  0  0
 20 46  1  0  0  0  0
 20 47  1  0  0  0  0
 21 22  1  0  0  0  0
 21 48  1  0  0  0  0
 22 23  2  0  0  0  0
 22 27  1  0  0  0  0
 23 24  1  0  0  0  0
 23 49  1  0  0  0  0
 24 25  2  0  0  0  0
 24 50  1  0  0  0  0
 25 26  1  0  0  0  0
 25 28  1  0  0  0  0
 26 27  2  0  0  0  0
 27 51  1  0  0  0  0
 28 29  1  0  0  0  0
 28 35  1  0  0  0  0
 29 30  1  0  0  0  0
 29 52  1  0  0  0  0
 29 53  1  0  0  0  0
 30 32  1  0  0  0  0
 30 37  1  0  0  0  0
 30 31  1  1  0  0  0
 32 33  1  0  0  0  0
 33 35  1  0  0  0  0
 33 36  1  0  0  0  0
 33 34  1  6  0  0  0
 35 54  1  0  0  0  0
 35 55  1  0  0  0  0
 36 56  1  0  0  0  0
 36 57  1  0  0  0  0
 36 58  1  0  0  0  0
 37 59  1  0  0  0  0
 37 60  1  0  0  0  0
 37 61  1  0  0  0  0
M  END
>  <DRUGBANK_ID>
DB09143

>  <COMMON_NAME>
Sonidegib

>  <CAS_NUMBER>
956697-53-3

>  <UNII>
0RLU3VTK5M

>  <SYNONYMS>
Erismodegib; N-[6-(cis-2,6-dimethylmorpholin-4-yl)pyridin-3-yl]-2-methyl-4'-(trifluoromethoxy)[1,1'-biphenyl]-3-carboxamide; Sonidegib

$$$$
