
 OpenBabel10282417133D

 40 40  0  0  0  0  0  0  0  0999 V2000
    0.8627   -0.0741   -0.0930 F   0  0  0  0  0  0  0  0  0  0  0  0
    4.1628    1.1786    0.5985 O   0  0  0  0  0  0  0  0  0  0  0  0
    2.2555   -1.6930    1.6861 O   0  0  0  0  0  0  0  0  0  0  0  0
    2.4228    2.3636   -0.2066 O   0  0  0  0  0  0  0  0  0  0  0  0
    5.3119    1.0965    3.2989 O   0  0  0  0  0  0  0  0  0  0  0  0
    5.3325   -1.0415    4.8093 O   0  0  0  0  0  0  0  0  0  0  0  0
    1.1414    0.5871    2.3744 O   0  0  0  0  0  0  0  0  0  0  0  0
    7.5302   -0.7803    2.5855 O   0  0  0  0  0  0  0  0  0  0  0  0
    2.5417    2.2893    2.7841 O   0  0  0  0  0  0  0  0  0  0  0  0
    6.0338   -2.3997   -2.5457 O   0  0  0  0  0  0  0  0  0  0  0  0
    4.8951   -1.4190   -0.8805 N   0  0  0  0  0  0  0  0  0  0  0  0
    4.2998   -1.2878    0.4540 C   0  0  1  0  0  0  0  0  0  0  0  0
    4.7792    0.0029    1.1577 C   0  0  2  0  0  0  0  0  0  0  0  0
    2.7770   -1.3335    0.4004 C   0  0  2  0  0  0  0  0  0  0  0  0
    2.2228   -0.0227   -0.1567 C   0  0  2  0  0  0  0  0  0  0  0  0
    2.7431    1.2156    0.5813 C   0  0  1  0  0  0  0  0  0  0  0  0
    4.6849   -0.0494    2.7175 C   0  0  1  0  0  0  0  0  0  0  0  0
    5.2351   -1.3064    3.4023 C   0  0  1  0  0  0  0  0  0  0  0  0
    2.1082    1.4481    1.9875 C   0  0  0  0  0  0  0  0  0  0  0  0
    6.5805   -1.7940    2.8655 C   0  0  0  0  0  0  0  0  0  0  0  0
    5.6432   -2.4490   -1.3734 C   0  0  0  0  0  0  0  0  0  0  0  0
    5.9933   -3.5998   -0.4754 C   0  0  0  0  0  0  0  0  0  0  0  0
    5.8196    0.1552    0.8668 H   0  0  0  0  0  0  0  0  0  0  0  0
    2.2969   -0.9787    2.3456 H   0  0  0  0  0  0  0  0  0  0  0  0
    2.8668    3.1011    0.2563 H   0  0  0  0  0  0  0  0  0  0  0  0
    5.0079    1.0821    4.2349 H   0  0  0  0  0  0  0  0  0  0  0  0
    6.2821   -0.9257    5.0080 H   0  0  0  0  0  0  0  0  0  0  0  0
    0.7338    0.0298    1.6672 H   0  0  0  0  0  0  0  0  0  0  0  0
    7.1405   -0.0347    2.0975 H   0  0  0  0  0  0  0  0  0  0  0  0
    4.7725   -0.6695   -1.5581 H   0  0  0  0  0  0  0  0  0  0  0  0
    4.6185   -2.1549    1.0246 H   0  0  0  0  0  0  0  0  0  0  0  0
    2.4544   -2.1563   -0.2461 H   0  0  0  0  0  0  0  0  0  0  0  0
    2.5092    0.0505   -1.2150 H   0  0  0  0  0  0  0  0  0  0  0  0
    3.6584    0.0367    3.0539 H   0  0  0  0  0  0  0  0  0  0  0  0
    4.4983   -2.1146    3.3091 H   0  0  0  0  0  0  0  0  0  0  0  0
    7.0499   -2.4627    3.5868 H   0  0  0  0  0  0  0  0  0  0  0  0
    6.4157   -2.3684    1.9659 H   0  0  0  0  0  0  0  0  0  0  0  0
    6.6671   -3.2541    0.3045 H   0  0  0  0  0  0  0  0  0  0  0  0
    5.0944   -4.0497   -0.0462 H   0  0  0  0  0  0  0  0  0  0  0  0
    6.5382   -4.3658   -1.0314 H   0  0  0  0  0  0  0  0  0  0  0  0
  2 13  1  0  0  0  0
  2 16  1  0  0  0  0
  3 24  1  0  0  0  0
  4 25  1  0  0  0  0
  5 26  1  0  0  0  0
  6 27  1  0  0  0  0
  7 19  1  0  0  0  0
  7 28  1  0  0  0  0
  8 20  1  0  0  0  0
  8 29  1  0  0  0  0
  9 19  2  0  0  0  0
 10 21  2  0  0  0  0
 11 21  1  0  0  0  0
 11 30  1  0  0  0  0
 12 11  1  0  0  0  0
 12 13  1  0  0  0  0
 12 14  1  0  0  0  0
 12 31  1  1  0  0  0
 13 23  1  6  0  0  0
 13 17  1  0  0  0  0
 14 15  1  0  0  0  0
 14 32  1  6  0  0  0
 14  3  1  0  0  0  0
 15  1  1  0  0  0  0
 15 16  1  0  0  0  0
 15 33  1  6  0  0  0
 16 19  1  1  0  0  0
 16  4  1  0  0  0  0
 17 34  1  1  0  0  0
 17 18  1  0  0  0  0
 17  5  1  0  0  0  0
 18 35  1  6  0  0  0
 18 20  1  0  0  0  0
 18  6  1  0  0  0  0
 20 36  1  0  0  0  0
 20 37  1  0  0  0  0
 21 22  1  0  0  0  0
 22 38  1  0  0  0  0
 22 39  1  0  0  0  0
 22 40  1  0  0  0  0
M  END
>  <DRUGBANK_ID>
DB04211

>  <SECONDARY_ACCESSION_NUMBERS>
EXPT01499

>  <COMMON_NAME>
5-(acetylamino)-3,5-dideoxy-3-fluoro-D-erythro-alpha-L-manno-non-2-ulopyranosonic acid

$$$$
