
 OpenBabel10282417193D

 61 64  0  0  0  0  0  0  0  0999 V2000
    1.0389    0.0012   -0.0860 C   0  0  0  0  0  0  0  0  0  0  0  0
    0.5914    0.7688    1.1202 C   0  0  0  0  0  0  0  0  0  0  0  0
    0.0508    0.1116    2.2389 C   0  0  0  0  0  0  0  0  0  0  0  0
   -0.2597    0.7970    3.4295 C   0  0  0  0  0  0  0  0  0  0  0  0
    0.0261    2.1708    3.4504 C   0  0  0  0  0  0  0  0  0  0  0  0
    0.5340    2.7987    2.3256 C   0  0  0  0  0  0  0  0  0  0  0  0
    0.8109    2.1497    1.1328 C   0  0  0  0  0  0  0  0  0  0  0  0
    0.6987    4.1066    2.6869 N   0  0  0  0  0  0  0  0  0  0  0  0
    0.2865    4.2179    3.9867 C   0  0  0  0  0  0  0  0  0  0  0  0
   -0.1051    3.0717    4.4748 N   0  0  0  0  0  0  0  0  0  0  0  0
    0.1425    5.4859    4.6609 C   0  0  0  0  0  0  0  0  0  0  0  0
    0.7243    5.6873    5.8875 C   0  0  0  0  0  0  0  0  0  0  0  0
    0.3290    6.6828    6.7132 N   0  0  0  0  0  0  0  0  0  0  0  0
   -0.7304    7.3937    6.3007 C   0  0  0  0  0  0  0  0  0  0  0  0
   -1.2216    7.3764    5.0815 N   0  0  0  0  0  0  0  0  0  0  0  0
   -0.7867    6.4139    4.2514 C   0  0  0  0  0  0  0  0  0  0  0  0
   -1.4984    6.4469    2.9445 C   0  0  0  0  0  0  0  0  0  0  0  0
   -1.2196    8.3378    7.2133 N   0  0  0  0  0  0  0  0  0  0  0  0
   -1.8135    9.5423    6.6136 C   0  0  0  0  0  0  0  0  0  0  0  0
   -2.5366   10.5708    7.4916 C   0  0  0  0  0  0  0  0  0  0  0  0
   -1.7678   11.3852    8.5783 C   0  0  0  0  0  0  0  0  0  0  0  0
   -0.5369   12.3894    8.3140 C   0  0  0  0  0  0  0  0  0  0  0  0
   -0.1718   12.9820    6.9282 C   0  0  0  0  0  0  0  0  0  0  0  0
    0.0974   11.9343    5.8720 C   0  0  0  0  0  0  0  0  0  0  0  0
    1.0630   10.9088    6.3563 N   0  0  0  0  0  0  0  0  0  0  0  0
    0.9618   10.5290    7.8002 C   0  0  0  0  0  0  0  0  0  0  0  0
    0.7456   11.6746    8.7815 C   0  0  0  0  0  0  0  0  0  0  0  0
    1.1102    9.7863    5.3947 C   0  0  0  0  0  0  0  0  0  0  0  0
   -0.8187    0.0745    4.6184 C   0  0  0  0  0  0  0  0  0  0  0  0
    0.6731    0.4831   -0.9977 H   0  0  0  0  0  0  0  0  0  0  0  0
    0.6700   -1.0271   -0.0682 H   0  0  0  0  0  0  0  0  0  0  0  0
    2.1339   -0.0199   -0.1067 H   0  0  0  0  0  0  0  0  0  0  0  0
   -0.1138   -0.9635    2.1977 H   0  0  0  0  0  0  0  0  0  0  0  0
    1.2247    2.6761    0.2819 H   0  0  0  0  0  0  0  0  0  0  0  0
    1.0028    4.8560    2.0962 H   0  0  0  0  0  0  0  0  0  0  0  0
    1.4804    5.0133    6.2887 H   0  0  0  0  0  0  0  0  0  0  0  0
   -2.5533    6.6628    3.1393 H   0  0  0  0  0  0  0  0  0  0  0  0
   -1.0933    7.2489    2.3179 H   0  0  0  0  0  0  0  0  0  0  0  0
   -1.4557    5.5061    2.3995 H   0  0  0  0  0  0  0  0  0  0  0  0
   -0.2828    8.4762    7.5917 H   0  0  0  0  0  0  0  0  0  0  0  0
   -0.9751   10.1021    6.3670 H   0  0  0  0  0  0  0  0  0  0  0  0
   -2.2829    9.4226    5.6269 H   0  0  0  0  0  0  0  0  0  0  0  0
   -2.9815   11.3242    6.8273 H   0  0  0  0  0  0  0  0  0  0  0  0
   -3.3595   10.0322    7.9682 H   0  0  0  0  0  0  0  0  0  0  0  0
   -2.5239   11.9629    9.1306 H   0  0  0  0  0  0  0  0  0  0  0  0
   -1.4561   10.6459    9.3319 H   0  0  0  0  0  0  0  0  0  0  0  0
   -0.6986   13.2548    8.9738 H   0  0  0  0  0  0  0  0  0  0  0  0
    0.7639   13.5575    7.0135 H   0  0  0  0  0  0  0  0  0  0  0  0
   -0.9312   13.6892    6.5836 H   0  0  0  0  0  0  0  0  0  0  0  0
    0.4717   12.3463    4.9283 H   0  0  0  0  0  0  0  0  0  0  0  0
   -0.9063   11.6200    5.5539 H   0  0  0  0  0  0  0  0  0  0  0  0
    0.0741    9.9839    8.0417 H   0  0  0  0  0  0  0  0  0  0  0  0
    1.7426    9.8384    8.1327 H   0  0  0  0  0  0  0  0  0  0  0  0
    1.6332   12.3088    8.8279 H   0  0  0  0  0  0  0  0  0  0  0  0
    0.5755   11.3011    9.8043 H   0  0  0  0  0  0  0  0  0  0  0  0
    1.6908    8.9356    5.7615 H   0  0  0  0  0  0  0  0  0  0  0  0
    0.1330    9.4107    5.0908 H   0  0  0  0  0  0  0  0  0  0  0  0
    1.5077   10.0900    4.4232 H   0  0  0  0  0  0  0  0  0  0  0  0
   -0.1447    0.1836    5.4743 H   0  0  0  0  0  0  0  0  0  0  0  0
   -1.7994    0.4819    4.8863 H   0  0  0  0  0  0  0  0  0  0  0  0
   -0.9398   -0.9945    4.4179 H   0  0  0  0  0  0  0  0  0  0  0  0
  1  2  1  0  0  0  0
  1 30  1  0  0  0  0
  1 31  1  0  0  0  0
  1 32  1  0  0  0  0
  2  3  2  0  0  0  0
  2  7  1  0  0  0  0
  3  4  1  0  0  0  0
  3 33  1  0  0  0  0
  4  5  2  0  0  0  0
  4 29  1  0  0  0  0
  5  6  1  0  0  0  0
  5 10  1  0  0  0  0
  6  7  2  0  0  0  0
  6  8  1  0  0  0  0
  7 34  1  0  0  0  0
  8  9  1  0  0  0  0
  8 35  1  0  0  0  0
  9 10  2  0  0  0  0
  9 11  1  0  0  0  0
 11 12  2  0  0  0  0
 11 16  1  0  0  0  0
 12 13  1  0  0  0  0
 12 36  1  0  0  0  0
 13 14  2  0  0  0  0
 14 15  1  0  0  0  0
 14 18  1  0  0  0  0
 15 16  2  0  0  0  0
 16 17  1  0  0  0  0
 17 37  1  0  0  0  0
 17 38  1  0  0  0  0
 17 39  1  0  0  0  0
 18 19  1  0  0  0  0
 18 40  1  0  0  0  0
 19 20  1  0  0  0  0
 19 41  1  0  0  0  0
 19 42  1  0  0  0  0
 20 21  1  0  0  0  0
 20 43  1  0  0  0  0
 20 44  1  0  0  0  0
 21 22  1  0  0  0  0
 21 45  1  0  0  0  0
 21 46  1  0  0  0  0
 22 23  1  0  0  0  0
 22 27  1  0  0  0  0
 22 47  1  0  0  0  0
 23 24  1  0  0  0  0
 23 48  1  0  0  0  0
 23 49  1  0  0  0  0
 24 25  1  0  0  0  0
 24 50  1  0  0  0  0
 24 51  1  0  0  0  0
 25 26  1  0  0  0  0
 25 28  1  0  0  0  0
 26 27  1  0  0  0  0
 26 52  1  0  0  0  0
 26 53  1  0  0  0  0
 27 54  1  0  0  0  0
 27 55  1  0  0  0  0
 28 56  1  0  0  0  0
 28 57  1  0  0  0  0
 28 58  1  0  0  0  0
 29 59  1  0  0  0  0
 29 60  1  0  0  0  0
 29 61  1  0  0  0  0
M  END
>  <DRUGBANK_ID>
DB12522

>  <COMMON_NAME>
Toreforant

>  <CAS_NUMBER>
952494-46-1

>  <UNII>
U6LA7G393X

>  <SYNONYMS>
Toreforant

$$$$
