
 OpenBabel10282417173D

 13 12  0  0  0  0  0  0  0  0999 V2000
    0.9188   -0.0116    0.0024 S   0  0  0  0  0  0  0  0  0  0  0  0
    2.8503    0.3750   -2.9412 S   0  0  0  0  0  0  0  0  0  0  0  0
    0.4941    0.8814   -1.2773 O   0  0  0  0  0  0  0  0  0  0  0  0
    0.4799   -1.3647   -0.2269 O   0  0  0  0  0  0  0  0  0  0  0  0
    0.5294    0.7483    1.1716 O   0  0  0  0  0  0  0  0  0  0  0  0
    2.6974    0.0648   -0.1533 C   0  0  0  0  0  0  0  0  0  0  0  0
    3.2342   -0.5615   -1.4273 C   0  0  0  0  0  0  0  0  0  0  0  0
    1.5064    0.3121   -2.8118 H   0  0  0  0  0  0  0  0  0  0  0  0
    0.6803    1.8319   -1.1267 H   0  0  0  0  0  0  0  0  0  0  0  0
    3.0206    1.1024   -0.0235 H   0  0  0  0  0  0  0  0  0  0  0  0
    3.0790   -0.5023    0.7056 H   0  0  0  0  0  0  0  0  0  0  0  0
    4.3272   -0.5986   -1.3685 H   0  0  0  0  0  0  0  0  0  0  0  0
    2.8792   -1.5898   -1.5419 H   0  0  0  0  0  0  0  0  0  0  0  0
  1  3  1  0  0  0  0
  1  4  2  0  0  0  0
  1  5  2  0  0  0  0
  1  6  1  0  0  0  0
  2  7  1  0  0  0  0
  2  8  1  0  0  0  0
  3  9  1  0  0  0  0
  6  7  1  0  0  0  0
  6 10  1  0  0  0  0
  6 11  1  0  0  0  0
  7 12  1  0  0  0  0
  7 13  1  0  0  0  0
M  END
>  <DRUGBANK_ID>
DB09110

>  <COMMON_NAME>
Coenzyme M

>  <CAS_NUMBER>
3375-50-6

>  <UNII>
VHD28S0H7F

>  <SYNONYMS>
2-Mercaptoethane; 2-Mercaptoethanesulfonate; 2-mercaptoethanesulfonic acid; 2-mercaptoethanesulphonic acid; 2-mercaptoethylsulfonate; 2-sulfanylethylsulfonate; Coenzima M; Coenzym M; CoM; HS-CoM; reduced coenzyme M; reduced CoM; Î²-mercaptoethanesulfonic acid

$$$$
