
 OpenBabel10282417193D

 26 26  0  0  1  0  0  0  0  0999 V2000
    4.2124   -2.1111    1.4139 C   0  0  0  0  0  0  0  0  0  0  0  0
    4.5015   -2.7710    2.6055 C   0  0  0  0  0  0  0  0  0  0  0  0
    4.9449   -2.0444    3.7047 C   0  0  0  0  0  0  0  0  0  0  0  0
    5.1315   -0.6665    3.6117 C   0  0  0  0  0  0  0  0  0  0  0  0
    4.8450   -0.0040    2.4144 C   0  0  0  0  0  0  0  0  0  0  0  0
    4.3657   -0.7196    1.3056 C   0  0  0  0  0  0  0  0  0  0  0  0
    3.9245    0.0203    0.0475 C   0  0  2  0  0  0  0  0  0  0  0  0
    2.3876    0.0829    0.0366 C   0  0  0  0  0  0  0  0  0  0  0  0
    1.8770    1.2046   -0.8183 C   0  0  0  0  0  0  0  0  0  0  0  0
    1.2073    1.0661   -1.8334 O   0  0  0  0  0  0  0  0  0  0  0  0
    2.2261    2.4234   -0.3729 O   0  0  0  0  0  0  0  0  0  0  0  0
    4.4755   -0.6609   -1.2304 C   0  0  0  0  0  0  0  0  0  0  0  0
    4.0643    0.0054   -2.4630 N   0  0  0  0  0  0  0  0  0  0  0  0
    5.2396   -2.8567    5.1913 Cl  0  0  0  0  0  0  0  0  0  0  0  0
    3.8397   -2.7004    0.5805 H   0  0  0  0  0  0  0  0  0  0  0  0
    4.3580   -3.8457    2.6681 H   0  0  0  0  0  0  0  0  0  0  0  0
    5.4830   -0.1016    4.4710 H   0  0  0  0  0  0  0  0  0  0  0  0
    4.9775    1.0759    2.3632 H   0  0  0  0  0  0  0  0  0  0  0  0
    4.3417    1.0369    0.0818 H   0  0  0  0  0  0  0  0  0  0  0  0
    1.9771   -0.8577   -0.3547 H   0  0  0  0  0  0  0  0  0  0  0  0
    1.9618    0.2105    1.0387 H   0  0  0  0  0  0  0  0  0  0  0  0
    1.8926    3.0460   -1.0528 H   0  0  0  0  0  0  0  0  0  0  0  0
    5.5711   -0.6864   -1.1860 H   0  0  0  0  0  0  0  0  0  0  0  0
    4.1408   -1.7016   -1.2945 H   0  0  0  0  0  0  0  0  0  0  0  0
    4.4179   -0.5208   -3.2616 H   0  0  0  0  0  0  0  0  0  0  0  0
    3.0457   -0.0359   -2.5654 H   0  0  0  0  0  0  0  0  0  0  0  0
  1  2  2  0  0  0  0
  1  6  1  0  0  0  0
  1 15  1  0  0  0  0
  2  3  1  0  0  0  0
  2 16  1  0  0  0  0
  3  4  2  0  0  0  0
  3 14  1  0  0  0  0
  4  5  1  0  0  0  0
  4 17  1  0  0  0  0
  5  6  2  0  0  0  0
  5 18  1  0  0  0  0
  7 12  1  0  0  0  0
  7 19  1  1  0  0  0
  7  8  1  0  0  0  0
  7  6  1  0  0  0  0
  8  9  1  0  0  0  0
  8 20  1  0  0  0  0
  8 21  1  0  0  0  0
  9 10  2  0  0  0  0
  9 11  1  0  0  0  0
 11 22  1  0  0  0  0
 12 13  1  0  0  0  0
 12 23  1  0  0  0  0
 12 24  1  0  0  0  0
 13 25  1  0  0  0  0
 13 26  1  0  0  0  0
M  END
>  <DRUGBANK_ID>
DB12098

>  <COMMON_NAME>
L-Baclofen

>  <CAS_NUMBER>
66514-99-6

>  <UNII>
3OHN4989XM

>  <SYNONYMS>
(S)-Baclofen

$$$$
