
 OpenBabel10282417223D

 64 65  0  0  0  0  0  0  0  0999 V2000
   -0.6946    7.3606    5.2420 C   0  0  0  0  0  0  0  0  0  0  0  0
   -1.6597    9.1107    3.8887 C   0  0  0  0  0  0  0  0  0  0  0  0
   -1.6158    8.3941    5.0909 C   0  0  0  0  0  0  0  0  0  0  0  0
   -0.6674    8.9043    2.9202 C   0  0  0  0  0  0  0  0  0  0  0  0
    0.2134    7.0803    4.2206 C   0  0  0  0  0  0  0  0  0  0  0  0
    0.2359    7.8590    3.0660 C   0  0  0  0  0  0  0  0  0  0  0  0
   -2.8812    9.9126    3.5250 C   0  0  0  0  0  0  0  0  0  0  0  0
   -4.0657    9.0797    3.5463 O   0  0  0  0  0  0  0  0  0  0  0  0
   -4.2708    7.9720    2.7766 C   0  0  0  0  0  0  0  0  0  0  0  0
   -3.2985    7.6327    1.8711 N   0  0  0  0  0  0  0  0  0  0  0  0
   -3.3899    6.4627    1.0165 C   0  0  2  0  0  0  0  0  0  0  0  0
   -2.0240    5.7117    0.8978 C   0  0  0  0  0  0  0  0  0  0  0  0
   -1.9785    4.5672    1.6581 N   0  0  0  0  0  0  0  0  0  0  0  0
   -1.0884    3.3919    1.5654 C   0  0  2  0  0  0  0  0  0  0  0  0
   -1.2421    2.5578    2.8626 C   0  0  3  0  0  0  0  0  0  0  0  0
   -0.6547    3.2534    3.9919 O   0  0  0  0  0  0  0  0  0  0  0  0
   -5.3047    7.3195    2.9029 O   0  0  0  0  0  0  0  0  0  0  0  0
   -3.8694    6.8795   -0.3792 C   0  0  0  0  0  0  0  0  0  0  0  0
   -4.1011    5.6744   -1.3070 C   0  0  0  0  0  0  0  0  0  0  0  0
   -5.1530    4.7268   -0.7307 C   0  0  0  0  0  0  0  0  0  0  0  0
   -4.5343    6.1480   -2.6916 C   0  0  0  0  0  0  0  0  0  0  0  0
   -1.0848    6.1381    0.2342 O   0  0  0  0  0  0  0  0  0  0  0  0
    0.4164    3.7399    1.3071 C   0  0  0  0  0  0  0  0  0  0  0  0
    1.3856    2.5382    1.2224 C   0  0  3  0  0  0  0  0  0  0  0  0
    1.7399    1.7601    2.5065 C   0  0  0  0  0  0  0  0  0  0  0  0
    1.9143    0.3218    2.0549 C   0  0  0  0  0  0  0  0  0  0  0  0
    1.1839    0.2427    0.8271 N   0  0  0  0  0  0  0  0  0  0  0  0
    0.8561    1.4631    0.3003 C   0  0  0  0  0  0  0  0  0  0  0  0
    0.2231    1.6317   -0.7323 O   0  0  0  0  0  0  0  0  0  0  0  0
   -2.8983    1.9063    3.1783 S   0  0  0  0  0  0  0  0  0  0  0  0
   -3.4005    1.2238    2.0075 O   0  0  0  0  0  0  0  0  0  0  0  0
   -2.9261    1.2834    4.4825 O   0  0  0  0  0  0  0  0  0  0  0  0
   -3.7106    3.3010    3.2957 O   0  0  0  0  0  0  0  0  0  0  0  0
   -0.7178    6.7407    6.1347 H   0  0  0  0  0  0  0  0  0  0  0  0
   -2.3432    8.5881    5.8773 H   0  0  0  0  0  0  0  0  0  0  0  0
   -0.6772    9.4718    1.9907 H   0  0  0  0  0  0  0  0  0  0  0  0
    0.9045    6.2505    4.3243 H   0  0  0  0  0  0  0  0  0  0  0  0
    0.9138    7.6201    2.2504 H   0  0  0  0  0  0  0  0  0  0  0  0
   -3.0225   10.7192    4.2528 H   0  0  0  0  0  0  0  0  0  0  0  0
   -2.8056   10.3732    2.5342 H   0  0  0  0  0  0  0  0  0  0  0  0
   -2.4786    8.1929    1.7488 H   0  0  0  0  0  0  0  0  0  0  0  0
   -4.1245    5.7957    1.4750 H   0  0  0  0  0  0  0  0  0  0  0  0
   -2.8470    4.3767    2.1557 H   0  0  0  0  0  0  0  0  0  0  0  0
   -1.4632    2.8097    0.7144 H   0  0  0  0  0  0  0  0  0  0  0  0
   -0.7403    1.6010    2.7184 H   0  0  0  0  0  0  0  0  0  0  0  0
    0.2214    3.5899    3.7474 H   0  0  0  0  0  0  0  0  0  0  0  0
   -4.7989    7.4580   -0.2887 H   0  0  0  0  0  0  0  0  0  0  0  0
   -3.1347    7.5589   -0.8335 H   0  0  0  0  0  0  0  0  0  0  0  0
   -3.1608    5.1222   -1.4265 H   0  0  0  0  0  0  0  0  0  0  0  0
   -6.1075    5.2468   -0.5968 H   0  0  0  0  0  0  0  0  0  0  0  0
   -5.3099    3.8706   -1.3915 H   0  0  0  0  0  0  0  0  0  0  0  0
   -4.8511    4.3209    0.2388 H   0  0  0  0  0  0  0  0  0  0  0  0
   -3.7785    6.8037   -3.1361 H   0  0  0  0  0  0  0  0  0  0  0  0
   -4.6731    5.2926   -3.3608 H   0  0  0  0  0  0  0  0  0  0  0  0
   -5.4791    6.6988   -2.6413 H   0  0  0  0  0  0  0  0  0  0  0  0
    0.4927    4.2737    0.3499 H   0  0  0  0  0  0  0  0  0  0  0  0
    0.7858    4.4531    2.0533 H   0  0  0  0  0  0  0  0  0  0  0  0
    2.3335    2.8863    0.7890 H   0  0  0  0  0  0  0  0  0  0  0  0
    2.6086    2.1706    3.0265 H   0  0  0  0  0  0  0  0  0  0  0  0
    0.9853    1.7446    3.2823 H   0  0  0  0  0  0  0  0  0  0  0  0
    2.9615    0.0773    1.8757 H   0  0  0  0  0  0  0  0  0  0  0  0
    1.4747   -0.3879    2.7636 H   0  0  0  0  0  0  0  0  0  0  0  0
    0.9346   -0.6101    0.3374 H   0  0  0  0  0  0  0  0  0  0  0  0
   -4.6018    3.1095    3.6604 H   0  0  0  0  0  0  0  0  0  0  0  0
  1  5  1  0  0  0  0
  1 34  1  0  0  0  0
  2  3  1  0  0  0  0
  2  7  1  0  0  0  0
  3  1  2  0  0  0  0
  3 35  1  0  0  0  0
  4  2  2  0  0  0  0
  4 36  1  0  0  0  0
  5  6  2  0  0  0  0
  5 37  1  0  0  0  0
  6  4  1  0  0  0  0
  6 38  1  0  0  0  0
  7  8  1  0  0  0  0
  7 39  1  0  0  0  0
  7 40  1  0  0  0  0
  8  9  1  0  0  0  0
  9 10  1  0  0  0  0
  9 17  2  0  0  0  0
 10 41  1  0  0  0  0
 11 18  1  0  0  0  0
 11 42  1  1  0  0  0
 11 12  1  0  0  0  0
 11 10  1  0  0  0  0
 12 13  1  0  0  0  0
 12 22  2  0  0  0  0
 13 43  1  0  0  0  0
 14 23  1  0  0  0  0
 14 44  1  6  0  0  0
 14 15  1  0  0  0  0
 14 13  1  0  0  0  0
 15 16  1  0  0  0  0
 15 30  1  0  0  0  0
 15 45  1  0  0  0  0
 16 46  1  0  0  0  0
 18 19  1  0  0  0  0
 18 47  1  0  0  0  0
 18 48  1  0  0  0  0
 19 20  1  0  0  0  0
 19 21  1  0  0  0  0
 19 49  1  0  0  0  0
 20 50  1  0  0  0  0
 20 51  1  0  0  0  0
 20 52  1  0  0  0  0
 21 53  1  0  0  0  0
 21 54  1  0  0  0  0
 21 55  1  0  0  0  0
 23 24  1  0  0  0  0
 23 56  1  0  0  0  0
 23 57  1  0  0  0  0
 24 25  1  0  0  0  0
 24 58  1  0  0  0  0
 25 26  1  0  0  0  0
 25 59  1  0  0  0  0
 25 60  1  0  0  0  0
 26 27  1  0  0  0  0
 26 61  1  0  0  0  0
 26 62  1  0  0  0  0
 27 28  1  0  0  0  0
 27 63  1  0  0  0  0
 28 24  1  0  0  0  0
 28 29  2  0  0  0  0
 30 31  2  0  0  0  0
 30 32  2  0  0  0  0
 30 33  1  0  0  0  0
 33 64  1  0  0  0  0
M  END
>  <DRUGBANK_ID>
DB15796

>  <COMMON_NAME>
GC-376 free acid

>  <CAS_NUMBER>
1417031-79-8

>  <UNII>
O9H5KY11SV

$$$$
