
 OpenBabel10282417173D

 61 65  0  0  0  0  0  0  0  0999 V2000
   10.5248    4.4682    3.1978 C   0  0  0  0  0  0  0  0  0  0  0  0
   11.2559    3.2967    2.4092 C   0  0  0  0  0  0  0  0  0  0  0  0
   11.3916    2.0465    3.1595 O   0  0  0  0  0  0  0  0  0  0  0  0
   10.9991    0.8445    2.3073 C   0  0  2  0  0  0  0  0  0  0  0  0
    9.3844   -0.0234    2.7916 C   0  0  0  0  0  0  0  0  0  0  0  0
    8.8609    1.1941    2.2770 C   0  0  1  0  0  0  0  0  0  0  0  0
    8.1269    2.4509    2.5317 C   0  0  2  0  0  0  0  0  0  0  0  0
    7.5491    2.6082    3.9620 C   0  0  0  0  0  0  0  0  0  0  0  0
    7.0182    4.0295    4.1140 C   0  0  1  0  0  0  0  0  0  0  0  0
    6.1478    4.4347    2.9500 C   0  0  0  0  0  0  0  0  0  0  0  0
    5.0665    5.2121    3.1142 C   0  0  0  0  0  0  0  0  0  0  0  0
    4.1353    5.5163    1.9546 C   0  0  0  0  0  0  0  0  0  0  0  0
    3.3869    6.4328    1.9752 O   0  0  0  0  0  0  0  0  0  0  0  0
    4.2416    4.6582    0.7038 C   0  0  0  0  0  0  0  0  0  0  0  0
    5.0385    3.6198    0.9327 C   0  0  0  0  0  0  0  0  0  0  0  0
    6.4063    3.9468    1.5332 C   0  0  2  0  0  0  0  0  0  0  0  0
    7.1886    2.6434    1.3928 C   0  0  1  0  0  0  0  0  0  0  0  0
    7.7972    2.5298   -0.0389 C   0  0  2  0  0  0  0  0  0  0  0  0
    8.3989    1.1822   -0.2169 C   0  0  0  0  0  0  0  0  0  0  0  0
    9.4617    0.8505    0.7860 C   0  0  2  0  0  0  0  0  0  0  0  0
   10.7650    1.5630    0.8954 C   0  0  2  0  0  0  0  0  0  0  0  0
   10.6377    2.9642    1.1687 O   0  0  0  0  0  0  0  0  0  0  0  0
   11.6107    1.2854   -0.4134 C   0  0  0  0  0  0  0  0  0  0  0  0
   12.7717    0.8781   -0.3244 O   0  0  0  0  0  0  0  0  0  0  0  0
   10.9924    1.4960   -1.8789 C   0  0  0  0  0  0  0  0  0  0  0  0
   10.1063    0.6114   -2.5460 O   0  0  0  0  0  0  0  0  0  0  0  0
    9.9217   -0.7832    0.4627 C   0  0  0  0  0  0  0  0  0  0  0  0
    8.9577    3.7616   -0.7105 Cl  0  0  0  0  0  0  0  0  0  0  0  0
    6.0861    1.0755    1.6742 Cl  0  0  0  0  0  0  0  0  0  0  0  0
    6.3208    4.0804    5.2839 F   0  0  0  0  0  0  0  0  0  0  0  0
   12.5387    4.0591    2.0445 C   0  0  0  0  0  0  0  0  0  0  0  0
    7.0068    5.1521    0.7299 C   0  0  0  0  0  0  0  0  0  0  0  0
    9.4115    1.5158    3.1997 H   0  0  0  0  0  0  0  0  0  0  0  0
   11.8080    0.1216    2.2983 H   0  0  0  0  0  0  0  0  0  0  0  0
    8.8355    3.2432    2.4329 H   0  0  0  0  0  0  0  0  0  0  0  0
   10.2545    5.3165    2.5411 H   0  0  0  0  0  0  0  0  0  0  0  0
   11.1215    4.8550    4.0317 H   0  0  0  0  0  0  0  0  0  0  0  0
    9.6233    4.1951    3.7207 H   0  0  0  0  0  0  0  0  0  0  0  0
    8.8816   -0.1897    3.7557 H   0  0  0  0  0  0  0  0  0  0  0  0
    8.7097   -0.6562    2.1397 H   0  0  0  0  0  0  0  0  0  0  0  0
    6.7648    1.8758    4.1721 H   0  0  0  0  0  0  0  0  0  0  0  0
    8.2992    2.4155    4.7534 H   0  0  0  0  0  0  0  0  0  0  0  0
    7.8352    4.7480    4.2283 H   0  0  0  0  0  0  0  0  0  0  0  0
    4.8347    5.6751    4.0603 H   0  0  0  0  0  0  0  0  0  0  0  0
    4.5399    5.3337   -0.0980 H   0  0  0  0  0  0  0  0  0  0  0  0
    4.5397    2.8330    1.5103 H   0  0  0  0  0  0  0  0  0  0  0  0
    6.9861    2.6197   -0.7512 H   0  0  0  0  0  0  0  0  0  0  0  0
    8.6809    1.1119   -1.2392 H   0  0  0  0  0  0  0  0  0  0  0  0
    7.6292    0.4126   -0.1521 H   0  0  0  0  0  0  0  0  0  0  0  0
   10.5805    2.4974   -1.9747 H   0  0  0  0  0  0  0  0  0  0  0  0
   11.8361    1.5342   -2.5681 H   0  0  0  0  0  0  0  0  0  0  0  0
    9.9665   -0.1968   -2.0325 H   0  0  0  0  0  0  0  0  0  0  0  0
   10.4955   -0.9185   -0.4499 H   0  0  0  0  0  0  0  0  0  0  0  0
   10.5947   -1.2199    1.2260 H   0  0  0  0  0  0  0  0  0  0  0  0
    9.0578   -1.4551    0.4177 H   0  0  0  0  0  0  0  0  0  0  0  0
   12.2727    4.9585    1.4544 H   0  0  0  0  0  0  0  0  0  0  0  0
   13.0602    4.4252    2.9363 H   0  0  0  0  0  0  0  0  0  0  0  0
   13.2183    3.4819    1.4262 H   0  0  0  0  0  0  0  0  0  0  0  0
    8.0407    5.3985    0.9978 H   0  0  0  0  0  0  0  0  0  0  0  0
    6.9098    4.9582   -0.3490 H   0  0  0  0  0  0  0  0  0  0  0  0
    6.4599    6.0893    0.8433 H   0  0  0  0  0  0  0  0  0  0  0  0
  1  2  1  0  0  0  0
  1 36  1  0  0  0  0
  1 37  1  0  0  0  0
  1 38  1  0  0  0  0
  2 22  1  0  0  0  0
  2 31  1  0  0  0  0
  2  3  1  0  0  0  0
  4  5  1  0  0  0  0
  4 21  1  0  0  0  0
  4 34  1  1  0  0  0
  4  3  1  0  0  0  0
  5 39  1  0  0  0  0
  5 40  1  0  0  0  0
  6  5  1  0  0  0  0
  6  7  1  0  0  0  0
  6 20  1  0  0  0  0
  6 33  1  6  0  0  0
  7  8  1  0  0  0  0
  7 17  1  0  0  0  0
  7 35  1  6  0  0  0
  8  9  1  0  0  0  0
  8 41  1  0  0  0  0
  8 42  1  0  0  0  0
  9 10  1  0  0  0  0
  9 30  1  0  0  0  0
  9 43  1  1  0  0  0
 10 11  2  0  0  0  0
 10 16  1  0  0  0  0
 11 12  1  0  0  0  0
 11 44  1  0  0  0  0
 12 13  2  0  0  0  0
 12 14  1  0  0  0  0
 14 15  2  0  0  0  0
 14 45  1  0  0  0  0
 15 16  1  0  0  0  0
 15 46  1  0  0  0  0
 16 17  1  0  0  0  0
 16 32  1  6  0  0  0
 17 18  1  0  0  0  0
 17 29  1  1  0  0  0
 18 19  1  0  0  0  0
 18 28  1  0  0  0  0
 18 47  1  6  0  0  0
 19 20  1  0  0  0  0
 19 48  1  0  0  0  0
 19 49  1  0  0  0  0
 20 21  1  0  0  0  0
 20 27  1  1  0  0  0
 21 22  1  0  0  0  0
 21 23  1  1  0  0  0
 23 24  2  0  0  0  0
 23 25  1  0  0  0  0
 25 26  1  0  0  0  0
 25 50  1  0  0  0  0
 25 51  1  0  0  0  0
 26 52  1  0  0  0  0
 27 53  1  0  0  0  0
 27 54  1  0  0  0  0
 27 55  1  0  0  0  0
 31 56  1  0  0  0  0
 31 57  1  0  0  0  0
 31 58  1  0  0  0  0
 32 59  1  0  0  0  0
 32 60  1  0  0  0  0
 32 61  1  0  0  0  0
M  END
>  <DRUGBANK_ID>
DB08973

>  <COMMON_NAME>
Fluclorolone acetonide

>  <CAS_NUMBER>
3693-39-8

>  <UNII>
MG258KTA37

>  <SYNONYMS>
Fluclorolone acetonide; Flucloronide

$$$$
