
 OpenBabel10282417183D

 35 38  0  0  0  0  0  0  0  0999 V2000
    3.4676   -0.0740   -0.0113 C   0  0  0  0  0  0  0  0  0  0  0  0
    2.9753    1.2341    0.0437 C   0  0  0  0  0  0  0  0  0  0  0  0
    1.6011    1.5045    0.0315 C   0  0  0  0  0  0  0  0  0  0  0  0
    0.7316    0.4155   -0.0642 C   0  0  0  0  0  0  0  0  0  0  0  0
    1.2018   -0.9004   -0.1484 C   0  0  0  0  0  0  0  0  0  0  0  0
    2.5795   -1.1486   -0.0917 C   0  0  0  0  0  0  0  0  0  0  0  0
   -0.6391    0.3386   -0.0626 N   0  0  0  0  0  0  0  0  0  0  0  0
   -1.0305   -0.9631   -0.0684 C   0  0  0  0  0  0  0  0  0  0  0  0
    0.0843   -1.7518   -0.2125 C   0  0  0  0  0  0  0  0  0  0  0  0
   -2.3855   -1.4764    0.2543 C   0  0  3  0  0  0  0  0  0  0  0  0
    4.9353   -0.3661    0.0001 C   0  0  0  0  0  0  0  0  0  0  0  0
   -0.0291   -3.2198   -0.1541 C   0  0  0  0  0  0  0  0  0  0  0  0
   -2.1135   -2.5937    1.3542 C   0  0  0  0  0  0  0  0  0  0  0  0
   -0.8844   -3.5651    1.0761 C   0  0  0  0  0  0  0  0  0  0  0  0
   -1.5956    1.4209    0.0536 C   0  0  0  0  0  0  0  0  0  0  0  0
   -2.9963    0.8615   -0.2351 C   0  0  0  0  0  0  0  0  0  0  0  0
   -3.2933   -0.3488    0.5962 N   0  0  0  0  0  0  0  0  0  0  0  0
    3.6671    2.0704    0.0998 H   0  0  0  0  0  0  0  0  0  0  0  0
    1.2327    2.5223    0.0980 H   0  0  0  0  0  0  0  0  0  0  0  0
    2.9395   -2.1724   -0.1075 H   0  0  0  0  0  0  0  0  0  0  0  0
   -2.8349   -1.9857   -0.6070 H   0  0  0  0  0  0  0  0  0  0  0  0
    5.1921   -0.9750    0.8731 H   0  0  0  0  0  0  0  0  0  0  0  0
    5.2063   -0.9124   -0.9095 H   0  0  0  0  0  0  0  0  0  0  0  0
    5.5248    0.5534    0.0342 H   0  0  0  0  0  0  0  0  0  0  0  0
   -0.5075   -3.5939   -1.0678 H   0  0  0  0  0  0  0  0  0  0  0  0
    0.9585   -3.6918   -0.0942 H   0  0  0  0  0  0  0  0  0  0  0  0
   -3.0020   -3.2058    1.5468 H   0  0  0  0  0  0  0  0  0  0  0  0
   -1.8791   -2.0928    2.3051 H   0  0  0  0  0  0  0  0  0  0  0  0
   -1.1938   -4.6155    1.0162 H   0  0  0  0  0  0  0  0  0  0  0  0
   -0.2199   -3.5137    1.9533 H   0  0  0  0  0  0  0  0  0  0  0  0
   -1.3098    2.2045   -0.6564 H   0  0  0  0  0  0  0  0  0  0  0  0
   -1.5301    1.8166    1.0737 H   0  0  0  0  0  0  0  0  0  0  0  0
   -3.0836    0.6222   -1.3056 H   0  0  0  0  0  0  0  0  0  0  0  0
   -3.7346    1.6500   -0.0427 H   0  0  0  0  0  0  0  0  0  0  0  0
   -3.1569   -0.0978    1.5735 H   0  0  0  0  0  0  0  0  0  0  0  0
  1  2  2  0  0  0  0
  1  6  1  0  0  0  0
  1 11  1  0  0  0  0
  2  3  1  0  0  0  0
  2 18  1  0  0  0  0
  3  4  2  0  0  0  0
  3 19  1  0  0  0  0
  4  5  1  0  0  0  0
  4  7  1  0  0  0  0
  5  6  2  0  0  0  0
  5  9  1  0  0  0  0
  6 20  1  0  0  0  0
  7  8  1  0  0  0  0
  7 15  1  0  0  0  0
  8  9  2  0  0  0  0
  8 10  1  0  0  0  0
 10 13  1  0  0  0  0
 10 21  1  0  0  0  0
 11 22  1  0  0  0  0
 11 23  1  0  0  0  0
 11 24  1  0  0  0  0
 12  9  1  0  0  0  0
 12 14  1  0  0  0  0
 12 25  1  0  0  0  0
 12 26  1  0  0  0  0
 13 14  1  0  0  0  0
 13 27  1  0  0  0  0
 13 28  1  0  0  0  0
 14 29  1  0  0  0  0
 14 30  1  0  0  0  0
 15 16  1  0  0  0  0
 15 31  1  0  0  0  0
 15 32  1  0  0  0  0
 16 17  1  0  0  0  0
 16 33  1  0  0  0  0
 16 34  1  0  0  0  0
 17 10  1  0  0  0  0
 17 35  1  0  0  0  0
M  END
>  <DRUGBANK_ID>
DB09244

>  <COMMON_NAME>
Pirlindole

>  <CAS_NUMBER>
60762-57-4

>  <UNII>
V39YPH45FZ

>  <SYNONYMS>
2,3,3a,4,5,6-Hexahydro-8-methyl-1H-pyrazino(3,2,1-jk)carbazole; Pirlindol; Pirlindole; Pirlindolum

$$$$
