
 OpenBabel10282417183D

 38 41  0  0  1  0  0  0  0  0999 V2000
   -1.9441   -9.4540   -0.8365 C   0  0  0  0  0  0  0  0  0  0  0  0
   -1.2772   -8.4530   -1.5710 C   0  0  0  0  0  0  0  0  0  0  0  0
   -1.7558   -7.1314   -1.5693 C   0  0  0  0  0  0  0  0  0  0  0  0
   -1.2552   -5.8362   -2.0797 C   0  0  0  0  0  0  0  0  0  0  0  0
   -2.1692   -4.7988   -1.8326 C   0  0  0  0  0  0  0  0  0  0  0  0
   -3.6419   -5.7791   -2.1489 S   0  0  0  0  0  0  0  0  0  0  0  0
   -3.0393   -6.9904   -1.0307 C   0  0  0  0  0  0  0  0  0  0  0  0
   -3.5998   -7.9061   -0.0924 C   0  0  0  0  0  0  0  0  0  0  0  0
   -3.0015   -9.1509    0.0030 C   0  0  0  0  0  0  0  0  0  0  0  0
   -5.0162   -7.7302    0.8764 Cl  0  0  0  0  0  0  0  0  0  0  0  0
   -2.0424   -3.3035   -1.8045 C   0  0  0  0  0  0  0  0  0  0  0  0
   -1.1883   -2.7358   -2.5620 O   0  0  0  0  0  0  0  0  0  0  0  0
   -2.6970   -2.3715   -0.9553 N   0  0  0  0  0  0  0  0  0  0  0  0
   -3.8303   -2.4946    0.0228 C   0  0  1  0  0  0  0  0  0  0  0  0
   -4.6141   -3.6928   -0.3856 C   0  0  0  0  0  0  0  0  0  0  0  0
   -4.2757   -4.8209    0.5236 N   0  0  3  0  0  0  0  0  0  0  0  0
   -5.1665   -4.6216    1.6547 C   0  0  0  0  0  0  0  0  0  0  0  0
   -4.7509   -3.2938    2.2955 C   0  0  0  0  0  0  0  0  0  0  0  0
   -3.5145   -2.6431    1.5517 C   0  0  3  0  0  0  0  0  0  0  0  0
   -2.3714   -3.6298    1.6896 C   0  0  0  0  0  0  0  0  0  0  0  0
   -2.8815   -4.9201    1.0954 C   0  0  0  0  0  0  0  0  0  0  0  0
   -1.6537  -10.4934   -0.9350 H   0  0  0  0  0  0  0  0  0  0  0  0
   -0.4495   -8.7084   -2.2170 H   0  0  0  0  0  0  0  0  0  0  0  0
   -0.2750   -5.6708   -2.5098 H   0  0  0  0  0  0  0  0  0  0  0  0
   -3.4573   -9.9164    0.6317 H   0  0  0  0  0  0  0  0  0  0  0  0
   -2.5044   -1.4129   -1.2274 H   0  0  0  0  0  0  0  0  0  0  0  0
   -4.4641   -1.6056   -0.0975 H   0  0  0  0  0  0  0  0  0  0  0  0
   -5.6983   -3.5441   -0.4566 H   0  0  0  0  0  0  0  0  0  0  0  0
   -4.4370   -3.7787   -1.4522 H   0  0  0  0  0  0  0  0  0  0  0  0
   -6.2066   -4.6317    1.2997 H   0  0  0  0  0  0  0  0  0  0  0  0
   -5.0949   -5.4479    2.3664 H   0  0  0  0  0  0  0  0  0  0  0  0
   -5.6096   -2.6208    2.2837 H   0  0  0  0  0  0  0  0  0  0  0  0
   -4.4830   -3.5220    3.3323 H   0  0  0  0  0  0  0  0  0  0  0  0
   -3.2457   -1.6933    2.0150 H   0  0  0  0  0  0  0  0  0  0  0  0
   -1.4816   -3.2821    1.1493 H   0  0  0  0  0  0  0  0  0  0  0  0
   -2.0676   -3.7974    2.7274 H   0  0  0  0  0  0  0  0  0  0  0  0
   -2.8590   -5.7217    1.8474 H   0  0  0  0  0  0  0  0  0  0  0  0
   -2.0925   -5.2462    0.4258 H   0  0  0  0  0  0  0  0  0  0  0  0
  1  2  1  0  0  0  0
  1  9  2  0  0  0  0
  1 22  1  0  0  0  0
  2  3  2  0  0  0  0
  2 23  1  0  0  0  0
  3  4  1  0  0  0  0
  3  7  1  0  0  0  0
  4  5  2  0  0  0  0
  4 24  1  0  0  0  0
  5  6  1  0  0  0  0
  5 11  1  0  0  0  0
  6  7  1  0  0  0  0
  7  8  2  0  0  0  0
  8  9  1  0  0  0  0
  8 10  1  0  0  0  0
  9 25  1  0  0  0  0
 11 12  2  0  0  0  0
 11 13  1  0  0  0  0
 13 26  1  0  0  0  0
 14 15  1  0  0  0  0
 14 19  1  0  0  0  0
 14 27  1  6  0  0  0
 14 13  1  0  0  0  0
 15 16  1  0  0  0  0
 15 28  1  0  0  0  0
 15 29  1  0  0  0  0
 16 17  1  0  0  0  0
 16 21  1  0  0  0  0
 17 18  1  0  0  0  0
 17 30  1  0  0  0  0
 17 31  1  0  0  0  0
 18 19  1  0  0  0  0
 18 32  1  0  0  0  0
 18 33  1  0  0  0  0
 19 20  1  0  0  0  0
 19 34  1  0  0  0  0
 20 21  1  0  0  0  0
 20 35  1  0  0  0  0
 20 36  1  0  0  0  0
 21 37  1  0  0  0  0
 21 38  1  0  0  0  0
M  END
>  <DRUGBANK_ID>
DB11726

>  <SECONDARY_ACCESSION_NUMBERS>
DB06341

>  <COMMON_NAME>
Encenicline

>  <CAS_NUMBER>
550999-75-2

>  <UNII>
5FI5376A0X

>  <SYNONYMS>
Encenicline

$$$$
