
 OpenBabel10282417123D

 77 80  0  0  0  0  0  0  0  0999 V2000
   -4.3956   -8.9777   -1.7364 O   0  0  0  0  0  0  0  0  0  0  0  0
   -2.1867   -7.1744    2.3033 O   0  0  0  0  0  0  0  0  0  0  0  0
   -2.5218   -9.1252   -2.9437 O   0  0  0  0  0  0  0  0  0  0  0  0
   -2.5411   -2.5402   -1.8018 O   0  0  0  0  0  0  0  0  0  0  0  0
    0.7972   -8.4791    3.2255 O   0  0  0  0  0  0  0  0  0  0  0  0
   -0.3939  -12.2497    3.1627 O   0  0  0  0  0  0  0  0  0  0  0  0
   -1.4197   -9.5199    7.8598 O   0  0  0  0  0  0  0  0  0  0  0  0
   -7.5349   -7.2848    0.9415 N   0  0  0  0  0  0  0  0  0  0  0  0
   -3.9755   -8.0160    1.2139 N   0  0  0  0  0  0  0  0  0  0  0  0
   -5.1981   -7.9603    0.4112 C   0  0  1  0  0  0  0  0  0  0  0  0
   -5.3348   -9.0970   -0.6223 C   0  0  1  0  0  0  0  0  0  0  0  0
   -6.6882   -9.0523   -1.3506 C   0  0  0  0  0  0  0  0  0  0  0  0
   -6.3398   -7.9259    1.4508 C   0  0  0  0  0  0  0  0  0  0  0  0
   -7.8697   -9.3909   -0.4590 C   0  0  0  0  0  0  0  0  0  0  0  0
   -8.4606   -8.1797    0.2607 C   0  0  0  0  0  0  0  0  0  0  0  0
   -2.9864   -7.0740    1.3981 C   0  0  0  0  0  0  0  0  0  0  0  0
   -2.9023   -5.9271    0.4912 C   0  0  0  0  0  0  0  0  0  0  0  0
   -3.0754   -9.2166   -1.8533 C   0  0  0  0  0  0  0  0  0  0  0  0
   -5.2208   -3.0169   -0.0947 C   0  0  2  0  0  0  0  0  0  0  0  0
   -3.9769   -3.8837   -0.2656 C   0  0  0  0  0  0  0  0  0  0  0  0
   -3.9931   -5.0813    0.4559 C   0  0  0  0  0  0  0  0  0  0  0  0
   -5.0223   -1.5693   -0.5645 C   0  0  0  0  0  0  0  0  0  0  0  0
   -1.7390   -5.5976   -0.1884 C   0  0  0  0  0  0  0  0  0  0  0  0
   -2.2406   -9.4667   -0.6623 C   0  0  0  0  0  0  0  0  0  0  0  0
   -2.8132   -3.6241   -1.0193 C   0  0  0  0  0  0  0  0  0  0  0  0
   -5.7481   -3.0219    1.3650 C   0  0  0  0  0  0  0  0  0  0  0  0
   -1.7142   -4.4702   -0.9808 C   0  0  0  0  0  0  0  0  0  0  0  0
   -5.0042   -0.5015    0.5029 C   0  0  0  0  0  0  0  0  0  0  0  0
   -2.5998  -10.3304    0.3655 C   0  0  0  0  0  0  0  0  0  0  0  0
   -1.0708   -8.7062   -0.5390 C   0  0  0  0  0  0  0  0  0  0  0  0
   -1.9027  -10.2850    1.5770 C   0  0  0  0  0  0  0  0  0  0  0  0
   -0.3143   -8.7320    0.6446 C   0  0  0  0  0  0  0  0  0  0  0  0
   -0.7590   -9.4855    1.7380 C   0  0  0  0  0  0  0  0  0  0  0  0
   -0.1150   -9.2892    3.0827 C   0  0  0  0  0  0  0  0  0  0  0  0
   -0.5473  -10.0674    4.2739 C   0  0  0  0  0  0  0  0  0  0  0  0
   -0.6427  -11.4632    4.2539 C   0  0  0  0  0  0  0  0  0  0  0  0
   -0.8132   -9.3726    5.4710 C   0  0  0  0  0  0  0  0  0  0  0  0
   -1.1636  -10.0721    6.6325 C   0  0  0  0  0  0  0  0  0  0  0  0
   -1.0197  -12.1555    5.3987 C   0  0  0  0  0  0  0  0  0  0  0  0
   -1.2657  -11.4658    6.5858 C   0  0  0  0  0  0  0  0  0  0  0  0
   -1.3163   -8.1028    7.9576 C   0  0  0  0  0  0  0  0  0  0  0  0
   -8.0280   -6.8250    1.7089 H   0  0  0  0  0  0  0  0  0  0  0  0
   -3.9110   -8.7672    1.8893 H   0  0  0  0  0  0  0  0  0  0  0  0
   -3.3323   -2.2769   -2.2919 H   0  0  0  0  0  0  0  0  0  0  0  0
   -0.0355  -11.7217    2.4300 H   0  0  0  0  0  0  0  0  0  0  0  0
   -5.1923   -7.0452   -0.1778 H   0  0  0  0  0  0  0  0  0  0  0  0
   -5.2348  -10.0793   -0.1596 H   0  0  0  0  0  0  0  0  0  0  0  0
   -6.8240   -8.0758   -1.8353 H   0  0  0  0  0  0  0  0  0  0  0  0
   -6.6539   -9.7798   -2.1722 H   0  0  0  0  0  0  0  0  0  0  0  0
   -6.5305   -8.9259    1.8624 H   0  0  0  0  0  0  0  0  0  0  0  0
   -6.0056   -7.3333    2.3138 H   0  0  0  0  0  0  0  0  0  0  0  0
   -8.6599   -9.8228   -1.0833 H   0  0  0  0  0  0  0  0  0  0  0  0
   -7.5899  -10.1710    0.2597 H   0  0  0  0  0  0  0  0  0  0  0  0
   -9.0123   -7.5735   -0.4660 H   0  0  0  0  0  0  0  0  0  0  0  0
   -9.1928   -8.5455    0.9886 H   0  0  0  0  0  0  0  0  0  0  0  0
   -6.0015   -3.4885   -0.7148 H   0  0  0  0  0  0  0  0  0  0  0  0
   -4.8501   -5.3683    1.0575 H   0  0  0  0  0  0  0  0  0  0  0  0
   -4.0370   -1.4070   -0.9536 H   0  0  0  0  0  0  0  0  0  0  0  0
   -5.7025   -1.3508   -1.3940 H   0  0  0  0  0  0  0  0  0  0  0  0
   -0.8290   -6.1703   -0.1108 H   0  0  0  0  0  0  0  0  0  0  0  0
   -6.6338   -2.3876    1.4567 H   0  0  0  0  0  0  0  0  0  0  0  0
   -6.0626   -3.9992    1.7398 H   0  0  0  0  0  0  0  0  0  0  0  0
   -4.9695   -2.6603    2.0476 H   0  0  0  0  0  0  0  0  0  0  0  0
   -0.8224   -4.2093   -1.5436 H   0  0  0  0  0  0  0  0  0  0  0  0
   -4.2079   -0.7301    1.2221 H   0  0  0  0  0  0  0  0  0  0  0  0
   -4.7524    0.4537    0.0387 H   0  0  0  0  0  0  0  0  0  0  0  0
   -5.9585   -0.4073    1.0174 H   0  0  0  0  0  0  0  0  0  0  0  0
   -3.4972  -10.9324    0.3151 H   0  0  0  0  0  0  0  0  0  0  0  0
   -0.8336   -7.9832   -1.3211 H   0  0  0  0  0  0  0  0  0  0  0  0
   -2.3486  -10.8098    2.4172 H   0  0  0  0  0  0  0  0  0  0  0  0
    0.5218   -8.0416    0.7597 H   0  0  0  0  0  0  0  0  0  0  0  0
   -0.7342   -8.2885    5.4719 H   0  0  0  0  0  0  0  0  0  0  0  0
   -1.0994  -13.2384    5.3662 H   0  0  0  0  0  0  0  0  0  0  0  0
   -1.5248  -12.0269    7.4811 H   0  0  0  0  0  0  0  0  0  0  0  0
   -0.3042   -7.7614    7.7164 H   0  0  0  0  0  0  0  0  0  0  0  0
   -2.0619   -7.6157    7.3211 H   0  0  0  0  0  0  0  0  0  0  0  0
   -1.5244   -7.8136    8.9930 H   0  0  0  0  0  0  0  0  0  0  0  0
  1 18  1  0  0  0  0
  2 16  2  0  0  0  0
  3 18  2  0  0  0  0
  4 25  1  0  0  0  0
  4 44  1  0  0  0  0
  5 34  2  0  0  0  0
  6 36  1  0  0  0  0
  6 45  1  0  0  0  0
  7 38  1  0  0  0  0
  7 41  1  0  0  0  0
  8 13  1  0  0  0  0
  8 15  1  0  0  0  0
  8 42  1  0  0  0  0
  9 16  1  0  0  0  0
  9 43  1  0  0  0  0
 10  9  1  0  0  0  0
 10 11  1  0  0  0  0
 10 13  1  0  0  0  0
 10 46  1  6  0  0  0
 11 12  1  0  0  0  0
 11 47  1  1  0  0  0
 11  1  1  0  0  0  0
 12 14  1  0  0  0  0
 12 48  1  0  0  0  0
 12 49  1  0  0  0  0
 13 50  1  0  0  0  0
 13 51  1  0  0  0  0
 14 15  1  0  0  0  0
 14 52  1  0  0  0  0
 14 53  1  0  0  0  0
 15 54  1  0  0  0  0
 15 55  1  0  0  0  0
 16 17  1  0  0  0  0
 17 21  2  0  0  0  0
 17 23  1  0  0  0  0
 18 24  1  0  0  0  0
 19 26  1  0  0  0  0
 19 56  1  6  0  0  0
 19 22  1  0  0  0  0
 19 20  1  0  0  0  0
 20 21  1  0  0  0  0
 20 25  2  0  0  0  0
 21 57  1  0  0  0  0
 22 28  1  0  0  0  0
 22 58  1  0  0  0  0
 22 59  1  0  0  0  0
 23 27  2  0  0  0  0
 23 60  1  0  0  0  0
 24 29  2  0  0  0  0
 24 30  1  0  0  0  0
 25 27  1  0  0  0  0
 26 61  1  0  0  0  0
 26 62  1  0  0  0  0
 26 63  1  0  0  0  0
 27 64  1  0  0  0  0
 28 65  1  0  0  0  0
 28 66  1  0  0  0  0
 28 67  1  0  0  0  0
 29 31  1  0  0  0  0
 29 68  1  0  0  0  0
 30 32  2  0  0  0  0
 30 69  1  0  0  0  0
 31 33  2  0  0  0  0
 31 70  1  0  0  0  0
 32 33  1  0  0  0  0
 32 71  1  0  0  0  0
 33 34  1  0  0  0  0
 34 35  1  0  0  0  0
 35 36  2  0  0  0  0
 35 37  1  0  0  0  0
 36 39  1  0  0  0  0
 37 38  2  0  0  0  0
 37 72  1  0  0  0  0
 38 40  1  0  0  0  0
 39 40  2  0  0  0  0
 39 73  1  0  0  0  0
 40 74  1  0  0  0  0
 41 75  1  0  0  0  0
 41 76  1  0  0  0  0
 41 77  1  0  0  0  0
M  END
>  <DRUGBANK_ID>
DB02155

>  <SECONDARY_ACCESSION_NUMBERS>
EXPT00615

>  <COMMON_NAME>
3-[(3-sec-butyl-4-hydroxybenzoyl)amino]azepan-4-yl 4-(2-hydroxy-5-methoxybenzoyl)benzoate

>  <SYNONYMS>
Balanol analog 8

$$$$
