
 OpenBabel10282417143D

 67 71  0  0  1  0  0  0  0  0999 V2000
    3.0657   -2.7449   -0.0747 O   0  0  0  0  0  0  0  0  0  0  0  0
    4.0663    4.0774    0.0248 O   0  0  0  0  0  0  0  0  0  0  0  0
    1.5100    2.2290    2.5577 O   0  0  0  0  0  0  0  0  0  0  0  0
    2.6185    4.8429    4.6667 O   0  0  0  0  0  0  0  0  0  0  0  0
    0.9126   -1.6448   -0.0956 O   0  0  0  0  0  0  0  0  0  0  0  0
    3.9702   -4.1921    1.4594 O   0  0  0  0  0  0  0  0  0  0  0  0
    6.4811    7.1719   -1.4707 O   0  0  0  0  0  0  0  0  0  0  0  0
    4.0868    3.3288    2.1650 N   0  0  0  0  0  0  0  0  0  0  0  0
    4.1301    3.4844    3.5743 N   0  0  0  0  0  0  0  0  0  0  0  0
    2.0415    0.1798    1.8771 N   0  0  0  0  0  0  0  0  0  0  0  0
    5.3984    6.3745    0.3393 N   0  0  0  0  0  0  0  0  0  0  0  0
    8.8906    7.1333    0.1678 N   0  0  0  0  0  0  0  0  0  0  0  0
    3.8081    1.9307    1.7757 C   0  0  1  0  0  0  0  0  0  0  0  0
    4.8739    1.0087    2.4075 C   0  0  0  0  0  0  0  0  0  0  0  0
    5.0895    1.2478    3.8723 C   0  0  0  0  0  0  0  0  0  0  0  0
    5.2254    2.7291    4.1625 C   0  0  0  0  0  0  0  0  0  0  0  0
    5.1598    5.5927    1.5774 C   0  0  2  0  0  0  0  0  0  0  0  0
    4.3378    4.3062    1.2126 C   0  0  0  0  0  0  0  0  0  0  0  0
    4.5593    6.4681    2.6532 C   0  0  0  0  0  0  0  0  0  0  0  0
    2.3806    1.4835    2.1154 C   0  0  0  0  0  0  0  0  0  0  0  0
    4.7084    5.7935    4.0077 C   0  0  0  0  0  0  0  0  0  0  0  0
    3.7091    4.6785    4.1329 C   0  0  0  0  0  0  0  0  0  0  0  0
    2.8395   -0.8719    1.2598 C   0  0  2  0  0  0  0  0  0  0  0  0
    2.3230   -1.5219   -0.0044 C   0  0  1  0  0  0  0  0  0  0  0  0
    3.1538   -2.0397    2.1787 C   0  0  0  0  0  0  0  0  0  0  0  0
    3.4937   -3.0900    1.1765 C   0  0  0  0  0  0  0  0  0  0  0  0
    6.5689    6.6120   -0.3783 C   0  0  0  0  0  0  0  0  0  0  0  0
    0.2369   -2.3157    0.9566 C   0  0  0  0  0  0  0  0  0  0  0  0
    7.9244    6.1861    0.1467 C   0  0  0  0  0  0  0  0  0  0  0  0
    8.1623    4.8823    0.5950 C   0  0  0  0  0  0  0  0  0  0  0  0
    0.4996   -3.8036    0.9347 C   0  0  0  0  0  0  0  0  0  0  0  0
    9.3622    4.5679    1.2600 C   0  0  0  0  0  0  0  0  0  0  0  0
    7.2648    3.8591    0.3746 C   0  0  0  0  0  0  0  0  0  0  0  0
   10.3584    5.5352    1.2686 C   0  0  0  0  0  0  0  0  0  0  0  0
   10.0868    6.7678    0.6882 C   0  0  0  0  0  0  0  0  0  0  0  0
    9.5257    3.3006    1.8647 C   0  0  0  0  0  0  0  0  0  0  0  0
    7.4287    2.6360    0.9783 C   0  0  0  0  0  0  0  0  0  0  0  0
    8.5115    2.3555    1.7914 C   0  0  0  0  0  0  0  0  0  0  0  0
    1.0626    0.0192    2.0938 H   0  0  0  0  0  0  0  0  0  0  0  0
    4.5717    6.5620   -0.2235 H   0  0  0  0  0  0  0  0  0  0  0  0
    3.8680    1.8581    0.6799 H   0  0  0  0  0  0  0  0  0  0  0  0
    4.7333   -0.0526    2.3099 H   0  0  0  0  0  0  0  0  0  0  0  0
    5.8198    1.0975    1.9195 H   0  0  0  0  0  0  0  0  0  0  0  0
    4.2404    0.8065    4.4035 H   0  0  0  0  0  0  0  0  0  0  0  0
    5.9941    0.7092    4.1741 H   0  0  0  0  0  0  0  0  0  0  0  0
    5.2303    2.8790    5.2446 H   0  0  0  0  0  0  0  0  0  0  0  0
    6.1608    3.1250    3.7564 H   0  0  0  0  0  0  0  0  0  0  0  0
    6.1299    5.2905    1.9646 H   0  0  0  0  0  0  0  0  0  0  0  0
    5.1155    7.4134    2.6867 H   0  0  0  0  0  0  0  0  0  0  0  0
    3.5165    6.6993    2.4149 H   0  0  0  0  0  0  0  0  0  0  0  0
    5.7203    5.3927    4.1453 H   0  0  0  0  0  0  0  0  0  0  0  0
    4.5428    6.5057    4.8184 H   0  0  0  0  0  0  0  0  0  0  0  0
    3.7706   -0.4558    0.8803 H   0  0  0  0  0  0  0  0  0  0  0  0
    2.6342   -0.9086   -0.8607 H   0  0  0  0  0  0  0  0  0  0  0  0
    2.3049   -2.3550    2.7930 H   0  0  0  0  0  0  0  0  0  0  0  0
    3.9995   -1.8730    2.8493 H   0  0  0  0  0  0  0  0  0  0  0  0
    0.4720   -1.8810    1.9294 H   0  0  0  0  0  0  0  0  0  0  0  0
   -0.8317   -2.1338    0.8186 H   0  0  0  0  0  0  0  0  0  0  0  0
    1.5396   -4.0597    1.0486 H   0  0  0  0  0  0  0  0  0  0  0  0
    0.0112   -4.3066    1.7667 H   0  0  0  0  0  0  0  0  0  0  0  0
    0.2296   -4.2239   -0.0344 H   0  0  0  0  0  0  0  0  0  0  0  0
    6.3951    4.0031   -0.2558 H   0  0  0  0  0  0  0  0  0  0  0  0
   11.3343    5.3264    1.6925 H   0  0  0  0  0  0  0  0  0  0  0  0
   10.8594    7.5286    0.6383 H   0  0  0  0  0  0  0  0  0  0  0  0
   10.4512    3.0343    2.3705 H   0  0  0  0  0  0  0  0  0  0  0  0
    6.6740    1.9248    0.7124 H   0  0  0  0  0  0  0  0  0  0  0  0
    8.5988    1.3902    2.2840 H   0  0  0  0  0  0  0  0  0  0  0  0
  1 24  1  0  0  0  0
  1 26  1  0  0  0  0
  2 18  2  0  0  0  0
  3 20  2  0  0  0  0
  4 22  2  0  0  0  0
  5 28  1  0  0  0  0
  6 26  2  0  0  0  0
  7 27  2  0  0  0  0
  8  9  1  0  0  0  0
  8 13  1  0  0  0  0
  8 18  1  0  0  0  0
  9 16  1  0  0  0  0
  9 22  1  0  0  0  0
 10 20  1  0  0  0  0
 10 39  1  0  0  0  0
 11 27  1  0  0  0  0
 11 40  1  0  0  0  0
 12 29  2  0  0  0  0
 12 35  1  0  0  0  0
 13 14  1  0  0  0  0
 13 41  1  6  0  0  0
 13 20  1  0  0  0  0
 14 15  1  0  0  0  0
 14 42  1  0  0  0  0
 14 43  1  0  0  0  0
 15 16  1  0  0  0  0
 15 44  1  0  0  0  0
 15 45  1  0  0  0  0
 16 46  1  0  0  0  0
 16 47  1  0  0  0  0
 17 11  1  0  0  0  0
 17 18  1  0  0  0  0
 17 19  1  0  0  0  0
 17 48  1  1  0  0  0
 19 21  1  0  0  0  0
 19 49  1  0  0  0  0
 19 50  1  0  0  0  0
 21 22  1  0  0  0  0
 21 51  1  0  0  0  0
 21 52  1  0  0  0  0
 23 10  1  0  0  0  0
 23 24  1  0  0  0  0
 23 25  1  0  0  0  0
 23 53  1  6  0  0  0
 24  5  1  0  0  0  0
 24 54  1  6  0  0  0
 25 26  1  0  0  0  0
 25 55  1  0  0  0  0
 25 56  1  0  0  0  0
 27 29  1  0  0  0  0
 28 31  1  0  0  0  0
 28 57  1  0  0  0  0
 28 58  1  0  0  0  0
 29 30  1  0  0  0  0
 30 32  1  0  0  0  0
 30 33  2  0  0  0  0
 31 59  1  0  0  0  0
 31 60  1  0  0  0  0
 31 61  1  0  0  0  0
 32 34  1  0  0  0  0
 32 36  2  0  0  0  0
 33 37  1  0  0  0  0
 33 62  1  0  0  0  0
 34 35  2  0  0  0  0
 34 63  1  0  0  0  0
 35 64  1  0  0  0  0
 36 38  1  0  0  0  0
 36 65  1  0  0  0  0
 37 38  2  0  0  0  0
 37 66  1  0  0  0  0
 38 67  1  0  0  0  0
M  END
>  <DRUGBANK_ID>
DB04875

>  <COMMON_NAME>
Pralnacasan

>  <CAS_NUMBER>
192755-52-5

>  <UNII>
N986NI319S

>  <SYNONYMS>
Pralnacasan

$$$$
