
 OpenBabel10282417213D

 25 25  0  0  0  0  0  0  0  0999 V2000
    0.9418   -0.0031   -0.0342 S   0  0  0  0  0  0  0  0  0  0  0  0
    0.3723   -1.3445   -0.7653 O   0  0  0  0  0  0  0  0  0  0  0  0
    0.2867   -0.1071    1.4376 O   0  0  0  0  0  0  0  0  0  0  0  0
    0.3735    1.1630   -0.6782 O   0  0  0  0  0  0  0  0  0  0  0  0
    2.3633   -0.1412    0.1868 O   0  0  0  0  0  0  0  0  0  0  0  0
    0.2718   -4.9173   -6.1889 N   0  0  0  0  0  0  0  0  0  0  0  0
    1.7965   -2.9350   -6.0466 C   0  0  0  0  0  0  0  0  0  0  0  0
    1.4247   -2.5125   -4.6414 C   0  0  0  0  0  0  0  0  0  0  0  0
    1.6482   -4.4393   -6.3244 C   0  0  0  0  0  0  0  0  0  0  0  0
    2.3972   -1.9778   -3.7955 C   0  0  0  0  0  0  0  0  0  0  0  0
    0.1043   -2.5936   -4.1711 C   0  0  0  0  0  0  0  0  0  0  0  0
    0.7491   -1.6570   -2.0459 C   0  0  0  0  0  0  0  0  0  0  0  0
    2.0600   -1.5496   -2.5103 C   0  0  0  0  0  0  0  0  0  0  0  0
   -0.2332   -2.1773   -2.8830 C   0  0  0  0  0  0  0  0  0  0  0  0
    0.7626   -0.8004    1.9377 H   0  0  0  0  0  0  0  0  0  0  0  0
    0.2258   -5.9123   -6.3938 H   0  0  0  0  0  0  0  0  0  0  0  0
    0.0185   -4.8492   -5.2030 H   0  0  0  0  0  0  0  0  0  0  0  0
    1.2050   -2.3467   -6.7588 H   0  0  0  0  0  0  0  0  0  0  0  0
    2.8445   -2.6634   -6.2410 H   0  0  0  0  0  0  0  0  0  0  0  0
    1.9877   -4.6474   -7.3452 H   0  0  0  0  0  0  0  0  0  0  0  0
    2.2896   -5.0071   -5.6411 H   0  0  0  0  0  0  0  0  0  0  0  0
    3.4285   -1.8807   -4.1278 H   0  0  0  0  0  0  0  0  0  0  0  0
   -0.6897   -2.9816   -4.8056 H   0  0  0  0  0  0  0  0  0  0  0  0
    2.8556   -1.1397   -1.8986 H   0  0  0  0  0  0  0  0  0  0  0  0
   -1.2706   -2.2421   -2.5641 H   0  0  0  0  0  0  0  0  0  0  0  0
  1  2  1  0  0  0  0
  1  3  1  0  0  0  0
  1  4  2  0  0  0  0
  1  5  2  0  0  0  0
  2 12  1  0  0  0  0
  3 15  1  0  0  0  0
  6  9  1  0  0  0  0
  6 16  1  0  0  0  0
  6 17  1  0  0  0  0
  7  8  1  0  0  0  0
  7  9  1  0  0  0  0
  7 18  1  0  0  0  0
  7 19  1  0  0  0  0
  8 10  2  0  0  0  0
  8 11  1  0  0  0  0
  9 20  1  0  0  0  0
  9 21  1  0  0  0  0
 10 13  1  0  0  0  0
 10 22  1  0  0  0  0
 11 14  2  0  0  0  0
 11 23  1  0  0  0  0
 12 13  2  0  0  0  0
 12 14  1  0  0  0  0
 13 24  1  0  0  0  0
 14 25  1  0  0  0  0
M  END
>  <DRUGBANK_ID>
DB14630

>  <SECONDARY_ACCESSION_NUMBERS>
DBSALT002212

>  <COMMON_NAME>
Tyramine O-sulfate

>  <CAS_NUMBER>
30223-92-8

>  <UNII>
SIA20BP28W

>  <SYNONYMS>
Tyramine sulfate

$$$$
