
 OpenBabel10282417163D

 66 67  0  0  0  0  0  0  0  0999 V2000
    4.9335    1.2397   -4.4794 C   0  0  0  0  0  0  0  0  0  0  0  0
    4.0938    2.1472   -3.8556 C   0  0  0  0  0  0  0  0  0  0  0  0
    3.4158    1.8096   -2.6870 C   0  0  0  0  0  0  0  0  0  0  0  0
    3.7035    0.6132   -2.0276 C   0  0  0  0  0  0  0  0  0  0  0  0
    4.5510   -0.3016   -2.6209 C   0  0  0  0  0  0  0  0  0  0  0  0
    5.1185   -0.0054   -3.8615 C   0  0  0  0  0  0  0  0  0  0  0  0
    2.2994    2.6982   -2.2371 C   0  0  0  0  0  0  0  0  0  0  0  0
    1.0526    1.9469   -2.2414 N   0  0  0  0  0  0  0  0  0  0  0  0
    7.9199    0.4451   -5.1880 P   0  0  3  0  0  0  0  0  0  0  0  0
    7.9705    0.0373   -6.6380 O   0  0  0  0  0  0  0  0  0  0  0  0
    9.2501    1.5140   -4.2311 C   0  0  2  0  0  0  0  0  0  0  0  0
   10.6428    1.8947   -4.9481 C   0  0  0  0  0  0  0  0  0  0  0  0
   11.7006    2.7431   -4.1046 C   0  0  0  0  0  0  0  0  0  0  0  0
   11.3917    0.6753   -5.4083 C   0  0  0  0  0  0  0  0  0  0  0  0
    9.5166    1.0139   -2.8069 N   0  0  0  0  0  0  0  0  0  0  0  0
    8.1551    0.7991   -1.8298 S   0  0  0  0  0  0  0  0  0  0  0  0
    7.3728   -0.1239   -2.5795 O   0  0  0  0  0  0  0  0  0  0  0  0
    8.6362    0.3921   -0.5128 O   0  0  0  0  0  0  0  0  0  0  0  0
    7.3196    2.4453   -1.6624 C   0  0  0  0  0  0  0  0  0  0  0  0
    8.1734    3.4280   -0.8620 C   0  0  0  0  0  0  0  0  0  0  0  0
    9.4342    3.8746   -1.6126 C   0  0  0  0  0  0  0  0  0  0  0  0
    9.1157    4.7703   -2.7999 C   0  0  0  0  0  0  0  0  0  0  0  0
    8.7064    6.0583   -2.7084 C   0  0  0  0  0  0  0  0  0  0  0  0
    8.4525    6.7993   -3.8937 C   0  0  0  0  0  0  0  0  0  0  0  0
    8.5580    6.2756   -5.1984 C   0  0  0  0  0  0  0  0  0  0  0  0
    8.9983    5.0129   -5.3281 C   0  0  0  0  0  0  0  0  0  0  0  0
    9.2464    4.3937   -4.1225 C   0  0  0  0  0  0  0  0  0  0  0  0
    9.0483   -0.5819   -4.7086 O   0  0  0  0  0  0  0  0  0  0  0  0
    5.6223    1.5715   -5.7886 C   0  0  1  0  0  0  0  0  0  0  0  0
    4.8091    2.3804   -6.7694 C   0  0  0  0  0  0  0  0  0  0  0  0
    4.3724    1.9518   -7.8275 O   0  0  0  0  0  0  0  0  0  0  0  0
    4.4797    3.6229   -6.3727 O   0  0  0  0  0  0  0  0  0  0  0  0
    7.0687    2.0502   -5.5342 C   0  0  0  0  0  0  0  0  0  0  0  0
    3.8932    3.1154   -4.2975 H   0  0  0  0  0  0  0  0  0  0  0  0
    3.2196    0.3736   -1.0852 H   0  0  0  0  0  0  0  0  0  0  0  0
    4.7868   -1.2412   -2.1257 H   0  0  0  0  0  0  0  0  0  0  0  0
    5.7881   -0.7541   -4.2815 H   0  0  0  0  0  0  0  0  0  0  0  0
    2.5306    3.0953   -1.2474 H   0  0  0  0  0  0  0  0  0  0  0  0
    2.1988    3.5465   -2.9260 H   0  0  0  0  0  0  0  0  0  0  0  0
    0.2817    2.5669   -2.0188 H   0  0  0  0  0  0  0  0  0  0  0  0
    0.8874    1.5893   -3.1839 H   0  0  0  0  0  0  0  0  0  0  0  0
    8.5813    2.3048   -3.9595 H   0  0  0  0  0  0  0  0  0  0  0  0
   10.4083    2.4618   -5.8642 H   0  0  0  0  0  0  0  0  0  0  0  0
   11.9212    2.2655   -3.1488 H   0  0  0  0  0  0  0  0  0  0  0  0
   12.6215    2.9006   -4.6732 H   0  0  0  0  0  0  0  0  0  0  0  0
   11.4478    3.7781   -3.8458 H   0  0  0  0  0  0  0  0  0  0  0  0
   10.7985    0.1439   -6.1507 H   0  0  0  0  0  0  0  0  0  0  0  0
   12.3323    0.9606   -5.8860 H   0  0  0  0  0  0  0  0  0  0  0  0
   11.6060    0.0461   -4.5429 H   0  0  0  0  0  0  0  0  0  0  0  0
    9.9913    0.1117   -2.9046 H   0  0  0  0  0  0  0  0  0  0  0  0
    7.0342    2.8573   -2.6315 H   0  0  0  0  0  0  0  0  0  0  0  0
    6.3743    2.2677   -1.1322 H   0  0  0  0  0  0  0  0  0  0  0  0
    7.5876    4.3188   -0.6064 H   0  0  0  0  0  0  0  0  0  0  0  0
    8.4405    2.9556    0.0921 H   0  0  0  0  0  0  0  0  0  0  0  0
   10.1000    4.4073   -0.9261 H   0  0  0  0  0  0  0  0  0  0  0  0
   10.0342    2.9962   -1.8632 H   0  0  0  0  0  0  0  0  0  0  0  0
    8.6193    6.4902   -1.7223 H   0  0  0  0  0  0  0  0  0  0  0  0
    8.1883    7.8373   -3.7900 H   0  0  0  0  0  0  0  0  0  0  0  0
    8.3492    6.8311   -6.1013 H   0  0  0  0  0  0  0  0  0  0  0  0
    9.2062    4.4979   -6.2676 H   0  0  0  0  0  0  0  0  0  0  0  0
    9.7024    3.4945   -4.2862 H   0  0  0  0  0  0  0  0  0  0  0  0
    8.7310   -1.4880   -4.5980 H   0  0  0  0  0  0  0  0  0  0  0  0
    5.6812    0.6132   -6.3126 H   0  0  0  0  0  0  0  0  0  0  0  0
    3.7753    3.8896   -7.0032 H   0  0  0  0  0  0  0  0  0  0  0  0
    7.4732    2.5517   -6.4341 H   0  0  0  0  0  0  0  0  0  0  0  0
    7.0103    2.8475   -4.7821 H   0  0  0  0  0  0  0  0  0  0  0  0
  1  2  1  0  0  0  0
  1  6  2  0  0  0  0
  2  3  2  0  0  0  0
  2 34  1  0  0  0  0
  3  4  1  0  0  0  0
  3  7  1  0  0  0  0
  4  5  2  0  0  0  0
  4 35  1  0  0  0  0
  5  6  1  0  0  0  0
  5 36  1  0  0  0  0
  6 37  1  0  0  0  0
  7  8  1  0  0  0  0
  7 38  1  0  0  0  0
  7 39  1  0  0  0  0
  8 40  1  0  0  0  0
  8 41  1  0  0  0  0
  9 10  2  0  0  0  0
  9 28  1  0  0  0  0
  9 33  1  0  0  0  0
 11 15  1  0  0  0  0
 11 42  1  1  0  0  0
 11 12  1  0  0  0  0
 11  9  1  0  0  0  0
 12 13  1  0  0  0  0
 12 14  1  0  0  0  0
 12 43  1  0  0  0  0
 13 44  1  0  0  0  0
 13 45  1  0  0  0  0
 13 46  1  0  0  0  0
 14 47  1  0  0  0  0
 14 48  1  0  0  0  0
 14 49  1  0  0  0  0
 15 16  1  0  0  0  0
 15 50  1  0  0  0  0
 16 17  2  0  0  0  0
 16 18  2  0  0  0  0
 16 19  1  0  0  0  0
 19 20  1  0  0  0  0
 19 51  1  0  0  0  0
 19 52  1  0  0  0  0
 20 21  1  0  0  0  0
 20 53  1  0  0  0  0
 20 54  1  0  0  0  0
 21 22  1  0  0  0  0
 21 55  1  0  0  0  0
 21 56  1  0  0  0  0
 22 23  1  0  0  0  0
 22 27  2  0  0  0  0
 23 24  2  0  0  0  0
 23 57  1  0  0  0  0
 24 25  1  0  0  0  0
 24 58  1  0  0  0  0
 25 26  2  0  0  0  0
 25 59  1  0  0  0  0
 26 27  1  0  0  0  0
 26 60  1  0  0  0  0
 27 61  1  0  0  0  0
 28 62  1  0  0  0  0
 29 30  1  0  0  0  0
 29 63  1  6  0  0  0
 29 33  1  0  0  0  0
 29  1  1  0  0  0  0
 30 31  2  0  0  0  0
 30 32  1  0  0  0  0
 32 64  1  0  0  0  0
 33 65  1  0  0  0  0
 33 66  1  0  0  0  0
M  END
>  <DRUGBANK_ID>
DB07136

>  <COMMON_NAME>
BX-528

>  <CAS_NUMBER>
607837-17-2

>  <UNII>
60045PL22T

$$$$
