
 OpenBabel10282417213D

 65 68  0  0  0  0  0  0  0  0999 V2000
   -2.8280   -2.2218    8.1333 O   0  0  0  0  0  0  0  0  0  0  0  0
    1.0287   -2.0892    3.7235 O   0  0  0  0  0  0  0  0  0  0  0  0
   -3.1522   -0.6161   10.0440 O   0  0  0  0  0  0  0  0  0  0  0  0
   -1.0951   -3.1832   10.2104 O   0  0  0  0  0  0  0  0  0  0  0  0
   -6.3699   -5.2731    2.9467 O   0  0  0  0  0  0  0  0  0  0  0  0
   -3.1399   -3.5146   11.1834 O   0  0  0  0  0  0  0  0  0  0  0  0
   -0.5198   -5.8796    6.9418 O   0  0  0  0  0  0  0  0  0  0  0  0
   -1.0707   -3.9092    7.8412 O   0  0  0  0  0  0  0  0  0  0  0  0
   -0.0039   -1.3913    7.1721 C   0  0  2  0  0  0  0  0  0  0  0  0
   -1.7610   -1.1699    8.1338 C   0  0  1  0  0  0  0  0  0  0  0  0
   -1.0388   -1.0758    6.2475 C   0  0  2  0  0  0  0  0  0  0  0  0
   -1.2523   -2.8018    4.3925 C   0  0  1  0  0  0  0  0  0  0  0  0
   -1.6710   -1.4932    5.0056 C   0  0  1  0  0  0  0  0  0  0  0  0
   -2.4433   -3.1983    3.0323 C   0  0  2  0  0  0  0  0  0  0  0  0
    0.7318   -2.6975    6.2292 C   0  0  0  0  0  0  0  0  0  0  0  0
    0.3044   -2.9388    4.6087 C   0  0  2  0  0  0  0  0  0  0  0  0
   -2.5461    0.0903    7.5604 C   0  0  0  0  0  0  0  0  0  0  0  0
   -1.3186    0.3562    6.8932 C   0  0  0  0  0  0  0  0  0  0  0  0
   -2.0922   -1.0688    9.5941 C   0  0  0  0  0  0  0  0  0  0  0  0
   -3.2934   -3.9849    3.9988 C   0  0  0  0  0  0  0  0  0  0  0  0
   -3.0357   -1.8460    5.5732 C   0  0  0  0  0  0  0  0  0  0  0  0
    0.9589   -0.2102    6.2846 C   0  0  0  0  0  0  0  0  0  0  0  0
   -3.7658   -2.7886    4.7973 C   0  0  0  0  0  0  0  0  0  0  0  0
   -4.1515   -2.4694    2.4864 C   0  0  0  0  0  0  0  0  0  0  0  0
   -1.5475   -4.3082    2.4098 C   0  0  0  0  0  0  0  0  0  0  0  0
   -4.0390   -4.9846    3.4422 C   0  0  0  0  0  0  0  0  0  0  0  0
   -1.1101   -1.7663   10.4232 C   0  0  0  0  0  0  0  0  0  0  0  0
   -5.3993   -3.0808    2.8291 C   0  0  0  0  0  0  0  0  0  0  0  0
   -5.3816   -4.5173    3.1084 C   0  0  0  0  0  0  0  0  0  0  0  0
   -2.1912   -3.9253   10.5501 C   0  0  0  0  0  0  0  0  0  0  0  0
   -2.0431   -5.3877   10.0947 C   0  0  0  0  0  0  0  0  0  0  0  0
   -2.2950   -5.7520    8.6214 C   0  0  0  0  0  0  0  0  0  0  0  0
   -1.2526   -5.1657    7.7671 C   0  0  0  0  0  0  0  0  0  0  0  0
   -1.5308   -0.6784    4.2998 H   0  0  0  0  0  0  0  0  0  0  0  0
   -1.4541   -3.6383    5.0999 H   0  0  0  0  0  0  0  0  0  0  0  0
   -1.3174   -2.0910    6.6122 H   0  0  0  0  0  0  0  0  0  0  0  0
   -2.4486   -3.0935    8.3025 H   0  0  0  0  0  0  0  0  0  0  0  0
    0.5431   -1.2580    3.6157 H   0  0  0  0  0  0  0  0  0  0  0  0
   -0.6690   -6.8465    6.9344 H   0  0  0  0  0  0  0  0  0  0  0  0
    1.8218   -2.4857    6.1894 H   0  0  0  0  0  0  0  0  0  0  0  0
    0.7470   -3.6430    6.7677 H   0  0  0  0  0  0  0  0  0  0  0  0
    0.6730   -3.9501    4.3751 H   0  0  0  0  0  0  0  0  0  0  0  0
   -3.2810    0.1315    6.7666 H   0  0  0  0  0  0  0  0  0  0  0  0
   -2.9038    0.8542    8.2471 H   0  0  0  0  0  0  0  0  0  0  0  0
   -1.2251    1.1850    6.2144 H   0  0  0  0  0  0  0  0  0  0  0  0
   -0.6635    0.6252    7.7766 H   0  0  0  0  0  0  0  0  0  0  0  0
   -3.6867   -0.9781    5.6206 H   0  0  0  0  0  0  0  0  0  0  0  0
   -3.0681   -2.5302    6.3811 H   0  0  0  0  0  0  0  0  0  0  0  0
    0.5997   -0.1603    5.2284 H   0  0  0  0  0  0  0  0  0  0  0  0
    0.9388    0.8342    6.5992 H   0  0  0  0  0  0  0  0  0  0  0  0
    2.0022   -0.4994    6.1300 H   0  0  0  0  0  0  0  0  0  0  0  0
   -3.5893   -1.9162    4.1629 H   0  0  0  0  0  0  0  0  0  0  0  0
   -4.7500   -2.8775    5.1947 H   0  0  0  0  0  0  0  0  0  0  0  0
   -4.4111   -1.4059    2.8307 H   0  0  0  0  0  0  0  0  0  0  0  0
   -1.4913   -5.1684    3.1126 H   0  0  0  0  0  0  0  0  0  0  0  0
   -1.8109   -4.6688    1.4255 H   0  0  0  0  0  0  0  0  0  0  0  0
   -0.4932   -4.0050    2.3938 H   0  0  0  0  0  0  0  0  0  0  0  0
   -3.6965   -5.5323    2.5541 H   0  0  0  0  0  0  0  0  0  0  0  0
   -0.1952   -1.3433    9.9972 H   0  0  0  0  0  0  0  0  0  0  0  0
   -1.2221   -1.4582   11.4559 H   0  0  0  0  0  0  0  0  0  0  0  0
   -6.2544   -2.6202    3.4079 H   0  0  0  0  0  0  0  0  0  0  0  0
   -1.0453   -5.7190   10.3982 H   0  0  0  0  0  0  0  0  0  0  0  0
   -2.7652   -5.9513   10.6943 H   0  0  0  0  0  0  0  0  0  0  0  0
   -2.2812   -6.8367    8.4765 H   0  0  0  0  0  0  0  0  0  0  0  0
   -3.2704   -5.3807    8.2786 H   0  0  0  0  0  0  0  0  0  0  0  0
  1 37  1  0  0  0  0
  2 38  1  0  0  0  0
  3 19  2  0  0  0  0
  4 27  1  0  0  0  0
  4 30  1  0  0  0  0
  5 29  2  0  0  0  0
  6 30  2  0  0  0  0
  7 33  1  0  0  0  0
  7 39  1  0  0  0  0
  8 33  2  0  0  0  0
  9 10  1  0  0  0  0
  9 11  1  0  0  0  0
  9 15  1  0  0  0  0
  9 22  1  1  0  0  0
 10 17  1  0  0  0  0
 10 19  1  1  0  0  0
 10  1  1  0  0  0  0
 11 13  1  0  0  0  0
 11 18  1  0  0  0  0
 11 36  1  1  0  0  0
 12 13  1  0  0  0  0
 12 14  1  0  0  0  0
 12 16  1  0  0  0  0
 12 35  1  1  0  0  0
 13 21  1  0  0  0  0
 13 34  1  6  0  0  0
 14 20  1  0  0  0  0
 14 24  1  0  0  0  0
 14 25  1  1  0  0  0
 15 16  1  0  0  0  0
 15 40  1  0  0  0  0
 15 41  1  0  0  0  0
 16  2  1  0  0  0  0
 16 42  1  6  0  0  0
 17 18  1  0  0  0  0
 17 43  1  0  0  0  0
 17 44  1  0  0  0  0
 18 45  1  0  0  0  0
 18 46  1  0  0  0  0
 19 27  1  0  0  0  0
 20 23  1  0  0  0  0
 20 26  2  0  0  0  0
 21 23  1  0  0  0  0
 21 47  1  0  0  0  0
 21 48  1  0  0  0  0
 22 49  1  0  0  0  0
 22 50  1  0  0  0  0
 22 51  1  0  0  0  0
 23 52  1  0  0  0  0
 23 53  1  0  0  0  0
 24 28  2  0  0  0  0
 24 54  1  0  0  0  0
 25 55  1  0  0  0  0
 25 56  1  0  0  0  0
 25 57  1  0  0  0  0
 26 29  1  0  0  0  0
 26 58  1  0  0  0  0
 27 59  1  0  0  0  0
 27 60  1  0  0  0  0
 28 29  1  0  0  0  0
 28 61  1  0  0  0  0
 30 31  1  0  0  0  0
 31 32  1  0  0  0  0
 31 62  1  0  0  0  0
 31 63  1  0  0  0  0
 32 33  1  0  0  0  0
 32 64  1  0  0  0  0
 32 65  1  0  0  0  0
M  END
>  <DRUGBANK_ID>
DB14633

>  <COMMON_NAME>
Prednisolone hemisuccinate

>  <CAS_NUMBER>
2920-86-7

>  <UNII>
G7080T74ON

>  <SYNONYMS>
(+)-prednisolone hemisuccinate; Prednisolonbisuccinat; Prednisolone 21-hemisuccinate; Prednisolone 21-succinate; Prednisolone bisuccinate; Prednisolone hemisuccinate; Prednisolone hydrogen succinate; Prednisolone succinate

$$$$
