
 OpenBabel10282417103D

 81 80  0  0  0  0  0  0  0  0999 V2000
   -1.8817   -1.6192    2.2282 C   0  0  2  0  0  0  0  0  0  0  0  0
   -0.5098   -1.9955    1.7163 C   0  0  0  0  0  0  0  0  0  0  0  0
   -4.1685   -1.6443    1.9080 C   0  0  0  0  0  0  0  0  0  0  0  0
   -2.2179   -3.0511    2.4120 C   0  0  2  0  0  0  0  0  0  0  0  0
   -2.9581   -0.8735    1.4549 C   0  0  1  0  0  0  0  0  0  0  0  0
   -3.6708   -3.0915    1.9889 C   0  0  1  0  0  0  0  0  0  0  0  0
    0.0301   -2.2895    0.4854 C   0  0  0  0  0  0  0  0  0  0  0  0
   -4.2006   -7.6644    6.3011 C   0  0  0  0  0  0  0  0  0  0  0  0
    1.5529   -1.7085   -0.2098 C   0  0  1  0  0  0  0  0  0  0  0  0
   -4.5070   -8.8450    6.6873 O   0  0  0  0  0  0  0  0  0  0  0  0
   -2.4417   -3.3686    4.7840 C   0  0  0  0  0  0  0  0  0  0  0  0
   -2.9677   -4.5187    5.1738 C   0  0  0  0  0  0  0  0  0  0  0  0
   -3.0998    0.5180    1.7621 O   0  0  0  0  0  0  0  0  0  0  0  0
   -4.4941   -3.9010    2.7726 O   0  0  0  0  0  0  0  0  0  0  0  0
   -4.8574   -7.1201    5.2816 O   0  0  0  0  0  0  0  0  0  0  0  0
   -1.4731   -3.4285    3.7022 C   0  0  0  0  0  0  0  0  0  0  0  0
    2.1186   -2.9297   -0.7063 O   0  0  0  0  0  0  0  0  0  0  0  0
   -3.1303   -6.8304    6.9190 C   0  0  0  0  0  0  0  0  0  0  0  0
    1.4928   -0.5936   -1.8716 C   0  0  0  0  0  0  0  0  0  0  0  0
   -2.4330   -5.8541    4.7298 C   0  0  0  0  0  0  0  0  0  0  0  0
    2.6998   -1.2635    1.2964 C   0  0  0  0  0  0  0  0  0  0  0  0
   -1.9709   -6.5921    5.9630 C   0  0  0  0  0  0  0  0  0  0  0  0
    0.9916    1.2765   -1.9481 C   0  0  0  0  0  0  0  0  0  0  0  0
    3.0793    2.9206   -1.2909 C   0  0  0  0  0  0  0  0  0  0  0  0
    1.7422    2.4690   -0.8467 C   0  0  0  0  0  0  0  0  0  0  0  0
    2.6678    3.6430   -2.5084 C   0  0  0  0  0  0  0  0  0  0  0  0
    0.7330    0.4925    0.1591 C   0  0  0  0  0  0  0  0  0  0  0  0
   -0.4884   -0.3497   -0.7873 N   0  0  0  0  0  0  0  0  0  0  0  0
    0.5341    0.1521    1.6220 C   0  0  0  0  0  0  0  0  0  0  0  0
   -0.2745    1.8645    0.4820 C   0  0  0  0  0  0  0  0  0  0  0  0
    2.7053    0.3564   -0.2921 C   0  0  0  0  0  0  0  0  0  0  0  0
    3.7117   -0.8779   -0.7183 O   0  0  0  0  0  0  0  0  0  0  0  0
    1.0387    0.7842    2.7797 O   0  0  0  0  0  0  0  0  0  0  0  0
    0.0785    2.6371    1.6306 O   0  0  0  0  0  0  0  0  0  0  0  0
   -1.8402   -1.0763    3.2077 H   0  0  0  0  0  0  0  0  0  0  0  0
    0.0284   -1.7284    2.6365 H   0  0  0  0  0  0  0  0  0  0  0  0
   -4.9908   -1.5322    1.1996 H   0  0  0  0  0  0  0  0  0  0  0  0
   -4.5124   -1.2792    2.8828 H   0  0  0  0  0  0  0  0  0  0  0  0
   -1.7518   -3.7072    1.6556 H   0  0  0  0  0  0  0  0  0  0  0  0
   -2.7974   -0.9384    0.3874 H   0  0  0  0  0  0  0  0  0  0  0  0
   -3.6634   -3.5091    0.9728 H   0  0  0  0  0  0  0  0  0  0  0  0
   -0.7076   -2.5577   -0.2771 H   0  0  0  0  0  0  0  0  0  0  0  0
   -2.8665   -2.4082    5.0576 H   0  0  0  0  0  0  0  0  0  0  0  0
   -3.8688   -4.4616    5.7712 H   0  0  0  0  0  0  0  0  0  0  0  0
   -3.1509    0.6958    2.7190 H   0  0  0  0  0  0  0  0  0  0  0  0
   -4.8439   -3.3424    3.4853 H   0  0  0  0  0  0  0  0  0  0  0  0
   -5.4015   -7.8108    4.8490 H   0  0  0  0  0  0  0  0  0  0  0  0
   -0.9309   -4.3468    3.4814 H   0  0  0  0  0  0  0  0  0  0  0  0
   -0.6171   -2.8130    4.0265 H   0  0  0  0  0  0  0  0  0  0  0  0
    2.1417   -3.5220    0.0583 H   0  0  0  0  0  0  0  0  0  0  0  0
   -2.7409   -7.3208    7.8139 H   0  0  0  0  0  0  0  0  0  0  0  0
   -3.5769   -5.8926    7.2699 H   0  0  0  0  0  0  0  0  0  0  0  0
    2.4412   -0.5618   -2.4507 H   0  0  0  0  0  0  0  0  0  0  0  0
    0.9270   -1.1440   -2.6443 H   0  0  0  0  0  0  0  0  0  0  0  0
   -3.1755   -6.3692    4.1237 H   0  0  0  0  0  0  0  0  0  0  0  0
   -1.5761   -5.8529    4.0591 H   0  0  0  0  0  0  0  0  0  0  0  0
    2.5953   -0.2102    1.6492 H   0  0  0  0  0  0  0  0  0  0  0  0
    2.5455   -1.8681    2.1829 H   0  0  0  0  0  0  0  0  0  0  0  0
    3.8006   -1.0962    1.2467 H   0  0  0  0  0  0  0  0  0  0  0  0
   -1.5004   -7.5325    5.6598 H   0  0  0  0  0  0  0  0  0  0  0  0
   -1.1866   -5.9962    6.4573 H   0  0  0  0  0  0  0  0  0  0  0  0
    0.8364    1.6541   -2.9642 H   0  0  0  0  0  0  0  0  0  0  0  0
   -0.0895    1.4118   -1.7501 H   0  0  0  0  0  0  0  0  0  0  0  0
    3.5509    3.4492   -0.4549 H   0  0  0  0  0  0  0  0  0  0  0  0
    3.7914    2.1497   -1.5715 H   0  0  0  0  0  0  0  0  0  0  0  0
    1.1318    3.3612   -0.6346 H   0  0  0  0  0  0  0  0  0  0  0  0
    1.9095    2.1700    0.2052 H   0  0  0  0  0  0  0  0  0  0  0  0
    1.9861    4.4498   -2.2274 H   0  0  0  0  0  0  0  0  0  0  0  0
    3.5523    3.9333   -3.0361 H   0  0  0  0  0  0  0  0  0  0  0  0
    2.1157    2.9722   -3.1683 H   0  0  0  0  0  0  0  0  0  0  0  0
   -1.4528   -0.1442   -0.5836 H   0  0  0  0  0  0  0  0  0  0  0  0
   -0.4707   -0.2935   -1.8218 H   0  0  0  0  0  0  0  0  0  0  0  0
   -0.5354    0.1275    1.7281 H   0  0  0  0  0  0  0  0  0  0  0  0
    0.9612   -0.7735    1.7481 H   0  0  0  0  0  0  0  0  0  0  0  0
   -0.4905    2.5643   -0.3181 H   0  0  0  0  0  0  0  0  0  0  0  0
   -1.2955    1.4871    0.6315 H   0  0  0  0  0  0  0  0  0  0  0  0
    2.9640    0.7141   -1.2792 H   0  0  0  0  0  0  0  0  0  0  0  0
    3.3602    0.9346    0.3687 H   0  0  0  0  0  0  0  0  0  0  0  0
    3.6059   -1.7890   -0.3397 H   0  0  0  0  0  0  0  0  0  0  0  0
    1.6671    0.1632    3.2028 H   0  0  0  0  0  0  0  0  0  0  0  0
    0.4172    2.0241    2.3252 H   0  0  0  0  0  0  0  0  0  0  0  0
  1 35  1  1  0  0  0
  1  2  1  0  0  0  0
  2 36  1  0  0  0  0
  3  5  1  0  0  0  0
  3 37  1  0  0  0  0
  3 38  1  0  0  0  0
  4  1  1  0  0  0  0
  4 39  1  6  0  0  0
  4 16  1  0  0  0  0
  5 13  1  0  0  0  0
  5  1  1  0  0  0  0
  5 40  1  6  0  0  0
  6  4  1  0  0  0  0
  6  3  1  0  0  0  0
  6 41  1  6  0  0  0
  6 14  1  0  0  0  0
  7  2  2  0  0  0  0
  7 42  1  0  0  0  0
  8 18  1  0  0  0  0
  9  7  1  1  0  0  0
  9 17  1  0  0  0  0
  9 21  1  0  0  0  0
 10  8  2  0  0  0  0
 11 16  1  0  0  0  0
 11 43  1  0  0  0  0
 12 11  2  0  0  0  0
 12 44  1  0  0  0  0
 13 45  1  0  0  0  0
 14 46  1  0  0  0  0
 15  8  1  0  0  0  0
 15 47  1  0  0  0  0
 16 48  1  0  0  0  0
 16 49  1  0  0  0  0
 17 50  1  0  0  0  0
 18 22  1  0  0  0  0
 18 51  1  0  0  0  0
 18 52  1  0  0  0  0
 19  9  1  0  0  0  0
 19 53  1  0  0  0  0
 19 54  1  0  0  0  0
 20 12  1  0  0  0  0
 20 55  1  0  0  0  0
 20 56  1  0  0  0  0
 21 57  1  0  0  0  0
 21 58  1  0  0  0  0
 21 59  1  0  0  0  0
 22 20  1  0  0  0  0
 22 60  1  0  0  0  0
 22 61  1  0  0  0  0
 23 19  1  0  0  0  0
 23 62  1  0  0  0  0
 23 63  1  0  0  0  0
 24 25  1  0  0  0  0
 24 64  1  0  0  0  0
 24 65  1  0  0  0  0
 25 23  1  0  0  0  0
 25 66  1  0  0  0  0
 25 67  1  0  0  0  0
 26 24  1  0  0  0  0
 26 68  1  0  0  0  0
 26 69  1  0  0  0  0
 26 70  1  0  0  0  0
 28 27  1  0  0  0  0
 28 71  1  0  0  0  0
 28 72  1  0  0  0  0
 29 27  1  0  0  0  0
 29 73  1  0  0  0  0
 29 74  1  0  0  0  0
 30 27  1  0  0  0  0
 30 75  1  0  0  0  0
 30 76  1  0  0  0  0
 31 27  1  0  0  0  0
 31 77  1  0  0  0  0
 31 78  1  0  0  0  0
 32 31  1  0  0  0  0
 32 79  1  0  0  0  0
 33 29  1  0  0  0  0
 33 80  1  0  0  0  0
 34 30  1  0  0  0  0
 34 81  1  0  0  0  0
M  END
>  <DRUGBANK_ID>
DB00429

>  <SECONDARY_ACCESSION_NUMBERS>
APRD00847

>  <COMMON_NAME>
Carboprost tromethamine

>  <CAS_NUMBER>
58551-69-2

>  <UNII>
U4526F86FJ

>  <SYNONYMS>
(15S)-15-methyl-PGF2α tromethamine salt; (15S)-15-methylprostaglandin F2α tromethamine; 1,3-dihydroxy-2-(hydroxymethyl)propan-2-aminium (5Z,9α,11β,13E,15S)-9,11,15-trihydroxy-15-methylprosta-5,13-dien-1-oate; 15(S)-15-methyl-PGF2α tromethamine salt; 15(S)-15-methylprostaglandin F2α tromethamine; Carboprost trometamol; Carboprost tromethamine

$$$$
