
 OpenBabel10282417123D

 30 29  0  0  1  0  0  0  0  0999 V2000
    0.9050    0.0796   -0.0201 C   0  0  0  0  0  0  0  0  0  0  0  0
    0.4032    1.3228    0.6591 C   0  0  0  0  0  0  0  0  0  0  0  0
   -0.2885    2.1533    0.0781 O   0  0  0  0  0  0  0  0  0  0  0  0
    0.7577    1.5134    1.9607 N   0  0  0  0  0  0  0  0  0  0  0  0
    1.5395    0.6218    2.8155 C   0  0  1  0  0  0  0  0  0  0  0  0
    2.8109    1.3619    3.2851 C   0  0  0  0  0  0  0  0  0  0  0  0
    2.5977    2.6043    4.1623 C   0  0  0  0  0  0  0  0  0  0  0  0
    1.9689    2.2979    5.5084 C   0  0  0  0  0  0  0  0  0  0  0  0
    2.7240    1.3018    6.2448 N   0  0  0  0  0  0  0  0  0  0  0  0
    2.9710    1.4941    7.5661 C   0  0  0  0  0  0  0  0  0  0  0  0
    3.7238    0.5333    8.1411 N   0  0  0  0  0  0  0  0  0  0  0  0
    2.6185    2.4716    8.2067 O   0  0  0  0  0  0  0  0  0  0  0  0
    0.6093   -0.0352    3.8753 C   0  0  0  0  0  0  0  0  0  0  0  0
    0.7764   -1.3632    4.0531 O   0  0  0  0  0  0  0  0  0  0  0  0
   -0.2717    0.5494    4.5024 O   0  0  0  0  0  0  0  0  0  0  0  0
    0.5381    0.0454   -1.0480 H   0  0  0  0  0  0  0  0  0  0  0  0
    0.5361   -0.8042    0.5086 H   0  0  0  0  0  0  0  0  0  0  0  0
    1.9987    0.0815   -0.0401 H   0  0  0  0  0  0  0  0  0  0  0  0
    0.3476    2.3447    2.3787 H   0  0  0  0  0  0  0  0  0  0  0  0
    1.8992   -0.2071    2.2016 H   0  0  0  0  0  0  0  0  0  0  0  0
    3.4920    0.6631    3.7837 H   0  0  0  0  0  0  0  0  0  0  0  0
    3.3569    1.7041    2.3909 H   0  0  0  0  0  0  0  0  0  0  0  0
    3.5641    3.0984    4.3341 H   0  0  0  0  0  0  0  0  0  0  0  0
    1.9759    3.3346    3.6314 H   0  0  0  0  0  0  0  0  0  0  0  0
    1.8500    3.2120    6.0948 H   0  0  0  0  0  0  0  0  0  0  0  0
    0.9533    1.9590    5.3798 H   0  0  0  0  0  0  0  0  0  0  0  0
    2.8561    0.3726    5.8734 H   0  0  0  0  0  0  0  0  0  0  0  0
    3.9726    0.7075    9.1054 H   0  0  0  0  0  0  0  0  0  0  0  0
    4.0623   -0.2993    7.6911 H   0  0  0  0  0  0  0  0  0  0  0  0
    1.1551   -1.8437    3.2953 H   0  0  0  0  0  0  0  0  0  0  0  0
  1  2  1  0  0  0  0
  1 16  1  0  0  0  0
  1 17  1  0  0  0  0
  1 18  1  0  0  0  0
  2  3  2  0  0  0  0
  2  4  1  0  0  0  0
  4 19  1  0  0  0  0
  5  4  1  0  0  0  0
  5  6  1  0  0  0  0
  5 13  1  0  0  0  0
  5 20  1  6  0  0  0
  6  7  1  0  0  0  0
  6 21  1  0  0  0  0
  6 22  1  0  0  0  0
  7  8  1  0  0  0  0
  7 23  1  0  0  0  0
  7 24  1  0  0  0  0
  8  9  1  0  0  0  0
  8 25  1  0  0  0  0
  8 26  1  0  0  0  0
  9 10  1  0  0  0  0
  9 27  1  0  0  0  0
 10 11  1  0  0  0  0
 10 12  2  0  0  0  0
 11 28  1  0  0  0  0
 11 29  1  0  0  0  0
 13 14  1  0  0  0  0
 13 15  2  0  0  0  0
 14 30  1  0  0  0  0
M  END
>  <DRUGBANK_ID>
DB02368

>  <SECONDARY_ACCESSION_NUMBERS>
EXPT02432

>  <COMMON_NAME>
N-Acetyl-L-Citrulline

$$$$
