
 OpenBabel10282417213D

  4  3  0  0  0  0  0  0  0  0999 V2000
    0.9751   -0.2472    0.0456 P   0  0  0  0  0  0  0  0  0  0  0  0
    0.6598    1.0537    0.5044 H   0  0  0  0  0  0  0  0  0  0  0  0
    0.6598    0.0328   -1.3051 H   0  0  0  0  0  0  0  0  0  0  0  0
    2.3562    0.0209   -0.1056 H   0  0  0  0  0  0  0  0  0  0  0  0
  1  2  1  0  0  0  0
  1  3  1  0  0  0  0
  1  4  1  0  0  0  0
M  ISO  1   1  32
M  END
>  <DRUGBANK_ID>
DB14551

>  <COMMON_NAME>
Phosphorus P-32

>  <CAS_NUMBER>
14596-37-3

>  <UNII>
690284A407

>  <SYNONYMS>
P-32; Phosphorus-32; Phosphorus, P-32

$$$$
