D4N
 OpenBabel10282417163D

 56 58  0  0  0  0  0  0  0  0999 V2000
    1.3206   -1.2055    0.1593 O   0  0  0  0  0  0  0  0  0  0  0  0
    3.4995   -0.3265   -0.9681 C   0  0  0  0  0  0  0  0  0  0  0  0
    1.6490   -0.0236   -4.8263 C   0  0  0  0  0  0  0  0  0  0  0  0
    2.5391   -1.1296    0.0407 C   0  0  0  0  0  0  0  0  0  0  0  0
    0.5340   -0.0656   -3.6488 C   0  0  2  0  0  0  0  0  0  0  0  0
    3.3839    0.6850   -2.1242 C   0  0  0  0  0  0  0  0  0  0  0  0
   -0.8446    0.0224   -4.2476 C   0  0  0  0  0  0  0  0  0  0  0  0
    0.5406    1.0480   -2.5079 C   0  0  0  0  0  0  0  0  0  0  0  0
    0.4047    0.6721   -1.1739 C   0  0  0  0  0  0  0  0  0  0  0  0
    0.8629    1.4502   -0.0446 C   0  0  0  0  0  0  0  0  0  0  0  0
    1.4841    2.6729   -0.2231 C   0  0  0  0  0  0  0  0  0  0  0  0
    1.3596    3.1973   -1.5318 C   0  0  0  0  0  0  0  0  0  0  0  0
    0.8343    2.4103   -2.6528 C   0  0  0  0  0  0  0  0  0  0  0  0
    3.1598   -0.7428   -2.3678 C   0  0  0  0  0  0  0  0  0  0  0  0
    4.9395    3.2719    1.0596 C   0  0  0  0  0  0  0  0  0  0  0  0
    1.9000   -1.2949   -5.2701 F   0  0  0  0  0  0  0  0  0  0  0  0
    1.2287    0.6804   -5.9014 F   0  0  0  0  0  0  0  0  0  0  0  0
    2.8582    0.4933   -4.5286 F   0  0  0  0  0  0  0  0  0  0  0  0
    0.4426   -1.4527   -3.1093 O   0  0  0  0  0  0  0  0  0  0  0  0
    2.1615    3.6329    1.2115 S   0  0  0  0  0  0  0  0  0  0  0  0
    1.1705    3.3988    2.2841 O   0  0  0  0  0  0  0  0  0  0  0  0
    2.3897    4.9453    0.7159 O   0  0  0  0  0  0  0  0  0  0  0  0
    3.7154    3.1004    1.9090 N   0  0  0  0  0  0  0  0  0  0  0  0
    3.7722    1.7977    2.6318 C   0  0  2  0  0  0  0  0  0  0  0  0
    4.9459    1.4612    3.5693 C   0  0  0  0  0  0  0  0  0  0  0  0
    3.9276    0.7672    1.5498 C   0  0  0  0  0  0  0  0  0  0  0  0
    4.9784    2.2066   -0.0392 C   0  0  0  0  0  0  0  0  0  0  0  0
    5.0100    0.8414    0.5393 N   0  0  0  0  0  0  0  0  0  0  0  0
    4.9018   -0.2002   -0.5087 C   0  0  0  0  0  0  0  0  0  0  0  0
    3.1010   -1.7282    1.1159 N   0  0  0  0  0  0  0  0  0  0  0  0
    2.8395    1.6258    3.1876 H   0  0  0  0  0  0  0  0  0  0  0  0
    2.7449    1.5174   -2.2395 H   0  0  0  0  0  0  0  0  0  0  0  0
    4.2340    1.1408   -2.6657 H   0  0  0  0  0  0  0  0  0  0  0  0
   -1.5478    0.3437   -3.4735 H   0  0  0  0  0  0  0  0  0  0  0  0
   -0.8458    0.7490   -5.0527 H   0  0  0  0  0  0  0  0  0  0  0  0
   -1.1938   -0.9541   -4.5990 H   0  0  0  0  0  0  0  0  0  0  0  0
    0.0947   -0.3631   -1.0486 H   0  0  0  0  0  0  0  0  0  0  0  0
    0.8682    1.0029    0.9516 H   0  0  0  0  0  0  0  0  0  0  0  0
    1.8076    4.1604   -1.7601 H   0  0  0  0  0  0  0  0  0  0  0  0
    0.8627    2.8308   -3.6527 H   0  0  0  0  0  0  0  0  0  0  0  0
    3.8103   -1.2115   -3.0759 H   0  0  0  0  0  0  0  0  0  0  0  0
    2.2047   -1.2032   -2.3180 H   0  0  0  0  0  0  0  0  0  0  0  0
    4.9842    4.2807    0.6540 H   0  0  0  0  0  0  0  0  0  0  0  0
    5.8334    3.1462    1.6852 H   0  0  0  0  0  0  0  0  0  0  0  0
    0.7062   -2.0930   -3.8064 H   0  0  0  0  0  0  0  0  0  0  0  0
    5.0335    2.1007    4.4411 H   0  0  0  0  0  0  0  0  0  0  0  0
    4.8160    0.4284    3.9518 H   0  0  0  0  0  0  0  0  0  0  0  0
    5.9008    1.4200    3.0320 H   0  0  0  0  0  0  0  0  0  0  0  0
    4.0590   -0.1245    2.1405 H   0  0  0  0  0  0  0  0  0  0  0  0
    2.9757    0.8270    1.0556 H   0  0  0  0  0  0  0  0  0  0  0  0
    4.0877    2.3786   -0.6391 H   0  0  0  0  0  0  0  0  0  0  0  0
    5.8396    2.3455   -0.6982 H   0  0  0  0  0  0  0  0  0  0  0  0
    5.1864   -1.2102   -0.2171 H   0  0  0  0  0  0  0  0  0  0  0  0
    5.5700    0.0181   -1.3534 H   0  0  0  0  0  0  0  0  0  0  0  0
    2.5193   -1.4482    1.9100 H   0  0  0  0  0  0  0  0  0  0  0  0
    4.0844   -1.5863    1.2402 H   0  0  0  0  0  0  0  0  0  0  0  0
  1  4  2  0  0  0  0
  2  4  1  0  0  0  0
  2  6  1  0  0  0  0
  2 14  1  0  0  0  0
  2 29  1  0  0  0  0
  3 16  1  0  0  0  0
  3 17  1  0  0  0  0
  3 18  1  0  0  0  0
  4 30  1  0  0  0  0
  5  8  1  0  0  0  0
  5 19  1  1  0  0  0
  5  7  1  0  0  0  0
  5  3  1  0  0  0  0
  6 14  1  0  0  0  0
  6 32  1  0  0  0  0
  6 33  1  0  0  0  0
  7 34  1  0  0  0  0
  7 35  1  0  0  0  0
  7 36  1  0  0  0  0
  8  9  2  0  0  0  0
  8 13  1  0  0  0  0
  9 10  1  0  0  0  0
  9 37  1  0  0  0  0
 10 11  2  0  0  0  0
 10 38  1  0  0  0  0
 11 12  1  0  0  0  0
 11 20  1  0  0  0  0
 12 13  2  0  0  0  0
 12 39  1  0  0  0  0
 13 40  1  0  0  0  0
 14 41  1  0  0  0  0
 14 42  1  0  0  0  0
 15 23  1  0  0  0  0
 15 27  1  0  0  0  0
 15 43  1  0  0  0  0
 15 44  1  0  0  0  0
 19 45  1  0  0  0  0
 20 21  2  0  0  0  0
 20 22  2  0  0  0  0
 20 23  1  0  0  0  0
 23 24  1  0  0  0  0
 24 25  1  0  0  0  0
 24 26  1  0  0  0  0
 24 31  1  1  0  0  0
 25 46  1  0  0  0  0
 25 47  1  0  0  0  0
 25 48  1  0  0  0  0
 26 28  1  0  0  0  0
 26 49  1  0  0  0  0
 26 50  1  0  0  0  0
 27 28  1  0  0  0  0
 27 51  1  0  0  0  0
 27 52  1  0  0  0  0
 28 29  1  0  0  0  0
 29 53  1  0  0  0  0
 29 54  1  0  0  0  0
 30 55  1  0  0  0  0
 30 56  1  0  0  0  0
M  END
>  <DRUGBANK_ID>
DB07624

>  <COMMON_NAME>
1-{[(3R)-3-methyl-4-({4-[(1S)-2,2,2-trifluoro-1-hydroxy-1-methylethyl]phenyl}sulfonyl)piperazin-1-yl]methyl}cyclopropanecarboxamide

$$$$
