
 OpenBabel10282417183D

  1  0  0  0  0  0  0  0  0  0999 V2000
    1.0177    0.0385   -0.0906 Cr  0  0  0  0  0  0  0  0  0  0  0  0
M  ISO  1   1  51
M  END
>  <DRUGBANK_ID>
DB11140

>  <COMMON_NAME>
Chromium Cr-51

>  <CAS_NUMBER>
14392-02-0

>  <UNII>
9QAU17N705

>  <SYNONYMS>
Chromium (51 Cr); Chromium Cr 51; Chromium-51

$$$$
