
 OpenBabel10282417213D

 68 72  0  0  0  0  0  0  0  0999 V2000
    2.2546   -0.2290    0.0021 C   0  0  0  0  0  0  0  0  0  0  0  0
    2.0040    1.1283   -0.0393 C   0  0  0  0  0  0  0  0  0  0  0  0
    0.6670    1.6162   -0.0353 C   0  0  0  0  0  0  0  0  0  0  0  0
    1.1778   -1.0886    0.0210 C   0  0  0  0  0  0  0  0  0  0  0  0
   -0.1527   -0.6021   -0.0294 C   0  0  0  0  0  0  0  0  0  0  0  0
   -0.4346    0.7552    0.0349 C   0  0  0  0  0  0  0  0  0  0  0  0
   -1.8342    0.9442    0.4056 N   0  0  0  0  0  0  0  0  0  0  0  0
   -2.5512   -0.5050    0.3407 C   0  0  2  0  0  0  0  0  0  0  0  0
   -1.4063   -1.4867   -0.1207 C   0  0  2  0  0  0  0  0  0  0  0  0
   -1.2120   -2.4402    0.9680 O   0  0  0  0  0  0  0  0  0  0  0  0
   -1.4197   -2.2376   -1.5457 C   0  0  0  0  0  0  0  0  0  0  0  0
   -0.3166   -3.1323   -1.6993 C   0  0  0  0  0  0  0  0  0  0  0  0
    0.0970   -3.6345   -2.9383 C   0  0  0  0  0  0  0  0  0  0  0  0
   -0.7332   -3.5576   -4.0209 C   0  0  0  0  0  0  0  0  0  0  0  0
   -1.9226   -2.9280   -3.8742 C   0  0  0  0  0  0  0  0  0  0  0  0
   -2.1816   -2.1121   -2.7664 C   0  0  0  0  0  0  0  0  0  0  0  0
   -3.5943   -0.6000   -0.7292 C   0  0  0  0  0  0  0  0  0  0  0  0
   -4.7143   -1.4662   -0.6471 N   0  0  0  0  0  0  0  0  0  0  0  0
   -3.3960    0.2736   -1.5754 O   0  0  0  0  0  0  0  0  0  0  0  0
   -5.8279   -0.8611    0.0132 C   0  0  0  0  0  0  0  0  0  0  0  0
   -6.5416   -2.0321    0.6505 C   0  0  0  0  0  0  0  0  0  0  0  0
   -6.5422   -3.0997   -0.4232 C   0  0  0  0  0  0  0  0  0  0  0  0
   -5.2795   -2.8083   -1.3097 C   0  0  1  0  0  0  0  0  0  0  0  0
   -5.8987   -3.0079   -2.7859 C   0  0  0  0  0  0  0  0  0  0  0  0
   -4.9998   -3.2215   -3.7731 N   0  0  0  0  0  0  0  0  0  0  0  0
   -7.0830   -3.0098   -3.1085 O   0  0  0  0  0  0  0  0  0  0  0  0
   -3.3450   -1.0041   -3.5338 Cl  0  0  0  0  0  0  0  0  0  0  0  0
    3.8513   -0.8678    0.0182 Cl  0  0  0  0  0  0  0  0  0  0  0  0
   -2.7973    2.3620    0.0831 S   0  0  0  0  0  0  0  0  0  0  0  0
   -2.4793    3.4566    1.4791 C   0  0  0  0  0  0  0  0  0  0  0  0
   -2.2697    3.0933   -1.0766 O   0  0  0  0  0  0  0  0  0  0  0  0
   -4.1906    2.0422    0.2098 O   0  0  0  0  0  0  0  0  0  0  0  0
   -1.1969    3.9391    1.6519 C   0  0  0  0  0  0  0  0  0  0  0  0
   -0.8503    4.7246    2.7386 C   0  0  0  0  0  0  0  0  0  0  0  0
   -1.7864    4.9932    3.7287 C   0  0  0  0  0  0  0  0  0  0  0  0
   -3.1254    4.5859    3.5298 C   0  0  0  0  0  0  0  0  0  0  0  0
   -3.4843    3.8810    2.3597 C   0  0  0  0  0  0  0  0  0  0  0  0
   -3.9977    4.9081    4.5422 O   0  0  0  0  0  0  0  0  0  0  0  0
   -5.3438    4.4759    4.4067 C   0  0  0  0  0  0  0  0  0  0  0  0
   -1.4708    5.6461    4.8961 O   0  0  0  0  0  0  0  0  0  0  0  0
   -0.0992    5.9926    5.0882 C   0  0  0  0  0  0  0  0  0  0  0  0
    2.8481    1.8159   -0.0450 H   0  0  0  0  0  0  0  0  0  0  0  0
    0.5865    2.6858   -0.1198 H   0  0  0  0  0  0  0  0  0  0  0  0
    1.3983   -2.1453    0.1068 H   0  0  0  0  0  0  0  0  0  0  0  0
   -2.9870   -0.7038    1.3329 H   0  0  0  0  0  0  0  0  0  0  0  0
   -0.5165   -2.0881    1.5633 H   0  0  0  0  0  0  0  0  0  0  0  0
    0.3422   -3.3874   -0.8753 H   0  0  0  0  0  0  0  0  0  0  0  0
    1.0736   -4.0835   -3.0688 H   0  0  0  0  0  0  0  0  0  0  0  0
   -0.4876   -3.9159   -5.0074 H   0  0  0  0  0  0  0  0  0  0  0  0
   -2.5800   -2.9179   -4.7441 H   0  0  0  0  0  0  0  0  0  0  0  0
   -6.4368   -0.3952   -0.7692 H   0  0  0  0  0  0  0  0  0  0  0  0
   -5.5097   -0.1107    0.7349 H   0  0  0  0  0  0  0  0  0  0  0  0
   -5.9845   -2.4050    1.5154 H   0  0  0  0  0  0  0  0  0  0  0  0
   -7.5527   -1.7685    0.9663 H   0  0  0  0  0  0  0  0  0  0  0  0
   -6.5528   -4.1178   -0.0158 H   0  0  0  0  0  0  0  0  0  0  0  0
   -7.4918   -3.0095   -0.9676 H   0  0  0  0  0  0  0  0  0  0  0  0
   -4.5391   -3.6065   -1.1500 H   0  0  0  0  0  0  0  0  0  0  0  0
   -5.3282   -2.9798   -4.7030 H   0  0  0  0  0  0  0  0  0  0  0  0
   -4.1833   -2.6908   -3.5525 H   0  0  0  0  0  0  0  0  0  0  0  0
   -0.4444    3.7373    0.9212 H   0  0  0  0  0  0  0  0  0  0  0  0
    0.1665    5.0958    2.7758 H   0  0  0  0  0  0  0  0  0  0  0  0
   -4.5247    3.6723    2.1277 H   0  0  0  0  0  0  0  0  0  0  0  0
   -5.8286    5.0013    3.5788 H   0  0  0  0  0  0  0  0  0  0  0  0
   -5.4080    3.3896    4.2818 H   0  0  0  0  0  0  0  0  0  0  0  0
   -5.8792    4.7334    5.3262 H   0  0  0  0  0  0  0  0  0  0  0  0
    0.5520    5.1101    5.0542 H   0  0  0  0  0  0  0  0  0  0  0  0
    0.2189    6.7389    4.3515 H   0  0  0  0  0  0  0  0  0  0  0  0
    0.0101    6.4407    6.0799 H   0  0  0  0  0  0  0  0  0  0  0  0
  1 28  1  0  0  0  0
  1  2  2  0  0  0  0
  2  3  1  0  0  0  0
  2 42  1  0  0  0  0
  3  6  2  0  0  0  0
  3 43  1  0  0  0  0
  4  1  1  0  0  0  0
  4 44  1  0  0  0  0
  5  6  1  0  0  0  0
  5  4  2  0  0  0  0
  6  7  1  0  0  0  0
  7 29  1  0  0  0  0
  7  8  1  0  0  0  0
  8 17  1  0  0  0  0
  8  9  1  0  0  0  0
  8 45  1  1  0  0  0
  9  5  1  0  0  0  0
  9 11  1  0  0  0  0
  9 10  1  1  0  0  0
 10 46  1  0  0  0  0
 11 12  2  0  0  0  0
 12 13  1  0  0  0  0
 12 47  1  0  0  0  0
 13 14  2  0  0  0  0
 13 48  1  0  0  0  0
 14 15  1  0  0  0  0
 14 49  1  0  0  0  0
 15 16  2  0  0  0  0
 15 50  1  0  0  0  0
 16 27  1  0  0  0  0
 16 11  1  0  0  0  0
 17 18  1  0  0  0  0
 17 19  2  0  0  0  0
 18 20  1  0  0  0  0
 20 21  1  0  0  0  0
 20 51  1  0  0  0  0
 20 52  1  0  0  0  0
 21 22  1  0  0  0  0
 21 53  1  0  0  0  0
 21 54  1  0  0  0  0
 22 23  1  0  0  0  0
 22 55  1  0  0  0  0
 22 56  1  0  0  0  0
 23 18  1  0  0  0  0
 23 57  1  1  0  0  0
 23 24  1  0  0  0  0
 24 25  1  0  0  0  0
 24 26  2  0  0  0  0
 25 58  1  0  0  0  0
 25 59  1  0  0  0  0
 29 30  1  0  0  0  0
 29 31  2  0  0  0  0
 29 32  2  0  0  0  0
 30 33  2  0  0  0  0
 33 34  1  0  0  0  0
 33 60  1  0  0  0  0
 34 35  2  0  0  0  0
 34 61  1  0  0  0  0
 35 36  1  0  0  0  0
 35 40  1  0  0  0  0
 36 37  2  0  0  0  0
 36 38  1  0  0  0  0
 37 30  1  0  0  0  0
 37 62  1  0  0  0  0
 38 39  1  0  0  0  0
 39 63  1  0  0  0  0
 39 64  1  0  0  0  0
 39 65  1  0  0  0  0
 40 41  1  0  0  0  0
 41 66  1  0  0  0  0
 41 67  1  0  0  0  0
 41 68  1  0  0  0  0
M  END
>  <DRUGBANK_ID>
DB13929

>  <COMMON_NAME>
Relcovaptan

>  <CAS_NUMBER>
150375-75-0

>  <UNII>
C1GL8G6G0O

>  <SYNONYMS>
Relcovaptan

$$$$
