
 OpenBabel10282417183D

 44 47  0  0  1  0  0  0  0  0999 V2000
    2.0576    0.7393   -0.0065 C   0  0  0  0  0  0  0  0  0  0  0  0
    0.8713    1.4937   -0.0195 C   0  0  0  0  0  0  0  0  0  0  0  0
   -0.2554    0.6771   -0.0014 C   0  0  0  0  0  0  0  0  0  0  0  0
   -1.5462    1.1240   -0.0243 C   0  0  0  0  0  0  0  0  0  0  0  0
   -2.3212   -0.0068    0.1004 N   0  0  0  0  0  0  0  0  0  0  0  0
   -1.5904   -1.1428    0.1620 N   0  0  0  0  0  0  0  0  0  0  0  0
   -0.2989   -0.7699    0.0488 C   0  0  0  0  0  0  0  0  0  0  0  0
    0.9174   -1.5047    0.0170 C   0  0  0  0  0  0  0  0  0  0  0  0
    2.0845   -0.6871   -0.0033 C   0  0  0  0  0  0  0  0  0  0  0  0
    0.9621   -2.9815    0.0122 C   0  0  0  0  0  0  0  0  0  0  0  0
   -0.0463   -3.6880    0.0059 O   0  0  0  0  0  0  0  0  0  0  0  0
    2.1861   -3.5947    0.0049 N   0  0  0  0  0  0  0  0  0  0  0  0
   -3.7320   -0.0466    0.1066 C   0  0  0  0  0  0  0  0  0  0  0  0
   -4.4403   -0.7711    1.0776 C   0  0  0  0  0  0  0  0  0  0  0  0
   -5.8362   -0.9072    0.9901 C   0  0  0  0  0  0  0  0  0  0  0  0
   -6.5362   -0.2458   -0.0173 C   0  0  0  0  0  0  0  0  0  0  0  0
   -5.8006    0.6215   -0.8485 C   0  0  0  0  0  0  0  0  0  0  0  0
   -4.4175    0.6563   -0.8659 C   0  0  0  0  0  0  0  0  0  0  0  0
   -8.0213   -0.5318   -0.2739 C   0  0  2  0  0  0  0  0  0  0  0  0
   -8.2120   -1.2067   -1.6545 C   0  0  0  0  0  0  0  0  0  0  0  0
   -7.9584   -0.2292   -2.8036 C   0  0  0  0  0  0  0  0  0  0  0  0
   -8.7033    1.1020   -2.5849 C   0  0  0  0  0  0  0  0  0  0  0  0
   -8.5579    1.6859   -1.2488 N   0  0  0  0  0  0  0  0  0  0  0  0
   -8.8994    0.7313   -0.1945 C   0  0  0  0  0  0  0  0  0  0  0  0
    3.0133    1.2671   -0.0007 H   0  0  0  0  0  0  0  0  0  0  0  0
    0.8680    2.5750   -0.0219 H   0  0  0  0  0  0  0  0  0  0  0  0
   -1.9886    2.1100   -0.0446 H   0  0  0  0  0  0  0  0  0  0  0  0
    3.0712   -1.1433   -0.0073 H   0  0  0  0  0  0  0  0  0  0  0  0
    3.0825   -3.1351    0.0023 H   0  0  0  0  0  0  0  0  0  0  0  0
    2.1792   -4.6065    0.0023 H   0  0  0  0  0  0  0  0  0  0  0  0
   -3.9183   -1.2091    1.9228 H   0  0  0  0  0  0  0  0  0  0  0  0
   -6.3649   -1.5343    1.7045 H   0  0  0  0  0  0  0  0  0  0  0  0
   -6.2835    1.2660   -1.5712 H   0  0  0  0  0  0  0  0  0  0  0  0
   -3.9251    1.1770   -1.6828 H   0  0  0  0  0  0  0  0  0  0  0  0
   -8.3901   -1.2370    0.4862 H   0  0  0  0  0  0  0  0  0  0  0  0
   -7.5571   -2.0822   -1.7481 H   0  0  0  0  0  0  0  0  0  0  0  0
   -9.2424   -1.5750   -1.7481 H   0  0  0  0  0  0  0  0  0  0  0  0
   -6.8811   -0.0749   -2.9247 H   0  0  0  0  0  0  0  0  0  0  0  0
   -8.2480   -0.6733   -3.7604 H   0  0  0  0  0  0  0  0  0  0  0  0
   -8.3291    1.8316   -3.3104 H   0  0  0  0  0  0  0  0  0  0  0  0
   -9.7664    0.9451   -2.7815 H   0  0  0  0  0  0  0  0  0  0  0  0
   -9.0816    2.5510   -1.1462 H   0  0  0  0  0  0  0  0  0  0  0  0
   -9.9614    0.4653   -0.2860 H   0  0  0  0  0  0  0  0  0  0  0  0
   -8.7780    1.2004    0.7895 H   0  0  0  0  0  0  0  0  0  0  0  0
  1  2  2  0  0  0  0
  1  9  1  0  0  0  0
  1 25  1  0  0  0  0
  2  3  1  0  0  0  0
  2 26  1  0  0  0  0
  3  4  2  0  0  0  0
  3  7  1  0  0  0  0
  4  5  1  0  0  0  0
  4 27  1  0  0  0  0
  5  6  1  0  0  0  0
  5 13  1  0  0  0  0
  6  7  2  0  0  0  0
  7  8  1  0  0  0  0
  8  9  2  0  0  0  0
  8 10  1  0  0  0  0
  9 28  1  0  0  0  0
 10 11  2  0  0  0  0
 10 12  1  0  0  0  0
 12 29  1  0  0  0  0
 12 30  1  0  0  0  0
 13 14  2  0  0  0  0
 13 18  1  0  0  0  0
 14 15  1  0  0  0  0
 14 31  1  0  0  0  0
 15 16  2  0  0  0  0
 15 32  1  0  0  0  0
 16 17  1  0  0  0  0
 17 18  2  0  0  0  0
 17 33  1  0  0  0  0
 18 34  1  0  0  0  0
 19 16  1  0  0  0  0
 19 20  1  0  0  0  0
 19 24  1  0  0  0  0
 19 35  1  1  0  0  0
 20 21  1  0  0  0  0
 20 36  1  0  0  0  0
 20 37  1  0  0  0  0
 21 22  1  0  0  0  0
 21 38  1  0  0  0  0
 21 39  1  0  0  0  0
 22 23  1  0  0  0  0
 22 40  1  0  0  0  0
 22 41  1  0  0  0  0
 23 24  1  0  0  0  0
 23 42  1  0  0  0  0
 24 43  1  0  0  0  0
 24 44  1  0  0  0  0
M  END
>  <DRUGBANK_ID>
DB11793

>  <COMMON_NAME>
Niraparib

>  <CAS_NUMBER>
1038915-60-4

>  <UNII>
HMC2H89N35

>  <SYNONYMS>
Niraparib

$$$$
