984
 OpenBabel10282417113D

 64 68  0  0  1  0  0  0  0  0999 V2000
    1.5699   -0.2431    1.1194 O   0  0  0  0  0  0  0  0  0  0  0  0
   -5.6123   -7.7254   -2.0499 O   0  0  0  0  0  0  0  0  0  0  0  0
    0.0577    1.4562    0.8826 O   0  0  0  0  0  0  0  0  0  0  0  0
   -0.1605   -3.4827    0.9922 C   0  0  2  0  0  0  0  0  0  0  0  0
    1.2401   -3.0174    0.5151 C   0  0  2  0  0  0  0  0  0  0  0  0
   -1.1022   -3.8946   -0.0568 C   0  0  1  0  0  0  0  0  0  0  0  0
   -0.7911   -5.3472   -0.3229 C   0  0  2  0  0  0  0  0  0  0  0  0
    1.7919   -4.4910    0.2242 C   0  0  0  0  0  0  0  0  0  0  0  0
    1.6224   -1.7372    1.4880 C   0  0  2  0  0  0  0  0  0  0  0  0
   -0.8117   -2.3514    1.6151 C   0  0  0  0  0  0  0  0  0  0  0  0
    0.7540   -5.1793   -0.9304 C   0  0  0  0  0  0  0  0  0  0  0  0
   -2.2759   -6.0567   -0.7514 C   0  0  2  0  0  0  0  0  0  0  0  0
    0.3563   -1.7436    2.1895 C   0  0  0  0  0  0  0  0  0  0  0  0
   -2.5378   -3.7999    0.3469 C   0  0  0  0  0  0  0  0  0  0  0  0
    1.3968   -2.1995   -0.7196 C   0  0  0  0  0  0  0  0  0  0  0  0
   -3.3143   -3.9264   -1.0050 C   0  0  0  0  0  0  0  0  0  0  0  0
   -3.0221   -5.2750   -1.7752 C   0  0  0  0  0  0  0  0  0  0  0  0
   -3.8518   -6.1497    0.2527 C   0  0  0  0  0  0  0  0  0  0  0  0
   -5.2857   -5.9493   -0.5484 C   0  0  0  0  0  0  0  0  0  0  0  0
   -3.7676   -6.2057   -2.4673 C   0  0  0  0  0  0  0  0  0  0  0  0
   -5.0349   -6.7234   -1.7780 C   0  0  0  0  0  0  0  0  0  0  0  0
    0.7113    0.7424    1.6484 C   0  0  0  0  0  0  0  0  0  0  0  0
    0.6347    0.9822    3.2380 C   0  0  0  0  0  0  0  0  0  0  0  0
   -0.2067    0.1005    4.3252 C   0  0  0  0  0  0  0  0  0  0  0  0
    0.3433   -1.3403    4.8205 C   0  0  0  0  0  0  0  0  0  0  0  0
   -0.5052   -2.4930    4.6540 C   0  0  0  0  0  0  0  0  0  0  0  0
    1.7431   -1.5991    4.8550 C   0  0  0  0  0  0  0  0  0  0  0  0
    0.0496   -3.7892    4.2772 C   0  0  0  0  0  0  0  0  0  0  0  0
    2.2879   -2.8674    4.4353 C   0  0  0  0  0  0  0  0  0  0  0  0
    1.4492   -3.9491    4.0930 C   0  0  0  0  0  0  0  0  0  0  0  0
   -0.0641   -4.3186    1.7128 H   0  0  0  0  0  0  0  0  0  0  0  0
   -0.9698   -3.2108   -0.8982 H   0  0  0  0  0  0  0  0  0  0  0  0
   -0.5524   -5.9657    0.5493 H   0  0  0  0  0  0  0  0  0  0  0  0
   -1.9481   -6.9944   -1.2097 H   0  0  0  0  0  0  0  0  0  0  0  0
    2.8457   -4.4862   -0.0862 H   0  0  0  0  0  0  0  0  0  0  0  0
    1.7634   -5.2051    1.0730 H   0  0  0  0  0  0  0  0  0  0  0  0
    2.5900   -1.8621    1.9897 H   0  0  0  0  0  0  0  0  0  0  0  0
   -1.5445   -2.7079    2.3454 H   0  0  0  0  0  0  0  0  0  0  0  0
   -1.3006   -1.6539    0.9402 H   0  0  0  0  0  0  0  0  0  0  0  0
    0.7844   -4.4803   -1.7740 H   0  0  0  0  0  0  0  0  0  0  0  0
    1.2007   -6.1008   -1.3079 H   0  0  0  0  0  0  0  0  0  0  0  0
    0.7203   -2.3459    2.9223 H   0  0  0  0  0  0  0  0  0  0  0  0
   -0.0934   -0.8674    2.5196 H   0  0  0  0  0  0  0  0  0  0  0  0
   -2.9288   -2.9251    0.8681 H   0  0  0  0  0  0  0  0  0  0  0  0
   -2.5676   -4.5441    1.1645 H   0  0  0  0  0  0  0  0  0  0  0  0
    1.0142   -2.6129   -1.6280 H   0  0  0  0  0  0  0  0  0  0  0  0
    0.8137   -1.2903   -0.5896 H   0  0  0  0  0  0  0  0  0  0  0  0
    2.4710   -1.9770   -0.7828 H   0  0  0  0  0  0  0  0  0  0  0  0
   -3.0144   -3.0948   -1.6413 H   0  0  0  0  0  0  0  0  0  0  0  0
   -4.3395   -3.7123   -0.7219 H   0  0  0  0  0  0  0  0  0  0  0  0
   -4.0330   -5.3458    0.9789 H   0  0  0  0  0  0  0  0  0  0  0  0
   -3.8919   -7.0460    0.8696 H   0  0  0  0  0  0  0  0  0  0  0  0
   -5.5647   -4.9561   -0.9495 H   0  0  0  0  0  0  0  0  0  0  0  0
   -6.1993   -6.2180   -0.0097 H   0  0  0  0  0  0  0  0  0  0  0  0
   -3.2837   -7.1682   -2.7230 H   0  0  0  0  0  0  0  0  0  0  0  0
    1.6570    1.1238    3.5738 H   0  0  0  0  0  0  0  0  0  0  0  0
    0.1576    1.9841    3.2926 H   0  0  0  0  0  0  0  0  0  0  0  0
   -0.3792    0.7064    5.2193 H   0  0  0  0  0  0  0  0  0  0  0  0
   -1.2210   -0.0248    3.8880 H   0  0  0  0  0  0  0  0  0  0  0  0
   -1.5344   -2.2890    4.3197 H   0  0  0  0  0  0  0  0  0  0  0  0
    2.4325   -0.7639    4.9288 H   0  0  0  0  0  0  0  0  0  0  0  0
   -0.6018   -4.4777    3.7130 H   0  0  0  0  0  0  0  0  0  0  0  0
    3.3304   -2.9019    4.0925 H   0  0  0  0  0  0  0  0  0  0  0  0
    1.8381   -4.7205    3.4048 H   0  0  0  0  0  0  0  0  0  0  0  0
  1 22  1  0  0  0  0
  2 21  2  0  0  0  0
  3 22  2  0  0  0  0
  4  5  1  0  0  0  0
  4  6  1  0  0  0  0
  4 10  1  0  0  0  0
  4 31  1  1  0  0  0
  5  8  1  0  0  0  0
  5  9  1  0  0  0  0
  5 15  1  6  0  0  0
  6  7  1  0  0  0  0
  6 14  1  0  0  0  0
  6 32  1  6  0  0  0
  7 11  1  0  0  0  0
  7 12  1  0  0  0  0
  7 33  1  1  0  0  0
  8 11  1  0  0  0  0
  8 35  1  0  0  0  0
  8 36  1  0  0  0  0
  9  1  1  0  0  0  0
  9 13  1  0  0  0  0
  9 37  1  1  0  0  0
 10 13  1  0  0  0  0
 10 38  1  0  0  0  0
 10 39  1  0  0  0  0
 11 40  1  0  0  0  0
 11 41  1  0  0  0  0
 12 17  1  0  0  0  0
 12 18  1  0  0  0  0
 12 34  1  6  0  0  0
 13 42  1  0  0  0  0
 13 43  1  0  0  0  0
 14 16  1  0  0  0  0
 14 44  1  0  0  0  0
 14 45  1  0  0  0  0
 15 46  1  0  0  0  0
 15 47  1  0  0  0  0
 15 48  1  0  0  0  0
 16 17  1  0  0  0  0
 16 49  1  0  0  0  0
 16 50  1  0  0  0  0
 17 20  2  0  0  0  0
 18 19  1  0  0  0  0
 18 51  1  0  0  0  0
 18 52  1  0  0  0  0
 19 21  1  0  0  0  0
 19 53  1  0  0  0  0
 19 54  1  0  0  0  0
 20 21  1  0  0  0  0
 20 55  1  0  0  0  0
 22 23  1  0  0  0  0
 23 24  1  0  0  0  0
 23 56  1  0  0  0  0
 23 57  1  0  0  0  0
 24 25  1  0  0  0  0
 24 58  1  0  0  0  0
 24 59  1  0  0  0  0
 25 26  2  0  0  0  0
 25 27  1  0  0  0  0
 26 28  1  0  0  0  0
 26 60  1  0  0  0  0
 27 29  2  0  0  0  0
 27 61  1  0  0  0  0
 28 30  2  0  0  0  0
 28 62  1  0  0  0  0
 29 30  1  0  0  0  0
 29 63  1  0  0  0  0
 30 64  1  0  0  0  0
M  END
>  <DRUGBANK_ID>
DB00984

>  <SECONDARY_ACCESSION_NUMBERS>
APRD00134

>  <COMMON_NAME>
Nandrolone phenpropionate

>  <CAS_NUMBER>
62-90-8

>  <UNII>
KF7Z9K2T3W

>  <SYNONYMS>
19NTPP; Nadrolone phenylpropionate; Nandrolon phenylpropionate; Nandrolone phenpropionate; Nandrolone phenylpionate; Nandrolone phenylpropionate; Norandrolone phenyl propionate; Norandrostenolone phenylpropionate; Nortestosterone phenylpropionate; NPP; NTPP

$$$$
