
 OpenBabel10282417213D

 39 41  0  0  0  0  0  0  0  0999 V2000
    0.9173    0.0439    0.1467 C   0  0  0  0  0  0  0  0  0  0  0  0
    0.4543    1.4419   -0.2754 C   0  0  0  0  0  0  0  0  0  0  0  0
   -0.8702    8.7931   -0.6405 C   0  0  0  0  0  0  0  0  0  0  0  0
    0.9248    8.1843    0.8283 C   0  0  0  0  0  0  0  0  0  0  0  0
   -1.2717    7.3028   -0.7962 C   0  0  0  0  0  0  0  0  0  0  0  0
    0.5520    6.6739    0.7328 C   0  0  0  0  0  0  0  0  0  0  0  0
    1.0754    4.9371   -3.5224 C   0  0  0  0  0  0  0  0  0  0  0  0
    1.3904    0.9322   -2.5789 C   0  0  0  0  0  0  0  0  0  0  0  0
    1.2071    3.6047   -3.2134 C   0  0  0  0  0  0  0  0  0  0  0  0
    1.7728    1.2074   -3.8350 C   0  0  0  0  0  0  0  0  0  0  0  0
    1.6962    2.6368   -4.2159 C   0  0  0  0  0  0  0  0  0  0  0  0
    0.8504    3.2290   -1.9289 C   0  0  0  0  0  0  0  0  0  0  0  0
    2.2352    0.1544   -4.7664 C   0  0  0  0  0  0  0  0  0  0  0  0
    0.3005    5.4657   -1.4140 C   0  0  0  0  0  0  0  0  0  0  0  0
   -0.2248    9.1021    0.6563 N   0  0  0  0  0  0  0  0  0  0  0  0
    0.5992    5.8683   -2.6602 N   0  0  0  0  0  0  0  0  0  0  0  0
    0.4291    4.1674   -1.0242 N   0  0  0  0  0  0  0  0  0  0  0  0
    0.9630    1.8336   -1.6048 N   0  0  0  0  0  0  0  0  0  0  0  0
   -0.1497    6.4058   -0.5172 N   0  0  0  0  0  0  0  0  0  0  0  0
    2.0171    3.0361   -5.3294 O   0  0  0  0  0  0  0  0  0  0  0  0
    2.5995    0.3054   -5.9234 O   0  0  0  0  0  0  0  0  0  0  0  0
    2.2402   -1.0870   -4.2377 O   0  0  0  0  0  0  0  0  0  0  0  0
    0.5229   -0.7308   -0.5213 H   0  0  0  0  0  0  0  0  0  0  0  0
    0.5669   -0.2069    1.1511 H   0  0  0  0  0  0  0  0  0  0  0  0
    2.0116   -0.0210    0.1367 H   0  0  0  0  0  0  0  0  0  0  0  0
   -0.6428    1.4602   -0.2798 H   0  0  0  0  0  0  0  0  0  0  0  0
    0.8014    2.1440    0.4916 H   0  0  0  0  0  0  0  0  0  0  0  0
   -1.7623    9.4255   -0.7333 H   0  0  0  0  0  0  0  0  0  0  0  0
   -0.1907    9.0861   -1.4487 H   0  0  0  0  0  0  0  0  0  0  0  0
    1.6749    8.4334    0.0676 H   0  0  0  0  0  0  0  0  0  0  0  0
    1.3824    8.3905    1.8027 H   0  0  0  0  0  0  0  0  0  0  0  0
   -2.0400    7.0956   -0.0370 H   0  0  0  0  0  0  0  0  0  0  0  0
   -1.7383    7.1293   -1.7704 H   0  0  0  0  0  0  0  0  0  0  0  0
   -0.1269    6.4370    1.5616 H   0  0  0  0  0  0  0  0  0  0  0  0
    1.4540    6.0666    0.8537 H   0  0  0  0  0  0  0  0  0  0  0  0
    1.3567    5.3053   -4.5073 H   0  0  0  0  0  0  0  0  0  0  0  0
    1.4236   -0.1012   -2.2499 H   0  0  0  0  0  0  0  0  0  0  0  0
   -0.8962    8.9290    1.4050 H   0  0  0  0  0  0  0  0  0  0  0  0
    2.5691   -1.6487   -4.9747 H   0  0  0  0  0  0  0  0  0  0  0  0
  1 23  1  0  0  0  0
  1 24  1  0  0  0  0
  1 25  1  0  0  0  0
  2  1  1  0  0  0  0
  2 26  1  0  0  0  0
  2 27  1  0  0  0  0
  3 28  1  0  0  0  0
  3 29  1  0  0  0  0
  4 30  1  0  0  0  0
  4 31  1  0  0  0  0
  5  3  1  0  0  0  0
  5 32  1  0  0  0  0
  5 33  1  0  0  0  0
  6  4  1  0  0  0  0
  6 34  1  0  0  0  0
  6 35  1  0  0  0  0
  7 36  1  0  0  0  0
  8 37  1  0  0  0  0
  9  7  2  0  0  0  0
 10  8  2  0  0  0  0
 11  9  1  0  0  0  0
 11 10  1  0  0  0  0
 12  9  1  0  0  0  0
 13 10  1  0  0  0  0
 15  3  1  0  0  0  0
 15  4  1  0  0  0  0
 15 38  1  0  0  0  0
 16  7  1  0  0  0  0
 16 14  2  0  0  0  0
 17 12  2  0  0  0  0
 17 14  1  0  0  0  0
 18  2  1  0  0  0  0
 18  8  1  0  0  0  0
 18 12  1  0  0  0  0
 19  5  1  0  0  0  0
 19  6  1  0  0  0  0
 19 14  1  0  0  0  0
 20 11  2  0  0  0  0
 21 13  2  0  0  0  0
 22 13  1  0  0  0  0
 22 39  1  0  0  0  0
M  END
>  <DRUGBANK_ID>
DB13823

>  <COMMON_NAME>
Pipemidic acid

>  <CAS_NUMBER>
51940-44-4

>  <UNII>
LT12J5HVR8

>  <SYNONYMS>
acido pipemidico; Pipemidic acid

$$$$
