
 OpenBabel10282417223D

 19 19  0  0  0  0  0  0  0  0999 V2000
   -1.0626   -1.1051    0.0108 C   0  0  0  0  0  0  0  0  0  0  0  0
    0.3147   -0.9776    0.0505 C   0  0  0  0  0  0  0  0  0  0  0  0
    0.9403    0.2480    0.0135 C   0  0  0  0  0  0  0  0  0  0  0  0
    0.1905    1.3989   -0.0006 C   0  0  0  0  0  0  0  0  0  0  0  0
   -1.2071    1.3007   -0.0093 C   0  0  0  0  0  0  0  0  0  0  0  0
   -1.8458    0.0478   -0.0179 C   0  0  0  0  0  0  0  0  0  0  0  0
    2.3026    0.2931    0.0109 O   0  0  0  0  0  0  0  0  0  0  0  0
   -1.7218   -2.3771    0.0131 O   0  0  0  0  0  0  0  0  0  0  0  0
   -1.3795   -3.7465    0.0034 C   0  0  0  0  0  0  0  0  0  0  0  0
    0.0720   -4.1347    0.0062 C   0  0  0  0  0  0  0  0  0  0  0  0
   -2.2413   -4.6093    0.0037 O   0  0  0  0  0  0  0  0  0  0  0  0
    1.0015   -1.7760    0.1507 H   0  0  0  0  0  0  0  0  0  0  0  0
    0.6981    2.3561    0.0088 H   0  0  0  0  0  0  0  0  0  0  0  0
   -1.7953    2.2141   -0.0079 H   0  0  0  0  0  0  0  0  0  0  0  0
   -2.9328   -0.0041   -0.0322 H   0  0  0  0  0  0  0  0  0  0  0  0
    2.6496   -0.6178   -0.0266 H   0  0  0  0  0  0  0  0  0  0  0  0
    0.3223   -4.6326    0.9441 H   0  0  0  0  0  0  0  0  0  0  0  0
    0.2918   -4.7420   -0.8717 H   0  0  0  0  0  0  0  0  0  0  0  0
    0.7881   -3.3583   -0.0937 H   0  0  0  0  0  0  0  0  0  0  0  0
  1  2  2  0  0  0  0
  1  6  1  0  0  0  0
  1  8  1  0  0  0  0
  2  3  1  0  0  0  0
  2 12  1  0  0  0  0
  3  4  2  0  0  0  0
  3  7  1  0  0  0  0
  4  5  1  0  0  0  0
  4 13  1  0  0  0  0
  5  6  2  0  0  0  0
  5 14  1  0  0  0  0
  6 15  1  0  0  0  0
  7 16  1  0  0  0  0
  8  9  1  0  0  0  0
  9 10  1  0  0  0  0
  9 11  2  0  0  0  0
 10 17  1  0  0  0  0
 10 18  1  0  0  0  0
 10 19  1  0  0  0  0
M  END
>  <DRUGBANK_ID>
DB15480

>  <COMMON_NAME>
Resorcinol monoacetate

>  <CAS_NUMBER>
102-29-4

>  <UNII>
YL6O37RD1S

>  <SYNONYMS>
Resorcinol acetate; Resorcinol monoacetate

$$$$
