
 OpenBabel10282417213D

 44 44  0  0  0  0  0  0  0  0999 V2000
    0.9376    0.0604    0.1230 C   0  0  0  0  0  0  0  0  0  0  0  0
    0.4640    0.2367    1.4654 O   0  0  0  0  0  0  0  0  0  0  0  0
    0.9171   -0.6939    2.3411 C   0  0  0  0  0  0  0  0  0  0  0  0
    1.6702   -1.6303    2.0752 O   0  0  0  0  0  0  0  0  0  0  0  0
    0.3704   -0.4799    3.7002 C   0  0  0  0  0  0  0  0  0  0  0  0
   -0.9721   -0.1541    3.8443 C   0  0  0  0  0  0  0  0  0  0  0  0
   -1.5425   -0.1012    5.1096 C   0  0  0  0  0  0  0  0  0  0  0  0
   -0.7961   -0.3286    6.2606 C   0  0  0  0  0  0  0  0  0  0  0  0
   -1.3726   -0.1216    7.5530 O   0  0  0  0  0  0  0  0  0  0  0  0
   -2.7108    0.2828    7.7656 C   0  0  0  0  0  0  0  0  0  0  0  0
   -3.5388    0.5397    6.8996 O   0  0  0  0  0  0  0  0  0  0  0  0
   -3.1213    0.4043    9.2094 C   0  0  0  0  0  0  0  0  0  0  0  0
   -3.0716   -0.9149    9.9338 C   0  0  0  0  0  0  0  0  0  0  0  0
   -1.6399   -1.3561   10.0776 C   0  0  0  0  0  0  0  0  0  0  0  0
   -0.7732   -0.2949   10.8043 C   0  0  0  0  0  0  0  0  0  0  0  0
   -1.1362   -0.2286   12.2774 C   0  0  0  0  0  0  0  0  0  0  0  0
   -0.9656   -1.5878   12.9589 C   0  0  0  0  0  0  0  0  0  0  0  0
    0.4833   -2.0701   13.0778 C   0  0  0  0  0  0  0  0  0  0  0  0
    0.9837   -2.1606   14.2035 O   0  0  0  0  0  0  0  0  0  0  0  0
    1.2713   -2.3956   12.0221 N   0  0  0  0  0  0  0  0  0  0  0  0
    0.9264   -2.6425   10.6963 O   0  0  0  0  0  0  0  0  0  0  0  0
    0.5475   -0.7142    6.1329 C   0  0  0  0  0  0  0  0  0  0  0  0
    1.1362   -0.7550    4.8474 C   0  0  0  0  0  0  0  0  0  0  0  0
    0.5627    0.8841   -0.4931 H   0  0  0  0  0  0  0  0  0  0  0  0
    0.5606   -0.8781   -0.2974 H   0  0  0  0  0  0  0  0  0  0  0  0
    2.0320    0.0827    0.0906 H   0  0  0  0  0  0  0  0  0  0  0  0
   -1.6110    0.0395    2.9892 H   0  0  0  0  0  0  0  0  0  0  0  0
   -2.5988    0.1116    5.1384 H   0  0  0  0  0  0  0  0  0  0  0  0
   -2.5718    1.2096    9.6990 H   0  0  0  0  0  0  0  0  0  0  0  0
   -4.1630    0.7379    9.2257 H   0  0  0  0  0  0  0  0  0  0  0  0
   -3.5256   -0.8311   10.9297 H   0  0  0  0  0  0  0  0  0  0  0  0
   -3.6420   -1.6914    9.4100 H   0  0  0  0  0  0  0  0  0  0  0  0
   -1.7259   -2.3219   10.5807 H   0  0  0  0  0  0  0  0  0  0  0  0
   -1.1816   -1.6226    9.1231 H   0  0  0  0  0  0  0  0  0  0  0  0
    0.2987   -0.4728   10.7090 H   0  0  0  0  0  0  0  0  0  0  0  0
   -0.8453    0.6948   10.3460 H   0  0  0  0  0  0  0  0  0  0  0  0
   -0.5246    0.5299   12.7781 H   0  0  0  0  0  0  0  0  0  0  0  0
   -2.1745    0.1183   12.3793 H   0  0  0  0  0  0  0  0  0  0  0  0
   -1.3549   -1.4738   13.9802 H   0  0  0  0  0  0  0  0  0  0  0  0
   -1.6006   -2.3671   12.5292 H   0  0  0  0  0  0  0  0  0  0  0  0
    2.2283   -2.6577   12.2268 H   0  0  0  0  0  0  0  0  0  0  0  0
   -0.0285   -2.5682   10.7068 H   0  0  0  0  0  0  0  0  0  0  0  0
    1.1486   -1.0016    6.9950 H   0  0  0  0  0  0  0  0  0  0  0  0
    2.1926   -0.9996    4.7345 H   0  0  0  0  0  0  0  0  0  0  0  0
  1  2  1  0  0  0  0
  1 24  1  0  0  0  0
  1 25  1  0  0  0  0
  1 26  1  0  0  0  0
  2  3  1  0  0  0  0
  3  4  2  0  0  0  0
  3  5  1  0  0  0  0
  5  6  2  0  0  0  0
  5 23  1  0  0  0  0
  6  7  1  0  0  0  0
  6 27  1  0  0  0  0
  7  8  2  0  0  0  0
  7 28  1  0  0  0  0
  8  9  1  0  0  0  0
  8 22  1  0  0  0  0
  9 10  1  0  0  0  0
 10 11  2  0  0  0  0
 10 12  1  0  0  0  0
 12 13  1  0  0  0  0
 12 29  1  0  0  0  0
 12 30  1  0  0  0  0
 13 14  1  0  0  0  0
 13 31  1  0  0  0  0
 13 32  1  0  0  0  0
 14 15  1  0  0  0  0
 14 33  1  0  0  0  0
 14 34  1  0  0  0  0
 15 16  1  0  0  0  0
 15 35  1  0  0  0  0
 15 36  1  0  0  0  0
 16 17  1  0  0  0  0
 16 37  1  0  0  0  0
 16 38  1  0  0  0  0
 17 18  1  0  0  0  0
 17 39  1  0  0  0  0
 17 40  1  0  0  0  0
 18 19  2  0  0  0  0
 18 20  1  0  0  0  0
 20 21  1  0  0  0  0
 20 41  1  0  0  0  0
 21 42  1  0  0  0  0
 22 23  2  0  0  0  0
 22 43  1  0  0  0  0
 23 44  1  0  0  0  0
M  END
>  <DRUGBANK_ID>
DB14869

>  <COMMON_NAME>
Remetinostat

>  <CAS_NUMBER>
946150-57-8

>  <UNII>
37NT056AT4

>  <SYNONYMS>
Remetinostat

$$$$
