
 OpenBabel10282417153D

 65 63  0  0  0  0  0  0  0  0999 V2000
    0.4661    0.3998    0.2453 C   0  0  0  0  0  0  0  0  0  0  0  0
   -0.3195   -0.7132   -0.4539 C   0  0  0  0  0  0  0  0  0  0  0  0
    0.3652   -0.1113    1.6398 C   0  0  0  0  0  0  0  0  0  0  0  0
    0.2987   -2.3520    0.0309 C   0  0  0  0  0  0  0  0  0  0  0  0
    1.0051    0.8650    2.5523 C   0  0  0  0  0  0  0  0  0  0  0  0
   -0.3182   -3.4630   -0.0207 C   0  0  0  0  0  0  0  0  0  0  0  0
    0.4875    2.2456    2.1538 C   0  0  0  0  0  0  0  0  0  0  0  0
   -1.7106   -3.2157   -0.3603 C   0  0  0  0  0  0  0  0  0  0  0  0
   -1.0578    2.2531    2.1364 C   0  0  0  0  0  0  0  0  0  0  0  0
   -2.0925   -4.0519   -1.5298 C   0  0  0  0  0  0  0  0  0  0  0  0
   -1.6063    1.8500    3.5017 C   0  0  0  0  0  0  0  0  0  0  0  0
   -1.8322   -5.4968   -1.1423 C   0  0  0  0  0  0  0  0  0  0  0  0
   -1.0690    2.7878    4.5629 C   0  0  0  0  0  0  0  0  0  0  0  0
   -2.4402   -5.7402    0.2536 C   0  0  0  0  0  0  0  0  0  0  0  0
   -2.0047    3.5061    5.2053 O   0  0  0  0  0  0  0  0  0  0  0  0
    0.1145    2.9228    4.8341 O   0  0  0  0  0  0  0  0  0  0  0  0
   -3.9382   -5.4248    0.2045 C   0  0  0  0  0  0  0  0  0  0  0  0
   -4.6021   -6.3305   -0.8301 C   0  0  0  0  0  0  0  0  0  0  0  0
   -4.3631   -7.7973   -0.4774 C   0  0  0  0  0  0  0  0  0  0  0  0
   -4.9498   -8.0991    0.8907 C   0  0  0  0  0  0  0  0  0  0  0  0
    2.9419   -1.3766   -0.7472 O   0  0  0  0  0  0  0  0  0  0  0  0
    1.8166   -1.4317   -1.6623 C   0  0  0  0  0  0  0  0  0  0  0  0
    1.6643   -0.6665   -2.9107 C   0  0  0  0  0  0  0  0  0  0  0  0
    3.0508   -0.4739   -2.9490 N   0  0  0  0  0  0  0  0  0  0  0  0
    0.1084    1.3625   -0.1561 H   0  0  0  0  0  0  0  0  0  0  0  0
    1.5513    0.6051    0.1033 H   0  0  0  0  0  0  0  0  0  0  0  0
   -1.3946   -0.5669   -0.5910 H   0  0  0  0  0  0  0  0  0  0  0  0
   -0.1443   -0.3900   -1.4875 H   0  0  0  0  0  0  0  0  0  0  0  0
   -0.6974   -0.3093    1.8118 H   0  0  0  0  0  0  0  0  0  0  0  0
    0.8749   -1.0693    1.7761 H   0  0  0  0  0  0  0  0  0  0  0  0
    1.3714   -2.7093   -0.0475 H   0  0  0  0  0  0  0  0  0  0  0  0
    0.7504    0.5468    3.5648 H   0  0  0  0  0  0  0  0  0  0  0  0
    2.0950    0.8004    2.4634 H   0  0  0  0  0  0  0  0  0  0  0  0
    0.2184   -4.4511    0.0320 H   0  0  0  0  0  0  0  0  0  0  0  0
    0.9206    2.9944    2.8044 H   0  0  0  0  0  0  0  0  0  0  0  0
    0.8679    2.5628    1.1755 H   0  0  0  0  0  0  0  0  0  0  0  0
   -2.2256   -3.2580    0.5952 H   0  0  0  0  0  0  0  0  0  0  0  0
   -1.8960   -2.2206   -0.7011 H   0  0  0  0  0  0  0  0  0  0  0  0
   -1.4149    3.2330    1.8191 H   0  0  0  0  0  0  0  0  0  0  0  0
   -1.4725    1.5660    1.3796 H   0  0  0  0  0  0  0  0  0  0  0  0
   -3.1400   -3.8109   -1.7267 H   0  0  0  0  0  0  0  0  0  0  0  0
   -1.5486   -3.7733   -2.4432 H   0  0  0  0  0  0  0  0  0  0  0  0
   -2.6978    1.8301    3.4709 H   0  0  0  0  0  0  0  0  0  0  0  0
   -1.3163    0.8259    3.7721 H   0  0  0  0  0  0  0  0  0  0  0  0
   -2.2198   -6.1494   -1.9196 H   0  0  0  0  0  0  0  0  0  0  0  0
   -0.7622   -5.7292   -1.1267 H   0  0  0  0  0  0  0  0  0  0  0  0
   -2.2094   -6.7514    0.5814 H   0  0  0  0  0  0  0  0  0  0  0  0
   -1.9830   -5.1437    1.0532 H   0  0  0  0  0  0  0  0  0  0  0  0
   -2.9248    3.3057    4.9666 H   0  0  0  0  0  0  0  0  0  0  0  0
   -4.3719   -5.5348    1.1996 H   0  0  0  0  0  0  0  0  0  0  0  0
   -4.1422   -4.3752   -0.0395 H   0  0  0  0  0  0  0  0  0  0  0  0
   -5.6690   -6.1073   -0.8850 H   0  0  0  0  0  0  0  0  0  0  0  0
   -4.2174   -6.1284   -1.8375 H   0  0  0  0  0  0  0  0  0  0  0  0
   -4.8074   -8.4368   -1.2417 H   0  0  0  0  0  0  0  0  0  0  0  0
   -3.2941   -8.0444   -0.4809 H   0  0  0  0  0  0  0  0  0  0  0  0
   -6.0215   -7.8824    0.8837 H   0  0  0  0  0  0  0  0  0  0  0  0
   -4.7846   -9.1409    1.1603 H   0  0  0  0  0  0  0  0  0  0  0  0
   -4.4913   -7.4961    1.6819 H   0  0  0  0  0  0  0  0  0  0  0  0
    3.0158   -0.4418   -0.4196 H   0  0  0  0  0  0  0  0  0  0  0  0
    1.4457   -0.8631   -0.8912 H   0  0  0  0  0  0  0  0  0  0  0  0
    0.9306   -2.0968   -1.8186 H   0  0  0  0  0  0  0  0  0  0  0  0
    1.1308   -1.3654   -3.5776 H   0  0  0  0  0  0  0  0  0  0  0  0
    1.0746    0.2634   -2.9090 H   0  0  0  0  0  0  0  0  0  0  0  0
    3.4026   -0.2074   -3.8250 H   0  0  0  0  0  0  0  0  0  0  0  0
    3.2724    0.1275   -2.1579 H   0  0  0  0  0  0  0  0  0  0  0  0
  1  2  1  0  0  0  0
  1  3  1  0  0  0  0
  1 25  1  0  0  0  0
  1 26  1  0  0  0  0
  2  4  1  0  0  0  0
  2 27  1  0  0  0  0
  2 28  1  0  0  0  0
  3  5  1  0  0  0  0
  3 29  1  0  0  0  0
  3 30  1  0  0  0  0
  4  6  2  0  0  0  0
  4 31  1  0  0  0  0
  5  7  1  0  0  0  0
  5 32  1  0  0  0  0
  5 33  1  0  0  0  0
  6  8  1  0  0  0  0
  6 34  1  0  0  0  0
  7  9  1  0  0  0  0
  7 35  1  0  0  0  0
  7 36  1  0  0  0  0
  8 10  1  0  0  0  0
  8 37  1  0  0  0  0
  8 38  1  0  0  0  0
  9 11  1  0  0  0  0
  9 39  1  0  0  0  0
  9 40  1  0  0  0  0
 10 12  1  0  0  0  0
 10 41  1  0  0  0  0
 10 42  1  0  0  0  0
 11 13  1  0  0  0  0
 11 43  1  0  0  0  0
 11 44  1  0  0  0  0
 12 14  1  0  0  0  0
 12 45  1  0  0  0  0
 12 46  1  0  0  0  0
 13 15  1  0  0  0  0
 13 16  2  0  0  0  0
 14 17  1  0  0  0  0
 14 47  1  0  0  0  0
 14 48  1  0  0  0  0
 15 49  1  0  0  0  0
 17 18  1  0  0  0  0
 17 50  1  0  0  0  0
 17 51  1  0  0  0  0
 18 19  1  0  0  0  0
 18 52  1  0  0  0  0
 18 53  1  0  0  0  0
 19 20  1  0  0  0  0
 19 54  1  0  0  0  0
 19 55  1  0  0  0  0
 20 56  1  0  0  0  0
 20 57  1  0  0  0  0
 20 58  1  0  0  0  0
 21 22  1  0  0  0  0
 21 59  1  0  0  0  0
 22 23  1  0  0  0  0
 22 60  1  0  0  0  0
 22 61  1  0  0  0  0
 23 24  1  0  0  0  0
 23 62  1  0  0  0  0
 23 63  1  0  0  0  0
 24 64  1  0  0  0  0
 24 65  1  0  0  0  0
M  END
>  <DRUGBANK_ID>
DB06689

>  <COMMON_NAME>
Ethanolamine oleate

>  <CAS_NUMBER>
2272-11-9

>  <UNII>
U4RY8MRX7C

>  <SYNONYMS>
Ethamolin; Ethanolamine oleate; Monoethanolamine oleate; Monoethanolamini oleas; Oldamin; Oleate de monoethanolamine; Oleato de monoetanolaminio

$$$$
