
 OpenBabel10282417203D

 54 56  0  0  0  0  0  0  0  0999 V2000
   -2.5861   -0.0417   -0.0442 C   0  0  0  0  0  0  0  0  0  0  0  0
   -1.1116   -0.0415   -0.1369 C   0  0  0  0  0  0  0  0  0  0  0  0
   -0.5142    1.1787   -0.1437 N   0  0  0  0  0  0  0  0  0  0  0  0
    0.7542    1.2001    0.1903 C   0  0  0  0  0  0  0  0  0  0  0  0
    1.3330    0.0099    0.6560 C   0  0  0  0  0  0  0  0  0  0  0  0
    0.7836   -1.2130    0.2750 C   0  0  0  0  0  0  0  0  0  0  0  0
   -0.4836   -1.2442   -0.0693 N   0  0  0  0  0  0  0  0  0  0  0  0
    1.4842   -2.3991    0.1295 O   0  0  0  0  0  0  0  0  0  0  0  0
    2.9328   -2.4991    0.1022 C   0  0  0  0  0  0  0  0  0  0  0  0
    3.6172   -1.9548   -1.1505 C   0  0  0  0  0  0  0  0  0  0  0  0
    3.3314   -0.4921   -1.2433 C   0  0  0  0  0  0  0  0  0  0  0  0
    4.0859    0.2898   -0.0815 C   0  0  0  0  0  0  0  0  0  0  0  0
    5.6051    0.4083   -0.0615 C   0  0  0  0  0  0  0  0  0  0  0  0
    6.1630    1.1521   -1.1978 N   0  0  0  0  0  0  0  0  0  0  0  0
    5.5898    0.5960   -2.4211 C   0  0  0  0  0  0  0  0  0  0  0  0
    5.8560    1.2404   -3.7441 C   0  0  0  0  0  0  0  0  0  0  0  0
    5.3951    2.6896   -3.6296 C   0  0  0  0  0  0  0  0  0  0  0  0
    6.0138    3.3309   -2.3765 C   0  0  0  0  0  0  0  0  0  0  0  0
    5.7106    2.5515   -1.1000 C   0  0  0  0  0  0  0  0  0  0  0  0
    1.4721    2.5201    0.0396 C   0  0  0  0  0  0  0  0  0  0  0  0
    1.4789    3.4597    1.0817 C   0  0  0  0  0  0  0  0  0  0  0  0
    2.2173    4.6621    1.0182 C   0  0  0  0  0  0  0  0  0  0  0  0
    2.9545    4.9712   -0.1097 C   0  0  0  0  0  0  0  0  0  0  0  0
    2.8990    4.1298   -1.2029 C   0  0  0  0  0  0  0  0  0  0  0  0
    2.1872    2.9049   -1.1263 C   0  0  0  0  0  0  0  0  0  0  0  0
    3.7448    6.0552   -0.1324 F   0  0  0  0  0  0  0  0  0  0  0  0
   -2.9899   -0.5569   -0.9139 H   0  0  0  0  0  0  0  0  0  0  0  0
   -2.8829   -0.5507    0.8793 H   0  0  0  0  0  0  0  0  0  0  0  0
   -2.9588    0.9863   -0.0049 H   0  0  0  0  0  0  0  0  0  0  0  0
    2.2493    0.0023    1.1532 H   0  0  0  0  0  0  0  0  0  0  0  0
    3.3598   -2.0744    1.0141 H   0  0  0  0  0  0  0  0  0  0  0  0
    3.2111   -3.5593    0.1331 H   0  0  0  0  0  0  0  0  0  0  0  0
    4.7061   -2.1000   -1.1279 H   0  0  0  0  0  0  0  0  0  0  0  0
    3.2636   -2.4418   -2.0662 H   0  0  0  0  0  0  0  0  0  0  0  0
    3.4174   -0.2089   -2.2885 H   0  0  0  0  0  0  0  0  0  0  0  0
    2.2624   -0.3374   -1.2785 H   0  0  0  0  0  0  0  0  0  0  0  0
    3.6557    1.2768    0.0658 H   0  0  0  0  0  0  0  0  0  0  0  0
    3.9495   -0.1815    0.8939 H   0  0  0  0  0  0  0  0  0  0  0  0
    5.8827    0.9040    0.8847 H   0  0  0  0  0  0  0  0  0  0  0  0
    6.0187   -0.6019    0.0229 H   0  0  0  0  0  0  0  0  0  0  0  0
    4.5635    0.9107   -2.3565 H   0  0  0  0  0  0  0  0  0  0  0  0
    5.6833   -0.4935   -2.4748 H   0  0  0  0  0  0  0  0  0  0  0  0
    5.2425    0.7210   -4.4954 H   0  0  0  0  0  0  0  0  0  0  0  0
    6.9066    1.1409   -3.9983 H   0  0  0  0  0  0  0  0  0  0  0  0
    5.6653    3.2348   -4.5327 H   0  0  0  0  0  0  0  0  0  0  0  0
    4.2925    2.7186   -3.5725 H   0  0  0  0  0  0  0  0  0  0  0  0
    7.0963    3.3715   -2.4918 H   0  0  0  0  0  0  0  0  0  0  0  0
    5.6466    4.3546   -2.2723 H   0  0  0  0  0  0  0  0  0  0  0  0
    6.0891    3.0476   -0.1998 H   0  0  0  0  0  0  0  0  0  0  0  0
    4.6375    2.5571   -0.9814 H   0  0  0  0  0  0  0  0  0  0  0  0
    0.9058    3.2509    1.9782 H   0  0  0  0  0  0  0  0  0  0  0  0
    2.2197    5.3590    1.8495 H   0  0  0  0  0  0  0  0  0  0  0  0
    3.4975    4.3853   -2.0733 H   0  0  0  0  0  0  0  0  0  0  0  0
    2.3082    2.2181   -1.9653 H   0  0  0  0  0  0  0  0  0  0  0  0
  1  2  1  0  0  0  0
  1 27  1  0  0  0  0
  1 28  1  0  0  0  0
  1 29  1  0  0  0  0
  2  3  2  0  0  0  0
  2  7  1  0  0  0  0
  3  4  1  0  0  0  0
  4  5  2  0  0  0  0
  4 20  1  0  0  0  0
  5  6  1  0  0  0  0
  5 30  1  0  0  0  0
  6  7  2  0  0  0  0
  6  8  1  0  0  0  0
  8  9  1  0  0  0  0
  9 10  1  0  0  0  0
  9 31  1  0  0  0  0
  9 32  1  0  0  0  0
 10 11  1  0  0  0  0
 10 33  1  0  0  0  0
 10 34  1  0  0  0  0
 11 12  1  0  0  0  0
 11 35  1  0  0  0  0
 11 36  1  0  0  0  0
 12 13  1  0  0  0  0
 12 37  1  0  0  0  0
 12 38  1  0  0  0  0
 13 14  1  0  0  0  0
 13 39  1  0  0  0  0
 13 40  1  0  0  0  0
 14 15  1  0  0  0  0
 14 19  1  0  0  0  0
 15 16  1  0  0  0  0
 15 41  1  0  0  0  0
 15 42  1  0  0  0  0
 16 17  1  0  0  0  0
 16 43  1  0  0  0  0
 16 44  1  0  0  0  0
 17 18  1  0  0  0  0
 17 45  1  0  0  0  0
 17 46  1  0  0  0  0
 18 19  1  0  0  0  0
 18 47  1  0  0  0  0
 18 48  1  0  0  0  0
 19 49  1  0  0  0  0
 19 50  1  0  0  0  0
 20 21  2  0  0  0  0
 20 25  1  0  0  0  0
 21 22  1  0  0  0  0
 21 51  1  0  0  0  0
 22 23  2  0  0  0  0
 22 52  1  0  0  0  0
 23 24  1  0  0  0  0
 23 26  1  0  0  0  0
 24 25  2  0  0  0  0
 24 53  1  0  0  0  0
 25 54  1  0  0  0  0
M  END
>  <DRUGBANK_ID>
DB13032

>  <COMMON_NAME>
Enecadin

>  <CAS_NUMBER>
259525-01-4

>  <UNII>
VR034VW8OG

>  <SYNONYMS>
Enecadin

$$$$
