1133
 OpenBabel10282417113D

 26 26  0  0  0  0  0  0  0  0999 V2000
   -2.1348   -0.1315    0.0876 Cl  0  0  0  0  0  0  0  0  0  0  0  0
    4.2204   -0.0632   -0.2022 S   0  0  0  0  0  0  0  0  0  0  0  0
    4.2373    2.5794   -1.4365 P   0  0  0  0  0  0  0  0  0  0  0  0
    4.1637    2.5840    1.5510 P   0  0  0  0  0  0  0  0  0  0  0  0
    3.4670    3.6743   -0.4799 O   0  0  0  0  0  0  0  0  0  0  0  0
    5.6938    3.3650   -1.4415 O   0  0  0  0  0  0  0  0  0  0  0  0
    2.8643    1.6201    1.6608 O   0  0  0  0  0  0  0  0  0  0  0  0
    5.1990    1.6963    2.4894 O   0  0  0  0  0  0  0  0  0  0  0  0
    3.7499    3.3055   -2.7142 O   0  0  0  0  0  0  0  0  0  0  0  0
    3.6139    3.3140    2.8009 O   0  0  0  0  0  0  0  0  0  0  0  0
    4.8134    1.7213    0.0737 C   0  0  0  0  0  0  0  0  0  0  0  0
    2.4013   -0.0865   -0.2926 C   0  0  0  0  0  0  0  0  0  0  0  0
    1.6072    1.0619   -0.4744 C   0  0  0  0  0  0  0  0  0  0  0  0
    1.7193   -1.2830   -0.0800 C   0  0  0  0  0  0  0  0  0  0  0  0
    0.2271    1.0574   -0.2630 C   0  0  0  0  0  0  0  0  0  0  0  0
    0.3090   -1.3203   -0.0076 C   0  0  0  0  0  0  0  0  0  0  0  0
   -0.4232   -0.1261   -0.0603 C   0  0  0  0  0  0  0  0  0  0  0  0
    2.7375    4.1131   -0.9672 H   0  0  0  0  0  0  0  0  0  0  0  0
    6.5127    2.8318   -1.4229 H   0  0  0  0  0  0  0  0  0  0  0  0
    2.2214    2.1196    2.2106 H   0  0  0  0  0  0  0  0  0  0  0  0
    5.7960    1.0367    2.0998 H   0  0  0  0  0  0  0  0  0  0  0  0
    5.9050    1.6618    0.1145 H   0  0  0  0  0  0  0  0  0  0  0  0
    2.0184    2.0216   -0.6465 H   0  0  0  0  0  0  0  0  0  0  0  0
    2.2618   -2.2223    0.0528 H   0  0  0  0  0  0  0  0  0  0  0  0
   -0.3004    2.0154   -0.2503 H   0  0  0  0  0  0  0  0  0  0  0  0
   -0.2100   -2.2602    0.1052 H   0  0  0  0  0  0  0  0  0  0  0  0
  1 17  1  0  0  0  0
  2 11  1  0  0  0  0
  2 12  1  0  0  0  0
  3  5  1  0  0  0  0
  3  6  1  0  0  0  0
  3  9  2  0  0  0  0
  3 11  1  0  0  0  0
  4  7  1  0  0  0  0
  4  8  1  0  0  0  0
  4 10  2  0  0  0  0
  4 11  1  0  0  0  0
  5 18  1  0  0  0  0
  6 19  1  0  0  0  0
  7 20  1  0  0  0  0
  8 21  1  0  0  0  0
 11 22  1  0  0  0  0
 12 13  2  0  0  0  0
 12 14  1  0  0  0  0
 13 15  1  0  0  0  0
 13 23  1  0  0  0  0
 14 16  2  0  0  0  0
 14 24  1  0  0  0  0
 15 17  2  0  0  0  0
 15 25  1  0  0  0  0
 16 17  1  0  0  0  0
 16 26  1  0  0  0  0
M  END
>  <DRUGBANK_ID>
DB01133

>  <SECONDARY_ACCESSION_NUMBERS>
APRD01259

>  <COMMON_NAME>
Tiludronic acid

>  <CAS_NUMBER>
89987-06-4

>  <UNII>
6PNS59HP4Y

>  <SYNONYMS>
Acide tiludronique; Acido tiludronico; Acidum tiludronicum; Tiludronate; Tiludronic acid

$$$$
