
 OpenBabel10282417213D

  1  0  0  0  0  0  0  0  0  0999 V2000
    1.0081   -0.0690   -0.0719 Gd  0  1  0  0  0  0  0  0  0  0  0  0
M  CHG  1   1   3
M  END
>  <DRUGBANK_ID>
DB14578

>  <COMMON_NAME>
Gadolinium cation (3+)

>  <CAS_NUMBER>
22541-19-1

>  <UNII>
AZV954TZ9N

>  <SYNONYMS>
Gadolinium(3+); gadolinium(3+) ion; gadolinium(III) cation

$$$$
