
 OpenBabel10282417133D

 42 45  0  0  0  0  0  0  0  0999 V2000
    1.0614    0.0471    0.1574 C   0  0  0  0  0  0  0  0  0  0  0  0
    0.6587    0.1986    1.5245 O   0  0  0  0  0  0  0  0  0  0  0  0
    0.9672   -0.8550    2.3239 C   0  0  0  0  0  0  0  0  0  0  0  0
    1.6383   -1.8253    1.9903 O   0  0  0  0  0  0  0  0  0  0  0  0
    0.4390   -0.6672    3.7180 C   0  0  0  0  0  0  0  0  0  0  0  0
   -0.8592   -0.3513    3.9471 C   0  0  0  0  0  0  0  0  0  0  0  0
   -1.8971   -0.1682    2.8733 C   0  0  0  0  0  0  0  0  0  0  0  0
   -1.3962   -0.2019    5.3580 C   0  0  0  0  0  0  0  0  0  0  0  0
   -0.6987   -1.1610    6.2935 C   0  0  0  0  0  0  0  0  0  0  0  0
   -1.3079   -1.8662    7.0888 O   0  0  0  0  0  0  0  0  0  0  0  0
    0.7762   -1.1697    6.1728 C   0  0  0  0  0  0  0  0  0  0  0  0
    1.6021   -1.3766    7.2853 C   0  0  0  0  0  0  0  0  0  0  0  0
    1.0262   -1.5287    8.5204 O   0  0  0  0  0  0  0  0  0  0  0  0
    2.9962   -1.3688    7.1240 C   0  0  0  0  0  0  0  0  0  0  0  0
    3.5436   -1.1467    5.8638 C   0  0  0  0  0  0  0  0  0  0  0  0
    2.7113   -0.9175    4.7594 C   0  0  0  0  0  0  0  0  0  0  0  0
    1.3169   -0.9204    4.8945 C   0  0  0  0  0  0  0  0  0  0  0  0
    5.0052   -1.1351    5.6711 C   0  0  0  0  0  0  0  0  0  0  0  0
    5.4789   -0.9246    4.5605 O   0  0  0  0  0  0  0  0  0  0  0  0
    5.8877   -1.3721    6.8286 C   0  0  0  0  0  0  0  0  0  0  0  0
    7.2757   -1.3769    6.6350 C   0  0  0  0  0  0  0  0  0  0  0  0
    8.1274   -1.5959    7.7165 C   0  0  0  0  0  0  0  0  0  0  0  0
    7.5993   -1.8105    8.9897 C   0  0  0  0  0  0  0  0  0  0  0  0
    6.2176   -1.8037    9.1802 C   0  0  0  0  0  0  0  0  0  0  0  0
    5.7177   -2.0138   10.4327 O   0  0  0  0  0  0  0  0  0  0  0  0
    5.3506   -1.5848    8.1005 C   0  0  0  0  0  0  0  0  0  0  0  0
    3.8823   -1.5757    8.2828 C   0  0  0  0  0  0  0  0  0  0  0  0
    3.3501   -1.7333    9.3771 O   0  0  0  0  0  0  0  0  0  0  0  0
    0.6639    0.8918   -0.4145 H   0  0  0  0  0  0  0  0  0  0  0  0
    0.6532   -0.8729   -0.2764 H   0  0  0  0  0  0  0  0  0  0  0  0
    2.1522    0.0598    0.0810 H   0  0  0  0  0  0  0  0  0  0  0  0
   -2.7231   -0.8702    3.0213 H   0  0  0  0  0  0  0  0  0  0  0  0
   -2.2820    0.8552    2.8953 H   0  0  0  0  0  0  0  0  0  0  0  0
   -1.5279   -0.3624    1.8661 H   0  0  0  0  0  0  0  0  0  0  0  0
   -1.2465    0.8186    5.7295 H   0  0  0  0  0  0  0  0  0  0  0  0
   -2.4690   -0.4214    5.4010 H   0  0  0  0  0  0  0  0  0  0  0  0
    1.7254   -1.6953    9.1954 H   0  0  0  0  0  0  0  0  0  0  0  0
    3.1714   -0.7382    3.7875 H   0  0  0  0  0  0  0  0  0  0  0  0
    7.6965   -1.2116    5.6434 H   0  0  0  0  0  0  0  0  0  0  0  0
    9.2045   -1.5995    7.5651 H   0  0  0  0  0  0  0  0  0  0  0  0
    8.2760   -1.9821    9.8218 H   0  0  0  0  0  0  0  0  0  0  0  0
    6.4235   -2.1534   11.0817 H   0  0  0  0  0  0  0  0  0  0  0  0
  1  2  1  0  0  0  0
  1 29  1  0  0  0  0
  1 30  1  0  0  0  0
  1 31  1  0  0  0  0
  2  3  1  0  0  0  0
  3  4  2  0  0  0  0
  3  5  1  0  0  0  0
  5  6  2  0  0  0  0
  5 17  1  0  0  0  0
  6  7  1  0  0  0  0
  6  8  1  0  0  0  0
  7 32  1  0  0  0  0
  7 33  1  0  0  0  0
  7 34  1  0  0  0  0
  8  9  1  0  0  0  0
  8 35  1  0  0  0  0
  8 36  1  0  0  0  0
  9 10  2  0  0  0  0
  9 11  1  0  0  0  0
 11 12  2  0  0  0  0
 11 17  1  0  0  0  0
 12 13  1  0  0  0  0
 12 14  1  0  0  0  0
 13 37  1  0  0  0  0
 14 15  2  0  0  0  0
 14 27  1  0  0  0  0
 15 16  1  0  0  0  0
 15 18  1  0  0  0  0
 16 17  2  0  0  0  0
 16 38  1  0  0  0  0
 18 19  2  0  0  0  0
 18 20  1  0  0  0  0
 20 21  2  0  0  0  0
 20 26  1  0  0  0  0
 21 22  1  0  0  0  0
 21 39  1  0  0  0  0
 22 23  2  0  0  0  0
 22 40  1  0  0  0  0
 23 24  1  0  0  0  0
 23 41  1  0  0  0  0
 24 25  1  0  0  0  0
 24 26  2  0  0  0  0
 25 42  1  0  0  0  0
 26 27  1  0  0  0  0
 27 28  2  0  0  0  0
M  END
>  <DRUGBANK_ID>
DB04064

>  <SECONDARY_ACCESSION_NUMBERS>
EXPT02339

>  <COMMON_NAME>
Nogalaviketone

$$$$
