
 OpenBabel10282417143D

 28 29  0  0  1  0  0  0  0  0999 V2000
    1.1469    0.1476   -0.0684 O   0  0  0  0  0  0  0  0  0  0  0  0
    5.2356    1.5629    1.0159 O   0  0  0  0  0  0  0  0  0  0  0  0
    3.2145    1.1700   -0.0619 N   0  0  0  0  0  0  0  0  0  0  0  0
    3.2064   -1.1605    0.2489 C   0  0  3  0  0  0  0  0  0  0  0  0
    4.6330   -0.5986    0.1146 C   0  0  0  0  0  0  0  0  0  0  0  0
    2.3653    0.1022    0.0257 C   0  0  0  0  0  0  0  0  0  0  0  0
    2.9313   -1.9015    1.5579 C   0  0  0  0  0  0  0  0  0  0  0  0
    2.9447   -2.1333   -0.9196 C   0  0  0  0  0  0  0  0  0  0  0  0
    4.4331    0.8423    0.4395 C   0  0  0  0  0  0  0  0  0  0  0  0
    1.6543   -2.4345    1.8041 C   0  0  0  0  0  0  0  0  0  0  0  0
    3.9629   -2.2497    2.4474 C   0  0  0  0  0  0  0  0  0  0  0  0
    2.8608    2.4847   -0.5412 C   0  0  0  0  0  0  0  0  0  0  0  0
    1.4452   -3.3411    2.8445 C   0  0  0  0  0  0  0  0  0  0  0  0
    3.7711   -3.2076    3.4380 C   0  0  0  0  0  0  0  0  0  0  0  0
    2.5080   -3.7387    3.6504 C   0  0  0  0  0  0  0  0  0  0  0  0
    5.4119   -1.0560    0.7180 H   0  0  0  0  0  0  0  0  0  0  0  0
    4.9920   -0.6365   -0.9215 H   0  0  0  0  0  0  0  0  0  0  0  0
    3.0932   -1.6480   -1.8906 H   0  0  0  0  0  0  0  0  0  0  0  0
    3.6156   -2.9982   -0.8617 H   0  0  0  0  0  0  0  0  0  0  0  0
    1.9163   -2.5142   -0.9196 H   0  0  0  0  0  0  0  0  0  0  0  0
    0.8141   -2.1850    1.1561 H   0  0  0  0  0  0  0  0  0  0  0  0
    4.9606   -1.8298    2.3893 H   0  0  0  0  0  0  0  0  0  0  0  0
    3.0095    3.2456    0.2263 H   0  0  0  0  0  0  0  0  0  0  0  0
    3.5406    2.7092   -1.3740 H   0  0  0  0  0  0  0  0  0  0  0  0
    1.8382    2.4999   -0.9263 H   0  0  0  0  0  0  0  0  0  0  0  0
    0.4580   -3.7672    2.9983 H   0  0  0  0  0  0  0  0  0  0  0  0
    4.6225   -3.5475    4.0218 H   0  0  0  0  0  0  0  0  0  0  0  0
    2.3552   -4.4573    4.4487 H   0  0  0  0  0  0  0  0  0  0  0  0
  1  6  2  0  0  0  0
  2  9  2  0  0  0  0
  3  6  1  0  0  0  0
  3  9  1  0  0  0  0
  3 12  1  0  0  0  0
  4  5  1  0  0  0  0
  4  6  1  0  0  0  0
  4  7  1  0  0  0  0
  4  8  1  0  0  0  0
  5  9  1  0  0  0  0
  5 16  1  0  0  0  0
  5 17  1  0  0  0  0
  7 10  2  0  0  0  0
  7 11  1  0  0  0  0
  8 18  1  0  0  0  0
  8 19  1  0  0  0  0
  8 20  1  0  0  0  0
 10 13  1  0  0  0  0
 10 21  1  0  0  0  0
 11 14  2  0  0  0  0
 11 22  1  0  0  0  0
 12 23  1  0  0  0  0
 12 24  1  0  0  0  0
 12 25  1  0  0  0  0
 13 15  2  0  0  0  0
 13 26  1  0  0  0  0
 14 15  1  0  0  0  0
 14 27  1  0  0  0  0
 15 28  1  0  0  0  0
M  END
>  <DRUGBANK_ID>
DB05246

>  <COMMON_NAME>
Methsuximide

>  <CAS_NUMBER>
77-41-8

>  <UNII>
0G76K8X6C0

>  <SYNONYMS>
(RS)-1,3-Dimethyl-3-phenyl-2,5-pyrrolidindion; 1,3-Dimethyl-3-phenyl-2,5-dioxopyrrolidine; 1,3-Dimethyl-3-phenyl-pyrrolidin-2,5-dione; 1,3-Dimethyl-3-phenylsuccinimide; alpha-Methyl-alpha-phenyl N-methyl succinimide; alpha-Methylphensuximide; Mesuximida; Mesuximide; Mesuximidum; Methsuximid; Methsuximide; Metosuccimmide; N-methyl-alpha-methyl-alpha-phenylsuccinimide; N,2-Dimethyl-2-phenylsuccinimide

$$$$
