
 OpenBabel10282417233D

 30 32  0  0  0  0  0  0  0  0999 V2000
   -0.2492   -0.6456    0.0248 N   0  0  0  0  0  0  0  0  0  0  0  0
    0.9417   -1.4821   -0.1668 C   0  0  3  0  0  0  0  0  0  0  0  0
   -0.2271    0.7302    0.0648 C   0  0  0  0  0  0  0  0  0  0  0  0
   -1.5556   -1.0424    0.0128 C   0  0  0  0  0  0  0  0  0  0  0  0
    1.1371   -1.8684   -1.6383 C   0  0  0  0  0  0  0  0  0  0  0  0
    2.1750   -0.7138    0.3596 C   0  0  0  0  0  0  0  0  0  0  0  0
    1.0369    1.5134    0.0941 C   0  0  0  0  0  0  0  0  0  0  0  0
   -1.5528    1.0985    0.0769 C   0  0  0  0  0  0  0  0  0  0  0  0
   -2.3658   -0.0065    0.0337 N   0  0  0  0  0  0  0  0  0  0  0  0
    2.2079   -2.6983   -2.0153 C   0  0  0  0  0  0  0  0  0  0  0  0
    0.3136   -1.3545   -2.6574 C   0  0  0  0  0  0  0  0  0  0  0  0
    2.2485    0.6680   -0.3041 C   0  0  0  0  0  0  0  0  0  0  0  0
    2.4360   -2.9997   -3.3627 C   0  0  0  0  0  0  0  0  0  0  0  0
    0.5271   -1.6686   -3.9959 C   0  0  0  0  0  0  0  0  0  0  0  0
    1.5801   -2.5057   -4.3509 C   0  0  0  0  0  0  0  0  0  0  0  0
    1.7531   -2.8888   -5.7200 C   0  0  0  0  0  0  0  0  0  0  0  0
    1.8724   -3.2234   -6.8228 N   0  0  0  0  0  0  0  0  0  0  0  0
    0.7826   -2.3896    0.4309 H   0  0  0  0  0  0  0  0  0  0  0  0
   -1.8610   -2.0779   -0.0671 H   0  0  0  0  0  0  0  0  0  0  0  0
    3.1032   -1.2658    0.1788 H   0  0  0  0  0  0  0  0  0  0  0  0
    2.0946   -0.5833    1.4474 H   0  0  0  0  0  0  0  0  0  0  0  0
    1.1843    1.8864    1.1138 H   0  0  0  0  0  0  0  0  0  0  0  0
    0.9630    2.3819   -0.5693 H   0  0  0  0  0  0  0  0  0  0  0  0
   -1.9617    2.1004    0.1068 H   0  0  0  0  0  0  0  0  0  0  0  0
    2.8898   -3.1063   -1.2701 H   0  0  0  0  0  0  0  0  0  0  0  0
   -0.5128   -0.6806   -2.4397 H   0  0  0  0  0  0  0  0  0  0  0  0
    3.1733    1.1802   -0.0213 H   0  0  0  0  0  0  0  0  0  0  0  0
    2.2786    0.5584   -1.3959 H   0  0  0  0  0  0  0  0  0  0  0  0
    3.2822   -3.6274   -3.6364 H   0  0  0  0  0  0  0  0  0  0  0  0
   -0.1433   -1.2507   -4.7440 H   0  0  0  0  0  0  0  0  0  0  0  0
  1  2  1  0  0  0  0
  1  3  1  0  0  0  0
  1  4  1  0  0  0  0
  2  5  1  0  0  0  0
  2  6  1  0  0  0  0
  2 18  1  0  0  0  0
  3  7  1  0  0  0  0
  3  8  2  0  0  0  0
  4  9  2  0  0  0  0
  4 19  1  0  0  0  0
  5 10  2  0  0  0  0
  5 11  1  0  0  0  0
  6 12  1  0  0  0  0
  6 20  1  0  0  0  0
  6 21  1  0  0  0  0
  7 12  1  0  0  0  0
  7 22  1  0  0  0  0
  7 23  1  0  0  0  0
  8  9  1  0  0  0  0
  8 24  1  0  0  0  0
 10 13  1  0  0  0  0
 10 25  1  0  0  0  0
 11 14  2  0  0  0  0
 11 26  1  0  0  0  0
 12 27  1  0  0  0  0
 12 28  1  0  0  0  0
 13 15  2  0  0  0  0
 13 29  1  0  0  0  0
 14 15  1  0  0  0  0
 14 30  1  0  0  0  0
 15 16  1  0  0  0  0
 16 17  3  0  0  0  0
M  END
>  <DRUGBANK_ID>
DB16832

>  <COMMON_NAME>
Fadrozole

>  <CAS_NUMBER>
102676-47-1

>  <UNII>
H3988M64PU

>  <SYNONYMS>
Fadrozole

$$$$
