S10
 OpenBabel10282417173D

 33 32  0  0  0  0  0  0  0  0999 V2000
    0.9787    0.0108   -0.0805 O   0  0  0  0  0  0  0  0  0  0  0  0
    2.2016   -0.0413   -0.1236 C   0  0  0  0  0  0  0  0  0  0  0  0
    2.9543    1.0252    0.2613 O   0  0  0  0  0  0  0  0  0  0  0  0
    4.3947    1.0646    0.2820 C   0  0  0  0  0  0  0  0  0  0  0  0
    4.9698    0.1071    1.3126 C   0  0  0  0  0  0  0  0  0  0  0  0
    2.8860   -1.1471   -0.5518 N   0  0  0  0  0  0  0  0  0  0  0  0
    2.2319   -2.3861   -0.9169 C   0  0  0  0  0  0  0  0  0  0  0  0
    2.6415   -2.8154   -2.3229 C   0  0  0  0  0  0  0  0  0  0  0  0
    4.1361   -3.1168   -2.4542 C   0  0  0  0  0  0  0  0  0  0  0  0
    4.5331   -4.2387   -1.6290 N   0  0  0  0  0  0  0  0  0  0  0  0
    5.0678   -5.4173   -2.0495 C   0  0  0  0  0  0  0  0  0  0  0  0
    5.2820   -6.3227   -1.2511 O   0  0  0  0  0  0  0  0  0  0  0  0
    5.3336   -5.4497   -3.3764 O   0  0  0  0  0  0  0  0  0  0  0  0
    5.9175   -6.6579   -3.8916 C   0  0  0  0  0  0  0  0  0  0  0  0
    7.3180   -6.8945   -3.3509 C   0  0  0  0  0  0  0  0  0  0  0  0
    4.7837    0.8956   -0.7279 H   0  0  0  0  0  0  0  0  0  0  0  0
    4.6746    2.0876    0.5624 H   0  0  0  0  0  0  0  0  0  0  0  0
    4.6868   -0.9324    1.1382 H   0  0  0  0  0  0  0  0  0  0  0  0
    6.0610    0.1499    1.3123 H   0  0  0  0  0  0  0  0  0  0  0  0
    4.5880    0.3490    2.3080 H   0  0  0  0  0  0  0  0  0  0  0  0
    3.8886   -1.1284   -0.5809 H   0  0  0  0  0  0  0  0  0  0  0  0
    2.5115   -3.1426   -0.1747 H   0  0  0  0  0  0  0  0  0  0  0  0
    1.1455   -2.2695   -0.8615 H   0  0  0  0  0  0  0  0  0  0  0  0
    2.0630   -3.7014   -2.6082 H   0  0  0  0  0  0  0  0  0  0  0  0
    2.3821   -2.0135   -3.0249 H   0  0  0  0  0  0  0  0  0  0  0  0
    4.3739   -3.3107   -3.5032 H   0  0  0  0  0  0  0  0  0  0  0  0
    4.7422   -2.2598   -2.1434 H   0  0  0  0  0  0  0  0  0  0  0  0
    4.4019   -4.2043   -0.6265 H   0  0  0  0  0  0  0  0  0  0  0  0
    5.2541   -7.5085   -3.7002 H   0  0  0  0  0  0  0  0  0  0  0  0
    5.9783   -6.5361   -4.9796 H   0  0  0  0  0  0  0  0  0  0  0  0
    7.3157   -7.0285   -2.2662 H   0  0  0  0  0  0  0  0  0  0  0  0
    7.7603   -7.7907   -3.7939 H   0  0  0  0  0  0  0  0  0  0  0  0
    7.9604   -6.0340   -3.5611 H   0  0  0  0  0  0  0  0  0  0  0  0
  1  2  2  0  0  0  0
  2  3  1  0  0  0  0
  2  6  1  0  0  0  0
  3  4  1  0  0  0  0
  4  5  1  0  0  0  0
  4 16  1  0  0  0  0
  4 17  1  0  0  0  0
  5 18  1  0  0  0  0
  5 19  1  0  0  0  0
  5 20  1  0  0  0  0
  6  7  1  0  0  0  0
  6 21  1  0  0  0  0
  7  8  1  0  0  0  0
  7 22  1  0  0  0  0
  7 23  1  0  0  0  0
  8  9  1  0  0  0  0
  8 24  1  0  0  0  0
  8 25  1  0  0  0  0
  9 10  1  0  0  0  0
  9 26  1  0  0  0  0
  9 27  1  0  0  0  0
 10 11  1  0  0  0  0
 10 28  1  0  0  0  0
 11 12  2  0  0  0  0
 11 13  1  0  0  0  0
 13 14  1  0  0  0  0
 14 15  1  0  0  0  0
 14 29  1  0  0  0  0
 14 30  1  0  0  0  0
 15 31  1  0  0  0  0
 15 32  1  0  0  0  0
 15 33  1  0  0  0  0
M  END
>  <DRUGBANK_ID>
DB08501

>  <COMMON_NAME>
DIETHYL PROPANE-1,3-DIYLBISCARBAMATE

>  <UNII>
F54CSU6844

$$$$
