
 OpenBabel10282417113D

 58 59  0  0  0  0  0  0  0  0999 V2000
    0.9824   -0.1370   -0.0675 O   0  0  0  0  0  0  0  0  0  0  0  0
    5.1204   -0.8016    3.9921 O   0  0  0  0  0  0  0  0  0  0  0  0
   -0.5697    8.8930   -2.5088 O   0  0  0  0  0  0  0  0  0  0  0  0
    0.7401    7.1534   -2.0128 O   0  0  0  0  0  0  0  0  0  0  0  0
    0.1066    1.9348    2.5575 C   0  0  1  0  0  0  0  0  0  0  0  0
   -1.0757    1.6059    1.6463 C   0  0  2  0  0  0  0  0  0  0  0  0
    1.2159    0.9701    2.0891 C   0  0  2  0  0  0  0  0  0  0  0  0
   -0.9768    0.1258    1.3322 C   0  0  0  0  0  0  0  0  0  0  0  0
    0.5253   -0.1552    1.2863 C   0  0  1  0  0  0  0  0  0  0  0  0
    0.4422    3.4093    2.2645 C   0  0  0  0  0  0  0  0  0  0  0  0
   -0.8339    2.4166    0.3976 C   0  0  0  0  0  0  0  0  0  0  0  0
   -0.1784    3.6479    0.9140 C   0  0  0  0  0  0  0  0  0  0  0  0
    1.9935    0.3997    3.2377 C   0  0  0  0  0  0  0  0  0  0  0  0
   -0.1702    4.7790    0.2035 C   0  0  0  0  0  0  0  0  0  0  0  0
    3.3166    0.5657    3.3754 C   0  0  0  0  0  0  0  0  0  0  0  0
   -0.8583    4.8993   -1.1357 C   0  0  0  0  0  0  0  0  0  0  0  0
    4.0888    0.0139    4.5332 C   0  0  2  0  0  0  0  0  0  0  0  0
   -1.9317    5.9855   -1.1121 C   0  0  0  0  0  0  0  0  0  0  0  0
    4.6854    1.1356    5.3997 C   0  0  3  0  0  0  0  0  0  0  0  0
   -1.3567    7.3680   -0.8086 C   0  0  0  0  0  0  0  0  0  0  0  0
    3.5825    2.0569    5.9666 C   0  0  0  0  0  0  0  0  0  0  0  0
    5.5308    0.5522    6.5367 C   0  0  0  0  0  0  0  0  0  0  0  0
   -0.2973    7.7691   -1.8188 C   0  0  0  0  0  0  0  0  0  0  0  0
    2.6277    1.3277    6.8288 C   0  0  0  0  0  0  0  0  0  0  0  0
    1.8819    0.6783    7.5236 C   0  0  0  0  0  0  0  0  0  0  0  0
    0.9924   -0.1201    8.3711 C   0  0  0  0  0  0  0  0  0  0  0  0
   -0.1465    1.7902    3.6160 H   0  0  0  0  0  0  0  0  0  0  0  0
   -2.0410    1.8832    2.0888 H   0  0  0  0  0  0  0  0  0  0  0  0
    1.9550   -0.0909   -0.0505 H   0  0  0  0  0  0  0  0  0  0  0  0
    4.6749   -1.5312    3.5275 H   0  0  0  0  0  0  0  0  0  0  0  0
   -1.3928    9.3497   -2.2650 H   0  0  0  0  0  0  0  0  0  0  0  0
    1.9115    1.5128    1.4354 H   0  0  0  0  0  0  0  0  0  0  0  0
   -1.4795   -0.1134    0.3875 H   0  0  0  0  0  0  0  0  0  0  0  0
   -1.4485   -0.4458    2.1363 H   0  0  0  0  0  0  0  0  0  0  0  0
    0.7339   -1.1577    1.6681 H   0  0  0  0  0  0  0  0  0  0  0  0
    1.5246    3.5831    2.2548 H   0  0  0  0  0  0  0  0  0  0  0  0
   -0.0078    4.0711    3.0128 H   0  0  0  0  0  0  0  0  0  0  0  0
   -0.1411    1.9459   -0.3059 H   0  0  0  0  0  0  0  0  0  0  0  0
   -1.7843    2.5836   -0.1103 H   0  0  0  0  0  0  0  0  0  0  0  0
    1.4419   -0.1730    3.9826 H   0  0  0  0  0  0  0  0  0  0  0  0
    0.3615    5.6427    0.5945 H   0  0  0  0  0  0  0  0  0  0  0  0
    3.8725    1.1628    2.6540 H   0  0  0  0  0  0  0  0  0  0  0  0
   -0.1135    5.0698   -1.9141 H   0  0  0  0  0  0  0  0  0  0  0  0
   -1.3388    3.9724   -1.4600 H   0  0  0  0  0  0  0  0  0  0  0  0
    3.4571   -0.6334    5.1516 H   0  0  0  0  0  0  0  0  0  0  0  0
   -2.4482    5.9984   -2.0795 H   0  0  0  0  0  0  0  0  0  0  0  0
   -2.6916    5.7245   -0.3600 H   0  0  0  0  0  0  0  0  0  0  0  0
    5.3649    1.7374    4.7763 H   0  0  0  0  0  0  0  0  0  0  0  0
   -2.1688    8.1000   -0.7745 H   0  0  0  0  0  0  0  0  0  0  0  0
   -0.8991    7.3904    0.1866 H   0  0  0  0  0  0  0  0  0  0  0  0
    4.0508    2.8701    6.5326 H   0  0  0  0  0  0  0  0  0  0  0  0
    3.0404    2.5401    5.1444 H   0  0  0  0  0  0  0  0  0  0  0  0
    6.3321   -0.0877    6.1559 H   0  0  0  0  0  0  0  0  0  0  0  0
    5.9889    1.3551    7.1230 H   0  0  0  0  0  0  0  0  0  0  0  0
    4.9161   -0.0534    7.2098 H   0  0  0  0  0  0  0  0  0  0  0  0
    0.0501   -0.3372    7.8580 H   0  0  0  0  0  0  0  0  0  0  0  0
    1.4478   -1.0776    8.6473 H   0  0  0  0  0  0  0  0  0  0  0  0
    0.7551    0.4140    9.2963 H   0  0  0  0  0  0  0  0  0  0  0  0
  1 29  1  0  0  0  0
  2 30  1  0  0  0  0
  3 23  1  0  0  0  0
  3 31  1  0  0  0  0
  4 23  2  0  0  0  0
  5  6  1  0  0  0  0
  5  7  1  0  0  0  0
  5 10  1  0  0  0  0
  5 27  1  1  0  0  0
  6  8  1  0  0  0  0
  6 11  1  0  0  0  0
  6 28  1  1  0  0  0
  7  9  1  0  0  0  0
  7 13  1  0  0  0  0
  7 32  1  6  0  0  0
  8  9  1  0  0  0  0
  8 33  1  0  0  0  0
  8 34  1  0  0  0  0
  9  1  1  0  0  0  0
  9 35  1  1  0  0  0
 10 12  1  0  0  0  0
 10 36  1  0  0  0  0
 10 37  1  0  0  0  0
 11 12  1  0  0  0  0
 11 38  1  0  0  0  0
 11 39  1  0  0  0  0
 12 14  2  0  0  0  0
 13 15  2  0  0  0  0
 13 40  1  0  0  0  0
 14 16  1  0  0  0  0
 14 41  1  0  0  0  0
 15 17  1  0  0  0  0
 15 42  1  0  0  0  0
 16 18  1  0  0  0  0
 16 43  1  0  0  0  0
 16 44  1  0  0  0  0
 17  2  1  0  0  0  0
 17 19  1  0  0  0  0
 17 45  1  1  0  0  0
 18 20  1  0  0  0  0
 18 46  1  0  0  0  0
 18 47  1  0  0  0  0
 19 21  1  0  0  0  0
 19 22  1  0  0  0  0
 19 48  1  0  0  0  0
 20 23  1  0  0  0  0
 20 49  1  0  0  0  0
 20 50  1  0  0  0  0
 21 24  1  0  0  0  0
 21 51  1  0  0  0  0
 21 52  1  0  0  0  0
 22 53  1  0  0  0  0
 22 54  1  0  0  0  0
 22 55  1  0  0  0  0
 24 25  3  0  0  0  0
 25 26  1  0  0  0  0
 26 56  1  0  0  0  0
 26 57  1  0  0  0  0
 26 58  1  0  0  0  0
M  END
>  <DRUGBANK_ID>
DB01088

>  <SECONDARY_ACCESSION_NUMBERS>
APRD01027

>  <COMMON_NAME>
Iloprost

>  <CAS_NUMBER>
78919-13-8

>  <UNII>
JED5K35YGL

>  <SYNONYMS>
(5E)-[3aS,4R,5R,6aS)-5-Hydroxy-4-[(1E)-(3S,4RS)-3-hydroxy-4-methyloct-1-en-6-ynyl]-hexahydropentalen-2(1H)-ylidene]pentanoic acid; (E)-(3aS, 4R, 5R, 6aS)-hexahydro-5-hydroxy-4-[(E)-(3S,4RS)­ 3-hydroxy-4-methyl-1-octen-6-ynyl]-Δ2(1H),Δ-pentalenevaleric acid; Iloprost; PENTANOIC ACID, 5-((3AS,4R,5R,6AS)-HEXAHYDRO-5-HYDROXY-4-((1E,3S)-3-HYDROXY-4-METHYL-1-OCTEN-6-YNYL)-2(1H)-PENTALENYLIDENE)-, (5E)-

$$$$
