
 OpenBabel10282417133D

 76 75  0  0  1  0  0  0  0  0999 V2000
    4.6211  -13.2523   -4.2407 C   0  0  0  0  0  0  0  0  0  0  0  0
    4.6675  -13.0701   -5.7489 C   0  0  0  0  0  0  0  0  0  0  0  0
    3.2663  -13.2194   -6.3425 C   0  0  0  0  0  0  0  0  0  0  0  0
    2.3087  -12.1716   -5.7648 C   0  0  0  0  0  0  0  0  0  0  0  0
    2.8244  -10.7583   -6.0546 C   0  0  0  0  0  0  0  0  0  0  0  0
    2.9182  -10.5431   -7.5678 C   0  0  0  0  0  0  0  0  0  0  0  0
    1.5306  -10.7163   -8.1930 C   0  0  0  0  0  0  0  0  0  0  0  0
    0.5779   -9.6913   -7.5770 C   0  0  0  0  0  0  0  0  0  0  0  0
    1.1448   -8.2926   -7.8390 C   0  0  0  0  0  0  0  0  0  0  0  0
    1.2703   -8.0813   -9.3579 C   0  0  0  0  0  0  0  0  0  0  0  0
   -0.1083   -8.2238   -9.9839 C   0  0  0  0  0  0  0  0  0  0  0  0
   -0.9587   -7.1735   -9.3119 C   0  0  0  0  0  0  0  0  0  0  0  0
   -0.4214   -5.7788   -9.5967 C   0  0  0  0  0  0  0  0  0  0  0  0
   -0.1581   -5.4298  -11.0709 C   0  0  0  0  0  0  0  0  0  0  0  0
   -1.3423   -5.3953  -11.9516 C   0  0  0  0  0  0  0  0  0  0  0  0
   -4.0509   -7.6779  -10.4607 C   0  0  0  0  0  0  0  0  0  0  0  0
   -3.5532   -3.5546   -9.1774 C   0  0  0  0  0  0  0  0  0  0  0  0
   -5.7694   -6.0713   -9.6450 C   0  0  0  0  0  0  0  0  0  0  0  0
   -3.5465   -1.8438  -10.9459 C   0  0  0  0  0  0  0  0  0  0  0  0
   -4.3330   -6.4673   -9.5792 C   0  0  1  0  0  0  0  0  0  0  0  0
   -3.4956   -2.0842   -9.4463 C   0  0  1  0  0  0  0  0  0  0  0  0
   -2.4246   -4.5223  -11.4095 C   0  0  0  0  0  0  0  0  0  0  0  0
   -3.0490   -7.3740  -11.4112 O   0  0  0  0  0  0  0  0  0  0  0  0
   -3.7433   -6.3685   -8.2939 O   0  0  0  0  0  0  0  0  0  0  0  0
   -4.5533   -1.3767   -8.8056 O   0  0  0  0  0  0  0  0  0  0  0  0
   -3.1166   -4.0985  -12.2814 O   0  0  0  0  0  0  0  0  0  0  0  0
   -6.4845   -3.3380  -10.4545 O   0  5  0  0  0  0  0  0  0  0  0  0
   -5.5664   -4.1943  -12.7608 O   0  0  0  0  0  0  0  0  0  0  0  0
   -2.5339   -4.2704  -10.0509 O   0  0  0  0  0  0  0  0  0  0  0  0
   -5.8955   -5.5385  -10.9595 O   0  0  0  0  0  0  0  0  0  0  0  0
   -4.7422   -2.3343  -11.5712 O   0  0  0  0  0  0  0  0  0  0  0  0
   -5.3189   -3.9364  -11.2653 P   0  0  3  0  0  0  0  0  0  0  0  0
   -3.8747   -5.6938  -10.1318 H   0  0  0  0  0  0  0  0  0  0  0  0
   -2.5403   -1.7623   -9.0228 H   0  0  0  0  0  0  0  0  0  0  0  0
    3.9831  -12.5072   -3.7540 H   0  0  0  0  0  0  0  0  0  0  0  0
    5.6149  -13.1443   -3.8065 H   0  0  0  0  0  0  0  0  0  0  0  0
    4.2228  -14.2424   -4.0010 H   0  0  0  0  0  0  0  0  0  0  0  0
    5.0995  -12.0911   -5.9889 H   0  0  0  0  0  0  0  0  0  0  0  0
    5.3398  -13.8029   -6.2024 H   0  0  0  0  0  0  0  0  0  0  0  0
    3.3232  -13.1402   -7.4353 H   0  0  0  0  0  0  0  0  0  0  0  0
    2.8729  -14.2217   -6.1513 H   0  0  0  0  0  0  0  0  0  0  0  0
    1.3041  -12.3291   -6.1711 H   0  0  0  0  0  0  0  0  0  0  0  0
    2.1679  -12.3000   -4.6894 H   0  0  0  0  0  0  0  0  0  0  0  0
    2.1722  -10.0232   -5.5714 H   0  0  0  0  0  0  0  0  0  0  0  0
    3.7960  -10.5661   -5.5935 H   0  0  0  0  0  0  0  0  0  0  0  0
    3.3494   -9.5583   -7.7730 H   0  0  0  0  0  0  0  0  0  0  0  0
    3.6272  -11.2219   -8.0456 H   0  0  0  0  0  0  0  0  0  0  0  0
    1.5986  -10.6199   -9.2803 H   0  0  0  0  0  0  0  0  0  0  0  0
    1.1305  -11.7237   -8.0627 H   0  0  0  0  0  0  0  0  0  0  0  0
   -0.4308   -9.8310   -7.9783 H   0  0  0  0  0  0  0  0  0  0  0  0
    0.4289   -9.8377   -6.5042 H   0  0  0  0  0  0  0  0  0  0  0  0
    0.5241   -7.5495   -7.3316 H   0  0  0  0  0  0  0  0  0  0  0  0
    2.1097   -8.1138   -7.3637 H   0  0  0  0  0  0  0  0  0  0  0  0
    1.7058   -7.1001   -9.5564 H   0  0  0  0  0  0  0  0  0  0  0  0
    1.9702   -8.7636   -9.8401 H   0  0  0  0  0  0  0  0  0  0  0  0
   -0.0844   -8.0997  -11.0692 H   0  0  0  0  0  0  0  0  0  0  0  0
   -0.5474   -9.2193   -9.8537 H   0  0  0  0  0  0  0  0  0  0  0  0
   -1.9703   -7.3374   -9.5881 H   0  0  0  0  0  0  0  0  0  0  0  0
   -1.0629   -7.3018   -8.2294 H   0  0  0  0  0  0  0  0  0  0  0  0
   -1.0533   -5.0905   -9.0495 H   0  0  0  0  0  0  0  0  0  0  0  0
    0.5205   -5.6073   -9.0815 H   0  0  0  0  0  0  0  0  0  0  0  0
    0.2826   -4.4371  -11.1455 H   0  0  0  0  0  0  0  0  0  0  0  0
    0.5351   -6.1359  -11.5368 H   0  0  0  0  0  0  0  0  0  0  0  0
   -1.1300   -4.9459  -12.9354 H   0  0  0  0  0  0  0  0  0  0  0  0
   -1.5847   -6.3912  -12.3137 H   0  0  0  0  0  0  0  0  0  0  0  0
   -3.7059   -8.5293   -9.8823 H   0  0  0  0  0  0  0  0  0  0  0  0
   -4.8794   -7.9119  -11.1173 H   0  0  0  0  0  0  0  0  0  0  0  0
   -4.5771   -3.8979   -9.2544 H   0  0  0  0  0  0  0  0  0  0  0  0
   -3.4253   -3.8135   -8.1138 H   0  0  0  0  0  0  0  0  0  0  0  0
   -6.0675   -5.3627   -8.8689 H   0  0  0  0  0  0  0  0  0  0  0  0
   -6.3600   -6.9843   -9.5311 H   0  0  0  0  0  0  0  0  0  0  0  0
   -3.4452   -0.7801  -11.1601 H   0  0  0  0  0  0  0  0  0  0  0  0
   -2.6453   -2.2454  -11.4078 H   0  0  0  0  0  0  0  0  0  0  0  0
   -3.4360   -6.6510  -11.9547 H   0  0  0  0  0  0  0  0  0  0  0  0
   -3.7721   -7.2262   -7.8558 H   0  0  0  0  0  0  0  0  0  0  0  0
   -5.3610   -1.5686   -9.3445 H   0  0  0  0  0  0  0  0  0  0  0  0
  1 35  1  0  0  0  0
  1 36  1  0  0  0  0
  1 37  1  0  0  0  0
  2  1  1  0  0  0  0
  2 38  1  0  0  0  0
  2 39  1  0  0  0  0
  3  2  1  0  0  0  0
  3 40  1  0  0  0  0
  3 41  1  0  0  0  0
  4  3  1  0  0  0  0
  4 42  1  0  0  0  0
  4 43  1  0  0  0  0
  5  4  1  0  0  0  0
  5 44  1  0  0  0  0
  5 45  1  0  0  0  0
  6  5  1  0  0  0  0
  6 46  1  0  0  0  0
  6 47  1  0  0  0  0
  7  6  1  0  0  0  0
  7 48  1  0  0  0  0
  7 49  1  0  0  0  0
  8  7  1  0  0  0  0
  8 50  1  0  0  0  0
  8 51  1  0  0  0  0
  9  8  1  0  0  0  0
  9 52  1  0  0  0  0
  9 53  1  0  0  0  0
 10  9  1  0  0  0  0
 10 54  1  0  0  0  0
 10 55  1  0  0  0  0
 11 10  1  0  0  0  0
 11 56  1  0  0  0  0
 11 57  1  0  0  0  0
 12 11  1  0  0  0  0
 12 58  1  0  0  0  0
 12 59  1  0  0  0  0
 13 12  1  0  0  0  0
 13 60  1  0  0  0  0
 13 61  1  0  0  0  0
 14 13  1  0  0  0  0
 14 62  1  0  0  0  0
 14 63  1  0  0  0  0
 15 14  1  0  0  0  0
 15 64  1  0  0  0  0
 15 65  1  0  0  0  0
 16 66  1  0  0  0  0
 16 67  1  0  0  0  0
 17 68  1  0  0  0  0
 17 69  1  0  0  0  0
 18 70  1  0  0  0  0
 18 71  1  0  0  0  0
 19 72  1  0  0  0  0
 19 73  1  0  0  0  0
 20 24  1  0  0  0  0
 20 33  1  6  0  0  0
 20 18  1  0  0  0  0
 20 16  1  0  0  0  0
 21 17  1  0  0  0  0
 21 19  1  0  0  0  0
 21 25  1  0  0  0  0
 21 34  1  1  0  0  0
 22 15  1  0  0  0  0
 23 16  1  0  0  0  0
 23 74  1  0  0  0  0
 24 75  1  0  0  0  0
 25 76  1  0  0  0  0
 26 22  2  0  0  0  0
 29 17  1  0  0  0  0
 29 22  1  0  0  0  0
 30 18  1  0  0  0  0
 31 19  1  0  0  0  0
 32 27  1  0  0  0  0
 32 28  2  0  0  0  0
 32 30  1  0  0  0  0
 32 31  1  0  0  0  0
M  CHG  1  27  -1
M  END
>  <DRUGBANK_ID>
DB03438

>  <SECONDARY_ACCESSION_NUMBERS>
EXPT02571

>  <COMMON_NAME>
Lysophosphatidylglycerol

$$$$
