1542
 OpenBabel10282417113D

 46 47  0  0  1  0  0  0  0  0999 V2000
    1.2354    0.2868   -0.0377 O   0  0  0  0  0  0  0  0  0  0  0  0
    3.0486   -0.9225    0.3672 O   0  0  0  0  0  0  0  0  0  0  0  0
   -1.0313   -0.6714   -2.2853 N   0  0  0  0  0  0  0  0  0  0  0  0
    0.1626    1.2632   -0.3980 C   0  0  3  0  0  0  0  0  0  0  0  0
   -0.9986    0.3226    0.0527 C   0  0  3  0  0  0  0  0  0  0  0  0
   -0.0944    1.4866   -1.9196 C   0  0  0  0  0  0  0  0  0  0  0  0
   -0.9110   -0.9829   -0.8469 C   0  0  0  0  0  0  0  0  0  0  0  0
    0.0257    0.2281   -2.7113 C   0  0  0  0  0  0  0  0  0  0  0  0
   -2.3685    0.9853   -0.0374 C   0  0  0  0  0  0  0  0  0  0  0  0
    0.4603    2.6216    0.2642 C   0  0  0  0  0  0  0  0  0  0  0  0
   -0.9392   -1.8695   -3.1068 C   0  0  0  0  0  0  0  0  0  0  0  0
    0.8308    2.7308    1.6077 C   0  0  0  0  0  0  0  0  0  0  0  0
    0.6403    3.7829   -0.5377 C   0  0  0  0  0  0  0  0  0  0  0  0
   -3.4555    0.0512    0.3853 C   0  0  0  0  0  0  0  0  0  0  0  0
    2.5579    0.1378    0.0201 C   0  0  0  0  0  0  0  0  0  0  0  0
    1.4369    3.9102    2.0791 C   0  0  0  0  0  0  0  0  0  0  0  0
    1.3343    4.9042   -0.1021 C   0  0  0  0  0  0  0  0  0  0  0  0
    3.3853    1.3174   -0.3481 C   0  0  0  0  0  0  0  0  0  0  0  0
    1.7081    4.9813    1.2225 C   0  0  0  0  0  0  0  0  0  0  0  0
   -4.2533    0.3001    1.4236 C   0  0  0  0  0  0  0  0  0  0  0  0
    3.1706    1.6684   -1.7902 C   0  0  0  0  0  0  0  0  0  0  0  0
   -0.8317   -0.0029    1.0935 H   0  0  0  0  0  0  0  0  0  0  0  0
   -1.0661    1.9745   -2.0655 H   0  0  0  0  0  0  0  0  0  0  0  0
    0.5421    2.1959   -2.4401 H   0  0  0  0  0  0  0  0  0  0  0  0
   -1.6870   -1.6968   -0.5587 H   0  0  0  0  0  0  0  0  0  0  0  0
    0.0286   -1.5247   -0.6638 H   0  0  0  0  0  0  0  0  0  0  0  0
    1.0258   -0.2068   -2.5897 H   0  0  0  0  0  0  0  0  0  0  0  0
   -0.0785    0.5011   -3.7683 H   0  0  0  0  0  0  0  0  0  0  0  0
   -2.3603    1.8907    0.5795 H   0  0  0  0  0  0  0  0  0  0  0  0
   -2.6061    1.2964   -1.0562 H   0  0  0  0  0  0  0  0  0  0  0  0
   -1.0632   -1.5981   -4.1622 H   0  0  0  0  0  0  0  0  0  0  0  0
    0.0320   -2.3640   -2.9929 H   0  0  0  0  0  0  0  0  0  0  0  0
   -1.7379   -2.5661   -2.8507 H   0  0  0  0  0  0  0  0  0  0  0  0
    0.7358    1.8812    2.2803 H   0  0  0  0  0  0  0  0  0  0  0  0
    0.3176    3.8432   -1.5724 H   0  0  0  0  0  0  0  0  0  0  0  0
   -3.5972   -0.8584   -0.1957 H   0  0  0  0  0  0  0  0  0  0  0  0
    1.7586    3.9765    3.1147 H   0  0  0  0  0  0  0  0  0  0  0  0
    1.5919    5.6858   -0.8143 H   0  0  0  0  0  0  0  0  0  0  0  0
    3.1288    2.1330    0.3249 H   0  0  0  0  0  0  0  0  0  0  0  0
    4.4331    1.0721   -0.1737 H   0  0  0  0  0  0  0  0  0  0  0  0
    2.2056    5.8776    1.5802 H   0  0  0  0  0  0  0  0  0  0  0  0
   -5.0291   -0.4034    1.6965 H   0  0  0  0  0  0  0  0  0  0  0  0
   -4.1373    1.2112    1.9993 H   0  0  0  0  0  0  0  0  0  0  0  0
    2.1409    1.8942   -1.9029 H   0  0  0  0  0  0  0  0  0  0  0  0
    3.6710    2.5841   -2.0930 H   0  0  0  0  0  0  0  0  0  0  0  0
    3.3531    0.8402   -2.4793 H   0  0  0  0  0  0  0  0  0  0  0  0
  1  4  1  0  0  0  0
  1 15  1  0  0  0  0
  2 15  2  0  0  0  0
  3  7  1  0  0  0  0
  3  8  1  0  0  0  0
  3 11  1  0  0  0  0
  4  5  1  0  0  0  0
  4  6  1  0  0  0  0
  4 10  1  0  0  0  0
  5  7  1  0  0  0  0
  5  9  1  0  0  0  0
  5 22  1  0  0  0  0
  6  8  1  0  0  0  0
  6 23  1  0  0  0  0
  6 24  1  0  0  0  0
  7 25  1  0  0  0  0
  7 26  1  0  0  0  0
  8 27  1  0  0  0  0
  8 28  1  0  0  0  0
  9 14  1  0  0  0  0
  9 29  1  0  0  0  0
  9 30  1  0  0  0  0
 10 12  2  0  0  0  0
 10 13  1  0  0  0  0
 11 31  1  0  0  0  0
 11 32  1  0  0  0  0
 11 33  1  0  0  0  0
 12 16  1  0  0  0  0
 12 34  1  0  0  0  0
 13 17  2  0  0  0  0
 13 35  1  0  0  0  0
 14 20  2  0  0  0  0
 14 36  1  0  0  0  0
 15 18  1  0  0  0  0
 16 19  2  0  0  0  0
 16 37  1  0  0  0  0
 17 19  1  0  0  0  0
 17 38  1  0  0  0  0
 18 21  1  0  0  0  0
 18 39  1  0  0  0  0
 18 40  1  0  0  0  0
 19 41  1  0  0  0  0
 20 42  1  0  0  0  0
 20 43  1  0  0  0  0
 21 44  1  0  0  0  0
 21 45  1  0  0  0  0
 21 46  1  0  0  0  0
M  END
>  <DRUGBANK_ID>
DB01542

>  <COMMON_NAME>
Allylprodine

>  <CAS_NUMBER>
25384-17-2

>  <UNII>
4343OEZ18O

>  <SYNONYMS>
Allylprodine

$$$$
