1593
 OpenBabel10282417123D

  1  0  0  0  0  0  0  0  0  0999 V2000
    1.0976    0.0189   -0.0112 Zn  0  0  0  0  0  0  0  0  0  0  0  0
M  END
>  <DRUGBANK_ID>
DB01593

>  <COMMON_NAME>
Zinc

>  <CAS_NUMBER>
7440-66-6

>  <UNII>
J41CSQ7QDS

>  <SYNONYMS>
Zinc, chelated; Zinc, elemental; Zincum metallicum; Zn

$$$$
