
 OpenBabel10282417223D

 41 43  0  0  1  0  0  0  0  0999 V2000
    0.9706    0.1180   -0.0600 C   0  0  0  0  0  0  0  0  0  0  0  0
    0.5107    1.2048    0.7307 O   0  0  0  0  0  0  0  0  0  0  0  0
    0.9881    1.1562    2.0720 C   0  0  0  0  0  0  0  0  0  0  0  0
    0.5548   -0.0649    2.8682 C   0  0  0  0  0  0  0  0  0  0  0  0
   -0.4464   -0.0810    3.6996 N   0  0  0  0  0  0  0  0  0  0  0  0
   -0.5145   -1.3255    4.2063 N   0  0  0  0  0  0  0  0  0  0  0  0
    0.2989   -2.2855    3.7068 C   0  0  0  0  0  0  0  0  0  0  0  0
    1.4411   -1.6024    2.6402 S   0  0  0  0  0  0  0  0  0  0  0  0
    0.0690   -3.4763    4.1699 N   0  0  0  0  0  0  0  0  0  0  0  0
   -0.9031   -3.2528    5.1513 C   0  0  0  0  0  0  0  0  0  0  0  0
   -1.2205   -1.8894    5.2383 C   0  0  0  0  0  0  0  0  0  0  0  0
   -2.1115   -1.1559    6.1773 C   0  0  0  0  0  0  0  0  0  0  0  0
   -1.3314   -0.3060    7.0521 N   0  0  0  0  0  0  0  0  0  0  0  0
   -1.1699   -0.5510    8.4740 C   0  0  0  0  0  0  0  0  0  0  0  0
   -0.5909    0.7687    8.9967 C   0  0  1  0  0  0  0  0  0  0  0  0
    0.3308    0.6288   10.2062 C   0  0  0  0  0  0  0  0  0  0  0  0
    0.9228    1.9537   10.7010 C   0  0  0  0  0  0  0  0  0  0  0  0
   -0.0955    2.8097   10.9747 F   0  0  0  0  0  0  0  0  0  0  0  0
    1.5650    1.7255   11.8743 F   0  0  0  0  0  0  0  0  0  0  0  0
    2.0764    2.7398    9.6068 Cl  0  0  0  0  0  0  0  0  0  0  0  0
    0.1092    1.3374    7.7743 C   0  0  0  0  0  0  0  0  0  0  0  0
   -0.7678    0.8934    6.6678 C   0  0  0  0  0  0  0  0  0  0  0  0
   -0.8914    1.5185    5.6263 O   0  0  0  0  0  0  0  0  0  0  0  0
   -1.4383   -4.3859    5.9725 C   0  0  0  0  0  0  0  0  0  0  0  0
   -2.1103   -5.2873    5.2143 F   0  0  0  0  0  0  0  0  0  0  0  0
   -0.4525   -5.0492    6.6264 F   0  0  0  0  0  0  0  0  0  0  0  0
   -2.3098   -3.9651    6.9280 F   0  0  0  0  0  0  0  0  0  0  0  0
    0.6470    0.2505   -1.0926 H   0  0  0  0  0  0  0  0  0  0  0  0
    0.5105   -0.8107    0.2811 H   0  0  0  0  0  0  0  0  0  0  0  0
    2.0629    0.0520   -0.0239 H   0  0  0  0  0  0  0  0  0  0  0  0
    2.0813    1.2402    2.0778 H   0  0  0  0  0  0  0  0  0  0  0  0
    0.6048    2.0521    2.5781 H   0  0  0  0  0  0  0  0  0  0  0  0
   -2.8565   -0.5632    5.6419 H   0  0  0  0  0  0  0  0  0  0  0  0
   -2.6525   -1.8527    6.8215 H   0  0  0  0  0  0  0  0  0  0  0  0
   -0.5077   -1.4090    8.6202 H   0  0  0  0  0  0  0  0  0  0  0  0
   -2.1444   -0.7563    8.9336 H   0  0  0  0  0  0  0  0  0  0  0  0
   -1.4274    1.4344    9.2552 H   0  0  0  0  0  0  0  0  0  0  0  0
   -0.2595    0.2005   11.0279 H   0  0  0  0  0  0  0  0  0  0  0  0
    1.1312   -0.0943   10.0081 H   0  0  0  0  0  0  0  0  0  0  0  0
    1.1068    0.9067    7.6239 H   0  0  0  0  0  0  0  0  0  0  0  0
    0.1352    2.4274    7.7722 H   0  0  0  0  0  0  0  0  0  0  0  0
  1  2  1  0  0  0  0
  1 28  1  0  0  0  0
  1 29  1  0  0  0  0
  1 30  1  0  0  0  0
  2  3  1  0  0  0  0
  3  4  1  0  0  0  0
  3 31  1  0  0  0  0
  3 32  1  0  0  0  0
  4  5  2  0  0  0  0
  4  8  1  0  0  0  0
  5  6  1  0  0  0  0
  6  7  1  0  0  0  0
  6 11  1  0  0  0  0
  7  8  1  0  0  0  0
  7  9  2  0  0  0  0
  9 10  1  0  0  0  0
 10 11  2  0  0  0  0
 10 24  1  0  0  0  0
 11 12  1  0  0  0  0
 12 13  1  0  0  0  0
 12 33  1  0  0  0  0
 12 34  1  0  0  0  0
 13 14  1  0  0  0  0
 13 22  1  0  0  0  0
 14 35  1  0  0  0  0
 14 36  1  0  0  0  0
 15 14  1  0  0  0  0
 15 16  1  0  0  0  0
 15 21  1  0  0  0  0
 15 37  1  1  0  0  0
 16 17  1  0  0  0  0
 16 38  1  0  0  0  0
 16 39  1  0  0  0  0
 17 18  1  0  0  0  0
 17 19  1  0  0  0  0
 17 20  1  0  0  0  0
 21 22  1  0  0  0  0
 21 40  1  0  0  0  0
 21 41  1  0  0  0  0
 22 23  2  0  0  0  0
 24 25  1  0  0  0  0
 24 26  1  0  0  0  0
 24 27  1  0  0  0  0
M  END
>  <DRUGBANK_ID>
DB14977

>  <COMMON_NAME>
Padsevonil

>  <CAS_NUMBER>
1294000-61-5

>  <UNII>
0R1HN52K0N

>  <SYNONYMS>
Padsevonil

$$$$
