
 OpenBabel10282417143D

 16 15  0  0  1  0  0  0  0  0999 V2000
    0.9541   -0.0616   -0.0733 C   0  0  0  0  0  0  0  0  0  0  0  0
    0.4579   -1.4960   -0.2158 C   0  0  0  0  0  0  0  0  0  0  0  0
    0.9447   -2.4164    0.9140 C   0  0  1  0  0  0  0  0  0  0  0  0
    0.4919   -1.9151    2.2221 N   0  0  0  0  0  0  0  0  0  0  0  0
    0.3918   -3.8397    0.6842 C   0  0  0  0  0  0  0  0  0  0  0  0
    1.3424   -4.7966    0.5485 O   0  0  0  0  0  0  0  0  0  0  0  0
   -0.7995   -4.1228    0.6318 O   0  0  0  0  0  0  0  0  0  0  0  0
    0.5839    0.4047    0.8448 H   0  0  0  0  0  0  0  0  0  0  0  0
    0.6007    0.5509   -0.9077 H   0  0  0  0  0  0  0  0  0  0  0  0
    2.0478   -0.0300   -0.0581 H   0  0  0  0  0  0  0  0  0  0  0  0
   -0.6391   -1.4922   -0.2556 H   0  0  0  0  0  0  0  0  0  0  0  0
    0.7961   -1.8934   -1.1816 H   0  0  0  0  0  0  0  0  0  0  0  0
    2.0410   -2.4426    0.9111 H   0  0  0  0  0  0  0  0  0  0  0  0
    0.8237   -2.5057    2.9800 H   0  0  0  0  0  0  0  0  0  0  0  0
    0.8341   -0.9729    2.3925 H   0  0  0  0  0  0  0  0  0  0  0  0
    2.2664   -4.4952    0.6098 H   0  0  0  0  0  0  0  0  0  0  0  0
  1  2  1  0  0  0  0
  1  8  1  0  0  0  0
  1  9  1  0  0  0  0
  1 10  1  0  0  0  0
  2  3  1  0  0  0  0
  2 11  1  0  0  0  0
  2 12  1  0  0  0  0
  3  4  1  0  0  0  0
  3  5  1  0  0  0  0
  3 13  1  6  0  0  0
  4 14  1  0  0  0  0
  4 15  1  0  0  0  0
  5  6  1  0  0  0  0
  5  7  2  0  0  0  0
  6 16  1  0  0  0  0
M  END
>  <DRUGBANK_ID>
DB04454

>  <SECONDARY_ACCESSION_NUMBERS>
EXPT00390

>  <COMMON_NAME>
Alpha-Aminobutyric Acid

$$$$
