
 OpenBabel10282417103D

 50 51  0  0  0  0  0  0  0  0999 V2000
    0.8965    0.0189    0.0782 C   0  0  0  0  0  0  0  0  0  0  0  0
    0.3456    1.3607   -0.3705 C   0  0  0  0  0  0  0  0  0  0  0  0
    0.7848    1.6100   -1.8074 C   0  0  0  0  0  0  0  0  0  0  0  0
   -0.2832    1.8399   -3.0587 C   0  0  0  0  0  0  0  0  0  0  0  0
    0.2163    3.2339   -3.6208 C   0  0  0  0  0  0  0  0  0  0  0  0
    1.9997    1.7596   -1.8736 O   0  0  0  0  0  0  0  0  0  0  0  0
   -0.4039    0.7541   -4.3159 C   0  0  0  0  0  0  0  0  0  0  0  0
   -1.6647    1.8662   -2.3933 C   0  0  0  0  0  0  0  0  0  0  0  0
    0.0486    1.0239   -5.6266 C   0  0  0  0  0  0  0  0  0  0  0  0
   -0.7896   -0.5894   -4.1510 C   0  0  0  0  0  0  0  0  0  0  0  0
    0.5526   -0.0165   -6.4455 C   0  0  0  0  0  0  0  0  0  0  0  0
   -0.3838   -1.6281   -4.9929 C   0  0  0  0  0  0  0  0  0  0  0  0
    0.3573   -1.3479   -6.1157 C   0  0  0  0  0  0  0  0  0  0  0  0
   -2.1594    0.6475   -1.8758 C   0  0  0  0  0  0  0  0  0  0  0  0
   -2.4003    3.0120   -2.1329 C   0  0  0  0  0  0  0  0  0  0  0  0
   -3.4340    0.4962   -1.3897 C   0  0  0  0  0  0  0  0  0  0  0  0
   -3.6059    2.8969   -1.4417 C   0  0  0  0  0  0  0  0  0  0  0  0
   -4.1569    1.6432   -1.1531 C   0  0  0  0  0  0  0  0  0  0  0  0
    1.7479    3.4129   -4.0499 C   0  0  3  0  0  0  0  0  0  0  0  0
    2.3100    2.3429   -4.9021 N   0  0  0  0  0  0  0  0  0  0  0  0
    1.8164    4.8215   -4.6929 C   0  0  0  0  0  0  0  0  0  0  0  0
    3.4929    2.6013   -5.6931 C   0  0  0  0  0  0  0  0  0  0  0  0
    2.5545    1.0340   -4.2669 C   0  0  0  0  0  0  0  0  0  0  0  0
    0.5661   -0.7810   -0.5912 H   0  0  0  0  0  0  0  0  0  0  0  0
    0.5637   -0.2056    1.0941 H   0  0  0  0  0  0  0  0  0  0  0  0
    1.9933    0.0164    0.0727 H   0  0  0  0  0  0  0  0  0  0  0  0
   -0.7144    1.4334   -0.1775 H   0  0  0  0  0  0  0  0  0  0  0  0
    0.7864    2.1633    0.2383 H   0  0  0  0  0  0  0  0  0  0  0  0
   -0.4467    3.5434   -4.4434 H   0  0  0  0  0  0  0  0  0  0  0  0
    0.0640    3.9970   -2.8402 H   0  0  0  0  0  0  0  0  0  0  0  0
    0.2768    2.0320   -5.9667 H   0  0  0  0  0  0  0  0  0  0  0  0
   -1.4683   -0.9362   -3.3975 H   0  0  0  0  0  0  0  0  0  0  0  0
    1.2481    0.2297   -7.2482 H   0  0  0  0  0  0  0  0  0  0  0  0
   -0.6243   -2.6495   -4.7140 H   0  0  0  0  0  0  0  0  0  0  0  0
    0.7599   -2.1494   -6.7247 H   0  0  0  0  0  0  0  0  0  0  0  0
   -1.5015   -0.2130   -1.7790 H   0  0  0  0  0  0  0  0  0  0  0  0
   -2.0415    3.9998   -2.4036 H   0  0  0  0  0  0  0  0  0  0  0  0
   -3.7995   -0.4981   -1.1561 H   0  0  0  0  0  0  0  0  0  0  0  0
   -4.1222    3.7960   -1.1247 H   0  0  0  0  0  0  0  0  0  0  0  0
   -5.1356    1.5597   -0.6995 H   0  0  0  0  0  0  0  0  0  0  0  0
    2.3661    3.5143   -3.1538 H   0  0  0  0  0  0  0  0  0  0  0  0
    1.5647    5.5893   -3.9496 H   0  0  0  0  0  0  0  0  0  0  0  0
    2.8206    5.0705   -5.0422 H   0  0  0  0  0  0  0  0  0  0  0  0
    1.1170    4.9259   -5.5299 H   0  0  0  0  0  0  0  0  0  0  0  0
    4.3918    2.5332   -5.0749 H   0  0  0  0  0  0  0  0  0  0  0  0
    3.5448    1.8240   -6.4676 H   0  0  0  0  0  0  0  0  0  0  0  0
    3.4792    3.5420   -6.2389 H   0  0  0  0  0  0  0  0  0  0  0  0
    3.3821    0.9996   -3.5612 H   0  0  0  0  0  0  0  0  0  0  0  0
    1.7087    0.6464   -3.7289 H   0  0  0  0  0  0  0  0  0  0  0  0
    2.7136    0.2589   -5.0217 H   0  0  0  0  0  0  0  0  0  0  0  0
  1 24  1  0  0  0  0
  1 25  1  0  0  0  0
  1 26  1  0  0  0  0
  2  1  1  0  0  0  0
  2 27  1  0  0  0  0
  2 28  1  0  0  0  0
  3  2  1  0  0  0  0
  3  6  2  0  0  0  0
  4  3  1  0  0  0  0
  5  4  1  0  0  0  0
  5 19  1  0  0  0  0
  5 29  1  0  0  0  0
  5 30  1  0  0  0  0
  7  4  1  0  0  0  0
  8  4  1  0  0  0  0
  9  7  1  0  0  0  0
  9 31  1  0  0  0  0
 10  7  2  0  0  0  0
 10 32  1  0  0  0  0
 11  9  2  0  0  0  0
 11 33  1  0  0  0  0
 12 10  1  0  0  0  0
 12 34  1  0  0  0  0
 13 11  1  0  0  0  0
 13 12  2  0  0  0  0
 13 35  1  0  0  0  0
 14  8  1  0  0  0  0
 14 36  1  0  0  0  0
 15  8  2  0  0  0  0
 15 37  1  0  0  0  0
 16 14  2  0  0  0  0
 16 38  1  0  0  0  0
 17 15  1  0  0  0  0
 17 39  1  0  0  0  0
 18 16  1  0  0  0  0
 18 17  2  0  0  0  0
 18 40  1  0  0  0  0
 19 20  1  0  0  0  0
 19 21  1  0  0  0  0
 19 41  1  0  0  0  0
 20 22  1  0  0  0  0
 20 23  1  0  0  0  0
 21 42  1  0  0  0  0
 21 43  1  0  0  0  0
 21 44  1  0  0  0  0
 22 45  1  0  0  0  0
 22 46  1  0  0  0  0
 22 47  1  0  0  0  0
 23 48  1  0  0  0  0
 23 49  1  0  0  0  0
 23 50  1  0  0  0  0
M  END
>  <DRUGBANK_ID>
DB00333

>  <SECONDARY_ACCESSION_NUMBERS>
APRD00485

>  <COMMON_NAME>
Methadone

>  <CAS_NUMBER>
76-99-3

>  <UNII>
UC6VBE7V1Z

>  <SYNONYMS>
(+-)-Methadone; (+/-)-Methadone; (Â±)-methadone; 6-Dimethylamino-4,4-diphenyl-3-heptanone; dl-Methadone; Metadona; Methadone; Methadonum

$$$$
