
 OpenBabel10282417173D

 57 58  0  0  0  0  0  0  0  0999 V2000
    0.5378    1.3318    0.0583 C   0  0  0  0  0  0  0  0  0  0  0  0
   -0.8940    0.9717    0.1173 C   0  0  0  0  0  0  0  0  0  0  0  0
    1.4245    0.2291    0.0806 C   0  0  0  0  0  0  0  0  0  0  0  0
    0.9533    2.7414   -0.0227 N   0  0  0  0  0  0  0  0  0  0  0  0
   -1.3894   -0.4075    0.1786 C   0  0  0  0  0  0  0  0  0  0  0  0
   -2.3324    2.6230   -0.0297 I   0  0  0  0  0  0  0  0  0  0  0  0
    0.9317   -1.0711    0.1362 C   0  0  0  0  0  0  0  0  0  0  0  0
    3.6283   -0.1661   -0.0649 I   0  0  0  0  0  0  0  0  0  0  0  0
    2.2651    3.1811   -0.0774 C   0  0  0  0  0  0  0  0  0  0  0  0
   -0.4122   -1.4067    0.1425 C   0  0  0  0  0  0  0  0  0  0  0  0
   -2.8625   -0.7831    0.2983 C   0  0  0  0  0  0  0  0  0  0  0  0
    2.9537    4.5510   -0.0178 C   0  0  0  0  0  0  0  0  0  0  0  0
    3.2150    2.3708   -0.0051 O   0  0  0  0  0  0  0  0  0  0  0  0
   -0.6064   -3.5144   -0.0382 I   0  0  0  0  0  0  0  0  0  0  0  0
   -3.2058   -2.0834    0.3885 O   0  0  0  0  0  0  0  0  0  0  0  0
   -3.7783    0.0290    0.3576 O   0  0  0  0  0  0  0  0  0  0  0  0
    3.4048    4.8382    1.2843 O   0  0  0  0  0  0  0  0  0  0  0  0
    2.4341    4.5070    2.2984 C   0  0  0  0  0  0  0  0  0  0  0  0
    0.8990    4.9865    2.2890 C   0  0  0  0  0  0  0  0  0  0  0  0
    0.0094    5.0994    1.1627 O   0  0  0  0  0  0  0  0  0  0  0  0
    0.4982    5.7839   -0.0085 C   0  0  0  0  0  0  0  0  0  0  0  0
    1.3746    7.1292   -0.0919 C   0  0  0  0  0  0  0  0  0  0  0  0
    2.3214    7.6301    0.8614 O   0  0  0  0  0  0  0  0  0  0  0  0
    1.8211    7.6581    2.1690 C   0  0  0  0  0  0  0  0  0  0  0  0
    0.3383    8.2319    2.3768 C   0  0  0  0  0  0  0  0  0  0  0  0
   -0.8655    7.4956    2.2646 N   0  0  0  0  0  0  0  0  0  0  0  0
    0.2772    9.4526    2.5727 O   0  0  0  0  0  0  0  0  0  0  0  0
   -2.1456    8.1650    2.2267 C   0  0  0  0  0  0  0  0  0  0  0  0
   -2.3925    9.2581    1.3331 C   0  0  0  0  0  0  0  0  0  0  0  0
   -3.1982    7.7691    3.0812 C   0  0  0  0  0  0  0  0  0  0  0  0
   -3.5965   10.0248    1.3513 C   0  0  0  0  0  0  0  0  0  0  0  0
   -1.0619    9.5624   -0.3813 I   0  0  0  0  0  0  0  0  0  0  0  0
   -4.4012    8.4966    3.1076 C   0  0  0  0  0  0  0  0  0  0  0  0
   -3.0718    6.1370    4.4112 I   0  0  0  0  0  0  0  0  0  0  0  0
   -4.6023    9.5960    2.2444 C   0  0  0  0  0  0  0  0  0  0  0  0
   -3.7072   11.2500    0.4502 C   0  0  0  0  0  0  0  0  0  0  0  0
   -6.5747   10.3868    2.3487 I   0  0  0  0  0  0  0  0  0  0  0  0
   -4.8211   11.9822    0.4729 O   0  0  0  0  0  0  0  0  0  0  0  0
   -2.8302   11.6741   -0.3010 O   0  0  0  0  0  0  0  0  0  0  0  0
    0.1572    3.3913    0.0602 H   0  0  0  0  0  0  0  0  0  0  0  0
    1.6669   -1.8715    0.1381 H   0  0  0  0  0  0  0  0  0  0  0  0
    3.6284    4.6195   -0.8900 H   0  0  0  0  0  0  0  0  0  0  0  0
    2.5780    5.4998   -0.2438 H   0  0  0  0  0  0  0  0  0  0  0  0
   -2.5051   -2.7595    0.3467 H   0  0  0  0  0  0  0  0  0  0  0  0
    2.4396    3.4270    2.4089 H   0  0  0  0  0  0  0  0  0  0  0  0
    2.9101    4.8992    3.2121 H   0  0  0  0  0  0  0  0  0  0  0  0
    0.4221    4.7010    3.2401 H   0  0  0  0  0  0  0  0  0  0  0  0
    0.7886    5.9838    2.5719 H   0  0  0  0  0  0  0  0  0  0  0  0
    1.0642    4.9735   -0.3287 H   0  0  0  0  0  0  0  0  0  0  0  0
   -0.0887    5.6506   -0.9356 H   0  0  0  0  0  0  0  0  0  0  0  0
    1.9204    7.1519   -1.0515 H   0  0  0  0  0  0  0  0  0  0  0  0
    0.6714    7.8976   -0.1859 H   0  0  0  0  0  0  0  0  0  0  0  0
    2.1671    6.6841    2.4058 H   0  0  0  0  0  0  0  0  0  0  0  0
    2.4323    8.0046    3.0212 H   0  0  0  0  0  0  0  0  0  0  0  0
   -0.9469    6.4831    2.3764 H   0  0  0  0  0  0  0  0  0  0  0  0
   -5.1956    8.2234    3.8093 H   0  0  0  0  0  0  0  0  0  0  0  0
   -5.5166   11.6983    1.0835 H   0  0  0  0  0  0  0  0  0  0  0  0
  1  2  1  0  0  0  0
  1  3  2  0  0  0  0
  1  4  1  0  0  0  0
  2  5  2  0  0  0  0
  2  6  1  0  0  0  0
  3  7  1  0  0  0  0
  3  8  1  0  0  0  0
  4  9  1  0  0  0  0
  4 40  1  0  0  0  0
  5 10  1  0  0  0  0
  5 11  1  0  0  0  0
  7 10  2  0  0  0  0
  7 41  1  0  0  0  0
  9 12  1  0  0  0  0
  9 13  2  0  0  0  0
 10 14  1  0  0  0  0
 11 15  1  0  0  0  0
 11 16  2  0  0  0  0
 12 17  1  0  0  0  0
 12 42  1  0  0  0  0
 12 43  1  0  0  0  0
 15 44  1  0  0  0  0
 17 18  1  0  0  0  0
 18 19  1  0  0  0  0
 18 45  1  0  0  0  0
 18 46  1  0  0  0  0
 19 20  1  0  0  0  0
 19 47  1  0  0  0  0
 19 48  1  0  0  0  0
 20 21  1  0  0  0  0
 21 22  1  0  0  0  0
 21 49  1  0  0  0  0
 21 50  1  0  0  0  0
 22 23  1  0  0  0  0
 22 51  1  0  0  0  0
 22 52  1  0  0  0  0
 23 24  1  0  0  0  0
 24 25  1  0  0  0  0
 24 53  1  0  0  0  0
 24 54  1  0  0  0  0
 25 26  1  0  0  0  0
 25 27  2  0  0  0  0
 26 28  1  0  0  0  0
 26 55  1  0  0  0  0
 28 29  2  0  0  0  0
 28 30  1  0  0  0  0
 29 31  1  0  0  0  0
 29 32  1  0  0  0  0
 30 33  2  0  0  0  0
 30 34  1  0  0  0  0
 31 35  2  0  0  0  0
 31 36  1  0  0  0  0
 33 35  1  0  0  0  0
 33 56  1  0  0  0  0
 35 37  1  0  0  0  0
 36 38  1  0  0  0  0
 36 39  2  0  0  0  0
 38 57  1  0  0  0  0
M  END
>  <DRUGBANK_ID>
DB08945

>  <COMMON_NAME>
Iotroxic acid

>  <CAS_NUMBER>
51022-74-3

>  <UNII>
84C5PTP9X6

>  <SYNONYMS>
Acide iotroxique; Acido iotroxico; Acidum iotroxicum; Iotroxic acid; Iotroxinsaeure

$$$$
