SD8
 OpenBabel10282417173D

 46 49  0  0  0  0  0  0  0  0999 V2000
    2.4342   -0.7905    0.0191 C   0  0  0  0  0  0  0  0  0  0  0  0
    2.6501    0.7116    0.0114 C   0  0  0  0  0  0  0  0  0  0  0  0
   -0.0765    0.7278    0.0048 C   0  0  0  0  0  0  0  0  0  0  0  0
   -1.3305    1.3646   -0.0008 C   0  0  0  0  0  0  0  0  0  0  0  0
   -2.5039    0.6297   -0.0032 C   0  0  0  0  0  0  0  0  0  0  0  0
   -2.4242   -0.7563   -0.0010 C   0  0  0  0  0  0  0  0  0  0  0  0
   -1.1685   -1.3964   -0.0070 C   0  0  0  0  0  0  0  0  0  0  0  0
    0.0384   -0.6678   -0.0093 C   0  0  0  0  0  0  0  0  0  0  0  0
    4.7279   -1.4159    0.9763 C   0  0  0  0  0  0  0  0  0  0  0  0
    6.0973   -1.0985    0.3173 C   0  0  0  0  0  0  0  0  0  0  0  0
    5.3052   -2.0973   -1.7903 C   0  0  0  0  0  0  0  0  0  0  0  0
    3.9471   -2.4629   -1.1088 C   0  0  0  0  0  0  0  0  0  0  0  0
    7.4897   -2.8107   -0.8182 C   0  0  0  0  0  0  0  0  0  0  0  0
    9.6005   -3.9160   -1.4081 C   0  0  0  0  0  0  0  0  0  0  0  0
    9.0651   -4.3141   -0.1947 C   0  0  0  0  0  0  0  0  0  0  0  0
    9.7283   -5.3458    0.6292 C   0  0  0  0  0  0  0  0  0  0  0  0
    9.6540   -6.7313    2.5804 C   0  0  0  0  0  0  0  0  0  0  0  0
    9.7333   -8.0926    1.9022 C   0  0  0  0  0  0  0  0  0  0  0  0
    1.2678   -1.3828   -0.0235 N   0  0  0  0  0  0  0  0  0  0  0  0
    3.6355   -1.5222   -0.0205 N   0  0  0  0  0  0  0  0  0  0  0  0
    6.3858   -2.0052   -0.7963 N   0  0  0  0  0  0  0  0  0  0  0  0
    7.8752   -3.6299    0.1462 N   0  0  0  0  0  0  0  0  0  0  0  0
   10.8159   -5.8325    0.3080 O   0  0  0  0  0  0  0  0  0  0  0  0
    9.0381   -5.7243    1.7458 O   0  0  0  0  0  0  0  0  0  0  0  0
    1.2863    1.8397    0.0560 S   0  0  0  0  0  0  0  0  0  0  0  0
    8.5902   -2.7649   -2.1638 S   0  0  0  0  0  0  0  0  0  0  0  0
    3.1818    0.9279   -0.9195 H   0  0  0  0  0  0  0  0  0  0  0  0
    3.2879    0.9780    0.8536 H   0  0  0  0  0  0  0  0  0  0  0  0
   -1.3864    2.4520    0.0022 H   0  0  0  0  0  0  0  0  0  0  0  0
   -3.4600    1.1465   -0.0015 H   0  0  0  0  0  0  0  0  0  0  0  0
   -3.3431   -1.3380    0.0053 H   0  0  0  0  0  0  0  0  0  0  0  0
   -1.1436   -2.4844   -0.0060 H   0  0  0  0  0  0  0  0  0  0  0  0
    4.5045   -0.6634    1.7398 H   0  0  0  0  0  0  0  0  0  0  0  0
    4.8078   -2.3806    1.4906 H   0  0  0  0  0  0  0  0  0  0  0  0
    6.0490   -0.0805   -0.0951 H   0  0  0  0  0  0  0  0  0  0  0  0
    6.8995   -1.0943    1.0641 H   0  0  0  0  0  0  0  0  0  0  0  0
    5.2054   -1.1131   -2.2691 H   0  0  0  0  0  0  0  0  0  0  0  0
    5.5273   -2.8224   -2.5799 H   0  0  0  0  0  0  0  0  0  0  0  0
    4.0146   -3.4703   -0.6848 H   0  0  0  0  0  0  0  0  0  0  0  0
    3.1536   -2.4566   -1.8624 H   0  0  0  0  0  0  0  0  0  0  0  0
   10.5163   -4.2651   -1.8727 H   0  0  0  0  0  0  0  0  0  0  0  0
   10.6411   -6.3954    2.9217 H   0  0  0  0  0  0  0  0  0  0  0  0
    9.0274   -6.8276    3.4754 H   0  0  0  0  0  0  0  0  0  0  0  0
   10.3677   -8.0678    1.0124 H   0  0  0  0  0  0  0  0  0  0  0  0
   10.1498   -8.8458    2.5788 H   0  0  0  0  0  0  0  0  0  0  0  0
    8.7409   -8.4164    1.5760 H   0  0  0  0  0  0  0  0  0  0  0  0
  1  2  1  0  0  0  0
  1 19  2  0  0  0  0
  1 20  1  0  0  0  0
  2 25  1  0  0  0  0
  2 27  1  0  0  0  0
  2 28  1  0  0  0  0
  3  4  2  0  0  0  0
  3  8  1  0  0  0  0
  3 25  1  0  0  0  0
  4  5  1  0  0  0  0
  4 29  1  0  0  0  0
  5  6  2  0  0  0  0
  5 30  1  0  0  0  0
  6  7  1  0  0  0  0
  6 31  1  0  0  0  0
  7  8  2  0  0  0  0
  7 32  1  0  0  0  0
  8 19  1  0  0  0  0
  9 10  1  0  0  0  0
  9 20  1  0  0  0  0
  9 33  1  0  0  0  0
  9 34  1  0  0  0  0
 10 21  1  0  0  0  0
 10 35  1  0  0  0  0
 10 36  1  0  0  0  0
 11 12  1  0  0  0  0
 11 21  1  0  0  0  0
 11 37  1  0  0  0  0
 11 38  1  0  0  0  0
 12 20  1  0  0  0  0
 12 39  1  0  0  0  0
 12 40  1  0  0  0  0
 13 21  1  0  0  0  0
 13 22  2  0  0  0  0
 13 26  1  0  0  0  0
 14 15  2  0  0  0  0
 14 26  1  0  0  0  0
 14 41  1  0  0  0  0
 15 16  1  0  0  0  0
 15 22  1  0  0  0  0
 16 23  2  0  0  0  0
 16 24  1  0  0  0  0
 17 18  1  0  0  0  0
 17 24  1  0  0  0  0
 17 42  1  0  0  0  0
 17 43  1  0  0  0  0
 18 44  1  0  0  0  0
 18 45  1  0  0  0  0
 18 46  1  0  0  0  0
M  END
>  <DRUGBANK_ID>
DB08540

>  <COMMON_NAME>
2-[4-(2H-1,4-BENZOTHIAZINE-3-YL)-PIPERAZINE-1-LY]-1,3-THIAZOLE-4-CARBOXYLIC ACID ETHYLESTER

$$$$
