
 OpenBabel10282417233D

 78 81  0  0  0  0  0  0  0  0999 V2000
   -4.1523    0.0205    0.3919 C   0  0  0  0  0  0  0  0  0  0  0  0
   -3.7155   -1.3368   -0.0936 C   0  0  0  0  0  0  0  0  0  0  0  0
   -2.2375   -1.5422    0.2122 C   0  0  0  0  0  0  0  0  0  0  0  0
   -3.1969    1.1424    0.2479 C   0  0  0  0  0  0  0  0  0  0  0  0
   -1.9472    0.9398   -0.2045 C   0  0  0  0  0  0  0  0  0  0  0  0
   -1.0876    2.1298   -0.5564 C   0  0  0  0  0  0  0  0  0  0  0  0
    0.3218    2.0395    0.0014 C   0  0  0  0  0  0  0  0  0  0  0  0
    0.9691    0.6828   -0.2876 C   0  0  1  0  0  0  0  0  0  0  0  0
    2.3358    0.6101    0.3539 C   0  0  2  0  0  0  0  0  0  0  0  0
    3.3580    1.6799   -0.0116 C   0  0  0  0  0  0  0  0  0  0  0  0
    4.6798    1.0449    0.3867 C   0  0  0  0  0  0  0  0  0  0  0  0
    4.3448   -0.4154    0.7719 C   0  0  1  0  0  0  0  0  0  0  0  0
    3.0400   -0.7242    0.0592 C   0  0  2  0  0  0  0  0  0  0  0  0
    3.2852   -1.0479   -1.4247 C   0  0  0  0  0  0  0  0  0  0  0  0
    2.2301   -1.8366    0.7399 C   0  0  0  0  0  0  0  0  0  0  0  0
    0.7816   -1.8578    0.2368 C   0  0  0  0  0  0  0  0  0  0  0  0
    0.0786   -0.4709    0.2620 C   0  0  2  0  0  0  0  0  0  0  0  0
   -1.3342   -0.4507   -0.4259 C   0  0  1  0  0  0  0  0  0  0  0  0
   -1.2273   -0.7155   -1.9460 C   0  0  0  0  0  0  0  0  0  0  0  0
   -5.2901    0.2431    0.7967 O   0  0  0  0  0  0  0  0  0  0  0  0
    5.4168   -1.2784    0.4600 O   0  0  0  0  0  0  0  0  0  0  0  0
    6.5576   -1.0652    1.1532 C   0  0  0  0  0  0  0  0  0  0  0  0
    6.4399   -0.3085    2.4745 C   0  0  0  0  0  0  0  0  0  0  0  0
    6.7457   -1.2197    3.6414 C   0  0  0  0  0  0  0  0  0  0  0  0
    8.2104   -1.6236    3.6071 C   0  0  0  0  0  0  0  0  0  0  0  0
    9.1084   -0.3789    3.5781 C   0  0  0  0  0  0  0  0  0  0  0  0
    8.8907    0.4664    4.8379 C   0  0  0  0  0  0  0  0  0  0  0  0
    9.2269   -0.3564    6.0854 C   0  0  0  0  0  0  0  0  0  0  0  0
   10.6890   -0.8175    6.0568 C   0  0  0  0  0  0  0  0  0  0  0  0
   11.6496    0.3710    5.9945 C   0  0  0  0  0  0  0  0  0  0  0  0
   11.4705    1.2623    7.2126 C   0  0  0  0  0  0  0  0  0  0  0  0
    7.6289   -1.4930    0.7237 O   0  0  0  0  0  0  0  0  0  0  0  0
   -0.0797   -0.2539    1.3324 H   0  0  0  0  0  0  0  0  0  0  0  0
    1.0963    0.5820   -1.3698 H   0  0  0  0  0  0  0  0  0  0  0  0
    2.1865    0.6968    1.4451 H   0  0  0  0  0  0  0  0  0  0  0  0
   -4.3068   -2.1019    0.4188 H   0  0  0  0  0  0  0  0  0  0  0  0
   -3.9251   -1.4070   -1.1659 H   0  0  0  0  0  0  0  0  0  0  0  0
   -2.1096   -1.5350    1.3038 H   0  0  0  0  0  0  0  0  0  0  0  0
   -1.9393   -2.5397   -0.1325 H   0  0  0  0  0  0  0  0  0  0  0  0
   -3.6029    2.1294    0.4392 H   0  0  0  0  0  0  0  0  0  0  0  0
   -1.0359    2.2058   -1.6491 H   0  0  0  0  0  0  0  0  0  0  0  0
   -1.5388    3.0645   -0.2034 H   0  0  0  0  0  0  0  0  0  0  0  0
    0.9232    2.8424   -0.4417 H   0  0  0  0  0  0  0  0  0  0  0  0
    0.3025    2.2203    1.0839 H   0  0  0  0  0  0  0  0  0  0  0  0
    3.3548    1.9113   -1.0809 H   0  0  0  0  0  0  0  0  0  0  0  0
    3.1948    2.6115    0.5394 H   0  0  0  0  0  0  0  0  0  0  0  0
    5.4119    1.0976   -0.4281 H   0  0  0  0  0  0  0  0  0  0  0  0
    5.1178    1.5961    1.2251 H   0  0  0  0  0  0  0  0  0  0  0  0
    4.0914   -0.5373    1.8281 H   0  0  0  0  0  0  0  0  0  0  0  0
    3.7900   -0.2299   -1.9474 H   0  0  0  0  0  0  0  0  0  0  0  0
    3.9176   -1.9373   -1.5289 H   0  0  0  0  0  0  0  0  0  0  0  0
    2.3564   -1.2496   -1.9630 H   0  0  0  0  0  0  0  0  0  0  0  0
    2.2101   -1.6798    1.8282 H   0  0  0  0  0  0  0  0  0  0  0  0
    2.7024   -2.8145    0.5871 H   0  0  0  0  0  0  0  0  0  0  0  0
    0.2251   -2.5593    0.8702 H   0  0  0  0  0  0  0  0  0  0  0  0
    0.7726   -2.2788   -0.7708 H   0  0  0  0  0  0  0  0  0  0  0  0
   -0.6180    0.0313   -2.4633 H   0  0  0  0  0  0  0  0  0  0  0  0
   -0.7851   -1.6944   -2.1547 H   0  0  0  0  0  0  0  0  0  0  0  0
   -2.2085   -0.6939   -2.4295 H   0  0  0  0  0  0  0  0  0  0  0  0
    7.0566    0.5904    2.3949 H   0  0  0  0  0  0  0  0  0  0  0  0
    5.4775    0.1260    2.7190 H   0  0  0  0  0  0  0  0  0  0  0  0
    6.5010   -0.6919    4.5727 H   0  0  0  0  0  0  0  0  0  0  0  0
    6.0940   -2.0995    3.6322 H   0  0  0  0  0  0  0  0  0  0  0  0
    8.4250   -2.2693    4.4617 H   0  0  0  0  0  0  0  0  0  0  0  0
    8.4218   -2.2569    2.7440 H   0  0  0  0  0  0  0  0  0  0  0  0
   10.1501   -0.6855    3.4621 H   0  0  0  0  0  0  0  0  0  0  0  0
    8.9400    0.2406    2.6919 H   0  0  0  0  0  0  0  0  0  0  0  0
    9.4907    1.3794    4.7771 H   0  0  0  0  0  0  0  0  0  0  0  0
    7.8626    0.8388    4.9085 H   0  0  0  0  0  0  0  0  0  0  0  0
    9.0061    0.2256    6.9835 H   0  0  0  0  0  0  0  0  0  0  0  0
    8.5703   -1.2278    6.1771 H   0  0  0  0  0  0  0  0  0  0  0  0
   10.8966   -1.4307    6.9386 H   0  0  0  0  0  0  0  0  0  0  0  0
   10.8745   -1.4788    5.2014 H   0  0  0  0  0  0  0  0  0  0  0  0
   12.6795    0.0077    5.9379 H   0  0  0  0  0  0  0  0  0  0  0  0
   11.4959    0.9587    5.0814 H   0  0  0  0  0  0  0  0  0  0  0  0
   11.6573    0.6863    8.1235 H   0  0  0  0  0  0  0  0  0  0  0  0
   12.1532    2.1116    7.1752 H   0  0  0  0  0  0  0  0  0  0  0  0
   10.4577    1.6734    7.2763 H   0  0  0  0  0  0  0  0  0  0  0  0
  1  2  1  0  0  0  0
  1  4  1  0  0  0  0
  1 20  2  0  0  0  0
  2  3  1  0  0  0  0
  2 36  1  0  0  0  0
  2 37  1  0  0  0  0
  3 18  1  0  0  0  0
  3 38  1  0  0  0  0
  3 39  1  0  0  0  0
  4  5  2  0  0  0  0
  4 40  1  0  0  0  0
  5  6  1  0  0  0  0
  5 18  1  0  0  0  0
  6  7  1  0  0  0  0
  6 41  1  0  0  0  0
  6 42  1  0  0  0  0
  7  8  1  0  0  0  0
  7 43  1  0  0  0  0
  7 44  1  0  0  0  0
  8  9  1  0  0  0  0
  8 17  1  0  0  0  0
  8 34  1  6  0  0  0
  9 10  1  0  0  0  0
  9 13  1  0  0  0  0
  9 35  1  1  0  0  0
 10 11  1  0  0  0  0
 10 45  1  0  0  0  0
 10 46  1  0  0  0  0
 11 12  1  0  0  0  0
 11 47  1  0  0  0  0
 11 48  1  0  0  0  0
 12 13  1  0  0  0  0
 12 49  1  1  0  0  0
 12 21  1  0  0  0  0
 13 14  1  6  0  0  0
 13 15  1  0  0  0  0
 14 50  1  0  0  0  0
 14 51  1  0  0  0  0
 14 52  1  0  0  0  0
 15 16  1  0  0  0  0
 15 53  1  0  0  0  0
 15 54  1  0  0  0  0
 16 17  1  0  0  0  0
 16 55  1  0  0  0  0
 16 56  1  0  0  0  0
 17 18  1  0  0  0  0
 17 33  1  1  0  0  0
 18 19  1  6  0  0  0
 19 57  1  0  0  0  0
 19 58  1  0  0  0  0
 19 59  1  0  0  0  0
 21 22  1  0  0  0  0
 22 23  1  0  0  0  0
 22 32  2  0  0  0  0
 23 24  1  0  0  0  0
 23 60  1  0  0  0  0
 23 61  1  0  0  0  0
 24 25  1  0  0  0  0
 24 62  1  0  0  0  0
 24 63  1  0  0  0  0
 25 26  1  0  0  0  0
 25 64  1  0  0  0  0
 25 65  1  0  0  0  0
 26 27  1  0  0  0  0
 26 66  1  0  0  0  0
 26 67  1  0  0  0  0
 27 28  1  0  0  0  0
 27 68  1  0  0  0  0
 27 69  1  0  0  0  0
 28 29  1  0  0  0  0
 28 70  1  0  0  0  0
 28 71  1  0  0  0  0
 29 30  1  0  0  0  0
 29 72  1  0  0  0  0
 29 73  1  0  0  0  0
 30 31  1  0  0  0  0
 30 74  1  0  0  0  0
 30 75  1  0  0  0  0
 31 76  1  0  0  0  0
 31 77  1  0  0  0  0
 31 78  1  0  0  0  0
M  END
>  <DRUGBANK_ID>
DB16001

>  <COMMON_NAME>
Testosterone decanoate

>  <CAS_NUMBER>
5721-91-5

>  <UNII>
IJW60LAO6S

$$$$
