
 OpenBabel10282417143D

 66 68  0  0  1  0  0  0  0  0999 V2000
    1.4393   -2.7058   -0.7098 C   0  0  0  0  0  0  0  0  0  0  0  0
   -8.8071    0.7078   -2.9140 C   0  0  0  0  0  0  0  0  0  0  0  0
   -1.9365    2.8283   -4.3023 C   0  0  0  0  0  0  0  0  0  0  0  0
    0.6141   -1.4930   -0.3273 C   0  0  2  0  0  0  0  0  0  0  0  0
   -8.1275    0.1172   -1.6843 C   0  0  2  0  0  0  0  0  0  0  0  0
   -2.8179    2.7272   -3.0646 C   0  0  2  0  0  0  0  0  0  0  0  0
   -0.2415   -1.7487    0.9278 C   0  0  1  0  0  0  0  0  0  0  0  0
   -0.6349   -0.3749    1.4095 C   0  0  1  0  0  0  0  0  0  0  0  0
   -6.4604    0.1984    0.0860 C   0  0  2  0  0  0  0  0  0  0  0  0
   -3.1107    2.4863   -0.6529 C   0  0  2  0  0  0  0  0  0  0  0  0
   -5.9473   -1.1920   -0.2676 C   0  0  2  0  0  0  0  0  0  0  0  0
   -1.1001    0.4797    0.2561 C   0  0  2  0  0  0  0  0  0  0  0  0
   -4.4649    2.0743   -1.0547 C   0  0  2  0  0  0  0  0  0  0  0  0
   -6.9207    0.9613   -1.2462 C   0  0  1  0  0  0  0  0  0  0  0  0
   -2.0787    2.1732   -1.8024 C   0  0  1  0  0  0  0  0  0  0  0  0
   -7.1649   -1.9287   -0.8568 C   0  0  2  0  0  0  0  0  0  0  0  0
   -0.5969    0.3275   -1.1650 C   0  0  1  0  0  0  0  0  0  0  0  0
   -5.0265    2.1020   -2.4210 C   0  0  1  0  0  0  0  0  0  0  0  0
    2.7668   -2.5286   -0.1991 O   0  0  0  0  0  0  0  0  0  0  0  0
   -9.9310   -0.1059   -3.2427 O   0  0  0  0  0  0  0  0  0  0  0  0
   -2.7165    3.3840   -5.3649 O   0  0  0  0  0  0  0  0  0  0  0  0
   -1.4043   -2.5363    0.6660 O   0  0  0  0  0  0  0  0  0  0  0  0
   -1.6645   -0.3855    2.4093 O   0  0  0  0  0  0  0  0  0  0  0  0
   -5.6144    0.8175    1.0702 O   0  0  0  0  0  0  0  0  0  0  0  0
   -3.1788    1.8658    0.6628 O   0  0  0  0  0  0  0  0  0  0  0  0
   -5.3996   -1.8302    0.8960 O   0  0  0  0  0  0  0  0  0  0  0  0
   -0.8443    1.8620    0.6542 O   0  0  0  0  0  0  0  0  0  0  0  0
   -5.3472    2.8309   -0.2062 O   0  0  0  0  0  0  0  0  0  0  0  0
   -6.8208   -3.2393   -1.2656 O   0  0  0  0  0  0  0  0  0  0  0  0
   -7.7255   -1.2407   -1.9765 O   0  0  0  0  0  0  0  0  0  0  0  0
   -0.2556   -1.0468   -1.3945 O   0  0  0  0  0  0  0  0  0  0  0  0
   -3.9869    1.9150   -3.3866 O   0  0  0  0  0  0  0  0  0  0  0  0
   -6.0006    1.0090   -2.4063 O   0  0  0  0  0  0  0  0  0  0  0  0
   -1.6672    0.7952   -2.0386 O   0  0  0  0  0  0  0  0  0  0  0  0
    1.3269   -0.6814   -0.1099 H   0  0  0  0  0  0  0  0  0  0  0  0
   -8.8718    0.0765   -0.8771 H   0  0  0  0  0  0  0  0  0  0  0  0
   -3.1754    3.7479   -2.8541 H   0  0  0  0  0  0  0  0  0  0  0  0
    0.3150   -2.2401    1.7311 H   0  0  0  0  0  0  0  0  0  0  0  0
    0.2242    0.1050    1.8798 H   0  0  0  0  0  0  0  0  0  0  0  0
   -7.3668    0.0933    0.6924 H   0  0  0  0  0  0  0  0  0  0  0  0
   -3.0617    3.5533   -0.4326 H   0  0  0  0  0  0  0  0  0  0  0  0
   -5.1289   -1.1491   -0.9956 H   0  0  0  0  0  0  0  0  0  0  0  0
   -2.1554    0.1988    0.1496 H   0  0  0  0  0  0  0  0  0  0  0  0
   -4.4348    0.9925   -0.8581 H   0  0  0  0  0  0  0  0  0  0  0  0
   -7.2672    1.9777   -1.0289 H   0  0  0  0  0  0  0  0  0  0  0  0
   -1.1728    2.7747   -1.6530 H   0  0  0  0  0  0  0  0  0  0  0  0
   -7.9326   -2.0344   -0.0800 H   0  0  0  0  0  0  0  0  0  0  0  0
    0.2922    0.9424   -1.3650 H   0  0  0  0  0  0  0  0  0  0  0  0
   -5.5470    3.0428   -2.6250 H   0  0  0  0  0  0  0  0  0  0  0  0
    1.5089   -2.8040   -1.7948 H   0  0  0  0  0  0  0  0  0  0  0  0
    1.0359   -3.6306   -0.2905 H   0  0  0  0  0  0  0  0  0  0  0  0
   -9.1627    1.7236   -2.7103 H   0  0  0  0  0  0  0  0  0  0  0  0
   -8.1458    0.7293   -3.7841 H   0  0  0  0  0  0  0  0  0  0  0  0
   -1.0914    3.5018   -4.1237 H   0  0  0  0  0  0  0  0  0  0  0  0
   -1.5661    1.8559   -4.6306 H   0  0  0  0  0  0  0  0  0  0  0  0
    2.7190   -2.4134    0.7657 H   0  0  0  0  0  0  0  0  0  0  0  0
   -9.5670   -1.0109   -3.3185 H   0  0  0  0  0  0  0  0  0  0  0  0
   -3.5163    2.8225   -5.4134 H   0  0  0  0  0  0  0  0  0  0  0  0
   -1.7797   -2.2765   -0.1988 H   0  0  0  0  0  0  0  0  0  0  0  0
   -2.3530   -1.0226    2.1196 H   0  0  0  0  0  0  0  0  0  0  0  0
   -4.6764    0.5447    0.9499 H   0  0  0  0  0  0  0  0  0  0  0  0
   -2.3836    2.1086    1.1653 H   0  0  0  0  0  0  0  0  0  0  0  0
   -5.8458   -1.4570    1.6796 H   0  0  0  0  0  0  0  0  0  0  0  0
   -0.5813    1.8984    1.5567 H   0  0  0  0  0  0  0  0  0  0  0  0
   -5.3042    2.3653    0.6599 H   0  0  0  0  0  0  0  0  0  0  0  0
   -5.9730   -3.1627   -1.7317 H   0  0  0  0  0  0  0  0  0  0  0  0
  1 50  1  0  0  0  0
  1 51  1  0  0  0  0
  2 52  1  0  0  0  0
  2 53  1  0  0  0  0
  3 54  1  0  0  0  0
  3 55  1  0  0  0  0
  4 35  1  1  0  0  0
  4  1  1  0  0  0  0
  5  2  1  0  0  0  0
  5 36  1  1  0  0  0
  6  3  1  0  0  0  0
  6 37  1  1  0  0  0
  7  4  1  0  0  0  0
  7 22  1  0  0  0  0
  7 38  1  1  0  0  0
  8  7  1  0  0  0  0
  8 23  1  0  0  0  0
  8 39  1  1  0  0  0
  9 24  1  0  0  0  0
  9 40  1  1  0  0  0
 10 25  1  0  0  0  0
 10 41  1  1  0  0  0
 11  9  1  0  0  0  0
 11 26  1  0  0  0  0
 11 42  1  6  0  0  0
 12  8  1  0  0  0  0
 12 27  1  0  0  0  0
 12 43  1  6  0  0  0
 13 10  1  0  0  0  0
 13 28  1  0  0  0  0
 13 44  1  1  0  0  0
 14  5  1  0  0  0  0
 14  9  1  0  0  0  0
 14 33  1  0  0  0  0
 14 45  1  1  0  0  0
 15  6  1  0  0  0  0
 15 10  1  0  0  0  0
 15 34  1  0  0  0  0
 15 46  1  1  0  0  0
 16 11  1  0  0  0  0
 16 29  1  0  0  0  0
 16 47  1  1  0  0  0
 17 12  1  0  0  0  0
 17 34  1  0  0  0  0
 17 48  1  6  0  0  0
 18 13  1  0  0  0  0
 18 33  1  0  0  0  0
 18 49  1  6  0  0  0
 19  1  1  0  0  0  0
 19 56  1  0  0  0  0
 20  2  1  0  0  0  0
 20 57  1  0  0  0  0
 21  3  1  0  0  0  0
 21 58  1  0  0  0  0
 22 59  1  0  0  0  0
 23 60  1  0  0  0  0
 24 61  1  0  0  0  0
 25 62  1  0  0  0  0
 26 63  1  0  0  0  0
 27 64  1  0  0  0  0
 28 65  1  0  0  0  0
 29 66  1  0  0  0  0
 30  5  1  0  0  0  0
 30 16  1  0  0  0  0
 31  4  1  0  0  0  0
 31 17  1  0  0  0  0
 32  6  1  0  0  0  0
 32 18  1  0  0  0  0
M  END
>  <DRUGBANK_ID>
DB04248

>  <SECONDARY_ACCESSION_NUMBERS>
EXPT00613

>  <COMMON_NAME>
beta-(1->4)-galactotriose

>  <SYNONYMS>
beta-1,4-galactotrioside; β-D-Gal-(1→4)-β-D-Gal-(1→4)-β-D-Gal; β-D-galactosyl-(1→4)-β-D-galactosyl-(1→4)-β-D-galactose; β-D-Galp-(1→4)-β-D-Galp-(1→4)-β-D-Galp

$$$$
