1496
 OpenBabel10282417113D

 36 38  0  0  0  0  0  0  0  0999 V2000
    1.1550    0.1648   -0.4577 S   0  0  0  0  0  0  0  0  0  0  0  0
   11.4309    2.7926   -2.5168 F   0  0  0  0  0  0  0  0  0  0  0  0
   11.8139    3.6938   -0.5744 F   0  0  0  0  0  0  0  0  0  0  0  0
   10.3871    2.0826   -0.7782 F   0  0  0  0  0  0  0  0  0  0  0  0
    7.1096    2.2253   -0.8462 O   0  0  0  0  0  0  0  0  0  0  0  0
    4.5101    2.2254    1.8563 O   0  0  0  0  0  0  0  0  0  0  0  0
    4.3900   -2.1410    1.7418 O   0  0  0  0  0  0  0  0  0  0  0  0
    3.5104    1.2691    0.0412 N   0  0  0  0  0  0  0  0  0  0  0  0
    3.4675   -1.0504   -0.0370 N   0  0  0  0  0  0  0  0  0  0  0  0
    5.2439    0.0334    1.1362 C   0  0  0  0  0  0  0  0  0  0  0  0
    6.1880    0.0569   -0.0820 C   0  0  0  0  0  0  0  0  0  0  0  0
    7.1230    1.1959    0.0622 C   0  0  0  0  0  0  0  0  0  0  0  0
    4.4136    1.2847    1.0705 C   0  0  0  0  0  0  0  0  0  0  0  0
    4.3578   -1.1616    0.9938 C   0  0  0  0  0  0  0  0  0  0  0  0
    8.0129    3.1469   -0.3749 C   0  0  0  0  0  0  0  0  0  0  0  0
    8.0044    1.4530    1.0828 C   0  0  0  0  0  0  0  0  0  0  0  0
    8.4457    4.2441   -1.2338 C   0  0  0  0  0  0  0  0  0  0  0  0
    8.5266    2.7268    0.8359 C   0  0  0  0  0  0  0  0  0  0  0  0
    9.7903    4.2995   -1.6630 C   0  0  0  0  0  0  0  0  0  0  0  0
    2.7842    0.1280   -0.1432 C   0  0  0  0  0  0  0  0  0  0  0  0
    7.5991    5.3285   -1.5247 C   0  0  0  0  0  0  0  0  0  0  0  0
   10.2528    5.4398   -2.3568 C   0  0  0  0  0  0  0  0  0  0  0  0
   10.8164    3.2219   -1.3784 C   0  0  0  0  0  0  0  0  0  0  0  0
    8.0672    6.4299   -2.2594 C   0  0  0  0  0  0  0  0  0  0  0  0
    9.4007    6.4988   -2.6499 C   0  0  0  0  0  0  0  0  0  0  0  0
    3.0549    2.1517   -0.1495 H   0  0  0  0  0  0  0  0  0  0  0  0
    2.9578   -1.8940   -0.2644 H   0  0  0  0  0  0  0  0  0  0  0  0
    5.7771   -0.0168    2.0950 H   0  0  0  0  0  0  0  0  0  0  0  0
    6.7473   -0.8861   -0.1217 H   0  0  0  0  0  0  0  0  0  0  0  0
    5.6383    0.1212   -1.0301 H   0  0  0  0  0  0  0  0  0  0  0  0
    8.2203    0.7899    1.9067 H   0  0  0  0  0  0  0  0  0  0  0  0
    9.3060    3.2242    1.3908 H   0  0  0  0  0  0  0  0  0  0  0  0
    6.5797    5.3541   -1.1431 H   0  0  0  0  0  0  0  0  0  0  0  0
   11.2985    5.4987   -2.6603 H   0  0  0  0  0  0  0  0  0  0  0  0
    7.3964    7.2484   -2.5138 H   0  0  0  0  0  0  0  0  0  0  0  0
    9.7821    7.3762   -3.1690 H   0  0  0  0  0  0  0  0  0  0  0  0
  1 20  2  0  0  0  0
  2 23  1  0  0  0  0
  3 23  1  0  0  0  0
  4 23  1  0  0  0  0
  5 12  1  0  0  0  0
  5 15  1  0  0  0  0
  6 13  2  0  0  0  0
  7 14  2  0  0  0  0
  8 13  1  0  0  0  0
  8 20  1  0  0  0  0
  8 26  1  0  0  0  0
  9 14  1  0  0  0  0
  9 20  1  0  0  0  0
  9 27  1  0  0  0  0
 10 11  1  0  0  0  0
 10 13  1  0  0  0  0
 10 14  1  0  0  0  0
 10 28  1  0  0  0  0
 11 12  1  0  0  0  0
 11 29  1  0  0  0  0
 11 30  1  0  0  0  0
 12 16  2  0  0  0  0
 15 17  1  0  0  0  0
 15 18  2  0  0  0  0
 16 18  1  0  0  0  0
 16 31  1  0  0  0  0
 17 19  1  0  0  0  0
 17 21  2  0  0  0  0
 18 32  1  0  0  0  0
 19 22  2  0  0  0  0
 19 23  1  0  0  0  0
 21 24  1  0  0  0  0
 21 33  1  0  0  0  0
 22 25  1  0  0  0  0
 22 34  1  0  0  0  0
 24 25  2  0  0  0  0
 24 35  1  0  0  0  0
 25 36  1  0  0  0  0
M  END
>  <DRUGBANK_ID>
DB01496

>  <COMMON_NAME>
Dihydro-2-thioxo-5-((5-(2-(trifluoromethyl)phenyl)-2-furanyl)methyl)-4,6(1H,5H)-pyrimidinedione

>  <CAS_NUMBER>
959343-20-5

>  <UNII>
R1JI58032B

$$$$
