
 OpenBabel10282417183D

 45 47  0  0  0  0  0  0  0  0999 V2000
   -2.6083   -0.2676    0.0121 C   0  0  0  0  0  0  0  0  0  0  0  0
   -1.1346   -0.1167    0.0116 C   0  0  0  0  0  0  0  0  0  0  0  0
   -0.1863   -1.1192    0.0165 C   0  0  0  0  0  0  0  0  0  0  0  0
    1.3738   -0.4037    0.0123 S   0  0  0  0  0  0  0  0  0  0  0  0
    0.6927    1.1799    0.0318 C   0  0  0  0  0  0  0  0  0  0  0  0
   -0.6257    1.1755    0.0076 N   0  0  0  0  0  0  0  0  0  0  0  0
    1.4387    2.3844    0.0675 N   0  0  0  0  0  0  0  0  0  0  0  0
    0.6813    3.6557    0.0992 C   0  0  0  0  0  0  0  0  0  0  0  0
    2.8489    2.3759    0.0495 C   0  0  0  0  0  0  0  0  0  0  0  0
    3.5544    1.3637    0.0617 O   0  0  0  0  0  0  0  0  0  0  0  0
    3.5901    3.7229   -0.0030 C   0  0  0  0  0  0  0  0  0  0  0  0
    3.3692    4.5449   -1.2531 C   0  0  0  0  0  0  0  0  0  0  0  0
    2.7118    4.0104   -2.3691 C   0  0  0  0  0  0  0  0  0  0  0  0
    2.3806    4.8123   -3.4529 C   0  0  0  0  0  0  0  0  0  0  0  0
    2.7743    6.1541   -3.4930 C   0  0  0  0  0  0  0  0  0  0  0  0
    3.4519    6.6880   -2.3875 C   0  0  0  0  0  0  0  0  0  0  0  0
    3.7789    5.8843   -1.2908 C   0  0  0  0  0  0  0  0  0  0  0  0
    2.5516    6.9365   -4.7065 C   0  0  0  0  0  0  0  0  0  0  0  0
    1.2755    7.1606   -5.2121 C   0  0  0  0  0  0  0  0  0  0  0  0
    1.1465    7.7914   -6.4445 C   0  0  0  0  0  0  0  0  0  0  0  0
    2.2893    8.1796   -7.1338 C   0  0  0  0  0  0  0  0  0  0  0  0
    3.5207    7.9356   -6.5514 C   0  0  0  0  0  0  0  0  0  0  0  0
    3.6754    7.3310   -5.3555 N   0  0  0  0  0  0  0  0  0  0  0  0
   -0.3018   -2.8868    0.0155 S   0  0  0  0  0  0  0  0  0  0  0  0
    0.2126   -3.3350   -1.2505 O   0  0  0  0  0  0  0  0  0  0  0  0
    0.2111   -3.3460    1.2897 O   0  0  0  0  0  0  0  0  0  0  0  0
   -1.9383   -3.3110   -0.0128 N   0  0  0  0  0  0  0  0  0  0  0  0
   -3.0403    0.2264    0.8840 H   0  0  0  0  0  0  0  0  0  0  0  0
   -3.0285    0.1483   -0.9065 H   0  0  0  0  0  0  0  0  0  0  0  0
   -2.9380   -1.2982    0.0660 H   0  0  0  0  0  0  0  0  0  0  0  0
    0.9827    4.2467    0.9681 H   0  0  0  0  0  0  0  0  0  0  0  0
    0.8622    4.2533   -0.7940 H   0  0  0  0  0  0  0  0  0  0  0  0
   -0.4007    3.5047    0.1269 H   0  0  0  0  0  0  0  0  0  0  0  0
    3.3384    4.2999    0.8948 H   0  0  0  0  0  0  0  0  0  0  0  0
    4.6674    3.5096    0.0565 H   0  0  0  0  0  0  0  0  0  0  0  0
    2.3859    2.9731   -2.3921 H   0  0  0  0  0  0  0  0  0  0  0  0
    1.8229    4.3702   -4.2754 H   0  0  0  0  0  0  0  0  0  0  0  0
    3.7271    7.7411   -2.3849 H   0  0  0  0  0  0  0  0  0  0  0  0
    4.3563    6.3147   -0.4743 H   0  0  0  0  0  0  0  0  0  0  0  0
    0.3994    6.8347   -4.6618 H   0  0  0  0  0  0  0  0  0  0  0  0
    0.1620    7.9657   -6.8667 H   0  0  0  0  0  0  0  0  0  0  0  0
    2.2228    8.6606   -8.1025 H   0  0  0  0  0  0  0  0  0  0  0  0
    4.4436    8.2207   -7.0484 H   0  0  0  0  0  0  0  0  0  0  0  0
   -2.3688   -3.0211   -0.8916 H   0  0  0  0  0  0  0  0  0  0  0  0
   -2.0642   -4.3115    0.1431 H   0  0  0  0  0  0  0  0  0  0  0  0
  1  2  1  0  0  0  0
  1 28  1  0  0  0  0
  1 29  1  0  0  0  0
  1 30  1  0  0  0  0
  2  3  2  0  0  0  0
  2  6  1  0  0  0  0
  3  4  1  0  0  0  0
  3 24  1  0  0  0  0
  4  5  1  0  0  0  0
  5  6  2  0  0  0  0
  5  7  1  0  0  0  0
  7  8  1  0  0  0  0
  7  9  1  0  0  0  0
  8 31  1  0  0  0  0
  8 32  1  0  0  0  0
  8 33  1  0  0  0  0
  9 10  2  0  0  0  0
  9 11  1  0  0  0  0
 11 12  1  0  0  0  0
 11 34  1  0  0  0  0
 11 35  1  0  0  0  0
 12 13  2  0  0  0  0
 12 17  1  0  0  0  0
 13 14  1  0  0  0  0
 13 36  1  0  0  0  0
 14 15  2  0  0  0  0
 14 37  1  0  0  0  0
 15 16  1  0  0  0  0
 15 18  1  0  0  0  0
 16 17  2  0  0  0  0
 16 38  1  0  0  0  0
 17 39  1  0  0  0  0
 18 19  2  0  0  0  0
 18 23  1  0  0  0  0
 19 20  1  0  0  0  0
 19 40  1  0  0  0  0
 20 21  2  0  0  0  0
 20 41  1  0  0  0  0
 21 22  1  0  0  0  0
 21 42  1  0  0  0  0
 22 23  2  0  0  0  0
 22 43  1  0  0  0  0
 24 25  2  0  0  0  0
 24 26  2  0  0  0  0
 24 27  1  0  0  0  0
 27 44  1  0  0  0  0
 27 45  1  0  0  0  0
M  END
>  <DRUGBANK_ID>
DB11844

>  <COMMON_NAME>
Pritelivir

>  <CAS_NUMBER>
348086-71-5

>  <UNII>
07HQ1TJ4JE

>  <SYNONYMS>
Pritelivir

$$$$
