
 OpenBabel10282417153D

 51 54  0  0  0  0  0  0  0  0999 V2000
   -2.7557    0.8094    0.1017 Cl  0  0  0  0  0  0  0  0  0  0  0  0
   -0.3625   -5.1113    6.1639 Cl  0  0  0  0  0  0  0  0  0  0  0  0
    2.5883    0.7362   -0.0199 Cl  0  0  0  0  0  0  0  0  0  0  0  0
   -6.6542   -3.6383   -1.4966 O   0  0  0  0  0  0  0  0  0  0  0  0
   -4.6062   -1.3443   -3.2151 N   0  0  0  0  0  0  0  0  0  0  0  0
   -5.6484   -2.1643   -2.8192 N   0  0  0  0  0  0  0  0  0  0  0  0
   -2.6004   -2.3117    0.2000 N   0  0  0  0  0  0  0  0  0  0  0  0
   -3.4270   -2.1091   -0.8459 N   0  0  0  0  0  0  0  0  0  0  0  0
   -2.9426    0.3780   -4.8188 C   0  0  0  0  0  0  0  0  0  0  0  0
   -2.5956   -1.0884   -4.5772 C   0  0  0  0  0  0  0  0  0  0  0  0
   -3.8268    0.9211   -3.7004 C   0  0  0  0  0  0  0  0  0  0  0  0
   -3.8532   -1.9151   -4.3286 C   0  0  0  0  0  0  0  0  0  0  0  0
   -5.0409    0.0267   -3.4644 C   0  0  0  0  0  0  0  0  0  0  0  0
   -5.6488   -2.9252   -1.6607 C   0  0  0  0  0  0  0  0  0  0  0  0
   -4.5028   -2.8945   -0.6877 C   0  0  0  0  0  0  0  0  0  0  0  0
   -4.3720   -3.6572    0.5273 C   0  0  0  0  0  0  0  0  0  0  0  0
   -3.1110   -3.3079    1.0710 C   0  0  0  0  0  0  0  0  0  0  0  0
   -2.4723   -3.7523    2.3440 C   0  0  0  0  0  0  0  0  0  0  0  0
   -5.4344   -4.5899    1.0494 C   0  0  0  0  0  0  0  0  0  0  0  0
   -1.3505   -1.5790    0.1823 C   0  0  0  0  0  0  0  0  0  0  0  0
   -2.1840   -2.8506    3.3853 C   0  0  0  0  0  0  0  0  0  0  0  0
   -2.1558   -5.1056    2.5685 C   0  0  0  0  0  0  0  0  0  0  0  0
   -1.3274   -0.1679    0.0620 C   0  0  0  0  0  0  0  0  0  0  0  0
   -0.1149   -2.2503    0.1424 C   0  0  0  0  0  0  0  0  0  0  0  0
   -1.5451   -3.2715    4.5710 C   0  0  0  0  0  0  0  0  0  0  0  0
   -1.5126   -5.5290    3.7509 C   0  0  0  0  0  0  0  0  0  0  0  0
   -0.1090    0.5466    0.0005 C   0  0  0  0  0  0  0  0  0  0  0  0
    1.0999   -1.5279    0.0538 C   0  0  0  0  0  0  0  0  0  0  0  0
   -1.1933   -4.6063    4.7409 C   0  0  0  0  0  0  0  0  0  0  0  0
    1.0999   -0.1355    0.0092 C   0  0  0  0  0  0  0  0  0  0  0  0
   -6.4646   -2.2757   -3.4115 H   0  0  0  0  0  0  0  0  0  0  0  0
   -2.0257    0.9716   -4.8922 H   0  0  0  0  0  0  0  0  0  0  0  0
   -3.4715    0.4720   -5.7745 H   0  0  0  0  0  0  0  0  0  0  0  0
   -2.0569   -1.4913   -5.4412 H   0  0  0  0  0  0  0  0  0  0  0  0
   -1.9241   -1.1692   -3.7119 H   0  0  0  0  0  0  0  0  0  0  0  0
   -3.2356    0.9898   -2.7808 H   0  0  0  0  0  0  0  0  0  0  0  0
   -4.1586    1.9359   -3.9431 H   0  0  0  0  0  0  0  0  0  0  0  0
   -4.4730   -1.9489   -5.2333 H   0  0  0  0  0  0  0  0  0  0  0  0
   -3.5557   -2.9460   -4.0984 H   0  0  0  0  0  0  0  0  0  0  0  0
   -5.5994    0.4099   -2.6010 H   0  0  0  0  0  0  0  0  0  0  0  0
   -5.7126    0.0638   -4.3310 H   0  0  0  0  0  0  0  0  0  0  0  0
   -5.0731   -5.6174    1.1364 H   0  0  0  0  0  0  0  0  0  0  0  0
   -5.8369   -4.2527    2.0092 H   0  0  0  0  0  0  0  0  0  0  0  0
   -6.3072   -4.6549    0.3930 H   0  0  0  0  0  0  0  0  0  0  0  0
   -2.4637   -1.8027    3.3048 H   0  0  0  0  0  0  0  0  0  0  0  0
   -2.3945   -5.8592    1.8218 H   0  0  0  0  0  0  0  0  0  0  0  0
   -0.0639   -3.3351    0.1071 H   0  0  0  0  0  0  0  0  0  0  0  0
   -1.3229   -2.5532    5.3583 H   0  0  0  0  0  0  0  0  0  0  0  0
   -1.2582   -6.5781    3.8911 H   0  0  0  0  0  0  0  0  0  0  0  0
   -0.1027    1.6360   -0.0374 H   0  0  0  0  0  0  0  0  0  0  0  0
    2.0525   -2.0551    0.0132 H   0  0  0  0  0  0  0  0  0  0  0  0
  1 23  1  0  0  0  0
  2 29  1  0  0  0  0
  3 30  1  0  0  0  0
  4 14  2  0  0  0  0
  5  6  1  0  0  0  0
  5 12  1  0  0  0  0
  5 13  1  0  0  0  0
  6 14  1  0  0  0  0
  6 31  1  0  0  0  0
  7  8  1  0  0  0  0
  7 17  1  0  0  0  0
  7 20  1  0  0  0  0
  8 15  2  0  0  0  0
  9 10  1  0  0  0  0
  9 11  1  0  0  0  0
  9 32  1  0  0  0  0
  9 33  1  0  0  0  0
 10 12  1  0  0  0  0
 10 34  1  0  0  0  0
 10 35  1  0  0  0  0
 11 13  1  0  0  0  0
 11 36  1  0  0  0  0
 11 37  1  0  0  0  0
 12 38  1  0  0  0  0
 12 39  1  0  0  0  0
 13 40  1  0  0  0  0
 13 41  1  0  0  0  0
 14 15  1  0  0  0  0
 15 16  1  0  0  0  0
 16 17  2  0  0  0  0
 16 19  1  0  0  0  0
 17 18  1  0  0  0  0
 18 21  2  0  0  0  0
 18 22  1  0  0  0  0
 19 42  1  0  0  0  0
 19 43  1  0  0  0  0
 19 44  1  0  0  0  0
 20 23  2  0  0  0  0
 20 24  1  0  0  0  0
 21 25  1  0  0  0  0
 21 45  1  0  0  0  0
 22 26  2  0  0  0  0
 22 46  1  0  0  0  0
 23 27  1  0  0  0  0
 24 28  2  0  0  0  0
 24 47  1  0  0  0  0
 25 29  2  0  0  0  0
 25 48  1  0  0  0  0
 26 29  1  0  0  0  0
 26 49  1  0  0  0  0
 27 30  2  0  0  0  0
 27 50  1  0  0  0  0
 28 30  1  0  0  0  0
 28 51  1  0  0  0  0
M  END
>  <DRUGBANK_ID>
DB06155

>  <COMMON_NAME>
Rimonabant

>  <CAS_NUMBER>
168273-06-1

>  <UNII>
RML78EN3XE

>  <SYNONYMS>
Rimonabant

$$$$
