
 OpenBabel10282417203D

 98105  0  0  1  0  0  0  0  0999 V2000
    0.8202    0.4090   -0.1482 C   0  0  0  0  0  0  0  0  0  0  0  0
   -0.2129    1.5681   -0.9734 C   0  0  2  0  0  0  0  0  0  0  0  0
   -1.5987    2.8754   -0.4655 C   0  0  0  0  0  0  0  0  0  0  0  0
   -2.6347    2.0165   -0.9482 C   0  0  1  0  0  0  0  0  0  0  0  0
   -3.8341    1.6888   -1.8073 C   0  0  2  0  0  0  0  0  0  0  0  0
   -4.8935    2.7565   -2.2630 C   0  0  0  0  0  0  0  0  0  0  0  0
   -5.7617    2.1790   -3.3756 C   0  0  0  0  0  0  0  0  0  0  0  0
   -6.3504    0.9423   -2.8223 C   0  0  0  0  0  0  0  0  0  0  0  0
   -7.6577    0.9190   -2.6164 C   0  0  0  0  0  0  0  0  0  0  0  0
   -8.3059   -0.2661   -2.0124 C   0  0  0  0  0  0  0  0  0  0  0  0
   -9.4382   -0.2262   -1.6365 O   0  0  0  0  0  0  0  0  0  0  0  0
   -7.4614   -1.4634   -1.7631 C   0  0  0  0  0  0  0  0  0  0  0  0
   -6.1632   -1.2245   -1.6738 C   0  0  0  0  0  0  0  0  0  0  0  0
   -5.3879   -0.1655   -2.3934 C   0  0  2  0  0  0  0  0  0  0  0  0
   -4.3832    0.3823   -1.3718 C   0  0  0  0  0  0  0  0  0  0  0  0
   -3.9158   -0.2395   -0.2609 C   0  0  0  0  0  0  0  0  0  0  0  0
   -2.8426    0.2220    0.6405 C   0  0  0  0  0  0  0  0  0  0  0  0
   -1.8619    0.9841   -0.1379 C   0  0  2  0  0  0  0  0  0  0  0  0
   -1.1087    0.4378   -1.3897 C   0  0  1  0  0  0  0  0  0  0  0  0
   -1.2546    0.5707   -2.9795 C   0  0  0  0  0  0  0  0  0  0  0  0
   -1.7158   -0.3953   -3.6258 O   0  0  0  0  0  0  0  0  0  0  0  0
   -0.7599    1.8488   -3.8005 C   0  0  0  0  0  0  0  0  0  0  0  0
   -1.3310    3.1049   -3.3533 N   0  0  0  0  0  0  0  0  0  0  0  0
   -2.6825    3.3415   -3.7854 C   0  0  0  0  0  0  0  0  0  0  0  0
   -2.9201    4.0425   -5.0654 C   0  0  0  0  0  0  0  0  0  0  0  0
   -2.2313    5.2747   -4.8265 N   0  0  0  0  0  0  0  0  0  0  0  0
   -0.8068    5.1596   -4.4399 C   0  0  0  0  0  0  0  0  0  0  0  0
   -0.7138    4.3998   -3.1079 C   0  0  0  0  0  0  0  0  0  0  0  0
   -2.8193    6.3958   -5.3145 C   0  0  0  0  0  0  0  0  0  0  0  0
   -3.9795    6.9046   -4.7351 C   0  0  0  0  0  0  0  0  0  0  0  0
   -4.5467    8.0176   -5.3146 C   0  0  0  0  0  0  0  0  0  0  0  0
   -3.9496    8.5578   -6.4094 N   0  0  0  0  0  0  0  0  0  0  0  0
   -2.8214    7.9844   -6.9242 C   0  0  0  0  0  0  0  0  0  0  0  0
   -2.2507    6.9085   -6.3988 N   0  0  0  0  0  0  0  0  0  0  0  0
   -2.2310    8.5011   -8.0519 N   0  0  0  0  0  0  0  0  0  0  0  0
   -1.5401    9.7724   -8.0022 C   0  0  0  0  0  0  0  0  0  0  0  0
   -0.3942    9.6623   -9.0274 C   0  0  0  0  0  0  0  0  0  0  0  0
   -0.3638    8.2068   -9.4734 C   0  0  0  0  0  0  0  0  0  0  0  0
   -1.7684    7.6961   -9.1681 C   0  0  0  0  0  0  0  0  0  0  0  0
   -5.7227    8.5357   -4.7934 N   0  0  0  0  0  0  0  0  0  0  0  0
   -5.8765    9.1006   -3.4533 C   0  0  0  0  0  0  0  0  0  0  0  0
   -7.0355   10.1150   -3.5746 C   0  0  0  0  0  0  0  0  0  0  0  0
   -7.4244   10.1233   -5.0492 C   0  0  0  0  0  0  0  0  0  0  0  0
   -6.9199    8.7841   -5.5783 C   0  0  0  0  0  0  0  0  0  0  0  0
   -0.7588    1.7601    1.2431 C   0  0  0  0  0  0  0  0  0  0  0  0
   -4.7028   -0.7230   -3.6849 C   0  0  0  0  0  0  0  0  0  0  0  0
    0.3844   -0.6173   -0.0237 H   0  0  0  0  0  0  0  0  0  0  0  0
    1.1796    0.6362    0.8558 H   0  0  0  0  0  0  0  0  0  0  0  0
    1.7148    0.2274   -0.7465 H   0  0  0  0  0  0  0  0  0  0  0  0
    0.4204    2.0422   -1.7036 H   0  0  0  0  0  0  0  0  0  0  0  0
   -1.6972    3.8897   -0.8204 H   0  0  0  0  0  0  0  0  0  0  0  0
   -2.2515    2.9369    0.4759 H   0  0  0  0  0  0  0  0  0  0  0  0
   -2.1470    2.2524   -1.8475 H   0  0  0  0  0  0  0  0  0  0  0  0
   -3.4301    1.2842   -2.7389 H   0  0  0  0  0  0  0  0  0  0  0  0
   -4.6356    3.6753   -2.7804 H   0  0  0  0  0  0  0  0  0  0  0  0
   -5.3766    3.1850   -1.3905 H   0  0  0  0  0  0  0  0  0  0  0  0
   -5.2068    1.9514   -4.3006 H   0  0  0  0  0  0  0  0  0  0  0  0
   -6.4977    2.9240   -3.7028 H   0  0  0  0  0  0  0  0  0  0  0  0
   -8.2852    1.7796   -2.8123 H   0  0  0  0  0  0  0  0  0  0  0  0
   -7.8854   -2.1587   -1.0519 H   0  0  0  0  0  0  0  0  0  0  0  0
   -5.9390   -1.3003   -0.6105 H   0  0  0  0  0  0  0  0  0  0  0  0
   -4.2347   -1.2185    0.0480 H   0  0  0  0  0  0  0  0  0  0  0  0
   -3.2420    0.8955    1.4094 H   0  0  0  0  0  0  0  0  0  0  0  0
   -2.3086   -0.5911    1.1310 H   0  0  0  0  0  0  0  0  0  0  0  0
   -1.0096   -0.6511   -1.2249 H   0  0  0  0  0  0  0  0  0  0  0  0
    0.3256    1.8680   -3.7944 H   0  0  0  0  0  0  0  0  0  0  0  0
   -1.1064    1.6754   -4.8250 H   0  0  0  0  0  0  0  0  0  0  0  0
   -3.2112    2.4309   -3.9566 H   0  0  0  0  0  0  0  0  0  0  0  0
   -3.0429    3.9944   -2.9790 H   0  0  0  0  0  0  0  0  0  0  0  0
   -2.5062    3.3987   -5.8466 H   0  0  0  0  0  0  0  0  0  0  0  0
   -4.0110    4.1139   -5.2141 H   0  0  0  0  0  0  0  0  0  0  0  0
   -0.2797    4.5224   -5.1542 H   0  0  0  0  0  0  0  0  0  0  0  0
   -0.3260    6.1287   -4.3425 H   0  0  0  0  0  0  0  0  0  0  0  0
   -1.3199    4.9711   -2.3675 H   0  0  0  0  0  0  0  0  0  0  0  0
    0.2585    4.3171   -2.6176 H   0  0  0  0  0  0  0  0  0  0  0  0
   -4.4387    6.4272   -3.8748 H   0  0  0  0  0  0  0  0  0  0  0  0
   -2.2412   10.5477   -8.3221 H   0  0  0  0  0  0  0  0  0  0  0  0
   -1.1406   10.0352   -7.0165 H   0  0  0  0  0  0  0  0  0  0  0  0
   -0.5758   10.3262   -9.8812 H   0  0  0  0  0  0  0  0  0  0  0  0
    0.5713    9.9570   -8.5991 H   0  0  0  0  0  0  0  0  0  0  0  0
   -0.1009    8.1078  -10.5349 H   0  0  0  0  0  0  0  0  0  0  0  0
    0.3872    7.6506   -8.9008 H   0  0  0  0  0  0  0  0  0  0  0  0
   -1.7902    6.6085   -9.0412 H   0  0  0  0  0  0  0  0  0  0  0  0
   -2.4212    7.9457  -10.0132 H   0  0  0  0  0  0  0  0  0  0  0  0
   -6.1649    8.3211   -2.7369 H   0  0  0  0  0  0  0  0  0  0  0  0
   -4.9744    9.5997   -3.0883 H   0  0  0  0  0  0  0  0  0  0  0  0
   -7.8877    9.8221   -2.9472 H   0  0  0  0  0  0  0  0  0  0  0  0
   -6.7377   11.1178   -3.2450 H   0  0  0  0  0  0  0  0  0  0  0  0
   -8.5030   10.2611   -5.1905 H   0  0  0  0  0  0  0  0  0  0  0  0
   -6.9152   10.9469   -5.5614 H   0  0  0  0  0  0  0  0  0  0  0  0
   -6.7771    8.7874   -6.6605 H   0  0  0  0  0  0  0  0  0  0  0  0
   -7.6612    8.0102   -5.3302 H   0  0  0  0  0  0  0  0  0  0  0  0
   -0.3859    1.0384    1.9535 H   0  0  0  0  0  0  0  0  0  0  0  0
    0.1420    2.3499    0.8505 H   0  0  0  0  0  0  0  0  0  0  0  0
   -1.1990    2.6070    1.7920 H   0  0  0  0  0  0  0  0  0  0  0  0
   -4.1709    0.0391   -4.2790 H   0  0  0  0  0  0  0  0  0  0  0  0
   -3.9674   -1.5043   -3.4660 H   0  0  0  0  0  0  0  0  0  0  0  0
   -5.4405   -1.1425   -4.3787 H   0  0  0  0  0  0  0  0  0  0  0  0
  1 47  1  0  0  0  0
  1 48  1  0  0  0  0
  1 49  1  0  0  0  0
  2  1  1  0  0  0  0
  2  3  1  0  0  0  0
  2 19  1  0  0  0  0
  2 50  1  6  0  0  0
  3 51  1  0  0  0  0
  3 52  1  0  0  0  0
  4  3  1  0  0  0  0
  4  5  1  0  0  0  0
  4 18  1  0  0  0  0
  4 53  1  1  0  0  0
  5  6  1  0  0  0  0
  5 15  1  0  0  0  0
  5 54  1  6  0  0  0
  6  7  1  0  0  0  0
  6 55  1  0  0  0  0
  6 56  1  0  0  0  0
  7  8  1  0  0  0  0
  7 57  1  0  0  0  0
  7 58  1  0  0  0  0
  8  9  2  0  0  0  0
  8 14  1  0  0  0  0
  9 10  1  0  0  0  0
  9 59  1  0  0  0  0
 10 11  2  0  0  0  0
 10 12  1  0  0  0  0
 12 13  2  0  0  0  0
 12 60  1  0  0  0  0
 13 14  1  0  0  0  0
 13 61  1  0  0  0  0
 14 15  1  0  0  0  0
 14 46  1  6  0  0  0
 15 16  2  0  0  0  0
 16 17  1  0  0  0  0
 16 62  1  0  0  0  0
 17 18  1  0  0  0  0
 17 63  1  0  0  0  0
 17 64  1  0  0  0  0
 18 19  1  0  0  0  0
 18 45  1  6  0  0  0
 19 20  1  0  0  0  0
 19 65  1  1  0  0  0
 20 21  2  0  0  0  0
 20 22  1  0  0  0  0
 22 23  1  0  0  0  0
 22 66  1  0  0  0  0
 22 67  1  0  0  0  0
 23 24  1  0  0  0  0
 23 28  1  0  0  0  0
 24 25  1  0  0  0  0
 24 68  1  0  0  0  0
 24 69  1  0  0  0  0
 25 26  1  0  0  0  0
 25 70  1  0  0  0  0
 25 71  1  0  0  0  0
 26 27  1  0  0  0  0
 26 29  1  0  0  0  0
 27 28  1  0  0  0  0
 27 72  1  0  0  0  0
 27 73  1  0  0  0  0
 28 74  1  0  0  0  0
 28 75  1  0  0  0  0
 29 30  2  0  0  0  0
 29 34  1  0  0  0  0
 30 31  1  0  0  0  0
 30 76  1  0  0  0  0
 31 32  2  0  0  0  0
 31 40  1  0  0  0  0
 32 33  1  0  0  0  0
 33 34  2  0  0  0  0
 33 35  1  0  0  0  0
 35 36  1  0  0  0  0
 35 39  1  0  0  0  0
 36 37  1  0  0  0  0
 36 77  1  0  0  0  0
 36 78  1  0  0  0  0
 37 38  1  0  0  0  0
 37 79  1  0  0  0  0
 37 80  1  0  0  0  0
 38 39  1  0  0  0  0
 38 81  1  0  0  0  0
 38 82  1  0  0  0  0
 39 83  1  0  0  0  0
 39 84  1  0  0  0  0
 40 41  1  0  0  0  0
 40 44  1  0  0  0  0
 41 42  1  0  0  0  0
 41 85  1  0  0  0  0
 41 86  1  0  0  0  0
 42 43  1  0  0  0  0
 42 87  1  0  0  0  0
 42 88  1  0  0  0  0
 43 44  1  0  0  0  0
 43 89  1  0  0  0  0
 43 90  1  0  0  0  0
 44 91  1  0  0  0  0
 44 92  1  0  0  0  0
 45 93  1  0  0  0  0
 45 94  1  0  0  0  0
 45 95  1  0  0  0  0
 46 96  1  0  0  0  0
 46 97  1  0  0  0  0
 46 98  1  0  0  0  0
M  END
>  <DRUGBANK_ID>
DB13050

>  <COMMON_NAME>
Tirilazad

>  <CAS_NUMBER>
110101-66-1

>  <UNII>
YD064E883I

>  <SYNONYMS>
Tirilazad

$$$$
