
 OpenBabel10282417133D

 85 87  0  0  0  0  0  0  0  0999 V2000
    1.9722   -0.0231   -0.0796 O   0  0  0  0  0  0  0  0  0  0  0  0
   -3.6776    1.0088    0.2984 O   0  0  0  0  0  0  0  0  0  0  0  0
    0.9379   -4.1578   -1.8443 O   0  0  0  0  0  0  0  0  0  0  0  0
    0.3764    4.4611    2.3743 O   0  0  0  0  0  0  0  0  0  0  0  0
    2.3769   -1.6364    3.0967 O   0  0  0  0  0  0  0  0  0  0  0  0
    0.1408    4.5751    0.1848 O   0  0  0  0  0  0  0  0  0  0  0  0
    0.3089   -2.4055    3.0854 O   0  0  0  0  0  0  0  0  0  0  0  0
   -1.4327    0.7494    0.0460 N   0  0  0  0  0  0  0  0  0  0  0  0
    0.1992   -2.1617   -1.1308 N   0  0  0  0  0  0  0  0  0  0  0  0
   -1.4886    3.4572    1.3790 N   0  0  0  0  0  0  0  0  0  0  0  0
    1.6569   -2.9069    1.2689 N   0  0  0  0  0  0  0  0  0  0  0  0
   -0.1382   -1.2017   -0.1098 C   0  0  2  0  0  0  0  0  0  0  0  0
   -1.5508   -0.6809   -0.1263 C   0  0  0  0  0  0  0  0  0  0  0  0
   -0.0643    1.2402   -0.0602 C   0  0  0  0  0  0  0  0  0  0  0  0
    0.7456    0.0002   -0.0889 C   0  0  0  0  0  0  0  0  0  0  0  0
   -2.3823    3.0587    0.2873 C   0  0  2  0  0  0  0  0  0  0  0  0
   -2.5567    1.5210    0.2425 C   0  0  0  0  0  0  0  0  0  0  0  0
   -1.9421    3.6007   -1.0666 C   0  0  0  0  0  0  0  0  0  0  0  0
   -2.8034    3.2158   -2.2510 C   0  0  0  0  0  0  0  0  0  0  0  0
    0.7979   -3.8817    0.5675 C   0  0  1  0  0  0  0  0  0  0  0  0
   -0.5716   -4.0573    1.2230 C   0  0  0  0  0  0  0  0  0  0  0  0
    0.6871   -3.4167   -0.8953 C   0  0  0  0  0  0  0  0  0  0  0  0
   -1.5690   -4.9142    0.4736 C   0  0  0  0  0  0  0  0  0  0  0  0
   -4.1760    3.8448   -2.0906 C   0  0  0  0  0  0  0  0  0  0  0  0
   -2.1012    3.7202   -3.5099 C   0  0  0  0  0  0  0  0  0  0  0  0
   -1.0778   -6.3496    0.4444 C   0  0  0  0  0  0  0  0  0  0  0  0
   -2.9077   -4.7915    1.2002 C   0  0  0  0  0  0  0  0  0  0  0  0
   -0.3332    4.1942    1.2579 C   0  0  0  0  0  0  0  0  0  0  0  0
    1.3877   -2.3346    2.5051 C   0  0  0  0  0  0  0  0  0  0  0  0
   -0.0163    4.0718    3.6882 C   0  0  0  0  0  0  0  0  0  0  0  0
    3.7260   -1.6470    2.6336 C   0  0  0  0  0  0  0  0  0  0  0  0
   -1.3106    4.7195    4.0827 C   0  0  0  0  0  0  0  0  0  0  0  0
    4.3812   -3.0077    2.7539 C   0  0  0  0  0  0  0  0  0  0  0  0
   -2.3931    3.9137    4.4595 C   0  0  0  0  0  0  0  0  0  0  0  0
   -1.4582    6.1116    4.0517 C   0  0  0  0  0  0  0  0  0  0  0  0
    5.7509   -3.0777    2.9814 C   0  0  0  0  0  0  0  0  0  0  0  0
    3.6904   -4.2322    2.6526 C   0  0  0  0  0  0  0  0  0  0  0  0
   -3.6050    4.4903    4.8117 C   0  0  0  0  0  0  0  0  0  0  0  0
   -2.6460    6.6880    4.4916 C   0  0  0  0  0  0  0  0  0  0  0  0
   -3.7247    5.8773    4.8460 C   0  0  0  0  0  0  0  0  0  0  0  0
    6.3742   -4.3243    3.0967 C   0  0  0  0  0  0  0  0  0  0  0  0
    4.3006   -5.4679    2.7260 C   0  0  0  0  0  0  0  0  0  0  0  0
    5.6563   -5.5135    2.9434 C   0  0  0  0  0  0  0  0  0  0  0  0
    0.1924   -1.8877   -2.1066 H   0  0  0  0  0  0  0  0  0  0  0  0
   -1.8170    3.1781    2.2867 H   0  0  0  0  0  0  0  0  0  0  0  0
    2.5768   -2.8015    0.8578 H   0  0  0  0  0  0  0  0  0  0  0  0
   -0.0274   -1.5707    0.8853 H   0  0  0  0  0  0  0  0  0  0  0  0
   -2.1307   -1.1041    0.7078 H   0  0  0  0  0  0  0  0  0  0  0  0
   -2.0816   -0.9253   -1.0499 H   0  0  0  0  0  0  0  0  0  0  0  0
    0.2094    1.8217    0.8117 H   0  0  0  0  0  0  0  0  0  0  0  0
    0.0912    1.7169   -1.0215 H   0  0  0  0  0  0  0  0  0  0  0  0
   -3.3610    3.4719    0.5614 H   0  0  0  0  0  0  0  0  0  0  0  0
   -1.8848    4.6942   -1.0060 H   0  0  0  0  0  0  0  0  0  0  0  0
   -0.9349    3.2659   -1.3008 H   0  0  0  0  0  0  0  0  0  0  0  0
   -2.8914    2.1251   -2.3201 H   0  0  0  0  0  0  0  0  0  0  0  0
    1.3456   -4.8328    0.5655 H   0  0  0  0  0  0  0  0  0  0  0  0
   -0.4283   -4.4686    2.2306 H   0  0  0  0  0  0  0  0  0  0  0  0
   -1.0660   -3.0962    1.3614 H   0  0  0  0  0  0  0  0  0  0  0  0
   -1.6972   -4.5358   -0.5470 H   0  0  0  0  0  0  0  0  0  0  0  0
   -4.0871    4.9329   -1.9944 H   0  0  0  0  0  0  0  0  0  0  0  0
   -4.8070    3.6142   -2.9490 H   0  0  0  0  0  0  0  0  0  0  0  0
   -4.6794    3.4728   -1.1929 H   0  0  0  0  0  0  0  0  0  0  0  0
   -1.1091    3.2622   -3.6123 H   0  0  0  0  0  0  0  0  0  0  0  0
   -2.6834    3.4752   -4.3993 H   0  0  0  0  0  0  0  0  0  0  0  0
   -1.9579    4.8059   -3.4681 H   0  0  0  0  0  0  0  0  0  0  0  0
   -0.9320   -6.7250    1.4635 H   0  0  0  0  0  0  0  0  0  0  0  0
   -1.7968   -6.9887   -0.0691 H   0  0  0  0  0  0  0  0  0  0  0  0
   -0.1196   -6.4279   -0.0787 H   0  0  0  0  0  0  0  0  0  0  0  0
   -3.2428   -3.7462    1.2235 H   0  0  0  0  0  0  0  0  0  0  0  0
   -3.6745   -5.3827    0.6983 H   0  0  0  0  0  0  0  0  0  0  0  0
   -2.8206   -5.1288    2.2394 H   0  0  0  0  0  0  0  0  0  0  0  0
   -0.0469    2.9783    3.7460 H   0  0  0  0  0  0  0  0  0  0  0  0
    0.7703    4.4094    4.3707 H   0  0  0  0  0  0  0  0  0  0  0  0
    3.7759   -1.2218    1.6243 H   0  0  0  0  0  0  0  0  0  0  0  0
    4.2437   -0.9399    3.2936 H   0  0  0  0  0  0  0  0  0  0  0  0
   -2.3050    2.8290    4.4432 H   0  0  0  0  0  0  0  0  0  0  0  0
   -0.6531    6.7481    3.6851 H   0  0  0  0  0  0  0  0  0  0  0  0
    6.3342   -2.1675    3.1041 H   0  0  0  0  0  0  0  0  0  0  0  0
    2.6247   -4.3252    2.5383 H   0  0  0  0  0  0  0  0  0  0  0  0
   -4.4450    3.8555    5.0777 H   0  0  0  0  0  0  0  0  0  0  0  0
   -2.7294    7.7690    4.5652 H   0  0  0  0  0  0  0  0  0  0  0  0
   -4.6644    6.3290    5.1491 H   0  0  0  0  0  0  0  0  0  0  0  0
    7.4322   -4.3710    3.3262 H   0  0  0  0  0  0  0  0  0  0  0  0
    3.6850   -6.3596    2.6433 H   0  0  0  0  0  0  0  0  0  0  0  0
    6.1396   -6.4797    3.0146 H   0  0  0  0  0  0  0  0  0  0  0  0
  1 15  2  0  0  0  0
  2 17  2  0  0  0  0
  3 22  2  0  0  0  0
  4 28  1  0  0  0  0
  4 30  1  0  0  0  0
  5 29  1  0  0  0  0
  5 31  1  0  0  0  0
  6 28  2  0  0  0  0
  7 29  2  0  0  0  0
  8 13  1  0  0  0  0
  8 14  1  0  0  0  0
  8 17  1  0  0  0  0
  9 22  1  0  0  0  0
  9 44  1  0  0  0  0
 10 28  1  0  0  0  0
 10 45  1  0  0  0  0
 11 29  1  0  0  0  0
 11 46  1  0  0  0  0
 12  9  1  0  0  0  0
 12 13  1  0  0  0  0
 12 15  1  0  0  0  0
 12 47  1  1  0  0  0
 13 48  1  0  0  0  0
 13 49  1  0  0  0  0
 14 15  1  0  0  0  0
 14 50  1  0  0  0  0
 14 51  1  0  0  0  0
 16 10  1  0  0  0  0
 16 17  1  0  0  0  0
 16 18  1  0  0  0  0
 16 52  1  1  0  0  0
 18 19  1  0  0  0  0
 18 53  1  0  0  0  0
 18 54  1  0  0  0  0
 19 24  1  0  0  0  0
 19 25  1  0  0  0  0
 19 55  1  0  0  0  0
 20 11  1  0  0  0  0
 20 21  1  0  0  0  0
 20 22  1  0  0  0  0
 20 56  1  1  0  0  0
 21 23  1  0  0  0  0
 21 57  1  0  0  0  0
 21 58  1  0  0  0  0
 23 26  1  0  0  0  0
 23 27  1  0  0  0  0
 23 59  1  0  0  0  0
 24 60  1  0  0  0  0
 24 61  1  0  0  0  0
 24 62  1  0  0  0  0
 25 63  1  0  0  0  0
 25 64  1  0  0  0  0
 25 65  1  0  0  0  0
 26 66  1  0  0  0  0
 26 67  1  0  0  0  0
 26 68  1  0  0  0  0
 27 69  1  0  0  0  0
 27 70  1  0  0  0  0
 27 71  1  0  0  0  0
 30 32  1  0  0  0  0
 30 72  1  0  0  0  0
 30 73  1  0  0  0  0
 31 33  1  0  0  0  0
 31 74  1  0  0  0  0
 31 75  1  0  0  0  0
 32 34  2  0  0  0  0
 32 35  1  0  0  0  0
 33 36  2  0  0  0  0
 33 37  1  0  0  0  0
 34 38  1  0  0  0  0
 34 76  1  0  0  0  0
 35 39  2  0  0  0  0
 35 77  1  0  0  0  0
 36 41  1  0  0  0  0
 36 78  1  0  0  0  0
 37 42  2  0  0  0  0
 37 79  1  0  0  0  0
 38 40  2  0  0  0  0
 38 80  1  0  0  0  0
 39 40  1  0  0  0  0
 39 81  1  0  0  0  0
 40 82  1  0  0  0  0
 41 43  2  0  0  0  0
 41 83  1  0  0  0  0
 42 43  1  0  0  0  0
 42 84  1  0  0  0  0
 43 85  1  0  0  0  0
M  END
>  <DRUGBANK_ID>
DB03405

>  <SECONDARY_ACCESSION_NUMBERS>
EXPT02520

>  <COMMON_NAME>
N2-[(Benzyloxy)carbonyl]-N-[(3R)-1-{N-[(benzyloxy)carbonyl]-L-leucyl}-4-oxo-3-pyrrolidinyl]-L-leucinamide

$$$$
