
 OpenBabel10282417193D

 51 54  0  0  0  0  0  0  0  0999 V2000
   -2.3976    0.0158   -0.1126 C   0  0  0  0  0  0  0  0  0  0  0  0
   -0.9931    0.0081    0.2988 N   0  0  0  0  0  0  0  0  0  0  0  0
   -0.3485   -1.2144   -0.1936 C   0  0  0  0  0  0  0  0  0  0  0  0
    1.1149   -1.2711    0.2228 C   0  0  0  0  0  0  0  0  0  0  0  0
    1.8776   -0.0416   -0.2790 C   0  0  0  0  0  0  0  0  0  0  0  0
    1.1570    1.2268    0.2068 C   0  0  0  0  0  0  0  0  0  0  0  0
   -0.3149    1.2099   -0.2052 C   0  0  0  0  0  0  0  0  0  0  0  0
    3.3279   -0.0461    0.2069 C   0  0  0  0  0  0  0  0  0  0  0  0
    4.0649   -1.1968   -0.2935 N   0  0  0  0  0  0  0  0  0  0  0  0
    5.1474   -1.1008   -1.1300 C   0  0  0  0  0  0  0  0  0  0  0  0
    6.1894   -0.0907   -0.7896 C   0  0  0  0  0  0  0  0  0  0  0  0
    7.2754    0.0073   -1.5652 C   0  0  0  0  0  0  0  0  0  0  0  0
    7.3938   -0.8401   -2.6763 C   0  0  0  0  0  0  0  0  0  0  0  0
    8.3541   -0.9304   -3.5722 N   0  0  0  0  0  0  0  0  0  0  0  0
    7.9547   -1.9350   -4.4093 C   0  0  0  0  0  0  0  0  0  0  0  0
    6.7368   -2.4733   -4.0302 C   0  0  0  0  0  0  0  0  0  0  0  0
    6.3764   -1.7565   -2.8997 N   0  0  0  0  0  0  0  0  0  0  0  0
    5.2378   -1.9247   -2.1395 N   0  0  0  0  0  0  0  0  0  0  0  0
    5.9161   -3.4651   -4.7127 C   0  0  0  0  0  0  0  0  0  0  0  0
    4.6787   -3.0697   -5.2295 C   0  0  0  0  0  0  0  0  0  0  0  0
    3.9007   -3.9622   -5.9558 C   0  0  0  0  0  0  0  0  0  0  0  0
    4.3663   -5.2497   -6.2024 C   0  0  0  0  0  0  0  0  0  0  0  0
    5.6308   -5.6463   -5.7617 C   0  0  0  0  0  0  0  0  0  0  0  0
    6.3838   -4.7654   -4.9696 C   0  0  0  0  0  0  0  0  0  0  0  0
    6.2261   -6.8396   -6.0804 O   0  0  0  0  0  0  0  0  0  0  0  0
    5.5435   -7.6491   -7.0339 C   0  0  0  0  0  0  0  0  0  0  0  0
    4.3862   -8.1180   -6.5165 F   0  0  0  0  0  0  0  0  0  0  0  0
    5.2800   -6.9698   -8.1740 F   0  0  0  0  0  0  0  0  0  0  0  0
    6.3149   -8.7102   -7.3581 F   0  0  0  0  0  0  0  0  0  0  0  0
   -2.9133    0.8933    0.2904 H   0  0  0  0  0  0  0  0  0  0  0  0
   -2.5005    0.0219   -1.2040 H   0  0  0  0  0  0  0  0  0  0  0  0
   -2.9168   -0.8668    0.2767 H   0  0  0  0  0  0  0  0  0  0  0  0
   -0.8511   -2.0967    0.2200 H   0  0  0  0  0  0  0  0  0  0  0  0
   -0.4173   -1.2792   -1.2875 H   0  0  0  0  0  0  0  0  0  0  0  0
    1.1916   -1.3344    1.3161 H   0  0  0  0  0  0  0  0  0  0  0  0
    1.5493   -2.1896   -0.1836 H   0  0  0  0  0  0  0  0  0  0  0  0
    1.8675   -0.0436   -1.3786 H   0  0  0  0  0  0  0  0  0  0  0  0
    1.2313    1.3059    1.3001 H   0  0  0  0  0  0  0  0  0  0  0  0
    1.6392    2.1209   -0.2072 H   0  0  0  0  0  0  0  0  0  0  0  0
   -0.3849    1.2663   -1.2992 H   0  0  0  0  0  0  0  0  0  0  0  0
   -0.7982    2.1073    0.2003 H   0  0  0  0  0  0  0  0  0  0  0  0
    3.7962    0.8881   -0.1264 H   0  0  0  0  0  0  0  0  0  0  0  0
    3.3670   -0.0507    1.3010 H   0  0  0  0  0  0  0  0  0  0  0  0
    3.5690   -2.0794   -0.3428 H   0  0  0  0  0  0  0  0  0  0  0  0
    6.0664    0.4946    0.1077 H   0  0  0  0  0  0  0  0  0  0  0  0
    8.0689    0.7026   -1.3348 H   0  0  0  0  0  0  0  0  0  0  0  0
    8.5501   -2.2019   -5.2735 H   0  0  0  0  0  0  0  0  0  0  0  0
    4.3208   -2.0543   -5.0787 H   0  0  0  0  0  0  0  0  0  0  0  0
    2.9401   -3.6503   -6.3541 H   0  0  0  0  0  0  0  0  0  0  0  0
    3.7120   -5.9095   -6.7631 H   0  0  0  0  0  0  0  0  0  0  0  0
    7.3421   -5.0876   -4.5649 H   0  0  0  0  0  0  0  0  0  0  0  0
  1  2  1  0  0  0  0
  1 30  1  0  0  0  0
  1 31  1  0  0  0  0
  1 32  1  0  0  0  0
  2  3  1  0  0  0  0
  2  7  1  0  0  0  0
  3  4  1  0  0  0  0
  3 33  1  0  0  0  0
  3 34  1  0  0  0  0
  4  5  1  0  0  0  0
  4 35  1  0  0  0  0
  4 36  1  0  0  0  0
  5  6  1  0  0  0  0
  5  8  1  0  0  0  0
  5 37  1  0  0  0  0
  6  7  1  0  0  0  0
  6 38  1  0  0  0  0
  6 39  1  0  0  0  0
  7 40  1  0  0  0  0
  7 41  1  0  0  0  0
  8  9  1  0  0  0  0
  8 42  1  0  0  0  0
  8 43  1  0  0  0  0
  9 10  1  0  0  0  0
  9 44  1  0  0  0  0
 10 11  1  0  0  0  0
 10 18  2  0  0  0  0
 11 12  2  0  0  0  0
 11 45  1  0  0  0  0
 12 13  1  0  0  0  0
 12 46  1  0  0  0  0
 13 14  2  0  0  0  0
 13 17  1  0  0  0  0
 14 15  1  0  0  0  0
 15 16  2  0  0  0  0
 15 47  1  0  0  0  0
 16 17  1  0  0  0  0
 16 19  1  0  0  0  0
 17 18  1  0  0  0  0
 19 20  2  0  0  0  0
 19 24  1  0  0  0  0
 20 21  1  0  0  0  0
 20 48  1  0  0  0  0
 21 22  2  0  0  0  0
 21 49  1  0  0  0  0
 22 23  1  0  0  0  0
 22 50  1  0  0  0  0
 23 24  2  0  0  0  0
 23 25  1  0  0  0  0
 24 51  1  0  0  0  0
 25 26  1  0  0  0  0
 26 27  1  0  0  0  0
 26 28  1  0  0  0  0
 26 29  1  0  0  0  0
M  END
>  <DRUGBANK_ID>
DB12494

>  <COMMON_NAME>
SGI-1776

>  <CAS_NUMBER>
1025065-69-3

>  <UNII>
72AUA0603W

$$$$
