MTB
 OpenBabel10282417173D

 40 41  0  0  0  0  0  0  0  0999 V2000
    1.4858   -0.2954   -0.0244 C   0  0  0  0  0  0  0  0  0  0  0  0
    0.5678   -1.3856   -0.0584 C   0  0  0  0  0  0  0  0  0  0  0  0
   -0.8234   -1.1146   -0.0286 C   0  0  0  0  0  0  0  0  0  0  0  0
   -1.3280    0.1848    0.0016 C   0  0  0  0  0  0  0  0  0  0  0  0
   -0.4474    1.2532    0.0331 C   0  0  0  0  0  0  0  0  0  0  0  0
    0.9344    1.0139   -0.0077 C   0  0  0  0  0  0  0  0  0  0  0  0
    4.6684   -1.7489    0.3657 C   0  0  0  0  0  0  0  0  0  0  0  0
    5.4282   -1.0995    1.3132 C   0  0  0  0  0  0  0  0  0  0  0  0
    6.7516   -1.4617    1.6143 C   0  0  0  0  0  0  0  0  0  0  0  0
    7.2975   -2.5513    0.9167 C   0  0  0  0  0  0  0  0  0  0  0  0
    6.5287   -3.2680    0.0076 C   0  0  0  0  0  0  0  0  0  0  0  0
    5.2308   -2.8482   -0.2918 C   0  0  0  0  0  0  0  0  0  0  0  0
    0.8726   -2.8585   -0.1329 C   0  0  0  0  0  0  0  0  0  0  0  0
    7.4695   -0.6780    2.7051 C   0  0  0  0  0  0  0  0  0  0  0  0
    7.8829   -1.6383    3.8339 C   0  0  0  0  0  0  0  0  0  0  0  0
    8.6622    0.0610    2.0801 C   0  0  0  0  0  0  0  0  0  0  0  0
    6.5584    0.4046    3.3470 C   0  0  0  0  0  0  0  0  0  0  0  0
    2.9187   -0.3531   -0.0096 N   0  0  0  0  0  0  0  0  0  0  0  0
    3.3003   -1.4795    0.3425 N   0  0  0  0  0  0  0  0  0  0  0  0
    0.0511   -3.7418    0.1012 O   0  0  0  0  0  0  0  0  0  0  0  0
    2.1009   -3.2126   -0.5140 O   0  0  0  0  0  0  0  0  0  0  0  0
    8.5767   -3.0108    1.0449 O   0  0  0  0  0  0  0  0  0  0  0  0
   -1.5365   -1.9392   -0.0386 H   0  0  0  0  0  0  0  0  0  0  0  0
   -2.4031    0.3542   -0.0154 H   0  0  0  0  0  0  0  0  0  0  0  0
   -0.8350    2.2695    0.0878 H   0  0  0  0  0  0  0  0  0  0  0  0
    1.5973    1.8784   -0.0404 H   0  0  0  0  0  0  0  0  0  0  0  0
    4.8941   -0.3225    1.8489 H   0  0  0  0  0  0  0  0  0  0  0  0
    6.9471   -4.1636   -0.4467 H   0  0  0  0  0  0  0  0  0  0  0  0
    4.6564   -3.4133   -1.0181 H   0  0  0  0  0  0  0  0  0  0  0  0
    8.5477   -2.4392    3.5032 H   0  0  0  0  0  0  0  0  0  0  0  0
    8.4010   -1.1011    4.6326 H   0  0  0  0  0  0  0  0  0  0  0  0
    7.0019   -2.1304    4.2678 H   0  0  0  0  0  0  0  0  0  0  0  0
    8.3206    0.7339    1.2831 H   0  0  0  0  0  0  0  0  0  0  0  0
    9.1890    0.6524    2.8327 H   0  0  0  0  0  0  0  0  0  0  0  0
    9.4019   -0.5969    1.6213 H   0  0  0  0  0  0  0  0  0  0  0  0
    6.2140    1.1293    2.5956 H   0  0  0  0  0  0  0  0  0  0  0  0
    5.6705   -0.0454    3.8136 H   0  0  0  0  0  0  0  0  0  0  0  0
    7.0785    0.9712    4.1212 H   0  0  0  0  0  0  0  0  0  0  0  0
    2.3241   -4.0814   -0.1239 H   0  0  0  0  0  0  0  0  0  0  0  0
    9.0954   -2.4268    1.6129 H   0  0  0  0  0  0  0  0  0  0  0  0
  1  2  1  0  0  0  0
  1  6  2  0  0  0  0
  1 18  1  0  0  0  0
  2  3  2  0  0  0  0
  2 13  1  0  0  0  0
  3  4  1  0  0  0  0
  3 23  1  0  0  0  0
  4  5  2  0  0  0  0
  4 24  1  0  0  0  0
  5  6  1  0  0  0  0
  5 25  1  0  0  0  0
  6 26  1  0  0  0  0
  7  8  1  0  0  0  0
  7 12  2  0  0  0  0
  7 19  1  0  0  0  0
  8  9  2  0  0  0  0
  8 27  1  0  0  0  0
  9 10  1  0  0  0  0
  9 14  1  0  0  0  0
 10 11  2  0  0  0  0
 10 22  1  0  0  0  0
 11 12  1  0  0  0  0
 11 28  1  0  0  0  0
 12 29  1  0  0  0  0
 13 20  2  0  0  0  0
 13 21  1  0  0  0  0
 14 15  1  0  0  0  0
 14 16  1  0  0  0  0
 14 17  1  0  0  0  0
 15 30  1  0  0  0  0
 15 31  1  0  0  0  0
 15 32  1  0  0  0  0
 16 33  1  0  0  0  0
 16 34  1  0  0  0  0
 16 35  1  0  0  0  0
 17 36  1  0  0  0  0
 17 37  1  0  0  0  0
 17 38  1  0  0  0  0
 18 19  2  0  0  0  0
 21 39  1  0  0  0  0
 22 40  1  0  0  0  0
M  END
>  <DRUGBANK_ID>
DB08216

>  <COMMON_NAME>
2-((3'-TERTBUTYL-4'-HYDROXYPHENYL)AZO)BENZOIC ACID

$$$$
