559
 OpenBabel10282417103D

 68 71  0  0  0  0  0  0  0  0999 V2000
    0.9212   -0.0247   -0.9255 S   0  0  0  0  0  0  0  0  0  0  0  0
    0.2755    0.7568    0.0694 O   0  0  0  0  0  0  0  0  0  0  0  0
    0.5569    0.2924   -2.3057 O   0  0  0  0  0  0  0  0  0  0  0  0
    2.3115   -1.7868    1.9616 O   0  0  0  0  0  0  0  0  0  0  0  0
    4.3335   -3.7318    1.6314 O   0  0  0  0  0  0  0  0  0  0  0  0
   -0.4849   -2.2486    2.6129 O   0  0  0  0  0  0  0  0  0  0  0  0
    4.2554   -0.7989    1.5546 O   0  0  0  0  0  0  0  0  0  0  0  0
    0.4440   -1.6231   -0.5867 N   0  0  0  0  0  0  0  0  0  0  0  0
    1.1999   -3.7014   -0.9976 N   0  0  0  0  0  0  0  0  0  0  0  0
    3.0595   -4.7560    0.0482 N   0  0  0  0  0  0  0  0  0  0  0  0
    1.6705   -5.6284   -3.0684 N   0  0  0  0  0  0  0  0  0  0  0  0
    1.6243   -7.1446   -1.2183 N   0  0  0  0  0  0  0  0  0  0  0  0
    7.0817    0.0306   -0.2596 C   0  0  0  0  0  0  0  0  0  0  0  0
    5.5714    0.1252   -0.5366 C   0  0  0  0  0  0  0  0  0  0  0  0
    7.6608    0.7135   -1.4959 C   0  0  0  0  0  0  0  0  0  0  0  0
    7.5521    0.7620    1.0219 C   0  0  0  0  0  0  0  0  0  0  0  0
    7.6774   -1.4149   -0.2080 C   0  0  0  0  0  0  0  0  0  0  0  0
    4.8784   -0.9976   -0.9878 C   0  0  0  0  0  0  0  0  0  0  0  0
    4.8148    1.3091   -0.3676 C   0  0  0  0  0  0  0  0  0  0  0  0
    2.7203    0.1407   -0.8519 C   0  0  0  0  0  0  0  0  0  0  0  0
    3.5021   -0.9551   -1.2178 C   0  0  0  0  0  0  0  0  0  0  0  0
    3.3932    1.3022   -0.4406 C   0  0  0  0  0  0  0  0  0  0  0  0
    1.3597   -2.6358   -0.2000 C   0  0  0  0  0  0  0  0  0  0  0  0
    2.2331   -2.6418    0.8855 C   0  0  0  0  0  0  0  0  0  0  0  0
    3.1615   -3.6997    0.8930 C   0  0  0  0  0  0  0  0  0  0  0  0
    2.0321   -4.7524   -0.8355 C   0  0  0  0  0  0  0  0  0  0  0  0
    1.4579   -0.7678    2.2788 C   0  0  0  0  0  0  0  0  0  0  0  0
    1.8039   -5.9107   -1.7480 C   0  0  0  0  0  0  0  0  0  0  0  0
    4.6570   -2.8372    2.7292 C   0  0  0  0  0  0  0  0  0  0  0  0
    0.1312   -1.0175    2.5718 C   0  0  0  0  0  0  0  0  0  0  0  0
    1.9751    0.5713    2.3308 C   0  0  0  0  0  0  0  0  0  0  0  0
   -0.6959    0.1157    2.7094 C   0  0  0  0  0  0  0  0  0  0  0  0
    5.1749   -1.4701    2.3200 C   0  0  0  0  0  0  0  0  0  0  0  0
    1.1427    1.6860    2.4427 C   0  0  0  0  0  0  0  0  0  0  0  0
   -0.2125    1.4479    2.6071 C   0  0  0  0  0  0  0  0  0  0  0  0
    1.3505   -6.6484   -3.8839 C   0  0  0  0  0  0  0  0  0  0  0  0
    1.2968   -8.1252   -2.0881 C   0  0  0  0  0  0  0  0  0  0  0  0
    1.1505   -7.9327   -3.4430 C   0  0  0  0  0  0  0  0  0  0  0  0
    0.2765   -3.4630    2.5795 C   0  0  0  0  0  0  0  0  0  0  0  0
    3.9845   -1.4767    0.9234 H   0  0  0  0  0  0  0  0  0  0  0  0
   -0.3864   -1.6434    0.0094 H   0  0  0  0  0  0  0  0  0  0  0  0
    7.3274    1.7553   -1.5553 H   0  0  0  0  0  0  0  0  0  0  0  0
    8.7505    0.6952   -1.4924 H   0  0  0  0  0  0  0  0  0  0  0  0
    7.3029    0.2014   -2.3986 H   0  0  0  0  0  0  0  0  0  0  0  0
    7.1944    0.2845    1.9405 H   0  0  0  0  0  0  0  0  0  0  0  0
    8.6478    0.7622    1.0848 H   0  0  0  0  0  0  0  0  0  0  0  0
    7.2262    1.8051    1.0596 H   0  0  0  0  0  0  0  0  0  0  0  0
    7.4222   -1.9887    0.6841 H   0  0  0  0  0  0  0  0  0  0  0  0
    7.3632   -2.0222   -1.0610 H   0  0  0  0  0  0  0  0  0  0  0  0
    8.7704   -1.3994   -0.2041 H   0  0  0  0  0  0  0  0  0  0  0  0
    5.3268   -1.9893   -0.9422 H   0  0  0  0  0  0  0  0  0  0  0  0
    5.3230    2.2405   -0.1217 H   0  0  0  0  0  0  0  0  0  0  0  0
    3.0639   -1.8932   -1.5150 H   0  0  0  0  0  0  0  0  0  0  0  0
    2.8612    2.1913   -0.1055 H   0  0  0  0  0  0  0  0  0  0  0  0
    3.8200   -2.7739    3.4231 H   0  0  0  0  0  0  0  0  0  0  0  0
    5.5062   -3.2780    3.2604 H   0  0  0  0  0  0  0  0  0  0  0  0
    3.0128    0.8041    2.1040 H   0  0  0  0  0  0  0  0  0  0  0  0
   -1.7700   -0.0274    2.7317 H   0  0  0  0  0  0  0  0  0  0  0  0
    5.4115   -0.7587    3.1033 H   0  0  0  0  0  0  0  0  0  0  0  0
    5.9990   -1.6009    1.6574 H   0  0  0  0  0  0  0  0  0  0  0  0
    1.5090    2.6825    2.1758 H   0  0  0  0  0  0  0  0  0  0  0  0
   -0.9073    2.2723    2.4446 H   0  0  0  0  0  0  0  0  0  0  0  0
    1.2516   -6.3890   -4.9346 H   0  0  0  0  0  0  0  0  0  0  0  0
    1.1412   -9.1078   -1.6492 H   0  0  0  0  0  0  0  0  0  0  0  0
    0.8926   -8.7361   -4.1194 H   0  0  0  0  0  0  0  0  0  0  0  0
    0.4333   -3.7570    1.5484 H   0  0  0  0  0  0  0  0  0  0  0  0
    1.2130   -3.4255    3.1530 H   0  0  0  0  0  0  0  0  0  0  0  0
   -0.2859   -4.3371    2.8976 H   0  0  0  0  0  0  0  0  0  0  0  0
  1  2  2  0  0  0  0
  1  3  2  0  0  0  0
  1  8  1  0  0  0  0
  1 20  1  0  0  0  0
  4 24  1  0  0  0  0
  4 27  1  0  0  0  0
  5 25  1  0  0  0  0
  5 29  1  0  0  0  0
  6 30  1  0  0  0  0
  6 39  1  0  0  0  0
  7 33  1  0  0  0  0
  7 40  1  0  0  0  0
  8 23  1  0  0  0  0
  8 41  1  0  0  0  0
  9 23  1  0  0  0  0
  9 26  2  0  0  0  0
 10 25  2  0  0  0  0
 10 26  1  0  0  0  0
 11 28  2  0  0  0  0
 11 36  1  0  0  0  0
 12 28  1  0  0  0  0
 12 37  2  0  0  0  0
 13 14  1  0  0  0  0
 13 15  1  0  0  0  0
 13 16  1  0  0  0  0
 13 17  1  0  0  0  0
 14 18  2  0  0  0  0
 14 19  1  0  0  0  0
 15 42  1  0  0  0  0
 15 43  1  0  0  0  0
 15 44  1  0  0  0  0
 16 45  1  0  0  0  0
 16 46  1  0  0  0  0
 16 47  1  0  0  0  0
 17 48  1  0  0  0  0
 17 49  1  0  0  0  0
 17 50  1  0  0  0  0
 18 21  1  0  0  0  0
 18 51  1  0  0  0  0
 19 22  2  0  0  0  0
 19 52  1  0  0  0  0
 20 21  2  0  0  0  0
 20 22  1  0  0  0  0
 21 53  1  0  0  0  0
 22 54  1  0  0  0  0
 23 24  2  0  0  0  0
 24 25  1  0  0  0  0
 26 28  1  0  0  0  0
 27 30  1  0  0  0  0
 27 31  2  0  0  0  0
 29 33  1  0  0  0  0
 29 55  1  0  0  0  0
 29 56  1  0  0  0  0
 30 32  2  0  0  0  0
 31 34  1  0  0  0  0
 31 57  1  0  0  0  0
 32 35  1  0  0  0  0
 32 58  1  0  0  0  0
 33 59  1  0  0  0  0
 33 60  1  0  0  0  0
 34 35  2  0  0  0  0
 34 61  1  0  0  0  0
 35 62  1  0  0  0  0
 36 38  2  0  0  0  0
 36 63  1  0  0  0  0
 37 38  1  0  0  0  0
 37 64  1  0  0  0  0
 38 65  1  0  0  0  0
 39 66  1  0  0  0  0
 39 67  1  0  0  0  0
 39 68  1  0  0  0  0
M  END
>  <DRUGBANK_ID>
DB00559

>  <SECONDARY_ACCESSION_NUMBERS>
APRD00829

>  <COMMON_NAME>
Bosentan

>  <CAS_NUMBER>
147536-97-8

>  <UNII>
XUL93R30K2

>  <SYNONYMS>
4-(1,1-Dimethylethyl)-N-(6-(2-hydroxyethoxy)-5-(2-methoxyphenoxy)-(2,2'-bipyrimidin)-4-yl) benzenesulfornamide; bosent√°n; Bosentan; bosentan anhydrous; bosentanum; p-tert-Butyl-N-(6-(2-hydroxyethoxy)-5-(o-methoxyphenoxy)-2-(2-pyrimidinyl)-4-pyrimidinyl)benzenesulfonamide

$$$$
