
 OpenBabel10282417203D

 39 40  0  0  1  0  0  0  0  0999 V2000
    2.8448   -1.1683    0.1211 C   0  0  0  0  0  0  0  0  0  0  0  0
    1.5994   -0.4205   -0.3093 C   0  0  2  0  0  0  0  0  0  0  0  0
    1.6014    1.0594    0.1057 C   0  0  0  0  0  0  0  0  0  0  0  0
    0.2256    1.7597   -0.1001 C   0  0  2  0  0  0  0  0  0  0  0  0
   -0.7312    0.9490    0.7312 C   0  0  0  0  0  0  0  0  0  0  0  0
   -0.8230   -0.5539    0.3523 C   0  0  0  0  0  0  0  0  0  0  0  0
    0.4990   -1.2402    0.3720 C   0  0  0  0  0  0  0  0  0  0  0  0
   -1.8427   -1.2299    1.2818 C   0  0  0  0  0  0  0  0  0  0  0  0
   -1.2419   -0.8854   -1.0497 C   0  0  0  0  0  0  0  0  0  0  0  0
   -0.2233    1.9494   -1.5059 O   0  0  0  0  0  0  0  0  0  0  0  0
   -1.3636    1.8306   -2.3013 C   0  0  0  0  0  0  0  0  0  0  0  0
   -1.2117    1.8931   -3.5008 O   0  0  0  0  0  0  0  0  0  0  0  0
   -2.7739    1.4106   -1.8394 C   0  0  0  0  0  0  0  0  0  0  0  0
   -3.3635    1.8083   -0.6398 C   0  0  0  0  0  0  0  0  0  0  0  0
   -4.2077    0.9126    0.0595 C   0  0  0  0  0  0  0  0  0  0  0  0
   -4.5935   -0.2796   -0.5415 C   0  0  0  0  0  0  0  0  0  0  0  0
   -4.2644   -0.5768   -1.8196 N   0  0  0  0  0  0  0  0  0  0  0  0
   -3.3577    0.2673   -2.4466 C   0  0  0  0  0  0  0  0  0  0  0  0
    2.8881   -1.1918    1.2172 H   0  0  0  0  0  0  0  0  0  0  0  0
    2.7723   -2.2091   -0.2217 H   0  0  0  0  0  0  0  0  0  0  0  0
    3.7543   -0.7194   -0.2647 H   0  0  0  0  0  0  0  0  0  0  0  0
    1.5086   -0.4493   -1.4049 H   0  0  0  0  0  0  0  0  0  0  0  0
    1.8291    1.0888    1.1849 H   0  0  0  0  0  0  0  0  0  0  0  0
    2.4164    1.5990   -0.3886 H   0  0  0  0  0  0  0  0  0  0  0  0
    0.3359    2.7778    0.3051 H   0  0  0  0  0  0  0  0  0  0  0  0
   -0.4835    1.0508    1.7957 H   0  0  0  0  0  0  0  0  0  0  0  0
   -1.6613    1.4676    0.6719 H   0  0  0  0  0  0  0  0  0  0  0  0
    0.4212   -2.2009   -0.1655 H   0  0  0  0  0  0  0  0  0  0  0  0
    0.7331   -1.4940    1.4048 H   0  0  0  0  0  0  0  0  0  0  0  0
   -2.7744   -0.6678    1.3385 H   0  0  0  0  0  0  0  0  0  0  0  0
   -2.1101   -2.2221    0.9032 H   0  0  0  0  0  0  0  0  0  0  0  0
   -1.4806   -1.3000    2.3048 H   0  0  0  0  0  0  0  0  0  0  0  0
   -1.3630   -1.9345   -1.3271 H   0  0  0  0  0  0  0  0  0  0  0  0
   -2.2334   -0.5758   -0.9506 H   0  0  0  0  0  0  0  0  0  0  0  0
   -0.6890   -0.4023   -1.8560 H   0  0  0  0  0  0  0  0  0  0  0  0
   -2.9889    2.6759   -0.1039 H   0  0  0  0  0  0  0  0  0  0  0  0
   -4.3774    1.0492    1.1286 H   0  0  0  0  0  0  0  0  0  0  0  0
   -5.0430   -1.0849    0.0483 H   0  0  0  0  0  0  0  0  0  0  0  0
   -2.8546   -0.2381   -3.2784 H   0  0  0  0  0  0  0  0  0  0  0  0
  1 19  1  0  0  0  0
  1 20  1  0  0  0  0
  1 21  1  0  0  0  0
  2  1  1  0  0  0  0
  2  3  1  0  0  0  0
  2  7  1  0  0  0  0
  2 22  1  6  0  0  0
  3  4  1  0  0  0  0
  3 23  1  0  0  0  0
  3 24  1  0  0  0  0
  4  5  1  0  0  0  0
  4 25  1  1  0  0  0
  4 10  1  0  0  0  0
  5  6  1  0  0  0  0
  5 26  1  0  0  0  0
  5 27  1  0  0  0  0
  6  7  1  0  0  0  0
  6  8  1  0  0  0  0
  6  9  1  0  0  0  0
  7 28  1  0  0  0  0
  7 29  1  0  0  0  0
  8 30  1  0  0  0  0
  8 31  1  0  0  0  0
  8 32  1  0  0  0  0
  9 33  1  0  0  0  0
  9 34  1  0  0  0  0
  9 35  1  0  0  0  0
 10 11  1  0  0  0  0
 11 12  2  0  0  0  0
 11 13  1  0  0  0  0
 13 14  2  0  0  0  0
 13 18  1  0  0  0  0
 14 15  1  0  0  0  0
 14 36  1  0  0  0  0
 15 16  2  0  0  0  0
 15 37  1  0  0  0  0
 16 17  1  0  0  0  0
 16 38  1  0  0  0  0
 17 18  2  0  0  0  0
 18 39  1  0  0  0  0
M  END
>  <DRUGBANK_ID>
DB13709

>  <COMMON_NAME>
Ciclonicate

>  <CAS_NUMBER>
53449-58-4

>  <UNII>
7H634NXI03

>  <SYNONYMS>
Ciclonicate

$$$$
