990
 OpenBabel10282417113D

 46 49  0  0  1  0  0  0  0  0999 V2000
    3.1482   -3.9330    8.6810 O   0  0  0  0  0  0  0  0  0  0  0  0
   -3.1340   -6.9802    2.1784 O   0  0  0  0  0  0  0  0  0  0  0  0
    1.8425   -2.8427    5.9637 C   0  0  1  0  0  0  0  0  0  0  0  0
    1.2689   -3.0569    4.6102 C   0  0  1  0  0  0  0  0  0  0  0  0
    3.3243   -2.9029    6.2327 C   0  0  2  0  0  0  0  0  0  0  0  0
    1.6518   -4.5126    4.2814 C   0  0  2  0  0  0  0  0  0  0  0  0
    3.9486   -4.0772    5.3949 C   0  0  0  0  0  0  0  0  0  0  0  0
    3.2070   -4.3495    4.0049 C   0  0  0  0  0  0  0  0  0  0  0  0
    0.4443   -5.2896    3.4704 C   0  0  1  0  0  0  0  0  0  0  0  0
    1.3942   -1.6386    6.7939 C   0  0  0  0  0  0  0  0  0  0  0  0
   -0.2093   -3.0058    4.7388 C   0  0  0  0  0  0  0  0  0  0  0  0
    2.7495   -3.0784    7.8615 C   0  0  0  0  0  0  0  0  0  0  0  0
    1.2991   -2.3810    8.0757 C   0  0  0  0  0  0  0  0  0  0  0  0
    3.8595   -1.6045    5.5103 C   0  0  0  0  0  0  0  0  0  0  0  0
   -0.4770   -4.4789    2.5675 C   0  0  0  0  0  0  0  0  0  0  0  0
   -0.8958   -3.2873    3.3937 C   0  0  0  0  0  0  0  0  0  0  0  0
    1.3225   -6.0632    2.4098 C   0  0  0  0  0  0  0  0  0  0  0  0
   -0.9629   -5.7452    4.5108 C   0  0  0  0  0  0  0  0  0  0  0  0
   -1.2968   -5.3715    1.8711 C   0  0  0  0  0  0  0  0  0  0  0  0
   -2.2558   -5.8633    4.0405 C   0  0  0  0  0  0  0  0  0  0  0  0
   -1.9686   -2.5744    3.1388 C   0  0  0  0  0  0  0  0  0  0  0  0
   -2.3586   -6.0678    2.6453 C   0  0  0  0  0  0  0  0  0  0  0  0
    1.4781   -3.7887    6.4331 H   0  0  0  0  0  0  0  0  0  0  0  0
    1.6076   -2.3039    3.8968 H   0  0  0  0  0  0  0  0  0  0  0  0
    1.7105   -5.1956    5.1440 H   0  0  0  0  0  0  0  0  0  0  0  0
    5.0017   -3.8351    5.1599 H   0  0  0  0  0  0  0  0  0  0  0  0
    4.0001   -5.0100    5.9639 H   0  0  0  0  0  0  0  0  0  0  0  0
    3.3962   -3.5011    3.3224 H   0  0  0  0  0  0  0  0  0  0  0  0
    3.6953   -5.2073    3.5317 H   0  0  0  0  0  0  0  0  0  0  0  0
    0.5712   -1.0664    6.3864 H   0  0  0  0  0  0  0  0  0  0  0  0
    2.1570   -0.8913    7.0355 H   0  0  0  0  0  0  0  0  0  0  0  0
   -0.6124   -2.1277    5.2395 H   0  0  0  0  0  0  0  0  0  0  0  0
   -0.3680   -3.7207    5.5425 H   0  0  0  0  0  0  0  0  0  0  0  0
    0.4391   -3.0758    7.9924 H   0  0  0  0  0  0  0  0  0  0  0  0
    1.1352   -1.7232    8.9264 H   0  0  0  0  0  0  0  0  0  0  0  0
    3.4647   -1.5846    4.4806 H   0  0  0  0  0  0  0  0  0  0  0  0
    3.5754   -0.6300    5.9086 H   0  0  0  0  0  0  0  0  0  0  0  0
    4.9424   -1.5838    5.3672 H   0  0  0  0  0  0  0  0  0  0  0  0
    1.6318   -7.0571    2.7128 H   0  0  0  0  0  0  0  0  0  0  0  0
    0.9723   -6.0734    1.3686 H   0  0  0  0  0  0  0  0  0  0  0  0
    2.2274   -5.4767    2.1902 H   0  0  0  0  0  0  0  0  0  0  0  0
   -1.1887   -5.1708    5.4201 H   0  0  0  0  0  0  0  0  0  0  0  0
   -0.8551   -6.3163    1.4905 H   0  0  0  0  0  0  0  0  0  0  0  0
   -3.1814   -5.4969    4.5175 H   0  0  0  0  0  0  0  0  0  0  0  0
   -2.2939   -1.8327    3.8695 H   0  0  0  0  0  0  0  0  0  0  0  0
   -2.6021   -2.7910    2.2876 H   0  0  0  0  0  0  0  0  0  0  0  0
  1 12  2  0  0  0  0
  2 22  2  0  0  0  0
  3  4  1  0  0  0  0
  3  5  1  0  0  0  0
  3 10  1  0  0  0  0
  3 23  1  1  0  0  0
  4  6  1  0  0  0  0
  4 11  1  0  0  0  0
  4 24  1  6  0  0  0
  5  7  1  0  0  0  0
  5 12  1  0  0  0  0
  5 14  1  6  0  0  0
  6  8  1  0  0  0  0
  6  9  1  0  0  0  0
  6 25  1  1  0  0  0
  7  8  1  0  0  0  0
  7 26  1  0  0  0  0
  7 27  1  0  0  0  0
  8 28  1  0  0  0  0
  8 29  1  0  0  0  0
  9 15  1  0  0  0  0
  9 17  1  6  0  0  0
  9 18  1  0  0  0  0
 10 13  1  0  0  0  0
 10 30  1  0  0  0  0
 10 31  1  0  0  0  0
 11 16  1  0  0  0  0
 11 32  1  0  0  0  0
 11 33  1  0  0  0  0
 12 13  1  0  0  0  0
 13 34  1  0  0  0  0
 13 35  1  0  0  0  0
 14 36  1  0  0  0  0
 14 37  1  0  0  0  0
 14 38  1  0  0  0  0
 15 16  1  0  0  0  0
 15 19  2  0  0  0  0
 16 21  2  0  0  0  0
 17 39  1  0  0  0  0
 17 40  1  0  0  0  0
 17 41  1  0  0  0  0
 18 20  2  0  0  0  0
 18 42  1  0  0  0  0
 19 22  1  0  0  0  0
 19 43  1  0  0  0  0
 20 22  1  0  0  0  0
 20 44  1  0  0  0  0
 21 45  1  0  0  0  0
 21 46  1  0  0  0  0
M  END
>  <DRUGBANK_ID>
DB00990

>  <SECONDARY_ACCESSION_NUMBERS>
APRD00144

>  <COMMON_NAME>
Exemestane

>  <CAS_NUMBER>
107868-30-4

>  <UNII>
NY22HMQ4BX

>  <SYNONYMS>
6-methyleneandrosta-1,4-diene-3,17-dione; Exemestane; Exemestano; Exemestanum

$$$$
