
 OpenBabel10282417123D

  8  7  0  0  0  0  0  0  0  0999 V2000
    1.0345   -0.0757   -0.1102 C   0  0  0  0  0  0  0  0  0  0  0  0
    0.7274    0.9526   -1.6061 P   0  0  3  0  0  0  0  0  0  0  0  0
    0.0760    2.2041   -1.0606 O   0  0  0  0  0  0  0  0  0  0  0  0
    2.0970    1.0539   -2.2630 O   0  5  0  0  0  0  0  0  0  0  0  0
    0.5818   -1.0696   -0.1619 H   0  0  0  0  0  0  0  0  0  0  0  0
    0.6454    0.4502    0.7669 H   0  0  0  0  0  0  0  0  0  0  0  0
    2.1151   -0.1826    0.0214 H   0  0  0  0  0  0  0  0  0  0  0  0
   -0.1682    0.2779   -2.4702 H   0  0  0  0  0  0  0  0  0  0  0  0
  1  2  1  0  0  0  0
  1  5  1  0  0  0  0
  1  6  1  0  0  0  0
  1  7  1  0  0  0  0
  2  3  2  0  0  0  0
  2  4  1  0  0  0  0
  2  8  1  0  0  0  0
M  CHG  1   4  -1
M  END
>  <DRUGBANK_ID>
DB02825

>  <SECONDARY_ACCESSION_NUMBERS>
EXPT03237

>  <COMMON_NAME>
Methylphosphinate

$$$$
