
 OpenBabel10282417163D

 36 37  0  0  0  0  0  0  0  0999 V2000
    1.3848   -0.2613   -0.0053 C   0  0  0  0  0  0  0  0  0  0  0  0
    0.4794   -1.3155    0.0039 C   0  0  0  0  0  0  0  0  0  0  0  0
   -4.5666    4.3223   -0.4687 C   0  0  0  0  0  0  0  0  0  0  0  0
    0.9112    1.0409    0.0244 C   0  0  0  0  0  0  0  0  0  0  0  0
   -3.6262    3.9450   -1.4231 C   0  0  0  0  0  0  0  0  0  0  0  0
   -4.9777    3.4048    0.4951 C   0  0  0  0  0  0  0  0  0  0  0  0
   -0.8995   -1.0619   -0.0381 C   0  0  0  0  0  0  0  0  0  0  0  0
   -0.8613    2.6994    0.5219 C   0  0  0  0  0  0  0  0  0  0  0  0
   -0.0726    2.8277    4.0753 C   0  0  0  0  0  0  0  0  0  0  0  0
   -0.4659    1.2967    0.1470 C   0  0  0  0  0  0  0  0  0  0  0  0
   -3.1240    2.6360   -1.4470 C   0  0  0  0  0  0  0  0  0  0  0  0
   -4.3977    2.1281    0.5424 C   0  0  0  0  0  0  0  0  0  0  0  0
   -1.4007    0.2525   -0.0144 C   0  0  0  0  0  0  0  0  0  0  0  0
    1.4423    2.9027    4.0510 C   0  0  0  0  0  0  0  0  0  0  0  0
   -0.2850    3.1970    1.7949 C   0  0  0  0  0  0  0  0  0  0  0  0
   -3.4821    1.6935   -0.4488 C   0  0  0  0  0  0  0  0  0  0  0  0
   -1.9483    2.2865   -2.6768 Cl  0  0  0  0  0  0  0  0  0  0  0  0
   -4.6487    1.2088    1.9928 Cl  0  0  0  0  0  0  0  0  0  0  0  0
   -2.7794    0.4649   -0.2865 N   0  0  0  0  0  0  0  0  0  0  0  0
    2.1288    3.8870    4.2847 O   0  0  0  0  0  0  0  0  0  0  0  0
    2.0166    1.7261    3.7224 O   0  0  0  0  0  0  0  0  0  0  0  0
    0.3126    4.2674    1.8836 O   0  0  0  0  0  0  0  0  0  0  0  0
   -0.6083    2.3837    2.8366 O   0  0  0  0  0  0  0  0  0  0  0  0
    2.4556   -0.4446   -0.0016 H   0  0  0  0  0  0  0  0  0  0  0  0
    0.8506   -2.3369    0.0103 H   0  0  0  0  0  0  0  0  0  0  0  0
   -4.9514    5.3399   -0.4588 H   0  0  0  0  0  0  0  0  0  0  0  0
    1.6150    1.8706   -0.0151 H   0  0  0  0  0  0  0  0  0  0  0  0
   -3.2590    4.6831   -2.1336 H   0  0  0  0  0  0  0  0  0  0  0  0
   -5.7053    3.7103    1.2446 H   0  0  0  0  0  0  0  0  0  0  0  0
   -1.5765   -1.9121   -0.0800 H   0  0  0  0  0  0  0  0  0  0  0  0
   -0.6233    3.3921   -0.2887 H   0  0  0  0  0  0  0  0  0  0  0  0
   -1.9110    2.7932    0.7619 H   0  0  0  0  0  0  0  0  0  0  0  0
   -0.5022    3.8014    4.3352 H   0  0  0  0  0  0  0  0  0  0  0  0
   -0.3717    2.1214    4.8565 H   0  0  0  0  0  0  0  0  0  0  0  0
   -3.3805   -0.3237   -0.0691 H   0  0  0  0  0  0  0  0  0  0  0  0
    2.9752    1.9232    3.6888 H   0  0  0  0  0  0  0  0  0  0  0  0
  1 24  1  0  0  0  0
  2  1  2  0  0  0  0
  2 25  1  0  0  0  0
  3 26  1  0  0  0  0
  4  1  1  0  0  0  0
  4 27  1  0  0  0  0
  5  3  2  0  0  0  0
  5 28  1  0  0  0  0
  6  3  1  0  0  0  0
  6 29  1  0  0  0  0
  7  2  1  0  0  0  0
  7 30  1  0  0  0  0
  8 31  1  0  0  0  0
  8 32  1  0  0  0  0
  9 33  1  0  0  0  0
  9 34  1  0  0  0  0
 10  4  2  0  0  0  0
 10  8  1  0  0  0  0
 11  5  1  0  0  0  0
 12  6  2  0  0  0  0
 13  7  2  0  0  0  0
 13 10  1  0  0  0  0
 14  9  1  0  0  0  0
 15  8  1  0  0  0  0
 16 11  2  0  0  0  0
 16 12  1  0  0  0  0
 17 11  1  0  0  0  0
 18 12  1  0  0  0  0
 19 13  1  0  0  0  0
 19 16  1  0  0  0  0
 19 35  1  0  0  0  0
 20 14  2  0  0  0  0
 21 14  1  0  0  0  0
 21 36  1  0  0  0  0
 22 15  2  0  0  0  0
 23  9  1  0  0  0  0
 23 15  1  0  0  0  0
M  END
>  <DRUGBANK_ID>
DB06736

>  <COMMON_NAME>
Aceclofenac

>  <CAS_NUMBER>
89796-99-6

>  <UNII>
RPK779R03H

>  <SYNONYMS>
2-[(2,6-dichlorophenyl)amino]benzeneacetic acid carboxymethyl ester; 2-[(2,6-dichlorophenyl)amino]phenylacetoxyacetic acid; 2-[(2',6'-dichlorophenyl)amino]phenylacetoxyacetic acid; Aceclofenac; Acéclofénac; Aceclofenac betadex; Aceclofenaco; Aceclofenacum; glycolic acid [o-(2,6-dichloroanilino)phenyl]acetate ester

$$$$
