
 OpenBabel10282417143D

 25 26  0  0  0  0  0  0  0  0999 V2000
   -0.3460   -0.7368    1.1952 O   0  0  0  0  0  0  0  0  0  0  0  0
   -1.7600   -1.3328    1.1931 C   0  0  2  0  0  0  0  0  0  0  0  0
   -2.3780   -2.2417    2.2988 N   0  0  0  0  0  0  0  0  0  0  0  0
   -1.7166   -0.4945    2.4972 C   0  0  0  0  0  0  0  0  0  0  0  0
   -0.8227   -1.4137    3.4291 C   0  0  0  0  0  0  0  0  0  0  0  0
   -1.3348   -2.8373    3.1037 C   0  0  2  0  0  0  0  0  0  0  0  0
   -1.0263   -2.4312    0.1791 C   0  0  1  0  0  0  0  0  0  0  0  0
   -0.3115   -1.7260   -0.8899 O   0  0  0  0  0  0  0  0  0  0  0  0
   -0.0944   -3.4181    0.9982 C   0  0  2  0  0  0  0  0  0  0  0  0
    0.4012   -4.5686    0.3035 O   0  0  0  0  0  0  0  0  0  0  0  0
   -1.0575   -3.9184    2.0431 C   0  0  1  0  0  0  0  0  0  0  0  0
   -0.9001   -5.2313    2.5695 O   0  0  0  0  0  0  0  0  0  0  0  0
   -1.5119   -3.3408    4.0615 H   0  0  0  0  0  0  0  0  0  0  0  0
   -0.3460   -0.1317    0.4308 H   0  0  0  0  0  0  0  0  0  0  0  0
   -3.1926   -2.8069    2.0941 H   0  0  0  0  0  0  0  0  0  0  0  0
   -2.7245   -0.2940    2.9304 H   0  0  0  0  0  0  0  0  0  0  0  0
   -1.3684    0.5471    2.3685 H   0  0  0  0  0  0  0  0  0  0  0  0
   -1.0307   -1.1176    4.4635 H   0  0  0  0  0  0  0  0  0  0  0  0
    0.2553   -1.2721    3.2702 H   0  0  0  0  0  0  0  0  0  0  0  0
   -1.7768   -3.0063   -0.3798 H   0  0  0  0  0  0  0  0  0  0  0  0
    0.1476   -2.3882   -1.4365 H   0  0  0  0  0  0  0  0  0  0  0  0
    0.7742   -2.9184    1.4374 H   0  0  0  0  0  0  0  0  0  0  0  0
    0.5041   -5.2388    1.0238 H   0  0  0  0  0  0  0  0  0  0  0  0
   -1.9661   -4.1392    1.4392 H   0  0  0  0  0  0  0  0  0  0  0  0
   -1.8206   -5.4794    2.8407 H   0  0  0  0  0  0  0  0  0  0  0  0
  1 14  1  0  0  0  0
  2  3  1  0  0  0  0
  2  4  1  0  0  0  0
  2  7  1  0  0  0  0
  2  1  1  6  0  0  0
  3 15  1  0  0  0  0
  4 16  1  0  0  0  0
  4 17  1  0  0  0  0
  5  4  1  0  0  0  0
  5 18  1  0  0  0  0
  5 19  1  0  0  0  0
  6  3  1  0  0  0  0
  6  5  1  0  0  0  0
  6 13  1  1  0  0  0
  7  9  1  0  0  0  0
  7 20  1  6  0  0  0
  7  8  1  0  0  0  0
  8 21  1  0  0  0  0
  9 11  1  0  0  0  0
  9 10  1  0  0  0  0
  9 22  1  1  0  0  0
 10 23  1  0  0  0  0
 11  6  1  0  0  0  0
 11 12  1  0  0  0  0
 11 24  1  6  0  0  0
 12 25  1  0  0  0  0
M  END
>  <DRUGBANK_ID>
DB04658

>  <COMMON_NAME>
Calystegine B2

>  <CAS_NUMBER>
127414-85-1

>  <UNII>
7LZN33KW88

>  <SYNONYMS>
Calystegine B(2)

$$$$
