592
 OpenBabel10282417103D

 16 16  0  0  0  0  0  0  0  0999 V2000
   -1.4717    0.0702    0.1773 N   0  0  0  0  0  0  0  0  0  0  0  0
    1.4712   -0.0703   -0.1769 N   0  0  0  0  0  0  0  0  0  0  0  0
   -0.7875   -1.1671   -0.2413 C   0  0  0  0  0  0  0  0  0  0  0  0
   -0.6732    1.2324   -0.2538 C   0  0  0  0  0  0  0  0  0  0  0  0
    0.6733   -1.2330    0.2541 C   0  0  0  0  0  0  0  0  0  0  0  0
    0.7869    1.1663    0.2433 C   0  0  0  0  0  0  0  0  0  0  0  0
   -1.4992    0.0767    1.1975 H   0  0  0  0  0  0  0  0  0  0  0  0
    1.4979   -0.0759   -1.1972 H   0  0  0  0  0  0  0  0  0  0  0  0
   -1.3436   -2.0275    0.1469 H   0  0  0  0  0  0  0  0  0  0  0  0
   -0.8149   -1.2406   -1.3355 H   0  0  0  0  0  0  0  0  0  0  0  0
   -0.6917    1.2947   -1.3489 H   0  0  0  0  0  0  0  0  0  0  0  0
   -1.1462    2.1460    0.1226 H   0  0  0  0  0  0  0  0  0  0  0  0
    0.6929   -1.2958    1.3490 H   0  0  0  0  0  0  0  0  0  0  0  0
    1.1461   -2.1463   -0.1233 H   0  0  0  0  0  0  0  0  0  0  0  0
    0.8129    1.2376    1.3376 H   0  0  0  0  0  0  0  0  0  0  0  0
    1.3435    2.0274   -0.1425 H   0  0  0  0  0  0  0  0  0  0  0  0
  1  3  1  0  0  0  0
  1  4  1  0  0  0  0
  1  7  1  0  0  0  0
  2  5  1  0  0  0  0
  2  6  1  0  0  0  0
  2  8  1  0  0  0  0
  3  5  1  0  0  0  0
  3  9  1  0  0  0  0
  3 10  1  0  0  0  0
  4  6  1  0  0  0  0
  4 11  1  0  0  0  0
  4 12  1  0  0  0  0
  5 13  1  0  0  0  0
  5 14  1  0  0  0  0
  6 15  1  0  0  0  0
  6 16  1  0  0  0  0
M  END
>  <DRUGBANK_ID>
DB00592

>  <SECONDARY_ACCESSION_NUMBERS>
APRD00225; DB11514

>  <COMMON_NAME>
Piperazine

>  <CAS_NUMBER>
110-85-0

>  <UNII>
1RTM4PAL0V

>  <SYNONYMS>
Diethylenediamine; Piperazidine; Piperazin; Piperazina; Piperazine

$$$$
