
 OpenBabel10282417203D

118122  0  0  0  0  0  0  0  0999 V2000
    1.5259   -0.8122   -0.1262 C   0  0  0  0  0  0  0  0  0  0  0  0
    2.3405    0.4253   -0.3368 C   0  0  0  0  0  0  0  0  0  0  0  0
    4.1410    0.4685   -0.3396 C   0  0  0  0  0  0  0  0  0  0  0  0
    2.1941   -4.5762    1.1912 C   0  0  0  0  0  0  0  0  0  0  0  0
    2.1524   -2.7601   -0.1332 C   0  0  0  0  0  0  0  0  0  0  0  0
    0.1633    1.2017   -0.0193 C   0  0  0  0  0  0  0  0  0  0  0  0
    0.0715   -0.1361    0.0799 C   0  0  0  0  0  0  0  0  0  0  0  0
    1.5209    1.5634   -0.1195 N   0  0  0  0  0  0  0  0  0  0  0  0
   -1.1126    1.7815   -0.0185 C   0  0  0  0  0  0  0  0  0  0  0  0
   -1.3252   -0.7975    0.1410 C   0  0  0  0  0  0  0  0  0  0  0  0
   -2.3746    1.0005   -0.0238 C   0  0  0  0  0  0  0  0  0  0  0  0
   -2.5197   -0.3330    0.0185 C   0  0  0  0  0  0  0  0  0  0  0  0
   -3.4591   -1.2930   -0.0213 O   0  0  0  0  0  0  0  0  0  0  0  0
   -4.6933   -0.6636    0.0044 C   0  0  0  0  0  0  0  0  0  0  0  0
    0.8475   -5.6780    1.1154 O   0  0  0  0  0  0  0  0  0  0  0  0
    2.3585   -4.7663    2.4412 O   0  0  0  0  0  0  0  0  0  0  0  0
    2.0422    2.8643   -0.0816 C   0  0  0  0  0  0  0  0  0  0  0  0
    3.5087    3.1569   -0.1834 C   0  0  0  0  0  0  0  0  0  0  0  0
    4.3392    2.6958   -1.2577 C   0  0  0  0  0  0  0  0  0  0  0  0
    5.7459    2.5627   -1.0585 C   0  0  0  0  0  0  0  0  0  0  0  0
    6.3181    3.1462    0.0640 C   0  0  0  0  0  0  0  0  0  0  0  0
    5.5042    3.7878    1.0032 C   0  0  0  0  0  0  0  0  0  0  0  0
    4.1098    3.6633    0.9662 C   0  0  0  0  0  0  0  0  0  0  0  0
    8.0212    3.0748    0.2890 Cl  0  0  0  0  0  0  0  0  0  0  0  0
    1.2436    3.7835    0.0523 O   0  0  0  0  0  0  0  0  0  0  0  0
   -0.0973   -5.9173   -0.3521 C   0  0  0  0  0  0  0  0  0  0  0  0
   -0.9343   -4.4218   -1.2563 C   0  0  0  0  0  0  0  0  0  0  0  0
   -0.0305   -3.3501   -1.8004 N   0  0  0  0  0  0  0  0  0  0  0  0
    1.0410   -4.1185   -1.4468 C   0  0  0  0  0  0  0  0  0  0  0  0
    0.5697   -3.9304    0.2390 C   0  0  0  0  0  0  0  0  0  0  0  0
    1.1872   -3.0209    1.6270 N   0  0  0  0  0  0  0  0  0  0  0  0
    0.1801   -2.1682    1.0346 C   0  0  0  0  0  0  0  0  0  0  0  0
    0.0866   -2.1469   -1.0172 C   0  0  0  0  0  0  0  0  0  0  0  0
    3.1474   -2.8986    1.8369 C   0  0  0  0  0  0  0  0  0  0  0  0
    4.1312   -2.6669    0.7577 C   0  0  0  0  0  0  0  0  0  0  0  0
    3.5022   -1.3309    0.7069 C   0  0  0  0  0  0  0  0  0  0  0  0
    3.4685   -0.2145    1.7704 O   0  0  0  0  0  0  0  0  0  0  0  0
    2.5519    0.0465    2.7632 C   0  0  0  0  0  0  0  0  0  0  0  0
    1.8473   -1.1269    3.3281 C   0  0  0  0  0  0  0  0  0  0  0  0
    2.7067   -2.0616    4.1023 C   0  0  0  0  0  0  0  0  0  0  0  0
    2.9830   -1.1577    5.2274 C   0  0  3  0  0  0  0  0  0  0  0  0
    1.5737   -0.9505    5.8368 C   0  0  0  0  0  0  0  0  0  0  0  0
    1.3307   -1.6030    7.0156 N   0  0  0  0  0  0  0  0  0  0  0  0
    0.0473   -1.3249    7.6236 C   0  0  0  0  0  0  0  0  0  0  0  0
   -0.6480   -2.5971    8.0650 C   0  0  0  0  0  0  0  0  0  0  0  0
    2.5763    1.1298    3.3208 O   0  0  0  0  0  0  0  0  0  0  0  0
    4.0583   -1.6169    6.0551 N   0  0  0  0  0  0  0  0  0  0  0  0
    5.3550   -1.3670    6.1243 C   0  0  0  0  0  0  0  0  0  0  0  0
    6.0725   -2.2936    7.1010 C   0  0  0  0  0  0  0  0  0  0  0  0
    6.1895   -3.7086    7.0879 C   0  0  0  0  0  0  0  0  0  0  0  0
    6.8617   -4.3793    8.1293 C   0  0  0  0  0  0  0  0  0  0  0  0
    7.5457   -3.6376    9.0836 C   0  0  0  0  0  0  0  0  0  0  0  0
    7.5274   -2.2478    9.0127 C   0  0  0  0  0  0  0  0  0  0  0  0
    6.6928   -1.5927    8.1152 C   0  0  0  0  0  0  0  0  0  0  0  0
    5.8367   -0.3987    5.5750 O   0  0  0  0  0  0  0  0  0  0  0  0
    0.6331   -0.4064    5.2452 O   0  0  0  0  0  0  0  0  0  0  0  0
    2.3510   -2.3387    7.7552 C   0  0  0  0  0  0  0  0  0  0  0  0
    2.7025   -3.8584    7.1611 C   0  0  0  0  0  0  0  0  0  0  0  0
    3.1694   -4.0260    5.7316 C   0  0  0  0  0  0  0  0  0  0  0  0
    0.1261   -3.3558    9.1219 C   0  0  0  0  0  0  0  0  0  0  0  0
    4.7900   -0.0871    0.4158 H   0  0  0  0  0  0  0  0  0  0  0  0
    4.5706   -0.0938   -1.1848 H   0  0  0  0  0  0  0  0  0  0  0  0
    4.4712    1.2605    0.2832 H   0  0  0  0  0  0  0  0  0  0  0  0
    2.1406   -2.7272   -1.2089 H   0  0  0  0  0  0  0  0  0  0  0  0
    3.0508   -2.7324   -0.7871 H   0  0  0  0  0  0  0  0  0  0  0  0
   -1.1857    2.8459   -0.0456 H   0  0  0  0  0  0  0  0  0  0  0  0
   -1.5084   -1.9023    0.0596 H   0  0  0  0  0  0  0  0  0  0  0  0
   -3.2941    1.5329   -0.0401 H   0  0  0  0  0  0  0  0  0  0  0  0
   -4.7273   -0.0657    0.9176 H   0  0  0  0  0  0  0  0  0  0  0  0
   -4.7512   -0.0616   -0.9026 H   0  0  0  0  0  0  0  0  0  0  0  0
   -5.4714   -1.4188    0.0168 H   0  0  0  0  0  0  0  0  0  0  0  0
    3.8945    2.0934   -2.0599 H   0  0  0  0  0  0  0  0  0  0  0  0
    6.3493    1.8889   -1.6770 H   0  0  0  0  0  0  0  0  0  0  0  0
    5.9491    4.4114    1.7676 H   0  0  0  0  0  0  0  0  0  0  0  0
    3.5000    3.9366    1.8274 H   0  0  0  0  0  0  0  0  0  0  0  0
    0.8105   -6.3036   -0.8685 H   0  0  0  0  0  0  0  0  0  0  0  0
   -0.8376   -6.5662    0.0332 H   0  0  0  0  0  0  0  0  0  0  0  0
   -1.2210   -4.6788   -2.2569 H   0  0  0  0  0  0  0  0  0  0  0  0
   -1.6623   -3.8828   -0.6328 H   0  0  0  0  0  0  0  0  0  0  0  0
    0.9668   -4.9589   -2.1135 H   0  0  0  0  0  0  0  0  0  0  0  0
    2.1745   -4.2808   -1.4850 H   0  0  0  0  0  0  0  0  0  0  0  0
   -0.4180   -4.1878    0.6967 H   0  0  0  0  0  0  0  0  0  0  0  0
    1.3251   -4.7500   -0.1415 H   0  0  0  0  0  0  0  0  0  0  0  0
   -0.7893   -2.4687    1.5419 H   0  0  0  0  0  0  0  0  0  0  0  0
    0.2017   -1.2363    1.6706 H   0  0  0  0  0  0  0  0  0  0  0  0
    0.9882   -1.7392   -1.6050 H   0  0  0  0  0  0  0  0  0  0  0  0
   -0.3063   -1.2355   -1.5611 H   0  0  0  0  0  0  0  0  0  0  0  0
    3.5352   -2.0909    2.3956 H   0  0  0  0  0  0  0  0  0  0  0  0
    3.7295   -3.7368    2.2306 H   0  0  0  0  0  0  0  0  0  0  0  0
    5.1267   -2.3898    0.5181 H   0  0  0  0  0  0  0  0  0  0  0  0
    3.9966   -3.5811    0.1035 H   0  0  0  0  0  0  0  0  0  0  0  0
    3.3875   -1.1943   -0.4809 H   0  0  0  0  0  0  0  0  0  0  0  0
    2.5331   -1.4301    1.0660 H   0  0  0  0  0  0  0  0  0  0  0  0
    0.7749   -1.3186    3.4884 H   0  0  0  0  0  0  0  0  0  0  0  0
    1.7460   -1.5286    2.4297 H   0  0  0  0  0  0  0  0  0  0  0  0
    2.0845   -2.9731    4.0097 H   0  0  0  0  0  0  0  0  0  0  0  0
    3.7133   -2.4793    3.8538 H   0  0  0  0  0  0  0  0  0  0  0  0
    3.4385   -0.3008    4.7659 H   0  0  0  0  0  0  0  0  0  0  0  0
    0.2385   -0.6357    8.4495 H   0  0  0  0  0  0  0  0  0  0  0  0
   -0.6186   -0.7859    6.9305 H   0  0  0  0  0  0  0  0  0  0  0  0
   -1.6134   -2.3290    8.4929 H   0  0  0  0  0  0  0  0  0  0  0  0
   -0.8129   -3.2371    7.1901 H   0  0  0  0  0  0  0  0  0  0  0  0
    3.9105   -2.4156    6.5968 H   0  0  0  0  0  0  0  0  0  0  0  0
    5.8212   -4.3301    6.2755 H   0  0  0  0  0  0  0  0  0  0  0  0
    6.9089   -5.4683    8.1845 H   0  0  0  0  0  0  0  0  0  0  0  0
    8.1074   -4.1348    9.8712 H   0  0  0  0  0  0  0  0  0  0  0  0
    8.1778   -1.6565    9.6456 H   0  0  0  0  0  0  0  0  0  0  0  0
    6.5516   -0.5181    8.1556 H   0  0  0  0  0  0  0  0  0  0  0  0
    3.1895   -1.6523    7.9192 H   0  0  0  0  0  0  0  0  0  0  0  0
    2.1252   -2.3629    8.8100 H   0  0  0  0  0  0  0  0  0  0  0  0
    3.4683   -4.3004    7.7752 H   0  0  0  0  0  0  0  0  0  0  0  0
    1.7638   -4.4209    7.1124 H   0  0  0  0  0  0  0  0  0  0  0  0
    4.1166   -3.5869    5.3866 H   0  0  0  0  0  0  0  0  0  0  0  0
    3.2028   -4.9093    5.1098 H   0  0  0  0  0  0  0  0  0  0  0  0
    2.2944   -3.4881    5.4568 H   0  0  0  0  0  0  0  0  0  0  0  0
    0.4140   -2.6947    9.9470 H   0  0  0  0  0  0  0  0  0  0  0  0
   -0.3686   -4.2510    9.4655 H   0  0  0  0  0  0  0  0  0  0  0  0
    1.0224   -3.7950    8.7211 H   0  0  0  0  0  0  0  0  0  0  0  0
  1  2  2  0  0  0  0
  2  3  1  0  0  0  0
  3 61  1  0  0  0  0
  3 62  1  0  0  0  0
  3 63  1  0  0  0  0
  4  5  1  0  0  0  0
  4 15  1  0  0  0  0
  4 16  2  0  0  0  0
  5  1  1  0  0  0  0
  5 64  1  0  0  0  0
  5 65  1  0  0  0  0
  6  7  2  0  0  0  0
  6  8  1  0  0  0  0
  6  9  1  0  0  0  0
  7  1  1  0  0  0  0
  7 10  1  0  0  0  0
  8  2  1  0  0  0  0
  8 17  1  0  0  0  0
  9 11  2  0  0  0  0
  9 66  1  0  0  0  0
 10 12  2  0  0  0  0
 10 67  1  0  0  0  0
 11 12  1  0  0  0  0
 11 68  1  0  0  0  0
 12 13  1  0  0  0  0
 13 14  1  0  0  0  0
 14 69  1  0  0  0  0
 14 70  1  0  0  0  0
 14 71  1  0  0  0  0
 15 26  1  0  0  0  0
 17 18  1  0  0  0  0
 17 25  2  0  0  0  0
 18 19  2  0  0  0  0
 18 23  1  0  0  0  0
 19 20  1  0  0  0  0
 19 72  1  0  0  0  0
 20 21  2  0  0  0  0
 20 73  1  0  0  0  0
 21 22  1  0  0  0  0
 21 24  1  0  0  0  0
 22 23  2  0  0  0  0
 22 74  1  0  0  0  0
 23 75  1  0  0  0  0
 26 27  1  0  0  0  0
 26 76  1  0  0  0  0
 26 77  1  0  0  0  0
 27 28  1  0  0  0  0
 27 78  1  0  0  0  0
 27 79  1  0  0  0  0
 28 29  1  0  0  0  0
 29 30  1  0  0  0  0
 29 80  1  0  0  0  0
 29 81  1  0  0  0  0
 30 31  1  0  0  0  0
 30 82  1  0  0  0  0
 30 83  1  0  0  0  0
 31 32  1  0  0  0  0
 31 34  1  0  0  0  0
 32 33  1  0  0  0  0
 32 84  1  0  0  0  0
 32 85  1  0  0  0  0
 33 28  1  0  0  0  0
 33 86  1  0  0  0  0
 33 87  1  0  0  0  0
 34 35  1  0  0  0  0
 34 88  1  0  0  0  0
 34 89  1  0  0  0  0
 35 36  1  0  0  0  0
 35 90  1  0  0  0  0
 35 91  1  0  0  0  0
 36 37  1  0  0  0  0
 36 92  1  0  0  0  0
 36 93  1  0  0  0  0
 37 38  1  0  0  0  0
 38 39  1  0  0  0  0
 38 46  2  0  0  0  0
 39 40  1  0  0  0  0
 39 94  1  0  0  0  0
 39 95  1  0  0  0  0
 40 41  1  0  0  0  0
 40 96  1  0  0  0  0
 40 97  1  0  0  0  0
 41 42  1  0  0  0  0
 41 47  1  0  0  0  0
 41 98  1  0  0  0  0
 42 43  1  0  0  0  0
 42 56  2  0  0  0  0
 43 44  1  0  0  0  0
 43 57  1  0  0  0  0
 44 45  1  0  0  0  0
 44 99  1  0  0  0  0
 44100  1  0  0  0  0
 45 60  1  0  0  0  0
 45101  1  0  0  0  0
 45102  1  0  0  0  0
 47 48  1  0  0  0  0
 47103  1  0  0  0  0
 48 49  1  0  0  0  0
 48 55  2  0  0  0  0
 49 50  2  0  0  0  0
 50 51  1  0  0  0  0
 50104  1  0  0  0  0
 51 52  2  0  0  0  0
 51105  1  0  0  0  0
 52 53  1  0  0  0  0
 52106  1  0  0  0  0
 53 54  2  0  0  0  0
 53107  1  0  0  0  0
 54 49  1  0  0  0  0
 54108  1  0  0  0  0
 57 58  1  0  0  0  0
 57109  1  0  0  0  0
 57110  1  0  0  0  0
 58 59  1  0  0  0  0
 58111  1  0  0  0  0
 58112  1  0  0  0  0
 59113  1  0  0  0  0
 59114  1  0  0  0  0
 59115  1  0  0  0  0
 60116  1  0  0  0  0
 60117  1  0  0  0  0
 60118  1  0  0  0  0
M  END
>  <DRUGBANK_ID>
DB13527

>  <COMMON_NAME>
Proglumetacin

>  <CAS_NUMBER>
57132-53-3

>  <UNII>
FV919079LU

>  <SYNONYMS>
Proglumetacin; Proglumetacina; Proglum√©tacine

$$$$
