
 OpenBabel10282417233D

 75 78  0  0  1  0  0  0  0  0999 V2000
   -4.9481   10.3224    2.0446 C   0  0  0  0  0  0  0  0  0  0  0  0
   -5.5390   10.9914    0.5414 O   0  0  0  0  0  0  0  0  0  0  0  0
   -6.6802   11.3303   -0.8677 C   0  0  0  0  0  0  0  0  0  0  0  0
   -7.8219   12.1676   -0.5107 C   0  0  0  0  0  0  0  0  0  0  0  0
   -8.8148   12.7620   -1.2454 C   0  0  0  0  0  0  0  0  0  0  0  0
   -8.8928   12.3147   -2.5920 C   0  0  0  0  0  0  0  0  0  0  0  0
   -7.7623   11.5300   -3.2591 C   0  0  0  0  0  0  0  0  0  0  0  0
   -6.6377   10.8597   -2.4448 C   0  0  0  0  0  0  0  0  0  0  0  0
   -6.6725    9.0024   -2.8878 C   0  0  0  0  0  0  0  0  0  0  0  0
   -8.2411    7.9872   -2.4673 C   0  0  0  0  0  0  0  0  0  0  0  0
   -9.6954    8.4402   -1.7781 C   0  0  0  0  0  0  0  0  0  0  0  0
   -8.9223    8.8325   -0.6693 N   0  0  0  0  0  0  0  0  0  0  0  0
   -8.3256    9.8022   -1.3144 C   0  0  0  0  0  0  0  0  0  0  0  0
   -8.7403    7.5515   -0.2611 C   0  0  0  0  0  0  0  0  0  0  0  0
   -8.1721    7.0016   -1.3942 C   0  0  0  0  0  0  0  0  0  0  0  0
   -7.7813    5.7187   -1.1947 C   0  0  0  0  0  0  0  0  0  0  0  0
   -8.5928    5.0454   -0.2575 C   0  0  0  0  0  0  0  0  0  0  0  0
   -9.3703    5.6999    0.7322 C   0  0  0  0  0  0  0  0  0  0  0  0
   -9.4435    7.0467    0.7455 C   0  0  0  0  0  0  0  0  0  0  0  0
   -8.8541    3.6123   -0.3145 C   0  0  0  0  0  0  0  0  0  0  0  0
   -9.5264    3.0807    0.5644 O   0  0  0  0  0  0  0  0  0  0  0  0
   -8.4396    2.8631   -1.3639 N   0  0  0  0  0  0  0  0  0  0  0  0
   -7.6531    3.1402   -2.5508 C   0  0  0  0  0  0  0  0  0  0  0  0
   -6.2790    2.4994   -2.4429 C   0  0  2  0  0  0  0  0  0  0  0  0
   -5.3906    2.9915   -3.5905 C   0  0  0  0  0  0  0  0  0  0  0  0
   -6.5740    1.0054   -2.4845 C   0  0  0  0  0  0  0  0  0  0  0  0
   -5.3653    0.1385   -2.3547 C   0  0  0  0  0  0  0  0  0  0  0  0
   -4.7188    0.4059   -1.2024 F   0  0  0  0  0  0  0  0  0  0  0  0
   -5.7479   -1.1544   -2.3411 F   0  0  0  0  0  0  0  0  0  0  0  0
   -4.5029    0.2946   -3.3725 F   0  0  0  0  0  0  0  0  0  0  0  0
   -9.7582   13.3782   -0.2452 C   0  0  0  0  0  0  0  0  0  0  0  0
  -10.9040   13.6480   -0.5675 O   0  0  0  0  0  0  0  0  0  0  0  0
   -9.2683   13.6708    1.1156 N   0  0  0  0  0  0  0  0  0  0  0  0
   -7.8780   13.3865    2.1371 S   0  0  0  0  0  0  0  0  0  0  0  0
   -7.1626   14.6375    2.2497 O   0  0  0  0  0  0  0  0  0  0  0  0
   -8.3763   12.7446    3.3380 O   0  0  0  0  0  0  0  0  0  0  0  0
   -6.6628   12.2057    1.4491 C   0  0  0  0  0  0  0  0  0  0  0  0
   -5.3564   12.8229    0.2968 C   0  0  0  0  0  0  0  0  0  0  0  0
   -4.4059   11.6254   -0.7568 C   0  0  0  0  0  0  0  0  0  0  0  0
   -4.7798    9.8185   -0.6481 C   0  0  0  0  0  0  0  0  0  0  0  0
   -6.1571    9.2280    0.4184 C   0  0  0  0  0  0  0  0  0  0  0  0
   -7.1399   10.4236    1.4268 C   0  0  0  0  0  0  0  0  0  0  0  0
   -8.2665    9.9198    2.2967 C   0  0  0  0  0  0  0  0  0  0  0  0
   -3.9206   10.0266    1.8387 H   0  0  0  0  0  0  0  0  0  0  0  0
   -5.4663    9.3916    2.3851 H   0  0  0  0  0  0  0  0  0  0  0  0
   -5.0884   11.0725    2.8190 H   0  0  0  0  0  0  0  0  0  0  0  0
   -8.3724   11.7777    0.3812 H   0  0  0  0  0  0  0  0  0  0  0  0
   -9.9315   12.1127   -2.9614 H   0  0  0  0  0  0  0  0  0  0  0  0
   -8.1037   10.9831   -4.1656 H   0  0  0  0  0  0  0  0  0  0  0  0
   -6.3962    8.9205   -3.9507 H   0  0  0  0  0  0  0  0  0  0  0  0
   -5.8693    8.4743   -2.3387 H   0  0  0  0  0  0  0  0  0  0  0  0
  -10.3535    9.2764   -1.3555 H   0  0  0  0  0  0  0  0  0  0  0  0
   -7.3097    9.5293   -1.1317 H   0  0  0  0  0  0  0  0  0  0  0  0
   -8.5257    9.8609   -2.4407 H   0  0  0  0  0  0  0  0  0  0  0  0
   -8.9107   10.6297   -1.1110 H   0  0  0  0  0  0  0  0  0  0  0  0
   -7.0634    5.4250   -1.9147 H   0  0  0  0  0  0  0  0  0  0  0  0
   -9.9284    5.2057    1.5095 H   0  0  0  0  0  0  0  0  0  0  0  0
  -10.1418    7.6700    1.3046 H   0  0  0  0  0  0  0  0  0  0  0  0
   -8.7357    1.9103   -1.2051 H   0  0  0  0  0  0  0  0  0  0  0  0
   -8.2208    2.8108   -3.4216 H   0  0  0  0  0  0  0  0  0  0  0  0
   -7.5284    4.1656   -2.8085 H   0  0  0  0  0  0  0  0  0  0  0  0
   -5.7952    2.7638   -1.4872 H   0  0  0  0  0  0  0  0  0  0  0  0
   -5.9817    3.4422   -4.3927 H   0  0  0  0  0  0  0  0  0  0  0  0
   -4.6735    3.7406   -3.2355 H   0  0  0  0  0  0  0  0  0  0  0  0
   -4.8094    2.1995   -4.0544 H   0  0  0  0  0  0  0  0  0  0  0  0
   -7.2302    0.7352   -1.6484 H   0  0  0  0  0  0  0  0  0  0  0  0
   -7.1354    0.7851   -3.4002 H   0  0  0  0  0  0  0  0  0  0  0  0
   -9.9295   14.2553    1.6316 H   0  0  0  0  0  0  0  0  0  0  0  0
   -5.6773   13.7538   -0.2161 H   0  0  0  0  0  0  0  0  0  0  0  0
   -4.0967   11.9574   -1.7602 H   0  0  0  0  0  0  0  0  0  0  0  0
   -4.2333    9.0889   -1.2343 H   0  0  0  0  0  0  0  0  0  0  0  0
   -6.3084    8.1610    0.5856 H   0  0  0  0  0  0  0  0  0  0  0  0
   -8.8730    9.2041    1.7692 H   0  0  0  0  0  0  0  0  0  0  0  0
   -7.8877    9.4278    3.1918 H   0  0  0  0  0  0  0  0  0  0  0  0
   -8.9944   10.6891    2.5497 H   0  0  0  0  0  0  0  0  0  0  0  0
  1  2  1  0  0  0  0
  1 44  1  0  0  0  0
  1 45  1  0  0  0  0
  1 46  1  0  0  0  0
  2  3  1  0  0  0  0
  3  4  2  0  0  0  0
  3  8  1  0  0  0  0
  4  5  1  0  0  0  0
  4 47  1  0  0  0  0
  5  6  2  0  0  0  0
  5 31  1  0  0  0  0
  6  7  1  0  0  0  0
  6 48  1  0  0  0  0
  7  8  2  0  0  0  0
  7 49  1  0  0  0  0
  8  9  1  0  0  0  0
  9 10  1  0  0  0  0
  9 50  1  0  0  0  0
  9 51  1  0  0  0  0
 10 11  2  0  0  0  0
 10 15  1  0  0  0  0
 11 12  1  0  0  0  0
 11 52  1  0  0  0  0
 12 13  1  0  0  0  0
 12 14  1  0  0  0  0
 13 53  1  0  0  0  0
 13 54  1  0  0  0  0
 13 55  1  0  0  0  0
 14 15  2  0  0  0  0
 14 19  1  0  0  0  0
 15 16  1  0  0  0  0
 16 17  2  0  0  0  0
 16 56  1  0  0  0  0
 17 18  1  0  0  0  0
 17 20  1  0  0  0  0
 18 19  2  0  0  0  0
 18 57  1  0  0  0  0
 19 58  1  0  0  0  0
 20 21  2  0  0  0  0
 20 22  1  0  0  0  0
 22 23  1  0  0  0  0
 22 59  1  0  0  0  0
 23 60  1  0  0  0  0
 23 61  1  0  0  0  0
 24 26  1  0  0  0  0
 24 62  1  1  0  0  0
 24 25  1  0  0  0  0
 24 23  1  0  0  0  0
 25 63  1  0  0  0  0
 25 64  1  0  0  0  0
 25 65  1  0  0  0  0
 26 27  1  0  0  0  0
 26 66  1  0  0  0  0
 26 67  1  0  0  0  0
 27 28  1  0  0  0  0
 27 29  1  0  0  0  0
 27 30  1  0  0  0  0
 31 32  2  0  0  0  0
 31 33  1  0  0  0  0
 33 34  1  0  0  0  0
 33 68  1  0  0  0  0
 34 35  2  0  0  0  0
 34 36  2  0  0  0  0
 34 37  1  0  0  0  0
 37 38  2  0  0  0  0
 37 42  1  0  0  0  0
 38 39  1  0  0  0  0
 38 69  1  0  0  0  0
 39 40  2  0  0  0  0
 39 70  1  0  0  0  0
 40 41  1  0  0  0  0
 40 71  1  0  0  0  0
 41 42  2  0  0  0  0
 41 72  1  0  0  0  0
 42 43  1  0  0  0  0
 43 73  1  0  0  0  0
 43 74  1  0  0  0  0
 43 75  1  0  0  0  0
M  END
>  <DRUGBANK_ID>
DB16227

>  <COMMON_NAME>
Masilukast

>  <CAS_NUMBER>
136564-68-6

>  <UNII>
2QJ3R1H23S

>  <SYNONYMS>
Masilukast

$$$$
