
 OpenBabel10282417223D

 14 14  0  0  0  0  0  0  0  0999 V2000
    0.9000    1.0520   -0.0600 C   0  0  0  0  0  0  0  0  0  0  0  0
   -0.4180    1.3300   -0.0660 C   0  0  0  0  0  0  0  0  0  0  0  0
    1.4150   -0.3098    0.1383 C   0  0  0  0  0  0  0  0  0  0  0  0
    1.9088    2.1720   -0.2559 C   0  0  0  0  0  0  0  0  0  0  0  0
   -1.3915    0.2343    0.1015 C   0  0  0  0  0  0  0  0  0  0  0  0
   -0.8755    2.7644   -0.2745 C   0  0  0  0  0  0  0  0  0  0  0  0
    0.4437   -1.4116   -0.0523 C   0  0  0  0  0  0  0  0  0  0  0  0
    2.5892   -0.5007    0.4296 O   0  0  0  0  0  0  0  0  0  0  0  0
    2.7456    3.1011   -0.4184 N   0  0  0  0  0  0  0  0  0  0  0  0
   -0.8712   -1.1580   -0.0623 C   0  0  0  0  0  0  0  0  0  0  0  0
   -2.5672    0.4734    0.3447 O   0  0  0  0  0  0  0  0  0  0  0  0
   -1.2550    3.9544   -0.4474 N   0  0  0  0  0  0  0  0  0  0  0  0
    1.1240   -2.9858   -0.2667 Cl  0  0  0  0  0  0  0  0  0  0  0  0
   -2.0596   -2.3963   -0.2733 Cl  0  0  0  0  0  0  0  0  0  0  0  0
  1  2  2  0  0  0  0
  1  3  1  0  0  0  0
  1  4  1  0  0  0  0
  2  5  1  0  0  0  0
  2  6  1  0  0  0  0
  3  7  1  0  0  0  0
  3  8  2  0  0  0  0
  4  9  3  0  0  0  0
  5 10  1  0  0  0  0
  5 11  2  0  0  0  0
  6 12  3  0  0  0  0
  7 13  1  0  0  0  0
  7 10  2  0  0  0  0
 10 14  1  0  0  0  0
M  END
>  <DRUGBANK_ID>
DB15684

>  <COMMON_NAME>
2,3-dichloro-5,6-dicyanobenzoquinone

>  <CAS_NUMBER>
84-58-2

>  <UNII>
1H5KD39UH7

>  <SYNONYMS>
2,3-Dichloro-5,6-dicyanoquinone; DDQ; Dichlorodicyanobenzoquinone

$$$$
