167
 OpenBabel10282417103D

 22 21  0  0  1  0  0  0  0  0999 V2000
   -2.6132   -4.1664   -0.0965 O   0  0  0  0  0  0  0  0  0  0  0  0
   -2.7878   -4.1219    2.1276 O   0  0  0  0  0  0  0  0  0  0  0  0
    0.0639   -3.0421    0.4313 N   0  0  0  0  0  0  0  0  0  0  0  0
   -1.6958   -1.2610    0.4829 C   0  0  2  0  0  0  0  0  0  0  0  0
   -1.1894   -2.6046    1.0816 C   0  0  1  0  0  0  0  0  0  0  0  0
   -1.1204   -0.0000    1.1882 C   0  0  0  0  0  0  0  0  0  0  0  0
   -3.2279   -1.1572    0.4590 C   0  0  0  0  0  0  0  0  0  0  0  0
   -0.7554   -0.2012    2.6532 C   0  0  0  0  0  0  0  0  0  0  0  0
   -2.2403   -3.7092    1.1105 C   0  0  0  0  0  0  0  0  0  0  0  0
   -3.3760   -4.7480    0.0950 H   0  0  0  0  0  0  0  0  0  0  0  0
    0.7583   -2.3002    0.5064 H   0  0  0  0  0  0  0  0  0  0  0  0
    0.4382   -3.8378    0.9482 H   0  0  0  0  0  0  0  0  0  0  0  0
   -1.3809   -1.2042   -0.5709 H   0  0  0  0  0  0  0  0  0  0  0  0
   -0.9438   -2.4996    2.1395 H   0  0  0  0  0  0  0  0  0  0  0  0
   -0.2320    0.3506    0.6498 H   0  0  0  0  0  0  0  0  0  0  0  0
   -1.8478    0.8212    1.1292 H   0  0  0  0  0  0  0  0  0  0  0  0
   -3.5525   -0.2346   -0.0330 H   0  0  0  0  0  0  0  0  0  0  0  0
   -3.6790   -1.9714   -0.1152 H   0  0  0  0  0  0  0  0  0  0  0  0
   -3.6350   -1.1768    1.4736 H   0  0  0  0  0  0  0  0  0  0  0  0
    0.1031   -0.8752    2.7480 H   0  0  0  0  0  0  0  0  0  0  0  0
   -0.4637    0.7385    3.1262 H   0  0  0  0  0  0  0  0  0  0  0  0
   -1.6025   -0.6182    3.2089 H   0  0  0  0  0  0  0  0  0  0  0  0
  1  9  1  0  0  0  0
  1 10  1  0  0  0  0
  2  9  2  0  0  0  0
  3 11  1  0  0  0  0
  3 12  1  0  0  0  0
  4  7  1  0  0  0  0
  4 13  1  6  0  0  0
  4  6  1  0  0  0  0
  4  5  1  0  0  0  0
  5  3  1  0  0  0  0
  5  9  1  0  0  0  0
  5 14  1  1  0  0  0
  6  8  1  0  0  0  0
  6 15  1  0  0  0  0
  6 16  1  0  0  0  0
  7 17  1  0  0  0  0
  7 18  1  0  0  0  0
  7 19  1  0  0  0  0
  8 20  1  0  0  0  0
  8 21  1  0  0  0  0
  8 22  1  0  0  0  0
M  END
>  <DRUGBANK_ID>
DB00167

>  <SECONDARY_ACCESSION_NUMBERS>
NUTR00031

>  <COMMON_NAME>
Isoleucine

>  <CAS_NUMBER>
73-32-5

>  <UNII>
04Y7590D77

>  <SYNONYMS>
(2S,3S)-2-Amino-3-methylpentanoic acid; 2-Amino-3-methylvaleric acid; alpha-amino-beta-methylvaleric acid; Ile; Isoleucina; Isoleucine; Isoleucinum; L-Isoleucine; α-amino-β-methylvaleric acid

$$$$
