
 OpenBabel10282417123D

 17 17  0  0  0  0  0  0  0  0999 V2000
    1.0966   -0.1388    0.0217 N   0  0  0  0  0  0  0  0  0  0  0  0
    0.4745   -1.6987    0.1363 S   0  0  0  0  0  0  0  0  0  0  0  0
    1.1445   -2.2931    1.2633 O   0  0  0  0  0  0  0  0  0  0  0  0
   -0.9653   -1.5772    0.0603 O   0  0  0  0  0  0  0  0  0  0  0  0
    1.0107   -2.5362   -1.3241 C   0  0  0  0  0  0  0  0  0  0  0  0
    0.8108   -3.9205   -1.3761 C   0  0  0  0  0  0  0  0  0  0  0  0
    1.1601   -4.6164   -2.5275 C   0  0  0  0  0  0  0  0  0  0  0  0
    0.9315   -5.9339   -2.5938 F   0  0  0  0  0  0  0  0  0  0  0  0
    1.7262   -3.9658   -3.6143 C   0  0  0  0  0  0  0  0  0  0  0  0
    1.9491   -2.5961   -3.5328 C   0  0  0  0  0  0  0  0  0  0  0  0
    2.5011   -1.9623   -4.5756 F   0  0  0  0  0  0  0  0  0  0  0  0
    1.5980   -1.8657   -2.3980 C   0  0  0  0  0  0  0  0  0  0  0  0
    0.6399    0.4306    0.7416 H   0  0  0  0  0  0  0  0  0  0  0  0
    2.1074   -0.1305    0.1564 H   0  0  0  0  0  0  0  0  0  0  0  0
    0.3686   -4.4576   -0.5410 H   0  0  0  0  0  0  0  0  0  0  0  0
    1.9829   -4.5167   -4.5123 H   0  0  0  0  0  0  0  0  0  0  0  0
    1.7701   -0.7946   -2.3893 H   0  0  0  0  0  0  0  0  0  0  0  0
  1  2  1  0  0  0  0
  1 13  1  0  0  0  0
  1 14  1  0  0  0  0
  2  3  2  0  0  0  0
  2  4  2  0  0  0  0
  2  5  1  0  0  0  0
  5  6  2  0  0  0  0
  5 12  1  0  0  0  0
  6  7  1  0  0  0  0
  6 15  1  0  0  0  0
  7  8  1  0  0  0  0
  7  9  2  0  0  0  0
  9 10  1  0  0  0  0
  9 16  1  0  0  0  0
 10 11  1  0  0  0  0
 10 12  2  0  0  0  0
 12 17  1  0  0  0  0
M  END
>  <DRUGBANK_ID>
DB02087

>  <SECONDARY_ACCESSION_NUMBERS>
EXPT01398

>  <COMMON_NAME>
3,5-Difluorobenzenesulfonamide

>  <UNII>
PTI28JEB8Q

$$$$
