W56
 OpenBabel10282417173D

 48 50  0  0  0  0  0  0  0  0999 V2000
   -1.1699    0.3817   -0.3718 O   0  0  0  0  0  0  0  0  0  0  0  0
    0.0776    0.9270   -0.1512 N   0  0  0  0  0  0  0  0  0  0  0  0
    0.8858   -0.1291   -0.0319 C   0  0  0  0  0  0  0  0  0  0  0  0
    2.3403    0.0411    0.0165 C   0  0  0  0  0  0  0  0  0  0  0  0
    0.1760   -1.3419   -0.0311 C   0  0  0  0  0  0  0  0  0  0  0  0
   -1.1216   -0.9706   -0.2018 C   0  0  0  0  0  0  0  0  0  0  0  0
   -2.3841   -1.7432   -0.1820 C   0  0  0  0  0  0  0  0  0  0  0  0
   -3.1761   -1.3990    1.0525 C   0  0  0  0  0  0  0  0  0  0  0  0
   -3.5102    0.0759    0.9963 C   0  0  0  0  0  0  0  0  0  0  0  0
   -4.6312    0.4432    0.0233 C   0  0  0  0  0  0  0  0  0  0  0  0
   -5.9144   -0.3878    0.1354 C   0  0  0  0  0  0  0  0  0  0  0  0
   -6.8086   -0.1188    1.2432 O   0  0  0  0  0  0  0  0  0  0  0  0
   -6.3408   -0.1938    2.5243 C   0  0  0  0  0  0  0  0  0  0  0  0
   -5.3486    0.6430    3.0034 C   0  0  0  0  0  0  0  0  0  0  0  0
   -4.6367    0.3376    4.1744 C   0  0  0  0  0  0  0  0  0  0  0  0
   -5.2388   -0.4754    5.1010 C   0  0  0  0  0  0  0  0  0  0  0  0
   -6.4854   -1.0232    4.7909 C   0  0  0  0  0  0  0  0  0  0  0  0
   -6.9836   -0.9695    3.4718 C   0  0  0  0  0  0  0  0  0  0  0  0
   -4.5996   -0.7690    6.3962 C   0  0  0  0  0  0  0  0  0  0  0  0
   -4.5718   -1.9180    6.9533 N   0  0  0  0  0  0  0  0  0  0  0  0
   -3.8642   -1.6877    8.2242 C   0  0  1  0  0  0  0  0  0  0  0  0
   -2.5956   -2.5242    8.2608 C   0  0  0  0  0  0  0  0  0  0  0  0
   -3.5902   -0.1936    8.2679 C   0  0  0  0  0  0  0  0  0  0  0  0
   -4.0415    0.3068    7.0116 O   0  0  0  0  0  0  0  0  0  0  0  0
   -4.5156   -1.9839    9.0528 H   0  0  0  0  0  0  0  0  0  0  0  0
    2.6737    0.5897   -0.8689 H   0  0  0  0  0  0  0  0  0  0  0  0
    2.6474    0.5757    0.9175 H   0  0  0  0  0  0  0  0  0  0  0  0
    2.8165   -0.9433    0.0082 H   0  0  0  0  0  0  0  0  0  0  0  0
    0.5289   -2.3526    0.0608 H   0  0  0  0  0  0  0  0  0  0  0  0
   -2.9768   -1.5473   -1.0790 H   0  0  0  0  0  0  0  0  0  0  0  0
   -2.1673   -2.8138   -0.1552 H   0  0  0  0  0  0  0  0  0  0  0  0
   -4.0771   -2.0182    1.1473 H   0  0  0  0  0  0  0  0  0  0  0  0
   -2.6133   -1.6130    1.9732 H   0  0  0  0  0  0  0  0  0  0  0  0
   -3.5723    0.3120    2.0308 H   0  0  0  0  0  0  0  0  0  0  0  0
   -2.7139    0.7897    0.8227 H   0  0  0  0  0  0  0  0  0  0  0  0
   -4.8675    1.5094    0.1079 H   0  0  0  0  0  0  0  0  0  0  0  0
   -4.2247    0.3244   -0.9936 H   0  0  0  0  0  0  0  0  0  0  0  0
   -6.4972   -0.1599   -0.7708 H   0  0  0  0  0  0  0  0  0  0  0  0
   -5.7173   -1.4636    0.0411 H   0  0  0  0  0  0  0  0  0  0  0  0
   -4.9988    1.4581    2.3780 H   0  0  0  0  0  0  0  0  0  0  0  0
   -3.6244    0.7173    4.3194 H   0  0  0  0  0  0  0  0  0  0  0  0
   -7.0712   -1.4829    5.5781 H   0  0  0  0  0  0  0  0  0  0  0  0
   -7.8975   -1.4941    3.2160 H   0  0  0  0  0  0  0  0  0  0  0  0
   -2.0693   -2.3873    9.2109 H   0  0  0  0  0  0  0  0  0  0  0  0
   -2.8336   -3.5875    8.1510 H   0  0  0  0  0  0  0  0  0  0  0  0
   -1.9124   -2.2546    7.4477 H   0  0  0  0  0  0  0  0  0  0  0  0
   -4.1543    0.2892    9.0750 H   0  0  0  0  0  0  0  0  0  0  0  0
   -2.5307    0.0507    8.4042 H   0  0  0  0  0  0  0  0  0  0  0  0
  1  2  1  0  0  0  0
  1  6  1  0  0  0  0
  2  3  2  0  0  0  0
  3  4  1  0  0  0  0
  3  5  1  0  0  0  0
  4 26  1  0  0  0  0
  4 27  1  0  0  0  0
  4 28  1  0  0  0  0
  5  6  2  0  0  0  0
  5 29  1  0  0  0  0
  6  7  1  0  0  0  0
  7  8  1  0  0  0  0
  7 30  1  0  0  0  0
  7 31  1  0  0  0  0
  8  9  1  0  0  0  0
  8 32  1  0  0  0  0
  8 33  1  0  0  0  0
  9 10  1  0  0  0  0
  9 34  1  0  0  0  0
  9 35  1  0  0  0  0
 10 11  1  0  0  0  0
 10 36  1  0  0  0  0
 10 37  1  0  0  0  0
 11 12  1  0  0  0  0
 11 38  1  0  0  0  0
 11 39  1  0  0  0  0
 12 13  1  0  0  0  0
 13 14  2  0  0  0  0
 13 18  1  0  0  0  0
 14 15  1  0  0  0  0
 14 40  1  0  0  0  0
 15 16  2  0  0  0  0
 15 41  1  0  0  0  0
 16 17  1  0  0  0  0
 16 19  1  0  0  0  0
 17 18  2  0  0  0  0
 17 42  1  0  0  0  0
 18 43  1  0  0  0  0
 19 20  2  0  0  0  0
 19 24  1  0  0  0  0
 20 21  1  0  0  0  0
 21 22  1  0  0  0  0
 21 23  1  0  0  0  0
 21 25  1  1  0  0  0
 22 44  1  0  0  0  0
 22 45  1  0  0  0  0
 22 46  1  0  0  0  0
 23 24  1  0  0  0  0
 23 47  1  0  0  0  0
 23 48  1  0  0  0  0
M  END
>  <DRUGBANK_ID>
DB08724

>  <COMMON_NAME>
5-(5-(4-(5-hydro-4-methyl-2-oxazolyl)phenoxy)pentyl)-3-methyl isoxazole

$$$$
