
 OpenBabel10282417103D

 23 23  0  0  0  0  0  0  0  0999 V2000
    1.3211   -0.2195    0.1145 C   0  0  0  0  0  0  0  0  0  0  0  0
    0.4530   -1.3125    0.0169 C   0  0  0  0  0  0  0  0  0  0  0  0
    0.7670    1.0677    0.1921 C   0  0  0  0  0  0  0  0  0  0  0  0
    2.8187   -0.4314    0.1834 C   0  0  0  0  0  0  0  0  0  0  0  0
   -0.9306   -1.1172   -0.0303 C   0  0  0  0  0  0  0  0  0  0  0  0
   -0.6103    1.2660    0.1082 C   0  0  0  0  0  0  0  0  0  0  0  0
    3.6217    0.0939   -1.0309 C   0  0  3  0  0  0  0  0  0  0  0  0
   -1.4589    0.1729   -0.0022 C   0  0  0  0  0  0  0  0  0  0  0  0
    3.5049    1.6041   -1.2387 C   0  0  0  0  0  0  0  0  0  0  0  0
    5.0467   -0.2282   -0.8486 N   0  0  0  0  0  0  0  0  0  0  0  0
    0.8438   -2.3278   -0.0094 H   0  0  0  0  0  0  0  0  0  0  0  0
    1.3994    1.9413    0.3138 H   0  0  0  0  0  0  0  0  0  0  0  0
    3.1854    0.0199    1.1147 H   0  0  0  0  0  0  0  0  0  0  0  0
    3.0167   -1.5090    0.2844 H   0  0  0  0  0  0  0  0  0  0  0  0
   -1.5962   -1.9732   -0.0848 H   0  0  0  0  0  0  0  0  0  0  0  0
   -1.0110    2.2757    0.1410 H   0  0  0  0  0  0  0  0  0  0  0  0
    3.2741   -0.4136   -1.9387 H   0  0  0  0  0  0  0  0  0  0  0  0
   -2.5335    0.3253   -0.0534 H   0  0  0  0  0  0  0  0  0  0  0  0
    3.7166    2.1484   -0.3110 H   0  0  0  0  0  0  0  0  0  0  0  0
    4.1933    1.9649   -2.0090 H   0  0  0  0  0  0  0  0  0  0  0  0
    2.5046    1.8748   -1.5878 H   0  0  0  0  0  0  0  0  0  0  0  0
    5.5797    0.1580   -1.6285 H   0  0  0  0  0  0  0  0  0  0  0  0
    5.3977    0.2458   -0.0160 H   0  0  0  0  0  0  0  0  0  0  0  0
  1  2  1  0  0  0  0
  1  3  2  0  0  0  0
  1  4  1  0  0  0  0
  2  5  2  0  0  0  0
  2 11  1  0  0  0  0
  3  6  1  0  0  0  0
  3 12  1  0  0  0  0
  4  7  1  0  0  0  0
  4 13  1  0  0  0  0
  4 14  1  0  0  0  0
  5  8  1  0  0  0  0
  5 15  1  0  0  0  0
  6  8  2  0  0  0  0
  6 16  1  0  0  0  0
  7  9  1  0  0  0  0
  7 10  1  0  0  0  0
  7 17  1  0  0  0  0
  8 18  1  0  0  0  0
  9 19  1  0  0  0  0
  9 20  1  0  0  0  0
  9 21  1  0  0  0  0
 10 22  1  0  0  0  0
 10 23  1  0  0  0  0
M  END
>  <DRUGBANK_ID>
DB00182

>  <SECONDARY_ACCESSION_NUMBERS>
APRD00480

>  <COMMON_NAME>
Amphetamine

>  <CAS_NUMBER>
300-62-9

>  <UNII>
CK833KGX7E

>  <SYNONYMS>
(+-)-alpha-Methylphenylethylamine; 1-phenyl-2-aminopropane; alpha-Methylbenzeneethaneamine; Amfetamina; Amfetamine; Amfetaminum; Amphetamine; beta-Aminopropylbenzene; beta-Phenylisopropylamin; Desoxynorephedrine; rac-(2R)-1-phenylpropan-2-amine; rac-amphetamine; α-methylbenzeneethaneamine; α-methylphenethylamine; β-aminopropylbenzene; β-phenylisopropylamine

$$$$
