991
 OpenBabel10282417113D

 37 39  0  0  0  0  0  0  0  0999 V2000
    1.0049    0.2526   -0.0998 O   0  0  0  0  0  0  0  0  0  0  0  0
    3.1230    3.5559    1.2672 O   0  0  0  0  0  0  0  0  0  0  0  0
    2.5509    1.4163    1.5485 O   0  0  0  0  0  0  0  0  0  0  0  0
   -1.2534    0.3322    0.0171 N   0  0  0  0  0  0  0  0  0  0  0  0
    0.5557   -1.0322    0.0317 C   0  0  0  0  0  0  0  0  0  0  0  0
   -0.8207   -0.9701    0.0662 C   0  0  0  0  0  0  0  0  0  0  0  0
   -0.1288    1.0214   -0.0178 C   0  0  0  0  0  0  0  0  0  0  0  0
    0.0364    2.5040    0.0116 C   0  0  0  0  0  0  0  0  0  0  0  0
    1.5202   -2.1206   -0.0184 C   0  0  0  0  0  0  0  0  0  0  0  0
   -1.6646   -2.1360    0.0483 C   0  0  0  0  0  0  0  0  0  0  0  0
    0.7621    3.0281    1.2503 C   0  0  0  0  0  0  0  0  0  0  0  0
    1.4366   -3.0521   -1.0642 C   0  0  0  0  0  0  0  0  0  0  0  0
    2.4693   -2.3278    0.9899 C   0  0  0  0  0  0  0  0  0  0  0  0
   -2.5136   -2.3489   -1.0400 C   0  0  0  0  0  0  0  0  0  0  0  0
   -1.5187   -3.1243    1.0300 C   0  0  0  0  0  0  0  0  0  0  0  0
    2.2981   -4.1479   -1.1246 C   0  0  0  0  0  0  0  0  0  0  0  0
    3.3653   -3.4027    0.9046 C   0  0  0  0  0  0  0  0  0  0  0  0
   -3.2184   -3.5464   -1.1425 C   0  0  0  0  0  0  0  0  0  0  0  0
   -2.1847   -4.3390    0.8970 C   0  0  0  0  0  0  0  0  0  0  0  0
    2.2025    2.5753    1.3511 C   0  0  0  0  0  0  0  0  0  0  0  0
    3.2673   -4.3208   -0.1418 C   0  0  0  0  0  0  0  0  0  0  0  0
   -3.0576   -4.5365   -0.1718 C   0  0  0  0  0  0  0  0  0  0  0  0
    2.7906    4.4697    1.2277 H   0  0  0  0  0  0  0  0  0  0  0  0
    0.5265    2.8538   -0.9033 H   0  0  0  0  0  0  0  0  0  0  0  0
   -0.9725    2.9432    0.0067 H   0  0  0  0  0  0  0  0  0  0  0  0
    0.7236    4.1255    1.2495 H   0  0  0  0  0  0  0  0  0  0  0  0
    0.2486    2.7125    2.1667 H   0  0  0  0  0  0  0  0  0  0  0  0
    0.6775   -2.9360   -1.8343 H   0  0  0  0  0  0  0  0  0  0  0  0
    2.5079   -1.6712    1.8574 H   0  0  0  0  0  0  0  0  0  0  0  0
   -2.5973   -1.5968   -1.8214 H   0  0  0  0  0  0  0  0  0  0  0  0
   -0.8591   -2.9636    1.8806 H   0  0  0  0  0  0  0  0  0  0  0  0
    2.2115   -4.8572   -1.9430 H   0  0  0  0  0  0  0  0  0  0  0  0
    4.1445   -3.5236    1.6534 H   0  0  0  0  0  0  0  0  0  0  0  0
   -3.8752   -3.7152   -1.9908 H   0  0  0  0  0  0  0  0  0  0  0  0
   -2.0084   -5.1334    1.6168 H   0  0  0  0  0  0  0  0  0  0  0  0
    3.9411   -5.1727   -0.1888 H   0  0  0  0  0  0  0  0  0  0  0  0
   -3.6128   -5.4669   -0.2483 H   0  0  0  0  0  0  0  0  0  0  0  0
  1  5  1  0  0  0  0
  1  7  1  0  0  0  0
  2 20  1  0  0  0  0
  2 23  1  0  0  0  0
  3 20  2  0  0  0  0
  4  6  1  0  0  0  0
  4  7  2  0  0  0  0
  5  6  2  0  0  0  0
  5  9  1  0  0  0  0
  6 10  1  0  0  0  0
  7  8  1  0  0  0  0
  8 11  1  0  0  0  0
  8 24  1  0  0  0  0
  8 25  1  0  0  0  0
  9 12  2  0  0  0  0
  9 13  1  0  0  0  0
 10 14  2  0  0  0  0
 10 15  1  0  0  0  0
 11 20  1  0  0  0  0
 11 26  1  0  0  0  0
 11 27  1  0  0  0  0
 12 16  1  0  0  0  0
 12 28  1  0  0  0  0
 13 17  2  0  0  0  0
 13 29  1  0  0  0  0
 14 18  1  0  0  0  0
 14 30  1  0  0  0  0
 15 19  2  0  0  0  0
 15 31  1  0  0  0  0
 16 21  2  0  0  0  0
 16 32  1  0  0  0  0
 17 21  1  0  0  0  0
 17 33  1  0  0  0  0
 18 22  2  0  0  0  0
 18 34  1  0  0  0  0
 19 22  1  0  0  0  0
 19 35  1  0  0  0  0
 21 36  1  0  0  0  0
 22 37  1  0  0  0  0
M  END
>  <DRUGBANK_ID>
DB00991

>  <SECONDARY_ACCESSION_NUMBERS>
APRD00030

>  <COMMON_NAME>
Oxaprozin

>  <CAS_NUMBER>
21256-18-8

>  <UNII>
MHJ80W9LRB

>  <SYNONYMS>
Oxaprozin; Oxaprozina; Oxaprozine; Oxaprozinum

$$$$
