
 OpenBabel10282417223D

 99 98  0  0  1  0  0  0  0  0999 V2000
  -12.9731   -3.1171   -4.5551 C   0  0  0  0  0  0  0  0  0  0  0  0
  -11.4569   -3.0888   -4.5475 C   0  0  0  0  0  0  0  0  0  0  0  0
  -10.9648   -2.1989   -3.4121 C   0  0  0  0  0  0  0  0  0  0  0  0
  -11.4597   -2.7349   -2.0703 C   0  0  0  0  0  0  0  0  0  0  0  0
  -10.9503   -4.1592   -1.8651 C   0  0  0  0  0  0  0  0  0  0  0  0
   -9.4289   -4.1447   -1.8808 C   0  0  0  0  0  0  0  0  0  0  0  0
   -8.9654   -3.2081   -0.7743 C   0  0  0  0  0  0  0  0  0  0  0  0
   -9.5516   -3.7334    0.5370 C   0  0  0  0  0  0  0  0  0  0  0  0
   -9.0515   -5.1183    0.6754 C   0  0  0  0  0  0  0  0  0  0  0  0
   -7.5854   -4.8175    0.4865 C   0  0  0  0  0  0  0  0  0  0  0  0
   -7.1944   -3.3714    1.6519 C   0  0  0  0  0  0  0  0  0  0  0  0
   -7.9348   -3.5013    3.3658 C   0  0  0  0  0  0  0  0  0  0  0  0
   -7.1891   -4.4468    4.2861 C   0  0  0  0  0  0  0  0  0  0  0  0
   -5.2117   -5.0067    4.3055 C   0  0  0  0  0  0  0  0  0  0  0  0
   -4.4840   -4.6233    5.4559 C   0  0  0  0  0  0  0  0  0  0  0  0
   -5.0334   -5.5448    6.8753 C   0  0  0  0  0  0  0  0  0  0  0  0
   -4.6635   -7.2052    7.1247 O   0  0  0  0  0  0  0  0  0  0  0  0
   -5.2580   -8.5320    6.2518 C   0  0  0  0  0  0  0  0  0  0  0  0
   -6.8544   -8.7967    5.5357 C   0  0  2  0  0  0  0  0  0  0  0  0
   -7.2666   -9.8252    4.5527 C   0  0  0  0  0  0  0  0  0  0  0  0
   -6.2983   -9.4770    3.4112 O   0  0  0  0  0  0  0  0  0  0  0  0
   -6.0303   -8.1111    2.3840 P   0  0  3  0  0  0  0  0  0  0  0  0
   -4.3214   -8.2264    1.8924 O   0  5  0  0  0  0  0  0  0  0  0  0
   -6.7956   -8.8358    1.1780 O   0  0  0  0  0  0  0  0  0  0  0  0
   -5.7622   -6.7451    1.3567 O   0  0  0  0  0  0  0  0  0  0  0  0
   -5.3115   -5.4124    1.5634 C   0  0  0  0  0  0  0  0  0  0  0  0
   -6.4185   -5.1249    2.7241 C   0  0  0  0  0  0  0  0  0  0  0  0
   -7.4066   -6.2934    4.3379 N   0  3  0  0  0  0  0  0  0  0  0  0
   -6.3411   -6.6742    5.2921 C   0  0  0  0  0  0  0  0  0  0  0  0
   -8.7697   -6.1502    5.1933 C   0  0  0  0  0  0  0  0  0  0  0  0
   -8.7184   -7.6910    3.3132 C   0  0  0  0  0  0  0  0  0  0  0  0
   -7.2784   -8.0619    4.3659 O   0  0  0  0  0  0  0  0  0  0  0  0
   -6.9442   -6.8580    2.8256 C   0  0  0  0  0  0  0  0  0  0  0  0
   -4.8540   -6.8948    3.1849 C   0  0  0  0  0  0  0  0  0  0  0  0
   -4.2836   -8.6838    3.6707 C   0  0  0  0  0  0  0  0  0  0  0  0
   -4.7514  -10.0735    2.3666 C   0  0  0  0  0  0  0  0  0  0  0  0
   -4.4113   -9.7223    0.7051 C   0  0  0  0  0  0  0  0  0  0  0  0
   -3.5281  -10.6871    0.5033 O   0  0  0  0  0  0  0  0  0  0  0  0
   -4.6121   -8.7730   -0.0641 O   0  0  0  0  0  0  0  0  0  0  0  0
  -13.3782   -3.5158   -3.6200 H   0  0  0  0  0  0  0  0  0  0  0  0
  -13.3405   -3.7581   -5.3538 H   0  0  0  0  0  0  0  0  0  0  0  0
  -13.3578   -2.1019   -4.6854 H   0  0  0  0  0  0  0  0  0  0  0  0
  -11.0718   -4.1096   -4.4448 H   0  0  0  0  0  0  0  0  0  0  0  0
  -11.0752   -2.7198   -5.5001 H   0  0  0  0  0  0  0  0  0  0  0  0
   -9.8703   -2.1469   -3.4355 H   0  0  0  0  0  0  0  0  0  0  0  0
  -11.3111   -1.1733   -3.5498 H   0  0  0  0  0  0  0  0  0  0  0  0
  -11.1431   -2.0670   -1.2648 H   0  0  0  0  0  0  0  0  0  0  0  0
  -12.5461   -2.7217   -2.0059 H   0  0  0  0  0  0  0  0  0  0  0  0
  -11.3529   -4.5649   -0.9330 H   0  0  0  0  0  0  0  0  0  0  0  0
  -11.3158   -4.8484   -2.6224 H   0  0  0  0  0  0  0  0  0  0  0  0
   -9.0481   -5.1667   -1.7761 H   0  0  0  0  0  0  0  0  0  0  0  0
   -9.0095   -3.8173   -2.8274 H   0  0  0  0  0  0  0  0  0  0  0  0
   -7.8692   -3.1397   -0.8037 H   0  0  0  0  0  0  0  0  0  0  0  0
   -9.2459   -2.1746   -0.8918 H   0  0  0  0  0  0  0  0  0  0  0  0
   -9.2610   -3.1033    1.3691 H   0  0  0  0  0  0  0  0  0  0  0  0
  -10.6188   -3.7320    0.6326 H   0  0  0  0  0  0  0  0  0  0  0  0
   -9.3742   -5.5281    1.6362 H   0  0  0  0  0  0  0  0  0  0  0  0
   -9.3812   -5.8935   -0.0245 H   0  0  0  0  0  0  0  0  0  0  0  0
   -7.2575   -5.8636    0.5406 H   0  0  0  0  0  0  0  0  0  0  0  0
   -7.0320   -4.7158   -0.4565 H   0  0  0  0  0  0  0  0  0  0  0  0
   -6.0833   -3.2560    1.6451 H   0  0  0  0  0  0  0  0  0  0  0  0
   -7.5458   -2.4032    1.4418 H   0  0  0  0  0  0  0  0  0  0  0  0
   -7.5009   -3.0478    4.2413 H   0  0  0  0  0  0  0  0  0  0  0  0
   -8.9589   -4.0240    3.3149 H   0  0  0  0  0  0  0  0  0  0  0  0
   -7.3982   -4.5772    5.2883 H   0  0  0  0  0  0  0  0  0  0  0  0
   -8.1996   -5.2426    3.5399 H   0  0  0  0  0  0  0  0  0  0  0  0
   -4.5158   -6.0184    4.5111 H   0  0  0  0  0  0  0  0  0  0  0  0
   -4.6197   -4.7023    3.4324 H   0  0  0  0  0  0  0  0  0  0  0  0
   -3.4806   -4.9590    5.0470 H   0  0  0  0  0  0  0  0  0  0  0  0
   -4.9435   -3.6930    5.0953 H   0  0  0  0  0  0  0  0  0  0  0  0
   -4.6074   -4.8928    7.5910 H   0  0  0  0  0  0  0  0  0  0  0  0
   -6.1624   -5.5027    7.0793 H   0  0  0  0  0  0  0  0  0  0  0  0
   -4.6496   -8.0982    5.5129 H   0  0  0  0  0  0  0  0  0  0  0  0
   -4.7071   -9.4823    6.1086 H   0  0  0  0  0  0  0  0  0  0  0  0
   -7.5381   -8.5392    6.3751 H   0  0  0  0  0  0  0  0  0  0  0  0
   -7.3608  -10.7588    5.0735 H   0  0  0  0  0  0  0  0  0  0  0  0
   -8.3497   -9.7961    4.1757 H   0  0  0  0  0  0  0  0  0  0  0  0
   -4.2098   -5.1197    1.8136 H   0  0  0  0  0  0  0  0  0  0  0  0
   -5.1947   -4.7141    0.6943 H   0  0  0  0  0  0  0  0  0  0  0  0
   -6.0247   -4.0815    3.0368 H   0  0  0  0  0  0  0  0  0  0  0  0
   -7.3457   -4.9808    2.2637 H   0  0  0  0  0  0  0  0  0  0  0  0
   -6.3200   -5.7266    5.5420 H   0  0  0  0  0  0  0  0  0  0  0  0
   -6.7162   -6.9838    6.2092 H   0  0  0  0  0  0  0  0  0  0  0  0
   -5.2828   -6.7359    5.3939 H   0  0  0  0  0  0  0  0  0  0  0  0
   -9.5133   -6.1420    4.4093 H   0  0  0  0  0  0  0  0  0  0  0  0
   -8.8567   -7.0032    5.8575 H   0  0  0  0  0  0  0  0  0  0  0  0
   -8.7161   -5.2766    5.8067 H   0  0  0  0  0  0  0  0  0  0  0  0
   -9.2233   -7.2556    2.4653 H   0  0  0  0  0  0  0  0  0  0  0  0
   -8.3717   -8.3961    2.3762 H   0  0  0  0  0  0  0  0  0  0  0  0
   -8.0795   -8.6288    3.1235 H   0  0  0  0  0  0  0  0  0  0  0  0
   -7.5166   -7.2853    1.6854 H   0  0  0  0  0  0  0  0  0  0  0  0
   -7.7936   -6.3507    2.2526 H   0  0  0  0  0  0  0  0  0  0  0  0
   -4.1623   -6.6606    2.1662 H   0  0  0  0  0  0  0  0  0  0  0  0
   -3.8136   -6.2816    3.2210 H   0  0  0  0  0  0  0  0  0  0  0  0
   -3.2936   -8.4792    4.0388 H   0  0  0  0  0  0  0  0  0  0  0  0
   -4.9611   -9.0079    4.3735 H   0  0  0  0  0  0  0  0  0  0  0  0
   -4.5758  -10.8366    3.1015 H   0  0  0  0  0  0  0  0  0  0  0  0
   -5.8920  -10.4081    2.0146 H   0  0  0  0  0  0  0  0  0  0  0  0
   -3.5677  -11.0641    1.3969 H   0  0  0  0  0  0  0  0  0  0  0  0
  1  2  1  0  0  0  0
  1 40  1  0  0  0  0
  1 41  1  0  0  0  0
  1 42  1  0  0  0  0
  2  3  1  0  0  0  0
  2 43  1  0  0  0  0
  2 44  1  0  0  0  0
  3  4  1  0  0  0  0
  3 45  1  0  0  0  0
  3 46  1  0  0  0  0
  4  5  1  0  0  0  0
  4 47  1  0  0  0  0
  4 48  1  0  0  0  0
  5  6  1  0  0  0  0
  5 49  1  0  0  0  0
  5 50  1  0  0  0  0
  6  7  1  0  0  0  0
  6 51  1  0  0  0  0
  6 52  1  0  0  0  0
  7  8  1  0  0  0  0
  7 53  1  0  0  0  0
  7 54  1  0  0  0  0
  8  9  1  0  0  0  0
  8 55  1  0  0  0  0
  8 56  1  0  0  0  0
  9 10  1  0  0  0  0
  9 57  1  0  0  0  0
  9 58  1  0  0  0  0
 10 11  1  0  0  0  0
 10 59  1  0  0  0  0
 10 60  1  0  0  0  0
 11 12  1  0  0  0  0
 11 61  1  0  0  0  0
 11 62  1  0  0  0  0
 12 13  1  0  0  0  0
 12 63  1  0  0  0  0
 12 64  1  0  0  0  0
 13 14  1  0  0  0  0
 13 65  1  0  0  0  0
 13 66  1  0  0  0  0
 14 15  1  0  0  0  0
 14 67  1  0  0  0  0
 14 68  1  0  0  0  0
 15 16  1  0  0  0  0
 15 69  1  0  0  0  0
 15 70  1  0  0  0  0
 16 17  1  0  0  0  0
 16 71  1  0  0  0  0
 16 72  1  0  0  0  0
 17 18  1  0  0  0  0
 18 73  1  0  0  0  0
 18 74  1  0  0  0  0
 19 32  1  0  0  0  0
 19 75  1  1  0  0  0
 19 20  1  0  0  0  0
 19 18  1  0  0  0  0
 20 21  1  0  0  0  0
 20 76  1  0  0  0  0
 20 77  1  0  0  0  0
 21 22  1  0  0  0  0
 22 23  1  0  0  0  0
 22 24  2  0  0  0  0
 22 25  1  0  0  0  0
 25 26  1  0  0  0  0
 26 27  1  0  0  0  0
 26 78  1  0  0  0  0
 26 79  1  0  0  0  0
 27 28  1  0  0  0  0
 27 80  1  0  0  0  0
 27 81  1  0  0  0  0
 28 29  1  0  0  0  0
 28 30  1  0  0  0  0
 28 31  1  0  0  0  0
 29 82  1  0  0  0  0
 29 83  1  0  0  0  0
 29 84  1  0  0  0  0
 30 85  1  0  0  0  0
 30 86  1  0  0  0  0
 30 87  1  0  0  0  0
 31 88  1  0  0  0  0
 31 89  1  0  0  0  0
 31 90  1  0  0  0  0
 32 33  1  0  0  0  0
 33 34  1  0  0  0  0
 33 91  1  0  0  0  0
 33 92  1  0  0  0  0
 34 35  1  0  0  0  0
 34 93  1  0  0  0  0
 34 94  1  0  0  0  0
 35 36  1  0  0  0  0
 35 95  1  0  0  0  0
 35 96  1  0  0  0  0
 36 37  1  0  0  0  0
 36 97  1  0  0  0  0
 36 98  1  0  0  0  0
 37 38  1  0  0  0  0
 37 39  2  0  0  0  0
 38 99  1  0  0  0  0
M  CHG  2  23  -1  28   1
M  END
>  <DRUGBANK_ID>
DB15259

>  <COMMON_NAME>
VB-201

>  <CAS_NUMBER>
630112-41-3

>  <UNII>
SJ5A8151JO

$$$$
