
 OpenBabel10282417143D

 41 43  0  0  1  0  0  0  0  0999 V2000
    1.0987    0.0121    0.0477 Cl  0  0  0  0  0  0  0  0  0  0  0  0
   12.7230    0.9883   -0.1594 O   0  0  0  0  0  0  0  0  0  0  0  0
    8.1506   -2.1084    0.1715 O   0  0  0  0  0  0  0  0  0  0  0  0
    5.8527   -2.0687    0.0838 O   0  0  0  0  0  0  0  0  0  0  0  0
   13.2890    2.0730   -3.4915 O   0  0  0  0  0  0  0  0  0  0  0  0
   12.0794    0.2778   -3.1723 O   0  0  0  0  0  0  0  0  0  0  0  0
    6.9374   -0.0696    0.0821 N   0  0  0  0  0  0  0  0  0  0  0  0
   13.5933    0.8494   -1.2958 C   0  0  3  0  0  0  0  0  0  0  0  0
   11.6752    0.1165   -0.0266 C   0  0  0  0  0  0  0  0  0  0  0  0
   14.4896   -0.3810   -1.1403 C   0  0  0  0  0  0  0  0  0  0  0  0
    9.3473   -1.4332    0.1933 C   0  0  0  0  0  0  0  0  0  0  0  0
    4.9133   -1.0674    0.0629 C   0  0  0  0  0  0  0  0  0  0  0  0
    5.5932    0.1427    0.0645 C   0  0  0  0  0  0  0  0  0  0  0  0
   11.4204   -0.9600   -0.8752 C   0  0  0  0  0  0  0  0  0  0  0  0
   10.7980    0.3273    1.0341 C   0  0  0  0  0  0  0  0  0  0  0  0
   12.9355    1.0372   -2.7064 C   0  0  0  0  0  0  0  0  0  0  0  0
   10.2420   -1.6869   -0.8240 C   0  0  0  0  0  0  0  0  0  0  0  0
    9.6739   -0.4994    1.1833 C   0  0  0  0  0  0  0  0  0  0  0  0
    7.0365   -1.3813    0.1061 C   0  0  0  0  0  0  0  0  0  0  0  0
    3.5256   -1.1809    0.0529 C   0  0  0  0  0  0  0  0  0  0  0  0
    4.8739    1.3417    0.0584 C   0  0  0  0  0  0  0  0  0  0  0  0
    2.8233    0.0338    0.0494 C   0  0  0  0  0  0  0  0  0  0  0  0
    3.4765    1.2722    0.0512 C   0  0  0  0  0  0  0  0  0  0  0  0
   14.3020    3.0341   -3.1980 C   0  0  0  0  0  0  0  0  0  0  0  0
   13.8867    3.9467   -2.0616 C   0  0  0  0  0  0  0  0  0  0  0  0
   14.3364    1.6354   -1.1682 H   0  0  0  0  0  0  0  0  0  0  0  0
   13.9504   -1.3253   -1.0980 H   0  0  0  0  0  0  0  0  0  0  0  0
   15.2094   -0.4483   -1.9571 H   0  0  0  0  0  0  0  0  0  0  0  0
   15.0237   -0.3221   -0.1833 H   0  0  0  0  0  0  0  0  0  0  0  0
   12.0862   -1.2554   -1.6707 H   0  0  0  0  0  0  0  0  0  0  0  0
   10.9636    1.1387    1.7390 H   0  0  0  0  0  0  0  0  0  0  0  0
   10.0440   -2.4038   -1.6137 H   0  0  0  0  0  0  0  0  0  0  0  0
    9.0238   -0.3773    2.0432 H   0  0  0  0  0  0  0  0  0  0  0  0
    3.0241   -2.1402    0.0531 H   0  0  0  0  0  0  0  0  0  0  0  0
    5.3967    2.2912    0.0635 H   0  0  0  0  0  0  0  0  0  0  0  0
    2.9044    2.1975    0.0473 H   0  0  0  0  0  0  0  0  0  0  0  0
   15.2545    2.5202   -3.0407 H   0  0  0  0  0  0  0  0  0  0  0  0
   14.4073    3.6349   -4.1087 H   0  0  0  0  0  0  0  0  0  0  0  0
   13.7023    3.4249   -1.1222 H   0  0  0  0  0  0  0  0  0  0  0  0
   14.6654    4.6859   -1.8736 H   0  0  0  0  0  0  0  0  0  0  0  0
   12.9389    4.4384   -2.2950 H   0  0  0  0  0  0  0  0  0  0  0  0
  1 22  1  0  0  0  0
  2  8  1  0  0  0  0
  2  9  1  0  0  0  0
  3 11  1  0  0  0  0
  3 19  1  0  0  0  0
  4 12  1  0  0  0  0
  4 19  1  0  0  0  0
  5 16  1  0  0  0  0
  5 24  1  0  0  0  0
  6 16  2  0  0  0  0
  7 13  1  0  0  0  0
  7 19  2  0  0  0  0
  8 10  1  0  0  0  0
  8 16  1  0  0  0  0
  8 26  1  0  0  0  0
  9 14  2  0  0  0  0
  9 15  1  0  0  0  0
 10 27  1  0  0  0  0
 10 28  1  0  0  0  0
 10 29  1  0  0  0  0
 11 17  2  0  0  0  0
 11 18  1  0  0  0  0
 12 13  2  0  0  0  0
 12 20  1  0  0  0  0
 13 21  1  0  0  0  0
 14 17  1  0  0  0  0
 14 30  1  0  0  0  0
 15 18  2  0  0  0  0
 15 31  1  0  0  0  0
 17 32  1  0  0  0  0
 18 33  1  0  0  0  0
 20 22  2  0  0  0  0
 20 34  1  0  0  0  0
 21 23  2  0  0  0  0
 21 35  1  0  0  0  0
 22 23  1  0  0  0  0
 23 36  1  0  0  0  0
 24 25  1  0  0  0  0
 24 37  1  0  0  0  0
 24 38  1  0  0  0  0
 25 39  1  0  0  0  0
 25 40  1  0  0  0  0
 25 41  1  0  0  0  0
M  END
>  <DRUGBANK_ID>
DB05252

>  <COMMON_NAME>
Fenoxaprop-ethyl

>  <CAS_NUMBER>
66441-23-4

>  <UNII>
7U20WEM458

>  <SYNONYMS>
Fenoxaprop ethyl

$$$$
