
 OpenBabel10282417173D

 17 18  0  0  0  0  0  0  0  0999 V2000
    2.0560    1.0290    0.0040 C   0  0  0  0  0  0  0  0  0  0  0  0
    2.2430   -0.3630   -0.0020 C   0  0  0  0  0  0  0  0  0  0  0  0
    1.1910   -1.1820   -0.0010 C   0  0  0  0  0  0  0  0  0  0  0  0
   -0.1370   -0.6650   -0.0000 C   0  0  0  0  0  0  0  0  0  0  0  0
   -0.2630    0.7310   -0.0010 C   0  0  0  0  0  0  0  0  0  0  0  0
    0.7470    1.5310   -0.0020 C   0  0  0  0  0  0  0  0  0  0  0  0
    3.4742   -0.8660   -0.0087 F   0  0  0  0  0  0  0  0  0  0  0  0
   -1.2460   -1.4220    0.0010 C   0  0  0  0  0  0  0  0  0  0  0  0
   -2.5770   -0.7040    0.0010 O   0  0  0  0  0  0  0  0  0  0  0  0
   -2.0160    1.0430   -0.0000 B   0  0  0  0  0  0  0  0  0  0  0  0
   -2.7897    2.3280    0.0000 O   0  0  0  0  0  0  0  0  0  0  0  0
    2.8953    1.6926    0.0130 H   0  0  0  0  0  0  0  0  0  0  0  0
    1.3457   -2.2408   -0.0009 H   0  0  0  0  0  0  0  0  0  0  0  0
    0.5852    2.5887   -0.0075 H   0  0  0  0  0  0  0  0  0  0  0  0
   -1.2189   -1.9494   -0.9296 H   0  0  0  0  0  0  0  0  0  0  0  0
   -1.2135   -2.0383    0.8751 H   0  0  0  0  0  0  0  0  0  0  0  0
   -3.7694    2.1273    0.0007 H   0  0  0  0  0  0  0  0  0  0  0  0
  1  2  2  0  0  0  0
  1  6  1  0  0  0  0
  1 12  1  0  0  0  0
  2  3  1  0  0  0  0
  2  7  1  0  0  0  0
  3  4  2  0  0  0  0
  3 13  1  0  0  0  0
  4  5  1  0  0  0  0
  4  8  1  0  0  0  0
  5  6  2  0  0  0  0
  5 10  1  0  0  0  0
  6 14  1  0  0  0  0
  8  9  1  0  0  0  0
  8 15  1  0  0  0  0
  8 16  1  0  0  0  0
  9 10  1  0  0  0  0
 10 11  1  0  0  0  0
 11 17  1  0  0  0  0
M  END
>  <DRUGBANK_ID>
DB09041

>  <SECONDARY_ACCESSION_NUMBERS>
DB05058

>  <COMMON_NAME>
Tavaborole

>  <CAS_NUMBER>
174671-46-6

>  <UNII>
K124A4EUQ3

>  <SYNONYMS>
5-Fluoro-1,3-dihydro-1-hydroxy-2,1-benzoxaborole; 5-Fluoro-2,1-benzoxaborol-1(3H)-ol; Tavaborole

$$$$
