862
 OpenBabel10282417113D

 66 69  0  0  0  0  0  0  0  0999 V2000
    1.0423    0.2728    0.2680 S   0  0  0  0  0  0  0  0  0  0  0  0
    0.6074    0.7494    1.5600 O   0  0  0  0  0  0  0  0  0  0  0  0
    0.6730    1.0047   -0.9375 O   0  0  0  0  0  0  0  0  0  0  0  0
    7.1595    0.4380    0.0450 O   0  0  0  0  0  0  0  0  0  0  0  0
    5.8697   -5.0235   -2.4969 O   0  0  0  0  0  0  0  0  0  0  0  0
    0.4344   -1.3069   -0.0620 N   0  0  0  0  0  0  0  0  0  0  0  0
    2.1741   -3.8282   -0.0700 N   0  0  0  0  0  0  0  0  0  0  0  0
    6.8816   -4.2598    0.7798 N   0  0  0  0  0  0  0  0  0  0  0  0
    5.9037   -3.3190    1.0274 N   0  0  0  0  0  0  0  0  0  0  0  0
    5.6819   -3.0500   -1.3174 N   0  0  0  0  0  0  0  0  0  0  0  0
    8.5540   -5.7049    0.8481 N   0  0  0  0  0  0  0  0  0  0  0  0
    0.1574   -2.5468    0.8850 C   0  0  0  0  0  0  0  0  0  0  0  0
    1.1812   -1.6969   -1.2862 C   0  0  0  0  0  0  0  0  0  0  0  0
    1.3394   -3.5676    1.1311 C   0  0  0  0  0  0  0  0  0  0  0  0
    2.2791   -2.5854   -0.7843 C   0  0  0  0  0  0  0  0  0  0  0  0
    1.7678   -4.7794   -1.0826 C   0  0  0  0  0  0  0  0  0  0  0  0
    2.9858    0.2421    0.2370 C   0  0  0  0  0  0  0  0  0  0  0  0
    0.4851   -4.4414   -1.8210 C   0  0  0  0  0  0  0  0  0  0  0  0
    3.8598   -0.8710    0.4564 C   0  0  0  0  0  0  0  0  0  0  0  0
    3.6260    1.4155   -0.0688 C   0  0  0  0  0  0  0  0  0  0  0  0
    5.1550   -1.0105   -0.0036 C   0  0  0  0  0  0  0  0  0  0  0  0
    5.8049    0.2143    0.0006 C   0  0  0  0  0  0  0  0  0  0  0  0
    5.6279   -2.5390   -0.1157 C   0  0  0  0  0  0  0  0  0  0  0  0
    5.0217    1.4058    0.1057 C   0  0  0  0  0  0  0  0  0  0  0  0
    7.9790   -4.7106    1.5102 C   0  0  0  0  0  0  0  0  0  0  0  0
    6.9310   -4.8385   -0.4338 C   0  0  0  0  0  0  0  0  0  0  0  0
    8.4812   -4.1845    2.8410 C   0  0  0  0  0  0  0  0  0  0  0  0
    7.8208   -5.8694   -0.3016 C   0  0  0  0  0  0  0  0  0  0  0  0
    6.0899   -4.3817   -1.5080 C   0  0  0  0  0  0  0  0  0  0  0  0
    8.1955   -5.1589    3.9728 C   0  0  0  0  0  0  0  0  0  0  0  0
    8.0189   -7.0046   -1.2126 C   0  0  0  0  0  0  0  0  0  0  0  0
    8.8703   -6.4964    3.7274 C   0  0  0  0  0  0  0  0  0  0  0  0
    7.9410   -0.7417    0.0410 C   0  0  0  0  0  0  0  0  0  0  0  0
    7.8112   -1.3894    1.3888 C   0  0  0  0  0  0  0  0  0  0  0  0
    5.9778   -2.9266    1.9528 H   0  0  0  0  0  0  0  0  0  0  0  0
   -0.3782   -2.3167    1.8114 H   0  0  0  0  0  0  0  0  0  0  0  0
   -0.5850   -3.1414    0.3454 H   0  0  0  0  0  0  0  0  0  0  0  0
    0.5247   -1.9087   -2.1088 H   0  0  0  0  0  0  0  0  0  0  0  0
    1.7479   -0.8635   -1.7216 H   0  0  0  0  0  0  0  0  0  0  0  0
    1.9762   -3.1079    1.9147 H   0  0  0  0  0  0  0  0  0  0  0  0
    1.0510   -4.5266    1.5812 H   0  0  0  0  0  0  0  0  0  0  0  0
    2.3550   -2.0509    0.1165 H   0  0  0  0  0  0  0  0  0  0  0  0
    3.1854   -2.4908   -1.3699 H   0  0  0  0  0  0  0  0  0  0  0  0
    2.5821   -4.7905   -1.8271 H   0  0  0  0  0  0  0  0  0  0  0  0
    1.7201   -5.7677   -0.6418 H   0  0  0  0  0  0  0  0  0  0  0  0
    0.6169   -3.5850   -2.4705 H   0  0  0  0  0  0  0  0  0  0  0  0
    0.1869   -5.1959   -2.5326 H   0  0  0  0  0  0  0  0  0  0  0  0
   -0.3402   -4.2730   -1.1362 H   0  0  0  0  0  0  0  0  0  0  0  0
    3.6384   -1.7801    0.9936 H   0  0  0  0  0  0  0  0  0  0  0  0
    3.0791    2.3285   -0.2877 H   0  0  0  0  0  0  0  0  0  0  0  0
    5.4962    2.3307    0.4299 H   0  0  0  0  0  0  0  0  0  0  0  0
    9.5665   -3.9967    2.7838 H   0  0  0  0  0  0  0  0  0  0  0  0
    8.0334   -3.2282    3.1243 H   0  0  0  0  0  0  0  0  0  0  0  0
    8.5532   -4.7416    4.9235 H   0  0  0  0  0  0  0  0  0  0  0  0
    7.1118   -5.2866    4.0631 H   0  0  0  0  0  0  0  0  0  0  0  0
    7.0531   -7.5029   -1.3568 H   0  0  0  0  0  0  0  0  0  0  0  0
    8.3799   -6.6510   -2.1801 H   0  0  0  0  0  0  0  0  0  0  0  0
    8.7191   -7.7325   -0.7974 H   0  0  0  0  0  0  0  0  0  0  0  0
    9.9549   -6.3681    3.6456 H   0  0  0  0  0  0  0  0  0  0  0  0
    8.6433   -7.1990    4.5281 H   0  0  0  0  0  0  0  0  0  0  0  0
    8.5134   -6.9582    2.8049 H   0  0  0  0  0  0  0  0  0  0  0  0
    7.6467   -1.3827   -0.8050 H   0  0  0  0  0  0  0  0  0  0  0  0
    8.9977   -0.5407   -0.1215 H   0  0  0  0  0  0  0  0  0  0  0  0
    6.7736   -1.3760    1.7113 H   0  0  0  0  0  0  0  0  0  0  0  0
    8.2410   -2.3654    1.2451 H   0  0  0  0  0  0  0  0  0  0  0  0
    8.2566   -0.9470    2.2699 H   0  0  0  0  0  0  0  0  0  0  0  0
  1  2  2  0  0  0  0
  1  3  2  0  0  0  0
  1  6  1  0  0  0  0
  1 17  1  0  0  0  0
  4 22  1  0  0  0  0
  4 33  1  0  0  0  0
  5 29  2  0  0  0  0
  6 12  1  0  0  0  0
  6 13  1  0  0  0  0
  7 14  1  0  0  0  0
  7 15  1  0  0  0  0
  7 16  1  0  0  0  0
  8  9  1  0  0  0  0
  8 25  1  0  0  0  0
  8 26  1  0  0  0  0
  9 23  1  0  0  0  0
  9 35  1  0  0  0  0
 10 23  2  0  0  0  0
 10 29  1  0  0  0  0
 11 25  2  0  0  0  0
 11 28  1  0  0  0  0
 12 14  1  0  0  0  0
 12 36  1  0  0  0  0
 12 37  1  0  0  0  0
 13 15  1  0  0  0  0
 13 38  1  0  0  0  0
 13 39  1  0  0  0  0
 14 40  1  0  0  0  0
 14 41  1  0  0  0  0
 15 42  1  0  0  0  0
 15 43  1  0  0  0  0
 16 18  1  0  0  0  0
 16 44  1  0  0  0  0
 16 45  1  0  0  0  0
 17 19  2  0  0  0  0
 17 20  1  0  0  0  0
 18 46  1  0  0  0  0
 18 47  1  0  0  0  0
 18 48  1  0  0  0  0
 19 21  1  0  0  0  0
 19 49  1  0  0  0  0
 20 24  2  0  0  0  0
 20 50  1  0  0  0  0
 21 22  2  0  0  0  0
 21 23  1  0  0  0  0
 22 24  1  0  0  0  0
 24 51  1  0  0  0  0
 25 27  1  0  0  0  0
 26 28  2  0  0  0  0
 26 29  1  0  0  0  0
 27 30  1  0  0  0  0
 27 52  1  0  0  0  0
 27 53  1  0  0  0  0
 28 31  1  0  0  0  0
 30 32  1  0  0  0  0
 30 54  1  0  0  0  0
 30 55  1  0  0  0  0
 31 56  1  0  0  0  0
 31 57  1  0  0  0  0
 31 58  1  0  0  0  0
 32 59  1  0  0  0  0
 32 60  1  0  0  0  0
 32 61  1  0  0  0  0
 33 34  1  0  0  0  0
 33 62  1  0  0  0  0
 33 63  1  0  0  0  0
 34 64  1  0  0  0  0
 34 65  1  0  0  0  0
 34 66  1  0  0  0  0
M  END
>  <DRUGBANK_ID>
DB00862

>  <SECONDARY_ACCESSION_NUMBERS>
APRD00699

>  <COMMON_NAME>
Vardenafil

>  <CAS_NUMBER>
224785-90-4

>  <UNII>
UCE6F4125H

>  <SYNONYMS>
VardÃ©nafil; Vardenafil; Vardenafilo; Vardenafilum

$$$$
