
 OpenBabel10282417173D

 23 23  0  0  0  0  0  0  0  0999 V2000
    0.9400    0.0926    0.0178 C   0  0  0  0  0  0  0  0  0  0  0  0
    0.1725    0.9525    0.8238 N   0  0  0  0  0  0  0  0  0  0  0  0
    0.2408   -0.8451   -0.9799 C   0  0  0  0  0  0  0  0  0  0  0  0
   -1.2484    0.9731    0.8895 C   0  0  0  0  0  0  0  0  0  0  0  0
    2.1802    0.1278    0.0849 O   0  0  0  0  0  0  0  0  0  0  0  0
   -1.9367    2.1930    0.8656 C   0  0  0  0  0  0  0  0  0  0  0  0
   -1.9919   -0.2118    0.9770 C   0  0  0  0  0  0  0  0  0  0  0  0
    0.7616   -0.4806   -2.6389 Cl  0  0  0  0  0  0  0  0  0  0  0  0
    0.6307   -2.5296   -0.5473 Cl  0  0  0  0  0  0  0  0  0  0  0  0
   -4.0492    1.0275    0.9051 C   0  0  0  0  0  0  0  0  0  0  0  0
   -3.3889   -0.1920    0.9505 C   0  0  0  0  0  0  0  0  0  0  0  0
   -3.3343    2.2176    0.8706 C   0  0  0  0  0  0  0  0  0  0  0  0
    0.9074    1.8841    1.6823 C   0  0  0  0  0  0  0  0  0  0  0  0
   -5.4088    1.1057    0.9045 O   0  0  0  0  0  0  0  0  0  0  0  0
   -0.8383   -0.7588   -1.0076 H   0  0  0  0  0  0  0  0  0  0  0  0
   -1.4049    3.1391    0.7984 H   0  0  0  0  0  0  0  0  0  0  0  0
   -1.5002   -1.1756    1.0799 H   0  0  0  0  0  0  0  0  0  0  0  0
   -3.9312   -1.1323    0.9695 H   0  0  0  0  0  0  0  0  0  0  0  0
   -3.8652    3.1648    0.8342 H   0  0  0  0  0  0  0  0  0  0  0  0
    1.5563    1.3062    2.3510 H   0  0  0  0  0  0  0  0  0  0  0  0
    1.5377    2.5365    1.0694 H   0  0  0  0  0  0  0  0  0  0  0  0
    0.2473    2.4927    2.3075 H   0  0  0  0  0  0  0  0  0  0  0  0
   -5.7812    0.2114    0.9756 H   0  0  0  0  0  0  0  0  0  0  0  0
  2  1  1  0  0  0  0
  3  1  1  0  0  0  0
  3 15  1  0  0  0  0
  4  2  1  0  0  0  0
  5  1  2  0  0  0  0
  6  4  2  0  0  0  0
  6 16  1  0  0  0  0
  7  4  1  0  0  0  0
  7 17  1  0  0  0  0
  8  3  1  0  0  0  0
  9  3  1  0  0  0  0
 10 11  1  0  0  0  0
 11  7  2  0  0  0  0
 11 18  1  0  0  0  0
 12  6  1  0  0  0  0
 12 10  2  0  0  0  0
 12 19  1  0  0  0  0
 13  2  1  0  0  0  0
 13 20  1  0  0  0  0
 13 21  1  0  0  0  0
 13 22  1  0  0  0  0
 14 10  1  0  0  0  0
 14 23  1  0  0  0  0
M  END
>  <DRUGBANK_ID>
DB08792

>  <COMMON_NAME>
Diloxanide

>  <CAS_NUMBER>
579-38-4

>  <UNII>
89134SCM7M

>  <SYNONYMS>
Diloxanide

$$$$
