226
 OpenBabel10282417163D

 23 24  0  0  0  0  0  0  0  0999 V2000
    1.0127    0.1470   -0.1093 O   0  0  0  0  0  0  0  0  0  0  0  0
    0.3255    0.5680   -1.2236 C   0  0  0  0  0  0  0  0  0  0  0  0
   -0.7419    1.4665   -1.0635 C   0  0  0  0  0  0  0  0  0  0  0  0
   -1.1498    1.8987    0.2100 C   0  0  0  0  0  0  0  0  0  0  0  0
   -2.1809    2.8137    0.3607 C   0  0  0  0  0  0  0  0  0  0  0  0
   -2.5052    3.1834    1.6323 O   0  0  0  0  0  0  0  0  0  0  0  0
   -2.8430    3.3274   -0.7467 C   0  0  0  0  0  0  0  0  0  0  0  0
   -2.4541    2.8994   -2.0176 C   0  0  0  0  0  0  0  0  0  0  0  0
   -3.1005    3.3996   -3.1279 O   0  0  0  0  0  0  0  0  0  0  0  0
   -1.4058    1.9653   -2.2149 C   0  0  0  0  0  0  0  0  0  0  0  0
   -0.9657    1.5003   -3.4809 C   0  0  0  0  0  0  0  0  0  0  0  0
   -1.5414    1.9335   -4.6512 O   0  0  0  0  0  0  0  0  0  0  0  0
    0.0763    0.5867   -3.6232 C   0  0  0  0  0  0  0  0  0  0  0  0
    0.7257    0.1282   -2.4856 C   0  0  0  0  0  0  0  0  0  0  0  0
    1.7716   -0.7485   -2.5755 O   0  0  0  0  0  0  0  0  0  0  0  0
    1.8971   -0.1112   -0.4264 H   0  0  0  0  0  0  0  0  0  0  0  0
   -0.6512    1.5156    1.1004 H   0  0  0  0  0  0  0  0  0  0  0  0
   -3.2363    3.8195    1.6102 H   0  0  0  0  0  0  0  0  0  0  0  0
   -3.6431    4.0459   -0.6212 H   0  0  0  0  0  0  0  0  0  0  0  0
   -3.7941    4.0172   -2.8375 H   0  0  0  0  0  0  0  0  0  0  0  0
   -2.2403    2.5701   -4.3930 H   0  0  0  0  0  0  0  0  0  0  0  0
    0.3639    0.2668   -4.6185 H   0  0  0  0  0  0  0  0  0  0  0  0
    1.8612   -1.0131   -3.5085 H   0  0  0  0  0  0  0  0  0  0  0  0
  1  2  1  0  0  0  0
  1 16  1  0  0  0  0
  2 14  2  0  0  0  0
  2  3  1  0  0  0  0
  3 10  1  0  0  0  0
  4  3  2  0  0  0  0
  4  5  1  0  0  0  0
  4 17  1  0  0  0  0
  5  7  2  0  0  0  0
  6  5  1  0  0  0  0
  6 18  1  0  0  0  0
  7  8  1  0  0  0  0
  7 19  1  0  0  0  0
  8  9  1  0  0  0  0
  9 20  1  0  0  0  0
 10 11  1  0  0  0  0
 10  8  2  0  0  0  0
 11 12  1  0  0  0  0
 12 21  1  0  0  0  0
 13 11  2  0  0  0  0
 13 22  1  0  0  0  0
 14 13  1  0  0  0  0
 15 14  1  0  0  0  0
 15 23  1  0  0  0  0
M  END
>  <DRUGBANK_ID>
DB06915

>  <COMMON_NAME>
naphthalene-1,2,4,5,7-pentol

$$$$
