IPC
 OpenBabel10282417133D

 48 50  0  0  0  0  0  0  0  0999 V2000
    1.0699   -0.0041    0.0276 N   0  0  0  0  0  0  0  0  0  0  0  0
    0.2999    1.2687   -0.0109 C   0  0  0  0  0  0  0  0  0  0  0  0
   -0.5466    1.4419   -1.2718 C   0  0  0  0  0  0  0  0  0  0  0  0
   -0.5577    1.4164    1.2509 C   0  0  0  0  0  0  0  0  0  0  0  0
    0.2793   -1.1761    0.1265 C   0  0  0  0  0  0  0  0  0  0  0  0
   -0.7437   -1.3376   -0.5403 O   0  0  0  0  0  0  0  0  0  0  0  0
    0.6015   -2.2120    1.1673 C   0  0  0  0  0  0  0  0  0  0  0  0
    1.6208   -2.0321    2.1089 C   0  0  0  0  0  0  0  0  0  0  0  0
    2.0973   -3.1120    2.8442 C   0  0  0  0  0  0  0  0  0  0  0  0
    1.4652   -4.3529    2.7647 C   0  0  0  0  0  0  0  0  0  0  0  0
    0.3944   -4.5243    1.8802 C   0  0  0  0  0  0  0  0  0  0  0  0
   -0.0313   -3.4624    1.0788 C   0  0  0  0  0  0  0  0  0  0  0  0
    1.9114   -5.4725    3.6514 C   0  0  0  0  0  0  0  0  0  0  0  0
    2.5025   -0.0346   -0.0750 C   0  0  0  0  0  0  0  0  0  0  0  0
    3.3415   -1.1532   -0.2473 C   0  0  0  0  0  0  0  0  0  0  0  0
    5.0045   -0.7141   -0.0882 S   0  0  0  0  0  0  0  0  0  0  0  0
    4.6583    0.9570   -0.0552 C   0  0  0  0  0  0  0  0  0  0  0  0
    3.3004    1.1683   -0.0259 C   0  0  0  0  0  0  0  0  0  0  0  0
    3.0008   -2.5494   -0.5457 C   0  0  0  0  0  0  0  0  0  0  0  0
    3.8912   -3.4835   -0.1158 O   0  0  0  0  0  0  0  0  0  0  0  0
    1.9798   -2.9197   -1.1201 O   0  0  0  0  0  0  0  0  0  0  0  0
    5.7216    1.9677   -0.0152 C   0  0  0  0  0  0  0  0  0  0  0  0
    5.7761    2.9050    1.0293 C   0  0  0  0  0  0  0  0  0  0  0  0
    6.8126    3.8417    1.0948 C   0  0  0  0  0  0  0  0  0  0  0  0
    7.8056    3.8492    0.1181 C   0  0  0  0  0  0  0  0  0  0  0  0
    7.7529    2.9342   -0.9315 C   0  0  0  0  0  0  0  0  0  0  0  0
    6.6896    2.0323   -1.0248 C   0  0  0  0  0  0  0  0  0  0  0  0
    0.9803    2.1218    0.0033 H   0  0  0  0  0  0  0  0  0  0  0  0
   -1.3386    0.6953   -1.3490 H   0  0  0  0  0  0  0  0  0  0  0  0
   -1.0434    2.4181   -1.2704 H   0  0  0  0  0  0  0  0  0  0  0  0
    0.0773    1.3736   -2.1680 H   0  0  0  0  0  0  0  0  0  0  0  0
    0.0690    1.3623    2.1485 H   0  0  0  0  0  0  0  0  0  0  0  0
   -1.0814    2.3777    1.2605 H   0  0  0  0  0  0  0  0  0  0  0  0
   -1.3089    0.6241    1.3191 H   0  0  0  0  0  0  0  0  0  0  0  0
    2.1499   -1.0914    2.2011 H   0  0  0  0  0  0  0  0  0  0  0  0
    2.9925   -2.9840    3.4472 H   0  0  0  0  0  0  0  0  0  0  0  0
   -0.0806   -5.4970    1.7713 H   0  0  0  0  0  0  0  0  0  0  0  0
   -0.7969   -3.6387    0.3235 H   0  0  0  0  0  0  0  0  0  0  0  0
    1.0931   -5.7341    4.3284 H   0  0  0  0  0  0  0  0  0  0  0  0
    2.2063   -6.3484    3.0674 H   0  0  0  0  0  0  0  0  0  0  0  0
    2.7660   -5.1691    4.2662 H   0  0  0  0  0  0  0  0  0  0  0  0
    2.9224    2.1809    0.0307 H   0  0  0  0  0  0  0  0  0  0  0  0
    4.7649   -3.1356    0.1286 H   0  0  0  0  0  0  0  0  0  0  0  0
    5.0173    2.9097    1.8087 H   0  0  0  0  0  0  0  0  0  0  0  0
    6.8565    4.5514    1.9178 H   0  0  0  0  0  0  0  0  0  0  0  0
    8.6172    4.5711    0.1697 H   0  0  0  0  0  0  0  0  0  0  0  0
    8.5461    2.9152   -1.6745 H   0  0  0  0  0  0  0  0  0  0  0  0
    6.6195    1.3856   -1.8965 H   0  0  0  0  0  0  0  0  0  0  0  0
  1  2  1  0  0  0  0
  1  5  1  0  0  0  0
  1 14  1  0  0  0  0
  2  3  1  0  0  0  0
  2  4  1  0  0  0  0
  2 28  1  0  0  0  0
  3 29  1  0  0  0  0
  3 30  1  0  0  0  0
  3 31  1  0  0  0  0
  4 32  1  0  0  0  0
  4 33  1  0  0  0  0
  4 34  1  0  0  0  0
  5  6  2  0  0  0  0
  5  7  1  0  0  0  0
  7  8  2  0  0  0  0
  7 12  1  0  0  0  0
  8  9  1  0  0  0  0
  8 35  1  0  0  0  0
  9 10  2  0  0  0  0
  9 36  1  0  0  0  0
 10 11  1  0  0  0  0
 10 13  1  0  0  0  0
 11 12  2  0  0  0  0
 11 37  1  0  0  0  0
 12 38  1  0  0  0  0
 13 39  1  0  0  0  0
 13 40  1  0  0  0  0
 13 41  1  0  0  0  0
 14 15  2  0  0  0  0
 14 18  1  0  0  0  0
 15 16  1  0  0  0  0
 15 19  1  0  0  0  0
 16 17  1  0  0  0  0
 17 18  2  0  0  0  0
 17 22  1  0  0  0  0
 18 42  1  0  0  0  0
 19 20  1  0  0  0  0
 19 21  2  0  0  0  0
 20 43  1  0  0  0  0
 22 23  2  0  0  0  0
 22 27  1  0  0  0  0
 23 24  1  0  0  0  0
 23 44  1  0  0  0  0
 24 25  2  0  0  0  0
 24 45  1  0  0  0  0
 25 26  1  0  0  0  0
 25 46  1  0  0  0  0
 26 27  2  0  0  0  0
 26 47  1  0  0  0  0
 27 48  1  0  0  0  0
M  END
>  <DRUGBANK_ID>
DB03647

>  <SECONDARY_ACCESSION_NUMBERS>
EXPT01914

>  <COMMON_NAME>
3-[Isopropyl(4-Methylbenzoyl)Amino]-5-Phenylthiophene-2-Carboxylic Acid

$$$$
