
 OpenBabel10282417103D

 39 39  0  0  0  0  0  0  0  0999 V2000
    1.1250    0.0394   -0.1127 C   0  0  0  0  0  0  0  0  0  0  0  0
    0.3362   -1.0473   -0.8127 C   0  0  0  0  0  0  0  0  0  0  0  0
   -0.5597   -1.8470    0.1349 C   0  0  1  0  0  0  0  0  0  0  0  0
   -1.5174   -0.9533    0.9907 C   0  0  0  0  0  0  0  0  0  0  0  0
   -2.8398   -1.1184    0.7118 N   0  0  0  0  0  0  0  0  0  0  0  0
   -3.9588   -0.3609    1.3347 C   0  0  1  0  0  0  0  0  0  0  0  0
   -4.8584    0.2685    0.2281 C   0  0  0  0  0  0  0  0  0  0  0  0
   -5.5835   -0.7422   -0.6564 C   0  0  0  0  0  0  0  0  0  0  0  0
   -5.8838   -3.1060   -1.3096 C   0  0  0  0  0  0  0  0  0  0  0  0
   -5.2196   -2.1012   -0.6500 C   0  0  0  0  0  0  0  0  0  0  0  0
   -6.6914   -0.4071   -1.4293 C   0  0  0  0  0  0  0  0  0  0  0  0
   -7.4183   -1.4320   -2.0638 C   0  0  0  0  0  0  0  0  0  0  0  0
   -7.0008   -2.7687   -2.0237 C   0  0  0  0  0  0  0  0  0  0  0  0
    0.6286    1.0407    0.3603 O   0  0  0  0  0  0  0  0  0  0  0  0
    2.4659   -0.1352   -0.1221 O   0  0  0  0  0  0  0  0  0  0  0  0
   -1.2887   -2.8810   -0.6647 N   0  0  0  0  0  0  0  0  0  0  0  0
   -1.1444   -0.1913    1.8615 O   0  0  0  0  0  0  0  0  0  0  0  0
   -4.8179   -1.1153    2.4220 C   0  0  0  0  0  0  0  0  0  0  0  0
   -4.8445   -0.8280    3.6099 O   0  0  0  0  0  0  0  0  0  0  0  0
   -5.5529   -2.1263    1.8910 O   0  0  0  0  0  0  0  0  0  0  0  0
   -6.4374   -2.9003    2.7036 C   0  0  0  0  0  0  0  0  0  0  0  0
   -0.2552   -0.5564   -1.5963 H   0  0  0  0  0  0  0  0  0  0  0  0
    1.0242   -1.7241   -1.3379 H   0  0  0  0  0  0  0  0  0  0  0  0
    0.0524   -2.3987    0.8558 H   0  0  0  0  0  0  0  0  0  0  0  0
   -2.9930   -1.7625   -0.0409 H   0  0  0  0  0  0  0  0  0  0  0  0
   -3.4978    0.4685    1.8832 H   0  0  0  0  0  0  0  0  0  0  0  0
   -5.5918    0.9290    0.7139 H   0  0  0  0  0  0  0  0  0  0  0  0
   -4.2370    0.9111   -0.4148 H   0  0  0  0  0  0  0  0  0  0  0  0
   -5.5454   -4.1259   -1.1563 H   0  0  0  0  0  0  0  0  0  0  0  0
   -4.4962   -2.5156    0.0294 H   0  0  0  0  0  0  0  0  0  0  0  0
   -7.0396    0.6214   -1.5094 H   0  0  0  0  0  0  0  0  0  0  0  0
   -8.3494   -1.2008   -2.5708 H   0  0  0  0  0  0  0  0  0  0  0  0
   -7.5532   -3.5598   -2.5135 H   0  0  0  0  0  0  0  0  0  0  0  0
    2.8073   -0.8904   -0.6308 H   0  0  0  0  0  0  0  0  0  0  0  0
   -1.8637   -3.4738   -0.0668 H   0  0  0  0  0  0  0  0  0  0  0  0
   -1.8547   -2.4792   -1.4111 H   0  0  0  0  0  0  0  0  0  0  0  0
   -5.8620   -3.4673    3.4363 H   0  0  0  0  0  0  0  0  0  0  0  0
   -7.1967   -2.2693    3.1703 H   0  0  0  0  0  0  0  0  0  0  0  0
   -6.9499   -3.6159    2.0464 H   0  0  0  0  0  0  0  0  0  0  0  0
  1  2  1  0  0  0  0
  1 14  2  0  0  0  0
  1 15  1  0  0  0  0
  2  3  1  0  0  0  0
  2 22  1  0  0  0  0
  2 23  1  0  0  0  0
  3  4  1  0  0  0  0
  3 16  1  0  0  0  0
  3 24  1  1  0  0  0
  4  5  1  0  0  0  0
  4 17  2  0  0  0  0
  5  6  1  0  0  0  0
  5 25  1  0  0  0  0
  6  7  1  0  0  0  0
  6 18  1  0  0  0  0
  6 26  1  1  0  0  0
  7  8  1  0  0  0  0
  7 27  1  0  0  0  0
  7 28  1  0  0  0  0
  8 11  1  0  0  0  0
  9 10  1  0  0  0  0
  9 13  2  0  0  0  0
  9 29  1  0  0  0  0
 10  8  2  0  0  0  0
 10 30  1  0  0  0  0
 11 12  2  0  0  0  0
 11 31  1  0  0  0  0
 12 13  1  0  0  0  0
 12 32  1  0  0  0  0
 13 33  1  0  0  0  0
 15 34  1  0  0  0  0
 16 35  1  0  0  0  0
 16 36  1  0  0  0  0
 18 19  2  0  0  0  0
 18 20  1  0  0  0  0
 20 21  1  0  0  0  0
 21 37  1  0  0  0  0
 21 38  1  0  0  0  0
 21 39  1  0  0  0  0
M  END
>  <DRUGBANK_ID>
DB00168

>  <SECONDARY_ACCESSION_NUMBERS>
NUTR00046

>  <COMMON_NAME>
Aspartame

>  <CAS_NUMBER>
22839-47-0

>  <UNII>
Z0H242BBR1

>  <SYNONYMS>
1-Methyl N-L-alpha-aspartyl-L-phenylalanate; 1-methyl N-L-α-aspartyl-L-phenylalanate; 3-Amino-N-(alpha-carboxyphenethyl)succinamic acid N-methyl ester; 3-Amino-N-(alpha-methoxycarbonylphenethyl) succinamic acid; 3-Amino-N-(α-carboxyphenethyl)succinamic acid N-methyl ester; 3-Amino-N-(α-methoxycarbonylphenethyl) succinamic acid; Asp-phe-ome; Aspartam; Aspartame; Aspartamo; Aspartamum; Aspartylphenylalanine methyl ester; L-Aspartyl-L-phenylalanine methyl ester

$$$$
