
 OpenBabel10282417203D

 29 28  0  0  0  0  0  0  0  0999 V2000
    1.0449    0.0497   -0.0465 C   0  0  0  0  0  0  0  0  0  0  0  0
   -1.0857   -5.4084    0.3370 C   0  0  0  0  0  0  0  0  0  0  0  0
   -3.1277   -3.9454    0.0285 C   0  0  0  0  0  0  0  0  0  0  0  0
    0.5288   -2.8376    0.9166 C   0  0  0  0  0  0  0  0  0  0  0  0
    1.0872   -2.4265   -0.4545 C   0  0  0  0  0  0  0  0  0  0  0  0
   -0.9960   -3.0079    1.0101 C   0  0  0  0  0  0  0  0  0  0  0  0
    0.6221   -1.0597   -1.0029 C   0  0  3  0  0  0  0  0  0  0  0  0
   -1.6049   -4.0111    0.0041 C   0  0  0  0  0  0  0  0  0  0  0  0
   -0.8056   -0.9363   -1.3004 N   0  0  0  0  0  0  0  0  0  0  0  0
   -1.2578   -3.6918   -1.3452 O   0  0  0  0  0  0  0  0  0  0  0  0
    0.6201   -0.0873    0.9536 H   0  0  0  0  0  0  0  0  0  0  0  0
    0.7265    1.0318   -0.4049 H   0  0  0  0  0  0  0  0  0  0  0  0
    2.1355    0.0555    0.0494 H   0  0  0  0  0  0  0  0  0  0  0  0
   -1.3609   -5.6893    1.3589 H   0  0  0  0  0  0  0  0  0  0  0  0
   -1.4704   -6.1576   -0.3585 H   0  0  0  0  0  0  0  0  0  0  0  0
    0.0061   -5.4533    0.2533 H   0  0  0  0  0  0  0  0  0  0  0  0
   -3.4711   -2.9576   -0.3064 H   0  0  0  0  0  0  0  0  0  0  0  0
   -3.5499   -4.6652   -0.6823 H   0  0  0  0  0  0  0  0  0  0  0  0
   -3.5337   -4.1423    1.0224 H   0  0  0  0  0  0  0  0  0  0  0  0
    1.0137   -3.7738    1.2186 H   0  0  0  0  0  0  0  0  0  0  0  0
    0.8489   -2.1149    1.6760 H   0  0  0  0  0  0  0  0  0  0  0  0
    0.9158   -3.2154   -1.1943 H   0  0  0  0  0  0  0  0  0  0  0  0
    2.1817   -2.3991   -0.3688 H   0  0  0  0  0  0  0  0  0  0  0  0
   -1.2359   -3.3369    2.0307 H   0  0  0  0  0  0  0  0  0  0  0  0
   -1.4793   -2.0310    0.9339 H   0  0  0  0  0  0  0  0  0  0  0  0
    1.1321   -0.9085   -1.9604 H   0  0  0  0  0  0  0  0  0  0  0  0
   -1.1497   -1.8592   -1.6038 H   0  0  0  0  0  0  0  0  0  0  0  0
   -1.3322   -0.7272   -0.4564 H   0  0  0  0  0  0  0  0  0  0  0  0
   -1.4647   -4.4503   -1.9100 H   0  0  0  0  0  0  0  0  0  0  0  0
  1 11  1  0  0  0  0
  1 12  1  0  0  0  0
  1 13  1  0  0  0  0
  2 14  1  0  0  0  0
  2 15  1  0  0  0  0
  2 16  1  0  0  0  0
  3 17  1  0  0  0  0
  3 18  1  0  0  0  0
  3 19  1  0  0  0  0
  4 20  1  0  0  0  0
  4 21  1  0  0  0  0
  5  4  1  0  0  0  0
  5 22  1  0  0  0  0
  5 23  1  0  0  0  0
  6  4  1  0  0  0  0
  6 24  1  0  0  0  0
  6 25  1  0  0  0  0
  7  1  1  0  0  0  0
  7  5  1  0  0  0  0
  7 26  1  0  0  0  0
  8  2  1  0  0  0  0
  8  3  1  0  0  0  0
  8  6  1  0  0  0  0
  9  7  1  0  0  0  0
  9 27  1  0  0  0  0
  9 28  1  0  0  0  0
 10  8  1  0  0  0  0
 10 29  1  0  0  0  0
M  END
>  <DRUGBANK_ID>
DB13574

>  <COMMON_NAME>
Heptaminol

>  <CAS_NUMBER>
372-66-7

>  <UNII>
3DQS188SY5

>  <SYNONYMS>
Heptaminol

$$$$
