
 OpenBabel10282417213D

  9  8  0  0  0  0  0  0  0  0999 V2000
    1.0296   -0.0749    0.0593 O   0  0  0  0  0  0  0  0  0  0  0  0
    3.4759   -1.0961   -1.3369 O   0  0  0  0  0  0  0  0  0  0  0  0
    2.8643   -0.0749    0.0593 Cr  0  0  0  0  0  0  0  0  0  0  0  0
    3.5477   -0.8554    1.8274 O   0  0  0  0  0  0  0  0  0  0  0  0
    6.2092   -1.8766    0.4312 O   0  0  0  0  0  0  0  0  0  0  0  0
    6.2092    0.8643    1.6412 O   0  0  0  0  0  0  0  0  0  0  0  0
    5.5977   -0.8554    1.8274 Cr  0  0  0  0  0  0  0  0  0  0  0  0
    3.5477    1.8466   -0.1488 O   0  5  0  0  0  0  0  0  0  0  0  0
    6.2810   -1.6360    3.5956 O   0  5  0  0  0  0  0  0  0  0  0  0
  3  1  2  0  0  0  0
  3  2  2  0  0  0  0
  3  8  1  0  0  0  0
  3  4  1  0  0  0  0
  7  4  1  0  0  0  0
  7  5  2  0  0  0  0
  7  6  2  0  0  0  0
  7  9  1  0  0  0  0
M  CHG  2   8  -1   9  -1
M  END
>  <DRUGBANK_ID>
DB14182

>  <COMMON_NAME>
Dichromate

>  <CAS_NUMBER>
13907-47-6

>  <UNII>
9LKY4BFN2V

>  <SYNONYMS>
Bichromate; Dichromat; Dichromate ion; dichromate ion(2−); dichromate(2−)

$$$$
