PC(16:0/16:0)
 OpenBabel10282417173D

130129  0  0  1  0  0  0  0  0999 V2000
    0.7231    0.0088   -0.2572 C   0  0  0  0  0  0  0  0  0  0  0  0
    0.3534   -0.1640   -1.7142 C   0  0  1  0  0  0  0  0  0  0  0  0
    0.7621    1.0461   -2.5408 C   0  0  0  0  0  0  0  0  0  0  0  0
    0.4455    1.1942    0.4769 O   0  0  0  0  0  0  0  0  0  0  0  0
    0.2212    2.3007   -2.1117 O   0  0  0  0  0  0  0  0  0  0  0  0
    0.9990   -1.3898   -2.2463 O   0  0  0  0  0  0  0  0  0  0  0  0
    1.0221    1.3973    2.0952 P   0  0  3  0  0  0  0  0  0  0  0  0
    0.2424    0.1497    2.4483 O   0  5  0  0  0  0  0  0  0  0  0  0
    2.1176    2.1712    1.4888 O   0  0  0  0  0  0  0  0  0  0  0  0
    1.5988    1.6005    3.7136 O   0  0  0  0  0  0  0  0  0  0  0  0
    3.0582    1.7835    3.7723 C   0  0  0  0  0  0  0  0  0  0  0  0
    4.0238    0.5991    3.2561 C   0  0  0  0  0  0  0  0  0  0  0  0
    3.7496    0.0712    1.8594 N   0  3  0  0  0  0  0  0  0  0  0  0
    4.0473    1.3664    0.8170 C   0  0  0  0  0  0  0  0  0  0  0  0
    4.4312   -1.0089    1.1162 C   0  0  0  0  0  0  0  0  0  0  0  0
    2.4573   -0.6984    2.1378 C   0  0  0  0  0  0  0  0  0  0  0  0
   -0.7215   -0.3638   -1.7563 H   0  0  0  0  0  0  0  0  0  0  0  0
   -1.1116    2.3633   -1.8670 C   0  0  0  0  0  0  0  0  0  0  0  0
   -1.9165    1.5051   -2.2015 O   0  0  0  0  0  0  0  0  0  0  0  0
   -1.5181    3.6573   -1.2062 C   0  0  0  0  0  0  0  0  0  0  0  0
   -0.9834    3.8362    0.2052 C   0  0  0  0  0  0  0  0  0  0  0  0
    0.5299    3.9890    0.1982 C   0  0  0  0  0  0  0  0  0  0  0  0
    1.0424    5.1272   -0.6475 C   0  0  0  0  0  0  0  0  0  0  0  0
    0.5386    6.4221   -0.0455 C   0  0  0  0  0  0  0  0  0  0  0  0
    1.0649    6.5629    1.3900 C   0  0  0  0  0  0  0  0  0  0  0  0
    2.5980    6.5376    1.3855 C   0  0  0  0  0  0  0  0  0  0  0  0
    3.1132    7.6829    0.5102 C   0  0  0  0  0  0  0  0  0  0  0  0
    2.5999    9.0147    1.0669 C   0  0  0  0  0  0  0  0  0  0  0  0
    3.1056    9.1988    2.5006 C   0  0  0  0  0  0  0  0  0  0  0  0
    4.6368    9.1972    2.5094 C   0  0  0  0  0  0  0  0  0  0  0  0
    5.1670   10.3415    1.6383 C   0  0  0  0  0  0  0  0  0  0  0  0
    4.6954   11.6957    2.1795 C   0  0  0  0  0  0  0  0  0  0  0  0
    5.1689   11.9120    3.6174 C   0  0  0  0  0  0  0  0  0  0  0  0
    6.6872   11.8838    3.6830 C   0  0  0  0  0  0  0  0  0  0  0  0
    2.3420   -1.5741   -2.2453 C   0  0  0  0  0  0  0  0  0  0  0  0
    3.1845   -0.7012   -1.9619 O   0  0  0  0  0  0  0  0  0  0  0  0
    2.7895   -2.9556   -2.6373 C   0  0  0  0  0  0  0  0  0  0  0  0
    2.2726   -4.0579   -1.7160 C   0  0  0  0  0  0  0  0  0  0  0  0
    0.7483   -4.1454   -1.7470 C   0  0  0  0  0  0  0  0  0  0  0  0
    0.2570   -4.3259   -3.1890 C   0  0  0  0  0  0  0  0  0  0  0  0
    0.7769   -5.6526   -3.7491 C   0  0  0  0  0  0  0  0  0  0  0  0
    0.2625   -6.8050   -2.8831 C   0  0  0  0  0  0  0  0  0  0  0  0
   -1.2695   -6.7976   -2.8821 C   0  0  0  0  0  0  0  0  0  0  0  0
   -1.7788   -6.9713   -4.3158 C   0  0  0  0  0  0  0  0  0  0  0  0
   -1.2665   -8.2999   -4.8796 C   0  0  0  0  0  0  0  0  0  0  0  0
   -1.7740   -9.4548   -4.0111 C   0  0  0  0  0  0  0  0  0  0  0  0
   -3.3054   -9.4600   -4.0042 C   0  0  0  0  0  0  0  0  0  0  0  0
   -3.8357   -9.6362   -5.4315 C   0  0  0  0  0  0  0  0  0  0  0  0
   -3.3643  -10.9696   -6.0224 C   0  0  0  0  0  0  0  0  0  0  0  0
   -3.8380  -12.1496   -5.1727 C   0  0  0  0  0  0  0  0  0  0  0  0
   -5.3563  -12.1768   -5.1067 C   0  0  0  0  0  0  0  0  0  0  0  0
    0.3367   -0.8742    0.2700 H   0  0  0  0  0  0  0  0  0  0  0  0
    1.7994   -0.0038   -0.3350 H   0  0  0  0  0  0  0  0  0  0  0  0
    1.8509    1.1539   -2.4751 H   0  0  0  0  0  0  0  0  0  0  0  0
    0.5392    0.8860   -3.5962 H   0  0  0  0  0  0  0  0  0  0  0  0
    3.3104    2.7363    3.2905 H   0  0  0  0  0  0  0  0  0  0  0  0
    3.2990    1.9417    4.8274 H   0  0  0  0  0  0  0  0  0  0  0  0
    5.0706    0.8940    3.2713 H   0  0  0  0  0  0  0  0  0  0  0  0
    3.8883   -0.2559    3.9288 H   0  0  0  0  0  0  0  0  0  0  0  0
    5.1209    1.3616    0.6215 H   0  0  0  0  0  0  0  0  0  0  0  0
    3.4894    1.2699   -0.1256 H   0  0  0  0  0  0  0  0  0  0  0  0
    3.9826    2.3687    1.2803 H   0  0  0  0  0  0  0  0  0  0  0  0
    4.2671   -1.9668    1.6090 H   0  0  0  0  0  0  0  0  0  0  0  0
    3.9212   -1.0566    0.1453 H   0  0  0  0  0  0  0  0  0  0  0  0
    5.4724   -0.7635    0.9877 H   0  0  0  0  0  0  0  0  0  0  0  0
    2.4418   -1.7854    2.2468 H   0  0  0  0  0  0  0  0  0  0  0  0
    2.0520   -0.4204    3.1034 H   0  0  0  0  0  0  0  0  0  0  0  0
    1.8999   -0.5741    1.2723 H   0  0  0  0  0  0  0  0  0  0  0  0
   -1.2332    4.4846   -1.8613 H   0  0  0  0  0  0  0  0  0  0  0  0
   -2.6090    3.6737   -1.1627 H   0  0  0  0  0  0  0  0  0  0  0  0
   -1.4409    4.7204    0.6668 H   0  0  0  0  0  0  0  0  0  0  0  0
   -1.2816    3.0037    0.8526 H   0  0  0  0  0  0  0  0  0  0  0  0
    0.8708    4.0630    1.2332 H   0  0  0  0  0  0  0  0  0  0  0  0
    1.0246    3.1263   -0.2188 H   0  0  0  0  0  0  0  0  0  0  0  0
    2.1366    5.0678   -0.6893 H   0  0  0  0  0  0  0  0  0  0  0  0
    0.7440    5.0214   -1.6911 H   0  0  0  0  0  0  0  0  0  0  0  0
    0.8408    7.2505   -0.6892 H   0  0  0  0  0  0  0  0  0  0  0  0
   -0.5525    6.4637   -0.0472 H   0  0  0  0  0  0  0  0  0  0  0  0
    0.6600    7.4747    1.8340 H   0  0  0  0  0  0  0  0  0  0  0  0
    0.6897    5.7880    2.0640 H   0  0  0  0  0  0  0  0  0  0  0  0
    2.9723    6.5935    2.4115 H   0  0  0  0  0  0  0  0  0  0  0  0
    3.0054    5.5860    1.0308 H   0  0  0  0  0  0  0  0  0  0  0  0
    4.2038    7.6449    0.4519 H   0  0  0  0  0  0  0  0  0  0  0  0
    2.8089    7.5769   -0.5348 H   0  0  0  0  0  0  0  0  0  0  0  0
    2.9033    9.8324    0.4090 H   0  0  0  0  0  0  0  0  0  0  0  0
    1.5083    9.0812    1.0495 H   0  0  0  0  0  0  0  0  0  0  0  0
    2.6899   10.1163    2.9247 H   0  0  0  0  0  0  0  0  0  0  0  0
    2.7322    8.4208    3.1739 H   0  0  0  0  0  0  0  0  0  0  0  0
    5.0001    9.2578    3.5383 H   0  0  0  0  0  0  0  0  0  0  0  0
    5.0473    8.2460    2.1557 H   0  0  0  0  0  0  0  0  0  0  0  0
    6.2565   10.2870    1.5809 H   0  0  0  0  0  0  0  0  0  0  0  0
    4.8530   10.2352    0.5945 H   0  0  0  0  0  0  0  0  0  0  0  0
    5.0610   12.4975    1.5314 H   0  0  0  0  0  0  0  0  0  0  0  0
    3.6018   11.7743    2.1406 H   0  0  0  0  0  0  0  0  0  0  0  0
    4.7886   12.8666    3.9904 H   0  0  0  0  0  0  0  0  0  0  0  0
    4.7564   11.1508    4.2904 H   0  0  0  0  0  0  0  0  0  0  0  0
    7.0994   12.6662    3.0393 H   0  0  0  0  0  0  0  0  0  0  0  0
    7.0338   12.0344    4.7054 H   0  0  0  0  0  0  0  0  0  0  0  0
    7.0969   10.9245    3.3498 H   0  0  0  0  0  0  0  0  0  0  0  0
    2.5372   -3.1133   -3.6901 H   0  0  0  0  0  0  0  0  0  0  0  0
    3.8851   -2.9832   -2.6067 H   0  0  0  0  0  0  0  0  0  0  0  0
    2.7125   -5.0155   -2.0306 H   0  0  0  0  0  0  0  0  0  0  0  0
    2.6171   -3.9157   -0.6874 H   0  0  0  0  0  0  0  0  0  0  0  0
    0.4092   -4.9528   -1.0910 H   0  0  0  0  0  0  0  0  0  0  0  0
    0.2878   -3.2686   -1.2921 H   0  0  0  0  0  0  0  0  0  0  0  0
   -0.8346   -4.2622   -3.2162 H   0  0  0  0  0  0  0  0  0  0  0  0
    0.5625   -3.5094   -3.8478 H   0  0  0  0  0  0  0  0  0  0  0  0
    0.4756   -5.7547   -4.7965 H   0  0  0  0  0  0  0  0  0  0  0  0
    1.8688   -5.6832   -3.7975 H   0  0  0  0  0  0  0  0  0  0  0  0
    0.6765   -7.7512   -3.2413 H   0  0  0  0  0  0  0  0  0  0  0  0
    0.6337   -6.7521   -1.8569 H   0  0  0  0  0  0  0  0  0  0  0  0
   -1.6423   -7.5736   -2.2085 H   0  0  0  0  0  0  0  0  0  0  0  0
   -1.6848   -5.8826   -2.4510 H   0  0  0  0  0  0  0  0  0  0  0  0
   -2.8698   -6.9032   -4.3316 H   0  0  0  0  0  0  0  0  0  0  0  0
   -1.4734   -6.1498   -4.9699 H   0  0  0  0  0  0  0  0  0  0  0  0
   -1.5704   -8.4004   -5.9244 H   0  0  0  0  0  0  0  0  0  0  0  0
   -0.1748   -8.3335   -4.9379 H   0  0  0  0  0  0  0  0  0  0  0  0
   -1.3587  -10.3993   -4.3716 H   0  0  0  0  0  0  0  0  0  0  0  0
   -1.4008   -9.3936   -2.9840 H   0  0  0  0  0  0  0  0  0  0  0  0
   -3.6689  -10.2386   -3.3288 H   0  0  0  0  0  0  0  0  0  0  0  0
   -3.7160   -8.5424   -3.5707 H   0  0  0  0  0  0  0  0  0  0  0  0
   -4.9253   -9.5571   -5.4325 H   0  0  0  0  0  0  0  0  0  0  0  0
   -3.5217   -8.8151   -6.0845 H   0  0  0  0  0  0  0  0  0  0  0  0
   -3.7301  -11.0659   -7.0488 H   0  0  0  0  0  0  0  0  0  0  0  0
   -2.2708  -10.9967   -6.1058 H   0  0  0  0  0  0  0  0  0  0  0  0
   -3.4577  -13.0834   -5.5952 H   0  0  0  0  0  0  0  0  0  0  0  0
   -3.4255  -12.0995   -4.1579 H   0  0  0  0  0  0  0  0  0  0  0  0
   -5.7685  -12.2628   -6.1162 H   0  0  0  0  0  0  0  0  0  0  0  0
   -5.7029  -13.0137   -4.5002 H   0  0  0  0  0  0  0  0  0  0  0  0
   -5.7659  -11.2684   -4.6530 H   0  0  0  0  0  0  0  0  0  0  0  0
  1  4  1  0  0  0  0
  1 52  1  0  0  0  0
  1 53  1  0  0  0  0
  2  1  1  0  0  0  0
  2  6  1  0  0  0  0
  2 17  1  6  0  0  0
  3  2  1  0  0  0  0
  3  5  1  0  0  0  0
  3 54  1  0  0  0  0
  3 55  1  0  0  0  0
  4  7  1  0  0  0  0
  5 18  1  0  0  0  0
  6 35  1  0  0  0  0
  7  8  1  0  0  0  0
  7  9  2  0  0  0  0
  7 10  1  0  0  0  0
 10 11  1  0  0  0  0
 11 12  1  0  0  0  0
 11 56  1  0  0  0  0
 11 57  1  0  0  0  0
 12 13  1  0  0  0  0
 12 58  1  0  0  0  0
 12 59  1  0  0  0  0
 13 14  1  0  0  0  0
 13 15  1  0  0  0  0
 13 16  1  0  0  0  0
 14 60  1  0  0  0  0
 14 61  1  0  0  0  0
 14 62  1  0  0  0  0
 15 63  1  0  0  0  0
 15 64  1  0  0  0  0
 15 65  1  0  0  0  0
 16 66  1  0  0  0  0
 16 67  1  0  0  0  0
 16 68  1  0  0  0  0
 18 19  2  0  0  0  0
 18 20  1  0  0  0  0
 20 21  1  0  0  0  0
 20 69  1  0  0  0  0
 20 70  1  0  0  0  0
 21 22  1  0  0  0  0
 21 71  1  0  0  0  0
 21 72  1  0  0  0  0
 22 23  1  0  0  0  0
 22 73  1  0  0  0  0
 22 74  1  0  0  0  0
 23 24  1  0  0  0  0
 23 75  1  0  0  0  0
 23 76  1  0  0  0  0
 24 25  1  0  0  0  0
 24 77  1  0  0  0  0
 24 78  1  0  0  0  0
 25 26  1  0  0  0  0
 25 79  1  0  0  0  0
 25 80  1  0  0  0  0
 26 27  1  0  0  0  0
 26 81  1  0  0  0  0
 26 82  1  0  0  0  0
 27 28  1  0  0  0  0
 27 83  1  0  0  0  0
 27 84  1  0  0  0  0
 28 29  1  0  0  0  0
 28 85  1  0  0  0  0
 28 86  1  0  0  0  0
 29 30  1  0  0  0  0
 29 87  1  0  0  0  0
 29 88  1  0  0  0  0
 30 31  1  0  0  0  0
 30 89  1  0  0  0  0
 30 90  1  0  0  0  0
 31 32  1  0  0  0  0
 31 91  1  0  0  0  0
 31 92  1  0  0  0  0
 32 33  1  0  0  0  0
 32 93  1  0  0  0  0
 32 94  1  0  0  0  0
 33 34  1  0  0  0  0
 33 95  1  0  0  0  0
 33 96  1  0  0  0  0
 34 97  1  0  0  0  0
 34 98  1  0  0  0  0
 34 99  1  0  0  0  0
 35 36  2  0  0  0  0
 35 37  1  0  0  0  0
 37 38  1  0  0  0  0
 37100  1  0  0  0  0
 37101  1  0  0  0  0
 38 39  1  0  0  0  0
 38102  1  0  0  0  0
 38103  1  0  0  0  0
 39 40  1  0  0  0  0
 39104  1  0  0  0  0
 39105  1  0  0  0  0
 40 41  1  0  0  0  0
 40106  1  0  0  0  0
 40107  1  0  0  0  0
 41 42  1  0  0  0  0
 41108  1  0  0  0  0
 41109  1  0  0  0  0
 42 43  1  0  0  0  0
 42110  1  0  0  0  0
 42111  1  0  0  0  0
 43 44  1  0  0  0  0
 43112  1  0  0  0  0
 43113  1  0  0  0  0
 44 45  1  0  0  0  0
 44114  1  0  0  0  0
 44115  1  0  0  0  0
 45 46  1  0  0  0  0
 45116  1  0  0  0  0
 45117  1  0  0  0  0
 46 47  1  0  0  0  0
 46118  1  0  0  0  0
 46119  1  0  0  0  0
 47 48  1  0  0  0  0
 47120  1  0  0  0  0
 47121  1  0  0  0  0
 48 49  1  0  0  0  0
 48122  1  0  0  0  0
 48123  1  0  0  0  0
 49 50  1  0  0  0  0
 49124  1  0  0  0  0
 49125  1  0  0  0  0
 50 51  1  0  0  0  0
 50126  1  0  0  0  0
 50127  1  0  0  0  0
 51128  1  0  0  0  0
 51129  1  0  0  0  0
 51130  1  0  0  0  0
M  CHG  2   8  -1  13   1
M  END
>  <DRUGBANK_ID>
DB09114

>  <COMMON_NAME>
Colfosceril palmitate

>  <CAS_NUMBER>
63-89-8

>  <UNII>
319X2NFW0A

>  <SYNONYMS>
Colfosceril palmitate; Colfoscerili palmitas; Dipalmitoylphosphatidylcholine; Palmitate de colfosceril; Palmitato de colfoscerilo

$$$$
