
 OpenBabel10282417133D

 14 13  0  0  0  0  0  0  0  0999 V2000
    0.9992    0.0697    0.0717 O   0  0  0  0  0  0  0  0  0  0  0  0
   -0.1541    1.2190   -2.9812 O   0  0  0  0  0  0  0  0  0  0  0  0
   -1.0041    0.4938   -0.9403 O   0  0  0  0  0  0  0  0  0  0  0  0
    0.8898    1.3681   -3.9487 C   0  0  0  0  0  0  0  0  0  0  0  0
    1.9581    2.3886   -3.5644 C   0  0  0  0  0  0  0  0  0  0  0  0
    0.4226    0.6443   -1.4547 P   0  0  0  0  0  0  0  0  0  0  0  0
    0.9504    2.1096   -0.9811 O   0  0  0  0  0  0  0  0  0  0  0  0
    1.9193   -0.2347    0.0448 H   0  0  0  0  0  0  0  0  0  0  0  0
    1.3586    0.3911   -4.1061 H   0  0  0  0  0  0  0  0  0  0  0  0
    0.4263    1.6769   -4.8889 H   0  0  0  0  0  0  0  0  0  0  0  0
    2.5887    2.0134   -2.7509 H   0  0  0  0  0  0  0  0  0  0  0  0
    2.6347    2.5921   -4.3986 H   0  0  0  0  0  0  0  0  0  0  0  0
    1.5100    3.3307   -3.2316 H   0  0  0  0  0  0  0  0  0  0  0  0
    1.9004    2.1307   -0.7705 H   0  0  0  0  0  0  0  0  0  0  0  0
  1  8  1  0  0  0  0
  2  4  1  0  0  0  0
  4  5  1  0  0  0  0
  4  9  1  0  0  0  0
  4 10  1  0  0  0  0
  5 11  1  0  0  0  0
  5 12  1  0  0  0  0
  5 13  1  0  0  0  0
  6  3  2  0  0  0  0
  6  7  1  0  0  0  0
  6  2  1  0  0  0  0
  6  1  1  0  0  0  0
  7 14  1  0  0  0  0
M  END
>  <DRUGBANK_ID>
DB03822

>  <SECONDARY_ACCESSION_NUMBERS>
EXPT01327

>  <COMMON_NAME>
Ethyl dihydrogen phosphate

>  <CAS_NUMBER>
1623-14-9

>  <UNII>
BMH1WT204A

>  <SYNONYMS>
Monoethyl acid phosphate; Monoethyl phosphate; O-Ethyl dihydrogen phosphate; Phosphoric acid monoethyl ester

$$$$
