
 OpenBabel10282417233D

 63 67  0  0  0  0  0  0  0  0999 V2000
    0.9505   -0.0770   -0.0059 C   0  0  0  0  0  0  0  0  0  0  0  0
    0.4816   -0.6501   -1.3210 C   0  0  0  0  0  0  0  0  0  0  0  0
   -0.1498   -1.7077   -1.3474 O   0  0  0  0  0  0  0  0  0  0  0  0
    0.7779    0.0850   -2.5977 C   0  0  0  0  0  0  0  0  0  0  0  0
   -0.1783    0.2419   -3.5349 C   0  0  0  0  0  0  0  0  0  0  0  0
   -1.6130   -0.1817   -3.3494 C   0  0  0  0  0  0  0  0  0  0  0  0
    0.2028    0.8401   -4.8308 C   0  0  0  0  0  0  0  0  0  0  0  0
    1.4922    1.2807   -5.1061 C   0  0  0  0  0  0  0  0  0  0  0  0
    1.8486    1.8076   -6.3147 N   0  0  0  0  0  0  0  0  0  0  0  0
    0.9055    1.9115   -7.2715 C   0  0  0  0  0  0  0  0  0  0  0  0
    1.2401    2.4654   -8.5155 N   0  0  0  0  0  0  0  0  0  0  0  0
    0.3565    2.5610   -9.6032 C   0  0  0  0  0  0  0  0  0  0  0  0
   -0.7906    3.2957   -9.3951 C   0  0  0  0  0  0  0  0  0  0  0  0
   -1.7174    3.4019  -10.4030 C   0  0  0  0  0  0  0  0  0  0  0  0
   -1.5516    2.7719  -11.6328 C   0  0  0  0  0  0  0  0  0  0  0  0
   -0.3638    2.0647  -11.7702 C   0  0  0  0  0  0  0  0  0  0  0  0
    0.6032    1.9756  -10.8012 N   0  0  0  0  0  0  0  0  0  0  0  0
   -2.5939    2.8668  -12.7392 C   0  0  0  0  0  0  0  0  0  0  0  0
   -2.7940    4.3154  -13.2231 C   0  0  0  0  0  0  0  0  0  0  0  0
   -3.5546    5.1736  -12.2124 C   0  0  0  0  0  0  0  0  0  0  0  0
   -4.8121    4.5527  -11.7871 N   0  0  0  0  0  0  0  0  0  0  0  0
   -4.7001    3.1664  -11.3248 C   0  0  0  0  0  0  0  0  0  0  0  0
   -3.9542    2.2774  -12.3197 C   0  0  0  0  0  0  0  0  0  0  0  0
   -0.3601    1.5138   -7.0690 N   0  0  0  0  0  0  0  0  0  0  0  0
   -0.6799    0.9831   -5.8788 C   0  0  0  0  0  0  0  0  0  0  0  0
    2.4660    1.1624   -4.0616 N   0  0  0  0  0  0  0  0  0  0  0  0
    3.8410    1.6332   -4.2807 C   0  0  0  0  0  0  0  0  0  0  0  0
    4.9034    0.5254   -4.1877 C   0  0  0  0  0  0  0  0  0  0  0  0
    6.2089    1.2436   -3.8520 C   0  0  0  0  0  0  0  0  0  0  0  0
    5.8342    2.6398   -3.3578 C   0  0  0  0  0  0  0  0  0  0  0  0
    4.3194    2.6497   -3.2301 C   0  0  0  0  0  0  0  0  0  0  0  0
    2.1537    0.5751   -2.8419 C   0  0  0  0  0  0  0  0  0  0  0  0
    2.9804    0.4246   -1.9336 O   0  0  0  0  0  0  0  0  0  0  0  0
    0.5554   -0.7008    0.8027 H   0  0  0  0  0  0  0  0  0  0  0  0
    0.5731    0.9391    0.1302 H   0  0  0  0  0  0  0  0  0  0  0  0
    2.0367   -0.1044    0.0801 H   0  0  0  0  0  0  0  0  0  0  0  0
   -2.2879    0.6642   -3.5158 H   0  0  0  0  0  0  0  0  0  0  0  0
   -1.8628   -0.9926   -4.0410 H   0  0  0  0  0  0  0  0  0  0  0  0
   -1.8458   -0.5316   -2.3424 H   0  0  0  0  0  0  0  0  0  0  0  0
    2.2134    2.4154   -8.7506 H   0  0  0  0  0  0  0  0  0  0  0  0
   -0.9717    3.8079   -8.4570 H   0  0  0  0  0  0  0  0  0  0  0  0
   -2.5702    4.0025  -10.1389 H   0  0  0  0  0  0  0  0  0  0  0  0
   -0.1446    1.5238  -12.6899 H   0  0  0  0  0  0  0  0  0  0  0  0
   -2.2385    2.2813  -13.6003 H   0  0  0  0  0  0  0  0  0  0  0  0
   -1.8249    4.7753  -13.4536 H   0  0  0  0  0  0  0  0  0  0  0  0
   -3.3667    4.3090  -14.1609 H   0  0  0  0  0  0  0  0  0  0  0  0
   -2.9206    5.4224  -11.3586 H   0  0  0  0  0  0  0  0  0  0  0  0
   -3.7642    6.1539  -12.6519 H   0  0  0  0  0  0  0  0  0  0  0  0
   -5.2355    5.1190  -11.0526 H   0  0  0  0  0  0  0  0  0  0  0  0
   -5.7022    2.7600  -11.1543 H   0  0  0  0  0  0  0  0  0  0  0  0
   -4.2430    3.1089  -10.3346 H   0  0  0  0  0  0  0  0  0  0  0  0
   -4.5883    2.1604  -13.2098 H   0  0  0  0  0  0  0  0  0  0  0  0
   -3.8204    1.2723  -11.9003 H   0  0  0  0  0  0  0  0  0  0  0  0
   -1.7168    0.6656   -5.8147 H   0  0  0  0  0  0  0  0  0  0  0  0
    3.9351    2.1055   -5.2658 H   0  0  0  0  0  0  0  0  0  0  0  0
    4.6905   -0.2004   -3.3961 H   0  0  0  0  0  0  0  0  0  0  0  0
    4.9766   -0.0522   -5.1144 H   0  0  0  0  0  0  0  0  0  0  0  0
    6.7702    0.6893   -3.0907 H   0  0  0  0  0  0  0  0  0  0  0  0
    6.8495    1.3169   -4.7367 H   0  0  0  0  0  0  0  0  0  0  0  0
    6.3160    2.8746   -2.4022 H   0  0  0  0  0  0  0  0  0  0  0  0
    6.1552    3.3939   -4.0835 H   0  0  0  0  0  0  0  0  0  0  0  0
    3.8849    3.6417   -3.3837 H   0  0  0  0  0  0  0  0  0  0  0  0
    4.0686    2.3637   -2.2051 H   0  0  0  0  0  0  0  0  0  0  0  0
  1  2  1  0  0  0  0
  1 34  1  0  0  0  0
  1 35  1  0  0  0  0
  1 36  1  0  0  0  0
  2  3  2  0  0  0  0
  2  4  1  0  0  0  0
  4  5  2  0  0  0  0
  4 32  1  0  0  0  0
  5  6  1  0  0  0  0
  5  7  1  0  0  0  0
  6 37  1  0  0  0  0
  6 38  1  0  0  0  0
  6 39  1  0  0  0  0
  7  8  2  0  0  0  0
  7 25  1  0  0  0  0
  8  9  1  0  0  0  0
  8 26  1  0  0  0  0
  9 10  2  0  0  0  0
 10 11  1  0  0  0  0
 10 24  1  0  0  0  0
 11 12  1  0  0  0  0
 11 40  1  0  0  0  0
 12 13  2  0  0  0  0
 12 17  1  0  0  0  0
 13 14  1  0  0  0  0
 13 41  1  0  0  0  0
 14 15  2  0  0  0  0
 14 42  1  0  0  0  0
 15 16  1  0  0  0  0
 15 18  1  0  0  0  0
 16 17  2  0  0  0  0
 16 43  1  0  0  0  0
 18 19  1  0  0  0  0
 18 23  1  0  0  0  0
 18 44  1  0  0  0  0
 19 20  1  0  0  0  0
 19 45  1  0  0  0  0
 19 46  1  0  0  0  0
 20 21  1  0  0  0  0
 20 47  1  0  0  0  0
 20 48  1  0  0  0  0
 21 22  1  0  0  0  0
 21 49  1  0  0  0  0
 22 23  1  0  0  0  0
 22 50  1  0  0  0  0
 22 51  1  0  0  0  0
 23 52  1  0  0  0  0
 23 53  1  0  0  0  0
 24 25  2  0  0  0  0
 25 54  1  0  0  0  0
 26 27  1  0  0  0  0
 26 32  1  0  0  0  0
 27 28  1  0  0  0  0
 27 31  1  0  0  0  0
 27 55  1  0  0  0  0
 28 29  1  0  0  0  0
 28 56  1  0  0  0  0
 28 57  1  0  0  0  0
 29 30  1  0  0  0  0
 29 58  1  0  0  0  0
 29 59  1  0  0  0  0
 30 31  1  0  0  0  0
 30 60  1  0  0  0  0
 30 61  1  0  0  0  0
 31 62  1  0  0  0  0
 31 63  1  0  0  0  0
 32 33  2  0  0  0  0
M  END
>  <DRUGBANK_ID>
DB17456

>  <COMMON_NAME>
Dalpiciclib

>  <CAS_NUMBER>
1637781-04-4

>  <UNII>
5ZHA5P4PFX

>  <SYNONYMS>
Cdk4/6 inhibitor shr6390; Pyrido(2,3-d)pyrimidin-7(8h)-one, 6-acetyl-8-cyclopentyl-5-methyl-2-((5-(4-piperidinyl)-2-pyridinyl)amino)-

$$$$
