
 OpenBabel10282417133D

 37 40  0  0  0  0  0  0  0  0999 V2000
   -1.0499   -1.6699    0.0885 S   0  0  0  0  0  0  0  0  0  0  0  0
    4.3133   -0.3545   -1.4377 S   0  0  0  0  0  0  0  0  0  0  0  0
    3.9780    1.4213    3.5747 O   0  0  0  0  0  0  0  0  0  0  0  0
    3.0950    2.4988    1.8484 O   0  0  0  0  0  0  0  0  0  0  0  0
    7.9970   -2.7792   -1.0675 O   0  0  0  0  0  0  0  0  0  0  0  0
    7.3108   -3.6031    0.8840 O   0  0  0  0  0  0  0  0  0  0  0  0
   -0.0549    0.7018   -0.2869 N   0  0  0  0  0  0  0  0  0  0  0  0
    1.5955   -0.7914    0.0102 N   0  0  0  0  0  0  0  0  0  0  0  0
    5.5240   -1.6456    1.2818 N   0  0  0  0  0  0  0  0  0  0  0  0
   -1.4187    0.8623   -0.4022 C   0  0  0  0  0  0  0  0  0  0  0  0
   -2.3613    1.9985   -0.2801 C   0  0  0  0  0  0  0  0  0  0  0  0
   -3.0880    1.4923    0.9685 C   0  0  0  0  0  0  0  0  0  0  0  0
   -3.3883    0.0192    0.4850 C   0  0  0  0  0  0  0  0  0  0  0  0
   -2.0655   -0.2856   -0.1354 C   0  0  0  0  0  0  0  0  0  0  0  0
    0.3150   -0.6040   -0.0797 C   0  0  0  0  0  0  0  0  0  0  0  0
    1.0935    1.4368   -0.1770 C   0  0  0  0  0  0  0  0  0  0  0  0
    2.1214    0.4879   -0.1179 C   0  0  0  0  0  0  0  0  0  0  0  0
    3.6329    0.6641   -0.0613 C   0  0  1  0  0  0  0  0  0  0  0  0
    4.0984    0.3878    1.3485 C   0  0  0  0  0  0  0  0  0  0  0  0
    6.0263   -0.5820   -0.9427 C   0  0  0  0  0  0  0  0  0  0  0  0
    4.8016   -0.6439    1.8359 C   0  0  0  0  0  0  0  0  0  0  0  0
    6.1374   -1.6245    0.1367 C   0  0  0  0  0  0  0  0  0  0  0  0
    3.6555    1.4907    2.2708 C   0  0  0  0  0  0  0  0  0  0  0  0
    7.1817   -2.7701   -0.0180 C   0  0  0  0  0  0  0  0  0  0  0  0
    3.9062    1.6887   -0.3356 H   0  0  0  0  0  0  0  0  0  0  0  0
    4.4712    0.6625    3.9233 H   0  0  0  0  0  0  0  0  0  0  0  0
    7.8919   -2.1353   -1.7855 H   0  0  0  0  0  0  0  0  0  0  0  0
   -1.9780    3.0139   -0.3486 H   0  0  0  0  0  0  0  0  0  0  0  0
   -3.1496    1.9429   -1.0526 H   0  0  0  0  0  0  0  0  0  0  0  0
   -3.9274    2.1584    1.1923 H   0  0  0  0  0  0  0  0  0  0  0  0
   -2.4323    1.4965    1.8597 H   0  0  0  0  0  0  0  0  0  0  0  0
   -4.1430   -0.0035   -0.3130 H   0  0  0  0  0  0  0  0  0  0  0  0
   -3.6520   -0.7202    1.2440 H   0  0  0  0  0  0  0  0  0  0  0  0
    1.1178    2.5173   -0.1247 H   0  0  0  0  0  0  0  0  0  0  0  0
    6.5013   -0.9315   -1.8606 H   0  0  0  0  0  0  0  0  0  0  0  0
    6.5150    0.3576   -0.6749 H   0  0  0  0  0  0  0  0  0  0  0  0
    4.8345   -0.7916    2.9094 H   0  0  0  0  0  0  0  0  0  0  0  0
  1 14  1  0  0  0  0
  1 15  1  0  0  0  0
  2 18  1  0  0  0  0
  2 20  1  0  0  0  0
  3 23  1  0  0  0  0
  3 26  1  0  0  0  0
  4 23  2  0  0  0  0
  5 24  1  0  0  0  0
  5 27  1  0  0  0  0
  6 24  2  0  0  0  0
  7 10  1  0  0  0  0
  7 15  1  0  0  0  0
  7 16  1  0  0  0  0
  8 15  2  0  0  0  0
  8 17  1  0  0  0  0
  9 21  1  0  0  0  0
  9 22  2  0  0  0  0
 10 11  1  0  0  0  0
 10 14  2  0  0  0  0
 11 12  1  0  0  0  0
 11 28  1  0  0  0  0
 11 29  1  0  0  0  0
 12 13  1  0  0  0  0
 12 30  1  0  0  0  0
 12 31  1  0  0  0  0
 13 14  1  0  0  0  0
 13 32  1  0  0  0  0
 13 33  1  0  0  0  0
 16 17  2  0  0  0  0
 16 34  1  0  0  0  0
 17 18  1  0  0  0  0
 18 19  1  0  0  0  0
 18 25  1  6  0  0  0
 19 21  2  0  0  0  0
 19 23  1  0  0  0  0
 20 22  1  0  0  0  0
 20 35  1  0  0  0  0
 20 36  1  0  0  0  0
 21 37  1  0  0  0  0
 22 24  1  0  0  0  0
M  END
>  <DRUGBANK_ID>
DB03970

>  <SECONDARY_ACCESSION_NUMBERS>
EXPT03247

>  <COMMON_NAME>
(7R)-7-(6,7-Dihydro-5H-cyclopenta[d]imidazo[2,1-b][1,3]thiazol-2-yl)-2,7-dihydro-1,4-thiazepine-3,6-dicarboxylic acid

$$$$
