
 OpenBabel10282417243D

 44 47  0  0  1  0  0  0  0  0999 V2000
    0.9435   -0.0669   -0.0041 C   0  0  0  0  0  0  0  0  0  0  0  0
    0.4675    1.1274   -0.8225 C   0  0  0  0  0  0  0  0  0  0  0  0
    0.9343    0.9983   -2.2255 C   0  0  0  0  0  0  0  0  0  0  0  0
    1.1110   -0.0961   -2.9299 N   0  0  0  0  0  0  0  0  0  0  0  0
    1.6368    0.3775   -4.1047 C   0  0  0  0  0  0  0  0  0  0  0  0
    1.7296    1.7191   -4.1593 N   0  0  0  0  0  0  0  0  0  0  0  0
    1.2558    2.1354   -2.9062 O   0  0  0  0  0  0  0  0  0  0  0  0
    2.0193   -0.5277   -5.1857 C   0  0  0  0  0  0  0  0  0  0  0  0
    3.2564   -0.3773   -5.8383 C   0  0  0  0  0  0  0  0  0  0  0  0
    3.5714   -1.1538   -6.9633 C   0  0  0  0  0  0  0  0  0  0  0  0
    2.6308   -2.0641   -7.4446 C   0  0  0  0  0  0  0  0  0  0  0  0
    2.6399   -2.7931   -8.7638 C   0  0  1  0  0  0  0  0  0  0  0  0
    1.2039   -3.3404   -8.8970 C   0  0  0  0  0  0  0  0  0  0  0  0
    0.5550   -3.2547   -7.5073 C   0  0  0  0  0  0  0  0  0  0  0  0
    1.4330   -2.2868   -6.7578 C   0  0  0  0  0  0  0  0  0  0  0  0
    1.1292   -1.5348   -5.6182 C   0  0  0  0  0  0  0  0  0  0  0  0
    3.0750   -1.9521   -9.8766 N   0  0  0  0  0  0  0  0  0  0  0  0
    2.4190   -0.9308  -10.5407 C   0  0  0  0  0  0  0  0  0  0  0  0
    2.9415   -0.4520  -11.5497 O   0  0  0  0  0  0  0  0  0  0  0  0
    1.0899   -0.5422  -10.0961 C   0  0  0  0  0  0  0  0  0  0  0  0
   -0.1331   -0.6583  -10.7983 C   0  0  0  0  0  0  0  0  0  0  0  0
   -1.2023   -0.5797   -9.9922 N   0  0  0  0  0  0  0  0  0  0  0  0
   -0.6696   -0.3227   -8.7830 N   0  0  0  0  0  0  0  0  0  0  0  0
   -1.4886   -0.4250   -7.5942 C   0  0  0  0  0  0  0  0  0  0  0  0
    0.6829   -0.1267   -8.8421 C   0  0  0  0  0  0  0  0  0  0  0  0
    0.5887   -1.0069   -0.4427 H   0  0  0  0  0  0  0  0  0  0  0  0
    0.5749   -0.0146    1.0239 H   0  0  0  0  0  0  0  0  0  0  0  0
    2.0385   -0.1077    0.0227 H   0  0  0  0  0  0  0  0  0  0  0  0
   -0.6273    1.1670   -0.8066 H   0  0  0  0  0  0  0  0  0  0  0  0
    0.8351    2.0529   -0.3638 H   0  0  0  0  0  0  0  0  0  0  0  0
    3.9660    0.3746   -5.4944 H   0  0  0  0  0  0  0  0  0  0  0  0
    4.5004   -0.9753   -7.4979 H   0  0  0  0  0  0  0  0  0  0  0  0
    3.3289   -3.6432   -8.6933 H   0  0  0  0  0  0  0  0  0  0  0  0
    0.5982   -2.7809   -9.6054 H   0  0  0  0  0  0  0  0  0  0  0  0
    1.1633   -4.3415   -9.3364 H   0  0  0  0  0  0  0  0  0  0  0  0
   -0.4698   -2.8943   -7.6086 H   0  0  0  0  0  0  0  0  0  0  0  0
    0.5323   -4.2332   -7.0297 H   0  0  0  0  0  0  0  0  0  0  0  0
    0.1623   -1.6369   -5.1303 H   0  0  0  0  0  0  0  0  0  0  0  0
    3.9857   -2.1564  -10.2688 H   0  0  0  0  0  0  0  0  0  0  0  0
   -0.2829   -0.9214  -11.8368 H   0  0  0  0  0  0  0  0  0  0  0  0
   -2.2428    0.3574   -7.6103 H   0  0  0  0  0  0  0  0  0  0  0  0
   -1.9721   -1.4085   -7.5601 H   0  0  0  0  0  0  0  0  0  0  0  0
   -0.8706   -0.3058   -6.7046 H   0  0  0  0  0  0  0  0  0  0  0  0
    1.2497    0.1090   -7.9584 H   0  0  0  0  0  0  0  0  0  0  0  0
  1  2  1  0  0  0  0
  1 26  1  0  0  0  0
  1 27  1  0  0  0  0
  1 28  1  0  0  0  0
  2  3  1  0  0  0  0
  2 29  1  0  0  0  0
  2 30  1  0  0  0  0
  3  4  2  0  0  0  0
  3  7  1  0  0  0  0
  4  5  1  0  0  0  0
  5  6  2  0  0  0  0
  5  8  1  0  0  0  0
  6  7  1  0  0  0  0
  8  9  2  0  0  0  0
  8 16  1  0  0  0  0
  9 10  1  0  0  0  0
  9 31  1  0  0  0  0
 10 11  2  0  0  0  0
 10 32  1  0  0  0  0
 11 15  1  0  0  0  0
 12 11  1  0  0  0  0
 12 13  1  0  0  0  0
 12 33  1  1  0  0  0
 12 17  1  0  0  0  0
 13 14  1  0  0  0  0
 13 34  1  0  0  0  0
 13 35  1  0  0  0  0
 14 15  1  0  0  0  0
 14 36  1  0  0  0  0
 14 37  1  0  0  0  0
 15 16  2  0  0  0  0
 16 38  1  0  0  0  0
 17 18  1  0  0  0  0
 17 39  1  0  0  0  0
 18 19  2  0  0  0  0
 18 20  1  0  0  0  0
 20 21  1  0  0  0  0
 20 25  2  0  0  0  0
 21 22  2  0  0  0  0
 21 40  1  0  0  0  0
 22 23  1  0  0  0  0
 23 24  1  0  0  0  0
 23 25  1  0  0  0  0
 24 41  1  0  0  0  0
 24 42  1  0  0  0  0
 24 43  1  0  0  0  0
 25 44  1  0  0  0  0
M  END
>  <DRUGBANK_ID>
DB18490

>  <COMMON_NAME>
Aficamten

>  <CAS_NUMBER>
2364554-48-1

>  <UNII>
B1I77MH6K1

>  <SYNONYMS>
1h-pyrazole-4-carboxamide, n-((1r)-5-(5-ethyl-1,2,4-oxadiazol-3-yl)-2,3-dihydro-1h-inden-1-yl)-1-methyl-; N-((1r)-5-(5-ethyl-1,2,4-oxadiazol-3-yl)-2,3-dihydro-1h-inden-1-yl)- 1-methyl-1h-pyrazole-4-carboxamide

$$$$
