5289593
 OpenBabel10282417133D

 21 20  0  0  1  0  0  0  0  0999 V2000
    3.0162    2.6877   -0.3054 O   0  0  0  0  0  0  0  0  0  0  0  0
    0.5027    0.6946   -1.1635 O   0  0  0  0  0  0  0  0  0  0  0  0
    4.6083    3.0346   -2.4817 O   0  0  0  0  0  0  0  0  0  0  0  0
   -0.1750    3.7212   -2.7398 O   0  0  0  0  0  0  0  0  0  0  0  0
    2.3135    3.0254   -4.9209 O   0  5  0  0  0  0  0  0  0  0  0  0
    3.1862    1.0601   -4.1943 O   0  0  0  0  0  0  0  0  0  0  0  0
    0.7261    0.4183   -3.6570 O   0  0  0  0  0  0  0  0  0  0  0  0
    0.2120    1.7346   -3.8090 N   0  0  0  0  0  0  0  0  0  0  0  0
    2.5300    2.0862   -1.5522 C   0  0  1  0  0  0  0  0  0  0  0  0
    0.9656    2.0194   -1.4757 C   0  0  1  0  0  0  0  0  0  0  0  0
    3.1781    2.9176   -2.6975 C   0  0  2  0  0  0  0  0  0  0  0  0
    0.2551    2.5749   -2.7152 C   0  0  0  0  0  0  0  0  0  0  0  0
    2.9527    2.3037   -4.0989 C   0  0  0  0  0  0  0  0  0  0  0  0
    2.6319    3.5814   -0.2596 H   0  0  0  0  0  0  0  0  0  0  0  0
    0.3646    0.2739   -2.0444 H   0  0  0  0  0  0  0  0  0  0  0  0
    4.7217    3.2049   -1.5333 H   0  0  0  0  0  0  0  0  0  0  0  0
    1.7108    0.5110   -3.7945 H   0  0  0  0  0  0  0  0  0  0  0  0
    0.4772    2.2173   -4.6821 H   0  0  0  0  0  0  0  0  0  0  0  0
    2.9379    1.0684   -1.5303 H   0  0  0  0  0  0  0  0  0  0  0  0
    0.6145    2.6215   -0.6287 H   0  0  0  0  0  0  0  0  0  0  0  0
    2.7867    3.9386   -2.6667 H   0  0  0  0  0  0  0  0  0  0  0  0
  1 14  1  0  0  0  0
  2 15  1  0  0  0  0
  3 16  1  0  0  0  0
  4 12  2  0  0  0  0
  5 13  1  0  0  0  0
  6 13  2  0  0  0  0
  7  8  1  0  0  0  0
  7 17  1  0  0  0  0
  8 12  1  0  0  0  0
  8 18  1  0  0  0  0
  9  1  1  0  0  0  0
  9 11  1  0  0  0  0
  9 19  1  6  0  0  0
 10 12  1  0  0  0  0
 10 20  1  1  0  0  0
 10  9  1  0  0  0  0
 10  2  1  0  0  0  0
 11  3  1  0  0  0  0
 11 13  1  0  0  0  0
 11 21  1  1  0  0  0
M  CHG  1   5  -1
M  END
>  <DRUGBANK_ID>
DB03734

>  <SECONDARY_ACCESSION_NUMBERS>
EXPT03267

>  <COMMON_NAME>
Xylarohydroxamate

$$$$
