
 OpenBabel10282417133D

 22 21  0  0  0  0  0  0  0  0999 V2000
    0.4267   -0.1617   -0.5164 N   0  0  0  0  0  0  0  0  0  0  0  0
    0.0674    1.0888   -0.8991 C   0  0  0  0  0  0  0  0  0  0  0  0
   -1.2727    1.2469   -0.6625 N   0  0  0  0  0  0  0  0  0  0  0  0
   -1.8975    2.0914   -1.5791 O   0  0  0  0  0  0  0  0  0  0  0  0
    0.8392    2.0117   -1.3096 N   0  0  0  0  0  0  0  0  0  0  0  0
    2.3032    1.9541   -1.4259 C   0  0  0  0  0  0  0  0  0  0  0  0
    2.9778    2.2070   -0.0641 C   0  0  0  0  0  0  0  0  0  0  0  0
    2.7166    1.1325    0.9787 C   0  0  0  0  0  0  0  0  0  0  0  0
    3.2491   -0.1979    0.5127 N   0  3  0  0  0  0  0  0  0  0  0  0
    0.0506   -0.4332    0.3854 H   0  0  0  0  0  0  0  0  0  0  0  0
    1.4062   -0.2263   -0.5695 H   0  0  0  0  0  0  0  0  0  0  0  0
   -1.8102    0.4057   -0.4747 H   0  0  0  0  0  0  0  0  0  0  0  0
   -1.1619    2.6297   -1.9383 H   0  0  0  0  0  0  0  0  0  0  0  0
    2.6666    1.0352   -1.8990 H   0  0  0  0  0  0  0  0  0  0  0  0
    2.6241    2.7617   -2.0988 H   0  0  0  0  0  0  0  0  0  0  0  0
    4.0630    2.3023   -0.1947 H   0  0  0  0  0  0  0  0  0  0  0  0
    2.6265    3.1709    0.3278 H   0  0  0  0  0  0  0  0  0  0  0  0
    3.1969    1.3314    1.9393 H   0  0  0  0  0  0  0  0  0  0  0  0
    1.6480    1.0471    1.1967 H   0  0  0  0  0  0  0  0  0  0  0  0
    4.2705   -0.2326    0.6093 H   0  0  0  0  0  0  0  0  0  0  0  0
    2.8608   -0.9750    1.0679 H   0  0  0  0  0  0  0  0  0  0  0  0
    3.1063   -0.4306   -0.4815 H   0  0  0  0  0  0  0  0  0  0  0  0
  1  2  1  0  0  0  0
  1 10  1  0  0  0  0
  1 11  1  0  0  0  0
  2  3  1  0  0  0  0
  2  5  2  0  0  0  0
  3  4  1  0  0  0  0
  3 12  1  0  0  0  0
  4 13  1  0  0  0  0
  5  6  1  0  0  0  0
  6  7  1  0  0  0  0
  6 14  1  0  0  0  0
  6 15  1  0  0  0  0
  7  8  1  0  0  0  0
  7 16  1  0  0  0  0
  7 17  1  0  0  0  0
  8  9  1  0  0  0  0
  8 18  1  0  0  0  0
  8 19  1  0  0  0  0
  9 20  1  0  0  0  0
  9 21  1  0  0  0  0
  9 22  1  0  0  0  0
M  CHG  1   9   1
M  END
>  <DRUGBANK_ID>
DB04197

>  <SECONDARY_ACCESSION_NUMBERS>
EXPT00467

>  <COMMON_NAME>
Descarboxy-nor-N(Omega)-Hydroxy-L-Arginine

$$$$
