
 OpenBabel10282417193D

 56 58  0  0  0  0  0  0  0  0999 V2000
    1.7032    0.3146    0.7483 C   0  0  0  0  0  0  0  0  0  0  0  0
   -2.6006    1.3490   -5.4776 C   0  0  0  0  0  0  0  0  0  0  0  0
    0.8859    1.5985    0.6704 C   0  0  0  0  0  0  0  0  0  0  0  0
    5.4989    0.6013   -2.6409 C   0  0  0  0  0  0  0  0  0  0  0  0
   -0.4620   -2.4401    0.5683 C   0  0  0  0  0  0  0  0  0  0  0  0
    4.8566   -0.6231   -2.5819 C   0  0  0  0  0  0  0  0  0  0  0  0
    4.7413    1.7600   -2.6497 C   0  0  0  0  0  0  0  0  0  0  0  0
   -1.0990   -1.2070    0.4305 C   0  0  0  0  0  0  0  0  0  0  0  0
    0.3609   -2.9037   -0.4453 C   0  0  0  0  0  0  0  0  0  0  0  0
    3.4671   -0.6917   -2.4798 C   0  0  0  0  0  0  0  0  0  0  0  0
    3.3469    1.6778   -2.5496 C   0  0  0  0  0  0  0  0  0  0  0  0
   -0.8575   -0.4082   -0.6963 C   0  0  0  0  0  0  0  0  0  0  0  0
    0.6906   -2.0603   -1.4933 C   0  0  0  0  0  0  0  0  0  0  0  0
    0.5072   -0.5124   -6.6127 C   0  0  0  0  0  0  0  0  0  0  0  0
   -0.9969   -2.0439   -5.3194 C   0  0  0  0  0  0  0  0  0  0  0  0
   -0.4653    0.6422   -6.4059 C   0  0  0  0  0  0  0  0  0  0  0  0
   -1.9407   -0.9017   -5.0075 C   0  0  0  0  0  0  0  0  0  0  0  0
    1.1229    2.3340   -0.6324 C   0  0  0  0  0  0  0  0  0  0  0  0
    2.6589    0.4437   -2.3867 C   0  0  0  0  0  0  0  0  0  0  0  0
    0.2333   -0.7385   -1.5306 C   0  0  0  0  0  0  0  0  0  0  0  0
    0.4224   -1.5091   -5.4732 C   0  0  0  0  0  0  0  0  0  0  0  0
    0.5636    0.1974   -3.6265 C   0  0  0  0  0  0  0  0  0  0  0  0
    1.0997    0.3874   -2.2550 C   0  0  0  0  0  0  0  0  0  0  0  0
   -1.8295    0.2065   -5.9907 N   0  0  0  0  0  0  0  0  0  0  0  0
   -0.3342    0.9871   -3.9460 O   0  0  0  0  0  0  0  0  0  0  0  0
    0.6181    1.7091   -1.8103 O   0  0  0  0  0  0  0  0  0  0  0  0
    0.9829   -0.9445   -4.2517 O   0  0  0  0  0  0  0  0  0  0  0  0
    1.6273   -0.2645   -0.1336 H   0  0  0  0  0  0  0  0  0  0  0  0
    1.3630   -0.3734    1.5198 H   0  0  0  0  0  0  0  0  0  0  0  0
    2.7809    0.4493    0.7131 H   0  0  0  0  0  0  0  0  0  0  0  0
   -3.6504    1.0634   -5.3684 H   0  0  0  0  0  0  0  0  0  0  0  0
   -2.2868    1.7171   -4.4931 H   0  0  0  0  0  0  0  0  0  0  0  0
   -2.5470    2.1924   -6.1688 H   0  0  0  0  0  0  0  0  0  0  0  0
   -0.1936    1.4624    0.7858 H   0  0  0  0  0  0  0  0  0  0  0  0
    1.1862    2.2180    1.5133 H   0  0  0  0  0  0  0  0  0  0  0  0
    6.5804    0.6423   -2.7090 H   0  0  0  0  0  0  0  0  0  0  0  0
   -0.5407   -3.0070    1.4903 H   0  0  0  0  0  0  0  0  0  0  0  0
    5.4195   -1.5499   -2.6298 H   0  0  0  0  0  0  0  0  0  0  0  0
    5.2245    2.7299   -2.7412 H   0  0  0  0  0  0  0  0  0  0  0  0
   -1.6331   -0.7879    1.2833 H   0  0  0  0  0  0  0  0  0  0  0  0
    0.8790   -3.8535   -0.3684 H   0  0  0  0  0  0  0  0  0  0  0  0
    3.0713   -1.6889   -2.5213 H   0  0  0  0  0  0  0  0  0  0  0  0
    2.8161    2.6310   -2.5736 H   0  0  0  0  0  0  0  0  0  0  0  0
   -1.3125    0.5836   -0.7412 H   0  0  0  0  0  0  0  0  0  0  0  0
    1.4468   -2.4102   -2.1713 H   0  0  0  0  0  0  0  0  0  0  0  0
    0.2776   -0.9966   -7.5656 H   0  0  0  0  0  0  0  0  0  0  0  0
    1.5372   -0.1353   -6.6592 H   0  0  0  0  0  0  0  0  0  0  0  0
   -1.3246   -2.5305   -6.2483 H   0  0  0  0  0  0  0  0  0  0  0  0
   -1.0472   -2.8054   -4.5294 H   0  0  0  0  0  0  0  0  0  0  0  0
   -0.5322    1.2472   -7.3123 H   0  0  0  0  0  0  0  0  0  0  0  0
    0.0539    1.3730   -5.7760 H   0  0  0  0  0  0  0  0  0  0  0  0
   -1.7825   -0.6187   -3.9594 H   0  0  0  0  0  0  0  0  0  0  0  0
   -2.9704   -1.2771   -4.9931 H   0  0  0  0  0  0  0  0  0  0  0  0
    0.6477    3.3235   -0.6001 H   0  0  0  0  0  0  0  0  0  0  0  0
    2.1877    2.5411   -0.6803 H   0  0  0  0  0  0  0  0  0  0  0  0
    1.0611   -2.3709   -5.7203 H   0  0  0  0  0  0  0  0  0  0  0  0
  1 28  1  0  0  0  0
  1 29  1  0  0  0  0
  1 30  1  0  0  0  0
  2 31  1  0  0  0  0
  2 32  1  0  0  0  0
  2 33  1  0  0  0  0
  3  1  1  0  0  0  0
  3 34  1  0  0  0  0
  3 35  1  0  0  0  0
  4 36  1  0  0  0  0
  5 37  1  0  0  0  0
  6  4  2  0  0  0  0
  6 38  1  0  0  0  0
  7  4  1  0  0  0  0
  7 39  1  0  0  0  0
  8  5  2  0  0  0  0
  8 40  1  0  0  0  0
  9  5  1  0  0  0  0
  9 41  1  0  0  0  0
 10  6  1  0  0  0  0
 10 42  1  0  0  0  0
 11  7  2  0  0  0  0
 11 43  1  0  0  0  0
 12  8  1  0  0  0  0
 12 44  1  0  0  0  0
 13  9  2  0  0  0  0
 13 45  1  0  0  0  0
 14 46  1  0  0  0  0
 14 47  1  0  0  0  0
 15 48  1  0  0  0  0
 15 49  1  0  0  0  0
 16 14  1  0  0  0  0
 16 50  1  0  0  0  0
 16 51  1  0  0  0  0
 17 15  1  0  0  0  0
 17 52  1  0  0  0  0
 17 53  1  0  0  0  0
 18  3  1  0  0  0  0
 18 54  1  0  0  0  0
 18 55  1  0  0  0  0
 19 10  2  0  0  0  0
 19 11  1  0  0  0  0
 20 12  2  0  0  0  0
 20 13  1  0  0  0  0
 21 14  1  0  0  0  0
 21 15  1  0  0  0  0
 21 56  1  0  0  0  0
 23 19  1  0  0  0  0
 23 20  1  0  0  0  0
 23 22  1  0  0  0  0
 24  2  1  0  0  0  0
 24 16  1  0  0  0  0
 24 17  1  0  0  0  0
 25 22  2  0  0  0  0
 26 18  1  0  0  0  0
 26 23  1  0  0  0  0
 27 21  1  0  0  0  0
 27 22  1  0  0  0  0
M  END
>  <DRUGBANK_ID>
DB12278

>  <COMMON_NAME>
Propiverine

>  <CAS_NUMBER>
60569-19-9

>  <UNII>
468GE2241L

>  <SYNONYMS>
Propiverina; Propiverine

$$$$
