
 OpenBabel10282417193D

 31 31  0  0  1  0  0  0  0  0999 V2000
    3.0217    0.7762    1.2361 H   0  0  0  0  0  0  0  0  0  0  0  0
    4.0917    0.7757    1.2365 C   0  0  0  0  0  0  0  0  0  0  0  0
    4.4482    1.2956    2.1011 H   0  0  0  0  0  0  0  0  0  0  0  0
    4.5977   -0.6573    1.2626 C   0  0  0  0  0  0  0  0  0  0  0  0
    5.0318   -1.8866    1.2849 C   0  0  0  0  0  0  0  0  0  0  0  0
    4.5826    1.4468    0.0242 N   0  0  0  0  0  0  0  0  0  0  0  0
    4.0932    2.8327   -0.0009 C   0  0  0  0  0  0  0  0  0  0  0  0
    4.0926    0.7328   -1.1637 C   0  0  2  0  0  0  0  0  0  0  0  0
    2.5726    0.7328   -1.1637 C   0  0  0  0  0  0  0  0  0  0  0  0
    4.5992   -0.7000   -1.1385 C   0  0  0  0  0  0  0  0  0  0  0  0
    4.0926   -1.4382   -2.3668 C   0  0  0  0  0  0  0  0  0  0  0  0
    4.4478   -2.7133   -2.4720 C   0  0  0  0  0  0  0  0  0  0  0  0
    4.0283   -3.4705   -3.5391 C   0  0  0  0  0  0  0  0  0  0  0  0
    3.3142   -2.9100   -4.5615 C   0  0  0  0  0  0  0  0  0  0  0  0
    2.9175   -1.6627   -4.3861 C   0  0  0  0  0  0  0  0  0  0  0  0
    3.4251   -0.7912   -3.3937 C   0  0  0  0  0  0  0  0  0  0  0  0
    5.3880   -2.8954    1.3032 H   0  0  0  0  0  0  0  0  0  0  0  0
    4.4497    3.3526    0.8637 H   0  0  0  0  0  0  0  0  0  0  0  0
    4.4505    3.3211   -0.8834 H   0  0  0  0  0  0  0  0  0  0  0  0
    3.0232    2.8332   -0.0014 H   0  0  0  0  0  0  0  0  0  0  0  0
    4.4492    1.2218   -2.0460 H   0  0  0  0  0  0  0  0  0  0  0  0
    2.2159   -0.2702   -1.0558 H   0  0  0  0  0  0  0  0  0  0  0  0
    2.2159    1.3278   -0.3490 H   0  0  0  0  0  0  0  0  0  0  0  0
    2.2159    1.1409   -2.0863 H   0  0  0  0  0  0  0  0  0  0  0  0
    5.6692   -0.7000   -1.1385 H   0  0  0  0  0  0  0  0  0  0  0  0
    4.2426   -1.1890   -0.2561 H   0  0  0  0  0  0  0  0  0  0  0  0
    5.0664   -3.1552   -1.7190 H   0  0  0  0  0  0  0  0  0  0  0  0
    4.2637   -4.5138   -3.5703 H   0  0  0  0  0  0  0  0  0  0  0  0
    3.0890   -3.4528   -5.4557 H   0  0  0  0  0  0  0  0  0  0  0  0
    2.1596   -1.2848   -5.0400 H   0  0  0  0  0  0  0  0  0  0  0  0
    3.3043    0.2712   -3.4328 H   0  0  0  0  0  0  0  0  0  0  0  0
  1  2  1  0  0  0  0
  2  3  1  0  0  0  0
  2  4  1  0  0  0  0
  2  6  1  0  0  0  0
  4  5  3  0  0  0  0
  5 17  1  0  0  0  0
  6  7  1  0  0  0  0
  7 18  1  0  0  0  0
  7 19  1  0  0  0  0
  7 20  1  0  0  0  0
  8 10  1  0  0  0  0
  8 21  1  6  0  0  0
  8  9  1  0  0  0  0
  8  6  1  0  0  0  0
  9 22  1  0  0  0  0
  9 23  1  0  0  0  0
  9 24  1  0  0  0  0
 10 11  1  0  0  0  0
 10 25  1  0  0  0  0
 10 26  1  0  0  0  0
 11 12  2  0  0  0  0
 11 16  1  0  0  0  0
 12 13  1  0  0  0  0
 12 27  1  0  0  0  0
 13 14  2  0  0  0  0
 13 28  1  0  0  0  0
 14 15  1  0  0  0  0
 14 29  1  0  0  0  0
 15 16  2  0  0  0  0
 15 30  1  0  0  0  0
 16 31  1  0  0  0  0
M  ISO  3   1   2   3   2   7  11
M  END
>  <DRUGBANK_ID>
DB12650

>  <COMMON_NAME>
L-deprenyl-D2 C-11

>  <CAS_NUMBER>
118313-25-0

>  <UNII>
F2796O8AEN

>  <SYNONYMS>
(11C)L-deprenyl-D2; 11c-L-Selegiline-D2

$$$$
