KIQ
 OpenBabel10282417173D

 48 51  0  0  0  0  0  0  0  0999 V2000
   -0.5079   -1.4167   -0.0621 C   0  0  0  0  0  0  0  0  0  0  0  0
   -0.9796   -2.8477   -0.0509 C   0  0  0  0  0  0  0  0  0  0  0  0
   -3.3696   -2.6886   -0.9319 C   0  0  0  0  0  0  0  0  0  0  0  0
   -5.8652   -2.2664    1.9694 C   0  0  0  0  0  0  0  0  0  0  0  0
   -1.3788   -0.4076   -0.0010 C   0  0  0  0  0  0  0  0  0  0  0  0
   -1.0620    1.0289    0.0311 C   0  0  0  0  0  0  0  0  0  0  0  0
    0.4199    1.4127   -0.0635 C   0  0  2  0  0  0  0  0  0  0  0  0
   -0.0161    3.4352   -1.4776 C   0  0  0  0  0  0  0  0  0  0  0  0
    2.1014    0.6084   -2.4261 F   0  0  0  0  0  0  0  0  0  0  0  0
    1.4915    1.7997   -2.4041 C   0  0  0  0  0  0  0  0  0  0  0  0
    1.6932    2.5910   -3.5217 C   0  0  0  0  0  0  0  0  0  0  0  0
    1.0028    3.7827   -3.6338 C   0  0  0  0  0  0  0  0  0  0  0  0
    1.1578    4.5200   -4.7388 F   0  0  0  0  0  0  0  0  0  0  0  0
    0.1399    4.1964   -2.6280 C   0  0  0  0  0  0  0  0  0  0  0  0
   -0.5660    5.3253   -2.7617 F   0  0  0  0  0  0  0  0  0  0  0  0
    0.6632    2.2093   -1.3425 C   0  0  0  0  0  0  0  0  0  0  0  0
    1.4546    0.2863    0.1874 C   0  0  1  0  0  0  0  0  0  0  0  0
    2.2260    0.5411    1.4233 N   0  0  0  0  0  0  0  0  0  0  0  0
    0.9746   -1.1765    0.0201 C   0  0  0  0  0  0  0  0  0  0  0  0
   -0.1572   -3.7587    0.0679 O   0  0  0  0  0  0  0  0  0  0  0  0
   -2.3438   -3.0632    0.0547 N   0  0  0  0  0  0  0  0  0  0  0  0
   -2.7946   -4.0106    1.0530 C   0  0  0  0  0  0  0  0  0  0  0  0
   -4.0371   -3.4608    1.6688 C   0  0  0  0  0  0  0  0  0  0  0  0
   -4.5392   -3.7798    2.8365 N   0  0  0  0  0  0  0  0  0  0  0  0
   -5.6713   -3.0436    3.0226 N   0  0  0  0  0  0  0  0  0  0  0  0
   -6.9998   -1.3093    1.8454 C   0  0  0  0  0  0  0  0  0  0  0  0
   -6.5861   -0.0191    1.7344 F   0  0  0  0  0  0  0  0  0  0  0  0
   -7.7737   -1.5616    0.7570 F   0  0  0  0  0  0  0  0  0  0  0  0
   -7.8310   -1.3524    2.9238 F   0  0  0  0  0  0  0  0  0  0  0  0
   -4.8550   -2.5235    1.0642 N   0  0  0  0  0  0  0  0  0  0  0  0
   -4.5577   -1.9553   -0.2445 C   0  0  0  0  0  0  0  0  0  0  0  0
    0.5499    2.1509    0.7465 H   0  0  0  0  0  0  0  0  0  0  0  0
    2.2706    0.3826   -0.5186 H   0  0  0  0  0  0  0  0  0  0  0  0
   -2.9306   -2.1218   -1.7605 H   0  0  0  0  0  0  0  0  0  0  0  0
   -3.7379   -3.6294   -1.3679 H   0  0  0  0  0  0  0  0  0  0  0  0
   -2.4293   -0.5876    0.0720 H   0  0  0  0  0  0  0  0  0  0  0  0
   -1.4883    1.4337    0.9585 H   0  0  0  0  0  0  0  0  0  0  0  0
   -1.6480    1.4803   -0.7811 H   0  0  0  0  0  0  0  0  0  0  0  0
   -0.6992    3.7866   -0.7058 H   0  0  0  0  0  0  0  0  0  0  0  0
    2.3652    2.2498   -4.2999 H   0  0  0  0  0  0  0  0  0  0  0  0
    2.4495    1.5393    1.4606 H   0  0  0  0  0  0  0  0  0  0  0  0
    3.1436    0.1019    1.2949 H   0  0  0  0  0  0  0  0  0  0  0  0
    1.4216   -1.5694   -0.9027 H   0  0  0  0  0  0  0  0  0  0  0  0
    1.3917   -1.7747    0.8405 H   0  0  0  0  0  0  0  0  0  0  0  0
   -3.0041   -4.9696    0.5689 H   0  0  0  0  0  0  0  0  0  0  0  0
   -2.0215   -4.1574    1.8144 H   0  0  0  0  0  0  0  0  0  0  0  0
   -4.3265   -0.8996   -0.0786 H   0  0  0  0  0  0  0  0  0  0  0  0
   -5.4531   -1.9944   -0.8698 H   0  0  0  0  0  0  0  0  0  0  0  0
  1  5  2  0  0  0  0
  1  2  1  0  0  0  0
  1 19  1  0  0  0  0
  2 21  1  0  0  0  0
  2 20  2  0  0  0  0
  3 31  1  0  0  0  0
  3 21  1  0  0  0  0
  3 34  1  0  0  0  0
  3 35  1  0  0  0  0
  4 26  1  0  0  0  0
  4 30  1  0  0  0  0
  4 25  2  0  0  0  0
  5  6  1  0  0  0  0
  5 36  1  0  0  0  0
  6  7  1  0  0  0  0
  6 37  1  0  0  0  0
  6 38  1  0  0  0  0
  7 17  1  0  0  0  0
  7 32  1  1  0  0  0
  7 16  1  0  0  0  0
  8 14  1  0  0  0  0
  8 16  2  0  0  0  0
  8 39  1  0  0  0  0
  9 10  1  0  0  0  0
 10 11  2  0  0  0  0
 10 16  1  0  0  0  0
 11 12  1  0  0  0  0
 11 40  1  0  0  0  0
 12 13  1  0  0  0  0
 12 14  2  0  0  0  0
 14 15  1  0  0  0  0
 17 19  1  0  0  0  0
 17 33  1  6  0  0  0
 17 18  1  0  0  0  0
 18 41  1  0  0  0  0
 18 42  1  0  0  0  0
 19 43  1  0  0  0  0
 19 44  1  0  0  0  0
 21 22  1  0  0  0  0
 22 23  1  0  0  0  0
 22 45  1  0  0  0  0
 22 46  1  0  0  0  0
 23 30  1  0  0  0  0
 23 24  2  0  0  0  0
 24 25  1  0  0  0  0
 26 27  1  0  0  0  0
 26 28  1  0  0  0  0
 26 29  1  0  0  0  0
 30 31  1  0  0  0  0
 31 47  1  0  0  0  0
 31 48  1  0  0  0  0
M  END
>  <DRUGBANK_ID>
DB08044

>  <COMMON_NAME>
ABT-341

>  <CAS_NUMBER>
913623-69-5

>  <SYNONYMS>
(1S,6R)-3-{[3-(TRIFLUOROMETHYL)-5,6-DIHYDRO[1,2,4]TRIAZOLO[4,3-A]PYRAZIN-7(8H)-YL]CARBONYL}-6-(2,4,5-TRIFLUOROPHENYL)CYCLOHEX-3-EN-1-AMINE

$$$$
