
 OpenBabel10282417233D

131134  0  0  1  0  0  0  0  0999 V2000
    0.1257   -0.0142    0.1457 H   0  0  0  0  0  0  0  0  0  0  0  0
   -0.9455    0.0322    0.3260 C   0  0  2  0  0  0  0  0  0  0  0  0
   -1.2680   -1.1213    1.3394 C   0  0  0  0  0  0  0  0  0  0  0  0
   -1.8491   -1.1231    2.8348 C   0  0  0  0  0  0  0  0  0  0  0  0
   -1.9156    0.2233    3.5187 C   0  0  0  0  0  0  0  0  0  0  0  0
   -3.1028    0.2113    4.5827 C   0  0  0  0  0  0  0  0  0  0  0  0
   -3.8571    1.8150    4.6827 O   0  0  0  0  0  0  0  0  0  0  0  0
   -4.7907    3.1004    4.0805 C   0  0  0  0  0  0  0  0  0  0  0  0
   -5.1991    4.0560    4.7748 O   0  0  0  0  0  0  0  0  0  0  0  0
   -5.3514    2.9163    2.6116 C   0  0  0  0  0  0  0  0  0  0  0  0
   -4.2784    2.1768    1.9072 C   0  0  0  0  0  0  0  0  0  0  0  0
   -4.0272    0.4830    1.7812 C   0  0  0  0  0  0  0  0  0  0  0  0
   -4.8510   -1.0439    1.0777 C   0  0  0  0  0  0  0  0  0  0  0  0
   -5.0888   -1.5591   -0.2887 C   0  0  0  0  0  0  0  0  0  0  0  0
   -3.7082   -1.8695   -0.6332 C   0  0  0  0  0  0  0  0  0  0  0  0
   -2.8652   -3.0053   -0.1515 C   0  0  0  0  0  0  0  0  0  0  0  0
   -3.7511   -4.0991   -0.4620 C   0  0  0  0  0  0  0  0  0  0  0  0
   -3.7545   -4.0249   -2.0004 C   0  0  0  0  0  0  0  0  0  0  0  0
   -2.3051   -4.1631   -2.5381 C   0  0  0  0  0  0  0  0  0  0  0  0
   -1.6594   -5.3252   -1.8271 C   0  0  0  0  0  0  0  0  0  0  0  0
   -2.5900   -6.4737   -2.1158 C   0  0  0  0  0  0  0  0  0  0  0  0
   -2.7098   -6.6001   -3.6394 C   0  0  0  0  0  0  0  0  0  0  0  0
   -1.3242   -6.8132   -4.2430 C   0  0  0  0  0  0  0  0  0  0  0  0
   -0.7128   -8.0537   -3.6210 C   0  0  0  0  0  0  0  0  0  0  0  0
   -4.1130   -1.1314    4.7478 C   0  0  0  0  0  0  0  0  0  0  0  0
   -5.7065   -1.1453    5.3562 O   0  0  0  0  0  0  0  0  0  0  0  0
   -7.1327   -0.5758    5.5909 C   0  0  0  0  0  0  0  0  0  0  0  0
   -7.6437   -0.6591    6.7117 O   0  0  0  0  0  0  0  0  0  0  0  0
   -7.8309    0.3441    4.5459 C   0  0  0  0  0  0  0  0  0  0  0  0
   -7.0161    1.5573    4.3985 C   0  0  0  0  0  0  0  0  0  0  0  0
   -5.9756    0.8172    3.7614 C   0  0  0  0  0  0  0  0  0  0  0  0
   -6.2892    0.1256    2.4986 C   0  0  0  0  0  0  0  0  0  0  0  0
   -6.4388    0.9862    0.8481 C   0  0  0  0  0  0  0  0  0  0  0  0
   -5.4462    1.9248   -0.0379 C   0  0  0  0  0  0  0  0  0  0  0  0
   -4.0980    1.2945   -0.2887 C   0  0  0  0  0  0  0  0  0  0  0  0
   -4.1087    0.8326   -1.7461 C   0  0  0  0  0  0  0  0  0  0  0  0
   -3.7706    1.9000   -2.7943 C   0  0  0  0  0  0  0  0  0  0  0  0
   -2.1102    2.7410   -3.2098 C   0  0  0  0  0  0  0  0  0  0  0  0
   -0.5222    1.8249   -3.2666 C   0  0  0  0  0  0  0  0  0  0  0  0
   -0.8797    0.7258   -4.2543 C   0  0  0  0  0  0  0  0  0  0  0  0
   -1.3931    1.5431   -5.3770 C   0  0  0  0  0  0  0  0  0  0  0  0
   -0.3056    2.5875   -5.5526 C   0  0  0  0  0  0  0  0  0  0  0  0
    0.9971    1.7833   -5.6568 C   0  0  0  0  0  0  0  0  0  0  0  0
   -3.9790   -2.3539    4.0369 C   0  0  0  0  0  0  0  0  0  0  0  0
   -2.8807   -2.3465    3.1350 C   0  0  0  0  0  0  0  0  0  0  0  0
   -1.3745    1.6115    2.5753 C   0  0  0  0  0  0  0  0  0  0  0  0
   -1.1061    1.5652    1.1309 C   0  0  0  0  0  0  0  0  0  0  0  0
   -1.3818    2.8866    0.3287 C   0  0  0  0  0  0  0  0  0  0  0  0
   -2.2318    2.7569   -0.9065 C   0  0  0  0  0  0  0  0  0  0  0  0
   -1.6947    1.2274   -1.4567 C   0  0  0  0  0  0  0  0  0  0  0  0
   -1.3436   -0.0910   -1.1763 N   0  0  0  0  0  0  0  0  0  0  0  0
   -1.6307   -1.1650   -2.2656 C   0  0  0  0  0  0  0  0  0  0  0  0
   -1.6699    4.1989    0.7721 C   0  0  0  0  0  0  0  0  0  0  0  0
   -2.0294    4.1908    2.0840 C   0  0  0  0  0  0  0  0  0  0  0  0
   -1.7506    3.0003    2.9662 C   0  0  0  0  0  0  0  0  0  0  0  0
   -2.2699   -1.2905    1.0645 H   0  0  0  0  0  0  0  0  0  0  0  0
   -0.7468   -2.0050    0.9709 H   0  0  0  0  0  0  0  0  0  0  0  0
   -6.2547    2.3596    2.4598 H   0  0  0  0  0  0  0  0  0  0  0  0
   -5.7805    3.7777    2.0915 H   0  0  0  0  0  0  0  0  0  0  0  0
   -3.9154    2.8407    1.1399 H   0  0  0  0  0  0  0  0  0  0  0  0
   -3.5087    2.5497    2.4677 H   0  0  0  0  0  0  0  0  0  0  0  0
   -3.0109    0.3497    1.5655 H   0  0  0  0  0  0  0  0  0  0  0  0
   -3.8605    0.3187    2.8271 H   0  0  0  0  0  0  0  0  0  0  0  0
   -4.4995   -1.8892    1.6338 H   0  0  0  0  0  0  0  0  0  0  0  0
   -5.9083   -1.1645    1.1947 H   0  0  0  0  0  0  0  0  0  0  0  0
   -5.8213   -2.3701   -0.3696 H   0  0  0  0  0  0  0  0  0  0  0  0
   -5.6441   -0.8804   -0.9152 H   0  0  0  0  0  0  0  0  0  0  0  0
   -3.7897   -1.7197   -1.6775 H   0  0  0  0  0  0  0  0  0  0  0  0
   -3.1433   -1.0963   -0.2566 H   0  0  0  0  0  0  0  0  0  0  0  0
   -1.8560   -3.0279   -0.5523 H   0  0  0  0  0  0  0  0  0  0  0  0
   -2.5140   -3.1176    0.8453 H   0  0  0  0  0  0  0  0  0  0  0  0
   -3.3486   -4.9651    0.0562 H   0  0  0  0  0  0  0  0  0  0  0  0
   -4.6928   -3.8931    0.0440 H   0  0  0  0  0  0  0  0  0  0  0  0
   -4.4713   -4.7591   -2.3353 H   0  0  0  0  0  0  0  0  0  0  0  0
   -4.2053   -3.1461   -2.4701 H   0  0  0  0  0  0  0  0  0  0  0  0
   -2.3096   -4.0976   -3.6266 H   0  0  0  0  0  0  0  0  0  0  0  0
   -1.5286   -3.4515   -2.3768 H   0  0  0  0  0  0  0  0  0  0  0  0
   -0.6244   -5.4318   -2.1578 H   0  0  0  0  0  0  0  0  0  0  0  0
   -1.5282   -5.1568   -0.7500 H   0  0  0  0  0  0  0  0  0  0  0  0
   -2.2380   -7.3570   -1.6000 H   0  0  0  0  0  0  0  0  0  0  0  0
   -3.5836   -6.3266   -1.6828 H   0  0  0  0  0  0  0  0  0  0  0  0
   -3.3991   -7.4059   -3.8738 H   0  0  0  0  0  0  0  0  0  0  0  0
   -3.1699   -5.7192   -4.1127 H   0  0  0  0  0  0  0  0  0  0  0  0
   -1.4062   -6.9041   -5.3259 H   0  0  0  0  0  0  0  0  0  0  0  0
   -0.6596   -5.9524   -4.0805 H   0  0  0  0  0  0  0  0  0  0  0  0
   -1.3765   -8.9042   -3.7970 H   0  0  0  0  0  0  0  0  0  0  0  0
    0.2724   -8.2494   -4.0352 H   0  0  0  0  0  0  0  0  0  0  0  0
   -0.5784   -7.9553   -2.5376 H   0  0  0  0  0  0  0  0  0  0  0  0
   -8.0832   -0.1478    3.5997 H   0  0  0  0  0  0  0  0  0  0  0  0
   -8.7699    0.7916    4.8125 H   0  0  0  0  0  0  0  0  0  0  0  0
   -7.4465    2.3252    3.7679 H   0  0  0  0  0  0  0  0  0  0  0  0
   -6.6108    1.9979    5.3162 H   0  0  0  0  0  0  0  0  0  0  0  0
   -5.0897    1.2325    3.5002 H   0  0  0  0  0  0  0  0  0  0  0  0
   -5.4481    0.4483    4.6049 H   0  0  0  0  0  0  0  0  0  0  0  0
   -5.4253   -0.5126    2.7462 H   0  0  0  0  0  0  0  0  0  0  0  0
   -6.8824   -0.7921    2.5492 H   0  0  0  0  0  0  0  0  0  0  0  0
   -6.7211    0.2465    0.1113 H   0  0  0  0  0  0  0  0  0  0  0  0
   -7.3121    1.6113    0.9307 H   0  0  0  0  0  0  0  0  0  0  0  0
   -5.7530    2.4709   -0.9263 H   0  0  0  0  0  0  0  0  0  0  0  0
   -5.3860    2.9472    0.3712 H   0  0  0  0  0  0  0  0  0  0  0  0
   -3.2456    1.6324    0.2041 H   0  0  0  0  0  0  0  0  0  0  0  0
   -3.7146    0.4040    0.0362 H   0  0  0  0  0  0  0  0  0  0  0  0
   -3.3892    0.0363   -1.6335 H   0  0  0  0  0  0  0  0  0  0  0  0
   -4.9157    0.2918   -1.8712 H   0  0  0  0  0  0  0  0  0  0  0  0
   -4.0497    1.1934   -3.5871 H   0  0  0  0  0  0  0  0  0  0  0  0
   -4.6028    2.5732   -2.5727 H   0  0  0  0  0  0  0  0  0  0  0  0
   -2.3926    3.4790   -3.9481 H   0  0  0  0  0  0  0  0  0  0  0  0
   -1.5586    3.4958   -2.6282 H   0  0  0  0  0  0  0  0  0  0  0  0
    0.2956    2.5904   -3.2534 H   0  0  0  0  0  0  0  0  0  0  0  0
    0.1394    1.3482   -2.4921 H   0  0  0  0  0  0  0  0  0  0  0  0
   -0.0884   -0.0355   -4.3320 H   0  0  0  0  0  0  0  0  0  0  0  0
   -1.7582    0.1053   -4.1176 H   0  0  0  0  0  0  0  0  0  0  0  0
   -1.6374    0.8977   -6.2034 H   0  0  0  0  0  0  0  0  0  0  0  0
   -2.3769    1.9612   -5.1222 H   0  0  0  0  0  0  0  0  0  0  0  0
   -0.5727    3.2602   -6.3414 H   0  0  0  0  0  0  0  0  0  0  0  0
   -0.2212    3.3124   -4.7226 H   0  0  0  0  0  0  0  0  0  0  0  0
    0.8489    1.0593   -6.4579 H   0  0  0  0  0  0  0  0  0  0  0  0
    1.8439    2.4371   -5.7614 H   0  0  0  0  0  0  0  0  0  0  0  0
    1.2810    1.1685   -4.7772 H   0  0  0  0  0  0  0  0  0  0  0  0
   -4.7624   -3.1477    3.9618 H   0  0  0  0  0  0  0  0  0  0  0  0
   -3.0402   -3.2003    2.4340 H   0  0  0  0  0  0  0  0  0  0  0  0
   -3.3068    2.9801   -0.7326 H   0  0  0  0  0  0  0  0  0  0  0  0
   -2.4503    3.7208   -1.4287 H   0  0  0  0  0  0  0  0  0  0  0  0
   -2.1146    0.9266   -2.5295 H   0  0  0  0  0  0  0  0  0  0  0  0
   -0.8021    1.5171   -1.2889 H   0  0  0  0  0  0  0  0  0  0  0  0
   -2.6560   -1.2585   -2.7787 H   0  0  0  0  0  0  0  0  0  0  0  0
   -1.1103   -1.3975   -3.2321 H   0  0  0  0  0  0  0  0  0  0  0  0
   -1.3447   -1.9861   -1.7508 H   0  0  0  0  0  0  0  0  0  0  0  0
   -2.0854    4.9604    0.0781 H   0  0  0  0  0  0  0  0  0  0  0  0
   -2.9242    4.8417    2.2839 H   0  0  0  0  0  0  0  0  0  0  0  0
   -2.4054    3.0729    3.8339 H   0  0  0  0  0  0  0  0  0  0  0  0
  2  3  1  0  0  0  0
  2 47  1  0  0  0  0
  2 51  1  0  0  0  0
  2  1  1  6  0  0  0
  3  4  1  0  0  0  0
  3 56  1  0  0  0  0
  3 57  1  0  0  0  0
  4  5  2  0  0  0  0
  4 45  1  0  0  0  0
  5  6  1  0  0  0  0
  5 46  1  0  0  0  0
  6 25  2  0  0  0  0
  6  7  1  0  0  0  0
  7  8  1  0  0  0  0
  8  9  2  0  0  0  0
  8 10  1  0  0  0  0
 10 11  1  0  0  0  0
 10 58  1  0  0  0  0
 10 59  1  0  0  0  0
 11 12  1  0  0  0  0
 11 60  1  0  0  0  0
 11 61  1  0  0  0  0
 12 13  1  0  0  0  0
 12 62  1  0  0  0  0
 12 63  1  0  0  0  0
 13 14  1  0  0  0  0
 13 64  1  0  0  0  0
 13 65  1  0  0  0  0
 14 15  1  0  0  0  0
 14 66  1  0  0  0  0
 14 67  1  0  0  0  0
 15 16  1  0  0  0  0
 15 68  1  0  0  0  0
 15 69  1  0  0  0  0
 16 17  1  0  0  0  0
 16 70  1  0  0  0  0
 16 71  1  0  0  0  0
 17 18  1  0  0  0  0
 17 72  1  0  0  0  0
 17 73  1  0  0  0  0
 18 19  1  0  0  0  0
 18 74  1  0  0  0  0
 18 75  1  0  0  0  0
 19 20  1  0  0  0  0
 19 76  1  0  0  0  0
 19 77  1  0  0  0  0
 20 21  1  0  0  0  0
 20 78  1  0  0  0  0
 20 79  1  0  0  0  0
 21 22  1  0  0  0  0
 21 80  1  0  0  0  0
 21 81  1  0  0  0  0
 22 23  1  0  0  0  0
 22 82  1  0  0  0  0
 22 83  1  0  0  0  0
 23 24  1  0  0  0  0
 23 84  1  0  0  0  0
 23 85  1  0  0  0  0
 24 86  1  0  0  0  0
 24 87  1  0  0  0  0
 24 88  1  0  0  0  0
 25 44  1  0  0  0  0
 25 26  1  0  0  0  0
 26 27  1  0  0  0  0
 27 28  2  0  0  0  0
 27 29  1  0  0  0  0
 29 30  1  0  0  0  0
 29 89  1  0  0  0  0
 29 90  1  0  0  0  0
 30 31  1  0  0  0  0
 30 91  1  0  0  0  0
 30 92  1  0  0  0  0
 31 32  1  0  0  0  0
 31 93  1  0  0  0  0
 31 94  1  0  0  0  0
 32 33  1  0  0  0  0
 32 95  1  0  0  0  0
 32 96  1  0  0  0  0
 33 34  1  0  0  0  0
 33 97  1  0  0  0  0
 33 98  1  0  0  0  0
 34 35  1  0  0  0  0
 34 99  1  0  0  0  0
 34100  1  0  0  0  0
 35 36  1  0  0  0  0
 35101  1  0  0  0  0
 35102  1  0  0  0  0
 36 37  1  0  0  0  0
 36103  1  0  0  0  0
 36104  1  0  0  0  0
 37 38  1  0  0  0  0
 37105  1  0  0  0  0
 37106  1  0  0  0  0
 38 39  1  0  0  0  0
 38107  1  0  0  0  0
 38108  1  0  0  0  0
 39 40  1  0  0  0  0
 39109  1  0  0  0  0
 39110  1  0  0  0  0
 40 41  1  0  0  0  0
 40111  1  0  0  0  0
 40112  1  0  0  0  0
 41 42  1  0  0  0  0
 41113  1  0  0  0  0
 41114  1  0  0  0  0
 42 43  1  0  0  0  0
 42115  1  0  0  0  0
 42116  1  0  0  0  0
 43117  1  0  0  0  0
 43118  1  0  0  0  0
 43119  1  0  0  0  0
 44 45  2  0  0  0  0
 44120  1  0  0  0  0
 45121  1  0  0  0  0
 46 47  2  0  0  0  0
 46 55  1  0  0  0  0
 47 48  1  0  0  0  0
 48 49  1  0  0  0  0
 48 53  2  0  0  0  0
 49 50  1  0  0  0  0
 49122  1  0  0  0  0
 49123  1  0  0  0  0
 50 51  1  0  0  0  0
 50124  1  0  0  0  0
 50125  1  0  0  0  0
 51 52  1  0  0  0  0
 52126  1  0  0  0  0
 52127  1  0  0  0  0
 52128  1  0  0  0  0
 53 54  1  0  0  0  0
 53129  1  0  0  0  0
 54 55  2  0  0  0  0
 54130  1  0  0  0  0
 55131  1  0  0  0  0
M  END
>  <DRUGBANK_ID>
DB17202

>  <COMMON_NAME>
Apomorphine palmitate

>  <CAS_NUMBER>
42337-33-7

>  <UNII>
622ULQ7RBO

>  <SYNONYMS>
Dihexadecanoylapomorphine; Dipalmitoyl apomorphine; Hexadecanoic acid, 5,6,6a,7-tetrahydro-6-methyl-4h-dibenzo(de,g)quinoline-10,11-diyl ester, (r)-

$$$$
