
 OpenBabel10282417213D

 58 57  0  0  0  0  0  0  0  0999 V2000
    1.0330   -0.1255   -0.0503 C   0  0  0  0  0  0  0  0  0  0  0  0
    0.6054    0.8402    1.0460 C   0  0  0  0  0  0  0  0  0  0  0  0
    1.0146    2.2575    0.7676 C   0  0  0  0  0  0  0  0  0  0  0  0
    0.1416    3.2416    0.5246 C   0  0  0  0  0  0  0  0  0  0  0  0
   -1.3308    3.0420    0.5271 C   0  0  0  0  0  0  0  0  0  0  0  0
   -1.9927    3.9519    1.5024 C   0  0  0  0  0  0  0  0  0  0  0  0
   -2.9802    4.7766    1.1504 C   0  0  0  0  0  0  0  0  0  0  0  0
   -3.4547    4.8753   -0.2537 C   0  0  0  0  0  0  0  0  0  0  0  0
   -4.9122    4.6022   -0.3550 C   0  0  0  0  0  0  0  0  0  0  0  0
   -5.7537    5.4806   -0.9003 C   0  0  0  0  0  0  0  0  0  0  0  0
   -5.2891    6.8046   -1.3861 C   0  0  0  0  0  0  0  0  0  0  0  0
   -5.6337    7.0096   -2.8156 C   0  0  0  0  0  0  0  0  0  0  0  0
   -6.3582    8.0544   -3.2147 C   0  0  0  0  0  0  0  0  0  0  0  0
   -6.9040    9.0424   -2.2484 C   0  0  0  0  0  0  0  0  0  0  0  0
   -6.4668   10.4138   -2.5962 C   0  0  0  0  0  0  0  0  0  0  0  0
   -7.3405   11.3867   -2.8530 C   0  0  0  0  0  0  0  0  0  0  0  0
   -8.8279   11.1940   -2.7832 C   0  0  0  0  0  0  0  0  0  0  0  0
   -9.4321   12.0812   -1.7059 C   0  0  0  0  0  0  0  0  0  0  0  0
    0.5234    0.2668   -1.4258 C   0  0  0  0  0  0  0  0  0  0  0  0
   -0.2850   -0.6409   -2.0121 O   0  0  0  0  0  0  0  0  0  0  0  0
    0.8242    1.3051   -2.0061 O   0  0  0  0  0  0  0  0  0  0  0  0
   -9.2801   13.5586   -2.0574 C   0  0  0  0  0  0  0  0  0  0  0  0
   -9.8816   13.8852   -3.4273 C   0  0  0  0  0  0  0  0  0  0  0  0
  -11.3696   13.5719   -3.4617 C   0  0  0  0  0  0  0  0  0  0  0  0
    0.6621   -1.1221    0.2137 H   0  0  0  0  0  0  0  0  0  0  0  0
    2.1239   -0.1897   -0.0941 H   0  0  0  0  0  0  0  0  0  0  0  0
   -0.4717    0.7164    1.1675 H   0  0  0  0  0  0  0  0  0  0  0  0
    1.0203    0.5550    2.0172 H   0  0  0  0  0  0  0  0  0  0  0  0
    2.0752    2.4774    0.6711 H   0  0  0  0  0  0  0  0  0  0  0  0
    0.5017    4.2250    0.2192 H   0  0  0  0  0  0  0  0  0  0  0  0
   -1.6278    3.1454   -0.5151 H   0  0  0  0  0  0  0  0  0  0  0  0
   -1.6812    2.0464    0.7875 H   0  0  0  0  0  0  0  0  0  0  0  0
   -1.6683    3.9119    2.5386 H   0  0  0  0  0  0  0  0  0  0  0  0
   -3.4307    5.4344    1.8903 H   0  0  0  0  0  0  0  0  0  0  0  0
   -3.1061    5.8511   -0.5826 H   0  0  0  0  0  0  0  0  0  0  0  0
   -3.0057    4.2024   -0.9794 H   0  0  0  0  0  0  0  0  0  0  0  0
   -5.2804    3.6393   -0.0115 H   0  0  0  0  0  0  0  0  0  0  0  0
   -6.8151    5.2539   -0.9608 H   0  0  0  0  0  0  0  0  0  0  0  0
   -5.6985    7.5077   -0.6656 H   0  0  0  0  0  0  0  0  0  0  0  0
   -4.2235    7.0121   -1.3391 H   0  0  0  0  0  0  0  0  0  0  0  0
   -5.2419    6.3077   -3.5474 H   0  0  0  0  0  0  0  0  0  0  0  0
   -6.5912    8.1846   -4.2685 H   0  0  0  0  0  0  0  0  0  0  0  0
   -7.9736    8.8542   -2.2400 H   0  0  0  0  0  0  0  0  0  0  0  0
   -6.6288    8.9283   -1.2030 H   0  0  0  0  0  0  0  0  0  0  0  0
   -5.3978   10.6231   -2.5999 H   0  0  0  0  0  0  0  0  0  0  0  0
   -6.9473   12.3711   -3.0941 H   0  0  0  0  0  0  0  0  0  0  0  0
   -9.2447   11.3574   -3.7789 H   0  0  0  0  0  0  0  0  0  0  0  0
   -9.1510   10.1827   -2.5466 H   0  0  0  0  0  0  0  0  0  0  0  0
  -10.4890   11.8169   -1.5869 H   0  0  0  0  0  0  0  0  0  0  0  0
   -8.9723   11.8715   -0.7311 H   0  0  0  0  0  0  0  0  0  0  0  0
   -0.4490   -1.4576   -1.5080 H   0  0  0  0  0  0  0  0  0  0  0  0
   -9.7558   14.1639   -1.2800 H   0  0  0  0  0  0  0  0  0  0  0  0
   -8.2195   13.8365   -2.0501 H   0  0  0  0  0  0  0  0  0  0  0  0
   -9.7116   14.9404   -3.6552 H   0  0  0  0  0  0  0  0  0  0  0  0
   -9.3739   13.3323   -4.2266 H   0  0  0  0  0  0  0  0  0  0  0  0
  -11.8906   14.1560   -2.6979 H   0  0  0  0  0  0  0  0  0  0  0  0
  -11.7898   13.8068   -4.4412 H   0  0  0  0  0  0  0  0  0  0  0  0
  -11.5744   12.5124   -3.2743 H   0  0  0  0  0  0  0  0  0  0  0  0
  1  2  1  0  0  0  0
  1 19  1  0  0  0  0
  1 25  1  0  0  0  0
  1 26  1  0  0  0  0
  2  3  1  0  0  0  0
  2 27  1  0  0  0  0
  2 28  1  0  0  0  0
  3  4  2  0  0  0  0
  3 29  1  0  0  0  0
  4  5  1  0  0  0  0
  4 30  1  0  0  0  0
  5  6  1  0  0  0  0
  5 31  1  0  0  0  0
  5 32  1  0  0  0  0
  6  7  2  0  0  0  0
  6 33  1  0  0  0  0
  7  8  1  0  0  0  0
  7 34  1  0  0  0  0
  8  9  1  0  0  0  0
  8 35  1  0  0  0  0
  8 36  1  0  0  0  0
  9 10  2  0  0  0  0
  9 37  1  0  0  0  0
 10 11  1  0  0  0  0
 10 38  1  0  0  0  0
 11 12  1  0  0  0  0
 11 39  1  0  0  0  0
 11 40  1  0  0  0  0
 12 13  2  0  0  0  0
 12 41  1  0  0  0  0
 13 14  1  0  0  0  0
 13 42  1  0  0  0  0
 14 15  1  0  0  0  0
 14 43  1  0  0  0  0
 14 44  1  0  0  0  0
 15 16  2  0  0  0  0
 15 45  1  0  0  0  0
 16 17  1  0  0  0  0
 16 46  1  0  0  0  0
 17 18  1  0  0  0  0
 17 47  1  0  0  0  0
 17 48  1  0  0  0  0
 18 22  1  0  0  0  0
 18 49  1  0  0  0  0
 18 50  1  0  0  0  0
 20 19  1  0  0  0  0
 20 51  1  0  0  0  0
 21 19  2  0  0  0  0
 22 23  1  0  0  0  0
 22 52  1  0  0  0  0
 22 53  1  0  0  0  0
 23 24  1  0  0  0  0
 23 54  1  0  0  0  0
 23 55  1  0  0  0  0
 24 56  1  0  0  0  0
 24 57  1  0  0  0  0
 24 58  1  0  0  0  0
M  END
>  <DRUGBANK_ID>
DB14088

>  <COMMON_NAME>
Osbond acid

>  <CAS_NUMBER>
25182-74-5

>  <UNII>
7S686LQT6T

>  <SYNONYMS>
(All-Z)-4,7,10,13,16-docosapentaenoic acid; 4Z,7Z,10Z,13Z,16Z-docosapentaenoic acid; all-cis-docosa-4,7,10,13,16-pentaenoic acid; Docosapentaenoic acid (22n-6)

$$$$
