
 OpenBabel10282417123D

 29 30  0  0  0  0  0  0  0  0999 V2000
    1.0591   -0.0790   -0.0163 C   0  0  0  0  0  0  0  0  0  0  0  0
   -0.2447   -0.0790   -0.0163 C   0  0  0  0  0  0  0  0  0  0  0  0
   -1.7647   -0.0790   -0.0163 C   0  0  0  0  0  0  0  0  0  0  0  0
   -2.2904   -1.3580   -0.5023 N   0  0  0  0  0  0  0  0  0  0  0  0
   -3.7457   -1.3871   -0.3391 C   0  0  0  0  0  0  0  0  0  0  0  0
   -1.8584   -1.6623   -1.8801 C   0  0  2  0  0  0  0  0  0  0  0  0
   -2.6914   -1.0383   -3.0296 C   0  0  0  0  0  0  0  0  0  0  0  0
   -2.5710   -1.9845   -4.2288 C   0  0  0  0  0  0  0  0  0  0  0  0
   -2.3624   -3.3016   -3.5492 C   0  0  0  0  0  0  0  0  0  0  0  0
   -1.9398   -3.1304   -2.2276 C   0  0  0  0  0  0  0  0  0  0  0  0
   -1.5987   -4.2215   -1.4381 C   0  0  0  0  0  0  0  0  0  0  0  0
   -1.7519   -5.5021   -1.9741 C   0  0  0  0  0  0  0  0  0  0  0  0
   -2.2155   -5.6727   -3.2857 C   0  0  0  0  0  0  0  0  0  0  0  0
   -2.5100   -4.5688   -4.0907 C   0  0  0  0  0  0  0  0  0  0  0  0
    2.1244   -0.0862   -0.0154 H   0  0  0  0  0  0  0  0  0  0  0  0
   -2.0960    0.1077    1.0124 H   0  0  0  0  0  0  0  0  0  0  0  0
   -2.1164    0.7540   -0.6376 H   0  0  0  0  0  0  0  0  0  0  0  0
   -4.2391   -0.5574   -0.8592 H   0  0  0  0  0  0  0  0  0  0  0  0
   -4.1687   -2.3291   -0.7052 H   0  0  0  0  0  0  0  0  0  0  0  0
   -4.0253   -1.3053    0.7156 H   0  0  0  0  0  0  0  0  0  0  0  0
   -0.8035   -1.4011   -2.0371 H   0  0  0  0  0  0  0  0  0  0  0  0
   -3.7591   -0.9900   -2.7929 H   0  0  0  0  0  0  0  0  0  0  0  0
   -2.3779   -0.0139   -3.2562 H   0  0  0  0  0  0  0  0  0  0  0  0
   -3.4907   -1.9730   -4.8211 H   0  0  0  0  0  0  0  0  0  0  0  0
   -1.7142   -1.7234   -4.8564 H   0  0  0  0  0  0  0  0  0  0  0  0
   -1.2308   -4.0821   -0.4268 H   0  0  0  0  0  0  0  0  0  0  0  0
   -1.5127   -6.3720   -1.3669 H   0  0  0  0  0  0  0  0  0  0  0  0
   -2.3423   -6.6773   -3.6834 H   0  0  0  0  0  0  0  0  0  0  0  0
   -2.8534   -4.7039   -5.1093 H   0  0  0  0  0  0  0  0  0  0  0  0
  1  2  3  0  0  0  0
  1 15  1  0  0  0  0
  2  3  1  0  0  0  0
  3  4  1  0  0  0  0
  3 16  1  0  0  0  0
  3 17  1  0  0  0  0
  4  5  1  0  0  0  0
  5 18  1  0  0  0  0
  5 19  1  0  0  0  0
  5 20  1  0  0  0  0
  6  4  1  0  0  0  0
  6  7  1  0  0  0  0
  6 10  1  0  0  0  0
  6 21  1  6  0  0  0
  7  8  1  0  0  0  0
  7 22  1  0  0  0  0
  7 23  1  0  0  0  0
  8  9  1  0  0  0  0
  8 24  1  0  0  0  0
  8 25  1  0  0  0  0
  9 10  2  0  0  0  0
  9 14  1  0  0  0  0
 10 11  1  0  0  0  0
 11 12  2  0  0  0  0
 11 26  1  0  0  0  0
 12 13  1  0  0  0  0
 12 27  1  0  0  0  0
 13 14  2  0  0  0  0
 13 28  1  0  0  0  0
 14 29  1  0  0  0  0
M  END
>  <DRUGBANK_ID>
DB02211

>  <SECONDARY_ACCESSION_NUMBERS>
EXPT02792

>  <COMMON_NAME>
(R)-N-methyl-N-2-propynyl-1-indanamine

>  <CAS_NUMBER>
124192-87-6

>  <UNII>
1Y7XS87IZR

>  <SYNONYMS>
N-Methyl-N-propargyl-1(R)-aminoindan

$$$$
