
 OpenBabel10282417213D

  1  0  0  0  0  0  0  0  0  0999 V2000
    1.0067    0.0390   -0.0918 Co  0  2  0  0  0  0  0  0  0  0  0  0
M  CHG  1   1   2
M  END
>  <DRUGBANK_ID>
DB14205

>  <COMMON_NAME>
Cobaltous cation

>  <CAS_NUMBER>
22541-53-3

>  <UNII>
AI1MR454XG

>  <SYNONYMS>
Cobalt cation (Co2+); Cobalt, ion (Co2+); Cobalt(2+); Cobalt(II) cation; Cobalt(II) ion; Cobaltous ion

$$$$
