
 OpenBabel10282417153D

 30 30  0  0  1  0  0  0  0  0999 V2000
    1.1270   -0.0391    0.0307 F   0  0  0  0  0  0  0  0  0  0  0  0
    3.1844   -0.8606    0.7625 F   0  0  0  0  0  0  0  0  0  0  0  0
    4.5451    3.8863   -3.5328 O   0  0  0  0  0  0  0  0  0  0  0  0
    5.6210    5.5431    0.4326 O   0  0  0  0  0  0  0  0  0  0  0  0
    3.2478    3.9913   -1.5887 N   0  0  0  0  0  0  0  0  0  0  0  0
    3.7845    4.6559    1.3476 N   0  0  0  0  0  0  0  0  0  0  0  0
    2.3215    1.8232   -1.6603 C   0  0  1  0  0  0  0  0  0  0  0  0
    2.2233    3.1747   -0.9890 C   0  0  0  0  0  0  0  0  0  0  0  0
    2.9019    2.1731   -3.0261 C   0  0  0  0  0  0  0  0  0  0  0  0
    3.6999    5.2979   -1.0671 C   0  0  1  0  0  0  0  0  0  0  0  0
    3.7030    3.4287   -2.7730 C   0  0  0  0  0  0  0  0  0  0  0  0
    2.5851    6.3685   -1.0263 C   0  0  0  0  0  0  0  0  0  0  0  0
    3.1027    0.8566   -0.8092 C   0  0  0  0  0  0  0  0  0  0  0  0
    4.4625    5.1650    0.2756 C   0  0  0  0  0  0  0  0  0  0  0  0
    1.4359    6.1024   -0.0616 C   0  0  0  0  0  0  0  0  0  0  0  0
    2.4766   -0.0230   -0.0189 C   0  0  0  0  0  0  0  0  0  0  0  0
    2.8034    4.4330    1.3380 H   0  0  0  0  0  0  0  0  0  0  0  0
    4.2513    4.6368    2.2432 H   0  0  0  0  0  0  0  0  0  0  0  0
    1.3098    1.4224   -1.7919 H   0  0  0  0  0  0  0  0  0  0  0  0
    1.2445    3.5847   -1.2327 H   0  0  0  0  0  0  0  0  0  0  0  0
    2.3522    3.0942    0.0868 H   0  0  0  0  0  0  0  0  0  0  0  0
    2.0878    2.4418   -3.7115 H   0  0  0  0  0  0  0  0  0  0  0  0
    3.5091    1.3777   -3.4586 H   0  0  0  0  0  0  0  0  0  0  0  0
    4.4519    5.6747   -1.7789 H   0  0  0  0  0  0  0  0  0  0  0  0
    3.0276    7.3348   -0.7492 H   0  0  0  0  0  0  0  0  0  0  0  0
    2.1723    6.4949   -2.0360 H   0  0  0  0  0  0  0  0  0  0  0  0
    4.1879    0.9082   -0.7861 H   0  0  0  0  0  0  0  0  0  0  0  0
    1.7770    6.0787    0.9729 H   0  0  0  0  0  0  0  0  0  0  0  0
    0.6699    6.8760   -0.1247 H   0  0  0  0  0  0  0  0  0  0  0  0
    0.9245    5.1689   -0.2685 H   0  0  0  0  0  0  0  0  0  0  0  0
  1 16  1  0  0  0  0
  2 16  1  0  0  0  0
  3 11  2  0  0  0  0
  4 14  2  0  0  0  0
  5  8  1  0  0  0  0
  5 10  1  0  0  0  0
  5 11  1  0  0  0  0
  6 14  1  0  0  0  0
  6 17  1  0  0  0  0
  6 18  1  0  0  0  0
  7  8  1  0  0  0  0
  7  9  1  0  0  0  0
  7 13  1  0  0  0  0
  7 19  1  6  0  0  0
  8 20  1  0  0  0  0
  8 21  1  0  0  0  0
  9 11  1  0  0  0  0
  9 22  1  0  0  0  0
  9 23  1  0  0  0  0
 10 12  1  0  0  0  0
 10 14  1  0  0  0  0
 10 24  1  6  0  0  0
 12 15  1  0  0  0  0
 12 25  1  0  0  0  0
 12 26  1  0  0  0  0
 13 16  2  0  0  0  0
 13 27  1  0  0  0  0
 15 28  1  0  0  0  0
 15 29  1  0  0  0  0
 15 30  1  0  0  0  0
M  END
>  <DRUGBANK_ID>
DB05885

>  <SECONDARY_ACCESSION_NUMBERS>
DB12175

>  <COMMON_NAME>
Seletracetam

>  <CAS_NUMBER>
357336-74-4

>  <UNII>
RFR2CH3QZK

>  <SYNONYMS>
(2S)-2-((4S)-4-(2,2-Difluoroethenyl)-2-oxopyrrolidin-1-yl)butanamide; Seletracetam

$$$$
