
 OpenBabel10282417193D

 48 51  0  0  0  0  0  0  0  0999 V2000
    0.9603   -0.3799   -0.1140 C   0  0  0  0  0  0  0  0  0  0  0  0
    0.4460    0.3233   -1.2889 N   0  0  0  0  0  0  0  0  0  0  0  0
   -1.0081    0.3075   -1.2751 C   0  0  0  0  0  0  0  0  0  0  0  0
    0.9474    1.6932   -1.5034 C   0  0  0  0  0  0  0  0  0  0  0  0
    0.5838    2.7513   -0.4431 C   0  0  0  0  0  0  0  0  0  0  0  0
    1.1382    2.5114    0.9547 C   0  0  0  0  0  0  0  0  0  0  0  0
    2.5822    2.3788    1.0052 N   0  0  0  0  0  0  0  0  0  0  0  0
    3.3981    3.0763    1.8498 C   0  0  0  0  0  0  0  0  0  0  0  0
    3.1827    3.9846    2.8775 C   0  0  0  0  0  0  0  0  0  0  0  0
    4.3429    4.5030    3.4649 C   0  0  0  0  0  0  0  0  0  0  0  0
    5.6411    4.1198    3.0353 C   0  0  0  0  0  0  0  0  0  0  0  0
    5.8315    3.1979    2.0036 C   0  0  0  0  0  0  0  0  0  0  0  0
    4.6588    2.7071    1.4514 C   0  0  0  0  0  0  0  0  0  0  0  0
    4.5476    1.7798    0.4080 C   0  0  0  0  0  0  0  0  0  0  0  0
    3.2618    1.5524    0.1577 N   0  0  0  0  0  0  0  0  0  0  0  0
    5.7732    1.2453   -0.1980 C   0  0  0  0  0  0  0  0  0  0  0  0
    5.8096    0.3183   -1.2504 C   0  0  0  0  0  0  0  0  0  0  0  0
    7.0487   -0.1226   -1.7525 C   0  0  0  0  0  0  0  0  0  0  0  0
    8.2368    0.3690   -1.1973 C   0  0  0  0  0  0  0  0  0  0  0  0
    8.2137    1.2942   -0.1508 C   0  0  0  0  0  0  0  0  0  0  0  0
    6.9989    1.7443    0.3615 C   0  0  0  0  0  0  0  0  0  0  0  0
    6.9944    2.6955    1.4295 N   0  0  0  0  0  0  0  0  0  0  0  0
    7.0005   -1.0310   -2.7822 O   0  0  0  0  0  0  0  0  0  0  0  0
    8.2544   -1.4841   -3.2970 C   0  0  0  0  0  0  0  0  0  0  0  0
    6.8015    4.7097    3.6949 N   0  3  0  0  0  0  0  0  0  0  0  0
    6.5830    5.5259    4.6094 O   0  0  0  0  0  0  0  0  0  0  0  0
    7.9286    4.3737    3.3177 O   0  5  0  0  0  0  0  0  0  0  0  0
    0.6801   -1.4359   -0.1204 H   0  0  0  0  0  0  0  0  0  0  0  0
    0.5327   -0.0099    0.8159 H   0  0  0  0  0  0  0  0  0  0  0  0
    2.0480   -0.3764   -0.0480 H   0  0  0  0  0  0  0  0  0  0  0  0
   -1.4179    0.9264   -0.4708 H   0  0  0  0  0  0  0  0  0  0  0  0
   -1.3930    0.6710   -2.2319 H   0  0  0  0  0  0  0  0  0  0  0  0
   -1.3781   -0.7099   -1.1295 H   0  0  0  0  0  0  0  0  0  0  0  0
    2.0220    1.6850   -1.7090 H   0  0  0  0  0  0  0  0  0  0  0  0
    0.5522    2.0534   -2.4645 H   0  0  0  0  0  0  0  0  0  0  0  0
    0.9387    3.7322   -0.7852 H   0  0  0  0  0  0  0  0  0  0  0  0
   -0.5064    2.8540   -0.3805 H   0  0  0  0  0  0  0  0  0  0  0  0
    0.8429    3.3554    1.5878 H   0  0  0  0  0  0  0  0  0  0  0  0
    0.6999    1.6667    1.4807 H   0  0  0  0  0  0  0  0  0  0  0  0
    2.1891    4.2767    3.2000 H   0  0  0  0  0  0  0  0  0  0  0  0
    4.2117    5.2234    4.2708 H   0  0  0  0  0  0  0  0  0  0  0  0
    4.8853   -0.0616   -1.6813 H   0  0  0  0  0  0  0  0  0  0  0  0
    9.2098    0.0513   -1.5579 H   0  0  0  0  0  0  0  0  0  0  0  0
    9.1531    1.6556    0.2559 H   0  0  0  0  0  0  0  0  0  0  0  0
    7.8861    3.0137    1.7975 H   0  0  0  0  0  0  0  0  0  0  0  0
    8.8322   -0.6551   -3.7223 H   0  0  0  0  0  0  0  0  0  0  0  0
    8.8335   -2.0086   -2.5279 H   0  0  0  0  0  0  0  0  0  0  0  0
    8.0626   -2.1972   -4.1050 H   0  0  0  0  0  0  0  0  0  0  0  0
  1  2  1  0  0  0  0
  1 28  1  0  0  0  0
  1 29  1  0  0  0  0
  1 30  1  0  0  0  0
  2  3  1  0  0  0  0
  2  4  1  0  0  0  0
  3 31  1  0  0  0  0
  3 32  1  0  0  0  0
  3 33  1  0  0  0  0
  4  5  1  0  0  0  0
  4 34  1  0  0  0  0
  4 35  1  0  0  0  0
  5  6  1  0  0  0  0
  5 36  1  0  0  0  0
  5 37  1  0  0  0  0
  6  7  1  0  0  0  0
  6 38  1  0  0  0  0
  6 39  1  0  0  0  0
  7  8  1  0  0  0  0
  7 15  1  0  0  0  0
  8  9  2  0  0  0  0
  8 13  1  0  0  0  0
  9 10  1  0  0  0  0
  9 40  1  0  0  0  0
 10 11  2  0  0  0  0
 10 41  1  0  0  0  0
 11 12  1  0  0  0  0
 11 25  1  0  0  0  0
 12 13  2  0  0  0  0
 12 22  1  0  0  0  0
 13 14  1  0  0  0  0
 14 15  2  0  0  0  0
 14 16  1  0  0  0  0
 16 17  2  0  0  0  0
 16 21  1  0  0  0  0
 17 18  1  0  0  0  0
 17 42  1  0  0  0  0
 18 19  2  0  0  0  0
 18 23  1  0  0  0  0
 19 20  1  0  0  0  0
 19 43  1  0  0  0  0
 20 21  2  0  0  0  0
 20 44  1  0  0  0  0
 21 22  1  0  0  0  0
 22 45  1  0  0  0  0
 23 24  1  0  0  0  0
 24 46  1  0  0  0  0
 24 47  1  0  0  0  0
 24 48  1  0  0  0  0
 25 26  2  0  0  0  0
 25 27  1  0  0  0  0
M  CHG  2  25   1  27  -1
M  END
>  <DRUGBANK_ID>
DB12549

>  <COMMON_NAME>
Pyrazoloacridine

>  <CAS_NUMBER>
99009-20-8

>  <UNII>
L24XJN68OW

$$$$
