
 OpenBabel10282417183D

 28 29  0  0  0  0  0  0  0  0999 V2000
    1.1771    0.0326   -0.0721 C   0  0  0  0  0  0  0  0  0  0  0  0
   -2.9528    3.3159    2.0368 C   0  0  0  0  0  0  0  0  0  0  0  0
   -3.8856    6.3790    2.9307 C   0  0  0  0  0  0  0  0  0  0  0  0
   -3.3722    5.5075    4.0768 C   0  0  0  0  0  0  0  0  0  0  0  0
    0.7217    1.4187    0.2760 C   0  0  0  0  0  0  0  0  0  0  0  0
   -0.3594    3.8875    1.1429 C   0  0  0  0  0  0  0  0  0  0  0  0
    0.8046    3.7086    0.3695 C   0  0  0  0  0  0  0  0  0  0  0  0
   -0.9591    2.6173    1.3008 C   0  0  0  0  0  0  0  0  0  0  0  0
   -1.7953    5.7062    2.4047 C   0  0  0  0  0  0  0  0  0  0  0  0
    1.7133    5.0674   -0.2112 Cl  0  0  0  0  0  0  0  0  0  0  0  0
   -2.8150    6.3324    1.8568 N   0  0  0  0  0  0  0  0  0  0  0  0
   -1.9411    5.4935    3.7601 N   0  0  0  0  0  0  0  0  0  0  0  0
    1.3551    2.5352   -0.0944 N   0  0  0  0  0  0  0  0  0  0  0  0
   -0.4021    1.4441    0.9352 N   0  0  0  0  0  0  0  0  0  0  0  0
   -0.6755    5.2163    1.7276 N   0  0  0  0  0  0  0  0  0  0  0  0
   -2.1942    2.2358    1.6773 O   0  0  0  0  0  0  0  0  0  0  0  0
    0.7613   -0.2789   -1.0352 H   0  0  0  0  0  0  0  0  0  0  0  0
    0.7837   -0.6732    0.6784 H   0  0  0  0  0  0  0  0  0  0  0  0
    2.2611   -0.0587   -0.0699 H   0  0  0  0  0  0  0  0  0  0  0  0
   -2.3822    3.6290    2.8888 H   0  0  0  0  0  0  0  0  0  0  0  0
   -3.0503    4.0034    1.1915 H   0  0  0  0  0  0  0  0  0  0  0  0
   -3.9299    3.0714    2.4301 H   0  0  0  0  0  0  0  0  0  0  0  0
   -4.8350    5.9920    2.5303 H   0  0  0  0  0  0  0  0  0  0  0  0
   -4.0553    7.4001    3.2833 H   0  0  0  0  0  0  0  0  0  0  0  0
   -3.6274    5.8644    5.0768 H   0  0  0  0  0  0  0  0  0  0  0  0
   -3.8271    4.5077    4.0191 H   0  0  0  0  0  0  0  0  0  0  0  0
   -1.3811    4.7704    4.1913 H   0  0  0  0  0  0  0  0  0  0  0  0
   -0.4119    5.8951    1.0046 H   0  0  0  0  0  0  0  0  0  0  0  0
  1 17  1  0  0  0  0
  1 18  1  0  0  0  0
  1 19  1  0  0  0  0
  2 20  1  0  0  0  0
  2 21  1  0  0  0  0
  2 22  1  0  0  0  0
  3 23  1  0  0  0  0
  3 24  1  0  0  0  0
  4  3  1  0  0  0  0
  4 25  1  0  0  0  0
  4 26  1  0  0  0  0
  5  1  1  0  0  0  0
  7  6  2  0  0  0  0
  8  6  1  0  0  0  0
 10  7  1  0  0  0  0
 11  3  1  0  0  0  0
 11  9  2  0  0  0  0
 12  4  1  0  0  0  0
 12  9  1  0  0  0  0
 12 27  1  0  0  0  0
 13  5  2  0  0  0  0
 13  7  1  0  0  0  0
 14  5  1  0  0  0  0
 14  8  2  0  0  0  0
 15  6  1  0  0  0  0
 15  9  1  0  0  0  0
 15 28  1  0  0  0  0
 16  2  1  0  0  0  0
 16  8  1  0  0  0  0
M  END
>  <DRUGBANK_ID>
DB09242

>  <COMMON_NAME>
Moxonidine

>  <CAS_NUMBER>
75438-57-2

>  <UNII>
CC6X0L40GW

>  <SYNONYMS>
(2R,4R)-1-[(2S)-5-[(aminoiminomethyl)amino]-1-oxo-2-[[(1,2,3,4-tetrahydro-3-methyl-8- quinolinyl)sulfonyl]amino]pentyl]-4-methyl-2-piperidinecarboxylic acid; Moxonidina; Moxonidine; Moxonidinum

$$$$
