
 OpenBabel10282417223D

 40 43  0  0  0  0  0  0  0  0999 V2000
    0.5047   -0.8860   -0.4785 C   0  0  0  0  0  0  0  0  0  0  0  0
    1.4104   -0.4672    5.3766 C   0  0  0  0  0  0  0  0  0  0  0  0
    2.5861   -0.0955    4.7297 C   0  0  0  0  0  0  0  0  0  0  0  0
    0.1903   -0.5369    4.6858 C   0  0  0  0  0  0  0  0  0  0  0  0
    2.5351    0.3172    3.4252 C   0  0  0  0  0  0  0  0  0  0  0  0
   -4.1014    2.1154    4.4720 C   0  0  0  0  0  0  0  0  0  0  0  0
   -3.2103    2.6761    3.5595 C   0  0  0  0  0  0  0  0  0  0  0  0
   -3.2308   -0.0575    3.9927 C   0  0  0  0  0  0  0  0  0  0  0  0
   -1.6824    0.7113    0.2904 C   0  0  0  0  0  0  0  0  0  0  0  0
   -1.7717   -2.0540    1.0797 C   0  0  0  0  0  0  0  0  0  0  0  0
   -0.4307   -1.4249    0.6386 C   0  0  3  0  0  0  0  0  0  0  0  0
   -4.1326    0.7442    4.6708 C   0  0  0  0  0  0  0  0  0  0  0  0
    0.1188   -0.1593    3.3356 C   0  0  0  0  0  0  0  0  0  0  0  0
   -2.2989    0.5190    3.0836 C   0  0  0  0  0  0  0  0  0  0  0  0
    1.3079    0.4133    2.7963 C   0  0  0  0  0  0  0  0  0  0  0  0
   -2.3377    1.8979    2.8121 C   0  0  0  0  0  0  0  0  0  0  0  0
   -1.3281    2.1105    0.7004 C   0  0  0  0  0  0  0  0  0  0  0  0
   -1.1916   -0.3340    2.5219 C   0  0  3  0  0  0  0  0  0  0  0  0
   -5.2442    0.0524    5.7832 Cl  0  0  0  0  0  0  0  0  0  0  0  0
    1.4683    1.5730    1.5236 Cl  0  0  0  0  0  0  0  0  0  0  0  0
   -1.5858    2.6206    1.8807 N   0  0  0  0  0  0  0  0  0  0  0  0
   -0.8424   -0.1247    1.1419 N   0  0  3  0  0  0  0  0  0  0  0  0
   -0.5803    2.8220   -0.1631 O   0  0  0  0  0  0  0  0  0  0  0  0
   -1.6946   -1.7049    2.5239 O   0  0  0  0  0  0  0  0  0  0  0  0
    0.5118    0.2163   -0.5731 H   0  0  0  0  0  0  0  0  0  0  0  0
    0.3914   -1.2325   -1.4970 H   0  0  0  0  0  0  0  0  0  0  0  0
    1.5575   -0.9812   -0.1489 H   0  0  0  0  0  0  0  0  0  0  0  0
    1.4488   -0.6811    6.4392 H   0  0  0  0  0  0  0  0  0  0  0  0
    3.5346   -0.0082    5.2431 H   0  0  0  0  0  0  0  0  0  0  0  0
   -0.7068   -0.8150    5.2371 H   0  0  0  0  0  0  0  0  0  0  0  0
    3.4148    0.7182    2.9278 H   0  0  0  0  0  0  0  0  0  0  0  0
   -4.7678    2.7705    5.0175 H   0  0  0  0  0  0  0  0  0  0  0  0
   -3.1673    3.7485    3.4053 H   0  0  0  0  0  0  0  0  0  0  0  0
   -3.2280   -1.1308    4.1987 H   0  0  0  0  0  0  0  0  0  0  0  0
   -2.7630    0.5551    0.3431 H   0  0  0  0  0  0  0  0  0  0  0  0
   -1.4444    0.5859   -0.7767 H   0  0  0  0  0  0  0  0  0  0  0  0
   -2.6908   -1.5747    0.7029 H   0  0  0  0  0  0  0  0  0  0  0  0
   -1.9799   -3.1287    1.0715 H   0  0  0  0  0  0  0  0  0  0  0  0
    0.2950   -1.9494    1.2880 H   0  0  0  0  0  0  0  0  0  0  0  0
   -0.0563    2.2530   -0.7573 H   0  0  0  0  0  0  0  0  0  0  0  0
  1 25  1  0  0  0  0
  1 26  1  0  0  0  0
  1 27  1  0  0  0  0
  2 28  1  0  0  0  0
  3  2  2  0  0  0  0
  3 29  1  0  0  0  0
  4  2  1  0  0  0  0
  4 30  1  0  0  0  0
  5  3  1  0  0  0  0
  5 31  1  0  0  0  0
  6 32  1  0  0  0  0
  7  6  2  0  0  0  0
  7 33  1  0  0  0  0
  8 34  1  0  0  0  0
  9 35  1  0  0  0  0
  9 36  1  0  0  0  0
 10 37  1  0  0  0  0
 10 38  1  0  0  0  0
 11  1  1  0  0  0  0
 11 10  1  0  0  0  0
 11 39  1  0  0  0  0
 12  6  1  0  0  0  0
 12  8  2  0  0  0  0
 13  4  2  0  0  0  0
 14  8  1  0  0  0  0
 15  5  2  0  0  0  0
 15 13  1  0  0  0  0
 16  7  1  0  0  0  0
 16 14  2  0  0  0  0
 17  9  1  0  0  0  0
 18 13  1  0  0  0  0
 18 14  1  0  0  0  0
 19 12  1  0  0  0  0
 20 15  1  0  0  0  0
 21 16  1  0  0  0  0
 21 17  2  0  0  0  0
 22  9  1  0  0  0  0
 22 11  1  0  0  0  0
 22 18  1  0  0  0  0
 23 17  1  0  0  0  0
 23 40  1  0  0  0  0
 24 10  1  0  0  0  0
 24 18  1  0  0  0  0
M  END
>  <DRUGBANK_ID>
DB15489

>  <COMMON_NAME>
Mexazolam

>  <CAS_NUMBER>
31868-18-5

>  <UNII>
S5969B6237

>  <SYNONYMS>
Mexazolam; Mexazolamum

$$$$
