783
 OpenBabel10282417163D

 46 49  0  0  0  0  0  0  0  0999 V2000
    2.2007   -0.7215   -0.0111 C   0  0  0  0  0  0  0  0  0  0  0  0
    2.1263    0.6878   -0.0198 C   0  0  0  0  0  0  0  0  0  0  0  0
    0.9042    1.3873    0.0079 C   0  0  0  0  0  0  0  0  0  0  0  0
   -0.2690    0.6306    0.0300 C   0  0  0  0  0  0  0  0  0  0  0  0
   -0.2439   -0.7596    0.0472 C   0  0  0  0  0  0  0  0  0  0  0  0
    0.9891   -1.4298    0.0324 C   0  0  0  0  0  0  0  0  0  0  0  0
    3.4927   -1.4529   -0.0560 C   0  0  0  0  0  0  0  0  0  0  0  0
    3.5290   -2.7763   -0.0455 N   0  0  0  0  0  0  0  0  0  0  0  0
    4.6358   -0.8066   -0.1041 N   0  3  0  0  0  0  0  0  0  0  0  0
   -1.6002    0.9992   -0.0102 N   0  0  0  0  0  0  0  0  0  0  0  0
   -1.5773   -1.2192    0.0381 C   0  0  0  0  0  0  0  0  0  0  0  0
   -2.4028   -0.1197   -0.0014 C   0  0  0  0  0  0  0  0  0  0  0  0
   -3.8663   -0.0718   -0.1259 C   0  0  0  0  0  0  0  0  0  0  0  0
   -4.5901   -0.7456    0.8798 C   0  0  0  0  0  0  0  0  0  0  0  0
   -5.9720   -0.8082    0.8543 C   0  0  0  0  0  0  0  0  0  0  0  0
   -6.7537   -1.4501    1.7802 O   0  0  0  0  0  0  0  0  0  0  0  0
   -6.0605   -2.1203    2.8299 C   0  0  0  0  0  0  0  0  0  0  0  0
   -6.6342   -0.1739   -0.1903 C   0  0  0  0  0  0  0  0  0  0  0  0
   -5.9315    0.5067   -1.2254 C   0  0  0  0  0  0  0  0  0  0  0  0
   -4.4949    0.5758   -1.2313 C   0  0  0  0  0  0  0  0  0  0  0  0
   -3.8182    1.1690   -2.1503 O   0  5  0  0  0  0  0  0  0  0  0  0
   -6.7466    1.1446   -2.2942 C   0  0  0  0  0  0  0  0  0  0  0  0
   -6.6516    0.7283   -3.6324 C   0  0  0  0  0  0  0  0  0  0  0  0
   -7.3973    1.3493   -4.6378 C   0  0  0  0  0  0  0  0  0  0  0  0
   -8.2788    2.3780   -4.3138 C   0  0  0  0  0  0  0  0  0  0  0  0
   -8.4135    2.7845   -2.9876 C   0  0  0  0  0  0  0  0  0  0  0  0
   -7.6321    2.1917   -1.9921 C   0  0  0  0  0  0  0  0  0  0  0  0
    3.0154    1.3091   -0.0647 H   0  0  0  0  0  0  0  0  0  0  0  0
    0.8751    2.4736   -0.0160 H   0  0  0  0  0  0  0  0  0  0  0  0
    0.9265   -2.5093    0.0305 H   0  0  0  0  0  0  0  0  0  0  0  0
    4.3918   -3.2974   -0.0764 H   0  0  0  0  0  0  0  0  0  0  0  0
    2.6826   -3.3279   -0.0203 H   0  0  0  0  0  0  0  0  0  0  0  0
    4.6613    0.2049   -0.1210 H   0  0  0  0  0  0  0  0  0  0  0  0
    5.5269   -1.2802   -0.1363 H   0  0  0  0  0  0  0  0  0  0  0  0
   -1.9745    1.9327   -0.1307 H   0  0  0  0  0  0  0  0  0  0  0  0
   -1.9237   -2.2411   -0.0101 H   0  0  0  0  0  0  0  0  0  0  0  0
   -4.0234   -1.2119    1.6756 H   0  0  0  0  0  0  0  0  0  0  0  0
   -5.4135   -2.9137    2.4378 H   0  0  0  0  0  0  0  0  0  0  0  0
   -5.4875   -1.4131    3.4401 H   0  0  0  0  0  0  0  0  0  0  0  0
   -6.7989   -2.5939    3.4843 H   0  0  0  0  0  0  0  0  0  0  0  0
   -7.7214   -0.2075   -0.2205 H   0  0  0  0  0  0  0  0  0  0  0  0
   -5.9454   -0.0590   -3.8895 H   0  0  0  0  0  0  0  0  0  0  0  0
   -7.2692    1.0373   -5.6695 H   0  0  0  0  0  0  0  0  0  0  0  0
   -8.8431    2.8760   -5.0957 H   0  0  0  0  0  0  0  0  0  0  0  0
   -9.1097    3.5745   -2.7257 H   0  0  0  0  0  0  0  0  0  0  0  0
   -7.6832    2.5664   -0.9732 H   0  0  0  0  0  0  0  0  0  0  0  0
  1  2  2  0  0  0  0
  1  6  1  0  0  0  0
  1  7  1  0  0  0  0
  2  3  1  0  0  0  0
  2 28  1  0  0  0  0
  3  4  2  0  0  0  0
  3 29  1  0  0  0  0
  4  5  1  0  0  0  0
  4 10  1  0  0  0  0
  5  6  2  0  0  0  0
  5 11  1  0  0  0  0
  6 30  1  0  0  0  0
  7  8  1  0  0  0  0
  7  9  2  0  0  0  0
  8 31  1  0  0  0  0
  8 32  1  0  0  0  0
  9 33  1  0  0  0  0
  9 34  1  0  0  0  0
 10 12  1  0  0  0  0
 10 35  1  0  0  0  0
 11 12  2  0  0  0  0
 11 36  1  0  0  0  0
 12 13  1  0  0  0  0
 13 14  2  0  0  0  0
 13 20  1  0  0  0  0
 14 15  1  0  0  0  0
 14 37  1  0  0  0  0
 15 16  1  0  0  0  0
 15 18  2  0  0  0  0
 16 17  1  0  0  0  0
 17 38  1  0  0  0  0
 17 39  1  0  0  0  0
 17 40  1  0  0  0  0
 18 19  1  0  0  0  0
 18 41  1  0  0  0  0
 19 20  2  0  0  0  0
 19 22  1  0  0  0  0
 20 21  1  0  0  0  0
 22 23  2  0  0  0  0
 22 27  1  0  0  0  0
 23 24  1  0  0  0  0
 23 42  1  0  0  0  0
 24 25  2  0  0  0  0
 24 43  1  0  0  0  0
 25 26  1  0  0  0  0
 25 44  1  0  0  0  0
 26 27  2  0  0  0  0
 26 45  1  0  0  0  0
 27 46  1  0  0  0  0
M  CHG  2   9   1  21  -1
M  END
>  <DRUGBANK_ID>
DB07229

>  <COMMON_NAME>
3-{5-[AMINO(IMINIO)METHYL]-1H-INDOL-2-YL}-5-METHOXY-1,1'-BIPHENYL-2-OLATE

$$$$
