PDE
 OpenBabel10282417173D

 41 41  0  0  0  0  0  0  0  0999 V2000
    0.9288   -0.0679    0.0180 P   0  0  1  0  0  0  0  0  0  0  0  0
    1.0097    0.2197   -1.6420 O   0  0  0  0  0  0  0  0  0  0  0  0
    1.0108    1.3704    0.7976 O   0  0  0  0  0  0  0  0  0  0  0  0
   -0.6195   -0.0679    0.0180 O   0  0  0  0  0  0  0  0  0  0  0  0
    2.7588   -0.0679    0.0180 C   0  0  0  0  0  0  0  0  0  0  0  0
    3.3107   -1.0519    1.0613 C   0  0  0  0  0  0  0  0  0  0  0  0
    2.9464   -2.5091    0.7747 C   0  0  0  0  0  0  0  0  0  0  0  0
    3.5667   -2.9226   -0.5497 C   0  0  0  0  0  0  0  0  0  0  0  0
    4.1017   -4.1651   -0.6586 N   0  0  0  0  0  0  0  0  0  0  0  0
    3.5688   -2.1860   -1.5304 O   0  0  0  0  0  0  0  0  0  0  0  0
    4.6173   -4.5758   -1.9685 C   0  0  1  0  0  0  0  0  0  0  0  0
    6.1334   -4.5057   -2.0121 C   0  0  0  0  0  0  0  0  0  0  0  0
    4.1261   -5.9635   -2.3041 C   0  0  0  0  0  0  0  0  0  0  0  0
    3.5692   -6.2982   -3.3425 O   0  0  0  0  0  0  0  0  0  0  0  0
    4.4132   -6.8869   -1.3682 O   0  0  0  0  0  0  0  0  0  0  0  0
    0.9284   -0.8832   -2.5077 C   0  0  0  0  0  0  0  0  0  0  0  0
    0.8736   -2.1981   -2.0262 C   0  0  0  0  0  0  0  0  0  0  0  0
    0.9575   -0.7131   -3.8943 C   0  0  0  0  0  0  0  0  0  0  0  0
    1.0376   -3.1361   -4.2354 C   0  0  0  0  0  0  0  0  0  0  0  0
    0.9449   -1.8384   -4.7576 C   0  0  0  0  0  0  0  0  0  0  0  0
    1.0091   -3.3174   -2.8599 C   0  0  0  0  0  0  0  0  0  0  0  0
    1.1677   -4.3049   -5.1208 N   0  3  0  0  0  0  0  0  0  0  0  0
    1.2194   -4.1021   -6.3419 O   0  0  0  0  0  0  0  0  0  0  0  0
    1.1974   -5.4269   -4.5963 O   0  5  0  0  0  0  0  0  0  0  0  0
    4.2286   -3.9169   -2.7568 H   0  0  0  0  0  0  0  0  0  0  0  0
    0.2078    1.4337    1.3572 H   0  0  0  0  0  0  0  0  0  0  0  0
    3.1855   -0.2155   -0.9708 H   0  0  0  0  0  0  0  0  0  0  0  0
    3.1347    0.9323    0.2749 H   0  0  0  0  0  0  0  0  0  0  0  0
    4.4017   -0.9626    1.0986 H   0  0  0  0  0  0  0  0  0  0  0  0
    2.9238   -0.7710    2.0486 H   0  0  0  0  0  0  0  0  0  0  0  0
    3.2828   -3.1634    1.5828 H   0  0  0  0  0  0  0  0  0  0  0  0
    1.8558   -2.6157    0.7484 H   0  0  0  0  0  0  0  0  0  0  0  0
    4.3092   -4.7259    0.1575 H   0  0  0  0  0  0  0  0  0  0  0  0
    6.5768   -5.1727   -1.2665 H   0  0  0  0  0  0  0  0  0  0  0  0
    6.5028   -4.8075   -2.9977 H   0  0  0  0  0  0  0  0  0  0  0  0
    6.4878   -3.4893   -1.8090 H   0  0  0  0  0  0  0  0  0  0  0  0
    4.0807   -7.7141   -1.7801 H   0  0  0  0  0  0  0  0  0  0  0  0
    0.8237   -2.4030   -0.9712 H   0  0  0  0  0  0  0  0  0  0  0  0
    0.9978    0.2808   -4.3314 H   0  0  0  0  0  0  0  0  0  0  0  0
    0.8762   -1.6922   -5.8337 H   0  0  0  0  0  0  0  0  0  0  0  0
    1.1259   -4.3017   -2.4099 H   0  0  0  0  0  0  0  0  0  0  0  0
  1  4  2  1  0  0  0
  1  5  1  0  0  0  0
  1  3  1  0  0  0  0
  1  2  1  0  0  0  0
  2 16  1  0  0  0  0
  3 26  1  0  0  0  0
  5  6  1  0  0  0  0
  5 27  1  0  0  0  0
  5 28  1  0  0  0  0
  6  7  1  0  0  0  0
  6 29  1  0  0  0  0
  6 30  1  0  0  0  0
  7  8  1  0  0  0  0
  7 31  1  0  0  0  0
  7 32  1  0  0  0  0
  8  9  1  0  0  0  0
  8 10  2  0  0  0  0
  9 11  1  0  0  0  0
  9 33  1  0  0  0  0
 11 12  1  0  0  0  0
 11 13  1  0  0  0  0
 11 25  1  6  0  0  0
 12 34  1  0  0  0  0
 12 35  1  0  0  0  0
 12 36  1  0  0  0  0
 13 14  2  0  0  0  0
 13 15  1  0  0  0  0
 15 37  1  0  0  0  0
 16 17  2  0  0  0  0
 16 18  1  0  0  0  0
 17 21  1  0  0  0  0
 17 38  1  0  0  0  0
 18 20  2  0  0  0  0
 18 39  1  0  0  0  0
 19 20  1  0  0  0  0
 19 21  2  0  0  0  0
 19 22  1  0  0  0  0
 20 40  1  0  0  0  0
 21 41  1  0  0  0  0
 22 23  2  0  0  0  0
 22 24  1  0  0  0  0
M  CHG  2  22   1  24  -1
M  END
>  <DRUGBANK_ID>
DB08411

>  <COMMON_NAME>
N-[4-(4-nitrophenylphospho)butanoyl]-L-alanine

>  <SYNONYMS>
N-[4-(4-nitrophenylphospho)butyryl]-L-alanine; p-nitrophenyl phosphonobutanoyl L-alanine

$$$$
