
 OpenBabel10282417203D

 86 86  0  0  1  0  0  0  0  0999 V2000
   -9.5480   -5.4513   -0.5341 C   0  0  0  0  0  0  0  0  0  0  0  0
   -8.6828   -6.5153    0.0478 C   0  0  0  0  0  0  0  0  0  0  0  0
   -8.4464   -7.6792   -0.5636 C   0  0  0  0  0  0  0  0  0  0  0  0
   -9.0208   -8.0467   -1.9012 C   0  0  0  0  0  0  0  0  0  0  0  0
   -8.0373   -8.4889   -2.9730 C   0  0  1  0  0  0  0  0  0  0  0  0
   -6.9999   -9.5421   -2.4734 C   0  0  0  0  0  0  0  0  0  0  0  0
   -7.7450  -10.7970   -2.4086 C   0  0  0  0  0  0  0  0  0  0  0  0
   -7.7499  -11.7536   -3.3389 C   0  0  0  0  0  0  0  0  0  0  0  0
   -6.7081  -12.2340   -4.0628 N   0  0  0  0  0  0  0  0  0  0  0  0
   -6.4879  -13.3978   -4.7974 C   0  0  0  0  0  0  0  0  0  0  0  0
   -5.5462  -13.3501   -5.5940 O   0  0  0  0  0  0  0  0  0  0  0  0
   -7.2870  -14.7787   -4.6222 C   0  0  2  0  0  0  0  0  0  0  0  0
   -6.9074  -15.6999   -3.2714 C   0  0  0  0  0  0  0  0  0  0  0  0
   -7.3444  -15.4369   -1.7809 C   0  0  0  0  0  0  0  0  0  0  0  0
   -7.4179  -17.1356   -3.4553 C   0  0  0  0  0  0  0  0  0  0  0  0
   -5.3944  -15.5799   -3.1434 C   0  0  0  0  0  0  0  0  0  0  0  0
   -7.8516  -15.5697   -5.7303 N   0  0  0  0  0  0  0  0  0  0  0  0
   -9.2002  -15.6344   -6.0661 C   0  0  0  0  0  0  0  0  0  0  0  0
   -9.5524  -16.2310   -7.0856 O   0  0  0  0  0  0  0  0  0  0  0  0
  -10.3052  -14.9695   -5.2618 C   0  0  0  0  0  0  0  0  0  0  0  0
  -10.4599  -14.3727   -4.0689 C   0  0  0  0  0  0  0  0  0  0  0  0
   -9.5321  -14.1022   -3.0202 C   0  0  0  0  0  0  0  0  0  0  0  0
   -9.4058  -13.4718   -1.8709 C   0  0  0  0  0  0  0  0  0  0  0  0
  -10.3456  -12.6546   -1.3010 C   0  0  0  0  0  0  0  0  0  0  0  0
   -9.8756  -11.8546   -0.3647 C   0  0  0  0  0  0  0  0  0  0  0  0
  -10.8133  -11.1897    0.5247 C   0  0  2  0  0  0  0  0  0  0  0  0
  -10.8530   -9.7495    0.1631 C   0  0  0  0  0  0  0  0  0  0  0  0
  -10.4276  -11.5286    1.9565 C   0  0  2  0  0  0  0  0  0  0  0  0
   -9.1128  -12.3162    2.1591 C   0  0  0  0  0  0  0  0  0  0  0  0
   -9.2689  -13.7216    1.6117 C   0  0  0  0  0  0  0  0  0  0  0  0
  -10.4780  -14.3010    1.4699 C   0  0  0  0  0  0  0  0  0  0  0  0
  -11.6751  -13.6086    2.0721 C   0  0  0  0  0  0  0  0  0  0  0  0
  -12.7519  -14.1649    2.2476 O   0  0  0  0  0  0  0  0  0  0  0  0
  -11.5094  -12.3187    2.4881 O   0  0  0  0  0  0  0  0  0  0  0  0
  -10.5559  -15.4900    0.7430 O   0  0  0  0  0  0  0  0  0  0  0  0
  -11.8363  -16.1117    0.6496 C   0  0  0  0  0  0  0  0  0  0  0  0
  -11.6599  -12.7028   -1.9241 C   0  0  0  0  0  0  0  0  0  0  0  0
   -8.7776   -8.9173   -4.2103 O   0  0  0  0  0  0  0  0  0  0  0  0
   -9.8625   -9.7717   -4.1640 C   0  0  0  0  0  0  0  0  0  0  0  0
  -10.4334  -10.2015   -3.2067 O   0  0  0  0  0  0  0  0  0  0  0  0
  -10.2576  -10.2192   -5.3911 N   0  0  0  0  0  0  0  0  0  0  0  0
  -10.0528   -5.7388   -1.4560 H   0  0  0  0  0  0  0  0  0  0  0  0
   -8.9379   -4.5815   -0.7727 H   0  0  0  0  0  0  0  0  0  0  0  0
  -10.3455   -5.2001    0.1656 H   0  0  0  0  0  0  0  0  0  0  0  0
   -8.2457   -6.3354    1.0286 H   0  0  0  0  0  0  0  0  0  0  0  0
   -7.8894   -8.4401   -0.0118 H   0  0  0  0  0  0  0  0  0  0  0  0
   -9.6849   -8.8562   -1.7250 H   0  0  0  0  0  0  0  0  0  0  0  0
   -9.7060   -7.3216   -2.3353 H   0  0  0  0  0  0  0  0  0  0  0  0
   -7.4653   -7.6033   -3.2568 H   0  0  0  0  0  0  0  0  0  0  0  0
   -6.1836   -9.6551   -3.1770 H   0  0  0  0  0  0  0  0  0  0  0  0
   -6.5852   -9.3222   -1.4812 H   0  0  0  0  0  0  0  0  0  0  0  0
   -8.6445  -10.6306   -1.8278 H   0  0  0  0  0  0  0  0  0  0  0  0
   -8.7406  -12.0983   -3.5895 H   0  0  0  0  0  0  0  0  0  0  0  0
   -5.9418  -11.5823   -4.1435 H   0  0  0  0  0  0  0  0  0  0  0  0
   -8.2043  -14.2808   -4.6418 H   0  0  0  0  0  0  0  0  0  0  0  0
   -8.4188  -15.5845   -1.6257 H   0  0  0  0  0  0  0  0  0  0  0  0
   -6.9599  -16.1569   -1.0463 H   0  0  0  0  0  0  0  0  0  0  0  0
   -6.9571  -14.4820   -1.4184 H   0  0  0  0  0  0  0  0  0  0  0  0
   -7.0483  -17.5781   -4.3763 H   0  0  0  0  0  0  0  0  0  0  0  0
   -7.1121  -17.7753   -2.6184 H   0  0  0  0  0  0  0  0  0  0  0  0
   -8.5187  -17.1420   -3.4652 H   0  0  0  0  0  0  0  0  0  0  0  0
   -4.9097  -15.8772   -4.0690 H   0  0  0  0  0  0  0  0  0  0  0  0
   -5.1345  -14.5335   -2.9233 H   0  0  0  0  0  0  0  0  0  0  0  0
   -5.0124  -16.1712   -2.3068 H   0  0  0  0  0  0  0  0  0  0  0  0
   -7.2198  -16.0349   -6.3688 H   0  0  0  0  0  0  0  0  0  0  0  0
  -11.2511  -15.0175   -5.8134 H   0  0  0  0  0  0  0  0  0  0  0  0
  -11.4591  -13.9945   -3.9172 H   0  0  0  0  0  0  0  0  0  0  0  0
   -8.4992  -14.1038   -3.1693 H   0  0  0  0  0  0  0  0  0  0  0  0
   -8.3857  -13.3056   -1.4846 H   0  0  0  0  0  0  0  0  0  0  0  0
   -8.7961  -11.8110   -0.1761 H   0  0  0  0  0  0  0  0  0  0  0  0
  -11.8133  -11.5636    0.3146 H   0  0  0  0  0  0  0  0  0  0  0  0
   -9.9716   -9.2454    0.5503 H   0  0  0  0  0  0  0  0  0  0  0  0
  -10.9325   -9.7175   -0.9192 H   0  0  0  0  0  0  0  0  0  0  0  0
  -11.7529   -9.2513    0.5038 H   0  0  0  0  0  0  0  0  0  0  0  0
  -10.3919  -10.5896    2.5123 H   0  0  0  0  0  0  0  0  0  0  0  0
   -8.2783  -11.7895    1.6705 H   0  0  0  0  0  0  0  0  0  0  0  0
   -8.8384  -12.3578    3.2104 H   0  0  0  0  0  0  0  0  0  0  0  0
   -8.4097  -14.1809    1.1226 H   0  0  0  0  0  0  0  0  0  0  0  0
  -12.1985  -16.3834    1.6449 H   0  0  0  0  0  0  0  0  0  0  0  0
  -12.5561  -15.4830    0.1121 H   0  0  0  0  0  0  0  0  0  0  0  0
  -11.7326  -17.0438    0.0844 H   0  0  0  0  0  0  0  0  0  0  0  0
  -11.5214  -12.2879   -2.9305 H   0  0  0  0  0  0  0  0  0  0  0  0
  -11.9740  -13.7483   -1.9522 H   0  0  0  0  0  0  0  0  0  0  0  0
  -12.4064  -12.0956   -1.4537 H   0  0  0  0  0  0  0  0  0  0  0  0
  -10.0391   -9.7456   -6.2433 H   0  0  0  0  0  0  0  0  0  0  0  0
  -10.9821  -10.9285   -5.3711 H   0  0  0  0  0  0  0  0  0  0  0  0
  1  2  1  0  0  0  0
  1 42  1  0  0  0  0
  1 43  1  0  0  0  0
  1 44  1  0  0  0  0
  2  3  2  0  0  0  0
  2 45  1  0  0  0  0
  3  4  1  0  0  0  0
  3 46  1  0  0  0  0
  4  5  1  0  0  0  0
  4 47  1  0  0  0  0
  4 48  1  0  0  0  0
  5  6  1  0  0  0  0
  5 38  1  0  0  0  0
  5 49  1  6  0  0  0
  6  7  1  0  0  0  0
  6 50  1  0  0  0  0
  6 51  1  0  0  0  0
  7  8  2  0  0  0  0
  7 52  1  0  0  0  0
  8  9  1  0  0  0  0
  8 53  1  0  0  0  0
  9 10  1  0  0  0  0
  9 54  1  0  0  0  0
 10 11  2  0  0  0  0
 12 17  1  0  0  0  0
 12 55  1  1  0  0  0
 12 13  1  0  0  0  0
 12 10  1  0  0  0  0
 13 14  1  0  0  0  0
 13 15  1  0  0  0  0
 13 16  1  0  0  0  0
 14 56  1  0  0  0  0
 14 57  1  0  0  0  0
 14 58  1  0  0  0  0
 15 59  1  0  0  0  0
 15 60  1  0  0  0  0
 15 61  1  0  0  0  0
 16 62  1  0  0  0  0
 16 63  1  0  0  0  0
 16 64  1  0  0  0  0
 17 18  1  0  0  0  0
 17 65  1  0  0  0  0
 18 19  2  0  0  0  0
 18 20  1  0  0  0  0
 20 21  2  0  0  0  0
 20 66  1  0  0  0  0
 21 22  1  0  0  0  0
 21 67  1  0  0  0  0
 22 23  2  0  0  0  0
 22 68  1  0  0  0  0
 23 24  1  0  0  0  0
 23 69  1  0  0  0  0
 24 25  2  0  0  0  0
 24 37  1  0  0  0  0
 25 70  1  0  0  0  0
 26 71  1  6  0  0  0
 26 27  1  0  0  0  0
 26 25  1  0  0  0  0
 27 72  1  0  0  0  0
 27 73  1  0  0  0  0
 27 74  1  0  0  0  0
 28 29  1  0  0  0  0
 28 34  1  0  0  0  0
 28 75  1  1  0  0  0
 28 26  1  0  0  0  0
 29 30  1  0  0  0  0
 29 76  1  0  0  0  0
 29 77  1  0  0  0  0
 30 31  2  0  0  0  0
 30 78  1  0  0  0  0
 31 32  1  0  0  0  0
 31 35  1  0  0  0  0
 32 33  2  0  0  0  0
 32 34  1  0  0  0  0
 35 36  1  0  0  0  0
 36 79  1  0  0  0  0
 36 80  1  0  0  0  0
 36 81  1  0  0  0  0
 37 82  1  0  0  0  0
 37 83  1  0  0  0  0
 37 84  1  0  0  0  0
 38 39  1  0  0  0  0
 39 40  2  0  0  0  0
 39 41  1  0  0  0  0
 41 85  1  0  0  0  0
 41 86  1  0  0  0  0
M  END
>  <DRUGBANK_ID>
DB13137

>  <COMMON_NAME>
PM-060184

>  <CAS_NUMBER>
960210-99-5

>  <UNII>
52Y8L60CR7

$$$$
