
 OpenBabel10282417203D

 27 27  0  0  0  0  0  0  0  0999 V2000
    0.4544   -1.1324   -0.6854 C   0  0  0  0  0  0  0  0  0  0  0  0
   -0.7687   -1.1604   -0.1521 C   0  0  0  0  0  0  0  0  0  0  0  0
   -1.3704    0.1297    0.2465 C   0  0  0  0  0  0  0  0  0  0  0  0
   -2.6480    0.2185    0.0388 N   0  0  0  0  0  0  0  0  0  0  0  0
   -3.3735    1.3874    0.0683 N   0  0  0  0  0  0  0  0  0  0  0  0
   -3.0477    2.7002   -0.1363 C   0  0  0  0  0  0  0  0  0  0  0  0
   -3.8247    3.7258    0.0413 N   0  0  0  0  0  0  0  0  0  0  0  0
   -1.8528    2.9961   -0.6538 N   0  0  0  0  0  0  0  0  0  0  0  0
   -0.3838    1.1782    0.6347 C   0  0  0  0  0  0  0  0  0  0  0  0
    0.8422    1.1936    0.1108 C   0  0  0  0  0  0  0  0  0  0  0  0
    1.4289   -0.1065   -0.2439 C   0  0  0  0  0  0  0  0  0  0  0  0
    2.6909   -0.2280    0.0145 N   0  0  0  0  0  0  0  0  0  0  0  0
    3.3858   -1.4021    0.0116 N   0  0  0  0  0  0  0  0  0  0  0  0
    3.0040   -2.6944    0.1990 C   0  0  0  0  0  0  0  0  0  0  0  0
    4.0291   -3.9480   -0.1716 S   0  0  0  0  0  0  0  0  0  0  0  0
    1.7759   -2.9817    0.6672 N   0  0  0  0  0  0  0  0  0  0  0  0
    0.8527   -1.9881   -1.2086 H   0  0  0  0  0  0  0  0  0  0  0  0
   -1.4132   -2.0320   -0.2179 H   0  0  0  0  0  0  0  0  0  0  0  0
   -4.3784    1.2160    0.0794 H   0  0  0  0  0  0  0  0  0  0  0  0
   -4.7671    3.4372    0.2715 H   0  0  0  0  0  0  0  0  0  0  0  0
   -1.3397    2.2346   -1.0684 H   0  0  0  0  0  0  0  0  0  0  0  0
   -1.3331    3.7245   -0.1778 H   0  0  0  0  0  0  0  0  0  0  0  0
   -0.7435    2.0608    1.1392 H   0  0  0  0  0  0  0  0  0  0  0  0
    1.4960    2.0587    0.1727 H   0  0  0  0  0  0  0  0  0  0  0  0
    4.3917   -1.2648   -0.0670 H   0  0  0  0  0  0  0  0  0  0  0  0
    1.2188   -2.2713    1.1180 H   0  0  0  0  0  0  0  0  0  0  0  0
    1.2829   -3.7539    0.2312 H   0  0  0  0  0  0  0  0  0  0  0  0
  1  2  2  0  0  0  0
  1 17  1  0  0  0  0
  2  3  1  0  0  0  0
  2 18  1  0  0  0  0
  3  4  2  0  0  0  0
  3  9  1  0  0  0  0
  4  5  1  0  0  0  0
  5  6  1  0  0  0  0
  5 19  1  0  0  0  0
  6  7  2  0  0  0  0
  6  8  1  0  0  0  0
  7 20  1  0  0  0  0
  8 21  1  0  0  0  0
  8 22  1  0  0  0  0
  9 10  2  0  0  0  0
  9 23  1  0  0  0  0
 10 11  1  0  0  0  0
 10 24  1  0  0  0  0
 11  1  1  0  0  0  0
 11 12  2  0  0  0  0
 12 13  1  0  0  0  0
 13 14  1  0  0  0  0
 13 25  1  0  0  0  0
 14 15  2  0  0  0  0
 14 16  1  0  0  0  0
 16 26  1  0  0  0  0
 16 27  1  0  0  0  0
M  END
>  <DRUGBANK_ID>
DB13697

>  <COMMON_NAME>
Ambazone

>  <CAS_NUMBER>
539-21-9

>  <UNII>
BYK4592A3Q

>  <SYNONYMS>
Ambazona; Ambazone; Ambazonum

$$$$
