PLB
 OpenBabel10282417173D

 38 40  0  0  0  0  0  0  0  0999 V2000
   -2.7036    0.9407   -0.0673 Cl  0  0  0  0  0  0  0  0  0  0  0  0
   -1.2217    0.0777   -0.0226 C   0  0  0  0  0  0  0  0  0  0  0  0
    0.0055    0.7346   -0.0354 C   0  0  0  0  0  0  0  0  0  0  0  0
    1.2192    0.0102   -0.0136 C   0  0  0  0  0  0  0  0  0  0  0  0
    2.6543    0.9741   -0.0571 Cl  0  0  0  0  0  0  0  0  0  0  0  0
   -1.2533   -1.2876    0.1258 C   0  0  0  0  0  0  0  0  0  0  0  0
   -0.0518   -1.9567    0.3343 C   0  0  0  0  0  0  0  0  0  0  0  0
    1.2102   -1.3884    0.1049 C   0  0  0  0  0  0  0  0  0  0  0  0
    2.4623   -2.2514    0.0223 C   0  0  0  0  0  0  0  0  0  0  0  0
    3.5800   -1.7370    0.0562 O   0  0  0  0  0  0  0  0  0  0  0  0
    2.4397   -3.6446   -0.0414 N   0  0  0  0  0  0  0  0  0  0  0  0
    1.3605   -4.5372   -0.1602 C   0  0  0  0  0  0  0  0  0  0  0  0
    0.4114   -4.2756   -1.1556 C   0  0  0  0  0  0  0  0  0  0  0  0
   -0.8303   -4.9010   -1.1352 C   0  0  0  0  0  0  0  0  0  0  0  0
   -1.0768   -5.9598   -0.2686 C   0  0  0  0  0  0  0  0  0  0  0  0
   -0.0523   -6.3525    0.6190 C   0  0  0  0  0  0  0  0  0  0  0  0
    1.1490   -5.6040    0.7358 C   0  0  0  0  0  0  0  0  0  0  0  0
    2.0192   -5.8872    1.9304 C   0  0  0  0  0  0  0  0  0  0  0  0
    1.8367   -6.7698    2.7393 O   0  0  0  0  0  0  0  0  0  0  0  0
    3.0406   -5.0153    2.0868 O   0  0  0  0  0  0  0  0  0  0  0  0
   -2.2977   -6.6065   -0.1695 O   0  0  0  0  0  0  0  0  0  0  0  0
   -3.3390   -6.2017   -1.0097 C   0  0  0  0  0  0  0  0  0  0  0  0
   -4.4900   -5.8470   -0.4106 N   0  0  0  0  0  0  0  0  0  0  0  0
   -5.4841   -5.4389   -1.2298 C   0  0  0  0  0  0  0  0  0  0  0  0
   -5.3664   -5.3636   -2.5984 C   0  0  0  0  0  0  0  0  0  0  0  0
   -4.1543   -5.7627   -3.1062 C   0  0  0  0  0  0  0  0  0  0  0  0
   -3.1343   -6.2028   -2.3427 N   0  0  0  0  0  0  0  0  0  0  0  0
    0.0218    1.8206   -0.0562 H   0  0  0  0  0  0  0  0  0  0  0  0
   -2.1848   -1.8496    0.1364 H   0  0  0  0  0  0  0  0  0  0  0  0
   -0.1651   -2.9688    0.6872 H   0  0  0  0  0  0  0  0  0  0  0  0
    3.3197   -4.0437    0.2822 H   0  0  0  0  0  0  0  0  0  0  0  0
    0.5527   -3.4470   -1.8467 H   0  0  0  0  0  0  0  0  0  0  0  0
   -1.5980   -4.4865   -1.7810 H   0  0  0  0  0  0  0  0  0  0  0  0
   -0.2128   -7.2145    1.2664 H   0  0  0  0  0  0  0  0  0  0  0  0
    3.4900   -5.2693    2.9236 H   0  0  0  0  0  0  0  0  0  0  0  0
   -6.4140   -5.1613   -0.7390 H   0  0  0  0  0  0  0  0  0  0  0  0
   -6.1737   -5.0227   -3.2333 H   0  0  0  0  0  0  0  0  0  0  0  0
   -3.9588   -5.7371   -4.1750 H   0  0  0  0  0  0  0  0  0  0  0  0
  1  2  1  0  0  0  0
  2  3  2  0  0  0  0
  2  6  1  0  0  0  0
  3  4  1  0  0  0  0
  3 28  1  0  0  0  0
  4  5  1  0  0  0  0
  4  8  2  0  0  0  0
  6  7  2  0  0  0  0
  6 29  1  0  0  0  0
  7  8  1  0  0  0  0
  7 30  1  0  0  0  0
  8  9  1  0  0  0  0
  9 10  2  0  0  0  0
  9 11  1  0  0  0  0
 11 12  1  0  0  0  0
 11 31  1  0  0  0  0
 12 13  1  0  0  0  0
 12 17  2  0  0  0  0
 13 14  2  0  0  0  0
 13 32  1  0  0  0  0
 14 15  1  0  0  0  0
 14 33  1  0  0  0  0
 15 16  2  0  0  0  0
 15 21  1  0  0  0  0
 16 17  1  0  0  0  0
 16 34  1  0  0  0  0
 17 18  1  0  0  0  0
 18 19  2  0  0  0  0
 18 20  1  0  0  0  0
 20 35  1  0  0  0  0
 21 22  1  0  0  0  0
 22 23  1  0  0  0  0
 22 27  2  0  0  0  0
 23 24  2  0  0  0  0
 24 25  1  0  0  0  0
 24 36  1  0  0  0  0
 25 26  2  0  0  0  0
 25 37  1  0  0  0  0
 26 27  1  0  0  0  0
 26 38  1  0  0  0  0
M  END
>  <DRUGBANK_ID>
DB08402

>  <COMMON_NAME>
2-[(2,4-DICHLOROBENZOYL)AMINO]-5-(PYRIMIDIN-2-YLOXY)BENZOIC ACID

$$$$
