
 OpenBabel10282417113D

  4  3  0  0  0  0  0  0  0  0999 V2000
    0.9479   -0.0081   -0.0850 Al  0  0  0  0  0  0  0  0  0  0  0  0
    0.1879   -1.3208   -0.1838 H   0  0  0  0  0  0  0  0  0  0  0  0
    0.1879    1.3045    0.0138 H   0  0  0  0  0  0  0  0  0  0  0  0
    2.4679   -0.0081   -0.0850 H   0  0  0  0  0  0  0  0  0  0  0  0
  1  2  1  0  0  0  0
  1  3  1  0  0  0  0
  1  4  1  0  0  0  0
M  END
>  <DRUGBANK_ID>
DB01370

>  <SECONDARY_ACCESSION_NUMBERS>
DB11314

>  <COMMON_NAME>
Aluminium

>  <CAS_NUMBER>
7429-90-5

>  <UNII>
CPD4NFA903

>  <SYNONYMS>
Al; Aluminio; Aluminium; Aluminium atom; Aluminium metallicum; Aluminum; Aluminum metal; Aluminum powder; Metallic aluminum

$$$$
