
 OpenBabel10282417123D

 12 11  0  0  0  0  0  0  0  0999 V2000
    1.0070   -0.0210   -0.0681 C   0  0  0  0  0  0  0  0  0  0  0  0
    0.4853    1.1617    0.6827 C   0  0  0  0  0  0  0  0  0  0  0  0
   -0.2903    2.1213    0.1477 C   0  0  0  0  0  0  0  0  0  0  0  0
   -0.7490    3.2488    0.9888 C   0  0  0  0  0  0  0  0  0  0  0  0
   -1.5171    4.1328    0.3217 O   0  0  0  0  0  0  0  0  0  0  0  0
   -0.4690    3.3801    2.1698 O   0  0  0  0  0  0  0  0  0  0  0  0
    0.6832   -0.0179   -1.1132 H   0  0  0  0  0  0  0  0  0  0  0  0
    0.6546   -0.9483    0.3953 H   0  0  0  0  0  0  0  0  0  0  0  0
    2.1017   -0.0271   -0.0503 H   0  0  0  0  0  0  0  0  0  0  0  0
    0.7717    1.2202    1.7337 H   0  0  0  0  0  0  0  0  0  0  0  0
   -0.5846    2.0808   -0.8919 H   0  0  0  0  0  0  0  0  0  0  0  0
   -1.6901    3.9499   -0.6183 H   0  0  0  0  0  0  0  0  0  0  0  0
  1  2  1  0  0  0  0
  1  7  1  0  0  0  0
  1  8  1  0  0  0  0
  1  9  1  0  0  0  0
  2  3  2  0  0  0  0
  2 10  1  0  0  0  0
  3  4  1  0  0  0  0
  3 11  1  0  0  0  0
  4  5  1  0  0  0  0
  4  6  2  0  0  0  0
  5 12  1  0  0  0  0
M  END
>  <DRUGBANK_ID>
DB02074

>  <SECONDARY_ACCESSION_NUMBERS>
EXPT00670

>  <COMMON_NAME>
Butenoic Acid

>  <CAS_NUMBER>
107-93-7

>  <UNII>
YW5WZZ4O5Q

$$$$
