
 OpenBabel10282417113D

 45 46  0  0  0  0  0  0  0  0999 V2000
    0.9958   -1.3948    0.0151 C   0  0  0  0  0  0  0  0  0  0  0  0
    2.1887   -0.6538   -0.0171 C   0  0  0  0  0  0  0  0  0  0  0  0
    2.1305    0.7376   -0.0264 C   0  0  0  0  0  0  0  0  0  0  0  0
    0.9049    1.4170    0.0005 C   0  0  0  0  0  0  0  0  0  0  0  0
   -0.2709    0.6586    0.0075 C   0  0  0  0  0  0  0  0  0  0  0  0
   -0.2612   -0.7332    0.0098 C   0  0  0  0  0  0  0  0  0  0  0  0
   -1.6389   -1.1616   -0.0127 C   0  0  0  0  0  0  0  0  0  0  0  0
   -1.5904    1.0545    0.0043 N   0  0  0  0  0  0  0  0  0  0  0  0
   -2.4217   -0.0313   -0.0403 C   0  0  0  0  0  0  0  0  0  0  0  0
   -2.0778   -2.5357   -0.0261 C   0  0  0  0  0  0  0  0  0  0  0  0
   -3.3128   -2.9257   -0.0737 N   0  0  0  0  0  0  0  0  0  0  0  0
   -3.5435   -4.3122   -0.0811 N   0  0  0  0  0  0  0  0  0  0  0  0
   -2.6162   -5.3406   -0.0325 C   0  0  0  0  0  0  0  0  0  0  0  0
   -3.0988   -6.6148   -0.0432 N   0  0  0  0  0  0  0  0  0  0  0  0
   -2.2514   -7.7988    0.0022 C   0  0  0  0  0  0  0  0  0  0  0  0
   -2.5300   -8.6232    1.2499 C   0  0  0  0  0  0  0  0  0  0  0  0
   -3.8928   -9.3047    1.1889 C   0  0  0  0  0  0  0  0  0  0  0  0
   -4.0447  -10.2087   -0.0380 C   0  0  0  0  0  0  0  0  0  0  0  0
   -3.0152  -11.3296   -0.0459 C   0  0  0  0  0  0  0  0  0  0  0  0
   -1.3540   -5.1124    0.0248 N   0  0  0  0  0  0  0  0  0  0  0  0
    3.3434   -1.3957   -0.0460 O   0  0  0  0  0  0  0  0  0  0  0  0
    4.5682   -0.6682   -0.1017 C   0  0  0  0  0  0  0  0  0  0  0  0
    1.0457   -2.4820    0.0242 H   0  0  0  0  0  0  0  0  0  0  0  0
    3.0328    1.3396   -0.0595 H   0  0  0  0  0  0  0  0  0  0  0  0
    0.8816    2.5011   -0.0022 H   0  0  0  0  0  0  0  0  0  0  0  0
   -1.8971    2.0158    0.0079 H   0  0  0  0  0  0  0  0  0  0  0  0
   -3.4965    0.0770   -0.0860 H   0  0  0  0  0  0  0  0  0  0  0  0
   -1.2019   -3.1734    0.0089 H   0  0  0  0  0  0  0  0  0  0  0  0
   -4.5259   -4.5632   -0.1185 H   0  0  0  0  0  0  0  0  0  0  0  0
   -4.0939   -6.7794   -0.1230 H   0  0  0  0  0  0  0  0  0  0  0  0
   -2.3594   -8.3624   -0.9273 H   0  0  0  0  0  0  0  0  0  0  0  0
   -1.1847   -7.5801    0.0333 H   0  0  0  0  0  0  0  0  0  0  0  0
   -1.7380   -9.3749    1.3576 H   0  0  0  0  0  0  0  0  0  0  0  0
   -2.4581   -7.9977    2.1480 H   0  0  0  0  0  0  0  0  0  0  0  0
   -4.0394   -9.8930    2.1016 H   0  0  0  0  0  0  0  0  0  0  0  0
   -4.6801   -8.5421    1.1800 H   0  0  0  0  0  0  0  0  0  0  0  0
   -5.0532  -10.6320   -0.0501 H   0  0  0  0  0  0  0  0  0  0  0  0
   -3.9597   -9.6290   -0.9638 H   0  0  0  0  0  0  0  0  0  0  0  0
   -3.1275  -11.9513    0.8472 H   0  0  0  0  0  0  0  0  0  0  0  0
   -3.1387  -11.9575   -0.9311 H   0  0  0  0  0  0  0  0  0  0  0  0
   -1.9891  -10.9481   -0.0665 H   0  0  0  0  0  0  0  0  0  0  0  0
   -0.7769   -5.9353    0.0553 H   0  0  0  0  0  0  0  0  0  0  0  0
    4.6303   -0.0667   -1.0155 H   0  0  0  0  0  0  0  0  0  0  0  0
    4.6960   -0.0438    0.7894 H   0  0  0  0  0  0  0  0  0  0  0  0
    5.3953   -1.3849   -0.1229 H   0  0  0  0  0  0  0  0  0  0  0  0
  1  2  2  0  0  0  0
  1  6  1  0  0  0  0
  1 23  1  0  0  0  0
  2  3  1  0  0  0  0
  2 21  1  0  0  0  0
  3  4  2  0  0  0  0
  3 24  1  0  0  0  0
  4  5  1  0  0  0  0
  4 25  1  0  0  0  0
  5  8  1  0  0  0  0
  6  5  2  0  0  0  0
  7  6  1  0  0  0  0
  7  9  2  0  0  0  0
  8  9  1  0  0  0  0
  8 26  1  0  0  0  0
  9 27  1  0  0  0  0
 10 11  2  0  0  0  0
 10  7  1  0  0  0  0
 10 28  1  0  0  0  0
 11 12  1  0  0  0  0
 12 13  1  0  0  0  0
 12 29  1  0  0  0  0
 13 14  1  0  0  0  0
 13 20  2  0  0  0  0
 14 15  1  0  0  0  0
 14 30  1  0  0  0  0
 15 16  1  0  0  0  0
 15 31  1  0  0  0  0
 15 32  1  0  0  0  0
 16 17  1  0  0  0  0
 16 33  1  0  0  0  0
 16 34  1  0  0  0  0
 17 18  1  0  0  0  0
 17 35  1  0  0  0  0
 17 36  1  0  0  0  0
 18 19  1  0  0  0  0
 18 37  1  0  0  0  0
 18 38  1  0  0  0  0
 19 39  1  0  0  0  0
 19 40  1  0  0  0  0
 19 41  1  0  0  0  0
 20 42  1  0  0  0  0
 21 22  1  0  0  0  0
 22 43  1  0  0  0  0
 22 44  1  0  0  0  0
 22 45  1  0  0  0  0
M  END
>  <DRUGBANK_ID>
DB01079

>  <SECONDARY_ACCESSION_NUMBERS>
APRD00096

>  <COMMON_NAME>
Tegaserod

>  <CAS_NUMBER>
145158-71-0

>  <UNII>
458VC51857

>  <SYNONYMS>
1-(((5-Methoxyindol-3-yl)methylene)amino)-3-pentylguanidine; Tegaserod; Tégasérod; Tegaserodum

$$$$
