
 OpenBabel10282417153D

 29 28  0  0  0  0  0  0  0  0999 V2000
    0.9533   -0.0727   -0.0078 C   0  0  0  0  0  0  0  0  0  0  0  0
    0.4909   -1.3105    0.7757 C   0  0  3  0  0  0  0  0  0  0  0  0
    0.9579   -1.1825    2.2442 C   0  0  0  0  0  0  0  0  0  0  0  0
    0.4740    0.0671    3.0067 C   0  0  0  0  0  0  0  0  0  0  0  0
   -1.0226    0.1951    3.1372 C   0  0  0  0  0  0  0  0  0  0  0  0
   -1.7388    0.0777    4.2611 C   0  0  0  0  0  0  0  0  0  0  0  0
   -3.2435    0.0460    4.2216 C   0  0  0  0  0  0  0  0  0  0  0  0
   -1.0599   -0.0041    5.5914 C   0  0  0  0  0  0  0  0  0  0  0  0
   -0.9494   -1.5057    0.5653 N   0  0  0  0  0  0  0  0  0  0  0  0
   -1.5370   -2.5497    1.3962 C   0  0  0  0  0  0  0  0  0  0  0  0
    0.5573    0.8575    0.4142 H   0  0  0  0  0  0  0  0  0  0  0  0
    0.6349   -0.1088   -1.0531 H   0  0  0  0  0  0  0  0  0  0  0  0
    2.0472   -0.0033    0.0112 H   0  0  0  0  0  0  0  0  0  0  0  0
    0.9902   -2.1819    0.3337 H   0  0  0  0  0  0  0  0  0  0  0  0
    0.7067   -2.0893    2.8094 H   0  0  0  0  0  0  0  0  0  0  0  0
    2.0571   -1.1676    2.2453 H   0  0  0  0  0  0  0  0  0  0  0  0
    0.9513    0.0391    3.9909 H   0  0  0  0  0  0  0  0  0  0  0  0
    0.8549    0.9745    2.5310 H   0  0  0  0  0  0  0  0  0  0  0  0
   -1.5794    0.3985    2.2291 H   0  0  0  0  0  0  0  0  0  0  0  0
   -3.6216   -0.8552    4.7163 H   0  0  0  0  0  0  0  0  0  0  0  0
   -3.6631    0.9271    4.7125 H   0  0  0  0  0  0  0  0  0  0  0  0
   -3.6259    0.0215    3.1928 H   0  0  0  0  0  0  0  0  0  0  0  0
   -0.4476   -0.9086    5.6604 H   0  0  0  0  0  0  0  0  0  0  0  0
   -0.4103    0.8723    5.7091 H   0  0  0  0  0  0  0  0  0  0  0  0
   -1.7719    0.0044    6.4177 H   0  0  0  0  0  0  0  0  0  0  0  0
   -1.4484   -0.6320    0.6952 H   0  0  0  0  0  0  0  0  0  0  0  0
   -1.2911   -2.4764    2.4594 H   0  0  0  0  0  0  0  0  0  0  0  0
   -2.6288   -2.4917    1.3435 H   0  0  0  0  0  0  0  0  0  0  0  0
   -1.2268   -3.5328    1.0369 H   0  0  0  0  0  0  0  0  0  0  0  0
  1  2  1  0  0  0  0
  1 11  1  0  0  0  0
  1 12  1  0  0  0  0
  1 13  1  0  0  0  0
  2  3  1  0  0  0  0
  2  9  1  0  0  0  0
  2 14  1  0  0  0  0
  3  4  1  0  0  0  0
  3 15  1  0  0  0  0
  3 16  1  0  0  0  0
  4  5  1  0  0  0  0
  4 17  1  0  0  0  0
  4 18  1  0  0  0  0
  5  6  2  0  0  0  0
  5 19  1  0  0  0  0
  6  7  1  0  0  0  0
  6  8  1  0  0  0  0
  7 20  1  0  0  0  0
  7 21  1  0  0  0  0
  7 22  1  0  0  0  0
  8 23  1  0  0  0  0
  8 24  1  0  0  0  0
  8 25  1  0  0  0  0
  9 10  1  0  0  0  0
  9 26  1  0  0  0  0
 10 27  1  0  0  0  0
 10 28  1  0  0  0  0
 10 29  1  0  0  0  0
M  END
>  <DRUGBANK_ID>
DB06706

>  <COMMON_NAME>
Isometheptene

>  <CAS_NUMBER>
503-01-5

>  <UNII>
Y7L24THH6T

>  <SYNONYMS>
Isometepteno; Isometheptene; Isometheptenum

$$$$
