
 OpenBabel10282417133D

 26 25  0  0  1  0  0  0  0  0999 V2000
    1.3174   -0.1115   -0.2309 C   0  0  0  0  0  0  0  0  0  0  0  0
    0.7766   -0.3747   -1.6452 C   0  0  0  0  0  0  0  0  0  0  0  0
    0.5023    0.4758    2.7685 C   0  0  0  0  0  0  0  0  0  0  0  0
    1.1404   -1.2556    0.7890 C   0  0  1  0  0  0  0  0  0  0  0  0
    1.1824   -0.8411    2.2987 C   0  0  2  0  0  0  0  0  0  0  0  0
    1.2316   -1.5946   -2.1963 O   0  0  0  0  0  0  0  0  0  0  0  0
   -0.0626   -1.9656    0.5318 O   0  0  0  0  0  0  0  0  0  0  0  0
    0.6199   -1.9271    3.0617 O   0  0  0  0  0  0  0  0  0  0  0  0
   -2.0354   -1.2742    1.7636 O   0  0  0  0  0  0  0  0  0  0  0  0
   -2.8251    1.0230    1.6028 O   0  0  0  0  0  0  0  0  0  0  0  0
   -2.0311   -0.1175   -0.2860 O   0  0  0  0  0  0  0  0  0  0  0  0
   -0.9383    0.4691    2.7487 O   0  0  0  0  0  0  0  0  0  0  0  0
   -1.5150    0.1596    1.1473 P   0  0  0  0  0  0  0  0  0  0  0  0
    1.9259   -2.0000    0.6150 H   0  0  0  0  0  0  0  0  0  0  0  0
    2.2423   -0.7711    2.5706 H   0  0  0  0  0  0  0  0  0  0  0  0
    0.8378    0.8083    0.1167 H   0  0  0  0  0  0  0  0  0  0  0  0
    2.3863    0.1196   -0.2928 H   0  0  0  0  0  0  0  0  0  0  0  0
   -0.3115   -0.3955   -1.6732 H   0  0  0  0  0  0  0  0  0  0  0  0
    1.0718    0.4434   -2.3108 H   0  0  0  0  0  0  0  0  0  0  0  0
    0.7744    0.6389    3.8173 H   0  0  0  0  0  0  0  0  0  0  0  0
    0.8644    1.3402    2.2060 H   0  0  0  0  0  0  0  0  0  0  0  0
    2.1763   -1.6886   -2.0046 H   0  0  0  0  0  0  0  0  0  0  0  0
   -0.3474   -2.3472    1.3955 H   0  0  0  0  0  0  0  0  0  0  0  0
   -0.3024   -1.6874    3.2999 H   0  0  0  0  0  0  0  0  0  0  0  0
   -2.3048   -1.7899    0.9706 H   0  0  0  0  0  0  0  0  0  0  0  0
   -2.7793    1.1889    2.5610 H   0  0  0  0  0  0  0  0  0  0  0  0
  1 16  1  0  0  0  0
  1 17  1  0  0  0  0
  2  1  1  0  0  0  0
  2 18  1  0  0  0  0
  2 19  1  0  0  0  0
  3 20  1  0  0  0  0
  3 21  1  0  0  0  0
  4  1  1  0  0  0  0
  4  7  1  0  0  0  0
  4 14  1  6  0  0  0
  5  3  1  0  0  0  0
  5  4  1  0  0  0  0
  5  8  1  0  0  0  0
  5 15  1  1  0  0  0
  6  2  1  0  0  0  0
  6 22  1  0  0  0  0
  7 23  1  0  0  0  0
  8 24  1  0  0  0  0
  9 25  1  0  0  0  0
 10 26  1  0  0  0  0
 12  3  1  0  0  0  0
 13  9  1  0  0  0  0
 13 10  1  0  0  0  0
 13 11  2  0  0  0  0
 13 12  1  0  0  0  0
M  END
>  <DRUGBANK_ID>
DB04087

>  <SECONDARY_ACCESSION_NUMBERS>
EXPT01769

>  <COMMON_NAME>
Open Form of 2'-Deoxy-Ribofuranose-5'-Phosphate

$$$$
