
 OpenBabel10282417203D

 50 51  0  0  0  0  0  0  0  0999 V2000
    1.4610   -0.1997   -0.0085 C   0  0  0  0  0  0  0  0  0  0  0  0
    0.5757   -1.3123   -0.0235 C   0  0  0  0  0  0  0  0  0  0  0  0
    0.8886    1.0904   -0.0688 C   0  0  0  0  0  0  0  0  0  0  0  0
    2.9528   -0.3005    0.1664 C   0  0  0  0  0  0  0  0  0  0  0  0
   -0.8198   -1.0816   -0.0345 C   0  0  0  0  0  0  0  0  0  0  0  0
    0.7993   -2.6716   -0.0488 O   0  0  0  0  0  0  0  0  0  0  0  0
   -0.4980    1.2843    0.0502 C   0  0  0  0  0  0  0  0  0  0  0  0
    3.7944    0.7709    0.2777 N   0  0  0  0  0  0  0  0  0  0  0  0
    3.5455   -1.3712    0.2747 O   0  0  0  0  0  0  0  0  0  0  0  0
   -1.3613    0.2004    0.0042 C   0  0  0  0  0  0  0  0  0  0  0  0
    2.1250   -3.1553   -0.0763 C   0  0  0  0  0  0  0  0  0  0  0  0
   -1.1608    2.9137    0.3754 S   0  0  0  0  0  0  0  0  0  0  0  0
    5.2214    0.4313    0.3966 C   0  0  0  0  0  0  0  0  0  0  0  0
   -0.4615    3.4267    1.9424 C   0  0  0  0  0  0  0  0  0  0  0  0
   -0.6670    3.7847   -0.6715 O   0  0  0  0  0  0  0  0  0  0  0  0
   -2.5887    2.7573    0.5938 O   0  0  0  0  0  0  0  0  0  0  0  0
    5.9913    1.0052   -0.7837 C   0  0  3  0  0  0  0  0  0  0  0  0
    1.0466    3.5614    1.9303 C   0  0  0  0  0  0  0  0  0  0  0  0
    6.1440    2.4728   -0.6827 N   0  0  0  0  0  0  0  0  0  0  0  0
    7.3941    0.4514   -1.0283 C   0  0  0  0  0  0  0  0  0  0  0  0
    7.2359    2.8100   -1.6078 C   0  0  0  0  0  0  0  0  0  0  0  0
    6.4251    2.9381    0.6934 C   0  0  0  0  0  0  0  0  0  0  0  0
    8.0008    1.5217   -1.9197 C   0  0  0  0  0  0  0  0  0  0  0  0
    7.6508    2.3124    1.3662 C   0  0  0  0  0  0  0  0  0  0  0  0
    1.5189    1.9650   -0.1856 H   0  0  0  0  0  0  0  0  0  0  0  0
   -1.4994   -1.9348   -0.0426 H   0  0  0  0  0  0  0  0  0  0  0  0
    3.5330    1.7402    0.1582 H   0  0  0  0  0  0  0  0  0  0  0  0
   -2.4418    0.3331   -0.0011 H   0  0  0  0  0  0  0  0  0  0  0  0
    2.6448   -2.7413   -0.9517 H   0  0  0  0  0  0  0  0  0  0  0  0
    2.5642   -2.9823    0.9147 H   0  0  0  0  0  0  0  0  0  0  0  0
    2.1919   -4.2338   -0.2050 H   0  0  0  0  0  0  0  0  0  0  0  0
    5.5165    0.7544    1.3949 H   0  0  0  0  0  0  0  0  0  0  0  0
    5.4398   -0.6419    0.4267 H   0  0  0  0  0  0  0  0  0  0  0  0
   -0.9068    4.4008    2.1763 H   0  0  0  0  0  0  0  0  0  0  0  0
   -0.7868    2.7200    2.7126 H   0  0  0  0  0  0  0  0  0  0  0  0
    5.4159    0.7732   -1.6951 H   0  0  0  0  0  0  0  0  0  0  0  0
    1.3774    4.2124    1.1151 H   0  0  0  0  0  0  0  0  0  0  0  0
    1.4174    3.9667    2.8745 H   0  0  0  0  0  0  0  0  0  0  0  0
    1.5302    2.5913    1.8189 H   0  0  0  0  0  0  0  0  0  0  0  0
    8.0001    0.3299   -0.1294 H   0  0  0  0  0  0  0  0  0  0  0  0
    7.3929   -0.5369   -1.4993 H   0  0  0  0  0  0  0  0  0  0  0  0
    7.8947    3.5804   -1.1938 H   0  0  0  0  0  0  0  0  0  0  0  0
    6.8193    3.2276   -2.5315 H   0  0  0  0  0  0  0  0  0  0  0  0
    6.5224    4.0268    0.6872 H   0  0  0  0  0  0  0  0  0  0  0  0
    5.5413    2.7694    1.3238 H   0  0  0  0  0  0  0  0  0  0  0  0
    9.0736    1.6378   -1.7387 H   0  0  0  0  0  0  0  0  0  0  0  0
    7.8555    1.2438   -2.9690 H   0  0  0  0  0  0  0  0  0  0  0  0
    8.5508    2.4714    0.7657 H   0  0  0  0  0  0  0  0  0  0  0  0
    7.8172    2.7252    2.3597 H   0  0  0  0  0  0  0  0  0  0  0  0
    7.5372    1.2366    1.5286 H   0  0  0  0  0  0  0  0  0  0  0  0
  1  2  1  0  0  0  0
  1  3  2  0  0  0  0
  1  4  1  0  0  0  0
  2  5  2  0  0  0  0
  2  6  1  0  0  0  0
  3  7  1  0  0  0  0
  3 25  1  0  0  0  0
  4  8  1  0  0  0  0
  4  9  2  0  0  0  0
  5 10  1  0  0  0  0
  5 26  1  0  0  0  0
  6 11  1  0  0  0  0
  7 12  1  0  0  0  0
  7 10  2  0  0  0  0
  8 13  1  0  0  0  0
  8 27  1  0  0  0  0
 10 28  1  0  0  0  0
 11 29  1  0  0  0  0
 11 30  1  0  0  0  0
 11 31  1  0  0  0  0
 12 14  1  0  0  0  0
 12 15  2  0  0  0  0
 12 16  2  0  0  0  0
 13 17  1  0  0  0  0
 13 32  1  0  0  0  0
 13 33  1  0  0  0  0
 14 18  1  0  0  0  0
 14 34  1  0  0  0  0
 14 35  1  0  0  0  0
 17 19  1  0  0  0  0
 17 20  1  0  0  0  0
 17 36  1  0  0  0  0
 18 37  1  0  0  0  0
 18 38  1  0  0  0  0
 18 39  1  0  0  0  0
 19 21  1  0  0  0  0
 19 22  1  0  0  0  0
 20 23  1  0  0  0  0
 20 40  1  0  0  0  0
 20 41  1  0  0  0  0
 21 23  1  0  0  0  0
 21 42  1  0  0  0  0
 21 43  1  0  0  0  0
 22 24  1  0  0  0  0
 22 44  1  0  0  0  0
 22 45  1  0  0  0  0
 23 46  1  0  0  0  0
 23 47  1  0  0  0  0
 24 48  1  0  0  0  0
 24 49  1  0  0  0  0
 24 50  1  0  0  0  0
M  END
>  <DRUGBANK_ID>
DB13273

>  <COMMON_NAME>
Sultopride

>  <CAS_NUMBER>
53583-79-2

>  <UNII>
AA0G3TW31W

>  <SYNONYMS>
Sultopride; Sultopridum; Sultroprida

$$$$
