
 OpenBabel10282417213D

 23 23  0  0  0  0  0  0  0  0999 V2000
    1.1392   -0.4855   -2.5489 C   0  0  0  0  0  0  0  0  0  0  0  0
    1.1307   -1.8870    1.3430 C   0  0  0  0  0  0  0  0  0  0  0  0
    1.8535    0.1627   -1.3575 C   0  0  2  0  0  0  0  0  0  0  0  0
    2.3456   -1.0527    1.6962 C   0  0  1  0  0  0  0  0  0  0  0  0
    1.8895    0.3296    1.2431 C   0  0  2  0  0  0  0  0  0  0  0  0
    1.0825    0.0077   -0.0299 C   0  0  2  0  0  0  0  0  0  0  0  0
    0.0468    0.3354   -2.9621 O   0  0  0  0  0  0  0  0  0  0  0  0
    2.0504    1.5530   -1.6589 O   0  0  0  0  0  0  0  0  0  0  0  0
    2.6790   -1.1376    3.0721 O   0  0  0  0  0  0  0  0  0  0  0  0
    2.9508    1.2591    1.1160 O   0  0  0  0  0  0  0  0  0  0  0  0
    0.6174   -1.3531    0.1194 O   0  0  0  0  0  0  0  0  0  0  0  0
    2.8419   -0.3012   -1.2681 H   0  0  0  0  0  0  0  0  0  0  0  0
    3.2216   -1.3719    1.1197 H   0  0  0  0  0  0  0  0  0  0  0  0
    1.2137    0.7462    2.0004 H   0  0  0  0  0  0  0  0  0  0  0  0
    0.2022    0.6611   -0.0552 H   0  0  0  0  0  0  0  0  0  0  0  0
    0.7705   -1.4897   -2.3209 H   0  0  0  0  0  0  0  0  0  0  0  0
    1.8248   -0.5721   -3.3993 H   0  0  0  0  0  0  0  0  0  0  0  0
    1.3717   -2.9458    1.2143 H   0  0  0  0  0  0  0  0  0  0  0  0
    0.3485   -1.8140    2.1079 H   0  0  0  0  0  0  0  0  0  0  0  0
    0.4525    1.1235   -3.3677 H   0  0  0  0  0  0  0  0  0  0  0  0
    1.1713    1.9755   -1.5952 H   0  0  0  0  0  0  0  0  0  0  0  0
    1.9452   -0.7645    3.5954 H   0  0  0  0  0  0  0  0  0  0  0  0
    3.5257    1.0054    0.3704 H   0  0  0  0  0  0  0  0  0  0  0  0
  1 16  1  0  0  0  0
  1 17  1  0  0  0  0
  2 18  1  0  0  0  0
  2 19  1  0  0  0  0
  3  8  1  0  0  0  0
  3 12  1  1  0  0  0
  3  1  1  0  0  0  0
  4  2  1  0  0  0  0
  4  9  1  0  0  0  0
  4 13  1  6  0  0  0
  5  4  1  0  0  0  0
  5  6  1  0  0  0  0
  5 10  1  0  0  0  0
  5 14  1  1  0  0  0
  6 11  1  0  0  0  0
  6  3  1  0  0  0  0
  6 15  1  6  0  0  0
  7  1  1  0  0  0  0
  7 20  1  0  0  0  0
  8 21  1  0  0  0  0
  9 22  1  0  0  0  0
 10 23  1  0  0  0  0
 11  2  1  0  0  0  0
M  END
>  <DRUGBANK_ID>
DB14474

>  <COMMON_NAME>
Sorbitan

>  <CAS_NUMBER>
12441-09-7

>  <UNII>
AV0YTZ4E6J

>  <SYNONYMS>
1,4-Sorbitan

$$$$
