AB3
 OpenBabel10282417143D

 38 40  0  0  0  0  0  0  0  0999 V2000
    0.9995   -0.0712    0.0179 C   0  0  0  0  0  0  0  0  0  0  0  0
    0.4947   -0.7524   -1.2742 C   0  0  0  0  0  0  0  0  0  0  0  0
    0.9742   -2.2180   -1.2329 C   0  0  0  0  0  0  0  0  0  0  0  0
   -1.0475   -0.7554   -1.2507 C   0  0  0  0  0  0  0  0  0  0  0  0
    0.9636   -0.0161   -2.4673 N   0  0  0  0  0  0  0  0  0  0  0  0
    0.7831    1.3365   -2.5156 N   0  0  0  0  0  0  0  0  0  0  0  0
    1.5101   -0.5152   -3.6320 C   0  0  0  0  0  0  0  0  0  0  0  0
    1.8445   -1.7837   -3.9243 N   0  0  0  0  0  0  0  0  0  0  0  0
    2.3312   -1.9072   -5.1705 C   0  0  0  0  0  0  0  0  0  0  0  0
    2.4982   -0.9429   -6.0948 N   0  0  0  0  0  0  0  0  0  0  0  0
    2.1532    0.3165   -5.7695 C   0  0  0  0  0  0  0  0  0  0  0  0
    2.3127    1.2856   -6.7353 N   0  0  0  0  0  0  0  0  0  0  0  0
    1.6388    0.5649   -4.4908 C   0  0  0  0  0  0  0  0  0  0  0  0
    1.1569    1.6806   -3.7573 C   0  0  0  0  0  0  0  0  0  0  0  0
    1.0568    3.0500   -4.2533 C   0  0  0  0  0  0  0  0  0  0  0  0
    1.7920    4.0834   -3.6611 C   0  0  0  0  0  0  0  0  0  0  0  0
    0.3054    3.3079   -5.4127 C   0  0  0  0  0  0  0  0  0  0  0  0
    0.3207    4.5715   -6.0010 C   0  0  0  0  0  0  0  0  0  0  0  0
    1.0551    5.5957   -5.4107 C   0  0  0  0  0  0  0  0  0  0  0  0
    1.7774    5.3489   -4.2463 C   0  0  0  0  0  0  0  0  0  0  0  0
    2.4840    6.3911   -3.7209 O   0  0  0  0  0  0  0  0  0  0  0  0
    0.6476   -0.6078    0.9080 H   0  0  0  0  0  0  0  0  0  0  0  0
    0.6410    0.9606    0.1054 H   0  0  0  0  0  0  0  0  0  0  0  0
    2.0943   -0.0480    0.0532 H   0  0  0  0  0  0  0  0  0  0  0  0
    0.6257   -2.7285   -0.3279 H   0  0  0  0  0  0  0  0  0  0  0  0
    0.5853   -2.7940   -2.0794 H   0  0  0  0  0  0  0  0  0  0  0  0
    2.0687   -2.2770   -1.2445 H   0  0  0  0  0  0  0  0  0  0  0  0
   -1.4535    0.2617   -1.2070 H   0  0  0  0  0  0  0  0  0  0  0  0
   -1.4579   -1.2377   -2.1449 H   0  0  0  0  0  0  0  0  0  0  0  0
   -1.4278   -1.2957   -0.3751 H   0  0  0  0  0  0  0  0  0  0  0  0
    2.6246   -2.9074   -5.4735 H   0  0  0  0  0  0  0  0  0  0  0  0
    2.2232    2.2630   -6.5093 H   0  0  0  0  0  0  0  0  0  0  0  0
    2.7437    1.0129   -7.6041 H   0  0  0  0  0  0  0  0  0  0  0  0
    2.3861    3.8815   -2.7747 H   0  0  0  0  0  0  0  0  0  0  0  0
   -0.2519    2.5064   -5.8963 H   0  0  0  0  0  0  0  0  0  0  0  0
   -0.2265    4.7509   -6.9226 H   0  0  0  0  0  0  0  0  0  0  0  0
    1.0672    6.5857   -5.8581 H   0  0  0  0  0  0  0  0  0  0  0  0
    2.9153    6.0981   -2.9016 H   0  0  0  0  0  0  0  0  0  0  0  0
  1  2  1  0  0  0  0
  1 22  1  0  0  0  0
  1 23  1  0  0  0  0
  1 24  1  0  0  0  0
  2  3  1  0  0  0  0
  2  4  1  0  0  0  0
  2  5  1  0  0  0  0
  3 25  1  0  0  0  0
  3 26  1  0  0  0  0
  3 27  1  0  0  0  0
  4 28  1  0  0  0  0
  4 29  1  0  0  0  0
  4 30  1  0  0  0  0
  5  6  1  0  0  0  0
  5  7  1  0  0  0  0
  6 14  2  0  0  0  0
  7  8  2  0  0  0  0
  7 13  1  0  0  0  0
  8  9  1  0  0  0  0
  9 10  2  0  0  0  0
  9 31  1  0  0  0  0
 10 11  1  0  0  0  0
 11 12  1  0  0  0  0
 11 13  2  0  0  0  0
 12 32  1  0  0  0  0
 12 33  1  0  0  0  0
 13 14  1  0  0  0  0
 14 15  1  0  0  0  0
 15 16  1  0  0  0  0
 15 17  2  0  0  0  0
 16 20  2  0  0  0  0
 16 34  1  0  0  0  0
 17 18  1  0  0  0  0
 17 35  1  0  0  0  0
 18 19  2  0  0  0  0
 18 36  1  0  0  0  0
 19 20  1  0  0  0  0
 19 37  1  0  0  0  0
 20 21  1  0  0  0  0
 21 38  1  0  0  0  0
M  END
>  <DRUGBANK_ID>
DB04463

>  <SECONDARY_ACCESSION_NUMBERS>
EXPT00389

>  <COMMON_NAME>
3-(4-Amino-1-Tert-Butyl-1h-Pyrazolo[3,4-D]Pyrimidin-3-Yl)Phenol

$$$$
