
 OpenBabel10282417193D

 44 46  0  0  0  0  0  0  0  0999 V2000
    0.9656   -0.1302   -0.1421 C   0  0  0  0  0  0  0  0  0  0  0  0
    0.4844    0.1169    1.2948 C   0  0  0  0  0  0  0  0  0  0  0  0
    1.2370    1.4243    1.5604 C   0  0  0  0  0  0  0  0  0  0  0  0
   -1.0868    0.0619    1.1960 C   0  0  0  0  0  0  0  0  0  0  0  0
   -1.8268   -0.7332    1.7270 O   0  0  0  0  0  0  0  0  0  0  0  0
   -1.6477    1.0800    0.4968 O   0  0  0  0  0  0  0  0  0  0  0  0
    0.9786   -0.8537    2.2406 O   0  0  0  0  0  0  0  0  0  0  0  0
    0.4439   -0.7802    3.6167 C   0  0  0  0  0  0  0  0  0  0  0  0
    0.6957    0.4925    4.4251 C   0  0  0  0  0  0  0  0  0  0  0  0
    0.0403    1.7778    4.2775 C   0  0  0  0  0  0  0  0  0  0  0  0
   -0.9264    2.2817    3.3809 C   0  0  0  0  0  0  0  0  0  0  0  0
   -0.8940    3.6176    2.9753 C   0  0  0  0  0  0  0  0  0  0  0  0
   -0.1070    4.5212    3.6642 C   0  0  0  0  0  0  0  0  0  0  0  0
    0.7529    4.0866    4.6825 C   0  0  0  0  0  0  0  0  0  0  0  0
    0.8777    2.6998    4.8936 C   0  0  0  0  0  0  0  0  0  0  0  0
    1.7693    1.9262    5.5939 N   0  0  0  0  0  0  0  0  0  0  0  0
    1.7885    0.6210    5.1952 N   0  0  0  0  0  0  0  0  0  0  0  0
    2.6754    2.3971    6.6357 C   0  0  0  0  0  0  0  0  0  0  0  0
    2.2829    1.7992    7.9628 C   0  0  0  0  0  0  0  0  0  0  0  0
    2.2799    0.4037    8.1192 C   0  0  0  0  0  0  0  0  0  0  0  0
    1.7404   -0.1846    9.2538 C   0  0  0  0  0  0  0  0  0  0  0  0
    1.3442    0.6182   10.3154 C   0  0  0  0  0  0  0  0  0  0  0  0
    1.4690    2.0054   10.2284 C   0  0  0  0  0  0  0  0  0  0  0  0
    1.8748    2.6007    9.0335 C   0  0  0  0  0  0  0  0  0  0  0  0
    0.6339    0.7114   -0.7744 H   0  0  0  0  0  0  0  0  0  0  0  0
    0.5835   -1.0505   -0.5779 H   0  0  0  0  0  0  0  0  0  0  0  0
    2.0602   -0.1485   -0.1866 H   0  0  0  0  0  0  0  0  0  0  0  0
    0.8227    2.3007    1.0638 H   0  0  0  0  0  0  0  0  0  0  0  0
    1.3112    1.6422    2.5912 H   0  0  0  0  0  0  0  0  0  0  0  0
    2.3174    1.3417    1.3920 H   0  0  0  0  0  0  0  0  0  0  0  0
   -2.6079    0.9839    0.6961 H   0  0  0  0  0  0  0  0  0  0  0  0
   -0.6284   -0.9822    3.6187 H   0  0  0  0  0  0  0  0  0  0  0  0
    0.8892   -1.6393    4.1390 H   0  0  0  0  0  0  0  0  0  0  0  0
   -1.4930    1.5982    2.7851 H   0  0  0  0  0  0  0  0  0  0  0  0
   -1.4207    3.9149    2.0682 H   0  0  0  0  0  0  0  0  0  0  0  0
   -0.1382    5.5701    3.3790 H   0  0  0  0  0  0  0  0  0  0  0  0
    1.3898    4.8036    5.1858 H   0  0  0  0  0  0  0  0  0  0  0  0
    3.7042    2.1387    6.3649 H   0  0  0  0  0  0  0  0  0  0  0  0
    2.6024    3.4899    6.6686 H   0  0  0  0  0  0  0  0  0  0  0  0
    2.6486   -0.2388    7.3208 H   0  0  0  0  0  0  0  0  0  0  0  0
    1.6362   -1.2646    9.2977 H   0  0  0  0  0  0  0  0  0  0  0  0
    0.9448    0.1585   11.2138 H   0  0  0  0  0  0  0  0  0  0  0  0
    1.2347    2.6226   11.0906 H   0  0  0  0  0  0  0  0  0  0  0  0
    1.8621    3.6848    8.9482 H   0  0  0  0  0  0  0  0  0  0  0  0
  1  2  1  0  0  0  0
  1 25  1  0  0  0  0
  1 26  1  0  0  0  0
  1 27  1  0  0  0  0
  2  3  1  0  0  0  0
  2  4  1  0  0  0  0
  2  7  1  0  0  0  0
  3 28  1  0  0  0  0
  3 29  1  0  0  0  0
  3 30  1  0  0  0  0
  4  5  2  0  0  0  0
  4  6  1  0  0  0  0
  6 31  1  0  0  0  0
  7  8  1  0  0  0  0
  8  9  1  0  0  0  0
  8 32  1  0  0  0  0
  8 33  1  0  0  0  0
  9 10  1  0  0  0  0
  9 17  2  0  0  0  0
 10 11  2  0  0  0  0
 10 15  1  0  0  0  0
 11 12  1  0  0  0  0
 11 34  1  0  0  0  0
 12 13  2  0  0  0  0
 12 35  1  0  0  0  0
 13 14  1  0  0  0  0
 13 36  1  0  0  0  0
 14 15  2  0  0  0  0
 14 37  1  0  0  0  0
 15 16  1  0  0  0  0
 16 17  1  0  0  0  0
 16 18  1  0  0  0  0
 18 19  1  0  0  0  0
 18 38  1  0  0  0  0
 18 39  1  0  0  0  0
 19 20  2  0  0  0  0
 19 24  1  0  0  0  0
 20 21  1  0  0  0  0
 20 40  1  0  0  0  0
 21 22  2  0  0  0  0
 21 41  1  0  0  0  0
 22 23  1  0  0  0  0
 22 42  1  0  0  0  0
 23 24  2  0  0  0  0
 23 43  1  0  0  0  0
 24 44  1  0  0  0  0
M  END
>  <DRUGBANK_ID>
DB12739

>  <COMMON_NAME>
Bindarit

>  <CAS_NUMBER>
130641-38-2

>  <UNII>
JQ11LH711M

>  <SYNONYMS>
Bindarit

$$$$
