
 OpenBabel10282417123D

 31 31  0  0  0  0  0  0  0  0999 V2000
   -0.1880   -1.3540   -0.0020 Se  0  0  0  0  0  0  0  0  0  0  0  0
   -0.3220    1.3110    0.0000 N   0  0  0  0  0  0  0  0  0  0  0  0
   -2.8699   -0.1018    0.0013 N   0  0  0  0  0  0  0  0  0  0  0  0
    2.1633    1.5870   -0.0097 C   0  0  0  0  0  0  0  0  0  0  0  0
    2.1735    2.4596   -1.2542 C   0  0  0  0  0  0  0  0  0  0  0  0
    0.9080    0.7300   -0.0020 C   0  0  0  0  0  0  0  0  0  0  0  0
    1.0020   -0.6390    0.0030 C   0  0  0  0  0  0  0  0  0  0  0  0
    2.3498   -1.3417    0.0135 C   0  0  0  0  0  0  0  0  0  0  0  0
    0.9470    3.3575   -1.2534 C   0  0  0  0  0  0  0  0  0  0  0  0
    3.1379   -0.9446   -1.2240 C   0  0  0  0  0  0  0  0  0  0  0  0
    0.9657    4.2398   -0.0159 C   0  0  0  0  0  0  0  0  0  0  0  0
   -1.4010   -0.0460    0.0000 C   0  0  0  0  0  0  0  0  0  0  0  0
    3.3512    0.5604   -1.2275 C   0  0  0  0  0  0  0  0  0  0  0  0
   -3.4131    0.7615    0.0024 H   0  0  0  0  0  0  0  0  0  0  0  0
   -3.3460   -1.0039    0.0011 H   0  0  0  0  0  0  0  0  0  0  0  0
    2.1765    2.2081    0.8615 H   0  0  0  0  0  0  0  0  0  0  0  0
    3.0267    0.9550   -0.0102 H   0  0  0  0  0  0  0  0  0  0  0  0
    3.0571    3.0629   -1.2596 H   0  0  0  0  0  0  0  0  0  0  0  0
    2.1603    1.8386   -2.1254 H   0  0  0  0  0  0  0  0  0  0  0  0
    2.8939   -1.0565    0.8896 H   0  0  0  0  0  0  0  0  0  0  0  0
    2.1996   -2.4011    0.0160 H   0  0  0  0  0  0  0  0  0  0  0  0
    0.9541    3.9718   -2.1295 H   0  0  0  0  0  0  0  0  0  0  0  0
    0.0633    2.7542   -1.2480 H   0  0  0  0  0  0  0  0  0  0  0  0
    4.0867   -1.4392   -1.2166 H   0  0  0  0  0  0  0  0  0  0  0  0
    2.5938   -1.2298   -2.1001 H   0  0  0  0  0  0  0  0  0  0  0  0
    1.8494    4.8431   -0.0213 H   0  0  0  0  0  0  0  0  0  0  0  0
    0.1024    4.8719   -0.0153 H   0  0  0  0  0  0  0  0  0  0  0  0
    0.9586    3.6255    0.8602 H   0  0  0  0  0  0  0  0  0  0  0  0
    3.8953    0.8456   -0.3515 H   0  0  0  0  0  0  0  0  0  0  0  0
    3.9060    0.8399   -2.0987 H   0  0  0  0  0  0  0  0  0  0  0  0
    2.4024    1.0550   -1.2350 H   0  0  0  0  0  0  0  0  0  0  0  0
  1  7  1  0  0  0  0
  1 12  1  0  0  0  0
  2  6  1  0  0  0  0
  2 12  2  0  0  0  0
  3 12  1  0  0  0  0
  3 14  1  0  0  0  0
  3 15  1  0  0  0  0
  4  5  1  0  0  0  0
  4  6  1  0  0  0  0
  4 16  1  0  0  0  0
  4 17  1  0  0  0  0
  5  9  1  0  0  0  0
  5 18  1  0  0  0  0
  5 19  1  0  0  0  0
  6  7  2  0  0  0  0
  7  8  1  0  0  0  0
  8 10  1  0  0  0  0
  8 20  1  0  0  0  0
  8 21  1  0  0  0  0
  9 11  1  0  0  0  0
  9 22  1  0  0  0  0
  9 23  1  0  0  0  0
 10 13  1  0  0  0  0
 10 24  1  0  0  0  0
 10 25  1  0  0  0  0
 11 26  1  0  0  0  0
 11 27  1  0  0  0  0
 11 28  1  0  0  0  0
 13 29  1  0  0  0  0
 13 30  1  0  0  0  0
 13 31  1  0  0  0  0
M  END
>  <DRUGBANK_ID>
DB01740

>  <SECONDARY_ACCESSION_NUMBERS>
EXPT02885

>  <COMMON_NAME>
4-butyl-5-propyl-1,3-selenazol-2-amine

>  <SYNONYMS>
2-amino-4-butyl-5-propylselenazole

$$$$
