
 OpenBabel10282417183D

 51 50  0  0  0  0  0  0  0  0999 V2000
    0.7879    0.0419   -0.0360 O   0  0  0  0  0  0  0  0  0  0  0  0
    0.3417   -0.8265    0.9911 C   0  0  0  0  0  0  0  0  0  0  0  0
    0.9279   -2.2208    0.7991 C   0  0  0  0  0  0  0  0  0  0  0  0
    2.4592   -2.2087    0.8700 C   0  0  0  0  0  0  0  0  0  0  0  0
    2.9512   -1.6690    2.2170 C   0  0  0  0  0  0  0  0  0  0  0  0
    2.4500   -2.5446    3.3700 C   0  0  0  0  0  0  0  0  0  0  0  0
    2.9780   -3.9746    3.2199 C   0  0  0  0  0  0  0  0  0  0  0  0
    4.5099   -3.9724    3.2326 C   0  0  0  0  0  0  0  0  0  0  0  0
    5.0189   -3.3937    4.5565 C   0  0  0  0  0  0  0  0  0  0  0  0
    4.5106   -4.2459    5.7234 C   0  0  0  0  0  0  0  0  0  0  0  0
    5.0179   -5.6840    5.5753 C   0  0  0  0  0  0  0  0  0  0  0  0
    6.5495   -5.7010    5.5794 C   0  0  0  0  0  0  0  0  0  0  0  0
    7.0788   -5.1195    6.8937 C   0  0  0  0  0  0  0  0  0  0  0  0
    6.5833   -5.9473    8.0844 C   0  0  0  0  0  0  0  0  0  0  0  0
    7.0848   -7.3929    7.9998 C   0  0  0  0  0  0  0  0  0  0  0  0
    8.6124   -7.4631    7.9707 C   0  0  0  0  0  0  0  0  0  0  0  0
    9.2043   -6.8518    9.2303 C   0  0  0  0  0  0  0  0  0  0  0  0
    1.7680    0.0903    0.0183 H   0  0  0  0  0  0  0  0  0  0  0  0
    0.6066   -0.3920    1.9608 H   0  0  0  0  0  0  0  0  0  0  0  0
   -0.7505   -0.8665    0.9552 H   0  0  0  0  0  0  0  0  0  0  0  0
    0.5098   -2.9005    1.5510 H   0  0  0  0  0  0  0  0  0  0  0  0
    0.6284   -2.6249   -0.1725 H   0  0  0  0  0  0  0  0  0  0  0  0
    2.8368   -3.2219    0.6893 H   0  0  0  0  0  0  0  0  0  0  0  0
    2.8872   -1.6145    0.0581 H   0  0  0  0  0  0  0  0  0  0  0  0
    4.0446   -1.6066    2.2061 H   0  0  0  0  0  0  0  0  0  0  0  0
    2.6374   -0.6344    2.3772 H   0  0  0  0  0  0  0  0  0  0  0  0
    2.7511   -2.1000    4.3243 H   0  0  0  0  0  0  0  0  0  0  0  0
    1.3584   -2.5587    3.4281 H   0  0  0  0  0  0  0  0  0  0  0  0
    2.5630   -4.6047    4.0127 H   0  0  0  0  0  0  0  0  0  0  0  0
    2.6167   -4.4513    2.3049 H   0  0  0  0  0  0  0  0  0  0  0  0
    4.8812   -4.9861    3.0563 H   0  0  0  0  0  0  0  0  0  0  0  0
    4.9291   -3.4063    2.3966 H   0  0  0  0  0  0  0  0  0  0  0  0
    6.1105   -3.3302    4.5360 H   0  0  0  0  0  0  0  0  0  0  0  0
    4.7124   -2.3535    4.6981 H   0  0  0  0  0  0  0  0  0  0  0  0
    4.8168   -3.7944    6.6711 H   0  0  0  0  0  0  0  0  0  0  0  0
    3.4190   -4.2451    5.7903 H   0  0  0  0  0  0  0  0  0  0  0  0
    4.5973   -6.3075    6.3685 H   0  0  0  0  0  0  0  0  0  0  0  0
    4.6470   -6.1588    4.6621 H   0  0  0  0  0  0  0  0  0  0  0  0
    6.9081   -6.7196    5.4091 H   0  0  0  0  0  0  0  0  0  0  0  0
    6.9651   -5.1397    4.7363 H   0  0  0  0  0  0  0  0  0  0  0  0
    8.1700   -5.0647    6.8593 H   0  0  0  0  0  0  0  0  0  0  0  0
    6.7760   -4.0753    7.0244 H   0  0  0  0  0  0  0  0  0  0  0  0
    6.8939   -5.4707    9.0176 H   0  0  0  0  0  0  0  0  0  0  0  0
    5.4896   -5.9463    8.1449 H   0  0  0  0  0  0  0  0  0  0  0  0
    6.6951   -7.9633    8.8485 H   0  0  0  0  0  0  0  0  0  0  0  0
    6.6827   -7.8915    7.1092 H   0  0  0  0  0  0  0  0  0  0  0  0
    8.9276   -8.5059    7.8742 H   0  0  0  0  0  0  0  0  0  0  0  0
    9.0146   -6.9513    7.0883 H   0  0  0  0  0  0  0  0  0  0  0  0
    8.8338   -7.3831   10.1119 H   0  0  0  0  0  0  0  0  0  0  0  0
   10.2937   -6.9056    9.2106 H   0  0  0  0  0  0  0  0  0  0  0  0
    8.9397   -5.7948    9.3375 H   0  0  0  0  0  0  0  0  0  0  0  0
  1  2  1  0  0  0  0
  1 18  1  0  0  0  0
  2  3  1  0  0  0  0
  2 19  1  0  0  0  0
  2 20  1  0  0  0  0
  3  4  1  0  0  0  0
  3 21  1  0  0  0  0
  3 22  1  0  0  0  0
  4  5  1  0  0  0  0
  4 23  1  0  0  0  0
  4 24  1  0  0  0  0
  5  6  1  0  0  0  0
  5 25  1  0  0  0  0
  5 26  1  0  0  0  0
  6  7  1  0  0  0  0
  6 27  1  0  0  0  0
  6 28  1  0  0  0  0
  7  8  1  0  0  0  0
  7 29  1  0  0  0  0
  7 30  1  0  0  0  0
  8  9  1  0  0  0  0
  8 31  1  0  0  0  0
  8 32  1  0  0  0  0
  9 10  1  0  0  0  0
  9 33  1  0  0  0  0
  9 34  1  0  0  0  0
 10 11  1  0  0  0  0
 10 35  1  0  0  0  0
 10 36  1  0  0  0  0
 11 12  1  0  0  0  0
 11 37  1  0  0  0  0
 11 38  1  0  0  0  0
 12 13  1  0  0  0  0
 12 39  1  0  0  0  0
 12 40  1  0  0  0  0
 13 14  1  0  0  0  0
 13 41  1  0  0  0  0
 13 42  1  0  0  0  0
 14 15  1  0  0  0  0
 14 43  1  0  0  0  0
 14 44  1  0  0  0  0
 15 16  1  0  0  0  0
 15 45  1  0  0  0  0
 15 46  1  0  0  0  0
 16 17  1  0  0  0  0
 16 47  1  0  0  0  0
 16 48  1  0  0  0  0
 17 49  1  0  0  0  0
 17 50  1  0  0  0  0
 17 51  1  0  0  0  0
M  END
>  <DRUGBANK_ID>
DB09494

>  <COMMON_NAME>
Cetyl alcohol

>  <CAS_NUMBER>
36653-82-4

>  <UNII>
936JST6JCN

>  <SYNONYMS>
hexadecan-1-ol; palmityl alcohol

$$$$
