384
 OpenBabel10282417103D

 30 32  0  0  0  0  0  0  0  0999 V2000
   -1.2360   -1.4269    0.0132 N   0  0  0  0  0  0  0  0  0  0  0  0
   -1.1708    1.3737    0.0020 N   0  0  0  0  0  0  0  0  0  0  0  0
    1.1503    1.3504   -0.0016 N   0  0  0  0  0  0  0  0  0  0  0  0
    2.3568   -0.6731   -0.0038 N   0  0  0  0  0  0  0  0  0  0  0  0
   -3.5165    1.4538   -0.1094 N   0  0  0  0  0  0  0  0  0  0  0  0
    1.2686   -2.7215    0.0432 N   0  0  0  0  0  0  0  0  0  0  0  0
    3.4726    1.3398   -0.0051 N   0  0  0  0  0  0  0  0  0  0  0  0
   -2.3807   -0.7030   -0.0195 C   0  0  0  0  0  0  0  0  0  0  0  0
   -0.0625   -0.7167    0.0099 C   0  0  0  0  0  0  0  0  0  0  0  0
   -3.6375   -1.4776   -0.0211 C   0  0  0  0  0  0  0  0  0  0  0  0
   -0.0121    0.6766    0.0037 C   0  0  0  0  0  0  0  0  0  0  0  0
   -2.3505    0.7004   -0.0070 C   0  0  0  0  0  0  0  0  0  0  0  0
    1.1865   -1.3361    0.0031 C   0  0  0  0  0  0  0  0  0  0  0  0
   -4.5889   -1.3318   -1.0493 C   0  0  0  0  0  0  0  0  0  0  0  0
   -3.9495   -2.3430    1.0405 C   0  0  0  0  0  0  0  0  0  0  0  0
    2.2876    0.6525   -0.0045 C   0  0  0  0  0  0  0  0  0  0  0  0
   -5.8105   -2.0107   -1.0096 C   0  0  0  0  0  0  0  0  0  0  0  0
   -5.1686   -3.0285    1.0778 C   0  0  0  0  0  0  0  0  0  0  0  0
   -6.0982   -2.8612    0.0537 C   0  0  0  0  0  0  0  0  0  0  0  0
   -4.3980    1.0202    0.1388 H   0  0  0  0  0  0  0  0  0  0  0  0
   -3.4262    2.4516    0.0210 H   0  0  0  0  0  0  0  0  0  0  0  0
    0.4071   -3.2489   -0.0294 H   0  0  0  0  0  0  0  0  0  0  0  0
    2.1744   -3.1600   -0.0079 H   0  0  0  0  0  0  0  0  0  0  0  0
    3.4531    2.3440   -0.0128 H   0  0  0  0  0  0  0  0  0  0  0  0
    4.3312    0.8152   -0.0143 H   0  0  0  0  0  0  0  0  0  0  0  0
   -4.3882   -0.6670   -1.8887 H   0  0  0  0  0  0  0  0  0  0  0  0
   -3.2449   -2.4729    1.8603 H   0  0  0  0  0  0  0  0  0  0  0  0
   -6.5361   -1.8732   -1.8079 H   0  0  0  0  0  0  0  0  0  0  0  0
   -5.3939   -3.6902    1.9105 H   0  0  0  0  0  0  0  0  0  0  0  0
   -7.0452   -3.3948    0.0840 H   0  0  0  0  0  0  0  0  0  0  0  0
  1  8  2  0  0  0  0
  1  9  1  0  0  0  0
  2 11  1  0  0  0  0
  2 12  2  0  0  0  0
  3 11  2  0  0  0  0
  3 16  1  0  0  0  0
  4 13  1  0  0  0  0
  4 16  2  0  0  0  0
  5 12  1  0  0  0  0
  5 20  1  0  0  0  0
  5 21  1  0  0  0  0
  6 13  1  0  0  0  0
  6 22  1  0  0  0  0
  6 23  1  0  0  0  0
  7 16  1  0  0  0  0
  7 24  1  0  0  0  0
  7 25  1  0  0  0  0
  8 10  1  0  0  0  0
  8 12  1  0  0  0  0
  9 11  1  0  0  0  0
  9 13  2  0  0  0  0
 10 14  2  0  0  0  0
 10 15  1  0  0  0  0
 14 17  1  0  0  0  0
 14 26  1  0  0  0  0
 15 18  2  0  0  0  0
 15 27  1  0  0  0  0
 17 19  2  0  0  0  0
 17 28  1  0  0  0  0
 18 19  1  0  0  0  0
 18 29  1  0  0  0  0
 19 30  1  0  0  0  0
M  END
>  <DRUGBANK_ID>
DB00384

>  <SECONDARY_ACCESSION_NUMBERS>
APRD00079

>  <COMMON_NAME>
Triamterene

>  <CAS_NUMBER>
396-01-0

>  <UNII>
WS821Z52LQ

>  <SYNONYMS>
6-phenylpteridine-2,4,7-triamine; Teridin; Triamteren; Triamterena; Triamtérène; Triamterene; Triamtereno; Triamterenum

$$$$
