4AN
 OpenBabel10282417163D

 24 26  0  0  0  0  0  0  0  0999 V2000
    2.1529    1.2307    0.0018 C   0  0  0  0  0  0  0  0  0  0  0  0
    2.7933    2.2761    0.0013 O   0  0  0  0  0  0  0  0  0  0  0  0
    0.6702    1.2206    0.0006 C   0  0  0  0  0  0  0  0  0  0  0  0
   -0.0249    2.4305   -0.0000 C   0  0  0  0  0  0  0  0  0  0  0  0
   -1.4190    2.4284   -0.0005 C   0  0  0  0  0  0  0  0  0  0  0  0
   -2.1417    1.2285    0.0014 C   0  0  0  0  0  0  0  0  0  0  0  0
   -3.5304    1.2959   -0.0050 N   0  0  0  0  0  0  0  0  0  0  0  0
   -2.0930   -1.2578    0.0001 C   0  0  0  0  0  0  0  0  0  0  0  0
   -1.3869   -2.4600    0.0002 C   0  0  0  0  0  0  0  0  0  0  0  0
    0.0004   -2.4458   -0.0000 C   0  0  0  0  0  0  0  0  0  0  0  0
    0.6797   -1.2245   -0.0005 C   0  0  0  0  0  0  0  0  0  0  0  0
    2.1608   -1.2253   -0.0027 C   0  0  0  0  0  0  0  0  0  0  0  0
    2.8067   -2.2677   -0.0101 O   0  0  0  0  0  0  0  0  0  0  0  0
    2.7713    0.0042    0.0028 N   0  0  0  0  0  0  0  0  0  0  0  0
   -0.0165   -0.0026    0.0003 C   0  0  0  0  0  0  0  0  0  0  0  0
   -1.4385   -0.0062    0.0005 C   0  0  0  0  0  0  0  0  0  0  0  0
    0.5134    3.3761   -0.0004 H   0  0  0  0  0  0  0  0  0  0  0  0
   -1.9443    3.3806   -0.0019 H   0  0  0  0  0  0  0  0  0  0  0  0
   -4.1036    0.4662    0.0041 H   0  0  0  0  0  0  0  0  0  0  0  0
   -4.0063    2.1872    0.0030 H   0  0  0  0  0  0  0  0  0  0  0  0
   -3.1773   -1.3187   -0.0002 H   0  0  0  0  0  0  0  0  0  0  0  0
   -1.9275   -3.4028    0.0001 H   0  0  0  0  0  0  0  0  0  0  0  0
    0.5497   -3.3845    0.0001 H   0  0  0  0  0  0  0  0  0  0  0  0
    3.7817    0.0059    0.0015 H   0  0  0  0  0  0  0  0  0  0  0  0
  1  2  2  0  0  0  0
  1  3  1  0  0  0  0
  1 14  1  0  0  0  0
  3  4  2  0  0  0  0
  3 15  1  0  0  0  0
  4  5  1  0  0  0  0
  4 17  1  0  0  0  0
  5  6  2  0  0  0  0
  5 18  1  0  0  0  0
  6  7  1  0  0  0  0
  6 16  1  0  0  0  0
  7 19  1  0  0  0  0
  7 20  1  0  0  0  0
  8  9  2  0  0  0  0
  8 16  1  0  0  0  0
  8 21  1  0  0  0  0
  9 10  1  0  0  0  0
  9 22  1  0  0  0  0
 10 11  2  0  0  0  0
 10 23  1  0  0  0  0
 11 12  1  0  0  0  0
 11 15  1  0  0  0  0
 12 13  2  0  0  0  0
 12 14  1  0  0  0  0
 14 24  1  0  0  0  0
 15 16  2  0  0  0  0
M  END
>  <DRUGBANK_ID>
DB07096

>  <COMMON_NAME>
6-AMINO-BENZO[DE]ISOQUINOLINE-1,3-DIONE

>  <UNII>
S529AR2S8B

$$$$
