
 OpenBabel10282417103D

 86 89  0  0  0  0  0  0  0  0999 V2000
    1.2848   -0.3404   -0.3766 C   0  0  0  0  0  0  0  0  0  0  0  0
    0.7230    0.8933   -0.7441 C   0  0  0  0  0  0  0  0  0  0  0  0
   -0.6424    1.1516   -0.4490 C   0  0  0  0  0  0  0  0  0  0  0  0
   -1.4857    0.0462   -0.3469 C   0  0  0  0  0  0  0  0  0  0  0  0
   -0.9302   -1.2267   -0.1754 C   0  0  0  0  0  0  0  0  0  0  0  0
    0.4546   -1.4171   -0.1098 C   0  0  0  0  0  0  0  0  0  0  0  0
   -1.8268   -2.3550    0.0443 N   0  3  0  0  0  0  0  0  0  0  0  0
   -3.0424   -2.1204    0.1009 O   0  0  0  0  0  0  0  0  0  0  0  0
   -1.3191   -3.4806    0.1323 O   0  5  0  0  0  0  0  0  0  0  0  0
   -1.1109    2.4174    0.3804 C   0  0  3  0  0  0  0  0  0  0  0  0
   -1.5194    1.9384    1.8024 C   0  0  0  0  0  0  0  0  0  0  0  0
   -2.8659    1.9014    2.0502 C   0  0  0  0  0  0  0  0  0  0  0  0
   -3.7771    2.4709    1.1636 N   0  0  0  0  0  0  0  0  0  0  0  0
   -3.4454    3.3413    0.1578 C   0  0  0  0  0  0  0  0  0  0  0  0
   -2.1615    3.2910   -0.2666 C   0  0  0  0  0  0  0  0  0  0  0  0
   -3.5769    1.2330    3.1942 C   0  0  0  0  0  0  0  0  0  0  0  0
   -4.5722    4.2827   -0.2625 C   0  0  0  0  0  0  0  0  0  0  0  0
   -0.5245    1.3160    2.7557 C   0  0  0  0  0  0  0  0  0  0  0  0
    0.8197    1.5109    2.7126 O   0  0  0  0  0  0  0  0  0  0  0  0
    1.5369    2.2914    1.7790 C   0  0  0  0  0  0  0  0  0  0  0  0
   -0.9064    0.5786    3.6614 O   0  0  0  0  0  0  0  0  0  0  0  0
   -1.6851    4.2987   -1.1575 C   0  0  0  0  0  0  0  0  0  0  0  0
   -2.4559    5.1614   -1.6368 O   0  0  0  0  0  0  0  0  0  0  0  0
   -0.3523    4.2643   -1.3552 O   0  0  0  0  0  0  0  0  0  0  0  0
    0.0838    5.3913   -2.1304 C   0  0  0  0  0  0  0  0  0  0  0  0
   -0.5227    5.0250   -3.6232 C   0  0  0  0  0  0  0  0  0  0  0  0
   -0.3281    6.6294   -1.1743 C   0  0  0  0  0  0  0  0  0  0  0  0
    1.6389    5.3467   -2.3338 C   0  0  0  0  0  0  0  0  0  0  0  0
    2.5191    5.7796   -1.2315 N   0  0  0  0  0  0  0  0  0  0  0  0
    3.9280    5.5959   -1.5860 C   0  0  0  0  0  0  0  0  0  0  0  0
    2.3755    7.1722   -0.7624 C   0  0  0  0  0  0  0  0  0  0  0  0
    2.4555    8.3653   -1.7668 C   0  0  0  0  0  0  0  0  0  0  0  0
    1.6429    8.4873   -3.1406 C   0  0  0  0  0  0  0  0  0  0  0  0
    0.0816    8.8555   -3.1907 C   0  0  0  0  0  0  0  0  0  0  0  0
    2.3761    9.4749   -3.9910 C   0  0  0  0  0  0  0  0  0  0  0  0
   -0.7920    7.8659   -3.5562 C   0  0  0  0  0  0  0  0  0  0  0  0
   -2.1343    7.7521   -3.1303 C   0  0  0  0  0  0  0  0  0  0  0  0
   -2.6721    8.7506   -2.3612 C   0  0  0  0  0  0  0  0  0  0  0  0
   -1.9177    9.8949   -2.2367 C   0  0  0  0  0  0  0  0  0  0  0  0
   -0.6028    9.9665   -2.7364 C   0  0  0  0  0  0  0  0  0  0  0  0
    2.1025   10.7926   -3.6700 C   0  0  0  0  0  0  0  0  0  0  0  0
    2.1839   11.7450   -4.6361 C   0  0  0  0  0  0  0  0  0  0  0  0
    2.9534   11.4579   -5.7480 C   0  0  0  0  0  0  0  0  0  0  0  0
    3.5307   10.1913   -5.9229 C   0  0  0  0  0  0  0  0  0  0  0  0
    3.1510    9.1464   -5.0983 C   0  0  0  0  0  0  0  0  0  0  0  0
    2.3594   -0.4354   -0.1993 H   0  0  0  0  0  0  0  0  0  0  0  0
    1.4329    1.7050   -0.9357 H   0  0  0  0  0  0  0  0  0  0  0  0
   -2.5500    0.2104   -0.1889 H   0  0  0  0  0  0  0  0  0  0  0  0
    0.8920   -2.3801    0.1451 H   0  0  0  0  0  0  0  0  0  0  0  0
   -0.3021    3.1343    0.5162 H   0  0  0  0  0  0  0  0  0  0  0  0
   -4.7688    2.3881    1.3785 H   0  0  0  0  0  0  0  0  0  0  0  0
   -4.1028    1.9849    3.7883 H   0  0  0  0  0  0  0  0  0  0  0  0
   -4.3130    0.5294    2.7855 H   0  0  0  0  0  0  0  0  0  0  0  0
   -2.9652    0.6520    3.8698 H   0  0  0  0  0  0  0  0  0  0  0  0
   -5.3824    3.7040   -0.7113 H   0  0  0  0  0  0  0  0  0  0  0  0
   -4.9594    4.8172    0.6145 H   0  0  0  0  0  0  0  0  0  0  0  0
   -4.3586    5.0743   -0.9797 H   0  0  0  0  0  0  0  0  0  0  0  0
    1.0839    2.1056    0.8636 H   0  0  0  0  0  0  0  0  0  0  0  0
    1.4265    3.3624    1.9184 H   0  0  0  0  0  0  0  0  0  0  0  0
    2.5480    1.9277    1.5789 H   0  0  0  0  0  0  0  0  0  0  0  0
   -1.6129    5.1049   -3.6867 H   0  0  0  0  0  0  0  0  0  0  0  0
   -0.1399    5.5532   -4.5127 H   0  0  0  0  0  0  0  0  0  0  0  0
   -0.2842    4.0001   -3.9148 H   0  0  0  0  0  0  0  0  0  0  0  0
   -0.1200    6.5029   -0.1025 H   0  0  0  0  0  0  0  0  0  0  0  0
    0.1566    7.5561   -1.4217 H   0  0  0  0  0  0  0  0  0  0  0  0
   -1.3791    6.8862   -1.0885 H   0  0  0  0  0  0  0  0  0  0  0  0
    1.8887    4.3152   -2.6192 H   0  0  0  0  0  0  0  0  0  0  0  0
    1.9131    5.8824   -3.2382 H   0  0  0  0  0  0  0  0  0  0  0  0
    4.2613    6.3355   -2.3219 H   0  0  0  0  0  0  0  0  0  0  0  0
    4.5349    5.7140   -0.6810 H   0  0  0  0  0  0  0  0  0  0  0  0
    4.1277    4.5990   -1.9843 H   0  0  0  0  0  0  0  0  0  0  0  0
    1.5357    7.2914   -0.0867 H   0  0  0  0  0  0  0  0  0  0  0  0
    3.1460    7.3253    0.0127 H   0  0  0  0  0  0  0  0  0  0  0  0
    2.2468    9.2653   -1.1775 H   0  0  0  0  0  0  0  0  0  0  0  0
    3.5289    8.4252   -2.0052 H   0  0  0  0  0  0  0  0  0  0  0  0
    1.8010    7.5717   -3.7099 H   0  0  0  0  0  0  0  0  0  0  0  0
   -0.2157    7.0472   -3.8634 H   0  0  0  0  0  0  0  0  0  0  0  0
   -2.6467    6.7918   -3.1078 H   0  0  0  0  0  0  0  0  0  0  0  0
   -3.6149    8.6030   -1.8432 H   0  0  0  0  0  0  0  0  0  0  0  0
   -2.3143   10.7497   -1.7092 H   0  0  0  0  0  0  0  0  0  0  0  0
   -0.1956   10.9566   -2.7818 H   0  0  0  0  0  0  0  0  0  0  0  0
    1.6498   11.0077   -2.7124 H   0  0  0  0  0  0  0  0  0  0  0  0
    1.6621   12.6798   -4.4779 H   0  0  0  0  0  0  0  0  0  0  0  0
    3.1276   12.2477   -6.4638 H   0  0  0  0  0  0  0  0  0  0  0  0
    4.2370   10.0207   -6.7263 H   0  0  0  0  0  0  0  0  0  0  0  0
    3.4403    8.1203   -5.3257 H   0  0  0  0  0  0  0  0  0  0  0  0
  1  2  2  0  0  0  0
  1 46  1  0  0  0  0
  2  3  1  0  0  0  0
  2 47  1  0  0  0  0
  3  4  2  0  0  0  0
  3 10  1  0  0  0  0
  4  5  1  0  0  0  0
  4 48  1  0  0  0  0
  5  6  2  0  0  0  0
  5  7  1  0  0  0  0
  6  1  1  0  0  0  0
  6 49  1  0  0  0  0
  7  8  2  0  0  0  0
  7  9  1  0  0  0  0
 10 15  1  0  0  0  0
 10 11  1  0  0  0  0
 10 50  1  0  0  0  0
 11 12  2  0  0  0  0
 11 18  1  0  0  0  0
 12 13  1  0  0  0  0
 12 16  1  0  0  0  0
 13 14  1  0  0  0  0
 13 51  1  0  0  0  0
 14 15  2  0  0  0  0
 14 17  1  0  0  0  0
 15 22  1  0  0  0  0
 16 52  1  0  0  0  0
 16 53  1  0  0  0  0
 16 54  1  0  0  0  0
 17 55  1  0  0  0  0
 17 56  1  0  0  0  0
 17 57  1  0  0  0  0
 18 19  1  0  0  0  0
 18 21  2  0  0  0  0
 19 20  1  0  0  0  0
 20 58  1  0  0  0  0
 20 59  1  0  0  0  0
 20 60  1  0  0  0  0
 22 23  2  0  0  0  0
 22 24  1  0  0  0  0
 24 25  1  0  0  0  0
 25 26  1  0  0  0  0
 25 27  1  0  0  0  0
 25 28  1  0  0  0  0
 26 61  1  0  0  0  0
 26 62  1  0  0  0  0
 26 63  1  0  0  0  0
 27 64  1  0  0  0  0
 27 65  1  0  0  0  0
 27 66  1  0  0  0  0
 28 29  1  0  0  0  0
 28 67  1  0  0  0  0
 28 68  1  0  0  0  0
 29 30  1  0  0  0  0
 29 31  1  0  0  0  0
 30 69  1  0  0  0  0
 30 70  1  0  0  0  0
 30 71  1  0  0  0  0
 31 32  1  0  0  0  0
 31 72  1  0  0  0  0
 31 73  1  0  0  0  0
 32 33  1  0  0  0  0
 32 74  1  0  0  0  0
 32 75  1  0  0  0  0
 33 34  1  0  0  0  0
 33 35  1  0  0  0  0
 33 76  1  0  0  0  0
 34 36  2  0  0  0  0
 35 41  2  0  0  0  0
 36 37  1  0  0  0  0
 36 77  1  0  0  0  0
 37 38  2  0  0  0  0
 37 78  1  0  0  0  0
 38 39  1  0  0  0  0
 38 79  1  0  0  0  0
 39 40  2  0  0  0  0
 39 80  1  0  0  0  0
 40 34  1  0  0  0  0
 40 81  1  0  0  0  0
 41 42  1  0  0  0  0
 41 82  1  0  0  0  0
 42 43  2  0  0  0  0
 42 83  1  0  0  0  0
 43 44  1  0  0  0  0
 43 84  1  0  0  0  0
 44 45  2  0  0  0  0
 44 85  1  0  0  0  0
 45 35  1  0  0  0  0
 45 86  1  0  0  0  0
M  CHG  2   7   1   9  -1
M  END
>  <DRUGBANK_ID>
DB00528

>  <SECONDARY_ACCESSION_NUMBERS>
APRD00193

>  <COMMON_NAME>
Lercanidipine

>  <CAS_NUMBER>
100427-26-7

>  <UNII>
V7XTJ4R0BH

>  <SYNONYMS>
Lercanidipine; Lercanidipino

$$$$
