
 OpenBabel10282417153D

 35 36  0  0  0  0  0  0  0  0999 V2000
    1.0319    0.3470    0.2564 O   0  0  0  0  0  0  0  0  0  0  0  0
    4.1788   -2.0111    2.3518 N   0  0  0  0  0  0  0  0  0  0  0  0
    3.3605   -2.9521    1.7963 N   0  0  0  0  0  0  0  0  0  0  0  0
    2.9042   -0.8967    0.8896 C   0  0  0  0  0  0  0  0  0  0  0  0
    1.5456   -2.9813    0.0867 C   0  0  0  0  0  0  0  0  0  0  0  0
    2.5804   -2.2773    0.9356 C   0  0  0  0  0  0  0  0  0  0  0  0
    3.9430   -0.7564    1.7811 C   0  0  0  0  0  0  0  0  0  0  0  0
    3.0366    1.0736   -0.7649 C   0  0  0  0  0  0  0  0  0  0  0  0
    2.2477    0.1554    0.1389 C   0  0  0  0  0  0  0  0  0  0  0  0
    0.1265   -2.4696    0.3550 C   0  0  0  0  0  0  0  0  0  0  0  0
    1.8896   -2.8278   -1.4005 C   0  0  0  0  0  0  0  0  0  0  0  0
    4.7130    0.3483    2.2378 C   0  0  0  0  0  0  0  0  0  0  0  0
    2.6419    0.8647   -2.2264 C   0  0  0  0  0  0  0  0  0  0  0  0
    2.6655    2.4873   -0.3239 C   0  0  0  0  0  0  0  0  0  0  0  0
    5.1477   -2.1847    3.3526 C   0  0  0  0  0  0  0  0  0  0  0  0
    5.6400    0.1692    3.1934 C   0  0  0  0  0  0  0  0  0  0  0  0
    5.8762   -1.1368    3.7803 C   0  0  0  0  0  0  0  0  0  0  0  0
    1.5519   -4.0537    0.3197 H   0  0  0  0  0  0  0  0  0  0  0  0
    4.1113    0.9002   -0.6497 H   0  0  0  0  0  0  0  0  0  0  0  0
   -0.0135   -1.4386    0.0470 H   0  0  0  0  0  0  0  0  0  0  0  0
   -0.6175   -3.0194   -0.2260 H   0  0  0  0  0  0  0  0  0  0  0  0
   -0.1229   -2.5239    1.4190 H   0  0  0  0  0  0  0  0  0  0  0  0
    2.8688   -3.2637   -1.6279 H   0  0  0  0  0  0  0  0  0  0  0  0
    1.1387   -3.2963   -2.0418 H   0  0  0  0  0  0  0  0  0  0  0  0
    1.9326   -1.7769   -1.6882 H   0  0  0  0  0  0  0  0  0  0  0  0
    4.5424    1.3324    1.8188 H   0  0  0  0  0  0  0  0  0  0  0  0
    1.5607    0.9785   -2.3723 H   0  0  0  0  0  0  0  0  0  0  0  0
    3.1481    1.5894   -2.8710 H   0  0  0  0  0  0  0  0  0  0  0  0
    2.9166   -0.1330   -2.5804 H   0  0  0  0  0  0  0  0  0  0  0  0
    2.8857    2.6295    0.7392 H   0  0  0  0  0  0  0  0  0  0  0  0
    3.1994    3.2382   -0.9063 H   0  0  0  0  0  0  0  0  0  0  0  0
    1.5885    2.6646   -0.4474 H   0  0  0  0  0  0  0  0  0  0  0  0
    5.2651   -3.1845    3.7499 H   0  0  0  0  0  0  0  0  0  0  0  0
    6.2259    1.0108    3.5502 H   0  0  0  0  0  0  0  0  0  0  0  0
    6.6334   -1.2270    4.5520 H   0  0  0  0  0  0  0  0  0  0  0  0
  1  9  2  0  0  0  0
  2  3  1  0  0  0  0
  2  7  1  0  0  0  0
  2 15  1  0  0  0  0
  3  6  2  0  0  0  0
  4  6  1  0  0  0  0
  4  7  2  0  0  0  0
  4  9  1  0  0  0  0
  5  6  1  0  0  0  0
  5 10  1  0  0  0  0
  5 11  1  0  0  0  0
  5 18  1  0  0  0  0
  7 12  1  0  0  0  0
  8  9  1  0  0  0  0
  8 13  1  0  0  0  0
  8 14  1  0  0  0  0
  8 19  1  0  0  0  0
 10 20  1  0  0  0  0
 10 21  1  0  0  0  0
 10 22  1  0  0  0  0
 11 23  1  0  0  0  0
 11 24  1  0  0  0  0
 11 25  1  0  0  0  0
 12 16  2  0  0  0  0
 12 26  1  0  0  0  0
 13 27  1  0  0  0  0
 13 28  1  0  0  0  0
 13 29  1  0  0  0  0
 14 30  1  0  0  0  0
 14 31  1  0  0  0  0
 14 32  1  0  0  0  0
 15 17  2  0  0  0  0
 15 33  1  0  0  0  0
 16 17  1  0  0  0  0
 16 34  1  0  0  0  0
 17 35  1  0  0  0  0
M  END
>  <DRUGBANK_ID>
DB05266

>  <SECONDARY_ACCESSION_NUMBERS>
DB05066

>  <COMMON_NAME>
Ibudilast

>  <CAS_NUMBER>
50847-11-5

>  <UNII>
M0TTH61XC5

>  <SYNONYMS>
Ibudilast; Ibudilastum

$$$$
