CCB
 OpenBabel10282417133D

 29 30  0  0  0  0  0  0  0  0999 V2000
    1.0672   -0.0347    0.1381 N   0  0  0  0  0  0  0  0  0  0  0  0
    0.3255   -0.0182   -1.0541 C   0  0  0  0  0  0  0  0  0  0  0  0
   -0.8885   -0.0061   -1.1661 O   0  0  0  0  0  0  0  0  0  0  0  0
    0.3023   -0.0128    1.3938 C   0  0  0  0  0  0  0  0  0  0  0  0
    2.5702   -0.0393    0.0605 C   0  0  0  0  0  0  0  0  0  0  0  0
    0.3964    1.2675    2.2260 C   0  0  0  0  0  0  0  0  0  0  0  0
    0.1884    0.8398    3.6806 C   0  0  0  0  0  0  0  0  0  0  0  0
    0.1480   -0.6845    3.7165 C   0  0  0  0  0  0  0  0  0  0  0  0
    0.6838   -1.1086    2.3735 C   0  0  0  0  0  0  0  0  0  0  0  0
    3.4035   -1.1645    0.7245 C   0  0  0  0  0  0  0  0  0  0  0  0
    4.4165   -0.0884    1.1649 C   0  0  0  0  0  0  0  0  0  0  0  0
    3.3567    0.9808    0.9111 C   0  0  0  0  0  0  0  0  0  0  0  0
    0.9699   -0.0222   -1.9528 H   0  0  0  0  0  0  0  0  0  0  0  0
   -0.7632   -0.1418    1.1580 H   0  0  0  0  0  0  0  0  0  0  0  0
    2.8791    0.0346   -0.9943 H   0  0  0  0  0  0  0  0  0  0  0  0
    1.3474    1.7766    2.1695 H   0  0  0  0  0  0  0  0  0  0  0  0
   -0.3080    2.0344    1.8948 H   0  0  0  0  0  0  0  0  0  0  0  0
    1.0170    1.2082    4.2994 H   0  0  0  0  0  0  0  0  0  0  0  0
   -0.7378    1.2566    4.0785 H   0  0  0  0  0  0  0  0  0  0  0  0
    0.7962   -1.0837    4.5077 H   0  0  0  0  0  0  0  0  0  0  0  0
   -0.8622   -1.0621    3.8830 H   0  0  0  0  0  0  0  0  0  0  0  0
    0.3746   -2.1072    2.0483 H   0  0  0  0  0  0  0  0  0  0  0  0
    1.7468   -1.1109    2.5501 H   0  0  0  0  0  0  0  0  0  0  0  0
    3.0247   -1.7452    1.5600 H   0  0  0  0  0  0  0  0  0  0  0  0
    3.7999   -1.9218    0.0451 H   0  0  0  0  0  0  0  0  0  0  0  0
    4.7195   -0.1270    2.2182 H   0  0  0  0  0  0  0  0  0  0  0  0
    5.2967   -0.0084    0.5283 H   0  0  0  0  0  0  0  0  0  0  0  0
    3.6591    1.8906    0.3842 H   0  0  0  0  0  0  0  0  0  0  0  0
    3.0037    1.2800    1.8921 H   0  0  0  0  0  0  0  0  0  0  0  0
  1  2  1  0  0  0  0
  1  4  1  0  0  0  0
  1  5  1  0  0  0  0
  2  3  2  0  0  0  0
  2 13  1  0  0  0  0
  4  6  1  0  0  0  0
  4  9  1  0  0  0  0
  4 14  1  0  0  0  0
  5 10  1  0  0  0  0
  5 12  1  0  0  0  0
  5 15  1  0  0  0  0
  6  7  1  0  0  0  0
  6 16  1  0  0  0  0
  6 17  1  0  0  0  0
  7  8  1  0  0  0  0
  7 18  1  0  0  0  0
  7 19  1  0  0  0  0
  8  9  1  0  0  0  0
  8 20  1  0  0  0  0
  8 21  1  0  0  0  0
  9 22  1  0  0  0  0
  9 23  1  0  0  0  0
 10 11  1  0  0  0  0
 10 24  1  0  0  0  0
 10 25  1  0  0  0  0
 11 12  1  0  0  0  0
 11 26  1  0  0  0  0
 11 27  1  0  0  0  0
 12 28  1  0  0  0  0
 12 29  1  0  0  0  0
M  END
>  <DRUGBANK_ID>
DB04065

>  <SECONDARY_ACCESSION_NUMBERS>
EXPT00857

>  <COMMON_NAME>
N-Cyclopentyl-N-Cyclobutylformamide

$$$$
