1365
 OpenBabel10282417113D

 29 29  0  0  0  0  0  0  0  0999 V2000
    1.1080   -0.1590   -0.5439 N   0  0  0  0  0  0  0  0  0  0  0  0
    0.5294   -1.2856    0.2440 C   0  0  0  0  0  0  0  0  0  0  0  0
    0.9834   -1.4542    1.7582 C   0  0  0  0  0  0  0  0  0  0  0  0
   -1.0097   -1.3276    0.2279 C   0  0  0  0  0  0  0  0  0  0  0  0
    1.0513   -2.4464   -0.6413 C   0  0  0  0  0  0  0  0  0  0  0  0
    0.5373   -0.5050    2.9029 C   0  0  0  0  0  0  0  0  0  0  0  0
    0.8398    1.1121    0.0397 C   0  0  0  0  0  0  0  0  0  0  0  0
    0.2431   -1.0022    4.1758 C   0  0  0  0  0  0  0  0  0  0  0  0
    0.5206    0.8921    2.8627 C   0  0  0  0  0  0  0  0  0  0  0  0
    0.0263   -0.1144    5.2562 C   0  0  0  0  0  0  0  0  0  0  0  0
    0.5173    1.7765    3.9171 C   0  0  0  0  0  0  0  0  0  0  0  0
    0.1990    1.2641    5.1463 C   0  0  0  0  0  0  0  0  0  0  0  0
    2.1263   -0.2617   -0.5275 H   0  0  0  0  0  0  0  0  0  0  0  0
    0.6786   -2.4752    2.0475 H   0  0  0  0  0  0  0  0  0  0  0  0
    2.0829   -1.4900    1.7837 H   0  0  0  0  0  0  0  0  0  0  0  0
   -1.4134   -1.1049   -0.7633 H   0  0  0  0  0  0  0  0  0  0  0  0
   -1.3696   -2.3218    0.5232 H   0  0  0  0  0  0  0  0  0  0  0  0
   -1.4456   -0.6148    0.9358 H   0  0  0  0  0  0  0  0  0  0  0  0
    0.7274   -2.3002   -1.6852 H   0  0  0  0  0  0  0  0  0  0  0  0
    2.1497   -2.4760   -0.6575 H   0  0  0  0  0  0  0  0  0  0  0  0
    0.6877   -3.4253   -0.3256 H   0  0  0  0  0  0  0  0  0  0  0  0
    1.5840    1.1283    0.8387 H   0  0  0  0  0  0  0  0  0  0  0  0
    1.0611    2.0390   -0.4836 H   0  0  0  0  0  0  0  0  0  0  0  0
   -0.2222    1.1632    0.3179 H   0  0  0  0  0  0  0  0  0  0  0  0
    0.1501   -2.0705    4.3407 H   0  0  0  0  0  0  0  0  0  0  0  0
    0.3828    1.5056    2.0025 H   0  0  0  0  0  0  0  0  0  0  0  0
   -0.2701   -0.5089    6.2250 H   0  0  0  0  0  0  0  0  0  0  0  0
    0.6684    2.8307    3.7168 H   0  0  0  0  0  0  0  0  0  0  0  0
    0.0400    1.9632    5.9513 H   0  0  0  0  0  0  0  0  0  0  0  0
  1  2  1  0  0  0  0
  1  7  1  0  0  0  0
  1 13  1  0  0  0  0
  2  3  1  0  0  0  0
  2  4  1  0  0  0  0
  2  5  1  0  0  0  0
  3  6  1  0  0  0  0
  3 14  1  0  0  0  0
  3 15  1  0  0  0  0
  4 16  1  0  0  0  0
  4 17  1  0  0  0  0
  4 18  1  0  0  0  0
  5 19  1  0  0  0  0
  5 20  1  0  0  0  0
  5 21  1  0  0  0  0
  6  8  2  0  0  0  0
  6  9  1  0  0  0  0
  7 22  1  0  0  0  0
  7 23  1  0  0  0  0
  7 24  1  0  0  0  0
  8 10  1  0  0  0  0
  8 25  1  0  0  0  0
  9 11  2  0  0  0  0
  9 26  1  0  0  0  0
 10 12  2  0  0  0  0
 10 27  1  0  0  0  0
 11 12  1  0  0  0  0
 11 28  1  0  0  0  0
 12 29  1  0  0  0  0
M  END
>  <DRUGBANK_ID>
DB01365

>  <COMMON_NAME>
Mephentermine

>  <CAS_NUMBER>
100-92-5

>  <UNII>
TEZ91L71V4

>  <SYNONYMS>
Mefentermina; Mephentermine; Mephenterminum

$$$$
