
 OpenBabel10282417143D

 94 95  0  0  1  0  0  0  0  0999 V2000
   -1.5088    3.3137   -0.5880 C   0  0  0  0  0  0  0  0  0  0  0  0
   -0.6936    2.0425   -0.4912 C   0  0  0  0  0  0  0  0  0  0  0  0
    0.2889    2.0178   -1.5015 O   0  0  0  0  0  0  0  0  0  0  0  0
   -0.2263    1.9605   -2.7364 C   0  0  0  0  0  0  0  0  0  0  0  0
   -1.3829    1.9761   -3.1342 O   0  0  0  0  0  0  0  0  0  0  0  0
    0.7905    1.8013   -3.6835 C   0  0  0  0  0  0  0  0  0  0  0  0
    2.0585    1.6967   -3.3257 C   0  0  0  0  0  0  0  0  0  0  0  0
    2.9079    1.6677   -4.4437 C   0  0  2  0  0  0  0  0  0  0  0  0
    2.3195    2.7058   -5.4460 C   0  0  0  0  0  0  0  0  0  0  0  0
    3.3900    3.5010   -5.9529 C   0  0  2  0  0  0  0  0  0  0  0  0
    4.0259    2.3599   -6.7069 C   0  0  0  0  0  0  0  0  0  0  0  0
    5.0189    1.7898   -5.8761 C   0  0  0  0  0  0  0  0  0  0  0  0
    5.1394    2.6510   -4.8046 N   0  0  0  0  0  0  0  0  0  0  0  0
    4.3826    3.9662   -4.7267 C   0  0  0  0  0  0  0  0  0  0  0  0
    4.8723    5.0418   -4.4739 O   0  0  0  0  0  0  0  0  0  0  0  0
    3.2422    0.3261   -4.8802 N   0  0  0  0  0  0  0  0  0  0  0  0
    4.4988   -0.2983   -4.8823 C   0  0  0  0  0  0  0  0  0  0  0  0
    4.6825   -1.1582   -5.7822 O   0  0  0  0  0  0  0  0  0  0  0  0
    5.9551    0.2957   -4.0510 C   0  0  2  0  0  0  0  0  0  0  0  0
    6.6658   -0.8608   -3.4950 C   0  0  0  0  0  0  0  0  0  0  0  0
    5.5707   -1.6099   -2.7771 C   0  0  0  0  0  0  0  0  0  0  0  0
    4.5890   -2.4426   -3.6232 C   0  0  0  0  0  0  0  0  0  0  0  0
    6.3091   -2.5821   -1.9444 C   0  0  0  0  0  0  0  0  0  0  0  0
    6.0832    1.5502   -3.0618 N   0  0  0  0  0  0  0  0  0  0  0  0
    6.6718    3.0410   -3.1885 C   0  0  0  0  0  0  0  0  0  0  0  0
    6.0646    3.8580   -2.4752 O   0  0  0  0  0  0  0  0  0  0  0  0
    7.4344    3.4291   -4.8795 C   0  0  1  0  0  0  0  0  0  0  0  0
    8.4244    2.2749   -5.0082 N   0  0  0  0  0  0  0  0  0  0  0  0
    8.7036    1.1913   -5.8916 C   0  0  0  0  0  0  0  0  0  0  0  0
    9.6748    0.5283   -5.6033 O   0  0  0  0  0  0  0  0  0  0  0  0
    7.9590    0.8580   -7.4173 C   0  0  1  0  0  0  0  0  0  0  0  0
    6.3021    0.3659   -7.7451 N   0  0  0  0  0  0  0  0  0  0  0  0
    4.9082    0.8983   -8.5037 C   0  0  0  0  0  0  0  0  0  0  0  0
    3.9547    0.1367   -8.2070 O   0  0  0  0  0  0  0  0  0  0  0  0
    4.5644    2.5353   -9.2823 C   0  0  0  0  0  0  0  0  0  0  0  0
    5.2423    2.9739  -10.3954 C   0  0  0  0  0  0  0  0  0  0  0  0
    5.6668    4.2851  -10.3506 O   0  0  0  0  0  0  0  0  0  0  0  0
    4.8792    5.0085   -9.5489 C   0  0  0  0  0  0  0  0  0  0  0  0
    3.9695    4.0985   -8.9928 C   0  0  0  0  0  0  0  0  0  0  0  0
    8.4676    1.8975   -8.4082 C   0  0  0  0  0  0  0  0  0  0  0  0
    9.6636    2.6101   -8.9552 C   0  0  0  0  0  0  0  0  0  0  0  0
    7.5794    1.7280   -9.5751 C   0  0  0  0  0  0  0  0  0  0  0  0
    6.7329    3.6118   -6.3946 C   0  0  0  0  0  0  0  0  0  0  0  0
    5.7535    4.4961   -6.8100 C   0  0  0  0  0  0  0  0  0  0  0  0
    7.4187    3.9172   -7.5629 C   0  0  0  0  0  0  0  0  0  0  0  0
   -0.8581    4.1904   -0.5162 H   0  0  0  0  0  0  0  0  0  0  0  0
   -2.2659    3.3355    0.1916 H   0  0  0  0  0  0  0  0  0  0  0  0
   -2.0246    3.3960   -1.5480 H   0  0  0  0  0  0  0  0  0  0  0  0
   -0.1682    2.0063    0.4660 H   0  0  0  0  0  0  0  0  0  0  0  0
   -1.3056    1.1400   -0.5760 H   0  0  0  0  0  0  0  0  0  0  0  0
    0.4638    1.8090   -4.7212 H   0  0  0  0  0  0  0  0  0  0  0  0
    2.5334    1.8488   -2.3632 H   0  0  0  0  0  0  0  0  0  0  0  0
    3.7300    2.0332   -3.8909 H   0  0  0  0  0  0  0  0  0  0  0  0
    1.8062    2.2489   -6.3112 H   0  0  0  0  0  0  0  0  0  0  0  0
    1.7293    3.5246   -5.0335 H   0  0  0  0  0  0  0  0  0  0  0  0
    2.9449    4.2238   -6.6175 H   0  0  0  0  0  0  0  0  0  0  0  0
    3.2986    1.8264   -7.2995 H   0  0  0  0  0  0  0  0  0  0  0  0
    4.8022    2.4983   -7.3741 H   0  0  0  0  0  0  0  0  0  0  0  0
    5.1465    0.7894   -6.0934 H   0  0  0  0  0  0  0  0  0  0  0  0
    6.0845    1.5750   -5.9889 H   0  0  0  0  0  0  0  0  0  0  0  0
    5.9812    2.2800   -4.4731 H   0  0  0  0  0  0  0  0  0  0  0  0
    2.6528   -0.0196   -5.6388 H   0  0  0  0  0  0  0  0  0  0  0  0
    6.7072    0.4682   -4.8103 H   0  0  0  0  0  0  0  0  0  0  0  0
    7.1735   -1.4381   -4.2889 H   0  0  0  0  0  0  0  0  0  0  0  0
    7.4609   -0.4235   -2.8717 H   0  0  0  0  0  0  0  0  0  0  0  0
    4.9982   -0.8775   -2.1897 H   0  0  0  0  0  0  0  0  0  0  0  0
    5.1189   -2.9437   -4.4471 H   0  0  0  0  0  0  0  0  0  0  0  0
    3.9722   -3.1141   -3.0494 H   0  0  0  0  0  0  0  0  0  0  0  0
    3.7387   -1.8884   -4.0120 H   0  0  0  0  0  0  0  0  0  0  0  0
    6.9896   -2.0456   -1.2841 H   0  0  0  0  0  0  0  0  0  0  0  0
    5.5642   -3.1423   -1.3925 H   0  0  0  0  0  0  0  0  0  0  0  0
    6.8773   -3.2348   -2.6175 H   0  0  0  0  0  0  0  0  0  0  0  0
    5.1675    1.5959   -2.6046 H   0  0  0  0  0  0  0  0  0  0  0  0
    7.8413    4.4522   -4.8255 H   0  0  0  0  0  0  0  0  0  0  0  0
    9.0546    2.2840   -4.2067 H   0  0  0  0  0  0  0  0  0  0  0  0
    8.4533   -0.0530   -7.7892 H   0  0  0  0  0  0  0  0  0  0  0  0
    6.0917   -0.4432   -7.1137 H   0  0  0  0  0  0  0  0  0  0  0  0
    5.8066    2.4034  -11.0869 H   0  0  0  0  0  0  0  0  0  0  0  0
    5.1675    6.0448   -9.2657 H   0  0  0  0  0  0  0  0  0  0  0  0
    3.5732    4.6828   -8.1391 H   0  0  0  0  0  0  0  0  0  0  0  0
    8.8302    2.6861   -7.7861 H   0  0  0  0  0  0  0  0  0  0  0  0
   10.0059    1.8816   -9.6394 H   0  0  0  0  0  0  0  0  0  0  0  0
    9.2588    3.5767   -9.3886 H   0  0  0  0  0  0  0  0  0  0  0  0
   10.4158    2.9167   -8.1817 H   0  0  0  0  0  0  0  0  0  0  0  0
    6.5799    1.5605   -9.2916 H   0  0  0  0  0  0  0  0  0  0  0  0
    7.5393    2.6048  -10.1937 H   0  0  0  0  0  0  0  0  0  0  0  0
    7.7418    0.8174  -10.1328 H   0  0  0  0  0  0  0  0  0  0  0  0
    6.5427    2.6346   -6.8792 H   0  0  0  0  0  0  0  0  0  0  0  0
    5.6612    5.5897   -6.6156 H   0  0  0  0  0  0  0  0  0  0  0  0
    5.1251    4.1360   -7.4998 H   0  0  0  0  0  0  0  0  0  0  0  0
    5.2237    4.0561   -6.2518 H   0  0  0  0  0  0  0  0  0  0  0  0
    8.0330    3.3832   -6.9065 H   0  0  0  0  0  0  0  0  0  0  0  0
    6.8325    3.4869   -8.4106 H   0  0  0  0  0  0  0  0  0  0  0  0
    7.7601    4.8902   -7.8505 H   0  0  0  0  0  0  0  0  0  0  0  0
  1  2  1  0  0  0  0
  1 46  1  0  0  0  0
  1 47  1  0  0  0  0
  1 48  1  0  0  0  0
  2  3  1  0  0  0  0
  2 49  1  0  0  0  0
  2 50  1  0  0  0  0
  3  4  1  0  0  0  0
  4  5  2  0  0  0  0
  4  6  1  0  0  0  0
  6  7  2  0  0  0  0
  6 51  1  0  0  0  0
  7 52  1  0  0  0  0
  8 16  1  0  0  0  0
  8 53  1  1  0  0  0
  8  9  1  0  0  0  0
  8  7  1  0  0  0  0
  9 54  1  0  0  0  0
  9 55  1  0  0  0  0
 10 11  1  0  0  0  0
 10 14  1  0  0  0  0
 10 56  1  6  0  0  0
 10  9  1  0  0  0  0
 11 12  1  0  0  0  0
 11 57  1  0  0  0  0
 11 58  1  0  0  0  0
 12 13  1  0  0  0  0
 12 59  1  0  0  0  0
 12 60  1  0  0  0  0
 13 14  1  0  0  0  0
 13 61  1  0  0  0  0
 14 15  2  0  0  0  0
 16 17  1  0  0  0  0
 16 62  1  0  0  0  0
 17 18  2  0  0  0  0
 19 24  1  0  0  0  0
 19 63  1  6  0  0  0
 19 20  1  0  0  0  0
 19 17  1  0  0  0  0
 20 21  1  0  0  0  0
 20 64  1  0  0  0  0
 20 65  1  0  0  0  0
 21 22  1  0  0  0  0
 21 23  1  0  0  0  0
 21 66  1  0  0  0  0
 22 67  1  0  0  0  0
 22 68  1  0  0  0  0
 22 69  1  0  0  0  0
 23 70  1  0  0  0  0
 23 71  1  0  0  0  0
 23 72  1  0  0  0  0
 24 25  1  0  0  0  0
 24 73  1  0  0  0  0
 25 26  2  0  0  0  0
 25 27  1  0  0  0  0
 27 28  1  0  0  0  0
 27 43  1  0  0  0  0
 27 74  1  1  0  0  0
 28 29  1  0  0  0  0
 28 75  1  0  0  0  0
 29 30  2  0  0  0  0
 29 31  1  0  0  0  0
 31 32  1  0  0  0  0
 31 40  1  0  0  0  0
 31 76  1  6  0  0  0
 32 33  1  0  0  0  0
 32 77  1  0  0  0  0
 33 34  2  0  0  0  0
 33 35  1  0  0  0  0
 35 36  2  0  0  0  0
 35 39  1  0  0  0  0
 36 37  1  0  0  0  0
 36 78  1  0  0  0  0
 37 38  1  0  0  0  0
 38 39  2  0  0  0  0
 38 79  1  0  0  0  0
 39 80  1  0  0  0  0
 40 41  1  0  0  0  0
 40 42  1  0  0  0  0
 40 81  1  0  0  0  0
 41 82  1  0  0  0  0
 41 83  1  0  0  0  0
 41 84  1  0  0  0  0
 42 85  1  0  0  0  0
 42 86  1  0  0  0  0
 42 87  1  0  0  0  0
 43 44  1  0  0  0  0
 43 45  1  0  0  0  0
 43 88  1  0  0  0  0
 44 89  1  0  0  0  0
 44 90  1  0  0  0  0
 44 91  1  0  0  0  0
 45 92  1  0  0  0  0
 45 93  1  0  0  0  0
 45 94  1  0  0  0  0
M  END
>  <DRUGBANK_ID>
DB04613

>  <COMMON_NAME>
(E)-(4S,6S)-6-((S)-2-{(S)-2-[(FURAN-2-CARBONYL)-AMINO]-3-METHYL-BUTYRYLAMINO}-3-METHYL-BUTYRYLAMINO)-8-METHYL-5-OXO-4-((R)-2-OXO-PYRROLIDIN-3-YLMETHYL)-NON-2-ENOIC ACID ETHYL ESTER

$$$$
