
 OpenBabel10282417123D

 83 85  0  0  0  0  0  0  0  0999 V2000
   -1.0917   -7.0468    3.9987 O   0  0  0  0  0  0  0  0  0  0  0  0
   -1.1396   -5.3182    3.9496 P   0  0  0  0  0  0  0  0  0  0  0  0
   -1.1874   -3.5895    3.9005 O   0  0  0  0  0  0  0  0  0  0  0  0
    0.2622   -5.2477    4.5361 O   0  0  0  0  0  0  0  0  0  0  0  0
   -1.0219   -5.3961    2.3147 O   0  0  0  0  0  0  0  0  0  0  0  0
   -4.0194   -2.4758   -2.9495 O   0  0  0  0  0  0  0  0  0  0  0  0
   -2.7758   -2.9776   -4.0425 P   0  0  3  0  0  0  0  0  0  0  0  0
   -1.9483   -1.6101   -3.7016 O   0  0  0  0  0  0  0  0  0  0  0  0
   -2.1122   -3.4951   -2.8178 O   0  0  0  0  0  0  0  0  0  0  0  0
   -1.5323   -3.4795   -5.1355 O   0  0  0  0  0  0  0  0  0  0  0  0
   -0.1352   -3.6736    0.8135 C   0  0  2  0  0  0  0  0  0  0  0  0
    0.6770   -4.7135    0.2350 O   0  0  0  0  0  0  0  0  0  0  0  0
   -1.3576   -4.2953    1.4991 C   0  0  1  0  0  0  0  0  0  0  0  0
   -0.7727   -2.8232   -0.2770 C   0  0  1  0  0  0  0  0  0  0  0  0
   -2.0288   -3.5089   -0.5103 O   0  0  0  0  0  0  0  0  0  0  0  0
   -2.2211   -4.6515    0.3243 C   0  0  2  0  0  0  0  0  0  0  0  0
   -3.7130   -4.7877    0.6307 C   0  0  0  0  0  0  0  0  0  0  0  0
   -4.5246   -4.9358   -0.5694 O   0  0  0  0  0  0  0  0  0  0  0  0
   -4.2720   -3.7058   -1.7594 P   0  0  3  0  0  0  0  0  0  0  0  0
    1.1402   -0.5509    0.6121 N   0  0  0  0  0  0  0  0  0  0  0  0
   -0.3640    1.7929    1.2285 C   0  0  0  0  0  0  0  0  0  0  0  0
    0.9756    1.7685    1.3809 N   0  0  0  0  0  0  0  0  0  0  0  0
    1.6348    0.6251    1.0647 C   0  0  0  0  0  0  0  0  0  0  0  0
   -0.9850    0.6362    0.7544 C   0  0  0  0  0  0  0  0  0  0  0  0
   -0.1886   -0.4699    0.4764 C   0  0  0  0  0  0  0  0  0  0  0  0
   -1.0605   -1.4409    0.0746 N   0  0  0  0  0  0  0  0  0  0  0  0
   -2.2793   -0.8340    0.0553 C   0  0  0  0  0  0  0  0  0  0  0  0
   -2.2973    0.3873    0.5110 N   0  0  0  0  0  0  0  0  0  0  0  0
   -1.0844    2.9257    1.5403 N   0  0  0  0  0  0  0  0  0  0  0  0
   -5.7500   -3.8082   -2.1485 O   0  0  0  0  0  0  0  0  0  0  0  0
   -4.4756   -2.5362   -0.6413 O   0  0  0  0  0  0  0  0  0  0  0  0
   -2.0826   -0.4309   -4.3703 C   0  0  0  0  0  0  0  0  0  0  0  0
   -1.6218   -0.7865   -5.7637 C   0  0  0  0  0  0  0  0  0  0  0  0
   -2.6757   -1.6632   -6.5207 C   0  0  0  0  0  0  0  0  0  0  0  0
   -1.7744    0.5284   -6.5476 C   0  0  0  0  0  0  0  0  0  0  0  0
   -0.0683   -1.3298   -5.6905 C   0  0  2  0  0  0  0  0  0  0  0  0
    0.7559   -2.6319   -4.7771 C   0  0  0  0  0  0  0  0  0  0  0  0
    0.0168   -3.4332   -3.8514 N   0  0  0  0  0  0  0  0  0  0  0  0
   -0.5858   -5.1313   -3.9293 C   0  0  0  0  0  0  0  0  0  0  0  0
   -1.9681   -5.6354   -3.1817 C   0  0  0  0  0  0  0  0  0  0  0  0
   -3.5173   -5.4600   -4.0258 C   0  0  0  0  0  0  0  0  0  0  0  0
   -4.6782   -5.9041   -3.4525 N   0  0  0  0  0  0  0  0  0  0  0  0
   -6.0421   -5.5175   -3.9887 C   0  0  0  0  0  0  0  0  0  0  0  0
   -6.4488   -6.5088   -5.0328 C   0  0  0  0  0  0  0  0  0  0  0  0
   -3.7344   -4.7732   -5.0346 O   0  0  0  0  0  0  0  0  0  0  0  0
    0.7010   -0.1878   -5.2704 O   0  0  0  0  0  0  0  0  0  0  0  0
    1.8876   -2.9386   -4.9741 O   0  0  0  0  0  0  0  0  0  0  0  0
   -0.1823   -7.2899    3.7343 H   0  0  0  0  0  0  0  0  0  0  0  0
   -0.2441   -3.3173    3.9240 H   0  0  0  0  0  0  0  0  0  0  0  0
   -0.6339   -3.7882   -5.2754 H   0  0  0  0  0  0  0  0  0  0  0  0
    0.4994   -3.1024    1.4896 H   0  0  0  0  0  0  0  0  0  0  0  0
    0.1462   -5.2162   -0.4071 H   0  0  0  0  0  0  0  0  0  0  0  0
   -1.9211   -3.5146    2.0178 H   0  0  0  0  0  0  0  0  0  0  0  0
   -0.1889   -2.8088   -1.2067 H   0  0  0  0  0  0  0  0  0  0  0  0
   -1.9098   -5.5620   -0.1954 H   0  0  0  0  0  0  0  0  0  0  0  0
   -3.9149   -5.6295    1.2957 H   0  0  0  0  0  0  0  0  0  0  0  0
   -4.0376   -3.9083    1.1965 H   0  0  0  0  0  0  0  0  0  0  0  0
    2.7111    0.6559    1.1992 H   0  0  0  0  0  0  0  0  0  0  0  0
   -3.1421   -1.3091   -0.3070 H   0  0  0  0  0  0  0  0  0  0  0  0
   -2.0875    2.9181    1.3999 H   0  0  0  0  0  0  0  0  0  0  0  0
   -0.6002    3.7432    1.8675 H   0  0  0  0  0  0  0  0  0  0  0  0
   -4.9726   -2.7483    0.1574 H   0  0  0  0  0  0  0  0  0  0  0  0
   -3.1057   -0.0761   -4.2501 H   0  0  0  0  0  0  0  0  0  0  0  0
   -1.4217    0.2925   -3.8694 H   0  0  0  0  0  0  0  0  0  0  0  0
   -3.6596   -1.1762   -6.5019 H   0  0  0  0  0  0  0  0  0  0  0  0
   -2.3201   -1.9316   -7.5120 H   0  0  0  0  0  0  0  0  0  0  0  0
   -2.9926   -2.6226   -6.1590 H   0  0  0  0  0  0  0  0  0  0  0  0
   -1.1513    1.3341   -6.1633 H   0  0  0  0  0  0  0  0  0  0  0  0
   -1.5598    0.3526   -7.6037 H   0  0  0  0  0  0  0  0  0  0  0  0
   -2.8228    0.8689   -6.4826 H   0  0  0  0  0  0  0  0  0  0  0  0
    0.1897   -1.5202   -6.7458 H   0  0  0  0  0  0  0  0  0  0  0  0
   -0.7803   -2.7995   -3.7954 H   0  0  0  0  0  0  0  0  0  0  0  0
   -0.8586   -5.4286   -4.9559 H   0  0  0  0  0  0  0  0  0  0  0  0
    0.3132   -5.6306   -3.6410 H   0  0  0  0  0  0  0  0  0  0  0  0
   -2.0831   -6.5620   -2.6301 H   0  0  0  0  0  0  0  0  0  0  0  0
   -1.7428   -5.1463   -2.2312 H   0  0  0  0  0  0  0  0  0  0  0  0
   -4.6453   -6.5930   -2.7205 H   0  0  0  0  0  0  0  0  0  0  0  0
   -6.7808   -5.5210   -3.1742 H   0  0  0  0  0  0  0  0  0  0  0  0
   -6.0726   -4.5062   -4.4410 H   0  0  0  0  0  0  0  0  0  0  0  0
   -6.4297   -7.4943   -4.5670 H   0  0  0  0  0  0  0  0  0  0  0  0
   -7.4490   -6.2909   -5.4167 H   0  0  0  0  0  0  0  0  0  0  0  0
   -5.7304   -6.4834   -5.8553 H   0  0  0  0  0  0  0  0  0  0  0  0
    0.6233   -0.1766   -4.2988 H   0  0  0  0  0  0  0  0  0  0  0  0
  1  2  1  0  0  0  0
  1 48  1  0  0  0  0
  2  4  2  0  0  0  0
  2  5  1  0  0  0  0
  2  3  1  0  0  0  0
  3 49  1  0  0  0  0
  6  7  1  0  0  0  0
  7  8  1  0  0  0  0
  7  9  2  0  0  0  0
  7 10  1  0  0  0  0
  8 32  1  0  0  0  0
 10 50  1  0  0  0  0
 11 14  1  0  0  0  0
 11 12  1  0  0  0  0
 11 51  1  1  0  0  0
 12 52  1  0  0  0  0
 13 11  1  0  0  0  0
 13 53  1  1  0  0  0
 13  5  1  0  0  0  0
 14 26  1  0  0  0  0
 14 15  1  0  0  0  0
 14 54  1  6  0  0  0
 15 16  1  0  0  0  0
 16 13  1  0  0  0  0
 16 17  1  0  0  0  0
 16 55  1  6  0  0  0
 17 18  1  0  0  0  0
 17 56  1  0  0  0  0
 17 57  1  0  0  0  0
 18 19  1  0  0  0  0
 19 30  2  0  0  0  0
 19 31  1  0  0  0  0
 19  6  1  0  0  0  0
 20 25  1  0  0  0  0
 20 23  2  0  0  0  0
 21 29  1  0  0  0  0
 21 22  2  0  0  0  0
 22 23  1  0  0  0  0
 23 58  1  0  0  0  0
 24 25  2  0  0  0  0
 24 21  1  0  0  0  0
 25 26  1  0  0  0  0
 26 27  1  0  0  0  0
 27 28  2  0  0  0  0
 27 59  1  0  0  0  0
 28 24  1  0  0  0  0
 29 60  1  0  0  0  0
 29 61  1  0  0  0  0
 31 62  1  0  0  0  0
 32 33  1  0  0  0  0
 32 63  1  0  0  0  0
 32 64  1  0  0  0  0
 33 34  1  0  0  0  0
 33 35  1  0  0  0  0
 34 65  1  0  0  0  0
 34 66  1  0  0  0  0
 34 67  1  0  0  0  0
 35 68  1  0  0  0  0
 35 69  1  0  0  0  0
 35 70  1  0  0  0  0
 36 46  1  0  0  0  0
 36 71  1  6  0  0  0
 36 37  1  0  0  0  0
 36 33  1  0  0  0  0
 37 38  1  0  0  0  0
 37 47  2  0  0  0  0
 38 39  1  0  0  0  0
 38 72  1  0  0  0  0
 39 40  1  0  0  0  0
 39 73  1  0  0  0  0
 39 74  1  0  0  0  0
 40 41  1  0  0  0  0
 40 75  1  0  0  0  0
 40 76  1  0  0  0  0
 41 42  1  0  0  0  0
 41 45  2  0  0  0  0
 42 43  1  0  0  0  0
 42 77  1  0  0  0  0
 43 44  1  0  0  0  0
 43 78  1  0  0  0  0
 43 79  1  0  0  0  0
 44 80  1  0  0  0  0
 44 81  1  0  0  0  0
 44 82  1  0  0  0  0
 46 83  1  0  0  0  0
M  END
>  <DRUGBANK_ID>
DB01829

>  <SECONDARY_ACCESSION_NUMBERS>
EXPT01129

>  <COMMON_NAME>
Desulfo-coenzyme A

>  <CAS_NUMBER>
5863-40-1

>  <SYNONYMS>
Coenzyme A, desulfo; Desulfo-coa

$$$$
