
 OpenBabel10282417133D

 99103  0  0  1  0  0  0  0  0999 V2000
    9.5117   16.5235   -1.4180 C   0  0  0  0  0  0  0  0  0  0  0  0
    8.4600   15.4838   -1.0591 C   0  0  1  0  0  0  0  0  0  0  0  0
    8.2186   15.3649    0.3955 N   0  0  0  0  0  0  0  0  0  0  0  0
    7.1038   14.6553    0.8911 C   0  0  0  0  0  0  0  0  0  0  0  0
    6.0776   14.4493    0.0179 C   0  0  0  0  0  0  0  0  0  0  0  0
    6.0848   14.9402   -1.2872 N   0  0  0  0  0  0  0  0  0  0  0  0
    5.3120   14.4436   -2.3866 C   0  0  0  0  0  0  0  0  0  0  0  0
    6.0176   14.9118   -3.5607 N   0  0  0  0  0  0  0  0  0  0  0  0
    7.1341   15.7975   -3.2643 C   0  0  1  0  0  0  0  0  0  0  0  0
    6.9136   17.1828   -3.8778 C   0  0  0  0  0  0  0  0  0  0  0  0
    7.1226   15.8735   -1.7260 C   0  0  2  0  0  0  0  0  0  0  0  0
    5.5744   14.5803   -4.8045 C   0  0  0  0  0  0  0  0  0  0  0  0
    6.4102   13.9603   -5.7358 C   0  0  0  0  0  0  0  0  0  0  0  0
    5.9175   13.5518   -6.9709 C   0  0  0  0  0  0  0  0  0  0  0  0
    4.5947   13.8320   -7.3109 C   0  0  0  0  0  0  0  0  0  0  0  0
    4.0446   13.3963   -8.6279 C   0  0  0  0  0  0  0  0  0  0  0  0
    2.9142   12.3885   -8.4998 C   0  0  1  0  0  0  0  0  0  0  0  0
    1.7881   12.9334   -7.7753 O   0  0  0  0  0  0  0  0  0  0  0  0
    2.4518   12.0332   -9.9426 C   0  0  1  0  0  0  0  0  0  0  0  0
    3.4533   11.3703  -10.7006 O   0  0  0  0  0  0  0  0  0  0  0  0
    1.2884   11.1040   -9.8177 C   0  0  2  0  0  0  0  0  0  0  0  0
    1.5624    9.7573  -10.1859 O   0  0  0  0  0  0  0  0  0  0  0  0
   -0.0655   11.5631  -10.2679 C   0  0  0  0  0  0  0  0  0  0  0  0
   -0.9605   10.5155   -9.9138 O   0  0  0  0  0  0  0  0  0  0  0  0
   -1.1576   10.3167   -8.5188 C   0  0  1  0  0  0  0  0  0  0  0  0
   -2.0802    9.2399   -8.4646 O   0  0  0  0  0  0  0  0  0  0  0  0
   -1.5242    8.0292   -7.8954 C   0  0  2  0  0  0  0  0  0  0  0  0
   -2.1903    7.7262   -6.5507 C   0  0  0  0  0  0  0  0  0  0  0  0
   -3.5730    7.8205   -6.8094 O   0  0  0  0  0  0  0  0  0  0  0  0
   -4.6897    8.9195   -6.3206 P   0  0  1  0  0  0  0  0  0  0  0  0
   -3.6199   10.0384   -6.7324 O   0  0  0  0  0  0  0  0  0  0  0  0
   -5.7016    7.8671   -6.5861 O   0  0  0  0  0  0  0  0  0  0  0  0
   -5.4451    9.8867   -7.4272 O   0  0  0  0  0  0  0  0  0  0  0  0
   -6.0125    9.6954   -8.7050 C   0  0  1  0  0  0  0  0  0  0  0  0
   -4.9474    9.5294   -9.8153 C   0  0  0  0  0  0  0  0  0  0  0  0
   -4.1718    8.2313   -9.7466 C   0  0  0  0  0  0  0  0  0  0  0  0
   -4.7985    6.8593   -9.8469 C   0  0  0  0  0  0  0  0  0  0  0  0
   -4.2882    6.1200  -10.8585 O   0  0  0  0  0  0  0  0  0  0  0  0
   -5.5585    6.3613   -9.0666 O   0  0  0  0  0  0  0  0  0  0  0  0
   -7.2828    8.7906   -8.8407 C   0  0  0  0  0  0  0  0  0  0  0  0
   -8.2585    9.3095   -9.6351 O   0  0  0  0  0  0  0  0  0  0  0  0
   -7.5254    7.7375   -8.2977 O   0  0  0  0  0  0  0  0  0  0  0  0
   -0.0696    8.2889   -7.7471 C   0  0  1  0  0  0  0  0  0  0  0  0
    0.5547    7.8362   -8.9425 O   0  0  0  0  0  0  0  0  0  0  0  0
   -0.0823    9.7933   -7.5262 C   0  0  2  0  0  0  0  0  0  0  0  0
   -0.5045   10.1463   -6.1913 O   0  0  0  0  0  0  0  0  0  0  0  0
    3.7862   14.5350   -6.4183 C   0  0  0  0  0  0  0  0  0  0  0  0
    4.2525   14.8477   -5.1586 C   0  0  0  0  0  0  0  0  0  0  0  0
    4.8938   13.6901    0.5098 C   0  0  0  0  0  0  0  0  0  0  0  0
    3.9073   13.4523   -0.1852 O   0  0  0  0  0  0  0  0  0  0  0  0
    4.9600   13.2751    1.7988 N   0  0  0  0  0  0  0  0  0  0  0  0
    6.0272   13.5347    2.5967 C   0  0  0  0  0  0  0  0  0  0  0  0
    5.9338   13.0490    3.8568 N   0  0  0  0  0  0  0  0  0  0  0  0
    7.0681   14.1976    2.1941 N   0  0  0  0  0  0  0  0  0  0  0  0
    9.8655   16.3547   -2.4441 H   0  0  0  0  0  0  0  0  0  0  0  0
   10.3765   16.4934   -0.7539 H   0  0  0  0  0  0  0  0  0  0  0  0
    9.0915   17.5351   -1.3951 H   0  0  0  0  0  0  0  0  0  0  0  0
    8.7924   14.5019   -1.4269 H   0  0  0  0  0  0  0  0  0  0  0  0
    8.9273   15.6069    1.0752 H   0  0  0  0  0  0  0  0  0  0  0  0
    4.2968   14.8463   -2.3373 H   0  0  0  0  0  0  0  0  0  0  0  0
    5.2936   13.3478   -2.3919 H   0  0  0  0  0  0  0  0  0  0  0  0
    8.0719   15.3719   -3.6387 H   0  0  0  0  0  0  0  0  0  0  0  0
    7.3125   17.2127   -4.8972 H   0  0  0  0  0  0  0  0  0  0  0  0
    5.8506   17.4444   -3.9315 H   0  0  0  0  0  0  0  0  0  0  0  0
    7.4244   17.9654   -3.3067 H   0  0  0  0  0  0  0  0  0  0  0  0
    6.8285   16.8742   -1.3800 H   0  0  0  0  0  0  0  0  0  0  0  0
    7.4423   13.7399   -5.4804 H   0  0  0  0  0  0  0  0  0  0  0  0
    6.5713   13.0208   -7.6591 H   0  0  0  0  0  0  0  0  0  0  0  0
    3.6903   14.2772   -9.1723 H   0  0  0  0  0  0  0  0  0  0  0  0
    4.8502   12.9434   -9.2135 H   0  0  0  0  0  0  0  0  0  0  0  0
    3.2462   11.4928   -7.9506 H   0  0  0  0  0  0  0  0  0  0  0  0
    2.0395   12.9599   -6.8316 H   0  0  0  0  0  0  0  0  0  0  0  0
    2.1159   12.9383  -10.4539 H   0  0  0  0  0  0  0  0  0  0  0  0
    4.2072   11.9625  -10.8205 H   0  0  0  0  0  0  0  0  0  0  0  0
    1.1514   11.0978   -8.7728 H   0  0  0  0  0  0  0  0  0  0  0  0
    1.4599    9.7101  -11.1544 H   0  0  0  0  0  0  0  0  0  0  0  0
   -0.3646   12.5130   -9.8070 H   0  0  0  0  0  0  0  0  0  0  0  0
   -0.0809   11.6715  -11.3542 H   0  0  0  0  0  0  0  0  0  0  0  0
   -1.6788   11.2072   -8.1362 H   0  0  0  0  0  0  0  0  0  0  0  0
   -1.7482    7.2188   -8.6010 H   0  0  0  0  0  0  0  0  0  0  0  0
   -1.8897    6.7138   -6.2484 H   0  0  0  0  0  0  0  0  0  0  0  0
   -1.9116    8.3791   -5.7212 H   0  0  0  0  0  0  0  0  0  0  0  0
   -2.6822    9.8173   -6.7694 H   0  0  0  0  0  0  0  0  0  0  0  0
   -6.4050   10.7085   -8.9204 H   0  0  0  0  0  0  0  0  0  0  0  0
   -5.3538    9.6577  -10.8215 H   0  0  0  0  0  0  0  0  0  0  0  0
   -4.2144   10.3573   -9.6975 H   0  0  0  0  0  0  0  0  0  0  0  0
   -3.2759    8.2935  -10.3755 H   0  0  0  0  0  0  0  0  0  0  0  0
   -3.8181    8.1947   -8.7494 H   0  0  0  0  0  0  0  0  0  0  0  0
   -3.4269    6.4508  -11.1548 H   0  0  0  0  0  0  0  0  0  0  0  0
   -8.3692   10.2675   -9.5394 H   0  0  0  0  0  0  0  0  0  0  0  0
    0.3862    7.7530   -6.9170 H   0  0  0  0  0  0  0  0  0  0  0  0
    1.0106    8.5852   -9.3827 H   0  0  0  0  0  0  0  0  0  0  0  0
    0.9515   10.0868   -7.5349 H   0  0  0  0  0  0  0  0  0  0  0  0
    0.2319   10.6634   -5.8089 H   0  0  0  0  0  0  0  0  0  0  0  0
    2.7768   14.8386   -6.6821 H   0  0  0  0  0  0  0  0  0  0  0  0
    3.5802   15.3486   -4.4676 H   0  0  0  0  0  0  0  0  0  0  0  0
    4.1558   12.7751    2.1351 H   0  0  0  0  0  0  0  0  0  0  0  0
    5.1396   12.5309    4.2026 H   0  0  0  0  0  0  0  0  0  0  0  0
    6.7117   13.1972    4.4858 H   0  0  0  0  0  0  0  0  0  0  0  0
  1 55  1  0  0  0  0
  1 56  1  0  0  0  0
  1 57  1  0  0  0  0
  2  1  1  0  0  0  0
  2  3  1  0  0  0  0
  2 11  1  0  0  0  0
  2 58  1  6  0  0  0
  3  4  1  0  0  0  0
  3 59  1  0  0  0  0
  4  5  2  0  0  0  0
  4 54  1  0  0  0  0
  5  6  1  0  0  0  0
  5 49  1  0  0  0  0
  6  7  1  0  0  0  0
  7  8  1  0  0  0  0
  7 60  1  0  0  0  0
  7 61  1  0  0  0  0
  8  9  1  0  0  0  0
  8 12  1  0  0  0  0
  9 11  1  0  0  0  0
  9 62  1  6  0  0  0
  9 10  1  0  0  0  0
 10 63  1  0  0  0  0
 10 64  1  0  0  0  0
 10 65  1  0  0  0  0
 11  6  1  0  0  0  0
 11 66  1  1  0  0  0
 12 13  2  0  0  0  0
 12 48  1  0  0  0  0
 13 14  1  0  0  0  0
 13 67  1  0  0  0  0
 14 15  2  0  0  0  0
 14 68  1  0  0  0  0
 15 16  1  0  0  0  0
 15 47  1  0  0  0  0
 16 17  1  0  0  0  0
 16 69  1  0  0  0  0
 16 70  1  0  0  0  0
 17 18  1  0  0  0  0
 17 19  1  0  0  0  0
 17 71  1  1  0  0  0
 18 72  1  0  0  0  0
 19 20  1  0  0  0  0
 19 73  1  6  0  0  0
 20 74  1  0  0  0  0
 21 23  1  0  0  0  0
 21 75  1  1  0  0  0
 21 22  1  0  0  0  0
 21 19  1  0  0  0  0
 22 76  1  0  0  0  0
 23 24  1  0  0  0  0
 23 77  1  0  0  0  0
 23 78  1  0  0  0  0
 25 26  1  0  0  0  0
 25 45  1  0  0  0  0
 25 79  1  1  0  0  0
 25 24  1  0  0  0  0
 26 27  1  0  0  0  0
 27 28  1  0  0  0  0
 27 43  1  0  0  0  0
 27 80  1  6  0  0  0
 28 29  1  0  0  0  0
 28 81  1  0  0  0  0
 28 82  1  0  0  0  0
 30 29  1  0  0  0  0
 30 31  1  0  0  0  0
 30 32  2  6  0  0  0
 30 33  1  0  0  0  0
 31 83  1  0  0  0  0
 34 33  1  0  0  0  0
 34 35  1  0  0  0  0
 34 40  1  0  0  0  0
 34 84  1  6  0  0  0
 35 36  1  0  0  0  0
 35 85  1  0  0  0  0
 35 86  1  0  0  0  0
 36 37  1  0  0  0  0
 36 87  1  0  0  0  0
 36 88  1  0  0  0  0
 37 38  1  0  0  0  0
 37 39  2  0  0  0  0
 38 89  1  0  0  0  0
 40 41  1  0  0  0  0
 40 42  2  0  0  0  0
 41 90  1  0  0  0  0
 43 45  1  0  0  0  0
 43 91  1  1  0  0  0
 43 44  1  0  0  0  0
 44 92  1  0  0  0  0
 45 93  1  6  0  0  0
 45 46  1  0  0  0  0
 46 94  1  0  0  0  0
 47 48  2  0  0  0  0
 47 95  1  0  0  0  0
 48 96  1  0  0  0  0
 49 50  2  0  0  0  0
 49 51  1  0  0  0  0
 51 52  1  0  0  0  0
 51 97  1  0  0  0  0
 52 53  1  0  0  0  0
 52 54  2  0  0  0  0
 53 98  1  0  0  0  0
 53 99  1  0  0  0  0
M  END
>  <DRUGBANK_ID>
DB03481

>  <SECONDARY_ACCESSION_NUMBERS>
EXPT01681

>  <COMMON_NAME>
5,10-Dimethylene Tetrahydromethanopterin

$$$$
