3IL
 OpenBabel10282417163D

 26 27  0  0  0  0  0  0  0  0999 V2000
   -1.5103    1.0663   -0.0553 N   0  0  0  0  0  0  0  0  0  0  0  0
   -2.3248   -0.0128   -0.2417 C   0  0  0  0  0  0  0  0  0  0  0  0
   -1.5838   -1.1636   -0.0573 C   0  0  0  0  0  0  0  0  0  0  0  0
    1.0216   -1.4186    0.0311 C   0  0  0  0  0  0  0  0  0  0  0  0
    2.2096   -0.6784   -0.0004 C   0  0  0  0  0  0  0  0  0  0  0  0
    2.1824    0.7145   -0.0157 C   0  0  0  0  0  0  0  0  0  0  0  0
    0.9725    1.4105    0.0042 C   0  0  0  0  0  0  0  0  0  0  0  0
   -0.2029    0.6540   -0.0155 C   0  0  0  0  0  0  0  0  0  0  0  0
   -0.2145   -0.7433   -0.0049 C   0  0  0  0  0  0  0  0  0  0  0  0
   -4.2925   -1.9670    1.3012 C   0  0  0  0  0  0  0  0  0  0  0  0
   -5.4507   -2.6357    1.0666 O   0  0  0  0  0  0  0  0  0  0  0  0
   -4.3070   -0.7811    1.6000 O   0  0  0  0  0  0  0  0  0  0  0  0
   -3.0403   -2.8605    1.1972 C   0  0  1  0  0  0  0  0  0  0  0  0
   -3.4837   -4.2378    1.1411 O   0  0  0  0  0  0  0  0  0  0  0  0
   -2.1248   -2.5587   -0.0068 C   0  0  0  0  0  0  0  0  0  0  0  0
   -2.4852   -2.7461    2.1351 H   0  0  0  0  0  0  0  0  0  0  0  0
   -1.8227    2.0267   -0.0186 H   0  0  0  0  0  0  0  0  0  0  0  0
   -3.3843    0.1408   -0.3969 H   0  0  0  0  0  0  0  0  0  0  0  0
    1.0593   -2.5031    0.0372 H   0  0  0  0  0  0  0  0  0  0  0  0
    3.1631   -1.1993   -0.0244 H   0  0  0  0  0  0  0  0  0  0  0  0
    3.1156    1.2710   -0.0514 H   0  0  0  0  0  0  0  0  0  0  0  0
    0.9489    2.4953   -0.0018 H   0  0  0  0  0  0  0  0  0  0  0  0
   -5.2973   -3.6005    1.1323 H   0  0  0  0  0  0  0  0  0  0  0  0
   -3.6891   -4.4515    0.2127 H   0  0  0  0  0  0  0  0  0  0  0  0
   -2.6461   -2.7771   -0.9477 H   0  0  0  0  0  0  0  0  0  0  0  0
   -1.2885   -3.2731    0.0173 H   0  0  0  0  0  0  0  0  0  0  0  0
  1  2  1  0  0  0  0
  1  8  1  0  0  0  0
  1 17  1  0  0  0  0
  2  3  2  0  0  0  0
  2 18  1  0  0  0  0
  3  9  1  0  0  0  0
  3 15  1  0  0  0  0
  4  5  2  0  0  0  0
  4  9  1  0  0  0  0
  4 19  1  0  0  0  0
  5  6  1  0  0  0  0
  5 20  1  0  0  0  0
  6  7  2  0  0  0  0
  6 21  1  0  0  0  0
  7  8  1  0  0  0  0
  7 22  1  0  0  0  0
  8  9  2  0  0  0  0
 10 11  1  0  0  0  0
 10 12  2  0  0  0  0
 10 13  1  0  0  0  0
 11 23  1  0  0  0  0
 13 14  1  0  0  0  0
 13 15  1  0  0  0  0
 13 16  1  1  0  0  0
 14 24  1  0  0  0  0
 15 25  1  0  0  0  0
 15 26  1  0  0  0  0
M  END
>  <DRUGBANK_ID>
DB07060

>  <COMMON_NAME>
3-(INDOL-3-YL) LACTATE

>  <UNII>
DJ9KH2U67F

$$$$
