
 OpenBabel10282417193D

 78 81  0  0  1  0  0  0  0  0999 V2000
    1.8196   -0.7072    2.2583 C   0  0  0  0  0  0  0  0  0  0  0  0
    0.6350   -0.4334    1.3158 C   0  0  2  0  0  0  0  0  0  0  0  0
   -0.1380    0.7692    1.8958 C   0  0  0  0  0  0  0  0  0  0  0  0
   -0.8189    1.5340    0.8342 N   0  0  0  0  0  0  0  0  0  0  0  0
   -1.4052    2.7783    1.3585 C   0  0  2  0  0  0  0  0  0  0  0  0
   -2.9188    2.8134    0.9239 C   0  0  0  0  0  0  0  0  0  0  0  0
   -3.2832    3.2593   -0.1652 O   0  0  0  0  0  0  0  0  0  0  0  0
   -3.8289    2.3227    1.8350 N   0  0  0  0  0  0  0  0  0  0  0  0
   -5.2877    2.4757    1.5944 C   0  0  1  0  0  0  0  0  0  0  0  0
   -6.1889    1.4409    2.3081 C   0  0  0  0  0  0  0  0  0  0  0  0
   -7.2038    1.7553    2.9449 O   0  0  0  0  0  0  0  0  0  0  0  0
   -5.8039    0.1291    2.2013 N   0  0  0  0  0  0  0  0  0  0  0  0
   -6.2819   -0.8637    3.1779 C   0  0  1  0  0  0  0  0  0  0  0  0
   -6.1603   -2.2367    2.4869 C   0  0  0  0  0  0  0  0  0  0  0  0
   -6.9090   -2.5835    1.5741 O   0  0  0  0  0  0  0  0  0  0  0  0
   -4.9907   -2.9136    2.7507 N   0  0  0  0  0  0  0  0  0  0  0  0
   -4.2285   -3.4710    1.6635 C   0  0  0  0  0  0  0  0  0  0  0  0
   -3.0252   -4.2165    2.2033 C   0  0  0  0  0  0  0  0  0  0  0  0
   -1.9420   -3.2258    2.6420 C   0  0  0  0  0  0  0  0  0  0  0  0
   -0.5931   -3.6479    2.1332 C   0  0  0  0  0  0  0  0  0  0  0  0
   -0.0773   -4.9031    2.4912 C   0  0  0  0  0  0  0  0  0  0  0  0
    1.1926   -5.2869    2.0717 C   0  0  0  0  0  0  0  0  0  0  0  0
    1.9429   -4.4358    1.2650 C   0  0  0  0  0  0  0  0  0  0  0  0
    1.4147   -3.2137    0.8523 C   0  0  0  0  0  0  0  0  0  0  0  0
    0.1754   -2.7915    1.3341 C   0  0  0  0  0  0  0  0  0  0  0  0
   -0.3003   -1.5218    1.1350 O   0  0  0  0  0  0  0  0  0  0  0  0
   -5.4712   -0.7947    4.5196 C   0  0  0  0  0  0  0  0  0  0  0  0
   -5.5653    0.4677    5.3659 C   0  0  0  0  0  0  0  0  0  0  0  0
   -6.7990    1.0609    5.6301 C   0  0  0  0  0  0  0  0  0  0  0  0
   -6.8598    2.4190    5.9572 C   0  0  0  0  0  0  0  0  0  0  0  0
   -5.6911    3.1522    6.1117 C   0  0  0  0  0  0  0  0  0  0  0  0
   -4.4565    2.5272    6.0518 C   0  0  0  0  0  0  0  0  0  0  0  0
   -4.3952    1.1654    5.7330 C   0  0  0  0  0  0  0  0  0  0  0  0
   -5.7520    4.4793    6.2817 F   0  0  0  0  0  0  0  0  0  0  0  0
   -5.7987    3.8847    1.9333 C   0  0  0  0  0  0  0  0  0  0  0  0
   -3.3761    1.7790    3.0725 C   0  0  0  0  0  0  0  0  0  0  0  0
   -0.8771    4.1429    1.0719 C   0  0  0  0  0  0  0  0  0  0  0  0
   -0.3647    4.5976   -0.2665 C   0  0  0  0  0  0  0  0  0  0  0  0
    0.5020    4.7338    0.9656 C   0  0  0  0  0  0  0  0  0  0  0  0
    1.9058    0.0229    3.0651 H   0  0  0  0  0  0  0  0  0  0  0  0
    2.7387   -0.6434    1.6671 H   0  0  0  0  0  0  0  0  0  0  0  0
    1.7956   -1.6762    2.7576 H   0  0  0  0  0  0  0  0  0  0  0  0
    1.0015   -0.1602    0.3191 H   0  0  0  0  0  0  0  0  0  0  0  0
   -0.8438    0.3839    2.6445 H   0  0  0  0  0  0  0  0  0  0  0  0
    0.5433    1.4507    2.4136 H   0  0  0  0  0  0  0  0  0  0  0  0
   -1.5777    0.9303    0.4957 H   0  0  0  0  0  0  0  0  0  0  0  0
   -1.3361    2.7386    2.4471 H   0  0  0  0  0  0  0  0  0  0  0  0
   -5.4287    2.3028    0.5237 H   0  0  0  0  0  0  0  0  0  0  0  0
   -5.2776   -0.1527    1.3774 H   0  0  0  0  0  0  0  0  0  0  0  0
   -7.3473   -0.6935    3.3657 H   0  0  0  0  0  0  0  0  0  0  0  0
   -4.5234   -2.8057    3.6387 H   0  0  0  0  0  0  0  0  0  0  0  0
   -4.8707   -4.1168    1.0620 H   0  0  0  0  0  0  0  0  0  0  0  0
   -3.9132   -2.6357    1.0217 H   0  0  0  0  0  0  0  0  0  0  0  0
   -3.3077   -4.8412    3.0604 H   0  0  0  0  0  0  0  0  0  0  0  0
   -2.6631   -4.8868    1.4164 H   0  0  0  0  0  0  0  0  0  0  0  0
   -2.1817   -2.2185    2.2827 H   0  0  0  0  0  0  0  0  0  0  0  0
   -1.9064   -3.1362    3.7350 H   0  0  0  0  0  0  0  0  0  0  0  0
   -0.6606   -5.5807    3.1116 H   0  0  0  0  0  0  0  0  0  0  0  0
    1.5970   -6.2473    2.3783 H   0  0  0  0  0  0  0  0  0  0  0  0
    2.9545   -4.7070    0.9788 H   0  0  0  0  0  0  0  0  0  0  0  0
    2.0206   -2.5520    0.2411 H   0  0  0  0  0  0  0  0  0  0  0  0
   -5.7404   -1.6460    5.1497 H   0  0  0  0  0  0  0  0  0  0  0  0
   -4.4097   -0.9118    4.2515 H   0  0  0  0  0  0  0  0  0  0  0  0
   -7.7239    0.5290    5.4238 H   0  0  0  0  0  0  0  0  0  0  0  0
   -7.8183    2.9259    5.9885 H   0  0  0  0  0  0  0  0  0  0  0  0
   -3.5514    3.1224    6.1384 H   0  0  0  0  0  0  0  0  0  0  0  0
   -3.4138    0.7322    5.5330 H   0  0  0  0  0  0  0  0  0  0  0  0
   -6.4421    4.2127    1.1106 H   0  0  0  0  0  0  0  0  0  0  0  0
   -6.4227    3.9076    2.8351 H   0  0  0  0  0  0  0  0  0  0  0  0
   -5.0168    4.6342    2.0816 H   0  0  0  0  0  0  0  0  0  0  0  0
   -2.7632    0.8939    2.9083 H   0  0  0  0  0  0  0  0  0  0  0  0
   -2.8581    2.5145    3.6944 H   0  0  0  0  0  0  0  0  0  0  0  0
   -4.2510    1.4510    3.5691 H   0  0  0  0  0  0  0  0  0  0  0  0
   -1.5616    4.8230    1.5815 H   0  0  0  0  0  0  0  0  0  0  0  0
   -0.0098    3.9065   -1.0209 H   0  0  0  0  0  0  0  0  0  0  0  0
   -0.9187    5.4380   -0.6733 H   0  0  0  0  0  0  0  0  0  0  0  0
    0.6056    5.7284    1.3972 H   0  0  0  0  0  0  0  0  0  0  0  0
    1.4062    4.1453    1.0036 H   0  0  0  0  0  0  0  0  0  0  0  0
  1 40  1  0  0  0  0
  1 41  1  0  0  0  0
  1 42  1  0  0  0  0
  2  3  1  0  0  0  0
  2 26  1  0  0  0  0
  2 43  1  6  0  0  0
  2  1  1  0  0  0  0
  3  4  1  0  0  0  0
  3 44  1  0  0  0  0
  3 45  1  0  0  0  0
  4  5  1  0  0  0  0
  4 46  1  0  0  0  0
  5  6  1  0  0  0  0
  5 47  1  1  0  0  0
  5 37  1  0  0  0  0
  6  7  2  0  0  0  0
  6  8  1  0  0  0  0
  8  9  1  0  0  0  0
  8 36  1  0  0  0  0
  9 10  1  0  0  0  0
  9 48  1  6  0  0  0
  9 35  1  0  0  0  0
 10 11  2  0  0  0  0
 10 12  1  0  0  0  0
 12 13  1  0  0  0  0
 12 49  1  0  0  0  0
 13 14  1  0  0  0  0
 13 27  1  0  0  0  0
 13 50  1  1  0  0  0
 14 15  2  0  0  0  0
 14 16  1  0  0  0  0
 16 17  1  0  0  0  0
 16 51  1  0  0  0  0
 17 18  1  0  0  0  0
 17 52  1  0  0  0  0
 17 53  1  0  0  0  0
 18 19  1  0  0  0  0
 18 54  1  0  0  0  0
 18 55  1  0  0  0  0
 19 20  1  0  0  0  0
 19 56  1  0  0  0  0
 19 57  1  0  0  0  0
 20 21  2  0  0  0  0
 20 25  1  0  0  0  0
 21 22  1  0  0  0  0
 21 58  1  0  0  0  0
 22 23  2  0  0  0  0
 22 59  1  0  0  0  0
 23 24  1  0  0  0  0
 23 60  1  0  0  0  0
 24 25  2  0  0  0  0
 24 61  1  0  0  0  0
 25 26  1  0  0  0  0
 27 28  1  0  0  0  0
 27 62  1  0  0  0  0
 27 63  1  0  0  0  0
 28 29  2  0  0  0  0
 28 33  1  0  0  0  0
 29 30  1  0  0  0  0
 29 64  1  0  0  0  0
 30 31  2  0  0  0  0
 30 65  1  0  0  0  0
 31 32  1  0  0  0  0
 31 34  1  0  0  0  0
 32 33  2  0  0  0  0
 32 66  1  0  0  0  0
 33 67  1  0  0  0  0
 35 68  1  0  0  0  0
 35 69  1  0  0  0  0
 35 70  1  0  0  0  0
 36 71  1  0  0  0  0
 36 72  1  0  0  0  0
 36 73  1  0  0  0  0
 37 38  1  0  0  0  0
 37 39  1  0  0  0  0
 37 74  1  0  0  0  0
 38 39  1  0  0  0  0
 38 75  1  0  0  0  0
 38 76  1  0  0  0  0
 39 77  1  0  0  0  0
 39 78  1  0  0  0  0
M  END
>  <DRUGBANK_ID>
DB12128

>  <SECONDARY_ACCESSION_NUMBERS>
DB05657

>  <COMMON_NAME>
Ulimorelin

>  <CAS_NUMBER>
842131-33-3

>  <UNII>
LGI67MCW2S

>  <SYNONYMS>
Ulimorelin

$$$$
