
 OpenBabel10282417103D

 46 48  0  0  0  0  0  0  0  0999 V2000
    2.2802    2.5820    2.9659 O   0  0  0  0  0  0  0  0  0  0  0  0
    1.9570    1.3907    1.6042 C   0  0  1  0  0  0  0  0  0  0  0  0
    0.2322    1.8417    1.3684 C   0  0  2  0  0  0  0  0  0  0  0  0
   -0.1877    3.2426    1.0461 O   0  0  0  0  0  0  0  0  0  0  0  0
   -0.0305    4.1180    2.1473 C   0  0  0  0  0  0  0  0  0  0  0  0
   -0.6686    3.7383    3.4301 C   0  0  0  0  0  0  0  0  0  0  0  0
   -0.3814    2.3097    3.7464 N   0  0  0  0  0  0  0  0  0  0  0  0
   -0.6116    1.4771    2.5463 C   0  0  0  0  0  0  0  0  0  0  0  0
   -0.0756    1.2991    0.4765 H   0  0  0  0  0  0  0  0  0  0  0  0
    3.2573    1.5040    0.0128 C   0  0  0  0  0  0  0  0  0  0  0  0
    2.9287    1.0121   -1.1387 C   0  0  0  0  0  0  0  0  0  0  0  0
    3.7285    1.6672   -2.0930 C   0  0  0  0  0  0  0  0  0  0  0  0
    4.8566    2.7259   -1.9433 C   0  0  0  0  0  0  0  0  0  0  0  0
    5.1973    3.4830   -0.8891 C   0  0  0  0  0  0  0  0  0  0  0  0
    4.4013    2.9479   -0.0035 C   0  0  0  0  0  0  0  0  0  0  0  0
    2.7866    4.1417    2.8254 C   0  0  0  0  0  0  0  0  0  0  0  0
    2.5729    4.9232    1.6228 C   0  0  0  0  0  0  0  0  0  0  0  0
    2.4331    4.4385    0.4135 O   0  0  0  0  0  0  0  0  0  0  0  0
    2.3882    3.1512    0.7364 C   0  0  0  0  0  0  0  0  0  0  0  0
    3.9167    2.0831    1.8213 C   0  0  0  0  0  0  0  0  0  0  0  0
    2.1396    6.2273    1.5195 C   0  0  0  0  0  0  0  0  0  0  0  0
    2.0515    6.8990    2.6864 C   0  0  0  0  0  0  0  0  0  0  0  0
    2.3568    6.2290    3.8932 C   0  0  0  0  0  0  0  0  0  0  0  0
    2.7661    4.8680    3.9875 C   0  0  0  0  0  0  0  0  0  0  0  0
    2.0748    0.4155    2.0981 H   0  0  0  0  0  0  0  0  0  0  0  0
   -0.0282    5.1896    1.9299 H   0  0  0  0  0  0  0  0  0  0  0  0
    0.9127    3.8908    2.4744 H   0  0  0  0  0  0  0  0  0  0  0  0
   -1.6998    3.9823    3.2257 H   0  0  0  0  0  0  0  0  0  0  0  0
   -0.2380    4.3801    4.2210 H   0  0  0  0  0  0  0  0  0  0  0  0
    0.6360    2.2597    3.9317 H   0  0  0  0  0  0  0  0  0  0  0  0
   -1.6378    1.6162    2.1893 H   0  0  0  0  0  0  0  0  0  0  0  0
   -0.3756    0.4318    2.7200 H   0  0  0  0  0  0  0  0  0  0  0  0
    2.0457    0.4053   -1.2113 H   0  0  0  0  0  0  0  0  0  0  0  0
    3.4898    1.4380   -3.1155 H   0  0  0  0  0  0  0  0  0  0  0  0
    5.5348    2.8416   -2.7617 H   0  0  0  0  0  0  0  0  0  0  0  0
    5.9560    4.2160   -0.6124 H   0  0  0  0  0  0  0  0  0  0  0  0
    4.6408    3.5986    0.9684 H   0  0  0  0  0  0  0  0  0  0  0  0
    1.5718    2.4515    0.2785 H   0  0  0  0  0  0  0  0  0  0  0  0
    2.0238    3.0606   -0.3720 H   0  0  0  0  0  0  0  0  0  0  0  0
    4.2883    2.4791    2.7373 H   0  0  0  0  0  0  0  0  0  0  0  0
    3.8232    0.9208    1.8953 H   0  0  0  0  0  0  0  0  0  0  0  0
    4.9142    1.7625    1.3136 H   0  0  0  0  0  0  0  0  0  0  0  0
    1.6216    6.5423    0.5963 H   0  0  0  0  0  0  0  0  0  0  0  0
    1.6847    7.9129    2.6372 H   0  0  0  0  0  0  0  0  0  0  0  0
    2.1640    6.7853    4.8007 H   0  0  0  0  0  0  0  0  0  0  0  0
    2.9529    4.3956    4.9373 H   0  0  0  0  0  0  0  0  0  0  0  0
  2  1  1  0  0  0  0
  2 10  1  0  0  0  0
  2 25  1  1  0  0  0
  3  4  1  0  0  0  0
  3  9  1  6  0  0  0
  3  2  1  0  0  0  0
  5  4  1  0  0  0  0
  5 26  1  0  0  0  0
  5 27  1  0  0  0  0
  6  5  1  0  0  0  0
  6  7  1  0  0  0  0
  6 28  1  0  0  0  0
  6 29  1  0  0  0  0
  7  8  1  0  0  0  0
  7 30  1  0  0  0  0
  8  3  1  0  0  0  0
  8 31  1  0  0  0  0
  8 32  1  0  0  0  0
 11 10  1  0  0  0  0
 11 33  1  0  0  0  0
 12 11  2  0  0  0  0
 12 34  1  0  0  0  0
 13 12  1  0  0  0  0
 13 14  2  0  0  0  0
 13 35  1  0  0  0  0
 14 15  1  0  0  0  0
 14 36  1  0  0  0  0
 15 10  2  0  0  0  0
 15 37  1  0  0  0  0
 16  1  1  0  0  0  0
 17 16  1  0  0  0  0
 18 17  1  0  0  0  0
 19 18  1  0  0  0  0
 19 38  1  0  0  0  0
 19 39  1  0  0  0  0
 20 19  1  0  0  0  0
 20 40  1  0  0  0  0
 20 41  1  0  0  0  0
 20 42  1  0  0  0  0
 21 17  2  0  0  0  0
 21 43  1  0  0  0  0
 22 21  1  0  0  0  0
 22 23  2  0  0  0  0
 22 44  1  0  0  0  0
 23 24  1  0  0  0  0
 23 45  1  0  0  0  0
 24 16  2  0  0  0  0
 24 46  1  0  0  0  0
M  END
>  <DRUGBANK_ID>
DB00234

>  <SECONDARY_ACCESSION_NUMBERS>
APRD00198

>  <COMMON_NAME>
Reboxetine

>  <CAS_NUMBER>
71620-89-8

>  <UNII>
947S0YZ36I

>  <SYNONYMS>
Reboxetina; Reboxetine

$$$$
