D1G
 OpenBabel10282417163D

 29 30  0  0  0  0  0  0  0  0999 V2000
    0.7036    1.2656    0.0788 C   0  0  0  0  0  0  0  0  0  0  0  0
    1.4314    0.0703    0.0427 C   0  0  0  0  0  0  0  0  0  0  0  0
    0.7683   -1.1553    0.0197 C   0  0  0  0  0  0  0  0  0  0  0  0
   -0.6150   -1.1480    0.0232 C   0  0  0  0  0  0  0  0  0  0  0  0
   -1.3579   -0.0193    0.0446 N   0  0  0  0  0  0  0  0  0  0  0  0
   -0.6810    1.1613    0.0739 C   0  0  0  0  0  0  0  0  0  0  0  0
    1.3978    2.5367   -0.0336 C   0  0  0  0  0  0  0  0  0  0  0  0
    2.2668    3.0056   -0.9931 C   0  0  0  0  0  0  0  0  0  0  0  0
    2.6777    4.2850   -0.5789 C   0  0  0  0  0  0  0  0  0  0  0  0
    2.0365    4.5382    0.6173 C   0  0  0  0  0  0  0  0  0  0  0  0
    1.2434    3.4684    0.9602 O   0  0  0  0  0  0  0  0  0  0  0  0
    2.0772    5.7559    1.4913 C   0  0  0  0  0  0  0  0  0  0  0  0
    0.7927    6.4726    1.6009 N   0  0  0  0  0  0  0  0  0  0  0  0
    0.9700    7.6884    2.4028 C   0  0  0  0  0  0  0  0  0  0  0  0
    0.2631    6.8364    0.2846 C   0  0  0  0  0  0  0  0  0  0  0  0
    2.5178    0.0900    0.0191 H   0  0  0  0  0  0  0  0  0  0  0  0
    1.3204   -2.0881   -0.0102 H   0  0  0  0  0  0  0  0  0  0  0  0
   -1.1777   -2.0780    0.0040 H   0  0  0  0  0  0  0  0  0  0  0  0
   -1.3140    2.0447    0.0494 H   0  0  0  0  0  0  0  0  0  0  0  0
    2.5558    2.4765   -1.8902 H   0  0  0  0  0  0  0  0  0  0  0  0
    3.3479    4.9617   -1.0869 H   0  0  0  0  0  0  0  0  0  0  0  0
    2.4380    5.4671    2.4865 H   0  0  0  0  0  0  0  0  0  0  0  0
    2.8343    6.4365    1.0736 H   0  0  0  0  0  0  0  0  0  0  0  0
    1.6655    8.3954    1.9329 H   0  0  0  0  0  0  0  0  0  0  0  0
    0.0109    8.2002    2.5422 H   0  0  0  0  0  0  0  0  0  0  0  0
    1.3491    7.4511    3.4029 H   0  0  0  0  0  0  0  0  0  0  0  0
    0.9443    7.4975   -0.2636 H   0  0  0  0  0  0  0  0  0  0  0  0
    0.0719    5.9509   -0.3301 H   0  0  0  0  0  0  0  0  0  0  0  0
   -0.7031    7.3415    0.3884 H   0  0  0  0  0  0  0  0  0  0  0  0
  1  2  2  0  0  0  0
  1  6  1  0  0  0  0
  1  7  1  0  0  0  0
  2  3  1  0  0  0  0
  2 16  1  0  0  0  0
  3  4  2  0  0  0  0
  3 17  1  0  0  0  0
  4  5  1  0  0  0  0
  4 18  1  0  0  0  0
  5  6  2  0  0  0  0
  6 19  1  0  0  0  0
  7  8  2  0  0  0  0
  7 11  1  0  0  0  0
  8  9  1  0  0  0  0
  8 20  1  0  0  0  0
  9 10  2  0  0  0  0
  9 21  1  0  0  0  0
 10 11  1  0  0  0  0
 10 12  1  0  0  0  0
 12 13  1  0  0  0  0
 12 22  1  0  0  0  0
 12 23  1  0  0  0  0
 13 14  1  0  0  0  0
 13 15  1  0  0  0  0
 14 24  1  0  0  0  0
 14 25  1  0  0  0  0
 14 26  1  0  0  0  0
 15 27  1  0  0  0  0
 15 28  1  0  0  0  0
 15 29  1  0  0  0  0
M  END
>  <DRUGBANK_ID>
DB07609

>  <COMMON_NAME>
N,N-DIMETHYL(5-(PYRIDIN-3-YL)FURAN-2-YL)METHANAMINE

$$$$
