12U
 OpenBabel10282417163D

 62 64  0  0  0  0  0  0  0  0999 V2000
    1.0095    0.0165   -0.0479 O   0  0  0  0  0  0  0  0  0  0  0  0
    2.2126   -0.0993   -0.1512 C   0  0  0  0  0  0  0  0  0  0  0  0
    2.9923    0.9162   -0.6522 N   0  0  0  0  0  0  0  0  0  0  0  0
    4.4453    1.0339   -0.5845 C   0  0  0  0  0  0  0  0  0  0  0  0
    4.9208    1.7311   -1.7786 C   0  0  0  0  0  0  0  0  0  0  0  0
    4.7374    3.1134   -1.9533 C   0  0  0  0  0  0  0  0  0  0  0  0
    5.2206    3.7098   -3.0812 C   0  0  0  0  0  0  0  0  0  0  0  0
    5.8972    2.9197   -4.0070 C   0  0  0  0  0  0  0  0  0  0  0  0
    6.2510    3.5192   -5.3082 C   0  0  0  0  0  0  0  0  0  0  0  0
    6.8055    2.8370   -6.2573 N   0  0  0  0  0  0  0  0  0  0  0  0
    5.9721    4.8199   -5.5734 N   0  0  0  0  0  0  0  0  0  0  0  0
    6.1668    1.5627   -3.7499 C   0  0  0  0  0  0  0  0  0  0  0  0
    5.6316    0.9499   -2.6539 C   0  0  0  0  0  0  0  0  0  0  0  0
    2.9951   -1.3152    0.2958 C   0  0  2  0  0  0  0  0  0  0  0  0
    2.2304   -2.6054    0.0296 C   0  0  0  0  0  0  0  0  0  0  0  0
    3.1421   -3.6245    0.7035 C   0  0  0  0  0  0  0  0  0  0  0  0
    3.7348   -2.8808    1.9001 C   0  0  0  0  0  0  0  0  0  0  0  0
    3.4158   -1.4842    1.6893 N   0  0  0  0  0  0  0  0  0  0  0  0
    3.6164   -0.6068    2.7372 C   0  0  0  0  0  0  0  0  0  0  0  0
    4.1075   -0.9958    3.8037 O   0  0  0  0  0  0  0  0  0  0  0  0
    3.0949    0.8148    2.6849 C   0  0  0  0  0  0  0  0  0  0  0  0
    3.9280    1.7149    1.9161 N   0  0  0  0  0  0  0  0  0  0  0  0
    3.3663    2.9530    1.3656 C   0  0  0  0  0  0  0  0  0  0  0  0
    4.1574    4.1863    1.7857 C   0  0  0  0  0  0  0  0  0  0  0  0
    3.3350    5.4572    1.5891 C   0  0  0  0  0  0  0  0  0  0  0  0
    2.3940    5.6751    2.7802 C   0  0  0  0  0  0  0  0  0  0  0  0
    1.1707    4.7587    2.9354 C   0  0  0  0  0  0  0  0  0  0  0  0
    1.4859    3.2978    2.8405 C   0  0  0  0  0  0  0  0  0  0  0  0
    1.8555    2.9995    1.4196 C   0  0  0  0  0  0  0  0  0  0  0  0
    3.8800   -1.4046   -0.3402 H   0  0  0  0  0  0  0  0  0  0  0  0
    2.4504    1.7511   -0.8345 H   0  0  0  0  0  0  0  0  0  0  0  0
    4.9027    1.7059    0.1308 H   0  0  0  0  0  0  0  0  0  0  0  0
    4.9595    0.1111   -0.3214 H   0  0  0  0  0  0  0  0  0  0  0  0
    4.2326    3.7638   -1.2477 H   0  0  0  0  0  0  0  0  0  0  0  0
    5.0384    4.7709   -3.1960 H   0  0  0  0  0  0  0  0  0  0  0  0
    6.9663    1.8682   -5.9822 H   0  0  0  0  0  0  0  0  0  0  0  0
    5.3822    5.4010   -4.9987 H   0  0  0  0  0  0  0  0  0  0  0  0
    6.1091    5.1092   -6.5305 H   0  0  0  0  0  0  0  0  0  0  0  0
    6.7767    0.9354   -4.3802 H   0  0  0  0  0  0  0  0  0  0  0  0
    5.7643   -0.1090   -2.4490 H   0  0  0  0  0  0  0  0  0  0  0  0
    1.2395   -2.5937    0.4984 H   0  0  0  0  0  0  0  0  0  0  0  0
    2.1000   -2.7978   -1.0409 H   0  0  0  0  0  0  0  0  0  0  0  0
    2.6089   -4.5294    0.9997 H   0  0  0  0  0  0  0  0  0  0  0  0
    3.9447   -3.9124    0.0133 H   0  0  0  0  0  0  0  0  0  0  0  0
    3.3139   -3.2148    2.8513 H   0  0  0  0  0  0  0  0  0  0  0  0
    4.8256   -2.9846    1.9317 H   0  0  0  0  0  0  0  0  0  0  0  0
    2.0566    0.7251    2.3650 H   0  0  0  0  0  0  0  0  0  0  0  0
    3.0904    1.1952    3.7075 H   0  0  0  0  0  0  0  0  0  0  0  0
    4.9190    1.7053    2.1402 H   0  0  0  0  0  0  0  0  0  0  0  0
    3.5087    3.0077    0.3000 H   0  0  0  0  0  0  0  0  0  0  0  0
    4.4930    4.0864    2.8214 H   0  0  0  0  0  0  0  0  0  0  0  0
    5.0763    4.2538    1.1794 H   0  0  0  0  0  0  0  0  0  0  0  0
    4.0281    6.3046    1.5284 H   0  0  0  0  0  0  0  0  0  0  0  0
    2.7927    5.4500    0.6336 H   0  0  0  0  0  0  0  0  0  0  0  0
    3.0015    5.5840    3.6888 H   0  0  0  0  0  0  0  0  0  0  0  0
    2.0227    6.7004    2.7398 H   0  0  0  0  0  0  0  0  0  0  0  0
    0.7365    4.9135    3.9242 H   0  0  0  0  0  0  0  0  0  0  0  0
    0.4121    5.0006    2.1844 H   0  0  0  0  0  0  0  0  0  0  0  0
    2.3070    3.0944    3.5369 H   0  0  0  0  0  0  0  0  0  0  0  0
    0.6592    2.6476    3.1359 H   0  0  0  0  0  0  0  0  0  0  0  0
    1.4349    3.6881    0.6729 H   0  0  0  0  0  0  0  0  0  0  0  0
    1.4125    2.0572    1.1036 H   0  0  0  0  0  0  0  0  0  0  0  0
  1  2  2  0  0  0  0
  2  3  1  0  0  0  0
  3  4  1  0  0  0  0
  3 31  1  0  0  0  0
  4  5  1  0  0  0  0
  4 32  1  0  0  0  0
  4 33  1  0  0  0  0
  5  6  2  0  0  0  0
  5 13  1  0  0  0  0
  6  7  1  0  0  0  0
  6 34  1  0  0  0  0
  7  8  2  0  0  0  0
  7 35  1  0  0  0  0
  8  9  1  0  0  0  0
  8 12  1  0  0  0  0
  9 10  2  0  0  0  0
  9 11  1  0  0  0  0
 10 36  1  0  0  0  0
 11 37  1  0  0  0  0
 11 38  1  0  0  0  0
 12 13  2  0  0  0  0
 12 39  1  0  0  0  0
 13 40  1  0  0  0  0
 14  2  1  0  0  0  0
 14 15  1  0  0  0  0
 14 18  1  0  0  0  0
 14 30  1  6  0  0  0
 15 16  1  0  0  0  0
 15 41  1  0  0  0  0
 15 42  1  0  0  0  0
 16 17  1  0  0  0  0
 16 43  1  0  0  0  0
 16 44  1  0  0  0  0
 17 18  1  0  0  0  0
 17 45  1  0  0  0  0
 17 46  1  0  0  0  0
 18 19  1  0  0  0  0
 19 20  2  0  0  0  0
 19 21  1  0  0  0  0
 21 22  1  0  0  0  0
 21 47  1  0  0  0  0
 21 48  1  0  0  0  0
 22 23  1  0  0  0  0
 22 49  1  0  0  0  0
 23 24  1  0  0  0  0
 23 29  1  0  0  0  0
 23 50  1  0  0  0  0
 24 25  1  0  0  0  0
 24 51  1  0  0  0  0
 24 52  1  0  0  0  0
 25 26  1  0  0  0  0
 25 53  1  0  0  0  0
 25 54  1  0  0  0  0
 26 27  1  0  0  0  0
 26 55  1  0  0  0  0
 26 56  1  0  0  0  0
 27 28  1  0  0  0  0
 27 57  1  0  0  0  0
 27 58  1  0  0  0  0
 28 29  1  0  0  0  0
 28 59  1  0  0  0  0
 28 60  1  0  0  0  0
 29 61  1  0  0  0  0
 29 62  1  0  0  0  0
M  END
>  <DRUGBANK_ID>
DB06853

>  <COMMON_NAME>
N-cycloheptylglycyl-N-(4-carbamimidoylbenzyl)-L-prolinamide

$$$$
