
 OpenBabel10282417203D

127129  0  0  1  0  0  0  0  0999 V2000
   -0.2405   -6.2887    4.8864 C   0  0  0  0  0  0  0  0  0  0  0  0
   -1.3512   -7.1445    5.1110 C   0  0  0  0  0  0  0  0  0  0  0  0
   -2.6958   -6.7504    4.5438 C   0  0  0  0  0  0  0  0  0  0  0  0
   -3.0568   -6.8102    3.1282 C   0  0  0  0  0  0  0  0  0  0  0  0
   -3.5619   -7.7424    2.5204 O   0  0  0  0  0  0  0  0  0  0  0  0
   -2.6177   -5.4900    2.7579 O   0  0  0  0  0  0  0  0  0  0  0  0
   -1.0633   -4.7055    3.3205 C   0  0  1  0  0  0  0  0  0  0  0  0
    0.1920   -5.5857    2.8827 C   0  0  1  0  0  0  0  0  0  0  0  0
    1.8149   -5.1198    2.8362 O   0  0  0  0  0  0  0  0  0  0  0  0
    1.9976   -3.9044    3.2718 C   0  0  2  0  0  0  0  0  0  0  0  0
    0.7465   -3.4020    3.9779 C   0  0  0  0  0  0  0  0  0  0  0  0
   -0.5470   -3.2969    3.2789 C   0  0  2  0  0  0  0  0  0  0  0  0
   -1.7750   -2.6258    3.5167 C   0  0  0  0  0  0  0  0  0  0  0  0
   -0.1800   -2.2281    2.4673 O   0  0  0  0  0  0  0  0  0  0  0  0
   -1.1131   -1.3723    1.1541 C   0  0  0  0  0  0  0  0  0  0  0  0
   -0.4109   -1.0125    0.0221 O   0  0  0  0  0  0  0  0  0  0  0  0
   -2.8869   -2.0937    1.0350 C   0  0  0  0  0  0  0  0  0  0  0  0
   -3.5911   -3.7103    1.0320 C   0  0  0  0  0  0  0  0  0  0  0  0
    2.3458   -3.4565    1.9713 O   0  0  0  0  0  0  0  0  0  0  0  0
    1.3912   -3.7280    0.8616 C   0  0  2  0  0  0  0  0  0  0  0  0
   -0.0010   -3.1460    0.8537 C   0  0  2  0  0  0  0  0  0  0  0  0
   -1.2017   -4.2001    1.5684 O   0  0  0  0  0  0  0  0  0  0  0  0
   -0.8595   -5.9692    1.5225 C   0  0  2  0  0  0  0  0  0  0  0  0
    1.2162   -6.4010    1.4550 C   0  0  1  0  0  0  0  0  0  0  0  0
    1.6417   -5.0156    0.2917 C   0  0  1  0  0  0  0  0  0  0  0  0
    0.3721   -5.4342   -1.1712 N   0  0  0  0  0  0  0  0  0  0  0  0
   -0.2561   -7.5169   -0.8577 C   0  0  0  0  0  0  0  0  0  0  0  0
   -1.1075   -4.7171   -0.7044 C   0  0  0  0  0  0  0  0  0  0  0  0
    1.7772   -6.9267    3.0847 O   0  0  0  0  0  0  0  0  0  0  0  0
   -0.5690   -6.4641    0.4327 O   0  0  0  0  0  0  0  0  0  0  0  0
    1.0142   -6.7180   -0.5626 C   0  0  1  0  0  0  0  0  0  0  0  0
    2.9339   -7.9072   -0.6326 C   0  0  2  0  0  0  0  0  0  0  0  0
    4.1183   -8.2351    0.2469 C   0  0  0  0  0  0  0  0  0  0  0  0
    3.7642   -6.7404   -0.2854 C   0  0  2  0  0  0  0  0  0  0  0  0
    2.5364   -6.6536   -1.9103 C   0  0  2  0  0  0  0  0  0  0  0  0
    1.8751   -8.4344   -2.1411 C   0  0  0  0  0  0  0  0  0  0  0  0
    0.6670   -8.5903   -2.5170 C   0  0  0  0  0  0  0  0  0  0  0  0
   -0.1592   -9.6869   -1.8723 C   0  0  0  0  0  0  0  0  0  0  0  0
   -1.4791   -9.6560   -1.6729 C   0  0  0  0  0  0  0  0  0  0  0  0
   -2.6045  -10.4589   -1.3549 C   0  0  0  0  0  0  0  0  0  0  0  0
   -3.3685  -10.2486   -0.0467 C   0  0  2  0  0  0  0  0  0  0  0  0
   -4.2847   -9.0923   -0.0044 O   0  0  0  0  0  0  0  0  0  0  0  0
   -3.8750   -7.8213    0.0214 C   0  0  0  0  0  0  0  0  0  0  0  0
   -4.4755   -6.7579    0.1027 O   0  0  0  0  0  0  0  0  0  0  0  0
   -2.5028   -7.6799   -0.1468 C   0  0  0  0  0  0  0  0  0  0  0  0
   -2.2902   -6.9316   -1.6276 C   0  0  2  0  0  0  0  0  0  0  0  0
   -0.9457   -6.2461   -1.6691 C   0  0  2  0  0  0  0  0  0  0  0  0
   -1.4031   -4.9338   -2.8484 O   0  0  0  0  0  0  0  0  0  0  0  0
   -0.6256   -3.7632   -2.7268 C   0  0  0  0  0  0  0  0  0  0  0  0
   -2.5505   -7.4956   -2.8669 O   0  0  0  0  0  0  0  0  0  0  0  0
   -2.4713  -10.3909    1.1786 C   0  0  0  0  0  0  0  0  0  0  0  0
    2.6951   -6.7830   -3.2338 O   0  0  0  0  0  0  0  0  0  0  0  0
    4.8432   -5.7299   -0.2732 C   0  0  0  0  0  0  0  0  0  0  0  0
    4.2951   -8.1932   -2.2413 C   0  0  0  0  0  0  0  0  0  0  0  0
    4.8924   -6.6265   -3.2057 C   0  0  0  0  0  0  0  0  0  0  0  0
    4.8718   -6.4296   -4.4312 O   0  0  0  0  0  0  0  0  0  0  0  0
   -1.1060   -2.9004   -0.1217 C   0  0  0  0  0  0  0  0  0  0  0  0
   -0.3588   -7.6937    2.4961 C   0  0  0  0  0  0  0  0  0  0  0  0
   -0.2340   -6.7095    3.9656 H   0  0  0  0  0  0  0  0  0  0  0  0
    0.8060   -6.3185    5.0346 H   0  0  0  0  0  0  0  0  0  0  0  0
   -0.5402   -5.2954    4.9857 H   0  0  0  0  0  0  0  0  0  0  0  0
   -0.9955   -8.1089    4.7892 H   0  0  0  0  0  0  0  0  0  0  0  0
   -1.2211   -6.8997    6.1197 H   0  0  0  0  0  0  0  0  0  0  0  0
   -3.4111   -7.3893    4.9897 H   0  0  0  0  0  0  0  0  0  0  0  0
   -2.9241   -5.6930    4.7209 H   0  0  0  0  0  0  0  0  0  0  0  0
   -1.6455   -4.5376    4.1314 H   0  0  0  0  0  0  0  0  0  0  0  0
    0.3238   -4.9577    1.9159 H   0  0  0  0  0  0  0  0  0  0  0  0
    2.6942   -4.1878    4.0946 H   0  0  0  0  0  0  0  0  0  0  0  0
    0.4299   -3.9096    4.8659 H   0  0  0  0  0  0  0  0  0  0  0  0
    0.9832   -2.4001    4.1612 H   0  0  0  0  0  0  0  0  0  0  0  0
   -1.8088   -1.8813    2.7835 H   0  0  0  0  0  0  0  0  0  0  0  0
   -2.6681   -3.2349    3.3944 H   0  0  0  0  0  0  0  0  0  0  0  0
   -1.6241   -2.2169    4.4501 H   0  0  0  0  0  0  0  0  0  0  0  0
   -3.2424   -1.6850    1.9277 H   0  0  0  0  0  0  0  0  0  0  0  0
   -3.2618   -1.8441    0.0307 H   0  0  0  0  0  0  0  0  0  0  0  0
   -3.2144   -4.1772    1.8681 H   0  0  0  0  0  0  0  0  0  0  0  0
   -4.5960   -3.8886    1.3132 H   0  0  0  0  0  0  0  0  0  0  0  0
   -3.3859   -4.4312    0.2152 H   0  0  0  0  0  0  0  0  0  0  0  0
    1.7037   -3.2087    0.0087 H   0  0  0  0  0  0  0  0  0  0  0  0
    0.5288   -1.7655    1.2298 H   0  0  0  0  0  0  0  0  0  0  0  0
   -1.2945   -6.3842    2.6291 H   0  0  0  0  0  0  0  0  0  0  0  0
    0.7777   -6.9558    1.9983 H   0  0  0  0  0  0  0  0  0  0  0  0
    2.4051   -5.6936    0.5433 H   0  0  0  0  0  0  0  0  0  0  0  0
   -0.5655   -7.9400    0.1140 H   0  0  0  0  0  0  0  0  0  0  0  0
   -0.7463   -7.8943   -1.6751 H   0  0  0  0  0  0  0  0  0  0  0  0
    0.4642   -8.2617   -0.3218 H   0  0  0  0  0  0  0  0  0  0  0  0
   -1.8817   -5.1950   -0.0831 H   0  0  0  0  0  0  0  0  0  0  0  0
   -0.9544   -4.7679    0.2130 H   0  0  0  0  0  0  0  0  0  0  0  0
   -2.0142   -4.3319   -1.1874 H   0  0  0  0  0  0  0  0  0  0  0  0
    1.6202   -6.0488    3.5982 H   0  0  0  0  0  0  0  0  0  0  0  0
    0.3639   -5.7673    0.3022 H   0  0  0  0  0  0  0  0  0  0  0  0
    4.2059   -8.0548   -1.1687 H   0  0  0  0  0  0  0  0  0  0  0  0
    5.2433   -8.1877    0.5224 H   0  0  0  0  0  0  0  0  0  0  0  0
    4.0594   -9.3148   -0.1303 H   0  0  0  0  0  0  0  0  0  0  0  0
    3.4166   -6.7808    0.8171 H   0  0  0  0  0  0  0  0  0  0  0  0
    2.2925   -5.6495   -1.6341 H   0  0  0  0  0  0  0  0  0  0  0  0
    2.3262   -9.3225   -1.6000 H   0  0  0  0  0  0  0  0  0  0  0  0
    0.6021   -7.4374   -2.5183 H   0  0  0  0  0  0  0  0  0  0  0  0
    0.3293  -10.5061   -1.4368 H   0  0  0  0  0  0  0  0  0  0  0  0
   -2.0810   -8.8163   -1.6992 H   0  0  0  0  0  0  0  0  0  0  0  0
   -2.0315  -11.3500   -1.3947 H   0  0  0  0  0  0  0  0  0  0  0  0
   -3.2579  -10.2362   -2.2113 H   0  0  0  0  0  0  0  0  0  0  0  0
   -4.0505  -11.0886   -0.0379 H   0  0  0  0  0  0  0  0  0  0  0  0
   -1.9327   -8.5699    0.0811 H   0  0  0  0  0  0  0  0  0  0  0  0
   -2.3621   -7.1402    0.7683 H   0  0  0  0  0  0  0  0  0  0  0  0
   -1.4228   -6.6537   -2.3060 H   0  0  0  0  0  0  0  0  0  0  0  0
   -2.3434   -5.8902   -1.2000 H   0  0  0  0  0  0  0  0  0  0  0  0
   -1.1172   -2.9919   -2.1726 H   0  0  0  0  0  0  0  0  0  0  0  0
    0.3565   -3.8968   -2.3085 H   0  0  0  0  0  0  0  0  0  0  0  0
   -0.5393   -3.1067   -3.5210 H   0  0  0  0  0  0  0  0  0  0  0  0
   -3.4229   -7.7247   -2.6492 H   0  0  0  0  0  0  0  0  0  0  0  0
   -3.0436  -10.3400    2.0944 H   0  0  0  0  0  0  0  0  0  0  0  0
   -1.8376  -11.2681    1.1025 H   0  0  0  0  0  0  0  0  0  0  0  0
   -1.7476   -9.6133    1.3284 H   0  0  0  0  0  0  0  0  0  0  0  0
    3.4249   -7.0463   -2.7598 H   0  0  0  0  0  0  0  0  0  0  0  0
    4.2771   -4.8118   -0.2180 H   0  0  0  0  0  0  0  0  0  0  0  0
    5.4831   -5.8626    0.5966 H   0  0  0  0  0  0  0  0  0  0  0  0
    5.4656   -5.7849   -1.1485 H   0  0  0  0  0  0  0  0  0  0  0  0
    4.8382   -8.7327   -3.2183 H   0  0  0  0  0  0  0  0  0  0  0  0
    3.6701   -8.9608   -2.7283 H   0  0  0  0  0  0  0  0  0  0  0  0
    4.4678   -5.7253   -2.6435 H   0  0  0  0  0  0  0  0  0  0  0  0
   -0.3383   -3.1075   -0.7615 H   0  0  0  0  0  0  0  0  0  0  0  0
   -1.9762   -3.3998    0.2214 H   0  0  0  0  0  0  0  0  0  0  0  0
   -1.6635   -2.2856   -0.7938 H   0  0  0  0  0  0  0  0  0  0  0  0
   -1.1048   -7.9616    1.7238 H   0  0  0  0  0  0  0  0  0  0  0  0
    0.4282   -8.3767    1.8537 H   0  0  0  0  0  0  0  0  0  0  0  0
   -0.7595   -8.2698    3.2359 H   0  0  0  0  0  0  0  0  0  0  0  0
  1  2  1  0  0  0  0
  1 59  1  0  0  0  0
  1 60  1  0  0  0  0
  1 61  1  0  0  0  0
  2  3  1  0  0  0  0
  2 62  1  0  0  0  0
  2 63  1  0  0  0  0
  3  4  1  0  0  0  0
  3 64  1  0  0  0  0
  3 65  1  0  0  0  0
  4  5  2  0  0  0  0
  4  6  1  0  0  0  0
  7  8  1  0  0  0  0
  7 12  1  0  0  0  0
  7 66  1  1  0  0  0
  7  6  1  0  0  0  0
  8  9  1  0  0  0  0
  8 58  1  0  0  0  0
  8 67  1  6  0  0  0
  9 10  1  0  0  0  0
 10 11  1  0  0  0  0
 10 68  1  1  0  0  0
 10 19  1  0  0  0  0
 11 12  1  0  0  0  0
 11 69  1  0  0  0  0
 11 70  1  0  0  0  0
 12 14  1  6  0  0  0
 12 13  1  0  0  0  0
 13 71  1  0  0  0  0
 13 72  1  0  0  0  0
 13 73  1  0  0  0  0
 14 15  1  0  0  0  0
 15 16  2  0  0  0  0
 15 17  1  0  0  0  0
 17 18  1  0  0  0  0
 17 74  1  0  0  0  0
 17 75  1  0  0  0  0
 18 76  1  0  0  0  0
 18 77  1  0  0  0  0
 18 78  1  0  0  0  0
 20 19  1  0  0  0  0
 20 21  1  0  0  0  0
 20 25  1  0  0  0  0
 20 79  1  6  0  0  0
 21 22  1  0  0  0  0
 21 80  1  1  0  0  0
 21 57  1  0  0  0  0
 22 23  1  0  0  0  0
 23 24  1  0  0  0  0
 23 81  1  1  0  0  0
 23 30  1  0  0  0  0
 24 25  1  0  0  0  0
 24 29  1  0  0  0  0
 24 82  1  6  0  0  0
 25 26  1  0  0  0  0
 25 83  1  6  0  0  0
 26 27  1  0  0  0  0
 26 28  1  0  0  0  0
 27 84  1  0  0  0  0
 27 85  1  0  0  0  0
 27 86  1  0  0  0  0
 28 87  1  0  0  0  0
 28 88  1  0  0  0  0
 28 89  1  0  0  0  0
 29 90  1  0  0  0  0
 31 32  1  0  0  0  0
 31 47  1  0  0  0  0
 31 91  1  1  0  0  0
 31 30  1  0  0  0  0
 32 33  1  0  0  0  0
 32 92  1  6  0  0  0
 32 54  1  0  0  0  0
 33 34  1  0  0  0  0
 33 93  1  0  0  0  0
 33 94  1  0  0  0  0
 34 35  1  0  0  0  0
 34 53  1  0  0  0  0
 34 95  1  1  0  0  0
 35 36  1  0  0  0  0
 35 52  1  0  0  0  0
 35 96  1  1  0  0  0
 36 37  2  0  0  0  0
 36 97  1  0  0  0  0
 37 38  1  0  0  0  0
 37 98  1  0  0  0  0
 38 39  2  0  0  0  0
 38 99  1  0  0  0  0
 39 40  1  0  0  0  0
 39100  1  0  0  0  0
 40 41  1  0  0  0  0
 40101  1  0  0  0  0
 40102  1  0  0  0  0
 41 42  1  0  0  0  0
 41 51  1  0  0  0  0
 41103  1  1  0  0  0
 42 43  1  0  0  0  0
 43 44  2  0  0  0  0
 43 45  1  0  0  0  0
 45 46  1  0  0  0  0
 45104  1  0  0  0  0
 45105  1  0  0  0  0
 46 47  1  0  0  0  0
 46 50  1  0  0  0  0
 46106  1  6  0  0  0
 47107  1  1  0  0  0
 47 48  1  0  0  0  0
 48 49  1  0  0  0  0
 49108  1  0  0  0  0
 49109  1  0  0  0  0
 49110  1  0  0  0  0
 50111  1  0  0  0  0
 51112  1  0  0  0  0
 51113  1  0  0  0  0
 51114  1  0  0  0  0
 52115  1  0  0  0  0
 53116  1  0  0  0  0
 53117  1  0  0  0  0
 53118  1  0  0  0  0
 54 55  1  0  0  0  0
 54119  1  0  0  0  0
 54120  1  0  0  0  0
 55 56  2  0  0  0  0
 55121  1  0  0  0  0
 57122  1  0  0  0  0
 57123  1  0  0  0  0
 57124  1  0  0  0  0
 58125  1  0  0  0  0
 58126  1  0  0  0  0
 58127  1  0  0  0  0
M  END
>  <DRUGBANK_ID>
DB13409

>  <COMMON_NAME>
Rokitamycin

>  <CAS_NUMBER>
74014-51-0

>  <UNII>
ZPT03UEM0E

>  <SYNONYMS>
Rokitamycin

$$$$
