
 OpenBabel10282417233D

 23 23  0  0  1  0  0  0  0  0999 V2000
    1.1552   -0.1010    0.3836 N   0  0  0  0  0  0  0  0  0  0  0  0
    0.5074    1.0869    1.0061 C   0  0  1  0  0  0  0  0  0  0  0  0
    0.9703    2.4311    0.4042 C   0  0  0  0  0  0  0  0  0  0  0  0
    0.5489    2.7337   -1.0229 C   0  0  0  0  0  0  0  0  0  0  0  0
    0.1500    1.7368   -1.9264 C   0  0  0  0  0  0  0  0  0  0  0  0
   -0.0213    1.9676   -3.2787 C   0  0  0  0  0  0  0  0  0  0  0  0
    0.0112    3.2680   -3.7320 C   0  0  0  0  0  0  0  0  0  0  0  0
   -0.2591    3.6114   -5.7520 I   0  0  0  0  0  0  0  0  0  0  0  0
    0.2083    4.3142   -2.8289 C   0  0  0  0  0  0  0  0  0  0  0  0
    0.5485    4.0474   -1.4944 C   0  0  0  0  0  0  0  0  0  0  0  0
   -1.0453    1.0327    1.0275 C   0  0  0  0  0  0  0  0  0  0  0  0
   -1.5894    0.8566    2.2514 O   0  0  0  0  0  0  0  0  0  0  0  0
   -1.7830    1.1777    0.0557 O   0  0  0  0  0  0  0  0  0  0  0  0
    0.8942   -0.1845   -0.5965 H   0  0  0  0  0  0  0  0  0  0  0  0
    2.1603    0.0757    0.3088 H   0  0  0  0  0  0  0  0  0  0  0  0
    0.8528    1.0521    2.0454 H   0  0  0  0  0  0  0  0  0  0  0  0
    0.6200    3.2356    1.0665 H   0  0  0  0  0  0  0  0  0  0  0  0
    2.0704    2.4718    0.4438 H   0  0  0  0  0  0  0  0  0  0  0  0
   -0.1510    0.7469   -1.6188 H   0  0  0  0  0  0  0  0  0  0  0  0
   -0.2264    1.1172   -3.9225 H   0  0  0  0  0  0  0  0  0  0  0  0
    0.1013    5.3439   -3.1530 H   0  0  0  0  0  0  0  0  0  0  0  0
    0.7761    4.8757   -0.8263 H   0  0  0  0  0  0  0  0  0  0  0  0
   -0.9522    0.6886    2.9665 H   0  0  0  0  0  0  0  0  0  0  0  0
  1 14  1  0  0  0  0
  1 15  1  0  0  0  0
  2  1  1  0  0  0  0
  2  3  1  0  0  0  0
  2 11  1  0  0  0  0
  2 16  1  1  0  0  0
  3  4  1  0  0  0  0
  3 17  1  0  0  0  0
  3 18  1  0  0  0  0
  4  5  2  0  0  0  0
  4 10  1  0  0  0  0
  5  6  1  0  0  0  0
  5 19  1  0  0  0  0
  6  7  2  0  0  0  0
  6 20  1  0  0  0  0
  7  8  1  0  0  0  0
  7  9  1  0  0  0  0
  9 10  2  0  0  0  0
  9 21  1  0  0  0  0
 10 22  1  0  0  0  0
 11 12  1  0  0  0  0
 11 13  2  0  0  0  0
 12 23  1  0  0  0  0
M  ISO  1   8 131
M  END
>  <DRUGBANK_ID>
DB17137

>  <COMMON_NAME>
4-Iodophenylalanine I-131

>  <CAS_NUMBER>
76641-05-9

>  <UNII>
606VTF676Y

>  <SYNONYMS>
4-(131i)iodo-l-phenylalanine; 4-iodo-l-phenylalanine-131i; L-phenylalanine, 4-(iodo-131i)-

$$$$
