
 OpenBabel10282417233D

 55 57  0  0  1  0  0  0  0  0999 V2000
    0.7760    0.0581   -0.0739 C   0  0  0  0  0  0  0  0  0  0  0  0
    0.4531   -0.4595   -1.3702 O   0  0  0  0  0  0  0  0  0  0  0  0
    0.8525    0.3243   -2.4251 C   0  0  0  0  0  0  0  0  0  0  0  0
    2.1765    0.7163   -2.6994 C   0  0  0  0  0  0  0  0  0  0  0  0
    2.3213    1.6004   -3.7785 C   0  0  0  0  0  0  0  0  0  0  0  0
    1.2942    1.9663   -4.6298 C   0  0  0  0  0  0  0  0  0  0  0  0
    1.5830    2.7756   -5.6580 F   0  0  0  0  0  0  0  0  0  0  0  0
    0.0264    1.5015   -4.4253 C   0  0  0  0  0  0  0  0  0  0  0  0
   -0.1966    0.6868   -3.3136 C   0  0  0  0  0  0  0  0  0  0  0  0
    3.3515    0.1479   -1.9240 C   0  0  0  0  0  0  0  0  0  0  0  0
    3.2236   -0.8378   -1.1954 O   0  0  0  0  0  0  0  0  0  0  0  0
    4.6273    0.6514   -1.9638 N   0  0  0  0  0  0  0  0  0  0  0  0
    5.3163    1.4967   -2.9112 C   0  0  0  0  0  0  0  0  0  0  0  0
    5.6761    2.8370   -2.3342 C   0  0  0  0  0  0  0  0  0  0  0  0
    5.2477    4.0410   -2.9155 C   0  0  0  0  0  0  0  0  0  0  0  0
    5.6077    5.2893   -2.3554 C   0  0  0  0  0  0  0  0  0  0  0  0
    6.4195    5.3685   -1.2080 C   0  0  0  0  0  0  0  0  0  0  0  0
    6.7458    4.1561   -0.5819 C   0  0  0  0  0  0  0  0  0  0  0  0
    6.4336    2.9143   -1.1656 C   0  0  0  0  0  0  0  0  0  0  0  0
    6.9441    6.6709   -0.6923 C   0  0  0  0  0  0  0  0  0  0  0  0
    6.0906    7.6279   -0.2755 N   0  0  0  0  0  0  0  0  0  0  0  0
    6.8692    8.6710    0.0960 N   0  0  0  0  0  0  0  0  0  0  0  0
    6.2307    9.8820    0.6205 C   0  0  1  0  0  0  0  0  0  0  0  0
    6.6445   10.2027    2.0662 C   0  0  0  0  0  0  0  0  0  0  0  0
    6.4752   11.0794   -0.2842 C   0  0  0  0  0  0  0  0  0  0  0  0
    6.0512   10.8793   -1.5487 F   0  0  0  0  0  0  0  0  0  0  0  0
    5.8150   12.1711    0.1831 F   0  0  0  0  0  0  0  0  0  0  0  0
    7.7813   11.4388   -0.3365 F   0  0  0  0  0  0  0  0  0  0  0  0
    8.2242    8.4303   -0.0499 C   0  0  0  0  0  0  0  0  0  0  0  0
    9.1305    9.3831    0.3021 N   0  0  0  0  0  0  0  0  0  0  0  0
    8.3295    7.1369   -0.5660 C   0  0  0  0  0  0  0  0  0  0  0  0
    9.5402    6.3846   -0.9337 C   0  0  0  0  0  0  0  0  0  0  0  0
   10.7644    7.0020   -0.7972 N   0  0  0  0  0  0  0  0  0  0  0  0
    9.5324    5.2451   -1.3566 O   0  0  0  0  0  0  0  0  0  0  0  0
    0.4027   -0.6554    0.6681 H   0  0  0  0  0  0  0  0  0  0  0  0
    0.3060    1.0300    0.0967 H   0  0  0  0  0  0  0  0  0  0  0  0
    1.8417    0.1637    0.1258 H   0  0  0  0  0  0  0  0  0  0  0  0
    3.2030    2.1048   -4.0886 H   0  0  0  0  0  0  0  0  0  0  0  0
   -0.7540    1.7998   -5.1150 H   0  0  0  0  0  0  0  0  0  0  0  0
   -1.2079    0.3313   -3.1362 H   0  0  0  0  0  0  0  0  0  0  0  0
    5.2186    0.1780   -1.2885 H   0  0  0  0  0  0  0  0  0  0  0  0
    6.1620    0.9416   -3.3278 H   0  0  0  0  0  0  0  0  0  0  0  0
    4.7329    1.6257   -3.7927 H   0  0  0  0  0  0  0  0  0  0  0  0
    4.6394    4.0259   -3.8202 H   0  0  0  0  0  0  0  0  0  0  0  0
    5.2420    6.1937   -2.8380 H   0  0  0  0  0  0  0  0  0  0  0  0
    7.2540    4.1501    0.3768 H   0  0  0  0  0  0  0  0  0  0  0  0
    6.7877    1.9971   -0.6997 H   0  0  0  0  0  0  0  0  0  0  0  0
    5.1499    9.6892    0.6270 H   0  0  0  0  0  0  0  0  0  0  0  0
    7.7153   10.3988    2.1692 H   0  0  0  0  0  0  0  0  0  0  0  0
    6.1324   11.1006    2.4314 H   0  0  0  0  0  0  0  0  0  0  0  0
    6.4009    9.3749    2.7385 H   0  0  0  0  0  0  0  0  0  0  0  0
   10.1191    9.3565    0.1036 H   0  0  0  0  0  0  0  0  0  0  0  0
    8.8694   10.3593    0.4561 H   0  0  0  0  0  0  0  0  0  0  0  0
   11.5830    6.4683   -1.0579 H   0  0  0  0  0  0  0  0  0  0  0  0
   10.9044    7.9280   -0.4557 H   0  0  0  0  0  0  0  0  0  0  0  0
  1  2  1  0  0  0  0
  1 35  1  0  0  0  0
  1 36  1  0  0  0  0
  1 37  1  0  0  0  0
  2  3  1  0  0  0  0
  3  4  2  0  0  0  0
  3  9  1  0  0  0  0
  4  5  1  0  0  0  0
  4 10  1  0  0  0  0
  5  6  2  0  0  0  0
  5 38  1  0  0  0  0
  6  7  1  0  0  0  0
  6  8  1  0  0  0  0
  8  9  2  0  0  0  0
  8 39  1  0  0  0  0
  9 40  1  0  0  0  0
 10 11  2  0  0  0  0
 10 12  1  0  0  0  0
 12 13  1  0  0  0  0
 12 41  1  0  0  0  0
 13 14  1  0  0  0  0
 13 42  1  0  0  0  0
 13 43  1  0  0  0  0
 14 15  2  0  0  0  0
 14 19  1  0  0  0  0
 15 16  1  0  0  0  0
 15 44  1  0  0  0  0
 16 17  2  0  0  0  0
 16 45  1  0  0  0  0
 17 18  1  0  0  0  0
 17 20  1  0  0  0  0
 18 19  2  0  0  0  0
 18 46  1  0  0  0  0
 19 47  1  0  0  0  0
 20 21  2  0  0  0  0
 20 31  1  0  0  0  0
 21 22  1  0  0  0  0
 22 29  1  0  0  0  0
 23 22  1  0  0  0  0
 23 24  1  0  0  0  0
 23 25  1  0  0  0  0
 23 48  1  1  0  0  0
 24 49  1  0  0  0  0
 24 50  1  0  0  0  0
 24 51  1  0  0  0  0
 25 26  1  0  0  0  0
 25 27  1  0  0  0  0
 25 28  1  0  0  0  0
 29 30  1  0  0  0  0
 29 31  2  0  0  0  0
 30 52  1  0  0  0  0
 30 53  1  0  0  0  0
 31 32  1  0  0  0  0
 32 33  1  0  0  0  0
 32 34  2  0  0  0  0
 33 54  1  0  0  0  0
 33 55  1  0  0  0  0
M  END
>  <DRUGBANK_ID>
DB17472

>  <COMMON_NAME>
Pirtobrutinib

>  <CAS_NUMBER>
2101700-15-4

>  <UNII>
JNA39I7ZVB

>  <SYNONYMS>
(s)-5-amino-3-(4-((5-fluoro-2-methoxybenzamido)methyl)phenyl)-1-(1,1,1-trifluoropropan-2-yl)-1h-pyrazole-4-carboxamide; 1h-pyrazole-4-carboxamide, 5-amino-3-(4-(((5-fluoro-2-methoxybenzoyl)amino)methyl)phenyl)-1-((1s)-2,2,2-trifluoro-1-methylethyl)-; 5-amino-3-(4-((5-fluoro-2-methoxybenzamido)methyl)phenyl)-1-((2s)-1,1,1-trifluoropropan-2-yl)-1h-pyrazole-4-carboxamide

$$$$
