276
 OpenBabel10282417163D

 47 50  0  0  0  0  0  0  0  0999 V2000
    0.5969    1.4062   -0.0322 C   0  0  0  0  0  0  0  0  0  0  0  0
   -0.7670    1.1758    0.0005 C   0  0  0  0  0  0  0  0  0  0  0  0
   -1.3395   -0.0549    0.0290 N   0  0  0  0  0  0  0  0  0  0  0  0
   -0.5198   -1.1380    0.0017 C   0  0  0  0  0  0  0  0  0  0  0  0
    0.8452   -0.9531   -0.0616 C   0  0  0  0  0  0  0  0  0  0  0  0
    1.4189    0.3032   -0.0463 C   0  0  0  0  0  0  0  0  0  0  0  0
   -1.2109   -2.4944    0.0310 C   0  0  0  0  0  0  0  0  0  0  0  0
   -2.4346   -2.5638    0.0408 O   0  0  0  0  0  0  0  0  0  0  0  0
   -0.5393   -3.7082    0.0545 N   0  0  0  0  0  0  0  0  0  0  0  0
    0.8492   -4.0983    0.0738 C   0  0  0  0  0  0  0  0  0  0  0  0
    2.7949    0.2468   -0.0963 O   0  0  0  0  0  0  0  0  0  0  0  0
    3.5046    1.4098   -0.0118 C   0  0  0  0  0  0  0  0  0  0  0  0
    4.3884    1.6911   -1.0640 C   0  0  0  0  0  0  0  0  0  0  0  0
    5.0289    2.9289   -0.9975 C   0  0  0  0  0  0  0  0  0  0  0  0
    4.8219    3.8243    0.0460 C   0  0  0  0  0  0  0  0  0  0  0  0
    3.9747    3.4884    1.1089 C   0  0  0  0  0  0  0  0  0  0  0  0
    3.3527    2.2463    1.0936 C   0  0  0  0  0  0  0  0  0  0  0  0
    5.9253    3.5772   -1.8170 N   0  0  0  0  0  0  0  0  0  0  0  0
    6.2148    4.8009   -1.2560 C   0  0  0  0  0  0  0  0  0  0  0  0
    5.5400    4.9663   -0.1414 N   0  0  0  0  0  0  0  0  0  0  0  0
    7.0822    5.6686   -1.8322 N   0  0  0  0  0  0  0  0  0  0  0  0
    7.2914    6.9511   -1.2772 C   0  0  0  0  0  0  0  0  0  0  0  0
    7.8130    7.0889    0.0196 C   0  0  0  0  0  0  0  0  0  0  0  0
    7.9086    8.3421    0.6696 C   0  0  0  0  0  0  0  0  0  0  0  0
    7.4491    9.4703   -0.0123 C   0  0  0  0  0  0  0  0  0  0  0  0
    6.9496    9.3503   -1.3150 C   0  0  0  0  0  0  0  0  0  0  0  0
    6.8783    8.1034   -1.9474 C   0  0  0  0  0  0  0  0  0  0  0  0
    8.4945    8.3714    2.0561 C   0  0  0  0  0  0  0  0  0  0  0  0
    7.4340   11.0557    0.6702 Cl  0  0  0  0  0  0  0  0  0  0  0  0
    7.8143    7.5690    2.9241 F   0  0  0  0  0  0  0  0  0  0  0  0
    8.5496    9.5868    2.6627 F   0  0  0  0  0  0  0  0  0  0  0  0
    9.7806    7.9117    2.0689 F   0  0  0  0  0  0  0  0  0  0  0  0
    0.9805    2.4165   -0.0568 H   0  0  0  0  0  0  0  0  0  0  0  0
   -1.4588    2.0130   -0.0002 H   0  0  0  0  0  0  0  0  0  0  0  0
    1.5822   -1.7075   -0.1669 H   0  0  0  0  0  0  0  0  0  0  0  0
   -1.2029   -4.4775    0.0706 H   0  0  0  0  0  0  0  0  0  0  0  0
    1.0459   -4.7005    0.9595 H   0  0  0  0  0  0  0  0  0  0  0  0
    1.0878   -4.6241   -0.8519 H   0  0  0  0  0  0  0  0  0  0  0  0
    1.5433   -3.2960    0.1612 H   0  0  0  0  0  0  0  0  0  0  0  0
    4.5312    0.9949   -1.8840 H   0  0  0  0  0  0  0  0  0  0  0  0
    3.8056    4.1872    1.9189 H   0  0  0  0  0  0  0  0  0  0  0  0
    2.7049    1.9576    1.9175 H   0  0  0  0  0  0  0  0  0  0  0  0
    6.3153    3.2088   -2.6703 H   0  0  0  0  0  0  0  0  0  0  0  0
    7.3903    5.5664   -2.7907 H   0  0  0  0  0  0  0  0  0  0  0  0
    8.1436    6.1888    0.5411 H   0  0  0  0  0  0  0  0  0  0  0  0
    6.5863   10.2350   -1.8346 H   0  0  0  0  0  0  0  0  0  0  0  0
    6.4408    8.0446   -2.9401 H   0  0  0  0  0  0  0  0  0  0  0  0
  1  6  1  0  0  0  0
  1 33  1  0  0  0  0
  2  1  2  0  0  0  0
  2 34  1  0  0  0  0
  3  4  2  0  0  0  0
  3  2  1  0  0  0  0
  4  5  1  0  0  0  0
  5  6  2  0  0  0  0
  5 35  1  0  0  0  0
  6 11  1  0  0  0  0
  7  8  2  0  0  0  0
  7  4  1  0  0  0  0
  9  7  1  0  0  0  0
  9 36  1  0  0  0  0
 10  9  1  0  0  0  0
 10 37  1  0  0  0  0
 10 38  1  0  0  0  0
 10 39  1  0  0  0  0
 11 12  1  0  0  0  0
 12 17  1  0  0  0  0
 13 12  2  0  0  0  0
 13 14  1  0  0  0  0
 13 40  1  0  0  0  0
 14 18  1  0  0  0  0
 14 15  2  0  0  0  0
 15 16  1  0  0  0  0
 15 20  1  0  0  0  0
 16 41  1  0  0  0  0
 17 16  2  0  0  0  0
 17 42  1  0  0  0  0
 18 19  1  0  0  0  0
 18 43  1  0  0  0  0
 19 21  1  0  0  0  0
 19 20  2  0  0  0  0
 21 44  1  0  0  0  0
 22 21  1  0  0  0  0
 22 23  2  0  0  0  0
 23 45  1  0  0  0  0
 24 23  1  0  0  0  0
 24 28  1  0  0  0  0
 25 24  2  0  0  0  0
 26 27  2  0  0  0  0
 26 25  1  0  0  0  0
 26 46  1  0  0  0  0
 27 22  1  0  0  0  0
 27 47  1  0  0  0  0
 28 30  1  0  0  0  0
 28 32  1  0  0  0  0
 29 25  1  0  0  0  0
 31 28  1  0  0  0  0
M  END
>  <DRUGBANK_ID>
DB06938

>  <COMMON_NAME>
4-[[2-[[4-chloro-3-(trifluoromethyl)phenyl]amino]-3H-benzimidazol-5-yl]oxy]-N-methyl-pyridine-2-carboxamide

$$$$
