727
 OpenBabel10282417103D

 20 19  0  0  0  0  0  0  0  0999 V2000
    0.8885    0.0273   -0.1134 O   0  0  0  0  0  0  0  0  0  0  0  0
    2.3873    1.8537    1.6480 O   0  0  0  0  0  0  0  0  0  0  0  0
    2.4402   -2.3201    0.9782 O   0  0  0  0  0  0  0  0  0  0  0  0
    0.9566   -1.8133   -1.3892 O   0  5  0  0  0  0  0  0  0  0  0  0
   -0.9759   -0.9900   -0.6331 O   0  0  0  0  0  0  0  0  0  0  0  0
    0.2730    2.1651    0.8770 O   0  5  0  0  0  0  0  0  0  0  0  0
    0.5168   -1.7690    2.0310 O   0  5  0  0  0  0  0  0  0  0  0  0
    0.7579    2.3909    3.0363 O   0  0  0  0  0  0  0  0  0  0  0  0
    0.7650   -3.7585    1.0554 O   0  0  0  0  0  0  0  0  0  0  0  0
    0.2392   -1.0036   -0.8045 N   0  3  0  0  0  0  0  0  0  0  0  0
    1.0102    2.1540    1.8521 N   0  3  0  0  0  0  0  0  0  0  0  0
    1.1343   -2.6503    1.4321 N   0  3  0  0  0  0  0  0  0  0  0  0
    2.3066   -0.0304    0.0046 C   0  0  0  0  0  0  0  0  0  0  0  0
    2.7426    1.4273    0.3247 C   0  0  0  0  0  0  0  0  0  0  0  0
    2.7808   -0.9479    1.1610 C   0  0  0  0  0  0  0  0  0  0  0  0
    2.7714   -0.3263   -0.9456 H   0  0  0  0  0  0  0  0  0  0  0  0
    3.8413    1.4654    0.3041 H   0  0  0  0  0  0  0  0  0  0  0  0
    2.4027    2.1472   -0.4297 H   0  0  0  0  0  0  0  0  0  0  0  0
    3.8787   -0.9143    1.1809 H   0  0  0  0  0  0  0  0  0  0  0  0
    2.4716   -0.5819    2.1476 H   0  0  0  0  0  0  0  0  0  0  0  0
  1 10  1  0  0  0  0
  1 13  1  0  0  0  0
  2 11  1  0  0  0  0
  2 14  1  0  0  0  0
  3 12  1  0  0  0  0
  3 15  1  0  0  0  0
  4 10  1  0  0  0  0
  5 10  2  0  0  0  0
  6 11  1  0  0  0  0
  7 12  1  0  0  0  0
  8 11  2  0  0  0  0
  9 12  2  0  0  0  0
 13 14  1  0  0  0  0
 13 15  1  0  0  0  0
 13 16  1  0  0  0  0
 14 17  1  0  0  0  0
 14 18  1  0  0  0  0
 15 19  1  0  0  0  0
 15 20  1  0  0  0  0
M  CHG  6   4  -1   6  -1   7  -1  10   1  11   1  12   1
M  END
>  <DRUGBANK_ID>
DB00727

>  <SECONDARY_ACCESSION_NUMBERS>
APRD00153

>  <COMMON_NAME>
Nitroglycerin

>  <CAS_NUMBER>
55-63-0

>  <UNII>
G59M7S0WS3

>  <SYNONYMS>
1,2,3-propanetrioltrinitrate; 1,2,3-propanetriyl nitrate; Glycerin trinitrate; Glycerol trinitrate; Glycerol, nitric acid triester; Glyceroli trinitratis; Glyceroltrinitrat; Glyceryl trinitrate; NG; Nitroglicerina; Nitroglycerin; Nitroglycerine; Nitroglycerol; Nitromed; Propane-1,2,3-triyl trinitrate; Trinitrine; Trinitroglycerin; Trinitroglycerol

$$$$
