2BL
 OpenBabel10282417163D

 38 38  0  0  0  0  0  0  0  0999 V2000
    1.0920   -0.0032    0.1366 C   0  0  0  0  0  0  0  0  0  0  0  0
    0.2815    0.3816   -1.1018 C   0  0  1  0  0  0  0  0  0  0  0  0
   -0.6253   -0.8121   -1.5283 C   0  0  1  0  0  0  0  0  0  0  0  0
   -1.5294   -1.1275   -0.3545 C   0  0  0  0  0  0  0  0  0  0  0  0
   -0.5442    1.6487   -0.7699 C   0  0  0  0  0  0  0  0  0  0  0  0
    0.2965    2.8094   -0.2790 C   0  0  0  0  0  0  0  0  0  0  0  0
   -3.6406   -2.1183   -2.2987 C   0  0  0  0  0  0  0  0  0  0  0  0
   -3.7014   -3.4499   -1.8814 C   0  0  0  0  0  0  0  0  0  0  0  0
   -4.4805   -1.1616   -1.7162 C   0  0  0  0  0  0  0  0  0  0  0  0
   -4.5703   -3.8177   -0.8506 C   0  0  0  0  0  0  0  0  0  0  0  0
   -5.3043   -1.5278   -0.6418 C   0  0  0  0  0  0  0  0  0  0  0  0
   -5.3684   -2.8602   -0.2130 C   0  0  0  0  0  0  0  0  0  0  0  0
   -6.2807   -3.2502    0.9144 C   0  0  0  0  0  0  0  0  0  0  0  0
   -2.5129   -0.4695   -0.0442 O   0  0  0  0  0  0  0  0  0  0  0  0
   -1.1134   -2.1138    0.4430 O   0  0  0  0  0  0  0  0  0  0  0  0
   -3.0901   -0.9871   -4.5760 O   0  0  0  0  0  0  0  0  0  0  0  0
   -1.5222   -2.7662   -3.7017 O   0  0  0  0  0  0  0  0  0  0  0  0
   -2.3995   -1.6390   -3.4838 S   0  0  0  0  0  0  0  0  0  0  0  0
   -1.4561   -0.4412   -2.7287 N   0  0  0  0  0  0  0  0  0  0  0  0
    0.9690    0.6286   -1.9213 H   0  0  0  0  0  0  0  0  0  0  0  0
   -0.0012   -1.6759   -1.7911 H   0  0  0  0  0  0  0  0  0  0  0  0
    0.5971   -0.1989    1.2381 O   0  0  0  0  0  0  0  0  0  0  0  0
    2.4284   -0.0383   -0.0356 O   0  0  0  0  0  0  0  0  0  0  0  0
   -1.1075    1.9766   -1.6499 H   0  0  0  0  0  0  0  0  0  0  0  0
   -1.2774    1.4442    0.0153 H   0  0  0  0  0  0  0  0  0  0  0  0
    1.0141    3.1133   -1.0431 H   0  0  0  0  0  0  0  0  0  0  0  0
   -0.3540    3.6571   -0.0434 H   0  0  0  0  0  0  0  0  0  0  0  0
    0.8367    2.5478    0.6352 H   0  0  0  0  0  0  0  0  0  0  0  0
   -3.0599   -4.2040   -2.3311 H   0  0  0  0  0  0  0  0  0  0  0  0
   -4.4133   -0.1119   -1.9918 H   0  0  0  0  0  0  0  0  0  0  0  0
   -4.6013   -4.8574   -0.5321 H   0  0  0  0  0  0  0  0  0  0  0  0
   -5.8521   -0.7558   -0.1024 H   0  0  0  0  0  0  0  0  0  0  0  0
   -5.9922   -2.7495    1.8445 H   0  0  0  0  0  0  0  0  0  0  0  0
   -7.3124   -2.9821    0.6656 H   0  0  0  0  0  0  0  0  0  0  0  0
   -6.2541   -4.3307    1.0927 H   0  0  0  0  0  0  0  0  0  0  0  0
   -1.6531   -1.9489    1.2494 H   0  0  0  0  0  0  0  0  0  0  0  0
   -2.0089    0.4117   -2.6389 H   0  0  0  0  0  0  0  0  0  0  0  0
    2.7745    0.2447   -0.9013 H   0  0  0  0  0  0  0  0  0  0  0  0
  1  2  1  0  0  0  0
  1 22  2  0  0  0  0
  1 23  1  0  0  0  0
  2  3  1  0  0  0  0
  2  5  1  0  0  0  0
  2 20  1  6  0  0  0
  3  4  1  0  0  0  0
  3 19  1  0  0  0  0
  3 21  1  6  0  0  0
  4 14  2  0  0  0  0
  4 15  1  0  0  0  0
  5  6  1  0  0  0  0
  5 24  1  0  0  0  0
  5 25  1  0  0  0  0
  6 26  1  0  0  0  0
  6 27  1  0  0  0  0
  6 28  1  0  0  0  0
  7  8  2  0  0  0  0
  7  9  1  0  0  0  0
  7 18  1  0  0  0  0
  8 10  1  0  0  0  0
  8 29  1  0  0  0  0
  9 11  2  0  0  0  0
  9 30  1  0  0  0  0
 10 12  2  0  0  0  0
 10 31  1  0  0  0  0
 11 12  1  0  0  0  0
 11 32  1  0  0  0  0
 12 13  1  0  0  0  0
 13 33  1  0  0  0  0
 13 34  1  0  0  0  0
 13 35  1  0  0  0  0
 15 36  1  0  0  0  0
 16 18  2  0  0  0  0
 17 18  2  0  0  0  0
 18 19  1  0  0  0  0
 19 37  1  0  0  0  0
 23 38  1  0  0  0  0
M  END
>  <DRUGBANK_ID>
DB06951

>  <COMMON_NAME>
(3R)-3-ethyl-N-[(4-methylphenyl)sulfonyl]-L-aspartic acid

$$$$
