
 OpenBabel10282417213D

 66 68  0  0  1  0  0  0  0  0999 V2000
   -3.9263   -5.9707   -5.2164 C   0  0  0  0  0  0  0  0  0  0  0  0
   -2.9059   -6.2128   -3.9527 C   0  0  0  0  0  0  0  0  0  0  0  0
   -2.1007   -7.5686   -3.5257 C   0  0  0  0  0  0  0  0  0  0  0  0
   -1.7050   -4.8644   -3.8623 O   0  0  0  0  0  0  0  0  0  0  0  0
   -0.1261   -3.9061   -4.3465 C   0  0  0  0  0  0  0  0  0  0  0  0
    0.6539   -4.2580   -5.2039 O   0  0  0  0  0  0  0  0  0  0  0  0
   -0.1261   -1.9688   -3.9463 C   0  0  2  0  0  0  0  0  0  0  0  0
    1.2682   -1.6070   -3.5770 C   0  0  0  0  0  0  0  0  0  0  0  0
   -1.4166   -1.3006   -3.1274 N   0  0  0  0  0  0  0  0  0  0  0  0
   -3.2374   -1.6943   -3.5318 P   0  0  2  0  0  0  0  0  0  0  0  0
   -3.6918   -1.9372   -2.0717 O   0  0  0  0  0  0  0  0  0  0  0  0
   -4.2295   -2.9937   -3.8111 O   0  0  0  0  0  0  0  0  0  0  0  0
   -4.4606   -3.9284   -2.6844 C   0  0  0  0  0  0  0  0  0  0  0  0
   -3.2206   -4.2624   -1.5181 C   0  0  1  0  0  0  0  0  0  0  0  0
   -3.9589   -4.3595   -0.3571 F   0  0  0  0  0  0  0  0  0  0  0  0
   -2.3837   -5.5737   -1.6945 O   0  0  0  0  0  0  0  0  0  0  0  0
   -0.8394   -5.3151   -2.2801 C   0  0  1  0  0  0  0  0  0  0  0  0
   -0.2389   -6.1039   -3.9513 N   0  0  0  0  0  0  0  0  0  0  0  0
   -1.0662   -5.9615   -5.4344 C   0  0  0  0  0  0  0  0  0  0  0  0
   -1.4944   -6.9216   -6.2397 C   0  0  0  0  0  0  0  0  0  0  0  0
   -0.5392   -7.9109   -6.3730 C   0  0  0  0  0  0  0  0  0  0  0  0
   -0.8267   -8.7539   -7.2095 O   0  0  0  0  0  0  0  0  0  0  0  0
    0.5595   -7.7366   -5.5145 N   0  0  0  0  0  0  0  0  0  0  0  0
    0.7349   -7.0559   -4.1865 C   0  0  0  0  0  0  0  0  0  0  0  0
    1.4862   -7.4066   -3.2889 O   0  0  0  0  0  0  0  0  0  0  0  0
   -1.1640   -3.6403   -2.4111 C   0  0  2  0  0  0  0  0  0  0  0  0
   -1.9708   -3.1580   -4.2014 C   0  0  0  0  0  0  0  0  0  0  0  0
    0.1041   -3.0752   -1.9486 O   0  0  0  0  0  0  0  0  0  0  0  0
   -2.0804   -3.2999   -1.2551 C   0  0  2  0  0  0  0  0  0  0  0  0
   -1.3630   -3.4105   -0.0149 O   0  0  0  0  0  0  0  0  0  0  0  0
   -2.7296   -1.4228   -5.1632 O   0  0  0  0  0  0  0  0  0  0  0  0
   -2.4820   -2.0443   -6.5348 C   0  0  0  0  0  0  0  0  0  0  0  0
   -3.1676   -3.1788   -6.9475 C   0  0  0  0  0  0  0  0  0  0  0  0
   -2.4991   -4.2087   -7.7008 C   0  0  0  0  0  0  0  0  0  0  0  0
   -1.1171   -4.2088   -7.8624 C   0  0  0  0  0  0  0  0  0  0  0  0
   -0.4715   -3.0110   -7.7090 C   0  0  0  0  0  0  0  0  0  0  0  0
   -1.1560   -1.9153   -7.0961 C   0  0  0  0  0  0  0  0  0  0  0  0
   -3.4492   -5.6100   -6.1057 H   0  0  0  0  0  0  0  0  0  0  0  0
   -4.6513   -5.1332   -5.2264 H   0  0  0  0  0  0  0  0  0  0  0  0
   -4.3931   -6.8930   -5.5449 H   0  0  0  0  0  0  0  0  0  0  0  0
   -3.6150   -6.1923   -3.1150 H   0  0  0  0  0  0  0  0  0  0  0  0
   -1.2865   -7.6516   -4.1747 H   0  0  0  0  0  0  0  0  0  0  0  0
   -1.4646   -7.4821   -2.6138 H   0  0  0  0  0  0  0  0  0  0  0  0
   -2.2913   -8.5691   -3.8803 H   0  0  0  0  0  0  0  0  0  0  0  0
   -0.2452   -1.3239   -4.8411 H   0  0  0  0  0  0  0  0  0  0  0  0
    1.3097   -1.2491   -2.5531 H   0  0  0  0  0  0  0  0  0  0  0  0
    1.8164   -2.5395   -3.7063 H   0  0  0  0  0  0  0  0  0  0  0  0
    1.6710   -0.8722   -4.2743 H   0  0  0  0  0  0  0  0  0  0  0  0
   -1.1299   -1.3482   -2.1574 H   0  0  0  0  0  0  0  0  0  0  0  0
   -5.3282   -3.4635   -2.1792 H   0  0  0  0  0  0  0  0  0  0  0  0
   -4.9218   -4.8288   -3.0889 H   0  0  0  0  0  0  0  0  0  0  0  0
   -0.1686   -5.5787   -1.4631 H   0  0  0  0  0  0  0  0  0  0  0  0
   -1.8050   -5.2008   -5.5818 H   0  0  0  0  0  0  0  0  0  0  0  0
   -2.4326   -7.0075   -6.7961 H   0  0  0  0  0  0  0  0  0  0  0  0
    1.1713   -8.4928   -5.6998 H   0  0  0  0  0  0  0  0  0  0  0  0
   -1.4299   -2.5478   -4.8809 H   0  0  0  0  0  0  0  0  0  0  0  0
   -1.7298   -3.6508   -5.1695 H   0  0  0  0  0  0  0  0  0  0  0  0
   -2.8699   -3.6473   -4.5146 H   0  0  0  0  0  0  0  0  0  0  0  0
    0.8278   -3.7160   -2.1051 H   0  0  0  0  0  0  0  0  0  0  0  0
   -2.2199   -2.2370   -1.1291 H   0  0  0  0  0  0  0  0  0  0  0  0
   -0.6426   -2.7552   -0.1672 H   0  0  0  0  0  0  0  0  0  0  0  0
   -4.0634   -3.4244   -6.3906 H   0  0  0  0  0  0  0  0  0  0  0  0
   -2.9686   -5.1657   -7.9240 H   0  0  0  0  0  0  0  0  0  0  0  0
   -0.5370   -5.1440   -7.9270 H   0  0  0  0  0  0  0  0  0  0  0  0
    0.5926   -3.0097   -7.9507 H   0  0  0  0  0  0  0  0  0  0  0  0
   -0.5093   -1.0866   -6.8360 H   0  0  0  0  0  0  0  0  0  0  0  0
  1  2  1  0  0  0  0
  1 38  1  0  0  0  0
  1 39  1  0  0  0  0
  1 40  1  0  0  0  0
  2  3  1  0  0  0  0
  2  4  1  0  0  0  0
  2 41  1  0  0  0  0
  3 42  1  0  0  0  0
  3 43  1  0  0  0  0
  3 44  1  0  0  0  0
  4  5  1  0  0  0  0
  5  6  2  0  0  0  0
  7  9  1  0  0  0  0
  7 45  1  6  0  0  0
  7  8  1  0  0  0  0
  7  5  1  0  0  0  0
  8 46  1  0  0  0  0
  8 47  1  0  0  0  0
  8 48  1  0  0  0  0
  9 49  1  0  0  0  0
 10 12  1  0  0  0  0
 10 31  1  0  0  0  0
 10 11  2  1  0  0  0
 10  9  1  0  0  0  0
 12 13  1  0  0  0  0
 13 50  1  0  0  0  0
 13 51  1  0  0  0  0
 14 16  1  0  0  0  0
 14 15  1  1  0  0  0
 14 13  1  0  0  0  0
 17 16  1  0  0  0  0
 17 52  1  1  0  0  0
 17 18  1  0  0  0  0
 18 19  1  0  0  0  0
 18 24  1  0  0  0  0
 19 20  2  0  0  0  0
 19 53  1  0  0  0  0
 20 21  1  0  0  0  0
 20 54  1  0  0  0  0
 21 22  2  0  0  0  0
 21 23  1  0  0  0  0
 23 24  1  0  0  0  0
 23 55  1  0  0  0  0
 24 25  2  0  0  0  0
 26 17  1  0  0  0  0
 26 29  1  0  0  0  0
 26 28  1  1  0  0  0
 26 27  1  0  0  0  0
 27 56  1  0  0  0  0
 27 57  1  0  0  0  0
 27 58  1  0  0  0  0
 28 59  1  0  0  0  0
 29 14  1  0  0  0  0
 29 60  1  6  0  0  0
 29 30  1  0  0  0  0
 30 61  1  0  0  0  0
 31 32  1  0  0  0  0
 32 33  2  0  0  0  0
 32 37  1  0  0  0  0
 33 34  1  0  0  0  0
 33 62  1  0  0  0  0
 34 35  2  0  0  0  0
 34 63  1  0  0  0  0
 35 36  1  0  0  0  0
 35 64  1  0  0  0  0
 36 37  2  0  0  0  0
 36 65  1  0  0  0  0
 37 66  1  0  0  0  0
M  END
>  <DRUGBANK_ID>
DB14906

>  <COMMON_NAME>
Adafosbuvir

>  <CAS_NUMBER>
1613589-09-5

>  <UNII>
S83770Y75R

>  <SYNONYMS>
Adafosbuvir

$$$$
