
 OpenBabel10282417133D

 23 23  0  0  0  0  0  0  0  0999 V2000
   -1.7391   -1.6429    0.0099 C   0  0  0  0  0  0  0  0  0  0  0  0
   -0.5025   -0.7941    0.0093 C   0  0  0  0  0  0  0  0  0  0  0  0
    0.7614   -1.4002   -0.0096 C   0  0  0  0  0  0  0  0  0  0  0  0
    1.9231   -0.6273   -0.0077 C   0  0  0  0  0  0  0  0  0  0  0  0
    1.8367    0.7635   -0.0000 C   0  0  0  0  0  0  0  0  0  0  0  0
    0.5860    1.3972    0.0034 C   0  0  0  0  0  0  0  0  0  0  0  0
    0.5089    2.9067   -0.0078 C   0  0  0  0  0  0  0  0  0  0  0  0
   -0.2060    3.4409   -1.2198 C   0  0  0  0  0  0  0  0  0  0  0  0
   -1.3448    4.1466   -1.1432 C   0  0  0  0  0  0  0  0  0  0  0  0
   -0.5739    0.6051    0.0275 C   0  0  0  0  0  0  0  0  0  0  0  0
   -1.7812    1.2493    0.0839 O   0  0  0  0  0  0  0  0  0  0  0  0
   -2.3417   -1.4251    0.8980 H   0  0  0  0  0  0  0  0  0  0  0  0
   -2.3314   -1.4392   -0.8888 H   0  0  0  0  0  0  0  0  0  0  0  0
   -1.5022   -2.7105    0.0199 H   0  0  0  0  0  0  0  0  0  0  0  0
    0.8520   -2.4839   -0.0198 H   0  0  0  0  0  0  0  0  0  0  0  0
    2.8976   -1.1091   -0.0150 H   0  0  0  0  0  0  0  0  0  0  0  0
    2.7516    1.3516    0.0037 H   0  0  0  0  0  0  0  0  0  0  0  0
    0.0275    3.2346    0.9220 H   0  0  0  0  0  0  0  0  0  0  0  0
    1.5178    3.3380    0.0054 H   0  0  0  0  0  0  0  0  0  0  0  0
    0.2031    3.1849   -2.1933 H   0  0  0  0  0  0  0  0  0  0  0  0
   -1.8709    4.4637   -2.0349 H   0  0  0  0  0  0  0  0  0  0  0  0
   -1.7943    4.3682   -0.1802 H   0  0  0  0  0  0  0  0  0  0  0  0
   -2.5037    0.6154   -0.0268 H   0  0  0  0  0  0  0  0  0  0  0  0
  1  2  1  0  0  0  0
  1 12  1  0  0  0  0
  1 13  1  0  0  0  0
  1 14  1  0  0  0  0
  2  3  2  0  0  0  0
  2 10  1  0  0  0  0
  3  4  1  0  0  0  0
  3 15  1  0  0  0  0
  4  5  2  0  0  0  0
  4 16  1  0  0  0  0
  5  6  1  0  0  0  0
  5 17  1  0  0  0  0
  6  7  1  0  0  0  0
  6 10  2  0  0  0  0
  7  8  1  0  0  0  0
  7 18  1  0  0  0  0
  7 19  1  0  0  0  0
  8  9  2  0  0  0  0
  8 20  1  0  0  0  0
  9 21  1  0  0  0  0
  9 22  1  0  0  0  0
 10 11  1  0  0  0  0
 11 23  1  0  0  0  0
M  END
>  <DRUGBANK_ID>
DB03301

>  <SECONDARY_ACCESSION_NUMBERS>
EXPT02077

>  <COMMON_NAME>
2-Allyl-6-Methyl-Phenol

>  <UNII>
BGU079WOI3

$$$$
