
 OpenBabel10282417223D

 44 47  0  0  1  0  0  0  0  0999 V2000
   -9.0522   -0.9962    0.1646 C   0  0  0  0  0  0  0  0  0  0  0  0
   -7.6384   -1.4855    0.4177 C   0  0  1  0  0  0  0  0  0  0  0  0
   -7.6030   -2.9099    0.2785 O   0  0  0  0  0  0  0  0  0  0  0  0
   -6.6900   -0.8846   -0.5703 C   0  0  0  0  0  0  0  0  0  0  0  0
   -6.4189   -1.2803   -1.7959 N   0  0  0  0  0  0  0  0  0  0  0  0
   -5.4871   -0.4077   -2.2958 N   0  0  0  0  0  0  0  0  0  0  0  0
   -5.2538    0.4937   -1.3638 C   0  0  0  0  0  0  0  0  0  0  0  0
   -6.0136    0.2760   -0.2315 O   0  0  0  0  0  0  0  0  0  0  0  0
   -4.1871    1.5770   -1.5772 C   0  0  1  0  0  0  0  0  0  0  0  0
   -4.5240    2.5717   -2.7410 C   0  0  0  0  0  0  0  0  0  0  0  0
   -5.0686    3.4959   -1.6458 C   0  0  1  0  0  0  0  0  0  0  0  0
   -4.0984    2.8133   -0.6579 C   0  0  0  0  0  0  0  0  0  0  0  0
   -4.9847    4.9607   -1.7952 N   0  0  0  0  0  0  0  0  0  0  0  0
   -6.0697    5.8351   -1.6944 C   0  0  0  0  0  0  0  0  0  0  0  0
   -5.9021    7.0314   -1.9556 O   0  0  0  0  0  0  0  0  0  0  0  0
   -7.3260    5.2754   -1.2565 C   0  0  0  0  0  0  0  0  0  0  0  0
   -7.6195    4.3750   -0.2586 C   0  0  0  0  0  0  0  0  0  0  0  0
   -8.9878    4.0783   -0.4009 C   0  0  0  0  0  0  0  0  0  0  0  0
   -9.5239    4.8043   -1.3931 N   0  0  0  0  0  0  0  0  0  0  0  0
   -8.4857    5.5852   -1.9029 O   0  0  0  0  0  0  0  0  0  0  0  0
   -9.7592    3.2058    0.4705 C   0  0  0  0  0  0  0  0  0  0  0  0
   -9.6414    3.3891    1.8562 C   0  0  0  0  0  0  0  0  0  0  0  0
  -10.4420    2.6697    2.7394 C   0  0  0  0  0  0  0  0  0  0  0  0
  -11.3617    1.7499    2.2448 C   0  0  0  0  0  0  0  0  0  0  0  0
  -11.4650    1.5365    0.8689 C   0  0  0  0  0  0  0  0  0  0  0  0
  -10.6369    2.2342   -0.0192 C   0  0  0  0  0  0  0  0  0  0  0  0
   -9.3873   -1.2316   -0.8526 H   0  0  0  0  0  0  0  0  0  0  0  0
   -9.0896    0.0843    0.2971 H   0  0  0  0  0  0  0  0  0  0  0  0
   -9.7672   -1.4631    0.8505 H   0  0  0  0  0  0  0  0  0  0  0  0
   -7.3314   -1.2505    1.4414 H   0  0  0  0  0  0  0  0  0  0  0  0
   -8.2860   -3.2855    0.8584 H   0  0  0  0  0  0  0  0  0  0  0  0
   -3.2313    1.0775   -1.7667 H   0  0  0  0  0  0  0  0  0  0  0  0
   -3.6532    2.9228   -3.3019 H   0  0  0  0  0  0  0  0  0  0  0  0
   -5.2945    2.2490   -3.4506 H   0  0  0  0  0  0  0  0  0  0  0  0
   -6.0901    3.1698   -1.4774 H   0  0  0  0  0  0  0  0  0  0  0  0
   -4.4550    2.7152    0.3701 H   0  0  0  0  0  0  0  0  0  0  0  0
   -3.0874    3.2439   -0.6317 H   0  0  0  0  0  0  0  0  0  0  0  0
   -4.1319    5.4372   -2.0763 H   0  0  0  0  0  0  0  0  0  0  0  0
   -6.9216    3.9372    0.4373 H   0  0  0  0  0  0  0  0  0  0  0  0
   -8.9500    4.1283    2.2546 H   0  0  0  0  0  0  0  0  0  0  0  0
  -10.3728    2.8614    3.8066 H   0  0  0  0  0  0  0  0  0  0  0  0
  -12.0036    1.2054    2.9327 H   0  0  0  0  0  0  0  0  0  0  0  0
  -12.2026    0.8342    0.4874 H   0  0  0  0  0  0  0  0  0  0  0  0
  -10.6762    2.0012   -1.0818 H   0  0  0  0  0  0  0  0  0  0  0  0
  1 27  1  0  0  0  0
  1 28  1  0  0  0  0
  1 29  1  0  0  0  0
  2  1  1  0  0  0  0
  2  3  1  0  0  0  0
  2  4  1  0  0  0  0
  2 30  1  1  0  0  0
  3 31  1  0  0  0  0
  4  5  2  0  0  0  0
  4  8  1  0  0  0  0
  5  6  1  0  0  0  0
  6  7  2  0  0  0  0
  7  8  1  0  0  0  0
  9 10  1  0  0  0  0
  9 12  1  0  0  0  0
  9 32  1  6  0  0  0
  9  7  1  0  0  0  0
 10 33  1  0  0  0  0
 10 34  1  0  0  0  0
 11 10  1  0  0  0  0
 11 12  1  0  0  0  0
 11 13  1  0  0  0  0
 11 35  1  1  0  0  0
 12 36  1  0  0  0  0
 12 37  1  0  0  0  0
 13 14  1  0  0  0  0
 13 38  1  0  0  0  0
 14 15  2  0  0  0  0
 14 16  1  0  0  0  0
 16 17  2  0  0  0  0
 16 20  1  0  0  0  0
 17 18  1  0  0  0  0
 17 39  1  0  0  0  0
 18 19  2  0  0  0  0
 18 21  1  0  0  0  0
 19 20  1  0  0  0  0
 21 22  2  0  0  0  0
 21 26  1  0  0  0  0
 22 23  1  0  0  0  0
 22 40  1  0  0  0  0
 23 24  2  0  0  0  0
 23 41  1  0  0  0  0
 24 25  1  0  0  0  0
 24 42  1  0  0  0  0
 25 26  2  0  0  0  0
 25 43  1  0  0  0  0
 26 44  1  0  0  0  0
M  END
>  <DRUGBANK_ID>
DB15239

>  <COMMON_NAME>
Nesolicaftor

>  <CAS_NUMBER>
1953130-87-4

>  <UNII>
T2U4ZA62U4

>  <SYNONYMS>
N-(trans-3-(5-((R)-1-hydroxyethyl)-1,3,4-oxadiazol-2-yl)cyclobutyl)-3-phenylisoxazole-5-carboxamide; Nesolicitor

$$$$
