CT0
 OpenBabel10282417163D

 29 30  0  0  0  0  0  0  0  0999 V2000
    1.1636    0.1674   -0.0369 O   0  0  0  0  0  0  0  0  0  0  0  0
    2.3775   -0.0881    0.1502 C   0  0  0  0  0  0  0  0  0  0  0  0
    2.6828   -0.1013    1.5257 N   0  0  0  0  0  0  0  0  0  0  0  0
    3.9027    0.3034    2.0328 C   0  0  0  0  0  0  0  0  0  0  0  0
    4.5257    1.2709    1.5943 N   0  0  0  0  0  0  0  0  0  0  0  0
    4.6057   -0.3123    3.5440 S   0  0  0  0  0  0  0  0  0  0  0  0
    6.0795    0.5462    3.1644 C   0  0  0  0  0  0  0  0  0  0  0  0
    5.7108    0.7839    1.8992 C   0  0  0  0  0  0  0  0  0  0  0  0
    2.4407   -1.0781   -2.0551 O   0  0  0  0  0  0  0  0  0  0  0  0
    3.1650   -0.6018   -1.1637 C   0  0  0  0  0  0  0  0  0  0  0  0
    4.5520   -0.5623   -1.5148 N   0  0  0  0  0  0  0  0  0  0  0  0
    5.6592   -0.0391   -0.7361 C   0  0  0  0  0  0  0  0  0  0  0  0
    5.9223    1.5658   -0.7660 C   0  0  0  0  0  0  0  0  0  0  0  0
    7.1470   -0.6421   -0.5378 C   0  0  0  0  0  0  0  0  0  0  0  0
    8.0497    0.4562    0.3198 C   0  0  0  0  0  0  0  0  0  0  0  0
    7.2586    1.9130    0.1586 C   0  0  0  0  0  0  0  0  0  0  0  0
    2.0137    0.5346    1.9451 H   0  0  0  0  0  0  0  0  0  0  0  0
    7.1502    0.5001    3.4103 H   0  0  0  0  0  0  0  0  0  0  0  0
    6.3193    0.4343    1.1620 H   0  0  0  0  0  0  0  0  0  0  0  0
    4.7356   -1.0586   -2.3865 H   0  0  0  0  0  0  0  0  0  0  0  0
    5.1925   -0.4917    0.1389 H   0  0  0  0  0  0  0  0  0  0  0  0
    6.1055    1.9050   -1.7881 H   0  0  0  0  0  0  0  0  0  0  0  0
    5.0262    2.1564   -0.4713 H   0  0  0  0  0  0  0  0  0  0  0  0
    7.0706   -1.5847    0.0545 H   0  0  0  0  0  0  0  0  0  0  0  0
    7.6419   -0.8780   -1.4736 H   0  0  0  0  0  0  0  0  0  0  0  0
    9.1392    0.5190    0.1859 H   0  0  0  0  0  0  0  0  0  0  0  0
    8.0835    0.0380    1.3673 H   0  0  0  0  0  0  0  0  0  0  0  0
    7.8743    2.7621   -0.1708 H   0  0  0  0  0  0  0  0  0  0  0  0
    6.9515    2.3723    1.1429 H   0  0  0  0  0  0  0  0  0  0  0  0
  1  2  2  0  0  0  0
  2  3  1  0  0  0  0
  2 10  1  0  0  0  0
  3  4  1  0  0  0  0
  3 17  1  0  0  0  0
  4  5  2  0  0  0  0
  4  6  1  0  0  0  0
  5  8  1  0  0  0  0
  6  7  1  0  0  0  0
  7  8  2  0  0  0  0
  7 18  1  0  0  0  0
  8 19  1  0  0  0  0
  9 10  2  0  0  0  0
 10 11  1  0  0  0  0
 11 12  1  0  0  0  0
 11 20  1  0  0  0  0
 12 13  1  0  0  0  0
 12 14  1  0  0  0  0
 12 21  1  0  0  0  0
 13 16  1  0  0  0  0
 13 22  1  0  0  0  0
 13 23  1  0  0  0  0
 14 15  1  0  0  0  0
 14 24  1  0  0  0  0
 14 25  1  0  0  0  0
 15 16  1  0  0  0  0
 15 26  1  0  0  0  0
 15 27  1  0  0  0  0
 16 28  1  0  0  0  0
 16 29  1  0  0  0  0
M  END
>  <DRUGBANK_ID>
DB07591

>  <COMMON_NAME>
N1-CYCLOPENTYL-N2-(THIAZOL-2-YL)OXALAMIDE

$$$$
