
 OpenBabel10282417183D

 15 15  0  0  0  0  0  0  0  0999 V2000
    2.4870   -0.0045   -0.0124 C   0  0  0  0  0  0  0  0  0  0  0  0
    0.9874    0.0037    0.0012 C   0  0  0  0  0  0  0  0  0  0  0  0
    0.2777    1.2105    0.0025 C   0  0  0  0  0  0  0  0  0  0  0  0
   -1.1177    1.2100   -0.0006 C   0  0  0  0  0  0  0  0  0  0  0  0
   -1.8159    0.0038   -0.0055 C   0  0  0  0  0  0  0  0  0  0  0  0
   -1.1185   -1.2030   -0.0007 C   0  0  0  0  0  0  0  0  0  0  0  0
    0.2774   -1.2039    0.0031 C   0  0  0  0  0  0  0  0  0  0  0  0
    2.8721   -0.5304    0.8669 H   0  0  0  0  0  0  0  0  0  0  0  0
    2.8523   -0.4982   -0.9186 H   0  0  0  0  0  0  0  0  0  0  0  0
    2.8923    1.0128    0.0013 H   0  0  0  0  0  0  0  0  0  0  0  0
    0.8077    2.1601    0.0034 H   0  0  0  0  0  0  0  0  0  0  0  0
   -1.6597    2.1520   -0.0015 H   0  0  0  0  0  0  0  0  0  0  0  0
   -2.9023    0.0047   -0.0138 H   0  0  0  0  0  0  0  0  0  0  0  0
   -1.6623   -2.1440   -0.0021 H   0  0  0  0  0  0  0  0  0  0  0  0
    0.8095   -2.1527    0.0045 H   0  0  0  0  0  0  0  0  0  0  0  0
  1  2  1  0  0  0  0
  1  8  1  0  0  0  0
  1  9  1  0  0  0  0
  1 10  1  0  0  0  0
  2  3  2  0  0  0  0
  2  7  1  0  0  0  0
  3  4  1  0  0  0  0
  3 11  1  0  0  0  0
  4  5  2  0  0  0  0
  4 12  1  0  0  0  0
  5  6  1  0  0  0  0
  5 13  1  0  0  0  0
  6  7  2  0  0  0  0
  6 14  1  0  0  0  0
  7 15  1  0  0  0  0
M  END
>  <DRUGBANK_ID>
DB11558

>  <SECONDARY_ACCESSION_NUMBERS>
DB01900; EXPT02123

>  <COMMON_NAME>
Toluene

>  <CAS_NUMBER>
108-88-3

>  <UNII>
3FPU23BG52

$$$$
