CKR
 OpenBabel10282417163D

 43 46  0  0  0  0  0  0  0  0999 V2000
    2.6999    1.2553    0.0674 N   0  0  0  0  0  0  0  0  0  0  0  0
    1.4739    0.6854    0.1549 C   0  0  0  0  0  0  0  0  0  0  0  0
    0.2775    1.3564    0.3193 C   0  0  0  0  0  0  0  0  0  0  0  0
   -0.9008    0.6351    0.1848 C   0  0  0  0  0  0  0  0  0  0  0  0
   -2.1374    1.4014    0.0799 C   0  0  0  0  0  0  0  0  0  0  0  0
   -2.1531    2.6326    0.1272 O   0  0  0  0  0  0  0  0  0  0  0  0
   -3.2677    0.6773   -0.1098 N   0  0  0  0  0  0  0  0  0  0  0  0
   -3.2869   -0.6852   -0.1763 C   0  0  0  0  0  0  0  0  0  0  0  0
   -4.5282   -1.2017   -0.3501 N   0  0  0  0  0  0  0  0  0  0  0  0
   -2.2078   -1.4127   -0.0804 N   0  0  0  0  0  0  0  0  0  0  0  0
   -0.9457   -0.7571    0.0704 C   0  0  0  0  0  0  0  0  0  0  0  0
    0.2961   -1.4684    0.0719 C   0  0  0  0  0  0  0  0  0  0  0  0
    1.5009   -0.6993    0.0265 C   0  0  0  0  0  0  0  0  0  0  0  0
    2.8621   -0.9427   -0.1396 N   0  0  0  0  0  0  0  0  0  0  0  0
    3.5221    0.2806   -0.1881 C   0  0  0  0  0  0  0  0  0  0  0  0
    4.8310    0.4222   -0.4619 N   0  0  0  0  0  0  0  0  0  0  0  0
    5.4539    1.7534   -0.5063 C   0  0  0  0  0  0  0  0  0  0  0  0
    6.5314    1.9048    0.5832 C   0  0  0  0  0  0  0  0  0  0  0  0
    7.7944    1.1402    0.5188 N   0  0  0  0  0  0  0  0  0  0  0  0
    7.8787   -0.0817   -0.2998 C   0  0  0  0  0  0  0  0  0  0  0  0
    7.3300   -1.3729    0.3500 C   0  0  0  0  0  0  0  0  0  0  0  0
    7.8648   -1.5671    1.6615 O   0  0  0  0  0  0  0  0  0  0  0  0
    7.5593   -0.4183    2.4651 C   0  0  0  0  0  0  0  0  0  0  0  0
    8.2467    0.8329    1.8924 C   0  0  0  0  0  0  0  0  0  0  0  0
    0.2846    2.4292    0.4496 H   0  0  0  0  0  0  0  0  0  0  0  0
   -4.1095    1.2223   -0.1999 H   0  0  0  0  0  0  0  0  0  0  0  0
   -4.6460   -2.2023   -0.4213 H   0  0  0  0  0  0  0  0  0  0  0  0
   -5.3576   -0.6290   -0.4378 H   0  0  0  0  0  0  0  0  0  0  0  0
    0.3146   -2.5562    0.0630 H   0  0  0  0  0  0  0  0  0  0  0  0
    3.3116   -1.8382   -0.2607 H   0  0  0  0  0  0  0  0  0  0  0  0
    5.3856   -0.3171   -0.8556 H   0  0  0  0  0  0  0  0  0  0  0  0
    5.9010    1.9353   -1.4898 H   0  0  0  0  0  0  0  0  0  0  0  0
    4.7208    2.5581   -0.3518 H   0  0  0  0  0  0  0  0  0  0  0  0
    6.8444    2.9606    0.5871 H   0  0  0  0  0  0  0  0  0  0  0  0
    6.0294    1.7616    1.5492 H   0  0  0  0  0  0  0  0  0  0  0  0
    8.9513   -0.2568   -0.4667 H   0  0  0  0  0  0  0  0  0  0  0  0
    7.4715    0.0672   -1.3066 H   0  0  0  0  0  0  0  0  0  0  0  0
    6.2444   -1.3886    0.4498 H   0  0  0  0  0  0  0  0  0  0  0  0
    7.5942   -2.2397   -0.2658 H   0  0  0  0  0  0  0  0  0  0  0  0
    7.9201   -0.6132    3.4770 H   0  0  0  0  0  0  0  0  0  0  0  0
    6.4693   -0.2945    2.5205 H   0  0  0  0  0  0  0  0  0  0  0  0
    9.3299    0.6714    1.8609 H   0  0  0  0  0  0  0  0  0  0  0  0
    8.0759    1.6919    2.5522 H   0  0  0  0  0  0  0  0  0  0  0  0
  1  2  1  0  0  0  0
  1 15  2  0  0  0  0
  2  3  2  0  0  0  0
  2 13  1  0  0  0  0
  3  4  1  0  0  0  0
  3 25  1  0  0  0  0
  4  5  1  0  0  0  0
  4 11  2  0  0  0  0
  5  6  2  0  0  0  0
  5  7  1  0  0  0  0
  7  8  1  0  0  0  0
  7 26  1  0  0  0  0
  8  9  1  0  0  0  0
  8 10  2  0  0  0  0
  9 27  1  0  0  0  0
  9 28  1  0  0  0  0
 10 11  1  0  0  0  0
 11 12  1  0  0  0  0
 12 13  2  0  0  0  0
 12 29  1  0  0  0  0
 13 14  1  0  0  0  0
 14 15  1  0  0  0  0
 14 30  1  0  0  0  0
 15 16  1  0  0  0  0
 16 17  1  0  0  0  0
 16 31  1  0  0  0  0
 17 18  1  0  0  0  0
 17 32  1  0  0  0  0
 17 33  1  0  0  0  0
 18 19  1  0  0  0  0
 18 34  1  0  0  0  0
 18 35  1  0  0  0  0
 19 20  1  0  0  0  0
 19 24  1  0  0  0  0
 20 21  1  0  0  0  0
 20 36  1  0  0  0  0
 20 37  1  0  0  0  0
 21 22  1  0  0  0  0
 21 38  1  0  0  0  0
 21 39  1  0  0  0  0
 22 23  1  0  0  0  0
 23 24  1  0  0  0  0
 23 40  1  0  0  0  0
 23 41  1  0  0  0  0
 24 42  1  0  0  0  0
 24 43  1  0  0  0  0
M  END
>  <DRUGBANK_ID>
DB07564

>  <COMMON_NAME>
6-amino-2-[(2-morpholin-4-ylethyl)amino]-3,7-dihydro-8H-imidazo[4,5-g]quinazolin-8-one

$$$$
