
 OpenBabel10282417193D

 48 52  0  0  1  0  0  0  0  0999 V2000
   -4.4399    2.8231   -0.4759 C   0  0  0  0  0  0  0  0  0  0  0  0
   -5.0409    2.0324    0.4849 C   0  0  0  0  0  0  0  0  0  0  0  0
   -4.2635    1.5621    1.5510 C   0  0  0  0  0  0  0  0  0  0  0  0
   -2.8477    1.8981    1.6327 C   0  0  0  0  0  0  0  0  0  0  0  0
   -2.1505    2.6479    0.6366 C   0  0  0  0  0  0  0  0  0  0  0  0
   -3.0511    3.1240   -0.3930 C   0  0  0  0  0  0  0  0  0  0  0  0
   -0.5353    2.4021    0.1891 C   0  0  2  0  0  0  0  0  0  0  0  0
    1.0088    2.5728    0.7095 C   0  0  0  0  0  0  0  0  0  0  0  0
    2.0506    1.6956    1.2054 C   0  0  0  0  0  0  0  0  0  0  0  0
    3.3640    2.1362    1.4804 C   0  0  0  0  0  0  0  0  0  0  0  0
    3.7170    3.4091    1.0881 C   0  0  0  0  0  0  0  0  0  0  0  0
    2.8674    4.0815    0.2163 C   0  0  0  0  0  0  0  0  0  0  0  0
    1.5666    3.6114    0.0098 C   0  0  0  0  0  0  0  0  0  0  0  0
    0.6630    3.9456   -1.0706 C   0  0  0  0  0  0  0  0  0  0  0  0
   -0.4499    3.2346   -1.0816 N   0  0  0  0  0  0  0  0  0  0  0  0
    0.9445    4.8469   -2.0197 N   0  0  0  0  0  0  0  0  0  0  0  0
    3.2916    5.2013   -0.3727 F   0  0  0  0  0  0  0  0  0  0  0  0
   -0.5881    0.9087    0.0488 C   0  0  0  0  0  0  0  0  0  0  0  0
   -0.2677    0.1141    1.1680 C   0  0  0  0  0  0  0  0  0  0  0  0
    0.1598   -1.1570    0.9247 C   0  0  0  0  0  0  0  0  0  0  0  0
    0.1718   -1.6669   -0.3168 N   0  0  0  0  0  0  0  0  0  0  0  0
   -0.3474   -0.9105   -1.3392 C   0  0  0  0  0  0  0  0  0  0  0  0
   -0.8109    0.3672   -1.1797 C   0  0  0  0  0  0  0  0  0  0  0  0
   -0.3221   -1.4282   -2.7450 C   0  0  0  0  0  0  0  0  0  0  0  0
    0.9408   -1.6225   -3.2143 F   0  0  0  0  0  0  0  0  0  0  0  0
   -0.9863   -2.6040   -2.8738 F   0  0  0  0  0  0  0  0  0  0  0  0
   -4.9142    0.6970    2.5479 C   0  0  0  0  0  0  0  0  0  0  0  0
   -5.5468   -0.5058    2.2536 C   0  0  0  0  0  0  0  0  0  0  0  0
   -6.1374   -1.3068    3.1722 N   0  0  0  0  0  0  0  0  0  0  0  0
   -6.0944   -0.8656    4.4373 C   0  0  0  0  0  0  0  0  0  0  0  0
   -5.5508    0.2894    4.8481 N   0  0  0  0  0  0  0  0  0  0  0  0
   -4.9825    1.0446    3.8829 C   0  0  0  0  0  0  0  0  0  0  0  0
   -5.0414    3.1661   -1.3210 H   0  0  0  0  0  0  0  0  0  0  0  0
   -6.1056    1.7932    0.4006 H   0  0  0  0  0  0  0  0  0  0  0  0
   -2.2967    1.4455    2.4516 H   0  0  0  0  0  0  0  0  0  0  0  0
   -2.6735    3.6887   -1.2446 H   0  0  0  0  0  0  0  0  0  0  0  0
    1.9866    0.6109    1.3224 H   0  0  0  0  0  0  0  0  0  0  0  0
    4.0893    1.4890    1.9842 H   0  0  0  0  0  0  0  0  0  0  0  0
    4.6537    3.8526    1.4059 H   0  0  0  0  0  0  0  0  0  0  0  0
    0.2267    5.0713   -2.7013 H   0  0  0  0  0  0  0  0  0  0  0  0
    1.9105    4.9943   -2.3198 H   0  0  0  0  0  0  0  0  0  0  0  0
   -0.0923    0.5722    2.1463 H   0  0  0  0  0  0  0  0  0  0  0  0
    0.6266   -1.7356    1.7157 H   0  0  0  0  0  0  0  0  0  0  0  0
   -1.2054    0.9850   -1.9808 H   0  0  0  0  0  0  0  0  0  0  0  0
   -0.8002   -0.7044   -3.4163 H   0  0  0  0  0  0  0  0  0  0  0  0
   -5.6007   -0.8907    1.2368 H   0  0  0  0  0  0  0  0  0  0  0  0
   -6.5371   -1.4983    5.1991 H   0  0  0  0  0  0  0  0  0  0  0  0
   -4.5728    1.9904    4.2255 H   0  0  0  0  0  0  0  0  0  0  0  0
  1  2  2  0  0  0  0
  1  6  1  0  0  0  0
  1 33  1  0  0  0  0
  2  3  1  0  0  0  0
  2 34  1  0  0  0  0
  3  4  2  0  0  0  0
  3 27  1  0  0  0  0
  4  5  1  0  0  0  0
  4 35  1  0  0  0  0
  5  6  2  0  0  0  0
  6 36  1  0  0  0  0
  7  8  1  0  0  0  0
  7 15  1  0  0  0  0
  7 18  1  6  0  0  0
  7  5  1  0  0  0  0
  8  9  2  0  0  0  0
  8 13  1  0  0  0  0
  9 10  1  0  0  0  0
  9 37  1  0  0  0  0
 10 11  2  0  0  0  0
 10 38  1  0  0  0  0
 11 12  1  0  0  0  0
 11 39  1  0  0  0  0
 12 13  2  0  0  0  0
 12 17  1  0  0  0  0
 13 14  1  0  0  0  0
 14 15  2  0  0  0  0
 14 16  1  0  0  0  0
 16 40  1  0  0  0  0
 16 41  1  0  0  0  0
 18 19  2  0  0  0  0
 18 23  1  0  0  0  0
 19 20  1  0  0  0  0
 19 42  1  0  0  0  0
 20 21  2  0  0  0  0
 20 43  1  0  0  0  0
 21 22  1  0  0  0  0
 22 23  2  0  0  0  0
 22 24  1  0  0  0  0
 23 44  1  0  0  0  0
 24 25  1  0  0  0  0
 24 26  1  0  0  0  0
 24 45  1  0  0  0  0
 27 28  2  0  0  0  0
 27 32  1  0  0  0  0
 28 29  1  0  0  0  0
 28 46  1  0  0  0  0
 29 30  2  0  0  0  0
 30 31  1  0  0  0  0
 30 47  1  0  0  0  0
 31 32  2  0  0  0  0
 32 48  1  0  0  0  0
M  END
>  <DRUGBANK_ID>
DB12368

>  <COMMON_NAME>
AZD-3839

>  <CAS_NUMBER>
1227163-84-9

>  <UNII>
I8ID590133

$$$$
