
 OpenBabel10282417103D

 50 52  0  0  0  0  0  0  0  0999 V2000
    0.9409   -0.0662   -0.0089 C   0  0  0  0  0  0  0  0  0  0  0  0
    0.2986    1.1520   -0.1017 C   0  0  0  0  0  0  0  0  0  0  0  0
   -1.0843    1.1837   -0.2320 C   0  0  0  0  0  0  0  0  0  0  0  0
   -1.8649    0.0303   -0.0974 C   0  0  0  0  0  0  0  0  0  0  0  0
   -1.1993   -1.2002   -0.0088 C   0  0  0  0  0  0  0  0  0  0  0  0
    0.2060   -1.2493    0.0098 C   0  0  0  0  0  0  0  0  0  0  0  0
    2.3023   -0.0395    0.0322 O   0  0  0  0  0  0  0  0  0  0  0  0
   -3.3759    0.1559   -0.0341 C   0  0  0  0  0  0  0  0  0  0  0  0
   -3.9476    0.8839    1.2187 C   0  0  1  0  0  0  0  0  0  0  0  0
   -3.4159    2.3337    1.4452 C   0  0  0  0  0  0  0  0  0  0  0  0
   -4.2746    3.3845    1.1416 N   0  0  0  0  0  0  0  0  0  0  0  0
   -2.2639    2.5394    1.8301 O   0  0  0  0  0  0  0  0  0  0  0  0
   -3.7905    4.7203    1.1519 C   0  0  0  0  0  0  0  0  0  0  0  0
   -2.7062    5.0777    0.3401 C   0  0  0  0  0  0  0  0  0  0  0  0
   -2.2573    6.4026    0.2715 C   0  0  0  0  0  0  0  0  0  0  0  0
   -2.8787    7.3916    1.0372 C   0  0  0  0  0  0  0  0  0  0  0  0
   -3.9728    7.0402    1.8429 C   0  0  0  0  0  0  0  0  0  0  0  0
   -4.4139    5.7064    1.9176 C   0  0  0  0  0  0  0  0  0  0  0  0
   -2.3802    8.7922    1.0635 C   0  0  0  0  0  0  0  0  0  0  0  0
   -2.8484    9.7008    1.7322 O   0  0  0  0  0  0  0  0  0  0  0  0
   -1.3011    8.9858    0.2836 O   0  0  0  0  0  0  0  0  0  0  0  0
   -5.4260    0.8458    1.2005 N   0  0  0  0  0  0  0  0  0  0  0  0
   -6.1288    0.3063    2.2610 C   0  0  0  0  0  0  0  0  0  0  0  0
   -7.6110    0.3358    2.1852 C   0  0  0  0  0  0  0  0  0  0  0  0
   -5.5932   -0.1853    3.2466 O   0  0  0  0  0  0  0  0  0  0  0  0
   -8.2807    0.0159    1.0006 C   0  0  0  0  0  0  0  0  0  0  0  0
   -9.6754   -0.0771    0.9954 C   0  0  0  0  0  0  0  0  0  0  0  0
  -10.3993    0.1316    2.1705 C   0  0  0  0  0  0  0  0  0  0  0  0
   -9.7322    0.4321    3.3572 C   0  0  0  0  0  0  0  0  0  0  0  0
   -8.3418    0.5650    3.3600 C   0  0  0  0  0  0  0  0  0  0  0  0
    0.8581    2.0816   -0.0676 H   0  0  0  0  0  0  0  0  0  0  0  0
   -1.5486    2.1519   -0.3730 H   0  0  0  0  0  0  0  0  0  0  0  0
   -1.7596   -2.1316    0.0440 H   0  0  0  0  0  0  0  0  0  0  0  0
    0.7047   -2.2121    0.0571 H   0  0  0  0  0  0  0  0  0  0  0  0
    2.6367   -0.9481   -0.0013 H   0  0  0  0  0  0  0  0  0  0  0  0
   -3.7217    0.6431   -0.9545 H   0  0  0  0  0  0  0  0  0  0  0  0
   -3.8078   -0.8567   -0.0638 H   0  0  0  0  0  0  0  0  0  0  0  0
   -3.6045    0.3307    2.1017 H   0  0  0  0  0  0  0  0  0  0  0  0
   -5.2366    3.2287    1.4144 H   0  0  0  0  0  0  0  0  0  0  0  0
   -2.2035    4.3297   -0.2642 H   0  0  0  0  0  0  0  0  0  0  0  0
   -1.4228    6.6446   -0.3823 H   0  0  0  0  0  0  0  0  0  0  0  0
   -4.4798    7.8066    2.4273 H   0  0  0  0  0  0  0  0  0  0  0  0
   -5.1912    5.4497    2.6326 H   0  0  0  0  0  0  0  0  0  0  0  0
   -1.0462    9.9213    0.4320 H   0  0  0  0  0  0  0  0  0  0  0  0
   -5.9166    1.2733    0.4255 H   0  0  0  0  0  0  0  0  0  0  0  0
   -7.7305   -0.2145    0.0938 H   0  0  0  0  0  0  0  0  0  0  0  0
  -10.1992   -0.3493    0.0822 H   0  0  0  0  0  0  0  0  0  0  0  0
  -11.4839    0.0453    2.1654 H   0  0  0  0  0  0  0  0  0  0  0  0
  -10.2930    0.5366    4.2836 H   0  0  0  0  0  0  0  0  0  0  0  0
   -7.8295    0.8251    4.2846 H   0  0  0  0  0  0  0  0  0  0  0  0
  1  7  1  0  0  0  0
  1  2  2  0  0  0  0
  2  3  1  0  0  0  0
  2 31  1  0  0  0  0
  3  4  2  0  0  0  0
  3 32  1  0  0  0  0
  4  8  1  0  0  0  0
  4  5  1  0  0  0  0
  5  6  2  0  0  0  0
  5 33  1  0  0  0  0
  6  1  1  0  0  0  0
  6 34  1  0  0  0  0
  7 35  1  0  0  0  0
  8  9  1  0  0  0  0
  8 36  1  0  0  0  0
  8 37  1  0  0  0  0
  9 10  1  0  0  0  0
  9 22  1  0  0  0  0
  9 38  1  1  0  0  0
 10 11  1  0  0  0  0
 10 12  2  0  0  0  0
 11 13  1  0  0  0  0
 11 39  1  0  0  0  0
 13 14  2  0  0  0  0
 14 15  1  0  0  0  0
 14 40  1  0  0  0  0
 15 16  2  0  0  0  0
 15 41  1  0  0  0  0
 16 17  1  0  0  0  0
 16 19  1  0  0  0  0
 17 18  2  0  0  0  0
 17 42  1  0  0  0  0
 18 13  1  0  0  0  0
 18 43  1  0  0  0  0
 19 20  2  0  0  0  0
 19 21  1  0  0  0  0
 21 44  1  0  0  0  0
 22 23  1  0  0  0  0
 22 45  1  0  0  0  0
 23 24  1  0  0  0  0
 23 25  2  0  0  0  0
 24 26  2  0  0  0  0
 26 27  1  0  0  0  0
 26 46  1  0  0  0  0
 27 28  2  0  0  0  0
 27 47  1  0  0  0  0
 28 29  1  0  0  0  0
 28 48  1  0  0  0  0
 29 30  2  0  0  0  0
 29 49  1  0  0  0  0
 30 24  1  0  0  0  0
 30 50  1  0  0  0  0
M  END
>  <DRUGBANK_ID>
DB00522

>  <SECONDARY_ACCESSION_NUMBERS>
APRD00818

>  <COMMON_NAME>
Bentiromide

>  <CAS_NUMBER>
37106-97-1

>  <UNII>
239IF5W61J

>  <SYNONYMS>
Bentiromide; Bentiromido; Bentiromidum; BTPABA; PFT

$$$$
