
 OpenBabel10282417233D

 51 54  0  0  0  0  0  0  0  0999 V2000
    0.7349    0.0638   -0.6046 C   0  0  0  0  0  0  0  0  0  0  0  0
    5.6692    3.6050    1.0224 C   0  0  0  0  0  0  0  0  0  0  0  0
    0.6664   -0.3644    0.8242 C   0  0  0  0  0  0  0  0  0  0  0  0
   -2.0587   -0.4515    2.0202 C   0  0  0  0  0  0  0  0  0  0  0  0
   -1.9518    0.9487    2.0765 C   0  0  0  0  0  0  0  0  0  0  0  0
   -1.2996   -1.2230    2.9083 C   0  0  0  0  0  0  0  0  0  0  0  0
   -1.1802    1.5713    3.0807 C   0  0  0  0  0  0  0  0  0  0  0  0
   -0.5982   -0.6104    3.9458 C   0  0  0  0  0  0  0  0  0  0  0  0
    2.7001   -0.6332    3.9114 C   0  0  0  0  0  0  0  0  0  0  0  0
    3.6548   -1.6883    3.3281 C   0  0  0  0  0  0  0  0  0  0  0  0
    3.7746    0.9991    3.2027 C   0  0  0  0  0  0  0  0  0  0  0  0
    3.8505   -1.6249    0.0222 C   0  0  0  0  0  0  0  0  0  0  0  0
    0.6409    1.3428    4.9168 C   0  0  0  0  0  0  0  0  0  0  0  0
    5.8052    1.8449    2.2198 C   0  0  0  0  0  0  0  0  0  0  0  0
   -0.4624    0.7880    4.0098 C   0  0  0  0  0  0  0  0  0  0  0  0
    2.8002    0.7271    4.0418 C   0  0  0  0  0  0  0  0  0  0  0  0
    4.7269   -0.0962    2.4946 C   0  0  0  0  0  0  0  0  0  0  0  0
    4.8122    1.1860    0.8051 C   0  0  0  0  0  0  0  0  0  0  0  0
    4.9162   -1.4007    2.8295 C   0  0  0  0  0  0  0  0  0  0  0  0
    5.0963   -1.3226    0.5446 C   0  0  0  0  0  0  0  0  0  0  0  0
    5.2699   -0.0605    1.0775 C   0  0  0  0  0  0  0  0  0  0  0  0
    3.3713    0.7552    0.6180 C   0  0  0  0  0  0  0  0  0  0  0  0
    2.0456    1.5061    1.2348 C   0  0  0  0  0  0  0  0  0  0  0  0
    2.9871   -0.6107    0.2649 N   0  0  0  0  0  0  0  0  0  0  0  0
    5.8063   -1.7645    1.7139 N   0  0  0  0  0  0  0  0  0  0  0  0
    1.9482    2.7679    1.5404 O   0  0  0  0  0  0  0  0  0  0  0  0
    5.6933    3.2019    2.3471 O   0  0  0  0  0  0  0  0  0  0  0  0
    1.0367    0.7261    1.6468 O   0  0  0  0  0  0  0  0  0  0  0  0
    1.8792    1.7152    4.2863 O   0  0  0  0  0  0  0  0  0  0  0  0
    0.2323    1.0330   -0.6627 H   0  0  0  0  0  0  0  0  0  0  0  0
    0.3022   -0.7245   -1.2000 H   0  0  0  0  0  0  0  0  0  0  0  0
    1.7140    0.2837   -1.0081 H   0  0  0  0  0  0  0  0  0  0  0  0
    6.6634    3.3736    0.6418 H   0  0  0  0  0  0  0  0  0  0  0  0
    4.9819    3.0851    0.3596 H   0  0  0  0  0  0  0  0  0  0  0  0
    5.1866    4.5550    1.0173 H   0  0  0  0  0  0  0  0  0  0  0  0
   -0.3840   -0.4966    0.8306 H   0  0  0  0  0  0  0  0  0  0  0  0
    1.0139   -1.3159    1.2561 H   0  0  0  0  0  0  0  0  0  0  0  0
   -2.3916   -0.9153    1.0834 H   0  0  0  0  0  0  0  0  0  0  0  0
   -2.2290    1.5268    1.1896 H   0  0  0  0  0  0  0  0  0  0  0  0
   -0.9925   -2.2347    2.6201 H   0  0  0  0  0  0  0  0  0  0  0  0
   -0.9906    2.6417    2.9949 H   0  0  0  0  0  0  0  0  0  0  0  0
    0.0348   -1.2311    4.5763 H   0  0  0  0  0  0  0  0  0  0  0  0
    1.6924   -0.9102    3.6962 H   0  0  0  0  0  0  0  0  0  0  0  0
    3.1091   -2.3969    2.7138 H   0  0  0  0  0  0  0  0  0  0  0  0
    3.7101    2.0546    2.7709 H   0  0  0  0  0  0  0  0  0  0  0  0
    3.5128   -2.4815   -0.5651 H   0  0  0  0  0  0  0  0  0  0  0  0
    0.9072    0.6145    5.6851 H   0  0  0  0  0  0  0  0  0  0  0  0
    0.2250    2.2086    5.4488 H   0  0  0  0  0  0  0  0  0  0  0  0
    5.6812    1.4901    3.3017 H   0  0  0  0  0  0  0  0  0  0  0  0
    6.8239    1.3751    2.2239 H   0  0  0  0  0  0  0  0  0  0  0  0
    6.7362   -1.3169    1.7170 H   0  0  0  0  0  0  0  0  0  0  0  0
  1 30  1  0  0  0  0
  1 31  1  0  0  0  0
  1 32  1  0  0  0  0
  2 33  1  0  0  0  0
  2 34  1  0  0  0  0
  2 35  1  0  0  0  0
  3  1  1  0  0  0  0
  3 36  1  0  0  0  0
  3 37  1  0  0  0  0
  4 38  1  0  0  0  0
  5  4  2  0  0  0  0
  5 39  1  0  0  0  0
  6  4  1  0  0  0  0
  6 40  1  0  0  0  0
  7  5  1  0  0  0  0
  7 41  1  0  0  0  0
  8  6  2  0  0  0  0
  8 42  1  0  0  0  0
  9 43  1  0  0  0  0
 10  9  2  0  0  0  0
 10 44  1  0  0  0  0
 11 45  1  0  0  0  0
 12 46  1  0  0  0  0
 13 47  1  0  0  0  0
 13 48  1  0  0  0  0
 14 49  1  0  0  0  0
 14 50  1  0  0  0  0
 15  7  2  0  0  0  0
 15  8  1  0  0  0  0
 15 13  1  0  0  0  0
 16  9  1  0  0  0  0
 16 11  2  0  0  0  0
 17 11  1  0  0  0  0
 18 14  1  0  0  0  0
 19 10  1  0  0  0  0
 19 17  2  0  0  0  0
 20 12  2  0  0  0  0
 21 17  1  0  0  0  0
 21 18  2  0  0  0  0
 21 20  1  0  0  0  0
 22 18  1  0  0  0  0
 23 22  1  0  0  0  0
 24 12  1  0  0  0  0
 24 22  2  0  0  0  0
 25 19  1  0  0  0  0
 25 20  1  0  0  0  0
 25 51  1  0  0  0  0
 26 23  2  0  0  0  0
 27  2  1  0  0  0  0
 27 14  1  0  0  0  0
 28  3  1  0  0  0  0
 28 23  1  0  0  0  0
 29 13  1  0  0  0  0
 29 16  1  0  0  0  0
M  END
>  <DRUGBANK_ID>
DB17063

>  <COMMON_NAME>
ZK-93423

>  <CAS_NUMBER>
83910-44-5

>  <UNII>
B6PWX5B47Q

>  <SYNONYMS>
9H-Pyrido[3,4-b]indole-3-carboxylicacid, 4-(methoxymethyl)-6-(phenylmethoxy)-, ethyl ester

$$$$
