
 OpenBabel10282417233D

 81 84  0  0  0  0  0  0  0  0999 V2000
    1.0809   -2.4888    0.4678 C   0  0  0  0  0  0  0  0  0  0  0  0
    0.5743   -1.4129   -0.4788 C   0  0  2  0  0  0  0  0  0  0  0  0
    1.0809   -0.0551   -0.0204 C   0  0  0  0  0  0  0  0  0  0  0  0
    2.0014   -0.3968    1.6760 Se  0  0  0  0  0  0  0  0  0  0  0  0
    0.6837   -0.8486    3.0548 C   0  0  0  0  0  0  0  0  0  0  0  0
   -0.2853    0.3095    3.2285 C   0  0  0  0  0  0  0  0  0  0  0  0
   -1.5273    0.1351    3.0231 O   0  0  0  0  0  0  0  0  0  0  0  0
    0.2141    1.6313    3.6340 N   0  0  0  0  0  0  0  0  0  0  0  0
    1.6507    1.8330    3.8716 C   0  0  0  0  0  0  0  0  0  0  0  0
    2.1766    2.8974    2.9225 C   0  0  0  0  0  0  0  0  0  0  0  0
    1.2936    4.4511    3.2094 S   0  0  0  0  0  0  0  0  0  0  0  0
    1.5388    4.9563    4.8245 O   0  0  0  0  0  0  0  0  0  0  0  0
    1.8232    5.5228    2.2537 O   0  0  0  0  0  0  0  0  0  0  0  0
   -0.2020    4.2411    2.9620 O   0  0  0  0  0  0  0  0  0  0  0  0
   -0.9457   -1.4129   -0.4788 C   0  0  1  0  0  0  0  0  0  0  0  0
   -1.2410   -1.0007   -1.4211 H   0  0  0  0  0  0  0  0  0  0  0  0
   -1.4980   -2.8467   -0.2536 C   0  0  0  0  0  0  0  0  0  0  0  0
   -2.6499   -2.7450    0.7691 C   0  0  0  0  0  0  0  0  0  0  0  0
   -2.8990   -1.2329    0.8654 C   0  0  1  0  0  0  0  0  0  0  0  0
   -3.5642   -0.9309    0.0836 H   0  0  0  0  0  0  0  0  0  0  0  0
   -3.7216   -0.7238    2.0363 C   0  0  2  0  0  0  0  0  0  0  0  0
   -3.1894   -0.9334    2.9406 H   0  0  0  0  0  0  0  0  0  0  0  0
   -5.0671   -1.4637    2.1535 C   0  0  2  0  0  0  0  0  0  0  0  0
   -5.7892   -1.4031    0.9216 O   0  0  0  0  0  0  0  0  0  0  0  0
   -5.9211   -0.8873    3.2732 C   0  0  0  0  0  0  0  0  0  0  0  0
   -6.0820    0.6452    3.2248 C   0  0  2  0  0  0  0  0  0  0  0  0
   -6.5168    0.9747    4.1452 H   0  0  0  0  0  0  0  0  0  0  0  0
   -7.0517    1.0473    2.1215 C   0  0  0  0  0  0  0  0  0  0  0  0
   -7.2522    2.5526    2.0193 C   0  0  2  0  0  0  0  0  0  0  0  0
   -8.0854    2.8339    0.8739 O   0  0  0  0  0  0  0  0  0  0  0  0
   -5.9087    3.2522    1.8416 C   0  0  0  0  0  0  0  0  0  0  0  0
   -4.9804    2.8802    3.0009 C   0  0  0  0  0  0  0  0  0  0  0  0
   -4.7001    1.3685    3.1424 C   0  0  1  0  0  0  0  0  0  0  0  0
   -3.9348    1.1792    4.4705 C   0  0  0  0  0  0  0  0  0  0  0  0
   -3.8972    0.8017    1.9388 C   0  0  1  0  0  0  0  0  0  0  0  0
   -4.4876    1.0191    1.0733 H   0  0  0  0  0  0  0  0  0  0  0  0
   -2.5369    1.4946    1.7330 C   0  0  0  0  0  0  0  0  0  0  0  0
   -1.6881    0.9148    0.5768 C   0  0  2  0  0  0  0  0  0  0  0  0
   -2.3163    1.2249   -0.6852 O   0  0  0  0  0  0  0  0  0  0  0  0
   -1.5001   -0.6020    0.7316 C   0  0  2  0  0  0  0  0  0  0  0  0
   -0.6220   -0.8812    1.9853 C   0  0  0  0  0  0  0  0  0  0  0  0
   -0.4362    2.4084    3.7506 H   0  0  0  0  0  0  0  0  0  0  0  0
    1.1928    4.2560    5.4490 H   0  0  0  0  0  0  0  0  0  0  0  0
   -5.9959   -0.4495    0.7029 H   0  0  0  0  0  0  0  0  0  0  0  0
   -7.6391    2.4948    0.0458 H   0  0  0  0  0  0  0  0  0  0  0  0
   -3.2245    0.8076   -0.7170 H   0  0  0  0  0  0  0  0  0  0  0  0
    1.0128   -2.1189    1.4695 H   0  0  0  0  0  0  0  0  0  0  0  0
    2.0806   -2.8188    0.2767 H   0  0  0  0  0  0  0  0  0  0  0  0
    0.4048   -3.3087    0.3436 H   0  0  0  0  0  0  0  0  0  0  0  0
    0.9309   -1.6113   -1.4679 H   0  0  0  0  0  0  0  0  0  0  0  0
    1.8003    0.1915   -0.7731 H   0  0  0  0  0  0  0  0  0  0  0  0
    0.3988    0.7601    0.1019 H   0  0  0  0  0  0  0  0  0  0  0  0
    0.1440   -1.7239    2.7593 H   0  0  0  0  0  0  0  0  0  0  0  0
    1.1862   -1.0351    3.9809 H   0  0  0  0  0  0  0  0  0  0  0  0
    1.8041    2.1491    4.8823 H   0  0  0  0  0  0  0  0  0  0  0  0
    2.1726    0.9145    3.7021 H   0  0  0  0  0  0  0  0  0  0  0  0
    3.2223    3.0442    3.0955 H   0  0  0  0  0  0  0  0  0  0  0  0
    2.0232    2.5813    1.9118 H   0  0  0  0  0  0  0  0  0  0  0  0
   -0.7277   -3.4945    0.1096 H   0  0  0  0  0  0  0  0  0  0  0  0
   -1.8631   -3.2467   -1.1764 H   0  0  0  0  0  0  0  0  0  0  0  0
   -2.4154   -3.1931    1.7121 H   0  0  0  0  0  0  0  0  0  0  0  0
   -3.5217   -3.2561    0.4176 H   0  0  0  0  0  0  0  0  0  0  0  0
   -4.8486   -2.4858    2.3826 H   0  0  0  0  0  0  0  0  0  0  0  0
   -5.4173   -1.1134    4.1898 H   0  0  0  0  0  0  0  0  0  0  0  0
   -6.8941   -1.3284    3.2134 H   0  0  0  0  0  0  0  0  0  0  0  0
   -8.0012    0.6152    2.3595 H   0  0  0  0  0  0  0  0  0  0  0  0
   -6.6709    0.6906    1.1873 H   0  0  0  0  0  0  0  0  0  0  0  0
   -7.7156    2.9094    2.9154 H   0  0  0  0  0  0  0  0  0  0  0  0
   -5.4659    2.9433    0.9178 H   0  0  0  0  0  0  0  0  0  0  0  0
   -6.0574    4.3118    1.8300 H   0  0  0  0  0  0  0  0  0  0  0  0
   -4.0386    3.3447    2.7954 H   0  0  0  0  0  0  0  0  0  0  0  0
   -5.4287    3.2227    3.9101 H   0  0  0  0  0  0  0  0  0  0  0  0
   -3.7634    0.1364    4.6380 H   0  0  0  0  0  0  0  0  0  0  0  0
   -2.9965    1.6908    4.4176 H   0  0  0  0  0  0  0  0  0  0  0  0
   -4.5142    1.5793    5.2762 H   0  0  0  0  0  0  0  0  0  0  0  0
   -2.7499    2.5105    1.4734 H   0  0  0  0  0  0  0  0  0  0  0  0
   -1.9748    1.4022    2.6387 H   0  0  0  0  0  0  0  0  0  0  0  0
   -0.7170    1.3631    0.6064 H   0  0  0  0  0  0  0  0  0  0  0  0
   -0.6477   -1.9264    2.2132 H   0  0  0  0  0  0  0  0  0  0  0  0
    0.3867   -0.5840    1.7877 H   0  0  0  0  0  0  0  0  0  0  0  0
   -1.0011   -0.3254    2.8173 H   0  0  0  0  0  0  0  0  0  0  0  0
  1 47  1  0  0  0  0
  1 48  1  0  0  0  0
  1 49  1  0  0  0  0
  2 15  1  0  0  0  0
  2 50  1  6  0  0  0
  2  3  1  0  0  0  0
  2  1  1  0  0  0  0
  3  4  1  0  0  0  0
  3 51  1  0  0  0  0
  3 52  1  0  0  0  0
  4  5  1  0  0  0  0
  5  6  1  0  0  0  0
  5 53  1  0  0  0  0
  5 54  1  0  0  0  0
  6  7  2  0  0  0  0
  6  8  1  0  0  0  0
  8  9  1  0  0  0  0
  8 42  1  0  0  0  0
  9 10  1  0  0  0  0
  9 55  1  0  0  0  0
  9 56  1  0  0  0  0
 10 11  1  0  0  0  0
 10 57  1  0  0  0  0
 10 58  1  0  0  0  0
 11 12  1  0  0  0  0
 11 13  2  0  0  0  0
 11 14  2  0  0  0  0
 12 43  1  0  0  0  0
 15 16  1  6  0  0  0
 15 17  1  0  0  0  0
 15 40  1  0  0  0  0
 17 18  1  0  0  0  0
 17 59  1  0  0  0  0
 17 60  1  0  0  0  0
 18 19  1  0  0  0  0
 18 61  1  0  0  0  0
 18 62  1  0  0  0  0
 19 20  1  6  0  0  0
 19 21  1  0  0  0  0
 19 40  1  0  0  0  0
 21 22  1  1  0  0  0
 21 23  1  0  0  0  0
 21 35  1  0  0  0  0
 23 24  1  0  0  0  0
 23 25  1  0  0  0  0
 23 63  1  1  0  0  0
 24 44  1  0  0  0  0
 25 26  1  0  0  0  0
 25 64  1  0  0  0  0
 25 65  1  0  0  0  0
 26 27  1  1  0  0  0
 26 28  1  0  0  0  0
 26 33  1  0  0  0  0
 28 29  1  0  0  0  0
 28 66  1  0  0  0  0
 28 67  1  0  0  0  0
 29 30  1  0  0  0  0
 29 31  1  0  0  0  0
 29 68  1  1  0  0  0
 30 45  1  0  0  0  0
 31 32  1  0  0  0  0
 31 69  1  0  0  0  0
 31 70  1  0  0  0  0
 32 33  1  0  0  0  0
 32 71  1  0  0  0  0
 32 72  1  0  0  0  0
 33 34  1  1  0  0  0
 33 35  1  0  0  0  0
 34 73  1  0  0  0  0
 34 74  1  0  0  0  0
 34 75  1  0  0  0  0
 35 36  1  6  0  0  0
 35 37  1  0  0  0  0
 37 38  1  0  0  0  0
 37 76  1  0  0  0  0
 37 77  1  0  0  0  0
 38 39  1  0  0  0  0
 38 40  1  0  0  0  0
 38 78  1  1  0  0  0
 39 46  1  0  0  0  0
 40 41  1  1  0  0  0
 41 79  1  0  0  0  0
 41 80  1  0  0  0  0
 41 81  1  0  0  0  0
M  END
>  <DRUGBANK_ID>
DB15973

>  <COMMON_NAME>
Tauroselcholic acid

>  <CAS_NUMBER>
75018-71-2

>  <UNII>
H6630PU5ZJ

>  <SYNONYMS>
SeHCAT; Tauroselcholic acid

$$$$
