
 OpenBabel10282417193D

 94103  0  0  1  0  0  0  0  0999 V2000
    1.2324   -0.2762   -0.0377 C   0  0  0  0  0  0  0  0  0  0  0  0
    1.0671   -0.2971    1.4574 C   0  0  0  0  0  0  0  0  0  0  0  0
    0.5104   -1.4048    2.1170 C   0  0  0  0  0  0  0  0  0  0  0  0
    0.2221   -1.0990    3.4238 N   0  0  0  0  0  0  0  0  0  0  0  0
    0.7292    0.1694    3.7269 C   0  0  0  0  0  0  0  0  0  0  0  0
    1.2992    0.6932    2.4926 C   0  0  0  0  0  0  0  0  0  0  0  0
    1.3511    2.3095    2.1573 C   0  0  0  0  0  0  0  0  0  0  0  0
    0.9411    3.1288    3.2500 C   0  0  0  0  0  0  0  0  0  0  0  0
    0.5008    2.2949    4.6267 C   0  0  0  0  0  0  0  0  0  0  0  0
    0.3257    0.9333    4.8176 C   0  0  0  0  0  0  0  0  0  0  0  0
   -0.7365    0.5365    5.7259 O   0  0  0  0  0  0  0  0  0  0  0  0
    0.4672    4.6994    2.5107 N   0  0  0  0  0  0  0  0  0  0  0  0
    0.8309    4.7245    1.1445 C   0  0  0  0  0  0  0  0  0  0  0  0
    1.2265    3.2659    0.7767 C   0  0  1  0  0  0  0  0  0  0  0  0
    2.5666    3.2211    0.1751 C   0  0  0  0  0  0  0  0  0  0  0  0
    2.5219    2.4718   -1.4180 Cl  0  0  0  0  0  0  0  0  0  0  0  0
   -0.7297    5.9166    2.6431 C   0  0  0  0  0  0  0  0  0  0  0  0
   -1.8439    5.8462    3.2257 O   0  0  0  0  0  0  0  0  0  0  0  0
   -0.5766    7.3247    2.2973 C   0  0  0  0  0  0  0  0  0  0  0  0
   -0.6592    8.3709    3.2384 C   0  0  0  0  0  0  0  0  0  0  0  0
   -0.5276    9.6239    2.6509 C   0  0  0  0  0  0  0  0  0  0  0  0
   -0.1270   10.9253    3.0485 C   0  0  0  0  0  0  0  0  0  0  0  0
    0.1798   11.8873    2.1128 C   0  0  0  0  0  0  0  0  0  0  0  0
   -0.4361   11.6789    0.8734 C   0  0  0  0  0  0  0  0  0  0  0  0
   -1.0243   10.4251    0.4964 C   0  0  0  0  0  0  0  0  0  0  0  0
   -0.8922    9.3544    1.3569 C   0  0  0  0  0  0  0  0  0  0  0  0
   -1.1593    7.9988    1.2460 N   0  0  0  0  0  0  0  0  0  0  0  0
    1.0426   12.9979    2.4217 N   0  0  0  0  0  0  0  0  0  0  0  0
    1.9404   13.2810    3.4403 C   0  0  0  0  0  0  0  0  0  0  0  0
    2.3509   14.4456    3.5526 O   0  0  0  0  0  0  0  0  0  0  0  0
    2.3864   12.3773    4.3692 N   0  0  0  0  0  0  0  0  0  0  0  0
    2.4158   10.9658    4.3824 C   0  0  0  0  0  0  0  0  0  0  0  0
    2.6301   10.2663    3.1989 C   0  0  0  0  0  0  0  0  0  0  0  0
    2.3213    8.8909    3.1491 C   0  0  0  0  0  0  0  0  0  0  0  0
    1.8644    8.2048    4.3569 C   0  0  0  0  0  0  0  0  0  0  0  0
    1.5334    8.9145    5.5107 C   0  0  0  0  0  0  0  0  0  0  0  0
    1.8703   10.3068    5.5374 C   0  0  0  0  0  0  0  0  0  0  0  0
    0.6400    8.0566    6.3173 C   0  0  0  0  0  0  0  0  0  0  0  0
    0.3842    6.8079    5.7018 C   0  0  0  0  0  0  0  0  0  0  0  0
    1.3227    6.9005    4.5748 N   0  0  0  0  0  0  0  0  0  0  0  0
   -0.9047    5.8183    6.2063 C   0  0  0  0  0  0  0  0  0  0  0  0
   -1.2751    5.8545    7.3289 O   0  0  0  0  0  0  0  0  0  0  0  0
   -1.5099    4.8123    5.3116 N   0  0  0  0  0  0  0  0  0  0  0  0
   -0.5796    4.2975    4.5018 C   0  0  0  0  0  0  0  0  0  0  0  0
   -1.4287    3.2900    3.1434 C   0  0  2  0  0  0  0  0  0  0  0  0
   -2.6941    3.2844    3.7531 C   0  0  0  0  0  0  0  0  0  0  0  0
   -2.7646    4.1834    4.9081 C   0  0  0  0  0  0  0  0  0  0  0  0
   -3.9905    4.6031    5.2937 C   0  0  0  0  0  0  0  0  0  0  0  0
   -5.0935    4.0266    4.6180 C   0  0  0  0  0  0  0  0  0  0  0  0
   -4.9983    3.0597    3.6009 C   0  0  0  0  0  0  0  0  0  0  0  0
   -3.8149    2.6273    3.1248 C   0  0  0  0  0  0  0  0  0  0  0  0
   -3.9705    1.6215    2.0772 C   0  0  0  0  0  0  0  0  0  0  0  0
   -5.3225    1.5060    1.9574 C   0  0  0  0  0  0  0  0  0  0  0  0
   -5.9112    2.3494    2.8469 N   0  0  0  0  0  0  0  0  0  0  0  0
   -3.2365    0.7462    1.1161 C   0  0  0  0  0  0  0  0  0  0  0  0
   -6.3341    4.4330    4.9932 O   0  0  0  0  0  0  0  0  0  0  0  0
   -1.3497    1.8658    2.6070 C   0  0  0  0  0  0  0  0  0  0  0  0
   -0.9733    1.7312    0.8090 Cl  0  0  0  0  0  0  0  0  0  0  0  0
    0.7613    0.5469   -0.5791 H   0  0  0  0  0  0  0  0  0  0  0  0
    0.7938   -1.1593   -0.5284 H   0  0  0  0  0  0  0  0  0  0  0  0
    2.2964   -0.2299   -0.2482 H   0  0  0  0  0  0  0  0  0  0  0  0
    0.1968   -2.3730    1.7373 H   0  0  0  0  0  0  0  0  0  0  0  0
   -0.4238   -1.6256    4.0189 H   0  0  0  0  0  0  0  0  0  0  0  0
   -0.2822    2.6153    5.3741 H   0  0  0  0  0  0  0  0  0  0  0  0
   -1.1623    1.2510    6.2742 H   0  0  0  0  0  0  0  0  0  0  0  0
   -0.0139    5.1455    0.5380 H   0  0  0  0  0  0  0  0  0  0  0  0
    1.6018    5.4904    1.0952 H   0  0  0  0  0  0  0  0  0  0  0  0
    0.4533    3.1180    0.0076 H   0  0  0  0  0  0  0  0  0  0  0  0
    2.9795    4.2209    0.1044 H   0  0  0  0  0  0  0  0  0  0  0  0
    3.1606    2.6053    0.8403 H   0  0  0  0  0  0  0  0  0  0  0  0
   -0.5908    8.2166    4.2840 H   0  0  0  0  0  0  0  0  0  0  0  0
    0.1588   11.1396    4.0623 H   0  0  0  0  0  0  0  0  0  0  0  0
   -0.4967   12.4757    0.1429 H   0  0  0  0  0  0  0  0  0  0  0  0
   -1.5260   10.2545   -0.4390 H   0  0  0  0  0  0  0  0  0  0  0  0
   -1.7170    7.5319    0.5484 H   0  0  0  0  0  0  0  0  0  0  0  0
    0.9753   13.7925    1.7922 H   0  0  0  0  0  0  0  0  0  0  0  0
    2.8616   12.8122    5.1561 H   0  0  0  0  0  0  0  0  0  0  0  0
    2.7520   10.8349    2.2656 H   0  0  0  0  0  0  0  0  0  0  0  0
    2.0674    8.5310    2.1332 H   0  0  0  0  0  0  0  0  0  0  0  0
    1.4386   10.9134    6.3363 H   0  0  0  0  0  0  0  0  0  0  0  0
    0.0256    8.3921    7.1445 H   0  0  0  0  0  0  0  0  0  0  0  0
    1.2935    6.3175    3.7525 H   0  0  0  0  0  0  0  0  0  0  0  0
    0.1578    5.0462    4.2641 H   0  0  0  0  0  0  0  0  0  0  0  0
    0.2678    4.0825    5.2152 H   0  0  0  0  0  0  0  0  0  0  0  0
   -1.5307    3.8385    2.1955 H   0  0  0  0  0  0  0  0  0  0  0  0
   -3.9997    5.4067    6.0016 H   0  0  0  0  0  0  0  0  0  0  0  0
   -5.8439    0.8518    1.2680 H   0  0  0  0  0  0  0  0  0  0  0  0
   -6.9017    2.4181    2.9503 H   0  0  0  0  0  0  0  0  0  0  0  0
   -2.9812    1.4677    0.3297 H   0  0  0  0  0  0  0  0  0  0  0  0
   -2.4690    0.1105    1.5917 H   0  0  0  0  0  0  0  0  0  0  0  0
   -3.6932    0.0120    0.4595 H   0  0  0  0  0  0  0  0  0  0  0  0
   -6.1549    5.0839    5.6895 H   0  0  0  0  0  0  0  0  0  0  0  0
   -0.4602    1.5361    2.8915 H   0  0  0  0  0  0  0  0  0  0  0  0
   -1.8510    1.0172    3.1215 H   0  0  0  0  0  0  0  0  0  0  0  0
  1  2  1  0  0  0  0
  1 59  1  0  0  0  0
  1 60  1  0  0  0  0
  1 61  1  0  0  0  0
  2  3  2  0  0  0  0
  2  6  1  0  0  0  0
  3  4  1  0  0  0  0
  3 62  1  0  0  0  0
  4  5  1  0  0  0  0
  4 63  1  0  0  0  0
  5  6  1  0  0  0  0
  5 10  2  0  0  0  0
  6  7  2  0  0  0  0
  7  8  1  0  0  0  0
  7 14  1  0  0  0  0
  8  9  2  0  0  0  0
  8 12  1  0  0  0  0
  9 10  1  0  0  0  0
  9 64  1  0  0  0  0
 10 11  1  0  0  0  0
 11 65  1  0  0  0  0
 12 13  1  0  0  0  0
 12 17  1  0  0  0  0
 13 14  1  0  0  0  0
 13 66  1  0  0  0  0
 13 67  1  0  0  0  0
 14 68  1  6  0  0  0
 14 15  1  0  0  0  0
 15 16  1  0  0  0  0
 15 69  1  0  0  0  0
 15 70  1  0  0  0  0
 17 18  2  0  0  0  0
 17 19  1  0  0  0  0
 19 20  2  0  0  0  0
 19 27  1  0  0  0  0
 20 21  1  0  0  0  0
 20 71  1  0  0  0  0
 21 22  2  0  0  0  0
 21 26  1  0  0  0  0
 22 23  1  0  0  0  0
 22 72  1  0  0  0  0
 23 24  2  0  0  0  0
 23 28  1  0  0  0  0
 24 25  1  0  0  0  0
 24 73  1  0  0  0  0
 25 26  2  0  0  0  0
 25 74  1  0  0  0  0
 26 27  1  0  0  0  0
 27 75  1  0  0  0  0
 28 29  1  0  0  0  0
 28 76  1  0  0  0  0
 29 30  2  0  0  0  0
 29 31  1  0  0  0  0
 31 32  1  0  0  0  0
 31 77  1  0  0  0  0
 32 33  2  0  0  0  0
 32 37  1  0  0  0  0
 33 34  1  0  0  0  0
 33 78  1  0  0  0  0
 34 35  2  0  0  0  0
 34 79  1  0  0  0  0
 35 36  1  0  0  0  0
 35 40  1  0  0  0  0
 36 37  2  0  0  0  0
 36 38  1  0  0  0  0
 37 80  1  0  0  0  0
 38 39  2  0  0  0  0
 38 81  1  0  0  0  0
 39 40  1  0  0  0  0
 39 41  1  0  0  0  0
 40 82  1  0  0  0  0
 41 42  2  0  0  0  0
 41 43  1  0  0  0  0
 43 44  1  0  0  0  0
 43 47  1  0  0  0  0
 44 45  1  0  0  0  0
 44 83  1  0  0  0  0
 44 84  1  0  0  0  0
 45 46  1  0  0  0  0
 45 85  1  6  0  0  0
 45 57  1  0  0  0  0
 46 47  1  0  0  0  0
 46 51  2  0  0  0  0
 47 48  2  0  0  0  0
 48 49  1  0  0  0  0
 48 86  1  0  0  0  0
 49 50  2  0  0  0  0
 49 56  1  0  0  0  0
 50 51  1  0  0  0  0
 50 54  1  0  0  0  0
 51 52  1  0  0  0  0
 52 53  2  0  0  0  0
 52 55  1  0  0  0  0
 53 54  1  0  0  0  0
 53 87  1  0  0  0  0
 54 88  1  0  0  0  0
 55 89  1  0  0  0  0
 55 90  1  0  0  0  0
 55 91  1  0  0  0  0
 56 92  1  0  0  0  0
 57 58  1  0  0  0  0
 57 93  1  0  0  0  0
 57 94  1  0  0  0  0
M  END
>  <DRUGBANK_ID>
DB12352

>  <COMMON_NAME>
Bizelesin

>  <CAS_NUMBER>
129655-21-6

>  <UNII>
L0O9OBI87E

>  <SYNONYMS>
Bizelesin

$$$$
