
 OpenBabel10282417153D

 53 56  0  0  0  0  0  0  0  0999 V2000
   -1.7811    0.5013   -0.0064 C   0  0  0  0  0  0  0  0  0  0  0  0
   -0.3617    0.3290   -0.0024 C   0  0  0  0  0  0  0  0  0  0  0  0
    0.6554    1.2385   -0.0060 N   0  0  0  0  0  0  0  0  0  0  0  0
    1.8985    0.7006   -0.0010 C   0  0  0  0  0  0  0  0  0  0  0  0
    2.1118   -0.6998   -0.0034 C   0  0  0  0  0  0  0  0  0  0  0  0
    1.1152   -1.6047   -0.0094 N   0  0  0  0  0  0  0  0  0  0  0  0
   -0.1064   -1.0383    0.0019 C   0  0  0  0  0  0  0  0  0  0  0  0
   -1.3077   -1.6960    0.0297 N   0  0  0  0  0  0  0  0  0  0  0  0
   -2.3440   -0.7790   -0.0065 C   0  0  0  0  0  0  0  0  0  0  0  0
   -3.7295   -0.9797   -0.0092 C   0  0  0  0  0  0  0  0  0  0  0  0
   -4.5790    0.1227   -0.0064 C   0  0  0  0  0  0  0  0  0  0  0  0
   -4.0451    1.4035   -0.0050 C   0  0  0  0  0  0  0  0  0  0  0  0
   -2.6577    1.6121   -0.0067 C   0  0  0  0  0  0  0  0  0  0  0  0
   -5.1173    2.7519    0.0006 Cl  0  0  0  0  0  0  0  0  0  0  0  0
   -1.4835   -3.1417    0.0960 C   0  0  0  0  0  0  0  0  0  0  0  0
   -2.1662   -3.5581    1.4014 C   0  0  0  0  0  0  0  0  0  0  0  0
   -3.3190   -4.2964    1.2232 N   0  0  0  0  0  0  0  0  0  0  0  0
   -4.2290   -4.6968    2.2972 C   0  0  0  0  0  0  0  0  0  0  0  0
   -5.6420   -4.0533    2.2190 C   0  0  0  0  0  0  0  0  0  0  0  0
   -6.4877   -4.4652    1.0664 N   0  0  0  0  0  0  0  0  0  0  0  0
   -7.8041   -3.8187    1.1530 C   0  0  0  0  0  0  0  0  0  0  0  0
   -5.9230   -4.0980   -0.2251 C   0  0  0  0  0  0  0  0  0  0  0  0
   -1.7516   -3.2377    2.5044 O   0  0  0  0  0  0  0  0  0  0  0  0
    3.0297    1.5317    0.0015 C   0  0  0  0  0  0  0  0  0  0  0  0
    4.3587    1.0404   -0.0012 C   0  0  0  0  0  0  0  0  0  0  0  0
    4.5490   -0.3438   -0.0003 C   0  0  0  0  0  0  0  0  0  0  0  0
    3.4151   -1.1794   -0.0010 C   0  0  0  0  0  0  0  0  0  0  0  0
    5.5036    2.0212   -0.0066 C   0  0  0  0  0  0  0  0  0  0  0  0
    5.8945   -1.0159    0.0018 C   0  0  0  0  0  0  0  0  0  0  0  0
   -4.1312   -1.9766    0.0096 H   0  0  0  0  0  0  0  0  0  0  0  0
   -5.6560   -0.0330    0.0037 H   0  0  0  0  0  0  0  0  0  0  0  0
   -2.2535    2.6191   -0.0007 H   0  0  0  0  0  0  0  0  0  0  0  0
   -2.0722   -3.4303   -0.7853 H   0  0  0  0  0  0  0  0  0  0  0  0
   -0.5138   -3.6413    0.0243 H   0  0  0  0  0  0  0  0  0  0  0  0
   -3.4415   -4.7502    0.3331 H   0  0  0  0  0  0  0  0  0  0  0  0
   -4.3248   -5.7870    2.2506 H   0  0  0  0  0  0  0  0  0  0  0  0
   -3.7791   -4.4426    3.2627 H   0  0  0  0  0  0  0  0  0  0  0  0
   -6.1701   -4.3555    3.1368 H   0  0  0  0  0  0  0  0  0  0  0  0
   -5.5473   -2.9601    2.2645 H   0  0  0  0  0  0  0  0  0  0  0  0
   -7.7203   -2.7249    1.1476 H   0  0  0  0  0  0  0  0  0  0  0  0
   -8.4183   -4.1116    0.2922 H   0  0  0  0  0  0  0  0  0  0  0  0
   -8.3457   -4.1313    2.0493 H   0  0  0  0  0  0  0  0  0  0  0  0
   -5.7042   -3.0335   -0.2596 H   0  0  0  0  0  0  0  0  0  0  0  0
   -5.0440   -4.6877   -0.4644 H   0  0  0  0  0  0  0  0  0  0  0  0
   -6.6031   -4.3117   -1.0534 H   0  0  0  0  0  0  0  0  0  0  0  0
    2.8658    2.6097    0.0049 H   0  0  0  0  0  0  0  0  0  0  0  0
    3.5565   -2.2594    0.0014 H   0  0  0  0  0  0  0  0  0  0  0  0
    5.4669    2.6457   -0.9040 H   0  0  0  0  0  0  0  0  0  0  0  0
    5.4764    2.6463    0.8905 H   0  0  0  0  0  0  0  0  0  0  0  0
    6.4880    1.5513   -0.0128 H   0  0  0  0  0  0  0  0  0  0  0  0
    5.9946   -1.6364    0.8975 H   0  0  0  0  0  0  0  0  0  0  0  0
    5.9974   -1.6361   -0.8937 H   0  0  0  0  0  0  0  0  0  0  0  0
    6.7438   -0.3340    0.0038 H   0  0  0  0  0  0  0  0  0  0  0  0
  1  2  1  0  0  0  0
  2  7  2  0  0  0  0
  3  4  2  0  0  0  0
  3  2  1  0  0  0  0
  4 24  1  0  0  0  0
  5  4  1  0  0  0  0
  5 27  1  0  0  0  0
  6  5  2  0  0  0  0
  7  6  1  0  0  0  0
  7  8  1  0  0  0  0
  8 15  1  0  0  0  0
  9  1  1  0  0  0  0
  9  8  1  0  0  0  0
 10  9  2  0  0  0  0
 10 30  1  0  0  0  0
 11 10  1  0  0  0  0
 11 31  1  0  0  0  0
 12 11  2  0  0  0  0
 12 14  1  0  0  0  0
 13 12  1  0  0  0  0
 13  1  2  0  0  0  0
 13 32  1  0  0  0  0
 15 16  1  0  0  0  0
 15 33  1  0  0  0  0
 15 34  1  0  0  0  0
 16 17  1  0  0  0  0
 16 23  2  0  0  0  0
 17 18  1  0  0  0  0
 17 35  1  0  0  0  0
 18 19  1  0  0  0  0
 18 36  1  0  0  0  0
 18 37  1  0  0  0  0
 19 20  1  0  0  0  0
 19 38  1  0  0  0  0
 19 39  1  0  0  0  0
 20 21  1  0  0  0  0
 20 22  1  0  0  0  0
 21 40  1  0  0  0  0
 21 41  1  0  0  0  0
 21 42  1  0  0  0  0
 22 43  1  0  0  0  0
 22 44  1  0  0  0  0
 22 45  1  0  0  0  0
 24 46  1  0  0  0  0
 25 24  2  0  0  0  0
 25 28  1  0  0  0  0
 26 25  1  0  0  0  0
 26 29  1  0  0  0  0
 27 26  2  0  0  0  0
 27 47  1  0  0  0  0
 28 48  1  0  0  0  0
 28 49  1  0  0  0  0
 28 50  1  0  0  0  0
 29 51  1  0  0  0  0
 29 52  1  0  0  0  0
 29 53  1  0  0  0  0
M  END
>  <DRUGBANK_ID>
DB05772

>  <COMMON_NAME>
Rabeximod

>  <CAS_NUMBER>
872178-65-9

>  <UNII>
J4D3K58W3Z

>  <SYNONYMS>
Rabeximod

$$$$
