ME5
 OpenBabel10282417173D

 50 53  0  0  0  0  0  0  0  0999 V2000
    1.0294    0.0675    0.0658 C   0  0  0  0  0  0  0  0  0  0  0  0
    3.4366    1.1130   -0.0231 C   0  0  0  0  0  0  0  0  0  0  0  0
    2.5118    0.0761    0.0464 C   0  0  0  0  0  0  0  0  0  0  0  0
   -3.4208    3.0540   -0.8927 C   0  0  0  0  0  0  0  0  0  0  0  0
    1.4709    2.8817    1.4997 C   0  0  0  0  0  0  0  0  0  0  0  0
    1.9943    4.2880    1.3542 C   0  0  0  0  0  0  0  0  0  0  0  0
    0.8789    4.9794    0.5742 C   0  0  0  0  0  0  0  0  0  0  0  0
    0.2048    3.8908   -0.3045 C   0  0  1  0  0  0  0  0  0  0  0  0
   -5.5073    4.2625   -0.6551 C   0  0  0  0  0  0  0  0  0  0  0  0
   -8.5062    3.6986   -1.2979 C   0  0  0  0  0  0  0  0  0  0  0  0
   -6.2107    3.0548   -0.6941 C   0  0  0  0  0  0  0  0  0  0  0  0
    0.9155    2.5802    0.1016 C   0  0  2  0  0  0  0  0  0  0  0  0
   -8.0852    2.1783    0.5587 C   0  0  0  0  0  0  0  0  0  0  0  0
   -4.1160    1.8448   -0.9671 C   0  0  0  0  0  0  0  0  0  0  0  0
   -9.5609    2.0803    0.7102 C   0  0  0  0  0  0  0  0  0  0  0  0
   -1.9593    3.0667   -1.0771 C   0  0  0  0  0  0  0  0  0  0  0  0
   -4.1116    4.2602   -0.7388 C   0  0  0  0  0  0  0  0  0  0  0  0
   -7.6197    3.0170   -0.4712 N   0  0  0  0  0  0  0  0  0  0  0  0
   -5.5091    1.8530   -0.8896 C   0  0  0  0  0  0  0  0  0  0  0  0
   -9.8259    3.4661   -1.2407 C   0  0  0  0  0  0  0  0  0  0  0  0
  -10.3683    2.6195   -0.2095 C   0  0  0  0  0  0  0  0  0  0  0  0
   -7.3847    1.5431    1.3477 O   0  0  0  0  0  0  0  0  0  0  0  0
   -1.2334    3.8540   -0.2090 N   0  0  0  0  0  0  0  0  0  0  0  0
   -1.4525    2.3715   -1.9582 O   0  0  0  0  0  0  0  0  0  0  0  0
    0.3233    1.2672    0.0779 N   0  0  0  0  0  0  0  0  0  0  0  0
    0.3516   -0.9711    0.0947 O   0  0  0  0  0  0  0  0  0  0  0  0
    4.7858    0.7512    0.1263 C   0  0  0  0  0  0  0  0  0  0  0  0
    3.4038   -1.4118    0.1167 S   0  0  0  0  0  0  0  0  0  0  0  0
    4.8958   -0.6021    0.1464 C   0  0  0  0  0  0  0  0  0  0  0  0
    6.3870   -1.4427    0.1891 Cl  0  0  0  0  0  0  0  0  0  0  0  0
    0.4452    4.1106   -1.3564 H   0  0  0  0  0  0  0  0  0  0  0  0
    1.6377    2.5337   -0.7111 H   0  0  0  0  0  0  0  0  0  0  0  0
    3.2434    2.1605   -0.1058 H   0  0  0  0  0  0  0  0  0  0  0  0
    0.6707    2.8307    2.2469 H   0  0  0  0  0  0  0  0  0  0  0  0
    2.2449    2.1998    1.8592 H   0  0  0  0  0  0  0  0  0  0  0  0
    2.1984    4.7511    2.3231 H   0  0  0  0  0  0  0  0  0  0  0  0
    2.9324    4.2918    0.7826 H   0  0  0  0  0  0  0  0  0  0  0  0
    1.3013    5.7911   -0.0286 H   0  0  0  0  0  0  0  0  0  0  0  0
    0.1681    5.4199    1.2791 H   0  0  0  0  0  0  0  0  0  0  0  0
   -6.0275    5.2033   -0.5060 H   0  0  0  0  0  0  0  0  0  0  0  0
   -8.0869    4.3730   -2.0384 H   0  0  0  0  0  0  0  0  0  0  0  0
   -3.5876    0.8988   -1.0755 H   0  0  0  0  0  0  0  0  0  0  0  0
   -9.9213    1.5254    1.5663 H   0  0  0  0  0  0  0  0  0  0  0  0
   -3.5676    5.1990   -0.7002 H   0  0  0  0  0  0  0  0  0  0  0  0
   -6.0525    0.9157   -0.9977 H   0  0  0  0  0  0  0  0  0  0  0  0
  -10.5167    3.9276   -1.9392 H   0  0  0  0  0  0  0  0  0  0  0  0
  -11.4433    2.4841   -0.1532 H   0  0  0  0  0  0  0  0  0  0  0  0
   -1.6953    4.3302    0.5549 H   0  0  0  0  0  0  0  0  0  0  0  0
   -0.6847    1.1719    0.0298 H   0  0  0  0  0  0  0  0  0  0  0  0
    5.5888    1.4753    0.1691 H   0  0  0  0  0  0  0  0  0  0  0  0
  1 26  2  0  0  0  0
  1 25  1  0  0  0  0
  1  3  1  0  0  0  0
  2  3  2  0  0  0  0
  2 27  1  0  0  0  0
  2 33  1  0  0  0  0
  3 28  1  0  0  0  0
  4 17  2  0  0  0  0
  4 14  1  0  0  0  0
  4 16  1  0  0  0  0
  5 12  1  0  0  0  0
  5  6  1  0  0  0  0
  5 34  1  0  0  0  0
  5 35  1  0  0  0  0
  6  7  1  0  0  0  0
  6 36  1  0  0  0  0
  6 37  1  0  0  0  0
  7  8  1  0  0  0  0
  7 38  1  0  0  0  0
  7 39  1  0  0  0  0
  8 12  1  0  0  0  0
  8 31  1  6  0  0  0
  8 23  1  0  0  0  0
  9 11  2  0  0  0  0
  9 17  1  0  0  0  0
  9 40  1  0  0  0  0
 10 20  2  0  0  0  0
 10 18  1  0  0  0  0
 10 41  1  0  0  0  0
 11 18  1  0  0  0  0
 11 19  1  0  0  0  0
 12 25  1  0  0  0  0
 12 32  1  6  0  0  0
 13 15  1  0  0  0  0
 13 22  2  0  0  0  0
 13 18  1  0  0  0  0
 14 19  2  0  0  0  0
 14 42  1  0  0  0  0
 15 21  2  0  0  0  0
 15 43  1  0  0  0  0
 16 24  2  0  0  0  0
 16 23  1  0  0  0  0
 17 44  1  0  0  0  0
 19 45  1  0  0  0  0
 20 21  1  0  0  0  0
 20 46  1  0  0  0  0
 21 47  1  0  0  0  0
 23 48  1  0  0  0  0
 25 49  1  0  0  0  0
 27 29  2  0  0  0  0
 27 50  1  0  0  0  0
 28 29  1  0  0  0  0
 29 30  1  0  0  0  0
M  END
>  <DRUGBANK_ID>
DB08174

>  <COMMON_NAME>
5-CHLORO-N-((1R,2S)-2-(4-(2-OXOPYRIDIN-1(2H)-YL)BENZAMIDO) CYCLOPENTYL)THIOPHENE-2-CARBOXAMIDE

$$$$
