
 OpenBabel10282417113D

 39 40  0  0  0  0  0  0  0  0999 V2000
    1.2695   -0.2539    0.4924 C   0  0  0  0  0  0  0  0  0  0  0  0
    2.7847   -0.3802    0.3964 C   0  0  0  0  0  0  0  0  0  0  0  0
    0.4308   -1.3332    0.1626 C   0  0  0  0  0  0  0  0  0  0  0  0
    0.6702    0.9890    0.7660 C   0  0  0  0  0  0  0  0  0  0  0  0
    3.5391    0.1508   -0.8992 C   0  0  1  0  0  0  0  0  0  0  0  0
   -0.9465   -1.1361    0.0173 C   0  0  0  0  0  0  0  0  0  0  0  0
   -0.6759    1.2140    0.4562 C   0  0  0  0  0  0  0  0  0  0  0  0
    3.3645    1.5888   -1.2846 N   0  0  0  0  0  0  0  0  0  0  0  0
    5.0422   -0.2009   -0.6907 C   0  0  0  0  0  0  0  0  0  0  0  0
   -1.4908    0.1413    0.0931 C   0  0  0  0  0  0  0  0  0  0  0  0
    4.2238    2.0777   -2.4052 C   0  0  0  0  0  0  0  0  0  0  0  0
    1.9892    1.8837   -1.7046 C   0  0  0  0  0  0  0  0  0  0  0  0
    3.8843    1.4299   -3.7461 C   0  0  0  0  0  0  0  0  0  0  0  0
    4.1570    0.0738   -3.9616 C   0  0  0  0  0  0  0  0  0  0  0  0
    3.0574    2.0982   -4.6712 C   0  0  0  0  0  0  0  0  0  0  0  0
    3.5698   -0.6319   -4.9999 C   0  0  0  0  0  0  0  0  0  0  0  0
    2.4786    1.3916   -5.7259 C   0  0  0  0  0  0  0  0  0  0  0  0
    2.7418    0.0347   -5.8981 C   0  0  0  0  0  0  0  0  0  0  0  0
    3.2307    0.0601    1.2949 H   0  0  0  0  0  0  0  0  0  0  0  0
    3.0125   -1.4565    0.4531 H   0  0  0  0  0  0  0  0  0  0  0  0
    0.8446   -2.3195   -0.0211 H   0  0  0  0  0  0  0  0  0  0  0  0
    1.3047    1.8554    0.9719 H   0  0  0  0  0  0  0  0  0  0  0  0
    3.1530   -0.4710   -1.7134 H   0  0  0  0  0  0  0  0  0  0  0  0
   -1.5944   -1.9828   -0.2080 H   0  0  0  0  0  0  0  0  0  0  0  0
   -1.0635    2.2278    0.4155 H   0  0  0  0  0  0  0  0  0  0  0  0
    5.1756   -1.2868   -0.6172 H   0  0  0  0  0  0  0  0  0  0  0  0
    5.6975    0.1090   -1.5095 H   0  0  0  0  0  0  0  0  0  0  0  0
    5.4437    0.2613    0.2162 H   0  0  0  0  0  0  0  0  0  0  0  0
   -2.5366    0.3124   -0.1440 H   0  0  0  0  0  0  0  0  0  0  0  0
    4.0726    3.1663   -2.4787 H   0  0  0  0  0  0  0  0  0  0  0  0
    5.2940    1.9890   -2.1924 H   0  0  0  0  0  0  0  0  0  0  0  0
    1.7323    1.6546   -2.7345 H   0  0  0  0  0  0  0  0  0  0  0  0
    1.2767    1.2334   -1.2614 H   0  0  0  0  0  0  0  0  0  0  0  0
    1.7267    2.9208   -1.4805 H   0  0  0  0  0  0  0  0  0  0  0  0
    4.7518   -0.4943   -3.2545 H   0  0  0  0  0  0  0  0  0  0  0  0
    2.7661    3.1329   -4.5005 H   0  0  0  0  0  0  0  0  0  0  0  0
    3.7301   -1.7019   -5.0748 H   0  0  0  0  0  0  0  0  0  0  0  0
    1.7762    1.8909   -6.3909 H   0  0  0  0  0  0  0  0  0  0  0  0
    2.2979   -0.5152   -6.7194 H   0  0  0  0  0  0  0  0  0  0  0  0
  1  2  1  0  0  0  0
  1  3  1  0  0  0  0
  1  4  2  0  0  0  0
  2  5  1  0  0  0  0
  2 19  1  0  0  0  0
  2 20  1  0  0  0  0
  3  6  2  0  0  0  0
  3 21  1  0  0  0  0
  4  7  1  0  0  0  0
  4 22  1  0  0  0  0
  5  8  1  0  0  0  0
  5  9  1  0  0  0  0
  5 23  1  6  0  0  0
  6 10  1  0  0  0  0
  6 24  1  0  0  0  0
  7 10  2  0  0  0  0
  7 25  1  0  0  0  0
  8 11  1  0  0  0  0
  8 12  1  0  0  0  0
  9 26  1  0  0  0  0
  9 27  1  0  0  0  0
  9 28  1  0  0  0  0
 10 29  1  0  0  0  0
 11 13  1  0  0  0  0
 11 30  1  0  0  0  0
 11 31  1  0  0  0  0
 12 32  1  0  0  0  0
 12 33  1  0  0  0  0
 12 34  1  0  0  0  0
 13 14  2  0  0  0  0
 13 15  1  0  0  0  0
 14 16  1  0  0  0  0
 14 35  1  0  0  0  0
 15 17  2  0  0  0  0
 15 36  1  0  0  0  0
 16 18  2  0  0  0  0
 16 37  1  0  0  0  0
 17 18  1  0  0  0  0
 17 38  1  0  0  0  0
 18 39  1  0  0  0  0
M  END
>  <DRUGBANK_ID>
DB00865

>  <SECONDARY_ACCESSION_NUMBERS>
APRD00759

>  <COMMON_NAME>
Benzphetamine

>  <CAS_NUMBER>
156-08-1

>  <UNII>
0M3S43XK27

>  <SYNONYMS>
(+)-benzphetamine; (+)-N-benzyl-N,α-dimethylphenethylamine; (+)-N,α-dimethyl-N-(phenylmethyl)-benzeneethanamine; (S)-(+)-benzphetamine; (S)-(+)-N-benzyl-N,α-dimethylphenethylamine; (S)-benzphetamine; (αS)-N,α-dimethylphenethylamine; Benzaphetamine; Benzfetamina; Benzfetamine; Benzfetaminum; Benzphetamine; Benzylamphetamine; d-N-methyl-N-benzyl-β-phenylisopropylamine; N-methyl-1-phenyl-N-(phenylmethyl)propan-2-amine

$$$$
