
 OpenBabel10282417103D

 58 61  0  0  0  0  0  0  0  0999 V2000
    0.4766   -1.5865    0.1236 C   0  0  0  0  0  0  0  0  0  0  0  0
    1.7138   -1.0450    0.2610 C   0  0  0  0  0  0  0  0  0  0  0  0
    1.6505    0.4344   -0.0815 C   0  0  1  0  0  0  0  0  0  0  0  0
   -0.3877   -0.7159   -0.5369 N   0  0  0  0  0  0  0  0  0  0  0  0
    0.3702    0.4990   -0.9188 C   0  0  1  0  0  0  0  0  0  0  0  0
   -0.8816    1.3262   -0.5307 C   0  0  2  0  0  0  0  0  0  0  0  0
   -1.4364   -0.0088    0.0026 C   0  0  0  0  0  0  0  0  0  0  0  0
   -1.6021    2.0598   -1.6500 C   0  0  2  0  0  0  0  0  0  0  0  0
   -1.8103    1.1966   -2.7608 O   0  0  0  0  0  0  0  0  0  0  0  0
   -0.7181    3.2203   -2.1145 C   0  0  0  0  0  0  0  0  0  0  0  0
   -2.3488   -0.2930    0.7355 O   0  0  0  0  0  0  0  0  0  0  0  0
    0.0233   -2.9759    0.4757 C   0  0  0  0  0  0  0  0  0  0  0  0
   -1.1045   -3.4189    0.3403 O   0  0  0  0  0  0  0  0  0  0  0  0
    0.9902   -3.7654    0.9864 O   0  0  0  0  0  0  0  0  0  0  0  0
    1.5292    1.3803    1.1107 C   0  0  0  0  0  0  0  0  0  0  0  0
    3.1304   -1.9398    0.7109 S   0  0  0  0  0  0  0  0  0  0  0  0
    4.6159   -0.9610    0.4846 C   0  0  2  0  0  0  0  0  0  0  0  0
    4.7572    0.1375    1.5051 C   0  0  0  0  0  0  0  0  0  0  0  0
    5.6345    1.1179    0.9013 N   0  0  0  0  0  0  0  0  0  0  0  0
    5.4717    1.0186   -0.5749 C   0  0  1  0  0  0  0  0  0  0  0  0
    4.7622   -0.2966   -0.8710 C   0  0  0  0  0  0  0  0  0  0  0  0
    4.7803    2.2937   -1.1478 C   0  0  0  0  0  0  0  0  0  0  0  0
    3.8853    2.2376   -1.9962 O   0  0  0  0  0  0  0  0  0  0  0  0
    5.1666    3.5396   -0.7034 N   0  0  0  0  0  0  0  0  0  0  0  0
    6.2887    3.8750    0.0702 C   0  0  0  0  0  0  0  0  0  0  0  0
    7.4984    3.1969   -0.0907 C   0  0  0  0  0  0  0  0  0  0  0  0
    8.6157    3.5222    0.6557 C   0  0  0  0  0  0  0  0  0  0  0  0
    8.5603    4.6188    1.4995 C   0  0  0  0  0  0  0  0  0  0  0  0
    7.3827    5.3811    1.6091 C   0  0  0  0  0  0  0  0  0  0  0  0
    6.2190    4.9565    0.9497 C   0  0  0  0  0  0  0  0  0  0  0  0
    7.5071    6.6781    2.3330 C   0  0  0  0  0  0  0  0  0  0  0  0
    6.4050    7.4497    2.3922 O   0  0  0  0  0  0  0  0  0  0  0  0
    8.5767    7.0564    2.7857 O   0  0  0  0  0  0  0  0  0  0  0  0
   -0.7254    2.0463    0.2843 H   0  0  0  0  0  0  0  0  0  0  0  0
    0.5938    0.5129   -1.9943 H   0  0  0  0  0  0  0  0  0  0  0  0
    6.4434    0.9266   -1.0586 H   0  0  0  0  0  0  0  0  0  0  0  0
    5.4770   -1.6281    0.6305 H   0  0  0  0  0  0  0  0  0  0  0  0
    2.4382    0.7897   -0.7253 H   0  0  0  0  0  0  0  0  0  0  0  0
   -2.5675    2.4405   -1.2964 H   0  0  0  0  0  0  0  0  0  0  0  0
   -2.7683    1.1226   -2.9161 H   0  0  0  0  0  0  0  0  0  0  0  0
   -0.1719    3.6780   -1.2824 H   0  0  0  0  0  0  0  0  0  0  0  0
    0.0139    2.8789   -2.8555 H   0  0  0  0  0  0  0  0  0  0  0  0
   -1.3124    4.0045   -2.5949 H   0  0  0  0  0  0  0  0  0  0  0  0
    0.5970   -4.6398    1.1730 H   0  0  0  0  0  0  0  0  0  0  0  0
    2.3587    1.4168    1.7965 H   0  0  0  0  0  0  0  0  0  0  0  0
    1.4385    2.4082    0.7472 H   0  0  0  0  0  0  0  0  0  0  0  0
    0.6813    1.1181    1.7452 H   0  0  0  0  0  0  0  0  0  0  0  0
    3.8275    0.6253    1.6652 H   0  0  0  0  0  0  0  0  0  0  0  0
    5.0827   -0.1822    2.5002 H   0  0  0  0  0  0  0  0  0  0  0  0
    6.5984    0.9206    1.1620 H   0  0  0  0  0  0  0  0  0  0  0  0
    5.3575   -0.9239   -1.5421 H   0  0  0  0  0  0  0  0  0  0  0  0
    3.8312   -0.1600   -1.4092 H   0  0  0  0  0  0  0  0  0  0  0  0
    4.5687    4.2929   -1.0247 H   0  0  0  0  0  0  0  0  0  0  0  0
    7.6154    2.4117   -0.8224 H   0  0  0  0  0  0  0  0  0  0  0  0
    9.5323    2.9557    0.5217 H   0  0  0  0  0  0  0  0  0  0  0  0
    9.4622    4.9047    2.0377 H   0  0  0  0  0  0  0  0  0  0  0  0
    5.2563    5.4222    1.1249 H   0  0  0  0  0  0  0  0  0  0  0  0
    5.5897    7.1202    1.9853 H   0  0  0  0  0  0  0  0  0  0  0  0
  2  1  2  0  0  0  0
  3  2  1  0  0  0  0
  3 15  1  0  0  0  0
  3 38  1  6  0  0  0
  4  1  1  0  0  0  0
  5  3  1  0  0  0  0
  5  4  1  0  0  0  0
  5 35  1  6  0  0  0
  6  5  1  0  0  0  0
  6 34  1  1  0  0  0
  6  8  1  0  0  0  0
  7  4  1  0  0  0  0
  7  6  1  0  0  0  0
  8 39  1  1  0  0  0
  8 10  1  0  0  0  0
  8  9  1  0  0  0  0
  9 40  1  0  0  0  0
 10 41  1  0  0  0  0
 10 42  1  0  0  0  0
 10 43  1  0  0  0  0
 11  7  2  0  0  0  0
 12  1  1  0  0  0  0
 13 12  2  0  0  0  0
 14 12  1  0  0  0  0
 14 44  1  0  0  0  0
 15 45  1  0  0  0  0
 15 46  1  0  0  0  0
 15 47  1  0  0  0  0
 16  2  1  0  0  0  0
 17 16  1  0  0  0  0
 17 37  1  1  0  0  0
 18 17  1  0  0  0  0
 18 48  1  0  0  0  0
 18 49  1  0  0  0  0
 19 18  1  0  0  0  0
 19 50  1  0  0  0  0
 20 19  1  0  0  0  0
 20 36  1  6  0  0  0
 20 22  1  0  0  0  0
 21 17  1  0  0  0  0
 21 20  1  0  0  0  0
 21 51  1  0  0  0  0
 21 52  1  0  0  0  0
 23 22  2  0  0  0  0
 24 22  1  0  0  0  0
 24 53  1  0  0  0  0
 25 24  1  0  0  0  0
 26 25  2  0  0  0  0
 26 54  1  0  0  0  0
 27 26  1  0  0  0  0
 27 55  1  0  0  0  0
 28 27  2  0  0  0  0
 28 56  1  0  0  0  0
 29 28  1  0  0  0  0
 30 25  1  0  0  0  0
 30 29  2  0  0  0  0
 30 57  1  0  0  0  0
 31 29  1  0  0  0  0
 32 31  1  0  0  0  0
 32 58  1  0  0  0  0
 33 31  2  0  0  0  0
M  END
>  <DRUGBANK_ID>
DB00303

>  <SECONDARY_ACCESSION_NUMBERS>
APRD00952

>  <COMMON_NAME>
Ertapenem

>  <CAS_NUMBER>
153832-46-3

>  <UNII>
G32F6EID2H

>  <SYNONYMS>
(1R,5S,6S,8R,2'S,4'S)-2-(2-(3-carboxyphenylcarbamoyl)pyrrolidin-4-ylthio)-6-(1-hydroxyethyl)-1-methylcarbapenem-3-carboxylic acid; (4R,5S,6S)-3-((3S,5S)-5-((3-carboxyphenyl)carbamoyl)pyrrolidin-3-ylthio)-6-((R)-1-hydroxyethyl)-4-methyl-7-oxo-1-aza-bicyclo[3.2.0]hept-2-ene-2-carboxylic acid; Ertapenem

$$$$
