
 OpenBabel10282417193D

 45 47  0  0  0  0  0  0  0  0999 V2000
    1.0821    0.2225   -0.0113 C   0  0  0  0  0  0  0  0  0  0  0  0
    0.5973   -1.1150   -0.5648 C   0  0  0  0  0  0  0  0  0  0  0  0
    1.4238   -2.0800    0.2360 C   0  0  0  0  0  0  0  0  0  0  0  0
   -0.9159   -1.2554   -0.4080 C   0  0  0  0  0  0  0  0  0  0  0  0
   -1.6888   -0.0322   -0.4828 C   0  0  0  0  0  0  0  0  0  0  0  0
   -3.0408   -0.0053   -0.2438 C   0  0  0  0  0  0  0  0  0  0  0  0
   -3.6260   -1.2243   -0.1706 C   0  0  0  0  0  0  0  0  0  0  0  0
   -2.9447   -2.4529   -0.2684 C   0  0  0  0  0  0  0  0  0  0  0  0
   -1.5757   -2.4968   -0.2495 C   0  0  0  0  0  0  0  0  0  0  0  0
   -1.0038   -3.8465   -0.1049 C   0  0  0  0  0  0  0  0  0  0  0  0
   -1.0653   -4.9030   -1.0014 C   0  0  0  0  0  0  0  0  0  0  0  0
   -0.2135   -5.8864   -0.4775 C   0  0  0  0  0  0  0  0  0  0  0  0
    0.2704   -5.5559    0.7183 N   0  0  0  0  0  0  0  0  0  0  0  0
   -0.3183   -4.3689    0.9971 N   0  0  0  0  0  0  0  0  0  0  0  0
    0.1429   -3.6732    2.1835 C   0  0  0  0  0  0  0  0  0  0  0  0
   -5.0063   -1.2706    0.1238 C   0  0  0  0  0  0  0  0  0  0  0  0
   -5.3293   -2.4505    0.2078 O   0  0  0  0  0  0  0  0  0  0  0  0
   -5.7539   -0.1617    0.3250 N   0  0  0  0  0  0  0  0  0  0  0  0
   -5.1759    1.1211    0.2505 C   0  0  0  0  0  0  0  0  0  0  0  0
   -5.7891    2.1707    0.4434 O   0  0  0  0  0  0  0  0  0  0  0  0
   -3.8147    1.1495   -0.0622 N   0  0  0  0  0  0  0  0  0  0  0  0
   -7.2017   -0.2786    0.6708 N   0  0  0  0  0  0  0  0  0  0  0  0
   -8.1862   -1.6375    0.8355 S   0  0  0  0  0  0  0  0  0  0  0  0
   -8.6379   -1.6271    2.2136 O   0  0  0  0  0  0  0  0  0  0  0  0
   -9.1559   -1.5522   -0.2393 O   0  0  0  0  0  0  0  0  0  0  0  0
   -7.3611   -3.2014    0.6143 C   0  0  0  0  0  0  0  0  0  0  0  0
    0.6850    0.3757    1.0054 H   0  0  0  0  0  0  0  0  0  0  0  0
    0.7821    1.0568   -0.6395 H   0  0  0  0  0  0  0  0  0  0  0  0
    2.1715    0.2278    0.0585 H   0  0  0  0  0  0  0  0  0  0  0  0
    0.8371   -1.2596   -1.6219 H   0  0  0  0  0  0  0  0  0  0  0  0
    1.2128   -1.8406    1.2819 H   0  0  0  0  0  0  0  0  0  0  0  0
    1.2166   -3.0900   -0.0790 H   0  0  0  0  0  0  0  0  0  0  0  0
    2.5053   -2.0163    0.1482 H   0  0  0  0  0  0  0  0  0  0  0  0
   -1.2122    0.9148   -0.7009 H   0  0  0  0  0  0  0  0  0  0  0  0
   -3.5043   -3.3931   -0.2787 H   0  0  0  0  0  0  0  0  0  0  0  0
   -1.5816   -4.9210   -1.9516 H   0  0  0  0  0  0  0  0  0  0  0  0
    0.0883   -6.8232   -0.9272 H   0  0  0  0  0  0  0  0  0  0  0  0
   -0.0013   -4.2432    3.0948 H   0  0  0  0  0  0  0  0  0  0  0  0
    1.2323   -3.5606    2.0929 H   0  0  0  0  0  0  0  0  0  0  0  0
   -0.3649   -2.7068    2.2557 H   0  0  0  0  0  0  0  0  0  0  0  0
   -3.3792    2.0654   -0.0956 H   0  0  0  0  0  0  0  0  0  0  0  0
   -7.6995    0.6098    0.8047 H   0  0  0  0  0  0  0  0  0  0  0  0
   -7.0156   -3.2361   -0.4289 H   0  0  0  0  0  0  0  0  0  0  0  0
   -6.6230   -3.2914    1.4242 H   0  0  0  0  0  0  0  0  0  0  0  0
   -7.9930   -4.0740    0.7222 H   0  0  0  0  0  0  0  0  0  0  0  0
  1  2  1  0  0  0  0
  1 27  1  0  0  0  0
  1 28  1  0  0  0  0
  1 29  1  0  0  0  0
  2  3  1  0  0  0  0
  2  4  1  0  0  0  0
  2 30  1  0  0  0  0
  3 31  1  0  0  0  0
  3 32  1  0  0  0  0
  3 33  1  0  0  0  0
  4  5  1  0  0  0  0
  4  9  2  0  0  0  0
  5  6  2  0  0  0  0
  5 34  1  0  0  0  0
  6  7  1  0  0  0  0
  6 21  1  0  0  0  0
  7  8  2  0  0  0  0
  7 16  1  0  0  0  0
  8  9  1  0  0  0  0
  8 35  1  0  0  0  0
  9 10  1  0  0  0  0
 10 11  2  0  0  0  0
 10 14  1  0  0  0  0
 11 12  1  0  0  0  0
 11 36  1  0  0  0  0
 12 13  2  0  0  0  0
 12 37  1  0  0  0  0
 13 14  1  0  0  0  0
 14 15  1  0  0  0  0
 15 38  1  0  0  0  0
 15 39  1  0  0  0  0
 15 40  1  0  0  0  0
 16 17  2  0  0  0  0
 16 18  1  0  0  0  0
 18 19  1  0  0  0  0
 18 22  1  0  0  0  0
 19 20  2  0  0  0  0
 19 21  1  0  0  0  0
 21 41  1  0  0  0  0
 22 23  1  0  0  0  0
 22 42  1  0  0  0  0
 23 24  2  0  0  0  0
 23 25  2  0  0  0  0
 23 26  1  0  0  0  0
 26 43  1  0  0  0  0
 26 44  1  0  0  0  0
 26 45  1  0  0  0  0
M  END
>  <DRUGBANK_ID>
DB12367

>  <COMMON_NAME>
Selurampanel

>  <CAS_NUMBER>
912574-69-7

>  <UNII>
7WG1MR7DAR

>  <SYNONYMS>
Selurampanel

$$$$
