
 OpenBabel10282417113D

 29 32  0  0  0  0  0  0  0  0999 V2000
    0.7487    0.4906   -0.3447 C   0  0  0  0  0  0  0  0  0  0  0  0
    0.8208   -0.7308    0.2441 C   0  0  0  0  0  0  0  0  0  0  0  0
   -0.4157   -1.3996    0.1709 C   0  0  0  0  0  0  0  0  0  0  0  0
   -0.3229    1.3482   -0.2286 C   0  0  0  0  0  0  0  0  0  0  0  0
   -1.5534    0.7395    0.0145 C   0  0  0  0  0  0  0  0  0  0  0  0
   -1.5962   -0.6842    0.0807 C   0  0  0  0  0  0  0  0  0  0  0  0
   -2.7406   -1.3821    0.1147 N   0  0  0  0  0  0  0  0  0  0  0  0
   -3.8614   -0.6517    0.2148 C   0  0  0  0  0  0  0  0  0  0  0  0
   -3.8374    0.7299    0.2261 C   0  0  0  0  0  0  0  0  0  0  0  0
   -2.6962    1.4520    0.1022 N   0  0  0  0  0  0  0  0  0  0  0  0
    3.4062   -1.3813    1.0581 C   0  0  0  0  0  0  0  0  0  0  0  0
    4.1122   -0.1002    0.8012 N   0  0  0  0  0  0  0  0  0  0  0  0
    3.0586    0.8661    0.3809 C   0  0  0  0  0  0  0  0  0  0  0  0
    2.5165   -1.3278   -0.0212 C   0  0  3  0  0  0  0  0  0  0  0  0
    2.0241    0.2251   -0.9814 C   0  0  3  0  0  0  0  0  0  0  0  0
    1.7921   -1.7249   -1.1875 C   0  0  0  0  0  0  0  0  0  0  0  0
   -0.5003   -2.4771    0.0221 H   0  0  0  0  0  0  0  0  0  0  0  0
   -0.2686    2.4247   -0.3671 H   0  0  0  0  0  0  0  0  0  0  0  0
   -4.7783   -1.2189    0.3151 H   0  0  0  0  0  0  0  0  0  0  0  0
   -4.7515    1.2996    0.3344 H   0  0  0  0  0  0  0  0  0  0  0  0
    4.0731   -2.2440    0.9487 H   0  0  0  0  0  0  0  0  0  0  0  0
    2.8024   -1.3801    1.9619 H   0  0  0  0  0  0  0  0  0  0  0  0
    4.6830    0.1983    1.5844 H   0  0  0  0  0  0  0  0  0  0  0  0
    2.4556    1.0513    1.3048 H   0  0  0  0  0  0  0  0  0  0  0  0
    3.4515    1.8555    0.1200 H   0  0  0  0  0  0  0  0  0  0  0  0
    3.3285   -1.1129   -0.8965 H   0  0  0  0  0  0  0  0  0  0  0  0
    2.3216    0.6482   -1.9304 H   0  0  0  0  0  0  0  0  0  0  0  0
    2.4560   -2.4045   -1.7137 H   0  0  0  0  0  0  0  0  0  0  0  0
    1.4033   -2.5263   -0.4415 H   0  0  0  0  0  0  0  0  0  0  0  0
  1  2  2  0  0  0  0
  2  3  1  0  0  0  0
  3  6  2  0  0  0  0
  3 17  1  0  0  0  0
  4  1  1  0  0  0  0
  4 18  1  0  0  0  0
  5  6  1  0  0  0  0
  5  4  2  0  0  0  0
  6  7  1  0  0  0  0
  7  8  2  0  0  0  0
  8  9  1  0  0  0  0
  8 19  1  0  0  0  0
  9 10  2  0  0  0  0
  9 20  1  0  0  0  0
 10  5  1  0  0  0  0
 11 14  1  0  0  0  0
 11 12  1  0  0  0  0
 11 21  1  0  0  0  0
 11 22  1  0  0  0  0
 12 13  1  0  0  0  0
 12 23  1  0  0  0  0
 13 15  1  0  0  0  0
 13 24  1  0  0  0  0
 13 25  1  0  0  0  0
 14  2  1  0  0  0  0
 14 26  1  0  0  0  0
 15  1  1  0  0  0  0
 15 16  1  0  0  0  0
 15 27  1  0  0  0  0
 16 14  1  0  0  0  0
 16 28  1  0  0  0  0
 16 29  1  0  0  0  0
M  END
>  <DRUGBANK_ID>
DB01273

>  <COMMON_NAME>
Varenicline

>  <CAS_NUMBER>
249296-44-4

>  <UNII>
W6HS99O8ZO

>  <SYNONYMS>
Vareniclina; Varenicline; Vareniclinum

$$$$
