
 OpenBabel10282417203D

 58 62  0  0  0  0  0  0  0  0999 V2000
   -2.2249   -0.0282   -0.0024 C   0  0  0  0  0  0  0  0  0  0  0  0
   -0.7505    0.1171   -0.0058 C   0  0  0  0  0  0  0  0  0  0  0  0
    0.1008    1.2061   -0.0054 C   0  0  0  0  0  0  0  0  0  0  0  0
    1.4183    0.6671   -0.0156 C   0  0  0  0  0  0  0  0  0  0  0  0
    1.3688   -0.6686   -0.0398 N   0  0  0  0  0  0  0  0  0  0  0  0
    0.0694   -0.9728   -0.0109 N   0  0  0  0  0  0  0  0  0  0  0  0
    2.5540    1.4213   -0.0094 N   0  0  0  0  0  0  0  0  0  0  0  0
    3.7677    0.7652    0.1478 C   0  0  0  0  0  0  0  0  0  0  0  0
    4.1974   -0.1704   -0.9385 C   0  0  0  0  0  0  0  0  0  0  0  0
    5.3642   -0.8013   -0.8737 C   0  0  0  0  0  0  0  0  0  0  0  0
    6.1018   -0.7022    0.3667 C   0  0  0  0  0  0  0  0  0  0  0  0
    7.2730   -1.2061    0.7089 N   0  0  0  0  0  0  0  0  0  0  0  0
    7.7865   -0.3649    1.6741 C   0  0  0  0  0  0  0  0  0  0  0  0
    6.8176    0.5410    2.0862 C   0  0  0  0  0  0  0  0  0  0  0  0
    5.7295    0.3323    1.2258 N   0  0  0  0  0  0  0  0  0  0  0  0
    4.5701    1.0587    1.1418 N   0  0  0  0  0  0  0  0  0  0  0  0
    6.9180    1.4932    3.2498 C   0  0  0  0  0  0  0  0  0  0  0  0
    6.8311    2.9669    2.9478 C   0  0  0  0  0  0  0  0  0  0  0  0
    7.9207    3.8403    3.0965 C   0  0  0  0  0  0  0  0  0  0  0  0
    7.8281    5.1620    2.6383 C   0  0  0  0  0  0  0  0  0  0  0  0
    6.6142    5.6475    2.1517 C   0  0  0  0  0  0  0  0  0  0  0  0
    5.5012    4.8274    2.1107 C   0  0  0  0  0  0  0  0  0  0  0  0
    5.6178    3.5186    2.5407 C   0  0  0  0  0  0  0  0  0  0  0  0
    4.4861    2.8222    2.6723 F   0  0  0  0  0  0  0  0  0  0  0  0
    6.4470    7.3012    1.7157 Cl  0  0  0  0  0  0  0  0  0  0  0  0
    9.2182   -0.4357    2.0964 C   0  0  0  0  0  0  0  0  0  0  0  0
    5.8918   -1.4252   -2.1641 C   0  0  0  0  0  0  0  0  0  0  0  0
    7.0118   -0.7827   -2.8893 N   0  0  0  0  0  0  0  0  0  0  0  0
    8.2322   -0.6100   -2.0761 C   0  0  0  0  0  0  0  0  0  0  0  0
    8.2553    0.7110   -1.2708 C   0  0  0  0  0  0  0  0  0  0  0  0
    7.9813    1.8756   -2.0535 O   0  0  0  0  0  0  0  0  0  0  0  0
    6.6764    1.7160   -2.6388 C   0  0  0  0  0  0  0  0  0  0  0  0
    6.7156    0.4968   -3.5678 C   0  0  0  0  0  0  0  0  0  0  0  0
   -2.5608   -0.5605   -0.8994 H   0  0  0  0  0  0  0  0  0  0  0  0
   -2.5551   -0.6015    0.8712 H   0  0  0  0  0  0  0  0  0  0  0  0
   -2.7244    0.9444    0.0219 H   0  0  0  0  0  0  0  0  0  0  0  0
   -0.1989    2.2452   -0.0067 H   0  0  0  0  0  0  0  0  0  0  0  0
   -0.1895   -1.9541   -0.0085 H   0  0  0  0  0  0  0  0  0  0  0  0
    2.5145    2.3596    0.3670 H   0  0  0  0  0  0  0  0  0  0  0  0
    3.5815   -0.1404   -1.8393 H   0  0  0  0  0  0  0  0  0  0  0  0
    6.1807    1.2091    4.0048 H   0  0  0  0  0  0  0  0  0  0  0  0
    7.8949    1.3202    3.7305 H   0  0  0  0  0  0  0  0  0  0  0  0
    8.8348    3.5216    3.5967 H   0  0  0  0  0  0  0  0  0  0  0  0
    8.7011    5.8093    2.6676 H   0  0  0  0  0  0  0  0  0  0  0  0
    4.5299    5.1783    1.7858 H   0  0  0  0  0  0  0  0  0  0  0  0
    9.6771    0.5639    2.1130 H   0  0  0  0  0  0  0  0  0  0  0  0
    9.2954   -0.8525    3.1026 H   0  0  0  0  0  0  0  0  0  0  0  0
    9.8240   -1.0419    1.4139 H   0  0  0  0  0  0  0  0  0  0  0  0
    6.1578   -2.4657   -1.9459 H   0  0  0  0  0  0  0  0  0  0  0  0
    5.0636   -1.5108   -2.8855 H   0  0  0  0  0  0  0  0  0  0  0  0
    9.0892   -0.5878   -2.7599 H   0  0  0  0  0  0  0  0  0  0  0  0
    8.3959   -1.4971   -1.4519 H   0  0  0  0  0  0  0  0  0  0  0  0
    7.4693    0.7614   -0.5496 H   0  0  0  0  0  0  0  0  0  0  0  0
    9.1796    0.8171   -0.6992 H   0  0  0  0  0  0  0  0  0  0  0  0
    6.4441    2.6331   -3.1835 H   0  0  0  0  0  0  0  0  0  0  0  0
    5.9051    1.6243   -1.8667 H   0  0  0  0  0  0  0  0  0  0  0  0
    7.5481    0.6782   -4.2641 H   0  0  0  0  0  0  0  0  0  0  0  0
    5.8129    0.4262   -4.1795 H   0  0  0  0  0  0  0  0  0  0  0  0
  1  2  1  0  0  0  0
  1 34  1  0  0  0  0
  1 35  1  0  0  0  0
  1 36  1  0  0  0  0
  2  3  2  0  0  0  0
  2  6  1  0  0  0  0
  3  4  1  0  0  0  0
  3 37  1  0  0  0  0
  4  5  2  0  0  0  0
  4  7  1  0  0  0  0
  5  6  1  0  0  0  0
  6 38  1  0  0  0  0
  7  8  1  0  0  0  0
  7 39  1  0  0  0  0
  8  9  1  0  0  0  0
  8 16  2  0  0  0  0
  9 10  2  0  0  0  0
  9 40  1  0  0  0  0
 10 11  1  0  0  0  0
 10 27  1  0  0  0  0
 11 12  2  0  0  0  0
 11 15  1  0  0  0  0
 12 13  1  0  0  0  0
 13 14  2  0  0  0  0
 13 26  1  0  0  0  0
 14 15  1  0  0  0  0
 14 17  1  0  0  0  0
 15 16  1  0  0  0  0
 17 18  1  0  0  0  0
 17 41  1  0  0  0  0
 17 42  1  0  0  0  0
 18 19  2  0  0  0  0
 18 23  1  0  0  0  0
 19 20  1  0  0  0  0
 19 43  1  0  0  0  0
 20 21  2  0  0  0  0
 20 44  1  0  0  0  0
 21 22  1  0  0  0  0
 21 25  1  0  0  0  0
 22 23  2  0  0  0  0
 22 45  1  0  0  0  0
 23 24  1  0  0  0  0
 26 46  1  0  0  0  0
 26 47  1  0  0  0  0
 26 48  1  0  0  0  0
 27 28  1  0  0  0  0
 27 49  1  0  0  0  0
 27 50  1  0  0  0  0
 28 29  1  0  0  0  0
 28 33  1  0  0  0  0
 29 30  1  0  0  0  0
 29 51  1  0  0  0  0
 29 52  1  0  0  0  0
 30 31  1  0  0  0  0
 30 53  1  0  0  0  0
 30 54  1  0  0  0  0
 31 32  1  0  0  0  0
 32 33  1  0  0  0  0
 32 55  1  0  0  0  0
 32 56  1  0  0  0  0
 33 57  1  0  0  0  0
 33 58  1  0  0  0  0
M  END
>  <DRUGBANK_ID>
DB13040

>  <COMMON_NAME>
Gandotinib

>  <CAS_NUMBER>
1229236-86-5

>  <UNII>
ANC71R916O

>  <SYNONYMS>
3-(4-CHLORO-2-FLUOROBENZYL)-2-METHYL-N-(5-METHYL-1H-PYRAZOL-3-YL)-8- (MORPHOLINOMETHYL)IMIDAZO(1,2-B)PYRIDAZIN-6-AMINE; Adenosine triphosphate type 1 competitive inhibitor of JAK2 V617F tyrosine kinase; Gandotinib; IMIDAZO(1,2-B)PYRIDAZIN-6-AMINE, 3-((4-CHLORO-2-FLUOROPHENYL)METHYL)-2-METHYL-N-(5- METHYL-1H-PYRAZOL-3-YL)-8-(4-MORPHOLINYLMETHYL)-

$$$$
