
 OpenBabel10282417203D

 29 29  0  0  1  0  0  0  0  0999 V2000
    2.5368    0.5226   -0.6205 C   0  0  0  0  0  0  0  0  0  0  0  0
    1.8600    0.7950   -1.9622 C   0  0  3  0  0  0  0  0  0  0  0  0
    0.4893    1.4696   -1.7982 C   0  0  0  0  0  0  0  0  0  0  0  0
    0.4550    2.7431   -0.9258 C   0  0  1  0  0  0  0  0  0  0  0  0
    1.3543    3.8660   -1.4775 C   0  0  1  0  0  0  0  0  0  0  0  0
    1.1750    5.1742   -0.7100 C   0  0  2  0  0  0  0  0  0  0  0  0
   -0.3020    5.5270   -0.5434 C   0  0  1  0  0  0  0  0  0  0  0  0
   -1.0583    4.3212    0.0087 C   0  0  0  0  0  0  0  0  0  0  0  0
   -0.9091    3.1865   -0.8461 O   0  0  0  0  0  0  0  0  0  0  0  0
   -0.4624    6.6439    0.3317 O   0  0  0  0  0  0  0  0  0  0  0  0
    1.8819    6.2302   -1.3734 O   0  0  0  0  0  0  0  0  0  0  0  0
    2.7462    3.5215   -1.4095 O   0  0  0  0  0  0  0  0  0  0  0  0
    2.7078    1.5071   -2.8531 O   0  0  0  0  0  0  0  0  0  0  0  0
    2.5890    1.4042    0.0240 H   0  0  0  0  0  0  0  0  0  0  0  0
    3.5695    0.1909   -0.7531 H   0  0  0  0  0  0  0  0  0  0  0  0
    1.9745   -0.2373   -0.0701 H   0  0  0  0  0  0  0  0  0  0  0  0
    1.7083   -0.1679   -2.4602 H   0  0  0  0  0  0  0  0  0  0  0  0
    0.0717    1.7050   -2.7862 H   0  0  0  0  0  0  0  0  0  0  0  0
   -0.1997    0.7379   -1.3544 H   0  0  0  0  0  0  0  0  0  0  0  0
    0.7619    2.4739    0.0913 H   0  0  0  0  0  0  0  0  0  0  0  0
    1.1147    4.0301   -2.5349 H   0  0  0  0  0  0  0  0  0  0  0  0
    1.6539    5.0880    0.2729 H   0  0  0  0  0  0  0  0  0  0  0  0
   -0.7119    5.8112   -1.5193 H   0  0  0  0  0  0  0  0  0  0  0  0
   -2.1236    4.5589    0.0933 H   0  0  0  0  0  0  0  0  0  0  0  0
   -0.7181    4.0717    1.0228 H   0  0  0  0  0  0  0  0  0  0  0  0
    0.1240    6.5209    1.0980 H   0  0  0  0  0  0  0  0  0  0  0  0
    1.6394    6.2111   -2.3169 H   0  0  0  0  0  0  0  0  0  0  0  0
    2.9987    3.4319   -0.4763 H   0  0  0  0  0  0  0  0  0  0  0  0
    2.9402    2.3758   -2.4470 H   0  0  0  0  0  0  0  0  0  0  0  0
  1  2  1  0  0  0  0
  1 14  1  0  0  0  0
  1 15  1  0  0  0  0
  1 16  1  0  0  0  0
  2  3  1  0  0  0  0
  2 13  1  0  0  0  0
  2 17  1  0  0  0  0
  3 18  1  0  0  0  0
  3 19  1  0  0  0  0
  4  5  1  0  0  0  0
  4  9  1  0  0  0  0
  4 20  1  1  0  0  0
  4  3  1  0  0  0  0
  5  6  1  0  0  0  0
  5 12  1  0  0  0  0
  5 21  1  6  0  0  0
  6  7  1  0  0  0  0
  6 11  1  0  0  0  0
  6 22  1  1  0  0  0
  7  8  1  0  0  0  0
  7 10  1  0  0  0  0
  7 23  1  6  0  0  0
  8  9  1  0  0  0  0
  8 24  1  0  0  0  0
  8 25  1  0  0  0  0
 10 26  1  0  0  0  0
 11 27  1  0  0  0  0
 12 28  1  0  0  0  0
 13 29  1  0  0  0  0
M  END
>  <DRUGBANK_ID>
DB13121

>  <COMMON_NAME>
Hydroxypropyl tetrahydropyrantriol

>  <CAS_NUMBER>
439685-79-7

>  <UNII>
4U3GMG1OT1

$$$$
