
 OpenBabel10282417113D

123127  0  0  0  0  0  0  0  0999 V2000
   -5.6690   -4.0838    4.1312 C   0  0  2  0  0  0  0  0  0  0  0  0
   -7.5281   -3.6088    3.8226 C   0  0  2  0  0  0  0  0  0  0  0  0
   -6.7647   -2.7718    5.5324 C   0  0  0  0  0  0  0  0  0  0  0  0
   -5.8774   -3.8012    5.5844 O   0  0  0  0  0  0  0  0  0  0  0  0
   -7.9713   -3.3324    5.1541 N   0  0  0  0  0  0  0  0  0  0  0  0
   -8.4955   -7.8251   -3.0188 C   0  0  2  0  0  0  0  0  0  0  0  0
   -8.9572   -3.9759    3.0372 C   0  0  2  0  0  0  0  0  0  0  0  0
   -3.8017   -6.5612    2.0498 C   0  0  0  0  0  0  0  0  0  0  0  0
   -4.7766   -6.7527   -0.1734 C   0  0  0  0  0  0  0  0  0  0  0  0
   -3.7482   -5.9372    0.6271 C   0  0  1  0  0  0  0  0  0  0  0  0
   -9.2013   -6.5510   -3.5507 C   0  0  1  0  0  0  0  0  0  0  0  0
   -7.2108   -7.2546   -1.0174 C   0  0  1  0  0  0  0  0  0  0  0  0
   -6.2090   -6.2167   -0.2359 C   0  0  1  0  0  0  0  0  0  0  0  0
  -13.8778   -5.2001    8.3642 N   0  0  0  0  0  0  0  0  0  0  0  0
   -9.0483   -3.2970    1.6509 C   0  0  0  0  0  0  0  0  0  0  0  0
   -3.8915   -5.5878    2.9865 O   0  0  0  0  0  0  0  0  0  0  0  0
  -12.7203   -5.9266    8.4529 C   0  0  0  0  0  0  0  0  0  0  0  0
   -7.2945   -7.3440   -2.5209 O   0  0  0  0  0  0  0  0  0  0  0  0
  -10.7254   -6.8375   -3.6983 C   0  0  2  0  0  0  0  0  0  0  0  0
   -8.7360   -6.7016   -0.4492 C   0  0  1  0  0  0  0  0  0  0  0  0
   -4.8656   -5.5594    4.0969 C   0  0  2  0  0  0  0  0  0  0  0  0
   -8.4384   -8.6892   -4.1301 O   0  0  0  0  0  0  0  0  0  0  0  0
  -11.7591   -5.3927    7.6375 C   0  0  0  0  0  0  0  0  0  0  0  0
  -12.2472   -4.1684    7.2937 N   0  0  0  0  0  0  0  0  0  0  0  0
  -13.5705   -4.1593    7.6198 C   0  0  0  0  0  0  0  0  0  0  0  0
   -9.5597   -4.1325    0.5409 C   0  0  1  0  0  0  0  0  0  0  0  0
   -8.5066   -4.8179   -0.3096 C   0  0  0  0  0  0  0  0  0  0  0  0
  -10.7614   -7.9512   -4.7483 C   0  0  0  0  0  0  0  0  0  0  0  0
  -12.5371   -7.1617    9.1613 C   0  0  0  0  0  0  0  0  0  0  0  0
   -6.4304   -1.6628    5.1254 O   0  0  0  0  0  0  0  0  0  0  0  0
  -11.6592   -5.6270   -3.8768 N   0  0  0  0  0  0  0  0  0  0  0  0
   -4.0186   -7.7319    2.2799 O   0  0  0  0  0  0  0  0  0  0  0  0
   -4.5722   -7.9348   -0.4614 O   0  0  0  0  0  0  0  0  0  0  0  0
   -9.7910   -9.1197   -4.3788 C   0  0  1  0  0  0  0  0  0  0  0  0
   -8.6811   -2.0967    1.4155 O   0  0  0  0  0  0  0  0  0  0  0  0
  -13.0686   -9.5153    9.3065 N   0  0  0  0  0  0  0  0  0  0  0  0
   -8.9274   -5.3597   -2.8323 O   0  0  0  0  0  0  0  0  0  0  0  0
   -4.1876   -3.2486    4.1637 C   0  0  0  0  0  0  0  0  0  0  0  0
   -9.9022   -7.0713   -1.2511 O   0  0  0  0  0  0  0  0  0  0  0  0
   -8.7181   -4.3647    5.9179 C   0  0  0  0  0  0  0  0  0  0  0  0
  -10.6451   -4.2632    3.3202 C   0  0  0  0  0  0  0  0  0  0  0  0
   -4.0034   -4.4092    0.6372 C   0  0  0  0  0  0  0  0  0  0  0  0
   -6.4760   -6.1565    1.2517 C   0  0  0  0  0  0  0  0  0  0  0  0
  -13.2282   -8.2900    8.7537 C   0  0  0  0  0  0  0  0  0  0  0  0
   -9.6023   -7.7606    0.7612 C   0  0  0  0  0  0  0  0  0  0  0  0
  -11.5716   -3.1325    6.5640 C   0  0  0  0  0  0  0  0  0  0  0  0
   -5.7738   -6.7104    4.2989 C   0  0  0  0  0  0  0  0  0  0  0  0
   -9.7101   -5.3669    1.2623 C   0  0  0  0  0  0  0  0  0  0  0  0
  -11.6125   -7.2951   10.2031 C   0  0  0  0  0  0  0  0  0  0  0  0
  -12.1861   -9.6075   10.3255 C   0  0  0  0  0  0  0  0  0  0  0  0
  -11.9104   -4.5757   -2.8157 C   0  0  0  0  0  0  0  0  0  0  0  0
  -11.0416   -4.8578   -4.9440 C   0  0  0  0  0  0  0  0  0  0  0  0
   -9.6607  -10.0247   -5.5640 C   0  0  0  0  0  0  0  0  0  0  0  0
  -11.2327   -6.6131   -1.0158 C   0  0  0  0  0  0  0  0  0  0  0  0
   -9.1530   -3.7530    7.2405 C   0  0  0  0  0  0  0  0  0  0  0  0
  -10.2189   -2.6552    7.0750 C   0  0  0  0  0  0  0  0  0  0  0  0
  -11.4390   -8.5412   10.8026 C   0  0  0  0  0  0  0  0  0  0  0  0
   -6.2210   -6.7264    5.7328 C   0  0  0  0  0  0  0  0  0  0  0  0
   -7.4357   -2.6148    3.3674 H   0  0  0  0  0  0  0  0  0  0  0  0
   -8.8657   -8.4903   -2.2316 H   0  0  0  0  0  0  0  0  0  0  0  0
   -8.6742   -5.0151    3.0764 H   0  0  0  0  0  0  0  0  0  0  0  0
   -2.7688   -6.1150    0.1768 H   0  0  0  0  0  0  0  0  0  0  0  0
   -8.7538   -6.3038   -4.5099 H   0  0  0  0  0  0  0  0  0  0  0  0
   -6.2942   -7.0555   -1.5756 H   0  0  0  0  0  0  0  0  0  0  0  0
   -6.1318   -5.2501   -0.7913 H   0  0  0  0  0  0  0  0  0  0  0  0
  -11.1284   -7.4926   -2.9369 H   0  0  0  0  0  0  0  0  0  0  0  0
   -4.1762   -5.6334    4.9660 H   0  0  0  0  0  0  0  0  0  0  0  0
  -10.7976   -5.7948    7.3602 H   0  0  0  0  0  0  0  0  0  0  0  0
  -14.2428   -3.3742    7.2983 H   0  0  0  0  0  0  0  0  0  0  0  0
  -10.5347   -3.8633    0.1018 H   0  0  0  0  0  0  0  0  0  0  0  0
   -8.0677   -4.2631   -1.1543 H   0  0  0  0  0  0  0  0  0  0  0  0
   -7.6666   -4.5919    0.3554 H   0  0  0  0  0  0  0  0  0  0  0  0
  -10.4469   -7.5241   -5.6962 H   0  0  0  0  0  0  0  0  0  0  0  0
  -11.7814   -8.3430   -4.8261 H   0  0  0  0  0  0  0  0  0  0  0  0
  -10.1534   -9.6802   -3.4986 H   0  0  0  0  0  0  0  0  0  0  0  0
   -9.3519   -5.5833   -2.0038 H   0  0  0  0  0  0  0  0  0  0  0  0
   -4.0177   -2.5571    4.9999 H   0  0  0  0  0  0  0  0  0  0  0  0
   -3.3832   -3.9584    4.5168 H   0  0  0  0  0  0  0  0  0  0  0  0
   -3.7187   -2.9412    3.2304 H   0  0  0  0  0  0  0  0  0  0  0  0
   -9.5918   -4.7315    5.3720 H   0  0  0  0  0  0  0  0  0  0  0  0
   -8.1600   -5.2781    6.0825 H   0  0  0  0  0  0  0  0  0  0  0  0
  -10.8910   -5.3451    3.4569 H   0  0  0  0  0  0  0  0  0  0  0  0
  -11.0948   -3.8124    4.1423 H   0  0  0  0  0  0  0  0  0  0  0  0
  -11.3586   -3.9715    2.5094 H   0  0  0  0  0  0  0  0  0  0  0  0
   -3.4840   -3.8920   -0.1682 H   0  0  0  0  0  0  0  0  0  0  0  0
   -5.0477   -4.0961    0.5615 H   0  0  0  0  0  0  0  0  0  0  0  0
   -3.6512   -3.9583    1.5589 H   0  0  0  0  0  0  0  0  0  0  0  0
   -6.2656   -5.1771    1.7003 H   0  0  0  0  0  0  0  0  0  0  0  0
   -7.3706   -6.5469    1.6743 H   0  0  0  0  0  0  0  0  0  0  0  0
   -5.9106   -6.9402    1.6964 H   0  0  0  0  0  0  0  0  0  0  0  0
  -13.9290   -8.2360    7.9256 H   0  0  0  0  0  0  0  0  0  0  0  0
  -10.3469   -8.4522    0.2998 H   0  0  0  0  0  0  0  0  0  0  0  0
   -9.0084   -8.1950    1.5440 H   0  0  0  0  0  0  0  0  0  0  0  0
  -10.4657   -7.3073    1.3214 H   0  0  0  0  0  0  0  0  0  0  0  0
  -12.2549   -2.3068    6.3310 H   0  0  0  0  0  0  0  0  0  0  0  0
  -11.3999   -3.6075    5.6450 H   0  0  0  0  0  0  0  0  0  0  0  0
   -6.6055   -6.5160    3.6409 H   0  0  0  0  0  0  0  0  0  0  0  0
   -5.3382   -7.6846    4.0767 H   0  0  0  0  0  0  0  0  0  0  0  0
  -10.3722   -5.7671    0.5993 H   0  0  0  0  0  0  0  0  0  0  0  0
   -8.7443   -5.8089    1.3387 H   0  0  0  0  0  0  0  0  0  0  0  0
   -9.9364   -5.8325    2.1869 H   0  0  0  0  0  0  0  0  0  0  0  0
  -11.0337   -6.4442   10.5552 H   0  0  0  0  0  0  0  0  0  0  0  0
  -12.0928  -10.5967   10.7641 H   0  0  0  0  0  0  0  0  0  0  0  0
  -10.9857   -4.1159   -2.4150 H   0  0  0  0  0  0  0  0  0  0  0  0
  -12.4962   -3.7184   -3.1611 H   0  0  0  0  0  0  0  0  0  0  0  0
  -12.5449   -4.9105   -1.9736 H   0  0  0  0  0  0  0  0  0  0  0  0
  -10.0520   -4.4987   -4.6504 H   0  0  0  0  0  0  0  0  0  0  0  0
  -10.9589   -5.4866   -5.8236 H   0  0  0  0  0  0  0  0  0  0  0  0
  -11.6484   -3.9894   -5.1786 H   0  0  0  0  0  0  0  0  0  0  0  0
   -8.9700  -10.8396   -5.3342 H   0  0  0  0  0  0  0  0  0  0  0  0
  -10.6341  -10.4121   -5.8601 H   0  0  0  0  0  0  0  0  0  0  0  0
   -9.2201   -9.4440   -6.3810 H   0  0  0  0  0  0  0  0  0  0  0  0
  -11.7022   -6.2155   -0.1211 H   0  0  0  0  0  0  0  0  0  0  0  0
  -11.0266   -5.7099   -1.4913 H   0  0  0  0  0  0  0  0  0  0  0  0
  -12.0483   -7.1690   -1.4891 H   0  0  0  0  0  0  0  0  0  0  0  0
   -9.4903   -4.5124    7.9425 H   0  0  0  0  0  0  0  0  0  0  0  0
   -8.2649   -3.3393    7.7163 H   0  0  0  0  0  0  0  0  0  0  0  0
  -10.3734   -2.1561    8.0310 H   0  0  0  0  0  0  0  0  0  0  0  0
   -9.8360   -1.9064    6.3671 H   0  0  0  0  0  0  0  0  0  0  0  0
  -10.7420   -8.6818   11.6218 H   0  0  0  0  0  0  0  0  0  0  0  0
   -6.2974   -5.7421    6.1776 H   0  0  0  0  0  0  0  0  0  0  0  0
   -7.1982   -7.1946    5.7593 H   0  0  0  0  0  0  0  0  0  0  0  0
   -5.4980   -7.2332    6.3707 H   0  0  0  0  0  0  0  0  0  0  0  0
  1 38  1  1  0  0  0
  2  1  1  0  0  0  0
  2 59  1  6  0  0  0
  3  4  1  0  0  0  0
  4  1  1  0  0  0  0
  5  2  1  0  0  0  0
  5  3  1  0  0  0  0
  6 60  1  1  0  0  0
  6 18  1  0  0  0  0
  7  2  1  0  0  0  0
  7 41  1  0  0  0  0
  7 61  1  6  0  0  0
  8 16  1  0  0  0  0
  9 10  1  0  0  0  0
 10  8  1  0  0  0  0
 10 62  1  6  0  0  0
 10 42  1  0  0  0  0
 11  6  1  0  0  0  0
 11 37  1  0  0  0  0
 11 63  1  6  0  0  0
 12 13  1  0  0  0  0
 12 20  1  0  0  0  0
 12 18  1  0  0  0  0
 12 64  1  6  0  0  0
 13  9  1  0  0  0  0
 13 65  1  6  0  0  0
 13 43  1  0  0  0  0
 14 25  2  0  0  0  0
 15  7  1  0  0  0  0
 16 21  1  0  0  0  0
 17 23  2  0  0  0  0
 17 14  1  0  0  0  0
 19 11  1  0  0  0  0
 19 31  1  0  0  0  0
 19 28  1  0  0  0  0
 19 66  1  1  0  0  0
 20 27  1  0  0  0  0
 20 39  1  6  0  0  0
 21  1  1  0  0  0  0
 21 67  1  1  0  0  0
 21 47  1  0  0  0  0
 22  6  1  0  0  0  0
 23 24  1  0  0  0  0
 23 68  1  0  0  0  0
 24 46  1  0  0  0  0
 25 24  1  0  0  0  0
 25 69  1  0  0  0  0
 26 15  1  0  0  0  0
 26 70  1  6  0  0  0
 26 48  1  0  0  0  0
 27 26  1  0  0  0  0
 27 71  1  0  0  0  0
 27 72  1  0  0  0  0
 28 34  1  0  0  0  0
 28 73  1  0  0  0  0
 28 74  1  0  0  0  0
 29 17  1  0  0  0  0
 30  3  2  0  0  0  0
 32  8  2  0  0  0  0
 33  9  2  0  0  0  0
 34 22  1  0  0  0  0
 34 53  1  0  0  0  0
 34 75  1  1  0  0  0
 35 15  2  0  0  0  0
 36 44  2  0  0  0  0
 36 50  1  0  0  0  0
 37 76  1  0  0  0  0
 38 77  1  0  0  0  0
 38 78  1  0  0  0  0
 38 79  1  0  0  0  0
 40 80  1  0  0  0  0
 40 81  1  0  0  0  0
 40  5  1  0  0  0  0
 41 82  1  0  0  0  0
 41 83  1  0  0  0  0
 41 84  1  0  0  0  0
 42 85  1  0  0  0  0
 42 86  1  0  0  0  0
 42 87  1  0  0  0  0
 43 88  1  0  0  0  0
 43 89  1  0  0  0  0
 43 90  1  0  0  0  0
 44 29  1  0  0  0  0
 44 91  1  0  0  0  0
 45 92  1  0  0  0  0
 45 93  1  0  0  0  0
 45 94  1  0  0  0  0
 45 20  1  0  0  0  0
 46 56  1  0  0  0  0
 46 95  1  0  0  0  0
 46 96  1  0  0  0  0
 47 97  1  0  0  0  0
 47 98  1  0  0  0  0
 48 99  1  0  0  0  0
 48100  1  0  0  0  0
 48101  1  0  0  0  0
 49 29  2  0  0  0  0
 49102  1  0  0  0  0
 50 57  2  0  0  0  0
 50103  1  0  0  0  0
 51 31  1  0  0  0  0
 51104  1  0  0  0  0
 51105  1  0  0  0  0
 51106  1  0  0  0  0
 52 31  1  0  0  0  0
 52107  1  0  0  0  0
 52108  1  0  0  0  0
 52109  1  0  0  0  0
 53110  1  0  0  0  0
 53111  1  0  0  0  0
 53112  1  0  0  0  0
 54 39  1  0  0  0  0
 54113  1  0  0  0  0
 54114  1  0  0  0  0
 54115  1  0  0  0  0
 55 40  1  0  0  0  0
 55116  1  0  0  0  0
 55117  1  0  0  0  0
 56 55  1  0  0  0  0
 56118  1  0  0  0  0
 56119  1  0  0  0  0
 57 49  1  0  0  0  0
 57120  1  0  0  0  0
 58 47  1  0  0  0  0
 58121  1  0  0  0  0
 58122  1  0  0  0  0
 58123  1  0  0  0  0
M  END
>  <DRUGBANK_ID>
DB00976

>  <SECONDARY_ACCESSION_NUMBERS>
APRD00483

>  <COMMON_NAME>
Telithromycin

>  <CAS_NUMBER>
191114-48-4

>  <UNII>
KI8H7H19WL

>  <SYNONYMS>
Telithromycin; telitromicina

$$$$
