
 OpenBabel10282417143D

 26 28  0  0  1  0  0  0  0  0999 V2000
    1.0718    0.0418    0.1123 O   0  0  0  0  0  0  0  0  0  0  0  0
    0.5605   -1.2843    0.2358 C   0  0  0  0  0  0  0  0  0  0  0  0
    1.0434   -2.2041   -0.8939 C   0  0  1  0  0  0  0  0  0  0  0  0
    0.2555   -3.4182   -0.9915 O   0  0  0  0  0  0  0  0  0  0  0  0
   -0.3063   -3.5099   -2.3165 C   0  0  2  0  0  0  0  0  0  0  0  0
   -0.1844   -2.1313   -2.9489 C   0  0  1  0  0  0  0  0  0  0  0  0
   -1.4234   -1.4697   -2.6322 O   0  0  0  0  0  0  0  0  0  0  0  0
   -2.3457   -2.4613   -2.4522 C   0  0  0  0  0  0  0  0  0  0  0  0
   -3.6096   -2.2233   -2.4655 N   0  0  0  0  0  0  0  0  0  0  0  0
   -4.4496   -3.3099   -2.3240 C   0  0  0  0  0  0  0  0  0  0  0  0
   -5.6762   -3.2207   -2.3129 O   0  0  0  0  0  0  0  0  0  0  0  0
   -3.8453   -4.6761   -2.2073 C   0  0  0  0  0  0  0  0  0  0  0  0
   -2.5104   -4.7924   -2.1949 C   0  0  0  0  0  0  0  0  0  0  0  0
   -1.7338   -3.6703   -2.2945 N   0  0  0  0  0  0  0  0  0  0  0  0
    1.0121   -1.5265   -2.2612 C   0  0  2  0  0  0  0  0  0  0  0  0
    2.2080   -1.8625   -2.9827 O   0  0  0  0  0  0  0  0  0  0  0  0
    2.0412    0.0071    0.0296 H   0  0  0  0  0  0  0  0  0  0  0  0
    0.8898   -1.6715    1.2063 H   0  0  0  0  0  0  0  0  0  0  0  0
   -0.5309   -1.2326    0.2624 H   0  0  0  0  0  0  0  0  0  0  0  0
    2.0690   -2.5107   -0.6487 H   0  0  0  0  0  0  0  0  0  0  0  0
    0.2239   -4.2839   -2.8839 H   0  0  0  0  0  0  0  0  0  0  0  0
   -0.0758   -2.1566   -4.0381 H   0  0  0  0  0  0  0  0  0  0  0  0
   -4.5332   -5.5081   -2.1335 H   0  0  0  0  0  0  0  0  0  0  0  0
   -2.0095   -5.7512   -2.1162 H   0  0  0  0  0  0  0  0  0  0  0  0
    0.9604   -0.4359   -2.2150 H   0  0  0  0  0  0  0  0  0  0  0  0
    2.3522   -2.8237   -2.9424 H   0  0  0  0  0  0  0  0  0  0  0  0
  1  2  1  0  0  0  0
  1 17  1  0  0  0  0
  2 18  1  0  0  0  0
  2 19  1  0  0  0  0
  3  2  1  0  0  0  0
  3  4  1  0  0  0  0
  3 15  1  0  0  0  0
  3 20  1  1  0  0  0
  5  4  1  0  0  0  0
  5  6  1  0  0  0  0
  5 14  1  0  0  0  0
  5 21  1  6  0  0  0
  6  7  1  0  0  0  0
  6 15  1  0  0  0  0
  6 22  1  6  0  0  0
  7  8  1  0  0  0  0
  8  9  2  0  0  0  0
  8 14  1  0  0  0  0
  9 10  1  0  0  0  0
 10 11  2  0  0  0  0
 10 12  1  0  0  0  0
 12 13  2  0  0  0  0
 12 23  1  0  0  0  0
 13 14  1  0  0  0  0
 13 24  1  0  0  0  0
 15 25  1  1  0  0  0
 15 16  1  0  0  0  0
 16 26  1  0  0  0  0
M  END
>  <DRUGBANK_ID>
DB04627

>  <COMMON_NAME>
Cyclouridine

>  <CAS_NUMBER>
3736-77-4

>  <UNII>
N9APX1AAR4

>  <SYNONYMS>
2,2'-Anhydrouridine; 2,2'-O-Cyclouridine; O2,2'-Cyclouridine

$$$$
