224
 OpenBabel10282417103D

 92 96  0  0  1  0  0  0  0  0999 V2000
   -2.8295   -2.5181   -0.9566 O   0  0  0  0  0  0  0  0  0  0  0  0
    2.4550   -2.5503   -5.8052 O   0  0  0  0  0  0  0  0  0  0  0  0
   -0.8399   -3.1754   -2.4380 O   0  0  0  0  0  0  0  0  0  0  0  0
    0.5673    0.4695   -2.3042 O   0  0  0  0  0  0  0  0  0  0  0  0
    0.0607   -2.3961    1.3851 N   0  0  0  0  0  0  0  0  0  0  0  0
    1.7032   -5.0259    2.2139 N   0  0  0  0  0  0  0  0  0  0  0  0
    1.8386   -1.1586   -3.4269 N   0  0  0  0  0  0  0  0  0  0  0  0
   -1.7749   -4.5321   -1.1761 N   0  0  0  0  0  0  0  0  0  0  0  0
    4.3888   -1.4899    0.4669 N   0  0  0  0  0  0  0  0  0  0  0  0
    0.4204   -3.6127    0.2950 C   0  0  1  0  0  0  0  0  0  0  0  0
    1.1118   -5.0545    0.8956 C   0  0  0  0  0  0  0  0  0  0  0  0
    0.5505   -2.8133    2.6929 C   0  0  0  0  0  0  0  0  0  0  0  0
   -1.3504   -2.0027    1.4310 C   0  0  0  0  0  0  0  0  0  0  0  0
    0.8956   -4.2480    3.1485 C   0  0  0  0  0  0  0  0  0  0  0  0
   -1.7437   -2.0535   -0.0688 C   0  0  2  0  0  0  0  0  0  0  0  0
   -1.0010   -1.2756   -1.0741 C   0  0  0  0  0  0  0  0  0  0  0  0
    0.6585   -1.5623   -1.3129 C   0  0  2  0  0  0  0  0  0  0  0  0
    2.7464   -2.5744   -3.6357 C   0  0  2  0  0  0  0  0  0  0  0  0
   -0.6390   -3.7801   -1.2397 C   0  0  0  0  0  0  0  0  0  0  0  0
    3.4526   -2.9186   -4.8897 C   0  0  1  0  0  0  0  0  0  0  0  0
    3.1407   -4.6336    2.1363 C   0  0  0  0  0  0  0  0  0  0  0  0
    3.7486   -4.4837   -4.8137 C   0  0  0  0  0  0  0  0  0  0  0  0
    2.1587   -4.3432   -3.3930 C   0  0  0  0  0  0  0  0  0  0  0  0
    1.0049   -0.6746   -2.4017 C   0  0  0  0  0  0  0  0  0  0  0  0
    1.4193   -2.8602   -1.8509 C   0  0  0  0  0  0  0  0  0  0  0  0
    2.5295   -5.1751   -4.2904 C   0  0  0  0  0  0  0  0  0  0  0  0
   -2.5037   -4.6434    0.1862 C   0  0  0  0  0  0  0  0  0  0  0  0
    3.5312   -3.1634    1.9921 C   0  0  0  0  0  0  0  0  0  0  0  0
    1.5819   -5.1514   -2.0864 C   0  0  0  0  0  0  0  0  0  0  0  0
    3.1365   -3.5046   -1.4598 C   0  0  0  0  0  0  0  0  0  0  0  0
    1.9409   -6.4508   -3.9907 C   0  0  0  0  0  0  0  0  0  0  0  0
   -3.7159   -3.4770    0.7525 C   0  0  0  0  0  0  0  0  0  0  0  0
   -2.9567   -5.9618   -0.2404 C   0  0  0  0  0  0  0  0  0  0  0  0
   -1.6943   -4.8955    1.4705 C   0  0  0  0  0  0  0  0  0  0  0  0
    0.6747   -6.0816   -1.9132 C   0  0  0  0  0  0  0  0  0  0  0  0
    0.8714   -6.8179   -2.9680 C   0  0  0  0  0  0  0  0  0  0  0  0
    3.2415   -1.9878    2.6603 C   0  0  0  0  0  0  0  0  0  0  0  0
    4.2394   -2.7878    0.9530 C   0  0  0  0  0  0  0  0  0  0  0  0
    3.8345   -2.4167   -1.5213 C   0  0  0  0  0  0  0  0  0  0  0  0
    3.8723   -4.9357   -1.4987 C   0  0  0  0  0  0  0  0  0  0  0  0
    2.9420   -0.7610    1.9470 C   0  0  0  0  0  0  0  0  0  0  0  0
    5.1747   -2.5629   -1.7211 C   0  0  0  0  0  0  0  0  0  0  0  0
    5.2129   -5.0532   -1.4788 C   0  0  0  0  0  0  0  0  0  0  0  0
    5.8312   -3.8286   -1.6358 C   0  0  0  0  0  0  0  0  0  0  0  0
    3.4903   -0.5692    0.7443 C   0  0  0  0  0  0  0  0  0  0  0  0
   -3.4892   -1.8733   -1.1705 H   0  0  0  0  0  0  0  0  0  0  0  0
    1.6197   -2.7503   -5.3137 H   0  0  0  0  0  0  0  0  0  0  0  0
    2.3559   -0.3145   -3.6744 H   0  0  0  0  0  0  0  0  0  0  0  0
   -2.2260   -4.1631   -2.0406 H   0  0  0  0  0  0  0  0  0  0  0  0
    1.4475   -3.1094    0.2128 H   0  0  0  0  0  0  0  0  0  0  0  0
    0.4427   -5.8939    0.7234 H   0  0  0  0  0  0  0  0  0  0  0  0
    1.8655   -5.6237    0.3425 H   0  0  0  0  0  0  0  0  0  0  0  0
    1.4903   -2.6177    2.3378 H   0  0  0  0  0  0  0  0  0  0  0  0
    0.4382   -2.0897    3.5033 H   0  0  0  0  0  0  0  0  0  0  0  0
   -1.6647   -1.0568    1.8268 H   0  0  0  0  0  0  0  0  0  0  0  0
   -1.7677   -2.6537    2.2326 H   0  0  0  0  0  0  0  0  0  0  0  0
   -0.0419   -4.7429    3.3754 H   0  0  0  0  0  0  0  0  0  0  0  0
    1.4628   -4.2484    4.0800 H   0  0  0  0  0  0  0  0  0  0  0  0
   -1.3985   -3.0174    0.1176 H   0  0  0  0  0  0  0  0  0  0  0  0
   -1.5560   -1.4032   -2.0283 H   0  0  0  0  0  0  0  0  0  0  0  0
   -1.4442   -0.3163   -0.8234 H   0  0  0  0  0  0  0  0  0  0  0  0
    1.1298   -1.2934   -0.3834 H   0  0  0  0  0  0  0  0  0  0  0  0
    3.6504   -2.0282   -3.3370 H   0  0  0  0  0  0  0  0  0  0  0  0
    4.4052   -2.3374   -4.9570 H   0  0  0  0  0  0  0  0  0  0  0  0
    3.6449   -5.0220    3.0111 H   0  0  0  0  0  0  0  0  0  0  0  0
    3.5599   -5.2676    1.3127 H   0  0  0  0  0  0  0  0  0  0  0  0
    3.9126   -4.8895   -5.7809 H   0  0  0  0  0  0  0  0  0  0  0  0
    4.6000   -4.6529   -4.1159 H   0  0  0  0  0  0  0  0  0  0  0  0
    1.0367   -3.6077   -1.3090 H   0  0  0  0  0  0  0  0  0  0  0  0
    0.8567   -3.2749   -2.8227 H   0  0  0  0  0  0  0  0  0  0  0  0
    1.8920   -4.8686   -1.0643 H   0  0  0  0  0  0  0  0  0  0  0  0
    2.4999   -7.3287   -4.2226 H   0  0  0  0  0  0  0  0  0  0  0  0
   -4.5599   -3.3648    0.0683 H   0  0  0  0  0  0  0  0  0  0  0  0
   -3.9467   -3.6372    1.7949 H   0  0  0  0  0  0  0  0  0  0  0  0
   -3.4825   -2.3646    0.8757 H   0  0  0  0  0  0  0  0  0  0  0  0
   -2.0298   -6.5327   -0.4720 H   0  0  0  0  0  0  0  0  0  0  0  0
   -3.4639   -6.3472    0.6128 H   0  0  0  0  0  0  0  0  0  0  0  0
   -3.5052   -5.7850   -1.1715 H   0  0  0  0  0  0  0  0  0  0  0  0
   -0.8378   -5.4901    1.4970 H   0  0  0  0  0  0  0  0  0  0  0  0
   -1.0927   -4.0757    1.6475 H   0  0  0  0  0  0  0  0  0  0  0  0
   -2.1579   -4.9706    2.4430 H   0  0  0  0  0  0  0  0  0  0  0  0
    0.0095   -6.1635   -1.0676 H   0  0  0  0  0  0  0  0  0  0  0  0
    0.4040   -7.7565   -2.7183 H   0  0  0  0  0  0  0  0  0  0  0  0
    2.8157   -2.0805    3.6386 H   0  0  0  0  0  0  0  0  0  0  0  0
    4.4790   -3.6318    0.3320 H   0  0  0  0  0  0  0  0  0  0  0  0
    3.2040   -1.5479   -1.4146 H   0  0  0  0  0  0  0  0  0  0  0  0
    3.4309   -5.9652   -1.5951 H   0  0  0  0  0  0  0  0  0  0  0  0
    2.2583   -0.0145    2.3180 H   0  0  0  0  0  0  0  0  0  0  0  0
    5.6409   -1.5956   -1.6703 H   0  0  0  0  0  0  0  0  0  0  0  0
    5.6272   -6.0398   -1.2851 H   0  0  0  0  0  0  0  0  0  0  0  0
    6.8931   -3.7835   -1.5413 H   0  0  0  0  0  0  0  0  0  0  0  0
    3.2972    0.2369    0.0251 H   0  0  0  0  0  0  0  0  0  0  0  0
  1 46  1  0  0  0  0
  2 47  1  0  0  0  0
  3 19  2  0  0  0  0
  4 24  2  0  0  0  0
  5 10  1  0  0  0  0
  5 12  1  0  0  0  0
  5 13  1  0  0  0  0
  6 11  1  0  0  0  0
  6 14  1  0  0  0  0
  6 21  1  0  0  0  0
  7 24  1  0  0  0  0
  7 48  1  0  0  0  0
  8 19  1  0  0  0  0
  8 27  1  0  0  0  0
  8 49  1  0  0  0  0
  9 38  1  0  0  0  0
  9 45  2  0  0  0  0
 10 11  1  0  0  0  0
 10 19  1  0  0  0  0
 10 50  1  6  0  0  0
 11 51  1  0  0  0  0
 11 52  1  0  0  0  0
 12 14  1  0  0  0  0
 12 53  1  0  0  0  0
 12 54  1  0  0  0  0
 13 55  1  0  0  0  0
 13 56  1  0  0  0  0
 14 57  1  0  0  0  0
 14 58  1  0  0  0  0
 15 16  1  0  0  0  0
 15 59  1  6  0  0  0
 15 13  1  0  0  0  0
 15  1  1  0  0  0  0
 16 60  1  0  0  0  0
 16 61  1  0  0  0  0
 17 25  1  0  0  0  0
 17 62  1  1  0  0  0
 17 24  1  0  0  0  0
 17 16  1  0  0  0  0
 18  7  1  0  0  0  0
 18 20  1  0  0  0  0
 18 23  1  0  0  0  0
 18 63  1  1  0  0  0
 20  2  1  0  0  0  0
 20 22  1  0  0  0  0
 20 64  1  6  0  0  0
 21 28  1  0  0  0  0
 21 65  1  0  0  0  0
 21 66  1  0  0  0  0
 22 26  1  0  0  0  0
 22 67  1  0  0  0  0
 22 68  1  0  0  0  0
 23 26  1  0  0  0  0
 23 29  2  0  0  0  0
 25 30  1  0  0  0  0
 25 69  1  0  0  0  0
 25 70  1  0  0  0  0
 26 31  2  0  0  0  0
 27 32  1  0  0  0  0
 27 33  1  0  0  0  0
 27 34  1  0  0  0  0
 28 37  1  0  0  0  0
 28 38  2  0  0  0  0
 29 35  1  0  0  0  0
 29 71  1  0  0  0  0
 30 39  2  0  0  0  0
 30 40  1  0  0  0  0
 31 36  1  0  0  0  0
 31 72  1  0  0  0  0
 32 73  1  0  0  0  0
 32 74  1  0  0  0  0
 32 75  1  0  0  0  0
 33 76  1  0  0  0  0
 33 77  1  0  0  0  0
 33 78  1  0  0  0  0
 34 79  1  0  0  0  0
 34 80  1  0  0  0  0
 34 81  1  0  0  0  0
 35 36  2  0  0  0  0
 35 82  1  0  0  0  0
 36 83  1  0  0  0  0
 37 41  2  0  0  0  0
 37 84  1  0  0  0  0
 38 85  1  0  0  0  0
 39 42  1  0  0  0  0
 39 86  1  0  0  0  0
 40 43  2  0  0  0  0
 40 87  1  0  0  0  0
 41 45  1  0  0  0  0
 41 88  1  0  0  0  0
 42 44  2  0  0  0  0
 42 89  1  0  0  0  0
 43 44  1  0  0  0  0
 43 90  1  0  0  0  0
 44 91  1  0  0  0  0
 45 92  1  0  0  0  0
M  END
>  <DRUGBANK_ID>
DB00224

>  <SECONDARY_ACCESSION_NUMBERS>
APRD00069

>  <COMMON_NAME>
Indinavir

>  <CAS_NUMBER>
150378-17-9

>  <UNII>
9MG78X43ZT

>  <SYNONYMS>
(1(1S,2R),5(S))-2,3,5-Trideoxy-N-(2,3-dihydro-2-hydroxy-1H-inden-1-yl)-5-(2-(((1,1-dimethylethyl)amino)carbonyl)-4-(3-pyridinylmethyl)-1-piperazinyl)-2-(phenylmethyl)-D-erythro-pentonamide; Indinavir; Indinavir anhydrous

$$$$
