
 OpenBabel10282417233D

 65 66  0  0  1  0  0  0  0  0999 V2000
    1.5845   -9.7479   -9.0954 H   0  0  0  0  0  0  0  0  0  0  0  0
    2.2324   -9.0060   -8.6157 C   0  0  2  0  0  0  0  0  0  0  0  0
    1.8991   -7.7228   -9.1827 O   0  0  0  0  0  0  0  0  0  0  0  0
    2.0752   -7.7448  -10.6049 C   0  0  2  0  0  0  0  0  0  0  0  0
    1.5372   -8.9526  -11.1419 O   0  0  0  0  0  0  0  0  0  0  0  0
    1.5685   -9.1831  -12.5425 C   0  0  2  0  0  0  0  0  0  0  0  0
    1.2286  -10.6604  -12.9171 C   0  0  0  0  0  0  0  0  0  0  0  0
    2.2723  -11.2577  -13.6554 O   0  0  0  0  0  0  0  0  0  0  0  0
    2.7403   -8.3800  -13.2517 C   0  0  2  0  0  0  0  0  0  0  0  0
    3.9416   -9.1248  -13.3618 O   0  0  0  0  0  0  0  0  0  0  0  0
    3.1555   -6.9569  -12.6945 C   0  0  2  0  0  0  0  0  0  0  0  0
    4.1673   -6.2419  -13.3834 O   0  0  0  0  0  0  0  0  0  0  0  0
    3.0513   -6.7143  -11.1944 C   0  0  1  0  0  0  0  0  0  0  0  0
    2.5594   -5.3364  -10.8340 O   0  0  0  0  0  0  0  0  0  0  0  0
    1.2307   -4.7447  -11.2017 C   0  0  2  0  0  0  0  0  0  0  0  0
    1.3965   -3.6922  -10.9406 H   0  0  0  0  0  0  0  0  0  0  0  0
   -0.0087   -5.0458  -10.4263 O   0  0  0  0  0  0  0  0  0  0  0  0
   -0.4605   -6.3828  -10.5947 C   0  0  1  0  0  0  0  0  0  0  0  0
   -1.1345   -7.3833   -9.6370 C   0  0  0  0  0  0  0  0  0  0  0  0
   -0.6343   -6.8027  -12.1016 C   0  0  1  0  0  0  0  0  0  0  0  0
   -1.9267   -6.5611  -12.5835 O   0  0  0  0  0  0  0  0  0  0  0  0
    0.3381   -6.1652  -13.1247 C   0  0  1  0  0  0  0  0  0  0  0  0
    0.3354   -6.4219  -14.5297 O   0  0  0  0  0  0  0  0  0  0  0  0
    0.8705   -4.7626  -12.7127 C   0  0  2  0  0  0  0  0  0  0  0  0
    1.9008   -4.1774  -13.5301 O   0  0  0  0  0  0  0  0  0  0  0  0
    1.9445   -9.1749   -7.1087 C   0  0  2  0  0  0  0  0  0  0  0  0
    0.7376   -9.9156   -6.7982 O   0  0  0  0  0  0  0  0  0  0  0  0
    1.8410   -7.8505   -6.3798 C   0  0  0  0  0  0  0  0  0  0  0  0
    1.7721   -8.1032   -4.9766 O   0  0  0  0  0  0  0  0  0  0  0  0
    3.7569   -9.1827   -8.8704 C   0  0  2  0  0  0  0  0  0  0  0  0
    4.4132   -7.9341   -8.6109 O   0  0  0  0  0  0  0  0  0  0  0  0
    4.0255   -9.7755  -10.2533 C   0  0  1  0  0  0  0  0  0  0  0  0
    5.3251   -9.5997  -10.7647 O   0  0  0  0  0  0  0  0  0  0  0  0
    3.4627  -11.1887  -10.2693 C   0  0  0  0  0  0  0  0  0  0  0  0
    2.4496  -11.5212  -10.8070 O   0  0  0  0  0  0  0  0  0  0  0  0
    1.3632   -7.1657  -11.0767 H   0  0  0  0  0  0  0  0  0  0  0  0
    0.6359   -8.8109  -12.9312 H   0  0  0  0  0  0  0  0  0  0  0  0
    0.8650  -11.2879  -12.0888 H   0  0  0  0  0  0  0  0  0  0  0  0
    0.3427  -10.7033  -13.5627 H   0  0  0  0  0  0  0  0  0  0  0  0
    2.6199  -10.5626  -14.2438 H   0  0  0  0  0  0  0  0  0  0  0  0
    2.3794   -8.2634  -14.2762 H   0  0  0  0  0  0  0  0  0  0  0  0
    4.4183   -9.1338  -12.5187 H   0  0  0  0  0  0  0  0  0  0  0  0
    2.4508   -6.2607  -12.9969 H   0  0  0  0  0  0  0  0  0  0  0  0
    4.9948   -6.7295  -13.3690 H   0  0  0  0  0  0  0  0  0  0  0  0
    4.0734   -6.7434  -10.8261 H   0  0  0  0  0  0  0  0  0  0  0  0
    0.3892   -6.6532  -10.0338 H   0  0  0  0  0  0  0  0  0  0  0  0
   -0.8387   -8.4246   -9.9048 H   0  0  0  0  0  0  0  0  0  0  0  0
   -0.7572   -7.2725   -8.6082 H   0  0  0  0  0  0  0  0  0  0  0  0
   -2.2082   -7.3115   -9.6614 H   0  0  0  0  0  0  0  0  0  0  0  0
   -0.5586   -7.8850  -12.1072 H   0  0  0  0  0  0  0  0  0  0  0  0
   -2.0411   -5.6128  -12.4372 H   0  0  0  0  0  0  0  0  0  0  0  0
    1.0334   -6.9297  -12.9683 H   0  0  0  0  0  0  0  0  0  0  0  0
   -0.4905   -6.1546  -14.9469 H   0  0  0  0  0  0  0  0  0  0  0  0
    0.0082   -4.1149  -12.8716 H   0  0  0  0  0  0  0  0  0  0  0  0
    2.7931   -4.5229  -13.3184 H   0  0  0  0  0  0  0  0  0  0  0  0
    2.7374   -9.7933   -6.6757 H   0  0  0  0  0  0  0  0  0  0  0  0
    0.4267  -10.4318   -7.5613 H   0  0  0  0  0  0  0  0  0  0  0  0
    2.7068   -7.2200   -6.5857 H   0  0  0  0  0  0  0  0  0  0  0  0
    0.9237   -7.3253   -6.6637 H   0  0  0  0  0  0  0  0  0  0  0  0
    1.0428   -8.7467   -4.8755 H   0  0  0  0  0  0  0  0  0  0  0  0
    4.1928   -9.8753   -8.1593 H   0  0  0  0  0  0  0  0  0  0  0  0
    4.7341   -7.4938   -9.4037 H   0  0  0  0  0  0  0  0  0  0  0  0
    3.4767   -9.2499  -10.9826 H   0  0  0  0  0  0  0  0  0  0  0  0
    5.5328   -8.6509  -10.8137 H   0  0  0  0  0  0  0  0  0  0  0  0
    3.9555  -11.9056   -9.6061 H   0  0  0  0  0  0  0  0  0  0  0  0
  2  1  1  6  0  0  0
  2  3  1  0  0  0  0
  4  3  1  0  0  0  0
  4  5  1  0  0  0  0
  4 36  1  6  0  0  0
  6  5  1  0  0  0  0
  6 37  1  6  0  0  0
  6  7  1  0  0  0  0
  7  8  1  0  0  0  0
  7 38  1  0  0  0  0
  7 39  1  0  0  0  0
  8 40  1  0  0  0  0
  9  6  1  0  0  0  0
  9 10  1  0  0  0  0
  9 11  1  0  0  0  0
  9 41  1  6  0  0  0
 10 42  1  0  0  0  0
 11 12  1  0  0  0  0
 11 13  1  0  0  0  0
 11 43  1  6  0  0  0
 12 44  1  0  0  0  0
 13  4  1  0  0  0  0
 13 14  1  0  0  0  0
 13 45  1  1  0  0  0
 15 17  1  0  0  0  0
 15 16  1  1  0  0  0
 15 14  1  0  0  0  0
 18 17  1  0  0  0  0
 18 19  1  0  0  0  0
 18 46  1  1  0  0  0
 19 47  1  0  0  0  0
 19 48  1  0  0  0  0
 19 49  1  0  0  0  0
 20 18  1  0  0  0  0
 20 21  1  0  0  0  0
 20 22  1  0  0  0  0
 20 50  1  6  0  0  0
 21 51  1  0  0  0  0
 22 23  1  0  0  0  0
 22 24  1  0  0  0  0
 22 52  1  1  0  0  0
 23 53  1  0  0  0  0
 24 15  1  0  0  0  0
 24 25  1  0  0  0  0
 24 54  1  6  0  0  0
 25 55  1  0  0  0  0
 26 28  1  0  0  0  0
 26 56  1  1  0  0  0
 26 27  1  0  0  0  0
 26  2  1  0  0  0  0
 27 57  1  0  0  0  0
 28 29  1  0  0  0  0
 28 58  1  0  0  0  0
 28 59  1  0  0  0  0
 29 60  1  0  0  0  0
 30 32  1  0  0  0  0
 30 61  1  1  0  0  0
 30 31  1  0  0  0  0
 30  2  1  0  0  0  0
 31 62  1  0  0  0  0
 32 33  1  0  0  0  0
 32 34  1  0  0  0  0
 32 63  1  6  0  0  0
 33 64  1  0  0  0  0
 34 35  2  0  0  0  0
 34 65  1  0  0  0  0
M  END
>  <DRUGBANK_ID>
DB16052

>  <COMMON_NAME>
2'-Fucosyllactose

>  <CAS_NUMBER>
41263-94-9

>  <UNII>
XO2533XO8R

$$$$
