GK3
 OpenBabel10282417163D

 48 51  0  0  0  0  0  0  0  0999 V2000
   -3.1265   -0.0172    0.0437 N   0  0  0  0  0  0  0  0  0  0  0  0
   -1.9739   -0.0299    0.0013 C   0  0  0  0  0  0  0  0  0  0  0  0
   -0.5407   -0.0136   -0.0356 C   0  0  0  0  0  0  0  0  0  0  0  0
    0.1078    1.2295   -0.0269 C   0  0  0  0  0  0  0  0  0  0  0  0
    1.4781    1.2693   -0.1029 C   0  0  0  0  0  0  0  0  0  0  0  0
    2.1565    0.0748   -0.2686 C   0  0  0  0  0  0  0  0  0  0  0  0
    0.1890   -1.2238   -0.0502 C   0  0  0  0  0  0  0  0  0  0  0  0
    1.5799   -1.1819   -0.1028 C   0  0  0  0  0  0  0  0  0  0  0  0
    2.3573   -2.3627    0.0135 N   0  0  0  0  0  0  0  0  0  0  0  0
    3.7367   -2.5308    0.1487 C   0  0  0  0  0  0  0  0  0  0  0  0
    4.2315   -3.6566    0.1031 O   0  0  0  0  0  0  0  0  0  0  0  0
    4.6562   -1.3825    0.3736 C   0  0  0  0  0  0  0  0  0  0  0  0
    5.7560   -1.1980   -0.4678 C   0  0  0  0  0  0  0  0  0  0  0  0
    4.3670   -0.4190    1.3544 C   0  0  0  0  0  0  0  0  0  0  0  0
    5.0379    0.8062    1.3530 C   0  0  0  0  0  0  0  0  0  0  0  0
    6.1431    1.0026    0.5227 C   0  0  0  0  0  0  0  0  0  0  0  0
    6.5500   -0.0575   -0.3103 C   0  0  0  0  0  0  0  0  0  0  0  0
    6.8639    2.2837    0.5143 C   0  0  0  0  0  0  0  0  0  0  0  0
    7.3867    2.7695    1.7251 C   0  0  0  0  0  0  0  0  0  0  0  0
    8.2001    3.9073    1.7748 C   0  0  0  0  0  0  0  0  0  0  0  0
    8.8556    4.2445    3.0223 C   0  0  0  0  0  0  0  0  0  0  0  0
    8.7303    5.5188    3.5154 O   0  0  0  0  0  0  0  0  0  0  0  0
    9.4805    5.4281    4.6640 C   0  0  0  0  0  0  0  0  0  0  0  0
    9.5930    6.6161    5.5259 C   0  0  0  0  0  0  0  0  0  0  0  0
   10.0121    4.2388    4.8420 N   0  0  0  0  0  0  0  0  0  0  0  0
    9.5909    3.4664    3.7885 N   0  0  0  0  0  0  0  0  0  0  0  0
    8.5062    4.5696    0.5854 C   0  0  0  0  0  0  0  0  0  0  0  0
    8.0045    4.0965   -0.6310 C   0  0  0  0  0  0  0  0  0  0  0  0
    7.1110    3.0127   -0.6682 C   0  0  0  0  0  0  0  0  0  0  0  0
    6.3880    2.7244   -1.9609 C   0  0  0  0  0  0  0  0  0  0  0  0
   -0.4361    2.1700   -0.0073 H   0  0  0  0  0  0  0  0  0  0  0  0
    2.0442    2.1965   -0.0759 H   0  0  0  0  0  0  0  0  0  0  0  0
    3.1923    0.1918   -0.5331 H   0  0  0  0  0  0  0  0  0  0  0  0
   -0.3447   -2.1724   -0.0346 H   0  0  0  0  0  0  0  0  0  0  0  0
    1.8669   -3.2535    0.0184 H   0  0  0  0  0  0  0  0  0  0  0  0
    5.9812   -1.9033   -1.2656 H   0  0  0  0  0  0  0  0  0  0  0  0
    3.4771   -0.5210    1.9710 H   0  0  0  0  0  0  0  0  0  0  0  0
    4.6505    1.6251    1.9573 H   0  0  0  0  0  0  0  0  0  0  0  0
    7.4788    0.0293   -0.8724 H   0  0  0  0  0  0  0  0  0  0  0  0
    7.1837    2.2236    2.6471 H   0  0  0  0  0  0  0  0  0  0  0  0
   10.0243    7.4578    4.9782 H   0  0  0  0  0  0  0  0  0  0  0  0
    8.6144    6.9077    5.9168 H   0  0  0  0  0  0  0  0  0  0  0  0
   10.2446    6.3987    6.3795 H   0  0  0  0  0  0  0  0  0  0  0  0
    9.1634    5.4359    0.5917 H   0  0  0  0  0  0  0  0  0  0  0  0
    8.3263    4.5710   -1.5567 H   0  0  0  0  0  0  0  0  0  0  0  0
    5.8292    3.6163   -2.2687 H   0  0  0  0  0  0  0  0  0  0  0  0
    7.0853    2.4391   -2.7523 H   0  0  0  0  0  0  0  0  0  0  0  0
    5.6391    1.9336   -1.8621 H   0  0  0  0  0  0  0  0  0  0  0  0
  1  2  3  0  0  0  0
  2  3  1  0  0  0  0
  3  7  1  0  0  0  0
  4  3  2  0  0  0  0
  4  5  1  0  0  0  0
  4 31  1  0  0  0  0
  5  6  2  0  0  0  0
  5 32  1  0  0  0  0
  6  8  1  0  0  0  0
  6 33  1  0  0  0  0
  7  8  2  0  0  0  0
  7 34  1  0  0  0  0
  8  9  1  0  0  0  0
  9 10  1  0  0  0  0
  9 35  1  0  0  0  0
 10 11  2  0  0  0  0
 10 12  1  0  0  0  0
 12 14  1  0  0  0  0
 13 12  2  0  0  0  0
 13 17  1  0  0  0  0
 13 36  1  0  0  0  0
 14 15  2  0  0  0  0
 14 37  1  0  0  0  0
 15 38  1  0  0  0  0
 16 18  1  0  0  0  0
 16 15  1  0  0  0  0
 17 16  2  0  0  0  0
 17 39  1  0  0  0  0
 18 19  2  0  0  0  0
 19 20  1  0  0  0  0
 19 40  1  0  0  0  0
 20 21  1  0  0  0  0
 21 22  1  0  0  0  0
 21 26  2  0  0  0  0
 22 23  1  0  0  0  0
 23 24  1  0  0  0  0
 23 25  2  0  0  0  0
 24 41  1  0  0  0  0
 24 42  1  0  0  0  0
 24 43  1  0  0  0  0
 26 25  1  0  0  0  0
 27 20  2  0  0  0  0
 27 44  1  0  0  0  0
 28 27  1  0  0  0  0
 28 45  1  0  0  0  0
 29 28  2  0  0  0  0
 29 18  1  0  0  0  0
 30 29  1  0  0  0  0
 30 46  1  0  0  0  0
 30 47  1  0  0  0  0
 30 48  1  0  0  0  0
M  END
>  <DRUGBANK_ID>
DB07833

>  <COMMON_NAME>
N-(3-cyanophenyl)-2'-methyl-5'-(5-methyl-1,3,4-oxadiazol-2-yl)-4-biphenylcarboxamide

$$$$
