
 OpenBabel10282417153D

 86 92  0  0  0  0  0  0  0  0999 V2000
    5.0691    0.4948    1.1310 C   0  0  0  0  0  0  0  0  0  0  0  0
    7.5185   -0.9476    0.3258 C   0  0  0  0  0  0  0  0  0  0  0  0
    2.9055    2.8697    0.7054 C   0  0  0  0  0  0  0  0  0  0  0  0
    5.6622   -0.7815   -1.6905 C   0  0  0  0  0  0  0  0  0  0  0  0
    5.2462    5.2639    1.0463 C   0  0  0  0  0  0  0  0  0  0  0  0
    7.6861    7.8474    3.6317 C   0  0  0  0  0  0  0  0  0  0  0  0
    6.8351    6.8036    3.3464 C   0  0  0  0  0  0  0  0  0  0  0  0
    9.0397    7.5641    3.5508 C   0  0  0  0  0  0  0  0  0  0  0  0
    7.3525    5.5253    2.9325 C   0  0  0  0  0  0  0  0  0  0  0  0
    9.5158    6.3454    2.9434 C   0  0  0  0  0  0  0  0  0  0  0  0
    6.6607    5.5773   -3.7910 C   0  0  0  0  0  0  0  0  0  0  0  0
    7.3988    5.8777   -2.6432 C   0  0  0  0  0  0  0  0  0  0  0  0
    4.6328    3.1105   -1.0366 C   0  0  0  0  0  0  0  0  0  0  0  0
    7.1060    2.4242   -4.2061 C   0  0  0  0  0  0  0  0  0  0  0  0
    4.6287    5.8667   -2.5205 C   0  0  0  0  0  0  0  0  0  0  0  0
    4.5116    5.1227   -5.0225 C   0  0  0  0  0  0  0  0  0  0  0  0
    6.7425    1.0174   -0.7404 C   0  0  0  0  0  0  0  0  0  0  0  0
    4.6122    1.2942   -4.0607 C   0  0  0  0  0  0  0  0  0  0  0  0
    9.2003    3.9034    1.8196 C   0  0  0  0  0  0  0  0  0  0  0  0
    5.2470    2.4761   -6.1698 C   0  0  0  0  0  0  0  0  0  0  0  0
    6.4272    0.4180    0.9326 C   0  0  0  0  0  0  0  0  0  0  0  0
    3.3826    2.7013   -0.6708 C   0  0  0  0  0  0  0  0  0  0  0  0
    6.8904    0.4170   -2.0672 C   0  0  2  0  0  0  0  0  0  0  0  0
    8.6629    5.3098    2.4774 C   0  0  0  0  0  0  0  0  0  0  0  0
    5.2612    5.6192   -3.7807 C   0  0  0  0  0  0  0  0  0  0  0  0
    5.9123    1.9435   -4.7987 C   0  0  0  0  0  0  0  0  0  0  0  0
    7.5274    3.0934   -2.7254 C   0  0  1  0  0  0  0  0  0  0  0  0
    6.7635    6.1526   -1.4231 C   0  0  0  0  0  0  0  0  0  0  0  0
    5.3686    6.0192   -1.3114 C   0  0  0  0  0  0  0  0  0  0  0  0
    5.3411    2.7282   -2.2292 C   0  0  2  0  0  0  0  0  0  0  0  0
    5.3583    4.9839   -6.2697 C   0  0  0  0  0  0  0  0  0  0  0  0
    3.0680    1.8940   -1.8370 C   0  0  0  0  0  0  0  0  0  0  0  0
    7.3162    3.4119   -0.8964 C   0  0  2  0  0  0  0  0  0  0  0  0
    4.0763    2.1674   -2.9790 C   0  0  1  0  0  0  0  0  0  0  0  0
    6.8780    2.0508    0.3322 C   0  0  1  0  0  0  0  0  0  0  0  0
    8.9313    2.8020    0.3374 C   0  0  1  0  0  0  0  0  0  0  0  0
    7.1085    1.9248   -2.0504 C   0  0  1  0  0  0  0  0  0  0  0  0
    7.5797    6.2542   -0.3235 O   0  0  0  0  0  0  0  0  0  0  0  0
    5.8355    5.9792   -6.8044 O   0  0  0  0  0  0  0  0  0  0  0  0
    2.0011    1.2708   -1.8792 O   0  0  0  0  0  0  0  0  0  0  0  0
    3.1493    3.1025   -3.6324 O   0  0  0  0  0  0  0  0  0  0  0  0
    4.6224    5.7479   -0.1556 O   0  0  0  0  0  0  0  0  0  0  0  0
    5.7109    3.7359   -6.7067 O   0  0  0  0  0  0  0  0  0  0  0  0
    8.5673    3.9545   -0.4022 O   0  0  0  0  0  0  0  0  0  0  0  0
    8.0037    2.1121    1.1146 O   0  0  0  0  0  0  0  0  0  0  0  0
    8.7695    2.0856   -1.1824 O   0  0  0  0  0  0  0  0  0  0  0  0
    6.4340    0.4549   -3.0202 H   0  0  0  0  0  0  0  0  0  0  0  0
    8.5140    3.5009   -2.9383 H   0  0  0  0  0  0  0  0  0  0  0  0
    5.5006    3.6108   -2.8239 H   0  0  0  0  0  0  0  0  0  0  0  0
    6.7279    4.2151   -0.6013 H   0  0  0  0  0  0  0  0  0  0  0  0
    4.3010   -0.0753    0.5782 H   0  0  0  0  0  0  0  0  0  0  0  0
    4.7605    1.5346    1.1870 H   0  0  0  0  0  0  0  0  0  0  0  0
    8.0852   -0.7730   -0.6612 H   0  0  0  0  0  0  0  0  0  0  0  0
    8.3889   -1.0326    0.9534 H   0  0  0  0  0  0  0  0  0  0  0  0
    7.0649   -1.8886   -0.0100 H   0  0  0  0  0  0  0  0  0  0  0  0
    2.0741    3.5597    0.8174 H   0  0  0  0  0  0  0  0  0  0  0  0
    2.6716    1.8933    1.1304 H   0  0  0  0  0  0  0  0  0  0  0  0
    3.6970    3.2621    1.3657 H   0  0  0  0  0  0  0  0  0  0  0  0
    5.5202   -1.0905   -0.6475 H   0  0  0  0  0  0  0  0  0  0  0  0
    4.6148   -0.5328   -1.9054 H   0  0  0  0  0  0  0  0  0  0  0  0
    5.9648   -1.7339   -2.1238 H   0  0  0  0  0  0  0  0  0  0  0  0
    5.6651    4.2364    1.1064 H   0  0  0  0  0  0  0  0  0  0  0  0
    6.0639    5.9119    1.2247 H   0  0  0  0  0  0  0  0  0  0  0  0
    4.5506    5.2264    1.8943 H   0  0  0  0  0  0  0  0  0  0  0  0
    7.3055    8.8183    3.9547 H   0  0  0  0  0  0  0  0  0  0  0  0
    5.7578    6.9815    3.4129 H   0  0  0  0  0  0  0  0  0  0  0  0
    9.7302    8.3023    3.9618 H   0  0  0  0  0  0  0  0  0  0  0  0
    6.6498    4.7029    2.9214 H   0  0  0  0  0  0  0  0  0  0  0  0
   10.5950    6.2341    2.9069 H   0  0  0  0  0  0  0  0  0  0  0  0
    7.1932    5.1263   -4.6360 H   0  0  0  0  0  0  0  0  0  0  0  0
    8.4685    5.6478   -2.6494 H   0  0  0  0  0  0  0  0  0  0  0  0
    5.1573    3.6234   -0.3490 H   0  0  0  0  0  0  0  0  0  0  0  0
    7.9747    1.6814   -4.1867 H   0  0  0  0  0  0  0  0  0  0  0  0
    3.5501    5.7655   -2.4197 H   0  0  0  0  0  0  0  0  0  0  0  0
    3.6130    5.7214   -5.1914 H   0  0  0  0  0  0  0  0  0  0  0  0
    4.1347    4.1356   -4.8983 H   0  0  0  0  0  0  0  0  0  0  0  0
    7.7502    0.7668   -0.4014 H   0  0  0  0  0  0  0  0  0  0  0  0
    5.6664    1.1094   -0.7669 H   0  0  0  0  0  0  0  0  0  0  0  0
    3.8734    1.0366   -4.8273 H   0  0  0  0  0  0  0  0  0  0  0  0
    4.7566    0.3202   -3.6298 H   0  0  0  0  0  0  0  0  0  0  0  0
    8.8268    3.2589    2.6688 H   0  0  0  0  0  0  0  0  0  0  0  0
   10.2635    3.8951    2.0311 H   0  0  0  0  0  0  0  0  0  0  0  0
    5.3091    1.7096   -6.9601 H   0  0  0  0  0  0  0  0  0  0  0  0
    4.1535    2.5670   -6.0684 H   0  0  0  0  0  0  0  0  0  0  0  0
    8.3315    5.6174   -0.3999 H   0  0  0  0  0  0  0  0  0  0  0  0
    3.0395    3.9216   -3.1170 H   0  0  0  0  0  0  0  0  0  0  0  0
  1 51  1  0  0  0  0
  1 52  1  0  0  0  0
  2 53  1  0  0  0  0
  2 54  1  0  0  0  0
  2 55  1  0  0  0  0
  3 56  1  0  0  0  0
  3 57  1  0  0  0  0
  3 58  1  0  0  0  0
  4 59  1  0  0  0  0
  4 60  1  0  0  0  0
  4 61  1  0  0  0  0
  5 62  1  0  0  0  0
  5 63  1  0  0  0  0
  5 64  1  0  0  0  0
  6 65  1  0  0  0  0
  7  6  2  0  0  0  0
  7 66  1  0  0  0  0
  8  6  1  0  0  0  0
  8 67  1  0  0  0  0
  9  7  1  0  0  0  0
  9 68  1  0  0  0  0
 10  8  2  0  0  0  0
 10 69  1  0  0  0  0
 11 70  1  0  0  0  0
 12 11  2  0  0  0  0
 12 71  1  0  0  0  0
 13 72  1  0  0  0  0
 14 73  1  0  0  0  0
 15 74  1  0  0  0  0
 16 75  1  0  0  0  0
 16 76  1  0  0  0  0
 17 77  1  0  0  0  0
 17 78  1  0  0  0  0
 18 79  1  0  0  0  0
 18 80  1  0  0  0  0
 19 81  1  0  0  0  0
 19 82  1  0  0  0  0
 20 83  1  0  0  0  0
 20 84  1  0  0  0  0
 21  1  2  0  0  0  0
 21  2  1  0  0  0  0
 22 13  2  0  0  0  0
 22  3  1  0  0  0  0
 23 17  1  0  0  0  0
 23 47  1  6  0  0  0
 23  4  1  0  0  0  0
 24  9  2  0  0  0  0
 24 10  1  0  0  0  0
 24 19  1  0  0  0  0
 25 11  1  0  0  0  0
 25 15  2  0  0  0  0
 25 16  1  0  0  0  0
 26 14  2  0  0  0  0
 26 18  1  0  0  0  0
 26 20  1  0  0  0  0
 27 14  1  0  0  0  0
 27 33  1  0  0  0  0
 27 48  1  6  0  0  0
 28 12  1  0  0  0  0
 29 15  1  0  0  0  0
 29 28  2  0  0  0  0
 30 13  1  0  0  0  0
 30 34  1  0  0  0  0
 30 49  1  6  0  0  0
 31 16  1  0  0  0  0
 32 22  1  0  0  0  0
 33 35  1  0  0  0  0
 33 44  1  0  0  0  0
 33 50  1  6  0  0  0
 34 18  1  0  0  0  0
 34 32  1  0  0  0  0
 34 41  1  1  0  0  0
 35 17  1  0  0  0  0
 35 45  1  0  0  0  0
 35 21  1  6  0  0  0
 36 44  1  0  0  0  0
 36 45  1  0  0  0  0
 36 46  1  0  0  0  0
 36 19  1  6  0  0  0
 37 23  1  0  0  0  0
 37 27  1  0  0  0  0
 37 30  1  0  0  0  0
 37 46  1  1  0  0  0
 38 28  1  0  0  0  0
 38 85  1  0  0  0  0
 39 31  2  0  0  0  0
 40 32  2  0  0  0  0
 41 86  1  0  0  0  0
 42  5  1  0  0  0  0
 42 29  1  0  0  0  0
 43 20  1  0  0  0  0
 43 31  1  0  0  0  0
M  END
>  <DRUGBANK_ID>
DB06515

>  <COMMON_NAME>
Resiniferatoxin

>  <CAS_NUMBER>
57444-62-9

>  <UNII>
A5O6P1UL4I

>  <SYNONYMS>
Resiniferatoxin; RTX

$$$$
