
 OpenBabel10282417233D

 49 52  0  0  0  0  0  0  0  0999 V2000
    0.9199   -0.0701   -0.0016 F   0  0  0  0  0  0  0  0  0  0  0  0
    2.2778   -0.0043   -0.0863 C   0  0  0  0  0  0  0  0  0  0  0  0
    2.7088    0.3428    1.1597 F   0  0  0  0  0  0  0  0  0  0  0  0
    2.7096   -1.2750   -0.2959 F   0  0  0  0  0  0  0  0  0  0  0  0
    2.7362    0.9768   -1.1251 C   0  0  0  0  0  0  0  0  0  0  0  0
    2.2897    2.2915   -1.0014 C   0  0  0  0  0  0  0  0  0  0  0  0
    2.6927    3.2686   -1.9046 C   0  0  0  0  0  0  0  0  0  0  0  0
    3.5571    2.9403   -2.9508 C   0  0  0  0  0  0  0  0  0  0  0  0
    4.0427    1.6369   -3.0614 C   0  0  0  0  0  0  0  0  0  0  0  0
    3.6057    0.6491   -2.1734 C   0  0  0  0  0  0  0  0  0  0  0  0
    2.1683    4.6073   -1.6908 C   0  0  0  0  0  0  0  0  0  0  0  0
    1.2913    5.1358   -2.5501 C   0  0  0  0  0  0  0  0  0  0  0  0
    0.6615    6.4771   -2.3496 C   0  0  0  0  0  0  0  0  0  0  0  0
    1.1705    7.2741   -1.2246 N   0  0  0  0  0  0  0  0  0  0  0  0
    1.2557    8.7033   -1.5764 C   0  0  0  0  0  0  0  0  0  0  0  0
    2.3910    9.1344   -2.5688 C   0  0  0  0  0  0  0  0  0  0  0  0
    2.3463    8.5579   -3.9860 C   0  0  0  0  0  0  0  0  0  0  0  0
    2.8042    7.2434   -4.3227 C   0  0  0  0  0  0  0  0  0  0  0  0
    2.3306    6.6671   -5.5817 C   0  0  0  0  0  0  0  0  0  0  0  0
    2.1033    7.5333   -6.5648 C   0  0  0  0  0  0  0  0  0  0  0  0
    2.1426    6.9947   -7.8574 C   0  0  0  0  0  0  0  0  0  0  0  0
    0.9869    6.3412   -7.9767 C   0  0  0  0  0  0  0  0  0  0  0  0
    0.8946    5.3267   -7.1068 N   0  0  0  0  0  0  0  0  0  0  0  0
    1.7725    5.3983   -6.0018 C   0  0  0  0  0  0  0  0  0  0  0  0
    1.3657    8.6724   -6.1869 C   0  0  0  0  0  0  0  0  0  0  0  0
    1.5571    9.2198   -4.9218 C   0  0  0  0  0  0  0  0  0  0  0  0
    2.4349    6.8279   -0.6204 C   0  0  0  0  0  0  0  0  0  0  0  0
    2.5372    5.3211   -0.4268 C   0  0  0  0  0  0  0  0  0  0  0  0
    1.6042    2.5525   -0.1947 H   0  0  0  0  0  0  0  0  0  0  0  0
    3.8646    3.6918   -3.6736 H   0  0  0  0  0  0  0  0  0  0  0  0
    4.7688    1.3947   -3.8343 H   0  0  0  0  0  0  0  0  0  0  0  0
    3.9477   -0.3758   -2.3033 H   0  0  0  0  0  0  0  0  0  0  0  0
    1.0259    4.6017   -3.4567 H   0  0  0  0  0  0  0  0  0  0  0  0
   -0.4252    6.3697   -2.2947 H   0  0  0  0  0  0  0  0  0  0  0  0
    0.7508    7.0137   -3.2831 H   0  0  0  0  0  0  0  0  0  0  0  0
    0.2733    9.0375   -1.9370 H   0  0  0  0  0  0  0  0  0  0  0  0
    1.4023    9.2535   -0.6340 H   0  0  0  0  0  0  0  0  0  0  0  0
    2.3338   10.2313   -2.6414 H   0  0  0  0  0  0  0  0  0  0  0  0
    3.3755    8.9462   -2.1323 H   0  0  0  0  0  0  0  0  0  0  0  0
    3.2157    6.6330   -3.5302 H   0  0  0  0  0  0  0  0  0  0  0  0
    2.9473    6.2056   -7.9724 H   0  0  0  0  0  0  0  0  0  0  0  0
    0.1278    6.9209   -8.3259 H   0  0  0  0  0  0  0  0  0  0  0  0
    1.9797    4.4516   -5.5395 H   0  0  0  0  0  0  0  0  0  0  0  0
    0.5914    9.0558   -6.8345 H   0  0  0  0  0  0  0  0  0  0  0  0
    1.0551   10.1556   -4.6900 H   0  0  0  0  0  0  0  0  0  0  0  0
    3.3061    7.1284   -1.2116 H   0  0  0  0  0  0  0  0  0  0  0  0
    2.5528    7.3133    0.3573 H   0  0  0  0  0  0  0  0  0  0  0  0
    3.5682    5.0821   -0.1354 H   0  0  0  0  0  0  0  0  0  0  0  0
    1.8760    5.0018    0.3856 H   0  0  0  0  0  0  0  0  0  0  0  0
  1  2  1  0  0  0  0
  2  3  1  0  0  0  0
  2  4  1  0  0  0  0
  2  5  1  0  0  0  0
  5  6  2  0  0  0  0
  5 10  1  0  0  0  0
  6  7  1  0  0  0  0
  6 29  1  0  0  0  0
  7  8  2  0  0  0  0
  7 11  1  0  0  0  0
  8  9  1  0  0  0  0
  8 30  1  0  0  0  0
  9 10  2  0  0  0  0
  9 31  1  0  0  0  0
 10 32  1  0  0  0  0
 11 12  2  0  0  0  0
 11 28  1  0  0  0  0
 12 13  1  0  0  0  0
 12 33  1  0  0  0  0
 13 14  1  0  0  0  0
 13 34  1  0  0  0  0
 13 35  1  0  0  0  0
 14 15  1  0  0  0  0
 14 27  1  0  0  0  0
 15 16  1  0  0  0  0
 15 36  1  0  0  0  0
 15 37  1  0  0  0  0
 16 17  1  0  0  0  0
 16 38  1  0  0  0  0
 16 39  1  0  0  0  0
 17 18  2  0  0  0  0
 17 26  1  0  0  0  0
 18 19  1  0  0  0  0
 18 40  1  0  0  0  0
 19 20  2  0  0  0  0
 19 24  1  0  0  0  0
 20 21  1  0  0  0  0
 20 25  1  0  0  0  0
 21 22  2  0  0  0  0
 21 41  1  0  0  0  0
 22 23  1  0  0  0  0
 22 42  1  0  0  0  0
 23 24  2  0  0  0  0
 24 43  1  0  0  0  0
 25 26  2  0  0  0  0
 25 44  1  0  0  0  0
 26 45  1  0  0  0  0
 27 28  1  0  0  0  0
 27 46  1  0  0  0  0
 27 47  1  0  0  0  0
 28 48  1  0  0  0  0
 28 49  1  0  0  0  0
M  END
>  <DRUGBANK_ID>
DB16204

>  <COMMON_NAME>
Isoquinoline, 7-(2-(3,6-dihydro-4-(3-(trifluoromethyl)phenyl)-1(2h)-pyridinyl)ethyl)-

>  <CAS_NUMBER>
335267-09-9

>  <UNII>
5WX0OAF07I

$$$$
