
 OpenBabel10282417123D

 55 58  0  0  1  0  0  0  0  0999 V2000
    1.3590   -0.2132    0.0186 C   0  0  0  0  0  0  0  0  0  0  0  0
    0.4769   -1.2909    0.0233 C   0  0  0  0  0  0  0  0  0  0  0  0
    0.8605    1.0878    0.0185 C   0  0  0  0  0  0  0  0  0  0  0  0
   -0.9038   -1.0674    0.0030 C   0  0  0  0  0  0  0  0  0  0  0  0
   -0.5199    1.3129    0.0383 C   0  0  0  0  0  0  0  0  0  0  0  0
   -2.9111    0.4778   -0.1826 C   0  0  0  0  0  0  0  0  0  0  0  0
   -6.9482    7.6484    1.1499 C   0  0  0  0  0  0  0  0  0  0  0  0
   -5.3462    3.9618   -0.3362 C   0  0  0  0  0  0  0  0  0  0  0  0
   -2.8479    4.7669    3.1657 C   0  0  0  0  0  0  0  0  0  0  0  0
   -1.4219    0.2386   -0.0059 C   0  0  0  0  0  0  0  0  0  0  0  0
   -6.0233    8.1564    2.3359 C   0  0  2  0  0  0  0  0  0  0  0  0
   -3.6248    3.4713    1.6511 C   0  0  0  0  0  0  0  0  0  0  0  0
   -4.7174    8.8873    1.9988 C   0  0  2  0  0  0  0  0  0  0  0  0
   -3.7436    7.7591    1.7737 C   0  0  2  0  0  0  0  0  0  0  0  0
   -3.9632    2.4363    0.7596 C   0  0  0  0  0  0  0  0  0  0  0  0
   -4.2696    4.6978    1.4599 C   0  0  0  0  0  0  0  0  0  0  0  0
   -4.1637    6.8191    2.8523 C   0  0  2  0  0  0  0  0  0  0  0  0
   -3.5088    1.1309    0.9658 N   0  0  0  0  0  0  0  0  0  0  0  0
   -4.8140    2.7203   -0.2578 N   0  0  0  0  0  0  0  0  0  0  0  0
   -5.1160    5.0118    0.4862 N   0  0  0  0  0  0  0  0  0  0  0  0
   -2.7446    3.5304    2.7053 N   0  0  0  0  0  0  0  0  0  0  0  0
   -3.8310    5.4551    2.5155 N   0  0  0  0  0  0  0  0  0  0  0  0
   -4.1462    9.8782    2.8466 O   0  0  0  0  0  0  0  0  0  0  0  0
   -2.3813    8.1903    1.8553 O   0  0  0  0  0  0  0  0  0  0  0  0
   -3.1325    8.9821   -0.3964 O   0  0  0  0  0  0  0  0  0  0  0  0
   -2.6371   10.6175   -2.0291 O   0  0  0  0  0  0  0  0  0  0  0  0
   -1.9530   10.7818    0.1938 O   0  0  0  0  0  0  0  0  0  0  0  0
   -6.4620    8.8078   -2.1315 O   0  0  0  0  0  0  0  0  0  0  0  0
   -6.4943    9.8533    0.0671 O   0  0  0  0  0  0  0  0  0  0  0  0
   -6.3420    7.4813   -0.1592 O   0  0  0  0  0  0  0  0  0  0  0  0
   -5.5763    6.9780    3.0662 O   0  0  0  0  0  0  0  0  0  0  0  0
   -4.8163   10.3519   -1.3439 O   0  0  0  0  0  0  0  0  0  0  0  0
   -3.3053   10.5788   -0.5324 P   0  0  0  0  0  0  0  0  0  0  0  0
   -5.5791    8.9166   -0.7516 P   0  0  3  0  0  0  0  0  0  0  0  0
   -6.6365    8.7485    3.0237 H   0  0  0  0  0  0  0  0  0  0  0  0
   -4.8103    9.5187    1.1620 H   0  0  0  0  0  0  0  0  0  0  0  0
   -3.8914    7.2809    0.7976 H   0  0  0  0  0  0  0  0  0  0  0  0
   -3.6463    7.0932    3.7760 H   0  0  0  0  0  0  0  0  0  0  0  0
    2.4324   -0.3864    0.0151 H   0  0  0  0  0  0  0  0  0  0  0  0
    0.8649   -2.3067    0.0211 H   0  0  0  0  0  0  0  0  0  0  0  0
    1.5473    1.9300   -0.0126 H   0  0  0  0  0  0  0  0  0  0  0  0
   -1.5721   -1.9253   -0.0276 H   0  0  0  0  0  0  0  0  0  0  0  0
   -0.8875    2.3363    0.0633 H   0  0  0  0  0  0  0  0  0  0  0  0
   -3.0558    1.0213   -1.1252 H   0  0  0  0  0  0  0  0  0  0  0  0
   -3.4186   -0.4852   -0.3067 H   0  0  0  0  0  0  0  0  0  0  0  0
   -7.4141    6.6923    1.4110 H   0  0  0  0  0  0  0  0  0  0  0  0
   -7.7984    8.3348    1.0237 H   0  0  0  0  0  0  0  0  0  0  0  0
   -6.0526    4.1245   -1.1416 H   0  0  0  0  0  0  0  0  0  0  0  0
   -2.2602    5.2086    3.9502 H   0  0  0  0  0  0  0  0  0  0  0  0
   -2.9795    1.0503    1.8277 H   0  0  0  0  0  0  0  0  0  0  0  0
   -4.1935    9.6407    3.7794 H   0  0  0  0  0  0  0  0  0  0  0  0
   -2.3451    9.0110    2.3941 H   0  0  0  0  0  0  0  0  0  0  0  0
   -2.4424    8.9463    0.3269 H   0  0  0  0  0  0  0  0  0  0  0  0
   -3.2593   10.3007   -2.7061 H   0  0  0  0  0  0  0  0  0  0  0  0
   -6.1163    8.2726   -2.8581 H   0  0  0  0  0  0  0  0  0  0  0  0
  1 39  1  0  0  0  0
  2  1  2  0  0  0  0
  2 40  1  0  0  0  0
  3  1  1  0  0  0  0
  3 41  1  0  0  0  0
  4  2  1  0  0  0  0
  4 42  1  0  0  0  0
  5  3  2  0  0  0  0
  5 43  1  0  0  0  0
  6 44  1  0  0  0  0
  6 45  1  0  0  0  0
  7 46  1  0  0  0  0
  7 47  1  0  0  0  0
  8 48  1  0  0  0  0
  9 49  1  0  0  0  0
 10  4  2  0  0  0  0
 10  5  1  0  0  0  0
 10  6  1  0  0  0  0
 11 35  1  1  0  0  0
 11  7  1  0  0  0  0
 13 11  1  0  0  0  0
 13 23  1  0  0  0  0
 13 36  1  6  0  0  0
 14 13  1  0  0  0  0
 14 24  1  0  0  0  0
 14 37  1  6  0  0  0
 15 12  2  0  0  0  0
 16 12  1  0  0  0  0
 17 14  1  0  0  0  0
 17 22  1  0  0  0  0
 17 38  1  1  0  0  0
 18  6  1  0  0  0  0
 18 15  1  0  0  0  0
 18 50  1  0  0  0  0
 19  8  2  0  0  0  0
 19 15  1  0  0  0  0
 20  8  1  0  0  0  0
 20 16  2  0  0  0  0
 21  9  2  0  0  0  0
 21 12  1  0  0  0  0
 22  9  1  0  0  0  0
 22 16  1  0  0  0  0
 23 51  1  0  0  0  0
 24 52  1  0  0  0  0
 25 53  1  0  0  0  0
 26 54  1  0  0  0  0
 28 55  1  0  0  0  0
 30  7  1  0  0  0  0
 31 11  1  0  0  0  0
 31 17  1  0  0  0  0
 33 25  1  0  0  0  0
 33 26  1  0  0  0  0
 33 27  2  0  0  0  0
 33 32  1  0  0  0  0
 34 28  1  0  0  0  0
 34 29  2  0  0  0  0
 34 30  1  0  0  0  0
 34 32  1  0  0  0  0
M  END
>  <DRUGBANK_ID>
DB01893

>  <SECONDARY_ACCESSION_NUMBERS>
EXPT02305

>  <COMMON_NAME>
N6-Benzyl Adenosine-5'-Diphosphate

$$$$
