1101
 OpenBabel10282417113D

 47 48  0  0  1  0  0  0  0  0999 V2000
    1.1484    0.1586   -0.1812 F   0  0  0  0  0  0  0  0  0  0  0  0
    5.0067    3.4687    0.9408 O   0  0  0  0  0  0  0  0  0  0  0  0
    5.9025    2.7342   -2.3635 O   0  0  0  0  0  0  0  0  0  0  0  0
    5.1160    5.3054   -2.1606 O   0  0  0  0  0  0  0  0  0  0  0  0
    6.4475   -0.0300    0.0666 O   0  0  0  0  0  0  0  0  0  0  0  0
    2.4014   -4.8653    0.0364 O   0  0  0  0  0  0  0  0  0  0  0  0
    4.4869   -4.0555    0.0431 O   0  0  0  0  0  0  0  0  0  0  0  0
    4.4902    1.1624    0.2688 N   0  0  0  0  0  0  0  0  0  0  0  0
    4.5601   -1.2209    0.0659 N   0  0  0  0  0  0  0  0  0  0  0  0
    2.7534   -2.5324   -0.2867 N   0  0  0  0  0  0  0  0  0  0  0  0
    4.8793    2.9694   -1.3988 C   0  0  2  0  0  0  0  0  0  0  0  0
    4.6693    4.4558   -1.1210 C   0  0  1  0  0  0  0  0  0  0  0  0
    5.2246    2.3859   -0.0018 C   0  0  1  0  0  0  0  0  0  0  0  0
    5.4122    4.6434    0.1898 C   0  0  1  0  0  0  0  0  0  0  0  0
    5.0864    5.9640    0.8670 C   0  0  0  0  0  0  0  0  0  0  0  0
    3.1232    1.1538    0.1883 C   0  0  0  0  0  0  0  0  0  0  0  0
    5.2127   -0.0345    0.1502 C   0  0  0  0  0  0  0  0  0  0  0  0
    2.4646    0.0181   -0.0021 C   0  0  0  0  0  0  0  0  0  0  0  0
    3.2802   -1.2620   -0.0692 C   0  0  0  0  0  0  0  0  0  0  0  0
    0.5056   -2.9316    1.4428 C   0  0  0  0  0  0  0  0  0  0  0  0
    0.3022   -4.4213    1.3525 C   0  0  0  0  0  0  0  0  0  0  0  0
   -0.0797   -2.2840    0.1808 C   0  0  0  0  0  0  0  0  0  0  0  0
    0.9406   -4.9925    0.0782 C   0  0  0  0  0  0  0  0  0  0  0  0
    3.2825   -3.8061   -0.0545 C   0  0  0  0  0  0  0  0  0  0  0  0
   -1.5548   -2.1812    0.1051 C   0  0  0  0  0  0  0  0  0  0  0  0
    6.7666    2.9263   -1.9630 H   0  0  0  0  0  0  0  0  0  0  0  0
    5.9602    4.9513   -2.4933 H   0  0  0  0  0  0  0  0  0  0  0  0
    1.7969   -2.6055   -0.4755 H   0  0  0  0  0  0  0  0  0  0  0  0
    3.9533    2.5576   -1.8152 H   0  0  0  0  0  0  0  0  0  0  0  0
    3.6018    4.6443   -0.9469 H   0  0  0  0  0  0  0  0  0  0  0  0
    6.2919    2.1622    0.0707 H   0  0  0  0  0  0  0  0  0  0  0  0
    6.4995    4.6169    0.0190 H   0  0  0  0  0  0  0  0  0  0  0  0
    5.6937    6.0995    1.7678 H   0  0  0  0  0  0  0  0  0  0  0  0
    5.2961    6.8080    0.1973 H   0  0  0  0  0  0  0  0  0  0  0  0
    4.0371    6.0132    1.1690 H   0  0  0  0  0  0  0  0  0  0  0  0
    2.5868    2.1025    0.1788 H   0  0  0  0  0  0  0  0  0  0  0  0
    0.0797   -2.4680    2.3361 H   0  0  0  0  0  0  0  0  0  0  0  0
    1.5774   -2.7665    1.6104 H   0  0  0  0  0  0  0  0  0  0  0  0
   -0.7769   -4.6095    1.3662 H   0  0  0  0  0  0  0  0  0  0  0  0
    0.7297   -4.9012    2.2380 H   0  0  0  0  0  0  0  0  0  0  0  0
    0.2765   -1.2925    0.1790 H   0  0  0  0  0  0  0  0  0  0  0  0
    0.1987   -2.7033   -0.7946 H   0  0  0  0  0  0  0  0  0  0  0  0
    0.5198   -4.6112   -0.8558 H   0  0  0  0  0  0  0  0  0  0  0  0
    0.7038   -6.0647    0.0574 H   0  0  0  0  0  0  0  0  0  0  0  0
   -1.9051   -1.6393    0.9790 H   0  0  0  0  0  0  0  0  0  0  0  0
   -1.7992   -1.6241   -0.8062 H   0  0  0  0  0  0  0  0  0  0  0  0
   -1.9719   -3.1825    0.0334 H   0  0  0  0  0  0  0  0  0  0  0  0
  1 18  1  0  0  0  0
  2 13  1  0  0  0  0
  2 14  1  0  0  0  0
  3 26  1  0  0  0  0
  4 27  1  0  0  0  0
  5 17  2  0  0  0  0
  6 23  1  0  0  0  0
  6 24  1  0  0  0  0
  7 24  2  0  0  0  0
  8 16  1  0  0  0  0
  8 17  1  0  0  0  0
  9 17  1  0  0  0  0
  9 19  2  0  0  0  0
 10 19  1  0  0  0  0
 10 24  1  0  0  0  0
 10 28  1  0  0  0  0
 11  3  1  0  0  0  0
 11 12  1  0  0  0  0
 11 13  1  0  0  0  0
 11 29  1  6  0  0  0
 12  4  1  0  0  0  0
 12 14  1  0  0  0  0
 12 30  1  1  0  0  0
 13  8  1  0  0  0  0
 13 31  1  1  0  0  0
 14 15  1  0  0  0  0
 14 32  1  6  0  0  0
 15 33  1  0  0  0  0
 15 34  1  0  0  0  0
 15 35  1  0  0  0  0
 16 18  2  0  0  0  0
 16 36  1  0  0  0  0
 18 19  1  0  0  0  0
 20 21  1  0  0  0  0
 20 22  1  0  0  0  0
 20 37  1  0  0  0  0
 20 38  1  0  0  0  0
 21 23  1  0  0  0  0
 21 39  1  0  0  0  0
 21 40  1  0  0  0  0
 22 25  1  0  0  0  0
 22 41  1  0  0  0  0
 22 42  1  0  0  0  0
 23 43  1  0  0  0  0
 23 44  1  0  0  0  0
 25 45  1  0  0  0  0
 25 46  1  0  0  0  0
 25 47  1  0  0  0  0
M  END
>  <DRUGBANK_ID>
DB01101

>  <SECONDARY_ACCESSION_NUMBERS>
APRD00203

>  <COMMON_NAME>
Capecitabine

>  <CAS_NUMBER>
154361-50-9

>  <UNII>
6804DJ8Z9U

>  <SYNONYMS>
(1-(5-Deoxy-beta-D-ribofuranosyl)-5-fluoro-1,2-dihydro-2-oxo-4-pyrimidinyl)-carbamic acid pentyl ester; Capecitabin; Capecitabina; Capecitabine; Capécitabine; Capecitabinum; Pentyl [1-(5-deoxy-β-D-ribofuranosyl)-5-fluoro-2-oxo-1,2-dihydropyrimidin-4-yl]carbamate; pentyl 1-(5-deoxy-β-D-ribofuranosyl)-5-fluoro-1,2-dihydro-2-oxo-4-pyrimidinecarbamate

$$$$
