
 OpenBabel10282417133D

 78 81  0  0  0  0  0  0  0  0999 V2000
    1.8401    0.2317   -1.2989 O   0  0  0  0  0  0  0  0  0  0  0  0
    3.1303    2.7196    2.1357 O   0  0  0  0  0  0  0  0  0  0  0  0
   -1.4086    0.8897    4.5367 O   0  0  0  0  0  0  0  0  0  0  0  0
    6.7676    0.6414   -1.5811 O   0  0  0  0  0  0  0  0  0  0  0  0
    5.0849    1.9694   -0.9860 O   0  0  0  0  0  0  0  0  0  0  0  0
    7.8301   -4.0740   -0.4168 O   0  0  0  0  0  0  0  0  0  0  0  0
    7.9934   -2.0925    0.6480 O   0  0  0  0  0  0  0  0  0  0  0  0
    0.4065   -1.2894   -0.3228 N   0  0  0  0  0  0  0  0  0  0  0  0
    1.3213    2.1792    0.8840 N   0  0  0  0  0  0  0  0  0  0  0  0
    0.7060    0.9880    3.7985 N   0  0  0  0  0  0  0  0  0  0  0  0
    0.3433    1.1976    0.3828 C   0  0  1  0  0  0  0  0  0  0  0  0
   -0.8440    1.7379   -0.3815 C   0  0  0  0  0  0  0  0  0  0  0  0
   -2.0721    0.8434   -0.1393 C   0  0  0  0  0  0  0  0  0  0  0  0
   -1.9961   -0.5883   -0.6552 C   0  0  0  0  0  0  0  0  0  0  0  0
   -0.9936   -1.5271   -0.0534 C   0  0  0  0  0  0  0  0  0  0  0  0
    0.9306    0.0122   -0.4975 C   0  0  0  0  0  0  0  0  0  0  0  0
    1.2037   -2.4880   -0.7326 C   0  0  0  0  0  0  0  0  0  0  0  0
    1.9228    0.8004    2.9759 C   0  0  2  0  0  0  0  0  0  0  0  0
    2.1427    1.9914    1.9897 C   0  0  0  0  0  0  0  0  0  0  0  0
    1.2230   -3.6943    0.2385 C   0  0  0  0  0  0  0  0  0  0  0  0
    2.0402   -0.5296    2.2830 C   0  0  0  0  0  0  0  0  0  0  0  0
    3.2713   -0.7963    1.4808 C   0  0  0  0  0  0  0  0  0  0  0  0
    0.0966   -4.1790    0.9035 C   0  0  0  0  0  0  0  0  0  0  0  0
    2.3944   -4.4372    0.4673 C   0  0  0  0  0  0  0  0  0  0  0  0
    0.1596   -5.1918    1.8539 C   0  0  0  0  0  0  0  0  0  0  0  0
    2.5094   -5.3579    1.5191 C   0  0  0  0  0  0  0  0  0  0  0  0
    3.9130    0.0784    0.5986 C   0  0  0  0  0  0  0  0  0  0  0  0
    1.3781   -5.7363    2.2261 C   0  0  0  0  0  0  0  0  0  0  0  0
    3.7272   -2.0839    1.5336 C   0  0  0  0  0  0  0  0  0  0  0  0
   -0.5030    0.3638    3.8922 C   0  0  0  0  0  0  0  0  0  0  0  0
    4.9852   -0.2891   -0.2244 C   0  0  0  0  0  0  0  0  0  0  0  0
    5.3431   -1.6337   -0.2395 C   0  0  0  0  0  0  0  0  0  0  0  0
    4.7474   -2.4935    0.7003 C   0  0  0  0  0  0  0  0  0  0  0  0
    1.4436   -6.8048    3.1995 C   0  0  0  0  0  0  0  0  0  0  0  0
    6.3607   -2.3002   -1.1137 C   0  0  0  0  0  0  0  0  0  0  0  0
   -0.7874   -0.8781    3.1244 C   0  0  0  0  0  0  0  0  0  0  0  0
    5.5851    0.8802   -0.9653 C   0  0  0  0  0  0  0  0  0  0  0  0
    0.8198   -8.0171    2.8801 C   0  0  0  0  0  0  0  0  0  0  0  0
    2.1806   -6.6852    4.3827 C   0  0  0  0  0  0  0  0  0  0  0  0
    7.4821   -2.7878   -0.2193 C   0  0  0  0  0  0  0  0  0  0  0  0
    0.9445   -9.1098    3.7199 C   0  0  0  0  0  0  0  0  0  0  0  0
    2.3480   -7.7983    5.1993 C   0  0  0  0  0  0  0  0  0  0  0  0
    1.7110   -8.9991    4.8777 C   0  0  0  0  0  0  0  0  0  0  0  0
    7.3147   -0.0300   -1.1476 H   0  0  0  0  0  0  0  0  0  0  0  0
    7.3404   -4.5325   -1.1246 H   0  0  0  0  0  0  0  0  0  0  0  0
    1.6848    2.8841    0.2455 H   0  0  0  0  0  0  0  0  0  0  0  0
    0.7014    1.8638    4.3064 H   0  0  0  0  0  0  0  0  0  0  0  0
   -0.0718    0.8849    1.3164 H   0  0  0  0  0  0  0  0  0  0  0  0
   -1.0834    2.7557   -0.0563 H   0  0  0  0  0  0  0  0  0  0  0  0
   -0.6109    1.7702   -1.4499 H   0  0  0  0  0  0  0  0  0  0  0  0
   -2.3202    0.8313    0.9309 H   0  0  0  0  0  0  0  0  0  0  0  0
   -2.9212    1.3041   -0.6495 H   0  0  0  0  0  0  0  0  0  0  0  0
   -2.9691   -1.0570   -0.4561 H   0  0  0  0  0  0  0  0  0  0  0  0
   -1.8347   -0.6062   -1.7349 H   0  0  0  0  0  0  0  0  0  0  0  0
   -1.1848   -1.7475    0.9886 H   0  0  0  0  0  0  0  0  0  0  0  0
   -1.2322   -2.4733   -0.5382 H   0  0  0  0  0  0  0  0  0  0  0  0
    0.7891   -2.8223   -1.6851 H   0  0  0  0  0  0  0  0  0  0  0  0
    2.2309   -2.1617   -0.9312 H   0  0  0  0  0  0  0  0  0  0  0  0
    2.7531    0.8160    3.6952 H   0  0  0  0  0  0  0  0  0  0  0  0
    1.8894   -1.3401    3.0022 H   0  0  0  0  0  0  0  0  0  0  0  0
    1.2043   -0.6651    1.6350 H   0  0  0  0  0  0  0  0  0  0  0  0
   -0.9029   -3.8310    0.7190 H   0  0  0  0  0  0  0  0  0  0  0  0
    3.2922   -4.2477   -0.1047 H   0  0  0  0  0  0  0  0  0  0  0  0
   -0.7677   -5.5562    2.2883 H   0  0  0  0  0  0  0  0  0  0  0  0
    3.4761   -5.7934    1.7761 H   0  0  0  0  0  0  0  0  0  0  0  0
    3.5494    1.0836    0.4381 H   0  0  0  0  0  0  0  0  0  0  0  0
    3.1832   -2.7971    2.1474 H   0  0  0  0  0  0  0  0  0  0  0  0
    5.0573   -3.5337    0.7694 H   0  0  0  0  0  0  0  0  0  0  0  0
    5.8786   -3.1311   -1.6455 H   0  0  0  0  0  0  0  0  0  0  0  0
    6.7598   -1.6688   -1.9025 H   0  0  0  0  0  0  0  0  0  0  0  0
   -0.7366   -0.5127    2.1237 H   0  0  0  0  0  0  0  0  0  0  0  0
   -0.1003   -1.7117    3.2554 H   0  0  0  0  0  0  0  0  0  0  0  0
   -1.8132   -1.2378    3.2171 H   0  0  0  0  0  0  0  0  0  0  0  0
    0.2612   -8.1054    1.9496 H   0  0  0  0  0  0  0  0  0  0  0  0
    2.6395   -5.7367    4.6567 H   0  0  0  0  0  0  0  0  0  0  0  0
    0.4665  -10.0453    3.4490 H   0  0  0  0  0  0  0  0  0  0  0  0
    2.9882   -7.7352    6.0748 H   0  0  0  0  0  0  0  0  0  0  0  0
    1.8152   -9.8575    5.5326 H   0  0  0  0  0  0  0  0  0  0  0  0
  1 16  2  0  0  0  0
  2 19  2  0  0  0  0
  3 30  2  0  0  0  0
  4 37  1  0  0  0  0
  4 44  1  0  0  0  0
  5 37  2  0  0  0  0
  6 40  1  0  0  0  0
  6 45  1  0  0  0  0
  7 40  2  0  0  0  0
  8 15  1  0  0  0  0
  8 16  1  0  0  0  0
  8 17  1  0  0  0  0
  9 19  1  0  0  0  0
  9 46  1  0  0  0  0
 10 30  1  0  0  0  0
 10 47  1  0  0  0  0
 11 12  1  0  0  0  0
 11 16  1  0  0  0  0
 11 48  1  1  0  0  0
 11  9  1  0  0  0  0
 12 13  1  0  0  0  0
 12 49  1  0  0  0  0
 12 50  1  0  0  0  0
 13 14  1  0  0  0  0
 13 51  1  0  0  0  0
 13 52  1  0  0  0  0
 14 15  1  0  0  0  0
 14 53  1  0  0  0  0
 14 54  1  0  0  0  0
 15 55  1  0  0  0  0
 15 56  1  0  0  0  0
 17 20  1  0  0  0  0
 17 57  1  0  0  0  0
 17 58  1  0  0  0  0
 18 10  1  0  0  0  0
 18 19  1  0  0  0  0
 18 21  1  0  0  0  0
 18 59  1  1  0  0  0
 20 23  2  0  0  0  0
 20 24  1  0  0  0  0
 21 22  1  0  0  0  0
 21 60  1  0  0  0  0
 21 61  1  0  0  0  0
 22 27  2  0  0  0  0
 22 29  1  0  0  0  0
 23 25  1  0  0  0  0
 23 62  1  0  0  0  0
 24 26  2  0  0  0  0
 24 63  1  0  0  0  0
 25 28  2  0  0  0  0
 25 64  1  0  0  0  0
 26 28  1  0  0  0  0
 26 65  1  0  0  0  0
 27 31  1  0  0  0  0
 27 66  1  0  0  0  0
 28 34  1  0  0  0  0
 29 33  2  0  0  0  0
 29 67  1  0  0  0  0
 30 36  1  0  0  0  0
 31 32  2  0  0  0  0
 31 37  1  0  0  0  0
 32 33  1  0  0  0  0
 32 35  1  0  0  0  0
 33 68  1  0  0  0  0
 34 38  2  0  0  0  0
 34 39  1  0  0  0  0
 35 40  1  0  0  0  0
 35 69  1  0  0  0  0
 35 70  1  0  0  0  0
 36 71  1  0  0  0  0
 36 72  1  0  0  0  0
 36 73  1  0  0  0  0
 38 41  1  0  0  0  0
 38 74  1  0  0  0  0
 39 42  2  0  0  0  0
 39 75  1  0  0  0  0
 41 43  2  0  0  0  0
 41 76  1  0  0  0  0
 42 43  1  0  0  0  0
 42 77  1  0  0  0  0
 43 78  1  0  0  0  0
M  END
>  <DRUGBANK_ID>
DB03712

>  <SECONDARY_ACCESSION_NUMBERS>
EXPT00326

>  <COMMON_NAME>
RU85053

>  <SYNONYMS>
5-[(2S)-2-Acetamido-3-oxo-3-[[(3S)-2-oxo-1-[(4-phenylphenyl)methyl]azepan-3-yl]amino]propyl]-2-(carboxymethyl)benzoic acid

$$$$
