
 OpenBabel10282417213D

 59 63  0  0  1  0  0  0  0  0999 V2000
    2.5033    3.6729    1.8687 C   0  0  0  0  0  0  0  0  0  0  0  0
    1.1753    3.1842    1.6655 O   0  0  0  0  0  0  0  0  0  0  0  0
    0.9197    1.8149    1.2470 C   0  0  1  0  0  0  0  0  0  0  0  0
    2.1492    0.9524    1.0053 C   0  0  0  0  0  0  0  0  0  0  0  0
    1.9533   -0.5647    1.3466 C   0  0  0  0  0  0  0  0  0  0  0  0
    1.1185   -0.9086    2.7416 C   0  0  2  0  0  0  0  0  0  0  0  0
    1.0118   -2.4754    2.8038 C   0  0  0  0  0  0  0  0  0  0  0  0
    0.7721   -2.8074    4.2331 C   0  0  0  0  0  0  0  0  0  0  0  0
    0.3579   -4.0253    4.7563 C   0  0  0  0  0  0  0  0  0  0  0  0
    0.2183   -4.1622    6.1268 C   0  0  0  0  0  0  0  0  0  0  0  0
    0.5427   -3.1211    7.0318 C   0  0  0  0  0  0  0  0  0  0  0  0
    0.9743   -1.9099    6.4782 C   0  0  0  0  0  0  0  0  0  0  0  0
    1.0043   -1.7582    5.1240 C   0  0  0  0  0  0  0  0  0  0  0  0
    1.4102   -0.4934    4.4440 C   0  0  1  0  0  0  0  0  0  0  0  0
    2.7486   -0.2198    5.0981 N   0  0  0  0  0  0  0  0  0  0  0  0
    2.9572    0.9144    4.5407 C   0  0  0  0  0  0  0  0  0  0  0  0
    3.8046    0.4465    3.3874 C   0  0  0  0  0  0  0  0  0  0  0  0
    1.5504    1.6660    4.6624 C   0  0  0  0  0  0  0  0  0  0  0  0
    1.1977    2.9053    4.9561 N   0  0  0  0  0  0  0  0  0  0  0  0
    0.6180    0.6731    4.7864 N   0  0  0  0  0  0  0  0  0  0  0  0
    0.3761   -3.2477    8.4522 C   0  0  0  0  0  0  0  0  0  0  0  0
    1.0570   -4.2226    9.2039 C   0  0  0  0  0  0  0  0  0  0  0  0
    0.8739   -4.3033   10.5705 C   0  0  0  0  0  0  0  0  0  0  0  0
    0.0009   -3.3969   11.1708 C   0  0  0  0  0  0  0  0  0  0  0  0
   -0.6802   -2.4362   10.4894 N   0  0  0  0  0  0  0  0  0  0  0  0
   -0.4743   -2.3845    9.1648 C   0  0  0  0  0  0  0  0  0  0  0  0
    1.5634   -5.2901   11.3499 C   0  0  0  0  0  0  0  0  0  0  0  0
    2.1869   -6.1899   12.0582 C   0  0  0  0  0  0  0  0  0  0  0  0
    2.9137   -7.2389   12.8839 C   0  0  0  0  0  0  0  0  0  0  0  0
   -0.2652   -0.2958    2.3532 C   0  0  0  0  0  0  0  0  0  0  0  0
   -0.2030    1.2317    2.1441 C   0  0  0  0  0  0  0  0  0  0  0  0
    3.1889    3.4322    1.0511 H   0  0  0  0  0  0  0  0  0  0  0  0
    2.9138    3.3140    2.8188 H   0  0  0  0  0  0  0  0  0  0  0  0
    2.4666    4.7657    1.9463 H   0  0  0  0  0  0  0  0  0  0  0  0
    0.4589    1.8970    0.2604 H   0  0  0  0  0  0  0  0  0  0  0  0
    2.5758    1.0957   -0.0009 H   0  0  0  0  0  0  0  0  0  0  0  0
    2.9577    1.4177    1.5488 H   0  0  0  0  0  0  0  0  0  0  0  0
    1.4313   -0.9998    0.4761 H   0  0  0  0  0  0  0  0  0  0  0  0
    2.9206   -1.0977    1.3331 H   0  0  0  0  0  0  0  0  0  0  0  0
    0.1918   -2.8636    2.1888 H   0  0  0  0  0  0  0  0  0  0  0  0
    1.9452   -2.9497    2.4687 H   0  0  0  0  0  0  0  0  0  0  0  0
    0.1003   -4.8433    4.0856 H   0  0  0  0  0  0  0  0  0  0  0  0
   -0.1867   -5.0919    6.5309 H   0  0  0  0  0  0  0  0  0  0  0  0
    1.2761   -1.0765    7.1251 H   0  0  0  0  0  0  0  0  0  0  0  0
    4.1384   -0.6018    3.5418 H   0  0  0  0  0  0  0  0  0  0  0  0
    2.9431    0.2260    2.8367 H   0  0  0  0  0  0  0  0  0  0  0  0
    4.4428    0.8893    2.6354 H   0  0  0  0  0  0  0  0  0  0  0  0
    0.2205    2.9233    5.3286 H   0  0  0  0  0  0  0  0  0  0  0  0
    1.0989    3.5513    4.1419 H   0  0  0  0  0  0  0  0  0  0  0  0
    1.7411   -4.8990    8.6914 H   0  0  0  0  0  0  0  0  0  0  0  0
   -0.1838   -3.4081   12.2343 H   0  0  0  0  0  0  0  0  0  0  0  0
   -1.0286   -1.6058    8.6377 H   0  0  0  0  0  0  0  0  0  0  0  0
    2.2771   -7.5716   13.7084 H   0  0  0  0  0  0  0  0  0  0  0  0
    3.1634   -8.0996   12.2573 H   0  0  0  0  0  0  0  0  0  0  0  0
    3.8359   -6.8177   13.2938 H   0  0  0  0  0  0  0  0  0  0  0  0
   -0.6386   -0.7487    1.4233 H   0  0  0  0  0  0  0  0  0  0  0  0
   -1.0112   -0.5544    3.1149 H   0  0  0  0  0  0  0  0  0  0  0  0
   -0.2143    1.7436    3.0985 H   0  0  0  0  0  0  0  0  0  0  0  0
   -1.1695    1.5725    1.7616 H   0  0  0  0  0  0  0  0  0  0  0  0
  1  2  1  0  0  0  0
  1 32  1  0  0  0  0
  1 33  1  0  0  0  0
  1 34  1  0  0  0  0
  3  4  1  0  0  0  0
  3 31  1  0  0  0  0
  3 35  1  6  0  0  0
  3  2  1  0  0  0  0
  4  5  1  0  0  0  0
  4 36  1  0  0  0  0
  4 37  1  0  0  0  0
  5 38  1  0  0  0  0
  5 39  1  0  0  0  0
  6  5  1  1  0  0  0
  6  7  1  0  0  0  0
  6 14  1  0  0  0  0
  6 30  1  0  0  0  0
  7  8  1  0  0  0  0
  7 40  1  0  0  0  0
  7 41  1  0  0  0  0
  8  9  2  0  0  0  0
  8 13  1  0  0  0  0
  9 10  1  0  0  0  0
  9 42  1  0  0  0  0
 10 11  2  0  0  0  0
 10 43  1  0  0  0  0
 11 12  1  0  0  0  0
 11 21  1  0  0  0  0
 12 13  2  0  0  0  0
 12 44  1  0  0  0  0
 14 13  1  1  0  0  0
 14 15  1  0  0  0  0
 14 20  1  0  0  0  0
 15 16  2  0  0  0  0
 16 17  1  0  0  0  0
 16 18  1  0  0  0  0
 17 45  1  0  0  0  0
 17 46  1  0  0  0  0
 17 47  1  0  0  0  0
 18 19  1  0  0  0  0
 18 20  2  0  0  0  0
 19 48  1  0  0  0  0
 19 49  1  0  0  0  0
 21 22  2  0  0  0  0
 21 26  1  0  0  0  0
 22 23  1  0  0  0  0
 22 50  1  0  0  0  0
 23 24  2  0  0  0  0
 23 27  1  0  0  0  0
 24 25  1  0  0  0  0
 24 51  1  0  0  0  0
 25 26  2  0  0  0  0
 26 52  1  0  0  0  0
 27 28  3  0  0  0  0
 28 29  1  0  0  0  0
 29 53  1  0  0  0  0
 29 54  1  0  0  0  0
 29 55  1  0  0  0  0
 30 31  1  0  0  0  0
 30 56  1  0  0  0  0
 30 57  1  0  0  0  0
 31 58  1  0  0  0  0
 31 59  1  0  0  0  0
M  END
>  <DRUGBANK_ID>
DB14814

>  <COMMON_NAME>
Lanabecestat

>  <CAS_NUMBER>
1383982-64-6

>  <UNII>
X8SPJ492VF

>  <SYNONYMS>
Lanabecestat

$$$$
