
 OpenBabel10282417173D

109112  0  0  1  0  0  0  0  0999 V2000
    7.0215    0.5261   -3.4850 C   0  0  0  0  0  0  0  0  0  0  0  0
    7.1346   -0.4054   -4.6436 C   0  0  0  0  0  0  0  0  0  0  0  0
    7.2253   -1.7359   -4.3412 N   0  0  0  0  0  0  0  0  0  0  0  0
    7.4953   -2.6427   -5.4164 C   0  0  2  0  0  0  0  0  0  0  0  0
    7.0723   -4.0715   -5.1255 C   0  0  0  0  0  0  0  0  0  0  0  0
    6.0510   -4.3028   -4.2473 N   0  0  0  0  0  0  0  0  0  0  0  0
    6.0233   -5.6517   -3.6990 C   0  0  2  0  0  0  0  0  0  0  0  0
    5.1805   -5.6760   -2.4422 C   0  0  0  0  0  0  0  0  0  0  0  0
    3.8242   -5.9239   -2.5327 N   0  0  0  0  0  0  0  0  0  0  0  0
    2.9888   -5.9006   -1.3049 C   0  0  2  0  0  0  0  0  0  0  0  0
    2.6565   -4.4388   -1.1108 C   0  0  0  0  0  0  0  0  0  0  0  0
    1.7104   -3.7821   -1.8726 N   0  0  0  0  0  0  0  0  0  0  0  0
    1.4506   -2.3516   -1.6068 C   0  0  2  0  0  0  0  0  0  0  0  0
    1.3298   -1.6037   -2.9251 C   0  0  0  0  0  0  0  0  0  0  0  0
    6.6569   -0.0959   -2.2414 N   0  0  0  0  0  0  0  0  0  0  0  0
    0.0282   -1.6117   -3.5969 C   0  0  2  0  0  0  0  0  0  0  0  0
    5.5059    0.5801   -1.7293 C   0  0  0  0  0  0  0  0  0  0  0  0
    5.9056    1.2936   -0.4343 C   0  0  0  0  0  0  0  0  0  0  0  0
    6.2726    0.3573    0.5864 O   0  0  0  0  0  0  0  0  0  0  0  0
    7.4335   -0.3621    0.1723 C   0  0  0  0  0  0  0  0  0  0  0  0
    7.3152   -0.9611   -1.2595 C   0  0  0  0  0  0  0  0  0  0  0  0
    2.2036   -0.9036   -3.4245 O   0  0  0  0  0  0  0  0  0  0  0  0
    3.3788   -3.8396   -0.3609 O   0  0  0  0  0  0  0  0  0  0  0  0
    5.7562   -5.4489   -1.3811 O   0  0  0  0  0  0  0  0  0  0  0  0
    7.5525   -5.0332   -5.7259 O   0  0  0  0  0  0  0  0  0  0  0  0
    7.0979    0.0269   -5.7952 O   0  0  0  0  0  0  0  0  0  0  0  0
    3.7721   -6.3505   -0.0051 C   0  0  0  0  0  0  0  0  0  0  0  0
    8.9859   -2.5805   -5.7994 C   0  0  0  0  0  0  0  0  0  0  0  0
    2.5824   -1.6236   -0.8906 C   0  0  0  0  0  0  0  0  0  0  0  0
    7.4702   -6.0453   -3.2215 C   0  0  0  0  0  0  0  0  0  0  0  0
   -0.6735   -2.8537   -3.7182 O   0  0  0  0  0  0  0  0  0  0  0  0
    0.0038   -2.3996   -4.9003 C   0  0  0  0  0  0  0  0  0  0  0  0
    3.0128   -6.3584    1.2949 C   0  0  0  0  0  0  0  0  0  0  0  0
    9.3493   -3.4418   -7.0101 C   0  0  0  0  0  0  0  0  0  0  0  0
    8.5138   -3.1153   -8.2200 C   0  0  0  0  0  0  0  0  0  0  0  0
    9.0646   -2.3101   -9.2105 C   0  0  0  0  0  0  0  0  0  0  0  0
    8.3262   -2.0088  -10.3498 C   0  0  0  0  0  0  0  0  0  0  0  0
    7.0253   -2.4915  -10.5011 C   0  0  0  0  0  0  0  0  0  0  0  0
    6.4586   -3.2885   -9.5187 C   0  0  0  0  0  0  0  0  0  0  0  0
    7.1962   -3.5842   -8.3822 C   0  0  0  0  0  0  0  0  0  0  0  0
    2.5774   -5.1696    1.9111 C   0  0  0  0  0  0  0  0  0  0  0  0
    1.7196   -5.1770    2.9917 C   0  0  0  0  0  0  0  0  0  0  0  0
    1.4095   -6.3903    3.5722 C   0  0  0  0  0  0  0  0  0  0  0  0
    1.9583   -7.5732    3.0651 C   0  0  0  0  0  0  0  0  0  0  0  0
    2.7856   -7.5584    1.9466 C   0  0  0  0  0  0  0  0  0  0  0  0
    7.6082   -7.4536   -2.6531 C   0  0  0  0  0  0  0  0  0  0  0  0
    7.1723   -8.4781   -3.6943 C   0  0  0  0  0  0  0  0  0  0  0  0
    9.0713   -7.6652   -2.2663 C   0  0  0  0  0  0  0  0  0  0  0  0
    2.3169   -0.2005   -0.4535 C   0  0  0  0  0  0  0  0  0  0  0  0
    1.1768   -0.0499    0.5095 C   0  0  0  0  0  0  0  0  0  0  0  0
    3.4766    0.1638    0.4208 C   0  0  0  0  0  0  0  0  0  0  0  0
   -0.7927   -0.3938   -3.3382 C   0  0  0  0  0  0  0  0  0  0  0  0
    6.1401    1.0861   -3.8465 H   0  0  0  0  0  0  0  0  0  0  0  0
    7.8074    1.2748   -3.4160 H   0  0  0  0  0  0  0  0  0  0  0  0
    7.2667   -2.0214   -3.3724 H   0  0  0  0  0  0  0  0  0  0  0  0
    6.8653   -2.3017   -6.2392 H   0  0  0  0  0  0  0  0  0  0  0  0
    5.4589   -3.5491   -3.9120 H   0  0  0  0  0  0  0  0  0  0  0  0
    5.6302   -6.3273   -4.4650 H   0  0  0  0  0  0  0  0  0  0  0  0
    3.3636   -5.7873   -3.4252 H   0  0  0  0  0  0  0  0  0  0  0  0
    2.0896   -6.5028   -1.4627 H   0  0  0  0  0  0  0  0  0  0  0  0
    1.1778   -4.2415   -2.5998 H   0  0  0  0  0  0  0  0  0  0  0  0
    0.5378   -2.2827   -1.0064 H   0  0  0  0  0  0  0  0  0  0  0  0
    4.8055   -0.2511   -1.7650 H   0  0  0  0  0  0  0  0  0  0  0  0
    5.0127    1.3181   -2.3683 H   0  0  0  0  0  0  0  0  0  0  0  0
    6.7249    1.9976   -0.5742 H   0  0  0  0  0  0  0  0  0  0  0  0
    5.0755    1.9119   -0.0973 H   0  0  0  0  0  0  0  0  0  0  0  0
    7.6168   -1.1466    0.9195 H   0  0  0  0  0  0  0  0  0  0  0  0
    8.2597    0.3476    0.2184 H   0  0  0  0  0  0  0  0  0  0  0  0
    6.6709   -1.8536   -1.1563 H   0  0  0  0  0  0  0  0  0  0  0  0
    8.2939   -1.3455   -1.5640 H   0  0  0  0  0  0  0  0  0  0  0  0
    4.2336   -7.3231   -0.2121 H   0  0  0  0  0  0  0  0  0  0  0  0
    4.5973   -5.6763    0.2459 H   0  0  0  0  0  0  0  0  0  0  0  0
    9.2691   -1.5402   -6.0149 H   0  0  0  0  0  0  0  0  0  0  0  0
    9.6052   -2.8798   -4.9412 H   0  0  0  0  0  0  0  0  0  0  0  0
    2.8382   -2.0684    0.0670 H   0  0  0  0  0  0  0  0  0  0  0  0
    3.4813   -1.7228   -1.5267 H   0  0  0  0  0  0  0  0  0  0  0  0
    8.2162   -5.9996   -4.0163 H   0  0  0  0  0  0  0  0  0  0  0  0
    7.8278   -5.2921   -2.5009 H   0  0  0  0  0  0  0  0  0  0  0  0
   -0.5802   -2.0659   -5.7458 H   0  0  0  0  0  0  0  0  0  0  0  0
    0.9196   -2.9155   -5.1873 H   0  0  0  0  0  0  0  0  0  0  0  0
   10.4142   -3.3034   -7.2313 H   0  0  0  0  0  0  0  0  0  0  0  0
    9.2918   -4.5139   -6.8124 H   0  0  0  0  0  0  0  0  0  0  0  0
   10.0734   -1.9237   -9.0937 H   0  0  0  0  0  0  0  0  0  0  0  0
    8.7768   -1.4028  -11.1273 H   0  0  0  0  0  0  0  0  0  0  0  0
    6.4515   -2.2461  -11.3871 H   0  0  0  0  0  0  0  0  0  0  0  0
    5.4567   -3.6930   -9.6293 H   0  0  0  0  0  0  0  0  0  0  0  0
    6.6950   -4.1733   -7.6232 H   0  0  0  0  0  0  0  0  0  0  0  0
    2.9111   -4.1864    1.6012 H   0  0  0  0  0  0  0  0  0  0  0  0
    1.3277   -4.2326    3.3578 H   0  0  0  0  0  0  0  0  0  0  0  0
    0.7754   -6.4051    4.4496 H   0  0  0  0  0  0  0  0  0  0  0  0
    1.7279   -8.5201    3.5370 H   0  0  0  0  0  0  0  0  0  0  0  0
    3.2673   -8.4684    1.5972 H   0  0  0  0  0  0  0  0  0  0  0  0
    6.9968   -7.5691   -1.7530 H   0  0  0  0  0  0  0  0  0  0  0  0
    7.7779   -8.3919   -4.6038 H   0  0  0  0  0  0  0  0  0  0  0  0
    7.2716   -9.4905   -3.2996 H   0  0  0  0  0  0  0  0  0  0  0  0
    6.1246   -8.3412   -3.9781 H   0  0  0  0  0  0  0  0  0  0  0  0
    9.3944   -6.9092   -1.5413 H   0  0  0  0  0  0  0  0  0  0  0  0
    9.2091   -8.6523   -1.8206 H   0  0  0  0  0  0  0  0  0  0  0  0
    9.7273   -7.5861   -3.1414 H   0  0  0  0  0  0  0  0  0  0  0  0
    2.2502    0.4664   -1.3215 H   0  0  0  0  0  0  0  0  0  0  0  0
    1.4033   -0.6270    1.4170 H   0  0  0  0  0  0  0  0  0  0  0  0
    1.1146    1.0045    0.7936 H   0  0  0  0  0  0  0  0  0  0  0  0
    0.2335   -0.3836    0.0964 H   0  0  0  0  0  0  0  0  0  0  0  0
    4.3136   -0.2036   -0.1118 H   0  0  0  0  0  0  0  0  0  0  0  0
    3.4647    1.2325    0.6195 H   0  0  0  0  0  0  0  0  0  0  0  0
    3.6190   -0.3893    1.3505 H   0  0  0  0  0  0  0  0  0  0  0  0
   -0.9712   -0.3103   -2.2579 H   0  0  0  0  0  0  0  0  0  0  0  0
   -0.1901    0.4818   -3.6110 H   0  0  0  0  0  0  0  0  0  0  0  0
   -1.7457   -0.3384   -3.8625 H   0  0  0  0  0  0  0  0  0  0  0  0
  1  2  1  0  0  0  0
  1 15  1  0  0  0  0
  1 53  1  0  0  0  0
  1 54  1  0  0  0  0
  2  3  1  0  0  0  0
  2 26  2  0  0  0  0
  3 55  1  0  0  0  0
  4 28  1  0  0  0  0
  4 56  1  6  0  0  0
  4  5  1  0  0  0  0
  4  3  1  0  0  0  0
  5  6  1  0  0  0  0
  5 25  2  0  0  0  0
  6 57  1  0  0  0  0
  7 30  1  0  0  0  0
  7 58  1  6  0  0  0
  7  8  1  0  0  0  0
  7  6  1  0  0  0  0
  8  9  1  0  0  0  0
  8 24  2  0  0  0  0
  9 59  1  0  0  0  0
 10 27  1  0  0  0  0
 10 60  1  6  0  0  0
 10 11  1  0  0  0  0
 10  9  1  0  0  0  0
 11 12  1  0  0  0  0
 11 23  2  0  0  0  0
 12 61  1  0  0  0  0
 13 29  1  0  0  0  0
 13 62  1  1  0  0  0
 13 14  1  0  0  0  0
 13 12  1  0  0  0  0
 14 22  2  0  0  0  0
 15 17  1  0  0  0  0
 15 21  1  0  0  0  0
 16 14  1  1  0  0  0
 16 31  1  0  0  0  0
 16 32  1  0  0  0  0
 16 52  1  0  0  0  0
 17 18  1  0  0  0  0
 17 63  1  0  0  0  0
 17 64  1  0  0  0  0
 18 19  1  0  0  0  0
 18 65  1  0  0  0  0
 18 66  1  0  0  0  0
 19 20  1  0  0  0  0
 20 21  1  0  0  0  0
 20 67  1  0  0  0  0
 20 68  1  0  0  0  0
 21 69  1  0  0  0  0
 21 70  1  0  0  0  0
 27 33  1  0  0  0  0
 27 71  1  0  0  0  0
 27 72  1  0  0  0  0
 28 34  1  0  0  0  0
 28 73  1  0  0  0  0
 28 74  1  0  0  0  0
 29 49  1  0  0  0  0
 29 75  1  0  0  0  0
 29 76  1  0  0  0  0
 30 46  1  0  0  0  0
 30 77  1  0  0  0  0
 30 78  1  0  0  0  0
 31 32  1  0  0  0  0
 32 79  1  0  0  0  0
 32 80  1  0  0  0  0
 33 41  2  0  0  0  0
 33 45  1  0  0  0  0
 34 35  1  0  0  0  0
 34 81  1  0  0  0  0
 34 82  1  0  0  0  0
 35 36  2  0  0  0  0
 35 40  1  0  0  0  0
 36 37  1  0  0  0  0
 36 83  1  0  0  0  0
 37 38  2  0  0  0  0
 37 84  1  0  0  0  0
 38 39  1  0  0  0  0
 38 85  1  0  0  0  0
 39 40  2  0  0  0  0
 39 86  1  0  0  0  0
 40 87  1  0  0  0  0
 41 42  1  0  0  0  0
 41 88  1  0  0  0  0
 42 43  2  0  0  0  0
 42 89  1  0  0  0  0
 43 44  1  0  0  0  0
 43 90  1  0  0  0  0
 44 45  2  0  0  0  0
 44 91  1  0  0  0  0
 45 92  1  0  0  0  0
 46 47  1  0  0  0  0
 46 48  1  0  0  0  0
 46 93  1  0  0  0  0
 47 94  1  0  0  0  0
 47 95  1  0  0  0  0
 47 96  1  0  0  0  0
 48 97  1  0  0  0  0
 48 98  1  0  0  0  0
 48 99  1  0  0  0  0
 49 50  1  0  0  0  0
 49 51  1  0  0  0  0
 49100  1  0  0  0  0
 50101  1  0  0  0  0
 50102  1  0  0  0  0
 50103  1  0  0  0  0
 51104  1  0  0  0  0
 51105  1  0  0  0  0
 51106  1  0  0  0  0
 52107  1  0  0  0  0
 52108  1  0  0  0  0
 52109  1  0  0  0  0
M  END
>  <DRUGBANK_ID>
DB08889

>  <COMMON_NAME>
Carfilzomib

>  <CAS_NUMBER>
868540-17-4

>  <UNII>
72X6E3J5AR

>  <SYNONYMS>
Carfilzomib

$$$$
