TL2
 OpenBabel10282417143D

 50 53  0  0  0  0  0  0  0  0999 V2000
   -0.7198   -8.1472    9.1104 N   0  0  0  0  0  0  0  0  0  0  0  0
    0.5713   -8.2274    9.1747 C   0  0  0  0  0  0  0  0  0  0  0  0
    1.4712   -7.6389    8.1506 C   0  0  0  0  0  0  0  0  0  0  0  0
    1.1613   -6.4318    7.5430 C   0  0  0  0  0  0  0  0  0  0  0  0
    2.0693   -5.8921    6.6258 C   0  0  0  0  0  0  0  0  0  0  0  0
    2.6922   -8.2660    7.8671 C   0  0  0  0  0  0  0  0  0  0  0  0
    3.6394   -7.6585    7.0373 C   0  0  0  0  0  0  0  0  0  0  0  0
    3.3253   -6.4877    6.3667 C   0  0  0  0  0  0  0  0  0  0  0  0
    4.3267   -6.0136    5.5171 O   0  0  0  0  0  0  0  0  0  0  0  0
    4.0793   -4.6987    5.0163 C   0  0  1  0  0  0  0  0  0  0  0  0
    4.0870   -3.7990    6.2258 C   0  0  0  0  0  0  0  0  0  0  0  0
    5.0680   -2.7831    6.1765 O   0  0  0  0  0  0  0  0  0  0  0  0
    5.0733   -3.9874    4.0914 C   0  0  2  0  0  0  0  0  0  0  0  0
    5.5791   -2.7604    4.8639 C   0  0  1  0  0  0  0  0  0  0  0  0
    5.2394   -1.5104    4.0151 C   0  0  2  0  0  0  0  0  0  0  0  0
    4.1713   -0.5626    4.3213 O   0  0  0  0  0  0  0  0  0  0  0  0
    4.4493   -3.4277    2.9013 O   0  0  0  0  0  0  0  0  0  0  0  0
    2.4435   -1.5075    5.6195 C   0  0  0  0  0  0  0  0  0  0  0  0
    5.0905   -2.1550    2.6484 C   0  0  0  0  0  0  0  0  0  0  0  0
    2.8828   -0.9818    4.4324 C   0  0  0  0  0  0  0  0  0  0  0  0
    1.8780   -0.6471    3.5464 C   0  0  0  0  0  0  0  0  0  0  0  0
   -0.6127   -0.5683    3.0590 C   0  0  0  0  0  0  0  0  0  0  0  0
   -1.8302   -0.9405    3.2561 N   0  0  0  0  0  0  0  0  0  0  0  0
   -0.4420    0.5121    2.2433 N   0  0  0  0  0  0  0  0  0  0  0  0
    1.2531   -2.2461    5.6880 C   0  0  0  0  0  0  0  0  0  0  0  0
    0.3476   -2.1761    4.6626 C   0  0  0  0  0  0  0  0  0  0  0  0
    0.5755   -1.1852    3.7150 C   0  0  0  0  0  0  0  0  0  0  0  0
    1.1249   -8.8754   10.2330 N   0  0  0  0  0  0  0  0  0  0  0  0
    3.1215   -4.7442    4.4769 H   0  0  0  0  0  0  0  0  0  0  0  0
    5.8775   -4.6451    3.7514 H   0  0  0  0  0  0  0  0  0  0  0  0
    6.6691   -2.8508    4.9543 H   0  0  0  0  0  0  0  0  0  0  0  0
    6.1321   -0.8688    4.0072 H   0  0  0  0  0  0  0  0  0  0  0  0
   -1.0288   -7.6943    8.2462 H   0  0  0  0  0  0  0  0  0  0  0  0
    0.2437   -5.8958    7.7804 H   0  0  0  0  0  0  0  0  0  0  0  0
    1.7562   -4.9681    6.1614 H   0  0  0  0  0  0  0  0  0  0  0  0
    2.9105   -9.2427    8.2869 H   0  0  0  0  0  0  0  0  0  0  0  0
    4.6237   -8.0991    6.9169 H   0  0  0  0  0  0  0  0  0  0  0  0
    3.1340   -3.3848    6.0615 H   0  0  0  0  0  0  0  0  0  0  0  0
    3.9686   -4.1654    7.2471 H   0  0  0  0  0  0  0  0  0  0  0  0
    3.1268   -1.4947    6.4635 H   0  0  0  0  0  0  0  0  0  0  0  0
    4.5113   -1.5527    1.9439 H   0  0  0  0  0  0  0  0  0  0  0  0
    6.0726   -2.3703    2.2056 H   0  0  0  0  0  0  0  0  0  0  0  0
    2.0946    0.0962    2.7897 H   0  0  0  0  0  0  0  0  0  0  0  0
   -1.9153   -1.7369    3.8960 H   0  0  0  0  0  0  0  0  0  0  0  0
    0.3980    1.0640    2.2773 H   0  0  0  0  0  0  0  0  0  0  0  0
   -1.2967    1.0073    2.0257 H   0  0  0  0  0  0  0  0  0  0  0  0
    1.0593   -2.9038    6.5312 H   0  0  0  0  0  0  0  0  0  0  0  0
   -0.5507   -2.7783    4.7188 H   0  0  0  0  0  0  0  0  0  0  0  0
    0.4968   -9.0895   10.9977 H   0  0  0  0  0  0  0  0  0  0  0  0
    2.0955   -8.7183   10.4728 H   0  0  0  0  0  0  0  0  0  0  0  0
  1  2  2  0  0  0  0
  1 33  1  0  0  0  0
  2  3  1  0  0  0  0
  2 28  1  0  0  0  0
  3  4  2  0  0  0  0
  3  6  1  0  0  0  0
  4  5  1  0  0  0  0
  4 34  1  0  0  0  0
  5  8  2  0  0  0  0
  5 35  1  0  0  0  0
  6  7  2  0  0  0  0
  6 36  1  0  0  0  0
  7  8  1  0  0  0  0
  7 37  1  0  0  0  0
  8  9  1  0  0  0  0
 10 11  1  0  0  0  0
 10 13  1  0  0  0  0
 10 29  1  6  0  0  0
 10  9  1  0  0  0  0
 11 12  1  0  0  0  0
 11 38  1  0  0  0  0
 11 39  1  0  0  0  0
 12 14  1  0  0  0  0
 13 14  1  0  0  0  0
 13 17  1  0  0  0  0
 13 30  1  6  0  0  0
 14 15  1  0  0  0  0
 14 31  1  1  0  0  0
 15 16  1  0  0  0  0
 15 19  1  0  0  0  0
 15 32  1  6  0  0  0
 16 20  1  0  0  0  0
 17 19  1  0  0  0  0
 18 20  2  0  0  0  0
 18 25  1  0  0  0  0
 18 40  1  0  0  0  0
 19 41  1  0  0  0  0
 19 42  1  0  0  0  0
 20 21  1  0  0  0  0
 21 27  2  0  0  0  0
 21 43  1  0  0  0  0
 22 23  2  0  0  0  0
 22 24  1  0  0  0  0
 22 27  1  0  0  0  0
 23 44  1  0  0  0  0
 24 45  1  0  0  0  0
 24 46  1  0  0  0  0
 25 26  2  0  0  0  0
 25 47  1  0  0  0  0
 26 27  1  0  0  0  0
 26 48  1  0  0  0  0
 28 49  1  0  0  0  0
 28 50  1  0  0  0  0
M  END
>  <DRUGBANK_ID>
DB04791

>  <COMMON_NAME>
2-O-(4'-AMIDINOPHENYL)-5-O-(3''-AMIDINOPHENYL)-1,4:3,6-DIANHYDRO-D-SORBITOL

$$$$
