KY1
 OpenBabel10282417173D

 25 25  0  0  0  0  0  0  0  0999 V2000
    1.1139   -0.0205   -0.0621 C   0  0  0  0  0  0  0  0  0  0  0  0
    0.5973    1.1902   -0.8162 C   0  0  0  0  0  0  0  0  0  0  0  0
   -1.0015    2.0592   -3.3643 C   0  0  0  0  0  0  0  0  0  0  0  0
   -1.9010    1.9542   -4.4344 C   0  0  0  0  0  0  0  0  0  0  0  0
   -1.7010    1.0373   -5.4710 C   0  0  0  0  0  0  0  0  0  0  0  0
   -0.5907    0.1998   -5.4556 C   0  0  0  0  0  0  0  0  0  0  0  0
    0.3218    0.2878   -4.4047 C   0  0  0  0  0  0  0  0  0  0  0  0
    0.1107    1.2004   -3.3543 C   0  0  0  0  0  0  0  0  0  0  0  0
    0.5758   -1.2968   -0.6465 C   0  0  0  0  0  0  0  0  0  0  0  0
   -0.1661   -2.0887   -0.0801 O   0  0  0  0  0  0  0  0  0  0  0  0
    0.9814   -1.5206   -1.9065 O   0  0  0  0  0  0  0  0  0  0  0  0
    1.1072    1.2193   -2.2489 C   0  0  0  0  0  0  0  0  0  0  0  0
    2.3091    1.2089   -2.5076 O   0  0  0  0  0  0  0  0  0  0  0  0
   -1.2776    2.9713   -2.3554 N   0  0  0  0  0  0  0  0  0  0  0  0
    0.7669    0.0426    0.9770 H   0  0  0  0  0  0  0  0  0  0  0  0
    2.2067   -0.0586   -0.0391 H   0  0  0  0  0  0  0  0  0  0  0  0
   -0.4958    1.1745   -0.7782 H   0  0  0  0  0  0  0  0  0  0  0  0
    0.9333    2.1143   -0.3291 H   0  0  0  0  0  0  0  0  0  0  0  0
   -2.7679    2.6088   -4.4787 H   0  0  0  0  0  0  0  0  0  0  0  0
   -2.4112    0.9881   -6.2930 H   0  0  0  0  0  0  0  0  0  0  0  0
   -0.4346   -0.5132   -6.2618 H   0  0  0  0  0  0  0  0  0  0  0  0
    1.1920   -0.3668   -4.3944 H   0  0  0  0  0  0  0  0  0  0  0  0
    0.5407   -2.3424   -2.2018 H   0  0  0  0  0  0  0  0  0  0  0  0
   -0.6052    3.1817   -1.6319 H   0  0  0  0  0  0  0  0  0  0  0  0
   -2.0877    3.5723   -2.4148 H   0  0  0  0  0  0  0  0  0  0  0  0
  1  2  1  0  0  0  0
  1  9  1  0  0  0  0
  1 15  1  0  0  0  0
  1 16  1  0  0  0  0
  2 12  1  0  0  0  0
  2 17  1  0  0  0  0
  2 18  1  0  0  0  0
  3  4  2  0  0  0  0
  3  8  1  0  0  0  0
  3 14  1  0  0  0  0
  4  5  1  0  0  0  0
  4 19  1  0  0  0  0
  5  6  2  0  0  0  0
  5 20  1  0  0  0  0
  6  7  1  0  0  0  0
  6 21  1  0  0  0  0
  7  8  2  0  0  0  0
  7 22  1  0  0  0  0
  8 12  1  0  0  0  0
  9 10  2  0  0  0  0
  9 11  1  0  0  0  0
 11 23  1  0  0  0  0
 12 13  2  0  0  0  0
 14 24  1  0  0  0  0
 14 25  1  0  0  0  0
M  END
>  <DRUGBANK_ID>
DB08060

>  <COMMON_NAME>
4-(2-AMINOPHENYL)-4-OXOBUTANOIC ACID

>  <UNII>
YU3DZ8UH2S

$$$$
