
 OpenBabel10282417203D

 75 80  0  0  1  0  0  0  0  0999 V2000
   -0.2329   12.3570    7.0851 C   0  0  0  0  0  0  0  0  0  0  0  0
   -0.0734   11.8589    5.7876 C   0  0  0  0  0  0  0  0  0  0  0  0
    1.1525   12.0071    5.1264 C   0  0  0  0  0  0  0  0  0  0  0  0
    2.2135   12.6517    5.7730 C   0  0  0  0  0  0  0  0  0  0  0  0
    2.0373   13.1532    7.0536 C   0  0  0  0  0  0  0  0  0  0  0  0
    0.8242   13.0135    7.7167 C   0  0  0  0  0  0  0  0  0  0  0  0
    3.0554   13.7799    7.6575 F   0  0  0  0  0  0  0  0  0  0  0  0
    1.3521   11.4845    3.8015 C   0  0  0  0  0  0  0  0  0  0  0  0
    2.3565   10.6076    3.4597 C   0  0  0  0  0  0  0  0  0  0  0  0
    2.1957   10.4293    2.1163 N   0  0  0  0  0  0  0  0  0  0  0  0
    1.1230   11.1046    1.6689 N   0  0  0  0  0  0  0  0  0  0  0  0
    0.6027   11.7679    2.6979 N   0  0  0  0  0  0  0  0  0  0  0  0
    2.8894    9.4214    1.3127 C   0  0  1  0  0  0  0  0  0  0  0  0
    2.4763    8.0456    1.8703 C   0  0  2  0  0  0  0  0  0  0  0  0
    3.1761    6.9359    1.0783 C   0  0  2  0  0  0  0  0  0  0  0  0
    2.7335    6.9882   -0.2919 O   0  0  0  0  0  0  0  0  0  0  0  0
    3.0879    8.2083   -0.9483 C   0  0  2  0  0  0  0  0  0  0  0  0
    2.6269    9.4916   -0.2007 C   0  0  2  0  0  0  0  0  0  0  0  0
    3.1195   10.6403   -0.8857 O   0  0  0  0  0  0  0  0  0  0  0  0
    2.6393    8.1302   -2.7609 S   0  0  0  0  0  0  0  0  0  0  0  0
    0.7899    7.9057   -2.8072 C   0  0  1  0  0  0  0  0  0  0  0  0
    0.0464    8.9435   -1.9505 C   0  0  1  0  0  0  0  0  0  0  0  0
   -1.4350    9.0808   -2.2213 C   0  0  2  0  0  0  0  0  0  0  0  0
   -1.7837    9.0511   -3.6837 C   0  0  2  0  0  0  0  0  0  0  0  0
   -1.0918    7.8381   -4.3173 C   0  0  2  0  0  0  0  0  0  0  0  0
    0.3389    7.9689   -4.1836 O   0  0  0  0  0  0  0  0  0  0  0  0
   -1.5365    7.7433   -5.7883 C   0  0  0  0  0  0  0  0  0  0  0  0
   -1.4908    9.0017   -6.4654 O   0  0  0  0  0  0  0  0  0  0  0  0
   -1.4141   10.2759   -4.3339 O   0  0  0  0  0  0  0  0  0  0  0  0
   -1.9458   10.2664   -1.5484 N   0  0  0  0  0  0  0  0  0  0  0  0
   -1.6480   11.5659   -1.8236 C   0  0  0  0  0  0  0  0  0  0  0  0
   -2.3966   12.2656   -0.8988 C   0  0  0  0  0  0  0  0  0  0  0  0
   -3.0291   11.3911   -0.0655 N   0  0  0  0  0  0  0  0  0  0  0  0
   -2.7581   10.1560   -0.4802 N   0  0  0  0  0  0  0  0  0  0  0  0
   -2.4849   13.6921   -0.8743 C   0  0  0  0  0  0  0  0  0  0  0  0
   -2.9752   14.3857   -1.9946 C   0  0  0  0  0  0  0  0  0  0  0  0
   -3.0419   15.7763   -1.9919 C   0  0  0  0  0  0  0  0  0  0  0  0
   -2.6036   16.4816   -0.8715 C   0  0  0  0  0  0  0  0  0  0  0  0
   -2.1091   15.7871    0.2302 C   0  0  0  0  0  0  0  0  0  0  0  0
   -2.0467   14.4019    0.2463 C   0  0  0  0  0  0  0  0  0  0  0  0
   -1.6784   16.4771    1.2967 F   0  0  0  0  0  0  0  0  0  0  0  0
    0.0309    8.5649   -0.5638 O   0  0  0  0  0  0  0  0  0  0  0  0
    2.8531    5.5577    1.6916 C   0  0  0  0  0  0  0  0  0  0  0  0
    1.4700    5.2223    1.6101 O   0  0  0  0  0  0  0  0  0  0  0  0
    1.0562    7.7987    1.8227 O   0  0  0  0  0  0  0  0  0  0  0  0
   -1.1825   12.2365    7.6016 H   0  0  0  0  0  0  0  0  0  0  0  0
   -0.9029   11.3467    5.3030 H   0  0  0  0  0  0  0  0  0  0  0  0
    3.1744   12.7807    5.2837 H   0  0  0  0  0  0  0  0  0  0  0  0
    0.7112   13.4192    8.7165 H   0  0  0  0  0  0  0  0  0  0  0  0
    3.0984   10.0890    4.0422 H   0  0  0  0  0  0  0  0  0  0  0  0
    3.9562    9.6125    1.4815 H   0  0  0  0  0  0  0  0  0  0  0  0
    2.7628    7.9649    2.9251 H   0  0  0  0  0  0  0  0  0  0  0  0
    4.2653    7.0772    1.1177 H   0  0  0  0  0  0  0  0  0  0  0  0
    4.1873    8.2500   -0.9732 H   0  0  0  0  0  0  0  0  0  0  0  0
    1.5755    9.6139   -0.2324 H   0  0  0  0  0  0  0  0  0  0  0  0
    3.5121   11.2691   -0.2657 H   0  0  0  0  0  0  0  0  0  0  0  0
    0.6177    6.8919   -2.4304 H   0  0  0  0  0  0  0  0  0  0  0  0
    0.5286    9.9228   -2.1149 H   0  0  0  0  0  0  0  0  0  0  0  0
   -1.9311    8.2219   -1.7458 H   0  0  0  0  0  0  0  0  0  0  0  0
   -2.8705    8.9562   -3.7838 H   0  0  0  0  0  0  0  0  0  0  0  0
   -1.3839    6.9066   -3.8149 H   0  0  0  0  0  0  0  0  0  0  0  0
   -0.9134    7.0461   -6.3495 H   0  0  0  0  0  0  0  0  0  0  0  0
   -2.5782    7.4048   -5.8217 H   0  0  0  0  0  0  0  0  0  0  0  0
   -2.2044    9.5641   -6.0954 H   0  0  0  0  0  0  0  0  0  0  0  0
   -0.7280   10.0921   -5.0124 H   0  0  0  0  0  0  0  0  0  0  0  0
   -0.9960   11.8837   -2.6135 H   0  0  0  0  0  0  0  0  0  0  0  0
   -3.3096   13.8353   -2.8743 H   0  0  0  0  0  0  0  0  0  0  0  0
   -3.4317   16.3064   -2.8568 H   0  0  0  0  0  0  0  0  0  0  0  0
   -2.6423   17.5647   -0.8505 H   0  0  0  0  0  0  0  0  0  0  0  0
   -1.6408   13.8825    1.1090 H   0  0  0  0  0  0  0  0  0  0  0  0
    0.2914    7.6361   -0.4429 H   0  0  0  0  0  0  0  0  0  0  0  0
    3.4123    4.7699    1.1805 H   0  0  0  0  0  0  0  0  0  0  0  0
    3.1346    5.5442    2.7515 H   0  0  0  0  0  0  0  0  0  0  0  0
    0.9702    6.0250    1.8749 H   0  0  0  0  0  0  0  0  0  0  0  0
    0.5527    8.6275    1.6562 H   0  0  0  0  0  0  0  0  0  0  0  0
  1  2  2  0  0  0  0
  1  6  1  0  0  0  0
  1 46  1  0  0  0  0
  2  3  1  0  0  0  0
  2 47  1  0  0  0  0
  3  4  2  0  0  0  0
  3  8  1  0  0  0  0
  4  5  1  0  0  0  0
  4 48  1  0  0  0  0
  5  6  2  0  0  0  0
  5  7  1  0  0  0  0
  6 49  1  0  0  0  0
  8  9  2  0  0  0  0
  8 12  1  0  0  0  0
  9 10  1  0  0  0  0
  9 50  1  0  0  0  0
 10 11  1  0  0  0  0
 11 12  2  0  0  0  0
 13 14  1  0  0  0  0
 13 18  1  0  0  0  0
 13 51  1  1  0  0  0
 13 10  1  0  0  0  0
 14 15  1  0  0  0  0
 14 52  1  1  0  0  0
 14 45  1  0  0  0  0
 15 16  1  0  0  0  0
 15 53  1  1  0  0  0
 15 43  1  0  0  0  0
 16 17  1  0  0  0  0
 17 18  1  0  0  0  0
 17 54  1  1  0  0  0
 17 20  1  0  0  0  0
 18 55  1  6  0  0  0
 18 19  1  0  0  0  0
 19 56  1  0  0  0  0
 21 22  1  0  0  0  0
 21 26  1  0  0  0  0
 21 57  1  1  0  0  0
 21 20  1  0  0  0  0
 22 23  1  0  0  0  0
 22 42  1  0  0  0  0
 22 58  1  6  0  0  0
 23 24  1  0  0  0  0
 23 59  1  1  0  0  0
 23 30  1  0  0  0  0
 24 25  1  0  0  0  0
 24 60  1  6  0  0  0
 24 29  1  0  0  0  0
 25 26  1  0  0  0  0
 25 61  1  1  0  0  0
 25 27  1  0  0  0  0
 27 28  1  0  0  0  0
 27 62  1  0  0  0  0
 27 63  1  0  0  0  0
 28 64  1  0  0  0  0
 29 65  1  0  0  0  0
 30 31  1  0  0  0  0
 30 34  1  0  0  0  0
 31 32  2  0  0  0  0
 31 66  1  0  0  0  0
 32 33  1  0  0  0  0
 32 35  1  0  0  0  0
 33 34  2  0  0  0  0
 35 36  2  0  0  0  0
 35 40  1  0  0  0  0
 36 37  1  0  0  0  0
 36 67  1  0  0  0  0
 37 38  2  0  0  0  0
 37 68  1  0  0  0  0
 38 39  1  0  0  0  0
 38 69  1  0  0  0  0
 39 40  2  0  0  0  0
 39 41  1  0  0  0  0
 40 70  1  0  0  0  0
 42 71  1  0  0  0  0
 43 44  1  0  0  0  0
 43 72  1  0  0  0  0
 43 73  1  0  0  0  0
 44 74  1  0  0  0  0
 45 75  1  0  0  0  0
M  END
>  <DRUGBANK_ID>
DB12895

>  <COMMON_NAME>
Olitigaltin

>  <CAS_NUMBER>
1450824-22-2

>  <UNII>
60Y0GUO72B

>  <SYNONYMS>
Bis-(3-deoxy-3-(4-(3-fluorophenyl)-1H-1,2,3-triazol-1-yl)-B-D-galactopyranosyl) sulfane

$$$$
