
 OpenBabel10282417153D

 17 16  0  0  0  0  0  0  0  0999 V2000
    0.9164    0.0526   -0.0243 C   0  0  0  0  0  0  0  0  0  0  0  0
    0.4214   -1.3222   -0.4626 C   0  0  0  0  0  0  0  0  0  0  0  0
    0.4226    0.4123    1.3749 C   0  0  0  0  0  0  0  0  0  0  0  0
    0.8964   -2.3515    0.4504 N   0  0  0  0  0  0  0  0  0  0  0  0
    0.3603    2.9200    0.8290 O   0  0  0  0  0  0  0  0  0  0  0  0
    0.4562    2.2883    3.2276 O   0  0  0  0  0  0  0  0  0  0  0  0
    2.4773    2.0361    1.7196 O   0  0  0  0  0  0  0  0  0  0  0  0
    1.0533    1.9783    1.9467 S   0  0  0  0  0  0  0  0  0  0  0  0
    0.5719    0.7993   -0.7499 H   0  0  0  0  0  0  0  0  0  0  0  0
    2.0130    0.0762   -0.0561 H   0  0  0  0  0  0  0  0  0  0  0  0
   -0.6737   -1.3344   -0.4858 H   0  0  0  0  0  0  0  0  0  0  0  0
    0.7758   -1.5386   -1.4761 H   0  0  0  0  0  0  0  0  0  0  0  0
   -0.6704    0.4598    1.4116 H   0  0  0  0  0  0  0  0  0  0  0  0
    0.7605   -0.3212    2.1129 H   0  0  0  0  0  0  0  0  0  0  0  0
    0.5782   -3.2679    0.1358 H   0  0  0  0  0  0  0  0  0  0  0  0
    1.9162   -2.3874    0.4405 H   0  0  0  0  0  0  0  0  0  0  0  0
    0.9360    2.9747    0.0383 H   0  0  0  0  0  0  0  0  0  0  0  0
  1  9  1  0  0  0  0
  1 10  1  0  0  0  0
  2  1  1  0  0  0  0
  2 11  1  0  0  0  0
  2 12  1  0  0  0  0
  3  1  1  0  0  0  0
  3 13  1  0  0  0  0
  3 14  1  0  0  0  0
  4  2  1  0  0  0  0
  4 15  1  0  0  0  0
  4 16  1  0  0  0  0
  5 17  1  0  0  0  0
  8  3  1  0  0  0  0
  8  5  1  0  0  0  0
  8  6  2  0  0  0  0
  8  7  2  0  0  0  0
M  END
>  <DRUGBANK_ID>
DB06527

>  <COMMON_NAME>
Tramiprosate

>  <CAS_NUMBER>
3687-18-1

>  <UNII>
5K8EAX0G53

>  <SYNONYMS>
Tramiprosate

$$$$
