
 OpenBabel10282417193D

 26 28  0  0  1  0  0  0  0  0999 V2000
    1.2735    1.5503    0.1417 C   0  0  0  0  0  0  0  0  0  0  0  0
    2.5436    0.9603    0.0823 C   0  0  0  0  0  0  0  0  0  0  0  0
    2.5486   -0.4289   -0.0806 C   0  0  0  0  0  0  0  0  0  0  0  0
    1.4491   -1.2253   -0.1166 N   0  0  0  0  0  0  0  0  0  0  0  0
    0.2531   -0.6018   -0.0306 C   0  0  0  0  0  0  0  0  0  0  0  0
    0.1111    0.7762    0.0642 C   0  0  0  0  0  0  0  0  0  0  0  0
   -1.4219    1.5672    0.0580 Cl  0  0  0  0  0  0  0  0  0  0  0  0
   -1.0802   -1.6916   -0.0320 Cl  0  0  0  0  0  0  0  0  0  0  0  0
    3.6836    1.7058    0.1568 N   0  0  0  0  0  0  0  0  0  0  0  0
    4.7316    1.7250   -0.8582 C   0  0  0  0  0  0  0  0  0  0  0  0
    5.4956    3.0293   -0.6161 C   0  0  2  0  0  0  0  0  0  0  0  0
    6.7566    2.9980    0.2760 C   0  0  0  0  0  0  0  0  0  0  0  0
    6.1515    4.0364    1.1367 N   0  0  0  0  0  0  0  0  0  0  0  0
    4.8162    3.7096    0.5892 C   0  0  2  0  0  0  0  0  0  0  0  0
    4.0340    2.5784    1.2749 C   0  0  0  0  0  0  0  0  0  0  0  0
    1.1885    2.6324    0.2058 H   0  0  0  0  0  0  0  0  0  0  0  0
    3.4884   -0.9685   -0.1565 H   0  0  0  0  0  0  0  0  0  0  0  0
    5.3922    0.8570   -0.7597 H   0  0  0  0  0  0  0  0  0  0  0  0
    4.2976    1.7259   -1.8640 H   0  0  0  0  0  0  0  0  0  0  0  0
    5.6034    3.6725   -1.4979 H   0  0  0  0  0  0  0  0  0  0  0  0
    6.9389    2.0564    0.8057 H   0  0  0  0  0  0  0  0  0  0  0  0
    7.6866    3.3024   -0.2143 H   0  0  0  0  0  0  0  0  0  0  0  0
    6.4588    4.9786    0.8847 H   0  0  0  0  0  0  0  0  0  0  0  0
    4.1897    4.5762    0.3526 H   0  0  0  0  0  0  0  0  0  0  0  0
    3.1739    2.9562    1.8345 H   0  0  0  0  0  0  0  0  0  0  0  0
    4.6723    2.0134    1.9683 H   0  0  0  0  0  0  0  0  0  0  0  0
  1  2  2  0  0  0  0
  1  6  1  0  0  0  0
  1 16  1  0  0  0  0
  2  3  1  0  0  0  0
  2  9  1  0  0  0  0
  3  4  2  0  0  0  0
  3 17  1  0  0  0  0
  4  5  1  0  0  0  0
  5  6  2  0  0  0  0
  5  8  1  0  0  0  0
  6  7  1  0  0  0  0
  9 10  1  0  0  0  0
  9 15  1  0  0  0  0
 10 11  1  0  0  0  0
 10 18  1  0  0  0  0
 10 19  1  0  0  0  0
 11 12  1  0  0  0  0
 11 14  1  0  0  0  0
 11 20  1  6  0  0  0
 12 13  1  0  0  0  0
 12 21  1  0  0  0  0
 12 22  1  0  0  0  0
 13 23  1  0  0  0  0
 14 13  1  0  0  0  0
 14 15  1  0  0  0  0
 14 24  1  6  0  0  0
 15 25  1  0  0  0  0
 15 26  1  0  0  0  0
M  END
>  <DRUGBANK_ID>
DB12527

>  <COMMON_NAME>
Sofinicline

>  <CAS_NUMBER>
799279-80-4

>  <UNII>
SQC232V4YY

>  <SYNONYMS>
Sofinicline

$$$$
