942
 OpenBabel10282417113D

 50 52  0  0  1  0  0  0  0  0999 V2000
    0.7384    0.0139   -0.1820 O   0  0  0  0  0  0  0  0  0  0  0  0
   -0.6922   -3.4174    0.6709 N   0  0  0  0  0  0  0  0  0  0  0  0
    0.9850   -0.0584   -2.5527 C   0  0  0  0  0  0  0  0  0  0  0  0
    0.2869   -0.7111   -1.3570 C   0  0  3  0  0  0  0  0  0  0  0  0
    0.9359    1.4718   -2.4784 C   0  0  0  0  0  0  0  0  0  0  0  0
    0.2815   -0.4933   -3.8399 C   0  0  0  0  0  0  0  0  0  0  0  0
    0.6389    1.9155   -3.8971 C   0  0  0  0  0  0  0  0  0  0  0  0
    0.4074    0.6737   -4.7640 C   0  0  0  0  0  0  0  0  0  0  0  0
    0.9476   -2.2213   -1.1388 C   0  0  0  0  0  0  0  0  0  0  0  0
    0.6990   -3.0548    0.2211 C   0  0  0  0  0  0  0  0  0  0  0  0
   -1.3521   -0.4498   -1.7291 C   0  0  0  0  0  0  0  0  0  0  0  0
   -1.4367   -2.1777    0.6287 C   0  0  0  0  0  0  0  0  0  0  0  0
   -1.2993   -4.4382   -0.2243 C   0  0  0  0  0  0  0  0  0  0  0  0
   -2.9600   -2.1760    0.5040 C   0  0  0  0  0  0  0  0  0  0  0  0
   -2.8255   -4.6341   -0.0907 C   0  0  0  0  0  0  0  0  0  0  0  0
   -3.5471   -3.3851   -0.4199 C   0  0  0  0  0  0  0  0  0  0  0  0
   -2.0119    0.7601   -1.9490 C   0  0  0  0  0  0  0  0  0  0  0  0
   -2.2247   -1.4944   -2.0885 C   0  0  0  0  0  0  0  0  0  0  0  0
   -3.3982    0.9611   -2.2320 C   0  0  0  0  0  0  0  0  0  0  0  0
   -3.6602   -1.2600   -2.0944 C   0  0  0  0  0  0  0  0  0  0  0  0
   -4.2819   -0.0930   -2.1403 C   0  0  0  0  0  0  0  0  0  0  0  0
    1.7123   -0.0863   -0.1080 H   0  0  0  0  0  0  0  0  0  0  0  0
    2.0531   -0.3127   -2.6105 H   0  0  0  0  0  0  0  0  0  0  0  0
    0.2210    1.8611   -1.7523 H   0  0  0  0  0  0  0  0  0  0  0  0
    1.8523    1.9099   -2.0713 H   0  0  0  0  0  0  0  0  0  0  0  0
    0.6174   -1.4739   -4.1848 H   0  0  0  0  0  0  0  0  0  0  0  0
   -0.7948   -0.6340   -3.7919 H   0  0  0  0  0  0  0  0  0  0  0  0
   -0.2299    2.5849   -3.9210 H   0  0  0  0  0  0  0  0  0  0  0  0
    1.4982    2.4636   -4.2804 H   0  0  0  0  0  0  0  0  0  0  0  0
   -0.5160    0.7703   -5.3500 H   0  0  0  0  0  0  0  0  0  0  0  0
    1.2392    0.4820   -5.4359 H   0  0  0  0  0  0  0  0  0  0  0  0
    0.7275   -2.8504   -2.0048 H   0  0  0  0  0  0  0  0  0  0  0  0
    2.0565   -2.1075   -1.1498 H   0  0  0  0  0  0  0  0  0  0  0  0
    1.2686   -3.9949    0.1769 H   0  0  0  0  0  0  0  0  0  0  0  0
    1.1601   -2.4852    1.0426 H   0  0  0  0  0  0  0  0  0  0  0  0
   -1.1254   -1.9746   -0.3432 H   0  0  0  0  0  0  0  0  0  0  0  0
   -1.0178   -1.2737    1.1120 H   0  0  0  0  0  0  0  0  0  0  0  0
   -0.8502   -5.3984    0.0122 H   0  0  0  0  0  0  0  0  0  0  0  0
   -1.0485   -4.2429   -1.2805 H   0  0  0  0  0  0  0  0  0  0  0  0
   -3.1816   -1.1404    0.1785 H   0  0  0  0  0  0  0  0  0  0  0  0
   -3.4379   -2.1617    1.4780 H   0  0  0  0  0  0  0  0  0  0  0  0
   -3.1575   -4.8579    0.9149 H   0  0  0  0  0  0  0  0  0  0  0  0
   -3.1717   -5.4131   -0.7890 H   0  0  0  0  0  0  0  0  0  0  0  0
   -4.6487   -3.4548   -0.3831 H   0  0  0  0  0  0  0  0  0  0  0  0
   -3.4145   -3.4190   -1.5271 H   0  0  0  0  0  0  0  0  0  0  0  0
   -1.4956    1.7041   -2.0047 H   0  0  0  0  0  0  0  0  0  0  0  0
   -1.8369   -2.4996   -2.0283 H   0  0  0  0  0  0  0  0  0  0  0  0
   -3.8130    1.9166   -2.4220 H   0  0  0  0  0  0  0  0  0  0  0  0
   -4.3535   -1.8393   -1.4688 H   0  0  0  0  0  0  0  0  0  0  0  0
   -5.3250   -0.0106   -1.8511 H   0  0  0  0  0  0  0  0  0  0  0  0
  1  4  1  0  0  0  0
  1 22  1  0  0  0  0
  2 10  1  0  0  0  0
  2 12  1  0  0  0  0
  2 13  1  0  0  0  0
  3  4  1  0  0  0  0
  3  5  1  0  0  0  0
  3  6  1  0  0  0  0
  3 23  1  0  0  0  0
  4  9  1  0  0  0  0
  4 11  1  0  0  0  0
  5  7  1  0  0  0  0
  5 24  1  0  0  0  0
  5 25  1  0  0  0  0
  6  8  1  0  0  0  0
  6 26  1  0  0  0  0
  6 27  1  0  0  0  0
  7  8  1  0  0  0  0
  7 28  1  0  0  0  0
  7 29  1  0  0  0  0
  8 30  1  0  0  0  0
  8 31  1  0  0  0  0
  9 10  1  0  0  0  0
  9 32  1  0  0  0  0
  9 33  1  0  0  0  0
 10 34  1  0  0  0  0
 10 35  1  0  0  0  0
 11 17  2  0  0  0  0
 11 18  1  0  0  0  0
 12 14  1  0  0  0  0
 12 36  1  0  0  0  0
 12 37  1  0  0  0  0
 13 15  1  0  0  0  0
 13 38  1  0  0  0  0
 13 39  1  0  0  0  0
 14 16  1  0  0  0  0
 14 40  1  0  0  0  0
 14 41  1  0  0  0  0
 15 16  1  0  0  0  0
 15 42  1  0  0  0  0
 15 43  1  0  0  0  0
 16 44  1  0  0  0  0
 16 45  1  0  0  0  0
 17 19  1  0  0  0  0
 17 46  1  0  0  0  0
 18 20  2  0  0  0  0
 18 47  1  0  0  0  0
 19 21  2  0  0  0  0
 19 48  1  0  0  0  0
 20 21  1  0  0  0  0
 20 49  1  0  0  0  0
 21 50  1  0  0  0  0
M  END
>  <DRUGBANK_ID>
DB00942

>  <SECONDARY_ACCESSION_NUMBERS>
APRD00731

>  <COMMON_NAME>
Cycrimine

>  <CAS_NUMBER>
77-39-4

>  <UNII>
543567RFQQ

>  <SYNONYMS>
(Â±)-cycrimine; alpha-cyclopentyl-alpha-phenyl-1-piperidinepropanol; Cicrimina; Cycrimine; Cycriminum

$$$$
