
 OpenBabel10282417233D

127127  0  0  1  0  0  0  0  0999 V2000
    1.0746   -0.0603    0.0281 Ga  0  1  0  0  0  0  0  0  0  0  0  0
   -4.6577    4.4651   -3.4201 O   0  0  0  0  0  0  0  0  0  0  0  0
   -3.7971    9.7440   -1.4335 O   0  0  0  0  0  0  0  0  0  0  0  0
   -5.5664    5.7183   -5.9495 O   0  0  0  0  0  0  0  0  0  0  0  0
   -1.4912   -0.9034   -4.6649 O   0  0  0  0  0  0  0  0  0  0  0  0
   -6.0820   -2.5834   -2.4583 O   0  0  0  0  0  0  0  0  0  0  0  0
   -6.8005    5.6706   -2.2680 O   0  5  0  0  0  0  0  0  0  0  0  0
   -6.2462    7.1067   -0.5169 O   0  0  0  0  0  0  0  0  0  0  0  0
   -0.2105   -0.0911   -6.4359 O   0  0  0  0  0  0  0  0  0  0  0  0
   -4.5550    4.6957   -2.1666 O   0  5  0  0  0  0  0  0  0  0  0  0
   -5.4671    6.6641   -3.0210 O   0  0  0  0  0  0  0  0  0  0  0  0
    3.2154    2.1761   -5.2257 O   0  0  0  0  0  0  0  0  0  0  0  0
   -1.2336    0.6147   -7.9129 O   0  0  0  0  0  0  0  0  0  0  0  0
   -0.0700    2.2439   -9.1079 O   0  0  0  0  0  0  0  0  0  0  0  0
   -3.0099    6.7925   -8.1613 O   0  5  0  0  0  0  0  0  0  0  0  0
   -3.2863    8.1164   -6.2621 O   0  0  0  0  0  0  0  0  0  0  0  0
   -1.2119    4.5582  -10.3046 O   0  0  0  0  0  0  0  0  0  0  0  0
   -0.0673    2.7362   -9.4065 O   0  0  0  0  0  0  0  0  0  0  0  0
   -4.8149    4.7655    0.5202 N   0  0  0  0  0  0  0  0  0  0  0  0
   -6.1591    7.1781   -0.2171 N   0  0  0  0  0  0  0  0  0  0  0  0
   -3.9376    4.1036   -5.3296 N   0  0  0  0  0  0  0  0  0  0  0  0
    1.1411    1.4409   -4.3308 N   0  0  0  0  0  0  0  0  0  0  0  0
   -6.1256   -0.2632   -2.9676 N   0  0  0  0  0  0  0  0  0  0  0  0
    1.3087    2.6704   -6.5540 N   0  0  0  0  0  0  0  0  0  0  0  0
   -4.5603    6.0292    1.2268 C   0  0  0  0  0  0  0  0  0  0  0  0
   -4.7737    7.1942    0.2741 C   0  0  0  0  0  0  0  0  0  0  0  0
   -3.8906    4.6447   -0.6164 C   0  0  0  0  0  0  0  0  0  0  0  0
   -6.3656    8.3048   -1.1383 C   0  0  0  0  0  0  0  0  0  0  0  0
   -1.9266    2.2551   -6.2573 C   0  0  0  0  0  0  0  0  0  0  0  0
   -4.1539    3.3381   -1.3470 C   0  0  0  0  0  0  0  0  0  0  0  0
   -0.8170    2.5612   -5.2645 C   0  0  0  0  0  0  0  0  0  0  0  0
   -3.1652    1.7943   -5.5064 C   0  0  0  0  0  0  0  0  0  0  0  0
   -6.2004    4.7493    0.0290 C   0  0  0  0  0  0  0  0  0  0  0  0
   -6.4138    5.9144   -0.9236 C   0  0  0  0  0  0  0  0  0  0  0  0
   -0.3170    1.3499   -4.4944 C   0  0  1  0  0  0  0  0  0  0  0  0
   -5.4098    8.1799   -2.3136 C   0  0  0  0  0  0  0  0  0  0  0  0
   -5.2828    1.8011   -4.7980 C   0  0  0  0  0  0  0  0  0  0  0  0
   -3.6213    2.8922   -4.5593 C   0  0  0  0  0  0  0  0  0  0  0  0
   -6.5818    2.5803   -4.9242 C   0  0  0  0  0  0  0  0  0  0  0  0
   -4.2842    0.9248   -1.3578 C   0  0  0  0  0  0  0  0  0  0  0  0
   -4.8438    1.7806   -3.3429 C   0  0  0  0  0  0  0  0  0  0  0  0
   -4.0281    2.1060   -0.6969 C   0  0  0  0  0  0  0  0  0  0  0  0
   -4.1272   -0.4004   -0.6300 C   0  0  0  0  0  0  0  0  0  0  0  0
   -6.3674    4.0049   -4.4395 C   0  0  0  0  0  0  0  0  0  0  0  0
   -4.5341    3.3239   -2.7050 C   0  0  0  0  0  0  0  0  0  0  0  0
   -5.9182    1.1145   -2.4989 C   0  0  0  0  0  0  0  0  0  0  0  0
   -5.4579   -1.1350   -0.6225 C   0  0  0  0  0  0  0  0  0  0  0  0
   -5.6917    7.2430   -3.3133 C   0  0  0  0  0  0  0  0  0  0  0  0
   -4.1650    8.8403   -2.3699 C   0  0  0  0  0  0  0  0  0  0  0  0
   -4.7907    6.9903   -4.3243 C   0  0  0  0  0  0  0  0  0  0  0  0
   -4.6811    0.9412   -2.6729 C   0  0  0  0  0  0  0  0  0  0  0  0
   -5.2930    4.6709   -5.2836 C   0  0  0  0  0  0  0  0  0  0  0  0
   -4.8156    2.1406   -3.3451 C   0  0  0  0  0  0  0  0  0  0  0  0
   -5.9027   -1.3922   -2.0530 C   0  0  0  0  0  0  0  0  0  0  0  0
   -6.4138    5.9144   -0.9236 C   0  0  0  0  0  0  0  0  0  0  0  0
   -5.1179    5.9576   -5.3905 C   0  0  0  0  0  0  0  0  0  0  0  0
   -0.6628    0.0838   -5.2611 C   0  0  0  0  0  0  0  0  0  0  0  0
   -5.4580    5.7895   -2.0989 C   0  0  0  0  0  0  0  0  0  0  0  0
   -3.2870    8.6012   -3.4001 C   0  0  0  0  0  0  0  0  0  0  0  0
   -3.5971    7.6691   -4.3714 C   0  0  0  0  0  0  0  0  0  0  0  0
    1.9542    2.0998   -5.3630 C   0  0  0  0  0  0  0  0  0  0  0  0
   -0.1501    2.5821   -6.7128 C   0  0  1  0  0  0  0  0  0  0  0  0
   -5.1272    6.6249   -6.7562 C   0  0  0  0  0  0  0  0  0  0  0  0
   -0.7355    3.9819   -6.8034 C   0  0  0  0  0  0  0  0  0  0  0  0
   -0.1384    4.7044   -8.0000 C   0  0  0  0  0  0  0  0  0  0  0  0
   -0.4758    1.8135   -7.9831 C   0  0  0  0  0  0  0  0  0  0  0  0
   -3.7593    7.2259   -7.0358 C   0  0  0  0  0  0  0  0  0  0  0  0
   -0.4642    3.9358   -9.2702 C   0  0  0  0  0  0  0  0  0  0  0  0
   -4.4623    5.3473   -2.9917 H   0  0  0  0  0  0  0  0  0  0  0  0
   -4.4072    9.9469   -0.6676 H   0  0  0  0  0  0  0  0  0  0  0  0
   -1.8470   -0.7657   -3.7406 H   0  0  0  0  0  0  0  0  0  0  0  0
   -1.5529    0.2761   -7.0278 H   0  0  0  0  0  0  0  0  0  0  0  0
   -1.5242    5.5021  -10.1974 H   0  0  0  0  0  0  0  0  0  0  0  0
   -3.2167    4.5506   -5.8960 H   0  0  0  0  0  0  0  0  0  0  0  0
    1.5890    1.0449   -3.5043 H   0  0  0  0  0  0  0  0  0  0  0  0
   -6.4241   -0.4358   -3.9276 H   0  0  0  0  0  0  0  0  0  0  0  0
    1.8729    3.1277   -7.2702 H   0  0  0  0  0  0  0  0  0  0  0  0
   -5.2331    6.1171    2.0541 H   0  0  0  0  0  0  0  0  0  0  0  0
   -3.5519    6.0409    1.5843 H   0  0  0  0  0  0  0  0  0  0  0  0
   -4.5884    8.1140    0.7884 H   0  0  0  0  0  0  0  0  0  0  0  0
   -4.1009    7.1063   -0.5532 H   0  0  0  0  0  0  0  0  0  0  0  0
   -2.8822    4.6565   -0.2589 H   0  0  0  0  0  0  0  0  0  0  0  0
   -4.0409    5.4649   -1.2870 H   0  0  0  0  0  0  0  0  0  0  0  0
   -7.3740    8.2930   -1.4959 H   0  0  0  0  0  0  0  0  0  0  0  0
   -6.1802    9.2246   -0.6240 H   0  0  0  0  0  0  0  0  0  0  0  0
   -1.6055    1.4822   -6.9239 H   0  0  0  0  0  0  0  0  0  0  0  0
   -2.1568    3.1369   -6.8179 H   0  0  0  0  0  0  0  0  0  0  0  0
    0.0550    2.8856   -5.7931 H   0  0  0  0  0  0  0  0  0  0  0  0
   -1.1380    3.3341   -4.5979 H   0  0  0  0  0  0  0  0  0  0  0  0
   -2.9350    0.9125   -4.9458 H   0  0  0  0  0  0  0  0  0  0  0  0
   -3.9463    1.5788   -6.2052 H   0  0  0  0  0  0  0  0  0  0  0  0
   -6.3857    3.8295   -0.4853 H   0  0  0  0  0  0  0  0  0  0  0  0
   -6.8732    4.8372    0.8563 H   0  0  0  0  0  0  0  0  0  0  0  0
   -6.2635    5.0943   -0.2530 H   0  0  0  0  0  0  0  0  0  0  0  0
   -7.4222    5.9026   -1.2812 H   0  0  0  0  0  0  0  0  0  0  0  0
   -0.7829    1.3222   -3.5315 H   0  0  0  0  0  0  0  0  0  0  0  0
   -4.5265    2.2700   -5.3921 H   0  0  0  0  0  0  0  0  0  0  0  0
   -5.4338    0.7983   -5.1392 H   0  0  0  0  0  0  0  0  0  0  0  0
   -2.8402    3.1077   -3.8605 H   0  0  0  0  0  0  0  0  0  0  0  0
   -4.4933    2.5678   -4.0308 H   0  0  0  0  0  0  0  0  0  0  0  0
   -6.8909    2.5948   -5.9485 H   0  0  0  0  0  0  0  0  0  0  0  0
   -7.3382    2.1114   -4.3301 H   0  0  0  0  0  0  0  0  0  0  0  0
   -4.6928    2.7834   -3.0017 H   0  0  0  0  0  0  0  0  0  0  0  0
   -3.9293    1.2321   -3.2540 H   0  0  0  0  0  0  0  0  0  0  0  0
   -3.7281    2.0806    0.3299 H   0  0  0  0  0  0  0  0  0  0  0  0
   -3.3932   -0.9971   -1.1300 H   0  0  0  0  0  0  0  0  0  0  0  0
   -3.8141   -0.2193    0.3770 H   0  0  0  0  0  0  0  0  0  0  0  0
   -7.2818    4.5533   -4.5284 H   0  0  0  0  0  0  0  0  0  0  0  0
   -6.0583    3.9904   -3.4152 H   0  0  0  0  0  0  0  0  0  0  0  0
   -6.8326    1.6629   -2.5877 H   0  0  0  0  0  0  0  0  0  0  0  0
   -5.6091    1.1000   -1.4746 H   0  0  0  0  0  0  0  0  0  0  0  0
   -5.3474   -2.0679   -0.1101 H   0  0  0  0  0  0  0  0  0  0  0  0
   -6.1919   -0.5383   -0.1225 H   0  0  0  0  0  0  0  0  0  0  0  0
   -6.6217    6.7142   -3.2924 H   0  0  0  0  0  0  0  0  0  0  0  0
   -4.8871    0.0211   -3.1788 H   0  0  0  0  0  0  0  0  0  0  0  0
   -5.1392    2.1485   -4.3650 H   0  0  0  0  0  0  0  0  0  0  0  0
   -4.3788    5.1840   -5.3766 H   0  0  0  0  0  0  0  0  0  0  0  0
   -6.0808    5.5346   -5.1937 H   0  0  0  0  0  0  0  0  0  0  0  0
   -2.3625    9.1375   -3.4497 H   0  0  0  0  0  0  0  0  0  0  0  0
   -2.9048    7.4749   -5.1638 H   0  0  0  0  0  0  0  0  0  0  0  0
   -0.5704    2.0735   -5.8705 H   0  0  0  0  0  0  0  0  0  0  0  0
   -5.3575    5.8980   -7.5068 H   0  0  0  0  0  0  0  0  0  0  0  0
   -5.8663    7.3985   -6.7701 H   0  0  0  0  0  0  0  0  0  0  0  0
   -1.7973    3.9177   -6.9190 H   0  0  0  0  0  0  0  0  0  0  0  0
   -0.5062    4.5230   -5.9092 H   0  0  0  0  0  0  0  0  0  0  0  0
   -0.5505    5.6898   -8.0637 H   0  0  0  0  0  0  0  0  0  0  0  0
    0.9234    4.7687   -7.8844 H   0  0  0  0  0  0  0  0  0  0  0  0
  2 45  1  0  0  0  0
  2 69  1  0  0  0  0
  3 49  1  0  0  0  0
  3 70  1  0  0  0  0
  4 52  2  0  0  0  0
  5 57  1  0  0  0  0
  5 71  1  0  0  0  0
  6 54  2  0  0  0  0
  7 55  1  0  0  0  0
  8 55  2  0  0  0  0
  9 57  2  0  0  0  0
 10 58  1  0  0  0  0
 11 58  2  0  0  0  0
 12 61  2  0  0  0  0
 13 66  1  0  0  0  0
 13 72  1  0  0  0  0
 14 66  2  0  0  0  0
 15 67  1  0  0  0  0
 16 67  2  0  0  0  0
 17 68  1  0  0  0  0
 17 73  1  0  0  0  0
 18 68  2  0  0  0  0
 19 25  1  0  0  0  0
 19 27  1  0  0  0  0
 19 33  1  0  0  0  0
 20 26  1  0  0  0  0
 20 28  1  0  0  0  0
 20 34  1  0  0  0  0
 21 38  1  0  0  0  0
 21 52  1  0  0  0  0
 21 74  1  0  0  0  0
 22 61  1  0  0  0  0
 22 75  1  0  0  0  0
 23 46  1  0  0  0  0
 23 54  1  0  0  0  0
 23 76  1  0  0  0  0
 24 61  1  0  0  0  0
 24 77  1  0  0  0  0
 25 26  1  0  0  0  0
 25 78  1  0  0  0  0
 25 79  1  0  0  0  0
 26 80  1  0  0  0  0
 26 81  1  0  0  0  0
 27 30  1  0  0  0  0
 27 82  1  0  0  0  0
 27 83  1  0  0  0  0
 28 36  1  0  0  0  0
 28 84  1  0  0  0  0
 28 85  1  0  0  0  0
 29 31  1  0  0  0  0
 29 32  1  0  0  0  0
 29 86  1  0  0  0  0
 29 87  1  0  0  0  0
 30 42  1  0  0  0  0
 30 45  2  0  0  0  0
 31 88  1  0  0  0  0
 31 89  1  0  0  0  0
 32 38  1  0  0  0  0
 32 90  1  0  0  0  0
 32 91  1  0  0  0  0
 33 55  1  0  0  0  0
 33 92  1  0  0  0  0
 33 93  1  0  0  0  0
 34 58  1  0  0  0  0
 34 94  1  0  0  0  0
 34 95  1  0  0  0  0
 35 57  1  0  0  0  0
 35 96  1  1  0  0  0
 35 31  1  0  0  0  0
 35 22  1  0  0  0  0
 36 48  1  0  0  0  0
 36 49  2  0  0  0  0
 37 39  1  0  0  0  0
 37 41  1  0  0  0  0
 37 97  1  0  0  0  0
 37 98  1  0  0  0  0
 38 99  1  0  0  0  0
 38100  1  0  0  0  0
 39 44  1  0  0  0  0
 39101  1  0  0  0  0
 39102  1  0  0  0  0
 40 42  2  0  0  0  0
 40 43  1  0  0  0  0
 40 51  1  0  0  0  0
 41 46  1  0  0  0  0
 41103  1  0  0  0  0
 41104  1  0  0  0  0
 42105  1  0  0  0  0
 43 47  1  0  0  0  0
 43106  1  0  0  0  0
 43107  1  0  0  0  0
 44 52  1  0  0  0  0
 44108  1  0  0  0  0
 44109  1  0  0  0  0
 45 53  1  0  0  0  0
 46110  1  0  0  0  0
 46111  1  0  0  0  0
 47 54  1  0  0  0  0
 47112  1  0  0  0  0
 47113  1  0  0  0  0
 48 50  2  0  0  0  0
 48114  1  0  0  0  0
 49 59  1  0  0  0  0
 50 56  1  0  0  0  0
 50 60  1  0  0  0  0
 51 53  2  0  0  0  0
 51115  1  0  0  0  0
 53116  1  0  0  0  0
 56 63  1  0  0  0  0
 56117  1  0  0  0  0
 56118  1  0  0  0  0
 59 60  2  0  0  0  0
 59119  1  0  0  0  0
 60120  1  0  0  0  0
 62 24  1  0  0  0  0
 62 64  1  0  0  0  0
 62 66  1  0  0  0  0
 62121  1  1  0  0  0
 63 67  1  0  0  0  0
 63122  1  0  0  0  0
 63123  1  0  0  0  0
 64 65  1  0  0  0  0
 64124  1  0  0  0  0
 64125  1  0  0  0  0
 65 68  1  0  0  0  0
 65126  1  0  0  0  0
 65127  1  0  0  0  0
M  ISO  1   1  68
M  CHG  4   1   3   7  -1  10  -1  15  -1
M  END
>  <DRUGBANK_ID>
DB16019

>  <COMMON_NAME>
Gallium Ga-68 gozetotide

>  <CAS_NUMBER>
1906894-20-9

>  <UNII>
ZJ0EKR6M10

>  <SYNONYMS>
(68)Ga Labeled Glu-NH-CO-NH-Lys(ahx)-hbed-CC; (68Ga)Hbed-psma; (68Ga)Psma-hbed-CC; 68Ga-Psma-11; 68Ga-Psma-hbed-CC; DKFZ-PSMA-11 Ga-68; Ga-68 PSMA-11; Ga-68-Labeled PSMA-11; Ga-Psma-hbed-CC Ga-68; Gallium (68Ga) gozetotide; Gallium Ga 68 PSMA-11; Gallium Ga 68-labeled psma ligand Glu-urea-Lys(ahx)-hbed-CC; PSMA-11 Ga 68; PSMA-11 Ga-68; Psma-hbed-CC Ga-68

$$$$
