
 OpenBabel10282417133D

 63 65  0  0  0  0  0  0  0  0999 V2000
    1.1421   -1.9306    2.3425 S   0  0  0  0  0  0  0  0  0  0  0  0
   -1.0652   -3.8674   -0.3348 O   0  0  0  0  0  0  0  0  0  0  0  0
    1.8993    0.5522    0.0833 O   0  0  0  0  0  0  0  0  0  0  0  0
   -1.7147   -1.0843   -4.3611 O   0  0  0  0  0  0  0  0  0  0  0  0
   -1.4899   -3.1044   -4.9129 O   0  0  0  0  0  0  0  0  0  0  0  0
    1.6179   -6.4162   -7.2730 O   0  0  0  0  0  0  0  0  0  0  0  0
    0.1291   -0.5867   -0.5659 N   0  0  0  0  0  0  0  0  0  0  0  0
   -0.3793   -3.0862   -2.2994 N   0  0  0  0  0  0  0  0  0  0  0  0
   -1.0911   -1.4304   -0.5185 C   0  0  1  0  0  0  0  0  0  0  0  0
   -2.3983   -0.7079   -1.0902 C   0  0  0  0  0  0  0  0  0  0  0  0
   -0.0901   -2.0496   -3.2222 C   0  0  1  0  0  0  0  0  0  0  0  0
   -0.8437   -2.8811   -1.0385 C   0  0  0  0  0  0  0  0  0  0  0  0
    1.1869   -1.9123   -4.0015 C   0  0  0  0  0  0  0  0  0  0  0  0
   -2.5855   -0.2141   -2.5944 C   0  0  0  0  0  0  0  0  0  0  0  0
    0.4577   -0.3004    1.8485 C   0  0  2  0  0  0  0  0  0  0  0  0
    0.8912   -0.0697    0.4222 C   0  0  0  0  0  0  0  0  0  0  0  0
    0.9225    0.8660    2.7047 C   0  0  0  0  0  0  0  0  0  0  0  0
    1.3656   -3.0776   -4.9040 C   0  0  0  0  0  0  0  0  0  0  0  0
   -1.1315   -2.2114   -4.1625 C   0  0  0  0  0  0  0  0  0  0  0  0
   -1.2581    0.7188   -3.2594 C   0  0  0  0  0  0  0  0  0  0  0  0
   -3.7027   -1.0354   -3.6872 C   0  0  0  0  0  0  0  0  0  0  0  0
    0.4026    2.2151    2.2255 C   0  0  0  0  0  0  0  0  0  0  0  0
    1.5691   -4.3168   -4.3032 C   0  0  0  0  0  0  0  0  0  0  0  0
    1.1665   -2.9648   -6.2882 C   0  0  0  0  0  0  0  0  0  0  0  0
   -0.9353    0.7035   -4.9799 C   0  0  0  0  0  0  0  0  0  0  0  0
   -3.4044   -1.0245   -5.4386 C   0  0  0  0  0  0  0  0  0  0  0  0
   -0.8329    2.3800    1.5718 C   0  0  0  0  0  0  0  0  0  0  0  0
    1.1795    3.3508    2.4762 C   0  0  0  0  0  0  0  0  0  0  0  0
   -1.9989   -0.1618   -6.0866 C   0  0  0  0  0  0  0  0  0  0  0  0
    1.6344   -5.4490   -5.0844 C   0  0  0  0  0  0  0  0  0  0  0  0
    1.2561   -4.1013   -7.0737 C   0  0  0  0  0  0  0  0  0  0  0  0
    1.5032   -5.3265   -6.4650 C   0  0  0  0  0  0  0  0  0  0  0  0
   -1.2731    3.6433    1.1780 C   0  0  0  0  0  0  0  0  0  0  0  0
    0.7051    4.6196    2.1468 C   0  0  0  0  0  0  0  0  0  0  0  0
   -0.5060    4.7641    1.4736 C   0  0  0  0  0  0  0  0  0  0  0  0
    0.6699   -0.4524   -1.4057 H   0  0  0  0  0  0  0  0  0  0  0  0
   -0.5510   -4.0073   -2.6977 H   0  0  0  0  0  0  0  0  0  0  0  0
    0.8863   -1.8605    3.6514 H   0  0  0  0  0  0  0  0  0  0  0  0
   -2.2664   -0.2165   -4.2621 H   0  0  0  0  0  0  0  0  0  0  0  0
    1.7966   -7.1824   -6.7054 H   0  0  0  0  0  0  0  0  0  0  0  0
   -1.3019   -1.6020    0.5457 H   0  0  0  0  0  0  0  0  0  0  0  0
   -3.2532   -1.3349   -0.7926 H   0  0  0  0  0  0  0  0  0  0  0  0
   -2.4824    0.2325   -0.5330 H   0  0  0  0  0  0  0  0  0  0  0  0
   -0.1585   -1.1388   -2.6836 H   0  0  0  0  0  0  0  0  0  0  0  0
    1.1900   -1.0039   -4.6175 H   0  0  0  0  0  0  0  0  0  0  0  0
    1.9911   -1.7997   -3.2827 H   0  0  0  0  0  0  0  0  0  0  0  0
   -0.6311   -0.3494    1.9097 H   0  0  0  0  0  0  0  0  0  0  0  0
    0.5642    0.7233    3.7303 H   0  0  0  0  0  0  0  0  0  0  0  0
    2.0196    0.8863    2.7302 H   0  0  0  0  0  0  0  0  0  0  0  0
   -0.4110    1.0038   -2.5815 H   0  0  0  0  0  0  0  0  0  0  0  0
   -4.3328   -1.8816   -3.2723 H   0  0  0  0  0  0  0  0  0  0  0  0
    1.6305   -4.3887   -3.2191 H   0  0  0  0  0  0  0  0  0  0  0  0
    0.8944   -2.0174   -6.7512 H   0  0  0  0  0  0  0  0  0  0  0  0
    0.1559    0.8281   -5.2717 H   0  0  0  0  0  0  0  0  0  0  0  0
   -3.6338   -2.0361   -5.9718 H   0  0  0  0  0  0  0  0  0  0  0  0
   -1.4758    1.5381    1.3364 H   0  0  0  0  0  0  0  0  0  0  0  0
    2.1663    3.2504    2.9236 H   0  0  0  0  0  0  0  0  0  0  0  0
   -1.4415   -0.6796   -6.9594 H   0  0  0  0  0  0  0  0  0  0  0  0
    1.7889   -6.3987   -4.5901 H   0  0  0  0  0  0  0  0  0  0  0  0
    1.1247   -4.0358   -8.1484 H   0  0  0  0  0  0  0  0  0  0  0  0
   -2.2220    3.7512    0.6586 H   0  0  0  0  0  0  0  0  0  0  0  0
    1.2828    5.4972    2.4214 H   0  0  0  0  0  0  0  0  0  0  0  0
   -0.8490    5.7511    1.1778 H   0  0  0  0  0  0  0  0  0  0  0  0
  1 38  1  0  0  0  0
  2 12  2  0  0  0  0
  3 16  2  0  0  0  0
  4 19  1  0  0  0  0
  4 39  1  0  0  0  0
  5 19  2  0  0  0  0
  6 32  1  0  0  0  0
  6 40  1  0  0  0  0
  7 16  1  0  0  0  0
  7 36  1  0  0  0  0
  8 12  1  0  0  0  0
  8 37  1  0  0  0  0
  9  7  1  0  0  0  0
  9 10  1  0  0  0  0
  9 12  1  0  0  0  0
  9 41  1  1  0  0  0
 10 14  1  0  0  0  0
 10 42  1  0  0  0  0
 10 43  1  0  0  0  0
 11  8  1  0  0  0  0
 11 13  1  0  0  0  0
 11 19  1  0  0  0  0
 11 44  1  1  0  0  0
 13 18  1  0  0  0  0
 13 45  1  0  0  0  0
 13 46  1  0  0  0  0
 14 20  2  0  0  0  0
 14 21  1  0  0  0  0
 15 17  1  0  0  0  0
 15 47  1  1  0  0  0
 15 16  1  0  0  0  0
 15  1  1  0  0  0  0
 17 22  1  0  0  0  0
 17 48  1  0  0  0  0
 17 49  1  0  0  0  0
 18 23  2  0  0  0  0
 18 24  1  0  0  0  0
 20 25  1  0  0  0  0
 20 50  1  0  0  0  0
 21 26  2  0  0  0  0
 21 51  1  0  0  0  0
 22 27  2  0  0  0  0
 22 28  1  0  0  0  0
 23 30  1  0  0  0  0
 23 52  1  0  0  0  0
 24 31  2  0  0  0  0
 24 53  1  0  0  0  0
 25 29  2  0  0  0  0
 25 54  1  0  0  0  0
 26 29  1  0  0  0  0
 26 55  1  0  0  0  0
 27 33  1  0  0  0  0
 27 56  1  0  0  0  0
 28 34  2  0  0  0  0
 28 57  1  0  0  0  0
 29 58  1  0  0  0  0
 30 32  2  0  0  0  0
 30 59  1  0  0  0  0
 31 32  1  0  0  0  0
 31 60  1  0  0  0  0
 33 35  2  0  0  0  0
 33 61  1  0  0  0  0
 34 35  1  0  0  0  0
 34 62  1  0  0  0  0
 35 63  1  0  0  0  0
M  END
>  <DRUGBANK_ID>
DB03949

>  <SECONDARY_ACCESSION_NUMBERS>
EXPT03061

>  <COMMON_NAME>
N-[(2S)-3-Phenyl-2-sulfanylpropanoyl]-L-phenylalanyl-L-tyrosine

>  <SYNONYMS>
(2-sulfanyl-3-phenylpropanoyl)-phe-tyr

$$$$
