
 OpenBabel10282417143D

 38 39  0  0  0  0  0  0  0  0999 V2000
    1.4346   -0.3801   -0.0279 S   0  0  0  0  0  0  0  0  0  0  0  0
    3.6348    5.9902    0.1180 O   0  0  0  0  0  0  0  0  0  0  0  0
    0.8189   -3.3547    0.0312 O   0  0  0  0  0  0  0  0  0  0  0  0
   -1.4003   -3.1475    0.0443 O   0  0  0  0  0  0  0  0  0  0  0  0
   -0.6367    1.1409    0.0048 N   0  0  0  0  0  0  0  0  0  0  0  0
    2.3051    5.4243    3.6624 N   0  0  0  0  0  0  0  0  0  0  0  0
    1.9215    7.5380    1.2123 C   0  0  0  0  0  0  0  0  0  0  0  0
    3.3890    6.9720    1.1349 C   0  0  0  0  0  0  0  0  0  0  0  0
    0.6709    6.6087    1.1821 C   0  0  0  0  0  0  0  0  0  0  0  0
    1.8265    8.5173    2.3875 C   0  0  0  0  0  0  0  0  0  0  0  0
    3.0498    4.7539    0.2407 C   0  0  0  0  0  0  0  0  0  0  0  0
    1.4857    2.4036    0.0080 C   0  0  0  0  0  0  0  0  0  0  0  0
    2.3398    4.2585    1.3443 C   0  0  0  0  0  0  0  0  0  0  0  0
    3.0874    3.9795   -0.9306 C   0  0  0  0  0  0  0  0  0  0  0  0
    1.4370    3.2019    1.1543 C   0  0  0  0  0  0  0  0  0  0  0  0
    2.3504    2.7863   -1.0238 C   0  0  0  0  0  0  0  0  0  0  0  0
    0.6758    1.1760   -0.0448 C   0  0  0  0  0  0  0  0  0  0  0  0
   -1.0920   -0.1754    0.0009 C   0  0  0  0  0  0  0  0  0  0  0  0
   -0.1016   -1.1530    0.0059 C   0  0  0  0  0  0  0  0  0  0  0  0
   -2.5679   -0.3834   -0.0084 C   0  0  0  0  0  0  0  0  0  0  0  0
    2.3708    4.8501    2.6660 C   0  0  0  0  0  0  0  0  0  0  0  0
   -0.3077   -2.5963    0.0282 C   0  0  0  0  0  0  0  0  0  0  0  0
    1.6606   -2.8696    0.0232 H   0  0  0  0  0  0  0  0  0  0  0  0
    1.8046    8.1153    0.2893 H   0  0  0  0  0  0  0  0  0  0  0  0
    3.8229    6.6267    2.0793 H   0  0  0  0  0  0  0  0  0  0  0  0
    4.0553    7.8209    0.9078 H   0  0  0  0  0  0  0  0  0  0  0  0
    0.4923    5.9803    2.0592 H   0  0  0  0  0  0  0  0  0  0  0  0
   -0.2656    7.1688    1.1425 H   0  0  0  0  0  0  0  0  0  0  0  0
    0.6922    5.9677    0.2965 H   0  0  0  0  0  0  0  0  0  0  0  0
    2.4929    9.3711    2.2267 H   0  0  0  0  0  0  0  0  0  0  0  0
    0.8053    8.8948    2.4892 H   0  0  0  0  0  0  0  0  0  0  0  0
    2.1119    8.0678    3.3445 H   0  0  0  0  0  0  0  0  0  0  0  0
    3.6886    4.3033   -1.7815 H   0  0  0  0  0  0  0  0  0  0  0  0
    0.6779    3.0131    1.9145 H   0  0  0  0  0  0  0  0  0  0  0  0
    2.4284    2.1813   -1.9245 H   0  0  0  0  0  0  0  0  0  0  0  0
   -3.0207    0.0773    0.8734 H   0  0  0  0  0  0  0  0  0  0  0  0
   -3.0000    0.0617   -0.9090 H   0  0  0  0  0  0  0  0  0  0  0  0
   -2.8557   -1.4342   -0.0048 H   0  0  0  0  0  0  0  0  0  0  0  0
  1 17  1  0  0  0  0
  1 19  1  0  0  0  0
  2  8  1  0  0  0  0
  2 11  1  0  0  0  0
  3 22  1  0  0  0  0
  3 23  1  0  0  0  0
  4 22  2  0  0  0  0
  5 17  2  0  0  0  0
  5 18  1  0  0  0  0
  6 21  3  0  0  0  0
  7  8  1  0  0  0  0
  7  9  1  0  0  0  0
  7 10  1  0  0  0  0
  7 24  1  0  0  0  0
  8 25  1  0  0  0  0
  8 26  1  0  0  0  0
  9 27  1  0  0  0  0
  9 28  1  0  0  0  0
  9 29  1  0  0  0  0
 10 30  1  0  0  0  0
 10 31  1  0  0  0  0
 10 32  1  0  0  0  0
 11 13  2  0  0  0  0
 11 14  1  0  0  0  0
 12 15  2  0  0  0  0
 12 16  1  0  0  0  0
 12 17  1  0  0  0  0
 13 15  1  0  0  0  0
 13 21  1  0  0  0  0
 14 16  2  0  0  0  0
 14 33  1  0  0  0  0
 15 34  1  0  0  0  0
 16 35  1  0  0  0  0
 18 19  2  0  0  0  0
 18 20  1  0  0  0  0
 19 22  1  0  0  0  0
 20 36  1  0  0  0  0
 20 37  1  0  0  0  0
 20 38  1  0  0  0  0
M  END
>  <DRUGBANK_ID>
DB04854

>  <SECONDARY_ACCESSION_NUMBERS>
DB03786

>  <COMMON_NAME>
Febuxostat

>  <CAS_NUMBER>
144060-53-7

>  <UNII>
101V0R1N2E

>  <SYNONYMS>
2-(3-cyano-4-isobutoxyphenyl)-4-methyl- 1,3-thiazole-5-carboxylic acid; FÃ©buxostat; Febuxostat; Febuxostatum

$$$$
