
 OpenBabel10282417243D

 40 42  0  0  1  0  0  0  0  0999 V2000
    1.5493   -0.1637   -0.9090 O   0  0  0  0  0  0  0  0  0  0  0  0
    0.9012   -0.0753    0.3592 C   0  0  1  0  0  0  0  0  0  0  0  0
    0.2396    1.2905    0.5177 C   0  0  0  0  0  0  0  0  0  0  0  0
   -0.9682    1.3510   -0.4006 C   0  0  0  0  0  0  0  0  0  0  0  0
   -1.8631    0.1206   -0.2324 C   0  0  0  0  0  0  0  0  0  0  0  0
   -1.1369   -1.1477   -0.3685 N   0  0  0  0  0  0  0  0  0  0  0  0
   -0.0499   -1.2494    0.6164 C   0  0  2  0  0  0  0  0  0  0  0  0
   -0.5485   -1.2723    2.0850 C   0  0  0  0  0  0  0  0  0  0  0  0
    0.3426   -2.0749    3.0457 C   0  0  0  0  0  0  0  0  0  0  0  0
    1.8024   -1.5950    3.1981 C   0  0  0  0  0  0  0  0  0  0  0  0
    1.9591   -0.2278    3.6826 N   0  0  0  0  0  0  0  0  0  0  0  0
    1.4055    0.2181    4.8523 C   0  0  0  0  0  0  0  0  0  0  0  0
    1.5396    1.5209    4.9894 N   0  0  0  0  0  0  0  0  0  0  0  0
    2.2314    1.9477    3.8785 C   0  0  0  0  0  0  0  0  0  0  0  0
    2.6151    3.2415    3.4617 C   0  0  0  0  0  0  0  0  0  0  0  0
    2.2529    4.5030    4.5602 Cl  0  0  0  0  0  0  0  0  0  0  0  0
    3.2338    3.4295    2.2226 C   0  0  0  0  0  0  0  0  0  0  0  0
    3.6567    4.9930    1.6234 Cl  0  0  0  0  0  0  0  0  0  0  0  0
    3.5513    2.3300    1.4311 C   0  0  0  0  0  0  0  0  0  0  0  0
    3.3272    1.0270    1.8923 C   0  0  0  0  0  0  0  0  0  0  0  0
    2.5770    0.8552    3.0736 C   0  0  0  0  0  0  0  0  0  0  0  0
    2.1596    0.5952   -0.9594 H   0  0  0  0  0  0  0  0  0  0  0  0
    1.6750   -0.2161    1.0689 H   0  0  0  0  0  0  0  0  0  0  0  0
   -0.0706    1.4692    1.5536 H   0  0  0  0  0  0  0  0  0  0  0  0
    0.9291    2.1014    0.2614 H   0  0  0  0  0  0  0  0  0  0  0  0
   -1.5383    2.2618   -0.1933 H   0  0  0  0  0  0  0  0  0  0  0  0
   -0.6142    1.4148   -1.4362 H   0  0  0  0  0  0  0  0  0  0  0  0
   -2.3627    0.1531    0.7417 H   0  0  0  0  0  0  0  0  0  0  0  0
   -2.6502    0.1439   -0.9898 H   0  0  0  0  0  0  0  0  0  0  0  0
   -0.6709   -1.1428   -1.2848 H   0  0  0  0  0  0  0  0  0  0  0  0
    0.4842   -2.1868    0.4109 H   0  0  0  0  0  0  0  0  0  0  0  0
   -0.6574   -0.2629    2.4941 H   0  0  0  0  0  0  0  0  0  0  0  0
   -1.5557   -1.7063    2.1237 H   0  0  0  0  0  0  0  0  0  0  0  0
   -0.1455   -2.0742    4.0298 H   0  0  0  0  0  0  0  0  0  0  0  0
    0.3416   -3.1224    2.7171 H   0  0  0  0  0  0  0  0  0  0  0  0
    2.3172   -2.2385    3.9203 H   0  0  0  0  0  0  0  0  0  0  0  0
    2.3411   -1.7127    2.2544 H   0  0  0  0  0  0  0  0  0  0  0  0
    0.8961   -0.4333    5.5465 H   0  0  0  0  0  0  0  0  0  0  0  0
    3.9682    2.4764    0.4350 H   0  0  0  0  0  0  0  0  0  0  0  0
    3.6083    0.1880    1.2581 H   0  0  0  0  0  0  0  0  0  0  0  0
  1 22  1  0  0  0  0
  2  1  1  0  0  0  0
  2  3  1  0  0  0  0
  2  7  1  0  0  0  0
  2 23  1  1  0  0  0
  3  4  1  0  0  0  0
  3 24  1  0  0  0  0
  3 25  1  0  0  0  0
  4  5  1  0  0  0  0
  4 26  1  0  0  0  0
  4 27  1  0  0  0  0
  5  6  1  0  0  0  0
  5 28  1  0  0  0  0
  5 29  1  0  0  0  0
  6 30  1  0  0  0  0
  7  6  1  0  0  0  0
  7 31  1  6  0  0  0
  7  8  1  0  0  0  0
  8  9  1  0  0  0  0
  8 32  1  0  0  0  0
  8 33  1  0  0  0  0
  9 10  1  0  0  0  0
  9 34  1  0  0  0  0
  9 35  1  0  0  0  0
 10 11  1  0  0  0  0
 10 36  1  0  0  0  0
 10 37  1  0  0  0  0
 11 12  1  0  0  0  0
 11 21  1  0  0  0  0
 12 13  2  0  0  0  0
 12 38  1  0  0  0  0
 13 14  1  0  0  0  0
 14 15  2  0  0  0  0
 14 21  1  0  0  0  0
 15 16  1  0  0  0  0
 15 17  1  0  0  0  0
 17 18  1  0  0  0  0
 17 19  2  0  0  0  0
 19 20  1  0  0  0  0
 19 39  1  0  0  0  0
 20 21  2  0  0  0  0
 20 40  1  0  0  0  0
M  END
>  <DRUGBANK_ID>
DB18017

>  <COMMON_NAME>
Bersiporocin

>  <CAS_NUMBER>
2241808-52-4

>  <UNII>
TTU6QSK1G5

>  <SYNONYMS>
(2r,3s)-2-(3-(4,5-dichloro-1h-benzo(d)imidazol-1-yl)propyl)piperidin-3-ol; 3-piperidinol, 2-(3-(4,5-dichloro-1h-benzimidazol-1-yl)propyl)-, (2r,3s)

$$$$
