PB3
 OpenBabel10282417143D

 50 52  0  0  0  0  0  0  0  0999 V2000
    1.1196   -0.7890    0.0153 C   0  0  0  0  0  0  0  0  0  0  0  0
   -0.1000   -1.4336    0.0025 C   0  0  0  0  0  0  0  0  0  0  0  0
   -1.2243   -0.6344   -0.0187 C   0  0  0  0  0  0  0  0  0  0  0  0
    1.2440    0.5586    0.0157 N   0  0  0  0  0  0  0  0  0  0  0  0
   -6.7056    2.4740    3.0361 C   0  0  0  0  0  0  0  0  0  0  0  0
    6.7525    1.5676   -3.2545 C   0  0  0  0  0  0  0  0  0  0  0  0
   -2.5718   -1.3113   -0.0610 C   0  0  0  0  0  0  0  0  0  0  0  0
   -5.0455   -1.0917   -0.1056 C   0  0  0  0  0  0  0  0  0  0  0  0
   -5.8480   -0.6955    1.1119 C   0  0  0  0  0  0  0  0  0  0  0  0
    2.3658   -1.6374    0.0328 C   0  0  0  0  0  0  0  0  0  0  0  0
    5.8737   -0.1346   -1.6322 C   0  0  0  0  0  0  0  0  0  0  0  0
    7.0691   -2.2113   -3.0488 C   0  0  0  0  0  0  0  0  0  0  0  0
   -6.5215   -1.6599    1.8783 C   0  0  0  0  0  0  0  0  0  0  0  0
   -7.2206   -1.2907    3.0302 C   0  0  0  0  0  0  0  0  0  0  0  0
   -7.2729    0.0473    3.4177 C   0  0  0  0  0  0  0  0  0  0  0  0
   -5.9537    0.6514    1.4875 C   0  0  0  0  0  0  0  0  0  0  0  0
   -1.1692    0.7179   -0.0171 N   0  0  0  0  0  0  0  0  0  0  0  0
    0.0770    1.2367    0.0028 C   0  0  0  0  0  0  0  0  0  0  0  0
   -3.7022   -0.5192   -0.0982 N   0  0  0  0  0  0  0  0  0  0  0  0
    3.5900   -1.0007    0.0489 N   0  0  0  0  0  0  0  0  0  0  0  0
    4.8456   -1.7451    0.0260 C   0  0  0  0  0  0  0  0  0  0  0  0
    5.6775   -1.4536   -1.2015 C   0  0  0  0  0  0  0  0  0  0  0  0
    6.6207    0.1523   -2.7802 C   0  0  0  0  0  0  0  0  0  0  0  0
    7.2176   -0.8957   -3.4873 C   0  0  0  0  0  0  0  0  0  0  0  0
    6.3052   -2.4894   -1.9117 C   0  0  0  0  0  0  0  0  0  0  0  0
   -6.6490    1.0291    2.6433 C   0  0  0  0  0  0  0  0  0  0  0  0
    2.2608   -2.8633    0.0384 O   0  0  0  0  0  0  0  0  0  0  0  0
   -2.6284   -2.5401   -0.0713 O   0  0  0  0  0  0  0  0  0  0  0  0
   -0.1705   -2.5142    0.0049 H   0  0  0  0  0  0  0  0  0  0  0  0
   -5.6927    2.8638    3.1811 H   0  0  0  0  0  0  0  0  0  0  0  0
   -7.2085    3.0550    2.2568 H   0  0  0  0  0  0  0  0  0  0  0  0
   -7.2562    2.6119    3.9717 H   0  0  0  0  0  0  0  0  0  0  0  0
    7.8052    1.8614   -3.2905 H   0  0  0  0  0  0  0  0  0  0  0  0
    6.3056    1.6723   -4.2479 H   0  0  0  0  0  0  0  0  0  0  0  0
    6.2335    2.2597   -2.5821 H   0  0  0  0  0  0  0  0  0  0  0  0
   -5.5633   -0.7424   -1.0065 H   0  0  0  0  0  0  0  0  0  0  0  0
   -4.9850   -2.1842   -0.1712 H   0  0  0  0  0  0  0  0  0  0  0  0
    5.4263    0.6839   -1.0751 H   0  0  0  0  0  0  0  0  0  0  0  0
    7.5394   -3.0218   -3.6011 H   0  0  0  0  0  0  0  0  0  0  0  0
   -6.4978   -2.7105    1.5940 H   0  0  0  0  0  0  0  0  0  0  0  0
   -7.7161   -2.0469    3.6345 H   0  0  0  0  0  0  0  0  0  0  0  0
   -7.8049    0.3186    4.3264 H   0  0  0  0  0  0  0  0  0  0  0  0
   -5.4773    1.4178    0.8812 H   0  0  0  0  0  0  0  0  0  0  0  0
    0.1487    2.3219    0.0096 H   0  0  0  0  0  0  0  0  0  0  0  0
   -3.5856    0.4865   -0.0758 H   0  0  0  0  0  0  0  0  0  0  0  0
    3.6043    0.0119    0.0410 H   0  0  0  0  0  0  0  0  0  0  0  0
    5.4206   -1.4725    0.9186 H   0  0  0  0  0  0  0  0  0  0  0  0
    4.6412   -2.8201    0.0860 H   0  0  0  0  0  0  0  0  0  0  0  0
    7.7973   -0.6927   -4.3849 H   0  0  0  0  0  0  0  0  0  0  0  0
    6.1966   -3.5246   -1.5929 H   0  0  0  0  0  0  0  0  0  0  0  0
  1  2  1  0  0  0  0
  1  4  2  0  0  0  0
  1 10  1  0  0  0  0
  2  3  2  0  0  0  0
  2 29  1  0  0  0  0
  3  7  1  0  0  0  0
  3 17  1  0  0  0  0
  4 18  1  0  0  0  0
  5 26  1  0  0  0  0
  5 30  1  0  0  0  0
  5 31  1  0  0  0  0
  5 32  1  0  0  0  0
  6 23  1  0  0  0  0
  6 33  1  0  0  0  0
  6 34  1  0  0  0  0
  6 35  1  0  0  0  0
  7 19  1  0  0  0  0
  7 28  2  0  0  0  0
  8  9  1  0  0  0  0
  8 19  1  0  0  0  0
  8 36  1  0  0  0  0
  8 37  1  0  0  0  0
  9 13  2  0  0  0  0
  9 16  1  0  0  0  0
 10 20  1  0  0  0  0
 10 27  2  0  0  0  0
 11 22  1  0  0  0  0
 11 23  2  0  0  0  0
 11 38  1  0  0  0  0
 12 24  2  0  0  0  0
 12 25  1  0  0  0  0
 12 39  1  0  0  0  0
 13 14  1  0  0  0  0
 13 40  1  0  0  0  0
 14 15  2  0  0  0  0
 14 41  1  0  0  0  0
 15 26  1  0  0  0  0
 15 42  1  0  0  0  0
 16 26  2  0  0  0  0
 16 43  1  0  0  0  0
 17 18  2  0  0  0  0
 18 44  1  0  0  0  0
 19 45  1  0  0  0  0
 20 21  1  0  0  0  0
 20 46  1  0  0  0  0
 21 22  1  0  0  0  0
 21 47  1  0  0  0  0
 21 48  1  0  0  0  0
 22 25  2  0  0  0  0
 23 24  1  0  0  0  0
 24 49  1  0  0  0  0
 25 50  1  0  0  0  0
M  END
>  <DRUGBANK_ID>
DB04759

>  <COMMON_NAME>
PYRIMIDINE-4,6-DICARBOXYLIC ACID BIS-(3-METHYL-BENZYLAMIDE)

>  <UNII>
X969YB2837

$$$$
