
 OpenBabel10282417103D

180185  0  0  0  0  0  0  0  0999 V2000
   -6.3560    1.0693   -1.1508 C   0  0  1  0  0  0  0  0  0  0  0  0
   -5.0851   -0.0467   -2.5320 C   0  0  2  0  0  0  0  0  0  0  0  0
   -5.7213    2.4640   -0.6568 O   0  0  0  0  0  0  0  0  0  0  0  0
   -7.9825    0.9515   -2.2097 C   0  0  0  0  0  0  0  0  0  0  0  0
   -3.8379   -1.8140   -2.4213 N   0  0  0  0  0  0  0  0  0  0  0  0
   -4.4057    1.7004   -3.6707 C   0  0  0  0  0  0  0  0  0  0  0  0
   -4.2715    2.0839   -0.4313 C   0  0  3  0  0  0  0  0  0  0  0  0
   -8.3899   -0.0535   -3.5507 C   0  0  0  0  0  0  0  0  0  0  0  0
   -8.9074    0.6406   -1.3529 N   0  0  0  0  0  0  0  0  0  0  0  0
   -3.8283   -3.3463   -1.4692 C   0  0  0  0  0  0  0  0  0  0  0  0
   -3.6210    1.3608   -5.3381 N   0  0  0  0  0  0  0  0  0  0  0  0
   -4.0372    2.7118   -2.9670 O   0  0  0  0  0  0  0  0  0  0  0  0
   -2.5459    2.0045   -1.7333 C   0  0  3  0  0  0  0  0  0  0  0  0
   -4.5800    0.6749    0.4490 O   0  0  0  0  0  0  0  0  0  0  0  0
   -9.6297   -0.1838   -3.3969 N   0  0  0  0  0  0  0  0  0  0  0  0
   -9.7830    0.0743   -2.1118 C   0  0  0  0  0  0  0  0  0  0  0  0
   -2.4342   -4.0344   -1.1006 C   0  0  0  0  0  0  0  0  0  0  0  0
   -4.8231   -4.0474   -1.2228 O   0  0  0  0  0  0  0  0  0  0  0  0
   -3.4701    2.2675   -6.4273 C   0  0  1  0  0  0  0  0  0  0  0  0
   -2.2443    3.3438   -2.8723 O   0  0  0  0  0  0  0  0  0  0  0  0
   -3.1426    0.0115   -2.5875 C   0  0  3  0  0  0  0  0  0  0  0  0
   -5.3602   -0.6260   -0.1940 C   0  0  3  0  0  0  0  0  0  0  0  0
   -1.1061   -3.2833   -0.6398 N   0  0  0  0  0  0  0  0  0  0  0  0
   -2.3472   -4.9388   -1.9533 C   0  0  0  0  0  0  0  0  0  0  0  0
   -2.2127    1.8339   -6.9885 C   0  0  2  0  0  0  0  0  0  0  0  0
   -4.7736    2.6192   -7.2235 C   0  0  0  0  0  0  0  0  0  0  0  0
   -3.5015    3.8020   -4.1654 C   0  0  3  0  0  0  0  0  0  0  0  0
   -4.4319   -0.9639   -1.1081 C   0  0  3  0  0  0  0  0  0  0  0  0
   -4.5660    0.2291   -3.8794 O   0  0  0  0  0  0  0  0  0  0  0  0
   -6.7637   -0.8801   -1.3884 C   0  0  0  0  0  0  0  0  0  0  0  0
   -0.2817   -3.7780    0.0654 C   0  0  0  0  0  0  0  0  0  0  0  0
   -1.1777   -5.3582   -1.5034 C   0  0  0  0  0  0  0  0  0  0  0  0
   -3.2794   -5.2372   -3.0565 C   0  0  0  0  0  0  0  0  0  0  0  0
   -1.5170    0.6005   -6.3462 C   0  0  1  0  0  0  0  0  0  0  0  0
   -1.4434    3.0088   -6.9899 O   0  0  0  0  0  0  0  0  0  0  0  0
   -4.9531    4.2384   -3.2348 C   0  0  3  0  0  0  0  0  0  0  0  0
   -4.8455    2.8746   -5.1091 O   0  0  0  0  0  0  0  0  0  0  0  0
   -5.4659   -2.2977   -2.0021 O   0  0  0  0  0  0  0  0  0  0  0  0
   -7.1948   -1.7012   -2.5745 O   0  0  0  0  0  0  0  0  0  0  0  0
    0.3606   -2.9173    1.0849 C   0  0  1  0  0  0  0  0  0  0  0  0
   -0.2488   -4.9457   -0.4431 N   0  0  0  0  0  0  0  0  0  0  0  0
   -0.9742   -6.5587   -2.0615 N   0  0  0  0  0  0  0  0  0  0  0  0
   -1.0661    0.2612   -4.9652 C   0  0  0  0  0  0  0  0  0  0  0  0
   -2.2316   -0.5457   -6.9593 C   0  0  0  0  0  0  0  0  0  0  0  0
   -6.0572    2.8245   -3.0026 C   0  0  3  0  0  0  0  0  0  0  0  0
   -4.4936    4.5662   -1.9776 O   0  0  0  0  0  0  0  0  0  0  0  0
   -5.5418    1.0944   -5.3141 C   0  0  3  0  0  0  0  0  0  0  0  0
    0.2754   -3.7396    2.2886 N   0  0  0  0  0  0  0  0  0  0  0  0
    1.7246   -2.7076    0.4854 C   0  0  0  0  0  0  0  0  0  0  0  0
   -1.4618   -1.1003   -4.4687 N   0  0  0  0  0  0  0  0  0  0  0  0
   -0.6342    1.2384   -4.3463 O   0  0  0  0  0  0  0  0  0  0  0  0
   -6.4765    2.0291   -4.3409 C   0  0  3  0  0  0  0  0  0  0  0  0
   -5.1967    1.7063   -2.1824 O   0  0  0  0  0  0  0  0  0  0  0  0
   -4.5286   -0.7881   -5.2174 C   0  0  0  0  0  0  0  0  0  0  0  0
    1.1203   -3.1939    3.3116 C   0  0  0  0  0  0  0  0  0  0  0  0
    1.7393   -1.7768   -0.7130 C   0  0  0  0  0  0  0  0  0  0  0  0
   -1.6164   -1.2421   -2.9566 C   0  0  2  0  0  0  0  0  0  0  0  0
   -6.7843    0.8047   -4.1597 O   0  0  0  0  0  0  0  0  0  0  0  0
   -3.9675    1.2591   -1.9963 C   0  0  0  0  0  0  0  0  0  0  0  0
   -5.0010   -1.9812   -4.3020 O   0  0  0  0  0  0  0  0  0  0  0  0
    0.6829   -1.7937    3.7494 C   0  0  1  0  0  0  0  0  0  0  0  0
    2.5168   -0.6658   -0.6497 N   0  0  0  0  0  0  0  0  0  0  0  0
    1.1409   -2.0105   -1.7487 O   0  0  0  0  0  0  0  0  0  0  0  0
   -1.1273    0.0348   -1.4525 C   0  0  0  0  0  0  0  0  0  0  0  0
   -1.7042   -2.3133   -2.1131 C   0  0  1  0  0  0  0  0  0  0  0  0
   -2.6561    1.4962   -3.4716 N   0  0  0  0  0  0  0  0  0  0  0  0
   -3.4321    0.5514   -1.0198 O   0  0  0  0  0  0  0  0  0  0  0  0
   -0.7653   -1.8560    4.2858 C   0  0  0  0  0  0  0  0  0  0  0  0
    1.6268   -1.2867    4.7476 N   0  0  0  0  0  0  0  0  0  0  0  0
   -1.8580    0.8165   -0.0162 N   0  0  0  0  0  0  0  0  0  0  0  0
   -0.1969    0.7183   -1.9301 O   0  0  0  0  0  0  0  0  0  0  0  0
   -2.4441   -2.1144   -0.1509 C   0  0  0  0  0  0  0  0  0  0  0  0
   -2.3600   -3.1176   -3.3608 O   0  0  0  0  0  0  0  0  0  0  0  0
   -0.9710   -1.4708    5.5837 N   0  0  0  0  0  0  0  0  0  0  0  0
   -1.6991   -2.2565    3.5913 O   0  0  0  0  0  0  0  0  0  0  0  0
   -1.8282    2.4903    0.4492 C   0  0  0  0  0  0  0  0  0  0  0  0
   -2.7676    3.9880    0.2304 C   0  0  0  0  0  0  0  0  0  0  0  0
   -4.3301    3.9906    0.9079 C   0  0  0  0  0  0  0  0  0  0  0  0
   -5.3001    4.7669    0.4656 N   0  0  0  0  0  0  0  0  0  0  0  0
   -4.9746    2.6717    2.0056 S   0  0  0  0  0  0  0  0  0  0  0  0
   -6.4714    4.4870    1.1361 C   0  0  0  0  0  0  0  0  0  0  0  0
   -6.5395    3.2976    1.8210 C   0  0  0  0  0  0  0  0  0  0  0  0
   -7.5372    5.5065    1.2365 C   0  0  0  0  0  0  0  0  0  0  0  0
   -8.1539    5.9992    0.1895 N   0  0  0  0  0  0  0  0  0  0  0  0
   -7.9968    6.1729    2.7514 S   0  0  0  0  0  0  0  0  0  0  0  0
   -9.1140    6.9395    0.5753 C   0  0  0  0  0  0  0  0  0  0  0  0
   -9.1342    7.1637    1.9388 C   0  0  0  0  0  0  0  0  0  0  0  0
   -9.9892    7.5895   -0.4247 C   0  0  0  0  0  0  0  0  0  0  0  0
  -10.9344    8.5133    0.0199 N   0  0  0  0  0  0  0  0  0  0  0  0
   -9.9138    7.3148   -1.6203 O   0  0  0  0  0  0  0  0  0  0  0  0
  -11.8713    9.0857   -0.9358 C   0  0  0  0  0  0  0  0  0  0  0  0
  -13.3183    8.9236   -0.5451 C   0  0  0  0  0  0  0  0  0  0  0  0
  -13.5976    9.5030    0.8474 C   0  0  0  0  0  0  0  0  0  0  0  0
  -13.4343   11.3271    0.8188 S   0  3  0  0  0  0  0  0  0  0  0  0
  -13.6899   11.8075    2.5359 C   0  0  0  0  0  0  0  0  0  0  0  0
  -11.6673   11.6665    0.6045 C   0  0  0  0  0  0  0  0  0  0  0  0
   -6.4574    0.7511   -0.1183 H   0  0  0  0  0  0  0  0  0  0  0  0
   -5.8172   -0.6394   -3.5581 H   0  0  0  0  0  0  0  0  0  0  0  0
   -3.2558    3.2189   -6.0540 H   0  0  0  0  0  0  0  0  0  0  0  0
   -2.7609   -1.3623   -3.5326 H   0  0  0  0  0  0  0  0  0  0  0  0
   -0.6795   -2.0429   -2.2206 H   0  0  0  0  0  0  0  0  0  0  0  0
   -3.0019   -1.4052   -1.8021 H   0  0  0  0  0  0  0  0  0  0  0  0
   -3.6167    2.7972   -0.4447 H   0  0  0  0  0  0  0  0  0  0  0  0
   -7.7821   -0.5402   -4.5860 H   0  0  0  0  0  0  0  0  0  0  0  0
   -4.0111    0.6286   -5.9369 H   0  0  0  0  0  0  0  0  0  0  0  0
   -1.5488    1.9572   -1.4926 H   0  0  0  0  0  0  0  0  0  0  0  0
  -10.0543   -0.4732   -4.2456 H   0  0  0  0  0  0  0  0  0  0  0  0
  -10.6831    0.0283   -1.6340 H   0  0  0  0  0  0  0  0  0  0  0  0
   -2.0159    0.1982   -2.9739 H   0  0  0  0  0  0  0  0  0  0  0  0
   -5.4842   -1.5005    0.3801 H   0  0  0  0  0  0  0  0  0  0  0  0
   -2.6041    1.5232   -7.9474 H   0  0  0  0  0  0  0  0  0  0  0  0
   -5.7144    2.8898   -6.6492 H   0  0  0  0  0  0  0  0  0  0  0  0
   -4.5272    3.5627   -7.6701 H   0  0  0  0  0  0  0  0  0  0  0  0
   -5.0859    1.7643   -7.7886 H   0  0  0  0  0  0  0  0  0  0  0  0
   -2.5812    3.8821   -4.7423 H   0  0  0  0  0  0  0  0  0  0  0  0
   -3.7438   -1.2525   -0.5294 H   0  0  0  0  0  0  0  0  0  0  0  0
   -5.5535    0.7718   -3.5846 H   0  0  0  0  0  0  0  0  0  0  0  0
   -7.4688   -0.4304   -0.7234 H   0  0  0  0  0  0  0  0  0  0  0  0
   -6.6176   -0.1085   -2.1538 H   0  0  0  0  0  0  0  0  0  0  0  0
   -2.6833   -5.2565   -3.9674 H   0  0  0  0  0  0  0  0  0  0  0  0
   -3.8110   -6.0736   -2.6807 H   0  0  0  0  0  0  0  0  0  0  0  0
   -4.1143   -4.5580   -3.3558 H   0  0  0  0  0  0  0  0  0  0  0  0
   -0.4755    0.7245   -6.5520 H   0  0  0  0  0  0  0  0  0  0  0  0
   -1.3177    3.2601   -6.0459 H   0  0  0  0  0  0  0  0  0  0  0  0
   -5.5659    4.6014   -3.9826 H   0  0  0  0  0  0  0  0  0  0  0  0
   -5.0151   -2.8267   -2.8935 H   0  0  0  0  0  0  0  0  0  0  0  0
   -6.6897   -1.9007   -3.4364 H   0  0  0  0  0  0  0  0  0  0  0  0
   -0.1005   -1.9044    1.2830 H   0  0  0  0  0  0  0  0  0  0  0  0
   -1.6294   -6.8320   -2.7699 H   0  0  0  0  0  0  0  0  0  0  0  0
   -0.1940   -7.0235   -1.6964 H   0  0  0  0  0  0  0  0  0  0  0  0
   -2.1170   -0.4216   -8.0021 H   0  0  0  0  0  0  0  0  0  0  0  0
   -1.8841   -1.4863   -6.5878 H   0  0  0  0  0  0  0  0  0  0  0  0
   -3.3120   -0.5746   -6.8621 H   0  0  0  0  0  0  0  0  0  0  0  0
   -6.8253    2.8807   -2.2586 H   0  0  0  0  0  0  0  0  0  0  0  0
   -3.9061    3.7605   -1.9318 H   0  0  0  0  0  0  0  0  0  0  0  0
   -5.9422    0.4336   -6.1234 H   0  0  0  0  0  0  0  0  0  0  0  0
   -0.7140   -3.7487    2.5880 H   0  0  0  0  0  0  0  0  0  0  0  0
    2.4012   -2.3185    1.2305 H   0  0  0  0  0  0  0  0  0  0  0  0
    2.0595   -3.7011    0.1731 H   0  0  0  0  0  0  0  0  0  0  0  0
   -2.2964   -1.6702   -4.9176 H   0  0  0  0  0  0  0  0  0  0  0  0
   -7.1785    2.5287   -4.9045 H   0  0  0  0  0  0  0  0  0  0  0  0
   -3.4057   -0.6398   -5.1824 H   0  0  0  0  0  0  0  0  0  0  0  0
   -3.4897   -0.4781   -4.4535 H   0  0  0  0  0  0  0  0  0  0  0  0
    1.1081   -3.8921    4.1438 H   0  0  0  0  0  0  0  0  0  0  0  0
    2.1491   -3.1853    2.9407 H   0  0  0  0  0  0  0  0  0  0  0  0
   -6.8287    0.1110   -3.5222 H   0  0  0  0  0  0  0  0  0  0  0  0
   -5.1833   -1.6880   -3.2888 H   0  0  0  0  0  0  0  0  0  0  0  0
    0.7108   -1.1006    2.9012 H   0  0  0  0  0  0  0  0  0  0  0  0
    2.5262   -0.0413   -1.4557 H   0  0  0  0  0  0  0  0  0  0  0  0
    3.1048   -0.4273    0.1286 H   0  0  0  0  0  0  0  0  0  0  0  0
   -2.5452    0.7794   -4.1791 H   0  0  0  0  0  0  0  0  0  0  0  0
   -2.8955    1.7990   -4.4012 H   0  0  0  0  0  0  0  0  0  0  0  0
    1.3151   -0.3621    5.0278 H   0  0  0  0  0  0  0  0  0  0  0  0
    1.5992   -1.9162    5.5456 H   0  0  0  0  0  0  0  0  0  0  0  0
   -2.9473    0.7423    0.1376 H   0  0  0  0  0  0  0  0  0  0  0  0
   -3.5843   -2.4175    0.2494 H   0  0  0  0  0  0  0  0  0  0  0  0
   -2.4242   -3.0317    0.6043 H   0  0  0  0  0  0  0  0  0  0  0  0
   -2.1313   -1.2260    0.3376 H   0  0  0  0  0  0  0  0  0  0  0  0
   -3.3563   -2.9874   -3.2922 H   0  0  0  0  0  0  0  0  0  0  0  0
   -1.9071   -1.5138    5.9687 H   0  0  0  0  0  0  0  0  0  0  0  0
   -0.2367   -1.1429    6.1921 H   0  0  0  0  0  0  0  0  0  0  0  0
   -2.1463    2.2082    1.4107 H   0  0  0  0  0  0  0  0  0  0  0  0
   -0.9916    2.7388   -0.1509 H   0  0  0  0  0  0  0  0  0  0  0  0
   -2.2759    4.8310    0.5728 H   0  0  0  0  0  0  0  0  0  0  0  0
   -2.7356    4.2312   -0.8702 H   0  0  0  0  0  0  0  0  0  0  0  0
   -7.3510    2.8609    2.3720 H   0  0  0  0  0  0  0  0  0  0  0  0
   -9.7656    7.8498    2.4732 H   0  0  0  0  0  0  0  0  0  0  0  0
  -11.0102    8.7787    0.9946 H   0  0  0  0  0  0  0  0  0  0  0  0
  -11.7107   10.1236   -1.0426 H   0  0  0  0  0  0  0  0  0  0  0  0
  -11.6623    8.7947   -1.9581 H   0  0  0  0  0  0  0  0  0  0  0  0
  -13.9641    9.4209   -1.2843 H   0  0  0  0  0  0  0  0  0  0  0  0
  -13.5271    7.8537   -0.5862 H   0  0  0  0  0  0  0  0  0  0  0  0
  -14.6429    9.2606    1.0915 H   0  0  0  0  0  0  0  0  0  0  0  0
  -12.9758    9.0015    1.5932 H   0  0  0  0  0  0  0  0  0  0  0  0
  -13.0376   11.3224    3.2643 H   0  0  0  0  0  0  0  0  0  0  0  0
  -13.5454   12.8938    2.6045 H   0  0  0  0  0  0  0  0  0  0  0  0
  -14.7345   11.6138    2.8057 H   0  0  0  0  0  0  0  0  0  0  0  0
  -10.9911   11.1104    1.2562 H   0  0  0  0  0  0  0  0  0  0  0  0
  -11.3279   11.5347   -0.4192 H   0  0  0  0  0  0  0  0  0  0  0  0
  -11.4875   12.7358    0.6352 H   0  0  0  0  0  0  0  0  0  0  0  0
  1  4  1  0  0  0  0
  1 97  1  1  0  0  0
  1  3  1  0  0  0  0
  1  2  1  0  0  0  0
  2 98  1  6  0  0  0
  2  6  1  0  0  0  0
  2  5  1  0  0  0  0
  3  7  1  0  0  0  0
  4  8  2  0  0  0  0
  4  9  1  0  0  0  0
  5 10  1  0  0  0  0
  5102  1  0  0  0  0
  6 11  1  0  0  0  0
  6 12  2  0  0  0  0
  7 13  1  0  0  0  0
  7 14  1  0  0  0  0
  7103  1  0  0  0  0
  8 15  1  0  0  0  0
  8104  1  0  0  0  0
  9 16  2  0  0  0  0
 10 17  1  0  0  0  0
 10 18  2  0  0  0  0
 11 19  1  0  0  0  0
 11105  1  0  0  0  0
 13 20  1  0  0  0  0
 13 21  1  0  0  0  0
 13106  1  0  0  0  0
 14 22  1  0  0  0  0
 15 16  1  0  0  0  0
 15107  1  0  0  0  0
 16108  1  0  0  0  0
 17 23  2  0  0  0  0
 17 24  1  0  0  0  0
 19 26  1  0  0  0  0
 19 99  1  1  0  0  0
 20 27  1  0  0  0  0
 21 28  1  0  0  0  0
 21 29  1  0  0  0  0
 21109  1  0  0  0  0
 22 30  1  0  0  0  0
 22 28  1  0  0  0  0
 22110  1  0  0  0  0
 23 31  1  0  0  0  0
 24 32  2  0  0  0  0
 24 33  1  0  0  0  0
 25 35  1  0  0  0  0
 25111  1  6  0  0  0
 25 34  1  0  0  0  0
 25 19  1  0  0  0  0
 26112  1  0  0  0  0
 26113  1  0  0  0  0
 26114  1  0  0  0  0
 27 36  1  0  0  0  0
 27 37  1  0  0  0  0
 27115  1  0  0  0  0
 28 38  1  0  0  0  0
 28116  1  0  0  0  0
 29117  1  0  0  0  0
 30 39  1  0  0  0  0
 30118  1  0  0  0  0
 30119  1  0  0  0  0
 31 40  1  0  0  0  0
 31 41  2  0  0  0  0
 32 42  1  0  0  0  0
 32 41  1  0  0  0  0
 33120  1  0  0  0  0
 33121  1  0  0  0  0
 33122  1  0  0  0  0
 34 43  1  0  0  0  0
 34 44  1  0  0  0  0
 34123  1  6  0  0  0
 35124  1  0  0  0  0
 36 45  1  0  0  0  0
 36 46  1  0  0  0  0
 36125  1  0  0  0  0
 37 47  1  0  0  0  0
 38126  1  0  0  0  0
 39127  1  0  0  0  0
 40 48  1  0  0  0  0
 40 49  1  0  0  0  0
 40128  1  1  0  0  0
 42129  1  0  0  0  0
 42130  1  0  0  0  0
 43 50  1  0  0  0  0
 43 51  2  0  0  0  0
 44131  1  0  0  0  0
 44132  1  0  0  0  0
 44133  1  0  0  0  0
 45 52  1  0  0  0  0
 45 53  1  0  0  0  0
 45134  1  0  0  0  0
 46135  1  0  0  0  0
 47 54  1  0  0  0  0
 47 52  1  0  0  0  0
 47136  1  0  0  0  0
 48 55  1  0  0  0  0
 48137  1  0  0  0  0
 49 56  1  0  0  0  0
 49138  1  0  0  0  0
 49139  1  0  0  0  0
 50140  1  0  0  0  0
 52 58  1  0  0  0  0
 52141  1  0  0  0  0
 53 59  1  0  0  0  0
 54 60  1  0  0  0  0
 54142  1  0  0  0  0
 54143  1  0  0  0  0
 55 61  1  0  0  0  0
 55144  1  0  0  0  0
 55145  1  0  0  0  0
 56 62  1  0  0  0  0
 56 63  2  0  0  0  0
 57 65  1  0  0  0  0
 57100  1  1  0  0  0
 57 64  1  0  0  0  0
 57 50  1  0  0  0  0
 58146  1  0  0  0  0
 59 66  1  0  0  0  0
 59 67  2  0  0  0  0
 60147  1  0  0  0  0
 61 68  1  0  0  0  0
 61 69  1  0  0  0  0
 61148  1  6  0  0  0
 62149  1  0  0  0  0
 62150  1  0  0  0  0
 64 70  1  0  0  0  0
 64 71  2  0  0  0  0
 65 72  1  0  0  0  0
 65 73  1  0  0  0  0
 65101  1  1  0  0  0
 66151  1  0  0  0  0
 66152  1  0  0  0  0
 68 74  1  0  0  0  0
 68 75  2  0  0  0  0
 69153  1  0  0  0  0
 69154  1  0  0  0  0
 70 76  1  0  0  0  0
 70155  1  0  0  0  0
 72156  1  0  0  0  0
 72157  1  0  0  0  0
 72158  1  0  0  0  0
 73159  1  0  0  0  0
 74160  1  0  0  0  0
 74161  1  0  0  0  0
 76 77  1  0  0  0  0
 76162  1  0  0  0  0
 76163  1  0  0  0  0
 77 78  1  0  0  0  0
 77164  1  0  0  0  0
 77165  1  0  0  0  0
 78 79  2  0  0  0  0
 78 80  1  0  0  0  0
 79 81  1  0  0  0  0
 80 82  1  0  0  0  0
 81 83  1  0  0  0  0
 81 82  2  0  0  0  0
 82166  1  0  0  0  0
 83 84  2  0  0  0  0
 83 85  1  0  0  0  0
 84 86  1  0  0  0  0
 85 87  1  0  0  0  0
 86 88  1  0  0  0  0
 86 87  2  0  0  0  0
 87167  1  0  0  0  0
 88 89  1  0  0  0  0
 88 90  2  0  0  0  0
 89 91  1  0  0  0  0
 89168  1  0  0  0  0
 91 92  1  0  0  0  0
 91169  1  0  0  0  0
 91170  1  0  0  0  0
 92 93  1  0  0  0  0
 92171  1  0  0  0  0
 92172  1  0  0  0  0
 93 94  1  0  0  0  0
 93173  1  0  0  0  0
 93174  1  0  0  0  0
 94 95  1  0  0  0  0
 94 96  1  0  0  0  0
 95175  1  0  0  0  0
 95176  1  0  0  0  0
 95177  1  0  0  0  0
 96178  1  0  0  0  0
 96179  1  0  0  0  0
 96180  1  0  0  0  0
M  CHG  1  94   1
M  END
>  <DRUGBANK_ID>
DB00290

>  <SECONDARY_ACCESSION_NUMBERS>
APRD00453; EXPT00718

>  <COMMON_NAME>
Bleomycin

>  <CAS_NUMBER>
11056-06-7

>  <UNII>
40S1VHN69B

>  <SYNONYMS>
Bleocin; Bleomicin; Bleomicina; Bleomycin; Bleomycine; Bleomycinum

$$$$
