
 OpenBabel10282417203D

 23 23  0  0  0  0  0  0  0  0999 V2000
   -0.8471    1.0045    0.3102 C   0  0  0  0  0  0  0  0  0  0  0  0
    0.5028    0.9853    0.0047 C   0  0  0  0  0  0  0  0  0  0  0  0
    1.1336   -0.2252   -0.0914 C   0  0  0  0  0  0  0  0  0  0  0  0
    2.5072   -0.2105    0.0603 N   0  0  0  0  0  0  0  0  0  0  0  0
    0.3304   -1.3759   -0.0596 C   0  0  0  0  0  0  0  0  0  0  0  0
   -1.0962   -1.3013   -0.0443 C   0  0  0  0  0  0  0  0  0  0  0  0
   -1.7203   -0.0593    0.1087 C   0  0  0  0  0  0  0  0  0  0  0  0
   -3.5524    0.0911    0.0799 S   0  0  0  0  0  0  0  0  0  0  0  0
   -3.9694   -0.4814   -1.2024 O   0  0  0  0  0  0  0  0  0  0  0  0
   -4.0160   -0.5021    1.3020 O   0  0  0  0  0  0  0  0  0  0  0  0
   -4.1966    1.6803    0.0532 N   0  0  0  0  0  0  0  0  0  0  0  0
   -3.6967    2.9852   -0.0047 C   0  0  0  0  0  0  0  0  0  0  0  0
   -4.5225    4.4004    0.2144 S   0  0  0  0  0  0  0  0  0  0  0  0
   -2.4313    3.0372   -0.3772 N   0  0  0  0  0  0  0  0  0  0  0  0
   -1.1201    1.9244    0.7904 H   0  0  0  0  0  0  0  0  0  0  0  0
    1.0578    1.9211    0.0175 H   0  0  0  0  0  0  0  0  0  0  0  0
    3.0587   -1.0449   -0.0544 H   0  0  0  0  0  0  0  0  0  0  0  0
    2.9856    0.6804   -0.0465 H   0  0  0  0  0  0  0  0  0  0  0  0
    0.8113   -2.3501   -0.0254 H   0  0  0  0  0  0  0  0  0  0  0  0
   -1.6796   -2.2225   -0.0615 H   0  0  0  0  0  0  0  0  0  0  0  0
   -5.2168    1.6365    0.0972 H   0  0  0  0  0  0  0  0  0  0  0  0
   -2.1487    2.1543   -0.7391 H   0  0  0  0  0  0  0  0  0  0  0  0
   -1.7591    3.7624   -0.1646 H   0  0  0  0  0  0  0  0  0  0  0  0
  1  2  1  0  0  0  0
  1 15  1  0  0  0  0
  2  3  2  0  0  0  0
  2 16  1  0  0  0  0
  3  4  1  0  0  0  0
  3  5  1  0  0  0  0
  4 17  1  0  0  0  0
  4 18  1  0  0  0  0
  5  6  2  0  0  0  0
  5 19  1  0  0  0  0
  6  7  1  0  0  0  0
  6 20  1  0  0  0  0
  7  1  2  0  0  0  0
  7  8  1  0  0  0  0
  8  9  2  0  0  0  0
  8 10  2  0  0  0  0
  8 11  1  0  0  0  0
 11 12  1  0  0  0  0
 11 21  1  0  0  0  0
 12 13  2  0  0  0  0
 12 14  1  0  0  0  0
 14 22  1  0  0  0  0
 14 23  1  0  0  0  0
M  END
>  <DRUGBANK_ID>
DB13699

>  <COMMON_NAME>
Sulfathiourea

>  <CAS_NUMBER>
515-49-1

>  <UNII>
MXF9G4I1V5

>  <SYNONYMS>
1-sulfanilyl-2-thiourea; 4-amino-N-(aminothioxomethyl)benzenesulfonamide; p-aminobenzenesulfonylthiourea; p-aminophenylsulfonylthiourea; Sulfathiocarbamide; Sulfathiourea; Sulfathiour√©e; Sulfatiourea; Sulphathiourea

$$$$
