
 OpenBabel10282417213D

  9  9  0  0  0  0  0  0  0  0999 V2000
   -0.0265    0.8661   -0.0700 C   0  0  0  0  0  0  0  0  0  0  0  0
    0.7610   -0.4074    0.0550 C   0  0  0  0  0  0  0  0  0  0  0  0
   -0.7354   -0.4587   -0.0700 C   0  0  0  0  0  0  0  0  0  0  0  0
   -0.1123    1.4953    0.8080 H   0  0  0  0  0  0  0  0  0  0  0  0
    0.0236    1.4099   -1.0063 H   0  0  0  0  0  0  0  0  0  0  0  0
    1.3554   -0.7255   -0.7933 H   0  0  0  0  0  0  0  0  0  0  0  0
    1.1977   -0.6411    1.0193 H   0  0  0  0  0  0  0  0  0  0  0  0
   -1.3066   -0.7364    0.8080 H   0  0  0  0  0  0  0  0  0  0  0  0
   -1.1601   -0.8020   -1.0063 H   0  0  0  0  0  0  0  0  0  0  0  0
  1  2  1  0  0  0  0
  1  3  1  0  0  0  0
  1  4  1  0  0  0  0
  1  5  1  0  0  0  0
  2  3  1  0  0  0  0
  2  6  1  0  0  0  0
  2  7  1  0  0  0  0
  3  8  1  0  0  0  0
  3  9  1  0  0  0  0
M  END
>  <DRUGBANK_ID>
DB13984

>  <COMMON_NAME>
Cyclopropane

>  <CAS_NUMBER>
75-19-4

>  <UNII>
99TB643425

>  <SYNONYMS>
Ciclopropano; Cyclopropan; Cyclopropane; Cyclopropanum; Trimethylene; Zyklopropan

$$$$
