
 OpenBabel10282417143D

 93 96  0  0  1  0  0  0  0  0999 V2000
    4.5173   -1.0698    0.4771 O   0  0  0  0  0  0  0  0  0  0  0  0
   -6.3192   -0.4305   -0.2026 O   0  0  0  0  0  0  0  0  0  0  0  0
   -6.6798   -2.7282    0.2309 O   0  0  0  0  0  0  0  0  0  0  0  0
    1.5907    0.7438    0.2796 C   0  0  2  0  0  0  0  0  0  0  0  0
    2.2853   -0.5083   -0.3001 C   0  0  2  0  0  0  0  0  0  0  0  0
    0.1275    0.8269   -0.1604 C   0  0  1  0  0  0  0  0  0  0  0  0
   -0.5917   -0.4374    0.3821 C   0  0  2  0  0  0  0  0  0  0  0  0
    1.6051   -1.7541    0.2479 C   0  0  0  0  0  0  0  0  0  0  0  0
    2.5530    1.8812   -0.0466 C   0  0  0  0  0  0  0  0  0  0  0  0
    0.1096   -1.7381   -0.0923 C   0  0  0  0  0  0  0  0  0  0  0  0
   -0.5908    2.0662    0.3796 C   0  0  0  0  0  0  0  0  0  0  0  0
    3.6832   -0.2190    0.2011 C   0  0  0  0  0  0  0  0  0  0  0  0
    3.9330    1.2777    0.2727 C   0  0  0  0  0  0  0  0  0  0  0  0
    2.3694   -0.5675   -1.8356 C   0  0  0  0  0  0  0  0  0  0  0  0
   -2.0857   -0.3891    0.1295 C   0  0  0  0  0  0  0  0  0  0  0  0
   -2.0240    2.1325   -0.1645 C   0  0  0  0  0  0  0  0  0  0  0  0
   -2.7833    0.8261   -0.0495 C   0  0  0  0  0  0  0  0  0  0  0  0
   -2.8146   -1.5730    0.2002 C   0  0  0  0  0  0  0  0  0  0  0  0
   -4.1989    0.8105   -0.1748 C   0  0  0  0  0  0  0  0  0  0  0  0
   -4.1890   -1.5785    0.0831 C   0  0  0  0  0  0  0  0  0  0  0  0
   -4.8987   -0.4057   -0.0994 C   0  0  0  0  0  0  0  0  0  0  0  0
   -7.0926   -1.5843    0.0366 C   0  0  0  0  0  0  0  0  0  0  0  0
   -8.5710   -1.3361    0.0428 C   0  0  0  0  0  0  0  0  0  0  0  0
   -9.0016   -0.4626    1.2111 C   0  0  0  0  0  0  0  0  0  0  0  0
   -8.4957    0.9676    1.0483 C   0  0  0  0  0  0  0  0  0  0  0  0
   -8.9531    1.5448   -0.2972 C   0  0  0  0  0  0  0  0  0  0  0  0
  -10.4838    1.6189   -0.3528 C   0  0  0  0  0  0  0  0  0  0  0  0
  -11.0035    2.5084    0.7726 C   0  0  0  0  0  0  0  0  0  0  0  0
  -10.3550    3.8804    0.6941 C   0  0  0  0  0  0  0  0  0  0  0  0
  -11.8729    8.5667   -0.5413 C   0  0  0  0  0  0  0  0  0  0  0  0
  -13.3956    8.6629   -0.3859 C   0  0  0  0  0  0  0  0  0  0  0  0
  -11.2738    7.7540    0.6031 C   0  0  0  0  0  0  0  0  0  0  0  0
  -13.7642    9.3470    0.9364 C   0  0  0  0  0  0  0  0  0  0  0  0
  -11.9189    6.3797    0.6647 C   0  0  0  0  0  0  0  0  0  0  0  0
  -10.7985    4.5437   -0.5690 C   0  0  0  0  0  0  0  0  0  0  0  0
  -13.2126   10.7756    0.9810 C   0  0  0  0  0  0  0  0  0  0  0  0
  -11.5648    5.6296   -0.5783 C   0  0  0  0  0  0  0  0  0  0  0  0
  -13.7460   11.6153   -0.1809 C   0  0  0  0  0  0  0  0  0  0  0  0
  -15.2624   11.7048   -0.1206 C   0  0  0  0  0  0  0  0  0  0  0  0
    1.5842    0.6694    1.3812 H   0  0  0  0  0  0  0  0  0  0  0  0
    0.0669    0.8521   -1.2564 H   0  0  0  0  0  0  0  0  0  0  0  0
   -0.5000   -0.4283    1.4796 H   0  0  0  0  0  0  0  0  0  0  0  0
    2.0644   -2.6636   -0.1574 H   0  0  0  0  0  0  0  0  0  0  0  0
    1.7255   -1.8134    1.3377 H   0  0  0  0  0  0  0  0  0  0  0  0
    2.3669    2.7744    0.5574 H   0  0  0  0  0  0  0  0  0  0  0  0
    2.4869    2.1771   -1.0992 H   0  0  0  0  0  0  0  0  0  0  0  0
   -0.0423   -1.8670   -1.1714 H   0  0  0  0  0  0  0  0  0  0  0  0
   -0.3276   -2.6229    0.3813 H   0  0  0  0  0  0  0  0  0  0  0  0
   -0.6141    2.0313    1.4768 H   0  0  0  0  0  0  0  0  0  0  0  0
   -0.0542    2.9796    0.1002 H   0  0  0  0  0  0  0  0  0  0  0  0
    4.2607    1.5419    1.2811 H   0  0  0  0  0  0  0  0  0  0  0  0
    4.6762    1.5710   -0.4723 H   0  0  0  0  0  0  0  0  0  0  0  0
    2.9334   -1.4541   -2.1483 H   0  0  0  0  0  0  0  0  0  0  0  0
    1.3864   -0.6186   -2.3103 H   0  0  0  0  0  0  0  0  0  0  0  0
    2.8903    0.2963   -2.2598 H   0  0  0  0  0  0  0  0  0  0  0  0
   -2.5582    2.9278    0.3675 H   0  0  0  0  0  0  0  0  0  0  0  0
   -1.9841    2.4105   -1.2258 H   0  0  0  0  0  0  0  0  0  0  0  0
   -2.3496   -2.5379    0.3640 H   0  0  0  0  0  0  0  0  0  0  0  0
   -4.7305    1.7495   -0.3204 H   0  0  0  0  0  0  0  0  0  0  0  0
   -4.6503   -2.5496    0.1516 H   0  0  0  0  0  0  0  0  0  0  0  0
   -8.8970   -0.9880   -0.9404 H   0  0  0  0  0  0  0  0  0  0  0  0
   -9.0556   -2.3130    0.1601 H   0  0  0  0  0  0  0  0  0  0  0  0
  -10.0976   -0.4748    1.2766 H   0  0  0  0  0  0  0  0  0  0  0  0
   -8.6529   -0.8762    2.1627 H   0  0  0  0  0  0  0  0  0  0  0  0
   -8.8310    1.5744    1.8954 H   0  0  0  0  0  0  0  0  0  0  0  0
   -7.4095    1.0190    1.1301 H   0  0  0  0  0  0  0  0  0  0  0  0
   -8.4827    2.5196   -0.4532 H   0  0  0  0  0  0  0  0  0  0  0  0
   -8.5885    0.9682   -1.1501 H   0  0  0  0  0  0  0  0  0  0  0  0
  -10.7992    1.9924   -1.3317 H   0  0  0  0  0  0  0  0  0  0  0  0
  -10.9473    0.6312   -0.2774 H   0  0  0  0  0  0  0  0  0  0  0  0
  -12.0965    2.5827    0.7281 H   0  0  0  0  0  0  0  0  0  0  0  0
  -10.7921    2.0769    1.7570 H   0  0  0  0  0  0  0  0  0  0  0  0
  -10.6197    4.3968    1.6116 H   0  0  0  0  0  0  0  0  0  0  0  0
   -9.2638    3.8760    0.7254 H   0  0  0  0  0  0  0  0  0  0  0  0
  -11.4008    9.5522   -0.5706 H   0  0  0  0  0  0  0  0  0  0  0  0
  -11.6297    8.1213   -1.5110 H   0  0  0  0  0  0  0  0  0  0  0  0
  -13.8171    9.1824   -1.2495 H   0  0  0  0  0  0  0  0  0  0  0  0
  -13.8756    7.6803   -0.4326 H   0  0  0  0  0  0  0  0  0  0  0  0
  -11.4181    8.2517    1.5683 H   0  0  0  0  0  0  0  0  0  0  0  0
  -10.1861    7.6741    0.4858 H   0  0  0  0  0  0  0  0  0  0  0  0
  -14.8498    9.3340    1.0662 H   0  0  0  0  0  0  0  0  0  0  0  0
  -13.3945    8.7843    1.8010 H   0  0  0  0  0  0  0  0  0  0  0  0
  -13.0047    6.3882    0.7748 H   0  0  0  0  0  0  0  0  0  0  0  0
  -11.5842    5.9266    1.5932 H   0  0  0  0  0  0  0  0  0  0  0  0
  -10.5326    4.0999   -1.5273 H   0  0  0  0  0  0  0  0  0  0  0  0
  -13.4722   11.2402    1.9372 H   0  0  0  0  0  0  0  0  0  0  0  0
  -12.1161   10.7687    0.9527 H   0  0  0  0  0  0  0  0  0  0  0  0
  -11.9019    6.0068   -1.5425 H   0  0  0  0  0  0  0  0  0  0  0  0
  -13.3043   12.6147   -0.1453 H   0  0  0  0  0  0  0  0  0  0  0  0
  -13.4398   11.1957   -1.1466 H   0  0  0  0  0  0  0  0  0  0  0  0
  -15.5692   12.1587    0.8262 H   0  0  0  0  0  0  0  0  0  0  0  0
  -15.6485   12.2995   -0.9490 H   0  0  0  0  0  0  0  0  0  0  0  0
  -15.7371   10.7206   -0.1907 H   0  0  0  0  0  0  0  0  0  0  0  0
  1 12  2  0  0  0  0
  2 21  1  0  0  0  0
  2 22  1  0  0  0  0
  3 22  2  0  0  0  0
  4  5  1  0  0  0  0
  4  6  1  0  0  0  0
  4  9  1  0  0  0  0
  4 40  1  1  0  0  0
  5  8  1  0  0  0  0
  5 12  1  0  0  0  0
  5 14  1  6  0  0  0
  6  7  1  0  0  0  0
  6 11  1  0  0  0  0
  6 41  1  6  0  0  0
  7 10  1  0  0  0  0
  7 15  1  0  0  0  0
  7 42  1  1  0  0  0
  8 10  1  0  0  0  0
  8 43  1  0  0  0  0
  8 44  1  0  0  0  0
  9 13  1  0  0  0  0
  9 45  1  0  0  0  0
  9 46  1  0  0  0  0
 10 47  1  0  0  0  0
 10 48  1  0  0  0  0
 11 16  1  0  0  0  0
 11 49  1  0  0  0  0
 11 50  1  0  0  0  0
 12 13  1  0  0  0  0
 13 51  1  0  0  0  0
 13 52  1  0  0  0  0
 14 53  1  0  0  0  0
 14 54  1  0  0  0  0
 14 55  1  0  0  0  0
 15 17  2  0  0  0  0
 15 18  1  0  0  0  0
 16 17  1  0  0  0  0
 16 56  1  0  0  0  0
 16 57  1  0  0  0  0
 17 19  1  0  0  0  0
 18 20  2  0  0  0  0
 18 58  1  0  0  0  0
 19 21  2  0  0  0  0
 19 59  1  0  0  0  0
 20 21  1  0  0  0  0
 20 60  1  0  0  0  0
 22 23  1  0  0  0  0
 23 24  1  0  0  0  0
 23 61  1  0  0  0  0
 23 62  1  0  0  0  0
 24 25  1  0  0  0  0
 24 63  1  0  0  0  0
 24 64  1  0  0  0  0
 25 26  1  0  0  0  0
 25 65  1  0  0  0  0
 25 66  1  0  0  0  0
 26 27  1  0  0  0  0
 26 67  1  0  0  0  0
 26 68  1  0  0  0  0
 27 28  1  0  0  0  0
 27 69  1  0  0  0  0
 27 70  1  0  0  0  0
 28 29  1  0  0  0  0
 28 71  1  0  0  0  0
 28 72  1  0  0  0  0
 29 35  1  0  0  0  0
 29 73  1  0  0  0  0
 29 74  1  0  0  0  0
 30 31  1  0  0  0  0
 30 32  1  0  0  0  0
 30 75  1  0  0  0  0
 30 76  1  0  0  0  0
 31 33  1  0  0  0  0
 31 77  1  0  0  0  0
 31 78  1  0  0  0  0
 32 34  1  0  0  0  0
 32 79  1  0  0  0  0
 32 80  1  0  0  0  0
 33 36  1  0  0  0  0
 33 81  1  0  0  0  0
 33 82  1  0  0  0  0
 34 37  1  0  0  0  0
 34 83  1  0  0  0  0
 34 84  1  0  0  0  0
 35 37  2  0  0  0  0
 35 85  1  0  0  0  0
 36 38  1  0  0  0  0
 36 86  1  0  0  0  0
 36 87  1  0  0  0  0
 37 88  1  0  0  0  0
 38 39  1  0  0  0  0
 38 89  1  0  0  0  0
 38 90  1  0  0  0  0
 39 91  1  0  0  0  0
 39 92  1  0  0  0  0
 39 93  1  0  0  0  0
M  END
>  <DRUGBANK_ID>
DB04870

>  <COMMON_NAME>
Oleoyl-estrone

>  <CAS_NUMBER>
180003-17-2

>  <UNII>
64R56KMG1Z

>  <SYNONYMS>
Estrone 3-oleate; Estrone monooleate; Estrone oleic acid ester; OE; Oleoyl estrone; Oleoylestrone

$$$$
