Ginsenoside Rg1
 OpenBabel10282417163D

128133  0  0  1  0  0  0  0  0999 V2000
   16.1329    4.4450   10.3393 O   0  0  0  0  0  0  0  0  0  0  0  0
   14.7264    0.9276    3.6042 O   0  0  0  0  0  0  0  0  0  0  0  0
   10.3296    0.5748    4.8911 O   0  0  0  0  0  0  0  0  0  0  0  0
   20.9902    3.0356    9.2606 O   0  0  0  0  0  0  0  0  0  0  0  0
   15.4406    6.0954    8.9118 O   0  0  0  0  0  0  0  0  0  0  0  0
    9.9937   -0.6249    2.8944 O   0  0  0  0  0  0  0  0  0  0  0  0
   19.3666    5.8105    9.3365 O   0  0  0  0  0  0  0  0  0  0  0  0
   19.1086    6.5969    6.8607 O   0  0  0  0  0  0  0  0  0  0  0  0
    7.6841   -0.2175    5.7086 O   0  0  0  0  0  0  0  0  0  0  0  0
   16.9166    8.2423    6.3643 O   0  0  0  0  0  0  0  0  0  0  0  0
    5.9887   -0.8305    3.4336 O   0  0  0  0  0  0  0  0  0  0  0  0
    7.2690   -2.3317    1.3064 O   0  0  0  0  0  0  0  0  0  0  0  0
   13.2096    7.4705    8.0905 O   0  0  0  0  0  0  0  0  0  0  0  0
   11.4508   -1.7981    0.7245 O   0  0  0  0  0  0  0  0  0  0  0  0
   14.4372    2.4249    7.5961 C   0  0  1  0  0  0  0  0  0  0  0  0
   13.3667    2.9955    6.5786 C   0  0  1  0  0  0  0  0  0  0  0  0
   15.8017    2.2303    6.8242 C   0  0  1  0  0  0  0  0  0  0  0  0
   17.0659    1.8461    7.6910 C   0  0  2  0  0  0  0  0  0  0  0  0
   13.2184    1.9691    5.4506 C   0  0  1  0  0  0  0  0  0  0  0  0
   17.1542    2.9233    8.8087 C   0  0  1  0  0  0  0  0  0  0  0  0
   14.6551    3.4331    8.7104 C   0  0  0  0  0  0  0  0  0  0  0  0
   15.6407    1.3597    5.6034 C   0  0  0  0  0  0  0  0  0  0  0  0
   11.9188    2.4328    4.7813 C   0  0  2  0  0  0  0  0  0  0  0  0
   14.5692    1.8659    4.6596 C   0  0  1  0  0  0  0  0  0  0  0  0
   11.9264    3.1492    7.1176 C   0  0  0  0  0  0  0  0  0  0  0  0
   15.8941    3.2393    9.5857 C   0  0  2  0  0  0  0  0  0  0  0  0
   18.5115    3.0381    9.6856 C   0  0  0  0  0  0  0  0  0  0  0  0
   11.0484    3.1022    5.8760 C   0  0  0  0  0  0  0  0  0  0  0  0
   18.3363    1.9709    6.7825 C   0  0  0  0  0  0  0  0  0  0  0  0
   13.9027    1.1426    8.2621 C   0  0  0  0  0  0  0  0  0  0  0  0
   13.7165    4.4006    6.0113 C   0  0  0  0  0  0  0  0  0  0  0  0
   17.0244    0.4160    8.2150 C   0  0  0  0  0  0  0  0  0  0  0  0
   19.7163    3.0599    8.6342 C   0  0  2  0  0  0  0  0  0  0  0  0
   11.1619    1.3380    3.9995 C   0  0  2  0  0  0  0  0  0  0  0  0
   19.6445    1.9529    7.5691 C   0  0  0  0  0  0  0  0  0  0  0  0
   18.6525    1.8564   10.6452 C   0  0  0  0  0  0  0  0  0  0  0  0
   18.5900    4.0977   10.9270 C   0  0  0  0  0  0  0  0  0  0  0  0
   10.3252    2.0992    2.9308 C   0  0  0  0  0  0  0  0  0  0  0  0
   12.1825    0.3347    3.4973 C   0  0  0  0  0  0  0  0  0  0  0  0
   16.5634    5.6827    9.6706 C   0  0  2  0  0  0  0  0  0  0  0  0
   11.1143    2.9652    1.9319 C   0  0  0  0  0  0  0  0  0  0  0  0
    9.6231   -0.5038    4.2513 C   0  0  2  0  0  0  0  0  0  0  0  0
   18.0120    5.7811    8.8159 C   0  0  1  0  0  0  0  0  0  0  0  0
   18.0846    6.8856    7.8435 C   0  0  2  0  0  0  0  0  0  0  0  0
    8.1371   -0.1943    4.3490 C   0  0  1  0  0  0  0  0  0  0  0  0
   15.6414    7.2435    8.1275 C   0  0  1  0  0  0  0  0  0  0  0  0
   12.1380    2.2137    1.1474 C   0  0  0  0  0  0  0  0  0  0  0  0
   16.7820    7.0619    7.1397 C   0  0  1  0  0  0  0  0  0  0  0  0
    7.3673   -1.2038    3.4877 C   0  0  2  0  0  0  0  0  0  0  0  0
    9.4188   -1.6203    2.1017 C   0  0  1  0  0  0  0  0  0  0  0  0
    7.9319   -1.3210    2.0546 C   0  0  1  0  0  0  0  0  0  0  0  0
   14.3884    7.5048    7.3003 C   0  0  0  0  0  0  0  0  0  0  0  0
   12.0777    1.9195   -0.1841 C   0  0  0  0  0  0  0  0  0  0  0  0
   10.0471   -1.5313    0.6944 C   0  0  0  0  0  0  0  0  0  0  0  0
   13.0989    1.0170   -0.7963 C   0  0  0  0  0  0  0  0  0  0  0  0
   11.0491    2.5943   -1.0041 C   0  0  0  0  0  0  0  0  0  0  0  0
   14.5651    0.0370    3.9658 H   0  0  0  0  0  0  0  0  0  0  0  0
   21.0884    2.1885    9.7172 H   0  0  0  0  0  0  0  0  0  0  0  0
   19.5050    6.2757   10.1726 H   0  0  0  0  0  0  0  0  0  0  0  0
   19.1227    5.6353    6.6845 H   0  0  0  0  0  0  0  0  0  0  0  0
    7.9203   -1.0767    6.0953 H   0  0  0  0  0  0  0  0  0  0  0  0
   17.3591    8.8871    6.9486 H   0  0  0  0  0  0  0  0  0  0  0  0
    5.9440    0.0791    3.0882 H   0  0  0  0  0  0  0  0  0  0  0  0
    7.4177   -3.1821    1.7545 H   0  0  0  0  0  0  0  0  0  0  0  0
   13.2209    6.6213    8.5729 H   0  0  0  0  0  0  0  0  0  0  0  0
   11.8789   -0.9829    1.0415 H   0  0  0  0  0  0  0  0  0  0  0  0
   16.0538    3.2132    6.3959 H   0  0  0  0  0  0  0  0  0  0  0  0
   12.9903    0.9886    5.8701 H   0  0  0  0  0  0  0  0  0  0  0  0
   17.0859    3.7394    8.1093 H   0  0  0  0  0  0  0  0  0  0  0  0
   13.7632    3.5638    9.3352 H   0  0  0  0  0  0  0  0  0  0  0  0
   14.7716    4.3614    8.1848 H   0  0  0  0  0  0  0  0  0  0  0  0
   15.3941    0.3345    5.9005 H   0  0  0  0  0  0  0  0  0  0  0  0
   16.5658    1.2867    5.0224 H   0  0  0  0  0  0  0  0  0  0  0  0
   12.2378    3.2235    4.1051 H   0  0  0  0  0  0  0  0  0  0  0  0
   14.8171    2.8334    4.2108 H   0  0  0  0  0  0  0  0  0  0  0  0
   11.6187    2.3349    7.7714 H   0  0  0  0  0  0  0  0  0  0  0  0
   11.7732    4.0799    7.6785 H   0  0  0  0  0  0  0  0  0  0  0  0
   15.6967    2.4067   10.2734 H   0  0  0  0  0  0  0  0  0  0  0  0
   10.7522    4.1128    5.5643 H   0  0  0  0  0  0  0  0  0  0  0  0
   10.1181    2.5736    6.1034 H   0  0  0  0  0  0  0  0  0  0  0  0
   18.3715    1.1502    6.0531 H   0  0  0  0  0  0  0  0  0  0  0  0
   18.2924    2.8930    6.1807 H   0  0  0  0  0  0  0  0  0  0  0  0
   12.9576    1.3251    8.7775 H   0  0  0  0  0  0  0  0  0  0  0  0
   13.7602    0.3161    7.5654 H   0  0  0  0  0  0  0  0  0  0  0  0
   14.5419    0.7922    9.0604 H   0  0  0  0  0  0  0  0  0  0  0  0
   13.0679    4.7516    5.2017 H   0  0  0  0  0  0  0  0  0  0  0  0
   13.5404    5.1041    6.8166 H   0  0  0  0  0  0  0  0  0  0  0  0
   14.7376    4.5170    5.6465 H   0  0  0  0  0  0  0  0  0  0  0  0
   17.9730    0.1162    8.6457 H   0  0  0  0  0  0  0  0  0  0  0  0
   16.3018    0.2790    9.0085 H   0  0  0  0  0  0  0  0  0  0  0  0
   16.8383   -0.3090    7.4200 H   0  0  0  0  0  0  0  0  0  0  0  0
   19.7395    3.9663    8.0255 H   0  0  0  0  0  0  0  0  0  0  0  0
   19.8096    0.9757    8.0274 H   0  0  0  0  0  0  0  0  0  0  0  0
   20.4729    2.0683    6.8550 H   0  0  0  0  0  0  0  0  0  0  0  0
   19.5777    1.9808   11.2230 H   0  0  0  0  0  0  0  0  0  0  0  0
   17.8232    1.8725   11.3643 H   0  0  0  0  0  0  0  0  0  0  0  0
   18.6930    0.8860   10.1941 H   0  0  0  0  0  0  0  0  0  0  0  0
   17.8878    3.8430   11.7308 H   0  0  0  0  0  0  0  0  0  0  0  0
   19.6047    4.1595   11.3263 H   0  0  0  0  0  0  0  0  0  0  0  0
   18.3009    5.1366   10.8806 H   0  0  0  0  0  0  0  0  0  0  0  0
    9.6837    1.4392    2.3439 H   0  0  0  0  0  0  0  0  0  0  0  0
    9.5976    2.7362    3.4576 H   0  0  0  0  0  0  0  0  0  0  0  0
   12.9239    0.8843    2.9917 H   0  0  0  0  0  0  0  0  0  0  0  0
   12.5872   -0.2817    4.3056 H   0  0  0  0  0  0  0  0  0  0  0  0
   11.9253   -0.3806    2.7439 H   0  0  0  0  0  0  0  0  0  0  0  0
   16.6424    6.3799   10.5096 H   0  0  0  0  0  0  0  0  0  0  0  0
   10.3658    3.4345    1.2903 H   0  0  0  0  0  0  0  0  0  0  0  0
   11.6133    3.8072    2.4164 H   0  0  0  0  0  0  0  0  0  0  0  0
    9.8912   -1.4204    4.7899 H   0  0  0  0  0  0  0  0  0  0  0  0
   18.0824    4.9531    8.1555 H   0  0  0  0  0  0  0  0  0  0  0  0
   18.4048    7.7710    8.3945 H   0  0  0  0  0  0  0  0  0  0  0  0
    7.9483    0.8256    3.9914 H   0  0  0  0  0  0  0  0  0  0  0  0
   15.8059    8.0747    8.8168 H   0  0  0  0  0  0  0  0  0  0  0  0
   13.0562    1.9071    1.6098 H   0  0  0  0  0  0  0  0  0  0  0  0
   16.6080    6.1910    6.4848 H   0  0  0  0  0  0  0  0  0  0  0  0
    7.4018   -2.1856    3.9727 H   0  0  0  0  0  0  0  0  0  0  0  0
    9.6621   -2.5945    2.5383 H   0  0  0  0  0  0  0  0  0  0  0  0
    7.7639   -0.3634    1.5419 H   0  0  0  0  0  0  0  0  0  0  0  0
   14.4600    8.4665    6.7948 H   0  0  0  0  0  0  0  0  0  0  0  0
   14.3060    6.7702    6.5023 H   0  0  0  0  0  0  0  0  0  0  0  0
    9.6044   -2.2756    0.0313 H   0  0  0  0  0  0  0  0  0  0  0  0
    9.9083   -0.5366    0.2528 H   0  0  0  0  0  0  0  0  0  0  0  0
   12.6064    0.2040   -1.3417 H   0  0  0  0  0  0  0  0  0  0  0  0
   13.7453    1.5764   -1.4767 H   0  0  0  0  0  0  0  0  0  0  0  0
   13.7433    0.5378   -0.0459 H   0  0  0  0  0  0  0  0  0  0  0  0
   10.0432    2.2862   -0.7031 H   0  0  0  0  0  0  0  0  0  0  0  0
   11.1437    3.6788   -0.8523 H   0  0  0  0  0  0  0  0  0  0  0  0
   11.1924    2.3996   -2.0668 H   0  0  0  0  0  0  0  0  0  0  0  0
  2 57  1  0  0  0  0
  4 58  1  0  0  0  0
  5 40  1  0  0  0  0
  5 46  1  0  0  0  0
  6 42  1  0  0  0  0
  6 50  1  0  0  0  0
  7 59  1  0  0  0  0
  8 60  1  0  0  0  0
  9 61  1  0  0  0  0
 10 62  1  0  0  0  0
 11 63  1  0  0  0  0
 12 64  1  0  0  0  0
 13 52  1  0  0  0  0
 13 65  1  0  0  0  0
 14 54  1  0  0  0  0
 14 66  1  0  0  0  0
 15 16  1  0  0  0  0
 15 21  1  0  0  0  0
 15 30  1  1  0  0  0
 16 19  1  0  0  0  0
 16 25  1  0  0  0  0
 16 31  1  6  0  0  0
 17 15  1  0  0  0  0
 17 22  1  0  0  0  0
 17 67  1  6  0  0  0
 18 17  1  0  0  0  0
 18 29  1  0  0  0  0
 18 32  1  1  0  0  0
 19 23  1  0  0  0  0
 19 24  1  0  0  0  0
 19 68  1  1  0  0  0
 20 18  1  0  0  0  0
 20 26  1  0  0  0  0
 20 27  1  0  0  0  0
 20 69  1  6  0  0  0
 21 70  1  0  0  0  0
 21 71  1  0  0  0  0
 22 72  1  0  0  0  0
 22 73  1  0  0  0  0
 23 28  1  0  0  0  0
 23 74  1  6  0  0  0
 23 34  1  0  0  0  0
 24  2  1  0  0  0  0
 24 22  1  0  0  0  0
 24 75  1  6  0  0  0
 25 28  1  0  0  0  0
 25 76  1  0  0  0  0
 25 77  1  0  0  0  0
 26  1  1  0  0  0  0
 26 21  1  0  0  0  0
 26 78  1  1  0  0  0
 27 33  1  0  0  0  0
 27 36  1  0  0  0  0
 27 37  1  0  0  0  0
 28 79  1  0  0  0  0
 28 80  1  0  0  0  0
 29 35  1  0  0  0  0
 29 81  1  0  0  0  0
 29 82  1  0  0  0  0
 30 83  1  0  0  0  0
 30 84  1  0  0  0  0
 30 85  1  0  0  0  0
 31 86  1  0  0  0  0
 31 87  1  0  0  0  0
 31 88  1  0  0  0  0
 32 89  1  0  0  0  0
 32 90  1  0  0  0  0
 32 91  1  0  0  0  0
 33  4  1  0  0  0  0
 33 35  1  0  0  0  0
 33 92  1  6  0  0  0
 34  3  1  1  0  0  0
 34 38  1  0  0  0  0
 34 39  1  0  0  0  0
 35 93  1  0  0  0  0
 35 94  1  0  0  0  0
 36 95  1  0  0  0  0
 36 96  1  0  0  0  0
 36 97  1  0  0  0  0
 37 98  1  0  0  0  0
 37 99  1  0  0  0  0
 37100  1  0  0  0  0
 38 41  1  0  0  0  0
 38101  1  0  0  0  0
 38102  1  0  0  0  0
 39103  1  0  0  0  0
 39104  1  0  0  0  0
 39105  1  0  0  0  0
 40 43  1  0  0  0  0
 40106  1  1  0  0  0
 40  1  1  0  0  0  0
 41 47  1  0  0  0  0
 41107  1  0  0  0  0
 41108  1  0  0  0  0
 42 45  1  0  0  0  0
 42109  1  1  0  0  0
 42  3  1  0  0  0  0
 43  7  1  0  0  0  0
 43 44  1  0  0  0  0
 43110  1  6  0  0  0
 44  8  1  0  0  0  0
 44 48  1  0  0  0  0
 44111  1  1  0  0  0
 45  9  1  0  0  0  0
 45 49  1  0  0  0  0
 45112  1  6  0  0  0
 46 48  1  0  0  0  0
 46 52  1  0  0  0  0
 46113  1  1  0  0  0
 47 53  2  0  0  0  0
 47114  1  0  0  0  0
 48 10  1  0  0  0  0
 48115  1  6  0  0  0
 49 11  1  0  0  0  0
 49 51  1  0  0  0  0
 49116  1  1  0  0  0
 50 51  1  0  0  0  0
 50 54  1  0  0  0  0
 50117  1  1  0  0  0
 51 12  1  0  0  0  0
 51118  1  6  0  0  0
 52119  1  0  0  0  0
 52120  1  0  0  0  0
 53 55  1  0  0  0  0
 53 56  1  0  0  0  0
 54121  1  0  0  0  0
 54122  1  0  0  0  0
 55123  1  0  0  0  0
 55124  1  0  0  0  0
 55125  1  0  0  0  0
 56126  1  0  0  0  0
 56127  1  0  0  0  0
 56128  1  0  0  0  0
M  END
>  <DRUGBANK_ID>
DB06750

>  <COMMON_NAME>
Ginsenoside Rg1

>  <CAS_NUMBER>
22427-39-0

>  <UNII>
PJ788634QY

>  <SYNONYMS>
Ginsenoside A2; Panaxoside A; Sanchinoside C1

$$$$
