
 OpenBabel10282417153D

 44 47  0  0  0  0  0  0  0  0999 V2000
   -2.1704   -0.6863    0.0024 C   0  0  0  0  0  0  0  0  0  0  0  0
   -2.1659    0.7030   -0.0004 C   0  0  0  0  0  0  0  0  0  0  0  0
   -0.9674    1.4315   -0.0006 C   0  0  0  0  0  0  0  0  0  0  0  0
    0.2426    0.7201   -0.0138 C   0  0  0  0  0  0  0  0  0  0  0  0
    0.2550   -0.6806   -0.0117 C   0  0  0  0  0  0  0  0  0  0  0  0
   -0.9683   -1.3853    0.0040 C   0  0  0  0  0  0  0  0  0  0  0  0
    1.6159   -1.1075   -0.0223 C   0  0  0  0  0  0  0  0  0  0  0  0
    2.3727    0.0278   -0.1302 C   0  0  0  0  0  0  0  0  0  0  0  0
    1.5638    1.1289   -0.0234 N   0  0  0  0  0  0  0  0  0  0  0  0
    2.0768    2.5024    0.0083 C   0  0  0  0  0  0  0  0  0  0  0  0
    2.9344    2.7645    1.2330 C   0  0  0  0  0  0  0  0  0  0  0  0
    4.1008    2.0225    1.4908 C   0  0  0  0  0  0  0  0  0  0  0  0
    4.7364    2.0759    2.7263 C   0  0  0  0  0  0  0  0  0  0  0  0
    4.3407    3.0323    3.6453 C   0  0  0  0  0  0  0  0  0  0  0  0
    3.3163    3.9230    3.3303 C   0  0  0  0  0  0  0  0  0  0  0  0
    2.5726    3.7499    2.1578 C   0  0  0  0  0  0  0  0  0  0  0  0
    5.1214    3.1107    5.1732 Cl  0  0  0  0  0  0  0  0  0  0  0  0
    2.0994   -2.4688    0.0781 C   0  0  0  0  0  0  0  0  0  0  0  0
    1.2689   -3.3423    0.3378 O   0  0  0  0  0  0  0  0  0  0  0  0
    3.6147   -2.8405   -0.0527 C   0  0  0  0  0  0  0  0  0  0  0  0
    4.4823   -1.9701   -0.0186 O   0  0  0  0  0  0  0  0  0  0  0  0
    4.0188   -4.1728   -0.0961 N   0  0  0  0  0  0  0  0  0  0  0  0
    3.1845   -5.2994   -0.1247 C   0  0  0  0  0  0  0  0  0  0  0  0
    2.0810   -5.3448   -0.9685 C   0  0  0  0  0  0  0  0  0  0  0  0
    1.1232   -6.3075   -0.7311 C   0  0  0  0  0  0  0  0  0  0  0  0
    1.3043   -7.3367    0.1172 N   0  0  0  0  0  0  0  0  0  0  0  0
    2.4751   -7.3654    0.7916 C   0  0  0  0  0  0  0  0  0  0  0  0
    3.4279   -6.3597    0.7379 C   0  0  0  0  0  0  0  0  0  0  0  0
   -3.1055   -1.2399    0.0059 H   0  0  0  0  0  0  0  0  0  0  0  0
   -3.1150    1.2324   -0.0004 H   0  0  0  0  0  0  0  0  0  0  0  0
   -0.9933    2.5149    0.0034 H   0  0  0  0  0  0  0  0  0  0  0  0
   -0.9787   -2.4732    0.0082 H   0  0  0  0  0  0  0  0  0  0  0  0
    3.4402    0.1167   -0.2071 H   0  0  0  0  0  0  0  0  0  0  0  0
    2.6540    2.6533   -0.9100 H   0  0  0  0  0  0  0  0  0  0  0  0
    1.2181    3.1808   -0.0194 H   0  0  0  0  0  0  0  0  0  0  0  0
    4.5277    1.3522    0.7542 H   0  0  0  0  0  0  0  0  0  0  0  0
    5.5311    1.3687    2.9483 H   0  0  0  0  0  0  0  0  0  0  0  0
    3.0747    4.7364    4.0073 H   0  0  0  0  0  0  0  0  0  0  0  0
    1.7076    4.3855    1.9815 H   0  0  0  0  0  0  0  0  0  0  0  0
    4.9881   -4.2907    0.1734 H   0  0  0  0  0  0  0  0  0  0  0  0
    1.8959   -4.5738   -1.7072 H   0  0  0  0  0  0  0  0  0  0  0  0
    0.1491   -6.2391   -1.2060 H   0  0  0  0  0  0  0  0  0  0  0  0
    2.6188   -8.2441    1.4120 H   0  0  0  0  0  0  0  0  0  0  0  0
    4.2813   -6.3861    1.4048 H   0  0  0  0  0  0  0  0  0  0  0  0
  1  2  2  0  0  0  0
  1  6  1  0  0  0  0
  1 29  1  0  0  0  0
  2  3  1  0  0  0  0
  2 30  1  0  0  0  0
  3  4  2  0  0  0  0
  3 31  1  0  0  0  0
  4  5  1  0  0  0  0
  4  9  1  0  0  0  0
  5  6  2  0  0  0  0
  5  7  1  0  0  0  0
  6 32  1  0  0  0  0
  7  8  2  0  0  0  0
  7 18  1  0  0  0  0
  8  9  1  0  0  0  0
  8 33  1  0  0  0  0
  9 10  1  0  0  0  0
 10 11  1  0  0  0  0
 10 34  1  0  0  0  0
 10 35  1  0  0  0  0
 11 12  2  0  0  0  0
 11 16  1  0  0  0  0
 12 13  1  0  0  0  0
 12 36  1  0  0  0  0
 13 14  2  0  0  0  0
 13 37  1  0  0  0  0
 14 15  1  0  0  0  0
 14 17  1  0  0  0  0
 15 16  2  0  0  0  0
 15 38  1  0  0  0  0
 16 39  1  0  0  0  0
 18 19  2  0  0  0  0
 18 20  1  0  0  0  0
 20 21  2  0  0  0  0
 20 22  1  0  0  0  0
 22 23  1  0  0  0  0
 22 40  1  0  0  0  0
 23 24  2  0  0  0  0
 23 28  1  0  0  0  0
 24 25  1  0  0  0  0
 24 41  1  0  0  0  0
 25 26  2  0  0  0  0
 25 42  1  0  0  0  0
 26 27  1  0  0  0  0
 27 28  2  0  0  0  0
 27 43  1  0  0  0  0
 28 44  1  0  0  0  0
M  END
>  <DRUGBANK_ID>
DB06169

>  <COMMON_NAME>
Indibulin

>  <CAS_NUMBER>
204205-90-3

>  <UNII>
80K4H2RB8P

>  <SYNONYMS>
Indibulin

$$$$
