
 OpenBabel10282417173D

 61 63  0  0  0  0  0  0  0  0999 V2000
    3.2709   -4.8950    4.9027 C   0  0  0  0  0  0  0  0  0  0  0  0
    2.5930   -6.1132    5.0030 C   0  0  0  0  0  0  0  0  0  0  0  0
    1.7820   -6.5599    3.9624 C   0  0  0  0  0  0  0  0  0  0  0  0
    1.6860   -5.8030    2.8054 C   0  0  0  0  0  0  0  0  0  0  0  0
    3.1561   -4.1447    3.7420 C   0  0  0  0  0  0  0  0  0  0  0  0
    2.4075   -4.6046    2.6812 C   0  0  0  0  0  0  0  0  0  0  0  0
    2.4205   -3.8600    1.4392 C   0  0  0  0  0  0  0  0  0  0  0  0
    3.0143   -2.6444    1.3460 C   0  0  0  0  0  0  0  0  0  0  0  0
    3.7418   -2.1071    2.5421 C   0  0  0  0  0  0  0  0  0  0  0  0
    3.8217   -2.9158    3.6715 O   0  0  0  0  0  0  0  0  0  0  0  0
    4.2897   -1.0081    2.5288 O   0  0  0  0  0  0  0  0  0  0  0  0
    1.7606   -4.5767    0.4710 O   0  0  0  0  0  0  0  0  0  0  0  0
    3.0417   -1.7044    0.1238 C   0  0  1  0  0  0  0  0  0  0  0  0
    3.2596   -2.5179   -1.1961 C   0  0  0  0  0  0  0  0  0  0  0  0
    3.2910   -1.6901   -2.4608 C   0  0  0  0  0  0  0  0  0  0  0  0
    1.7296   -0.9021    0.0581 C   0  0  0  0  0  0  0  0  0  0  0  0
    0.2540    1.0493   -0.0545 C   0  0  0  0  0  0  0  0  0  0  0  0
    1.5577    0.5040    0.1219 C   0  0  0  0  0  0  0  0  0  0  0  0
    0.5854   -1.6816   -0.1469 C   0  0  0  0  0  0  0  0  0  0  0  0
   -0.6414   -1.1759   -0.4293 C   0  0  0  0  0  0  0  0  0  0  0  0
   -0.8052    0.1710   -0.3160 C   0  0  0  0  0  0  0  0  0  0  0  0
   -0.0249    2.4519    0.0012 N   0  0  0  0  0  0  0  0  0  0  0  0
   -1.3046    2.9995   -0.2070 C   0  0  0  0  0  0  0  0  0  0  0  0
   -2.3251    2.3763   -0.5042 O   0  0  0  0  0  0  0  0  0  0  0  0
   -1.4412    4.5134   -0.1186 C   0  0  0  0  0  0  0  0  0  0  0  0
   -2.0476    4.9989   -1.3527 N   0  0  0  0  0  0  0  0  0  0  0  0
   -3.3194    5.5259   -1.4338 C   0  0  0  0  0  0  0  0  0  0  0  0
   -4.0105    5.7290   -0.4532 O   0  0  0  0  0  0  0  0  0  0  0  0
   -3.7722    5.8708   -2.6873 O   0  0  0  0  0  0  0  0  0  0  0  0
   -3.0772    5.7014   -3.9534 C   0  0  0  0  0  0  0  0  0  0  0  0
   -1.7772    6.5153   -3.9543 C   0  0  0  0  0  0  0  0  0  0  0  0
   -2.9066    4.2061   -4.2427 C   0  0  0  0  0  0  0  0  0  0  0  0
   -3.9530    6.2755   -5.0931 C   0  0  0  0  0  0  0  0  0  0  0  0
    3.8930   -4.5381    5.7154 H   0  0  0  0  0  0  0  0  0  0  0  0
    2.6937   -6.7174    5.8982 H   0  0  0  0  0  0  0  0  0  0  0  0
    1.2374   -7.4969    4.0336 H   0  0  0  0  0  0  0  0  0  0  0  0
    1.0593   -6.1648    1.9904 H   0  0  0  0  0  0  0  0  0  0  0  0
    1.6169   -4.1074   -0.3484 H   0  0  0  0  0  0  0  0  0  0  0  0
    3.8975   -1.0170    0.1863 H   0  0  0  0  0  0  0  0  0  0  0  0
    4.1484   -3.1563   -1.1122 H   0  0  0  0  0  0  0  0  0  0  0  0
    2.4411   -3.1919   -1.4227 H   0  0  0  0  0  0  0  0  0  0  0  0
    4.1626   -1.0403   -2.4848 H   0  0  0  0  0  0  0  0  0  0  0  0
    3.3102   -2.3669   -3.3231 H   0  0  0  0  0  0  0  0  0  0  0  0
    2.3775   -1.0948   -2.5541 H   0  0  0  0  0  0  0  0  0  0  0  0
    2.4158    1.1483    0.3172 H   0  0  0  0  0  0  0  0  0  0  0  0
    0.5810   -2.7442   -0.0751 H   0  0  0  0  0  0  0  0  0  0  0  0
   -1.4620   -1.8344   -0.6797 H   0  0  0  0  0  0  0  0  0  0  0  0
   -1.8358    0.4632   -0.4119 H   0  0  0  0  0  0  0  0  0  0  0  0
    0.7622    3.0666    0.1720 H   0  0  0  0  0  0  0  0  0  0  0  0
   -2.0889    4.7339    0.7326 H   0  0  0  0  0  0  0  0  0  0  0  0
   -0.4729    4.9989   -0.0107 H   0  0  0  0  0  0  0  0  0  0  0  0
   -1.5742    4.7217   -2.1875 H   0  0  0  0  0  0  0  0  0  0  0  0
   -1.0905    6.2617   -3.1487 H   0  0  0  0  0  0  0  0  0  0  0  0
   -1.2305    6.3879   -4.8913 H   0  0  0  0  0  0  0  0  0  0  0  0
   -1.9971    7.5801   -3.8074 H   0  0  0  0  0  0  0  0  0  0  0  0
   -3.8878    3.7179   -4.2965 H   0  0  0  0  0  0  0  0  0  0  0  0
   -2.3738    4.0425   -5.1821 H   0  0  0  0  0  0  0  0  0  0  0  0
   -2.3713    3.6622   -3.4658 H   0  0  0  0  0  0  0  0  0  0  0  0
   -4.9254    5.7751   -5.1581 H   0  0  0  0  0  0  0  0  0  0  0  0
   -4.1555    7.3440   -4.9586 H   0  0  0  0  0  0  0  0  0  0  0  0
   -3.4490    6.1520   -6.0619 H   0  0  0  0  0  0  0  0  0  0  0  0
  1  2  1  0  0  0  0
  1  5  2  0  0  0  0
  1 34  1  0  0  0  0
  2  3  2  0  0  0  0
  2 35  1  0  0  0  0
  3  4  1  0  0  0  0
  3 36  1  0  0  0  0
  4  6  2  0  0  0  0
  4 37  1  0  0  0  0
  5 10  1  0  0  0  0
  5  6  1  0  0  0  0
  6  7  1  0  0  0  0
  7  8  2  0  0  0  0
  7 12  1  0  0  0  0
  8  9  1  0  0  0  0
  9 10  1  0  0  0  0
  9 11  2  0  0  0  0
 12 38  1  0  0  0  0
 13 14  1  0  0  0  0
 13 39  1  1  0  0  0
 13 16  1  0  0  0  0
 13  8  1  0  0  0  0
 14 15  1  0  0  0  0
 14 40  1  0  0  0  0
 14 41  1  0  0  0  0
 15 42  1  0  0  0  0
 15 43  1  0  0  0  0
 15 44  1  0  0  0  0
 16 18  2  0  0  0  0
 16 19  1  0  0  0  0
 17 18  1  0  0  0  0
 17 21  2  0  0  0  0
 17 22  1  0  0  0  0
 18 45  1  0  0  0  0
 19 20  2  0  0  0  0
 19 46  1  0  0  0  0
 20 21  1  0  0  0  0
 20 47  1  0  0  0  0
 21 48  1  0  0  0  0
 22 23  1  0  0  0  0
 22 49  1  0  0  0  0
 23 25  1  0  0  0  0
 23 24  2  0  0  0  0
 25 26  1  0  0  0  0
 25 50  1  0  0  0  0
 25 51  1  0  0  0  0
 26 27  1  0  0  0  0
 26 52  1  0  0  0  0
 27 29  1  0  0  0  0
 27 28  2  0  0  0  0
 29 30  1  0  0  0  0
 30 31  1  0  0  0  0
 30 32  1  0  0  0  0
 30 33  1  0  0  0  0
 31 53  1  0  0  0  0
 31 54  1  0  0  0  0
 31 55  1  0  0  0  0
 32 56  1  0  0  0  0
 32 57  1  0  0  0  0
 32 58  1  0  0  0  0
 33 59  1  0  0  0  0
 33 60  1  0  0  0  0
 33 61  1  0  0  0  0
M  END
>  <DRUGBANK_ID>
DB08664

>  <COMMON_NAME>
({3-[1-(4-Hydroxy-2-oxo-2H-chromen-3-yl)-propyl]-phenylcarbamoyl}-methyl)-carbamic acid tert-butyl ester

>  <SYNONYMS>
tert-butyl N-[({3-[(1S)-1-(4-hydroxy-2-oxo-2H-chromen-3-yl)propyl]phenyl}carbamoyl)methyl]carbamate

$$$$
