
 OpenBabel10282417183D

 40 43  0  0  0  0  0  0  0  0999 V2000
    0.4096    1.6225    0.0581 O   0  0  0  0  0  0  0  0  0  0  0  0
    3.1604   -0.8604    0.0322 O   0  0  0  0  0  0  0  0  0  0  0  0
    1.9581    2.2303   -5.9117 O   0  0  0  0  0  0  0  0  0  0  0  0
    5.2550    4.2229    3.0094 O   0  0  0  0  0  0  0  0  0  0  0  0
    0.9447   -1.1762    0.1190 N   0  0  0  0  0  0  0  0  0  0  0  0
    1.7296    1.1616   -0.2912 C   0  0  0  0  0  0  0  0  0  0  0  0
    2.0388   -0.3594   -0.0063 C   0  0  0  0  0  0  0  0  0  0  0  0
    2.7006    1.9990    0.5815 C   0  0  0  0  0  0  0  0  0  0  0  0
    1.8302    1.4294   -1.8171 C   0  0  0  0  0  0  0  0  0  0  0  0
   -0.5846    0.6933    0.0769 C   0  0  0  0  0  0  0  0  0  0  0  0
   -0.3550   -0.6821    0.0818 C   0  0  0  0  0  0  0  0  0  0  0  0
    1.0305    0.6955   -2.7250 C   0  0  0  0  0  0  0  0  0  0  0  0
    4.0999    1.9171    0.4083 C   0  0  0  0  0  0  0  0  0  0  0  0
    2.6520    2.4309   -2.3552 C   0  0  0  0  0  0  0  0  0  0  0  0
    2.2141    2.8369    1.6018 C   0  0  0  0  0  0  0  0  0  0  0  0
   -1.8839    1.1926    0.0585 C   0  0  0  0  0  0  0  0  0  0  0  0
   -1.4250   -1.5667    0.0086 C   0  0  0  0  0  0  0  0  0  0  0  0
    1.0520    0.9488   -4.0964 C   0  0  0  0  0  0  0  0  0  0  0  0
    4.9731    2.6600    1.2040 C   0  0  0  0  0  0  0  0  0  0  0  0
    2.7025    2.6631   -3.7277 C   0  0  0  0  0  0  0  0  0  0  0  0
    3.0846    3.5673    2.4051 C   0  0  0  0  0  0  0  0  0  0  0  0
    1.8954    1.9332   -4.5849 C   0  0  0  0  0  0  0  0  0  0  0  0
    4.4527    3.4789    2.1980 C   0  0  0  0  0  0  0  0  0  0  0  0
   -2.9587    0.3101    0.0053 C   0  0  0  0  0  0  0  0  0  0  0  0
   -2.7280   -1.0665   -0.0339 C   0  0  0  0  0  0  0  0  0  0  0  0
    1.3121    1.6791   -6.3809 H   0  0  0  0  0  0  0  0  0  0  0  0
    6.1776    4.0771    2.7474 H   0  0  0  0  0  0  0  0  0  0  0  0
    1.1398   -2.1638    0.2078 H   0  0  0  0  0  0  0  0  0  0  0  0
    0.3513   -0.0799   -2.3823 H   0  0  0  0  0  0  0  0  0  0  0  0
    4.5199    1.2731   -0.3658 H   0  0  0  0  0  0  0  0  0  0  0  0
    3.2711    3.0622   -1.7256 H   0  0  0  0  0  0  0  0  0  0  0  0
    1.1473    2.9322    1.7928 H   0  0  0  0  0  0  0  0  0  0  0  0
   -2.0532    2.2668    0.0621 H   0  0  0  0  0  0  0  0  0  0  0  0
   -1.2579   -2.6382   -0.0461 H   0  0  0  0  0  0  0  0  0  0  0  0
    0.4050    0.3707   -4.7483 H   0  0  0  0  0  0  0  0  0  0  0  0
    6.0414    2.5749    1.0335 H   0  0  0  0  0  0  0  0  0  0  0  0
    3.3670    3.4267   -4.1182 H   0  0  0  0  0  0  0  0  0  0  0  0
    2.6887    4.1998    3.1932 H   0  0  0  0  0  0  0  0  0  0  0  0
   -3.9741    0.6972   -0.0169 H   0  0  0  0  0  0  0  0  0  0  0  0
   -3.5681   -1.7525   -0.0979 H   0  0  0  0  0  0  0  0  0  0  0  0
  1  6  1  0  0  0  0
  1 10  1  0  0  0  0
  2  7  2  0  0  0  0
  3 22  1  0  0  0  0
  3 26  1  0  0  0  0
  4 23  1  0  0  0  0
  4 27  1  0  0  0  0
  5  7  1  0  0  0  0
  5 11  1  0  0  0  0
  5 28  1  0  0  0  0
  6  7  1  0  0  0  0
  6  8  1  0  0  0  0
  6  9  1  0  0  0  0
  8 13  2  0  0  0  0
  8 15  1  0  0  0  0
  9 12  2  0  0  0  0
  9 14  1  0  0  0  0
 10 11  1  0  0  0  0
 10 16  2  0  0  0  0
 11 17  2  0  0  0  0
 12 18  1  0  0  0  0
 12 29  1  0  0  0  0
 13 19  1  0  0  0  0
 13 30  1  0  0  0  0
 14 20  2  0  0  0  0
 14 31  1  0  0  0  0
 15 21  2  0  0  0  0
 15 32  1  0  0  0  0
 16 24  1  0  0  0  0
 16 33  1  0  0  0  0
 17 25  1  0  0  0  0
 17 34  1  0  0  0  0
 18 22  2  0  0  0  0
 18 35  1  0  0  0  0
 19 23  2  0  0  0  0
 19 36  1  0  0  0  0
 20 22  1  0  0  0  0
 20 37  1  0  0  0  0
 21 23  1  0  0  0  0
 21 38  1  0  0  0  0
 24 25  2  0  0  0  0
 24 39  1  0  0  0  0
 25 40  1  0  0  0  0
M  END
>  <DRUGBANK_ID>
DB09219

>  <COMMON_NAME>
Bisoxatin

>  <CAS_NUMBER>
17692-24-9

>  <UNII>
7C75N0L7FP

>  <SYNONYMS>
Bisoxatin

$$$$
