
 OpenBabel10282417183D

 73 76  0  0  0  0  0  0  0  0999 V2000
    0.9763    0.0071   -0.1815 C   0  0  0  0  0  0  0  0  0  0  0  0
    0.2473   -1.2418    0.2058 C   0  0  0  0  0  0  0  0  0  0  0  0
   -0.8545   -1.1471    0.7511 O   0  0  0  0  0  0  0  0  0  0  0  0
    0.8121   -2.4699   -0.0737 N   0  0  0  0  0  0  0  0  0  0  0  0
    1.6889   -2.6395   -1.2230 C   0  0  0  0  0  0  0  0  0  0  0  0
    2.9600   -3.4346   -0.9281 C   0  0  0  0  0  0  0  0  0  0  0  0
    2.7599   -4.9273   -0.6248 C   0  0  0  0  0  0  0  0  0  0  0  0
    1.8926   -5.6306   -1.6475 C   0  0  0  0  0  0  0  0  0  0  0  0
    2.6246   -5.6668   -2.8893 N   0  0  0  0  0  0  0  0  0  0  0  0
    1.8042   -6.2578   -3.9266 C   0  0  0  0  0  0  0  0  0  0  0  0
    0.5544   -5.4208   -4.2923 C   0  0  0  0  0  0  0  0  0  0  0  0
    0.9060   -4.0400   -4.8366 C   0  0  0  0  0  0  0  0  0  0  0  0
    1.7591   -4.0334   -6.0156 N   0  0  0  0  0  0  0  0  0  0  0  0
    2.2264   -2.7819   -6.4181 C   0  0  0  0  0  0  0  0  0  0  0  0
    1.9223   -1.7233   -5.8720 O   0  0  0  0  0  0  0  0  0  0  0  0
    3.0874   -2.7693   -7.6125 C   0  0  0  0  0  0  0  0  0  0  0  0
    3.4600   -1.5803   -8.2262 C   0  0  0  0  0  0  0  0  0  0  0  0
    4.0421   -1.6388   -9.4918 C   0  0  0  0  0  0  0  0  0  0  0  0
    4.3226   -2.8719  -10.0896 C   0  0  0  0  0  0  0  0  0  0  0  0
    4.1299   -4.0497   -9.3839 C   0  0  0  0  0  0  0  0  0  0  0  0
    3.4544   -3.9852   -8.1779 C   0  0  0  0  0  0  0  0  0  0  0  0
    3.0105   -5.1663   -7.6254 N   0  0  0  0  0  0  0  0  0  0  0  0
    1.9907   -5.1921   -6.7417 C   0  0  0  0  0  0  0  0  0  0  0  0
    1.3780   -6.2555   -6.6728 O   0  0  0  0  0  0  0  0  0  0  0  0
    0.2037   -3.6479    0.5595 C   0  0  0  0  0  0  0  0  0  0  0  0
    0.8062   -3.8856    1.9518 C   0  0  0  0  0  0  0  0  0  0  0  0
    0.2538   -2.9114    2.9997 C   0  0  0  0  0  0  0  0  0  0  0  0
   -1.2046   -2.8719    3.0570 N   0  0  0  0  0  0  0  0  0  0  0  0
   -1.8833   -4.0831    3.0390 C   0  0  0  0  0  0  0  0  0  0  0  0
   -1.3590   -5.1939    3.0822 O   0  0  0  0  0  0  0  0  0  0  0  0
   -3.3326   -4.0341    2.8981 C   0  0  0  0  0  0  0  0  0  0  0  0
   -4.0547   -5.2248    2.8093 C   0  0  0  0  0  0  0  0  0  0  0  0
   -5.4112   -5.1721    2.5294 C   0  0  0  0  0  0  0  0  0  0  0  0
   -6.0392   -3.9325    2.3940 C   0  0  0  0  0  0  0  0  0  0  0  0
   -5.3303   -2.7455    2.6114 C   0  0  0  0  0  0  0  0  0  0  0  0
   -3.9564   -2.8009    2.8107 C   0  0  0  0  0  0  0  0  0  0  0  0
   -3.2003   -1.6400    2.9351 N   0  0  0  0  0  0  0  0  0  0  0  0
   -1.8419   -1.6339    3.1372 C   0  0  0  0  0  0  0  0  0  0  0  0
   -1.2772   -0.5678    3.3864 O   0  0  0  0  0  0  0  0  0  0  0  0
    0.6542    0.8095    0.4901 H   0  0  0  0  0  0  0  0  0  0  0  0
    0.6926    0.2574   -1.2044 H   0  0  0  0  0  0  0  0  0  0  0  0
    2.0608   -0.0872   -0.0798 H   0  0  0  0  0  0  0  0  0  0  0  0
    1.0754   -3.0640   -2.0213 H   0  0  0  0  0  0  0  0  0  0  0  0
    1.9892   -1.6648   -1.6179 H   0  0  0  0  0  0  0  0  0  0  0  0
    3.6210   -3.3346   -1.7983 H   0  0  0  0  0  0  0  0  0  0  0  0
    3.4881   -2.9687   -0.0906 H   0  0  0  0  0  0  0  0  0  0  0  0
    3.7308   -5.4249   -0.5470 H   0  0  0  0  0  0  0  0  0  0  0  0
    2.3108   -5.0777    0.3523 H   0  0  0  0  0  0  0  0  0  0  0  0
    1.6245   -6.6381   -1.3161 H   0  0  0  0  0  0  0  0  0  0  0  0
    0.9507   -5.1003   -1.7843 H   0  0  0  0  0  0  0  0  0  0  0  0
    2.9284   -4.7370   -3.1717 H   0  0  0  0  0  0  0  0  0  0  0  0
    2.5147   -6.3715   -4.7438 H   0  0  0  0  0  0  0  0  0  0  0  0
    1.5113   -7.2769   -3.6607 H   0  0  0  0  0  0  0  0  0  0  0  0
   -0.0601   -5.9530   -5.0242 H   0  0  0  0  0  0  0  0  0  0  0  0
   -0.1235   -5.3106   -3.4402 H   0  0  0  0  0  0  0  0  0  0  0  0
   -0.0011   -3.4612   -5.0519 H   0  0  0  0  0  0  0  0  0  0  0  0
    1.4325   -3.4587   -4.0689 H   0  0  0  0  0  0  0  0  0  0  0  0
    3.2430   -0.6243   -7.7567 H   0  0  0  0  0  0  0  0  0  0  0  0
    4.2592   -0.7196  -10.0269 H   0  0  0  0  0  0  0  0  0  0  0  0
    4.6723   -2.9204  -11.1163 H   0  0  0  0  0  0  0  0  0  0  0  0
    4.4178   -5.0068   -9.8084 H   0  0  0  0  0  0  0  0  0  0  0  0
    3.1841   -6.0561   -8.0730 H   0  0  0  0  0  0  0  0  0  0  0  0
   -0.8853   -3.5407    0.5778 H   0  0  0  0  0  0  0  0  0  0  0  0
    0.3272   -4.5414   -0.0440 H   0  0  0  0  0  0  0  0  0  0  0  0
    0.6381   -4.9291    2.2422 H   0  0  0  0  0  0  0  0  0  0  0  0
    1.8981   -3.7917    1.9396 H   0  0  0  0  0  0  0  0  0  0  0  0
    0.6187   -3.1885    3.9923 H   0  0  0  0  0  0  0  0  0  0  0  0
    0.6626   -1.9178    2.7833 H   0  0  0  0  0  0  0  0  0  0  0  0
   -3.5509   -6.1814    2.9314 H   0  0  0  0  0  0  0  0  0  0  0  0
   -5.9699   -6.0966    2.4176 H   0  0  0  0  0  0  0  0  0  0  0  0
   -7.0887   -3.8924    2.1170 H   0  0  0  0  0  0  0  0  0  0  0  0
   -5.8590   -1.7974    2.6223 H   0  0  0  0  0  0  0  0  0  0  0  0
   -3.6249   -0.7267    2.8423 H   0  0  0  0  0  0  0  0  0  0  0  0
  1  2  1  0  0  0  0
  1 40  1  0  0  0  0
  1 41  1  0  0  0  0
  1 42  1  0  0  0  0
  2  3  2  0  0  0  0
  2  4  1  0  0  0  0
  4  5  1  0  0  0  0
  4 25  1  0  0  0  0
  5  6  1  0  0  0  0
  5 43  1  0  0  0  0
  5 44  1  0  0  0  0
  6  7  1  0  0  0  0
  6 45  1  0  0  0  0
  6 46  1  0  0  0  0
  7  8  1  0  0  0  0
  7 47  1  0  0  0  0
  7 48  1  0  0  0  0
  8  9  1  0  0  0  0
  8 49  1  0  0  0  0
  8 50  1  0  0  0  0
  9 10  1  0  0  0  0
  9 51  1  0  0  0  0
 10 11  1  0  0  0  0
 10 52  1  0  0  0  0
 10 53  1  0  0  0  0
 11 12  1  0  0  0  0
 11 54  1  0  0  0  0
 11 55  1  0  0  0  0
 12 13  1  0  0  0  0
 12 56  1  0  0  0  0
 12 57  1  0  0  0  0
 13 14  1  0  0  0  0
 13 23  1  0  0  0  0
 14 15  2  0  0  0  0
 14 16  1  0  0  0  0
 16 17  2  0  0  0  0
 16 21  1  0  0  0  0
 17 18  1  0  0  0  0
 17 58  1  0  0  0  0
 18 19  2  0  0  0  0
 18 59  1  0  0  0  0
 19 20  1  0  0  0  0
 19 60  1  0  0  0  0
 20 21  2  0  0  0  0
 20 61  1  0  0  0  0
 21 22  1  0  0  0  0
 22 23  1  0  0  0  0
 22 62  1  0  0  0  0
 23 24  2  0  0  0  0
 25 26  1  0  0  0  0
 25 63  1  0  0  0  0
 25 64  1  0  0  0  0
 26 27  1  0  0  0  0
 26 65  1  0  0  0  0
 26 66  1  0  0  0  0
 27 28  1  0  0  0  0
 27 67  1  0  0  0  0
 27 68  1  0  0  0  0
 28 29  1  0  0  0  0
 28 38  1  0  0  0  0
 29 30  2  0  0  0  0
 29 31  1  0  0  0  0
 31 32  2  0  0  0  0
 31 36  1  0  0  0  0
 32 33  1  0  0  0  0
 32 69  1  0  0  0  0
 33 34  2  0  0  0  0
 33 70  1  0  0  0  0
 34 35  1  0  0  0  0
 34 71  1  0  0  0  0
 35 36  2  0  0  0  0
 35 72  1  0  0  0  0
 36 37  1  0  0  0  0
 37 38  1  0  0  0  0
 37 73  1  0  0  0  0
 38 39  2  0  0  0  0
M  END
>  <DRUGBANK_ID>
DB11670

>  <COMMON_NAME>
SP-8203

>  <CAS_NUMBER>
1176758-04-5

>  <UNII>
UYE03B60KA

$$$$
