34Q
 OpenBabel10282417163D

 46 49  0  0  0  0  0  0  0  0999 V2000
   -0.7579   -0.9401   -0.2008 N   0  0  0  0  0  0  0  0  0  0  0  0
   -0.1600    1.6935   -1.6276 N   0  0  0  0  0  0  0  0  0  0  0  0
    2.4399    0.5524   -1.0348 C   0  0  0  0  0  0  0  0  0  0  0  0
    4.4775   -0.2387    0.1708 C   0  0  0  0  0  0  0  0  0  0  0  0
    5.4723    0.5762    0.9879 C   0  0  0  0  0  0  0  0  0  0  0  0
    4.5666    1.8416   -0.8858 C   0  0  0  0  0  0  0  0  0  0  0  0
    5.5099    1.9591    0.3099 C   0  0  0  0  0  0  0  0  0  0  0  0
   -1.5663   -1.9695   -0.6711 C   0  0  0  0  0  0  0  0  0  0  0  0
   -5.7072   -1.4833   -1.2505 C   0  0  0  0  0  0  0  0  0  0  0  0
   -5.2558    0.3833   -2.7163 C   0  0  0  0  0  0  0  0  0  0  0  0
   -3.0322   -1.7530   -0.8774 C   0  0  0  0  0  0  0  0  0  0  0  0
   -1.1176   -3.0968   -0.9100 O   0  0  0  0  0  0  0  0  0  0  0  0
   -3.9424   -2.6152   -0.2896 C   0  0  0  0  0  0  0  0  0  0  0  0
   -5.2886   -2.4834   -0.4470 N   0  0  0  0  0  0  0  0  0  0  0  0
   -4.7725   -0.6220   -1.8853 C   0  0  0  0  0  0  0  0  0  0  0  0
   -3.4369   -0.7442   -1.6943 N   0  0  0  0  0  0  0  0  0  0  0  0
   -6.6249    0.5765   -2.9224 C   0  0  0  0  0  0  0  0  0  0  0  0
   -7.0715   -1.2780   -1.4606 C   0  0  0  0  0  0  0  0  0  0  0  0
   -7.5379   -0.2536   -2.2876 C   0  0  0  0  0  0  0  0  0  0  0  0
    0.6960   -1.0769   -0.0535 C   0  0  0  0  0  0  0  0  0  0  0  0
    1.2736    0.3478   -0.0288 C   0  0  2  0  0  0  0  0  0  0  0  0
    0.0303    1.2694   -0.2420 C   0  0  2  0  0  0  0  0  0  0  0  0
   -1.1597    0.3929    0.2070 C   0  0  0  0  0  0  0  0  0  0  0  0
    2.3111    0.5862   -2.2562 O   0  0  0  0  0  0  0  0  0  0  0  0
    3.6666    0.7952   -0.4377 N   0  0  0  0  0  0  0  0  0  0  0  0
    1.6659    0.5595    0.9791 H   0  0  0  0  0  0  0  0  0  0  0  0
    0.0952    2.1672    0.3826 H   0  0  0  0  0  0  0  0  0  0  0  0
   -0.6834    2.5569   -1.7120 H   0  0  0  0  0  0  0  0  0  0  0  0
   -0.6495    0.9669   -2.1561 H   0  0  0  0  0  0  0  0  0  0  0  0
    5.0117   -0.7921   -0.6172 H   0  0  0  0  0  0  0  0  0  0  0  0
    3.8821   -0.9505    0.7446 H   0  0  0  0  0  0  0  0  0  0  0  0
    5.1020    0.6806    2.0143 H   0  0  0  0  0  0  0  0  0  0  0  0
    6.4620    0.1128    1.0359 H   0  0  0  0  0  0  0  0  0  0  0  0
    4.0214    2.7648   -1.1013 H   0  0  0  0  0  0  0  0  0  0  0  0
    5.1158    1.5347   -1.7858 H   0  0  0  0  0  0  0  0  0  0  0  0
    5.1266    2.7106    1.0122 H   0  0  0  0  0  0  0  0  0  0  0  0
    6.5220    2.2618    0.0269 H   0  0  0  0  0  0  0  0  0  0  0  0
   -4.5456    1.0378   -3.2155 H   0  0  0  0  0  0  0  0  0  0  0  0
   -3.6268   -3.4382    0.3426 H   0  0  0  0  0  0  0  0  0  0  0  0
   -6.9706    1.3754   -3.5747 H   0  0  0  0  0  0  0  0  0  0  0  0
   -7.7903   -1.9290   -0.9665 H   0  0  0  0  0  0  0  0  0  0  0  0
   -8.6064   -0.1088   -2.4344 H   0  0  0  0  0  0  0  0  0  0  0  0
    0.8683   -1.5515    0.9241 H   0  0  0  0  0  0  0  0  0  0  0  0
    1.1218   -1.7245   -0.8219 H   0  0  0  0  0  0  0  0  0  0  0  0
   -2.1185    0.7039   -0.2108 H   0  0  0  0  0  0  0  0  0  0  0  0
   -1.2571    0.3913    1.3004 H   0  0  0  0  0  0  0  0  0  0  0  0
  1  8  1  0  0  0  0
  1 20  1  0  0  0  0
  1 23  1  0  0  0  0
  2 28  1  0  0  0  0
  2 29  1  0  0  0  0
  3 24  2  0  0  0  0
  3 25  1  0  0  0  0
  4  5  1  0  0  0  0
  4 25  1  0  0  0  0
  4 30  1  0  0  0  0
  4 31  1  0  0  0  0
  5  7  1  0  0  0  0
  5 32  1  0  0  0  0
  5 33  1  0  0  0  0
  6  7  1  0  0  0  0
  6 25  1  0  0  0  0
  6 34  1  0  0  0  0
  6 35  1  0  0  0  0
  7 36  1  0  0  0  0
  7 37  1  0  0  0  0
  8 11  1  0  0  0  0
  8 12  2  0  0  0  0
  9 14  2  0  0  0  0
  9 15  1  0  0  0  0
  9 18  1  0  0  0  0
 10 15  1  0  0  0  0
 10 17  2  0  0  0  0
 10 38  1  0  0  0  0
 11 13  2  0  0  0  0
 11 16  1  0  0  0  0
 13 14  1  0  0  0  0
 13 39  1  0  0  0  0
 15 16  2  0  0  0  0
 17 19  1  0  0  0  0
 17 40  1  0  0  0  0
 18 19  2  0  0  0  0
 18 41  1  0  0  0  0
 19 42  1  0  0  0  0
 20 21  1  0  0  0  0
 20 43  1  0  0  0  0
 20 44  1  0  0  0  0
 21 22  1  0  0  0  0
 21 26  1  1  0  0  0
 21  3  1  0  0  0  0
 22 23  1  0  0  0  0
 22 27  1  1  0  0  0
 22  2  1  0  0  0  0
 23 45  1  0  0  0  0
 23 46  1  0  0  0  0
M  END
>  <DRUGBANK_ID>
DB07015

>  <COMMON_NAME>
(3R,4R)-4-(pyrrolidin-1-ylcarbonyl)-1-(quinoxalin-2-ylcarbonyl)pyrrolidin-3-amine

$$$$
