
 OpenBabel10282417203D

 77 81  0  0  1  0  0  0  0  0999 V2000
    0.9412   -4.0354    4.5651 C   0  0  0  0  0  0  0  0  0  0  0  0
    1.6238   -5.1709    3.8717 C   0  0  0  0  0  0  0  0  0  0  0  0
    2.7545   -5.0108    3.2579 O   0  0  0  0  0  0  0  0  0  0  0  0
    0.9187   -6.3241    3.8445 O   0  0  0  0  0  0  0  0  0  0  0  0
    1.3826   -7.4399    3.0500 C   0  0  0  0  0  0  0  0  0  0  0  0
    1.2490   -7.7127    1.4107 C   0  0  0  0  0  0  0  0  0  0  0  0
    2.3224   -7.8682    0.8027 O   0  0  0  0  0  0  0  0  0  0  0  0
   -0.2691   -7.6442    0.5727 C   0  0  1  0  0  0  0  0  0  0  0  0
   -1.4651   -8.5770   -0.3905 C   0  0  1  0  0  0  0  0  0  0  0  0
   -2.3578   -7.6382   -1.2103 C   0  0  0  0  0  0  0  0  0  0  0  0
   -1.1823   -6.5616   -1.3510 C   0  0  2  0  0  0  0  0  0  0  0  0
   -0.3707   -6.2472    0.0722 C   0  0  2  0  0  0  0  0  0  0  0  0
    0.9781   -5.6303   -0.3048 C   0  0  0  0  0  0  0  0  0  0  0  0
    0.7068   -4.3389   -1.1475 C   0  0  1  0  0  0  0  0  0  0  0  0
    1.0372   -5.0074   -2.4313 C   0  0  1  0  0  0  0  0  0  0  0  0
   -0.2350   -6.0090   -2.5222 C   0  0  1  0  0  0  0  0  0  0  0  0
    0.4220   -7.1582   -3.2453 C   0  0  0  0  0  0  0  0  0  0  0  0
   -0.2849   -6.6545   -4.4399 C   0  0  0  0  0  0  0  0  0  0  0  0
    0.4613   -5.5701   -4.8909 C   0  0  0  0  0  0  0  0  0  0  0  0
    1.3241   -4.5009   -3.8431 C   0  0  2  0  0  0  0  0  0  0  0  0
    3.1116   -4.4740   -4.2220 C   0  0  0  0  0  0  0  0  0  0  0  0
    3.5933   -5.0214   -5.6478 C   0  0  0  0  0  0  0  0  0  0  0  0
    2.3006   -4.9992   -6.2967 C   0  0  0  0  0  0  0  0  0  0  0  0
    1.5806   -5.9641   -5.6913 C   0  0  0  0  0  0  0  0  0  0  0  0
    1.9319   -3.7793   -6.7548 O   0  0  0  0  0  0  0  0  0  0  0  0
    2.9935   -3.1135   -7.4895 C   0  0  0  0  0  0  0  0  0  0  0  0
    2.4251   -2.8125   -8.8440 C   0  0  0  0  0  0  0  0  0  0  0  0
    0.9287   -1.8732   -8.6615 Cl  0  0  0  0  0  0  0  0  0  0  0  0
    0.7094   -3.1026   -3.8855 C   0  0  0  0  0  0  0  0  0  0  0  0
   -1.1994   -7.8449   -4.6797 C   0  0  0  0  0  0  0  0  0  0  0  0
   -0.8361   -9.0064   -4.4371 O   0  0  0  0  0  0  0  0  0  0  0  0
    2.2795   -5.5444   -2.1585 F   0  0  0  0  0  0  0  0  0  0  0  0
   -0.6461   -3.8393   -1.0964 O   0  0  0  0  0  0  0  0  0  0  0  0
   -0.5101   -5.2113    1.2760 C   0  0  0  0  0  0  0  0  0  0  0  0
   -2.2407   -9.3354    0.5131 O   0  0  0  0  0  0  0  0  0  0  0  0
   -1.2626   -9.2999    1.5104 C   0  0  0  0  0  0  0  0  0  0  0  0
   -1.0038   -7.8999    1.7289 O   0  0  0  0  0  0  0  0  0  0  0  0
   -1.7443   -9.6564    2.8498 C   0  0  0  0  0  0  0  0  0  0  0  0
   -0.0416  -10.1641    0.9575 C   0  0  0  0  0  0  0  0  0  0  0  0
    1.4260   -3.0808    4.3126 H   0  0  0  0  0  0  0  0  0  0  0  0
    0.9661   -4.1432    5.6536 H   0  0  0  0  0  0  0  0  0  0  0  0
   -0.0930   -3.9563    4.2142 H   0  0  0  0  0  0  0  0  0  0  0  0
    2.4627   -7.5245    3.2711 H   0  0  0  0  0  0  0  0  0  0  0  0
    0.9932   -8.3402    3.5379 H   0  0  0  0  0  0  0  0  0  0  0  0
   -1.0633   -9.3067   -1.1315 H   0  0  0  0  0  0  0  0  0  0  0  0
   -2.6880   -8.3355   -2.0507 H   0  0  0  0  0  0  0  0  0  0  0  0
   -3.3606   -7.3022   -0.9098 H   0  0  0  0  0  0  0  0  0  0  0  0
   -0.9334   -7.4632   -1.8949 H   0  0  0  0  0  0  0  0  0  0  0  0
    1.5900   -6.4307   -0.7569 H   0  0  0  0  0  0  0  0  0  0  0  0
    1.6737   -5.3303    0.4922 H   0  0  0  0  0  0  0  0  0  0  0  0
    1.3456   -3.5292   -0.7966 H   0  0  0  0  0  0  0  0  0  0  0  0
   -1.1010   -5.4571   -2.9960 H   0  0  0  0  0  0  0  0  0  0  0  0
    0.4276   -8.0566   -2.6268 H   0  0  0  0  0  0  0  0  0  0  0  0
    1.1181   -7.6361   -3.9431 H   0  0  0  0  0  0  0  0  0  0  0  0
    3.4321   -3.4165   -4.1659 H   0  0  0  0  0  0  0  0  0  0  0  0
    3.7394   -4.9973   -3.4880 H   0  0  0  0  0  0  0  0  0  0  0  0
    4.4108   -4.4304   -6.0492 H   0  0  0  0  0  0  0  0  0  0  0  0
    3.8307   -6.0335   -6.0390 H   0  0  0  0  0  0  0  0  0  0  0  0
    2.1992   -6.6867   -5.0689 H   0  0  0  0  0  0  0  0  0  0  0  0
    3.3355   -2.2205   -6.9461 H   0  0  0  0  0  0  0  0  0  0  0  0
    3.8944   -3.7185   -7.6878 H   0  0  0  0  0  0  0  0  0  0  0  0
    3.1272   -2.2540   -9.4660 H   0  0  0  0  0  0  0  0  0  0  0  0
    2.1969   -3.7690   -9.3264 H   0  0  0  0  0  0  0  0  0  0  0  0
   -0.1362   -3.0170   -3.1934 H   0  0  0  0  0  0  0  0  0  0  0  0
    1.4052   -2.3037   -3.6030 H   0  0  0  0  0  0  0  0  0  0  0  0
    0.2914   -2.9342   -4.8698 H   0  0  0  0  0  0  0  0  0  0  0  0
   -2.2777   -7.6289   -4.6476 H   0  0  0  0  0  0  0  0  0  0  0  0
   -1.3031   -4.5539   -1.0488 H   0  0  0  0  0  0  0  0  0  0  0  0
   -1.3383   -5.2160    1.9698 H   0  0  0  0  0  0  0  0  0  0  0  0
    0.3424   -5.4423    1.9219 H   0  0  0  0  0  0  0  0  0  0  0  0
   -0.2010   -4.1638    1.0875 H   0  0  0  0  0  0  0  0  0  0  0  0
   -2.0223  -10.6978    2.8720 H   0  0  0  0  0  0  0  0  0  0  0  0
   -0.9218   -9.4143    3.5266 H   0  0  0  0  0  0  0  0  0  0  0  0
   -2.5901   -9.0062    3.1098 H   0  0  0  0  0  0  0  0  0  0  0  0
    0.3328   -9.8746   -0.0517 H   0  0  0  0  0  0  0  0  0  0  0  0
    0.8483  -10.0463    1.5619 H   0  0  0  0  0  0  0  0  0  0  0  0
   -0.3410  -11.1960    0.7991 H   0  0  0  0  0  0  0  0  0  0  0  0
  1  2  1  0  0  0  0
  1 40  1  0  0  0  0
  1 41  1  0  0  0  0
  1 42  1  0  0  0  0
  2  3  2  0  0  0  0
  2  4  1  0  0  0  0
  4  5  1  0  0  0  0
  5  6  1  0  0  0  0
  5 43  1  0  0  0  0
  5 44  1  0  0  0  0
  6  7  2  0  0  0  0
  8  6  1  1  0  0  0
  8  9  1  0  0  0  0
  8 12  1  0  0  0  0
  8 37  1  0  0  0  0
  9 10  1  0  0  0  0
  9 35  1  0  0  0  0
  9 45  1  1  0  0  0
 10 46  1  0  0  0  0
 10 47  1  0  0  0  0
 11 10  1  0  0  0  0
 11 12  1  0  0  0  0
 11 16  1  0  0  0  0
 11 48  1  6  0  0  0
 12 13  1  0  0  0  0
 12 34  1  1  0  0  0
 13 14  1  0  0  0  0
 13 49  1  0  0  0  0
 13 50  1  0  0  0  0
 14 15  1  0  0  0  0
 14 51  1  1  0  0  0
 14 33  1  0  0  0  0
 15 16  1  0  0  0  0
 15 20  1  0  0  0  0
 15 32  1  1  0  0  0
 16 17  1  0  0  0  0
 16 52  1  6  0  0  0
 17 18  1  0  0  0  0
 17 53  1  0  0  0  0
 17 54  1  0  0  0  0
 18 19  2  0  0  0  0
 18 30  1  0  0  0  0
 19 20  1  0  0  0  0
 19 24  1  0  0  0  0
 20 21  1  0  0  0  0
 20 29  1  6  0  0  0
 21 22  1  0  0  0  0
 21 55  1  0  0  0  0
 21 56  1  0  0  0  0
 22 23  1  0  0  0  0
 22 57  1  0  0  0  0
 22 58  1  0  0  0  0
 23 24  2  0  0  0  0
 23 25  1  0  0  0  0
 24 59  1  0  0  0  0
 25 26  1  0  0  0  0
 26 27  1  0  0  0  0
 26 60  1  0  0  0  0
 26 61  1  0  0  0  0
 27 28  1  0  0  0  0
 27 62  1  0  0  0  0
 27 63  1  0  0  0  0
 29 64  1  0  0  0  0
 29 65  1  0  0  0  0
 29 66  1  0  0  0  0
 30 31  2  0  0  0  0
 30 67  1  0  0  0  0
 33 68  1  0  0  0  0
 34 69  1  0  0  0  0
 34 70  1  0  0  0  0
 34 71  1  0  0  0  0
 35 36  1  0  0  0  0
 36 37  1  0  0  0  0
 36 38  1  0  0  0  0
 36 39  1  0  0  0  0
 38 72  1  0  0  0  0
 38 73  1  0  0  0  0
 38 74  1  0  0  0  0
 39 75  1  0  0  0  0
 39 76  1  0  0  0  0
 39 77  1  0  0  0  0
M  END
>  <DRUGBANK_ID>
DB13664

>  <COMMON_NAME>
Formocortal

>  <CAS_NUMBER>
2825-60-7

>  <UNII>
8E21R0Z4M5

>  <SYNONYMS>
Formocortal

$$$$
