
 OpenBabel10282417233D

116122  0  0  0  0  0  0  0  0999 V2000
    3.1439  -17.3061    1.7221 O   0  0  0  0  0  0  0  0  0  0  0  0
    4.4640  -16.2377    1.6924 C   0  0  2  0  0  0  0  0  0  0  0  0
    4.0340  -14.9779    2.2019 O   0  0  0  0  0  0  0  0  0  0  0  0
    5.2701  -16.1614    0.3175 C   0  0  1  0  0  0  0  0  0  0  0  0
    4.7865  -13.7853    1.9620 C   0  0  1  0  0  0  0  0  0  0  0  0
    6.1480  -14.8856    0.1710 C   0  0  2  0  0  0  0  0  0  0  0  0
    6.0941  -17.3233    0.1083 O   0  0  0  0  0  0  0  0  0  0  0  0
    5.3458  -13.6393    0.5441 C   0  0  2  0  0  0  0  0  0  0  0  0
    3.8172  -12.6173    2.2383 C   0  0  0  0  0  0  0  0  0  0  0  0
    6.6359  -14.7604   -1.1813 O   0  0  0  0  0  0  0  0  0  0  0  0
    6.1534  -12.4592    0.4611 O   0  0  0  0  0  0  0  0  0  0  0  0
    3.1860  -12.7918    3.5055 O   0  0  0  0  0  0  0  0  0  0  0  0
   -2.7308  -14.3160    1.8995 C   0  0  2  0  0  0  0  0  0  0  0  0
   -1.6837  -14.0334    0.7991 C   0  0  2  0  0  0  0  0  0  0  0  0
   -3.0246  -12.9837    2.1584 C   0  0  0  0  0  0  0  0  0  0  0  0
   -3.9423  -14.9562    1.4173 C   0  0  0  0  0  0  0  0  0  0  0  0
   -1.2247  -15.2999    0.2158 C   0  0  1  0  0  0  0  0  0  0  0  0
   -1.4002  -12.4572    0.6340 C   0  0  0  0  0  0  0  0  0  0  0  0
   -1.3643  -12.7075    2.7852 C   0  0  2  0  0  0  0  0  0  0  0  0
   -3.2887  -16.2954    0.8400 C   0  0  0  0  0  0  0  0  0  0  0  0
   -1.4522  -16.6907    0.2516 C   0  0  2  0  0  0  0  0  0  0  0  0
   -1.0477  -16.2391    1.8686 C   0  0  0  0  0  0  0  0  0  0  0  0
   -0.6733  -15.5449   -1.3232 C   0  0  0  0  0  0  0  0  0  0  0  0
   -1.9536  -11.6029    2.2865 C   0  0  0  0  0  0  0  0  0  0  0  0
   -0.0434  -11.7573    2.3484 O   0  0  0  0  0  0  0  0  0  0  0  0
    0.6561  -16.3951    0.6179 C   0  0  2  0  0  0  0  0  0  0  0  0
   -0.0445  -15.5301    2.7077 C   0  0  0  0  0  0  0  0  0  0  0  0
   -0.4209  -10.2026    1.6568 C   0  0  1  0  0  0  0  0  0  0  0  0
    0.8392  -15.1073    1.6600 C   0  0  0  0  0  0  0  0  0  0  0  0
   -1.2159   -9.2075    2.6591 C   0  0  2  0  0  0  0  0  0  0  0  0
    0.6249   -9.5585    0.9500 O   0  0  0  0  0  0  0  0  0  0  0  0
   -2.6204   -9.4788    3.0784 O   0  0  0  0  0  0  0  0  0  0  0  0
   -1.3884   -7.8323    2.1548 C   0  0  2  0  0  0  0  0  0  0  0  0
    0.0490   -8.4055    0.2583 C   0  0  1  0  0  0  0  0  0  0  0  0
   -3.6726   -9.8493    2.0904 C   0  0  2  0  0  0  0  0  0  0  0  0
   -0.3331   -7.3152    1.2644 C   0  0  1  0  0  0  0  0  0  0  0  0
   -1.7980   -6.9529    3.1935 O   0  0  0  0  0  0  0  0  0  0  0  0
    1.1350   -7.8300   -0.6059 C   0  0  0  0  0  0  0  0  0  0  0  0
   -3.2235  -10.5179    0.8748 O   0  0  0  0  0  0  0  0  0  0  0  0
   -4.4351   -8.6887    1.6333 C   0  0  1  0  0  0  0  0  0  0  0  0
   -0.8708   -6.1657    0.5973 O   0  0  0  0  0  0  0  0  0  0  0  0
    1.5252   -8.7880   -1.5761 O   0  0  0  0  0  0  0  0  0  0  0  0
   -4.2173  -11.1714    0.0401 C   0  0  1  0  0  0  0  0  0  0  0  0
   -5.3442   -9.0928    0.4920 C   0  0  2  0  0  0  0  0  0  0  0  0
   -5.0502   -8.0241    2.7171 O   0  0  0  0  0  0  0  0  0  0  0  0
   -4.7156   -9.9561   -0.6042 C   0  0  2  0  0  0  0  0  0  0  0  0
   -3.7422  -12.0866   -1.1802 C   0  0  0  0  0  0  0  0  0  0  0  0
   -5.6445   -7.8705   -0.1552 O   0  0  0  0  0  0  0  0  0  0  0  0
   -5.6614  -10.3528   -1.5706 O   0  0  0  0  0  0  0  0  0  0  0  0
   -0.6622  -13.8600    0.8968 H   0  0  0  0  0  0  0  0  0  0  0  0
   -1.8543  -17.0801   -0.6866 H   0  0  0  0  0  0  0  0  0  0  0  0
   -2.5476  -14.6420    3.3573 C   0  0  0  0  0  0  0  0  0  0  0  0
   -1.8058  -13.4823    3.9483 C   0  0  0  0  0  0  0  0  0  0  0  0
   -2.0707  -13.2667    5.2210 C   0  0  0  0  0  0  0  0  0  0  0  0
    1.9635  -15.8348   -0.1374 C   0  0  0  0  0  0  0  0  0  0  0  0
    1.7176  -17.5805    1.4010 C   0  0  0  0  0  0  0  0  0  0  0  0
    1.3120  -18.7305    1.5974 O   0  0  0  0  0  0  0  0  0  0  0  0
   -3.6534  -13.4743   -0.9769 O   0  0  0  0  0  0  0  0  0  0  0  0
    5.1919  -16.6409    2.4253 H   0  0  0  0  0  0  0  0  0  0  0  0
    4.6016  -16.1533   -0.5387 H   0  0  0  0  0  0  0  0  0  0  0  0
    5.6037  -13.7275    2.6942 H   0  0  0  0  0  0  0  0  0  0  0  0
    7.0587  -14.9456    0.7798 H   0  0  0  0  0  0  0  0  0  0  0  0
    6.8491  -17.3092    0.7234 H   0  0  0  0  0  0  0  0  0  0  0  0
    4.5400  -13.5100   -0.1896 H   0  0  0  0  0  0  0  0  0  0  0  0
    4.3408  -11.6584    2.2500 H   0  0  0  0  0  0  0  0  0  0  0  0
    3.0293  -12.5695    1.4756 H   0  0  0  0  0  0  0  0  0  0  0  0
    5.8798  -14.7311   -1.7950 H   0  0  0  0  0  0  0  0  0  0  0  0
    6.8864  -12.5331    1.0981 H   0  0  0  0  0  0  0  0  0  0  0  0
    2.6935  -13.6322    3.4483 H   0  0  0  0  0  0  0  0  0  0  0  0
   -3.9428  -12.6982    2.7353 H   0  0  0  0  0  0  0  0  0  0  0  0
   -3.3291  -12.5687    1.2266 H   0  0  0  0  0  0  0  0  0  0  0  0
   -4.6366  -14.2931    0.8403 H   0  0  0  0  0  0  0  0  0  0  0  0
   -4.6357  -15.0694    2.2783 H   0  0  0  0  0  0  0  0  0  0  0  0
   -1.5963  -11.6592   -0.0986 H   0  0  0  0  0  0  0  0  0  0  0  0
   -1.5265  -12.7939   -0.4266 H   0  0  0  0  0  0  0  0  0  0  0  0
   -4.1274  -16.5506    0.1488 H   0  0  0  0  0  0  0  0  0  0  0  0
   -3.5625  -16.9688    1.6691 H   0  0  0  0  0  0  0  0  0  0  0  0
   -1.9377  -16.6892    2.3249 H   0  0  0  0  0  0  0  0  0  0  0  0
   -0.6371  -17.3020    1.8402 H   0  0  0  0  0  0  0  0  0  0  0  0
   -0.0564  -14.7502   -1.7120 H   0  0  0  0  0  0  0  0  0  0  0  0
   -0.0501  -16.4781   -1.4093 H   0  0  0  0  0  0  0  0  0  0  0  0
   -1.4418  -15.8386   -2.0723 H   0  0  0  0  0  0  0  0  0  0  0  0
   -2.8393  -11.4397    2.9459 H   0  0  0  0  0  0  0  0  0  0  0  0
   -1.4487  -11.1103    3.1561 H   0  0  0  0  0  0  0  0  0  0  0  0
   -0.2409  -14.6151    3.1894 H   0  0  0  0  0  0  0  0  0  0  0  0
    0.3165  -16.2258    3.4446 H   0  0  0  0  0  0  0  0  0  0  0  0
   -1.0912  -10.3649    0.8257 H   0  0  0  0  0  0  0  0  0  0  0  0
    0.7674  -14.0812    1.2683 H   0  0  0  0  0  0  0  0  0  0  0  0
    1.7914  -14.7896    2.0569 H   0  0  0  0  0  0  0  0  0  0  0  0
   -0.5917   -9.2325    3.5612 H   0  0  0  0  0  0  0  0  0  0  0  0
   -2.1972   -7.8610    1.4717 H   0  0  0  0  0  0  0  0  0  0  0  0
   -0.8049   -8.7034   -0.3916 H   0  0  0  0  0  0  0  0  0  0  0  0
   -4.3646  -10.4872    2.6773 H   0  0  0  0  0  0  0  0  0  0  0  0
    0.5053   -7.0390    1.8994 H   0  0  0  0  0  0  0  0  0  0  0  0
   -1.2541   -7.1374    3.9780 H   0  0  0  0  0  0  0  0  0  0  0  0
    0.7890   -6.9219   -1.1046 H   0  0  0  0  0  0  0  0  0  0  0  0
    1.9830   -7.6088    0.0455 H   0  0  0  0  0  0  0  0  0  0  0  0
   -3.7684   -8.0051    1.1580 H   0  0  0  0  0  0  0  0  0  0  0  0
   -1.7362   -6.3909    0.2018 H   0  0  0  0  0  0  0  0  0  0  0  0
    1.7706   -9.5852   -1.0684 H   0  0  0  0  0  0  0  0  0  0  0  0
   -4.9594  -11.7141    0.6487 H   0  0  0  0  0  0  0  0  0  0  0  0
   -6.2139   -9.6130    0.9074 H   0  0  0  0  0  0  0  0  0  0  0  0
   -5.4667   -8.6845    3.2956 H   0  0  0  0  0  0  0  0  0  0  0  0
   -3.8338   -9.4766   -1.0766 H   0  0  0  0  0  0  0  0  0  0  0  0
   -4.4536  -12.1717   -1.9845 H   0  0  0  0  0  0  0  0  0  0  0  0
   -2.8266  -11.6791   -1.6109 H   0  0  0  0  0  0  0  0  0  0  0  0
   -4.7693   -7.5181   -0.4204 H   0  0  0  0  0  0  0  0  0  0  0  0
   -6.1957  -11.0549   -1.1519 H   0  0  0  0  0  0  0  0  0  0  0  0
   -3.5070  -14.8212    3.8375 H   0  0  0  0  0  0  0  0  0  0  0  0
   -2.0639  -15.5604    3.5677 H   0  0  0  0  0  0  0  0  0  0  0  0
   -1.6691  -12.4539    5.7789 H   0  0  0  0  0  0  0  0  0  0  0  0
   -2.8265  -13.9472    5.6180 H   0  0  0  0  0  0  0  0  0  0  0  0
    2.6667  -16.6018   -0.4748 H   0  0  0  0  0  0  0  0  0  0  0  0
    2.2189  -14.7988   -0.4168 H   0  0  0  0  0  0  0  0  0  0  0  0
    2.5701  -15.6395    0.7596 H   0  0  0  0  0  0  0  0  0  0  0  0
   -3.2120  -13.5639   -0.1484 H   0  0  0  0  0  0  0  0  0  0  0  0
  2  3  1  0  0  0  0
  2  4  1  0  0  0  0
  2 59  1  1  0  0  0
  2  1  1  0  0  0  0
  3  5  1  0  0  0  0
  4  6  1  0  0  0  0
  4  7  1  0  0  0  0
  4 60  1  6  0  0  0
  5  8  1  0  0  0  0
  5  9  1  0  0  0  0
  5 61  1  1  0  0  0
  6 10  1  0  0  0  0
  6  8  1  0  0  0  0
  6 62  1  1  0  0  0
  7 63  1  0  0  0  0
  8 11  1  0  0  0  0
  8 64  1  6  0  0  0
  9 12  1  0  0  0  0
  9 65  1  0  0  0  0
  9 66  1  0  0  0  0
 10 67  1  0  0  0  0
 11 68  1  0  0  0  0
 12 69  1  0  0  0  0
 13 14  1  0  0  0  0
 13 15  1  6  0  0  0
 13 16  1  0  0  0  0
 13 52  1  0  0  0  0
 14 17  1  0  0  0  0
 14 18  1  0  0  0  0
 14 50  1  6  0  0  0
 15 19  1  0  0  0  0
 15 70  1  0  0  0  0
 15 71  1  0  0  0  0
 16 20  1  0  0  0  0
 16 72  1  0  0  0  0
 16 73  1  0  0  0  0
 17 21  1  0  0  0  0
 17 22  1  0  0  0  0
 17 23  1  1  0  0  0
 18 24  1  0  0  0  0
 18 74  1  0  0  0  0
 18 75  1  0  0  0  0
 19 24  1  0  0  0  0
 19 53  1  0  0  0  0
 19 25  1  6  0  0  0
 20 21  1  0  0  0  0
 20 76  1  0  0  0  0
 20 77  1  0  0  0  0
 21 26  1  0  0  0  0
 21 51  1  6  0  0  0
 22 27  1  0  0  0  0
 22 78  1  0  0  0  0
 22 79  1  0  0  0  0
 23 80  1  0  0  0  0
 23 81  1  0  0  0  0
 23 82  1  0  0  0  0
 24 83  1  0  0  0  0
 24 84  1  0  0  0  0
 26 29  1  0  0  0  0
 26 55  1  0  0  0  0
 26 56  1  1  0  0  0
 27 29  1  0  0  0  0
 27 85  1  0  0  0  0
 27 86  1  0  0  0  0
 28 30  1  0  0  0  0
 28 31  1  0  0  0  0
 28 87  1  6  0  0  0
 28 25  1  0  0  0  0
 29 88  1  0  0  0  0
 29 89  1  0  0  0  0
 30 32  1  0  0  0  0
 30 33  1  0  0  0  0
 30 90  1  1  0  0  0
 31 34  1  0  0  0  0
 33 36  1  0  0  0  0
 33 37  1  0  0  0  0
 33 91  1  6  0  0  0
 34 38  1  0  0  0  0
 34 36  1  0  0  0  0
 34 92  1  6  0  0  0
 35 39  1  0  0  0  0
 35 40  1  0  0  0  0
 35 93  1  1  0  0  0
 35 32  1  0  0  0  0
 36 41  1  0  0  0  0
 36 94  1  1  0  0  0
 37 95  1  0  0  0  0
 38 42  1  0  0  0  0
 38 96  1  0  0  0  0
 38 97  1  0  0  0  0
 39 43  1  0  0  0  0
 40 44  1  0  0  0  0
 40 45  1  0  0  0  0
 40 98  1  6  0  0  0
 41 99  1  0  0  0  0
 42100  1  0  0  0  0
 43 46  1  0  0  0  0
 43 47  1  0  0  0  0
 43101  1  1  0  0  0
 44 48  1  0  0  0  0
 44 46  1  0  0  0  0
 44102  1  1  0  0  0
 45103  1  0  0  0  0
 46 49  1  0  0  0  0
 46104  1  6  0  0  0
 47 58  1  0  0  0  0
 47105  1  0  0  0  0
 47106  1  0  0  0  0
 48107  1  0  0  0  0
 49108  1  0  0  0  0
 52 53  1  0  0  0  0
 52109  1  0  0  0  0
 52110  1  0  0  0  0
 53 54  2  0  0  0  0
 54111  1  0  0  0  0
 54112  1  0  0  0  0
 55113  1  0  0  0  0
 55114  1  0  0  0  0
 55115  1  0  0  0  0
 56  1  1  0  0  0  0
 56 57  2  0  0  0  0
 58116  1  0  0  0  0
M  END
>  <DRUGBANK_ID>
DB16882

>  <COMMON_NAME>
Stevioside

>  <CAS_NUMBER>
57817-89-7

>  <UNII>
0YON5MXJ9P

>  <SYNONYMS>
Steviosin

$$$$
