
 OpenBabel10282417183D

 41 43  0  0  0  0  0  0  0  0999 V2000
    1.0748   -0.1037    0.0402 O   0  0  0  0  0  0  0  0  0  0  0  0
    4.3439    0.3714    1.1715 C   0  0  0  0  0  0  0  0  0  0  0  0
    3.1559    1.1382    0.5578 C   0  0  3  0  0  0  0  0  0  0  0  0
    4.5833   -0.4409   -0.0999 C   0  0  3  0  0  0  0  0  0  0  0  0
    3.7611    1.7321   -0.7454 C   0  0  0  0  0  0  0  0  0  0  0  0
    4.7500    0.6267   -1.2030 C   0  0  0  0  0  0  0  0  0  0  0  0
    3.2541   -1.1164   -0.3891 C   0  0  0  0  0  0  0  0  0  0  0  0
    2.2933   -0.0425    0.0803 C   0  0  0  0  0  0  0  0  0  0  0  0
    4.0292   -0.5113    2.3942 C   0  0  0  0  0  0  0  0  0  0  0  0
    5.5759    1.2206    1.5367 C   0  0  0  0  0  0  0  0  0  0  0  0
    2.5190    2.1277    1.4987 C   0  0  0  0  0  0  0  0  0  0  0  0
    2.9666   -2.3138   -0.9301 C   0  0  0  0  0  0  0  0  0  0  0  0
    3.9681   -3.3156   -1.3833 C   0  0  0  0  0  0  0  0  0  0  0  0
    5.3364   -3.0294   -1.4566 C   0  0  0  0  0  0  0  0  0  0  0  0
    3.5904   -4.6020   -1.7816 C   0  0  0  0  0  0  0  0  0  0  0  0
    6.3082   -3.9698   -1.7525 C   0  0  0  0  0  0  0  0  0  0  0  0
    4.5625   -5.5496   -2.1650 C   0  0  0  0  0  0  0  0  0  0  0  0
    5.9287   -5.2427   -2.1233 C   0  0  0  0  0  0  0  0  0  0  0  0
    6.9887   -6.2243   -2.5028 C   0  0  0  0  0  0  0  0  0  0  0  0
    5.4366   -1.0747    0.1081 H   0  0  0  0  0  0  0  0  0  0  0  0
    4.2972    2.6694   -0.5617 H   0  0  0  0  0  0  0  0  0  0  0  0
    3.0010    1.9210   -1.5112 H   0  0  0  0  0  0  0  0  0  0  0  0
    4.5102    0.2570   -2.2080 H   0  0  0  0  0  0  0  0  0  0  0  0
    5.7792    0.9978   -1.2443 H   0  0  0  0  0  0  0  0  0  0  0  0
    4.8972   -1.1352    2.6408 H   0  0  0  0  0  0  0  0  0  0  0  0
    3.8046    0.1103    3.2650 H   0  0  0  0  0  0  0  0  0  0  0  0
    3.1850   -1.1919    2.2480 H   0  0  0  0  0  0  0  0  0  0  0  0
    5.9654    1.8245    0.7138 H   0  0  0  0  0  0  0  0  0  0  0  0
    5.3413    1.9065    2.3531 H   0  0  0  0  0  0  0  0  0  0  0  0
    6.4004    0.5716    1.8540 H   0  0  0  0  0  0  0  0  0  0  0  0
    2.1323    1.6268    2.3925 H   0  0  0  0  0  0  0  0  0  0  0  0
    3.2522    2.8716    1.8312 H   0  0  0  0  0  0  0  0  0  0  0  0
    1.6899    2.6575    1.0260 H   0  0  0  0  0  0  0  0  0  0  0  0
    1.9190   -2.5977   -1.0438 H   0  0  0  0  0  0  0  0  0  0  0  0
    5.7421   -2.0462   -1.3285 H   0  0  0  0  0  0  0  0  0  0  0  0
    2.5417   -4.8905   -1.8165 H   0  0  0  0  0  0  0  0  0  0  0  0
    7.3512   -3.6660   -1.7133 H   0  0  0  0  0  0  0  0  0  0  0  0
    4.2459   -6.5354   -2.4965 H   0  0  0  0  0  0  0  0  0  0  0  0
    6.9401   -7.0984   -1.8502 H   0  0  0  0  0  0  0  0  0  0  0  0
    6.8696   -6.5171   -3.5486 H   0  0  0  0  0  0  0  0  0  0  0  0
    7.9884   -5.7837   -2.3943 H   0  0  0  0  0  0  0  0  0  0  0  0
  1  8  2  0  0  0  0
  2  3  1  0  0  0  0
  2  4  1  0  0  0  0
  2  9  1  0  0  0  0
  2 10  1  0  0  0  0
  3  5  1  0  0  0  0
  3  8  1  0  0  0  0
  3 11  1  0  0  0  0
  4  6  1  0  0  0  0
  4  7  1  0  0  0  0
  4 20  1  0  0  0  0
  5  6  1  0  0  0  0
  5 21  1  0  0  0  0
  5 22  1  0  0  0  0
  6 23  1  0  0  0  0
  6 24  1  0  0  0  0
  7  8  1  0  0  0  0
  7 12  2  0  0  0  0
  9 25  1  0  0  0  0
  9 26  1  0  0  0  0
  9 27  1  0  0  0  0
 10 28  1  0  0  0  0
 10 29  1  0  0  0  0
 10 30  1  0  0  0  0
 11 31  1  0  0  0  0
 11 32  1  0  0  0  0
 11 33  1  0  0  0  0
 12 13  1  0  0  0  0
 12 34  1  0  0  0  0
 13 14  2  0  0  0  0
 13 15  1  0  0  0  0
 14 16  1  0  0  0  0
 14 35  1  0  0  0  0
 15 17  2  0  0  0  0
 15 36  1  0  0  0  0
 16 18  2  0  0  0  0
 16 37  1  0  0  0  0
 17 18  1  0  0  0  0
 17 38  1  0  0  0  0
 18 19  1  0  0  0  0
 19 39  1  0  0  0  0
 19 40  1  0  0  0  0
 19 41  1  0  0  0  0
M  END
>  <DRUGBANK_ID>
DB11219

>  <COMMON_NAME>
Enzacamene

>  <CAS_NUMBER>
36861-47-9

>  <UNII>
8I3XWY40L9

>  <SYNONYMS>
(+/-)-3-(p-methylbenzylidene)camphor; 3-(4-methylbenzylidene)camphor; 3-(p-Methylbenzylidene)-DL-camphor; 4-MBC; 4-methylbenzylidene camphor; enzacam√®ne; Enzacamene; Enzacamene D-L form; enzacameno; enzacamenum; Methyl benzylidene camphor

$$$$
