
 OpenBabel10282417213D

 38 38  0  0  0  0  0  0  0  0999 V2000
    1.8786    0.5006   -0.6172 C   0  0  0  0  0  0  0  0  0  0  0  0
    0.9052    1.6447    0.4013 C   0  0  0  0  0  0  0  0  0  0  0  0
    1.2239    2.8807   -0.3804 C   0  0  0  0  0  0  0  0  0  0  0  0
   -0.9100    1.6129    0.5436 C   0  0  0  0  0  0  0  0  0  0  0  0
   -1.6083    0.6368    1.3957 O   0  0  0  0  0  0  0  0  0  0  0  0
    1.2937    1.7182    1.8188 N   0  0  0  0  0  0  0  0  0  0  0  0
    0.3473   -0.7929    0.9320 C   0  0  0  0  0  0  0  0  0  0  0  0
    0.1442   -1.7756   -0.0819 N   0  0  0  0  0  0  0  0  0  0  0  0
   -0.5444   -1.6454   -1.3107 C   0  0  0  0  0  0  0  0  0  0  0  0
   -0.7144   -2.7644   -2.0785 C   0  0  0  0  0  0  0  0  0  0  0  0
   -0.1225   -4.0145   -1.6410 C   0  0  0  0  0  0  0  0  0  0  0  0
   -0.4173   -5.0948   -2.1585 O   0  0  0  0  0  0  0  0  0  0  0  0
    0.7893   -3.9292   -0.5942 N   0  0  0  0  0  0  0  0  0  0  0  0
    1.0399   -2.8235    0.1584 C   0  0  0  0  0  0  0  0  0  0  0  0
    1.8892   -2.6842    0.9951 O   0  0  0  0  0  0  0  0  0  0  0  0
    1.4339   -5.0769   -0.0448 C   0  0  0  0  0  0  0  0  0  0  0  0
   -1.5105   -2.5026   -3.1773 N   0  0  0  0  0  0  0  0  0  0  0  0
   -1.7549   -1.2115   -3.1431 C   0  0  0  0  0  0  0  0  0  0  0  0
   -1.1082   -0.6258   -2.0749 N   0  0  0  0  0  0  0  0  0  0  0  0
    1.3835    0.3222   -1.5815 H   0  0  0  0  0  0  0  0  0  0  0  0
    2.0670   -0.5298   -0.2966 H   0  0  0  0  0  0  0  0  0  0  0  0
    2.9574    0.6933   -0.7365 H   0  0  0  0  0  0  0  0  0  0  0  0
    0.8125    2.7306   -1.3855 H   0  0  0  0  0  0  0  0  0  0  0  0
    0.7946    3.7684    0.0719 H   0  0  0  0  0  0  0  0  0  0  0  0
    2.3124    2.9624   -0.4499 H   0  0  0  0  0  0  0  0  0  0  0  0
   -1.2458    2.5386    1.0107 H   0  0  0  0  0  0  0  0  0  0  0  0
   -1.3682    1.5170   -0.4379 H   0  0  0  0  0  0  0  0  0  0  0  0
   -1.7507   -0.2483    0.9960 H   0  0  0  0  0  0  0  0  0  0  0  0
    2.2783    1.7017    2.0628 H   0  0  0  0  0  0  0  0  0  0  0  0
    0.8199    2.4687    2.3347 H   0  0  0  0  0  0  0  0  0  0  0  0
   -0.1527   -0.8491    1.8859 H   0  0  0  0  0  0  0  0  0  0  0  0
    0.0021   -0.0512    0.2773 H   0  0  0  0  0  0  0  0  0  0  0  0
    1.3750   -0.5822    1.2643 H   0  0  0  0  0  0  0  0  0  0  0  0
    0.6521   -5.7117    0.3689 H   0  0  0  0  0  0  0  0  0  0  0  0
    2.0093   -5.5590   -0.8271 H   0  0  0  0  0  0  0  0  0  0  0  0
    2.1128   -4.8212    0.7806 H   0  0  0  0  0  0  0  0  0  0  0  0
   -2.3606   -0.6520   -3.8594 H   0  0  0  0  0  0  0  0  0  0  0  0
   -1.0346    0.3812   -1.9961 H   0  0  0  0  0  0  0  0  0  0  0  0
  1  2  1  0  0  0  0
  1 20  1  0  0  0  0
  1 21  1  0  0  0  0
  1 22  1  0  0  0  0
  2  3  1  0  0  0  0
  2  4  1  0  0  0  0
  2  6  1  0  0  0  0
  3 23  1  0  0  0  0
  3 24  1  0  0  0  0
  3 25  1  0  0  0  0
  4  5  1  0  0  0  0
  4 26  1  0  0  0  0
  4 27  1  0  0  0  0
  5 28  1  0  0  0  0
  6 29  1  0  0  0  0
  6 30  1  0  0  0  0
  7  8  1  0  0  0  0
  7 31  1  0  0  0  0
  7 32  1  0  0  0  0
  7 33  1  0  0  0  0
  8  9  1  0  0  0  0
  8 14  1  0  0  0  0
  9 10  2  0  0  0  0
  9 19  1  0  0  0  0
 10 11  1  0  0  0  0
 10 17  1  0  0  0  0
 11 12  2  0  0  0  0
 11 13  1  0  0  0  0
 13 14  1  0  0  0  0
 13 16  1  0  0  0  0
 14 15  2  0  0  0  0
 16 34  1  0  0  0  0
 16 35  1  0  0  0  0
 16 36  1  0  0  0  0
 17 18  2  0  0  0  0
 18 19  1  0  0  0  0
 18 37  1  0  0  0  0
 19 38  1  0  0  0  0
M  END
>  <DRUGBANK_ID>
DB13812

>  <COMMON_NAME>
Bufylline

>  <CAS_NUMBER>
5634-34-4

>  <UNII>
VOU5V0B772

>  <SYNONYMS>
Ambuphylline

$$$$
