794
 OpenBabel10282417113D

 30 31  0  0  0  0  0  0  0  0999 V2000
    1.1803   -0.2808   -0.2740 O   0  0  0  0  0  0  0  0  0  0  0  0
    4.4989    1.9710    1.8835 O   0  0  0  0  0  0  0  0  0  0  0  0
    3.2265   -1.2455   -0.0381 N   0  0  0  0  0  0  0  0  0  0  0  0
    4.9397   -0.0825    1.0244 N   0  0  0  0  0  0  0  0  0  0  0  0
    3.1658    1.1893   -0.0628 C   0  0  0  0  0  0  0  0  0  0  0  0
    3.9855    1.1835   -1.4033 C   0  0  0  0  0  0  0  0  0  0  0  0
    2.3151    2.4596    0.0689 C   0  0  0  0  0  0  0  0  0  0  0  0
    2.3846   -0.1409   -0.0821 C   0  0  0  0  0  0  0  0  0  0  0  0
    4.2188    1.0971    1.0639 C   0  0  0  0  0  0  0  0  0  0  0  0
    4.1501   -1.2700    1.0484 C   0  0  0  0  0  0  0  0  0  0  0  0
    3.1175    1.0999   -2.6624 C   0  0  0  0  0  0  0  0  0  0  0  0
    1.4449    2.6124    1.1537 C   0  0  0  0  0  0  0  0  0  0  0  0
    2.4361    3.5470   -0.8260 C   0  0  0  0  0  0  0  0  0  0  0  0
    0.7200    3.7945    1.3190 C   0  0  0  0  0  0  0  0  0  0  0  0
    1.6986    4.7143   -0.6771 C   0  0  0  0  0  0  0  0  0  0  0  0
    0.8325    4.8341    0.3959 C   0  0  0  0  0  0  0  0  0  0  0  0
    2.8218   -2.1194   -0.3447 H   0  0  0  0  0  0  0  0  0  0  0  0
    5.8076   -0.0739    1.5417 H   0  0  0  0  0  0  0  0  0  0  0  0
    4.6490    2.0577   -1.4338 H   0  0  0  0  0  0  0  0  0  0  0  0
    4.6744    0.3298   -1.4445 H   0  0  0  0  0  0  0  0  0  0  0  0
    3.5815   -1.3082    1.9889 H   0  0  0  0  0  0  0  0  0  0  0  0
    4.7962   -2.1470    0.9791 H   0  0  0  0  0  0  0  0  0  0  0  0
    2.3747    1.8958   -2.7410 H   0  0  0  0  0  0  0  0  0  0  0  0
    3.7513    1.1619   -3.5492 H   0  0  0  0  0  0  0  0  0  0  0  0
    2.5612    0.1601   -2.6964 H   0  0  0  0  0  0  0  0  0  0  0  0
    1.3459    1.8235    1.8955 H   0  0  0  0  0  0  0  0  0  0  0  0
    3.1105    3.5308   -1.6774 H   0  0  0  0  0  0  0  0  0  0  0  0
    0.0763    3.9086    2.1853 H   0  0  0  0  0  0  0  0  0  0  0  0
    1.8274    5.5222   -1.3922 H   0  0  0  0  0  0  0  0  0  0  0  0
    0.2580    5.7454    0.5195 H   0  0  0  0  0  0  0  0  0  0  0  0
  1  8  2  0  0  0  0
  2  9  2  0  0  0  0
  3  8  1  0  0  0  0
  3 10  1  0  0  0  0
  3 17  1  0  0  0  0
  4  9  1  0  0  0  0
  4 10  1  0  0  0  0
  4 18  1  0  0  0  0
  5  6  1  0  0  0  0
  5  7  1  0  0  0  0
  5  8  1  0  0  0  0
  5  9  1  0  0  0  0
  6 11  1  0  0  0  0
  6 19  1  0  0  0  0
  6 20  1  0  0  0  0
  7 12  2  0  0  0  0
  7 13  1  0  0  0  0
 10 21  1  0  0  0  0
 10 22  1  0  0  0  0
 11 23  1  0  0  0  0
 11 24  1  0  0  0  0
 11 25  1  0  0  0  0
 12 14  1  0  0  0  0
 12 26  1  0  0  0  0
 13 15  2  0  0  0  0
 13 27  1  0  0  0  0
 14 16  2  0  0  0  0
 14 28  1  0  0  0  0
 15 16  1  0  0  0  0
 15 29  1  0  0  0  0
 16 30  1  0  0  0  0
M  END
>  <DRUGBANK_ID>
DB00794

>  <SECONDARY_ACCESSION_NUMBERS>
APRD00549

>  <COMMON_NAME>
Primidone

>  <CAS_NUMBER>
125-33-7

>  <UNII>
13AFD7670Q

>  <SYNONYMS>
2-deoxyphenobarbital; 5-Phenyl-5-ethyl-Hexahydropyrimidine-4,6-dione; Primidon; Primidona; Primidone; Primidonum

$$$$
