
 OpenBabel10282417183D

  8  8  0  0  0  0  0  0  0  0999 V2000
   -1.7439    0.0012    1.0869 S   0  0  0  0  0  0  0  0  0  0  0  0
   -1.8204    1.6569   -0.1091 S   0  0  0  0  0  0  0  0  0  0  0  0
   -1.8229   -1.6542   -0.1090 S   0  0  0  0  0  0  0  0  0  0  0  0
    0.0306    1.8722   -0.9742 S   0  0  0  0  0  0  0  0  0  0  0  0
    0.0279   -1.8723   -0.9741 S   0  0  0  0  0  0  0  0  0  0  0  0
    1.4174    1.6726    0.5285 S   0  0  0  0  0  0  0  0  0  0  0  0
    1.4150   -1.6746    0.5285 S   0  0  0  0  0  0  0  0  0  0  0  0
    2.4974   -0.0018    0.0215 S   0  0  0  0  0  0  0  0  0  0  0  0
  2  1  1  0  0  0  0
  3  1  1  0  0  0  0
  4  2  1  0  0  0  0
  5  3  1  0  0  0  0
  6  4  1  0  0  0  0
  7  5  1  0  0  0  0
  8  6  1  0  0  0  0
  8  7  1  0  0  0  0
M  END
>  <DRUGBANK_ID>
DB09353

>  <COMMON_NAME>
Octasulfur

>  <CAS_NUMBER>
10544-50-0

>  <UNII>
70FD1KFU70

>  <SYNONYMS>
Cyclooctasulfur

$$$$
