
 OpenBabel10282417223D

 52 54  0  0  1  0  0  0  0  0999 V2000
    3.0697    2.4779   -7.7851 C   0  0  0  0  0  0  0  0  0  0  0  0
    3.0669    3.0362   -6.3924 C   0  0  0  0  0  0  0  0  0  0  0  0
    3.0995    1.9960   -5.3850 N   0  0  0  0  0  0  0  0  0  0  0  0
    4.2282    1.9426   -4.6500 C   0  0  0  0  0  0  0  0  0  0  0  0
    3.8459    1.9826   -2.8446 C   0  0  0  0  0  0  0  0  0  0  0  0
    2.3153    0.9108   -5.1190 C   0  0  0  0  0  0  0  0  0  0  0  0
    1.1971    0.8404   -5.5865 O   0  0  0  0  0  0  0  0  0  0  0  0
    2.8972   -0.1490   -4.0644 C   0  0  1  0  0  0  0  0  0  0  0  0
    2.2009   -1.4547   -4.4008 C   0  0  0  0  0  0  0  0  0  0  0  0
    2.6642   -2.5470   -3.4703 C   0  0  0  0  0  0  0  0  0  0  0  0
    4.1380   -2.8926   -3.7551 C   0  0  0  0  0  0  0  0  0  0  0  0
    5.0489   -1.6594   -3.6655 C   0  0  0  0  0  0  0  0  0  0  0  0
    4.5756   -0.3633   -3.7302 C   0  0  0  0  0  0  0  0  0  0  0  0
    5.9023    0.6325   -3.5220 C   0  0  0  0  0  0  0  0  0  0  0  0
    6.3066    2.2338   -3.5443 C   0  0  0  0  0  0  0  0  0  0  0  0
    5.5162    3.4348   -3.1629 O   0  0  0  0  0  0  0  0  0  0  0  0
    4.8382    4.5386   -3.8483 C   0  0  0  0  0  0  0  0  0  0  0  0
    7.5587    2.7142   -3.7019 C   0  0  0  0  0  0  0  0  0  0  0  0
    8.5184    1.7475   -3.6916 C   0  0  0  0  0  0  0  0  0  0  0  0
    8.2632    0.3229   -3.6123 C   0  0  0  0  0  0  0  0  0  0  0  0
    6.9600   -0.2613   -3.5757 C   0  0  0  0  0  0  0  0  0  0  0  0
    6.4465   -1.5894   -3.5668 N   0  0  0  0  0  0  0  0  0  0  0  0
    7.2920   -2.7794   -3.5006 C   0  0  0  0  0  0  0  0  0  0  0  0
    7.1331   -3.5503   -2.1972 C   0  0  0  0  0  0  0  0  0  0  0  0
    5.9762   -4.2510   -2.1498 F   0  0  0  0  0  0  0  0  0  0  0  0
    4.0146    1.9585   -7.9977 H   0  0  0  0  0  0  0  0  0  0  0  0
    2.9617    3.2940   -8.5019 H   0  0  0  0  0  0  0  0  0  0  0  0
    2.2561    1.7643   -7.8938 H   0  0  0  0  0  0  0  0  0  0  0  0
    3.9797    3.6606   -6.3409 H   0  0  0  0  0  0  0  0  0  0  0  0
    2.2456    3.6936   -6.1312 H   0  0  0  0  0  0  0  0  0  0  0  0
    4.7326    1.0860   -5.1723 H   0  0  0  0  0  0  0  0  0  0  0  0
    4.9345    2.6590   -5.0890 H   0  0  0  0  0  0  0  0  0  0  0  0
    3.4436    1.1208   -2.3180 H   0  0  0  0  0  0  0  0  0  0  0  0
    4.7003    1.9886   -2.1235 H   0  0  0  0  0  0  0  0  0  0  0  0
    3.2665    2.8566   -2.5833 H   0  0  0  0  0  0  0  0  0  0  0  0
    2.4074    0.0973   -3.1180 H   0  0  0  0  0  0  0  0  0  0  0  0
    2.3788   -1.7146   -5.4467 H   0  0  0  0  0  0  0  0  0  0  0  0
    1.1189   -1.3014   -4.2777 H   0  0  0  0  0  0  0  0  0  0  0  0
    2.0159   -3.4206   -3.6059 H   0  0  0  0  0  0  0  0  0  0  0  0
    2.5431   -2.2313   -2.4231 H   0  0  0  0  0  0  0  0  0  0  0  0
    4.2047   -3.3574   -4.7467 H   0  0  0  0  0  0  0  0  0  0  0  0
    4.3559   -3.6550   -3.0198 H   0  0  0  0  0  0  0  0  0  0  0  0
    4.8936    5.3385   -3.1098 H   0  0  0  0  0  0  0  0  0  0  0  0
    5.2285    4.8829   -4.8130 H   0  0  0  0  0  0  0  0  0  0  0  0
    3.7391    4.4083   -3.9663 H   0  0  0  0  0  0  0  0  0  0  0  0
    7.6949    3.7929   -3.7563 H   0  0  0  0  0  0  0  0  0  0  0  0
    9.5306    2.1320   -3.7216 H   0  0  0  0  0  0  0  0  0  0  0  0
    9.1428   -0.3067   -3.6122 H   0  0  0  0  0  0  0  0  0  0  0  0
    7.0830   -3.3945   -4.3842 H   0  0  0  0  0  0  0  0  0  0  0  0
    8.3284   -2.4384   -3.5667 H   0  0  0  0  0  0  0  0  0  0  0  0
    7.9171   -4.3016   -2.1084 H   0  0  0  0  0  0  0  0  0  0  0  0
    7.1550   -2.8823   -1.3336 H   0  0  0  0  0  0  0  0  0  0  0  0
  1  2  1  0  0  0  0
  1 26  1  0  0  0  0
  1 27  1  0  0  0  0
  1 28  1  0  0  0  0
  2  3  1  0  0  0  0
  2 29  1  0  0  0  0
  2 30  1  0  0  0  0
  3  4  1  0  0  0  0
  3  6  1  0  0  0  0
  4  5  1  0  0  0  0
  4 31  1  0  0  0  0
  4 32  1  0  0  0  0
  5 33  1  0  0  0  0
  5 34  1  0  0  0  0
  5 35  1  0  0  0  0
  6  7  2  0  0  0  0
  8  9  1  0  0  0  0
  8 13  1  0  0  0  0
  8 36  1  1  0  0  0
  8  6  1  0  0  0  0
  9 10  1  0  0  0  0
  9 37  1  0  0  0  0
  9 38  1  0  0  0  0
 10 11  1  0  0  0  0
 10 39  1  0  0  0  0
 10 40  1  0  0  0  0
 11 12  1  0  0  0  0
 11 41  1  0  0  0  0
 11 42  1  0  0  0  0
 12 13  2  0  0  0  0
 12 22  1  0  0  0  0
 13 14  1  0  0  0  0
 14 15  2  0  0  0  0
 14 21  1  0  0  0  0
 15 16  1  0  0  0  0
 15 18  1  0  0  0  0
 16 17  1  0  0  0  0
 17 43  1  0  0  0  0
 17 44  1  0  0  0  0
 17 45  1  0  0  0  0
 18 19  2  0  0  0  0
 18 46  1  0  0  0  0
 19 20  1  0  0  0  0
 19 47  1  0  0  0  0
 20 21  2  0  0  0  0
 20 48  1  0  0  0  0
 21 22  1  0  0  0  0
 22 23  1  0  0  0  0
 23 24  1  0  0  0  0
 23 49  1  0  0  0  0
 23 50  1  0  0  0  0
 24 25  1  0  0  0  0
 24 51  1  0  0  0  0
 24 52  1  0  0  0  0
M  ISO  1  25  18
M  END
>  <DRUGBANK_ID>
DB15380

>  <COMMON_NAME>
Flutriciclamide F-18

>  <CAS_NUMBER>
1274863-98-7

>  <UNII>
M96ARL6373

>  <SYNONYMS>
18F-GE-180

$$$$
