
 OpenBabel10282417203D

 48 51  0  0  0  0  0  0  0  0999 V2000
    2.6117   -0.3752   -0.2203 C   0  0  0  0  0  0  0  0  0  0  0  0
    1.1327   -0.1533   -0.7541 C   0  0  0  0  0  0  0  0  0  0  0  0
    0.3735    1.4506   -1.3190 C   0  0  0  0  0  0  0  0  0  0  0  0
   -1.3633    1.9972   -0.7867 C   0  0  0  0  0  0  0  0  0  0  0  0
   -2.3858    0.5184   -0.3354 C   0  0  0  0  0  0  0  0  0  0  0  0
   -1.6682   -1.0808    0.1196 N   0  0  0  0  0  0  0  0  0  0  0  0
    0.0742   -1.3779   -0.0043 C   0  0  0  0  0  0  0  0  0  0  0  0
    0.7635   -2.5815    0.1405 N   0  0  0  0  0  0  0  0  0  0  0  0
    0.0213   -3.7800    0.0587 C   0  0  0  0  0  0  0  0  0  0  0  0
   -1.5109    3.4867    0.4861 C   0  0  0  0  0  0  0  0  0  0  0  0
   -1.0823    5.1503    0.8407 C   0  0  0  0  0  0  0  0  0  0  0  0
    0.1783    6.0701    0.2967 C   0  0  0  0  0  0  0  0  0  0  0  0
    1.1539    5.2193   -0.0386 C   0  0  0  0  0  0  0  0  0  0  0  0
    0.5636    4.0098   -0.0166 C   0  0  0  0  0  0  0  0  0  0  0  0
   -0.7974    3.9858   -0.4195 C   0  0  0  0  0  0  0  0  0  0  0  0
   -2.2146    4.5523   -1.0301 C   0  0  0  0  0  0  0  0  0  0  0  0
    1.2056    2.8869    0.5741 N   0  0  0  0  0  0  0  0  0  0  0  0
    2.5564    2.9350    0.2832 C   0  0  0  0  0  0  0  0  0  0  0  0
    3.3020    4.0154    0.0210 C   0  0  0  0  0  0  0  0  0  0  0  0
    2.6148    5.3295    0.0093 C   0  0  0  0  0  0  0  0  0  0  0  0
    3.1624    6.4198    0.0087 O   0  0  0  0  0  0  0  0  0  0  0  0
    4.7280    3.7530   -0.0877 C   0  0  0  0  0  0  0  0  0  0  0  0
    5.2599    2.6544   -0.0885 O   0  0  0  0  0  0  0  0  0  0  0  0
    5.4155    4.8947   -0.0922 O   0  0  0  0  0  0  0  0  0  0  0  0
    0.4968    1.5527    1.0777 C   0  0  0  0  0  0  0  0  0  0  0  0
   -0.4261    0.5577    0.3854 C   0  0  0  0  0  0  0  0  0  0  0  0
   -0.9979    1.2421    1.5446 C   0  0  0  0  0  0  0  0  0  0  0  0
    2.7406   -0.8332    0.7990 H   0  0  0  0  0  0  0  0  0  0  0  0
    3.0941   -0.9722   -0.9759 H   0  0  0  0  0  0  0  0  0  0  0  0
    3.2694    0.4583   -0.0937 H   0  0  0  0  0  0  0  0  0  0  0  0
    1.2021    2.1127   -1.5644 H   0  0  0  0  0  0  0  0  0  0  0  0
   -3.4402    0.4721   -0.0491 H   0  0  0  0  0  0  0  0  0  0  0  0
    1.7769   -2.6083    0.0999 H   0  0  0  0  0  0  0  0  0  0  0  0
    0.3062   -4.3317   -0.8417 H   0  0  0  0  0  0  0  0  0  0  0  0
    0.2691   -4.3632    0.9435 H   0  0  0  0  0  0  0  0  0  0  0  0
   -1.0448   -3.5696    0.0223 H   0  0  0  0  0  0  0  0  0  0  0  0
   -1.8022    5.9073    1.2465 H   0  0  0  0  0  0  0  0  0  0  0  0
    0.4018    7.1619    0.2815 H   0  0  0  0  0  0  0  0  0  0  0  0
   -2.6320    5.5333   -1.2558 H   0  0  0  0  0  0  0  0  0  0  0  0
   -2.9459    4.7720   -0.0518 H   0  0  0  0  0  0  0  0  0  0  0  0
   -1.4440    4.8400   -1.7134 H   0  0  0  0  0  0  0  0  0  0  0  0
    3.0074    2.0057    0.0996 H   0  0  0  0  0  0  0  0  0  0  0  0
    6.3630    4.6800   -0.0769 H   0  0  0  0  0  0  0  0  0  0  0  0
    1.2542    0.9920    1.5781 H   0  0  0  0  0  0  0  0  0  0  0  0
   -0.8378    0.2707   -1.0521 H   0  0  0  0  0  0  0  0  0  0  0  0
   -0.6884   -0.1191   -0.9345 H   0  0  0  0  0  0  0  0  0  0  0  0
   -1.3739    0.5278    2.2426 H   0  0  0  0  0  0  0  0  0  0  0  0
   -1.8821    1.8410    1.4414 H   0  0  0  0  0  0  0  0  0  0  0  0
  1  2  1  0  0  0  0
  1 28  1  0  0  0  0
  1 29  1  0  0  0  0
  1 30  1  0  0  0  0
  2  3  2  0  0  0  0
  2  7  1  0  0  0  0
  3  4  1  0  0  0  0
  3 31  1  0  0  0  0
  4  5  2  0  0  0  0
  4 10  1  0  0  0  0
  5  6  1  0  0  0  0
  5 32  1  0  0  0  0
  6  7  2  0  0  0  0
  7  8  1  0  0  0  0
  8  9  1  0  0  0  0
  8 33  1  0  0  0  0
  9 34  1  0  0  0  0
  9 35  1  0  0  0  0
  9 36  1  0  0  0  0
 10 11  2  0  0  0  0
 10 15  1  0  0  0  0
 11 12  1  0  0  0  0
 11 37  1  0  0  0  0
 12 13  2  0  0  0  0
 12 38  1  0  0  0  0
 13 14  1  0  0  0  0
 13 20  1  0  0  0  0
 14 15  2  0  0  0  0
 14 17  1  0  0  0  0
 15 16  1  0  0  0  0
 16 39  1  0  0  0  0
 16 40  1  0  0  0  0
 16 41  1  0  0  0  0
 17 18  1  0  0  0  0
 17 25  1  0  0  0  0
 18 19  2  0  0  0  0
 18 42  1  0  0  0  0
 19 20  1  0  0  0  0
 19 22  1  0  0  0  0
 20 21  2  0  0  0  0
 22 23  2  0  0  0  0
 22 24  1  0  0  0  0
 24 43  1  0  0  0  0
 25 26  1  0  0  0  0
 25 27  1  0  0  0  0
 25 44  1  0  0  0  0
 26 27  1  0  0  0  0
 26 45  1  0  0  0  0
 26 46  1  0  0  0  0
 27 47  1  0  0  0  0
 27 48  1  0  0  0  0
M  END
>  <DRUGBANK_ID>
DB12924

>  <COMMON_NAME>
Ozenoxacin

>  <CAS_NUMBER>
245765-41-7

>  <UNII>
V0LH498RFO

>  <SYNONYMS>
Ozenoxacin; Ozenoxacino

$$$$
