
 OpenBabel10282417243D

 13 13  0  0  1  0  0  0  0  0999 V2000
    1.6919   -0.3074   -2.1911 N   0  0  0  0  0  0  0  0  0  0  0  0
    0.5833    0.1147   -1.3086 C   0  0  1  0  0  0  0  0  0  0  0  0
    0.0968    1.5152   -1.6522 C   0  0  0  0  0  0  0  0  0  0  0  0
   -0.9094    1.3746   -2.6658 O   0  0  0  0  0  0  0  0  0  0  0  0
   -1.3867    0.0502   -2.5394 N   0  0  0  0  0  0  0  0  0  0  0  0
   -0.6551   -0.6799   -1.6359 C   0  0  0  0  0  0  0  0  0  0  0  0
   -0.9179   -1.8107   -1.2430 O   0  0  0  0  0  0  0  0  0  0  0  0
    2.0820   -1.1837   -1.8471 H   0  0  0  0  0  0  0  0  0  0  0  0
    2.4338    0.3879   -2.1792 H   0  0  0  0  0  0  0  0  0  0  0  0
    0.8705    0.0226   -0.2576 H   0  0  0  0  0  0  0  0  0  0  0  0
   -0.3246    2.0114   -0.7685 H   0  0  0  0  0  0  0  0  0  0  0  0
    0.8917    2.1528   -2.0494 H   0  0  0  0  0  0  0  0  0  0  0  0
   -1.9509   -0.3611   -3.2728 H   0  0  0  0  0  0  0  0  0  0  0  0
  1  8  1  0  0  0  0
  1  9  1  0  0  0  0
  2  3  1  0  0  0  0
  2  6  1  0  0  0  0
  2 10  1  1  0  0  0
  2  1  1  0  0  0  0
  3  4  1  0  0  0  0
  3 11  1  0  0  0  0
  3 12  1  0  0  0  0
  4  5  1  0  0  0  0
  5  6  1  0  0  0  0
  5 13  1  0  0  0  0
  6  7  2  0  0  0  0
M  END
>  <DRUGBANK_ID>
DB17627

>  <COMMON_NAME>
L-Cycloserine

>  <CAS_NUMBER>
339-72-0

>  <UNII>
AK7DRB7FMO

>  <SYNONYMS>
(s)-4-amino-3-isoxazolidinone; L-Cycloserine; Levcycloserine

$$$$
