
 OpenBabel10282417133D

 40 41  0  0  0  0  0  0  0  0999 V2000
    0.5329   -1.5323    0.0153 C   0  0  0  0  0  0  0  0  0  0  0  0
    1.6133   -0.8421    0.2788 C   0  0  0  0  0  0  0  0  0  0  0  0
    1.7893    0.5156   -0.1123 C   0  0  0  0  0  0  0  0  0  0  0  0
   -0.5142   -0.6933   -0.0620 C   0  0  0  0  0  0  0  0  0  0  0  0
   -0.3895    0.7751   -0.0227 C   0  0  0  0  0  0  0  0  0  0  0  0
   -1.5531    1.4957   -0.0054 C   0  0  0  0  0  0  0  0  0  0  0  0
   -2.7283    0.7613   -0.0135 C   0  0  0  0  0  0  0  0  0  0  0  0
   -2.7814   -0.6512   -0.0233 C   0  0  0  0  0  0  0  0  0  0  0  0
   -1.6436   -1.4085   -0.0471 C   0  0  0  0  0  0  0  0  0  0  0  0
    0.8105    1.4317   -0.0223 C   0  0  0  0  0  0  0  0  0  0  0  0
    1.0412    2.7710    0.1044 O   0  0  0  0  0  0  0  0  0  0  0  0
    2.3763    3.3774    0.1530 C   0  0  0  0  0  0  0  0  0  0  0  0
    3.9589    1.6470    1.3878 C   0  0  0  0  0  0  0  0  0  0  0  0
    4.8183    1.3750    0.1648 N   0  0  0  0  0  0  0  0  0  0  0  0
    4.1122   -0.9939   -0.2132 C   0  0  0  0  0  0  0  0  0  0  0  0
    5.2290   -0.0364   -0.1016 C   0  0  0  0  0  0  0  0  0  0  0  0
    5.8186   -0.3109   -1.4697 C   0  0  0  0  0  0  0  0  0  0  0  0
    3.3449    3.0773    1.3496 C   0  0  1  0  0  0  0  0  0  0  0  0
    4.4716    3.9730    1.2762 O   0  0  0  0  0  0  0  0  0  0  0  0
    0.5703   -2.6119    0.0485 H   0  0  0  0  0  0  0  0  0  0  0  0
    2.3061   -1.5662    0.6798 H   0  0  0  0  0  0  0  0  0  0  0  0
    2.7112    0.9228   -0.4332 H   0  0  0  0  0  0  0  0  0  0  0  0
   -1.5147    2.5768   -0.0036 H   0  0  0  0  0  0  0  0  0  0  0  0
   -3.6546    1.3137   -0.0158 H   0  0  0  0  0  0  0  0  0  0  0  0
   -3.7125   -1.1875   -0.0119 H   0  0  0  0  0  0  0  0  0  0  0  0
   -1.6429   -2.4980   -0.0116 H   0  0  0  0  0  0  0  0  0  0  0  0
    2.8941    3.2580   -0.8077 H   0  0  0  0  0  0  0  0  0  0  0  0
    2.2016    4.4681    0.1919 H   0  0  0  0  0  0  0  0  0  0  0  0
    4.5728    1.4994    2.2791 H   0  0  0  0  0  0  0  0  0  0  0  0
    3.1113    0.9926    1.5888 H   0  0  0  0  0  0  0  0  0  0  0  0
    4.3719    1.7434   -0.6764 H   0  0  0  0  0  0  0  0  0  0  0  0
    3.4772   -0.7311   -1.0846 H   0  0  0  0  0  0  0  0  0  0  0  0
    4.2624   -2.0664   -0.3501 H   0  0  0  0  0  0  0  0  0  0  0  0
    3.7590   -0.8654    0.8004 H   0  0  0  0  0  0  0  0  0  0  0  0
    5.8226   -0.3932    0.7410 H   0  0  0  0  0  0  0  0  0  0  0  0
    6.7720    0.1729   -1.5960 H   0  0  0  0  0  0  0  0  0  0  0  0
    5.9382   -1.4029   -1.5895 H   0  0  0  0  0  0  0  0  0  0  0  0
    5.1197   -0.0147   -2.2702 H   0  0  0  0  0  0  0  0  0  0  0  0
    2.8174    3.2886    2.2897 H   0  0  0  0  0  0  0  0  0  0  0  0
    5.0977    3.5411    0.6583 H   0  0  0  0  0  0  0  0  0  0  0  0
  1  2  2  0  0  0  0
  1 20  1  0  0  0  0
  2  3  1  0  0  0  0
  2 21  1  0  0  0  0
  3 22  1  0  0  0  0
  4  1  1  0  0  0  0
  5  4  2  0  0  0  0
  6  5  1  0  0  0  0
  6  7  2  0  0  0  0
  6 23  1  0  0  0  0
  7  8  1  0  0  0  0
  7 24  1  0  0  0  0
  8  9  2  0  0  0  0
  8 25  1  0  0  0  0
  9  4  1  0  0  0  0
  9 26  1  0  0  0  0
 10  5  1  0  0  0  0
 10  3  2  0  0  0  0
 10 11  1  0  0  0  0
 11 12  1  0  0  0  0
 12 18  1  0  0  0  0
 12 27  1  0  0  0  0
 12 28  1  0  0  0  0
 13 14  1  0  0  0  0
 13 29  1  0  0  0  0
 13 30  1  0  0  0  0
 14 16  1  0  0  0  0
 14 31  1  0  0  0  0
 15 32  1  0  0  0  0
 15 33  1  0  0  0  0
 15 34  1  0  0  0  0
 16 15  1  0  0  0  0
 16 17  1  0  0  0  0
 16 35  1  0  0  0  0
 17 36  1  0  0  0  0
 17 37  1  0  0  0  0
 17 38  1  0  0  0  0
 18 13  1  0  0  0  0
 18 19  1  0  0  0  0
 18 39  1  1  0  0  0
 19 40  1  0  0  0  0
M  END
>  <DRUGBANK_ID>
DB03322

>  <SECONDARY_ACCESSION_NUMBERS>
EXPT02931

>  <COMMON_NAME>
Dexpropranolol

>  <CAS_NUMBER>
5051-22-9

>  <UNII>
PG6KY07UD7

>  <SYNONYMS>
(+)-1-Isopropylamino-3-(1-naphthyloxy)-2-propanol; (+)-Propranolol; (R)-(+)-propranolol; 2R-Propranolol; D-Propranolol; Dexpropranolol; R (+)-Propanolol; R-(+)-Propranolol

$$$$
