
 OpenBabel10282417183D

 49 46  0  0  1  0  0  0  0  0999 V2000
    0.7316    4.8222    2.1267 C   0  0  0  0  0  0  0  0  0  0  0  0
    2.1015    4.7478    1.0942 C   0  0  2  0  0  0  0  0  0  0  0  0
    3.5359    3.5053    1.1139 C   0  0  2  0  0  0  0  0  0  0  0  0
    3.7398    1.7365    1.4597 C   0  0  1  0  0  0  0  0  0  0  0  0
    4.0137    0.7354    0.2346 C   0  0  2  0  0  0  0  0  0  0  0  0
    3.1007   -0.5494    0.0174 C   0  0  0  0  0  0  0  0  0  0  0  0
   -0.0636    3.7184    2.5808 O   0  0  0  0  0  0  0  0  0  0  0  0
    2.4446    6.1429    0.8938 O   0  0  0  0  0  0  0  0  0  0  0  0
    4.5838    4.3099    1.6279 O   0  0  0  0  0  0  0  0  0  0  0  0
    4.6729    1.4916    2.5071 O   0  0  0  0  0  0  0  0  0  0  0  0
    5.3869    0.3802    0.3947 O   0  0  0  0  0  0  0  0  0  0  0  0
    2.0498   -0.3942   -0.7192 O   0  0  0  0  0  0  0  0  0  0  0  0
    3.3650   -1.6764    0.5207 O   0  5  0  0  0  0  0  0  0  0  0  0
    4.6680    3.7609   -2.3198 C   0  0  0  0  0  0  0  0  0  0  0  0
    3.5693    4.4876   -1.5387 C   0  0  2  0  0  0  0  0  0  0  0  0
    2.0250    3.7265   -1.7114 C   0  0  2  0  0  0  0  0  0  0  0  0
    0.8559    2.9672   -0.6166 C   0  0  1  0  0  0  0  0  0  0  0  0
    1.2159    2.1090    0.6876 C   0  0  2  0  0  0  0  0  0  0  0  0
    0.4955    0.8470    1.2228 C   0  0  0  0  0  0  0  0  0  0  0  0
    4.4764    4.1175   -3.6788 O   0  0  0  0  0  0  0  0  0  0  0  0
    3.6708    5.8900   -1.8880 O   0  0  0  0  0  0  0  0  0  0  0  0
    2.1274    2.7194   -2.7379 O   0  0  0  0  0  0  0  0  0  0  0  0
   -0.3181    3.7705   -0.4351 O   0  0  0  0  0  0  0  0  0  0  0  0
    1.7268    2.7726    1.8943 O   0  0  0  0  0  0  0  0  0  0  0  0
    0.9996    0.2053    2.1432 O   0  0  0  0  0  0  0  0  0  0  0  0
   -0.4008    0.3427    0.4087 O   0  5  0  0  0  0  0  0  0  0  0  0
    0.3214   -0.9863   -0.6264 Zn  0  2  0  0  0  0  0  0  0  0  0  0
    1.6953    4.6961    0.1073 H   0  0  0  0  0  0  0  0  0  0  0  0
    3.7481    3.2114    0.0857 H   0  0  0  0  0  0  0  0  0  0  0  0
    2.8931    1.2413    1.8891 H   0  0  0  0  0  0  0  0  0  0  0  0
    3.8829    1.2098   -0.7441 H   0  0  0  0  0  0  0  0  0  0  0  0
    4.0487    4.6194   -0.5902 H   0  0  0  0  0  0  0  0  0  0  0  0
    1.4397    4.5449   -2.1478 H   0  0  0  0  0  0  0  0  0  0  0  0
    0.4428    2.1815   -1.2563 H   0  0  0  0  0  0  0  0  0  0  0  0
    2.0594    1.7205    0.1606 H   0  0  0  0  0  0  0  0  0  0  0  0
   -0.0741    5.4101    1.6749 H   0  0  0  0  0  0  0  0  0  0  0  0
    1.0759    5.2967    3.0329 H   0  0  0  0  0  0  0  0  0  0  0  0
    0.4564    2.9570    2.3117 H   0  0  0  0  0  0  0  0  0  0  0  0
    3.3082    6.2831    1.2987 H   0  0  0  0  0  0  0  0  0  0  0  0
    5.3034    3.7249    1.8813 H   0  0  0  0  0  0  0  0  0  0  0  0
    4.8585    2.3433    2.9092 H   0  0  0  0  0  0  0  0  0  0  0  0
    5.4373    0.3034    1.3773 H   0  0  0  0  0  0  0  0  0  0  0  0
    4.6401    2.6802   -2.1611 H   0  0  0  0  0  0  0  0  0  0  0  0
    5.6666    4.1048   -2.0081 H   0  0  0  0  0  0  0  0  0  0  0  0
    4.2084    5.0577   -3.6083 H   0  0  0  0  0  0  0  0  0  0  0  0
    2.8037    6.2995   -1.9797 H   0  0  0  0  0  0  0  0  0  0  0  0
    1.5434    3.0078   -3.4616 H   0  0  0  0  0  0  0  0  0  0  0  0
   -0.1045    4.6672   -0.1308 H   0  0  0  0  0  0  0  0  0  0  0  0
    1.8882    2.4706    2.8347 H   0  0  0  0  0  0  0  0  0  0  0  0
  1 36  1  0  0  0  0
  1 37  1  0  0  0  0
  2  8  1  0  0  0  0
  2 28  1  6  0  0  0
  2  3  1  0  0  0  0
  2  1  1  0  0  0  0
  3 29  1  6  0  0  0
  3  9  1  0  0  0  0
  3  4  1  0  0  0  0
  4 10  1  0  0  0  0
  4 30  1  1  0  0  0
  5 11  1  0  0  0  0
  5 31  1  6  0  0  0
  5  6  1  0  0  0  0
  5  4  1  0  0  0  0
  7  1  1  0  0  0  0
  7 38  1  0  0  0  0
  8 39  1  0  0  0  0
  9 40  1  0  0  0  0
 10 41  1  0  0  0  0
 11 42  1  0  0  0  0
 12  6  2  0  0  0  0
 13  6  1  0  0  0  0
 14 43  1  0  0  0  0
 14 44  1  0  0  0  0
 15 21  1  0  0  0  0
 15 32  1  1  0  0  0
 15 16  1  0  0  0  0
 15 14  1  0  0  0  0
 16 33  1  6  0  0  0
 16 22  1  0  0  0  0
 16 17  1  0  0  0  0
 17 23  1  0  0  0  0
 17 34  1  6  0  0  0
 18 24  1  0  0  0  0
 18 35  1  6  0  0  0
 18 19  1  0  0  0  0
 18 17  1  0  0  0  0
 20 14  1  0  0  0  0
 20 45  1  0  0  0  0
 21 46  1  0  0  0  0
 22 47  1  0  0  0  0
 23 48  1  0  0  0  0
 24 49  1  0  0  0  0
 25 19  2  0  0  0  0
 26 19  1  0  0  0  0
M  CHG  3  13  -1  26  -1  27   2
M  END
>  <DRUGBANK_ID>
DB11248

>  <COMMON_NAME>
Zinc gluconate

>  <CAS_NUMBER>
4468-02-4

>  <UNII>
U6WSN5SQ1Z

>  <SYNONYMS>
Zinc gluconate

$$$$
