
 OpenBabel10282417123D

137141  0  0  0  0  0  0  0  0999 V2000
    0.9694   -0.0639    0.0703 Mg  0  2  0  0  0  0  0  0  0  0  0  0
  -11.1673   33.9358   -0.5146 C   0  0  0  0  0  0  0  0  0  0  0  0
  -12.1254   35.4495   -0.6339 O   0  0  0  0  0  0  0  0  0  0  0  0
   -9.5602   31.9693   -0.3356 C   0  0  2  0  0  0  0  0  0  0  0  0
  -11.9887   32.6407   -0.0034 C   0  0  0  0  0  0  0  0  0  0  0  0
  -14.0606   32.8033   -0.2179 O   0  0  0  0  0  0  0  0  0  0  0  0
  -15.2790   33.0220   -1.4851 C   0  0  0  0  0  0  0  0  0  0  0  0
  -12.9104   33.1072    1.2492 O   0  0  0  0  0  0  0  0  0  0  0  0
   -7.2063   30.5603    0.0255 C   0  0  0  0  0  0  0  0  0  0  0  0
   -5.0247   29.2179    0.2943 C   0  0  0  0  0  0  0  0  0  0  0  0
   -3.0903   28.2833    1.2999 N   0  0  0  0  0  0  0  0  0  0  0  0
   -1.1702   28.2018    1.7813 C   0  0  0  0  0  0  0  0  0  0  0  0
   -0.0726   29.5781    2.4195 C   0  0  0  0  0  0  0  0  0  0  0  0
   -1.0670   30.4294    2.3633 C   0  0  0  0  0  0  0  0  0  0  0  0
   -1.2401   31.6958    2.8340 N   0  5  0  0  0  0  0  0  0  0  0  0
   -2.3469   32.3189    2.4200 C   0  0  0  0  0  0  0  0  0  0  0  0
   -3.2035   33.3027    2.6901 C   0  0  0  0  0  0  0  0  0  0  0  0
   -4.5662   33.8233    2.2627 C   0  0  0  0  0  0  0  0  0  0  0  0
   -5.4118   34.7089    2.3959 N   0  0  0  0  0  0  0  0  0  0  0  0
   -6.5687   34.5118    1.7446 C   0  0  0  0  0  0  0  0  0  0  0  0
   -7.5481   35.3381    1.6507 C   0  0  0  0  0  0  0  0  0  0  0  0
   -8.7413   35.1003    0.9145 C   0  0  0  0  0  0  0  0  0  0  0  0
   -9.0591   34.1196    0.0636 N   0  5  0  0  0  0  0  0  0  0  0  0
   -8.9344   32.2820   -0.3422 C   0  0  0  0  0  0  0  0  0  0  0  0
  -10.0020   34.1331   -0.0697 C   0  0  0  0  0  0  0  0  0  0  0  0
   -9.8332   35.7614    0.7599 C   0  0  0  0  0  0  0  0  0  0  0  0
  -10.0250   37.1953    1.3418 C   0  0  0  0  0  0  0  0  0  0  0  0
   -6.8573   33.4494    1.1652 C   0  0  0  0  0  0  0  0  0  0  0  0
   -7.5662   32.7588    0.4786 C   0  0  0  0  0  0  0  0  0  0  0  0
   -8.9666   32.5134    1.5407 C   0  0  0  0  0  0  0  0  0  0  0  0
   -5.7167   33.0800    0.8449 C   0  0  0  0  0  0  0  0  0  0  0  0
   -5.5001   31.1495   -0.1266 C   0  0  0  0  0  0  0  0  0  0  0  0
   -2.9400   31.1420    2.4225 C   0  0  0  0  0  0  0  0  0  0  0  0
   -4.0291   30.8891    1.8514 C   0  0  0  0  0  0  0  0  0  0  0  0
   -4.8613   31.6428    1.4895 C   0  0  0  0  0  0  0  0  0  0  0  0
   -2.2491   30.2544    1.7797 C   0  0  0  0  0  0  0  0  0  0  0  0
   -2.6868   29.5675    0.6542 C   0  0  0  0  0  0  0  0  0  0  0  0
   -0.4422   27.9269    0.4309 C   0  0  1  0  0  0  0  0  0  0  0  0
    0.6756   28.9011   -0.4154 C   0  0  0  0  0  0  0  0  0  0  0  0
   -2.7488   27.8089    0.0856 C   0  0  2  0  0  0  0  0  0  0  0  0
   -0.9152   26.3200   -0.5663 C   0  0  0  0  0  0  0  0  0  0  0  0
    0.0368   26.3628   -2.1452 C   0  0  0  0  0  0  0  0  0  0  0  0
    1.5741   26.3831   -2.4014 C   0  0  0  0  0  0  0  0  0  0  0  0
    2.1103   25.7483   -3.5185 O   0  0  0  0  0  0  0  0  0  0  0  0
    1.2852   25.0349   -4.4408 C   0  0  0  0  0  0  0  0  0  0  0  0
    0.5332   23.9681   -3.7503 C   0  0  0  0  0  0  0  0  0  0  0  0
   -0.8105   23.9048   -3.6932 C   0  0  0  0  0  0  0  0  0  0  0  0
   -1.6123   24.9919   -4.3656 C   0  0  0  0  0  0  0  0  0  0  0  0
   -1.5325   22.8079   -2.9627 C   0  0  0  0  0  0  0  0  0  0  0  0
   -1.1737   21.4662   -3.5718 C   0  0  0  0  0  0  0  0  0  0  0  0
    0.3117   21.2154   -3.4639 C   0  0  0  0  0  0  0  0  0  0  0  0
    0.7474   21.2405   -2.0157 C   0  0  2  0  0  0  0  0  0  0  0  0
    1.8865   22.2070   -1.7906 C   0  0  0  0  0  0  0  0  0  0  0  0
    1.2035   19.8915   -1.6086 C   0  0  0  0  0  0  0  0  0  0  0  0
    1.6189   19.9312   -0.1481 C   0  0  0  0  0  0  0  0  0  0  0  0
    0.4446   20.2385    0.7129 C   0  0  0  0  0  0  0  0  0  0  0  0
   -0.2417   18.9137    0.4606 C   0  0  2  0  0  0  0  0  0  0  0  0
   -1.0628   18.4974    1.6240 C   0  0  0  0  0  0  0  0  0  0  0  0
    0.8172   17.7966    0.2249 C   0  0  0  0  0  0  0  0  0  0  0  0
    0.2425   16.5070   -0.0789 C   0  0  0  0  0  0  0  0  0  0  0  0
   -0.6098   16.6122   -1.3154 C   0  0  0  0  0  0  0  0  0  0  0  0
    0.2231   17.0091   -2.5150 C   0  0  0  0  0  0  0  0  0  0  0  0
    1.3255   16.0124   -2.7342 C   0  0  0  0  0  0  0  0  0  0  0  0
   -0.6354   17.1307   -3.7372 C   0  0  0  0  0  0  0  0  0  0  0  0
    2.3099   26.9825   -1.6187 O   0  0  0  0  0  0  0  0  0  0  0  0
  -11.0818   32.7932   -1.0087 H   0  0  0  0  0  0  0  0  0  0  0  0
  -15.3246   34.0748   -1.7469 H   0  0  0  0  0  0  0  0  0  0  0  0
  -14.7006   32.4802   -2.1875 H   0  0  0  0  0  0  0  0  0  0  0  0
  -16.3332   32.6381   -1.5389 H   0  0  0  0  0  0  0  0  0  0  0  0
   -0.0633   28.4947    2.4691 H   0  0  0  0  0  0  0  0  0  0  0  0
   -2.7303   33.9621    3.2860 H   0  0  0  0  0  0  0  0  0  0  0  0
   -7.4079   36.2516    2.1390 H   0  0  0  0  0  0  0  0  0  0  0  0
   -9.9154   37.1760    2.4361 H   0  0  0  0  0  0  0  0  0  0  0  0
   -9.2230   37.8532    0.9671 H   0  0  0  0  0  0  0  0  0  0  0  0
  -10.9689   37.6455    1.1016 H   0  0  0  0  0  0  0  0  0  0  0  0
   -7.7169   33.3225   -0.6059 H   0  0  0  0  0  0  0  0  0  0  0  0
   -7.5024   32.0006   -0.1511 H   0  0  0  0  0  0  0  0  0  0  0  0
   -9.2833   33.4679    1.7467 H   0  0  0  0  0  0  0  0  0  0  0  0
   -9.9281   32.0452    1.1291 H   0  0  0  0  0  0  0  0  0  0  0  0
   -8.7898   31.8297    2.1573 H   0  0  0  0  0  0  0  0  0  0  0  0
   -6.0267   30.3773    1.2235 H   0  0  0  0  0  0  0  0  0  0  0  0
   -4.7683   31.3100   -0.5763 H   0  0  0  0  0  0  0  0  0  0  0  0
   -4.0353   30.4995    0.0302 H   0  0  0  0  0  0  0  0  0  0  0  0
   -4.7178   30.5000    1.1380 H   0  0  0  0  0  0  0  0  0  0  0  0
   -6.2695   31.7045    0.9234 H   0  0  0  0  0  0  0  0  0  0  0  0
   -4.6283   32.4399    1.7969 H   0  0  0  0  0  0  0  0  0  0  0  0
   -4.1680   28.6215    1.3296 H   0  0  0  0  0  0  0  0  0  0  0  0
   -2.6611   29.1772   -0.3093 H   0  0  0  0  0  0  0  0  0  0  0  0
   -1.6852   28.8984    0.7464 H   0  0  0  0  0  0  0  0  0  0  0  0
   -1.0497   28.1595   -0.2805 H   0  0  0  0  0  0  0  0  0  0  0  0
    0.6193   28.6405   -1.4678 H   0  0  0  0  0  0  0  0  0  0  0  0
    0.3104   29.8957   -0.2873 H   0  0  0  0  0  0  0  0  0  0  0  0
    1.7359   28.8690   -0.1374 H   0  0  0  0  0  0  0  0  0  0  0  0
   -0.9453   27.1100    0.2102 H   0  0  0  0  0  0  0  0  0  0  0  0
    0.0467   24.8485   -0.7639 H   0  0  0  0  0  0  0  0  0  0  0  0
   -1.4142   25.5158   -0.6863 H   0  0  0  0  0  0  0  0  0  0  0  0
   -0.4066   25.7962   -2.9222 H   0  0  0  0  0  0  0  0  0  0  0  0
   -0.3405   27.3353   -2.2002 H   0  0  0  0  0  0  0  0  0  0  0  0
    0.6063   25.7345   -4.8859 H   0  0  0  0  0  0  0  0  0  0  0  0
    1.8841   24.6192   -5.2458 H   0  0  0  0  0  0  0  0  0  0  0  0
    1.1109   23.2263   -3.2740 H   0  0  0  0  0  0  0  0  0  0  0  0
   -2.2432   24.5823   -5.1237 H   0  0  0  0  0  0  0  0  0  0  0  0
   -2.2072   25.5341   -3.6379 H   0  0  0  0  0  0  0  0  0  0  0  0
   -0.9633   25.7179   -4.8379 H   0  0  0  0  0  0  0  0  0  0  0  0
   -1.2546   22.8145   -1.9103 H   0  0  0  0  0  0  0  0  0  0  0  0
   -2.6026   22.9582   -3.0185 H   0  0  0  0  0  0  0  0  0  0  0  0
   -1.6972   20.6703   -3.0541 H   0  0  0  0  0  0  0  0  0  0  0  0
   -1.4710   21.4584   -4.6141 H   0  0  0  0  0  0  0  0  0  0  0  0
    0.5775   20.2855   -3.9230 H   0  0  0  0  0  0  0  0  0  0  0  0
    0.8385   21.9562   -4.0332 H   0  0  0  0  0  0  0  0  0  0  0  0
   -0.0929   21.5324   -1.3970 H   0  0  0  0  0  0  0  0  0  0  0  0
    2.3526   22.0643   -0.8462 H   0  0  0  0  0  0  0  0  0  0  0  0
    2.6202   22.0848   -2.5827 H   0  0  0  0  0  0  0  0  0  0  0  0
    1.5212   23.2285   -1.7892 H   0  0  0  0  0  0  0  0  0  0  0  0
    0.3647   19.2276   -1.7444 H   0  0  0  0  0  0  0  0  0  0  0  0
    2.0314   19.5514   -2.2197 H   0  0  0  0  0  0  0  0  0  0  0  0
    2.0685   19.0222    0.1918 H   0  0  0  0  0  0  0  0  0  0  0  0
    2.4315   20.5526    0.0122 H   0  0  0  0  0  0  0  0  0  0  0  0
    0.7196   20.2746    1.7561 H   0  0  0  0  0  0  0  0  0  0  0  0
    0.0803   21.2392    0.4416 H   0  0  0  0  0  0  0  0  0  0  0  0
   -0.8439   18.9844   -0.4335 H   0  0  0  0  0  0  0  0  0  0  0  0
   -0.7969   19.1025    2.4749 H   0  0  0  0  0  0  0  0  0  0  0  0
   -2.1171   18.6009    1.4213 H   0  0  0  0  0  0  0  0  0  0  0  0
   -0.8563   17.4666    1.8679 H   0  0  0  0  0  0  0  0  0  0  0  0
    1.4442   18.0426   -0.6772 H   0  0  0  0  0  0  0  0  0  0  0  0
    1.4922   17.7814    1.1015 H   0  0  0  0  0  0  0  0  0  0  0  0
    1.0320   15.7887   -0.2227 H   0  0  0  0  0  0  0  0  0  0  0  0
   -0.3452   16.2058    0.7625 H   0  0  0  0  0  0  0  0  0  0  0  0
   -1.0670   15.6535   -1.5107 H   0  0  0  0  0  0  0  0  0  0  0  0
   -1.4014   17.3384   -1.1578 H   0  0  0  0  0  0  0  0  0  0  0  0
    0.6924   17.9344   -2.3480 H   0  0  0  0  0  0  0  0  0  0  0  0
    0.8877   15.0426   -2.9297 H   0  0  0  0  0  0  0  0  0  0  0  0
    1.9370   16.3055   -3.5746 H   0  0  0  0  0  0  0  0  0  0  0  0
    1.9589   15.9405   -1.8585 H   0  0  0  0  0  0  0  0  0  0  0  0
   -1.4184   17.8631   -3.5831 H   0  0  0  0  0  0  0  0  0  0  0  0
   -0.0367   17.4303   -4.5887 H   0  0  0  0  0  0  0  0  0  0  0  0
   -1.0884   16.1696   -3.9461 H   0  0  0  0  0  0  0  0  0  0  0  0
  2  3  2  0  0  0  0
  2  4  1  0  0  0  0
  4  5  1  0  0  0  0
  4  9  1  0  0  0  0
  4 66  1  6  0  0  0
  5  6  1  0  0  0  0
  5  8  2  0  0  0  0
  6  7  1  0  0  0  0
  7 67  1  0  0  0  0
  7 68  1  0  0  0  0
  7 69  1  0  0  0  0
  9 10  2  0  0  0  0
 10 11  1  0  0  0  0
 11 12  2  0  0  0  0
 12 13  1  0  0  0  0
 12 38  1  0  0  0  0
 13 14  2  0  0  0  0
 13 70  1  0  0  0  0
 14 15  1  0  0  0  0
 15 16  1  0  0  0  0
 16 17  2  0  0  0  0
 16 33  1  0  0  0  0
 17 18  1  0  0  0  0
 17 71  1  0  0  0  0
 18 19  2  0  0  0  0
 19 20  1  0  0  0  0
 20 21  2  0  0  0  0
 20 28  1  0  0  0  0
 21 22  1  0  0  0  0
 21 72  1  0  0  0  0
 22 23  1  0  0  0  0
 23 24  1  0  0  0  0
 24  9  1  0  0  0  0
 24 25  2  0  0  0  0
 25  2  1  0  0  0  0
 25 26  1  0  0  0  0
 26 22  2  0  0  0  0
 26 27  1  0  0  0  0
 27 73  1  0  0  0  0
 27 74  1  0  0  0  0
 27 75  1  0  0  0  0
 28 29  1  0  0  0  0
 28 31  2  0  0  0  0
 29 30  1  0  0  0  0
 29 76  1  0  0  0  0
 29 77  1  0  0  0  0
 30 78  1  0  0  0  0
 30 79  1  0  0  0  0
 30 80  1  0  0  0  0
 31 18  1  0  0  0  0
 31 32  1  0  0  0  0
 32 81  1  0  0  0  0
 32 82  1  0  0  0  0
 32 83  1  0  0  0  0
 33 34  1  0  0  0  0
 33 36  2  0  0  0  0
 34 35  2  0  0  0  0
 34 84  1  0  0  0  0
 35 85  1  0  0  0  0
 35 86  1  0  0  0  0
 36 14  1  0  0  0  0
 36 37  1  0  0  0  0
 37 87  1  0  0  0  0
 37 88  1  0  0  0  0
 37 89  1  0  0  0  0
 38 39  1  0  0  0  0
 38 40  1  0  0  0  0
 38 90  1  6  0  0  0
 39 91  1  0  0  0  0
 39 92  1  0  0  0  0
 39 93  1  0  0  0  0
 40 10  1  0  0  0  0
 40 41  1  0  0  0  0
 40 94  1  1  0  0  0
 41 42  1  0  0  0  0
 41 95  1  0  0  0  0
 41 96  1  0  0  0  0
 42 43  1  0  0  0  0
 42 97  1  0  0  0  0
 42 98  1  0  0  0  0
 43 44  1  0  0  0  0
 43 65  2  0  0  0  0
 44 45  1  0  0  0  0
 45 46  1  0  0  0  0
 45 99  1  0  0  0  0
 45100  1  0  0  0  0
 46 47  2  0  0  0  0
 46101  1  0  0  0  0
 47 48  1  0  0  0  0
 47 49  1  0  0  0  0
 48102  1  0  0  0  0
 48103  1  0  0  0  0
 48104  1  0  0  0  0
 49 50  1  0  0  0  0
 49105  1  0  0  0  0
 49106  1  0  0  0  0
 50 51  1  0  0  0  0
 50107  1  0  0  0  0
 50108  1  0  0  0  0
 51109  1  0  0  0  0
 51110  1  0  0  0  0
 52 54  1  0  0  0  0
 52111  1  1  0  0  0
 52 53  1  0  0  0  0
 52 51  1  0  0  0  0
 53112  1  0  0  0  0
 53113  1  0  0  0  0
 53114  1  0  0  0  0
 54 55  1  0  0  0  0
 54115  1  0  0  0  0
 54116  1  0  0  0  0
 55 56  1  0  0  0  0
 55117  1  0  0  0  0
 55118  1  0  0  0  0
 56119  1  0  0  0  0
 56120  1  0  0  0  0
 57 59  1  0  0  0  0
 57121  1  6  0  0  0
 57 58  1  0  0  0  0
 57 56  1  0  0  0  0
 58122  1  0  0  0  0
 58123  1  0  0  0  0
 58124  1  0  0  0  0
 59 60  1  0  0  0  0
 59125  1  0  0  0  0
 59126  1  0  0  0  0
 60 61  1  0  0  0  0
 60127  1  0  0  0  0
 60128  1  0  0  0  0
 61 62  1  0  0  0  0
 61129  1  0  0  0  0
 61130  1  0  0  0  0
 62 63  1  0  0  0  0
 62 64  1  0  0  0  0
 62131  1  0  0  0  0
 63132  1  0  0  0  0
 63133  1  0  0  0  0
 63134  1  0  0  0  0
 64135  1  0  0  0  0
 64136  1  0  0  0  0
 64137  1  0  0  0  0
M  CHG  3   1   2  15  -1  23  -1
M  END
>  <DRUGBANK_ID>
DB02133

>  <SECONDARY_ACCESSION_NUMBERS>
EXPT00935

>  <COMMON_NAME>
Chlorophyll A

>  <CAS_NUMBER>
479-61-8

>  <UNII>
YF5Q9EJC8Y

$$$$
