ADB
 OpenBabel10282417163D

 35 37  0  0  0  0  0  0  0  0999 V2000
   -0.1287    0.6970   -0.0016 C   0  0  0  0  0  0  0  0  0  0  0  0
   -0.0531    2.0837   -0.0170 O   0  0  0  0  0  0  0  0  0  0  0  0
   -1.2843   -0.1067   -0.0473 C   0  0  0  0  0  0  0  0  0  0  0  0
   -2.9245    0.3993   -0.2536 Cl  0  0  0  0  0  0  0  0  0  0  0  0
   -1.1921   -1.5059   -0.0052 C   0  0  0  0  0  0  0  0  0  0  0  0
    0.0297   -2.1554    0.0155 C   0  0  0  0  0  0  0  0  0  0  0  0
    1.1901   -1.3979    0.0175 C   0  0  0  0  0  0  0  0  0  0  0  0
    1.1162    0.0096    0.0178 C   0  0  0  0  0  0  0  0  0  0  0  0
    2.6374    0.8447    0.0104 Cl  0  0  0  0  0  0  0  0  0  0  0  0
   -1.2090    2.8573    0.0186 C   0  0  0  0  0  0  0  0  0  0  0  0
   -2.0082    2.7613    1.0862 N   0  0  0  0  0  0  0  0  0  0  0  0
   -3.1827    3.3687    0.9331 C   0  0  0  0  0  0  0  0  0  0  0  0
   -4.1861    3.1438    1.8786 N   0  0  0  0  0  0  0  0  0  0  0  0
   -3.4789    4.1501   -0.1004 N   0  0  0  0  0  0  0  0  0  0  0  0
   -2.5668    4.2715   -1.0398 C   0  0  0  0  0  0  0  0  0  0  0  0
   -2.8845    5.1060   -2.0747 N   0  0  0  0  0  0  0  0  0  0  0  0
   -1.4130    3.6297   -1.0489 N   0  0  0  0  0  0  0  0  0  0  0  0
   -5.4582    3.7302    1.8796 C   0  0  0  0  0  0  0  0  0  0  0  0
   -6.3277    3.5826    0.7880 C   0  0  0  0  0  0  0  0  0  0  0  0
   -7.5654    4.2318    0.7564 C   0  0  0  0  0  0  0  0  0  0  0  0
   -7.9558    5.0375    1.8264 C   0  0  0  0  0  0  0  0  0  0  0  0
   -7.0843    5.2216    2.9042 C   0  0  0  0  0  0  0  0  0  0  0  0
   -5.8482    4.5621    2.9335 C   0  0  0  0  0  0  0  0  0  0  0  0
   -9.2634    5.6323    1.8342 C   0  0  0  0  0  0  0  0  0  0  0  0
  -10.3318    6.0754    1.8486 N   0  0  0  0  0  0  0  0  0  0  0  0
   -2.1059   -2.0964   -0.0165 H   0  0  0  0  0  0  0  0  0  0  0  0
    0.0587   -3.2415    0.0108 H   0  0  0  0  0  0  0  0  0  0  0  0
    2.1483   -1.9161    0.0162 H   0  0  0  0  0  0  0  0  0  0  0  0
   -3.9184    2.5415    2.6407 H   0  0  0  0  0  0  0  0  0  0  0  0
   -3.7483    5.6212   -2.0062 H   0  0  0  0  0  0  0  0  0  0  0  0
   -2.1970    5.2922   -2.7811 H   0  0  0  0  0  0  0  0  0  0  0  0
   -6.0399    2.9554   -0.0539 H   0  0  0  0  0  0  0  0  0  0  0  0
   -8.2161    4.0989   -0.1058 H   0  0  0  0  0  0  0  0  0  0  0  0
   -7.3568    5.8798    3.7268 H   0  0  0  0  0  0  0  0  0  0  0  0
   -5.1692    4.7433    3.7633 H   0  0  0  0  0  0  0  0  0  0  0  0
  1  2  1  0  0  0  0
  1  3  2  0  0  0  0
  1  8  1  0  0  0  0
  2 10  1  0  0  0  0
  3  4  1  0  0  0  0
  3  5  1  0  0  0  0
  5  6  2  0  0  0  0
  5 26  1  0  0  0  0
  6  7  1  0  0  0  0
  6 27  1  0  0  0  0
  7  8  2  0  0  0  0
  7 28  1  0  0  0  0
  8  9  1  0  0  0  0
 10 11  2  0  0  0  0
 10 17  1  0  0  0  0
 11 12  1  0  0  0  0
 12 13  1  0  0  0  0
 12 14  2  0  0  0  0
 13 18  1  0  0  0  0
 13 29  1  0  0  0  0
 14 15  1  0  0  0  0
 15 16  1  0  0  0  0
 15 17  2  0  0  0  0
 16 30  1  0  0  0  0
 16 31  1  0  0  0  0
 18 19  2  0  0  0  0
 18 23  1  0  0  0  0
 19 20  1  0  0  0  0
 19 32  1  0  0  0  0
 20 21  2  0  0  0  0
 20 33  1  0  0  0  0
 21 22  1  0  0  0  0
 21 24  1  0  0  0  0
 22 23  2  0  0  0  0
 22 34  1  0  0  0  0
 23 35  1  0  0  0  0
 24 25  3  0  0  0  0
M  END
>  <DRUGBANK_ID>
DB07343

>  <COMMON_NAME>
4-[4-AMINO-6-(2,6-DICHLORO-PHENOXY)-[1,3,5]TRIAZIN-2-YLAMINO]-BENZONITRILE

$$$$
