
 OpenBabel10282417243D

 83 90  0  0  1  0  0  0  0  0999 V2000
    1.0499   -0.0645    0.3583 C   0  0  0  0  0  0  0  0  0  0  0  0
    0.5124    0.7106   -1.1704 C   0  0  0  0  0  0  0  0  0  0  0  0
    1.9223   -0.4447   -1.6017 C   0  0  0  0  0  0  0  0  0  0  0  0
    0.9419    1.9653   -1.5100 C   0  0  0  0  0  0  0  0  0  0  0  0
   -0.4487    2.5088   -2.3879 C   0  0  1  0  0  0  0  0  0  0  0  0
   -1.9488    1.8892   -2.4698 C   0  0  0  0  0  0  0  0  0  0  0  0
   -1.4130    0.7164   -2.0238 N   0  0  0  0  0  0  0  0  0  0  0  0
   -2.1473   -0.4921   -3.2106 C   0  0  0  0  0  0  0  0  0  0  0  0
   -1.3604   -1.2192   -4.2893 N   0  0  0  0  0  0  0  0  0  0  0  0
   -0.8360   -2.7628   -4.4336 C   0  0  0  0  0  0  0  0  0  0  0  0
   -1.7106   -3.5538   -3.8117 C   0  0  0  0  0  0  0  0  0  0  0  0
   -2.8319   -2.8609   -3.1036 C   0  0  0  0  0  0  0  0  0  0  0  0
   -2.9163   -1.4675   -2.5604 C   0  0  0  0  0  0  0  0  0  0  0  0
   -3.1880   -1.4696   -1.0838 C   0  0  0  0  0  0  0  0  0  0  0  0
   -3.5027   -2.5131   -0.5376 O   0  0  0  0  0  0  0  0  0  0  0  0
   -2.8816   -0.4236   -0.2473 N   0  0  0  0  0  0  0  0  0  0  0  0
   -1.4105    0.2345   -0.0346 S   0  0  0  0  0  0  0  0  0  0  0  0
   -2.3716    1.3902    0.0029 O   0  0  0  0  0  0  0  0  0  0  0  0
   -0.5771    1.3106    0.5655 O   0  0  0  0  0  0  0  0  0  0  0  0
   -0.3179   -0.7399   -2.0441 C   0  0  0  0  0  0  0  0  0  0  0  0
   -0.0755   -1.9175   -2.2007 C   0  0  0  0  0  0  0  0  0  0  0  0
    0.8466   -1.8977   -3.2678 C   0  0  0  0  0  0  0  0  0  0  0  0
    1.1347   -0.7872   -4.3134 C   0  0  0  0  0  0  0  0  0  0  0  0
    0.4995    0.3942   -4.4126 C   0  0  0  0  0  0  0  0  0  0  0  0
    0.2545    1.3036   -5.4909 N   0  0  0  0  0  0  0  0  0  0  0  0
    1.5521    1.2930   -5.9619 C   0  0  0  0  0  0  0  0  0  0  0  0
    1.9917    2.4196   -4.5369 C   0  0  0  0  0  0  0  0  0  0  0  0
    0.6949    3.2336   -3.2361 C   0  0  0  0  0  0  0  0  0  0  0  0
    0.0741    0.4892   -3.2475 N   0  0  0  0  0  0  0  0  0  0  0  0
    0.6257   -3.4503   -5.3888 N   0  0  0  0  0  0  0  0  0  0  0  0
    2.0282   -2.9934   -5.7277 C   0  0  0  0  0  0  0  0  0  0  0  0
    2.3360   -3.1764   -7.0833 C   0  0  0  0  0  0  0  0  0  0  0  0
    1.1791   -3.6618   -7.7226 C   0  0  0  0  0  0  0  0  0  0  0  0
    0.8999   -3.6683   -9.1363 O   0  0  0  0  0  0  0  0  0  0  0  0
   -0.4822   -3.5274   -9.7345 C   0  0  0  0  0  0  0  0  0  0  0  0
   -1.5108   -4.5105   -9.2056 C   0  0  0  0  0  0  0  0  0  0  0  0
   -1.8406   -4.1573   -7.8437 C   0  0  0  0  0  0  0  0  0  0  0  0
   -2.9446   -3.3529   -7.1973 C   0  0  0  0  0  0  0  0  0  0  0  0
   -3.2194   -4.3263   -5.7700 C   0  0  0  0  0  0  0  0  0  0  0  0
   -3.7705   -3.0043   -6.0862 C   0  0  0  0  0  0  0  0  0  0  0  0
   -1.7040   -2.6380   -7.6266 C   0  0  0  0  0  0  0  0  0  0  0  0
   -0.5587   -1.5795   -7.8054 C   0  0  0  0  0  0  0  0  0  0  0  0
   -0.8461   -2.2352   -6.5794 C   0  0  0  0  0  0  0  0  0  0  0  0
    0.5077   -4.3444   -6.7305 N   0  0  0  0  0  0  0  0  0  0  0  0
    0.6853   -1.1148    0.4421 H   0  0  0  0  0  0  0  0  0  0  0  0
    0.8619    0.4363    1.2996 H   0  0  0  0  0  0  0  0  0  0  0  0
    2.1399    0.0320    0.4142 H   0  0  0  0  0  0  0  0  0  0  0  0
    2.4381   -0.1056   -2.4763 H   0  0  0  0  0  0  0  0  0  0  0  0
    2.4481   -1.0318   -0.8201 H   0  0  0  0  0  0  0  0  0  0  0  0
    1.7598   -1.5113   -1.7205 H   0  0  0  0  0  0  0  0  0  0  0  0
    1.4049    2.5682   -0.7273 H   0  0  0  0  0  0  0  0  0  0  0  0
    1.8094    1.7214   -2.1534 H   0  0  0  0  0  0  0  0  0  0  0  0
   -0.9795    3.3728   -2.7631 H   0  0  0  0  0  0  0  0  0  0  0  0
   -2.4646    2.4995   -1.6915 H   0  0  0  0  0  0  0  0  0  0  0  0
   -2.9154    1.3368   -2.2074 H   0  0  0  0  0  0  0  0  0  0  0  0
   -1.6406   -4.5676   -4.1531 H   0  0  0  0  0  0  0  0  0  0  0  0
   -3.8348   -3.2912   -3.2291 H   0  0  0  0  0  0  0  0  0  0  0  0
   -3.4776   -0.0720    0.4906 H   0  0  0  0  0  0  0  0  0  0  0  0
   -0.7333   -2.4802   -1.6360 H   0  0  0  0  0  0  0  0  0  0  0  0
    1.2004   -2.9021   -3.3405 H   0  0  0  0  0  0  0  0  0  0  0  0
    1.6689   -1.0599   -5.1824 H   0  0  0  0  0  0  0  0  0  0  0  0
    0.1139    2.2839   -5.2250 H   0  0  0  0  0  0  0  0  0  0  0  0
    1.7548    1.4468   -7.0522 H   0  0  0  0  0  0  0  0  0  0  0  0
    1.5358    0.2119   -6.2108 H   0  0  0  0  0  0  0  0  0  0  0  0
    2.3344    3.1351   -5.3002 H   0  0  0  0  0  0  0  0  0  0  0  0
    3.0151    2.0007   -4.3124 H   0  0  0  0  0  0  0  0  0  0  0  0
    0.7291    4.3425   -2.9019 H   0  0  0  0  0  0  0  0  0  0  0  0
    0.7842    3.5847   -2.0721 H   0  0  0  0  0  0  0  0  0  0  0  0
    2.6583   -2.6590   -4.9111 H   0  0  0  0  0  0  0  0  0  0  0  0
    3.3012   -3.0764   -7.5594 H   0  0  0  0  0  0  0  0  0  0  0  0
   -0.9151   -2.5019   -9.7424 H   0  0  0  0  0  0  0  0  0  0  0  0
   -0.4231   -3.7068  -10.8168 H   0  0  0  0  0  0  0  0  0  0  0  0
   -2.4606   -4.5297   -9.7365 H   0  0  0  0  0  0  0  0  0  0  0  0
   -1.0481   -5.4979   -9.2387 H   0  0  0  0  0  0  0  0  0  0  0  0
   -1.6059   -5.0498   -7.2473 H   0  0  0  0  0  0  0  0  0  0  0  0
   -3.7381   -4.4617   -4.7964 H   0  0  0  0  0  0  0  0  0  0  0  0
   -3.3967   -5.3646   -6.0530 H   0  0  0  0  0  0  0  0  0  0  0  0
   -3.4513   -2.1555   -5.4852 H   0  0  0  0  0  0  0  0  0  0  0  0
   -4.8088   -3.0080   -6.3375 H   0  0  0  0  0  0  0  0  0  0  0  0
    0.5125   -1.6332   -8.1170 H   0  0  0  0  0  0  0  0  0  0  0  0
   -0.4553   -0.5054   -7.5916 H   0  0  0  0  0  0  0  0  0  0  0  0
   -0.4159   -1.4712   -5.9780 H   0  0  0  0  0  0  0  0  0  0  0  0
   -1.0022   -3.2717   -6.2080 H   0  0  0  0  0  0  0  0  0  0  0  0
  1 45  1  0  0  0  0
  1 46  1  0  0  0  0
  1 47  1  0  0  0  0
  1  2  1  0  0  0  0
  2  4  1  0  0  0  0
  2  7  1  0  0  0  0
  2  3  1  0  0  0  0
  3 48  1  0  0  0  0
  3 49  1  0  0  0  0
  3 50  1  0  0  0  0
  4 51  1  0  0  0  0
  4 52  1  0  0  0  0
  5  4  1  0  0  0  0
  5  6  1  0  0  0  0
  5 28  1  0  0  0  0
  5 53  1  6  0  0  0
  6  7  1  0  0  0  0
  6 54  1  0  0  0  0
  6 55  1  0  0  0  0
  7  8  1  0  0  0  0
  8  9  2  0  0  0  0
  8 13  1  0  0  0  0
  9 10  1  0  0  0  0
 10 11  2  0  0  0  0
 10 30  1  0  0  0  0
 11 12  1  0  0  0  0
 11 56  1  0  0  0  0
 12 13  2  0  0  0  0
 12 57  1  0  0  0  0
 13 14  1  0  0  0  0
 14 16  1  0  0  0  0
 14 15  2  0  0  0  0
 16 17  1  0  0  0  0
 16 58  1  0  0  0  0
 17 20  1  0  0  0  0
 17 18  2  0  0  0  0
 17 19  2  0  0  0  0
 20 21  2  0  0  0  0
 20 29  1  0  0  0  0
 21 22  1  0  0  0  0
 21 59  1  0  0  0  0
 22 23  2  0  0  0  0
 22 60  1  0  0  0  0
 23 24  1  0  0  0  0
 23 61  1  0  0  0  0
 24 25  1  0  0  0  0
 24 29  2  0  0  0  0
 25 26  1  0  0  0  0
 25 62  1  0  0  0  0
 26 27  1  0  0  0  0
 26 63  1  0  0  0  0
 26 64  1  0  0  0  0
 27 28  1  0  0  0  0
 27 65  1  0  0  0  0
 27 66  1  0  0  0  0
 28 67  1  0  0  0  0
 28 68  1  0  0  0  0
 30 31  1  0  0  0  0
 30 44  1  0  0  0  0
 31 32  2  0  0  0  0
 31 69  1  0  0  0  0
 32 33  1  0  0  0  0
 32 70  1  0  0  0  0
 33 34  1  0  0  0  0
 33 44  2  0  0  0  0
 34 35  1  0  0  0  0
 35 36  1  0  0  0  0
 35 71  1  0  0  0  0
 35 72  1  0  0  0  0
 36 37  1  0  0  0  0
 36 73  1  0  0  0  0
 36 74  1  0  0  0  0
 37 38  1  0  0  0  0
 37 41  1  0  0  0  0
 37 75  1  0  0  0  0
 38 39  1  0  0  0  0
 38 40  1  0  0  0  0
 38 41  1  0  0  0  0
 39 40  1  0  0  0  0
 39 76  1  0  0  0  0
 39 77  1  0  0  0  0
 40 78  1  0  0  0  0
 40 79  1  0  0  0  0
 41 42  1  0  0  0  0
 41 43  1  0  0  0  0
 42 43  1  0  0  0  0
 42 80  1  0  0  0  0
 42 81  1  0  0  0  0
 43 82  1  0  0  0  0
 43 83  1  0  0  0  0
M  END
>  <DRUGBANK_ID>
DB18373

>  <COMMON_NAME>
Vanzacaftor

>  <CAS_NUMBER>
2374124-49-7

>  <UNII>
COM1POP492

>  <SYNONYMS>
Vanzacaftor; VX-121

$$$$
