
 OpenBabel10282417133D

 22 21  0  0  1  0  0  0  0  0999 V2000
    3.3257   -2.9136   -1.4031 O   0  0  0  0  0  0  0  0  0  0  0  0
    2.5987   -1.7272   -1.1301 C   0  0  0  0  0  0  0  0  0  0  0  0
    1.0949   -1.7676   -1.4617 C   0  0  2  0  0  0  0  0  0  0  0  0
    0.4462   -1.5030   -0.2074 O   0  0  0  0  0  0  0  0  0  0  0  0
    0.6061   -3.0957   -2.0707 C   0  0  1  0  0  0  0  0  0  0  0  0
   -0.8329   -3.0341   -2.1372 O   0  0  0  0  0  0  0  0  0  0  0  0
    1.0971   -3.4078   -3.5034 C   0  0  0  0  0  0  0  0  0  0  0  0
    2.5920   -3.4886   -3.7939 C   0  0  0  0  0  0  0  0  0  0  0  0
    3.1526   -4.5755   -3.8885 O   0  0  0  0  0  0  0  0  0  0  0  0
    3.4447   -2.1712   -3.9131 C   0  0  0  0  0  0  0  0  0  0  0  0
    2.7412   -1.0554   -4.1839 O   0  0  0  0  0  0  0  0  0  0  0  0
    4.6431   -2.1484   -3.7762 O   0  0  0  0  0  0  0  0  0  0  0  0
    2.8199   -3.7393   -1.3261 H   0  0  0  0  0  0  0  0  0  0  0  0
    2.7740   -1.5047   -0.0803 H   0  0  0  0  0  0  0  0  0  0  0  0
    3.0744   -0.9065   -1.6809 H   0  0  0  0  0  0  0  0  0  0  0  0
    0.7751   -0.9478   -2.1209 H   0  0  0  0  0  0  0  0  0  0  0  0
   -0.4915   -1.3020   -0.3525 H   0  0  0  0  0  0  0  0  0  0  0  0
    0.8347   -3.9170   -1.3814 H   0  0  0  0  0  0  0  0  0  0  0  0
   -1.1677   -2.9779   -1.2225 H   0  0  0  0  0  0  0  0  0  0  0  0
    0.6986   -4.4055   -3.7557 H   0  0  0  0  0  0  0  0  0  0  0  0
    0.6286   -2.7504   -4.2423 H   0  0  0  0  0  0  0  0  0  0  0  0
    1.9493   -0.9203   -3.6451 H   0  0  0  0  0  0  0  0  0  0  0  0
  1  2  1  0  0  0  0
  1 13  1  0  0  0  0
  2 14  1  0  0  0  0
  2 15  1  0  0  0  0
  3  5  1  0  0  0  0
  3 16  1  6  0  0  0
  3  4  1  0  0  0  0
  3  2  1  0  0  0  0
  4 17  1  0  0  0  0
  5  6  1  0  0  0  0
  5  7  1  0  0  0  0
  5 18  1  1  0  0  0
  6 19  1  0  0  0  0
  7  8  1  0  0  0  0
  7 20  1  0  0  0  0
  7 21  1  0  0  0  0
  8  9  2  0  0  0  0
  8 10  1  0  0  0  0
 10 11  1  0  0  0  0
 10 12  2  0  0  0  0
 11 22  1  0  0  0  0
M  END
>  <DRUGBANK_ID>
DB03489

>  <SECONDARY_ACCESSION_NUMBERS>
EXPT01966

>  <COMMON_NAME>
2-Keto-3-Deoxygluconate

>  <UNII>
KZ7RZH5BR4

$$$$
