
 OpenBabel10282417163D

 60 60  0  0  0  0  0  0  0  0999 V2000
   -0.8558   -1.9563    7.8339 N   0  0  0  0  0  0  0  0  0  0  0  0
    0.1813   -0.9669    7.4276 C   0  0  2  0  0  0  0  0  0  0  0  0
   -1.4121    0.7804    6.6093 O   0  0  0  0  0  0  0  0  0  0  0  0
   -0.2693    0.4095    6.7611 C   0  0  0  0  0  0  0  0  0  0  0  0
    1.1731   -1.7547    6.5473 C   0  0  0  0  0  0  0  0  0  0  0  0
    2.4304   -0.9702    6.2102 C   0  0  0  0  0  0  0  0  0  0  0  0
    1.6091   -3.0060    7.3167 C   0  0  0  0  0  0  0  0  0  0  0  0
    0.7201    1.2974    6.4063 N   0  0  0  0  0  0  0  0  0  0  0  0
    0.3874    2.6007    5.8277 C   0  0  1  0  0  0  0  0  0  0  0  0
   -0.1967    3.5116    3.6609 O   0  0  0  0  0  0  0  0  0  0  0  0
    1.3507    3.6283    6.4035 C   0  0  0  0  0  0  0  0  0  0  0  0
    0.3757    2.6089    4.2698 C   0  0  0  0  0  0  0  0  0  0  0  0
    1.1493    1.6675    3.6159 N   0  0  0  0  0  0  0  0  0  0  0  0
    1.3826    1.5949    2.1375 C   0  0  2  0  0  0  0  0  0  0  0  0
    3.4244    0.4803    2.7863 O   0  0  0  0  0  0  0  0  0  0  0  0
    2.5356    0.5758    1.9263 C   0  0  0  0  0  0  0  0  0  0  0  0
    1.8475    2.9549    1.6166 C   0  0  0  0  0  0  0  0  0  0  0  0
    1.9286    3.0308    0.1240 C   0  0  0  0  0  0  0  0  0  0  0  0
    1.1978    3.6552   -0.6126 O   0  0  0  0  0  0  0  0  0  0  0  0
    2.9361    2.2928   -0.3782 O   0  0  0  0  0  0  0  0  0  0  0  0
    2.6063   -0.2891    0.6693 C   0  0  0  0  0  0  0  0  0  0  0  0
    1.8050   -1.3869    0.7302 F   0  0  0  0  0  0  0  0  0  0  0  0
   -1.4518   -1.9403    9.0774 C   0  0  0  0  0  0  0  0  0  0  0  0
   -2.6174   -2.6415    9.2340 O   0  0  0  0  0  0  0  0  0  0  0  0
   -0.9824   -1.2973   10.0039 O   0  0  0  0  0  0  0  0  0  0  0  0
   -3.4463   -3.2583    8.2046 C   0  0  0  0  0  0  0  0  0  0  0  0
   -4.0808   -2.2864    7.2254 C   0  0  0  0  0  0  0  0  0  0  0  0
   -3.3189   -1.2628    6.6927 C   0  0  0  0  0  0  0  0  0  0  0  0
   -3.6379   -0.4608    5.6162 C   0  0  0  0  0  0  0  0  0  0  0  0
   -4.9212   -0.4707    5.1850 C   0  0  0  0  0  0  0  0  0  0  0  0
   -5.7873   -1.4147    5.7293 C   0  0  0  0  0  0  0  0  0  0  0  0
   -5.3741   -2.3337    6.7286 C   0  0  0  0  0  0  0  0  0  0  0  0
   -1.2773   -2.5111    7.1004 H   0  0  0  0  0  0  0  0  0  0  0  0
    0.6631   -0.6369    8.3513 H   0  0  0  0  0  0  0  0  0  0  0  0
    0.6797   -2.0563    5.6109 H   0  0  0  0  0  0  0  0  0  0  0  0
    2.8547   -0.5245    7.1162 H   0  0  0  0  0  0  0  0  0  0  0  0
    3.1839   -1.5862    5.7217 H   0  0  0  0  0  0  0  0  0  0  0  0
    2.2186   -0.1852    5.4951 H   0  0  0  0  0  0  0  0  0  0  0  0
    0.7734   -3.6880    7.5035 H   0  0  0  0  0  0  0  0  0  0  0  0
    2.3629   -3.5642    6.7611 H   0  0  0  0  0  0  0  0  0  0  0  0
    2.0228   -2.7102    8.2878 H   0  0  0  0  0  0  0  0  0  0  0  0
    1.6294    1.2065    6.8300 H   0  0  0  0  0  0  0  0  0  0  0  0
   -0.6293    2.8850    6.1296 H   0  0  0  0  0  0  0  0  0  0  0  0
    1.1245    4.6371    6.0491 H   0  0  0  0  0  0  0  0  0  0  0  0
    1.2832    3.6304    7.4999 H   0  0  0  0  0  0  0  0  0  0  0  0
    2.3858    3.3896    6.1398 H   0  0  0  0  0  0  0  0  0  0  0  0
    1.6516    0.9986    4.1814 H   0  0  0  0  0  0  0  0  0  0  0  0
    0.4515    1.2401    1.6802 H   0  0  0  0  0  0  0  0  0  0  0  0
    1.1573    3.7522    1.8987 H   0  0  0  0  0  0  0  0  0  0  0  0
    2.8148    3.2292    2.0519 H   0  0  0  0  0  0  0  0  0  0  0  0
    2.8233    2.3440   -1.3534 H   0  0  0  0  0  0  0  0  0  0  0  0
    2.3586    0.2218   -0.2575 H   0  0  0  0  0  0  0  0  0  0  0  0
    3.6444   -0.6314    0.5627 H   0  0  0  0  0  0  0  0  0  0  0  0
   -2.8370   -4.0119    7.6865 H   0  0  0  0  0  0  0  0  0  0  0  0
   -4.2282   -3.8199    8.7343 H   0  0  0  0  0  0  0  0  0  0  0  0
   -2.4752   -0.9174    7.2320 H   0  0  0  0  0  0  0  0  0  0  0  0
   -2.9204    0.2429    5.2125 H   0  0  0  0  0  0  0  0  0  0  0  0
   -5.2109    0.3018    4.4844 H   0  0  0  0  0  0  0  0  0  0  0  0
   -6.8002   -1.4284    5.3503 H   0  0  0  0  0  0  0  0  0  0  0  0
   -6.1019   -3.0260    7.1381 H   0  0  0  0  0  0  0  0  0  0  0  0
  1 23  1  0  0  0  0
  1 33  1  0  0  0  0
  2  5  1  0  0  0  0
  2 34  1  1  0  0  0
  2  4  1  0  0  0  0
  2  1  1  0  0  0  0
  4  8  1  0  0  0  0
  4  3  2  0  0  0  0
  5  6  1  0  0  0  0
  5  7  1  0  0  0  0
  5 35  1  0  0  0  0
  6 36  1  0  0  0  0
  6 37  1  0  0  0  0
  6 38  1  0  0  0  0
  7 39  1  0  0  0  0
  7 40  1  0  0  0  0
  7 41  1  0  0  0  0
  8 42  1  0  0  0  0
  9 11  1  0  0  0  0
  9 43  1  1  0  0  0
  9 12  1  0  0  0  0
  9  8  1  0  0  0  0
 11 44  1  0  0  0  0
 11 45  1  0  0  0  0
 11 46  1  0  0  0  0
 12 13  1  0  0  0  0
 12 10  2  0  0  0  0
 13 47  1  0  0  0  0
 14 17  1  0  0  0  0
 14 48  1  6  0  0  0
 14 16  1  0  0  0  0
 14 13  1  0  0  0  0
 16 15  2  0  0  0  0
 16 21  1  0  0  0  0
 17 18  1  0  0  0  0
 17 49  1  0  0  0  0
 17 50  1  0  0  0  0
 18 19  2  0  0  0  0
 18 20  1  0  0  0  0
 20 51  1  0  0  0  0
 21 22  1  0  0  0  0
 21 52  1  0  0  0  0
 21 53  1  0  0  0  0
 23 24  1  0  0  0  0
 23 25  2  0  0  0  0
 24 26  1  0  0  0  0
 26 27  1  0  0  0  0
 26 54  1  0  0  0  0
 26 55  1  0  0  0  0
 27 28  2  0  0  0  0
 28 29  1  0  0  0  0
 28 56  1  0  0  0  0
 29 30  2  0  0  0  0
 29 57  1  0  0  0  0
 30 31  1  0  0  0  0
 30 58  1  0  0  0  0
 31 32  2  0  0  0  0
 31 59  1  0  0  0  0
 32 27  1  0  0  0  0
 32 60  1  0  0  0  0
M  END
>  <DRUGBANK_ID>
DB07744

>  <COMMON_NAME>
Z-Val-Ala-Asp fluoromethyl ketone

>  <CAS_NUMBER>
161401-82-7

>  <SYNONYMS>
N-[(Benzyloxy)carbonyl]-L-valyl-N-[(2S)-1-carboxy-4-fluoro-3-oxo-2-butanyl]-L-alaninamide; Z-VAD-FMK

$$$$
