
 OpenBabel10282417123D

 72 71  0  0  0  0  0  0  0  0999 V2000
    0.9574    0.0890   -0.1412 C   0  0  0  0  0  0  0  0  0  0  0  0
   -3.0173   -3.3763    8.9568 C   0  0  0  0  0  0  0  0  0  0  0  0
   -3.3721   -3.2663    6.0894 C   0  0  0  0  0  0  0  0  0  0  0  0
   -2.7955   -6.1767    7.1145 C   0  0  0  0  0  0  0  0  0  0  0  0
    0.5024   -1.3197   -0.4792 C   0  0  0  0  0  0  0  0  0  0  0  0
    1.0178   -2.2950    0.5789 C   0  0  0  0  0  0  0  0  0  0  0  0
    0.4761   -1.9212    1.9621 C   0  0  0  0  0  0  0  0  0  0  0  0
   -1.0484   -1.9459    1.9237 C   0  0  0  0  0  0  0  0  0  0  0  0
   -1.4733   -3.3534    1.4755 C   0  0  0  0  0  0  0  0  0  0  0  0
   -0.9377   -4.3934    2.4789 C   0  0  0  0  0  0  0  0  0  0  0  0
   -1.4834   -4.0076    3.8082 C   0  0  0  0  0  0  0  0  0  0  0  0
   -2.9663   -3.9076    3.5041 C   0  0  0  0  0  0  0  0  0  0  0  0
   -3.6504   -5.2705    3.3159 C   0  0  0  0  0  0  0  0  0  0  0  0
   -3.3481   -6.3563    4.2943 C   0  0  0  0  0  0  0  0  0  0  0  0
   -1.2751   -4.5671    7.4823 C   0  0  0  0  0  0  0  0  0  0  0  0
   -1.2535   -5.4411    8.9037 C   0  0  0  0  0  0  0  0  0  0  0  0
   -5.0111   -4.3687    7.4419 C   0  0  0  0  0  0  0  0  0  0  0  0
   -6.3997   -6.0044    7.8606 C   0  0  0  0  0  0  0  0  0  0  0  0
   -6.2900   -4.5068    8.0379 C   0  0  3  0  0  0  0  0  0  0  0  0
   -4.5266   -6.3117    5.2778 C   0  0  0  0  0  0  0  0  0  0  0  0
   -2.6907   -4.3187    7.3710 N   0  3  0  0  0  0  0  0  0  0  0  0
   -6.2467   -4.0796    9.3906 O   0  0  0  0  0  0  0  0  0  0  0  0
   -5.2134   -7.3920    5.4557 O   0  0  0  0  0  0  0  0  0  0  0  0
   -3.6289   -8.3864    8.3969 O   0  0  0  0  0  0  0  0  0  0  0  0
   -4.2354   -5.8758    9.5668 O   0  0  0  0  0  0  0  0  0  0  0  0
   -4.6448   -5.1907    6.0594 O   0  0  0  0  0  0  0  0  0  0  0  0
   -2.2729   -6.6436    9.4591 O   0  0  0  0  0  0  0  0  0  0  0  0
   -5.5514   -7.0362    8.7109 O   0  0  0  0  0  0  0  0  0  0  0  0
   -3.9391   -7.4092    9.5074 P   0  0  3  0  0  0  0  0  0  0  0  0
    0.5725    0.4277    0.8266 H   0  0  0  0  0  0  0  0  0  0  0  0
    0.5993    0.8000   -0.8841 H   0  0  0  0  0  0  0  0  0  0  0  0
    2.0495    0.1184   -0.0959 H   0  0  0  0  0  0  0  0  0  0  0  0
   -2.7425   -2.3245    8.8206 H   0  0  0  0  0  0  0  0  0  0  0  0
   -4.0737   -3.1745    9.1532 H   0  0  0  0  0  0  0  0  0  0  0  0
   -2.9135   -3.9965    9.8545 H   0  0  0  0  0  0  0  0  0  0  0  0
   -3.6192   -3.9172    5.2957 H   0  0  0  0  0  0  0  0  0  0  0  0
   -4.4972   -3.0342    6.0294 H   0  0  0  0  0  0  0  0  0  0  0  0
   -3.0438   -2.2400    6.0881 H   0  0  0  0  0  0  0  0  0  0  0  0
   -2.3316   -6.4886    6.2070 H   0  0  0  0  0  0  0  0  0  0  0  0
   -2.0891   -6.8219    7.6356 H   0  0  0  0  0  0  0  0  0  0  0  0
   -3.7718   -6.6091    7.2126 H   0  0  0  0  0  0  0  0  0  0  0  0
   -0.5922   -1.3444   -0.5550 H   0  0  0  0  0  0  0  0  0  0  0  0
    0.8649   -1.6198   -1.4645 H   0  0  0  0  0  0  0  0  0  0  0  0
    0.7331   -3.3172    0.2990 H   0  0  0  0  0  0  0  0  0  0  0  0
    2.1080   -2.3118    0.6029 H   0  0  0  0  0  0  0  0  0  0  0  0
    0.8748   -2.6082    2.7162 H   0  0  0  0  0  0  0  0  0  0  0  0
    0.8272   -0.9459    2.2993 H   0  0  0  0  0  0  0  0  0  0  0  0
   -1.4476   -1.6377    2.9001 H   0  0  0  0  0  0  0  0  0  0  0  0
   -1.4808   -1.2004    1.2531 H   0  0  0  0  0  0  0  0  0  0  0  0
   -2.5542   -3.3561    1.3271 H   0  0  0  0  0  0  0  0  0  0  0  0
   -1.1769   -3.6371    0.4746 H   0  0  0  0  0  0  0  0  0  0  0  0
   -1.2817   -5.3988    2.2303 H   0  0  0  0  0  0  0  0  0  0  0  0
    0.1465   -4.4593    2.5371 H   0  0  0  0  0  0  0  0  0  0  0  0
   -1.2030   -4.7050    4.5973 H   0  0  0  0  0  0  0  0  0  0  0  0
   -1.0977   -3.0616    4.2258 H   0  0  0  0  0  0  0  0  0  0  0  0
   -3.1836   -3.0179    4.0833 H   0  0  0  0  0  0  0  0  0  0  0  0
   -3.4545   -3.3219    2.7336 H   0  0  0  0  0  0  0  0  0  0  0  0
   -4.7286   -5.1351    3.3216 H   0  0  0  0  0  0  0  0  0  0  0  0
   -3.3840   -5.6646    2.3333 H   0  0  0  0  0  0  0  0  0  0  0  0
   -3.3464   -7.3811    3.8863 H   0  0  0  0  0  0  0  0  0  0  0  0
   -2.2874   -6.3205    4.5891 H   0  0  0  0  0  0  0  0  0  0  0  0
   -0.7877   -3.5924    7.4278 H   0  0  0  0  0  0  0  0  0  0  0  0
   -0.9558   -5.1296    6.5869 H   0  0  0  0  0  0  0  0  0  0  0  0
   -1.2964   -4.7155    9.6968 H   0  0  0  0  0  0  0  0  0  0  0  0
   -0.2205   -5.8136    8.9191 H   0  0  0  0  0  0  0  0  0  0  0  0
   -4.3232   -4.6703    8.1629 H   0  0  0  0  0  0  0  0  0  0  0  0
   -4.7554   -3.2814    7.5419 H   0  0  0  0  0  0  0  0  0  0  0  0
   -7.4661   -6.1768    7.9271 H   0  0  0  0  0  0  0  0  0  0  0  0
   -6.2487   -6.2039    6.8081 H   0  0  0  0  0  0  0  0  0  0  0  0
   -6.7455   -3.7249    7.4056 H   0  0  0  0  0  0  0  0  0  0  0  0
   -5.6835   -4.7158    9.8826 H   0  0  0  0  0  0  0  0  0  0  0  0
   -4.5131   -6.0544    8.6482 H   0  0  0  0  0  0  0  0  0  0  0  0
  1 30  1  0  0  0  0
  1 31  1  0  0  0  0
  1 32  1  0  0  0  0
  2 33  1  0  0  0  0
  2 34  1  0  0  0  0
  2 35  1  0  0  0  0
  3 36  1  0  0  0  0
  3 37  1  0  0  0  0
  3 38  1  0  0  0  0
  4 39  1  0  0  0  0
  4 40  1  0  0  0  0
  4 41  1  0  0  0  0
  5  1  1  0  0  0  0
  5 42  1  0  0  0  0
  5 43  1  0  0  0  0
  6  5  1  0  0  0  0
  6 44  1  0  0  0  0
  6 45  1  0  0  0  0
  7  6  1  0  0  0  0
  7 46  1  0  0  0  0
  7 47  1  0  0  0  0
  8  7  1  0  0  0  0
  8 48  1  0  0  0  0
  8 49  1  0  0  0  0
  9  8  1  0  0  0  0
  9 50  1  0  0  0  0
  9 51  1  0  0  0  0
 10  9  1  0  0  0  0
 10 52  1  0  0  0  0
 10 53  1  0  0  0  0
 11 10  1  0  0  0  0
 11 54  1  0  0  0  0
 11 55  1  0  0  0  0
 12 11  1  0  0  0  0
 12 56  1  0  0  0  0
 12 57  1  0  0  0  0
 13 12  1  0  0  0  0
 13 58  1  0  0  0  0
 13 59  1  0  0  0  0
 14 13  1  0  0  0  0
 14 60  1  0  0  0  0
 14 61  1  0  0  0  0
 15 62  1  0  0  0  0
 15 63  1  0  0  0  0
 16 15  1  0  0  0  0
 16 64  1  0  0  0  0
 16 65  1  0  0  0  0
 17 66  1  0  0  0  0
 17 67  1  0  0  0  0
 18 68  1  0  0  0  0
 18 69  1  0  0  0  0
 19 17  1  0  0  0  0
 19 18  1  0  0  0  0
 19 70  1  0  0  0  0
 20 14  1  0  0  0  0
 21  2  1  0  0  0  0
 21  3  1  0  0  0  0
 21  4  1  0  0  0  0
 21 15  1  0  0  0  0
 22 19  1  0  0  0  0
 22 71  1  0  0  0  0
 23 20  2  0  0  0  0
 25 72  1  0  0  0  0
 26 17  1  0  0  0  0
 26 20  1  0  0  0  0
 27 16  1  0  0  0  0
 28 18  1  0  0  0  0
 29 24  2  0  0  0  0
 29 25  1  0  0  0  0
 29 27  1  0  0  0  0
 29 28  1  0  0  0  0
M  CHG  1  21   1
M  END
>  <DRUGBANK_ID>
DB01707

>  <SECONDARY_ACCESSION_NUMBERS>
EXPT02003

>  <COMMON_NAME>
L-Alfa-Lysophosphatidylcholine, Lauroyl

>  <UNII>
V4Z2U6E9RE

$$$$
