1571
 OpenBabel10282417113D

 56 58  0  0  1  0  0  0  0  0999 V2000
    0.5505   -0.1964   -0.1184 O   0  0  0  0  0  0  0  0  0  0  0  0
    5.3000    1.4006    0.6163 N   0  0  0  0  0  0  0  0  0  0  0  0
    2.6732   -1.0491   -0.6652 N   0  0  0  0  0  0  0  0  0  0  0  0
    4.1816   -1.0192   -0.7162 C   0  0  3  0  0  0  0  0  0  0  0  0
    5.0482   -1.2654    0.5636 C   0  0  3  0  0  0  0  0  0  0  0  0
    4.5397    0.2570   -1.4044 C   0  0  0  0  0  0  0  0  0  0  0  0
    5.1087    0.0614    1.3591 C   0  0  0  0  0  0  0  0  0  0  0  0
    4.6243    1.5591   -0.7011 C   0  0  0  0  0  0  0  0  0  0  0  0
    6.4710   -1.9230    0.4990 C   0  0  0  0  0  0  0  0  0  0  0  0
    6.7432    1.7858    0.4545 C   0  0  0  0  0  0  0  0  0  0  0  0
    7.6047    0.8390   -0.4698 C   0  0  0  0  0  0  0  0  0  0  0  0
    2.1336   -1.7303   -1.8281 C   0  0  0  0  0  0  0  0  0  0  0  0
    1.7481   -0.1343   -0.0048 C   0  0  0  0  0  0  0  0  0  0  0  0
    2.2735    0.9133    0.9748 C   0  0  0  0  0  0  0  0  0  0  0  0
    7.3805    0.6015   -2.0240 C   0  0  0  0  0  0  0  0  0  0  0  0
    1.1883   -1.0787   -2.6238 C   0  0  0  0  0  0  0  0  0  0  0  0
    2.5506   -3.0189   -2.2042 C   0  0  0  0  0  0  0  0  0  0  0  0
    2.1769    2.4367    0.9056 C   0  0  0  0  0  0  0  0  0  0  0  0
    0.5119   -1.7537   -3.6291 C   0  0  0  0  0  0  0  0  0  0  0  0
    1.9152   -3.6782   -3.2615 C   0  0  0  0  0  0  0  0  0  0  0  0
    7.0527   -0.6891   -2.6342 C   0  0  0  0  0  0  0  0  0  0  0  0
    6.9422    1.7325   -2.7186 C   0  0  0  0  0  0  0  0  0  0  0  0
    0.8497   -3.0687   -3.9218 C   0  0  0  0  0  0  0  0  0  0  0  0
    6.1939   -0.7820   -3.7699 C   0  0  0  0  0  0  0  0  0  0  0  0
    6.0755    1.6164   -3.8261 C   0  0  0  0  0  0  0  0  0  0  0  0
    5.7248    0.3787   -4.3751 C   0  0  0  0  0  0  0  0  0  0  0  0
    4.5286   -1.8058   -1.4058 H   0  0  0  0  0  0  0  0  0  0  0  0
    4.4892   -2.0284    1.1176 H   0  0  0  0  0  0  0  0  0  0  0  0
    5.5438    0.0431   -1.4542 H   0  0  0  0  0  0  0  0  0  0  0  0
    4.1033    0.3533   -2.3985 H   0  0  0  0  0  0  0  0  0  0  0  0
    5.7159    0.0444    2.2684 H   0  0  0  0  0  0  0  0  0  0  0  0
    4.1553   -0.0246    1.8905 H   0  0  0  0  0  0  0  0  0  0  0  0
    3.5986    1.8729   -0.8030 H   0  0  0  0  0  0  0  0  0  0  0  0
    5.0592    2.4012   -1.2516 H   0  0  0  0  0  0  0  0  0  0  0  0
    6.9600   -1.7944    1.4766 H   0  0  0  0  0  0  0  0  0  0  0  0
    6.4860   -2.9654    0.1927 H   0  0  0  0  0  0  0  0  0  0  0  0
    7.2101   -1.5606   -0.2006 H   0  0  0  0  0  0  0  0  0  0  0  0
    6.8416    2.8379    0.1649 H   0  0  0  0  0  0  0  0  0  0  0  0
    7.1415    1.7370    1.4800 H   0  0  0  0  0  0  0  0  0  0  0  0
    8.6469    0.7154   -0.1685 H   0  0  0  0  0  0  0  0  0  0  0  0
    7.1736    0.0170    0.0151 H   0  0  0  0  0  0  0  0  0  0  0  0
    2.2007    0.5626    2.0042 H   0  0  0  0  0  0  0  0  0  0  0  0
    3.2666    0.8146    0.7207 H   0  0  0  0  0  0  0  0  0  0  0  0
    0.9407   -0.0358   -2.4428 H   0  0  0  0  0  0  0  0  0  0  0  0
    3.3184   -3.5551   -1.6527 H   0  0  0  0  0  0  0  0  0  0  0  0
    1.1904    2.7895    1.1615 H   0  0  0  0  0  0  0  0  0  0  0  0
    2.9288    2.8598    1.5990 H   0  0  0  0  0  0  0  0  0  0  0  0
    2.4174    2.9094   -0.0531 H   0  0  0  0  0  0  0  0  0  0  0  0
   -0.2960   -1.2499   -4.1489 H   0  0  0  0  0  0  0  0  0  0  0  0
    2.2157   -4.6848   -3.5415 H   0  0  0  0  0  0  0  0  0  0  0  0
    7.0990   -1.6338   -2.0862 H   0  0  0  0  0  0  0  0  0  0  0  0
    7.0093    2.6968   -2.2214 H   0  0  0  0  0  0  0  0  0  0  0  0
    0.2725   -3.6178   -4.6589 H   0  0  0  0  0  0  0  0  0  0  0  0
    5.7022   -1.7285   -4.0305 H   0  0  0  0  0  0  0  0  0  0  0  0
    5.5083    2.4958   -4.1281 H   0  0  0  0  0  0  0  0  0  0  0  0
    4.9685    0.3259   -5.1586 H   0  0  0  0  0  0  0  0  0  0  0  0
  1 13  2  0  0  0  0
  2  7  1  0  0  0  0
  2  8  1  0  0  0  0
  2 10  1  0  0  0  0
  3  4  1  0  0  0  0
  3 12  1  0  0  0  0
  3 13  1  0  0  0  0
  4  5  1  0  0  0  0
  4  6  1  0  0  0  0
  4 27  1  0  0  0  0
  5  7  1  0  0  0  0
  5  9  1  0  0  0  0
  5 28  1  0  0  0  0
  6  8  1  0  0  0  0
  6 29  1  0  0  0  0
  6 30  1  0  0  0  0
  7 31  1  0  0  0  0
  7 32  1  0  0  0  0
  8 33  1  0  0  0  0
  8 34  1  0  0  0  0
  9 35  1  0  0  0  0
  9 36  1  0  0  0  0
  9 37  1  0  0  0  0
 10 11  1  0  0  0  0
 10 38  1  0  0  0  0
 10 39  1  0  0  0  0
 11 15  1  0  0  0  0
 11 40  1  0  0  0  0
 11 41  1  0  0  0  0
 12 16  2  0  0  0  0
 12 17  1  0  0  0  0
 13 14  1  0  0  0  0
 14 18  1  0  0  0  0
 14 42  1  0  0  0  0
 14 43  1  0  0  0  0
 15 21  2  0  0  0  0
 15 22  1  0  0  0  0
 16 19  1  0  0  0  0
 16 44  1  0  0  0  0
 17 20  2  0  0  0  0
 17 45  1  0  0  0  0
 18 46  1  0  0  0  0
 18 47  1  0  0  0  0
 18 48  1  0  0  0  0
 19 23  2  0  0  0  0
 19 49  1  0  0  0  0
 20 23  1  0  0  0  0
 20 50  1  0  0  0  0
 21 24  1  0  0  0  0
 21 51  1  0  0  0  0
 22 25  2  0  0  0  0
 22 52  1  0  0  0  0
 23 53  1  0  0  0  0
 24 26  2  0  0  0  0
 24 54  1  0  0  0  0
 25 26  1  0  0  0  0
 25 55  1  0  0  0  0
 26 56  1  0  0  0  0
M  END
>  <DRUGBANK_ID>
DB01571

>  <COMMON_NAME>
3-Methylfentanyl

>  <CAS_NUMBER>
42045-86-3

>  <UNII>
QVU94XE61A

>  <SYNONYMS>
3-MF; mefentanyl

$$$$
