
 OpenBabel10282417173D

 85 84  0  0  0  0  0  0  0  0999 V2000
    0.9251   -0.0286   -0.0597 C   0  0  0  0  0  0  0  0  0  0  0  0
   -4.8588   -3.3828    1.2013 C   0  0  0  0  0  0  0  0  0  0  0  0
   -1.1575   -3.7148    2.1563 C   0  0  0  0  0  0  0  0  0  0  0  0
    0.9250   -1.4013    2.0083 C   0  0  0  0  0  0  0  0  0  0  0  0
   -1.6118   -0.1049    1.3687 C   0  0  0  0  0  0  0  0  0  0  0  0
   -1.8563    1.0643    0.4132 C   0  0  0  0  0  0  0  0  0  0  0  0
    0.4184   -0.2073    2.8009 C   0  0  0  0  0  0  0  0  0  0  0  0
   -7.3653   -2.2419   -1.5306 C   0  0  0  0  0  0  0  0  0  0  0  0
   -6.8786   -3.5522   -0.9073 C   0  0  0  0  0  0  0  0  0  0  0  0
   -7.6331    0.0118   -0.8033 C   0  0  0  0  0  0  0  0  0  0  0  0
   -6.1243    1.9759   -0.6723 C   0  0  0  0  0  0  0  0  0  0  0  0
   -3.6608   -4.0160    1.0362 C   0  0  0  0  0  0  0  0  0  0  0  0
   -1.0244   -0.3578    5.2086 C   0  0  0  0  0  0  0  0  0  0  0  0
    0.4184   -1.3120    0.5781 C   0  0  3  0  0  0  0  0  0  0  0  0
   -7.2457    1.2073    0.0296 C   0  0  3  0  0  0  0  0  0  0  0  0
   -6.9284   -1.1270   -0.7106 C   0  0  3  0  0  0  0  0  0  0  0  0
   -1.1016   -1.3120    0.5780 C   0  0  3  0  0  0  0  0  0  0  0  0
   -2.8954    2.0103    1.0194 C   0  0  3  0  0  0  0  0  0  0  0  0
   -4.8428   -4.2361    0.1275 C   0  0  3  0  0  0  0  0  0  0  0  0
   -5.2265    2.6368    0.3758 C   0  0  3  0  0  0  0  0  0  0  0  0
   -2.5389   -3.3303    0.2551 C   0  0  3  0  0  0  0  0  0  0  0  0
   -1.1016   -0.2073    2.8009 C   0  0  0  0  0  0  0  0  0  0  0  0
   -0.1506   -1.6015    5.2116 C   0  0  0  0  0  0  0  0  0  0  0  0
   -3.7715    2.5876   -0.0937 C   0  0  3  0  0  0  0  0  0  0  0  0
   -5.7716   -3.2761   -0.0094 C   0  0  3  0  0  0  0  0  0  0  0  0
   -1.6118   -2.6001    1.2282 C   0  0  3  0  0  0  0  0  0  0  0  0
   -1.7594   -0.2784    3.9380 N   0  0  0  0  0  0  0  0  0  0  0  0
   -5.6341   -0.7994   -1.1942 O   0  0  0  0  0  0  0  0  0  0  0  0
   -5.3493    1.9430    1.6087 O   0  0  0  0  0  0  0  0  0  0  0  0
   -1.7976   -4.3058   -0.4626 O   0  0  0  0  0  0  0  0  0  0  0  0
   -1.8116   -0.1307    1.5735 O   0  5  0  0  0  0  0  0  0  0  0  0
    1.1096   -1.4923    5.3348 O   0  0  0  0  0  0  0  0  0  0  0  0
   -0.7422   -2.8853    5.0768 O   0  5  0  0  0  0  0  0  0  0  0  0
    1.0735    0.0134    0.0665 Cl  0  0  0  0  0  0  0  0  0  0  0  0
    0.9365   -0.0594    0.0493 N   0  0  0  0  0  0  0  0  0  0  0  0
    1.0672   -0.0445   -0.0591 N   0  0  0  0  0  0  0  0  0  0  0  0
    1.0270   -0.0094    0.0958 Pt  0  2  0  0  0  0  0  0  0  0  0  0
    0.5684    0.8119    0.4982 H   0  0  0  0  0  0  0  0  0  0  0  0
    0.5684    0.0343   -1.0665 H   0  0  0  0  0  0  0  0  0  0  0  0
    1.9951   -0.0286   -0.0597 H   0  0  0  0  0  0  0  0  0  0  0  0
   -5.0125   -4.3264    1.6818 H   0  0  0  0  0  0  0  0  0  0  0  0
   -3.8390   -3.3044    0.8872 H   0  0  0  0  0  0  0  0  0  0  0  0
   -5.0824   -2.5926    1.8873 H   0  0  0  0  0  0  0  0  0  0  0  0
   -0.3169   -4.2173    1.7255 H   0  0  0  0  0  0  0  0  0  0  0  0
   -0.8786   -3.2999    3.1023 H   0  0  0  0  0  0  0  0  0  0  0  0
   -1.9574   -4.4120    2.2946 H   0  0  0  0  0  0  0  0  0  0  0  0
    0.5684   -2.3047    2.4573 H   0  0  0  0  0  0  0  0  0  0  0  0
    1.9950   -1.4013    2.0083 H   0  0  0  0  0  0  0  0  0  0  0  0
   -0.8822    0.1776    2.0986 H   0  0  0  0  0  0  0  0  0  0  0  0
   -2.5271   -0.3613    1.8600 H   0  0  0  0  0  0  0  0  0  0  0  0
   -0.9401    1.5943    0.2566 H   0  0  0  0  0  0  0  0  0  0  0  0
   -2.2169    0.6908   -0.5224 H   0  0  0  0  0  0  0  0  0  0  0  0
    0.7750   -0.2703    3.8077 H   0  0  0  0  0  0  0  0  0  0  0  0
    0.7750    0.6961    2.3519 H   0  0  0  0  0  0  0  0  0  0  0  0
   -8.4339   -2.2477   -1.5864 H   0  0  0  0  0  0  0  0  0  0  0  0
   -6.9584   -2.1421   -2.5152 H   0  0  0  0  0  0  0  0  0  0  0  0
   -7.6780   -4.0068   -0.3604 H   0  0  0  0  0  0  0  0  0  0  0  0
   -6.5541   -4.2167   -1.6806 H   0  0  0  0  0  0  0  0  0  0  0  0
   -8.5919   -0.2596   -0.4134 H   0  0  0  0  0  0  0  0  0  0  0  0
   -7.5881    0.3206   -1.8267 H   0  0  0  0  0  0  0  0  0  0  0  0
   -6.5483    2.7278   -1.3046 H   0  0  0  0  0  0  0  0  0  0  0  0
   -5.5438    1.2991   -1.2637 H   0  0  0  0  0  0  0  0  0  0  0  0
   -3.9532   -3.3970    1.8586 H   0  0  0  0  0  0  0  0  0  0  0  0
   -3.3142   -4.9586    1.4053 H   0  0  0  0  0  0  0  0  0  0  0  0
   -0.4093    0.5106    5.3197 H   0  0  0  0  0  0  0  0  0  0  0  0
   -1.7198   -0.4085    6.0203 H   0  0  0  0  0  0  0  0  0  0  0  0
    0.7751   -2.1525    0.0202 H   0  0  0  0  0  0  0  0  0  0  0  0
   -7.7172    1.9493    0.6395 H   0  0  0  0  0  0  0  0  0  0  0  0
   -6.9619   -1.4450    0.3105 H   0  0  0  0  0  0  0  0  0  0  0  0
   -1.4582   -1.2553   -0.4292 H   0  0  0  0  0  0  0  0  0  0  0  0
   -3.1366    2.7861    1.7159 H   0  0  0  0  0  0  0  0  0  0  0  0
   -4.9806   -5.2646   -0.1335 H   0  0  0  0  0  0  0  0  0  0  0  0
   -5.5241    3.6560    0.5084 H   0  0  0  0  0  0  0  0  0  0  0  0
   -2.9610   -2.6264   -0.4314 H   0  0  0  0  0  0  0  0  0  0  0  0
   -3.4523    3.3849   -0.7318 H   0  0  0  0  0  0  0  0  0  0  0  0
   -5.6978   -0.5147   -2.1507 H   0  0  0  0  0  0  0  0  0  0  0  0
   -5.0711    0.9906    1.4844 H   0  0  0  0  0  0  0  0  0  0  0  0
   -1.4032   -4.9635    0.1792 H   0  0  0  0  0  0  0  0  0  0  0  0
    2.4035    0.0134    0.0665 H   0  0  0  0  0  0  0  0  0  0  0  0
    0.5965   -0.9908   -0.1902 H   0  0  0  0  0  0  0  0  0  0  0  0
    0.5965    0.1988    0.9757 H   0  0  0  0  0  0  0  0  0  0  0  0
    1.9565   -0.0594    0.0493 H   0  0  0  0  0  0  0  0  0  0  0  0
    0.7272    0.0523    0.8976 H   0  0  0  0  0  0  0  0  0  0  0  0
    0.7272    0.7357   -0.6214 H   0  0  0  0  0  0  0  0  0  0  0  0
    2.0872   -0.0445   -0.0591 H   0  0  0  0  0  0  0  0  0  0  0  0
  1 38  1  0  0  0  0
  1 39  1  0  0  0  0
  1 40  1  0  0  0  0
  2 41  1  0  0  0  0
  2 42  1  0  0  0  0
  2 43  1  0  0  0  0
  3 44  1  0  0  0  0
  3 45  1  0  0  0  0
  3 46  1  0  0  0  0
  4 47  1  0  0  0  0
  4 48  1  0  0  0  0
  5 49  1  0  0  0  0
  5 50  1  0  0  0  0
  6  5  1  0  0  0  0
  6 51  1  0  0  0  0
  6 52  1  0  0  0  0
  7  4  1  0  0  0  0
  7 53  1  0  0  0  0
  7 54  1  0  0  0  0
  8 55  1  0  0  0  0
  8 56  1  0  0  0  0
  9  8  1  0  0  0  0
  9 57  1  0  0  0  0
  9 58  1  0  0  0  0
 10 59  1  0  0  0  0
 10 60  1  0  0  0  0
 11 61  1  0  0  0  0
 11 62  1  0  0  0  0
 12 63  1  0  0  0  0
 12 64  1  0  0  0  0
 13 65  1  0  0  0  0
 13 66  1  0  0  0  0
 14  1  1  0  0  0  0
 14  4  1  0  0  0  0
 14 67  1  0  0  0  0
 15 10  1  0  0  0  0
 15 11  1  0  0  0  0
 15 68  1  0  0  0  0
 16  8  1  0  0  0  0
 16 10  1  0  0  0  0
 16 69  1  0  0  0  0
 17  5  1  0  0  0  0
 17 14  1  0  0  0  0
 17 70  1  0  0  0  0
 18  6  1  0  0  0  0
 18 71  1  0  0  0  0
 19 12  1  0  0  0  0
 19 72  1  0  0  0  0
 20 11  1  0  0  0  0
 20 73  1  0  0  0  0
 21 12  1  0  0  0  0
 21 74  1  0  0  0  0
 22  7  1  0  0  0  0
 23 13  1  0  0  0  0
 24 18  1  0  0  0  0
 24 19  1  0  0  0  0
 24 20  1  0  0  0  0
 24 75  1  0  0  0  0
 25  2  1  0  0  0  0
 25  9  1  0  0  0  0
 25 15  1  0  0  0  0
 25 19  1  0  0  0  0
 26  3  1  0  0  0  0
 26 17  1  0  0  0  0
 26 18  1  0  0  0  0
 26 21  1  0  0  0  0
 27 13  1  0  0  0  0
 27 22  2  3  0  0  0
 28 16  1  0  0  0  0
 28 76  1  0  0  0  0
 29 20  1  0  0  0  0
 29 77  1  0  0  0  0
 30 21  1  0  0  0  0
 30 78  1  0  0  0  0
 31 22  1  0  0  0  0
 32 23  2  0  0  0  0
 33 23  1  0  0  0  0
 34 79  1  0  0  0  0
 35 80  1  0  0  0  0
 35 81  1  0  0  0  0
 35 82  1  0  0  0  0
 36 83  1  0  0  0  0
 36 84  1  0  0  0  0
 36 85  1  0  0  0  0
M  CHG  3  31  -1  33  -1  37   2
M  END
>  <DRUGBANK_ID>
DB08858

>  <COMMON_NAME>
cis-Diamminechlorocholylglycinateplatinum(II)

>  <CAS_NUMBER>
191595-91-2

$$$$
