
 OpenBabel10282417233D

 26 27  0  0  1  0  0  0  0  0999 V2000
   -0.8239   -0.8759   -0.2411 C   0  0  0  0  0  0  0  0  0  0  0  0
    0.5899   -1.1315    0.2388 C   0  0  0  0  0  0  0  0  0  0  0  0
    1.3011    0.1603   -0.1453 C   0  0  1  0  0  0  0  0  0  0  0  0
    0.2069    1.2284   -0.0113 C   0  0  0  0  0  0  0  0  0  0  0  0
   -1.0799    0.5216    0.1223 N   0  0  0  0  0  0  0  0  0  0  0  0
    2.5189    0.4291    0.6928 C   0  0  0  0  0  0  0  0  0  0  0  0
    3.7532    0.5686    0.1796 C   0  0  0  0  0  0  0  0  0  0  0  0
    4.9208    0.8354    1.0161 C   0  0  0  0  0  0  0  0  0  0  0  0
    5.1822    0.1597    2.1944 C   0  0  0  0  0  0  0  0  0  0  0  0
    6.2471    0.3978    2.9882 N   0  0  0  0  0  0  0  0  0  0  0  0
    7.0853    1.3520    2.5574 C   0  0  0  0  0  0  0  0  0  0  0  0
    6.9640    2.0560    1.4209 N   0  0  0  0  0  0  0  0  0  0  0  0
    5.8779    1.7709    0.6697 C   0  0  0  0  0  0  0  0  0  0  0  0
   -0.8971   -0.9940   -1.3284 H   0  0  0  0  0  0  0  0  0  0  0  0
   -1.5479   -1.5512    0.2242 H   0  0  0  0  0  0  0  0  0  0  0  0
    0.6007   -1.2971    1.3238 H   0  0  0  0  0  0  0  0  0  0  0  0
    1.0360   -2.0069   -0.2441 H   0  0  0  0  0  0  0  0  0  0  0  0
    1.5833    0.0916   -1.2048 H   0  0  0  0  0  0  0  0  0  0  0  0
    0.3582    1.8870    0.8520 H   0  0  0  0  0  0  0  0  0  0  0  0
    0.1883    1.8622   -0.9047 H   0  0  0  0  0  0  0  0  0  0  0  0
   -1.3596    0.5529    1.1039 H   0  0  0  0  0  0  0  0  0  0  0  0
    2.3558    0.5295    1.7654 H   0  0  0  0  0  0  0  0  0  0  0  0
    3.9237    0.5036   -0.8923 H   0  0  0  0  0  0  0  0  0  0  0  0
    4.5199   -0.6251    2.5502 H   0  0  0  0  0  0  0  0  0  0  0  0
    7.9391    1.5746    3.1874 H   0  0  0  0  0  0  0  0  0  0  0  0
    5.7961    2.3536   -0.2442 H   0  0  0  0  0  0  0  0  0  0  0  0
  1  2  1  0  0  0  0
  1  5  1  0  0  0  0
  1 14  1  0  0  0  0
  1 15  1  0  0  0  0
  2 16  1  0  0  0  0
  2 17  1  0  0  0  0
  3  2  1  0  0  0  0
  3  4  1  0  0  0  0
  3  6  1  0  0  0  0
  3 18  1  6  0  0  0
  4  5  1  0  0  0  0
  4 19  1  0  0  0  0
  4 20  1  0  0  0  0
  5 21  1  0  0  0  0
  6  7  2  0  0  0  0
  6 22  1  0  0  0  0
  7  8  1  0  0  0  0
  7 23  1  0  0  0  0
  8  9  2  0  0  0  0
  8 13  1  0  0  0  0
  9 10  1  0  0  0  0
  9 24  1  0  0  0  0
 10 11  2  0  0  0  0
 11 12  1  0  0  0  0
 11 25  1  0  0  0  0
 12 13  2  0  0  0  0
 13 26  1  0  0  0  0
M  END
>  <DRUGBANK_ID>
DB17065

>  <COMMON_NAME>
Simpinicline

>  <CAS_NUMBER>
753015-44-0

>  <UNII>
09936A4QSN

>  <SYNONYMS>
Pyrimidine, 5-((1e)-2-(3r)-3-pyrrolidinylethenyl)-; Simpinicline

$$$$
