
 OpenBabel10282417203D

 58 57  0  0  0  0  0  0  0  0999 V2000
    0.9842   -0.0911    0.0484 C   0  0  0  0  0  0  0  0  0  0  0  0
    0.4431   -0.3558   -1.3399 C   0  0  0  0  0  0  0  0  0  0  0  0
    0.8701   -1.6713   -1.8045 N   0  0  0  0  0  0  0  0  0  0  0  0
    0.4180   -1.9189   -3.1718 C   0  0  0  0  0  0  0  0  0  0  0  0
    0.9732   -0.9282   -4.2080 C   0  0  0  0  0  0  0  0  0  0  0  0
    2.5088   -0.8830   -4.2659 C   0  0  0  0  0  0  0  0  0  0  0  0
    3.1326   -2.2207   -4.6455 C   0  0  0  0  0  0  0  0  0  0  0  0
    2.6903   -2.6169   -5.9795 N   0  0  0  0  0  0  0  0  0  0  0  0
    3.1241   -3.9673   -6.3125 C   0  0  0  0  0  0  0  0  0  0  0  0
    2.5344   -5.0604   -5.4073 C   0  0  0  0  0  0  0  0  0  0  0  0
    0.9983   -5.1185   -5.3872 C   0  0  0  0  0  0  0  0  0  0  0  0
    0.3743   -5.3875   -6.7477 C   0  0  0  0  0  0  0  0  0  0  0  0
    0.8091   -6.6831   -7.2620 N   0  0  0  0  0  0  0  0  0  0  0  0
    0.3689   -6.8862   -8.6390 C   0  0  0  0  0  0  0  0  0  0  0  0
    0.9595   -5.8698   -9.6290 C   0  0  0  0  0  0  0  0  0  0  0  0
    2.4954   -5.8635   -9.6862 C   0  0  0  0  0  0  0  0  0  0  0  0
    3.0985   -7.2070  -10.0751 C   0  0  0  0  0  0  0  0  0  0  0  0
    2.6049   -7.6164  -11.3867 N   0  0  0  0  0  0  0  0  0  0  0  0
    3.0644   -8.9488  -11.7617 C   0  0  0  0  0  0  0  0  0  0  0  0
    2.5191  -10.0384  -10.8481 C   0  0  0  0  0  0  0  0  0  0  0  0
    0.6354   -0.8428    0.7614 H   0  0  0  0  0  0  0  0  0  0  0  0
    0.6457    0.8933    0.3853 H   0  0  0  0  0  0  0  0  0  0  0  0
    2.0795   -0.0891    0.0457 H   0  0  0  0  0  0  0  0  0  0  0  0
   -0.6500   -0.3037   -1.3344 H   0  0  0  0  0  0  0  0  0  0  0  0
    0.8217    0.4404   -1.9867 H   0  0  0  0  0  0  0  0  0  0  0  0
    1.8829   -1.7514   -1.7502 H   0  0  0  0  0  0  0  0  0  0  0  0
    0.7174   -2.9389   -3.4195 H   0  0  0  0  0  0  0  0  0  0  0  0
   -0.6768   -1.9236   -3.2117 H   0  0  0  0  0  0  0  0  0  0  0  0
    0.5547   -1.1760   -5.1897 H   0  0  0  0  0  0  0  0  0  0  0  0
    0.6015    0.0820   -4.0091 H   0  0  0  0  0  0  0  0  0  0  0  0
    2.8252   -0.1125   -4.9777 H   0  0  0  0  0  0  0  0  0  0  0  0
    2.9145   -0.5814   -3.2925 H   0  0  0  0  0  0  0  0  0  0  0  0
    4.2230   -2.1460   -4.6260 H   0  0  0  0  0  0  0  0  0  0  0  0
    2.8522   -2.9525   -3.8848 H   0  0  0  0  0  0  0  0  0  0  0  0
    1.6839   -2.5649   -6.0615 H   0  0  0  0  0  0  0  0  0  0  0  0
    2.8201   -4.1277   -7.3477 H   0  0  0  0  0  0  0  0  0  0  0  0
    4.2159   -4.0210   -6.3135 H   0  0  0  0  0  0  0  0  0  0  0  0
    2.9484   -6.0249   -5.7192 H   0  0  0  0  0  0  0  0  0  0  0  0
    2.8885   -4.9354   -4.3789 H   0  0  0  0  0  0  0  0  0  0  0  0
    0.6695   -5.8754   -4.6669 H   0  0  0  0  0  0  0  0  0  0  0  0
    0.5875   -4.1685   -5.0389 H   0  0  0  0  0  0  0  0  0  0  0  0
   -0.7166   -5.3673   -6.6668 H   0  0  0  0  0  0  0  0  0  0  0  0
    0.6552   -4.5608   -7.4041 H   0  0  0  0  0  0  0  0  0  0  0  0
    1.8174   -6.7665   -7.2180 H   0  0  0  0  0  0  0  0  0  0  0  0
    0.6535   -7.9048   -8.9280 H   0  0  0  0  0  0  0  0  0  0  0  0
   -0.7237   -6.8648   -8.6803 H   0  0  0  0  0  0  0  0  0  0  0  0
    0.5416   -6.0725  -10.6200 H   0  0  0  0  0  0  0  0  0  0  0  0
    0.6140   -4.8568   -9.3985 H   0  0  0  0  0  0  0  0  0  0  0  0
    2.8314   -5.0815  -10.3764 H   0  0  0  0  0  0  0  0  0  0  0  0
    2.9120   -5.6033   -8.7111 H   0  0  0  0  0  0  0  0  0  0  0  0
    4.1903   -7.1277  -10.0843 H   0  0  0  0  0  0  0  0  0  0  0  0
    2.8417   -7.9283   -9.2942 H   0  0  0  0  0  0  0  0  0  0  0  0
    1.5906   -7.6104  -11.4023 H   0  0  0  0  0  0  0  0  0  0  0  0
    2.7114   -9.1378  -12.7820 H   0  0  0  0  0  0  0  0  0  0  0  0
    4.1570   -8.9750  -11.7938 H   0  0  0  0  0  0  0  0  0  0  0  0
    1.4248  -10.0113  -10.8105 H   0  0  0  0  0  0  0  0  0  0  0  0
    2.8286  -11.0209  -11.2123 H   0  0  0  0  0  0  0  0  0  0  0  0
    2.8957   -9.9433   -9.8249 H   0  0  0  0  0  0  0  0  0  0  0  0
  1  2  1  0  0  0  0
  1 21  1  0  0  0  0
  1 22  1  0  0  0  0
  1 23  1  0  0  0  0
  2  3  1  0  0  0  0
  2 24  1  0  0  0  0
  2 25  1  0  0  0  0
  3  4  1  0  0  0  0
  3 26  1  0  0  0  0
  4  5  1  0  0  0  0
  4 27  1  0  0  0  0
  4 28  1  0  0  0  0
  5  6  1  0  0  0  0
  5 29  1  0  0  0  0
  5 30  1  0  0  0  0
  6  7  1  0  0  0  0
  6 31  1  0  0  0  0
  6 32  1  0  0  0  0
  7  8  1  0  0  0  0
  7 33  1  0  0  0  0
  7 34  1  0  0  0  0
  8  9  1  0  0  0  0
  8 35  1  0  0  0  0
  9 10  1  0  0  0  0
  9 36  1  0  0  0  0
  9 37  1  0  0  0  0
 10 11  1  0  0  0  0
 10 38  1  0  0  0  0
 10 39  1  0  0  0  0
 11 12  1  0  0  0  0
 11 40  1  0  0  0  0
 11 41  1  0  0  0  0
 12 13  1  0  0  0  0
 12 42  1  0  0  0  0
 12 43  1  0  0  0  0
 13 14  1  0  0  0  0
 13 44  1  0  0  0  0
 14 15  1  0  0  0  0
 14 45  1  0  0  0  0
 14 46  1  0  0  0  0
 15 16  1  0  0  0  0
 15 47  1  0  0  0  0
 15 48  1  0  0  0  0
 16 17  1  0  0  0  0
 16 49  1  0  0  0  0
 16 50  1  0  0  0  0
 17 18  1  0  0  0  0
 17 51  1  0  0  0  0
 17 52  1  0  0  0  0
 18 19  1  0  0  0  0
 18 53  1  0  0  0  0
 19 20  1  0  0  0  0
 19 54  1  0  0  0  0
 19 55  1  0  0  0  0
 20 56  1  0  0  0  0
 20 57  1  0  0  0  0
 20 58  1  0  0  0  0
M  END
>  <DRUGBANK_ID>
DB13011

>  <COMMON_NAME>
Diethylhomospermine

>  <CAS_NUMBER>
119422-08-1

>  <UNII>
8G6X94GNHO

$$$$
