68867
 OpenBabel10282417173D

 59 61  0  0  1  0  0  0  0  0999 V2000
    0.1874    0.6662   -0.2451 O   0  0  0  0  0  0  0  0  0  0  0  0
    3.7944   -0.6085    2.0559 O   0  0  0  0  0  0  0  0  0  0  0  0
    3.5214   -5.5894   -3.3042 O   0  5  0  0  0  0  0  0  0  0  0  0
    1.8502   -4.2962   -4.0304 O   0  0  0  0  0  0  0  0  0  0  0  0
    6.1894   -1.6371    0.8277 N   0  0  0  0  0  0  0  0  0  0  0  0
    2.6671    1.5782   -0.8297 N   0  0  0  0  0  0  0  0  0  0  0  0
    2.7012   -4.6637   -3.2442 N   0  3  0  0  0  0  0  0  0  0  0  0
    5.0088   -5.1737   -1.0747 N   0  0  0  0  0  0  0  0  0  0  0  0
    3.3941   -3.5715    1.0317 C   0  0  3  0  0  0  0  0  0  0  0  0
    5.2869   -3.2992    1.3057 C   0  0  0  0  0  0  0  0  0  0  0  0
    4.6338    1.5383   -0.4828 C   0  0  3  0  0  0  0  0  0  0  0  0
    5.8292   -0.7108   -0.7538 C   0  0  0  0  0  0  0  0  0  0  0  0
    5.7540   -0.8439    1.8609 C   0  0  0  0  0  0  0  0  0  0  0  0
    5.4312    0.7176   -1.4038 C   0  0  0  0  0  0  0  0  0  0  0  0
    5.5594    0.7758    1.1634 C   0  0  0  0  0  0  0  0  0  0  0  0
    2.8081   -2.9330   -0.4497 C   0  0  0  0  0  0  0  0  0  0  0  0
    2.4145   -2.7175    2.0733 C   0  0  0  0  0  0  0  0  0  0  0  0
    3.1182   -0.8917   -1.1383 C   0  0  0  0  0  0  0  0  0  0  0  0
    1.8295   -1.0439    1.8488 C   0  0  0  0  0  0  0  0  0  0  0  0
    2.4309   -0.0986    0.6926 C   0  0  0  0  0  0  0  0  0  0  0  0
    1.2924    0.3993   -0.7732 C   0  0  0  0  0  0  0  0  0  0  0  0
    1.6401   -1.4776   -0.3551 C   0  0  0  0  0  0  0  0  0  0  0  0
    3.5511   -1.6110    0.5043 C   0  0  0  0  0  0  0  0  0  0  0  0
    1.5067   -2.5054   -1.8670 C   0  0  0  0  0  0  0  0  0  0  0  0
    2.7824   -3.8129   -2.2032 C   0  0  0  0  0  0  0  0  0  0  0  0
    4.8057   -2.6669   -0.4898 C   0  0  0  0  0  0  0  0  0  0  0  0
    4.4185   -3.9011   -1.5033 C   0  0  0  0  0  0  0  0  0  0  0  0
    3.2612    1.0847    2.4458 C   0  0  0  0  0  0  0  0  0  0  0  0
    3.6556    2.1767    1.4717 C   0  0  0  0  0  0  0  0  0  0  0  0
    2.1614    2.2847   -0.1560 H   0  0  0  0  0  0  0  0  0  0  0  0
    5.9278   -5.2612   -0.6170 H   0  0  0  0  0  0  0  0  0  0  0  0
    4.9660   -5.8045   -1.8583 H   0  0  0  0  0  0  0  0  0  0  0  0
    3.0426   -4.6153    0.8694 H   0  0  0  0  0  0  0  0  0  0  0  0
    5.8444   -4.0719    0.6325 H   0  0  0  0  0  0  0  0  0  0  0  0
    5.4909   -3.6273    2.3032 H   0  0  0  0  0  0  0  0  0  0  0  0
    4.9148    2.6793   -0.5552 H   0  0  0  0  0  0  0  0  0  0  0  0
    4.8665   -0.5534   -0.4013 H   0  0  0  0  0  0  0  0  0  0  0  0
    5.8152   -1.3595   -1.6708 H   0  0  0  0  0  0  0  0  0  0  0  0
    5.9248   -1.0779    2.9301 H   0  0  0  0  0  0  0  0  0  0  0  0
    5.0094   -1.6334    2.1006 H   0  0  0  0  0  0  0  0  0  0  0  0
    4.7334    0.7789   -2.2645 H   0  0  0  0  0  0  0  0  0  0  0  0
    6.4202    1.1038   -1.4529 H   0  0  0  0  0  0  0  0  0  0  0  0
    6.6214    1.0556    1.2176 H   0  0  0  0  0  0  0  0  0  0  0  0
    5.3392    1.2240    2.1426 H   0  0  0  0  0  0  0  0  0  0  0  0
    3.3656   -2.4593   -1.4341 H   0  0  0  0  0  0  0  0  0  0  0  0
    1.7327   -3.3331   -0.2297 H   0  0  0  0  0  0  0  0  0  0  0  0
    1.4110   -3.1084    2.0662 H   0  0  0  0  0  0  0  0  0  0  0  0
    3.0571   -2.7637    2.9536 H   0  0  0  0  0  0  0  0  0  0  0  0
    3.9640   -0.9325   -1.8563 H   0  0  0  0  0  0  0  0  0  0  0  0
    2.5157   -0.4758   -1.9961 H   0  0  0  0  0  0  0  0  0  0  0  0
    2.0677   -0.7598    2.9039 H   0  0  0  0  0  0  0  0  0  0  0  0
    3.4583    0.1422    0.6665 H   0  0  0  0  0  0  0  0  0  0  0  0
    0.9575   -1.9640   -2.6265 H   0  0  0  0  0  0  0  0  0  0  0  0
    6.1004   -2.8462   -0.3751 H   0  0  0  0  0  0  0  0  0  0  0  0
    2.1689    1.1031    2.4324 H   0  0  0  0  0  0  0  0  0  0  0  0
    3.7144    1.2628    3.3957 H   0  0  0  0  0  0  0  0  0  0  0  0
    3.4908    1.5574    0.6928 H   0  0  0  0  0  0  0  0  0  0  0  0
    3.1493    3.0513    1.1516 H   0  0  0  0  0  0  0  0  0  0  0  0
    4.6747    2.5545    1.3795 H   0  0  0  0  0  0  0  0  0  0  0  0
  1 21  2  0  0  0  0
  2 23  1  0  0  0  0
  2 28  1  0  0  0  0
  3  7  1  0  0  0  0
  4  7  2  0  0  0  0
  5 10  1  0  0  0  0
  5 12  1  0  0  0  0
  5 13  1  0  0  0  0
  6 11  1  0  0  0  0
  6 21  1  0  0  0  0
  6 30  1  0  0  0  0
  7 25  1  0  0  0  0
  8 27  1  0  0  0  0
  8 31  1  0  0  0  0
  8 32  1  0  0  0  0
  9 10  1  0  0  0  0
  9 16  1  0  0  0  0
  9 17  1  0  0  0  0
  9 33  1  0  0  0  0
 10 34  1  0  0  0  0
 10 35  1  0  0  0  0
 11 14  1  0  0  0  0
 11 15  1  0  0  0  0
 11 36  1  0  0  0  0
 12 14  1  0  0  0  0
 12 37  1  0  0  0  0
 12 38  1  0  0  0  0
 13 15  1  0  0  0  0
 13 39  1  0  0  0  0
 13 40  1  0  0  0  0
 14 41  1  0  0  0  0
 14 42  1  0  0  0  0
 15 43  1  0  0  0  0
 15 44  1  0  0  0  0
 16 18  1  0  0  0  0
 16 45  1  0  0  0  0
 16 46  1  0  0  0  0
 17 19  1  0  0  0  0
 17 47  1  0  0  0  0
 17 48  1  0  0  0  0
 18 20  1  0  0  0  0
 18 49  1  0  0  0  0
 18 50  1  0  0  0  0
 19 20  2  0  0  0  0
 19 51  1  0  0  0  0
 20 52  1  0  0  0  0
 21 22  1  0  0  0  0
 22 23  1  0  0  0  0
 22 24  2  0  0  0  0
 23 26  2  0  0  0  0
 24 25  1  0  0  0  0
 24 53  1  0  0  0  0
 25 27  2  0  0  0  0
 26 27  1  0  0  0  0
 26 54  1  0  0  0  0
 28 29  1  0  0  0  0
 28 55  1  0  0  0  0
 28 56  1  0  0  0  0
 29 57  1  0  0  0  0
 29 58  1  0  0  0  0
 29 59  1  0  0  0  0
M  CHG  2   3  -1   7   1
M  END
>  <DRUGBANK_ID>
DB08810

>  <COMMON_NAME>
Cinitapride

>  <CAS_NUMBER>
66564-14-5

>  <UNII>
R8I97I2L24

>  <SYNONYMS>
4-Amino-N-(1-(3-cyclohexen-1-ylmethyl)-4-piperidyl)-2-ethoxy-5-nitrobenzamide; Cinitaprida; Cinitapride; Cinitapridum

$$$$
