
 OpenBabel10282417123D

 16 16  0  0  1  0  0  0  0  0999 V2000
    1.1098   -0.6048    2.1822 O   0  0  0  0  0  0  0  0  0  0  0  0
    0.5162   -0.8796    0.8978 C   0  0  1  0  0  0  0  0  0  0  0  0
    0.8159   -2.3431    0.5451 C   0  0  0  0  0  0  0  0  0  0  0  0
    0.2199   -2.7822   -1.1091 S   0  0  0  0  0  0  0  0  0  0  0  0
   -1.7853   -2.4620   -0.8444 S   0  0  0  0  0  0  0  0  0  0  0  0
   -1.7427   -0.7225   -0.3414 C   0  0  0  0  0  0  0  0  0  0  0  0
   -0.9859   -0.5283    0.9768 C   0  0  2  0  0  0  0  0  0  0  0  0
   -1.1092    0.8606    1.3444 O   0  0  0  0  0  0  0  0  0  0  0  0
    1.4820    0.2940    2.1327 H   0  0  0  0  0  0  0  0  0  0  0  0
    1.0122   -0.2123    0.1804 H   0  0  0  0  0  0  0  0  0  0  0  0
    1.8981   -2.5114    0.5727 H   0  0  0  0  0  0  0  0  0  0  0  0
    0.3852   -3.0230    1.2887 H   0  0  0  0  0  0  0  0  0  0  0  0
   -1.2908   -0.1170   -1.1354 H   0  0  0  0  0  0  0  0  0  0  0  0
   -2.7721   -0.3639   -0.2357 H   0  0  0  0  0  0  0  0  0  0  0  0
   -1.4657   -1.0983    1.7838 H   0  0  0  0  0  0  0  0  0  0  0  0
   -0.8408    0.9211    2.2774 H   0  0  0  0  0  0  0  0  0  0  0  0
  1  9  1  0  0  0  0
  2  3  1  0  0  0  0
  2  7  1  0  0  0  0
  2 10  1  6  0  0  0
  2  1  1  0  0  0  0
  3  4  1  0  0  0  0
  3 11  1  0  0  0  0
  3 12  1  0  0  0  0
  4  5  1  0  0  0  0
  5  6  1  0  0  0  0
  6  7  1  0  0  0  0
  6 13  1  0  0  0  0
  6 14  1  0  0  0  0
  7 15  1  1  0  0  0
  7  8  1  0  0  0  0
  8 16  1  0  0  0  0
M  END
>  <DRUGBANK_ID>
DB01822

>  <SECONDARY_ACCESSION_NUMBERS>
EXPT01282

>  <COMMON_NAME>
(4R,5R)-1,2-dithiane-4,5-diol

>  <CAS_NUMBER>
16096-98-3

>  <UNII>
3OED5PX4AN

>  <SYNONYMS>
D-4,5-Dihydroxy-1,2-dithiane; Dithiane Diol

$$$$
