
 OpenBabel10282417163D

 31 32  0  0  0  0  0  0  0  0999 V2000
   -2.0501   -0.5273   -0.4150 Cl  0  0  0  0  0  0  0  0  0  0  0  0
    2.2300   -3.2672    1.0933 F   0  0  0  0  0  0  0  0  0  0  0  0
    2.2582   -3.2470   -1.0789 F   0  0  0  0  0  0  0  0  0  0  0  0
    3.8901   -2.3357    0.0357 F   0  0  0  0  0  0  0  0  0  0  0  0
   -0.4268    2.4288   -0.0779 O   0  0  0  0  0  0  0  0  0  0  0  0
   -3.7344    3.7060   -3.6016 O   0  0  0  0  0  0  0  0  0  0  0  0
   -5.5551    2.5774   -3.1087 O   0  0  0  0  0  0  0  0  0  0  0  0
   -6.3611    0.9254    0.6217 O   0  5  0  0  0  0  0  0  0  0  0  0
   -6.7827    2.2068   -1.0750 O   0  0  0  0  0  0  0  0  0  0  0  0
   -5.9946    1.6910   -0.2861 N   0  3  0  0  0  0  0  0  0  0  0  0
    1.7796   -1.1933    0.0200 C   0  0  0  0  0  0  0  0  0  0  0  0
    0.1864    1.1738   -0.0507 C   0  0  0  0  0  0  0  0  0  0  0  0
   -3.8739    2.7134   -1.3642 C   0  0  0  0  0  0  0  0  0  0  0  0
   -1.8025    2.5061   -0.0321 C   0  0  0  0  0  0  0  0  0  0  0  0
   -0.4002   -0.1082   -0.1152 C   0  0  0  0  0  0  0  0  0  0  0  0
    2.5416   -2.4917    0.0189 C   0  0  0  0  0  0  0  0  0  0  0  0
   -4.5590    2.0684   -0.3012 C   0  0  0  0  0  0  0  0  0  0  0  0
    0.3907   -1.2574   -0.0314 C   0  0  0  0  0  0  0  0  0  0  0  0
   -2.4872    2.9719   -1.1676 C   0  0  0  0  0  0  0  0  0  0  0  0
    2.3844    0.0644    0.0297 C   0  0  0  0  0  0  0  0  0  0  0  0
    1.5981    1.2333    0.0102 C   0  0  0  0  0  0  0  0  0  0  0  0
   -2.5024    2.0153    1.0562 C   0  0  0  0  0  0  0  0  0  0  0  0
   -3.8607    1.7460    0.8972 C   0  0  0  0  0  0  0  0  0  0  0  0
   -4.4757    2.9967   -2.7244 C   0  0  0  0  0  0  0  0  0  0  0  0
   -2.8142    3.9433   -3.4226 H   0  0  0  0  0  0  0  0  0  0  0  0
   -0.0921   -2.2358   -0.0522 H   0  0  0  0  0  0  0  0  0  0  0  0
   -1.8734    3.4755   -1.9049 H   0  0  0  0  0  0  0  0  0  0  0  0
    3.4724    0.1370    0.0457 H   0  0  0  0  0  0  0  0  0  0  0  0
    2.1132    2.1949    0.0176 H   0  0  0  0  0  0  0  0  0  0  0  0
   -1.9786    1.6684    1.9441 H   0  0  0  0  0  0  0  0  0  0  0  0
   -4.3387    1.1603    1.6847 H   0  0  0  0  0  0  0  0  0  0  0  0
  1 15  1  0  0  0  0
  2 16  1  0  0  0  0
  3 16  1  0  0  0  0
  4 16  1  0  0  0  0
  5 12  1  0  0  0  0
  5 14  1  0  0  0  0
  6 24  1  0  0  0  0
  6 25  1  0  0  0  0
  7 24  2  0  0  0  0
  8 10  1  0  0  0  0
  9 10  2  0  0  0  0
 10 17  1  0  0  0  0
 11 16  1  0  0  0  0
 11 18  1  0  0  0  0
 11 20  2  0  0  0  0
 12 15  1  0  0  0  0
 12 21  2  0  0  0  0
 13 17  2  0  0  0  0
 13 19  1  0  0  0  0
 13 24  1  0  0  0  0
 14 19  2  0  0  0  0
 14 22  1  0  0  0  0
 15 18  2  0  0  0  0
 17 23  1  0  0  0  0
 18 26  1  0  0  0  0
 19 27  1  0  0  0  0
 20 21  1  0  0  0  0
 20 28  1  0  0  0  0
 21 29  1  0  0  0  0
 22 23  2  0  0  0  0
 22 30  1  0  0  0  0
 23 31  1  0  0  0  0
M  CHG  2   8  -1  10   1
M  END
>  <DRUGBANK_ID>
DB07338

>  <COMMON_NAME>
Acifluorfen

>  <CAS_NUMBER>
50594-66-6

>  <UNII>
OI60IB203A

$$$$
