
 OpenBabel10282417143D

104107  0  0  0  0  0  0  0  0999 V2000
   -1.2721   -0.2140    2.2999 S   0  0  0  0  0  0  0  0  0  0  0  0
    9.4817   -5.1986   -1.3938 S   0  0  0  0  0  0  0  0  0  0  0  0
    7.3525    2.8114    2.9857 O   0  0  0  0  0  0  0  0  0  0  0  0
    9.2159    3.7180   -2.0612 O   0  0  0  0  0  0  0  0  0  0  0  0
    7.0891    2.6197   -0.5016 O   0  0  0  0  0  0  0  0  0  0  0  0
    9.3600    4.1626    1.7300 O   0  0  0  0  0  0  0  0  0  0  0  0
    6.3091   -0.1307    1.1804 O   0  0  0  0  0  0  0  0  0  0  0  0
   12.0099    3.7489   -0.2099 O   0  0  0  0  0  0  0  0  0  0  0  0
    4.1352    5.0641    2.4981 O   0  0  0  0  0  0  0  0  0  0  0  0
    9.3212    7.0070   -3.3825 O   0  0  0  0  0  0  0  0  0  0  0  0
    5.0227    1.7316    0.2880 N   0  0  0  0  0  0  0  0  0  0  0  0
   10.9538    5.6861   -0.6449 N   0  0  0  0  0  0  0  0  0  0  0  0
    2.2317    4.1515    2.1256 N   0  0  0  0  0  0  0  0  0  0  0  0
   11.1891    7.9898   -2.6486 N   0  0  0  0  0  0  0  0  0  0  0  0
    7.4600    3.2756    0.6268 C   0  0  2  0  0  0  0  0  0  0  0  0
    8.7170    4.0695    0.4674 C   0  0  2  0  0  0  0  0  0  0  0  0
    7.3444    2.2010    1.6881 C   0  0  2  0  0  0  0  0  0  0  0  0
    9.6577    3.6319   -0.6922 C   0  0  2  0  0  0  0  0  0  0  0  0
    4.3364    3.2966    0.5821 C   0  0  1  0  0  0  0  0  0  0  0  0
    9.8438    6.5448   -1.0738 C   0  0  1  0  0  0  0  0  0  0  0  0
    3.9081    3.9586   -0.7139 C   0  0  0  0  0  0  0  0  0  0  0  0
    9.3645    7.4886    0.0653 C   0  0  0  0  0  0  0  0  0  0  0  0
    6.2520    1.0989    0.9603 C   0  0  0  0  0  0  0  0  0  0  0  0
   10.9388    4.3593   -0.5264 C   0  0  0  0  0  0  0  0  0  0  0  0
    2.5165    3.4582   -0.9673 C   0  0  0  0  0  0  0  0  0  0  0  0
    3.9170    5.4924   -0.5062 C   0  0  0  0  0  0  0  0  0  0  0  0
   10.3780    8.5316    0.4865 C   0  0  0  0  0  0  0  0  0  0  0  0
    8.0968    8.2273   -0.3517 C   0  0  0  0  0  0  0  0  0  0  0  0
    3.5471    4.1787    1.8466 C   0  0  0  0  0  0  0  0  0  0  0  0
   10.1156    7.1730   -2.4511 C   0  0  0  0  0  0  0  0  0  0  0  0
    6.2126    3.6221    3.3231 C   0  0  0  0  0  0  0  0  0  0  0  0
    8.1719    2.8696   -2.5590 C   0  0  0  0  0  0  0  0  0  0  0  0
    5.0269    2.6951    3.7585 C   0  0  0  0  0  0  0  0  0  0  0  0
    8.4173    1.3208   -2.2876 C   0  0  0  0  0  0  0  0  0  0  0  0
    3.9367    2.8929    4.5343 C   0  0  0  0  0  0  0  0  0  0  0  0
    4.6602    1.7430    2.8548 C   0  0  0  0  0  0  0  0  0  0  0  0
    7.8573    0.4201   -3.1673 C   0  0  0  0  0  0  0  0  0  0  0  0
    8.9839    0.7317   -1.0680 C   0  0  0  0  0  0  0  0  0  0  0  0
    1.3392    3.1911    1.6420 C   0  0  0  0  0  0  0  0  0  0  0  0
   12.2577    8.3271   -1.7419 C   0  0  0  0  0  0  0  0  0  0  0  0
    2.6895    2.1006    4.3480 C   0  0  0  0  0  0  0  0  0  0  0  0
    3.5057    0.9902    2.5229 C   0  0  0  0  0  0  0  0  0  0  0  0
    7.9883   -0.9471   -2.8993 C   0  0  0  0  0  0  0  0  0  0  0  0
    9.0286   -0.5902   -0.7458 C   0  0  0  0  0  0  0  0  0  0  0  0
    2.4545    1.1112    3.3562 C   0  0  0  0  0  0  0  0  0  0  0  0
    8.5375   -1.4288   -1.6945 C   0  0  0  0  0  0  0  0  0  0  0  0
    1.1910    0.4142    2.9448 C   0  0  0  0  0  0  0  0  0  0  0  0
    8.6074   -2.8133   -1.3663 C   0  0  0  0  0  0  0  0  0  0  0  0
    1.1767   -0.9396    2.4556 C   0  0  0  0  0  0  0  0  0  0  0  0
    8.0159   -3.4359   -0.2308 C   0  0  0  0  0  0  0  0  0  0  0  0
   -0.0830    0.9385    2.7252 C   0  0  0  0  0  0  0  0  0  0  0  0
    9.4984   -3.6191   -2.0318 C   0  0  0  0  0  0  0  0  0  0  0  0
   -0.0964   -1.4360    2.2944 C   0  0  0  0  0  0  0  0  0  0  0  0
    8.3703   -4.7602   -0.1628 C   0  0  0  0  0  0  0  0  0  0  0  0
    7.9403    2.2520   -0.6708 H   0  0  0  0  0  0  0  0  0  0  0  0
    8.6711    4.1857    2.4267 H   0  0  0  0  0  0  0  0  0  0  0  0
    4.4119    0.9653    0.0323 H   0  0  0  0  0  0  0  0  0  0  0  0
   11.8891    6.0283   -0.5108 H   0  0  0  0  0  0  0  0  0  0  0  0
    2.0347    4.4957    3.0658 H   0  0  0  0  0  0  0  0  0  0  0  0
   11.1808    8.4268   -3.5612 H   0  0  0  0  0  0  0  0  0  0  0  0
    6.7539    4.0661    0.5578 H   0  0  0  0  0  0  0  0  0  0  0  0
    8.3163    5.0609    0.2613 H   0  0  0  0  0  0  0  0  0  0  0  0
    8.2656    1.5957    1.7162 H   0  0  0  0  0  0  0  0  0  0  0  0
   10.0433    2.6493   -0.5165 H   0  0  0  0  0  0  0  0  0  0  0  0
    5.2280    3.8004    0.8030 H   0  0  0  0  0  0  0  0  0  0  0  0
    8.9816    5.9132   -1.3036 H   0  0  0  0  0  0  0  0  0  0  0  0
    4.5978    3.6690   -1.5093 H   0  0  0  0  0  0  0  0  0  0  0  0
    9.1470    6.8963    0.9651 H   0  0  0  0  0  0  0  0  0  0  0  0
    1.8869    4.0276   -0.2949 H   0  0  0  0  0  0  0  0  0  0  0  0
    2.0603    3.6593   -1.9247 H   0  0  0  0  0  0  0  0  0  0  0  0
    2.4731    2.3795   -0.7676 H   0  0  0  0  0  0  0  0  0  0  0  0
    4.9295    5.8556   -0.2917 H   0  0  0  0  0  0  0  0  0  0  0  0
    3.4839    6.0010   -1.3602 H   0  0  0  0  0  0  0  0  0  0  0  0
    3.3051    5.8314    0.3409 H   0  0  0  0  0  0  0  0  0  0  0  0
   10.5184    9.2031   -0.3575 H   0  0  0  0  0  0  0  0  0  0  0  0
   10.0520    9.1808    1.2985 H   0  0  0  0  0  0  0  0  0  0  0  0
   11.3055    8.0597    0.8211 H   0  0  0  0  0  0  0  0  0  0  0  0
    7.2548    7.5404   -0.4652 H   0  0  0  0  0  0  0  0  0  0  0  0
    7.8348    8.9806    0.3978 H   0  0  0  0  0  0  0  0  0  0  0  0
    8.2505    8.7502   -1.3012 H   0  0  0  0  0  0  0  0  0  0  0  0
    6.0857    4.2665    2.4384 H   0  0  0  0  0  0  0  0  0  0  0  0
    6.4671    4.3884    4.0574 H   0  0  0  0  0  0  0  0  0  0  0  0
    7.2158    3.3190   -2.2172 H   0  0  0  0  0  0  0  0  0  0  0  0
    7.9734    3.0526   -3.6206 H   0  0  0  0  0  0  0  0  0  0  0  0
    3.9364    3.8082    5.1069 H   0  0  0  0  0  0  0  0  0  0  0  0
    5.2469    2.1031    2.0919 H   0  0  0  0  0  0  0  0  0  0  0  0
    7.3048    0.7676   -4.0352 H   0  0  0  0  0  0  0  0  0  0  0  0
    9.2541    1.2327   -0.1421 H   0  0  0  0  0  0  0  0  0  0  0  0
    0.9995    2.8400    2.5804 H   0  0  0  0  0  0  0  0  0  0  0  0
    0.4827    3.5947    1.1087 H   0  0  0  0  0  0  0  0  0  0  0  0
    1.8513    2.4077    1.0939 H   0  0  0  0  0  0  0  0  0  0  0  0
   13.2295    8.1290   -2.1799 H   0  0  0  0  0  0  0  0  0  0  0  0
   12.1730    9.3812   -1.4669 H   0  0  0  0  0  0  0  0  0  0  0  0
   12.2145    7.7287   -0.8495 H   0  0  0  0  0  0  0  0  0  0  0  0
    1.8263    2.4690    4.8719 H   0  0  0  0  0  0  0  0  0  0  0  0
    3.3095    0.6289    1.5031 H   0  0  0  0  0  0  0  0  0  0  0  0
    7.6433   -1.6570   -3.6389 H   0  0  0  0  0  0  0  0  0  0  0  0
    9.3986   -0.9117    0.2314 H   0  0  0  0  0  0  0  0  0  0  0  0
    2.0659   -1.5491    2.3535 H   0  0  0  0  0  0  0  0  0  0  0  0
    7.3671   -2.9326    0.4827 H   0  0  0  0  0  0  0  0  0  0  0  0
   -0.4970    1.9363    2.7479 H   0  0  0  0  0  0  0  0  0  0  0  0
   10.1449   -3.3238   -2.8501 H   0  0  0  0  0  0  0  0  0  0  0  0
   -0.3962   -2.4578    2.1416 H   0  0  0  0  0  0  0  0  0  0  0  0
    8.0411   -5.4844    0.5654 H   0  0  0  0  0  0  0  0  0  0  0  0
  1 51  1  0  0  0  0
  1 53  1  0  0  0  0
  2 52  1  0  0  0  0
  2 54  1  0  0  0  0
  3 31  1  0  0  0  0
  4 32  1  0  0  0  0
  5 55  1  0  0  0  0
  6 56  1  0  0  0  0
  7 23  2  0  0  0  0
  8 24  2  0  0  0  0
  9 29  2  0  0  0  0
 10 30  2  0  0  0  0
 11 23  1  0  0  0  0
 11 57  1  0  0  0  0
 12 24  1  0  0  0  0
 12 58  1  0  0  0  0
 13 29  1  0  0  0  0
 13 39  1  0  0  0  0
 13 59  1  0  0  0  0
 14 30  1  0  0  0  0
 14 40  1  0  0  0  0
 14 60  1  0  0  0  0
 15 61  1  1  0  0  0
 15 16  1  0  0  0  0
 15  5  1  0  0  0  0
 16  6  1  0  0  0  0
 16 18  1  0  0  0  0
 16 62  1  6  0  0  0
 17 23  1  0  0  0  0
 17 63  1  6  0  0  0
 17 15  1  0  0  0  0
 17  3  1  0  0  0  0
 18  4  1  0  0  0  0
 18 24  1  0  0  0  0
 18 64  1  1  0  0  0
 19 11  1  0  0  0  0
 19 21  1  0  0  0  0
 19 29  1  0  0  0  0
 19 65  1  1  0  0  0
 20 12  1  0  0  0  0
 20 22  1  0  0  0  0
 20 30  1  0  0  0  0
 20 66  1  6  0  0  0
 21 25  1  0  0  0  0
 21 26  1  0  0  0  0
 21 67  1  0  0  0  0
 22 27  1  0  0  0  0
 22 28  1  0  0  0  0
 22 68  1  0  0  0  0
 25 69  1  0  0  0  0
 25 70  1  0  0  0  0
 25 71  1  0  0  0  0
 26 72  1  0  0  0  0
 26 73  1  0  0  0  0
 26 74  1  0  0  0  0
 27 75  1  0  0  0  0
 27 76  1  0  0  0  0
 27 77  1  0  0  0  0
 28 78  1  0  0  0  0
 28 79  1  0  0  0  0
 28 80  1  0  0  0  0
 31 33  1  0  0  0  0
 31 81  1  0  0  0  0
 31 82  1  0  0  0  0
 32 34  1  0  0  0  0
 32 83  1  0  0  0  0
 32 84  1  0  0  0  0
 33 35  2  0  0  0  0
 33 36  1  0  0  0  0
 34 37  2  0  0  0  0
 34 38  1  0  0  0  0
 35 41  1  0  0  0  0
 35 85  1  0  0  0  0
 36 42  2  0  0  0  0
 36 86  1  0  0  0  0
 37 43  1  0  0  0  0
 37 87  1  0  0  0  0
 38 44  2  0  0  0  0
 38 88  1  0  0  0  0
 39 89  1  0  0  0  0
 39 90  1  0  0  0  0
 39 91  1  0  0  0  0
 40 92  1  0  0  0  0
 40 93  1  0  0  0  0
 40 94  1  0  0  0  0
 41 45  2  0  0  0  0
 41 95  1  0  0  0  0
 42 45  1  0  0  0  0
 42 96  1  0  0  0  0
 43 46  2  0  0  0  0
 43 97  1  0  0  0  0
 44 46  1  0  0  0  0
 44 98  1  0  0  0  0
 45 47  1  0  0  0  0
 46 48  1  0  0  0  0
 47 49  1  0  0  0  0
 47 51  2  0  0  0  0
 48 50  1  0  0  0  0
 48 52  2  0  0  0  0
 49 53  2  0  0  0  0
 49 99  1  0  0  0  0
 50 54  2  0  0  0  0
 50100  1  0  0  0  0
 51101  1  0  0  0  0
 52102  1  0  0  0  0
 53103  1  0  0  0  0
 54104  1  0  0  0  0
M  END
>  <DRUGBANK_ID>
DB04547

>  <SECONDARY_ACCESSION_NUMBERS>
EXPT00662

>  <COMMON_NAME>
Inhibitor BEA409

$$$$
