
 OpenBabel10282417223D

 65 69  0  0  1  0  0  0  0  0999 V2000
    0.6028   -0.3291    0.2067 C   0  0  0  0  0  0  0  0  0  0  0  0
    0.1618    0.0488   -1.0984 O   0  0  0  0  0  0  0  0  0  0  0  0
    0.9234    1.1147   -1.7284 C   0  0  2  0  0  0  0  0  0  0  0  0
    2.4077    0.8486   -1.5249 C   0  0  2  0  0  0  0  0  0  0  0  0
    2.6491   -0.6069   -1.7799 O   0  0  0  0  0  0  0  0  0  0  0  0
    3.4931   -1.3116   -3.0237 P   0  0  3  0  0  0  0  0  0  0  0  0
    4.4355    0.2313   -3.7572 S   0  0  0  0  0  0  0  0  0  0  0  0
    4.6665   -2.1564   -2.6347 O   0  0  0  0  0  0  0  0  0  0  0  0
    2.6680   -1.6922   -4.4223 O   0  0  0  0  0  0  0  0  0  0  0  0
    2.9204   -0.9648   -5.7559 C   0  0  0  0  0  0  0  0  0  0  0  0
    1.8166    0.1139   -5.9167 C   0  0  1  0  0  0  0  0  0  0  0  0
    1.8252    0.8701   -4.6641 O   0  0  0  0  0  0  0  0  0  0  0  0
    1.8277    2.3135   -4.9193 C   0  0  2  0  0  0  0  0  0  0  0  0
    1.2309    2.4130   -6.2904 C   0  0  0  0  0  0  0  0  0  0  0  0
    1.9162    1.2310   -6.9665 C   0  0  2  0  0  0  0  0  0  0  0  0
    1.2644    0.9244   -8.1789 O   0  0  0  0  0  0  0  0  0  0  0  0
    3.0111    3.1711   -4.5537 N   0  0  0  0  0  0  0  0  0  0  0  0
    4.0785    3.0217   -3.7186 C   0  0  0  0  0  0  0  0  0  0  0  0
    4.6812    4.0783   -3.2773 N   0  0  0  0  0  0  0  0  0  0  0  0
    4.0965    5.0302   -3.9670 C   0  0  0  0  0  0  0  0  0  0  0  0
    3.0880    4.5473   -4.7944 C   0  0  0  0  0  0  0  0  0  0  0  0
    2.3239    5.3314   -5.5663 N   0  0  0  0  0  0  0  0  0  0  0  0
    2.6511    6.6487   -5.3669 C   0  0  0  0  0  0  0  0  0  0  0  0
    3.5984    7.2113   -4.5703 N   0  0  0  0  0  0  0  0  0  0  0  0
    4.3741    6.3816   -3.8735 C   0  0  0  0  0  0  0  0  0  0  0  0
    5.3730    6.8289   -3.0252 N   0  0  0  0  0  0  0  0  0  0  0  0
    2.6583    1.6103   -0.1627 C   0  0  1  0  0  0  0  0  0  0  0  0
    4.1022    2.1489    0.0386 C   0  0  0  0  0  0  0  0  0  0  0  0
    4.4525    3.4450   -0.3910 O   0  0  0  0  0  0  0  0  0  0  0  0
    1.6162    2.6242   -0.0513 O   0  0  0  0  0  0  0  0  0  0  0  0
    0.6623    2.5237   -1.1339 C   0  0  1  0  0  0  0  0  0  0  0  0
    0.7147    3.7487   -2.0145 N   0  0  0  0  0  0  0  0  0  0  0  0
   -0.1579    3.8977   -3.1038 C   0  0  0  0  0  0  0  0  0  0  0  0
   -0.1304    4.9819   -3.8931 C   0  0  0  0  0  0  0  0  0  0  0  0
    0.5621    6.1655   -3.3931 C   0  0  0  0  0  0  0  0  0  0  0  0
    0.3153    7.2944   -3.8581 O   0  0  0  0  0  0  0  0  0  0  0  0
    1.5037    5.9206   -2.4632 N   0  0  0  0  0  0  0  0  0  0  0  0
    1.5669    4.8059   -1.6849 C   0  0  0  0  0  0  0  0  0  0  0  0
    2.3848    4.8295   -0.7785 O   0  0  0  0  0  0  0  0  0  0  0  0
    0.0900   -1.2262    0.5376 H   0  0  0  0  0  0  0  0  0  0  0  0
    0.4165    0.4996    0.8916 H   0  0  0  0  0  0  0  0  0  0  0  0
    1.6581   -0.6234    0.2429 H   0  0  0  0  0  0  0  0  0  0  0  0
    0.6121    1.0613   -2.7651 H   0  0  0  0  0  0  0  0  0  0  0  0
    2.9910    1.4747   -2.1679 H   0  0  0  0  0  0  0  0  0  0  0  0
    3.0562    0.5344   -3.7872 H   0  0  0  0  0  0  0  0  0  0  0  0
    3.9103   -0.4940   -5.8417 H   0  0  0  0  0  0  0  0  0  0  0  0
    2.9880   -1.6717   -6.5929 H   0  0  0  0  0  0  0  0  0  0  0  0
    0.8923   -0.4709   -6.0618 H   0  0  0  0  0  0  0  0  0  0  0  0
    1.1061    2.6032   -4.1982 H   0  0  0  0  0  0  0  0  0  0  0  0
    1.3561    3.3780   -6.7763 H   0  0  0  0  0  0  0  0  0  0  0  0
    0.1393    2.2372   -6.2413 H   0  0  0  0  0  0  0  0  0  0  0  0
    2.9616    1.4947   -7.1510 H   0  0  0  0  0  0  0  0  0  0  0  0
    0.3240    1.1710   -8.1014 H   0  0  0  0  0  0  0  0  0  0  0  0
    4.5847    2.2084   -3.2945 H   0  0  0  0  0  0  0  0  0  0  0  0
    1.9721    7.3654   -5.8166 H   0  0  0  0  0  0  0  0  0  0  0  0
    6.0591    6.1161   -2.7716 H   0  0  0  0  0  0  0  0  0  0  0  0
    5.6861    7.7712   -3.1782 H   0  0  0  0  0  0  0  0  0  0  0  0
    2.5400    0.9950    0.7298 H   0  0  0  0  0  0  0  0  0  0  0  0
    4.3358    2.1328    1.1094 H   0  0  0  0  0  0  0  0  0  0  0  0
    4.7995    1.4673   -0.4491 H   0  0  0  0  0  0  0  0  0  0  0  0
    3.8568    3.7727   -1.0889 H   0  0  0  0  0  0  0  0  0  0  0  0
   -0.3543    2.5469   -0.7261 H   0  0  0  0  0  0  0  0  0  0  0  0
   -0.7322    3.0313   -3.4248 H   0  0  0  0  0  0  0  0  0  0  0  0
   -0.5274    5.0368   -4.9029 H   0  0  0  0  0  0  0  0  0  0  0  0
    2.1564    6.6544   -2.2146 H   0  0  0  0  0  0  0  0  0  0  0  0
  1  2  1  0  0  0  0
  1 40  1  0  0  0  0
  1 41  1  0  0  0  0
  1 42  1  0  0  0  0
  3  2  1  0  0  0  0
  3  4  1  0  0  0  0
  3 31  1  0  0  0  0
  3 43  1  6  0  0  0
  4 27  1  0  0  0  0
  4 44  1  6  0  0  0
  4  5  1  0  0  0  0
  5  6  1  0  0  0  0
  6  7  1  0  0  0  0
  6  8  2  0  0  0  0
  6  9  1  0  0  0  0
  7 45  1  0  0  0  0
  9 10  1  0  0  0  0
 10 46  1  0  0  0  0
 10 47  1  0  0  0  0
 11 10  1  0  0  0  0
 11 12  1  0  0  0  0
 11 15  1  0  0  0  0
 11 48  1  6  0  0  0
 13 12  1  0  0  0  0
 13 14  1  0  0  0  0
 13 17  1  0  0  0  0
 13 49  1  1  0  0  0
 14 50  1  0  0  0  0
 14 51  1  0  0  0  0
 15 14  1  0  0  0  0
 15 52  1  6  0  0  0
 15 16  1  0  0  0  0
 16 53  1  0  0  0  0
 17 18  1  0  0  0  0
 17 21  1  0  0  0  0
 18 19  2  0  0  0  0
 18 54  1  0  0  0  0
 19 20  1  0  0  0  0
 20 21  2  0  0  0  0
 20 25  1  0  0  0  0
 21 22  1  0  0  0  0
 22 23  2  0  0  0  0
 23 24  1  0  0  0  0
 23 55  1  0  0  0  0
 24 25  2  0  0  0  0
 25 26  1  0  0  0  0
 26 56  1  0  0  0  0
 26 57  1  0  0  0  0
 27 30  1  0  0  0  0
 27 58  1  1  0  0  0
 27 28  1  0  0  0  0
 28 29  1  0  0  0  0
 28 59  1  0  0  0  0
 28 60  1  0  0  0  0
 29 61  1  0  0  0  0
 31 30  1  0  0  0  0
 31 32  1  0  0  0  0
 31 62  1  1  0  0  0
 32 33  1  0  0  0  0
 32 38  1  0  0  0  0
 33 34  2  0  0  0  0
 33 63  1  0  0  0  0
 34 35  1  0  0  0  0
 34 64  1  0  0  0  0
 35 36  2  0  0  0  0
 35 37  1  0  0  0  0
 37 38  1  0  0  0  0
 37 65  1  0  0  0  0
 38 39  2  0  0  0  0
M  END
>  <DRUGBANK_ID>
DB15062

>  <COMMON_NAME>
Inarigivir

>  <CAS_NUMBER>
475650-36-3

>  <UNII>
TQ0A9FIV71

$$$$
