
 OpenBabel10282417203D

 30 29  0  0  0  0  0  0  0  0999 V2000
    1.0344    0.0799    0.0788 C   0  0  0  0  0  0  0  0  0  0  0  0
    2.5748    0.0537    0.0196 C   0  0  0  0  0  0  0  0  0  0  0  0
    3.2387    0.7152    1.0281 N   0  0  0  0  0  0  0  0  0  0  0  0
    4.6908    0.7373    1.0841 C   0  0  0  0  0  0  0  0  0  0  0  0
    5.2244    2.1694    1.1425 C   0  0  0  0  0  0  0  0  0  0  0  0
    4.7752    2.9459    2.3820 C   0  0  0  0  0  0  0  0  0  0  0  0
    5.2233    2.2856    3.6667 C   0  0  0  0  0  0  0  0  0  0  0  0
    6.0262    3.0352    4.4447 O   0  0  0  0  0  0  0  0  0  0  0  0
    0.5175   -0.6027    1.3511 C   0  0  0  0  0  0  0  0  0  0  0  0
    0.5173    1.5238    0.0239 C   0  0  0  0  0  0  0  0  0  0  0  0
    0.4907   -0.6822   -1.1437 C   0  0  0  0  0  0  0  0  0  0  0  0
    3.1825   -0.5044   -0.8923 O   0  0  0  0  0  0  0  0  0  0  0  0
    4.8770    1.1613    4.0069 O   0  0  0  0  0  0  0  0  0  0  0  0
    2.7244    1.0422    1.8362 H   0  0  0  0  0  0  0  0  0  0  0  0
    5.0076    0.1425    1.9436 H   0  0  0  0  0  0  0  0  0  0  0  0
    5.1142    0.2359    0.2082 H   0  0  0  0  0  0  0  0  0  0  0  0
    6.3201    2.1453    1.1019 H   0  0  0  0  0  0  0  0  0  0  0  0
    4.8864    2.7065    0.2456 H   0  0  0  0  0  0  0  0  0  0  0  0
    5.1566    3.9714    2.3252 H   0  0  0  0  0  0  0  0  0  0  0  0
    3.6831    3.0316    2.4145 H   0  0  0  0  0  0  0  0  0  0  0  0
    6.2166    3.9344    4.1220 H   0  0  0  0  0  0  0  0  0  0  0  0
    0.8475   -0.0850    2.2575 H   0  0  0  0  0  0  0  0  0  0  0  0
   -0.5791   -0.6214    1.3657 H   0  0  0  0  0  0  0  0  0  0  0  0
    0.8704   -1.6378    1.4140 H   0  0  0  0  0  0  0  0  0  0  0  0
    0.8709    2.0347   -0.8785 H   0  0  0  0  0  0  0  0  0  0  0  0
   -0.5791    1.5464    0.0135 H   0  0  0  0  0  0  0  0  0  0  0  0
    0.8500    2.1102    0.8869 H   0  0  0  0  0  0  0  0  0  0  0  0
    0.8354   -0.2238   -2.0785 H   0  0  0  0  0  0  0  0  0  0  0  0
    0.8358   -1.7230   -1.1443 H   0  0  0  0  0  0  0  0  0  0  0  0
   -0.6039   -0.6909   -1.1587 H   0  0  0  0  0  0  0  0  0  0  0  0
  1  9  1  0  0  0  0
  1 10  1  0  0  0  0
  1 11  1  0  0  0  0
  1  2  1  0  0  0  0
  2  3  1  0  0  0  0
  2 12  2  0  0  0  0
  3  4  1  0  0  0  0
  3 14  1  0  0  0  0
  4  5  1  0  0  0  0
  4 15  1  0  0  0  0
  4 16  1  0  0  0  0
  5  6  1  0  0  0  0
  5 17  1  0  0  0  0
  5 18  1  0  0  0  0
  6  7  1  0  0  0  0
  6 19  1  0  0  0  0
  6 20  1  0  0  0  0
  7  8  1  0  0  0  0
  7 13  2  0  0  0  0
  8 21  1  0  0  0  0
  9 22  1  0  0  0  0
  9 23  1  0  0  0  0
  9 24  1  0  0  0  0
 10 25  1  0  0  0  0
 10 26  1  0  0  0  0
 10 27  1  0  0  0  0
 11 28  1  0  0  0  0
 11 29  1  0  0  0  0
 11 30  1  0  0  0  0
M  END
>  <DRUGBANK_ID>
DB12951

>  <COMMON_NAME>
Pivagabine

>  <CAS_NUMBER>
69542-93-4

>  <UNII>
C53SV0WO4V

>  <SYNONYMS>
4-Pivalamidobutyric acid; Pivagabina; Pivagabine; Pivagabinum

$$$$
