
 OpenBabel10282417113D

 67 71  0  0  1  0  0  0  0  0999 V2000
    1.7493   -0.1210    0.1999 C   0  0  0  0  0  0  0  0  0  0  0  0
    3.1770   -0.6259   -0.2612 C   0  0  0  0  0  0  0  0  0  0  0  0
    3.1235   -1.8967   -0.8467 N   0  0  0  0  0  0  0  0  0  0  0  0
    0.6705   -0.9989    0.2521 C   0  0  0  0  0  0  0  0  0  0  0  0
    1.0673   -2.4795    0.1745 C   0  0  1  0  0  0  0  0  0  0  0  0
    1.7981   -2.2171   -1.1562 C   0  0  1  0  0  0  0  0  0  0  0  0
    1.3992   -2.9488   -2.4138 C   0  0  0  0  0  0  0  0  0  0  0  0
    1.4709   -4.4681   -2.2691 C   0  0  0  0  0  0  0  0  0  0  0  0
    0.9936   -4.0897    0.2220 C   0  0  2  0  0  0  0  0  0  0  0  0
    0.4847   -4.9351   -1.1057 C   0  0  2  0  0  0  0  0  0  0  0  0
    0.8152   -6.0247    1.6284 C   0  0  0  0  0  0  0  0  0  0  0  0
    4.1427    0.0714   -0.3153 O   0  0  0  0  0  0  0  0  0  0  0  0
    1.4757   -1.2603   -1.6334 H   0  0  0  0  0  0  0  0  0  0  0  0
    0.5286   -7.2199   -1.7029 H   0  0  0  0  0  0  0  0  0  0  0  0
    0.4318   -4.6213    1.5521 C   0  0  0  0  0  0  0  0  0  0  0  0
   -0.4148   -4.4219   -1.4459 H   0  0  0  0  0  0  0  0  0  0  0  0
    0.2317   -6.6396    0.4389 C   0  0  1  0  0  0  0  0  0  0  0  0
   -0.0860   -6.7100   -0.9473 C   0  0  1  0  0  0  0  0  0  0  0  0
   -1.0570   -8.0370    0.1882 C   0  0  0  0  0  0  0  0  0  0  0  0
   -0.0989   -8.8026    1.1512 C   0  0  0  0  0  0  0  0  0  0  0  0
    0.8880   -8.1379    0.3466 C   0  0  2  0  0  0  0  0  0  0  0  0
   -1.4908   -5.8486    0.2485 C   0  0  0  0  0  0  0  0  0  0  0  0
    1.4074   -2.3117    1.7304 C   0  0  0  0  0  0  0  0  0  0  0  0
    2.3438   -8.4894    0.3779 C   0  0  0  0  0  0  0  0  0  0  0  0
    3.2295   -7.6488    0.4387 O   0  0  0  0  0  0  0  0  0  0  0  0
    2.6575   -9.8281    0.2185 N   0  0  0  0  0  0  0  0  0  0  0  0
    1.8449  -10.9644   -0.0451 C   0  0  0  0  0  0  0  0  0  0  0  0
    0.8350  -10.9702   -1.0266 C   0  0  0  0  0  0  0  0  0  0  0  0
    0.0676  -12.1086   -1.3234 C   0  0  0  0  0  0  0  0  0  0  0  0
    0.3819  -13.3059   -0.6858 C   0  0  0  0  0  0  0  0  0  0  0  0
    1.4099  -13.3358    0.2581 C   0  0  0  0  0  0  0  0  0  0  0  0
    2.0929  -12.1584    0.6407 C   0  0  0  0  0  0  0  0  0  0  0  0
    2.9571  -12.2102    1.8773 C   0  0  0  0  0  0  0  0  0  0  0  0
    2.0761   -4.3690    0.2651 H   0  0  0  0  0  0  0  0  0  0  0  0
    2.2661  -12.6736    2.9572 F   0  0  0  0  0  0  0  0  0  0  0  0
    4.0280  -13.0321    1.7290 F   0  0  0  0  0  0  0  0  0  0  0  0
    3.4656  -11.0075    2.2670 F   0  0  0  0  0  0  0  0  0  0  0  0
    0.7498   -8.5790   -0.6476 H   0  0  0  0  0  0  0  0  0  0  0  0
   -1.0017  -12.0396   -2.3881 C   0  0  0  0  0  0  0  0  0  0  0  0
   -0.7040  -12.8280   -3.4549 F   0  0  0  0  0  0  0  0  0  0  0  0
   -2.2251  -12.4374   -1.9461 F   0  0  0  0  0  0  0  0  0  0  0  0
   -1.1801  -10.7843   -2.8902 F   0  0  0  0  0  0  0  0  0  0  0  0
    1.7549    0.9478    0.3378 H   0  0  0  0  0  0  0  0  0  0  0  0
    3.8718   -2.5736   -0.7455 H   0  0  0  0  0  0  0  0  0  0  0  0
   -0.3727   -0.7273    0.3514 H   0  0  0  0  0  0  0  0  0  0  0  0
    2.0066   -2.5421   -3.2396 H   0  0  0  0  0  0  0  0  0  0  0  0
    0.3652   -2.6318   -2.6574 H   0  0  0  0  0  0  0  0  0  0  0  0
    2.5304   -4.6721   -2.0677 H   0  0  0  0  0  0  0  0  0  0  0  0
    1.2060   -4.8712   -3.2485 H   0  0  0  0  0  0  0  0  0  0  0  0
    0.3914   -6.4497    2.5455 H   0  0  0  0  0  0  0  0  0  0  0  0
    1.9002   -6.1419    1.7178 H   0  0  0  0  0  0  0  0  0  0  0  0
   -0.6272   -4.3959    1.6190 H   0  0  0  0  0  0  0  0  0  0  0  0
    0.8055   -4.2830    2.5155 H   0  0  0  0  0  0  0  0  0  0  0  0
   -1.8652   -8.6663   -0.1908 H   0  0  0  0  0  0  0  0  0  0  0  0
   -1.6357   -7.6187    1.0467 H   0  0  0  0  0  0  0  0  0  0  0  0
   -0.1664   -9.8855    1.1727 H   0  0  0  0  0  0  0  0  0  0  0  0
   -0.0249   -8.4659    2.2007 H   0  0  0  0  0  0  0  0  0  0  0  0
   -1.5015   -4.8005   -0.0639 H   0  0  0  0  0  0  0  0  0  0  0  0
   -2.0902   -6.2957   -0.5976 H   0  0  0  0  0  0  0  0  0  0  0  0
   -2.1082   -5.8802    1.1440 H   0  0  0  0  0  0  0  0  0  0  0  0
    1.6958   -1.3740    2.2140 H   0  0  0  0  0  0  0  0  0  0  0  0
    0.4212   -2.4592    2.2350 H   0  0  0  0  0  0  0  0  0  0  0  0
    2.1593   -3.0239    2.0815 H   0  0  0  0  0  0  0  0  0  0  0  0
    3.6256   -9.9897    0.4770 H   0  0  0  0  0  0  0  0  0  0  0  0
    0.6228  -10.1002   -1.6391 H   0  0  0  0  0  0  0  0  0  0  0  0
   -0.1620  -14.2180   -0.9298 H   0  0  0  0  0  0  0  0  0  0  0  0
    1.6746  -14.2877    0.7192 H   0  0  0  0  0  0  0  0  0  0  0  0
  1  2  1  0  0  0  0
  1  4  2  0  0  0  0
  1 43  1  0  0  0  0
  2  3  1  0  0  0  0
  2 12  2  0  0  0  0
  3  6  1  0  0  0  0
  3 44  1  0  0  0  0
  4 45  1  0  0  0  0
  5  4  1  0  0  0  0
  5  6  1  0  0  0  0
  5 23  1  6  0  0  0
  5  9  1  0  0  0  0
  6 13  1  1  0  0  0
  6  7  1  0  0  0  0
  7  8  1  0  0  0  0
  7 46  1  0  0  0  0
  7 47  1  0  0  0  0
  8 10  1  0  0  0  0
  8 48  1  0  0  0  0
  8 49  1  0  0  0  0
  9 15  1  0  0  0  0
  9 10  1  0  0  0  0
  9 34  1  1  0  0  0
 10 18  1  0  0  0  0
 10 16  1  6  0  0  0
 11 15  1  0  0  0  0
 11 50  1  0  0  0  0
 11 51  1  0  0  0  0
 15 52  1  0  0  0  0
 15 53  1  0  0  0  0
 17 22  1  1  0  0  0
 17 11  1  0  0  0  0
 17 18  1  0  0  0  0
 18 19  1  0  0  0  0
 18 14  1  6  0  0  0
 19 20  1  0  0  0  0
 19 54  1  0  0  0  0
 19 55  1  0  0  0  0
 20 21  1  0  0  0  0
 20 56  1  0  0  0  0
 20 57  1  0  0  0  0
 21 17  1  0  0  0  0
 21 38  1  6  0  0  0
 21 24  1  0  0  0  0
 22 58  1  0  0  0  0
 22 59  1  0  0  0  0
 22 60  1  0  0  0  0
 23 61  1  0  0  0  0
 23 62  1  0  0  0  0
 23 63  1  0  0  0  0
 24 25  2  0  0  0  0
 24 26  1  0  0  0  0
 26 27  1  0  0  0  0
 26 64  1  0  0  0  0
 27 28  2  0  0  0  0
 28 29  1  0  0  0  0
 28 65  1  0  0  0  0
 29 30  2  0  0  0  0
 29 39  1  0  0  0  0
 30 31  1  0  0  0  0
 30 66  1  0  0  0  0
 31 32  2  0  0  0  0
 31 67  1  0  0  0  0
 32 27  1  0  0  0  0
 32 33  1  0  0  0  0
 33 35  1  0  0  0  0
 33 36  1  0  0  0  0
 33 37  1  0  0  0  0
 39 40  1  0  0  0  0
 39 41  1  0  0  0  0
 39 42  1  0  0  0  0
M  END
>  <DRUGBANK_ID>
DB01126

>  <SECONDARY_ACCESSION_NUMBERS>
APRD00385

>  <COMMON_NAME>
Dutasteride

>  <CAS_NUMBER>
164656-23-9

>  <UNII>
O0J6XJN02I

>  <SYNONYMS>
(5α,17β)-N-(2,5-bis(trifluoromethyl)phenyl)-3-oxo-4-azaandrost-1-ene-17-carboxamide; Dutasterida; Dutasteride; α,α,α,α',α',α'-hexafluoro-3-oxo-4-aza-5α-androst-1-ene-17β-carboxy-2',5'-xylidide

$$$$
