256
 OpenBabel10282417123D

 22 22  0  0  0  0  0  0  0  0999 V2000
   -4.2966    2.7744    3.1613 C   0  0  0  0  0  0  0  0  0  0  0  0
   -3.4876    3.3876    2.2156 C   0  0  0  0  0  0  0  0  0  0  0  0
   -3.0137    2.6547    1.1367 C   0  0  0  0  0  0  0  0  0  0  0  0
   -3.3530    1.3014    0.9638 C   0  0  0  0  0  0  0  0  0  0  0  0
   -4.1298    0.6790    1.9537 C   0  0  0  0  0  0  0  0  0  0  0  0
   -4.6285    1.4264    3.0260 C   0  0  0  0  0  0  0  0  0  0  0  0
   -2.7844    0.5156   -0.2115 C   0  0  2  0  0  0  0  0  0  0  0  0
   -1.3070    0.2567   -0.0202 C   0  0  0  0  0  0  0  0  0  0  0  0
   -0.5547   -0.0493   -1.0989 O   0  0  0  0  0  0  0  0  0  0  0  0
   -3.1267    1.4448   -1.7182 S   0  0  0  0  0  0  0  0  0  0  0  0
   -2.5170    0.3877   -2.7892 O   0  0  0  0  0  0  0  0  0  0  0  0
   -0.7820    0.2060    1.0891 O   0  0  0  0  0  0  0  0  0  0  0  0
   -4.5539    1.5225   -1.9597 O   0  0  0  0  0  0  0  0  0  0  0  0
   -2.2706    2.5968   -1.8638 O   0  0  0  0  0  0  0  0  0  0  0  0
   -3.3107   -0.4412   -0.3251 H   0  0  0  0  0  0  0  0  0  0  0  0
   -4.6452    3.3456    4.0165 H   0  0  0  0  0  0  0  0  0  0  0  0
   -3.2085    4.4328    2.3107 H   0  0  0  0  0  0  0  0  0  0  0  0
   -2.3445    3.1642    0.4473 H   0  0  0  0  0  0  0  0  0  0  0  0
   -4.3304   -0.3910    1.9278 H   0  0  0  0  0  0  0  0  0  0  0  0
   -5.2691    0.9576    3.7690 H   0  0  0  0  0  0  0  0  0  0  0  0
   -1.0253   -0.2284   -1.9354 H   0  0  0  0  0  0  0  0  0  0  0  0
   -1.9050    0.9004   -3.3724 H   0  0  0  0  0  0  0  0  0  0  0  0
  1  2  2  0  0  0  0
  1  6  1  0  0  0  0
  1 16  1  0  0  0  0
  2  3  1  0  0  0  0
  2 17  1  0  0  0  0
  3  4  2  0  0  0  0
  3 18  1  0  0  0  0
  4  5  1  0  0  0  0
  5  6  2  0  0  0  0
  5 19  1  0  0  0  0
  6 20  1  0  0  0  0
  7 10  1  0  0  0  0
  7 15  1  6  0  0  0
  7  8  1  0  0  0  0
  7  4  1  0  0  0  0
  8  9  1  0  0  0  0
  8 12  2  0  0  0  0
  9 21  1  0  0  0  0
 10 11  1  0  0  0  0
 10 13  2  0  0  0  0
 10 14  2  0  0  0  0
 11 22  1  0  0  0  0
M  END
>  <DRUGBANK_ID>
DB01866

>  <SECONDARY_ACCESSION_NUMBERS>
EXPT00095

>  <COMMON_NAME>
RU79256

$$$$
