
 OpenBabel10282417213D

 31 32  0  0  1  0  0  0  0  0999 V2000
    0.9882   -0.1200    0.0520 C   0  0  0  0  0  0  0  0  0  0  0  0
    0.5449   -1.5367    0.2123 C   0  0  0  0  0  0  0  0  0  0  0  0
    1.3774   -2.5685    0.4026 C   0  0  0  0  0  0  0  0  0  0  0  0
    0.9634   -3.8854    0.3116 N   0  0  0  0  0  0  0  0  0  0  0  0
    1.9511   -4.9451    0.0652 C   0  0  2  0  0  0  0  0  0  0  0  0
    2.8628   -5.1211    1.1696 O   0  0  0  0  0  0  0  0  0  0  0  0
    4.1134   -5.6428    0.6163 C   0  0  2  0  0  0  0  0  0  0  0  0
    5.2513   -4.7255    1.0831 C   0  0  0  0  0  0  0  0  0  0  0  0
    5.3995   -4.7882    2.5004 O   0  0  0  0  0  0  0  0  0  0  0  0
    3.9811   -5.6602   -0.9147 C   0  0  1  0  0  0  0  0  0  0  0  0
    3.7085   -6.9723   -1.4113 O   0  0  0  0  0  0  0  0  0  0  0  0
    2.8390   -4.7069   -1.1628 C   0  0  2  0  0  0  0  0  0  0  0  0
    3.3658   -3.4479   -1.1625 F   0  0  0  0  0  0  0  0  0  0  0  0
   -0.3860   -4.1952    0.1576 C   0  0  0  0  0  0  0  0  0  0  0  0
   -0.8128   -5.3190   -0.0961 O   0  0  0  0  0  0  0  0  0  0  0  0
   -1.2517   -3.1343    0.2522 N   0  0  0  0  0  0  0  0  0  0  0  0
   -0.8993   -1.8268    0.0931 C   0  0  0  0  0  0  0  0  0  0  0  0
   -1.7246   -0.9463   -0.1391 O   0  0  0  0  0  0  0  0  0  0  0  0
    0.6130    0.4965    0.8724 H   0  0  0  0  0  0  0  0  0  0  0  0
    0.6203    0.2962   -0.8941 H   0  0  0  0  0  0  0  0  0  0  0  0
    2.0804   -0.0401    0.0301 H   0  0  0  0  0  0  0  0  0  0  0  0
    2.4419   -2.4013    0.5360 H   0  0  0  0  0  0  0  0  0  0  0  0
    1.4341   -5.9067   -0.0512 H   0  0  0  0  0  0  0  0  0  0  0  0
    4.2668   -6.6523    1.0180 H   0  0  0  0  0  0  0  0  0  0  0  0
    6.2051   -5.0278    0.6393 H   0  0  0  0  0  0  0  0  0  0  0  0
    5.0554   -3.6816    0.8209 H   0  0  0  0  0  0  0  0  0  0  0  0
    4.5258   -4.5799    2.8804 H   0  0  0  0  0  0  0  0  0  0  0  0
    4.9026   -5.3258   -1.4025 H   0  0  0  0  0  0  0  0  0  0  0  0
    2.7517   -7.1196   -1.5055 H   0  0  0  0  0  0  0  0  0  0  0  0
    2.3045   -4.8493   -2.1037 H   0  0  0  0  0  0  0  0  0  0  0  0
   -2.2325   -3.3427    0.1421 H   0  0  0  0  0  0  0  0  0  0  0  0
  1  2  1  0  0  0  0
  1 19  1  0  0  0  0
  1 20  1  0  0  0  0
  1 21  1  0  0  0  0
  2  3  2  0  0  0  0
  2 17  1  0  0  0  0
  3  4  1  0  0  0  0
  3 22  1  0  0  0  0
  4 14  1  0  0  0  0
  5  4  1  0  0  0  0
  5  6  1  0  0  0  0
  5 23  1  6  0  0  0
  7  6  1  0  0  0  0
  7  8  1  0  0  0  0
  7 24  1  1  0  0  0
  8  9  1  0  0  0  0
  8 25  1  0  0  0  0
  8 26  1  0  0  0  0
  9 27  1  0  0  0  0
 10  7  1  0  0  0  0
 10 12  1  0  0  0  0
 10 28  1  6  0  0  0
 10 11  1  0  0  0  0
 11 29  1  0  0  0  0
 12  5  1  0  0  0  0
 12 30  1  6  0  0  0
 12 13  1  0  0  0  0
 14 15  2  0  0  0  0
 14 16  1  0  0  0  0
 16 17  1  0  0  0  0
 16 31  1  0  0  0  0
 17 18  2  0  0  0  0
M  ISO  1  13  18
M  END
>  <DRUGBANK_ID>
DB14913

>  <COMMON_NAME>
5-methyl-2'-fluoroarauracil F-18

>  <CAS_NUMBER>
241144-93-4

>  <UNII>
J932A2CDQO

>  <SYNONYMS>
18F-FMAU

$$$$
