TUI
 OpenBabel10282417173D

 51 54  0  0  0  0  0  0  0  0999 V2000
    1.1249   -0.1581    0.0415 O   0  0  0  0  0  0  0  0  0  0  0  0
    2.3426    0.0115    0.0105 C   0  0  0  0  0  0  0  0  0  0  0  0
    2.9760    1.1984   -0.2646 N   0  0  0  0  0  0  0  0  0  0  0  0
    2.2314    2.3547   -0.4058 C   0  0  0  0  0  0  0  0  0  0  0  0
    2.7514    3.5241   -1.5525 S   0  0  0  0  0  0  0  0  0  0  0  0
    1.3892    4.5376   -1.1455 C   0  0  0  0  0  0  0  0  0  0  0  0
    1.0221    6.0666   -1.9676 S   0  0  0  0  0  0  0  0  0  0  0  0
   -0.3746    6.7361   -1.0418 C   0  0  0  0  0  0  0  0  0  0  0  0
   -1.5316    6.9564   -1.7169 N   0  0  0  0  0  0  0  0  0  0  0  0
   -2.5843    7.4653   -1.0221 C   0  0  0  0  0  0  0  0  0  0  0  0
   -2.5501    7.7616    0.3296 C   0  0  0  0  0  0  0  0  0  0  0  0
   -1.3515    7.5656    1.0002 C   0  0  0  0  0  0  0  0  0  0  0  0
   -0.2447    7.0733    0.3034 C   0  0  0  0  0  0  0  0  0  0  0  0
    0.7169    3.9265   -0.1065 C   0  0  0  0  0  0  0  0  0  0  0  0
    1.1856    2.6928    0.3008 N   0  0  0  0  0  0  0  0  0  0  0  0
    3.1223   -1.0863    0.2274 N   0  0  0  0  0  0  0  0  0  0  0  0
    4.5572   -1.2720    0.2651 C   0  0  0  0  0  0  0  0  0  0  0  0
    4.9524   -1.8099    1.6016 C   0  0  0  0  0  0  0  0  0  0  0  0
    4.9240   -3.0688    2.0038 N   0  0  0  0  0  0  0  0  0  0  0  0
    5.4355   -0.9992    2.6022 N   0  0  0  0  0  0  0  0  0  0  0  0
    5.6588   -1.7726    3.7054 C   0  0  0  0  0  0  0  0  0  0  0  0
    5.3082   -3.0467    3.3247 C   0  0  0  0  0  0  0  0  0  0  0  0
    5.4842   -4.2134    4.1592 C   0  0  0  0  0  0  0  0  0  0  0  0
    4.8945   -4.3249    5.4253 C   0  0  0  0  0  0  0  0  0  0  0  0
    5.2213   -5.3987    6.2695 C   0  0  0  0  0  0  0  0  0  0  0  0
    6.3632   -5.2019    3.7336 C   0  0  0  0  0  0  0  0  0  0  0  0
    6.6849   -6.2600    4.5771 C   0  0  0  0  0  0  0  0  0  0  0  0
    6.0925   -6.3971    5.8307 C   0  0  0  0  0  0  0  0  0  0  0  0
    6.2870   -7.4604    6.6723 O   0  0  0  0  0  0  0  0  0  0  0  0
    6.9931   -8.5774    6.1396 C   0  0  0  0  0  0  0  0  0  0  0  0
    6.3985   -9.2666    4.9032 C   0  0  0  0  0  0  0  0  0  0  0  0
    7.2290   -9.3361    3.8331 O   0  0  0  0  0  0  0  0  0  0  0  0
    5.2577   -9.7256    4.8519 O   0  0  0  0  0  0  0  0  0  0  0  0
    3.9202    1.2075   -0.6009 H   0  0  0  0  0  0  0  0  0  0  0  0
   -3.4944    7.6314   -1.5959 H   0  0  0  0  0  0  0  0  0  0  0  0
   -3.4290    8.1379    0.8452 H   0  0  0  0  0  0  0  0  0  0  0  0
   -1.2763    7.7915    2.0607 H   0  0  0  0  0  0  0  0  0  0  0  0
    0.6983    6.9393    0.8203 H   0  0  0  0  0  0  0  0  0  0  0  0
   -0.1463    4.3272    0.4033 H   0  0  0  0  0  0  0  0  0  0  0  0
    2.5720   -1.9236    0.4017 H   0  0  0  0  0  0  0  0  0  0  0  0
    4.8142   -1.9971   -0.5148 H   0  0  0  0  0  0  0  0  0  0  0  0
    5.0722   -0.3358    0.0489 H   0  0  0  0  0  0  0  0  0  0  0  0
    5.5922   -0.0037    2.5350 H   0  0  0  0  0  0  0  0  0  0  0  0
    6.0591   -1.3727    4.6262 H   0  0  0  0  0  0  0  0  0  0  0  0
    4.1707   -3.5846    5.7579 H   0  0  0  0  0  0  0  0  0  0  0  0
    4.7938   -5.4464    7.2690 H   0  0  0  0  0  0  0  0  0  0  0  0
    6.8255   -5.1443    2.7518 H   0  0  0  0  0  0  0  0  0  0  0  0
    7.4223   -6.9491    4.2044 H   0  0  0  0  0  0  0  0  0  0  0  0
    8.0436   -8.3039    5.9813 H   0  0  0  0  0  0  0  0  0  0  0  0
    7.0174   -9.3497    6.9196 H   0  0  0  0  0  0  0  0  0  0  0  0
    8.0992   -8.9040    3.9262 H   0  0  0  0  0  0  0  0  0  0  0  0
  1  2  2  0  0  0  0
  2 16  1  0  0  0  0
  2  3  1  0  0  0  0
  3  4  1  0  0  0  0
  3 34  1  0  0  0  0
  4 15  2  0  0  0  0
  4  5  1  0  0  0  0
  5  6  1  0  0  0  0
  6 14  2  0  0  0  0
  6  7  1  0  0  0  0
  7  8  1  0  0  0  0
  8 13  1  0  0  0  0
  8  9  2  0  0  0  0
  9 10  1  0  0  0  0
 10 11  2  0  0  0  0
 10 35  1  0  0  0  0
 11 12  1  0  0  0  0
 11 36  1  0  0  0  0
 12 13  2  0  0  0  0
 12 37  1  0  0  0  0
 13 38  1  0  0  0  0
 14 15  1  0  0  0  0
 14 39  1  0  0  0  0
 16 17  1  0  0  0  0
 16 40  1  0  0  0  0
 17 18  1  0  0  0  0
 17 41  1  0  0  0  0
 17 42  1  0  0  0  0
 18 20  1  0  0  0  0
 18 19  2  0  0  0  0
 19 22  1  0  0  0  0
 20 21  1  0  0  0  0
 20 43  1  0  0  0  0
 21 22  2  0  0  0  0
 21 44  1  0  0  0  0
 22 23  1  0  0  0  0
 23 26  1  0  0  0  0
 23 24  2  0  0  0  0
 24 25  1  0  0  0  0
 24 45  1  0  0  0  0
 25 28  2  0  0  0  0
 25 46  1  0  0  0  0
 26 27  2  0  0  0  0
 26 47  1  0  0  0  0
 27 28  1  0  0  0  0
 27 48  1  0  0  0  0
 28 29  1  0  0  0  0
 29 30  1  0  0  0  0
 30 31  1  0  0  0  0
 30 49  1  0  0  0  0
 30 50  1  0  0  0  0
 31 32  1  0  0  0  0
 31 33  2  0  0  0  0
 32 51  1  0  0  0  0
M  END
>  <DRUGBANK_ID>
DB08657

>  <COMMON_NAME>
2-(4-(2-((3-(5-(PYRIDIN-2-YLTHIO)THIAZOL-2-YL)UREIDO)METHYL)-1H-IMIDAZOL-4-YL)PHENOXY)ACETIC ACID

$$$$
