
 OpenBabel10282417143D

 41 41  0  0  0  0  0  0  0  0999 V2000
   -1.5534   -1.7903    0.0155 C   0  0  0  0  0  0  0  0  0  0  0  0
   -0.4170   -0.8128    0.0001 C   0  0  0  0  0  0  0  0  0  0  0  0
    0.8301   -1.3454   -0.0118 N   0  0  0  0  0  0  0  0  0  0  0  0
    1.8744   -0.4975   -0.0260 C   0  0  0  0  0  0  0  0  0  0  0  0
    1.7522    0.8871   -0.0081 C   0  0  0  0  0  0  0  0  0  0  0  0
    3.0264    1.6899    0.0352 C   0  0  0  0  0  0  0  0  0  0  0  0
    3.7437    1.5233    1.2464 O   0  0  0  0  0  0  0  0  0  0  0  0
    2.7632    1.8082    2.6429 P   0  0  0  0  0  0  0  0  0  0  0  0
    3.9815    1.0797    3.4588 O   0  0  0  0  0  0  0  0  0  0  0  0
    3.4680    3.2860    2.6526 O   0  0  0  0  0  0  0  0  0  0  0  0
    1.8856    2.0631    3.8928 O   0  0  0  0  0  0  0  0  0  0  0  0
    0.4409    1.4368    0.0100 C   0  0  0  0  0  0  0  0  0  0  0  0
    0.2038    2.9207   -0.0228 C   0  0  0  0  0  0  0  0  0  0  0  0
    0.8947    3.5943    1.0803 N   0  0  0  0  0  0  0  0  0  0  0  0
    0.6733    5.0755    1.1259 C   0  0  0  0  0  0  0  0  0  0  0  0
   -0.8275    5.4027    1.1741 C   0  0  0  0  0  0  0  0  0  0  0  0
    1.2995    5.6178    2.4269 C   0  0  0  0  0  0  0  0  0  0  0  0
    1.3453    5.8335   -0.0517 C   0  0  0  0  0  0  0  0  0  0  0  0
    2.0973    5.1085   -0.9045 O   0  0  0  0  0  0  0  0  0  0  0  0
    1.2293    7.0427   -0.2238 O   0  0  0  0  0  0  0  0  0  0  0  0
   -0.6531    0.5594    0.0017 C   0  0  0  0  0  0  0  0  0  0  0  0
   -1.9608    0.9594   -0.0047 O   0  0  0  0  0  0  0  0  0  0  0  0
   -1.5064   -2.4168   -0.8785 H   0  0  0  0  0  0  0  0  0  0  0  0
   -1.4808   -2.4140    0.9100 H   0  0  0  0  0  0  0  0  0  0  0  0
   -2.5335   -1.3038    0.0300 H   0  0  0  0  0  0  0  0  0  0  0  0
    2.8519   -0.9772   -0.0368 H   0  0  0  0  0  0  0  0  0  0  0  0
    3.6739    1.4530   -0.8144 H   0  0  0  0  0  0  0  0  0  0  0  0
    2.8542    2.7477   -0.0417 H   0  0  0  0  0  0  0  0  0  0  0  0
    3.7598    0.1753    3.7250 H   0  0  0  0  0  0  0  0  0  0  0  0
    3.4318    3.7051    1.7814 H   0  0  0  0  0  0  0  0  0  0  0  0
    0.5198    3.2611   -1.0108 H   0  0  0  0  0  0  0  0  0  0  0  0
   -0.8528    3.1533    0.0256 H   0  0  0  0  0  0  0  0  0  0  0  0
    0.4746    3.2348    1.9575 H   0  0  0  0  0  0  0  0  0  0  0  0
   -1.3095    4.9279    2.0385 H   0  0  0  0  0  0  0  0  0  0  0  0
   -0.9878    6.4817    1.2492 H   0  0  0  0  0  0  0  0  0  0  0  0
   -1.3550    5.0842    0.2708 H   0  0  0  0  0  0  0  0  0  0  0  0
    2.3815    5.4700    2.4641 H   0  0  0  0  0  0  0  0  0  0  0  0
    1.1406    6.6995    2.5052 H   0  0  0  0  0  0  0  0  0  0  0  0
    0.8587    5.1587    3.3211 H   0  0  0  0  0  0  0  0  0  0  0  0
    2.1076    4.1729   -0.6713 H   0  0  0  0  0  0  0  0  0  0  0  0
   -2.0978    1.9145   -0.0099 H   0  0  0  0  0  0  0  0  0  0  0  0
  1  2  1  0  0  0  0
  1 23  1  0  0  0  0
  1 24  1  0  0  0  0
  1 25  1  0  0  0  0
  2  3  2  0  0  0  0
  2 21  1  0  0  0  0
  3  4  1  0  0  0  0
  4  5  2  0  0  0  0
  4 26  1  0  0  0  0
  5  6  1  0  0  0  0
  5 12  1  0  0  0  0
  6  7  1  0  0  0  0
  6 27  1  0  0  0  0
  6 28  1  0  0  0  0
  7  8  1  0  0  0  0
  8  9  1  0  0  0  0
  8 10  1  0  0  0  0
  8 11  2  0  0  0  0
  9 29  1  0  0  0  0
 10 30  1  0  0  0  0
 12 13  1  0  0  0  0
 12 21  2  0  0  0  0
 13 14  1  0  0  0  0
 13 31  1  0  0  0  0
 13 32  1  0  0  0  0
 14 15  1  0  0  0  0
 14 33  1  0  0  0  0
 15 16  1  0  0  0  0
 15 17  1  0  0  0  0
 15 18  1  0  0  0  0
 16 34  1  0  0  0  0
 16 35  1  0  0  0  0
 16 36  1  0  0  0  0
 17 37  1  0  0  0  0
 17 38  1  0  0  0  0
 17 39  1  0  0  0  0
 18 19  1  0  0  0  0
 18 20  2  0  0  0  0
 19 40  1  0  0  0  0
 21 22  1  0  0  0  0
 22 41  1  0  0  0  0
M  END
>  <DRUGBANK_ID>
DB04241

>  <SECONDARY_ACCESSION_NUMBERS>
EXPT02361

>  <COMMON_NAME>
N-Pyridoxyl-2-Methylalanine-5-Phosphate

$$$$
