LAZ
 OpenBabel10282417173D

 23 23  0  0  0  0  0  0  0  0999 V2000
    1.0296    0.0588    0.0162 O   0  0  0  0  0  0  0  0  0  0  0  0
    2.2575    0.0278    0.0835 C   0  0  0  0  0  0  0  0  0  0  0  0
    2.9905    1.1639   -0.1555 N   0  0  0  0  0  0  0  0  0  0  0  0
    4.4397    1.3095   -0.2456 C   0  0  0  0  0  0  0  0  0  0  0  0
    4.9079    1.7458   -1.6238 C   0  0  0  0  0  0  0  0  0  0  0  0
    4.4459    3.0548   -1.9179 O   0  0  0  0  0  0  0  0  0  0  0  0
    2.9473   -1.2467    0.3985 C   0  0  0  0  0  0  0  0  0  0  0  0
    2.5318   -2.4181   -0.2423 C   0  0  0  0  0  0  0  0  0  0  0  0
    3.1901   -3.6237    0.0207 C   0  0  0  0  0  0  0  0  0  0  0  0
    4.2641   -3.6524    0.9118 C   0  0  0  0  0  0  0  0  0  0  0  0
    5.0680   -5.1357    1.2430 Cl  0  0  0  0  0  0  0  0  0  0  0  0
    4.6803   -2.4899    1.5548 C   0  0  0  0  0  0  0  0  0  0  0  0
    3.9942   -1.2975    1.3297 C   0  0  0  0  0  0  0  0  0  0  0  0
    2.4140    1.9867   -0.2950 H   0  0  0  0  0  0  0  0  0  0  0  0
    4.7268    2.0306    0.5254 H   0  0  0  0  0  0  0  0  0  0  0  0
    4.9428    0.3671   -0.0539 H   0  0  0  0  0  0  0  0  0  0  0  0
    6.0025    1.7545   -1.6414 H   0  0  0  0  0  0  0  0  0  0  0  0
    4.5563    1.0542   -2.3964 H   0  0  0  0  0  0  0  0  0  0  0  0
    3.4750    3.0099   -1.9371 H   0  0  0  0  0  0  0  0  0  0  0  0
    1.7007   -2.3938   -0.9445 H   0  0  0  0  0  0  0  0  0  0  0  0
    2.8623   -4.5355   -0.4713 H   0  0  0  0  0  0  0  0  0  0  0  0
    5.5291   -2.5022    2.2333 H   0  0  0  0  0  0  0  0  0  0  0  0
    4.3037   -0.4031    1.8649 H   0  0  0  0  0  0  0  0  0  0  0  0
  1  2  2  0  0  0  0
  2  3  1  0  0  0  0
  2  7  1  0  0  0  0
  3  4  1  0  0  0  0
  3 14  1  0  0  0  0
  4  5  1  0  0  0  0
  4 15  1  0  0  0  0
  4 16  1  0  0  0  0
  5  6  1  0  0  0  0
  5 17  1  0  0  0  0
  5 18  1  0  0  0  0
  6 19  1  0  0  0  0
  7  8  2  0  0  0  0
  7 13  1  0  0  0  0
  8  9  1  0  0  0  0
  8 20  1  0  0  0  0
  9 10  2  0  0  0  0
  9 21  1  0  0  0  0
 10 11  1  0  0  0  0
 10 12  1  0  0  0  0
 12 13  2  0  0  0  0
 12 22  1  0  0  0  0
 13 23  1  0  0  0  0
M  END
>  <DRUGBANK_ID>
DB08082

>  <COMMON_NAME>
N-(2-AMINOETHYL)-P-CHLOROBENZAMIDE

>  <UNII>
9CYV9RP6X6

$$$$
