
 OpenBabel10282417123D

 35 37  0  0  0  0  0  0  0  0999 V2000
   -0.2315    0.7365   -0.2615 C   0  0  0  0  0  0  0  0  0  0  0  0
   -0.2036   -0.6094   -0.5216 C   0  0  0  0  0  0  0  0  0  0  0  0
   -2.3280   -0.0021   -0.2168 C   0  0  0  0  0  0  0  0  0  0  0  0
    0.9473    1.5296   -0.0781 C   0  0  0  0  0  0  0  0  0  0  0  0
    0.9710    2.7366    0.0688 O   0  0  0  0  0  0  0  0  0  0  0  0
    2.0922    0.7565   -0.0891 N   0  0  0  0  0  0  0  0  0  0  0  0
    1.0177   -1.3043   -0.5971 N   0  0  0  0  0  0  0  0  0  0  0  0
   -1.5368    1.1205   -0.1447 N   0  0  0  0  0  0  0  0  0  0  0  0
   -1.5235   -1.1445   -0.3583 C   0  0  0  0  0  0  0  0  0  0  0  0
   -2.0521   -2.4911    0.1157 C   0  0  2  0  0  0  0  0  0  0  0  0
   -1.5239   -2.5852    1.5125 N   0  0  0  0  0  0  0  0  0  0  0  0
   -0.5713   -3.7207    1.5751 C   0  0  2  0  0  0  0  0  0  0  0  0
    0.8838   -3.4466    1.9947 C   0  0  0  0  0  0  0  0  0  0  0  0
    1.2119   -2.0906    1.8084 O   0  0  0  0  0  0  0  0  0  0  0  0
   -1.9087   -3.9324   -0.3923 C   0  0  2  0  0  0  0  0  0  0  0  0
   -2.9753   -4.7338    0.2227 O   0  0  0  0  0  0  0  0  0  0  0  0
   -0.6025   -4.4170    0.2125 C   0  0  2  0  0  0  0  0  0  0  0  0
   -0.5293   -5.8293    0.4128 O   0  0  0  0  0  0  0  0  0  0  0  0
    2.0966   -0.5872   -0.3612 C   0  0  0  0  0  0  0  0  0  0  0  0
    3.3023   -1.2249   -0.3035 N   0  0  0  0  0  0  0  0  0  0  0  0
   -3.3862    0.0771    0.0128 H   0  0  0  0  0  0  0  0  0  0  0  0
    2.9543    1.2502    0.0678 H   0  0  0  0  0  0  0  0  0  0  0  0
   -1.8624    2.0581    0.0654 H   0  0  0  0  0  0  0  0  0  0  0  0
   -3.1446   -2.3443    0.1116 H   0  0  0  0  0  0  0  0  0  0  0  0
   -0.9660   -1.7422    1.6941 H   0  0  0  0  0  0  0  0  0  0  0  0
   -0.9693   -4.3831    2.3498 H   0  0  0  0  0  0  0  0  0  0  0  0
    1.0486   -3.6406    3.0520 H   0  0  0  0  0  0  0  0  0  0  0  0
    1.5932   -4.0437    1.4080 H   0  0  0  0  0  0  0  0  0  0  0  0
    1.0609   -1.9810    0.8473 H   0  0  0  0  0  0  0  0  0  0  0  0
   -1.9888   -4.0959   -1.4697 H   0  0  0  0  0  0  0  0  0  0  0  0
   -3.0388   -4.4327    1.1531 H   0  0  0  0  0  0  0  0  0  0  0  0
    0.2123   -4.1169   -0.4525 H   0  0  0  0  0  0  0  0  0  0  0  0
   -1.2370   -6.0632    1.0448 H   0  0  0  0  0  0  0  0  0  0  0  0
    3.2605   -2.2201   -0.0951 H   0  0  0  0  0  0  0  0  0  0  0  0
    4.1253   -0.7751    0.0752 H   0  0  0  0  0  0  0  0  0  0  0  0
  1  2  2  0  0  0  0
  2  9  1  0  0  0  0
  3 21  1  0  0  0  0
  4  6  1  0  0  0  0
  4  1  1  0  0  0  0
  4  5  2  0  0  0  0
  6 19  1  0  0  0  0
  6 22  1  0  0  0  0
  7  2  1  0  0  0  0
  8  1  1  0  0  0  0
  8  3  1  0  0  0  0
  8 23  1  0  0  0  0
  9  3  2  0  0  0  0
 10  9  1  0  0  0  0
 10 11  1  0  0  0  0
 10 24  1  1  0  0  0
 11 25  1  0  0  0  0
 12 17  1  0  0  0  0
 12 11  1  0  0  0  0
 12 26  1  1  0  0  0
 12 13  1  0  0  0  0
 13 14  1  0  0  0  0
 13 27  1  0  0  0  0
 13 28  1  0  0  0  0
 14 29  1  0  0  0  0
 15 10  1  0  0  0  0
 15 16  1  0  0  0  0
 15 30  1  6  0  0  0
 16 31  1  0  0  0  0
 17 15  1  0  0  0  0
 17 18  1  0  0  0  0
 17 32  1  6  0  0  0
 18 33  1  0  0  0  0
 19  7  2  0  0  0  0
 19 20  1  0  0  0  0
 20 34  1  0  0  0  0
 20 35  1  0  0  0  0
M  END
>  <DRUGBANK_ID>
DB02230

>  <SECONDARY_ACCESSION_NUMBERS>
EXPT01868

>  <COMMON_NAME>
Immucillin-G

>  <UNII>
XLM0Q9H891

>  <SYNONYMS>
(1S)-1,4-dideoxy-1,4-imino-1-(9-deazaguanin-9-yl)-D-ribitol

$$$$
