
 OpenBabel10282417173D

 71 77  0  0  0  0  0  0  0  0999 V2000
    3.5587   -1.0644    1.3144 C   0  0  2  0  0  0  0  0  0  0  0  0
    4.5607   -0.4659    0.4438 C   0  0  0  0  0  0  0  0  0  0  0  0
    5.8451    0.0103    0.9949 C   0  0  0  0  0  0  0  0  0  0  0  0
    6.7179   -1.0886    1.5656 C   0  0  0  0  0  0  0  0  0  0  0  0
    6.1435   -1.6376    2.8539 C   0  0  0  0  0  0  0  0  0  0  0  0
    4.7544   -1.9932    2.5722 C   0  0  1  0  0  0  0  0  0  0  0  0
    0.5502   -6.6938   -0.8223 C   0  0  0  0  0  0  0  0  0  0  0  0
    1.1333   -7.4616    0.3977 C   0  0  0  0  0  0  0  0  0  0  0  0
    1.8395   -6.4582    1.1795 C   0  0  2  0  0  0  0  0  0  0  0  0
    2.9825   -6.0218    0.4468 C   0  0  2  0  0  0  0  0  0  0  0  0
    2.9801   -5.8643   -1.1589 C   0  0  2  0  0  0  0  0  0  0  0  0
    1.5018   -5.6798   -1.1932 C   0  0  1  0  0  0  0  0  0  0  0  0
    4.1365   -5.5729   -0.0006 C   0  0  0  0  0  0  0  0  0  0  0  0
    2.8141   -4.2401   -0.1437 N   0  0  0  0  0  0  0  0  0  0  0  0
    3.2450   -4.4787   -1.4037 C   0  0  0  0  0  0  0  0  0  0  0  0
    3.8543   -3.8793   -2.2691 O   0  0  0  0  0  0  0  0  0  0  0  0
    4.6269   -6.7647    0.1525 O   0  0  0  0  0  0  0  0  0  0  0  0
    1.1141   -5.2981    0.6766 C   0  0  0  0  0  0  0  0  0  0  0  0
    3.8777   -5.9042   -1.9348 H   0  0  0  0  0  0  0  0  0  0  0  0
    3.7296   -5.7823    1.2908 H   0  0  0  0  0  0  0  0  0  0  0  0
    1.9105   -2.4657    0.5793 C   0  0  0  0  0  0  0  0  0  0  0  0
    4.0870   -2.8871    3.8579 C   0  0  0  0  0  0  0  0  0  0  0  0
    2.7888   -3.6514    3.7247 N   0  0  0  0  0  0  0  0  0  0  0  0
    3.2635   -4.5308    2.6107 C   0  0  0  0  0  0  0  0  0  0  0  0
    4.2467   -3.8021    1.1673 C   0  0  0  0  0  0  0  0  0  0  0  0
    3.5488   -2.6029    0.4032 N   0  0  0  0  0  0  0  0  0  0  0  0
    2.4367   -2.1410    2.1797 C   0  0  0  0  0  0  0  0  0  0  0  0
    1.6944   -2.7887    3.1973 C   0  0  0  0  0  0  0  0  0  0  0  0
    2.4646   -2.5321   -1.1605 C   0  0  0  0  0  0  0  0  0  0  0  0
    2.4638   -1.6428   -2.1637 C   0  0  0  0  0  0  0  0  0  0  0  0
    1.8858   -2.1099   -3.3289 C   0  0  0  0  0  0  0  0  0  0  0  0
    0.8772   -3.4300   -3.0493 S   0  0  0  0  0  0  0  0  0  0  0  0
    1.1076   -3.1943   -1.3753 N   0  0  0  0  0  0  0  0  0  0  0  0
    3.2828   -0.6032   -2.1385 C   0  0  0  0  0  0  0  0  0  0  0  0
    3.6044    0.0803   -3.2048 C   0  0  0  0  0  0  0  0  0  0  0  0
    3.0250   -0.3538   -4.3588 C   0  0  0  0  0  0  0  0  0  0  0  0
    2.2056   -1.4807   -4.4837 C   0  0  0  0  0  0  0  0  0  0  0  0
    3.3848   -0.3477    2.1653 H   0  0  0  0  0  0  0  0  0  0  0  0
    4.8926   -1.2253   -0.2796 H   0  0  0  0  0  0  0  0  0  0  0  0
    3.9354    0.3894    0.1890 H   0  0  0  0  0  0  0  0  0  0  0  0
    6.3247    0.4362    0.1145 H   0  0  0  0  0  0  0  0  0  0  0  0
    5.6123    0.7533    1.7493 H   0  0  0  0  0  0  0  0  0  0  0  0
    6.8637   -1.8844    0.8020 H   0  0  0  0  0  0  0  0  0  0  0  0
    7.6792   -0.6865    1.8327 H   0  0  0  0  0  0  0  0  0  0  0  0
    6.6889   -2.5759    3.1369 H   0  0  0  0  0  0  0  0  0  0  0  0
    6.0084   -0.9719    3.6774 H   0  0  0  0  0  0  0  0  0  0  0  0
    5.2737   -2.6591    1.9442 H   0  0  0  0  0  0  0  0  0  0  0  0
   -0.2189   -7.0376   -1.4818 H   0  0  0  0  0  0  0  0  0  0  0  0
   -0.1025   -5.8209   -0.6545 H   0  0  0  0  0  0  0  0  0  0  0  0
    0.2970   -7.8630    0.9227 H   0  0  0  0  0  0  0  0  0  0  0  0
    1.9836   -8.1486    0.4526 H   0  0  0  0  0  0  0  0  0  0  0  0
    2.2941   -6.7665    2.1359 H   0  0  0  0  0  0  0  0  0  0  0  0
    1.7230   -6.3804   -2.0689 H   0  0  0  0  0  0  0  0  0  0  0  0
    0.2641   -4.8082    1.2039 H   0  0  0  0  0  0  0  0  0  0  0  0
    1.5544   -4.4175    1.1097 H   0  0  0  0  0  0  0  0  0  0  0  0
    0.8896   -2.5659    1.0556 H   0  0  0  0  0  0  0  0  0  0  0  0
    1.5666   -1.5023    0.0728 H   0  0  0  0  0  0  0  0  0  0  0  0
    4.7600   -3.7018    4.1436 H   0  0  0  0  0  0  0  0  0  0  0  0
    3.8558   -2.1424    4.5782 H   0  0  0  0  0  0  0  0  0  0  0  0
    3.8549   -5.3668    2.9758 H   0  0  0  0  0  0  0  0  0  0  0  0
    2.2880   -4.9882    2.5380 H   0  0  0  0  0  0  0  0  0  0  0  0
    5.2956   -4.0853    1.3275 H   0  0  0  0  0  0  0  0  0  0  0  0
    4.7219   -3.9925    0.2014 H   0  0  0  0  0  0  0  0  0  0  0  0
    3.2216   -2.7012    2.2477 H   0  0  0  0  0  0  0  0  0  0  0  0
    1.8789   -1.0657    1.9554 H   0  0  0  0  0  0  0  0  0  0  0  0
    0.7268   -3.1408    2.8008 H   0  0  0  0  0  0  0  0  0  0  0  0
    1.4505   -1.8655    3.7580 H   0  0  0  0  0  0  0  0  0  0  0  0
    3.7225   -0.3944   -1.2473 H   0  0  0  0  0  0  0  0  0  0  0  0
    4.2664    0.8954   -3.0102 H   0  0  0  0  0  0  0  0  0  0  0  0
    3.2057    0.2458   -5.2127 H   0  0  0  0  0  0  0  0  0  0  0  0
    1.7887   -1.8350   -5.3999 H   0  0  0  0  0  0  0  0  0  0  0  0
  1  2  1  0  0  0  0
  1  6  1  0  0  0  0
  1 38  1  1  0  0  0
  1 21  1  0  0  0  0
  2  3  1  0  0  0  0
  2 39  1  0  0  0  0
  2 40  1  0  0  0  0
  3  4  1  0  0  0  0
  3 41  1  0  0  0  0
  3 42  1  0  0  0  0
  4  5  1  0  0  0  0
  4 43  1  0  0  0  0
  4 44  1  0  0  0  0
  5  6  1  0  0  0  0
  5 45  1  0  0  0  0
  5 46  1  0  0  0  0
  6 22  1  0  0  0  0
  6 47  1  6  0  0  0
  7  8  1  0  0  0  0
  7 12  1  0  0  0  0
  7 48  1  0  0  0  0
  7 49  1  0  0  0  0
  8  9  1  0  0  0  0
  8 50  1  0  0  0  0
  8 51  1  0  0  0  0
  9 10  1  0  0  0  0
  9 18  1  0  0  0  0
  9 52  1  6  0  0  0
 10 11  1  0  0  0  0
 10 13  1  0  0  0  0
 10 20  1  1  0  0  0
 11 12  1  0  0  0  0
 11 15  1  0  0  0  0
 11 19  1  1  0  0  0
 12 18  1  0  0  0  0
 12 53  1  1  0  0  0
 13 14  1  0  0  0  0
 13 17  2  0  0  0  0
 14 15  1  0  0  0  0
 14 21  1  0  0  0  0
 15 16  2  0  0  0  0
 18 54  1  0  0  0  0
 18 55  1  0  0  0  0
 21 56  1  0  0  0  0
 21 57  1  0  0  0  0
 22 23  1  0  0  0  0
 22 58  1  0  0  0  0
 22 59  1  0  0  0  0
 23 24  1  0  0  0  0
 23 28  1  0  0  0  0
 24 25  1  0  0  0  0
 24 60  1  0  0  0  0
 24 61  1  0  0  0  0
 25 26  1  0  0  0  0
 25 62  1  0  0  0  0
 25 63  1  0  0  0  0
 26 27  1  0  0  0  0
 26 29  1  0  0  0  0
 27 28  1  0  0  0  0
 27 64  1  0  0  0  0
 27 65  1  0  0  0  0
 28 66  1  0  0  0  0
 28 67  1  0  0  0  0
 29 30  1  0  0  0  0
 29 33  2  0  0  0  0
 30 31  1  0  0  0  0
 30 34  2  0  0  0  0
 31 32  1  0  0  0  0
 31 37  2  0  0  0  0
 32 33  1  0  0  0  0
 34 35  1  0  0  0  0
 34 68  1  0  0  0  0
 35 36  2  0  0  0  0
 35 69  1  0  0  0  0
 36 37  1  0  0  0  0
 36 70  1  0  0  0  0
 37 71  1  0  0  0  0
M  END
>  <DRUGBANK_ID>
DB08815

>  <COMMON_NAME>
Lurasidone

>  <CAS_NUMBER>
367514-87-2

>  <UNII>
22IC88528T

>  <SYNONYMS>
Lurasidona; Lurasidone; Lurasidonum

$$$$
