
 OpenBabel10282417213D

 52 55  0  0  1  0  0  0  0  0999 V2000
    2.8993    0.5399   -1.1765 C   0  0  0  0  0  0  0  0  0  0  0  0
    2.2709   -0.1106   -2.2900 O   0  0  0  0  0  0  0  0  0  0  0  0
    0.8283   -0.2165   -2.2509 C   0  0  1  0  0  0  0  0  0  0  0  0
    0.2905    1.0965   -2.6748 C   0  0  0  0  0  0  0  0  0  0  0  0
    0.3781    1.0873   -4.1052 N   0  0  0  0  0  0  0  0  0  0  0  0
    0.1490   -0.2645   -4.6066 C   0  0  0  0  0  0  0  0  0  0  0  0
    0.1587   -1.1238   -3.3425 C   0  0  2  0  0  0  0  0  0  0  0  0
   -1.1495   -1.7387   -2.9013 C   0  0  0  0  0  0  0  0  0  0  0  0
   -1.1680   -1.8518   -1.4944 O   0  0  0  0  0  0  0  0  0  0  0  0
   -0.2482   -2.7001   -0.8776 C   0  0  0  0  0  0  0  0  0  0  0  0
    1.1812   -2.8915   -1.0947 C   0  0  0  0  0  0  0  0  0  0  0  0
    2.3688   -2.7624   -1.9990 C   0  0  0  0  0  0  0  0  0  0  0  0
    2.7721   -2.5263   -3.6748 Cl  0  0  0  0  0  0  0  0  0  0  0  0
    3.5030   -2.8015   -1.2201 C   0  0  0  0  0  0  0  0  0  0  0  0
    3.1435   -3.3763   -0.0632 N   0  0  0  0  0  0  0  0  0  0  0  0
    1.7904   -3.3953    0.0489 C   0  0  0  0  0  0  0  0  0  0  0  0
    1.2302   -3.8498    1.1595 N   0  0  0  0  0  0  0  0  0  0  0  0
   -0.0899   -3.7670    1.2169 C   0  0  0  0  0  0  0  0  0  0  0  0
   -0.7415   -4.4029    2.2894 N   0  0  0  0  0  0  0  0  0  0  0  0
   -0.1167   -5.2234    3.1664 C   0  0  0  0  0  0  0  0  0  0  0  0
    0.9489   -4.8637    3.9534 C   0  0  0  0  0  0  0  0  0  0  0  0
    1.3241   -5.9854    4.6243 N   0  0  0  0  0  0  0  0  0  0  0  0
    2.4508   -6.1080    5.5171 C   0  0  0  0  0  0  0  0  0  0  0  0
    0.5523   -7.0573    4.3506 N   0  0  0  0  0  0  0  0  0  0  0  0
   -0.3258   -6.5885    3.4507 C   0  0  0  0  0  0  0  0  0  0  0  0
   -0.8194   -3.1513    0.2866 N   0  0  0  0  0  0  0  0  0  0  0  0
    0.8926    2.0934   -4.8898 C   0  0  0  0  0  0  0  0  0  0  0  0
    1.0591    1.9657   -6.0869 O   0  0  0  0  0  0  0  0  0  0  0  0
    1.2807    3.4108   -4.2496 C   0  0  0  0  0  0  0  0  0  0  0  0
    1.1855    3.9061   -3.0062 C   0  0  0  0  0  0  0  0  0  0  0  0
    2.5139    0.1933   -0.2109 H   0  0  0  0  0  0  0  0  0  0  0  0
    2.8082    1.6273   -1.2478 H   0  0  0  0  0  0  0  0  0  0  0  0
    3.9711    0.3135   -1.2111 H   0  0  0  0  0  0  0  0  0  0  0  0
    0.5345   -0.3762   -1.2122 H   0  0  0  0  0  0  0  0  0  0  0  0
   -0.7475    1.2523   -2.3830 H   0  0  0  0  0  0  0  0  0  0  0  0
    0.9671    1.7676   -2.2017 H   0  0  0  0  0  0  0  0  0  0  0  0
    0.9396   -0.5703   -5.3068 H   0  0  0  0  0  0  0  0  0  0  0  0
   -0.8086   -0.3055   -5.1307 H   0  0  0  0  0  0  0  0  0  0  0  0
    0.6340   -2.0404   -3.6349 H   0  0  0  0  0  0  0  0  0  0  0  0
   -2.0013   -1.1389   -3.2419 H   0  0  0  0  0  0  0  0  0  0  0  0
   -1.3054   -2.7475   -3.3082 H   0  0  0  0  0  0  0  0  0  0  0  0
    4.5277   -2.5724   -1.4828 H   0  0  0  0  0  0  0  0  0  0  0  0
    3.7684   -3.7436    0.6325 H   0  0  0  0  0  0  0  0  0  0  0  0
   -1.7362   -4.4466    2.1092 H   0  0  0  0  0  0  0  0  0  0  0  0
    1.4678   -3.9228    4.0572 H   0  0  0  0  0  0  0  0  0  0  0  0
    2.0994   -6.4860    6.4796 H   0  0  0  0  0  0  0  0  0  0  0  0
    3.1723   -6.7959    5.0696 H   0  0  0  0  0  0  0  0  0  0  0  0
    2.9138   -5.1261    5.6521 H   0  0  0  0  0  0  0  0  0  0  0  0
   -1.0382   -7.2794    3.0195 H   0  0  0  0  0  0  0  0  0  0  0  0
    1.7146    4.0719   -4.9968 H   0  0  0  0  0  0  0  0  0  0  0  0
    1.5873    4.8742   -2.7418 H   0  0  0  0  0  0  0  0  0  0  0  0
    0.7270    3.4401   -2.1490 H   0  0  0  0  0  0  0  0  0  0  0  0
  1  2  1  0  0  0  0
  1 31  1  0  0  0  0
  1 32  1  0  0  0  0
  1 33  1  0  0  0  0
  3  4  1  0  0  0  0
  3  7  1  0  0  0  0
  3 34  1  1  0  0  0
  3  2  1  0  0  0  0
  4  5  1  0  0  0  0
  4 35  1  0  0  0  0
  4 36  1  0  0  0  0
  5  6  1  0  0  0  0
  5 27  1  0  0  0  0
  6 37  1  0  0  0  0
  6 38  1  0  0  0  0
  7  6  1  0  0  0  0
  7 39  1  6  0  0  0
  7  8  1  0  0  0  0
  8  9  1  0  0  0  0
  8 40  1  0  0  0  0
  8 41  1  0  0  0  0
  9 10  1  0  0  0  0
 10 11  2  0  0  0  0
 10 26  1  0  0  0  0
 11 12  1  0  0  0  0
 11 16  1  0  0  0  0
 12 13  1  0  0  0  0
 12 14  2  0  0  0  0
 14 15  1  0  0  0  0
 14 42  1  0  0  0  0
 15 16  1  0  0  0  0
 15 43  1  0  0  0  0
 16 17  2  0  0  0  0
 17 18  1  0  0  0  0
 18 19  1  0  0  0  0
 18 26  2  0  0  0  0
 19 20  1  0  0  0  0
 19 44  1  0  0  0  0
 20 21  2  0  0  0  0
 20 25  1  0  0  0  0
 21 22  1  0  0  0  0
 21 45  1  0  0  0  0
 22 23  1  0  0  0  0
 22 24  1  0  0  0  0
 23 46  1  0  0  0  0
 23 47  1  0  0  0  0
 23 48  1  0  0  0  0
 24 25  2  0  0  0  0
 25 49  1  0  0  0  0
 27 28  2  0  0  0  0
 27 29  1  0  0  0  0
 29 30  2  0  0  0  0
 29 50  1  0  0  0  0
 30 51  1  0  0  0  0
 30 52  1  0  0  0  0
M  END
>  <DRUGBANK_ID>
DB14768

>  <COMMON_NAME>
PF-06459988

>  <CAS_NUMBER>
1428774-45-1

>  <UNII>
5IE92SK9EB

$$$$
