
 OpenBabel10282417203D

 52 55  0  0  1  0  0  0  0  0999 V2000
   10.0982   -1.0172   -0.3076 C   0  0  0  0  0  0  0  0  0  0  0  0
   10.0898    0.4043    0.2321 C   0  0  0  0  0  0  0  0  0  0  0  0
   10.2039    0.4436    1.6555 O   0  0  0  0  0  0  0  0  0  0  0  0
    9.0175    0.0928    2.2554 C   0  0  0  0  0  0  0  0  0  0  0  0
    8.4270    0.9083    3.2004 C   0  0  0  0  0  0  0  0  0  0  0  0
    7.2432    0.4235    3.7225 C   0  0  0  0  0  0  0  0  0  0  0  0
    6.6309   -0.7374    3.4252 N   0  0  0  0  0  0  0  0  0  0  0  0
    7.3602   -1.5019    2.5996 C   0  0  0  0  0  0  0  0  0  0  0  0
    8.5081   -1.1395    2.0234 N   0  0  0  0  0  0  0  0  0  0  0  0
    6.9448   -2.7777    2.3402 N   0  0  0  0  0  0  0  0  0  0  0  0
    6.9455    1.3029    4.7215 N   0  0  0  0  0  0  0  0  0  0  0  0
    7.8661    2.3180    4.6820 C   0  0  0  0  0  0  0  0  0  0  0  0
    8.7823    2.1057    3.7703 N   0  0  0  0  0  0  0  0  0  0  0  0
    6.0094    1.0819    5.7893 C   0  0  1  0  0  0  0  0  0  0  0  0
    6.3382   -0.1242    6.7330 C   0  0  2  0  0  0  0  0  0  0  0  0
    7.0401    0.5735    7.8779 C   0  0  1  0  0  0  0  0  0  0  0  0
    6.1945    1.8191    7.9326 C   0  0  2  0  0  0  0  0  0  0  0  0
    6.0670    2.2954    6.6124 O   0  0  0  0  0  0  0  0  0  0  0  0
    6.8224    2.7228    8.9703 C   0  0  0  0  0  0  0  0  0  0  0  0
    6.8568    2.0851   10.2421 O   0  0  0  0  0  0  0  0  0  0  0  0
    6.5093    0.5083   10.3859 P   0  0  2  0  0  0  0  0  0  0  0  0
    6.7911   -0.1053   11.6959 O   0  0  0  0  0  0  0  0  0  0  0  0
    7.2649   -0.1170    9.0966 O   0  0  0  0  0  0  0  0  0  0  0  0
    5.0343    0.3209    9.7956 O   0  0  0  0  0  0  0  0  0  0  0  0
    3.8811    1.0507   10.0952 C   0  0  0  0  0  0  0  0  0  0  0  0
    3.5124    0.6039   11.4733 C   0  0  0  0  0  0  0  0  0  0  0  0
    3.9447    2.5786    9.9860 C   0  0  0  0  0  0  0  0  0  0  0  0
    7.2528   -1.2204    6.2602 C   0  0  0  0  0  0  0  0  0  0  0  0
    5.1560   -0.6784    7.1290 F   0  0  0  0  0  0  0  0  0  0  0  0
   10.9068   -1.5897    0.1567 H   0  0  0  0  0  0  0  0  0  0  0  0
   10.2028   -1.0267   -1.3925 H   0  0  0  0  0  0  0  0  0  0  0  0
    9.1657   -1.5440   -0.0910 H   0  0  0  0  0  0  0  0  0  0  0  0
   10.9776    0.9193   -0.1511 H   0  0  0  0  0  0  0  0  0  0  0  0
    9.2209    0.9775   -0.1195 H   0  0  0  0  0  0  0  0  0  0  0  0
    6.1495   -3.1624    2.8165 H   0  0  0  0  0  0  0  0  0  0  0  0
    7.4899   -3.3113    1.6817 H   0  0  0  0  0  0  0  0  0  0  0  0
    7.8478    3.1586    5.3667 H   0  0  0  0  0  0  0  0  0  0  0  0
    4.9964    1.0302    5.3692 H   0  0  0  0  0  0  0  0  0  0  0  0
    8.0404    0.8635    7.5542 H   0  0  0  0  0  0  0  0  0  0  0  0
    5.1680    1.5632    8.1471 H   0  0  0  0  0  0  0  0  0  0  0  0
    6.3026    3.6798    9.0600 H   0  0  0  0  0  0  0  0  0  0  0  0
    7.8484    2.9651    8.6812 H   0  0  0  0  0  0  0  0  0  0  0  0
    3.1546    0.7046    9.3496 H   0  0  0  0  0  0  0  0  0  0  0  0
    4.3056    0.8967   12.1685 H   0  0  0  0  0  0  0  0  0  0  0  0
    2.5669    1.0418   11.7778 H   0  0  0  0  0  0  0  0  0  0  0  0
    3.4630   -0.4901   11.4929 H   0  0  0  0  0  0  0  0  0  0  0  0
    4.1865    2.9517    8.9847 H   0  0  0  0  0  0  0  0  0  0  0  0
    2.9759    3.0248   10.2040 H   0  0  0  0  0  0  0  0  0  0  0  0
    4.6846    2.9972   10.6719 H   0  0  0  0  0  0  0  0  0  0  0  0
    7.4367   -1.9485    7.0517 H   0  0  0  0  0  0  0  0  0  0  0  0
    6.8092   -1.7755    5.4414 H   0  0  0  0  0  0  0  0  0  0  0  0
    8.2178   -0.7889    5.9721 H   0  0  0  0  0  0  0  0  0  0  0  0
  1  2  1  0  0  0  0
  1 30  1  0  0  0  0
  1 31  1  0  0  0  0
  1 32  1  0  0  0  0
  2  3  1  0  0  0  0
  2 33  1  0  0  0  0
  2 34  1  0  0  0  0
  3  4  1  0  0  0  0
  4  5  2  0  0  0  0
  4  9  1  0  0  0  0
  5  6  1  0  0  0  0
  5 13  1  0  0  0  0
  6  7  2  0  0  0  0
  6 11  1  0  0  0  0
  7  8  1  0  0  0  0
  8  9  2  0  0  0  0
  8 10  1  0  0  0  0
 10 35  1  0  0  0  0
 10 36  1  0  0  0  0
 11 12  1  0  0  0  0
 12 13  2  0  0  0  0
 12 37  1  0  0  0  0
 14 15  1  0  0  0  0
 14 18  1  0  0  0  0
 14 38  1  6  0  0  0
 14 11  1  0  0  0  0
 15 16  1  0  0  0  0
 15 28  1  0  0  0  0
 15 29  1  1  0  0  0
 16 17  1  0  0  0  0
 16 23  1  0  0  0  0
 16 39  1  6  0  0  0
 17 18  1  0  0  0  0
 17 19  1  0  0  0  0
 17 40  1  1  0  0  0
 19 20  1  0  0  0  0
 19 41  1  0  0  0  0
 19 42  1  0  0  0  0
 21 20  1  0  0  0  0
 21 22  2  1  0  0  0
 21 23  1  0  0  0  0
 21 24  1  0  0  0  0
 24 25  1  0  0  0  0
 25 26  1  0  0  0  0
 25 27  1  0  0  0  0
 25 43  1  0  0  0  0
 26 44  1  0  0  0  0
 26 45  1  0  0  0  0
 26 46  1  0  0  0  0
 27 47  1  0  0  0  0
 27 48  1  0  0  0  0
 27 49  1  0  0  0  0
 28 50  1  0  0  0  0
 28 51  1  0  0  0  0
 28 52  1  0  0  0  0
M  END
>  <DRUGBANK_ID>
DB12896

>  <COMMON_NAME>
PSI-352938

>  <CAS_NUMBER>
1199809-32-9

>  <UNII>
3Z30JH9QX1

$$$$
