
 OpenBabel10282417243D

 98102  0  0  1  0  0  0  0  0999 V2000
    2.7407   -0.6735   -3.7365 H   0  0  0  0  0  0  0  0  0  0  0  0
    2.7833   -1.3072   -2.8452 C   0  0  1  0  0  0  0  0  0  0  0  0
    3.3162   -3.1744   -2.8248 C   0  0  0  0  0  0  0  0  0  0  0  0
    2.4907   -3.9147   -1.7260 C   0  0  0  0  0  0  0  0  0  0  0  0
    2.0447   -2.5841   -1.5048 C   0  0  1  0  0  0  0  0  0  0  0  0
    3.0344   -2.1713   -1.1303 H   0  0  0  0  0  0  0  0  0  0  0  0
    1.2760   -2.2504   -0.3251 C   0  0  2  0  0  0  0  0  0  0  0  0
    1.2742   -1.2038   -0.5244 H   0  0  0  0  0  0  0  0  0  0  0  0
    2.0951   -2.5113    0.9993 C   0  0  2  0  0  0  0  0  0  0  0  0
    2.0924   -3.8745    1.3466 O   0  0  0  0  0  0  0  0  0  0  0  0
    1.5307   -1.6847    2.1191 C   0  0  0  0  0  0  0  0  0  0  0  0
    0.0158   -1.8381    2.0806 C   0  0  1  0  0  0  0  0  0  0  0  0
   -0.1566   -2.9098    2.2788 H   0  0  0  0  0  0  0  0  0  0  0  0
   -0.6137   -1.0802    3.2731 C   0  0  0  0  0  0  0  0  0  0  0  0
   -0.8922    0.4041    2.9942 C   0  0  2  0  0  0  0  0  0  0  0  0
   -2.0149    0.3221    1.8551 C   0  0  0  0  0  0  0  0  0  0  0  0
   -2.1517   -1.2151    1.0659 C   0  0  0  0  0  0  0  0  0  0  0  0
   -0.6928   -1.5203    0.6625 C   0  0  1  0  0  0  0  0  0  0  0  0
   -0.4569   -0.1738   -0.0353 C   0  0  0  0  0  0  0  0  0  0  0  0
   -0.2119   -2.4839   -0.4225 C   0  0  1  0  0  0  0  0  0  0  0  0
   -0.3718   -3.5564   -0.2908 H   0  0  0  0  0  0  0  0  0  0  0  0
   -0.7490   -2.0084   -1.8143 C   0  0  0  0  0  0  0  0  0  0  0  0
    0.0519   -2.4506   -2.9704 C   0  0  0  0  0  0  0  0  0  0  0  0
    1.4865   -2.0061   -2.9325 C   0  0  2  0  0  0  0  0  0  0  0  0
    1.7516   -2.2530   -4.5868 C   0  0  0  0  0  0  0  0  0  0  0  0
    0.4345    1.0952    2.8381 N   0  0  0  0  0  0  0  0  0  0  0  0
    0.5373    2.5295    3.0971 C   0  0  0  0  0  0  0  0  0  0  0  0
    2.0133    3.0795    3.0135 C   0  0  0  0  0  0  0  0  0  0  0  0
    2.6283    2.9145    1.6451 C   0  0  0  0  0  0  0  0  0  0  0  0
    1.6238    3.4353    0.6273 C   0  0  0  0  0  0  0  0  0  0  0  0
    1.7122    4.8718    0.4711 N   0  0  0  0  0  0  0  0  0  0  0  0
    1.0237    5.3089   -0.7595 C   0  0  0  0  0  0  0  0  0  0  0  0
   -0.4129    4.8298   -0.8642 C   0  0  0  0  0  0  0  0  0  0  0  0
   -1.4260    5.7242   -1.1023 C   0  0  0  0  0  0  0  0  0  0  0  0
   -2.7373    5.2697   -0.9977 C   0  0  0  0  0  0  0  0  0  0  0  0
   -3.0058    3.9487   -0.6696 C   0  0  0  0  0  0  0  0  0  0  0  0
   -1.9406    3.1030   -0.5732 C   0  0  0  0  0  0  0  0  0  0  0  0
   -0.6741    3.5077   -0.7006 N   0  0  0  0  0  0  0  0  0  0  0  0
    3.0848    0.0379   -1.7622 C   0  0  2  0  0  0  0  0  0  0  0  0
    2.8257    0.0832   -0.2498 C   0  0  0  0  0  0  0  0  0  0  0  0
    2.5553    1.4527   -2.2240 C   0  0  0  0  0  0  0  0  0  0  0  0
    3.2880    2.5707   -1.4639 C   0  0  0  0  0  0  0  0  0  0  0  0
    4.6765    2.7418   -1.0504 C   0  0  0  0  0  0  0  0  0  0  0  0
    5.2940    3.8652   -1.0978 O   0  0  0  0  0  0  0  0  0  0  0  0
    5.1314    1.6616   -0.4179 O   0  0  0  0  0  0  0  0  0  0  0  0
    6.5223    1.6358   -0.2922 C   0  0  0  0  0  0  0  0  0  0  0  0
    4.3027   -3.6055   -2.6844 H   0  0  0  0  0  0  0  0  0  0  0  0
    2.9664   -3.7186   -3.7191 H   0  0  0  0  0  0  0  0  0  0  0  0
    3.0659   -4.2791   -0.8702 H   0  0  0  0  0  0  0  0  0  0  0  0
    1.5798   -4.5069   -1.8709 H   0  0  0  0  0  0  0  0  0  0  0  0
    3.1742   -2.2925    0.9614 H   0  0  0  0  0  0  0  0  0  0  0  0
    1.2248   -4.1995    1.0829 H   0  0  0  0  0  0  0  0  0  0  0  0
    1.9467   -2.0012    3.0827 H   0  0  0  0  0  0  0  0  0  0  0  0
    1.8538   -0.6507    2.0172 H   0  0  0  0  0  0  0  0  0  0  0  0
   -1.5812   -1.5529    3.4835 H   0  0  0  0  0  0  0  0  0  0  0  0
   -0.0252   -1.2199    4.1819 H   0  0  0  0  0  0  0  0  0  0  0  0
   -1.3503    0.8586    3.8695 H   0  0  0  0  0  0  0  0  0  0  0  0
   -2.8809    0.9752    1.9980 H   0  0  0  0  0  0  0  0  0  0  0  0
   -1.6408    1.0126    1.1125 H   0  0  0  0  0  0  0  0  0  0  0  0
   -2.7936   -1.1919    0.1701 H   0  0  0  0  0  0  0  0  0  0  0  0
   -2.5156   -2.0629    1.6628 H   0  0  0  0  0  0  0  0  0  0  0  0
    0.1619    0.6533   -0.3658 H   0  0  0  0  0  0  0  0  0  0  0  0
   -1.3727    0.1048   -0.5635 H   0  0  0  0  0  0  0  0  0  0  0  0
   -0.1171    0.1701    0.8874 H   0  0  0  0  0  0  0  0  0  0  0  0
   -0.6879   -0.9326   -2.0094 H   0  0  0  0  0  0  0  0  0  0  0  0
   -1.7996   -2.2745   -1.9172 H   0  0  0  0  0  0  0  0  0  0  0  0
   -0.4519   -2.1102   -3.8841 H   0  0  0  0  0  0  0  0  0  0  0  0
    0.0078   -3.5489   -3.0198 H   0  0  0  0  0  0  0  0  0  0  0  0
    1.2659   -1.4343   -5.1403 H   0  0  0  0  0  0  0  0  0  0  0  0
    2.8127   -2.1600   -4.9169 H   0  0  0  0  0  0  0  0  0  0  0  0
    1.3911   -3.2127   -4.9585 H   0  0  0  0  0  0  0  0  0  0  0  0
    0.8674    0.9361    1.9337 H   0  0  0  0  0  0  0  0  0  0  0  0
   -0.1167    3.0519    2.3950 H   0  0  0  0  0  0  0  0  0  0  0  0
    0.1539    2.7749    4.0765 H   0  0  0  0  0  0  0  0  0  0  0  0
    2.0424    4.1505    3.2305 H   0  0  0  0  0  0  0  0  0  0  0  0
    2.6682    2.5676    3.7277 H   0  0  0  0  0  0  0  0  0  0  0  0
    3.6328    3.3535    1.5297 H   0  0  0  0  0  0  0  0  0  0  0  0
    2.7982    1.8479    1.5955 H   0  0  0  0  0  0  0  0  0  0  0  0
    1.5686    3.0507   -0.3708 H   0  0  0  0  0  0  0  0  0  0  0  0
    0.6885    2.9588    0.8550 H   0  0  0  0  0  0  0  0  0  0  0  0
    1.3138    5.3191    1.2876 H   0  0  0  0  0  0  0  0  0  0  0  0
    1.0854    6.4013   -0.7759 H   0  0  0  0  0  0  0  0  0  0  0  0
    1.5440    4.9935   -1.6715 H   0  0  0  0  0  0  0  0  0  0  0  0
   -1.1910    6.7503   -1.3505 H   0  0  0  0  0  0  0  0  0  0  0  0
   -3.5556    5.9528   -1.1732 H   0  0  0  0  0  0  0  0  0  0  0  0
   -4.0059    3.5612   -0.5363 H   0  0  0  0  0  0  0  0  0  0  0  0
   -2.0887    2.0518   -0.4048 H   0  0  0  0  0  0  0  0  0  0  0  0
    4.1654    0.1048   -1.8149 H   0  0  0  0  0  0  0  0  0  0  0  0
    3.4268    0.6752    0.4171 H   0  0  0  0  0  0  0  0  0  0  0  0
    1.8379    0.4196    0.0393 H   0  0  0  0  0  0  0  0  0  0  0  0
    3.1590   -0.8138    0.1630 H   0  0  0  0  0  0  0  0  0  0  0  0
    2.6099    1.6835   -3.2819 H   0  0  0  0  0  0  0  0  0  0  0  0
    1.4739    1.5422   -1.9644 H   0  0  0  0  0  0  0  0  0  0  0  0
    2.8916    3.5588   -1.6844 H   0  0  0  0  0  0  0  0  0  0  0  0
    3.0059    2.2904   -0.4745 H   0  0  0  0  0  0  0  0  0  0  0  0
    6.9293    1.8746   -1.2756 H   0  0  0  0  0  0  0  0  0  0  0  0
    6.8354    2.3422    0.4765 H   0  0  0  0  0  0  0  0  0  0  0  0
    6.8004    0.6186   -0.0234 H   0  0  0  0  0  0  0  0  0  0  0  0
  2  1  1  6  0  0  0
  2  3  1  0  0  0  0
  3  4  1  0  0  0  0
  3 47  1  0  0  0  0
  3 48  1  0  0  0  0
  4 49  1  0  0  0  0
  4 50  1  0  0  0  0
  5  4  1  0  0  0  0
  5  6  1  6  0  0  0
  5 24  1  0  0  0  0
  7  5  1  0  0  0  0
  7  8  1  6  0  0  0
  7  9  1  0  0  0  0
  7 20  1  0  0  0  0
  9 10  1  0  0  0  0
  9 11  1  0  0  0  0
  9 51  1  6  0  0  0
 10 52  1  0  0  0  0
 11 53  1  0  0  0  0
 11 54  1  0  0  0  0
 12 11  1  0  0  0  0
 12 13  1  1  0  0  0
 12 14  1  0  0  0  0
 14 55  1  0  0  0  0
 14 56  1  0  0  0  0
 15 14  1  0  0  0  0
 15 16  1  0  0  0  0
 15 57  1  1  0  0  0
 15 26  1  0  0  0  0
 16 17  1  0  0  0  0
 16 58  1  0  0  0  0
 16 59  1  0  0  0  0
 17 60  1  0  0  0  0
 17 61  1  0  0  0  0
 18 17  1  0  0  0  0
 18 12  1  0  0  0  0
 18 19  1  6  0  0  0
 19 62  1  0  0  0  0
 19 63  1  0  0  0  0
 19 64  1  0  0  0  0
 20 18  1  0  0  0  0
 20 21  1  1  0  0  0
 20 22  1  0  0  0  0
 22 23  1  0  0  0  0
 22 65  1  0  0  0  0
 22 66  1  0  0  0  0
 23 67  1  0  0  0  0
 23 68  1  0  0  0  0
 24 23  1  0  0  0  0
 24  2  1  0  0  0  0
 24 25  1  1  0  0  0
 25 69  1  0  0  0  0
 25 70  1  0  0  0  0
 25 71  1  0  0  0  0
 26 27  1  0  0  0  0
 26 72  1  0  0  0  0
 27 28  1  0  0  0  0
 27 73  1  0  0  0  0
 27 74  1  0  0  0  0
 28 29  1  0  0  0  0
 28 75  1  0  0  0  0
 28 76  1  0  0  0  0
 29 30  1  0  0  0  0
 29 77  1  0  0  0  0
 29 78  1  0  0  0  0
 30 31  1  0  0  0  0
 30 79  1  0  0  0  0
 30 80  1  0  0  0  0
 31 32  1  0  0  0  0
 31 81  1  0  0  0  0
 32 33  1  0  0  0  0
 32 82  1  0  0  0  0
 32 83  1  0  0  0  0
 33 34  2  0  0  0  0
 33 38  1  0  0  0  0
 34 35  1  0  0  0  0
 34 84  1  0  0  0  0
 35 36  2  0  0  0  0
 35 85  1  0  0  0  0
 36 37  1  0  0  0  0
 36 86  1  0  0  0  0
 37 38  2  0  0  0  0
 37 87  1  0  0  0  0
 39 41  1  0  0  0  0
 39 88  1  6  0  0  0
 39 40  1  0  0  0  0
 39  2  1  0  0  0  0
 40 89  1  0  0  0  0
 40 90  1  0  0  0  0
 40 91  1  0  0  0  0
 41 42  1  0  0  0  0
 41 92  1  0  0  0  0
 41 93  1  0  0  0  0
 42 43  1  0  0  0  0
 42 94  1  0  0  0  0
 42 95  1  0  0  0  0
 43 44  2  0  0  0  0
 43 45  1  0  0  0  0
 45 46  1  0  0  0  0
 46 96  1  0  0  0  0
 46 97  1  0  0  0  0
 46 98  1  0  0  0  0
M  END
>  <DRUGBANK_ID>
DB18390

>  <COMMON_NAME>
DPM-1001

>  <CAS_NUMBER>
1471172-29-8

>  <UNII>
4EA2U2RX2G

>  <SYNONYMS>
Cholan-24-oic acid, 7-hydroxy-3-[[4-[(2-pyridinylmethyl)amino]butyl]amino]-, methyl ester, (3β,5α,7α)-; Methyl (3β,5α,7α)-7-hydroxy-3-[[4-[(2-pyridinylmethyl)amino]butyl]amino]cholan-24-oate; methyl (R)-4-((3S,5R,7R,8R,9S,10S,13R,14S,17R)-7-hydroxy-10,13-dimethyl-3-((4-((pyridin-2-ylmethyl)amino)butyl)amino)hexadecahydro-1H-cyclopenta[a]phenanthren-17-yl)pentanoate

$$$$
