
 OpenBabel10282417213D

 42 44  0  0  0  0  0  0  0  0999 V2000
    2.5447   -0.0656   -0.0210 C   0  0  0  0  0  0  0  0  0  0  0  0
   -0.6277    6.9670   -1.3774 C   0  0  0  0  0  0  0  0  0  0  0  0
   -1.7314   -3.7259   -1.4544 C   0  0  0  0  0  0  0  0  0  0  0  0
   -1.0956    1.1572   -0.0026 C   0  0  0  0  0  0  0  0  0  0  0  0
   -1.7844   -0.0623   -0.0340 C   0  0  0  0  0  0  0  0  0  0  0  0
    1.9481   -2.9483    1.1693 C   0  0  0  0  0  0  0  0  0  0  0  0
    2.2877   -4.3377    0.7025 C   0  0  0  0  0  0  0  0  0  0  0  0
   -0.6369    4.3218    0.9003 C   0  0  0  0  0  0  0  0  0  0  0  0
    1.0380   -0.0096    0.0364 C   0  0  0  0  0  0  0  0  0  0  0  0
    0.3139    1.2101    0.0368 C   0  0  0  0  0  0  0  0  0  0  0  0
    0.2584    3.7633   -0.0285 C   0  0  0  0  0  0  0  0  0  0  0  0
    1.0972   -2.5087    0.0365 C   0  0  0  0  0  0  0  0  0  0  0  0
   -1.0792   -1.2727   -0.0385 C   0  0  0  0  0  0  0  0  0  0  0  0
    0.3253   -1.2477    0.0395 C   0  0  0  0  0  0  0  0  0  0  0  0
    1.0125    2.5485    0.0161 C   0  0  0  0  0  0  0  0  0  0  0  0
    0.3877    4.7087   -1.0227 C   0  0  0  0  0  0  0  0  0  0  0  0
   -1.0876    5.5161    0.5092 N   0  0  0  0  0  0  0  0  0  0  0  0
    1.1310   -3.2734   -0.9982 N   0  0  0  0  0  0  0  0  0  0  0  0
   -0.4295    5.7383   -0.6523 N   0  0  0  0  0  0  0  0  0  0  0  0
    2.2340    2.6636   -0.0673 O   0  0  0  0  0  0  0  0  0  0  0  0
    1.1141    4.7397   -2.1378 O   0  0  0  0  0  0  0  0  0  0  0  0
    1.7983   -4.4618   -0.6345 O   0  0  0  0  0  0  0  0  0  0  0  0
   -2.0234   -2.7949    0.0256 S   0  0  0  0  0  0  0  0  0  0  0  0
   -1.5268   -3.5258    1.1764 O   0  0  0  0  0  0  0  0  0  0  0  0
   -3.4250   -2.4084   -0.0257 O   0  0  0  0  0  0  0  0  0  0  0  0
    2.9276   -0.4998    0.8992 H   0  0  0  0  0  0  0  0  0  0  0  0
    2.8613   -0.6251   -0.9063 H   0  0  0  0  0  0  0  0  0  0  0  0
    3.0804    0.8688   -0.0808 H   0  0  0  0  0  0  0  0  0  0  0  0
   -1.6833    7.0352   -1.6458 H   0  0  0  0  0  0  0  0  0  0  0  0
   -0.3246    7.7992   -0.7391 H   0  0  0  0  0  0  0  0  0  0  0  0
   -0.0177    6.9594   -2.2842 H   0  0  0  0  0  0  0  0  0  0  0  0
   -0.7272   -4.1084   -1.5155 H   0  0  0  0  0  0  0  0  0  0  0  0
   -2.3704   -4.6110   -1.4315 H   0  0  0  0  0  0  0  0  0  0  0  0
   -1.9589   -3.1127   -2.3263 H   0  0  0  0  0  0  0  0  0  0  0  0
   -1.7033    2.0610   -0.0263 H   0  0  0  0  0  0  0  0  0  0  0  0
   -2.8761   -0.0404   -0.0403 H   0  0  0  0  0  0  0  0  0  0  0  0
    1.4488   -2.8992    2.1365 H   0  0  0  0  0  0  0  0  0  0  0  0
    2.8785   -2.3861    1.2076 H   0  0  0  0  0  0  0  0  0  0  0  0
    1.8525   -5.1064    1.3473 H   0  0  0  0  0  0  0  0  0  0  0  0
    3.3711   -4.4896    0.6632 H   0  0  0  0  0  0  0  0  0  0  0  0
   -0.9705    3.9048    1.8429 H   0  0  0  0  0  0  0  0  0  0  0  0
    1.6995    3.9563   -2.1336 H   0  0  0  0  0  0  0  0  0  0  0  0
  1  9  1  0  0  0  0
  1 26  1  0  0  0  0
  1 27  1  0  0  0  0
  1 28  1  0  0  0  0
  2 19  1  0  0  0  0
  2 29  1  0  0  0  0
  2 30  1  0  0  0  0
  2 31  1  0  0  0  0
  3 23  1  0  0  0  0
  3 32  1  0  0  0  0
  3 33  1  0  0  0  0
  3 34  1  0  0  0  0
  4  5  2  0  0  0  0
  4 10  1  0  0  0  0
  4 35  1  0  0  0  0
  5 13  1  0  0  0  0
  5 36  1  0  0  0  0
  6  7  1  0  0  0  0
  6 12  1  0  0  0  0
  6 37  1  0  0  0  0
  6 38  1  0  0  0  0
  7 22  1  0  0  0  0
  7 39  1  0  0  0  0
  7 40  1  0  0  0  0
  8 11  1  0  0  0  0
  8 17  2  0  0  0  0
  8 41  1  0  0  0  0
  9 10  2  0  0  0  0
  9 14  1  0  0  0  0
 10 15  1  0  0  0  0
 11 15  1  0  0  0  0
 11 16  2  0  0  0  0
 12 14  1  0  0  0  0
 12 18  2  0  0  0  0
 13 14  2  0  0  0  0
 13 23  1  0  0  0  0
 15 20  2  0  0  0  0
 16 19  1  0  0  0  0
 16 21  1  0  0  0  0
 17 19  1  0  0  0  0
 18 22  1  0  0  0  0
 21 42  1  0  0  0  0
 24 23  2  0  0  0  0
 25 23  2  0  0  0  0
M  END
>  <DRUGBANK_ID>
DB14826

>  <COMMON_NAME>
Topramezone

>  <CAS_NUMBER>
210631-68-8

>  <UNII>
W4934JAQ65

$$$$
