
 OpenBabel10282417203D

 52 54  0  0  0  0  0  0  0  0999 V2000
    2.5492    0.0196   -0.0105 C   0  0  0  0  0  0  0  0  0  0  0  0
    1.0605    0.0341   -0.0010 C   0  0  0  0  0  0  0  0  0  0  0  0
    0.3439    1.2366   -0.0083 C   0  0  0  0  0  0  0  0  0  0  0  0
   -1.0434    1.2278   -0.0299 C   0  0  0  0  0  0  0  0  0  0  0  0
   -1.7268    0.0107   -0.0354 C   0  0  0  0  0  0  0  0  0  0  0  0
   -0.9862   -1.1860   -0.0425 C   0  0  0  0  0  0  0  0  0  0  0  0
    0.3888   -1.1805   -0.0112 C   0  0  0  0  0  0  0  0  0  0  0  0
   -3.2360   -0.0084    0.0076 C   0  0  0  0  0  0  0  0  0  0  0  0
   -3.7499    0.7461    1.2451 C   0  0  0  0  0  0  0  0  0  0  0  0
   -5.2459    0.5839    1.4061 C   0  0  0  0  0  0  0  0  0  0  0  0
   -5.6166   -0.8309    1.4481 N   0  0  0  0  0  0  0  0  0  0  0  0
   -5.1573   -1.5624    0.2782 C   0  0  0  0  0  0  0  0  0  0  0  0
   -3.7020   -1.4661    0.0304 C   0  0  0  0  0  0  0  0  0  0  0  0
   -7.0579   -0.9811    1.6056 C   0  0  0  0  0  0  0  0  0  0  0  0
   -7.8881   -0.3412    0.4787 C   0  0  0  0  0  0  0  0  0  0  0  0
   -7.8366   -1.0141   -0.9127 C   0  0  0  0  0  0  0  0  0  0  0  0
   -8.0294   -2.5238   -0.8511 C   0  0  0  0  0  0  0  0  0  0  0  0
   -7.1627   -3.3237   -1.1551 O   0  0  0  0  0  0  0  0  0  0  0  0
   -9.3567   -2.9952   -0.3913 C   0  0  0  0  0  0  0  0  0  0  0  0
  -10.3753   -2.0653   -0.1473 C   0  0  0  0  0  0  0  0  0  0  0  0
  -11.6110   -2.4655    0.3150 C   0  0  0  0  0  0  0  0  0  0  0  0
  -11.8602   -3.8181    0.4395 C   0  0  0  0  0  0  0  0  0  0  0  0
  -10.8739   -4.7669    0.1690 C   0  0  0  0  0  0  0  0  0  0  0  0
   -9.5990   -4.3577   -0.2230 C   0  0  0  0  0  0  0  0  0  0  0  0
  -13.0870   -4.2120    0.7937 F   0  0  0  0  0  0  0  0  0  0  0  0
   -3.6909    0.6572   -1.1850 O   0  0  0  0  0  0  0  0  0  0  0  0
    2.9177   -0.5148    0.8697 H   0  0  0  0  0  0  0  0  0  0  0  0
    2.8977   -0.4815   -0.9186 H   0  0  0  0  0  0  0  0  0  0  0  0
    2.9460    1.0364    0.0024 H   0  0  0  0  0  0  0  0  0  0  0  0
    0.8608    2.1902    0.0001 H   0  0  0  0  0  0  0  0  0  0  0  0
   -1.5917    2.1673   -0.0412 H   0  0  0  0  0  0  0  0  0  0  0  0
   -1.4502   -2.1672   -0.0638 H   0  0  0  0  0  0  0  0  0  0  0  0
    0.9111   -2.1323   -0.0006 H   0  0  0  0  0  0  0  0  0  0  0  0
   -3.2511    0.3783    2.1489 H   0  0  0  0  0  0  0  0  0  0  0  0
   -3.5512    1.8217    1.1648 H   0  0  0  0  0  0  0  0  0  0  0  0
   -5.5715    1.0823    2.3271 H   0  0  0  0  0  0  0  0  0  0  0  0
   -5.7279    1.1121    0.5771 H   0  0  0  0  0  0  0  0  0  0  0  0
   -5.4395   -2.6163    0.3257 H   0  0  0  0  0  0  0  0  0  0  0  0
   -5.5273   -1.1287   -0.6269 H   0  0  0  0  0  0  0  0  0  0  0  0
   -3.5054   -1.9333   -0.9480 H   0  0  0  0  0  0  0  0  0  0  0  0
   -3.2266   -2.0546    0.8203 H   0  0  0  0  0  0  0  0  0  0  0  0
   -7.3123   -2.0422    1.7314 H   0  0  0  0  0  0  0  0  0  0  0  0
   -7.3484   -0.5223    2.5612 H   0  0  0  0  0  0  0  0  0  0  0  0
   -8.9013   -0.3141    0.8773 H   0  0  0  0  0  0  0  0  0  0  0  0
   -7.6581    0.7203    0.3555 H   0  0  0  0  0  0  0  0  0  0  0  0
   -8.5807   -0.5872   -1.5881 H   0  0  0  0  0  0  0  0  0  0  0  0
   -6.9413   -0.7881   -1.4902 H   0  0  0  0  0  0  0  0  0  0  0  0
  -10.2528   -1.0038   -0.3224 H   0  0  0  0  0  0  0  0  0  0  0  0
  -12.3680   -1.7227    0.5365 H   0  0  0  0  0  0  0  0  0  0  0  0
  -11.1108   -5.8211    0.2546 H   0  0  0  0  0  0  0  0  0  0  0  0
   -8.8209   -5.0934   -0.4208 H   0  0  0  0  0  0  0  0  0  0  0  0
   -4.6606    0.6623   -1.2061 H   0  0  0  0  0  0  0  0  0  0  0  0
  1  2  1  0  0  0  0
  1 27  1  0  0  0  0
  1 28  1  0  0  0  0
  1 29  1  0  0  0  0
  2  3  2  0  0  0  0
  2  7  1  0  0  0  0
  3  4  1  0  0  0  0
  3 30  1  0  0  0  0
  4  5  2  0  0  0  0
  4 31  1  0  0  0  0
  5  6  1  0  0  0  0
  5  8  1  0  0  0  0
  6  7  2  0  0  0  0
  6 32  1  0  0  0  0
  7 33  1  0  0  0  0
  8  9  1  0  0  0  0
  8 13  1  0  0  0  0
  8 26  1  0  0  0  0
  9 10  1  0  0  0  0
  9 34  1  0  0  0  0
  9 35  1  0  0  0  0
 10 11  1  0  0  0  0
 10 36  1  0  0  0  0
 10 37  1  0  0  0  0
 11 12  1  0  0  0  0
 11 14  1  0  0  0  0
 12 13  1  0  0  0  0
 12 38  1  0  0  0  0
 12 39  1  0  0  0  0
 13 40  1  0  0  0  0
 13 41  1  0  0  0  0
 14 15  1  0  0  0  0
 14 42  1  0  0  0  0
 14 43  1  0  0  0  0
 15 16  1  0  0  0  0
 15 44  1  0  0  0  0
 15 45  1  0  0  0  0
 16 17  1  0  0  0  0
 16 46  1  0  0  0  0
 16 47  1  0  0  0  0
 17 18  2  0  0  0  0
 17 19  1  0  0  0  0
 19 20  2  0  0  0  0
 19 24  1  0  0  0  0
 20 21  1  0  0  0  0
 20 48  1  0  0  0  0
 21 22  2  0  0  0  0
 21 49  1  0  0  0  0
 22 23  1  0  0  0  0
 22 25  1  0  0  0  0
 23 24  2  0  0  0  0
 23 50  1  0  0  0  0
 24 51  1  0  0  0  0
 26 52  1  0  0  0  0
M  END
>  <DRUGBANK_ID>
DB13554

>  <COMMON_NAME>
Moperone

>  <CAS_NUMBER>
1050-79-9

>  <UNII>
OU730881W5

>  <SYNONYMS>
Moperone

$$$$
