
 OpenBabel10282417113D

 56 59  0  0  0  0  0  0  0  0999 V2000
   -1.2552   -1.4052    0.8924 C   0  0  0  0  0  0  0  0  0  0  0  0
   -0.3126   -0.3923    0.7947 C   0  0  0  0  0  0  0  0  0  0  0  0
   -0.6085    0.9927    0.9269 C   0  0  0  0  0  0  0  0  0  0  0  0
   -1.8475    1.5600    1.1128 C   0  0  0  0  0  0  0  0  0  0  0  0
   -2.6851    0.6366    0.6894 C   0  0  0  0  0  0  0  0  0  0  0  0
   -2.4258   -0.7651    0.5973 C   0  0  0  0  0  0  0  0  0  0  0  0
    1.0296   -0.4434    0.3698 C   0  0  0  0  0  0  0  0  0  0  0  0
    1.4721    0.8734    0.2639 C   0  0  0  0  0  0  0  0  0  0  0  0
    0.4399    1.6882    0.4779 N   0  0  0  0  0  0  0  0  0  0  0  0
    3.2040   -1.1897   -0.0859 C   0  0  0  0  0  0  0  0  0  0  0  0
    3.6409    0.1432   -0.0666 C   0  0  0  0  0  0  0  0  0  0  0  0
    2.7722    1.2147   -0.0014 C   0  0  0  0  0  0  0  0  0  0  0  0
    1.8601   -1.5016    0.0432 C   0  0  0  0  0  0  0  0  0  0  0  0
   -1.0718   -2.7625    0.7407 O   0  0  0  0  0  0  0  0  0  0  0  0
   -2.1564   -3.7314    0.6815 C   0  0  0  0  0  0  0  0  0  0  0  0
   -3.2612   -3.7828    1.7540 C   0  0  3  0  0  0  0  0  0  0  0  0
   -4.2848   -2.5826    1.7543 C   0  0  0  0  0  0  0  0  0  0  0  0
   -5.1056   -2.5874    0.4855 N   0  0  0  0  0  0  0  0  0  0  0  0
   -5.8520   -1.3914    0.0158 C   0  0  0  0  0  0  0  0  0  0  0  0
   -4.9958   -0.2525   -0.5110 C   0  0  0  0  0  0  0  0  0  0  0  0
   -4.0171   -0.2851   -1.6950 O   0  0  0  0  0  0  0  0  0  0  0  0
   -3.1049   -1.2672   -2.1347 C   0  0  0  0  0  0  0  0  0  0  0  0
   -3.5678   -2.5832   -2.2760 C   0  0  0  0  0  0  0  0  0  0  0  0
   -1.6910   -1.0948   -2.3762 C   0  0  0  0  0  0  0  0  0  0  0  0
   -0.8339   -2.2449   -2.5049 C   0  0  0  0  0  0  0  0  0  0  0  0
   -1.3216   -3.5387   -2.4068 C   0  0  0  0  0  0  0  0  0  0  0  0
   -2.6975   -3.7012   -2.3701 C   0  0  0  0  0  0  0  0  0  0  0  0
   -0.8795    0.0122   -2.4290 O   0  0  0  0  0  0  0  0  0  0  0  0
   -1.3509    1.3122   -2.2032 C   0  0  0  0  0  0  0  0  0  0  0  0
   -4.0585   -4.9581    1.4840 O   0  0  0  0  0  0  0  0  0  0  0  0
   -2.0862    2.5954    0.8284 H   0  0  0  0  0  0  0  0  0  0  0  0
   -3.4681    1.1377    0.1058 H   0  0  0  0  0  0  0  0  0  0  0  0
   -3.0869   -1.4130    0.0988 H   0  0  0  0  0  0  0  0  0  0  0  0
    0.3799    2.6865    0.2320 H   0  0  0  0  0  0  0  0  0  0  0  0
    3.9127   -2.0014   -0.1482 H   0  0  0  0  0  0  0  0  0  0  0  0
    4.6992    0.3603   -0.0796 H   0  0  0  0  0  0  0  0  0  0  0  0
    3.0615    2.2567   -0.0076 H   0  0  0  0  0  0  0  0  0  0  0  0
    1.4866   -2.5234    0.0179 H   0  0  0  0  0  0  0  0  0  0  0  0
   -2.7235   -3.6527   -0.2206 H   0  0  0  0  0  0  0  0  0  0  0  0
   -1.7001   -4.7320    0.5446 H   0  0  0  0  0  0  0  0  0  0  0  0
   -2.7599   -3.9005    2.7157 H   0  0  0  0  0  0  0  0  0  0  0  0
   -4.9511   -2.6378    2.6117 H   0  0  0  0  0  0  0  0  0  0  0  0
   -3.7084   -1.6965    1.9884 H   0  0  0  0  0  0  0  0  0  0  0  0
   -4.4323   -2.7215   -0.2535 H   0  0  0  0  0  0  0  0  0  0  0  0
   -6.5054   -1.6113   -0.8254 H   0  0  0  0  0  0  0  0  0  0  0  0
   -6.4677   -1.0130    0.8497 H   0  0  0  0  0  0  0  0  0  0  0  0
   -5.5291    0.7087   -0.6027 H   0  0  0  0  0  0  0  0  0  0  0  0
   -4.5901   -0.0770    0.4864 H   0  0  0  0  0  0  0  0  0  0  0  0
   -4.6204   -2.8003   -2.1459 H   0  0  0  0  0  0  0  0  0  0  0  0
    0.2522   -2.1260   -2.5810 H   0  0  0  0  0  0  0  0  0  0  0  0
   -0.6491   -4.3864   -2.2564 H   0  0  0  0  0  0  0  0  0  0  0  0
   -3.0944   -4.6982   -2.1625 H   0  0  0  0  0  0  0  0  0  0  0  0
   -2.2154    1.5724   -2.7990 H   0  0  0  0  0  0  0  0  0  0  0  0
   -1.6443    1.4409   -1.1919 H   0  0  0  0  0  0  0  0  0  0  0  0
   -0.5246    2.0312   -2.3059 H   0  0  0  0  0  0  0  0  0  0  0  0
   -4.6858   -4.6831    0.7803 H   0  0  0  0  0  0  0  0  0  0  0  0
  1  2  1  0  0  0  0
  1  6  2  0  0  0  0
  1 14  1  0  0  0  0
  2  3  2  0  0  0  0
  3  4  1  0  0  0  0
  4  5  2  0  0  0  0
  4 31  1  0  0  0  0
  5  6  1  0  0  0  0
  5 32  1  0  0  0  0
  6 33  1  0  0  0  0
  7  2  1  0  0  0  0
  7 13  2  0  0  0  0
  8  9  1  0  0  0  0
  8  7  1  0  0  0  0
  9  3  1  0  0  0  0
  9 34  1  0  0  0  0
 10 11  2  0  0  0  0
 10 13  1  0  0  0  0
 10 35  1  0  0  0  0
 11 12  1  0  0  0  0
 11 36  1  0  0  0  0
 12  8  2  0  0  0  0
 12 37  1  0  0  0  0
 13 38  1  0  0  0  0
 14 15  1  0  0  0  0
 15 16  1  0  0  0  0
 15 39  1  0  0  0  0
 15 40  1  0  0  0  0
 16 17  1  0  0  0  0
 16 30  1  0  0  0  0
 16 41  1  0  0  0  0
 17 18  1  0  0  0  0
 17 42  1  0  0  0  0
 17 43  1  0  0  0  0
 18 19  1  0  0  0  0
 18 44  1  0  0  0  0
 19 20  1  0  0  0  0
 19 45  1  0  0  0  0
 19 46  1  0  0  0  0
 20 21  1  0  0  0  0
 20 47  1  0  0  0  0
 20 48  1  0  0  0  0
 21 22  1  0  0  0  0
 22 24  1  0  0  0  0
 23 22  2  0  0  0  0
 23 27  1  0  0  0  0
 23 49  1  0  0  0  0
 24 25  2  0  0  0  0
 24 28  1  0  0  0  0
 25 26  1  0  0  0  0
 25 50  1  0  0  0  0
 26 27  2  0  0  0  0
 26 51  1  0  0  0  0
 27 52  1  0  0  0  0
 28 29  1  0  0  0  0
 29 53  1  0  0  0  0
 29 54  1  0  0  0  0
 29 55  1  0  0  0  0
 30 56  1  0  0  0  0
M  END
>  <DRUGBANK_ID>
DB01136

>  <SECONDARY_ACCESSION_NUMBERS>
APRD00091

>  <COMMON_NAME>
Carvedilol

>  <CAS_NUMBER>
72956-09-3

>  <UNII>
0K47UL67F2

>  <SYNONYMS>
(+-)-1-(Carbazol-4-yloxy)-3-((2-(o-methoxyphenoxy)ethyl)amino)-2-propanol; Carv√©dilol; Carvedilol; Carvedilolum

$$$$
