
 OpenBabel10282417133D

 29 30  0  0  1  0  0  0  0  0999 V2000
    0.6698   -2.2921    1.1709 C   0  0  0  0  0  0  0  0  0  0  0  0
    1.2251   -3.0924    5.4538 C   0  0  0  0  0  0  0  0  0  0  0  0
   -0.7948   -0.6851    2.4642 C   0  0  0  0  0  0  0  0  0  0  0  0
    0.3960   -1.4909   -0.1187 C   0  0  2  0  0  0  0  0  0  0  0  0
   -0.5357   -1.4058    4.4261 C   0  0  0  0  0  0  0  0  0  0  0  0
    1.0864   -0.1103   -0.0881 C   0  0  2  0  0  0  0  0  0  0  0  0
   -0.5480   -1.6424    5.8012 C   0  0  0  0  0  0  0  0  0  0  0  0
    0.3792   -2.1088    3.6599 C   0  0  0  0  0  0  0  0  0  0  0  0
    1.5082    0.2474   -1.5035 C   0  0  0  0  0  0  0  0  0  0  0  0
   -1.4609   -1.0114    6.6139 N   0  0  0  0  0  0  0  0  0  0  0  0
    0.3625   -2.4958    6.3133 N   0  0  0  0  0  0  0  0  0  0  0  0
    1.2974   -2.9832    4.1043 N   0  0  0  0  0  0  0  0  0  0  0  0
   -1.2915   -0.5535    3.6667 N   0  0  0  0  0  0  0  0  0  0  0  0
    0.1104   -1.7114    2.3763 N   0  0  0  0  0  0  0  0  0  0  0  0
   -0.9948   -1.4120   -0.4611 O   0  0  0  0  0  0  0  0  0  0  0  0
    2.2641   -0.1787    0.7303 O   0  0  0  0  0  0  0  0  0  0  0  0
    0.8709    0.8562   -2.3368 O   0  0  0  0  0  0  0  0  0  0  0  0
    2.7294   -0.2760   -1.7880 O   0  0  0  0  0  0  0  0  0  0  0  0
    0.8290   -2.0671   -0.9438 H   0  0  0  0  0  0  0  0  0  0  0  0
    0.4658    0.7038    0.3004 H   0  0  0  0  0  0  0  0  0  0  0  0
    1.7502   -2.4093    1.3326 H   0  0  0  0  0  0  0  0  0  0  0  0
    0.2603   -3.3040    1.0759 H   0  0  0  0  0  0  0  0  0  0  0  0
    1.9554   -3.7519    5.9152 H   0  0  0  0  0  0  0  0  0  0  0  0
   -1.0897   -0.0501    1.6421 H   0  0  0  0  0  0  0  0  0  0  0  0
   -2.1123   -0.3697    6.1780 H   0  0  0  0  0  0  0  0  0  0  0  0
   -1.4464   -1.1788    7.6035 H   0  0  0  0  0  0  0  0  0  0  0  0
   -1.5715   -1.4472    0.3218 H   0  0  0  0  0  0  0  0  0  0  0  0
    2.8550   -0.8225    0.2884 H   0  0  0  0  0  0  0  0  0  0  0  0
    2.9082    0.0088   -2.7084 H   0  0  0  0  0  0  0  0  0  0  0  0
  1 21  1  0  0  0  0
  1 22  1  0  0  0  0
  2 23  1  0  0  0  0
  3 24  1  0  0  0  0
  4 15  1  0  0  0  0
  4 19  1  6  0  0  0
  4  6  1  0  0  0  0
  4  1  1  0  0  0  0
  6 20  1  1  0  0  0
  6 16  1  0  0  0  0
  6  9  1  0  0  0  0
  7  5  2  0  0  0  0
  8  5  1  0  0  0  0
 10  7  1  0  0  0  0
 10 25  1  0  0  0  0
 10 26  1  0  0  0  0
 11  2  2  0  0  0  0
 11  7  1  0  0  0  0
 12  2  1  0  0  0  0
 12  8  2  0  0  0  0
 13  3  2  0  0  0  0
 13  5  1  0  0  0  0
 14  1  1  0  0  0  0
 14  3  1  0  0  0  0
 14  8  1  0  0  0  0
 15 27  1  0  0  0  0
 16 28  1  0  0  0  0
 17  9  2  0  0  0  0
 18  9  1  0  0  0  0
 18 29  1  0  0  0  0
M  END
>  <DRUGBANK_ID>
DB03769

>  <SECONDARY_ACCESSION_NUMBERS>
EXPT01152

>  <COMMON_NAME>
D-Eritadenine

>  <CAS_NUMBER>
23918-98-1

>  <UNII>
41T27K4B9F

>  <SYNONYMS>
Eritadenine; Lentinacin; Lentysine

$$$$
