422
 OpenBabel10282417163D

 53 57  0  0  0  0  0  0  0  0999 V2000
    2.1377   -0.6615   -0.1382 C   0  0  0  0  0  0  0  0  0  0  0  0
    0.9197   -1.3561   -0.1867 C   0  0  0  0  0  0  0  0  0  0  0  0
   -0.2991   -0.6929   -0.0539 C   0  0  0  0  0  0  0  0  0  0  0  0
   -0.2966    0.6955   -0.0124 C   0  0  0  0  0  0  0  0  0  0  0  0
    0.8976    1.4387   -0.0168 C   0  0  0  0  0  0  0  0  0  0  0  0
    2.1136    0.7340   -0.0681 C   0  0  0  0  0  0  0  0  0  0  0  0
   -1.6366   -1.1507    0.0264 C   0  0  0  0  0  0  0  0  0  0  0  0
   -2.4403   -0.0387   -0.0247 C   0  0  0  0  0  0  0  0  0  0  0  0
   -1.6254    1.0709   -0.0179 N   0  0  0  0  0  0  0  0  0  0  0  0
   -3.9221   -0.0564   -0.1538 C   0  0  0  0  0  0  0  0  0  0  0  0
   -4.6660    0.5273   -1.2142 C   0  0  0  0  0  0  0  0  0  0  0  0
   -5.9956    0.2350   -0.9262 C   0  0  0  0  0  0  0  0  0  0  0  0
   -5.9528   -0.4803    0.2433 N   0  0  0  0  0  0  0  0  0  0  0  0
   -4.7085   -0.7273    0.6946 N   0  0  0  0  0  0  0  0  0  0  0  0
   -4.3637    1.2144   -2.4033 C   0  0  0  0  0  0  0  0  0  0  0  0
   -5.4104    1.6216   -3.2422 C   0  0  0  0  0  0  0  0  0  0  0  0
   -6.7441    1.3496   -2.9149 C   0  0  0  0  0  0  0  0  0  0  0  0
   -7.0623    0.6401   -1.7440 C   0  0  0  0  0  0  0  0  0  0  0  0
   -7.7928    1.8011   -3.7822 C   0  0  0  0  0  0  0  0  0  0  0  0
    3.4387   -1.4394   -0.0731 C   0  0  0  0  0  0  0  0  0  0  0  0
    3.6189   -2.2378    1.1601 N   0  0  0  0  0  0  0  0  0  0  0  0
    2.6114   -3.2974    1.3039 C   0  0  0  0  0  0  0  0  0  0  0  0
    3.5837   -1.3505    2.3269 C   0  0  0  0  0  0  0  0  0  0  0  0
    3.8412   -2.1308    3.5987 C   0  0  0  0  0  0  0  0  0  0  0  0
    2.8095   -4.1587    2.5308 C   0  0  0  0  0  0  0  0  0  0  0  0
    2.8326   -3.2737    3.7825 C   0  0  0  0  0  0  0  0  0  0  0  0
    3.1863   -4.1317    4.9909 C   0  0  0  0  0  0  0  0  0  0  0  0
    3.2107   -3.3346    6.2101 N   0  0  0  0  0  0  0  0  0  0  0  0
   -8.6449    2.1765   -4.4834 N   0  0  0  0  0  0  0  0  0  0  0  0
    0.8858   -2.4344   -0.2744 H   0  0  0  0  0  0  0  0  0  0  0  0
    0.8999    2.5230    0.0143 H   0  0  0  0  0  0  0  0  0  0  0  0
    3.0524    1.2872   -0.0551 H   0  0  0  0  0  0  0  0  0  0  0  0
   -1.9606   -2.1834    0.0071 H   0  0  0  0  0  0  0  0  0  0  0  0
   -1.9484    2.0260    0.0032 H   0  0  0  0  0  0  0  0  0  0  0  0
   -6.7364   -0.8489    0.7716 H   0  0  0  0  0  0  0  0  0  0  0  0
   -3.3304    1.4037   -2.6787 H   0  0  0  0  0  0  0  0  0  0  0  0
   -5.1666    2.1550   -4.1598 H   0  0  0  0  0  0  0  0  0  0  0  0
   -8.0936    0.4114   -1.4877 H   0  0  0  0  0  0  0  0  0  0  0  0
    3.5192   -2.0830   -0.9574 H   0  0  0  0  0  0  0  0  0  0  0  0
    4.2880   -0.7452   -0.1508 H   0  0  0  0  0  0  0  0  0  0  0  0
    2.5816   -3.9286    0.4080 H   0  0  0  0  0  0  0  0  0  0  0  0
    1.6209   -2.8737    1.4747 H   0  0  0  0  0  0  0  0  0  0  0  0
    2.6122   -0.8496    2.4235 H   0  0  0  0  0  0  0  0  0  0  0  0
    4.3489   -0.5713    2.2334 H   0  0  0  0  0  0  0  0  0  0  0  0
    3.7770   -1.4233    4.4314 H   0  0  0  0  0  0  0  0  0  0  0  0
    4.8592   -2.5370    3.5818 H   0  0  0  0  0  0  0  0  0  0  0  0
    3.7296   -4.7412    2.4307 H   0  0  0  0  0  0  0  0  0  0  0  0
    1.9707   -4.8658    2.5956 H   0  0  0  0  0  0  0  0  0  0  0  0
    1.8305   -2.8374    3.9241 H   0  0  0  0  0  0  0  0  0  0  0  0
    2.4551   -4.9395    5.0996 H   0  0  0  0  0  0  0  0  0  0  0  0
    4.1684   -4.5914    4.8322 H   0  0  0  0  0  0  0  0  0  0  0  0
    3.5205   -3.9172    6.9836 H   0  0  0  0  0  0  0  0  0  0  0  0
    3.9132   -2.6012    6.1204 H   0  0  0  0  0  0  0  0  0  0  0  0
  1  6  1  0  0  0  0
  1 20  1  0  0  0  0
  1  2  2  0  0  0  0
  2  3  1  0  0  0  0
  2 30  1  0  0  0  0
  3  4  2  0  0  0  0
  3  7  1  0  0  0  0
  4  5  1  0  0  0  0
  4  9  1  0  0  0  0
  5  6  2  0  0  0  0
  5 31  1  0  0  0  0
  6 32  1  0  0  0  0
  7  8  2  0  0  0  0
  7 33  1  0  0  0  0
  8  9  1  0  0  0  0
  8 10  1  0  0  0  0
  9 34  1  0  0  0  0
 10 14  2  0  0  0  0
 10 11  1  0  0  0  0
 11 12  2  0  0  0  0
 11 15  1  0  0  0  0
 12 13  1  0  0  0  0
 12 18  1  0  0  0  0
 13 14  1  0  0  0  0
 13 35  1  0  0  0  0
 15 16  2  0  0  0  0
 15 36  1  0  0  0  0
 16 17  1  0  0  0  0
 16 37  1  0  0  0  0
 17 18  2  0  0  0  0
 17 19  1  0  0  0  0
 18 38  1  0  0  0  0
 19 29  3  0  0  0  0
 20 21  1  0  0  0  0
 20 39  1  0  0  0  0
 20 40  1  0  0  0  0
 21 22  1  0  0  0  0
 21 23  1  0  0  0  0
 22 25  1  0  0  0  0
 22 41  1  0  0  0  0
 22 42  1  0  0  0  0
 23 24  1  0  0  0  0
 23 43  1  0  0  0  0
 23 44  1  0  0  0  0
 24 26  1  0  0  0  0
 24 45  1  0  0  0  0
 24 46  1  0  0  0  0
 25 26  1  0  0  0  0
 25 47  1  0  0  0  0
 25 48  1  0  0  0  0
 26 27  1  0  0  0  0
 26 49  1  0  0  0  0
 27 28  1  0  0  0  0
 27 50  1  0  0  0  0
 27 51  1  0  0  0  0
 28 52  1  0  0  0  0
 28 53  1  0  0  0  0
M  END
>  <DRUGBANK_ID>
DB07075

>  <COMMON_NAME>
3-(5-{[4-(AMINOMETHYL)PIPERIDIN-1-YL]METHYL}-1H-INDOL-2-YL)-1H-INDAZOLE-6-CARBONITRILE

$$$$
