
 OpenBabel10282417233D

 82 85  0  0  0  0  0  0  0  0999 V2000
    0.8962   -0.0149    0.0347 C   0  0  0  0  0  0  0  0  0  0  0  0
    0.4507   -1.1386    0.7745 O   0  0  0  0  0  0  0  0  0  0  0  0
    0.9525   -2.3969    0.5301 C   0  0  0  0  0  0  0  0  0  0  0  0
    2.2588   -2.7232    0.1300 C   0  0  0  0  0  0  0  0  0  0  0  0
    3.2260   -1.8007   -0.3315 N   0  0  0  0  0  0  0  0  0  0  0  0
    4.5627   -2.1521   -0.6354 C   0  0  0  0  0  0  0  0  0  0  0  0
    5.4592   -1.8199    0.3146 N   0  0  0  0  0  0  0  0  0  0  0  0
    6.7512   -2.0281    0.0092 C   0  0  0  0  0  0  0  0  0  0  0  0
    7.1720   -2.5141   -1.2154 C   0  0  0  0  0  0  0  0  0  0  0  0
    8.5819   -2.6874   -1.4379 C   0  0  0  0  0  0  0  0  0  0  0  0
    8.8572   -2.6097   -2.6150 O   0  0  0  0  0  0  0  0  0  0  0  0
    9.4574   -2.9747   -0.4461 O   0  0  0  0  0  0  0  0  0  0  0  0
   10.7940   -3.3699   -0.9162 C   0  0  0  0  0  0  0  0  0  0  0  0
   10.8929   -4.8753   -1.0554 C   0  0  0  0  0  0  0  0  0  0  0  0
   11.2802   -2.6749   -2.2105 C   0  0  0  0  0  0  0  0  0  0  0  0
    6.1994   -3.0827   -2.1112 C   0  0  0  0  0  0  0  0  0  0  0  0
    4.8729   -2.8564   -1.7955 N   0  0  0  0  0  0  0  0  0  0  0  0
    6.5278   -4.6114   -3.0022 C   0  0  0  0  0  0  0  0  0  0  0  0
    7.1408   -6.1456   -2.3864 C   0  0  0  0  0  0  0  0  0  0  0  0
    7.6199   -5.1403   -1.5853 N   0  0  0  0  0  0  0  0  0  0  0  0
    6.1857   -5.2018   -0.7852 C   0  0  0  0  0  0  0  0  0  0  0  0
    8.3343   -5.0488   -3.1159 C   0  0  0  0  0  0  0  0  0  0  0  0
    7.4602   -4.4169   -3.9652 C   0  0  0  0  0  0  0  0  0  0  0  0
    7.9483   -3.6557   -5.0357 C   0  0  0  0  0  0  0  0  0  0  0  0
    9.2640   -3.9583   -5.4313 C   0  0  0  0  0  0  0  0  0  0  0  0
   10.0268   -4.9148   -4.7483 C   0  0  0  0  0  0  0  0  0  0  0  0
    9.4947   -5.6426   -3.6923 C   0  0  0  0  0  0  0  0  0  0  0  0
    2.6135   -4.0566    0.1442 C   0  0  0  0  0  0  0  0  0  0  0  0
    1.7727   -5.0186    0.6860 C   0  0  0  0  0  0  0  0  0  0  0  0
    2.0937   -6.2250    0.1910 N   0  0  0  0  0  0  0  0  0  0  0  0
    1.0999   -6.9544   -0.1354 C   0  0  0  0  0  0  0  0  0  0  0  0
    1.5840   -8.1384   -0.2240 O   0  0  0  0  0  0  0  0  0  0  0  0
   -0.8562   -6.3638   -0.4774 C   0  0  0  0  0  0  0  0  0  0  0  0
   -1.6801   -5.4067   -0.7871 C   0  0  0  0  0  0  0  0  0  0  0  0
    0.4519   -4.8105    1.1917 C   0  0  0  0  0  0  0  0  0  0  0  0
    0.0433   -3.4361    0.9410 C   0  0  0  0  0  0  0  0  0  0  0  0
   -0.4993   -6.0251    1.5955 N   0  0  0  0  0  0  0  0  0  0  0  0
   -1.9752   -5.5140    1.7871 C   0  0  0  0  0  0  0  0  0  0  0  0
   -0.3896   -7.8268    0.9242 C   0  0  0  0  0  0  0  0  0  0  0  0
   -0.2451   -8.1388   -1.1891 C   0  0  0  0  0  0  0  0  0  0  0  0
    0.6454   -6.8275   -2.2032 N   0  0  0  0  0  0  0  0  0  0  0  0
    1.5221   -7.1306   -3.2554 C   0  0  0  0  0  0  0  0  0  0  0  0
    0.6245   -5.3031   -2.0936 C   0  0  0  0  0  0  0  0  0  0  0  0
    0.4737    0.8832    0.4999 H   0  0  0  0  0  0  0  0  0  0  0  0
    0.5543   -0.0955   -0.9974 H   0  0  0  0  0  0  0  0  0  0  0  0
    1.9651    0.1666    0.0720 H   0  0  0  0  0  0  0  0  0  0  0  0
    3.2596   -1.0451    0.3472 H   0  0  0  0  0  0  0  0  0  0  0  0
    7.4565   -1.9437    0.8359 H   0  0  0  0  0  0  0  0  0  0  0  0
   11.4862   -3.0984   -0.1210 H   0  0  0  0  0  0  0  0  0  0  0  0
   10.1792   -5.1379   -1.7837 H   0  0  0  0  0  0  0  0  0  0  0  0
   11.8536   -5.2310   -1.4389 H   0  0  0  0  0  0  0  0  0  0  0  0
   10.5599   -5.4493   -0.1912 H   0  0  0  0  0  0  0  0  0  0  0  0
   11.1888   -1.5908   -2.1042 H   0  0  0  0  0  0  0  0  0  0  0  0
   12.2864   -2.9770   -2.4886 H   0  0  0  0  0  0  0  0  0  0  0  0
   10.7276   -2.9285   -3.1188 H   0  0  0  0  0  0  0  0  0  0  0  0
    8.1050   -6.7018   -1.9291 H   0  0  0  0  0  0  0  0  0  0  0  0
    6.0556   -4.2633   -0.3095 H   0  0  0  0  0  0  0  0  0  0  0  0
    5.3175   -5.4316   -1.4871 H   0  0  0  0  0  0  0  0  0  0  0  0
    6.2734   -5.8913    0.0306 H   0  0  0  0  0  0  0  0  0  0  0  0
    7.4307   -2.7928   -5.4558 H   0  0  0  0  0  0  0  0  0  0  0  0
    9.7275   -3.4249   -6.2546 H   0  0  0  0  0  0  0  0  0  0  0  0
   11.0970   -4.9930   -4.9201 H   0  0  0  0  0  0  0  0  0  0  0  0
   10.0494   -6.4236   -3.1840 H   0  0  0  0  0  0  0  0  0  0  0  0
    3.5063   -4.3974   -0.3796 H   0  0  0  0  0  0  0  0  0  0  0  0
    2.7924   -6.4612   -0.5254 H   0  0  0  0  0  0  0  0  0  0  0  0
   -1.6788   -7.2457   -0.3242 H   0  0  0  0  0  0  0  0  0  0  0  0
   -2.7610   -5.5349   -0.7904 H   0  0  0  0  0  0  0  0  0  0  0  0
   -1.2263   -4.4695   -0.6385 H   0  0  0  0  0  0  0  0  0  0  0  0
   -0.9984   -3.1052    0.8099 H   0  0  0  0  0  0  0  0  0  0  0  0
   -2.7451   -5.9259    1.1131 H   0  0  0  0  0  0  0  0  0  0  0  0
   -2.3699   -5.9356    2.6950 H   0  0  0  0  0  0  0  0  0  0  0  0
   -2.1657   -4.4311    1.6105 H   0  0  0  0  0  0  0  0  0  0  0  0
    0.5308   -8.0270    1.5384 H   0  0  0  0  0  0  0  0  0  0  0  0
   -1.2494   -8.2783    1.3789 H   0  0  0  0  0  0  0  0  0  0  0  0
   -0.0400   -9.1525   -1.4917 H   0  0  0  0  0  0  0  0  0  0  0  0
   -1.1111   -7.8656   -1.8522 H   0  0  0  0  0  0  0  0  0  0  0  0
    0.8464   -6.9249   -4.0771 H   0  0  0  0  0  0  0  0  0  0  0  0
    2.3789   -6.4216   -3.2694 H   0  0  0  0  0  0  0  0  0  0  0  0
    1.8838   -8.1303   -3.1095 H   0  0  0  0  0  0  0  0  0  0  0  0
   -0.2434   -4.7984   -2.5094 H   0  0  0  0  0  0  0  0  0  0  0  0
    0.5421   -5.0490   -1.0743 H   0  0  0  0  0  0  0  0  0  0  0  0
    1.5403   -4.6937   -2.1925 H   0  0  0  0  0  0  0  0  0  0  0  0
  1  2  1  0  0  0  0
  1 44  1  0  0  0  0
  1 45  1  0  0  0  0
  1 46  1  0  0  0  0
  2  3  1  0  0  0  0
  3  4  2  0  0  0  0
  3 36  1  0  0  0  0
  4  5  1  0  0  0  0
  4 28  1  0  0  0  0
  5  6  1  0  0  0  0
  5 47  1  0  0  0  0
  6  7  2  0  0  0  0
  6 17  1  0  0  0  0
  7  8  1  0  0  0  0
  8  9  2  0  0  0  0
  8 48  1  0  0  0  0
  9 10  1  0  0  0  0
  9 16  1  0  0  0  0
 10 11  2  0  0  0  0
 10 12  1  0  0  0  0
 12 13  1  0  0  0  0
 13 14  1  0  0  0  0
 13 15  1  0  0  0  0
 13 49  1  0  0  0  0
 14 50  1  0  0  0  0
 14 51  1  0  0  0  0
 14 52  1  0  0  0  0
 15 53  1  0  0  0  0
 15 54  1  0  0  0  0
 15 55  1  0  0  0  0
 16 17  2  0  0  0  0
 16 18  1  0  0  0  0
 18 19  2  0  0  0  0
 18 23  1  0  0  0  0
 19 20  1  0  0  0  0
 19 56  1  0  0  0  0
 20 21  1  0  0  0  0
 20 22  1  0  0  0  0
 21 57  1  0  0  0  0
 21 58  1  0  0  0  0
 21 59  1  0  0  0  0
 22 23  2  0  0  0  0
 22 27  1  0  0  0  0
 23 24  1  0  0  0  0
 24 25  2  0  0  0  0
 24 60  1  0  0  0  0
 25 26  1  0  0  0  0
 25 61  1  0  0  0  0
 26 27  2  0  0  0  0
 26 62  1  0  0  0  0
 27 63  1  0  0  0  0
 28 29  2  0  0  0  0
 28 64  1  0  0  0  0
 29 30  1  0  0  0  0
 29 35  1  0  0  0  0
 30 31  1  0  0  0  0
 30 65  1  0  0  0  0
 31 32  2  0  0  0  0
 31 33  1  0  0  0  0
 33 34  2  0  0  0  0
 33 66  1  0  0  0  0
 34 67  1  0  0  0  0
 34 68  1  0  0  0  0
 35 36  2  0  0  0  0
 35 37  1  0  0  0  0
 36 69  1  0  0  0  0
 37 38  1  0  0  0  0
 37 39  1  0  0  0  0
 38 70  1  0  0  0  0
 38 71  1  0  0  0  0
 38 72  1  0  0  0  0
 39 40  1  0  0  0  0
 39 73  1  0  0  0  0
 39 74  1  0  0  0  0
 40 41  1  0  0  0  0
 40 75  1  0  0  0  0
 40 76  1  0  0  0  0
 41 42  1  0  0  0  0
 41 43  1  0  0  0  0
 42 77  1  0  0  0  0
 42 78  1  0  0  0  0
 42 79  1  0  0  0  0
 43 80  1  0  0  0  0
 43 81  1  0  0  0  0
 43 82  1  0  0  0  0
M  END
>  <DRUGBANK_ID>
DB16390

>  <COMMON_NAME>
Mobocertinib

>  <CAS_NUMBER>
1847461-43-1

>  <UNII>
39HBQ4A67L

>  <SYNONYMS>
Mobocertinib

$$$$
