MAJ
 OpenBabel10282417173D

 24 25  0  0  0  0  0  0  0  0999 V2000
   -0.9682   -1.4322   -0.0107 C   0  0  0  0  0  0  0  0  0  0  0  0
   -2.1739   -0.7212   -0.0988 C   0  0  0  0  0  0  0  0  0  0  0  0
   -2.1770    0.6875   -0.0800 C   0  0  0  0  0  0  0  0  0  0  0  0
   -0.9697    1.3973   -0.0023 C   0  0  0  0  0  0  0  0  0  0  0  0
    0.2214   -0.7129    0.0470 C   0  0  0  0  0  0  0  0  0  0  0  0
    0.2209    0.6872    0.0462 C   0  0  0  0  0  0  0  0  0  0  0  0
    1.6208    1.2243    0.1274 C   0  0  0  0  0  0  0  0  0  0  0  0
    2.4384   -0.0077   -0.2907 C   0  0  0  0  0  0  0  0  0  0  0  0
    1.6240   -1.2376    0.1428 C   0  0  0  0  0  0  0  0  0  0  0  0
   -3.7248   -1.5951   -0.1374 S   0  0  0  0  0  0  0  0  0  0  0  0
   -4.5784   -1.0623    0.8950 O   0  0  0  0  0  0  0  0  0  0  0  0
   -3.4658   -3.0144   -0.2611 O   0  0  0  0  0  0  0  0  0  0  0  0
   -4.4320   -1.1310   -1.5988 N   0  0  0  0  0  0  0  0  0  0  0  0
   -0.9595   -2.5181    0.0146 H   0  0  0  0  0  0  0  0  0  0  0  0
   -3.1144    1.2379   -0.1100 H   0  0  0  0  0  0  0  0  0  0  0  0
   -0.9683    2.4833    0.0157 H   0  0  0  0  0  0  0  0  0  0  0  0
    1.8665    1.5291    1.1504 H   0  0  0  0  0  0  0  0  0  0  0  0
    1.7886    2.0609   -0.5575 H   0  0  0  0  0  0  0  0  0  0  0  0
    2.5497   -0.0122   -1.3843 H   0  0  0  0  0  0  0  0  0  0  0  0
    3.4499   -0.0044    0.1299 H   0  0  0  0  0  0  0  0  0  0  0  0
    1.7992   -2.0856   -0.5247 H   0  0  0  0  0  0  0  0  0  0  0  0
    1.8635   -1.5175    1.1741 H   0  0  0  0  0  0  0  0  0  0  0  0
   -5.2539   -1.7223   -1.7561 H   0  0  0  0  0  0  0  0  0  0  0  0
   -4.6977   -0.1478   -1.5980 H   0  0  0  0  0  0  0  0  0  0  0  0
  1  2  1  0  0  0  0
  1 14  1  0  0  0  0
  2 10  1  0  0  0  0
  3  2  2  0  0  0  0
  3 15  1  0  0  0  0
  4  3  1  0  0  0  0
  4 16  1  0  0  0  0
  5  1  2  0  0  0  0
  6  4  2  0  0  0  0
  6  5  1  0  0  0  0
  7  8  1  0  0  0  0
  7  6  1  0  0  0  0
  7 17  1  0  0  0  0
  7 18  1  0  0  0  0
  8  9  1  0  0  0  0
  8 19  1  0  0  0  0
  8 20  1  0  0  0  0
  9  5  1  0  0  0  0
  9 21  1  0  0  0  0
  9 22  1  0  0  0  0
 10 11  2  0  0  0  0
 10 13  1  0  0  0  0
 12 10  2  0  0  0  0
 13 23  1  0  0  0  0
 13 24  1  0  0  0  0
M  END
>  <DRUGBANK_ID>
DB08165

>  <COMMON_NAME>
indane-5-sulfonamide

>  <UNII>
XJL3C99615

$$$$
