2148
 OpenBabel10282417103D

 24 24  0  0  0  0  0  0  0  0999 V2000
    1.0513    0.0220    0.1845 O   0  0  0  0  0  0  0  0  0  0  0  0
    5.7133   -1.0901    3.1800 O   0  0  0  0  0  0  0  0  0  0  0  0
    4.6084    0.8545    2.9041 O   0  0  0  0  0  0  0  0  0  0  0  0
    3.0157   -0.7823    0.9397 N   0  0  0  0  0  0  0  0  0  0  0  0
    4.6913    3.2267   -3.9071 N   0  0  0  0  0  0  0  0  0  0  0  0
    2.9400    0.8367   -0.9411 C   0  0  0  0  0  0  0  0  0  0  0  0
    2.2766    0.0083    0.0936 C   0  0  0  0  0  0  0  0  0  0  0  0
    2.5051    2.1504   -1.1287 C   0  0  0  0  0  0  0  0  0  0  0  0
    3.9396    0.3168   -1.7691 C   0  0  0  0  0  0  0  0  0  0  0  0
    4.1083    2.4382   -2.9350 C   0  0  0  0  0  0  0  0  0  0  0  0
    3.0867    2.9417   -2.1251 C   0  0  0  0  0  0  0  0  0  0  0  0
    4.5389    1.1254   -2.7378 C   0  0  0  0  0  0  0  0  0  0  0  0
    4.4588   -0.8002    1.1331 C   0  0  0  0  0  0  0  0  0  0  0  0
    4.9115   -0.2547    2.4799 C   0  0  0  0  0  0  0  0  0  0  0  0
    5.8868   -1.9613    2.7762 H   0  0  0  0  0  0  0  0  0  0  0  0
    2.4349   -1.2352    1.6388 H   0  0  0  0  0  0  0  0  0  0  0  0
    5.4144    2.8585   -4.5090 H   0  0  0  0  0  0  0  0  0  0  0  0
    4.3593    4.1668   -4.0727 H   0  0  0  0  0  0  0  0  0  0  0  0
    1.7129    2.5604   -0.5057 H   0  0  0  0  0  0  0  0  0  0  0  0
    4.2633   -0.7147   -1.6703 H   0  0  0  0  0  0  0  0  0  0  0  0
    2.7263    3.9570   -2.2681 H   0  0  0  0  0  0  0  0  0  0  0  0
    5.3365    0.7139   -3.3503 H   0  0  0  0  0  0  0  0  0  0  0  0
    4.7801   -1.8357    0.9921 H   0  0  0  0  0  0  0  0  0  0  0  0
    4.9720   -0.1845    0.3974 H   0  0  0  0  0  0  0  0  0  0  0  0
  1  7  2  0  0  0  0
  2 14  1  0  0  0  0
  2 15  1  0  0  0  0
  3 14  2  0  0  0  0
  4  7  1  0  0  0  0
  4 13  1  0  0  0  0
  4 16  1  0  0  0  0
  5 10  1  0  0  0  0
  5 17  1  0  0  0  0
  5 18  1  0  0  0  0
  6  7  1  0  0  0  0
  6  8  2  0  0  0  0
  6  9  1  0  0  0  0
  8 11  1  0  0  0  0
  8 19  1  0  0  0  0
  9 12  2  0  0  0  0
  9 20  1  0  0  0  0
 10 11  2  0  0  0  0
 10 12  1  0  0  0  0
 11 21  1  0  0  0  0
 12 22  1  0  0  0  0
 13 14  1  0  0  0  0
 13 23  1  0  0  0  0
 13 24  1  0  0  0  0
M  END
>  <DRUGBANK_ID>
DB00345

>  <SECONDARY_ACCESSION_NUMBERS>
APRD00792

>  <COMMON_NAME>
Aminohippuric acid

>  <CAS_NUMBER>
61-78-9

>  <UNII>
Y79XT83BJ9

>  <SYNONYMS>
4-aminohippuric acid; Aminohippurate; Aminohippuric acid; N-(p-Aminobenzoyl)aminoacetic acid; N-(p-Aminobenzoyl)glycine; N-(para-aminobenzoyl)glycine; p-aminohippurate; p-aminohippuric acid; PAH; PAHA; para-aminohippurate; para-aminohippuric acid ; paraaminohippuric acid

$$$$
