
 OpenBabel10282417173D

 48 50  0  0  0  0  0  0  0  0999 V2000
   -0.3755    0.0557   -0.0125 C   0  0  0  0  0  0  0  0  0  0  0  0
    0.3998    1.2239   -0.0086 C   0  0  0  0  0  0  0  0  0  0  0  0
    1.8124    1.1740    0.0029 C   0  0  0  0  0  0  0  0  0  0  0  0
    2.4778   -0.0564    0.0139 C   0  0  0  0  0  0  0  0  0  0  0  0
    1.6670   -1.2021   -0.0074 C   0  0  0  0  0  0  0  0  0  0  0  0
    0.2538   -1.1798   -0.0220 C   0  0  0  0  0  0  0  0  0  0  0  0
   -2.0897    0.2375   -0.0034 Cl  0  0  0  0  0  0  0  0  0  0  0  0
    3.9165   -0.1309    0.0317 N   0  0  0  0  0  0  0  0  0  0  0  0
    4.6285   -1.3279    0.0885 C   0  0  0  0  0  0  0  0  0  0  0  0
    6.0155   -1.2313    0.0428 N   0  0  0  0  0  0  0  0  0  0  0  0
    4.0940   -2.4297    0.2165 O   0  0  0  0  0  0  0  0  0  0  0  0
    6.7869   -2.4487    0.0821 C   0  0  0  0  0  0  0  0  0  0  0  0
    6.4691   -3.5549   -0.7295 C   0  0  0  0  0  0  0  0  0  0  0  0
    7.1750   -4.7655   -0.6589 C   0  0  0  0  0  0  0  0  0  0  0  0
    8.2417   -4.9056    0.2313 C   0  0  0  0  0  0  0  0  0  0  0  0
    8.5881   -3.8002    1.0179 C   0  0  0  0  0  0  0  0  0  0  0  0
    7.8747   -2.5831    0.9470 C   0  0  0  0  0  0  0  0  0  0  0  0
    8.9050   -6.1242    0.2266 O   0  0  0  0  0  0  0  0  0  0  0  0
    9.9269   -6.3520    1.1278 C   0  0  0  0  0  0  0  0  0  0  0  0
    9.7222   -6.3212    2.5030 C   0  0  0  0  0  0  0  0  0  0  0  0
   10.8185   -6.5205    3.3331 C   0  0  0  0  0  0  0  0  0  0  0  0
   12.0759   -6.7868    2.8969 N   0  0  0  0  0  0  0  0  0  0  0  0
   12.2329   -6.8760    1.5470 C   0  0  0  0  0  0  0  0  0  0  0  0
   11.1895   -6.6795    0.6383 C   0  0  0  0  0  0  0  0  0  0  0  0
   13.6113   -7.1750    1.0152 C   0  0  0  0  0  0  0  0  0  0  0  0
   14.6381   -7.3482    1.9271 N   0  0  0  0  0  0  0  0  0  0  0  0
   13.7890   -7.2493   -0.2022 O   0  0  0  0  0  0  0  0  0  0  0  0
   15.9933   -7.6375    1.5029 C   0  0  0  0  0  0  0  0  0  0  0  0
    5.5125   -3.4476   -1.6661 F   0  0  0  0  0  0  0  0  0  0  0  0
   -0.4382   -2.5181   -0.0608 C   0  0  0  0  0  0  0  0  0  0  0  0
   -0.0771   -3.2429   -1.1597 F   0  0  0  0  0  0  0  0  0  0  0  0
   -0.1077   -3.2951    1.0117 F   0  0  0  0  0  0  0  0  0  0  0  0
   -1.7959   -2.4937   -0.0801 F   0  0  0  0  0  0  0  0  0  0  0  0
   -0.1076    2.1884   -0.0170 H   0  0  0  0  0  0  0  0  0  0  0  0
    2.3498    2.1188    0.0026 H   0  0  0  0  0  0  0  0  0  0  0  0
    2.0978   -2.1971   -0.0237 H   0  0  0  0  0  0  0  0  0  0  0  0
    4.4241    0.7436    0.0250 H   0  0  0  0  0  0  0  0  0  0  0  0
    6.4545   -0.3853    0.3747 H   0  0  0  0  0  0  0  0  0  0  0  0
    6.8794   -5.5715   -1.3254 H   0  0  0  0  0  0  0  0  0  0  0  0
    9.4202   -3.8575    1.7122 H   0  0  0  0  0  0  0  0  0  0  0  0
    8.1660   -1.7863    1.6246 H   0  0  0  0  0  0  0  0  0  0  0  0
    8.7430   -6.1090    2.9196 H   0  0  0  0  0  0  0  0  0  0  0  0
   10.7029   -6.4532    4.4128 H   0  0  0  0  0  0  0  0  0  0  0  0
   11.3684   -6.7641   -0.4287 H   0  0  0  0  0  0  0  0  0  0  0  0
   14.4193   -7.2715    2.9163 H   0  0  0  0  0  0  0  0  0  0  0  0
   16.6592   -6.8510    1.8690 H   0  0  0  0  0  0  0  0  0  0  0  0
   16.3047   -8.5953    1.9288 H   0  0  0  0  0  0  0  0  0  0  0  0
   16.0732   -7.6911    0.4131 H   0  0  0  0  0  0  0  0  0  0  0  0
  1  2  2  0  0  0  0
  1  6  1  0  0  0  0
  1  7  1  0  0  0  0
  2  3  1  0  0  0  0
  2 34  1  0  0  0  0
  3  4  2  0  0  0  0
  3 35  1  0  0  0  0
  4  5  1  0  0  0  0
  4  8  1  0  0  0  0
  5  6  2  0  0  0  0
  5 36  1  0  0  0  0
  6 30  1  0  0  0  0
  8  9  1  0  0  0  0
  8 37  1  0  0  0  0
  9 10  1  0  0  0  0
  9 11  2  0  0  0  0
 10 12  1  0  0  0  0
 10 38  1  0  0  0  0
 12 13  2  0  0  0  0
 12 17  1  0  0  0  0
 13 14  1  0  0  0  0
 13 29  1  0  0  0  0
 14 15  2  0  0  0  0
 14 39  1  0  0  0  0
 15 16  1  0  0  0  0
 15 18  1  0  0  0  0
 16 17  2  0  0  0  0
 16 40  1  0  0  0  0
 17 41  1  0  0  0  0
 18 19  1  0  0  0  0
 19 20  2  0  0  0  0
 19 24  1  0  0  0  0
 20 21  1  0  0  0  0
 20 42  1  0  0  0  0
 21 22  2  0  0  0  0
 21 43  1  0  0  0  0
 22 23  1  0  0  0  0
 23 24  2  0  0  0  0
 23 25  1  0  0  0  0
 24 44  1  0  0  0  0
 25 26  1  0  0  0  0
 25 27  2  0  0  0  0
 26 28  1  0  0  0  0
 26 45  1  0  0  0  0
 28 46  1  0  0  0  0
 28 47  1  0  0  0  0
 28 48  1  0  0  0  0
 30 31  1  0  0  0  0
 30 32  1  0  0  0  0
 30 33  1  0  0  0  0
M  END
>  <DRUGBANK_ID>
DB08896

>  <COMMON_NAME>
Regorafenib

>  <CAS_NUMBER>
755037-03-7

>  <UNII>
24T2A1DOYB

>  <SYNONYMS>
Regorafenib; Régorafénib; Regorafenibum

$$$$
