
 OpenBabel10282417143D

 27 27  0  0  0  0  0  0  0  0999 V2000
    0.9384    0.3005    0.0862 N   0  0  0  0  0  0  0  0  0  0  0  0
    0.4539    0.9729   -1.1316 C   0  0  1  0  0  0  0  0  0  0  0  0
    0.8991    0.4528   -2.5222 C   0  0  0  0  0  0  0  0  0  0  0  0
    0.4870   -1.2758   -3.0478 S   0  0  0  0  0  0  0  0  0  0  0  0
   -1.0800    0.9607   -1.0908 C   0  0  0  0  0  0  0  0  0  0  0  0
   -1.6527    2.1654   -0.8902 O   0  0  0  0  0  0  0  0  0  0  0  0
   -1.7549   -0.0627   -1.1854 O   0  0  0  0  0  0  0  0  0  0  0  0
    1.1316   -2.3729   -1.7286 C   0  0  0  0  0  0  0  0  0  0  0  0
    2.6356   -2.3866   -1.6011 C   0  0  0  0  0  0  0  0  0  0  0  0
    3.3878   -1.2134   -1.4714 C   0  0  0  0  0  0  0  0  0  0  0  0
    4.7658   -1.1912   -1.3556 C   0  0  0  0  0  0  0  0  0  0  0  0
    5.4393   -2.3896   -1.2862 C   0  0  0  0  0  0  0  0  0  0  0  0
    4.7220   -3.5864   -1.3339 C   0  0  0  0  0  0  0  0  0  0  0  0
    3.3350   -3.5909   -1.5293 C   0  0  0  0  0  0  0  0  0  0  0  0
    0.5259   -0.6306    0.1137 H   0  0  0  0  0  0  0  0  0  0  0  0
    1.9447    0.1639    0.1011 H   0  0  0  0  0  0  0  0  0  0  0  0
    0.8096    2.0078   -1.0440 H   0  0  0  0  0  0  0  0  0  0  0  0
    0.4310    1.0976   -3.2773 H   0  0  0  0  0  0  0  0  0  0  0  0
    1.9587    0.6468   -2.7145 H   0  0  0  0  0  0  0  0  0  0  0  0
   -1.0259    2.8848   -0.6918 H   0  0  0  0  0  0  0  0  0  0  0  0
    0.6581   -2.2216   -0.7559 H   0  0  0  0  0  0  0  0  0  0  0  0
    0.7814   -3.3783   -2.0021 H   0  0  0  0  0  0  0  0  0  0  0  0
    2.9392   -0.2449   -1.4546 H   0  0  0  0  0  0  0  0  0  0  0  0
    5.2757   -0.2334   -1.3045 H   0  0  0  0  0  0  0  0  0  0  0  0
    6.5182   -2.3838   -1.1856 H   0  0  0  0  0  0  0  0  0  0  0  0
    5.2509   -4.5257   -1.2127 H   0  0  0  0  0  0  0  0  0  0  0  0
    2.8120   -4.5411   -1.6194 H   0  0  0  0  0  0  0  0  0  0  0  0
  1 15  1  0  0  0  0
  1 16  1  0  0  0  0
  2  1  1  0  0  0  0
  2  3  1  0  0  0  0
  2  5  1  0  0  0  0
  2 17  1  1  0  0  0
  3  4  1  0  0  0  0
  3 18  1  0  0  0  0
  3 19  1  0  0  0  0
  4  8  1  0  0  0  0
  5  6  1  0  0  0  0
  5  7  2  0  0  0  0
  6 20  1  0  0  0  0
  8  9  1  0  0  0  0
  8 21  1  0  0  0  0
  8 22  1  0  0  0  0
  9 10  2  0  0  0  0
  9 14  1  0  0  0  0
 10 11  1  0  0  0  0
 10 23  1  0  0  0  0
 11 12  2  0  0  0  0
 11 24  1  0  0  0  0
 12 13  1  0  0  0  0
 12 25  1  0  0  0  0
 13 14  2  0  0  0  0
 13 26  1  0  0  0  0
 14 27  1  0  0  0  0
M  END
>  <DRUGBANK_ID>
DB04531

>  <SECONDARY_ACCESSION_NUMBERS>
EXPT00643

>  <COMMON_NAME>
S-Benzylcysteine

>  <CAS_NUMBER>
3054-01-1

>  <UNII>
9VRE13M548

>  <SYNONYMS>
(R)-S-Benzylcysteine; 3-Benzylthioalanine; L-S-Benzylcysteine

$$$$
