
 OpenBabel10282417183D

 66 65  0  0  0  0  0  0  0  0999 V2000
    1.0995   -0.0988   -0.6478 C   0  0  3  0  0  0  0  0  0  0  0  0
    0.5696   -1.5074   -0.1369 C   0  0  0  0  0  0  0  0  0  0  0  0
    0.7864    0.9883    0.2615 C   0  0  0  0  0  0  0  0  0  0  0  0
    0.7231    0.5193   -2.3230 S   0  0  0  0  0  0  0  0  0  0  0  0
    0.2192   -1.8134    1.1906 O   0  0  0  0  0  0  0  0  0  0  0  0
    0.6517   -2.4781   -0.8935 O   0  0  0  0  0  0  0  0  0  0  0  0
    1.0538    2.6104    0.1752 C   0  0  0  0  0  0  0  0  0  0  0  0
    1.2293    2.0530   -2.1380 O   0  0  0  0  0  0  0  0  0  0  0  0
    1.5784   -0.0751   -3.2784 O   0  0  0  0  0  0  0  0  0  0  0  0
   -0.7038    0.7308   -2.6358 O   0  0  0  0  0  0  0  0  0  0  0  0
   -0.1298   -1.2824    2.5793 C   0  0  0  0  0  0  0  0  0  0  0  0
   -0.0079    3.4789    0.2740 O   0  0  0  0  0  0  0  0  0  0  0  0
    2.1724    3.1097    0.0634 O   0  0  0  0  0  0  0  0  0  0  0  0
    0.9720   -0.6385    3.4476 C   0  0  3  0  0  0  0  0  0  0  0  0
   -1.4041    3.3089    0.7239 C   0  0  0  0  0  0  0  0  0  0  0  0
    1.9884    0.2494    2.7552 C   0  0  0  0  0  0  0  0  0  0  0  0
    0.3246    0.3453    4.4147 C   0  0  0  0  0  0  0  0  0  0  0  0
   -2.1328    2.5146   -0.3518 C   0  0  3  0  0  0  0  0  0  0  0  0
    1.4544    1.6931    2.4662 C   0  0  0  0  0  0  0  0  0  0  0  0
   -0.6729   -0.1536    5.3777 C   0  0  0  0  0  0  0  0  0  0  0  0
   -1.8075    1.0887   -0.2513 C   0  0  0  0  0  0  0  0  0  0  0  0
   -3.5791    2.3209   -0.2662 C   0  0  0  0  0  0  0  0  0  0  0  0
    0.8047    2.9091    3.0887 C   0  0  0  0  0  0  0  0  0  0  0  0
   -2.0455    0.4118    1.0859 C   0  0  0  0  0  0  0  0  0  0  0  0
   -4.2458    3.6124   -0.3079 C   0  0  0  0  0  0  0  0  0  0  0  0
    1.9833    3.5416    3.6354 C   0  0  0  0  0  0  0  0  0  0  0  0
   -3.3042   -0.3301    1.3597 C   0  0  0  0  0  0  0  0  0  0  0  0
   -3.5231   -1.1839    0.1302 C   0  0  0  0  0  0  0  0  0  0  0  0
    2.1892   -0.2012   -0.5762 H   0  0  0  0  0  0  0  0  0  0  0  0
   -0.1392    0.9494    0.7525 H   0  0  0  0  0  0  0  0  0  0  0  0
    0.9565    0.3528    1.0778 H   0  0  0  0  0  0  0  0  0  0  0  0
    0.5223    2.7082   -1.9105 H   0  0  0  0  0  0  0  0  0  0  0  0
   -0.8800   -0.5243    2.5573 H   0  0  0  0  0  0  0  0  0  0  0  0
   -0.7620   -2.0299    3.1085 H   0  0  0  0  0  0  0  0  0  0  0  0
    1.5151   -1.4569    3.9083 H   0  0  0  0  0  0  0  0  0  0  0  0
   -1.4763    2.8829    1.7289 H   0  0  0  0  0  0  0  0  0  0  0  0
   -1.8112    4.3190    0.8504 H   0  0  0  0  0  0  0  0  0  0  0  0
    2.9650    0.3913    3.1999 H   0  0  0  0  0  0  0  0  0  0  0  0
    2.2999   -0.3219    1.8504 H   0  0  0  0  0  0  0  0  0  0  0  0
    1.0921    0.9763    4.8834 H   0  0  0  0  0  0  0  0  0  0  0  0
   -0.3379    0.9775    3.8288 H   0  0  0  0  0  0  0  0  0  0  0  0
   -1.7721    2.9160   -1.3115 H   0  0  0  0  0  0  0  0  0  0  0  0
    2.2503    1.9481    1.7643 H   0  0  0  0  0  0  0  0  0  0  0  0
    0.4528    1.5793    2.1141 H   0  0  0  0  0  0  0  0  0  0  0  0
   -0.2439   -1.0016    5.8907 H   0  0  0  0  0  0  0  0  0  0  0  0
   -0.9211    0.6790    6.0420 H   0  0  0  0  0  0  0  0  0  0  0  0
   -1.5845   -0.4181    4.8321 H   0  0  0  0  0  0  0  0  0  0  0  0
   -1.8582    0.3115   -0.9942 H   0  0  0  0  0  0  0  0  0  0  0  0
   -0.8523    1.3668   -0.5816 H   0  0  0  0  0  0  0  0  0  0  0  0
   -3.8753    1.6028   -1.0471 H   0  0  0  0  0  0  0  0  0  0  0  0
   -3.8235    1.9266    0.7081 H   0  0  0  0  0  0  0  0  0  0  0  0
    0.3748    3.6691    2.4174 H   0  0  0  0  0  0  0  0  0  0  0  0
   -0.1224    2.7118    3.6407 H   0  0  0  0  0  0  0  0  0  0  0  0
   -1.4018   -0.4346    0.9368 H   0  0  0  0  0  0  0  0  0  0  0  0
   -1.7731    1.0015    1.9679 H   0  0  0  0  0  0  0  0  0  0  0  0
   -3.9162    4.1287   -1.2055 H   0  0  0  0  0  0  0  0  0  0  0  0
   -5.2987    3.3678   -0.2745 H   0  0  0  0  0  0  0  0  0  0  0  0
   -3.9513    4.1499    0.5965 H   0  0  0  0  0  0  0  0  0  0  0  0
    2.4824    3.9799    2.7595 H   0  0  0  0  0  0  0  0  0  0  0  0
    1.6265    4.2633    4.3429 H   0  0  0  0  0  0  0  0  0  0  0  0
    2.6010    2.7471    4.0542 H   0  0  0  0  0  0  0  0  0  0  0  0
   -3.1662   -0.9511    2.2553 H   0  0  0  0  0  0  0  0  0  0  0  0
   -4.0882    0.3720    1.6240 H   0  0  0  0  0  0  0  0  0  0  0  0
   -2.8311   -2.0355    0.1535 H   0  0  0  0  0  0  0  0  0  0  0  0
   -4.5566   -1.4748    0.0584 H   0  0  0  0  0  0  0  0  0  0  0  0
   -3.3062   -0.6805   -0.8139 H   0  0  0  0  0  0  0  0  0  0  0  0
  1  2  1  0  0  0  0
  1  3  1  0  0  0  0
  1  4  1  0  0  0  0
  1 29  1  0  0  0  0
  2  5  1  0  0  0  0
  2  6  2  0  0  0  0
  3  7  1  0  0  0  0
  3 30  1  0  0  0  0
  3 31  1  0  0  0  0
  4  8  1  0  0  0  0
  4  9  2  0  0  0  0
  4 10  2  0  0  0  0
  5 11  1  0  0  0  0
  7 12  1  0  0  0  0
  7 13  2  0  0  0  0
  8 32  1  0  0  0  0
 11 14  1  0  0  0  0
 11 33  1  0  0  0  0
 11 34  1  0  0  0  0
 12 15  1  0  0  0  0
 14 16  1  0  0  0  0
 14 17  1  0  0  0  0
 14 35  1  0  0  0  0
 15 18  1  0  0  0  0
 15 36  1  0  0  0  0
 15 37  1  0  0  0  0
 16 19  1  0  0  0  0
 16 38  1  0  0  0  0
 16 39  1  0  0  0  0
 17 20  1  0  0  0  0
 17 40  1  0  0  0  0
 17 41  1  0  0  0  0
 18 21  1  0  0  0  0
 18 22  1  0  0  0  0
 18 42  1  0  0  0  0
 19 23  1  0  0  0  0
 19 43  1  0  0  0  0
 19 44  1  0  0  0  0
 20 45  1  0  0  0  0
 20 46  1  0  0  0  0
 20 47  1  0  0  0  0
 21 24  1  0  0  0  0
 21 48  1  0  0  0  0
 21 49  1  0  0  0  0
 22 25  1  0  0  0  0
 22 50  1  0  0  0  0
 22 51  1  0  0  0  0
 23 26  1  0  0  0  0
 23 52  1  0  0  0  0
 23 53  1  0  0  0  0
 24 27  1  0  0  0  0
 24 54  1  0  0  0  0
 24 55  1  0  0  0  0
 25 56  1  0  0  0  0
 25 57  1  0  0  0  0
 25 58  1  0  0  0  0
 26 59  1  0  0  0  0
 26 60  1  0  0  0  0
 26 61  1  0  0  0  0
 27 28  1  0  0  0  0
 27 62  1  0  0  0  0
 27 63  1  0  0  0  0
 28 64  1  0  0  0  0
 28 65  1  0  0  0  0
 28 66  1  0  0  0  0
M  END
>  <DRUGBANK_ID>
DB11089

>  <COMMON_NAME>
Docusate

>  <CAS_NUMBER>
10041-19-7

>  <UNII>
M7P27195AG

>  <SYNONYMS>
Dioctyl sulfosuccinate; Docusate hydrogen

$$$$
