
 OpenBabel10282417193D

 36 38  0  0  0  0  0  0  0  0999 V2000
    1.1279    0.0994    0.3222 C   0  0  0  0  0  0  0  0  0  0  0  0
    0.6840    1.1441   -0.6210 C   0  0  0  0  0  0  0  0  0  0  0  0
    0.9378    2.5198   -0.5288 C   0  0  0  0  0  0  0  0  0  0  0  0
    0.5690    3.4471   -1.5484 C   0  0  0  0  0  0  0  0  0  0  0  0
   -0.0875    3.0407   -2.7250 C   0  0  0  0  0  0  0  0  0  0  0  0
   -0.3570    1.6771   -2.6555 C   0  0  0  0  0  0  0  0  0  0  0  0
   -0.0240    0.7228   -1.7095 C   0  0  0  0  0  0  0  0  0  0  0  0
   -0.4818   -0.5728   -2.1007 C   0  0  0  0  0  0  0  0  0  0  0  0
   -1.1187   -0.3792   -3.2549 C   0  0  0  0  0  0  0  0  0  0  0  0
   -0.9881    0.9078   -3.5214 N   0  0  0  0  0  0  0  0  0  0  0  0
   -0.4426   -1.9112   -1.6556 C   0  0  0  0  0  0  0  0  0  0  0  0
   -0.5101   -3.0657   -1.4611 N   0  0  0  0  0  0  0  0  0  0  0  0
   -0.4461    3.9739   -3.7849 N   0  0  0  0  0  0  0  0  0  0  0  0
   -1.1866    3.8737   -5.3357 S   0  0  0  0  0  0  0  0  0  0  0  0
   -2.4018    4.6575   -5.2311 O   0  0  0  0  0  0  0  0  0  0  0  0
   -0.1744    4.2598   -6.2978 O   0  0  0  0  0  0  0  0  0  0  0  0
   -1.7458    2.2146   -5.8708 C   0  0  0  0  0  0  0  0  0  0  0  0
   -0.7814    1.2888   -6.3791 C   0  0  0  0  0  0  0  0  0  0  0  0
   -1.0252   -0.0977   -6.2243 C   0  0  0  0  0  0  0  0  0  0  0  0
   -2.3119   -0.5671   -5.8671 C   0  0  0  0  0  0  0  0  0  0  0  0
   -3.2912    0.3437   -5.4032 C   0  0  0  0  0  0  0  0  0  0  0  0
   -2.9859    1.7280   -5.3471 C   0  0  0  0  0  0  0  0  0  0  0  0
   -4.4749   -0.1712   -4.7573 C   0  0  0  0  0  0  0  0  0  0  0  0
   -5.4357   -0.5984   -4.2651 N   0  0  0  0  0  0  0  0  0  0  0  0
    0.7667   -0.8919    0.0341 H   0  0  0  0  0  0  0  0  0  0  0  0
    0.7026    0.2886    1.2990 H   0  0  0  0  0  0  0  0  0  0  0  0
    2.2095    0.0311    0.2665 H   0  0  0  0  0  0  0  0  0  0  0  0
    1.4461    2.8615    0.3657 H   0  0  0  0  0  0  0  0  0  0  0  0
    0.8268    4.4924   -1.3807 H   0  0  0  0  0  0  0  0  0  0  0  0
   -1.5511   -1.1405   -3.8644 H   0  0  0  0  0  0  0  0  0  0  0  0
   -1.1709    1.3229   -4.3634 H   0  0  0  0  0  0  0  0  0  0  0  0
   -0.1704    4.9499   -3.6125 H   0  0  0  0  0  0  0  0  0  0  0  0
    0.2468    1.6034   -6.5717 H   0  0  0  0  0  0  0  0  0  0  0  0
   -0.1616   -0.7630   -6.0202 H   0  0  0  0  0  0  0  0  0  0  0  0
   -2.4355   -1.6373   -5.6321 H   0  0  0  0  0  0  0  0  0  0  0  0
   -3.5525    2.3570   -4.6472 H   0  0  0  0  0  0  0  0  0  0  0  0
  1  2  1  0  0  0  0
  1 25  1  0  0  0  0
  1 26  1  0  0  0  0
  1 27  1  0  0  0  0
  2  3  1  0  0  0  0
  2  7  2  0  0  0  0
  3  4  2  0  0  0  0
  3 28  1  0  0  0  0
  4  5  1  0  0  0  0
  4 29  1  0  0  0  0
  5  6  2  0  0  0  0
  5 13  1  0  0  0  0
  6  7  1  0  0  0  0
  6 10  1  0  0  0  0
  7  8  1  0  0  0  0
  8  9  2  0  0  0  0
  8 11  1  0  0  0  0
  9 10  1  0  0  0  0
  9 30  1  0  0  0  0
 10 31  1  0  0  0  0
 11 12  3  0  0  0  0
 13 14  1  0  0  0  0
 13 32  1  0  0  0  0
 14 15  2  0  0  0  0
 14 16  2  0  0  0  0
 14 17  1  0  0  0  0
 17 18  2  0  0  0  0
 17 22  1  0  0  0  0
 18 19  1  0  0  0  0
 18 33  1  0  0  0  0
 19 20  2  0  0  0  0
 19 34  1  0  0  0  0
 20 21  1  0  0  0  0
 20 35  1  0  0  0  0
 21 22  2  0  0  0  0
 21 23  1  0  0  0  0
 22 36  1  0  0  0  0
 23 24  3  0  0  0  0
M  END
>  <DRUGBANK_ID>
DB12505

>  <COMMON_NAME>
E-7820

>  <CAS_NUMBER>
289483-69-8

>  <UNII>
TVH5K7949N

$$$$
