AM8
 OpenBabel10282417163D

 53 56  0  0  0  0  0  0  0  0999 V2000
    0.9280   -0.2528   -0.0786 C   0  0  0  0  0  0  0  0  0  0  0  0
    0.3889   -0.1001    1.2979 C   0  0  0  0  0  0  0  0  0  0  0  0
    0.1893    1.1284    1.8999 C   0  0  0  0  0  0  0  0  0  0  0  0
    0.5268    2.3291    1.1853 C   0  0  0  0  0  0  0  0  0  0  0  0
    0.0328   -1.0271    2.2374 C   0  0  0  0  0  0  0  0  0  0  0  0
    0.0379   -2.4792    2.0037 C   0  0  0  0  0  0  0  0  0  0  0  0
   -0.3197   -0.3736    3.4101 N   0  0  0  0  0  0  0  0  0  0  0  0
   -0.1685    0.9922    3.2282 C   0  0  0  0  0  0  0  0  0  0  0  0
   -0.3533    2.0820    4.2788 C   0  0  0  0  0  0  0  0  0  0  0  0
    0.8413    2.9648    4.5349 C   0  0  0  0  0  0  0  0  0  0  0  0
    1.4774    3.9008    3.8112 C   0  0  0  0  0  0  0  0  0  0  0  0
    1.3564    4.5301    2.4959 C   0  0  0  0  0  0  0  0  0  0  0  0
    1.5315    2.9029    5.8665 C   0  0  0  0  0  0  0  0  0  0  0  0
    1.0955    2.3579    6.8492 O   0  0  0  0  0  0  0  0  0  0  0  0
    2.7014    3.6221    5.7848 N   0  0  0  0  0  0  0  0  0  0  0  0
    2.6731    4.1529    4.6207 C   0  0  0  0  0  0  0  0  0  0  0  0
    3.6608    5.0471    4.0358 C   0  0  0  0  0  0  0  0  0  0  0  0
    3.4586    5.4571    2.7817 C   0  0  0  0  0  0  0  0  0  0  0  0
    2.4621    4.9869    1.8706 C   0  0  0  0  0  0  0  0  0  0  0  0
    2.5278    5.2335    0.0888 S   0  0  0  0  0  0  0  0  0  0  0  0
    2.6862    3.9429   -0.5665 O   0  0  0  0  0  0  0  0  0  0  0  0
    1.3570    6.0205   -0.2588 O   0  0  0  0  0  0  0  0  0  0  0  0
    3.8938    6.1446   -0.4413 N   0  0  0  0  0  0  0  0  0  0  0  0
    3.9288    6.5542   -1.8642 C   0  0  0  0  0  0  0  0  0  0  0  0
    5.0425    6.4300    0.3697 C   0  0  0  0  0  0  0  0  0  0  0  0
    5.6914    5.4607    1.1468 C   0  0  0  0  0  0  0  0  0  0  0  0
    6.4667    5.8812    2.2448 C   0  0  0  0  0  0  0  0  0  0  0  0
    6.9226    4.7573    3.4755 Cl  0  0  0  0  0  0  0  0  0  0  0  0
    6.7295    7.2335    2.4551 C   0  0  0  0  0  0  0  0  0  0  0  0
    6.3075    8.1624    1.5104 C   0  0  0  0  0  0  0  0  0  0  0  0
    5.4182    7.7736    0.5080 C   0  0  0  0  0  0  0  0  0  0  0  0
    0.5595    0.5460   -0.7334 H   0  0  0  0  0  0  0  0  0  0  0  0
    0.6225   -1.1882   -0.5354 H   0  0  0  0  0  0  0  0  0  0  0  0
    2.0210   -0.1688   -0.0532 H   0  0  0  0  0  0  0  0  0  0  0  0
   -0.3188    3.0038    1.2979 H   0  0  0  0  0  0  0  0  0  0  0  0
    1.4947    2.5392    1.6330 H   0  0  0  0  0  0  0  0  0  0  0  0
    0.7651    2.2952    0.1294 H   0  0  0  0  0  0  0  0  0  0  0  0
   -0.6089   -2.6823    1.1409 H   0  0  0  0  0  0  0  0  0  0  0  0
    1.0528   -2.7880    1.7256 H   0  0  0  0  0  0  0  0  0  0  0  0
   -0.3060   -3.0517    2.8601 H   0  0  0  0  0  0  0  0  0  0  0  0
   -0.6173   -0.8270    4.2662 H   0  0  0  0  0  0  0  0  0  0  0  0
   -1.1674    2.7383    3.9444 H   0  0  0  0  0  0  0  0  0  0  0  0
   -0.7131    1.6363    5.2165 H   0  0  0  0  0  0  0  0  0  0  0  0
    0.4310    4.4985    1.9526 H   0  0  0  0  0  0  0  0  0  0  0  0
    4.4178    5.4724    4.6725 H   0  0  0  0  0  0  0  0  0  0  0  0
    3.9561    6.3501    2.4699 H   0  0  0  0  0  0  0  0  0  0  0  0
    4.0001    5.6874   -2.5271 H   0  0  0  0  0  0  0  0  0  0  0  0
    3.0514    7.1532   -2.1270 H   0  0  0  0  0  0  0  0  0  0  0  0
    4.8065    7.1790   -2.0722 H   0  0  0  0  0  0  0  0  0  0  0  0
    5.4154    4.4118    1.0588 H   0  0  0  0  0  0  0  0  0  0  0  0
    7.2411    7.5700    3.3547 H   0  0  0  0  0  0  0  0  0  0  0  0
    6.6310    9.1966    1.5835 H   0  0  0  0  0  0  0  0  0  0  0  0
    4.9690    8.5423   -0.1178 H   0  0  0  0  0  0  0  0  0  0  0  0
  1 32  1  0  0  0  0
  1 33  1  0  0  0  0
  1 34  1  0  0  0  0
  2  1  1  0  0  0  0
  3  2  1  0  0  0  0
  4  3  1  0  0  0  0
  4 35  1  0  0  0  0
  4 36  1  0  0  0  0
  4 37  1  0  0  0  0
  5  2  2  0  0  0  0
  5  6  1  0  0  0  0
  6 38  1  0  0  0  0
  6 39  1  0  0  0  0
  6 40  1  0  0  0  0
  7  5  1  0  0  0  0
  7 41  1  0  0  0  0
  8  7  1  0  0  0  0
  8  3  2  0  0  0  0
  9  8  1  0  0  0  0
  9 42  1  0  0  0  0
  9 43  1  0  0  0  0
 10  9  1  0  0  0  0
 11 10  2  0  0  0  0
 12 11  1  0  0  0  0
 12 44  1  0  0  0  0
 13 10  1  0  0  0  0
 13 14  2  0  0  0  0
 15 13  1  0  0  0  0
 16 15  2  0  0  0  0
 16 11  1  0  0  0  0
 17 16  1  0  0  0  0
 17 45  1  0  0  0  0
 18 17  2  0  0  0  0
 18 19  1  0  0  0  0
 18 46  1  0  0  0  0
 19 12  2  0  0  0  0
 20 19  1  0  0  0  0
 20 21  2  0  0  0  0
 22 20  2  0  0  0  0
 23 25  1  0  0  0  0
 23 20  1  0  0  0  0
 24 23  1  0  0  0  0
 24 47  1  0  0  0  0
 24 48  1  0  0  0  0
 24 49  1  0  0  0  0
 25 31  1  0  0  0  0
 26 25  2  0  0  0  0
 26 27  1  0  0  0  0
 26 50  1  0  0  0  0
 27 29  2  0  0  0  0
 28 27  1  0  0  0  0
 29 30  1  0  0  0  0
 29 51  1  0  0  0  0
 30 52  1  0  0  0  0
 31 30  2  0  0  0  0
 31 53  1  0  0  0  0
M  END
>  <DRUGBANK_ID>
DB07369

>  <COMMON_NAME>
N-(3-chlorophenyl)-N-methyl-2-oxo-3-[(3,4,5-trimethyl-1H-pyrrol-2-yl)methyl]-2H-indole-5-sulfonamide

$$$$
