F1H
 OpenBabel10282417163D

 44 45  0  0  0  0  0  0  0  0999 V2000
    1.3879   -0.2676    0.0652 C   0  0  0  0  0  0  0  0  0  0  0  0
    0.5143   -1.3576    0.0419 C   0  0  0  0  0  0  0  0  0  0  0  0
   -0.5027    1.1895    0.3274 C   0  0  0  0  0  0  0  0  0  0  0  0
    0.8774    1.0316    0.1183 C   0  0  0  0  0  0  0  0  0  0  0  0
    1.4848    1.9330   -2.6719 C   0  0  0  0  0  0  0  0  0  0  0  0
    1.0479    2.5626   -3.9955 C   0  0  0  0  0  0  0  0  0  0  0  0
    1.7543    2.2241   -0.2534 C   0  0  0  0  0  0  0  0  0  0  0  0
    0.0537    3.4781   -1.4765 C   0  0  0  0  0  0  0  0  0  0  0  0
   -0.4352    4.1514   -2.7368 C   0  0  0  0  0  0  0  0  0  0  0  0
   -3.1915    2.0789   -8.2059 C   0  0  0  0  0  0  0  0  0  0  0  0
   -2.1657    4.1680   -7.0788 C   0  0  0  0  0  0  0  0  0  0  0  0
   -2.1768    3.2256   -8.2867 C   0  0  0  0  0  0  0  0  0  0  0  0
   -1.8809    3.4205   -5.7939 C   0  0  0  0  0  0  0  0  0  0  0  0
   -0.3541    3.1556   -3.8867 C   0  0  0  0  0  0  0  0  0  0  0  0
   -2.6222    2.5258   -5.3814 O   0  0  0  0  0  0  0  0  0  0  0  0
   -4.9155    2.6651   -8.1291 S   0  0  0  0  0  0  0  0  0  0  0  0
   -0.7464    3.7986   -5.1294 N   0  0  0  0  0  0  0  0  0  0  0  0
    1.3935    2.8828   -1.5486 N   0  0  0  0  0  0  0  0  0  0  0  0
   -0.8665   -1.1569    0.0206 C   0  0  0  0  0  0  0  0  0  0  0  0
   -1.3773    0.1253    0.1451 C   0  0  0  0  0  0  0  0  0  0  0  0
    2.4596   -0.4369   -0.0016 H   0  0  0  0  0  0  0  0  0  0  0  0
    0.9109   -2.3664   -0.0132 H   0  0  0  0  0  0  0  0  0  0  0  0
   -0.9313    2.1741    0.4959 H   0  0  0  0  0  0  0  0  0  0  0  0
    0.8552    1.0518   -2.4992 H   0  0  0  0  0  0  0  0  0  0  0  0
    2.5165    1.5763   -2.7773 H   0  0  0  0  0  0  0  0  0  0  0  0
    1.0603    1.7934   -4.7781 H   0  0  0  0  0  0  0  0  0  0  0  0
    1.7593    3.3393   -4.2967 H   0  0  0  0  0  0  0  0  0  0  0  0
    1.7348    2.9633    0.5571 H   0  0  0  0  0  0  0  0  0  0  0  0
    2.8049    1.9056   -0.3224 H   0  0  0  0  0  0  0  0  0  0  0  0
   -0.0129    4.1684   -0.6284 H   0  0  0  0  0  0  0  0  0  0  0  0
   -0.6936    2.7000   -1.3551 H   0  0  0  0  0  0  0  0  0  0  0  0
    0.1308    5.0637   -2.9387 H   0  0  0  0  0  0  0  0  0  0  0  0
   -1.4844    4.4402   -2.5792 H   0  0  0  0  0  0  0  0  0  0  0  0
   -3.0973    1.4463   -9.0931 H   0  0  0  0  0  0  0  0  0  0  0  0
   -2.9880    1.4224   -7.3561 H   0  0  0  0  0  0  0  0  0  0  0  0
   -3.1274    4.6764   -6.9613 H   0  0  0  0  0  0  0  0  0  0  0  0
   -1.4257    4.9606   -7.2385 H   0  0  0  0  0  0  0  0  0  0  0  0
   -2.3651    3.8092   -9.1975 H   0  0  0  0  0  0  0  0  0  0  0  0
   -1.1741    2.7937   -8.4064 H   0  0  0  0  0  0  0  0  0  0  0  0
   -1.0484    2.3275   -3.6777 H   0  0  0  0  0  0  0  0  0  0  0  0
   -4.8075    3.3751   -6.9930 H   0  0  0  0  0  0  0  0  0  0  0  0
   -0.2276    4.6148   -5.4267 H   0  0  0  0  0  0  0  0  0  0  0  0
   -1.5467   -1.9972   -0.0752 H   0  0  0  0  0  0  0  0  0  0  0  0
   -2.4461    0.3118    0.0707 H   0  0  0  0  0  0  0  0  0  0  0  0
  1  2  2  0  0  0  0
  1  4  1  0  0  0  0
  1 21  1  0  0  0  0
  2 19  1  0  0  0  0
  2 22  1  0  0  0  0
  3  4  2  0  0  0  0
  3 20  1  0  0  0  0
  3 23  1  0  0  0  0
  4  7  1  0  0  0  0
  5  6  1  0  0  0  0
  5 18  1  0  0  0  0
  5 24  1  0  0  0  0
  5 25  1  0  0  0  0
  6 14  1  0  0  0  0
  6 26  1  0  0  0  0
  6 27  1  0  0  0  0
  7 18  1  0  0  0  0
  7 28  1  0  0  0  0
  7 29  1  0  0  0  0
  8  9  1  0  0  0  0
  8 18  1  0  0  0  0
  8 30  1  0  0  0  0
  8 31  1  0  0  0  0
  9 14  1  0  0  0  0
  9 32  1  0  0  0  0
  9 33  1  0  0  0  0
 10 12  1  0  0  0  0
 10 16  1  0  0  0  0
 10 34  1  0  0  0  0
 10 35  1  0  0  0  0
 11 12  1  0  0  0  0
 11 13  1  0  0  0  0
 11 36  1  0  0  0  0
 11 37  1  0  0  0  0
 12 38  1  0  0  0  0
 12 39  1  0  0  0  0
 13 15  2  0  0  0  0
 13 17  1  0  0  0  0
 14 17  1  0  0  0  0
 14 40  1  0  0  0  0
 16 41  1  0  0  0  0
 17 42  1  0  0  0  0
 19 20  2  0  0  0  0
 19 43  1  0  0  0  0
 20 44  1  0  0  0  0
M  END
>  <DRUGBANK_ID>
DB07734

>  <COMMON_NAME>
N-(1-benzylpiperidin-4-yl)-4-sulfanylbutanamide

$$$$
