19A
 OpenBabel10282417163D

 37 39  0  0  0  0  0  0  0  0999 V2000
    1.0863   -0.0933   -0.0474 C   0  0  0  0  0  0  0  0  0  0  0  0
    0.5020   -1.3528   -0.4813 N   0  0  0  0  0  0  0  0  0  0  0  0
    0.8677   -1.7738   -1.8309 C   0  0  0  0  0  0  0  0  0  0  0  0
   -0.2803   -2.1928    0.3184 C   0  0  0  0  0  0  0  0  0  0  0  0
   -0.6018   -3.3214   -0.0745 O   0  0  0  0  0  0  0  0  0  0  0  0
   -0.6933   -1.7503    1.6445 C   0  0  0  0  0  0  0  0  0  0  0  0
   -1.1661   -0.5268    2.1120 C   0  0  0  0  0  0  0  0  0  0  0  0
   -1.4581   -0.6520    3.4950 C   0  0  0  0  0  0  0  0  0  0  0  0
   -1.1933   -1.9560    3.8438 C   0  0  0  0  0  0  0  0  0  0  0  0
   -0.7559   -2.6138    2.7243 N   0  0  0  0  0  0  0  0  0  0  0  0
   -1.9947    0.3912    4.3743 C   0  0  0  0  0  0  0  0  0  0  0  0
   -1.4615    0.6656    5.5730 N   0  0  0  0  0  0  0  0  0  0  0  0
   -2.2725    1.6105    6.0763 N   0  0  0  0  0  0  0  0  0  0  0  0
   -3.3066    1.9458    5.2527 C   0  0  0  0  0  0  0  0  0  0  0  0
   -3.1494    1.1797    4.1176 C   0  0  0  0  0  0  0  0  0  0  0  0
   -4.0413    1.2219    2.9802 C   0  0  0  0  0  0  0  0  0  0  0  0
   -4.2319    2.4211    2.2845 C   0  0  0  0  0  0  0  0  0  0  0  0
   -4.9650    2.4325    1.0976 C   0  0  0  0  0  0  0  0  0  0  0  0
   -5.4999    1.2457    0.5977 C   0  0  0  0  0  0  0  0  0  0  0  0
   -5.3188    0.0503    1.2916 C   0  0  0  0  0  0  0  0  0  0  0  0
   -4.6280    0.0449    2.5028 C   0  0  0  0  0  0  0  0  0  0  0  0
    0.8840    0.1450    0.9921 H   0  0  0  0  0  0  0  0  0  0  0  0
    0.6967    0.7061   -0.6838 H   0  0  0  0  0  0  0  0  0  0  0  0
    2.1737   -0.1505   -0.1491 H   0  0  0  0  0  0  0  0  0  0  0  0
    0.5143   -1.0213   -2.5437 H   0  0  0  0  0  0  0  0  0  0  0  0
    1.9589   -1.8412   -1.9053 H   0  0  0  0  0  0  0  0  0  0  0  0
    0.4414   -2.7418   -2.1067 H   0  0  0  0  0  0  0  0  0  0  0  0
   -1.2886    0.3637    1.5100 H   0  0  0  0  0  0  0  0  0  0  0  0
   -1.3132   -2.4680    4.7892 H   0  0  0  0  0  0  0  0  0  0  0  0
   -0.5050   -3.5943    2.6825 H   0  0  0  0  0  0  0  0  0  0  0  0
   -2.0697    1.9722    7.0023 H   0  0  0  0  0  0  0  0  0  0  0  0
   -4.0547    2.6676    5.5487 H   0  0  0  0  0  0  0  0  0  0  0  0
   -3.7826    3.3436    2.6439 H   0  0  0  0  0  0  0  0  0  0  0  0
   -5.0916    3.3610    0.5477 H   0  0  0  0  0  0  0  0  0  0  0  0
   -6.0555    1.2501   -0.3362 H   0  0  0  0  0  0  0  0  0  0  0  0
   -5.6933   -0.8830    0.8796 H   0  0  0  0  0  0  0  0  0  0  0  0
   -4.5243   -0.8874    3.0543 H   0  0  0  0  0  0  0  0  0  0  0  0
  1  2  1  0  0  0  0
  1 22  1  0  0  0  0
  1 23  1  0  0  0  0
  1 24  1  0  0  0  0
  2  4  1  0  0  0  0
  2  3  1  0  0  0  0
  3 25  1  0  0  0  0
  3 26  1  0  0  0  0
  3 27  1  0  0  0  0
  4  5  2  0  0  0  0
  4  6  1  0  0  0  0
  6 10  1  0  0  0  0
  6  7  2  0  0  0  0
  7  8  1  0  0  0  0
  7 28  1  0  0  0  0
  8  9  2  0  0  0  0
  8 11  1  0  0  0  0
  9 10  1  0  0  0  0
  9 29  1  0  0  0  0
 10 30  1  0  0  0  0
 11 12  2  0  0  0  0
 11 15  1  0  0  0  0
 12 13  1  0  0  0  0
 13 14  1  0  0  0  0
 13 31  1  0  0  0  0
 14 15  2  0  0  0  0
 14 32  1  0  0  0  0
 15 16  1  0  0  0  0
 16 17  1  0  0  0  0
 16 21  2  0  0  0  0
 17 18  2  0  0  0  0
 17 33  1  0  0  0  0
 18 19  1  0  0  0  0
 18 34  1  0  0  0  0
 19 20  2  0  0  0  0
 19 35  1  0  0  0  0
 20 21  1  0  0  0  0
 20 36  1  0  0  0  0
 21 37  1  0  0  0  0
M  END
>  <DRUGBANK_ID>
DB06877

>  <COMMON_NAME>
N,N-DIMETHYL-4-(4-PHENYL-1H-PYRAZOL-3-YL)-1H-PYRROLE-2-CARBOXAMIDE

>  <UNII>
8C9VEZ8JB3

$$$$
