
 OpenBabel10282417233D

 62 64  0  0  1  0  0  0  0  0999 V2000
   -1.1522   -3.8543    1.8209 C   0  0  0  0  0  0  0  0  0  0  0  0
   -1.6562   -3.9727    0.3928 C   0  0  0  0  0  0  0  0  0  0  0  0
   -1.1201   -2.8526   -0.4983 C   0  0  0  0  0  0  0  0  0  0  0  0
    0.4128   -2.8779   -0.6397 C   0  0  2  0  0  0  0  0  0  0  0  0
    0.9193   -1.8221   -1.6222 C   0  0  0  0  0  0  0  0  0  0  0  0
    0.9294   -4.2013   -0.8641 O   0  0  0  0  0  0  0  0  0  0  0  0
    0.5328   -4.8383   -2.0219 C   0  0  0  0  0  0  0  0  0  0  0  0
    0.5809   -4.1305   -3.1817 N   0  0  0  0  0  0  0  0  0  0  0  0
    0.3986   -4.7900   -4.3266 C   0  0  0  0  0  0  0  0  0  0  0  0
    0.4768   -4.1243   -5.5287 N   0  0  0  0  0  0  0  0  0  0  0  0
    0.1601   -6.1219   -4.2811 C   0  0  0  0  0  0  0  0  0  0  0  0
    0.0342   -7.0245   -5.3110 N   0  0  0  0  0  0  0  0  0  0  0  0
    0.0678   -8.2935   -4.7629 C   0  0  0  0  0  0  0  0  0  0  0  0
    0.1614   -9.2689   -5.4680 O   0  0  0  0  0  0  0  0  0  0  0  0
   -0.0308   -8.1340   -3.3491 N   0  0  0  0  0  0  0  0  0  0  0  0
   -0.2747   -9.1628   -2.3490 C   0  0  0  0  0  0  0  0  0  0  0  0
   -1.6645   -9.7877   -2.5056 C   0  0  0  0  0  0  0  0  0  0  0  0
   -1.8125  -10.3523   -3.9067 C   0  0  0  0  0  0  0  0  0  0  0  0
   -0.8528  -11.5544   -4.1593 C   0  0  0  0  0  0  0  0  0  0  0  0
   -1.0541  -12.7526   -3.2084 C   0  0  0  0  0  0  0  0  0  0  0  0
   -2.3671  -13.4223   -3.3009 N   0  0  0  0  0  0  0  0  0  0  0  0
   -3.3165  -12.6739   -4.1120 C   0  0  0  0  0  0  0  0  0  0  0  0
   -4.6954  -13.1998   -4.3383 C   0  0  0  0  0  0  0  0  0  0  0  0
   -4.5984  -14.6178   -4.8132 C   0  0  0  0  0  0  0  0  0  0  0  0
   -3.6477  -15.4056   -3.9089 C   0  0  0  0  0  0  0  0  0  0  0  0
   -2.2515  -14.7788   -3.8119 C   0  0  0  0  0  0  0  0  0  0  0  0
    0.1185   -6.7673   -3.0633 C   0  0  0  0  0  0  0  0  0  0  0  0
    0.2979   -6.1628   -1.8938 N   0  0  0  0  0  0  0  0  0  0  0  0
   -0.0596   -3.8878    1.8689 H   0  0  0  0  0  0  0  0  0  0  0  0
   -1.5295   -4.6827    2.4253 H   0  0  0  0  0  0  0  0  0  0  0  0
   -1.4844   -2.9123    2.2672 H   0  0  0  0  0  0  0  0  0  0  0  0
   -1.3694   -4.9485   -0.0104 H   0  0  0  0  0  0  0  0  0  0  0  0
   -2.7512   -3.9485    0.3831 H   0  0  0  0  0  0  0  0  0  0  0  0
   -1.5778   -2.9506   -1.4897 H   0  0  0  0  0  0  0  0  0  0  0  0
   -1.4417   -1.8791   -0.1028 H   0  0  0  0  0  0  0  0  0  0  0  0
    0.8266   -2.5840    0.3358 H   0  0  0  0  0  0  0  0  0  0  0  0
    0.0883   -1.3935   -2.1922 H   0  0  0  0  0  0  0  0  0  0  0  0
    1.3988   -0.9935   -1.0910 H   0  0  0  0  0  0  0  0  0  0  0  0
    1.6623   -2.2190   -2.3156 H   0  0  0  0  0  0  0  0  0  0  0  0
    0.4242   -4.6244   -6.4022 H   0  0  0  0  0  0  0  0  0  0  0  0
    0.7185   -3.1463   -5.5145 H   0  0  0  0  0  0  0  0  0  0  0  0
    0.0543   -6.8716   -6.3032 H   0  0  0  0  0  0  0  0  0  0  0  0
    0.4927   -9.9330   -2.4674 H   0  0  0  0  0  0  0  0  0  0  0  0
   -0.1770   -8.7688   -1.3328 H   0  0  0  0  0  0  0  0  0  0  0  0
   -1.8363  -10.5699   -1.7530 H   0  0  0  0  0  0  0  0  0  0  0  0
   -2.4568   -9.0503   -2.3345 H   0  0  0  0  0  0  0  0  0  0  0  0
   -2.8612  -10.4758   -4.1325 H   0  0  0  0  0  0  0  0  0  0  0  0
   -1.7242   -9.5897   -4.6654 H   0  0  0  0  0  0  0  0  0  0  0  0
   -0.9181  -11.8934   -5.2010 H   0  0  0  0  0  0  0  0  0  0  0  0
    0.1932  -11.2407   -4.0608 H   0  0  0  0  0  0  0  0  0  0  0  0
   -0.2301  -13.4648   -3.3644 H   0  0  0  0  0  0  0  0  0  0  0  0
   -0.9076  -12.4217   -2.1719 H   0  0  0  0  0  0  0  0  0  0  0  0
   -2.9029  -12.4569   -5.1095 H   0  0  0  0  0  0  0  0  0  0  0  0
   -3.5692  -11.8219   -3.5012 H   0  0  0  0  0  0  0  0  0  0  0  0
   -5.1953  -12.5489   -5.0699 H   0  0  0  0  0  0  0  0  0  0  0  0
   -5.2463  -13.1112   -3.3969 H   0  0  0  0  0  0  0  0  0  0  0  0
   -5.6027  -15.0443   -4.8061 H   0  0  0  0  0  0  0  0  0  0  0  0
   -4.2260  -14.6264   -5.8446 H   0  0  0  0  0  0  0  0  0  0  0  0
   -4.0812  -15.4522   -2.9011 H   0  0  0  0  0  0  0  0  0  0  0  0
   -3.5565  -16.4240   -4.2872 H   0  0  0  0  0  0  0  0  0  0  0  0
   -1.6369  -15.3706   -3.1232 H   0  0  0  0  0  0  0  0  0  0  0  0
   -1.7586  -14.7781   -4.7920 H   0  0  0  0  0  0  0  0  0  0  0  0
  1  2  1  0  0  0  0
  1 29  1  0  0  0  0
  1 30  1  0  0  0  0
  1 31  1  0  0  0  0
  2  3  1  0  0  0  0
  2 32  1  0  0  0  0
  2 33  1  0  0  0  0
  3 34  1  0  0  0  0
  3 35  1  0  0  0  0
  4  6  1  0  0  0  0
  4 36  1  1  0  0  0
  4  5  1  0  0  0  0
  4  3  1  0  0  0  0
  5 37  1  0  0  0  0
  5 38  1  0  0  0  0
  5 39  1  0  0  0  0
  6  7  1  0  0  0  0
  7  8  2  0  0  0  0
  7 28  1  0  0  0  0
  8  9  1  0  0  0  0
  9 10  1  0  0  0  0
  9 11  2  0  0  0  0
 10 40  1  0  0  0  0
 10 41  1  0  0  0  0
 11 12  1  0  0  0  0
 11 27  1  0  0  0  0
 12 13  1  0  0  0  0
 12 42  1  0  0  0  0
 13 14  2  0  0  0  0
 13 15  1  0  0  0  0
 15 16  1  0  0  0  0
 15 27  1  0  0  0  0
 16 17  1  0  0  0  0
 16 43  1  0  0  0  0
 16 44  1  0  0  0  0
 17 18  1  0  0  0  0
 17 45  1  0  0  0  0
 17 46  1  0  0  0  0
 18 19  1  0  0  0  0
 18 47  1  0  0  0  0
 18 48  1  0  0  0  0
 19 20  1  0  0  0  0
 19 49  1  0  0  0  0
 19 50  1  0  0  0  0
 20 21  1  0  0  0  0
 20 51  1  0  0  0  0
 20 52  1  0  0  0  0
 21 22  1  0  0  0  0
 21 26  1  0  0  0  0
 22 23  1  0  0  0  0
 22 53  1  0  0  0  0
 22 54  1  0  0  0  0
 23 24  1  0  0  0  0
 23 55  1  0  0  0  0
 23 56  1  0  0  0  0
 24 25  1  0  0  0  0
 24 57  1  0  0  0  0
 24 58  1  0  0  0  0
 25 26  1  0  0  0  0
 25 59  1  0  0  0  0
 25 60  1  0  0  0  0
 26 61  1  0  0  0  0
 26 62  1  0  0  0  0
 27 28  2  0  0  0  0
M  END
>  <DRUGBANK_ID>
DB16076

>  <COMMON_NAME>
GSK2245035

>  <CAS_NUMBER>
1207629-49-9

>  <UNII>
5L3SX16QBQ

$$$$
