
 OpenBabel10282417213D

 63 65  0  0  0  0  0  0  0  0999 V2000
   -0.4372   -0.0199   -0.0231 C   0  0  0  0  0  0  0  0  0  0  0  0
    0.2721    1.1805   -0.0352 C   0  0  0  0  0  0  0  0  0  0  0  0
    1.6599    1.1416   -0.0517 C   0  0  0  0  0  0  0  0  0  0  0  0
    2.3157   -0.1030   -0.0291 C   0  0  0  0  0  0  0  0  0  0  0  0
    1.6003   -1.2914   -0.0261 C   0  0  0  0  0  0  0  0  0  0  0  0
    0.2211   -1.2506   -0.0270 C   0  0  0  0  0  0  0  0  0  0  0  0
   -2.1535    0.0078    0.0019 Cl  0  0  0  0  0  0  0  0  0  0  0  0
    3.7938   -0.2231   -0.0162 C   0  0  0  0  0  0  0  0  0  0  0  0
    4.4118   -0.6711    1.2333 N   0  0  0  0  0  0  0  0  0  0  0  0
    5.8765   -0.6169    1.0839 C   0  0  0  0  0  0  0  0  0  0  0  0
    3.8614   -0.3352    2.5852 C   0  0  0  0  0  0  0  0  0  0  0  0
    4.2259    1.0071    3.1148 C   0  0  0  0  0  0  0  0  0  0  0  0
    5.8727    1.3379    3.8198 S   0  0  0  0  0  0  0  0  0  0  0  0
    5.9244    2.9284    3.0299 C   0  0  0  0  0  0  0  0  0  0  0  0
    4.4133    3.0723    2.3648 C   0  0  0  0  0  0  0  0  0  0  0  0
    3.4741    2.0899    2.7477 C   0  0  0  0  0  0  0  0  0  0  0  0
    7.3116    3.9600    3.1608 N   0  3  0  0  0  0  0  0  0  0  0  0
    8.4034    3.4724    2.8509 O   0  5  0  0  0  0  0  0  0  0  0  0
    7.2342    5.1589    3.5589 O   0  0  0  0  0  0  0  0  0  0  0  0
    6.5519    0.7857    0.7334 C   0  0  3  0  0  0  0  0  0  0  0  0
    5.6153    1.9903    0.6838 C   0  0  0  0  0  0  0  0  0  0  0  0
    6.2596    3.2846    0.6095 N   0  0  0  0  0  0  0  0  0  0  0  0
    7.2349    2.8545   -0.4295 C   0  0  0  0  0  0  0  0  0  0  0  0
    7.1576    1.1883   -0.5523 C   0  0  0  0  0  0  0  0  0  0  0  0
    5.9797    4.7978    1.1012 C   0  0  0  0  0  0  0  0  0  0  0  0
    6.5465    5.7044    0.5712 O   0  0  0  0  0  0  0  0  0  0  0  0
    5.2217    5.1443    2.5822 N   0  0  0  0  0  0  0  0  0  0  0  0
    4.5184    4.4704    4.1219 C   0  0  0  0  0  0  0  0  0  0  0  0
    5.3233    3.8891    5.3861 C   0  0  0  0  0  0  0  0  0  0  0  0
    5.1880    4.9669    6.3554 C   0  0  0  0  0  0  0  0  0  0  0  0
    3.7006    5.3420    6.3883 C   0  0  0  0  0  0  0  0  0  0  0  0
    2.7929    4.1454    6.7274 C   0  0  0  0  0  0  0  0  0  0  0  0
   -0.2454    2.1365   -0.0318 H   0  0  0  0  0  0  0  0  0  0  0  0
    2.2163    2.0792   -0.0685 H   0  0  0  0  0  0  0  0  0  0  0  0
    2.1455   -2.2325   -0.0110 H   0  0  0  0  0  0  0  0  0  0  0  0
   -0.3233   -2.1864   -0.0240 H   0  0  0  0  0  0  0  0  0  0  0  0
    4.1212   -0.8911   -0.8228 H   0  0  0  0  0  0  0  0  0  0  0  0
    4.1386    0.6972   -0.4463 H   0  0  0  0  0  0  0  0  0  0  0  0
    6.2822   -1.0382    2.0230 H   0  0  0  0  0  0  0  0  0  0  0  0
    6.1809   -1.3580    0.3390 H   0  0  0  0  0  0  0  0  0  0  0  0
    2.7621   -0.3727    2.5670 H   0  0  0  0  0  0  0  0  0  0  0  0
    4.1730   -1.0431    3.3532 H   0  0  0  0  0  0  0  0  0  0  0  0
    3.9644    3.9068    1.7765 H   0  0  0  0  0  0  0  0  0  0  0  0
    2.4416    2.1453    2.4089 H   0  0  0  0  0  0  0  0  0  0  0  0
    7.3258    0.8790    1.5170 H   0  0  0  0  0  0  0  0  0  0  0  0
    4.6543    2.1125    0.2050 H   0  0  0  0  0  0  0  0  0  0  0  0
    5.3718    1.6599    1.6026 H   0  0  0  0  0  0  0  0  0  0  0  0
    8.2313    3.1549   -0.1261 H   0  0  0  0  0  0  0  0  0  0  0  0
    6.9028    3.2379   -1.3918 H   0  0  0  0  0  0  0  0  0  0  0  0
    8.1157    0.6855   -0.6711 H   0  0  0  0  0  0  0  0  0  0  0  0
    6.4495    0.8604   -1.3233 H   0  0  0  0  0  0  0  0  0  0  0  0
    5.5757    6.0574    2.8847 H   0  0  0  0  0  0  0  0  0  0  0  0
    3.4328    4.6622    4.0648 H   0  0  0  0  0  0  0  0  0  0  0  0
    4.1841    3.4392    4.1476 H   0  0  0  0  0  0  0  0  0  0  0  0
    4.8539    2.9532    5.8076 H   0  0  0  0  0  0  0  0  0  0  0  0
    6.3601    3.5461    5.2916 H   0  0  0  0  0  0  0  0  0  0  0  0
    5.5776    4.6161    7.3103 H   0  0  0  0  0  0  0  0  0  0  0  0
    5.8325    5.7365    5.9272 H   0  0  0  0  0  0  0  0  0  0  0  0
    3.5825    6.1852    7.0496 H   0  0  0  0  0  0  0  0  0  0  0  0
    3.3522    5.7698    5.4392 H   0  0  0  0  0  0  0  0  0  0  0  0
    3.0755    3.7523    7.7042 H   0  0  0  0  0  0  0  0  0  0  0  0
    1.7479    4.4563    6.7233 H   0  0  0  0  0  0  0  0  0  0  0  0
    2.8326    3.2944    6.0256 H   0  0  0  0  0  0  0  0  0  0  0  0
  1  2  1  0  0  0  0
  1  6  2  0  0  0  0
  1  7  1  0  0  0  0
  2  3  2  0  0  0  0
  2 33  1  0  0  0  0
  3  4  1  0  0  0  0
  3 34  1  0  0  0  0
  4  5  2  0  0  0  0
  4  8  1  0  0  0  0
  5  6  1  0  0  0  0
  5 35  1  0  0  0  0
  6 36  1  0  0  0  0
  8  9  1  0  0  0  0
  8 37  1  0  0  0  0
  8 38  1  0  0  0  0
  9 10  1  0  0  0  0
  9 11  1  0  0  0  0
 10 20  1  0  0  0  0
 10 39  1  0  0  0  0
 10 40  1  0  0  0  0
 11 12  1  0  0  0  0
 11 41  1  0  0  0  0
 11 42  1  0  0  0  0
 12 13  1  0  0  0  0
 12 16  2  0  0  0  0
 13 14  1  0  0  0  0
 14 15  2  0  0  0  0
 14 17  1  0  0  0  0
 15 16  1  0  0  0  0
 15 43  1  0  0  0  0
 16 44  1  0  0  0  0
 17 18  1  0  0  0  0
 17 19  2  0  0  0  0
 20 21  1  0  0  0  0
 20 24  1  0  0  0  0
 20 45  1  0  0  0  0
 21 22  1  0  0  0  0
 21 46  1  0  0  0  0
 21 47  1  0  0  0  0
 22 23  1  0  0  0  0
 22 25  1  0  0  0  0
 23 24  1  0  0  0  0
 23 48  1  0  0  0  0
 23 49  1  0  0  0  0
 24 50  1  0  0  0  0
 24 51  1  0  0  0  0
 25 26  2  0  0  0  0
 25 27  1  0  0  0  0
 27 28  1  0  0  0  0
 27 52  1  0  0  0  0
 28 29  1  0  0  0  0
 28 53  1  0  0  0  0
 28 54  1  0  0  0  0
 29 30  1  0  0  0  0
 29 55  1  0  0  0  0
 29 56  1  0  0  0  0
 30 31  1  0  0  0  0
 30 57  1  0  0  0  0
 30 58  1  0  0  0  0
 31 32  1  0  0  0  0
 31 59  1  0  0  0  0
 31 60  1  0  0  0  0
 32 61  1  0  0  0  0
 32 62  1  0  0  0  0
 32 63  1  0  0  0  0
M  CHG  2  17   1  18  -1
M  END
>  <DRUGBANK_ID>
DB14014

>  <COMMON_NAME>
SR-9011

>  <CAS_NUMBER>
1379686-29-9

>  <UNII>
VYI79FLZ6W

>  <SYNONYMS>
1-Pyrrolidinecarboxamide, 3-((((4-chlorophenyl)methyl)((5-nitro-2-thienyl)methyl)amino)methyl)-n-pentyl-

$$$$
