
 OpenBabel10282417183D

 63 65  0  0  1  0  0  0  0  0999 V2000
    0.9126   -0.0648    0.0883 C   0  0  0  0  0  0  0  0  0  0  0  0
    0.4115    1.2590    0.6664 C   0  0  1  0  0  0  0  0  0  0  0  0
    0.9108    2.4562   -0.1848 C   0  0  0  0  0  0  0  0  0  0  0  0
    0.4713    2.3924   -1.5722 N   0  0  0  0  0  0  0  0  0  0  0  0
   -0.3290    3.3913   -2.0613 C   0  0  0  0  0  0  0  0  0  0  0  0
   -1.3682    3.0487   -2.8347 N   0  0  0  0  0  0  0  0  0  0  0  0
   -2.1199    4.0560   -3.3296 C   0  0  0  0  0  0  0  0  0  0  0  0
   -1.8395    5.3805   -3.1273 C   0  0  0  0  0  0  0  0  0  0  0  0
   -0.7398    5.6195   -2.3451 C   0  0  0  0  0  0  0  0  0  0  0  0
    0.0155    4.6525   -1.7967 N   0  0  0  0  0  0  0  0  0  0  0  0
   -0.2589    6.9621   -2.1514 C   0  0  0  0  0  0  0  0  0  0  0  0
   -0.9594    7.9905   -1.5678 C   0  0  0  0  0  0  0  0  0  0  0  0
   -0.1220    9.0690   -1.5866 N   0  0  0  0  0  0  0  0  0  0  0  0
    1.0719    8.8091   -2.1566 N   0  0  0  0  0  0  0  0  0  0  0  0
    0.9794    7.5255   -2.5340 C   0  0  0  0  0  0  0  0  0  0  0  0
    2.0505    6.8611   -3.2423 C   0  0  0  0  0  0  0  0  0  0  0  0
    3.3049    6.7866   -2.6277 C   0  0  0  0  0  0  0  0  0  0  0  0
    4.3174    6.1589   -3.3012 C   0  0  0  0  0  0  0  0  0  0  0  0
    4.0763    5.6088   -4.5507 C   0  0  0  0  0  0  0  0  0  0  0  0
    2.8501    5.6205   -5.1943 C   0  0  0  0  0  0  0  0  0  0  0  0
    1.8202    6.2735   -4.5100 C   0  0  0  0  0  0  0  0  0  0  0  0
    0.5992    6.3512   -5.0722 F   0  0  0  0  0  0  0  0  0  0  0  0
    2.6246    5.0410   -6.4923 N   0  0  0  0  0  0  0  0  0  0  0  0
    3.6660    4.2180   -7.5074 S   0  0  0  0  0  0  0  0  0  0  0  0
    3.1757    2.8580   -7.5909 O   0  0  0  0  0  0  0  0  0  0  0  0
    3.7795    5.0198   -8.7079 O   0  0  0  0  0  0  0  0  0  0  0  0
    5.2984    4.1316   -6.7929 C   0  0  0  0  0  0  0  0  0  0  0  0
    5.9087    6.0317   -2.6612 Cl  0  0  0  0  0  0  0  0  0  0  0  0
   -0.4114   10.4005   -1.0651 C   0  0  0  0  0  0  0  0  0  0  0  0
    0.5516   10.7790    0.0575 C   0  0  0  0  0  0  0  0  0  0  0  0
   -0.3864   11.4558   -2.1694 C   0  0  0  0  0  0  0  0  0  0  0  0
   -1.0474    1.2441    0.7921 N   0  0  0  0  0  0  0  0  0  0  0  0
   -1.7820    1.3568    1.9374 C   0  0  0  0  0  0  0  0  0  0  0  0
   -3.0145    1.3662    1.9150 O   0  0  0  0  0  0  0  0  0  0  0  0
   -1.0349    1.4518    3.0647 O   0  0  0  0  0  0  0  0  0  0  0  0
   -1.7771    1.5582    4.2863 C   0  0  0  0  0  0  0  0  0  0  0  0
    0.5515   -0.2271   -0.9322 H   0  0  0  0  0  0  0  0  0  0  0  0
    0.5704   -0.9145    0.6866 H   0  0  0  0  0  0  0  0  0  0  0  0
    2.0077   -0.0786    0.0643 H   0  0  0  0  0  0  0  0  0  0  0  0
    0.8427    1.3650    1.6685 H   0  0  0  0  0  0  0  0  0  0  0  0
    0.5889    3.3831    0.3073 H   0  0  0  0  0  0  0  0  0  0  0  0
    2.0066    2.4600   -0.1834 H   0  0  0  0  0  0  0  0  0  0  0  0
    0.4201    1.5186   -2.0707 H   0  0  0  0  0  0  0  0  0  0  0  0
   -2.9794    3.7609   -3.9245 H   0  0  0  0  0  0  0  0  0  0  0  0
   -2.4115    6.1772   -3.5802 H   0  0  0  0  0  0  0  0  0  0  0  0
   -1.9506    8.0326   -1.1420 H   0  0  0  0  0  0  0  0  0  0  0  0
    3.4874    7.2038   -1.6429 H   0  0  0  0  0  0  0  0  0  0  0  0
    4.9533    5.1831   -4.9590 H   0  0  0  0  0  0  0  0  0  0  0  0
    1.6674    5.0855   -6.8585 H   0  0  0  0  0  0  0  0  0  0  0  0
    5.6799    5.1529   -6.6880 H   0  0  0  0  0  0  0  0  0  0  0  0
    5.2359    3.5575   -5.8623 H   0  0  0  0  0  0  0  0  0  0  0  0
    5.9880    3.6026   -7.4456 H   0  0  0  0  0  0  0  0  0  0  0  0
   -1.4272   10.3561   -0.6518 H   0  0  0  0  0  0  0  0  0  0  0  0
    1.5839   10.8325   -0.3060 H   0  0  0  0  0  0  0  0  0  0  0  0
    0.2924   11.7575    0.4750 H   0  0  0  0  0  0  0  0  0  0  0  0
    0.5197   10.0427    0.8672 H   0  0  0  0  0  0  0  0  0  0  0  0
   -1.0967   11.2106   -2.9658 H   0  0  0  0  0  0  0  0  0  0  0  0
   -0.6519   12.4397   -1.7679 H   0  0  0  0  0  0  0  0  0  0  0  0
    0.6086   11.5363   -2.6209 H   0  0  0  0  0  0  0  0  0  0  0  0
   -1.5945    1.2214   -0.0599 H   0  0  0  0  0  0  0  0  0  0  0  0
   -2.3935    2.4634    4.2948 H   0  0  0  0  0  0  0  0  0  0  0  0
   -2.3944    0.6684    4.4480 H   0  0  0  0  0  0  0  0  0  0  0  0
   -1.0617    1.6282    5.1122 H   0  0  0  0  0  0  0  0  0  0  0  0
  1 37  1  0  0  0  0
  1 38  1  0  0  0  0
  1 39  1  0  0  0  0
  2  1  1  0  0  0  0
  2  3  1  0  0  0  0
  2 32  1  0  0  0  0
  2 40  1  1  0  0  0
  3  4  1  0  0  0  0
  3 41  1  0  0  0  0
  3 42  1  0  0  0  0
  4  5  1  0  0  0  0
  4 43  1  0  0  0  0
  5  6  2  0  0  0  0
  5 10  1  0  0  0  0
  6  7  1  0  0  0  0
  7  8  2  0  0  0  0
  7 44  1  0  0  0  0
  8  9  1  0  0  0  0
  8 45  1  0  0  0  0
  9 10  2  0  0  0  0
  9 11  1  0  0  0  0
 11 12  2  0  0  0  0
 11 15  1  0  0  0  0
 12 13  1  0  0  0  0
 12 46  1  0  0  0  0
 13 14  1  0  0  0  0
 13 29  1  0  0  0  0
 14 15  2  0  0  0  0
 15 16  1  0  0  0  0
 16 17  2  0  0  0  0
 16 21  1  0  0  0  0
 17 18  1  0  0  0  0
 17 47  1  0  0  0  0
 18 19  2  0  0  0  0
 18 28  1  0  0  0  0
 19 20  1  0  0  0  0
 19 48  1  0  0  0  0
 20 21  2  0  0  0  0
 20 23  1  0  0  0  0
 21 22  1  0  0  0  0
 23 24  1  0  0  0  0
 23 49  1  0  0  0  0
 24 25  2  0  0  0  0
 24 26  2  0  0  0  0
 24 27  1  0  0  0  0
 27 50  1  0  0  0  0
 27 51  1  0  0  0  0
 27 52  1  0  0  0  0
 29 30  1  0  0  0  0
 29 31  1  0  0  0  0
 29 53  1  0  0  0  0
 30 54  1  0  0  0  0
 30 55  1  0  0  0  0
 30 56  1  0  0  0  0
 31 57  1  0  0  0  0
 31 58  1  0  0  0  0
 31 59  1  0  0  0  0
 32 33  1  0  0  0  0
 32 60  1  0  0  0  0
 33 34  2  0  0  0  0
 33 35  1  0  0  0  0
 35 36  1  0  0  0  0
 36 61  1  0  0  0  0
 36 62  1  0  0  0  0
 36 63  1  0  0  0  0
M  END
>  <DRUGBANK_ID>
DB11718

>  <COMMON_NAME>
Encorafenib

>  <CAS_NUMBER>
1269440-17-6

>  <UNII>
8L7891MRB6

>  <SYNONYMS>
Encorafenib

$$$$
