
 OpenBabel10282417213D

 61 64  0  0  0  0  0  0  0  0999 V2000
   -6.3734   -2.0239    6.2334 C   0  0  0  0  0  0  0  0  0  0  0  0
   -7.0033   -1.3889    5.1598 C   0  0  0  0  0  0  0  0  0  0  0  0
   -5.9593   -1.2483    7.3163 C   0  0  0  0  0  0  0  0  0  0  0  0
   -6.2230    0.1487    7.1624 C   0  0  0  0  0  0  0  0  0  0  0  0
   -6.6368    0.7985    6.0633 C   0  0  0  0  0  0  0  0  0  0  0  0
   -7.1689    0.0010    5.1531 C   0  0  0  0  0  0  0  0  0  0  0  0
   -7.9832    0.7879    4.2570 C   0  0  0  0  0  0  0  0  0  0  0  0
   -5.9271    1.2262    8.0591 C   0  0  0  0  0  0  0  0  0  0  0  0
   -5.1915   -1.9357    8.5029 C   0  0  0  0  0  0  0  0  0  0  0  0
   -4.4595   -1.3280    9.5345 O   0  0  0  0  0  0  0  0  0  0  0  0
   -4.1565    0.0949    9.7659 C   0  0  0  0  0  0  0  0  0  0  0  0
   -3.3296    0.6979    8.5564 C   0  0  0  0  0  0  0  0  0  0  0  0
   -3.2315    2.1036    8.3313 C   0  0  0  0  0  0  0  0  0  0  0  0
   -2.7125    2.6313    7.1334 C   0  0  0  0  0  0  0  0  0  0  0  0
   -2.2037    1.7616    6.1699 C   0  0  0  0  0  0  0  0  0  0  0  0
   -2.2897    0.3863    6.3762 C   0  0  0  0  0  0  0  0  0  0  0  0
   -2.9568   -0.1235    7.4717 C   0  0  0  0  0  0  0  0  0  0  0  0
   -1.5391    2.2627    4.9094 C   0  0  2  0  0  0  0  0  0  0  0  0
   -2.1466    1.7287    3.5706 C   0  0  0  0  0  0  0  0  0  0  0  0
   -3.3696    1.0819    3.5986 N   0  0  0  0  0  0  0  0  0  0  0  0
   -4.0274    0.4287    2.5208 C   0  0  0  0  0  0  0  0  0  0  0  0
   -3.5463   -0.3694    1.5428 C   0  0  0  0  0  0  0  0  0  0  0  0
   -4.5678   -1.2786    0.8305 C   0  0  0  0  0  0  0  0  0  0  0  0
   -6.2399   -1.5123    1.0321 C   0  0  0  0  0  0  0  0  0  0  0  0
   -6.2453   -0.2411    1.3900 C   0  0  0  0  0  0  0  0  0  0  0  0
   -5.3726    0.5702    2.3339 C   0  0  0  0  0  0  0  0  0  0  0  0
   -7.1630    0.3153    0.5634 C   0  0  0  0  0  0  0  0  0  0  0  0
   -8.1768    0.4824    1.4048 C   0  0  0  0  0  0  0  0  0  0  0  0
   -8.7674   -0.6440    1.7620 N   0  0  0  0  0  0  0  0  0  0  0  0
   -7.9814   -1.6751    1.3089 C   0  0  0  0  0  0  0  0  0  0  0  0
   -1.5643    1.9430    2.5038 O   0  0  0  0  0  0  0  0  0  0  0  0
   -0.0464    1.8655    5.0070 C   0  0  0  0  0  0  0  0  0  0  0  0
    0.7461    2.4092    3.9121 N   0  0  0  0  0  0  0  0  0  0  0  0
   -5.1370   -3.1690    8.4449 O   0  0  0  0  0  0  0  0  0  0  0  0
   -6.2812   -3.1075    6.2230 H   0  0  0  0  0  0  0  0  0  0  0  0
   -7.4193   -1.9645    4.3400 H   0  0  0  0  0  0  0  0  0  0  0  0
   -6.6760    1.8911    6.0177 H   0  0  0  0  0  0  0  0  0  0  0  0
   -8.7870    1.4123    4.6368 H   0  0  0  0  0  0  0  0  0  0  0  0
   -7.2975    1.5032    3.8064 H   0  0  0  0  0  0  0  0  0  0  0  0
   -8.4361   -0.0043    3.7140 H   0  0  0  0  0  0  0  0  0  0  0  0
   -5.2846    1.9495    7.5735 H   0  0  0  0  0  0  0  0  0  0  0  0
   -6.4999    1.6067    8.8846 H   0  0  0  0  0  0  0  0  0  0  0  0
   -5.3585    0.4784    8.4431 H   0  0  0  0  0  0  0  0  0  0  0  0
   -5.1783    0.4506   10.0434 H   0  0  0  0  0  0  0  0  0  0  0  0
   -3.7165    0.4673   10.6948 H   0  0  0  0  0  0  0  0  0  0  0  0
   -3.8297    2.7988    8.9292 H   0  0  0  0  0  0  0  0  0  0  0  0
   -2.7403    3.7081    6.9500 H   0  0  0  0  0  0  0  0  0  0  0  0
   -1.8588   -0.3174    5.6669 H   0  0  0  0  0  0  0  0  0  0  0  0
   -3.2678   -1.1599    7.3497 H   0  0  0  0  0  0  0  0  0  0  0  0
   -1.6049    3.3608    4.8925 H   0  0  0  0  0  0  0  0  0  0  0  0
   -3.8658    1.0136    4.4850 H   0  0  0  0  0  0  0  0  0  0  0  0
   -2.4667   -0.3349    1.3555 H   0  0  0  0  0  0  0  0  0  0  0  0
   -4.0677   -1.6697   -0.0800 H   0  0  0  0  0  0  0  0  0  0  0  0
   -5.7925    1.4562    2.7839 H   0  0  0  0  0  0  0  0  0  0  0  0
   -7.4531   -0.3634   -0.3151 H   0  0  0  0  0  0  0  0  0  0  0  0
   -8.0061    1.2340    2.1528 H   0  0  0  0  0  0  0  0  0  0  0  0
   -8.8245   -2.1033    0.6575 H   0  0  0  0  0  0  0  0  0  0  0  0
    0.3817    2.2196    5.9543 H   0  0  0  0  0  0  0  0  0  0  0  0
    0.0521    0.7720    5.0064 H   0  0  0  0  0  0  0  0  0  0  0  0
    1.6873    2.0285    3.9334 H   0  0  0  0  0  0  0  0  0  0  0  0
    0.3191    2.0826    3.0321 H   0  0  0  0  0  0  0  0  0  0  0  0
  1  2  2  0  0  0  0
  1  3  1  0  0  0  0
  1 35  1  0  0  0  0
  2  6  1  0  0  0  0
  2 36  1  0  0  0  0
  3  4  2  0  0  0  0
  3  9  1  0  0  0  0
  4  5  1  0  0  0  0
  4  8  1  0  0  0  0
  5  6  2  0  0  0  0
  5 37  1  0  0  0  0
  6  7  1  0  0  0  0
  7 38  1  0  0  0  0
  7 39  1  0  0  0  0
  7 40  1  0  0  0  0
  8 41  1  0  0  0  0
  8 42  1  0  0  0  0
  8 43  1  0  0  0  0
  9 10  1  0  0  0  0
  9 34  2  0  0  0  0
 10 11  1  0  0  0  0
 11 12  1  0  0  0  0
 11 44  1  0  0  0  0
 11 45  1  0  0  0  0
 12 13  2  0  0  0  0
 12 17  1  0  0  0  0
 13 14  1  0  0  0  0
 13 46  1  0  0  0  0
 14 15  2  0  0  0  0
 14 47  1  0  0  0  0
 15 16  1  0  0  0  0
 16 17  2  0  0  0  0
 16 48  1  0  0  0  0
 17 49  1  0  0  0  0
 18 32  1  0  0  0  0
 18 50  1  6  0  0  0
 18 19  1  0  0  0  0
 18 15  1  0  0  0  0
 19 20  1  0  0  0  0
 19 31  2  0  0  0  0
 20 21  1  0  0  0  0
 20 51  1  0  0  0  0
 21 22  2  0  0  0  0
 21 26  1  0  0  0  0
 22 23  1  0  0  0  0
 22 52  1  0  0  0  0
 23 24  2  0  0  0  0
 23 53  1  0  0  0  0
 24 25  1  0  0  0  0
 24 30  1  0  0  0  0
 25 26  2  0  0  0  0
 25 27  1  0  0  0  0
 26 54  1  0  0  0  0
 27 28  2  0  0  0  0
 27 55  1  0  0  0  0
 28 29  1  0  0  0  0
 28 56  1  0  0  0  0
 29 30  2  0  0  0  0
 30 57  1  0  0  0  0
 32 33  1  0  0  0  0
 32 58  1  0  0  0  0
 32 59  1  0  0  0  0
 33 60  1  0  0  0  0
 33 61  1  0  0  0  0
M  END
>  <DRUGBANK_ID>
DB13931

>  <COMMON_NAME>
Netarsudil

>  <CAS_NUMBER>
1254032-66-0

>  <UNII>
W6I5QDT7QI

>  <SYNONYMS>
(4-((1S)-1-(Aminomethyl)-2-(isoquinolin-6-ylamino)-2-oxoethyl)phenyl)methyl 2,4- dimethylbenzoate; Netarsudil

$$$$
