
 OpenBabel10282417163D

 48 49  0  0  0  0  0  0  0  0999 V2000
    1.3611   -0.2224    0.0761 C   0  0  0  0  0  0  0  0  0  0  0  0
    0.4804   -1.3106    0.0343 C   0  0  0  0  0  0  0  0  0  0  0  0
   -0.8985   -1.1117   -0.0188 C   0  0  0  0  0  0  0  0  0  0  0  0
   -1.4220    0.1802   -0.0319 C   0  0  0  0  0  0  0  0  0  0  0  0
   -0.5522    1.2709    0.0213 C   0  0  0  0  0  0  0  0  0  0  0  0
    0.8295    1.0721    0.0262 C   0  0  0  0  0  0  0  0  0  0  0  0
   -2.7526    0.4904   -0.1103 O   0  0  0  0  0  0  0  0  0  0  0  0
   -3.6369   -0.6105   -0.2978 C   0  0  0  0  0  0  0  0  0  0  0  0
    2.8020   -0.4356    0.1911 C   0  0  0  0  0  0  0  0  0  0  0  0
    3.4698   -1.2353   -0.7365 C   0  0  0  0  0  0  0  0  0  0  0  0
    4.8285   -1.4884   -0.5925 C   0  0  0  0  0  0  0  0  0  0  0  0
    5.5629   -0.8641    0.4200 C   0  0  0  0  0  0  0  0  0  0  0  0
    4.9234   -0.0140    1.3188 C   0  0  0  0  0  0  0  0  0  0  0  0
    3.5381    0.1335    1.2454 C   0  0  0  0  0  0  0  0  0  0  0  0
    7.2989   -1.1475    0.6565 S   0  0  0  0  0  0  0  0  0  0  0  0
    7.9695    0.1258    0.6250 O   0  0  0  0  0  0  0  0  0  0  0  0
    7.4401   -2.0042    1.8208 O   0  0  0  0  0  0  0  0  0  0  0  0
    7.7792   -2.0578   -0.6646 N   0  0  0  0  0  0  0  0  0  0  0  0
    7.6345   -1.5500   -2.0461 C   0  0  1  0  0  0  0  0  0  0  0  0
    8.4368   -0.2115   -2.2028 C   0  0  0  0  0  0  0  0  0  0  0  0
    9.9401   -0.3979   -1.9862 C   0  0  0  0  0  0  0  0  0  0  0  0
    8.1641    0.4512   -3.5485 C   0  0  0  0  0  0  0  0  0  0  0  0
    8.1977   -2.6596   -3.3879 P   0  0  0  0  0  0  0  0  0  0  0  0
    9.3687   -3.2930   -2.4228 O   0  0  0  0  0  0  0  0  0  0  0  0
    6.9166   -3.4807   -3.2509 O   0  0  0  0  0  0  0  0  0  0  0  0
    8.7302   -3.7086   -4.6564 O   0  0  0  0  0  0  0  0  0  0  0  0
    0.8643   -2.3289    0.0520 H   0  0  0  0  0  0  0  0  0  0  0  0
   -1.5327   -1.9906   -0.0324 H   0  0  0  0  0  0  0  0  0  0  0  0
   -0.9456    2.2832    0.0605 H   0  0  0  0  0  0  0  0  0  0  0  0
    1.4942    1.9328   -0.0166 H   0  0  0  0  0  0  0  0  0  0  0  0
   -3.3852   -1.1806   -1.2001 H   0  0  0  0  0  0  0  0  0  0  0  0
   -3.6390   -1.2565    0.5864 H   0  0  0  0  0  0  0  0  0  0  0  0
   -4.6485   -0.2173   -0.4283 H   0  0  0  0  0  0  0  0  0  0  0  0
    2.9293   -1.7019   -1.5583 H   0  0  0  0  0  0  0  0  0  0  0  0
    5.2608   -2.2017   -1.2838 H   0  0  0  0  0  0  0  0  0  0  0  0
    5.4860    0.4982    2.0958 H   0  0  0  0  0  0  0  0  0  0  0  0
    3.0233    0.6740    2.0374 H   0  0  0  0  0  0  0  0  0  0  0  0
    8.6273   -2.6101   -0.5082 H   0  0  0  0  0  0  0  0  0  0  0  0
    6.6095   -1.2859   -2.2932 H   0  0  0  0  0  0  0  0  0  0  0  0
    8.0738    0.5249   -1.4874 H   0  0  0  0  0  0  0  0  0  0  0  0
   10.3830   -0.9779   -2.7995 H   0  0  0  0  0  0  0  0  0  0  0  0
   10.4584    0.5640   -1.9664 H   0  0  0  0  0  0  0  0  0  0  0  0
   10.1554   -0.9067   -1.0401 H   0  0  0  0  0  0  0  0  0  0  0  0
    7.0926    0.6497   -3.6578 H   0  0  0  0  0  0  0  0  0  0  0  0
    8.6890    1.4103   -3.6026 H   0  0  0  0  0  0  0  0  0  0  0  0
    8.4936   -0.1688   -4.3845 H   0  0  0  0  0  0  0  0  0  0  0  0
   10.2812   -3.0305   -2.6362 H   0  0  0  0  0  0  0  0  0  0  0  0
    9.0605   -3.2272   -5.4341 H   0  0  0  0  0  0  0  0  0  0  0  0
  1  2  1  0  0  0  0
  1  6  2  0  0  0  0
  1  9  1  0  0  0  0
  2  3  2  0  0  0  0
  2 27  1  0  0  0  0
  3  4  1  0  0  0  0
  3 28  1  0  0  0  0
  4  7  1  0  0  0  0
  5  4  2  0  0  0  0
  5  6  1  0  0  0  0
  5 29  1  0  0  0  0
  6 30  1  0  0  0  0
  8  7  1  0  0  0  0
  8 31  1  0  0  0  0
  8 32  1  0  0  0  0
  8 33  1  0  0  0  0
  9 10  1  0  0  0  0
  9 14  2  0  0  0  0
 10 11  2  0  0  0  0
 10 34  1  0  0  0  0
 11 12  1  0  0  0  0
 11 35  1  0  0  0  0
 12 13  2  0  0  0  0
 12 15  1  0  0  0  0
 13 14  1  0  0  0  0
 13 36  1  0  0  0  0
 14 37  1  0  0  0  0
 16 15  2  0  0  0  0
 17 15  2  0  0  0  0
 18 15  1  0  0  0  0
 18 38  1  0  0  0  0
 19 18  1  0  0  0  0
 19 20  1  0  0  0  0
 19 23  1  0  0  0  0
 19 39  1  6  0  0  0
 20 21  1  0  0  0  0
 20 22  1  0  0  0  0
 20 40  1  0  0  0  0
 21 41  1  0  0  0  0
 21 42  1  0  0  0  0
 21 43  1  0  0  0  0
 22 44  1  0  0  0  0
 22 45  1  0  0  0  0
 22 46  1  0  0  0  0
 24 23  1  0  0  0  0
 24 47  1  0  0  0  0
 25 23  2  0  0  0  0
 26 23  1  0  0  0  0
 26 48  1  0  0  0  0
M  END
>  <DRUGBANK_ID>
DB07772

>  <COMMON_NAME>
(1R)-1-{[(4'-methoxy-1,1'-biphenyl-4-yl)sulfonyl]amino}-2-methylpropylphosphonic acid

$$$$
