
 OpenBabel10282417193D

 32 33  0  0  1  0  0  0  0  0999 V2000
    2.2158   -1.9503   -4.1839 C   0  0  0  0  0  0  0  0  0  0  0  0
    1.5092   -2.8952   -3.2516 C   0  0  0  0  0  0  0  0  0  0  0  0
    1.6033   -4.2759   -3.4769 C   0  0  0  0  0  0  0  0  0  0  0  0
    0.9627   -5.1733   -2.6362 C   0  0  0  0  0  0  0  0  0  0  0  0
    0.2279   -4.6898   -1.5597 C   0  0  0  0  0  0  0  0  0  0  0  0
    0.1442   -3.3001   -1.2688 C   0  0  0  0  0  0  0  0  0  0  0  0
    0.7747   -2.3911   -2.1519 C   0  0  0  0  0  0  0  0  0  0  0  0
    0.6988   -0.8967   -1.9717 C   0  0  0  0  0  0  0  0  0  0  0  0
   -0.5914   -2.9319    0.0318 C   0  0  2  0  0  0  0  0  0  0  0  0
   -1.0562   -1.4796    0.2155 C   0  0  0  0  0  0  0  0  0  0  0  0
    0.1167   -3.4265    1.2741 C   0  0  0  0  0  0  0  0  0  0  0  0
   -0.2059   -3.2057    2.5653 C   0  0  0  0  0  0  0  0  0  0  0  0
    0.6495   -3.9153    3.3678 N   0  0  0  0  0  0  0  0  0  0  0  0
    1.5564   -4.6083    2.5657 C   0  0  0  0  0  0  0  0  0  0  0  0
    2.7541   -5.6253    3.0476 S   0  0  0  0  0  0  0  0  0  0  0  0
    1.2158   -4.2657    1.2608 N   0  0  0  0  0  0  0  0  0  0  0  0
    1.4826   -1.2946   -4.6666 H   0  0  0  0  0  0  0  0  0  0  0  0
    2.9351   -1.3476   -3.6174 H   0  0  0  0  0  0  0  0  0  0  0  0
    2.7669   -2.4748   -4.9658 H   0  0  0  0  0  0  0  0  0  0  0  0
    2.1825   -4.6569   -4.3142 H   0  0  0  0  0  0  0  0  0  0  0  0
    1.0485   -6.2437   -2.8069 H   0  0  0  0  0  0  0  0  0  0  0  0
   -0.2429   -5.4177   -0.8957 H   0  0  0  0  0  0  0  0  0  0  0  0
   -0.3323   -0.5571   -2.0929 H   0  0  0  0  0  0  0  0  0  0  0  0
    1.1314   -0.6186   -1.0101 H   0  0  0  0  0  0  0  0  0  0  0  0
    1.2561   -0.3113   -2.7025 H   0  0  0  0  0  0  0  0  0  0  0  0
   -1.5342   -3.4960   -0.0266 H   0  0  0  0  0  0  0  0  0  0  0  0
   -0.2320   -0.7887    0.4222 H   0  0  0  0  0  0  0  0  0  0  0  0
   -1.6146   -1.1442   -0.6621 H   0  0  0  0  0  0  0  0  0  0  0  0
   -1.7408   -1.3745    1.0607 H   0  0  0  0  0  0  0  0  0  0  0  0
   -1.0075   -2.6096    2.9681 H   0  0  0  0  0  0  0  0  0  0  0  0
    0.6213   -3.9640    4.3768 H   0  0  0  0  0  0  0  0  0  0  0  0
    1.7007   -4.6052    0.4384 H   0  0  0  0  0  0  0  0  0  0  0  0
  1  2  1  0  0  0  0
  1 17  1  0  0  0  0
  1 18  1  0  0  0  0
  1 19  1  0  0  0  0
  2  3  2  0  0  0  0
  2  7  1  0  0  0  0
  3  4  1  0  0  0  0
  3 20  1  0  0  0  0
  4  5  2  0  0  0  0
  4 21  1  0  0  0  0
  5  6  1  0  0  0  0
  5 22  1  0  0  0  0
  6  7  2  0  0  0  0
  7  8  1  0  0  0  0
  8 23  1  0  0  0  0
  8 24  1  0  0  0  0
  8 25  1  0  0  0  0
  9 11  1  0  0  0  0
  9 26  1  6  0  0  0
  9 10  1  0  0  0  0
  9  6  1  0  0  0  0
 10 27  1  0  0  0  0
 10 28  1  0  0  0  0
 10 29  1  0  0  0  0
 11 12  2  0  0  0  0
 11 16  1  0  0  0  0
 12 13  1  0  0  0  0
 12 30  1  0  0  0  0
 13 14  1  0  0  0  0
 13 31  1  0  0  0  0
 14 15  2  0  0  0  0
 14 16  1  0  0  0  0
 16 32  1  0  0  0  0
M  END
>  <DRUGBANK_ID>
DB12143

>  <COMMON_NAME>
Rezatomidine

>  <CAS_NUMBER>
847829-38-3

>  <UNII>
W5LMZ0RC8I

>  <SYNONYMS>
Rezatomidine

$$$$
