
 OpenBabel10282417133D

 16 16  0  0  0  0  0  0  0  0999 V2000
    1.5372   -1.5275   -0.0030 C   0  0  0  0  0  0  0  0  0  0  0  0
    0.3425   -0.6879   -0.0006 N   0  0  0  0  0  0  0  0  0  0  0  0
   -0.9674   -1.1503    0.0019 C   0  0  0  0  0  0  0  0  0  0  0  0
   -1.7742   -0.0513    0.0019 C   0  0  0  0  0  0  0  0  0  0  0  0
   -0.9376    1.0390   -0.0030 N   0  3  0  0  0  0  0  0  0  0  0  0
    0.3506    0.6606   -0.0002 C   0  0  0  0  0  0  0  0  0  0  0  0
    1.5298    1.5702    0.0033 C   0  0  0  0  0  0  0  0  0  0  0  0
    2.1201   -1.3072   -0.9015 H   0  0  0  0  0  0  0  0  0  0  0  0
    2.1271   -1.3031    0.8899 H   0  0  0  0  0  0  0  0  0  0  0  0
    1.2610   -2.5843    0.0006 H   0  0  0  0  0  0  0  0  0  0  0  0
   -1.1543   -2.2110    0.0036 H   0  0  0  0  0  0  0  0  0  0  0  0
   -2.8399    0.1002    0.0042 H   0  0  0  0  0  0  0  0  0  0  0  0
   -1.2427    2.0089   -0.0067 H   0  0  0  0  0  0  0  0  0  0  0  0
    1.4722    2.1806   -0.8983 H   0  0  0  0  0  0  0  0  0  0  0  0
    1.4685    2.1769    0.9072 H   0  0  0  0  0  0  0  0  0  0  0  0
    2.4378    0.9675    0.0041 H   0  0  0  0  0  0  0  0  0  0  0  0
  1  2  1  0  0  0  0
  1  8  1  0  0  0  0
  1  9  1  0  0  0  0
  1 10  1  0  0  0  0
  2  3  1  0  0  0  0
  2  6  1  0  0  0  0
  3  4  2  0  0  0  0
  3 11  1  0  0  0  0
  4  5  1  0  0  0  0
  4 12  1  0  0  0  0
  5  6  2  0  0  0  0
  5 13  1  0  0  0  0
  6  7  1  0  0  0  0
  7 14  1  0  0  0  0
  7 15  1  0  0  0  0
  7 16  1  0  0  0  0
M  CHG  1   5   1
M  END
>  <DRUGBANK_ID>
DB03789

>  <SECONDARY_ACCESSION_NUMBERS>
EXPT01226

>  <COMMON_NAME>
2,3-Dimethylimidazolium Ion

$$$$
