
 OpenBabel10282417143D

134133  0  0  1  0  0  0  0  0999 V2000
   -4.0733  -26.9026    4.2940 C   0  0  0  0  0  0  0  0  0  0  0  0
   -4.1387  -26.5186    2.8251 C   0  0  0  0  0  0  0  0  0  0  0  0
   -5.5857  -26.2389    2.4183 C   0  0  0  0  0  0  0  0  0  0  0  0
   -6.1735  -25.0878    3.2419 C   0  0  0  0  0  0  0  0  0  0  0  0
   -5.3459  -23.8129    3.0463 C   0  0  0  0  0  0  0  0  0  0  0  0
   -5.3643  -23.4026    1.5713 C   0  0  0  0  0  0  0  0  0  0  0  0
   -6.8071  -23.1417    1.1307 C   0  0  0  0  0  0  0  0  0  0  0  0
   -7.4054  -22.0204    1.9846 C   0  0  0  0  0  0  0  0  0  0  0  0
   -6.5727  -20.7483    1.8051 C   0  0  0  0  0  0  0  0  0  0  0  0
   -6.5844  -20.3416    0.3294 C   0  0  0  0  0  0  0  0  0  0  0  0
   -8.0283  -20.0890   -0.1114 C   0  0  0  0  0  0  0  0  0  0  0  0
   -8.6286  -18.9714    0.7462 C   0  0  0  0  0  0  0  0  0  0  0  0
   -7.8024  -17.6958    0.5646 C   0  0  0  0  0  0  0  0  0  0  0  0
   -7.8143  -17.2972   -0.9129 C   0  0  0  0  0  0  0  0  0  0  0  0
   -9.2606  -17.0636   -1.3612 C   0  0  0  0  0  0  0  0  0  0  0  0
   -9.8635  -15.8954   -0.5898 C   0  0  0  0  0  0  0  0  0  0  0  0
   -8.9978  -14.6500   -0.7308 C   0  0  0  0  0  0  0  0  0  0  0  0
   -8.8799  -14.1004   -2.1441 C   0  0  0  0  0  0  0  0  0  0  0  0
   -8.9336  -12.8892   -2.3127 O   0  0  0  0  0  0  0  0  0  0  0  0
   -8.7495  -15.0254   -3.1503 O   0  0  0  0  0  0  0  0  0  0  0  0
   -8.7582  -14.7047   -4.6144 C   0  0  0  0  0  0  0  0  0  0  0  0
  -10.4038  -14.4795   -5.3747 C   0  0  1  0  0  0  0  0  0  0  0  0
  -10.9576  -13.4022   -4.3972 C   0  0  0  0  0  0  0  0  0  0  0  0
  -10.1354  -12.2538   -4.4533 O   0  0  0  0  0  0  0  0  0  0  0  0
   -9.8140  -11.7237   -5.9347 P   0  0  2  0  0  0  0  0  0  0  0  0
   -9.2373  -13.2930   -6.3791 O   0  0  0  0  0  0  0  0  0  0  0  0
   -8.3872  -11.1531   -5.8831 O   0  0  0  0  0  0  0  0  0  0  0  0
  -10.3907  -10.1543   -5.4902 O   0  0  0  0  0  0  0  0  0  0  0  0
  -10.7100   -9.3308   -6.6225 C   0  0  0  0  0  0  0  0  0  0  0  0
   -9.4941   -8.9085   -7.4823 C   0  0  0  0  0  0  0  0  0  0  0  0
   -8.9083  -10.0643   -8.1329 N   0  3  0  0  0  0  0  0  0  0  0  0
  -10.6887  -13.8817   -7.1356 O   0  0  0  0  0  0  0  0  0  0  0  0
   -9.5915  -12.9093   -8.1227 C   0  0  0  0  0  0  0  0  0  0  0  0
   -8.4474  -12.3651   -7.7962 O   0  0  0  0  0  0  0  0  0  0  0  0
   -9.5367  -12.7256   -9.4720 C   0  0  0  0  0  0  0  0  0  0  0  0
   -8.6756  -13.9906   -9.5643 C   0  0  0  0  0  0  0  0  0  0  0  0
   -9.5281  -15.1679   -9.0691 C   0  0  0  0  0  0  0  0  0  0  0  0
  -11.0116  -14.8303   -9.4407 C   0  0  0  0  0  0  0  0  0  0  0  0
  -11.0388  -14.3453  -10.8905 C   0  0  0  0  0  0  0  0  0  0  0  0
  -10.3815  -15.4257  -11.7012 C   0  0  0  0  0  0  0  0  0  0  0  0
  -11.1949  -16.6849  -11.4653 C   0  0  0  0  0  0  0  0  0  0  0  0
  -12.6397  -16.3965  -11.8762 C   0  0  0  0  0  0  0  0  0  0  0  0
  -12.6471  -15.9615  -13.3429 C   0  0  0  0  0  0  0  0  0  0  0  0
  -12.0339  -17.0796  -14.1884 C   0  0  0  0  0  0  0  0  0  0  0  0
  -12.8562  -18.3567  -13.9992 C   0  0  0  0  0  0  0  0  0  0  0  0
  -14.2995  -18.0984  -14.4387 C   0  0  0  0  0  0  0  0  0  0  0  0
  -14.3172  -17.6826  -15.9120 C   0  0  0  0  0  0  0  0  0  0  0  0
  -13.7148  -18.7976  -16.7736 C   0  0  0  0  0  0  0  0  0  0  0  0
  -14.5328  -20.0856  -16.6296 C   0  0  0  0  0  0  0  0  0  0  0  0
  -15.9849  -19.8606  -17.0516 C   0  0  0  0  0  0  0  0  0  0  0  0
  -16.0448  -19.4184  -18.5043 C   0  0  0  0  0  0  0  0  0  0  0  0
   -4.4458  -26.1059    4.9463 H   0  0  0  0  0  0  0  0  0  0  0  0
   -3.0454  -27.0989    4.5978 H   0  0  0  0  0  0  0  0  0  0  0  0
   -4.6844  -27.7926    4.4696 H   0  0  0  0  0  0  0  0  0  0  0  0
   -3.4983  -25.6473    2.6431 H   0  0  0  0  0  0  0  0  0  0  0  0
   -3.7273  -27.3164    2.2016 H   0  0  0  0  0  0  0  0  0  0  0  0
   -5.6265  -26.0159    1.3450 H   0  0  0  0  0  0  0  0  0  0  0  0
   -6.2003  -27.1345    2.5458 H   0  0  0  0  0  0  0  0  0  0  0  0
   -7.2228  -24.9379    2.9678 H   0  0  0  0  0  0  0  0  0  0  0  0
   -6.2244  -25.3355    4.3044 H   0  0  0  0  0  0  0  0  0  0  0  0
   -5.7293  -23.0217    3.6981 H   0  0  0  0  0  0  0  0  0  0  0  0
   -4.3134  -23.9328    3.3832 H   0  0  0  0  0  0  0  0  0  0  0  0
   -4.7216  -22.5296    1.4227 H   0  0  0  0  0  0  0  0  0  0  0  0
   -4.9109  -24.1582    0.9250 H   0  0  0  0  0  0  0  0  0  0  0  0
   -6.8314  -22.9107    0.0622 H   0  0  0  0  0  0  0  0  0  0  0  0
   -7.4327  -24.0347    1.2023 H   0  0  0  0  0  0  0  0  0  0  0  0
   -8.4558  -21.8742    1.7192 H   0  0  0  0  0  0  0  0  0  0  0  0
   -7.4562  -22.2822    3.0443 H   0  0  0  0  0  0  0  0  0  0  0  0
   -6.9550  -19.9608    2.4599 H   0  0  0  0  0  0  0  0  0  0  0  0
   -5.5419  -20.8698    2.1469 H   0  0  0  0  0  0  0  0  0  0  0  0
   -5.9417  -19.4700    0.1809 H   0  0  0  0  0  0  0  0  0  0  0  0
   -6.1268  -21.0947   -0.3171 H   0  0  0  0  0  0  0  0  0  0  0  0
   -8.0535  -19.8602   -1.1800 H   0  0  0  0  0  0  0  0  0  0  0  0
   -8.6519  -20.9838   -0.0412 H   0  0  0  0  0  0  0  0  0  0  0  0
   -9.6799  -18.8293    0.4856 H   0  0  0  0  0  0  0  0  0  0  0  0
   -8.6769  -19.2339    1.8058 H   0  0  0  0  0  0  0  0  0  0  0  0
   -8.1923  -16.9066    1.2130 H   0  0  0  0  0  0  0  0  0  0  0  0
   -6.7703  -17.8150    0.9074 H   0  0  0  0  0  0  0  0  0  0  0  0
   -7.1724  -16.4254   -1.0638 H   0  0  0  0  0  0  0  0  0  0  0  0
   -7.3488  -18.0503   -1.5542 H   0  0  0  0  0  0  0  0  0  0  0  0
   -9.3010  -16.9077   -2.4351 H   0  0  0  0  0  0  0  0  0  0  0  0
   -9.8880  -17.9505   -1.2472 H   0  0  0  0  0  0  0  0  0  0  0  0
  -10.8897  -15.7085   -0.9173 H   0  0  0  0  0  0  0  0  0  0  0  0
   -9.9529  -16.1493    0.4774 H   0  0  0  0  0  0  0  0  0  0  0  0
   -9.4590  -13.8726   -0.1077 H   0  0  0  0  0  0  0  0  0  0  0  0
   -7.9936  -14.7713   -0.3089 H   0  0  0  0  0  0  0  0  0  0  0  0
   -8.0591  -13.8501   -4.6770 H   0  0  0  0  0  0  0  0  0  0  0  0
   -8.2348  -15.5298   -5.1196 H   0  0  0  0  0  0  0  0  0  0  0  0
  -10.9117  -15.4392   -5.2741 H   0  0  0  0  0  0  0  0  0  0  0  0
  -11.9633  -13.0969   -4.6285 H   0  0  0  0  0  0  0  0  0  0  0  0
  -10.9470  -13.7402   -3.3523 H   0  0  0  0  0  0  0  0  0  0  0  0
   -8.2478  -13.1767   -6.4000 H   0  0  0  0  0  0  0  0  0  0  0  0
  -11.4572   -9.8702   -7.2208 H   0  0  0  0  0  0  0  0  0  0  0  0
  -11.1805   -8.4168   -6.2531 H   0  0  0  0  0  0  0  0  0  0  0  0
   -9.8000   -8.2808   -8.3206 H   0  0  0  0  0  0  0  0  0  0  0  0
   -8.6843   -8.4792   -6.9001 H   0  0  0  0  0  0  0  0  0  0  0  0
   -9.6347  -10.5409   -8.6600 H   0  0  0  0  0  0  0  0  0  0  0  0
   -8.0851   -9.9572   -8.7343 H   0  0  0  0  0  0  0  0  0  0  0  0
   -8.4727  -10.6859   -7.4068 H   0  0  0  0  0  0  0  0  0  0  0  0
  -10.5572  -12.3431   -9.5431 H   0  0  0  0  0  0  0  0  0  0  0  0
   -8.8502  -11.8924   -9.7339 H   0  0  0  0  0  0  0  0  0  0  0  0
   -8.3132  -14.0044  -10.5807 H   0  0  0  0  0  0  0  0  0  0  0  0
   -7.7344  -13.9891   -8.9573 H   0  0  0  0  0  0  0  0  0  0  0  0
   -9.1213  -16.0715   -9.5080 H   0  0  0  0  0  0  0  0  0  0  0  0
   -9.4043  -15.3731   -7.9917 H   0  0  0  0  0  0  0  0  0  0  0  0
  -11.6489  -15.6679   -9.1709 H   0  0  0  0  0  0  0  0  0  0  0  0
  -11.5295  -14.0266   -8.9032 H   0  0  0  0  0  0  0  0  0  0  0  0
  -12.0521  -14.0420  -11.1466 H   0  0  0  0  0  0  0  0  0  0  0  0
  -10.5105  -13.4222  -11.1337 H   0  0  0  0  0  0  0  0  0  0  0  0
  -10.3069  -15.0902  -12.7322 H   0  0  0  0  0  0  0  0  0  0  0  0
   -9.3364  -15.6004  -11.4355 H   0  0  0  0  0  0  0  0  0  0  0  0
  -10.7310  -17.5087  -12.0004 H   0  0  0  0  0  0  0  0  0  0  0  0
  -11.1699  -17.0330  -10.4283 H   0  0  0  0  0  0  0  0  0  0  0  0
  -13.2547  -17.2739  -11.6797 H   0  0  0  0  0  0  0  0  0  0  0  0
  -13.1235  -15.6297  -11.2626 H   0  0  0  0  0  0  0  0  0  0  0  0
  -13.6634  -15.7048  -13.6461 H   0  0  0  0  0  0  0  0  0  0  0  0
  -12.1030  -15.0278  -13.5142 H   0  0  0  0  0  0  0  0  0  0  0  0
  -11.9761  -16.7637  -15.2318 H   0  0  0  0  0  0  0  0  0  0  0  0
  -10.9873  -17.2736  -13.9367 H   0  0  0  0  0  0  0  0  0  0  0  0
  -12.3920  -19.1792  -14.5476 H   0  0  0  0  0  0  0  0  0  0  0  0
  -12.8431  -18.7148  -12.9658 H   0  0  0  0  0  0  0  0  0  0  0  0
  -14.9079  -18.9859  -14.2499 H   0  0  0  0  0  0  0  0  0  0  0  0
  -14.7869  -17.3292  -13.8319 H   0  0  0  0  0  0  0  0  0  0  0  0
  -15.3371  -17.4310  -16.2121 H   0  0  0  0  0  0  0  0  0  0  0  0
  -13.7710  -16.7496  -16.0831 H   0  0  0  0  0  0  0  0  0  0  0  0
  -13.6562  -18.4696  -17.8137 H   0  0  0  0  0  0  0  0  0  0  0  0
  -12.6699  -18.9945  -16.5126 H   0  0  0  0  0  0  0  0  0  0  0  0
  -14.0777  -20.8798  -17.2280 H   0  0  0  0  0  0  0  0  0  0  0  0
  -14.5058  -20.4558  -15.5973 H   0  0  0  0  0  0  0  0  0  0  0  0
  -16.5584  -20.7795  -16.9065 H   0  0  0  0  0  0  0  0  0  0  0  0
  -16.4722  -19.1102  -16.4175 H   0  0  0  0  0  0  0  0  0  0  0  0
  -15.5899  -20.1827  -19.1409 H   0  0  0  0  0  0  0  0  0  0  0  0
  -17.0753  -19.2490  -18.8155 H   0  0  0  0  0  0  0  0  0  0  0  0
  -15.5084  -18.4788  -18.6727 H   0  0  0  0  0  0  0  0  0  0  0  0
  1  2  1  0  0  0  0
  1 52  1  0  0  0  0
  1 53  1  0  0  0  0
  1 54  1  0  0  0  0
  2  3  1  0  0  0  0
  2 55  1  0  0  0  0
  2 56  1  0  0  0  0
  3  4  1  0  0  0  0
  3 57  1  0  0  0  0
  3 58  1  0  0  0  0
  4  5  1  0  0  0  0
  4 59  1  0  0  0  0
  4 60  1  0  0  0  0
  5  6  1  0  0  0  0
  5 61  1  0  0  0  0
  5 62  1  0  0  0  0
  6  7  1  0  0  0  0
  6 63  1  0  0  0  0
  6 64  1  0  0  0  0
  7  8  1  0  0  0  0
  7 65  1  0  0  0  0
  7 66  1  0  0  0  0
  8  9  1  0  0  0  0
  8 67  1  0  0  0  0
  8 68  1  0  0  0  0
  9 10  1  0  0  0  0
  9 69  1  0  0  0  0
  9 70  1  0  0  0  0
 10 11  1  0  0  0  0
 10 71  1  0  0  0  0
 10 72  1  0  0  0  0
 11 12  1  0  0  0  0
 11 73  1  0  0  0  0
 11 74  1  0  0  0  0
 12 13  1  0  0  0  0
 12 75  1  0  0  0  0
 12 76  1  0  0  0  0
 13 14  1  0  0  0  0
 13 77  1  0  0  0  0
 13 78  1  0  0  0  0
 14 15  1  0  0  0  0
 14 79  1  0  0  0  0
 14 80  1  0  0  0  0
 15 16  1  0  0  0  0
 15 81  1  0  0  0  0
 15 82  1  0  0  0  0
 16 17  1  0  0  0  0
 16 83  1  0  0  0  0
 16 84  1  0  0  0  0
 17 18  1  0  0  0  0
 17 85  1  0  0  0  0
 17 86  1  0  0  0  0
 18 19  2  0  0  0  0
 18 20  1  0  0  0  0
 20 21  1  0  0  0  0
 21 22  1  0  0  0  0
 21 87  1  0  0  0  0
 21 88  1  0  0  0  0
 22 23  1  0  0  0  0
 22 32  1  0  0  0  0
 22 89  1  1  0  0  0
 23 24  1  0  0  0  0
 23 90  1  0  0  0  0
 23 91  1  0  0  0  0
 25 27  2  1  0  0  0
 25 28  1  0  0  0  0
 25 26  1  0  0  0  0
 25 24  1  0  0  0  0
 26 92  1  0  0  0  0
 28 29  1  0  0  0  0
 29 30  1  0  0  0  0
 29 93  1  0  0  0  0
 29 94  1  0  0  0  0
 30 31  1  0  0  0  0
 30 95  1  0  0  0  0
 30 96  1  0  0  0  0
 31 97  1  0  0  0  0
 31 98  1  0  0  0  0
 31 99  1  0  0  0  0
 32 33  1  0  0  0  0
 33 34  2  0  0  0  0
 33 35  1  0  0  0  0
 35 36  1  0  0  0  0
 35100  1  0  0  0  0
 35101  1  0  0  0  0
 36 37  1  0  0  0  0
 36102  1  0  0  0  0
 36103  1  0  0  0  0
 37 38  1  0  0  0  0
 37104  1  0  0  0  0
 37105  1  0  0  0  0
 38 39  1  0  0  0  0
 38106  1  0  0  0  0
 38107  1  0  0  0  0
 39 40  1  0  0  0  0
 39108  1  0  0  0  0
 39109  1  0  0  0  0
 40 41  1  0  0  0  0
 40110  1  0  0  0  0
 40111  1  0  0  0  0
 41 42  1  0  0  0  0
 41112  1  0  0  0  0
 41113  1  0  0  0  0
 42 43  1  0  0  0  0
 42114  1  0  0  0  0
 42115  1  0  0  0  0
 43 44  1  0  0  0  0
 43116  1  0  0  0  0
 43117  1  0  0  0  0
 44 45  1  0  0  0  0
 44118  1  0  0  0  0
 44119  1  0  0  0  0
 45 46  1  0  0  0  0
 45120  1  0  0  0  0
 45121  1  0  0  0  0
 46 47  1  0  0  0  0
 46122  1  0  0  0  0
 46123  1  0  0  0  0
 47 48  1  0  0  0  0
 47124  1  0  0  0  0
 47125  1  0  0  0  0
 48 49  1  0  0  0  0
 48126  1  0  0  0  0
 48127  1  0  0  0  0
 49 50  1  0  0  0  0
 49128  1  0  0  0  0
 49129  1  0  0  0  0
 50 51  1  0  0  0  0
 50130  1  0  0  0  0
 50131  1  0  0  0  0
 51132  1  0  0  0  0
 51133  1  0  0  0  0
 51134  1  0  0  0  0
M  CHG  1  31   1
M  END
>  <DRUGBANK_ID>
DB04327

>  <SECONDARY_ACCESSION_NUMBERS>
EXPT02690

>  <COMMON_NAME>
Phosphatidylethanolamine

>  <UNII>
7CMB6B4449

$$$$
