
 OpenBabel10282417193D

 63 63  0  0  0  0  0  0  0  0999 V2000
    1.1837    0.2218    0.1930 C   0  0  0  0  0  0  0  0  0  0  0  0
    0.3550   -0.6497    1.1103 N   0  0  0  0  0  0  0  0  0  0  0  0
    2.3765    0.4037    0.4586 O   0  0  0  0  0  0  0  0  0  0  0  0
   -1.1590   -0.9899    1.2674 C   0  0  0  0  0  0  0  0  0  0  0  0
   -2.0465    0.2369    1.4667 C   0  0  3  0  0  0  0  0  0  0  0  0
   -1.7635    0.8112    0.1584 C   0  0  0  0  0  0  0  0  0  0  0  0
   -2.2565    0.1268   -0.9608 O   0  0  0  0  0  0  0  0  0  0  0  0
    1.0675   -1.1650    2.2652 C   0  0  0  0  0  0  0  0  0  0  0  0
   -3.4519    0.0770    1.4883 O   0  0  0  0  0  0  0  0  0  0  0  0
    0.7065    0.9813   -1.1596 C   0  0  0  0  0  0  0  0  0  0  0  0
    0.8248    0.3065   -2.3730 C   0  0  0  0  0  0  0  0  0  0  0  0
    0.1187    0.7920   -3.5401 C   0  0  0  0  0  0  0  0  0  0  0  0
   -0.9416    1.8048   -3.3392 C   0  0  0  0  0  0  0  0  0  0  0  0
   -1.1336    2.5524   -2.1049 C   0  0  0  0  0  0  0  0  0  0  0  0
   -0.0329    2.2630   -1.1643 C   0  0  0  0  0  0  0  0  0  0  0  0
   -2.2150    2.1176   -5.1414 I   0  0  0  0  0  0  0  0  0  0  0  0
    0.6250    3.4623    0.7213 I   0  0  0  0  0  0  0  0  0  0  0  0
    2.1839   -1.5650   -2.0999 I   0  0  0  0  0  0  0  0  0  0  0  0
   -2.6745    3.2541   -1.8290 C   0  0  0  0  0  0  0  0  0  0  0  0
   -3.3144    3.5518   -0.5596 N   0  0  0  0  0  0  0  0  0  0  0  0
   -4.6217    4.1653   -0.3962 C   0  0  0  0  0  0  0  0  0  0  0  0
   -5.6565    3.3475    0.4654 C   0  0  3  0  0  0  0  0  0  0  0  0
   -6.8633    4.2496    0.7091 C   0  0  0  0  0  0  0  0  0  0  0  0
   -7.4596    4.6719   -0.5045 O   0  0  0  0  0  0  0  0  0  0  0  0
   -3.4048    3.4721   -2.8027 O   0  0  0  0  0  0  0  0  0  0  0  0
   -2.7812    3.3859    0.7328 C   0  0  0  0  0  0  0  0  0  0  0  0
   -5.2223    2.9768    1.7898 O   0  0  0  0  0  0  0  0  0  0  0  0
    0.4086    0.3995   -4.9156 N   0  0  0  0  0  0  0  0  0  0  0  0
    1.5930   -0.1324   -5.2961 C   0  0  0  0  0  0  0  0  0  0  0  0
    1.9818   -0.5014   -6.6889 C   0  0  0  0  0  0  0  0  0  0  0  0
    3.4313    0.0454   -6.8402 C   0  0  0  0  0  0  0  0  0  0  0  0
    4.3857   -0.5475   -5.9428 O   0  0  0  0  0  0  0  0  0  0  0  0
    2.5027   -0.3287   -4.4593 O   0  0  0  0  0  0  0  0  0  0  0  0
    1.9999   -2.0308   -6.7715 C   0  0  0  0  0  0  0  0  0  0  0  0
    0.6870   -2.5522   -6.5830 O   0  0  0  0  0  0  0  0  0  0  0  0
   -1.4734   -1.5782    0.4002 H   0  0  0  0  0  0  0  0  0  0  0  0
   -1.3325   -1.6155    2.1466 H   0  0  0  0  0  0  0  0  0  0  0  0
   -1.6989    0.8620    2.3068 H   0  0  0  0  0  0  0  0  0  0  0  0
   -1.8842    1.8149   -0.0544 H   0  0  0  0  0  0  0  0  0  0  0  0
   -0.7345    0.9066    0.2792 H   0  0  0  0  0  0  0  0  0  0  0  0
   -1.5340   -0.3994   -1.3433 H   0  0  0  0  0  0  0  0  0  0  0  0
    0.7252   -0.6092    3.1458 H   0  0  0  0  0  0  0  0  0  0  0  0
    0.7952   -2.2196    2.3909 H   0  0  0  0  0  0  0  0  0  0  0  0
    2.1463   -1.0864    2.1752 H   0  0  0  0  0  0  0  0  0  0  0  0
   -3.7305    0.1330    0.5443 H   0  0  0  0  0  0  0  0  0  0  0  0
   -4.3891    5.0856    0.1629 H   0  0  0  0  0  0  0  0  0  0  0  0
   -5.0261    4.4606   -1.3611 H   0  0  0  0  0  0  0  0  0  0  0  0
   -5.9328    2.4281   -0.0588 H   0  0  0  0  0  0  0  0  0  0  0  0
   -7.6105    3.7212    1.3098 H   0  0  0  0  0  0  0  0  0  0  0  0
   -6.5620    5.1287    1.2963 H   0  0  0  0  0  0  0  0  0  0  0  0
   -6.8090    5.1990   -0.9991 H   0  0  0  0  0  0  0  0  0  0  0  0
   -3.0475    2.3659    0.9368 H   0  0  0  0  0  0  0  0  0  0  0  0
   -1.8204    3.7984    0.6140 H   0  0  0  0  0  0  0  0  0  0  0  0
   -3.2043    3.8469    1.6175 H   0  0  0  0  0  0  0  0  0  0  0  0
   -4.7431    2.1276    1.7483 H   0  0  0  0  0  0  0  0  0  0  0  0
   -0.1573    0.8490   -5.6433 H   0  0  0  0  0  0  0  0  0  0  0  0
    1.2975   -0.0535   -7.4179 H   0  0  0  0  0  0  0  0  0  0  0  0
    3.8130   -0.1537   -7.8394 H   0  0  0  0  0  0  0  0  0  0  0  0
    3.4529    1.1250   -6.6513 H   0  0  0  0  0  0  0  0  0  0  0  0
    4.0229   -0.4524   -5.0282 H   0  0  0  0  0  0  0  0  0  0  0  0
    2.3536   -2.3527   -7.7562 H   0  0  0  0  0  0  0  0  0  0  0  0
    2.6618   -2.4935   -6.0268 H   0  0  0  0  0  0  0  0  0  0  0  0
    0.4885   -2.4882   -5.6304 H   0  0  0  0  0  0  0  0  0  0  0  0
  1  2  1  0  0  0  0
  1  3  2  0  0  0  0
  2  8  1  0  0  0  0
  2  4  1  0  0  0  0
  4  5  1  0  0  0  0
  4 36  1  0  0  0  0
  4 37  1  0  0  0  0
  5  6  1  0  0  0  0
  5  9  1  0  0  0  0
  5 38  1  0  0  0  0
  6  7  1  0  0  0  0
  6 39  1  0  0  0  0
  6 40  1  0  0  0  0
  7 41  1  0  0  0  0
  8 42  1  0  0  0  0
  8 43  1  0  0  0  0
  8 44  1  0  0  0  0
  9 45  1  0  0  0  0
 10  1  1  0  0  0  0
 10 11  1  0  0  0  0
 11 18  1  0  0  0  0
 11 12  2  0  0  0  0
 12 13  1  0  0  0  0
 12 28  1  0  0  0  0
 13 14  2  0  0  0  0
 13 16  1  0  0  0  0
 14 19  1  0  0  0  0
 14 15  1  0  0  0  0
 15 10  2  0  0  0  0
 15 17  1  0  0  0  0
 19 20  1  0  0  0  0
 19 25  2  0  0  0  0
 20 21  1  0  0  0  0
 20 26  1  0  0  0  0
 21 22  1  0  0  0  0
 21 46  1  0  0  0  0
 21 47  1  0  0  0  0
 22 27  1  0  0  0  0
 22 23  1  0  0  0  0
 22 48  1  0  0  0  0
 23 24  1  0  0  0  0
 23 49  1  0  0  0  0
 23 50  1  0  0  0  0
 24 51  1  0  0  0  0
 26 52  1  0  0  0  0
 26 53  1  0  0  0  0
 26 54  1  0  0  0  0
 27 55  1  0  0  0  0
 28 29  1  0  0  0  0
 28 56  1  0  0  0  0
 29 30  1  0  0  0  0
 29 33  2  0  0  0  0
 30 31  1  0  0  0  0
 30 34  1  0  0  0  0
 30 57  1  0  0  0  0
 31 32  1  0  0  0  0
 31 58  1  0  0  0  0
 31 59  1  0  0  0  0
 32 60  1  0  0  0  0
 34 35  1  0  0  0  0
 34 61  1  0  0  0  0
 34 62  1  0  0  0  0
 35 63  1  0  0  0  0
M  END
>  <DRUGBANK_ID>
DB12407

>  <COMMON_NAME>
Iobitridol

>  <CAS_NUMBER>
136949-58-1

>  <UNII>
182ECH14UH

>  <SYNONYMS>
Iobitridol

$$$$
