
 OpenBabel10282417193D

 55 58  0  0  1  0  0  0  0  0999 V2000
    6.2178    4.1601    0.0975 C   0  0  0  0  0  0  0  0  0  0  0  0
    6.3921    3.4631   -1.2247 C   0  0  0  0  0  0  0  0  0  0  0  0
    7.4209    3.5604   -1.8864 O   0  0  0  0  0  0  0  0  0  0  0  0
    5.3431    2.7190   -1.6839 N   0  0  0  0  0  0  0  0  0  0  0  0
    4.0447    2.5372   -1.0539 C   0  0  0  0  0  0  0  0  0  0  0  0
    2.9005    3.0838   -1.9005 C   0  0  1  0  0  0  0  0  0  0  0  0
    2.9886    4.5734   -2.1772 C   0  0  0  0  0  0  0  0  0  0  0  0
    2.5867    4.6404   -3.5407 N   0  0  0  0  0  0  0  0  0  0  0  0
    2.6310    3.3993   -4.1349 C   0  0  0  0  0  0  0  0  0  0  0  0
    2.4936    3.1332   -5.3220 O   0  0  0  0  0  0  0  0  0  0  0  0
    2.8945    2.4476   -3.1895 O   0  0  0  0  0  0  0  0  0  0  0  0
    2.3804    5.8295   -4.2437 C   0  0  0  0  0  0  0  0  0  0  0  0
    1.1534    6.0256   -4.8824 C   0  0  0  0  0  0  0  0  0  0  0  0
    0.9366    7.1748   -5.6406 C   0  0  0  0  0  0  0  0  0  0  0  0
    1.9582    8.1241   -5.8036 C   0  0  0  0  0  0  0  0  0  0  0  0
    3.1768    7.9062   -5.1504 C   0  0  0  0  0  0  0  0  0  0  0  0
    3.3865    6.7868   -4.3502 C   0  0  0  0  0  0  0  0  0  0  0  0
    4.1816    8.7843   -5.2940 F   0  0  0  0  0  0  0  0  0  0  0  0
    1.7372    9.3053   -6.6344 C   0  0  0  0  0  0  0  0  0  0  0  0
    2.5063    9.5433   -7.7839 C   0  0  0  0  0  0  0  0  0  0  0  0
    2.2633   10.6618   -8.5785 C   0  0  0  0  0  0  0  0  0  0  0  0
    1.2391   11.5524   -8.2349 C   0  0  0  0  0  0  0  0  0  0  0  0
    0.4357   11.2894   -7.1232 C   0  0  0  0  0  0  0  0  0  0  0  0
    0.7177   10.2069   -6.3022 C   0  0  0  0  0  0  0  0  0  0  0  0
    1.0457   12.8327   -8.9906 C   0  0  0  0  0  0  0  0  0  0  0  0
   -0.2760   12.8868   -9.6072 N   0  0  0  0  0  0  0  0  0  0  0  0
   -0.4715   14.1158  -10.3596 C   0  0  0  0  0  0  0  0  0  0  0  0
    0.4829   14.2667  -11.4769 C   0  0  0  0  0  0  0  0  0  0  0  0
    1.0338   15.3817  -12.0624 C   0  0  0  0  0  0  0  0  0  0  0  0
    1.9272   15.0024  -13.0210 N   0  0  0  0  0  0  0  0  0  0  0  0
    1.9611   13.6774  -13.0517 N   0  0  0  0  0  0  0  0  0  0  0  0
    1.0861   13.2333  -12.1420 N   0  0  0  0  0  0  0  0  0  0  0  0
    7.1255    4.7141    0.3468 H   0  0  0  0  0  0  0  0  0  0  0  0
    6.0334    3.4242    0.8852 H   0  0  0  0  0  0  0  0  0  0  0  0
    5.3864    4.8686    0.0408 H   0  0  0  0  0  0  0  0  0  0  0  0
    5.5108    2.2612   -2.5773 H   0  0  0  0  0  0  0  0  0  0  0  0
    3.9253    1.4585   -0.9103 H   0  0  0  0  0  0  0  0  0  0  0  0
    4.0217    3.0134   -0.0721 H   0  0  0  0  0  0  0  0  0  0  0  0
    1.9490    2.8387   -1.4129 H   0  0  0  0  0  0  0  0  0  0  0  0
    3.9917    4.9888   -2.0502 H   0  0  0  0  0  0  0  0  0  0  0  0
    2.2899    5.1349   -1.5473 H   0  0  0  0  0  0  0  0  0  0  0  0
    0.3543    5.2946   -4.7812 H   0  0  0  0  0  0  0  0  0  0  0  0
   -0.0278    7.3150   -6.1268 H   0  0  0  0  0  0  0  0  0  0  0  0
    4.3597    6.6513   -3.8927 H   0  0  0  0  0  0  0  0  0  0  0  0
    3.3129    8.8650   -8.0570 H   0  0  0  0  0  0  0  0  0  0  0  0
    2.8875   10.8372   -9.4525 H   0  0  0  0  0  0  0  0  0  0  0  0
   -0.4006   11.9437   -6.8890 H   0  0  0  0  0  0  0  0  0  0  0  0
    0.1479   10.0787   -5.3855 H   0  0  0  0  0  0  0  0  0  0  0  0
    1.1823   13.6702   -8.2956 H   0  0  0  0  0  0  0  0  0  0  0  0
    1.8488   12.9112   -9.7296 H   0  0  0  0  0  0  0  0  0  0  0  0
   -0.4516   12.0631  -10.1742 H   0  0  0  0  0  0  0  0  0  0  0  0
   -1.4948   14.1375  -10.7500 H   0  0  0  0  0  0  0  0  0  0  0  0
   -0.3892   14.9718   -9.6767 H   0  0  0  0  0  0  0  0  0  0  0  0
    0.8497   16.4200  -11.8292 H   0  0  0  0  0  0  0  0  0  0  0  0
    1.0234   12.2362  -11.9677 H   0  0  0  0  0  0  0  0  0  0  0  0
  1  2  1  0  0  0  0
  1 33  1  0  0  0  0
  1 34  1  0  0  0  0
  1 35  1  0  0  0  0
  2  3  2  0  0  0  0
  2  4  1  0  0  0  0
  4  5  1  0  0  0  0
  4 36  1  0  0  0  0
  5 37  1  0  0  0  0
  5 38  1  0  0  0  0
  6  7  1  0  0  0  0
  6 11  1  0  0  0  0
  6 39  1  1  0  0  0
  6  5  1  0  0  0  0
  7  8  1  0  0  0  0
  7 40  1  0  0  0  0
  7 41  1  0  0  0  0
  8  9  1  0  0  0  0
  8 12  1  0  0  0  0
  9 10  2  0  0  0  0
  9 11  1  0  0  0  0
 12 13  2  0  0  0  0
 12 17  1  0  0  0  0
 13 14  1  0  0  0  0
 13 42  1  0  0  0  0
 14 15  2  0  0  0  0
 14 43  1  0  0  0  0
 15 16  1  0  0  0  0
 15 19  1  0  0  0  0
 16 17  2  0  0  0  0
 16 18  1  0  0  0  0
 17 44  1  0  0  0  0
 19 20  2  0  0  0  0
 19 24  1  0  0  0  0
 20 21  1  0  0  0  0
 20 45  1  0  0  0  0
 21 22  2  0  0  0  0
 21 46  1  0  0  0  0
 22 23  1  0  0  0  0
 22 25  1  0  0  0  0
 23 24  2  0  0  0  0
 23 47  1  0  0  0  0
 24 48  1  0  0  0  0
 25 26  1  0  0  0  0
 25 49  1  0  0  0  0
 25 50  1  0  0  0  0
 26 27  1  0  0  0  0
 26 51  1  0  0  0  0
 27 28  1  0  0  0  0
 27 52  1  0  0  0  0
 27 53  1  0  0  0  0
 28 29  2  0  0  0  0
 28 32  1  0  0  0  0
 29 30  1  0  0  0  0
 29 54  1  0  0  0  0
 30 31  2  0  0  0  0
 31 32  1  0  0  0  0
 32 55  1  0  0  0  0
M  END
>  <DRUGBANK_ID>
DB12339

>  <SECONDARY_ACCESSION_NUMBERS>
DB05963

>  <COMMON_NAME>
Radezolid

>  <CAS_NUMBER>
869884-78-6

>  <UNII>
53PC6LO35W

>  <SYNONYMS>
Radezolid

$$$$
