
 OpenBabel10282417123D

 30 30  0  0  0  0  0  0  0  0999 V2000
    0.7674    1.1367   -0.0084 C   0  0  0  0  0  0  0  0  0  0  0  0
    0.3600   -1.3566   -0.0686 C   0  0  0  0  0  0  0  0  0  0  0  0
    2.3819   -0.3852   -1.0730 C   0  0  0  0  0  0  0  0  0  0  0  0
   -0.5512    1.3546   -0.0319 C   0  0  0  0  0  0  0  0  0  0  0  0
   -0.9596   -1.1265   -0.0497 C   0  0  0  0  0  0  0  0  0  0  0  0
    3.5502    0.5917   -0.9177 C   0  0  0  0  0  0  0  0  0  0  0  0
    1.3637   -0.2475    0.0634 C   0  0  1  0  0  0  0  0  0  0  0  0
   -1.5441    0.2484    0.1300 C   0  0  3  0  0  0  0  0  0  0  0  0
    4.2248    0.4821    0.4564 C   0  0  1  0  0  0  0  0  0  0  0  0
    4.8946   -0.8899    0.6381 C   0  0  0  0  0  0  0  0  0  0  0  0
   -2.0597    0.3596    1.4879 N   0  0  0  0  0  0  0  0  0  0  0  0
    5.2133    1.5735    0.5658 N   0  0  0  0  0  0  0  0  0  0  0  0
    6.0999   -1.0983    0.7275 O   0  0  0  0  0  0  0  0  0  0  0  0
    4.0237   -1.9180    0.6884 O   0  0  0  0  0  0  0  0  0  0  0  0
    1.8135   -0.3762    1.0548 H   0  0  0  0  0  0  0  0  0  0  0  0
   -2.3417    0.3897   -0.6036 H   0  0  0  0  0  0  0  0  0  0  0  0
    3.5301    0.6377    1.2868 H   0  0  0  0  0  0  0  0  0  0  0  0
    1.4272    1.9983   -0.0579 H   0  0  0  0  0  0  0  0  0  0  0  0
    0.7455   -2.3687   -0.1701 H   0  0  0  0  0  0  0  0  0  0  0  0
    2.7612   -1.4110   -1.1315 H   0  0  0  0  0  0  0  0  0  0  0  0
    1.8905   -0.2236   -2.0410 H   0  0  0  0  0  0  0  0  0  0  0  0
   -0.9160    2.3722   -0.1313 H   0  0  0  0  0  0  0  0  0  0  0  0
   -1.6400   -1.9625   -0.1685 H   0  0  0  0  0  0  0  0  0  0  0  0
    4.2663    0.4138   -1.7273 H   0  0  0  0  0  0  0  0  0  0  0  0
    3.1902    1.6169   -1.0762 H   0  0  0  0  0  0  0  0  0  0  0  0
   -2.6950   -0.4114    1.6639 H   0  0  0  0  0  0  0  0  0  0  0  0
   -1.2704    0.2193    2.1222 H   0  0  0  0  0  0  0  0  0  0  0  0
    5.7047    1.4636    1.4538 H   0  0  0  0  0  0  0  0  0  0  0  0
    5.9245    1.4306   -0.1514 H   0  0  0  0  0  0  0  0  0  0  0  0
    4.5587   -2.7382    0.6600 H   0  0  0  0  0  0  0  0  0  0  0  0
  1 18  1  0  0  0  0
  2 19  1  0  0  0  0
  3 20  1  0  0  0  0
  3 21  1  0  0  0  0
  4  1  2  0  0  0  0
  4 22  1  0  0  0  0
  5  2  2  0  0  0  0
  5 23  1  0  0  0  0
  6  3  1  0  0  0  0
  6 24  1  0  0  0  0
  6 25  1  0  0  0  0
  7  1  1  0  0  0  0
  7  2  1  0  0  0  0
  7  3  1  0  0  0  0
  7 15  1  1  0  0  0
  8  4  1  0  0  0  0
  8  5  1  0  0  0  0
  9  6  1  0  0  0  0
  9 10  1  0  0  0  0
  9 12  1  0  0  0  0
  9 17  1  1  0  0  0
 11  8  1  0  0  0  0
 11 26  1  0  0  0  0
 11 27  1  0  0  0  0
 12 28  1  0  0  0  0
 12 29  1  0  0  0  0
 13 10  2  0  0  0  0
 14 10  1  0  0  0  0
 14 30  1  0  0  0  0
 16  8  1  0  0  0  0
M  END
>  <DRUGBANK_ID>
DB02725

>  <SECONDARY_ACCESSION_NUMBERS>
EXPT00424

>  <COMMON_NAME>
2-Amino-4-(4-Amino-Cyclohexa-2,5-Dienyl)-Butyric Acid

$$$$
