
 OpenBabel10282417203D

  3  0  0  0  0  0  0  0  0  0999 V2000
    0.7797    1.4930   -1.6817 Cl  0  5  0  0  0  0  0  0  0  0  0  0
    1.1993   -1.4606    1.7279 Cl  0  5  0  0  0  0  0  0  0  0  0  0
    0.9754    0.0668    0.0658 Fe  0  2  0  0  0  0  0  0  0  0  0  0
M  CHG  3   1  -1   2  -1   3   2
M  END
>  <DRUGBANK_ID>
DB13569

>  <COMMON_NAME>
Ferrous chloride

>  <CAS_NUMBER>
7758-94-3

>  <UNII>
S3Y25PHP1W

$$$$
