
 OpenBabel10282417123D

 87 89  0  0  0  0  0  0  0  0999 V2000
    2.3507   -4.4249   -0.9768 C   0  0  2  0  0  0  0  0  0  0  0  0
    2.5276   -2.5251   -1.2289 C   0  0  1  0  0  0  0  0  0  0  0  0
    2.9190   -5.2292   -2.0426 O   0  0  0  0  0  0  0  0  0  0  0  0
    2.5580   -1.7194   -2.4841 C   0  0  2  0  0  0  0  0  0  0  0  0
    2.6179   -4.8757   -3.4962 C   0  0  1  0  0  0  0  0  0  0  0  0
    2.3320   -2.9652   -4.1145 C   0  0  1  0  0  0  0  0  0  0  0  0
    0.9355   -4.7188   -0.5982 O   0  0  0  0  0  0  0  0  0  0  0  0
    2.0848   -1.8492   -0.2078 O   0  0  0  0  0  0  0  0  0  0  0  0
    3.6858   -0.2454   -3.1605 O   0  0  0  0  0  0  0  0  0  0  0  0
    2.0413   -2.6632   -5.4944 O   0  0  0  0  0  0  0  0  0  0  0  0
    3.1344   -5.9102   -4.9256 C   0  0  0  0  0  0  0  0  0  0  0  0
    2.9762   -7.1413   -4.3152 O   0  0  0  0  0  0  0  0  0  0  0  0
   -0.5394   -2.1311   -4.8369 C   0  0  2  0  0  0  0  0  0  0  0  0
   -1.3027   -1.2781   -3.3164 C   0  0  1  0  0  0  0  0  0  0  0  0
   -0.3622   -4.0268   -4.6956 O   0  0  0  0  0  0  0  0  0  0  0  0
   -1.2168   -2.1764   -1.3725 C   0  0  2  0  0  0  0  0  0  0  0  0
    0.1286   -4.8466   -3.1016 C   0  0  1  0  0  0  0  0  0  0  0  0
   -0.1981   -4.0587   -1.3513 C   0  0  1  0  0  0  0  0  0  0  0  0
    0.9490   -1.0836   -4.7284 O   0  0  0  0  0  0  0  0  0  0  0  0
   -0.7377    0.2209   -3.7545 O   0  0  0  0  0  0  0  0  0  0  0  0
   -1.1953   -1.2206   -0.3703 O   0  0  0  0  0  0  0  0  0  0  0  0
    0.4512   -6.2164   -2.7073 C   0  0  0  0  0  0  0  0  0  0  0  0
    0.5837   -6.7579   -3.9717 O   0  0  0  0  0  0  0  0  0  0  0  0
    3.9237   -2.7863   -0.0556 C   0  0  2  0  0  0  0  0  0  0  0  0
    3.6854   -0.7636   -0.5015 C   0  0  1  0  0  0  0  0  0  0  0  0
    4.4315   -3.4555   -1.6736 O   0  0  0  0  0  0  0  0  0  0  0  0
    2.3157   -0.0871   -2.0948 C   0  0  2  0  0  0  0  0  0  0  0  0
    3.6968   -2.8475   -3.0715 C   0  0  1  0  0  0  0  0  0  0  0  0
    2.5923   -1.1928   -3.9148 C   0  0  1  0  0  0  0  0  0  0  0  0
    2.2315   -3.3960    0.7593 O   0  0  0  0  0  0  0  0  0  0  0  0
    3.6581    0.3373    1.0853 O   0  0  0  0  0  0  0  0  0  0  0  0
    1.9277    1.3329   -2.7646 O   0  0  0  0  0  0  0  0  0  0  0  0
    4.1295   -3.9981   -4.3476 C   0  0  0  0  0  0  0  0  0  0  0  0
    4.7172   -5.2545   -3.5261 O   0  0  0  0  0  0  0  0  0  0  0  0
    1.9912   -0.1372    0.4355 C   0  0  2  0  0  0  0  0  0  0  0  0
    0.6820   -0.9105    0.9374 C   0  0  2  0  0  0  0  0  0  0  0  0
    0.5480   -2.6793    0.1056 C   0  0  1  0  0  0  0  0  0  0  0  0
    0.4924   -2.2243   -1.8966 C   0  0  1  0  0  0  0  0  0  0  0  0
   -0.5348   -2.9015   -2.9429 C   0  0  0  0  0  0  0  0  0  0  0  0
    2.9541    1.1492   -0.7184 C   0  0  0  0  0  0  0  0  0  0  0  0
   -0.1271    0.2300    0.7492 O   0  0  0  0  0  0  0  0  0  0  0  0
   -0.1077   -0.4770   -2.0236 O   0  0  0  0  0  0  0  0  0  0  0  0
   -1.7540   -3.6643   -2.8936 O   0  0  0  0  0  0  0  0  0  0  0  0
    4.0100    0.9296   -1.4660 O   0  0  0  0  0  0  0  0  0  0  0  0
    3.1710   -1.3122    1.4035 O   0  0  0  0  0  0  0  0  0  0  0  0
    2.9783   -4.8162   -0.0314 H   0  0  0  0  0  0  0  0  0  0  0  0
    3.6258   -2.0467   -1.5177 H   0  0  0  0  0  0  0  0  0  0  0  0
    1.3476   -1.1215   -2.9064 H   0  0  0  0  0  0  0  0  0  0  0  0
    1.8323   -5.4111   -3.7261 H   0  0  0  0  0  0  0  0  0  0  0  0
    3.6604   -2.3397   -4.4798 H   0  0  0  0  0  0  0  0  0  0  0  0
    1.9229   -2.2754    0.7627 H   0  0  0  0  0  0  0  0  0  0  0  0
    4.2110    0.4508   -2.7571 H   0  0  0  0  0  0  0  0  0  0  0  0
    1.2745   -2.1690   -5.2233 H   0  0  0  0  0  0  0  0  0  0  0  0
    2.3914   -5.5755   -5.7314 H   0  0  0  0  0  0  0  0  0  0  0  0
    4.2329   -5.6443   -5.2996 H   0  0  0  0  0  0  0  0  0  0  0  0
    3.1324   -6.8920   -3.3737 H   0  0  0  0  0  0  0  0  0  0  0  0
   -0.7567   -1.9131   -5.8556 H   0  0  0  0  0  0  0  0  0  0  0  0
   -2.3329   -1.4046   -3.2995 H   0  0  0  0  0  0  0  0  0  0  0  0
   -0.1458   -1.4620   -0.7796 H   0  0  0  0  0  0  0  0  0  0  0  0
    1.0192   -4.2897   -3.4602 H   0  0  0  0  0  0  0  0  0  0  0  0
   -0.9580   -4.4688   -0.7902 H   0  0  0  0  0  0  0  0  0  0  0  0
    0.2954    0.2906   -3.6407 H   0  0  0  0  0  0  0  0  0  0  0  0
   -1.8773   -1.0359    0.1932 H   0  0  0  0  0  0  0  0  0  0  0  0
    1.2993   -6.3279   -1.9598 H   0  0  0  0  0  0  0  0  0  0  0  0
   -0.4750   -6.2847   -2.2025 H   0  0  0  0  0  0  0  0  0  0  0  0
    0.5478   -6.0078   -4.6289 H   0  0  0  0  0  0  0  0  0  0  0  0
    4.6347   -3.3396    0.5264 H   0  0  0  0  0  0  0  0  0  0  0  0
    4.7343   -0.6062   -0.5643 H   0  0  0  0  0  0  0  0  0  0  0  0
    1.4011   -0.2838   -1.5248 H   0  0  0  0  0  0  0  0  0  0  0  0
    2.5505   -3.4776   -2.5585 H   0  0  0  0  0  0  0  0  0  0  0  0
    3.3081   -0.8454   -4.7407 H   0  0  0  0  0  0  0  0  0  0  0  0
    2.8999   -0.3118    1.7762 H   0  0  0  0  0  0  0  0  0  0  0  0
    2.8425    1.5581   -2.9980 H   0  0  0  0  0  0  0  0  0  0  0  0
    2.8874   -4.1873   -5.1110 H   0  0  0  0  0  0  0  0  0  0  0  0
    4.6478   -3.4696   -5.1005 H   0  0  0  0  0  0  0  0  0  0  0  0
    4.4406   -5.2320   -2.5557 H   0  0  0  0  0  0  0  0  0  0  0  0
    1.8696    0.9246    0.6922 H   0  0  0  0  0  0  0  0  0  0  0  0
    0.7520   -1.3755    1.9484 H   0  0  0  0  0  0  0  0  0  0  0  0
   -0.3914   -3.1517    0.5223 H   0  0  0  0  0  0  0  0  0  0  0  0
    1.2266   -2.4926   -2.5497 H   0  0  0  0  0  0  0  0  0  0  0  0
    0.2038   -2.8267   -3.6785 H   0  0  0  0  0  0  0  0  0  0  0  0
    0.2713   -3.3523   -2.8526 H   0  0  0  0  0  0  0  0  0  0  0  0
    1.7481    1.4566   -1.0356 H   0  0  0  0  0  0  0  0  0  0  0  0
   -0.0830    0.3145   -0.2442 H   0  0  0  0  0  0  0  0  0  0  0  0
   -1.1033   -0.3687   -1.7675 H   0  0  0  0  0  0  0  0  0  0  0  0
   -1.9215   -4.1252   -2.0545 H   0  0  0  0  0  0  0  0  0  0  0  0
    3.1161   -2.2352    1.2583 H   0  0  0  0  0  0  0  0  0  0  0  0
  1  2  1  0  0  0  0
  1  3  1  0  0  0  0
  1 46  1  1  0  0  0
  1  7  1  0  0  0  0
  2  4  1  0  0  0  0
  2  8  1  0  0  0  0
  2 47  1  1  0  0  0
  3  5  1  0  0  0  0
  4  6  1  0  0  0  0
  4  9  1  0  0  0  0
  4 48  1  1  0  0  0
  5  6  1  0  0  0  0
  5 11  1  0  0  0  0
  5 49  1  1  0  0  0
  6 10  1  0  0  0  0
  6 50  1  6  0  0  0
  8 51  1  0  0  0  0
  9 52  1  0  0  0  0
 10 53  1  0  0  0  0
 11 54  1  0  0  0  0
 11 55  1  0  0  0  0
 12 11  1  0  0  0  0
 12 56  1  0  0  0  0
 13 14  1  0  0  0  0
 13 15  1  0  0  0  0
 13 57  1  6  0  0  0
 13 19  1  0  0  0  0
 14 16  1  0  0  0  0
 14 20  1  0  0  0  0
 14 58  1  6  0  0  0
 15 17  1  0  0  0  0
 16 18  1  0  0  0  0
 16 21  1  0  0  0  0
 16 59  1  6  0  0  0
 17 18  1  0  0  0  0
 17 22  1  0  0  0  0
 17 60  1  6  0  0  0
 18  7  1  0  0  0  0
 18 61  1  1  0  0  0
 20 62  1  0  0  0  0
 21 63  1  0  0  0  0
 22 64  1  0  0  0  0
 22 65  1  0  0  0  0
 23 22  1  0  0  0  0
 23 66  1  0  0  0  0
 24 25  1  0  0  0  0
 24 26  1  0  0  0  0
 24 67  1  1  0  0  0
 24 30  1  0  0  0  0
 25 27  1  0  0  0  0
 25 31  1  0  0  0  0
 25 68  1  6  0  0  0
 26 28  1  0  0  0  0
 27 29  1  0  0  0  0
 27 32  1  0  0  0  0
 27 69  1  1  0  0  0
 28 29  1  0  0  0  0
 28 33  1  0  0  0  0
 28 70  1  1  0  0  0
 29 19  1  0  0  0  0
 29 71  1  6  0  0  0
 31 72  1  0  0  0  0
 32 73  1  0  0  0  0
 33 74  1  0  0  0  0
 33 75  1  0  0  0  0
 34 33  1  0  0  0  0
 34 76  1  0  0  0  0
 35 45  1  0  0  0  0
 35 77  1  1  0  0  0
 35 40  1  0  0  0  0
 35 36  1  0  0  0  0
 36 41  1  0  0  0  0
 36 78  1  1  0  0  0
 37 36  1  0  0  0  0
 37 30  1  0  0  0  0
 37 79  1  1  0  0  0
 38 37  1  0  0  0  0
 38 42  1  0  0  0  0
 38 80  1  6  0  0  0
 39 38  1  0  0  0  0
 39 81  1  0  0  0  0
 39 82  1  0  0  0  0
 40 83  1  0  0  0  0
 41 84  1  0  0  0  0
 42 85  1  0  0  0  0
 43 39  1  0  0  0  0
 43 86  1  0  0  0  0
 44 40  2  0  0  0  0
 45 87  1  0  0  0  0
M  END
>  <DRUGBANK_ID>
DB02237

>  <SECONDARY_ACCESSION_NUMBERS>
EXPT02252

>  <COMMON_NAME>
Maltotetraose

>  <CAS_NUMBER>
34612-38-9

>  <UNII>
BO88JLT87R

>  <SYNONYMS>
alpha-1,4-tetraglucose; Amylotetraose

$$$$
