
 OpenBabel10282417173D

 29 29  0  0  0  0  0  0  0  0999 V2000
    1.2267   -0.0568    0.1289 C   0  0  0  0  0  0  0  0  0  0  0  0
    0.5521    1.0895    0.8673 C   0  0  0  0  0  0  0  0  0  0  0  0
    0.3719    2.5421   -1.2419 C   0  0  0  0  0  0  0  0  0  0  0  0
   -3.3356    1.4334   -1.4133 C   0  0  0  0  0  0  0  0  0  0  0  0
    0.8959    2.4282    0.2177 C   0  0  3  0  0  0  0  0  0  0  0  0
   -1.1430    2.5360   -1.3894 C   0  0  0  0  0  0  0  0  0  0  0  0
   -1.9415    1.3615   -1.4655 C   0  0  0  0  0  0  0  0  0  0  0  0
   -3.9813    2.6544   -1.3569 C   0  0  0  0  0  0  0  0  0  0  0  0
   -1.8486    3.7763   -1.3430 C   0  0  0  0  0  0  0  0  0  0  0  0
   -3.2600    3.8472   -1.2843 C   0  0  0  0  0  0  0  0  0  0  0  0
    0.4669    3.5669    1.1239 C   0  0  0  0  0  0  0  0  0  0  0  0
   -1.3999   -0.6571   -1.8377 I   0  0  0  0  0  0  0  0  0  0  0  0
   -6.0686    2.6086   -1.5370 I   0  0  0  0  0  0  0  0  0  0  0  0
   -0.8180    5.7155   -1.4172 I   0  0  0  0  0  0  0  0  0  0  0  0
   -3.9245    5.0614   -1.1762 N   0  0  0  0  0  0  0  0  0  0  0  0
    1.2090    4.4290    1.5878 O   0  0  0  0  0  0  0  0  0  0  0  0
   -0.8525    3.6005    1.3793 O   0  0  0  0  0  0  0  0  0  0  0  0
    1.1136    0.0216   -0.9521 H   0  0  0  0  0  0  0  0  0  0  0  0
    0.8016   -1.0123    0.4452 H   0  0  0  0  0  0  0  0  0  0  0  0
    2.3041   -0.0647    0.2856 H   0  0  0  0  0  0  0  0  0  0  0  0
   -0.5368    0.9636    0.8953 H   0  0  0  0  0  0  0  0  0  0  0  0
    0.8685    1.0685    1.9152 H   0  0  0  0  0  0  0  0  0  0  0  0
    0.8054    3.4464   -1.6822 H   0  0  0  0  0  0  0  0  0  0  0  0
    0.8012    1.7696   -1.8866 H   0  0  0  0  0  0  0  0  0  0  0  0
   -3.9288    0.5219   -1.4535 H   0  0  0  0  0  0  0  0  0  0  0  0
    1.9939    2.4952    0.1765 H   0  0  0  0  0  0  0  0  0  0  0  0
   -3.3999    5.9201   -1.0769 H   0  0  0  0  0  0  0  0  0  0  0  0
   -4.9338    5.0715   -1.1198 H   0  0  0  0  0  0  0  0  0  0  0  0
   -1.0310    4.4767    1.7820 H   0  0  0  0  0  0  0  0  0  0  0  0
  1 18  1  0  0  0  0
  1 19  1  0  0  0  0
  1 20  1  0  0  0  0
  2  1  1  0  0  0  0
  2 21  1  0  0  0  0
  2 22  1  0  0  0  0
  3 23  1  0  0  0  0
  3 24  1  0  0  0  0
  4 25  1  0  0  0  0
  5  2  1  0  0  0  0
  5  3  1  0  0  0  0
  5 26  1  0  0  0  0
  6  3  1  0  0  0  0
  7  4  2  0  0  0  0
  7  6  1  0  0  0  0
  8  4  1  0  0  0  0
  9  6  2  0  0  0  0
 10  8  2  0  0  0  0
 10  9  1  0  0  0  0
 11  5  1  0  0  0  0
 12  7  1  0  0  0  0
 13  8  1  0  0  0  0
 14  9  1  0  0  0  0
 15 10  1  0  0  0  0
 15 27  1  0  0  0  0
 15 28  1  0  0  0  0
 16 11  2  0  0  0  0
 17 11  1  0  0  0  0
 17 29  1  0  0  0  0
M  END
>  <DRUGBANK_ID>
DB08946

>  <COMMON_NAME>
Iopanoic acid

>  <CAS_NUMBER>
96-83-3

>  <UNII>
FE9794P71J

>  <SYNONYMS>
Acidum iopanoicum; Iodopanoic acid; Iopanoic acid

$$$$
