675
 OpenBabel10282417123D

 37 39  0  0  0  0  0  0  0  0999 V2000
    1.0472    0.0443    0.1324 N   0  0  0  0  0  0  0  0  0  0  0  0
    0.4211    0.7831   -0.7201 C   0  0  0  0  0  0  0  0  0  0  0  0
    1.0948    1.5306   -1.6431 N   0  0  0  0  0  0  0  0  0  0  0  0
   -1.0647    0.7880   -0.6920 C   0  0  0  0  0  0  0  0  0  0  0  0
   -1.7605    0.7585    0.5210 C   0  0  0  0  0  0  0  0  0  0  0  0
   -3.1630    0.7691    0.5405 C   0  0  0  0  0  0  0  0  0  0  0  0
   -3.8905    0.8401   -0.6536 C   0  0  0  0  0  0  0  0  0  0  0  0
   -5.3079    0.9028   -0.6882 C   0  0  0  0  0  0  0  0  0  0  0  0
   -5.9784    1.0937   -1.9019 C   0  0  0  0  0  0  0  0  0  0  0  0
   -5.1802    1.3223   -3.0206 C   0  0  0  0  0  0  0  0  0  0  0  0
   -3.8240    1.0443   -3.0553 C   0  0  0  0  0  0  0  0  0  0  0  0
   -3.1571    0.8653   -1.8664 C   0  0  0  0  0  0  0  0  0  0  0  0
   -1.7638    0.8074   -1.8908 C   0  0  0  0  0  0  0  0  0  0  0  0
   -7.4919    1.0752   -1.9657 C   0  0  0  0  0  0  0  0  0  0  0  0
   -8.1299    1.0766   -0.9194 O   0  0  0  0  0  0  0  0  0  0  0  0
   -8.1950    1.1136   -3.1745 N   0  0  0  0  0  0  0  0  0  0  0  0
   -7.7390    0.9106   -4.4896 C   0  0  0  0  0  0  0  0  0  0  0  0
   -6.8177   -0.1029   -4.7802 C   0  0  0  0  0  0  0  0  0  0  0  0
   -6.1001   -0.0780   -5.9764 C   0  0  0  0  0  0  0  0  0  0  0  0
   -6.4293    0.8481   -6.9603 C   0  0  0  0  0  0  0  0  0  0  0  0
   -7.4685    1.7547   -6.7406 C   0  0  0  0  0  0  0  0  0  0  0  0
   -8.0968    1.8197   -5.4899 C   0  0  0  0  0  0  0  0  0  0  0  0
    2.0529    0.1015   -0.0259 H   0  0  0  0  0  0  0  0  0  0  0  0
    0.6124    2.2894   -2.1140 H   0  0  0  0  0  0  0  0  0  0  0  0
    2.0912    1.6716   -1.5350 H   0  0  0  0  0  0  0  0  0  0  0  0
   -1.2087    0.7355    1.4565 H   0  0  0  0  0  0  0  0  0  0  0  0
   -3.6813    0.7481    1.4957 H   0  0  0  0  0  0  0  0  0  0  0  0
   -5.8779    0.8525    0.2391 H   0  0  0  0  0  0  0  0  0  0  0  0
   -5.5879    1.7093   -3.9400 H   0  0  0  0  0  0  0  0  0  0  0  0
   -3.3134    1.0486   -4.0145 H   0  0  0  0  0  0  0  0  0  0  0  0
   -1.2260    0.7987   -2.8360 H   0  0  0  0  0  0  0  0  0  0  0  0
   -9.1752    1.3486   -3.0596 H   0  0  0  0  0  0  0  0  0  0  0  0
   -6.5330   -0.8168   -4.0102 H   0  0  0  0  0  0  0  0  0  0  0  0
   -5.2494   -0.7429   -6.1038 H   0  0  0  0  0  0  0  0  0  0  0  0
   -5.8667    0.8713   -7.8905 H   0  0  0  0  0  0  0  0  0  0  0  0
   -7.7526    2.4432   -7.5330 H   0  0  0  0  0  0  0  0  0  0  0  0
   -8.7722    2.6479   -5.2859 H   0  0  0  0  0  0  0  0  0  0  0  0
  1  2  2  0  0  0  0
  1 23  1  0  0  0  0
  2  3  1  0  0  0  0
  2  4  1  0  0  0  0
  3 24  1  0  0  0  0
  3 25  1  0  0  0  0
  4  5  2  0  0  0  0
  4 13  1  0  0  0  0
  5  6  1  0  0  0  0
  5 26  1  0  0  0  0
  6  7  2  0  0  0  0
  6 27  1  0  0  0  0
  7  8  1  0  0  0  0
  7 12  1  0  0  0  0
  8  9  2  0  0  0  0
  8 28  1  0  0  0  0
  9 10  1  0  0  0  0
  9 14  1  0  0  0  0
 10 11  2  0  0  0  0
 10 29  1  0  0  0  0
 11 12  1  0  0  0  0
 11 30  1  0  0  0  0
 12 13  2  0  0  0  0
 13 31  1  0  0  0  0
 14 15  2  0  0  0  0
 14 16  1  0  0  0  0
 16 17  1  0  0  0  0
 16 32  1  0  0  0  0
 17 18  2  0  0  0  0
 17 22  1  0  0  0  0
 18 19  1  0  0  0  0
 18 33  1  0  0  0  0
 19 20  2  0  0  0  0
 19 34  1  0  0  0  0
 20 21  1  0  0  0  0
 20 35  1  0  0  0  0
 21 22  2  0  0  0  0
 21 36  1  0  0  0  0
 22 37  1  0  0  0  0
M  END
>  <DRUGBANK_ID>
DB01977

>  <SECONDARY_ACCESSION_NUMBERS>
EXPT00275

>  <COMMON_NAME>
6-(N-Phenylcarbamyl)-2-Naphthalenecarboxamidine

$$$$
