GMG
 OpenBabel10282417163D

 47 51  0  0  0  0  0  0  0  0999 V2000
   -1.2210    1.3929    0.0030 C   0  0  0  0  0  0  0  0  0  0  0  0
    4.9174    4.1340    5.2262 C   0  0  0  0  0  0  0  0  0  0  0  0
    4.6225    6.3240    4.2518 C   0  0  0  0  0  0  0  0  0  0  0  0
    1.2231   -1.3955    0.0051 C   0  0  0  0  0  0  0  0  0  0  0  0
    5.4306    3.6714    4.0118 C   0  0  0  0  0  0  0  0  0  0  0  0
    2.4333   -0.6957   -0.0263 C   0  0  0  0  0  0  0  0  0  0  0  0
    7.1052    4.3781    0.9409 C   0  0  0  0  0  0  0  0  0  0  0  0
    4.1940    6.0492    6.7216 C   0  0  0  0  0  0  0  0  0  0  0  0
   -0.0017   -0.7108    0.0165 C   0  0  0  0  0  0  0  0  0  0  0  0
    2.4528    0.7045   -0.0162 C   0  0  0  0  0  0  0  0  0  0  0  0
    3.7169    1.4454   -0.0628 C   0  0  0  0  0  0  0  0  0  0  0  0
    5.2811    3.0417    0.8448 C   0  0  0  0  0  0  0  0  0  0  0  0
    6.0466    2.8238   -0.2918 C   0  0  0  0  0  0  0  0  0  0  0  0
   -2.4364   -0.6911   -0.0037 C   0  0  0  0  0  0  0  0  0  0  0  0
   -2.4321    0.7005   -0.0114 C   0  0  0  0  0  0  0  0  0  0  0  0
   -1.2295   -1.3934    0.0144 C   0  0  0  0  0  0  0  0  0  0  0  0
    5.1752    5.8719    3.0513 C   0  0  0  0  0  0  0  0  0  0  0  0
    1.2259    1.3880    0.0262 C   0  0  0  0  0  0  0  0  0  0  0  0
    4.0744    2.3303    0.9615 C   0  0  0  0  0  0  0  0  0  0  0  0
    4.6033    1.3213   -1.1387 C   0  0  0  0  0  0  0  0  0  0  0  0
    4.5504    5.4783    5.3688 C   0  0  0  0  0  0  0  0  0  0  0  0
    5.5666    4.5387    2.9215 C   0  0  0  0  0  0  0  0  0  0  0  0
    0.0006    0.7013    0.0195 C   0  0  0  0  0  0  0  0  0  0  0  0
    5.9704    4.0066    1.6362 C   0  0  0  0  0  0  0  0  0  0  0  0
    5.2073    7.0945    7.1614 C   0  0  0  0  0  0  0  0  0  0  0  0
    7.1468    3.6349   -0.2163 N   0  0  0  0  0  0  0  0  0  0  0  0
    5.7794    1.9828   -1.3072 N   0  0  0  0  0  0  0  0  0  0  0  0
    4.6936    8.3231    7.3983 O   0  0  0  0  0  0  0  0  0  0  0  0
    6.4066    6.8722    7.2936 O   0  0  0  0  0  0  0  0  0  0  0  0
   -1.2366    2.4804   -0.0122 H   0  0  0  0  0  0  0  0  0  0  0  0
    4.8264    3.4361    6.0558 H   0  0  0  0  0  0  0  0  0  0  0  0
    4.2739    7.3520    4.3142 H   0  0  0  0  0  0  0  0  0  0  0  0
    1.2468   -2.4830    0.0097 H   0  0  0  0  0  0  0  0  0  0  0  0
    5.7363    2.6308    3.9214 H   0  0  0  0  0  0  0  0  0  0  0  0
    3.3661   -1.2561   -0.0498 H   0  0  0  0  0  0  0  0  0  0  0  0
    7.8917    5.0860    1.1676 H   0  0  0  0  0  0  0  0  0  0  0  0
    3.1791    6.4608    6.7006 H   0  0  0  0  0  0  0  0  0  0  0  0
    4.1958    5.2664    7.4905 H   0  0  0  0  0  0  0  0  0  0  0  0
   -3.3792   -1.2315   -0.0173 H   0  0  0  0  0  0  0  0  0  0  0  0
   -3.3701    1.2490   -0.0307 H   0  0  0  0  0  0  0  0  0  0  0  0
   -1.2550   -2.4807    0.0187 H   0  0  0  0  0  0  0  0  0  0  0  0
    5.2860    6.5644    2.2210 H   0  0  0  0  0  0  0  0  0  0  0  0
    1.2260    2.4772    0.0439 H   0  0  0  0  0  0  0  0  0  0  0  0
    3.4359    2.4760    1.8278 H   0  0  0  0  0  0  0  0  0  0  0  0
    4.3621    0.6486   -1.9609 H   0  0  0  0  0  0  0  0  0  0  0  0
    7.8623    3.6683   -0.9276 H   0  0  0  0  0  0  0  0  0  0  0  0
    3.7339    8.4204    7.2599 H   0  0  0  0  0  0  0  0  0  0  0  0
  1 30  1  0  0  0  0
  2  5  2  0  0  0  0
  2 21  1  0  0  0  0
  2 31  1  0  0  0  0
  3 17  1  0  0  0  0
  3 32  1  0  0  0  0
  4  9  2  0  0  0  0
  4  6  1  0  0  0  0
  4 33  1  0  0  0  0
  5 22  1  0  0  0  0
  5 34  1  0  0  0  0
  6 10  2  0  0  0  0
  6 35  1  0  0  0  0
  7 26  1  0  0  0  0
  7 36  1  0  0  0  0
  8 21  1  0  0  0  0
  8 37  1  0  0  0  0
  8 38  1  0  0  0  0
  9 23  1  0  0  0  0
 10 18  1  0  0  0  0
 10 11  1  0  0  0  0
 11 19  1  0  0  0  0
 11 20  2  0  0  0  0
 12 24  1  0  0  0  0
 12 13  1  0  0  0  0
 13 27  2  0  0  0  0
 13 26  1  0  0  0  0
 14 15  1  0  0  0  0
 14 39  1  0  0  0  0
 15  1  2  0  0  0  0
 15 40  1  0  0  0  0
 16  9  1  0  0  0  0
 16 14  2  0  0  0  0
 16 41  1  0  0  0  0
 17 42  1  0  0  0  0
 18 43  1  0  0  0  0
 19 12  2  0  0  0  0
 19 44  1  0  0  0  0
 20 27  1  0  0  0  0
 20 45  1  0  0  0  0
 21  3  2  0  0  0  0
 22 17  2  0  0  0  0
 22 24  1  0  0  0  0
 23  1  1  0  0  0  0
 23 18  2  0  0  0  0
 24  7  2  0  0  0  0
 25  8  1  0  0  0  0
 25 28  1  0  0  0  0
 26 46  1  0  0  0  0
 28 47  1  0  0  0  0
 29 25  2  0  0  0  0
M  END
>  <DRUGBANK_ID>
DB07837

>  <COMMON_NAME>
[4-(5-naphthalen-2-yl-1H-pyrrolo[2,3-b]pyridin-3-yl)phenyl]acetic acid

$$$$
