
 OpenBabel10282417193D

 51 54  0  0  1  0  0  0  0  0999 V2000
   -1.1685    0.7783    1.0306 O   0  0  0  0  0  0  0  0  0  0  0  0
    2.0000    5.0951   -3.1758 O   0  0  0  0  0  0  0  0  0  0  0  0
   -1.1854   -4.1398    4.8813 O   0  0  0  0  0  0  0  0  0  0  0  0
   -0.3640   -1.3700    5.7934 O   0  0  0  0  0  0  0  0  0  0  0  0
   -1.6747    2.5807    7.1038 O   0  0  0  0  0  0  0  0  0  0  0  0
    2.8514    5.9120   -0.7486 O   0  0  0  0  0  0  0  0  0  0  0  0
    0.5653    2.5291   -3.3347 O   0  0  0  0  0  0  0  0  0  0  0  0
   -3.3440   -4.4943    3.2280 O   0  0  0  0  0  0  0  0  0  0  0  0
    0.6237   -2.2964    4.0399 O   0  0  0  0  0  0  0  0  0  0  0  0
    0.3462    2.6526    2.6792 O   0  0  0  0  0  0  0  0  0  0  0  0
   -3.4147    0.4305    0.8185 O   0  0  0  0  0  0  0  0  0  0  0  0
    0.3212    0.6372    1.2942 C   0  0  1  0  0  0  0  0  0  0  0  0
    0.9827    1.9889    1.5479 C   0  0  1  0  0  0  0  0  0  0  0  0
    0.8078   -0.1623    2.5266 C   0  0  0  0  0  0  0  0  0  0  0  0
   -2.3009    0.0153    1.2115 C   0  0  0  0  0  0  0  0  0  0  0  0
    1.7127    4.2980   -2.1021 C   0  0  0  0  0  0  0  0  0  0  0  0
   -1.4198   -3.3456    3.7975 C   0  0  0  0  0  0  0  0  0  0  0  0
   -0.2866   -0.0578    5.2917 C   0  0  0  0  0  0  0  0  0  0  0  0
   -1.1165    1.9574    6.0323 C   0  0  0  0  0  0  0  0  0  0  0  0
    1.0214    3.1008   -2.1818 C   0  0  0  0  0  0  0  0  0  0  0  0
    2.1555    4.7373   -0.8506 C   0  0  0  0  0  0  0  0  0  0  0  0
   -0.6799   -2.2735    3.5719 C   0  0  0  0  0  0  0  0  0  0  0  0
   -2.5409   -3.4292    2.9911 C   0  0  0  0  0  0  0  0  0  0  0  0
    0.1208    1.9166    3.8414 C   0  0  0  0  0  0  0  0  0  0  0  0
    0.3595    0.5444    4.0000 C   0  0  0  0  0  0  0  0  0  0  0  0
    1.1689    2.8249    0.2688 C   0  0  0  0  0  0  0  0  0  0  0  0
   -2.2168   -1.2629    1.9909 C   0  0  0  0  0  0  0  0  0  0  0  0
   -1.0959    0.6185    6.1783 C   0  0  0  0  0  0  0  0  0  0  0  0
   -0.5489    2.5976    4.9017 C   0  0  0  0  0  0  0  0  0  0  0  0
    1.9088    4.0135    0.3192 C   0  0  0  0  0  0  0  0  0  0  0  0
    0.7524    2.3825   -1.0118 C   0  0  0  0  0  0  0  0  0  0  0  0
   -2.8879   -2.4525    2.0014 C   0  0  0  0  0  0  0  0  0  0  0  0
   -1.4315   -1.1768    3.0779 C   0  0  0  0  0  0  0  0  0  0  0  0
    1.6052    4.7232   -3.9768 H   0  0  0  0  0  0  0  0  0  0  0  0
   -0.4672   -3.7388    5.4230 H   0  0  0  0  0  0  0  0  0  0  0  0
   -1.3255   -1.6386    5.7886 H   0  0  0  0  0  0  0  0  0  0  0  0
   -1.3856    3.5008    7.0980 H   0  0  0  0  0  0  0  0  0  0  0  0
    2.8717    6.2723   -1.6569 H   0  0  0  0  0  0  0  0  0  0  0  0
    0.7441    3.0733   -4.1103 H   0  0  0  0  0  0  0  0  0  0  0  0
   -2.8895   -4.9371    3.9775 H   0  0  0  0  0  0  0  0  0  0  0  0
    0.6590   -2.0150    4.9872 H   0  0  0  0  0  0  0  0  0  0  0  0
    0.7238    0.1642    0.3811 H   0  0  0  0  0  0  0  0  0  0  0  0
    2.0202    1.7907    1.8626 H   0  0  0  0  0  0  0  0  0  0  0  0
    0.4376   -1.1165    2.1429 H   0  0  0  0  0  0  0  0  0  0  0  0
    1.8788   -0.3856    2.5142 H   0  0  0  0  0  0  0  0  0  0  0  0
   -1.6295    0.1147    6.9924 H   0  0  0  0  0  0  0  0  0  0  0  0
   -0.6724    3.6691    4.8249 H   0  0  0  0  0  0  0  0  0  0  0  0
    2.3073    4.3786    1.2623 H   0  0  0  0  0  0  0  0  0  0  0  0
    0.2036    1.4544   -1.1519 H   0  0  0  0  0  0  0  0  0  0  0  0
   -3.7197   -2.5932    1.3348 H   0  0  0  0  0  0  0  0  0  0  0  0
   -1.3726   -0.1237    3.2885 H   0  0  0  0  0  0  0  0  0  0  0  0
  1 15  1  0  0  0  0
  2 16  1  0  0  0  0
  2 34  1  0  0  0  0
  3 17  1  0  0  0  0
  3 35  1  0  0  0  0
  4 18  1  0  0  0  0
  4 36  1  0  0  0  0
  5 19  1  0  0  0  0
  5 37  1  0  0  0  0
  6 21  1  0  0  0  0
  6 38  1  0  0  0  0
  7 20  1  0  0  0  0
  7 39  1  0  0  0  0
  8 23  1  0  0  0  0
  8 40  1  0  0  0  0
  9 22  1  0  0  0  0
  9 41  1  0  0  0  0
 10 13  1  0  0  0  0
 10 24  1  0  0  0  0
 11 15  2  0  0  0  0
 12 13  1  0  0  0  0
 12 14  1  0  0  0  0
 12 42  1  6  0  0  0
 12  1  1  0  0  0  0
 13 43  1  1  0  0  0
 13 26  1  0  0  0  0
 14 25  1  0  0  0  0
 14 44  1  0  0  0  0
 14 45  1  0  0  0  0
 15 27  1  0  0  0  0
 16 20  2  0  0  0  0
 16 21  1  0  0  0  0
 17 22  2  0  0  0  0
 17 23  1  0  0  0  0
 18 25  2  0  0  0  0
 18 28  1  0  0  0  0
 19 28  2  0  0  0  0
 19 29  1  0  0  0  0
 20 31  1  0  0  0  0
 21 30  2  0  0  0  0
 22 33  1  0  0  0  0
 23 32  2  0  0  0  0
 24 25  1  0  0  0  0
 24 29  2  0  0  0  0
 26 30  1  0  0  0  0
 26 31  2  0  0  0  0
 27 32  1  0  0  0  0
 27 33  2  0  0  0  0
 28 46  1  0  0  0  0
 29 47  1  0  0  0  0
 30 48  1  0  0  0  0
 31 49  1  0  0  0  0
 32 50  1  0  0  0  0
 33 51  1  0  0  0  0
M  END
>  <DRUGBANK_ID>
DB12116

>  <COMMON_NAME>
Epigallocatechin gallate

>  <CAS_NUMBER>
989-51-5

>  <UNII>
BQM438CTEL

>  <SYNONYMS>
EGCG; Epigallocatechin gallate; Epigallocatechin-3-gallate

$$$$
