
 OpenBabel10282417213D

 23 20  0  0  0  0  0  0  0  0999 V2000
    3.0840    1.3989   -1.1092 Mg  0  2  0  0  0  0  0  0  0  0  0  0
    1.7612    0.9346    0.0702 O   0  0  0  0  0  0  0  0  0  0  0  0
    0.5926    1.3426   -0.8791 C   0  0  3  0  0  0  0  0  0  0  0  0
    1.0011    2.8171   -1.0223 C   0  0  0  0  0  0  0  0  0  0  0  0
    2.1578    2.7788   -1.6325 O   0  5  0  0  0  0  0  0  0  0  0  0
    0.6748    3.5876   -0.0779 O   0  0  0  0  0  0  0  0  0  0  0  0
    0.8120    0.6349   -2.2798 C   0  0  0  0  0  0  0  0  0  0  0  0
    0.6192   -0.9028   -0.0573 O   0  0  0  0  0  0  0  0  0  0  0  0
    0.2261   -2.2528   -0.0010 C   0  0  3  0  0  0  0  0  0  0  0  0
    0.9553   -2.8859   -1.2395 C   0  0  0  0  0  0  0  0  0  0  0  0
    2.1469   -3.2743   -0.9603 O   0  5  0  0  0  0  0  0  0  0  0  0
    0.4713   -2.6360   -2.3620 O   0  0  0  0  0  0  0  0  0  0  0  0
    0.8127   -2.5308    1.3700 C   0  0  0  0  0  0  0  0  0  0  0  0
    1.3748    0.4665    0.8684 H   0  0  0  0  0  0  0  0  0  0  0  0
   -0.4335    1.1694   -0.4966 H   0  0  0  0  0  0  0  0  0  0  0  0
    0.2064   -0.2654   -2.4079 H   0  0  0  0  0  0  0  0  0  0  0  0
    0.5440    1.2770   -3.1248 H   0  0  0  0  0  0  0  0  0  0  0  0
    1.8440    0.2888   -2.4481 H   0  0  0  0  0  0  0  0  0  0  0  0
    1.5899   -1.0143   -0.0510 H   0  0  0  0  0  0  0  0  0  0  0  0
   -0.8661   -2.2417   -0.0399 H   0  0  0  0  0  0  0  0  0  0  0  0
    0.4525   -1.7861    2.0979 H   0  0  0  0  0  0  0  0  0  0  0  0
    0.6121   -3.5390    1.6981 H   0  0  0  0  0  0  0  0  0  0  0  0
    1.9046   -2.3668    1.3628 H   0  0  0  0  0  0  0  0  0  0  0  0
  2 14  1  0  0  0  0
  3  2  1  0  0  0  0
  3 15  1  0  0  0  0
  4  3  1  0  0  0  0
  4  5  1  0  0  0  0
  4  6  2  0  0  0  0
  7  3  1  0  0  0  0
  7 16  1  0  0  0  0
  7 17  1  0  0  0  0
  7 18  1  0  0  0  0
  8 19  1  0  0  0  0
  9  8  1  0  0  0  0
  9 20  1  0  0  0  0
 10  9  1  0  0  0  0
 10 11  1  0  0  0  0
 10 12  2  0  0  0  0
 13  9  1  0  0  0  0
 13 21  1  0  0  0  0
 13 22  1  0  0  0  0
 13 23  1  0  0  0  0
M  CHG  3   1   2   5  -1  11  -1
M  END
>  <DRUGBANK_ID>
DB14515

>  <SECONDARY_ACCESSION_NUMBERS>
DBSALT002535

>  <COMMON_NAME>
Magnesium lactate

>  <CAS_NUMBER>
18917-93-6

>  <UNII>
MT6QI8324A

>  <SYNONYMS>
Magnesium DL-lactate; Magnesium lactate anhydrous; Magnesium lactate, anhydrous

$$$$
