
 OpenBabel10282417143D

 31 32  0  0  1  0  0  0  0  0999 V2000
    1.1527   -0.8260   -0.3517 C   0  0  2  0  0  0  0  0  0  0  0  0
    2.3785   -1.6102   -0.2135 N   0  0  0  0  0  0  0  0  0  0  0  0
    1.3861    0.5704   -0.1859 O   0  0  0  0  0  0  0  0  0  0  0  0
   -0.0122   -1.2343    0.5349 C   0  0  0  0  0  0  0  0  0  0  0  0
    3.0951   -1.6764    0.9804 C   0  0  0  0  0  0  0  0  0  0  0  0
    2.6800   -2.4437   -1.2683 C   0  0  0  0  0  0  0  0  0  0  0  0
    0.2164    1.1425    0.4445 C   0  0  1  0  0  0  0  0  0  0  0  0
   -0.8371    0.0319    0.5418 C   0  0  1  0  0  0  0  0  0  0  0  0
    4.1518   -2.5679    0.9746 N   0  0  0  0  0  0  0  0  0  0  0  0
    2.8254   -1.0459    1.9991 O   0  0  0  0  0  0  0  0  0  0  0  0
    3.5379   -3.4600   -1.1688 C   0  0  0  0  0  0  0  0  0  0  0  0
    0.6249    1.6677    1.8233 C   0  0  0  0  0  0  0  0  0  0  0  0
   -1.7130    0.0294   -0.5920 O   0  0  0  0  0  0  0  0  0  0  0  0
    4.3214   -3.5815    0.0739 C   0  0  0  0  0  0  0  0  0  0  0  0
    3.6727   -4.4952   -2.2285 C   0  0  0  0  0  0  0  0  0  0  0  0
    0.0200    2.9390    2.0540 O   0  0  0  0  0  0  0  0  0  0  0  0
    5.0712   -4.5348    0.2734 O   0  0  0  0  0  0  0  0  0  0  0  0
    0.8102   -0.9232   -1.3901 H   0  0  0  0  0  0  0  0  0  0  0  0
    0.3149   -1.4855    1.5475 H   0  0  0  0  0  0  0  0  0  0  0  0
   -0.5442   -2.0964    0.1182 H   0  0  0  0  0  0  0  0  0  0  0  0
    2.1231   -2.2912   -2.1873 H   0  0  0  0  0  0  0  0  0  0  0  0
   -0.1361    1.9588   -0.1974 H   0  0  0  0  0  0  0  0  0  0  0  0
   -1.4762    0.1172    1.4252 H   0  0  0  0  0  0  0  0  0  0  0  0
    4.6831   -2.6466    1.8290 H   0  0  0  0  0  0  0  0  0  0  0  0
    0.2935    0.9980    2.6229 H   0  0  0  0  0  0  0  0  0  0  0  0
    1.7098    1.7805    1.9136 H   0  0  0  0  0  0  0  0  0  0  0  0
   -1.1941    0.0956   -1.4106 H   0  0  0  0  0  0  0  0  0  0  0  0
    4.6975   -4.5437   -2.6006 H   0  0  0  0  0  0  0  0  0  0  0  0
    3.3812   -5.4746   -1.8342 H   0  0  0  0  0  0  0  0  0  0  0  0
    3.0099   -4.2811   -3.0756 H   0  0  0  0  0  0  0  0  0  0  0  0
    0.3807    3.5495    1.3862 H   0  0  0  0  0  0  0  0  0  0  0  0
  1  3  1  0  0  0  0
  1  4  1  0  0  0  0
  1 18  1  6  0  0  0
  1  2  1  0  0  0  0
  2  5  1  0  0  0  0
  2  6  1  0  0  0  0
  3  7  1  0  0  0  0
  4  8  1  0  0  0  0
  4 19  1  0  0  0  0
  4 20  1  0  0  0  0
  5  9  1  0  0  0  0
  5 10  2  0  0  0  0
  6 11  2  0  0  0  0
  6 21  1  0  0  0  0
  7  8  1  0  0  0  0
  7 22  1  6  0  0  0
  7 12  1  0  0  0  0
  8 13  1  0  0  0  0
  8 23  1  1  0  0  0
  9 14  1  0  0  0  0
  9 24  1  0  0  0  0
 11 15  1  0  0  0  0
 11 14  1  0  0  0  0
 12 16  1  0  0  0  0
 12 25  1  0  0  0  0
 12 26  1  0  0  0  0
 13 27  1  0  0  0  0
 14 17  2  0  0  0  0
 15 28  1  0  0  0  0
 15 29  1  0  0  0  0
 15 30  1  0  0  0  0
 16 31  1  0  0  0  0
M  END
>  <DRUGBANK_ID>
DB04485

>  <SECONDARY_ACCESSION_NUMBERS>
EXPT03053

>  <COMMON_NAME>
Thymidine

>  <CAS_NUMBER>
50-89-5

>  <UNII>
VC2W18DGKR

>  <SYNONYMS>
2'-deoxy-5-methyluridine; 2'-deoxythymidine; 2'-thymidine; Deoxyribosylthymine; Deoxythymidine; dThd; Thymidine; Thymine 2'-deoxyriboside; Thymine deoxyriboside

$$$$
