
 OpenBabel10282417193D

 48 51  0  0  1  0  0  0  0  0999 V2000
    1.1214   -0.0188   -0.0276 C   0  0  0  0  0  0  0  0  0  0  0  0
    0.6303   -0.1427   -1.4668 C   0  0  1  0  0  0  0  0  0  0  0  0
    1.2077    0.9184   -2.3453 C   0  0  0  0  0  0  0  0  0  0  0  0
    1.6148    0.3994   -3.5079 C   0  0  0  0  0  0  0  0  0  0  0  0
    1.3527   -1.0695   -3.5216 C   0  0  0  0  0  0  0  0  0  0  0  0
    1.0367   -1.4159   -2.1038 N   0  0  0  0  0  0  0  0  0  0  0  0
    2.2802    1.0422   -4.5864 C   0  0  0  0  0  0  0  0  0  0  0  0
    3.4875    1.6953   -4.4637 C   0  0  0  0  0  0  0  0  0  0  0  0
    3.9315    2.3942   -5.9588 S   0  0  0  0  0  0  0  0  0  0  0  0
    2.5111    1.7558   -6.6755 C   0  0  0  0  0  0  0  0  0  0  0  0
    1.7218    1.0852   -5.8496 N   0  0  0  0  0  0  0  0  0  0  0  0
    2.0266    1.9485   -8.3488 S   0  0  0  0  0  0  0  0  0  0  0  0
    3.3193    2.7869   -9.1524 C   0  0  0  0  0  0  0  0  0  0  0  0
    4.6004    2.4130   -9.4120 C   0  0  0  0  0  0  0  0  0  0  0  0
    5.1673    3.3190  -10.2757 N   0  0  0  0  0  0  0  0  0  0  0  0
    4.3244    4.5074  -10.3906 C   0  0  2  0  0  0  0  0  0  0  0  0
    2.9520    3.9795  -10.0421 C   0  0  1  0  0  0  0  0  0  0  0  0
    2.1269    3.4231  -11.1987 C   0  0  0  0  0  0  0  0  0  0  0  0
    4.9254    4.7979  -11.8144 C   0  0  2  0  0  0  0  0  0  0  0  0
    6.1927    3.8347  -11.0126 C   0  0  0  0  0  0  0  0  0  0  0  0
    7.3345    3.4946  -11.0250 O   0  0  0  0  0  0  0  0  0  0  0  0
    4.7730    6.3152  -12.2536 C   0  0  1  0  0  0  0  0  0  0  0  0
    4.2108    6.4049  -13.7150 C   0  0  0  0  0  0  0  0  0  0  0  0
    3.7773    6.9755  -11.4319 O   0  0  0  0  0  0  0  0  0  0  0  0
    5.1372    1.1133   -8.9126 C   0  0  0  0  0  0  0  0  0  0  0  0
    4.5244    0.0555   -8.8843 O   0  0  0  0  0  0  0  0  0  0  0  0
    6.3151    1.2116   -8.2730 O   0  0  0  0  0  0  0  0  0  0  0  0
    0.7457   -0.8366    0.5970 H   0  0  0  0  0  0  0  0  0  0  0  0
    0.7637    0.9205    0.4121 H   0  0  0  0  0  0  0  0  0  0  0  0
    2.2155   -0.0152    0.0349 H   0  0  0  0  0  0  0  0  0  0  0  0
   -0.4643   -0.0807   -1.4720 H   0  0  0  0  0  0  0  0  0  0  0  0
    1.2670    1.9595   -2.0671 H   0  0  0  0  0  0  0  0  0  0  0  0
    2.2079   -1.6620   -3.8626 H   0  0  0  0  0  0  0  0  0  0  0  0
    0.4822   -1.3117   -4.1405 H   0  0  0  0  0  0  0  0  0  0  0  0
    1.8898   -1.7520   -1.6585 H   0  0  0  0  0  0  0  0  0  0  0  0
    4.1190    1.8016   -3.5960 H   0  0  0  0  0  0  0  0  0  0  0  0
    4.6981    5.2264   -9.6355 H   0  0  0  0  0  0  0  0  0  0  0  0
    2.4165    4.8003   -9.5626 H   0  0  0  0  0  0  0  0  0  0  0  0
    1.0880    3.3767  -10.8544 H   0  0  0  0  0  0  0  0  0  0  0  0
    2.1537    4.0238  -12.1078 H   0  0  0  0  0  0  0  0  0  0  0  0
    2.4085    2.3930  -11.4642 H   0  0  0  0  0  0  0  0  0  0  0  0
    4.4299    4.2427  -12.6140 H   0  0  0  0  0  0  0  0  0  0  0  0
    5.6797    6.9304  -12.1919 H   0  0  0  0  0  0  0  0  0  0  0  0
    3.2083    5.9560  -13.7853 H   0  0  0  0  0  0  0  0  0  0  0  0
    4.0694    7.4372  -14.0773 H   0  0  0  0  0  0  0  0  0  0  0  0
    4.8580    5.8860  -14.4260 H   0  0  0  0  0  0  0  0  0  0  0  0
    2.8835    6.8245  -11.7966 H   0  0  0  0  0  0  0  0  0  0  0  0
    6.4404    0.3236   -7.8653 H   0  0  0  0  0  0  0  0  0  0  0  0
  1 28  1  0  0  0  0
  1 29  1  0  0  0  0
  1 30  1  0  0  0  0
  2  1  1  0  0  0  0
  2  3  1  0  0  0  0
  2  6  1  0  0  0  0
  2 31  1  6  0  0  0
  3  4  2  0  0  0  0
  3 32  1  0  0  0  0
  4  5  1  0  0  0  0
  4  7  1  0  0  0  0
  5  6  1  0  0  0  0
  5 33  1  0  0  0  0
  5 34  1  0  0  0  0
  6 35  1  0  0  0  0
  7  8  2  0  0  0  0
  7 11  1  0  0  0  0
  8  9  1  0  0  0  0
  8 36  1  0  0  0  0
  9 10  1  0  0  0  0
 10 11  2  0  0  0  0
 10 12  1  0  0  0  0
 12 13  1  0  0  0  0
 13 14  2  0  0  0  0
 13 17  1  0  0  0  0
 14 15  1  0  0  0  0
 14 25  1  0  0  0  0
 15 20  1  0  0  0  0
 16 15  1  0  0  0  0
 16 17  1  0  0  0  0
 16 19  1  0  0  0  0
 16 37  1  1  0  0  0
 17 38  1  1  0  0  0
 17 18  1  0  0  0  0
 18 39  1  0  0  0  0
 18 40  1  0  0  0  0
 18 41  1  0  0  0  0
 19 20  1  0  0  0  0
 19 22  1  0  0  0  0
 19 42  1  6  0  0  0
 20 21  2  0  0  0  0
 22 23  1  0  0  0  0
 22 24  1  0  0  0  0
 22 43  1  1  0  0  0
 23 44  1  0  0  0  0
 23 45  1  0  0  0  0
 23 46  1  0  0  0  0
 24 47  1  0  0  0  0
 25 26  2  0  0  0  0
 25 27  1  0  0  0  0
 27 48  1  0  0  0  0
M  END
>  <DRUGBANK_ID>
DB12587

>  <COMMON_NAME>
Razupenem

>  <CAS_NUMBER>
426253-04-5

>  <UNII>
26020H3Q1L

>  <SYNONYMS>
Razupenem

$$$$
