
 OpenBabel10282417123D

 30 29  0  0  1  0  0  0  0  0999 V2000
    1.4112    2.4764    0.8629 C   0  0  0  0  0  0  0  0  0  0  0  0
    1.1299    0.0698    0.1068 C   0  0  0  0  0  0  0  0  0  0  0  0
   -3.2710    1.1243   -0.2500 C   0  0  0  0  0  0  0  0  0  0  0  0
    0.7908    1.1215    1.1963 C   0  0  2  0  0  0  0  0  0  0  0  0
   -3.2402   -0.3157    0.3601 C   0  0  1  0  0  0  0  0  0  0  0  0
   -1.8926   -1.0918    0.4831 C   0  0  0  0  0  0  0  0  0  0  0  0
   -3.8116   -0.2368    1.7208 N   0  0  0  0  0  0  0  0  0  0  0  0
    2.0910    2.4938   -0.3842 O   0  0  0  0  0  0  0  0  0  0  0  0
   -0.5814    1.3615    1.5302 O   0  0  0  0  0  0  0  0  0  0  0  0
   -1.2500   -1.2581    1.4878 O   0  0  0  0  0  0  0  0  0  0  0  0
   -1.4433   -1.4637   -0.7425 O   0  0  0  0  0  0  0  0  0  0  0  0
   -0.5773    2.4459   -1.2105 O   0  0  0  0  0  0  0  0  0  0  0  0
   -0.8866    0.5696   -2.8674 O   0  0  0  0  0  0  0  0  0  0  0  0
    0.7461    0.4407   -1.2482 O   0  0  0  0  0  0  0  0  0  0  0  0
   -2.5980    1.2929   -1.4973 O   0  0  0  0  0  0  0  0  0  0  0  0
   -0.9259    0.8668   -1.3728 P   0  0  3  0  0  0  0  0  0  0  0  0
    1.1715    0.7469    2.1502 H   0  0  0  0  0  0  0  0  0  0  0  0
   -3.8529   -0.9592   -0.2746 H   0  0  0  0  0  0  0  0  0  0  0  0
    2.1272    2.7256    1.6419 H   0  0  0  0  0  0  0  0  0  0  0  0
    0.6593    3.2712    0.8479 H   0  0  0  0  0  0  0  0  0  0  0  0
    2.2142   -0.0860    0.0945 H   0  0  0  0  0  0  0  0  0  0  0  0
    0.7388   -0.9135    0.3615 H   0  0  0  0  0  0  0  0  0  0  0  0
   -2.8897    1.8936    0.4349 H   0  0  0  0  0  0  0  0  0  0  0  0
   -4.3152    1.4175   -0.4079 H   0  0  0  0  0  0  0  0  0  0  0  0
   -3.6947   -1.1543    2.1624 H   0  0  0  0  0  0  0  0  0  0  0  0
   -3.2287    0.3739    2.3037 H   0  0  0  0  0  0  0  0  0  0  0  0
    1.4822    2.1636   -1.0871 H   0  0  0  0  0  0  0  0  0  0  0  0
   -1.1570    1.2970    0.7819 H   0  0  0  0  0  0  0  0  0  0  0  0
   -0.4935   -1.7193   -0.8158 H   0  0  0  0  0  0  0  0  0  0  0  0
   -0.8460    2.8842   -0.3855 H   0  0  0  0  0  0  0  0  0  0  0  0
  1 19  1  0  0  0  0
  1 20  1  0  0  0  0
  2 21  1  0  0  0  0
  2 22  1  0  0  0  0
  3 23  1  0  0  0  0
  3 24  1  0  0  0  0
  4  9  1  0  0  0  0
  4 17  1  1  0  0  0
  4  2  1  0  0  0  0
  4  1  1  0  0  0  0
  5  3  1  0  0  0  0
  5  7  1  0  0  0  0
  5 18  1  6  0  0  0
  6  5  1  0  0  0  0
  7 25  1  0  0  0  0
  7 26  1  0  0  0  0
  8  1  1  0  0  0  0
  8 27  1  0  0  0  0
  9 28  1  0  0  0  0
 10  6  2  0  0  0  0
 11  6  1  0  0  0  0
 11 29  1  0  0  0  0
 12 30  1  0  0  0  0
 14  2  1  0  0  0  0
 15  3  1  0  0  0  0
 16 12  1  0  0  0  0
 16 13  2  0  0  0  0
 16 14  1  0  0  0  0
 16 15  1  0  0  0  0
M  END
>  <DRUGBANK_ID>
DB02497

>  <SECONDARY_ACCESSION_NUMBERS>
EXPT01649

>  <COMMON_NAME>
L-Alpha-Glycerophosphorylserine

$$$$
