660
 OpenBabel10282417103D

 31 32  0  0  1  0  0  0  0  0999 V2000
   -0.0580    1.1655    0.0914 O   0  0  0  0  0  0  0  0  0  0  0  0
    3.7507    1.1319    0.7477 O   0  0  0  0  0  0  0  0  0  0  0  0
   -2.1091    0.1009   -0.0151 O   0  0  0  0  0  0  0  0  0  0  0  0
   -0.1757   -1.0672   -0.0326 N   0  0  0  0  0  0  0  0  0  0  0  0
    1.3142    0.7362   -0.0871 C   0  0  3  0  0  0  0  0  0  0  0  0
    1.1720   -0.7592    0.0535 C   0  0  0  0  0  0  0  0  0  0  0  0
    2.3161    1.3855    0.9126 C   0  0  0  0  0  0  0  0  0  0  0  0
   -0.9041    0.0744    0.0088 C   0  0  0  0  0  0  0  0  0  0  0  0
    4.1955   -0.1482    0.9318 C   0  0  0  0  0  0  0  0  0  0  0  0
    3.7620   -1.1714    0.1085 C   0  0  0  0  0  0  0  0  0  0  0  0
    5.2434   -0.4656    1.7618 C   0  0  0  0  0  0  0  0  0  0  0  0
    3.8707   -2.5311    0.4179 C   0  0  0  0  0  0  0  0  0  0  0  0
    5.6284   -1.8196    1.8965 C   0  0  0  0  0  0  0  0  0  0  0  0
    4.8862   -2.8550    1.2925 C   0  0  0  0  0  0  0  0  0  0  0  0
    2.9722   -3.5851   -0.1813 C   0  0  0  0  0  0  0  0  0  0  0  0
    6.8599   -2.1588    2.6688 C   0  0  0  0  0  0  0  0  0  0  0  0
   -0.5387   -2.0035   -0.1416 H   0  0  0  0  0  0  0  0  0  0  0  0
    1.6363    1.0044   -1.1037 H   0  0  0  0  0  0  0  0  0  0  0  0
    1.5165   -1.1345    1.0202 H   0  0  0  0  0  0  0  0  0  0  0  0
    1.5595   -1.2662   -0.8240 H   0  0  0  0  0  0  0  0  0  0  0  0
    2.2154    2.4755    0.7860 H   0  0  0  0  0  0  0  0  0  0  0  0
    2.0171    1.2081    1.9533 H   0  0  0  0  0  0  0  0  0  0  0  0
    3.3060   -0.8493   -0.8114 H   0  0  0  0  0  0  0  0  0  0  0  0
    5.8161    0.3234    2.2414 H   0  0  0  0  0  0  0  0  0  0  0  0
    5.1486   -3.9012    1.4393 H   0  0  0  0  0  0  0  0  0  0  0  0
    3.5092   -4.2047   -0.8986 H   0  0  0  0  0  0  0  0  0  0  0  0
    2.5413   -4.2253    0.6025 H   0  0  0  0  0  0  0  0  0  0  0  0
    2.1028   -3.1742   -0.7039 H   0  0  0  0  0  0  0  0  0  0  0  0
    6.6032   -2.8145    3.5029 H   0  0  0  0  0  0  0  0  0  0  0  0
    7.5851   -2.6473    2.0094 H   0  0  0  0  0  0  0  0  0  0  0  0
    7.3203   -1.2493    3.0634 H   0  0  0  0  0  0  0  0  0  0  0  0
  1  5  1  0  0  0  0
  1  8  1  0  0  0  0
  2  7  1  0  0  0  0
  2  9  1  0  0  0  0
  3  8  2  0  0  0  0
  4  6  1  0  0  0  0
  4  8  1  0  0  0  0
  4 17  1  0  0  0  0
  5  6  1  0  0  0  0
  5  7  1  0  0  0  0
  5 18  1  0  0  0  0
  6 19  1  0  0  0  0
  6 20  1  0  0  0  0
  7 21  1  0  0  0  0
  7 22  1  0  0  0  0
  9 10  2  0  0  0  0
  9 11  1  0  0  0  0
 10 12  1  0  0  0  0
 10 23  1  0  0  0  0
 11 13  2  0  0  0  0
 11 24  1  0  0  0  0
 12 14  2  0  0  0  0
 12 15  1  0  0  0  0
 13 14  1  0  0  0  0
 13 16  1  0  0  0  0
 14 25  1  0  0  0  0
 15 26  1  0  0  0  0
 15 27  1  0  0  0  0
 15 28  1  0  0  0  0
 16 29  1  0  0  0  0
 16 30  1  0  0  0  0
 16 31  1  0  0  0  0
M  END
>  <DRUGBANK_ID>
DB00660

>  <SECONDARY_ACCESSION_NUMBERS>
APRD00514

>  <COMMON_NAME>
Metaxalone

>  <CAS_NUMBER>
1665-48-1

>  <UNII>
1NMA9J598Y

>  <SYNONYMS>
Metassalone; Metaxalon; Metaxalona; Metaxalone; Metaxalonum

$$$$
