
 OpenBabel10282417213D

 57 60  0  0  0  0  0  0  0  0999 V2000
   -0.6244   -0.8060   -0.0746 C   0  0  0  0  0  0  0  0  0  0  0  0
   -1.4184    0.2504   -0.0534 N   0  0  0  0  0  0  0  0  0  0  0  0
   -0.8187    1.4998   -0.0108 C   0  0  0  0  0  0  0  0  0  0  0  0
    0.5559    1.7671    0.0427 C   0  0  0  0  0  0  0  0  0  0  0  0
    1.3879    0.7328    0.0201 C   0  0  0  0  0  0  0  0  0  0  0  0
    0.7738   -0.4958   -0.0475 C   0  0  0  0  0  0  0  0  0  0  0  0
    0.7935   -2.9956   -1.3368 C   0  0  0  0  0  0  0  0  0  0  0  0
    1.4481   -3.9892   -2.3294 C   0  0  0  0  0  0  0  0  0  0  0  0
    1.7161   -3.2480   -3.6569 C   0  0  0  0  0  0  0  0  0  0  0  0
    1.8240   -1.8011   -3.3028 C   0  0  0  0  0  0  0  0  0  0  0  0
    0.6859   -1.7070   -2.3461 C   0  0  0  0  0  0  0  0  0  0  0  0
   -0.5453   -2.7712    1.4174 C   0  0  0  0  0  0  0  0  0  0  0  0
    0.9851   -2.7099    1.3024 C   0  0  0  0  0  0  0  0  0  0  0  0
    1.5450   -3.1146   -0.0337 O   0  0  0  0  0  0  0  0  0  0  0  0
   -0.6090   -3.3619   -0.9831 C   0  0  0  0  0  0  0  0  0  0  0  0
   -1.1554   -2.3368    0.0555 C   0  0  2  0  0  0  0  0  0  0  0  0
   -2.6936   -2.6660   -0.0955 C   0  0  0  0  0  0  0  0  0  0  0  0
   -3.6178   -2.1739    0.9774 C   0  0  0  0  0  0  0  0  0  0  0  0
   -3.6111   -0.7455    0.9859 N   0  0  0  0  0  0  0  0  0  0  0  0
   -4.3247   -0.1142    2.0636 C   0  0  0  0  0  0  0  0  0  0  0  0
   -3.7781   -0.3781    3.4424 C   0  0  0  0  0  0  0  0  0  0  0  0
   -4.0686   -1.9539    4.1327 S   0  0  0  0  0  0  0  0  0  0  0  0
   -3.1500   -1.6272    5.5126 C   0  0  0  0  0  0  0  0  0  0  0  0
   -2.8282   -0.2952    5.5782 C   0  0  0  0  0  0  0  0  0  0  0  0
   -3.1601    0.4327    4.3876 C   0  0  0  0  0  0  0  0  0  0  0  0
   -2.8725    1.7629    4.3437 O   0  0  0  0  0  0  0  0  0  0  0  0
   -3.1772    2.4650    3.1542 C   0  0  0  0  0  0  0  0  0  0  0  0
   -1.5115    2.3216   -0.0081 H   0  0  0  0  0  0  0  0  0  0  0  0
    0.9789    2.7643    0.0773 H   0  0  0  0  0  0  0  0  0  0  0  0
    2.4809    0.7328   -0.0049 H   0  0  0  0  0  0  0  0  0  0  0  0
    1.5674   -1.1916   -0.2278 H   0  0  0  0  0  0  0  0  0  0  0  0
    2.3924   -4.3592   -1.9225 H   0  0  0  0  0  0  0  0  0  0  0  0
    0.7988   -4.8455   -2.5341 H   0  0  0  0  0  0  0  0  0  0  0  0
    0.8601   -3.3690   -4.3342 H   0  0  0  0  0  0  0  0  0  0  0  0
    2.6181   -3.5847   -4.1635 H   0  0  0  0  0  0  0  0  0  0  0  0
    1.6781   -1.1051   -4.1383 H   0  0  0  0  0  0  0  0  0  0  0  0
    2.7547   -1.5371   -2.7900 H   0  0  0  0  0  0  0  0  0  0  0  0
   -0.2888   -1.7213   -2.8645 H   0  0  0  0  0  0  0  0  0  0  0  0
    0.7722   -0.6625   -2.0786 H   0  0  0  0  0  0  0  0  0  0  0  0
   -0.8995   -2.0960    2.2156 H   0  0  0  0  0  0  0  0  0  0  0  0
   -0.8233   -3.7827    1.7310 H   0  0  0  0  0  0  0  0  0  0  0  0
    1.2692   -1.6845    1.5991 H   0  0  0  0  0  0  0  0  0  0  0  0
    1.5459   -3.1851    2.1163 H   0  0  0  0  0  0  0  0  0  0  0  0
   -0.6429   -4.3801   -0.5539 H   0  0  0  0  0  0  0  0  0  0  0  0
   -1.2329   -3.4193   -1.8854 H   0  0  0  0  0  0  0  0  0  0  0  0
   -3.0635   -2.3526   -1.0817 H   0  0  0  0  0  0  0  0  0  0  0  0
   -2.8322   -3.7647   -0.0778 H   0  0  0  0  0  0  0  0  0  0  0  0
   -4.6407   -2.5313    0.8122 H   0  0  0  0  0  0  0  0  0  0  0  0
   -3.2378   -2.6307    1.8835 H   0  0  0  0  0  0  0  0  0  0  0  0
   -2.6576   -0.3706    0.9356 H   0  0  0  0  0  0  0  0  0  0  0  0
   -4.2627    0.9294    1.7813 H   0  0  0  0  0  0  0  0  0  0  0  0
   -5.3899   -0.3433    2.0064 H   0  0  0  0  0  0  0  0  0  0  0  0
   -2.9718   -2.4028    6.2449 H   0  0  0  0  0  0  0  0  0  0  0  0
   -2.3660    0.1482    6.4491 H   0  0  0  0  0  0  0  0  0  0  0  0
   -2.5801    2.0882    2.3178 H   0  0  0  0  0  0  0  0  0  0  0  0
   -4.2537    2.4568    2.9531 H   0  0  0  0  0  0  0  0  0  0  0  0
   -2.9115    3.5165    3.2855 H   0  0  0  0  0  0  0  0  0  0  0  0
  1  2  2  0  0  0  0
  2  3  1  0  0  0  0
  3  4  2  0  0  0  0
  3 28  1  0  0  0  0
  4  5  1  0  0  0  0
  4 29  1  0  0  0  0
  5  6  2  0  0  0  0
  5 30  1  0  0  0  0
  6  1  1  0  0  0  0
  6 31  1  0  0  0  0
  7 15  1  0  0  0  0
  7  8  1  0  0  0  0
  8  9  1  0  0  0  0
  8 32  1  0  0  0  0
  8 33  1  0  0  0  0
  9 10  1  0  0  0  0
  9 34  1  0  0  0  0
  9 35  1  0  0  0  0
 10 11  1  0  0  0  0
 10 36  1  0  0  0  0
 10 37  1  0  0  0  0
 11  7  1  0  0  0  0
 11 38  1  0  0  0  0
 11 39  1  0  0  0  0
 12 16  1  0  0  0  0
 12 13  1  0  0  0  0
 12 40  1  0  0  0  0
 12 41  1  0  0  0  0
 13 14  1  0  0  0  0
 13 42  1  0  0  0  0
 13 43  1  0  0  0  0
 14  7  1  0  0  0  0
 15 16  1  0  0  0  0
 15 44  1  0  0  0  0
 15 45  1  0  0  0  0
 16 17  1  1  0  0  0
 16  1  1  0  0  0  0
 17 18  1  0  0  0  0
 17 46  1  0  0  0  0
 17 47  1  0  0  0  0
 18 19  1  0  0  0  0
 18 48  1  0  0  0  0
 18 49  1  0  0  0  0
 19 20  1  0  0  0  0
 19 50  1  0  0  0  0
 20 21  1  0  0  0  0
 20 51  1  0  0  0  0
 20 52  1  0  0  0  0
 21 22  1  0  0  0  0
 22 23  1  0  0  0  0
 23 24  2  0  0  0  0
 23 53  1  0  0  0  0
 24 25  1  0  0  0  0
 24 54  1  0  0  0  0
 25 21  2  0  0  0  0
 25 26  1  0  0  0  0
 26 27  1  0  0  0  0
 27 55  1  0  0  0  0
 27 56  1  0  0  0  0
 27 57  1  0  0  0  0
M  END
>  <DRUGBANK_ID>
DB14881

>  <COMMON_NAME>
Oliceridine

>  <CAS_NUMBER>
1401028-24-7

>  <UNII>
MCN858TCP0

>  <SYNONYMS>
Oliceridine

$$$$
