9BD
 OpenBabel10282417163D

 46 49  0  0  0  0  0  0  0  0999 V2000
    1.7966    0.1163   -0.7794 C   0  0  0  0  0  0  0  0  0  0  0  0
    0.5125   -1.9531   -2.1657 C   0  0  0  0  0  0  0  0  0  0  0  0
   -0.0874    3.3187   -0.2844 C   0  0  0  0  0  0  0  0  0  0  0  0
   -0.3492    0.4034    0.2189 C   0  0  0  0  0  0  0  0  0  0  0  0
    0.1098    3.1695    3.4699 C   0  0  0  0  0  0  0  0  0  0  0  0
   -0.2200    4.9768    1.9210 C   0  0  0  0  0  0  0  0  0  0  0  0
   -0.5652    2.8061    7.8433 C   0  0  0  0  0  0  0  0  0  0  0  0
    0.5546   -1.0692   -1.0969 O   0  0  0  0  0  0  0  0  0  0  0  0
   -0.0032   -0.9085   -3.0692 C   0  0  0  0  0  0  0  0  0  0  0  0
    0.0873    0.4932   -2.5796 O   0  0  0  0  0  0  0  0  0  0  0  0
   -0.3379    1.0315   -1.2544 C   0  0  0  0  0  0  0  0  0  0  0  0
   -0.1339    2.4620   -1.3994 C   0  0  0  0  0  0  0  0  0  0  0  0
   -0.0931    2.7417    1.0226 C   0  0  0  0  0  0  0  0  0  0  0  0
   -0.2042    1.3468    1.2611 C   0  0  0  0  0  0  0  0  0  0  0  0
    0.4591   -0.9711    0.9149 O   0  0  0  0  0  0  0  0  0  0  0  0
    1.7396   -2.0750    0.3840 C   0  0  0  0  0  0  0  0  0  0  0  0
   -0.0287    3.6454    2.1420 C   0  0  0  0  0  0  0  0  0  0  0  0
   -0.1200    4.0564    4.5237 C   0  0  0  0  0  0  0  0  0  0  0  0
   -0.4535    5.3354    4.3320 N   0  0  0  0  0  0  0  0  0  0  0  0
   -0.4551    5.8278    3.0590 C   0  0  0  0  0  0  0  0  0  0  0  0
   -0.2433    5.4418    0.5920 C   0  0  0  0  0  0  0  0  0  0  0  0
   -0.0749    4.6353   -0.4979 N   0  0  0  0  0  0  0  0  0  0  0  0
   -0.6652    7.1579    2.9135 N   0  0  0  0  0  0  0  0  0  0  0  0
   -0.0587    3.4935    5.8241 N   0  0  0  0  0  0  0  0  0  0  0  0
   -1.0538    3.5240    6.7738 C   0  0  0  0  0  0  0  0  0  0  0  0
    0.6836    2.3122    7.5716 N   0  0  0  0  0  0  0  0  0  0  0  0
    0.9500    2.7194    6.3506 C   0  0  0  0  0  0  0  0  0  0  0  0
    1.7171    0.4750    0.3415 H   0  0  0  0  0  0  0  0  0  0  0  0
    1.8238    0.8098   -1.4476 H   0  0  0  0  0  0  0  0  0  0  0  0
    2.8356   -0.2728   -0.6252 H   0  0  0  0  0  0  0  0  0  0  0  0
    1.4778   -2.4346   -2.3567 H   0  0  0  0  0  0  0  0  0  0  0  0
   -0.1466   -2.8560   -2.0124 H   0  0  0  0  0  0  0  0  0  0  0  0
    0.2766    2.1401    3.7165 H   0  0  0  0  0  0  0  0  0  0  0  0
   -1.0559    2.6020    8.7867 H   0  0  0  0  0  0  0  0  0  0  0  0
    0.5728   -1.0645   -3.9920 H   0  0  0  0  0  0  0  0  0  0  0  0
   -1.0609   -1.0508   -3.1982 H   0  0  0  0  0  0  0  0  0  0  0  0
    0.1381    2.9115   -2.3685 H   0  0  0  0  0  0  0  0  0  0  0  0
    0.1033    0.9524    2.2217 H   0  0  0  0  0  0  0  0  0  0  0  0
    1.8909   -1.9970   -0.6887 H   0  0  0  0  0  0  0  0  0  0  0  0
    2.8329   -1.8159    0.1319 H   0  0  0  0  0  0  0  0  0  0  0  0
    1.3240   -3.0578    0.2369 H   0  0  0  0  0  0  0  0  0  0  0  0
   -0.4543    6.4688    0.3396 H   0  0  0  0  0  0  0  0  0  0  0  0
   -0.8409    7.6976    3.7557 H   0  0  0  0  0  0  0  0  0  0  0  0
   -0.7814    7.6061    2.0151 H   0  0  0  0  0  0  0  0  0  0  0  0
   -2.0093    3.9866    6.5858 H   0  0  0  0  0  0  0  0  0  0  0  0
    1.8748    2.5229    5.8191 H   0  0  0  0  0  0  0  0  0  0  0  0
  1  8  1  0  0  0  0
  1 28  1  0  0  0  0
  1 29  1  0  0  0  0
  1 30  1  0  0  0  0
  2  8  1  0  0  0  0
  2  9  1  0  0  0  0
  2 31  1  0  0  0  0
  2 32  1  0  0  0  0
  3 12  2  0  0  0  0
  3 13  1  0  0  0  0
  3 22  1  0  0  0  0
  4 11  2  0  0  0  0
  4 14  1  0  0  0  0
  4 15  1  0  0  0  0
  5 17  2  0  0  0  0
  5 18  1  0  0  0  0
  5 33  1  0  0  0  0
  6 17  1  0  0  0  0
  6 20  2  0  0  0  0
  6 21  1  0  0  0  0
  7 25  2  0  0  0  0
  7 26  1  0  0  0  0
  7 34  1  0  0  0  0
  9 10  1  0  0  0  0
  9 35  1  0  0  0  0
  9 36  1  0  0  0  0
 10 11  1  0  0  0  0
 11 12  1  0  0  0  0
 12 37  1  0  0  0  0
 13 14  2  0  0  0  0
 13 17  1  0  0  0  0
 14 38  1  0  0  0  0
 15 16  1  0  0  0  0
 16 39  1  0  0  0  0
 16 40  1  0  0  0  0
 16 41  1  0  0  0  0
 18 19  2  0  0  0  0
 18 24  1  0  0  0  0
 19 20  1  0  0  0  0
 20 23  1  0  0  0  0
 21 22  2  0  0  0  0
 21 42  1  0  0  0  0
 23 43  1  0  0  0  0
 23 44  1  0  0  0  0
 24 25  1  0  0  0  0
 24 27  1  0  0  0  0
 25 45  1  0  0  0  0
 26 27  2  0  0  0  0
 27 46  1  0  0  0  0
M  END
>  <DRUGBANK_ID>
DB07300

>  <COMMON_NAME>
2-(1H-imidazol-1-yl)-9-methoxy-8-(2-methoxyethoxy)benzo[c][2,7]naphthyridin-4-amine

$$$$
