BJH
 OpenBabel10282417163D

 33 33  0  0  0  0  0  0  0  0999 V2000
    0.9374   -1.0310   -2.3163 C   0  0  0  0  0  0  0  0  0  0  0  0
    0.4308    0.1471   -1.5004 C   0  0  2  0  0  0  0  0  0  0  0  0
    0.9208    0.0334   -0.1192 N   0  0  0  0  0  0  0  0  0  0  0  0
    1.4980   -1.2321    0.3562 C   0  0  0  0  0  0  0  0  0  0  0  0
    1.9969   -1.3499    1.7871 C   0  0  0  0  0  0  0  0  0  0  0  0
    1.5800   -2.2279   -0.4293 O   0  0  0  0  0  0  0  0  0  0  0  0
    5.9943   -0.9231   -2.9304 C   0  0  0  0  0  0  0  0  0  0  0  0
    7.2886   -1.1848   -2.4081 O   0  0  0  0  0  0  0  0  0  0  0  0
    5.8624   -0.5164   -4.1273 O   0  0  0  0  0  0  0  0  0  0  0  0
   -1.1692    0.1471   -1.5004 B   0  0  0  0  0  0  0  0  0  0  0  0
   -1.9192    1.3216   -2.0555 O   0  0  0  0  0  0  0  0  0  0  0  0
    2.5427   -1.5557   -0.4750 C   0  0  0  0  0  0  0  0  0  0  0  0
    2.3604   -1.1078   -1.7875 C   0  0  0  0  0  0  0  0  0  0  0  0
    3.8046   -1.7778    0.0309 C   0  0  0  0  0  0  0  0  0  0  0  0
    3.5143   -0.8757   -2.5644 C   0  0  0  0  0  0  0  0  0  0  0  0
    4.9109   -1.5713   -0.7573 C   0  0  0  0  0  0  0  0  0  0  0  0
    4.7667   -1.1293   -2.0581 C   0  0  0  0  0  0  0  0  0  0  0  0
   -1.9192   -1.0274   -0.9454 O   0  0  0  0  0  0  0  0  0  0  0  0
    3.4354   -0.4197   -3.8351 O   0  0  0  0  0  0  0  0  0  0  0  0
    0.7875    1.0592   -1.9315 H   0  0  0  0  0  0  0  0  0  0  0  0
    0.9570   -0.7958   -3.3600 H   0  0  0  0  0  0  0  0  0  0  0  0
    0.4521   -1.9737   -2.1723 H   0  0  0  0  0  0  0  0  0  0  0  0
    0.8550    0.8326    0.5112 H   0  0  0  0  0  0  0  0  0  0  0  0
    1.4547   -2.1223    2.2915 H   0  0  0  0  0  0  0  0  0  0  0  0
    3.0395   -1.5905    1.7827 H   0  0  0  0  0  0  0  0  0  0  0  0
    1.8477   -0.4197    2.2945 H   0  0  0  0  0  0  0  0  0  0  0  0
    7.3924   -1.5048   -1.4663 H   0  0  0  0  0  0  0  0  0  0  0  0
   -1.2694    2.0088   -2.3803 H   0  0  0  0  0  0  0  0  0  0  0  0
    1.6885   -1.7286    0.1459 H   0  0  0  0  0  0  0  0  0  0  0  0
    3.9236   -2.1120    1.0404 H   0  0  0  0  0  0  0  0  0  0  0  0
    5.8882   -1.7536   -0.3618 H   0  0  0  0  0  0  0  0  0  0  0  0
   -2.9024   -0.8622   -1.0234 H   0  0  0  0  0  0  0  0  0  0  0  0
    2.5430   -0.2229   -4.2412 H   0  0  0  0  0  0  0  0  0  0  0  0
  1 13  1  0  0  0  0
  1 21  1  0  0  0  0
  1 22  1  0  0  0  0
  2 10  1  0  0  0  0
  2 20  1  6  0  0  0
  2  3  1  0  0  0  0
  2  1  1  0  0  0  0
  3  4  1  0  0  0  0
  3 23  1  0  0  0  0
  4  5  1  0  0  0  0
  4  6  2  0  0  0  0
  5 24  1  0  0  0  0
  5 25  1  0  0  0  0
  5 26  1  0  0  0  0
  7  8  1  0  0  0  0
  7  9  2  0  0  0  0
  7 17  1  0  0  0  0
  8 27  1  0  0  0  0
 10 11  1  0  0  0  0
 10 18  1  0  0  0  0
 11 28  1  0  0  0  0
 12 13  2  0  0  0  0
 12 14  1  0  0  0  0
 12 29  1  0  0  0  0
 13 15  1  0  0  0  0
 14 16  2  0  0  0  0
 14 30  1  0  0  0  0
 15 17  2  0  0  0  0
 15 19  1  0  0  0  0
 16 17  1  0  0  0  0
 16 31  1  0  0  0  0
 18 32  1  0  0  0  0
 19 33  1  0  0  0  0
M  END
>  <DRUGBANK_ID>
DB07464

>  <COMMON_NAME>
1(R)-1-ACETAMIDO-2-(3-CARBOXY-2-HYDROXYPHENYL)ETHYL BORONIC ACID

$$$$
