1192
 OpenBabel10282417113D

 41 45  0  0  1  0  0  0  0  0999 V2000
   -0.0246    1.7885    0.8080 O   0  0  0  0  0  0  0  0  0  0  0  0
   -1.7358   -2.9522   -0.5483 O   0  0  0  0  0  0  0  0  0  0  0  0
   -2.7838    2.4175   -0.4731 O   0  0  0  0  0  0  0  0  0  0  0  0
    2.9132    2.5518    0.8323 O   0  0  0  0  0  0  0  0  0  0  0  0
    0.6685   -0.5458   -1.7959 N   0  0  0  0  0  0  0  0  0  0  0  0
   -0.8338   -0.3669   -0.0219 C   0  0  1  0  0  0  0  0  0  0  0  0
   -1.3780   -1.7461    0.2282 C   0  0  1  0  0  0  0  0  0  0  0  0
    0.0888   -1.9454   -0.7271 C   0  0  1  0  0  0  0  0  0  0  0  0
   -1.2199    0.9207    0.6986 C   0  0  2  0  0  0  0  0  0  0  0  0
   -1.3408   -0.5300   -1.7542 C   0  0  0  0  0  0  0  0  0  0  0  0
    0.7803   -0.3336    0.7417 C   0  0  0  0  0  0  0  0  0  0  0  0
   -2.9360   -1.2910    0.2500 C   0  0  0  0  0  0  0  0  0  0  0  0
    1.4169   -2.5738   -0.4769 C   0  0  0  0  0  0  0  0  0  0  0  0
   -0.3831    0.2540   -2.4125 C   0  0  0  0  0  0  0  0  0  0  0  0
    1.8791   -1.3608    0.3642 C   0  0  0  0  0  0  0  0  0  0  0  0
   -3.4889    0.1043   -0.2112 C   0  0  0  0  0  0  0  0  0  0  0  0
   -2.5147    1.2640   -0.0167 C   0  0  0  0  0  0  0  0  0  0  0  0
    1.0708    0.9545    1.1052 C   0  0  0  0  0  0  0  0  0  0  0  0
    1.6886    0.5334   -1.7165 C   0  0  0  0  0  0  0  0  0  0  0  0
    3.2178   -1.0713    0.4258 C   0  0  0  0  0  0  0  0  0  0  0  0
    2.4731    1.2570    1.0963 C   0  0  0  0  0  0  0  0  0  0  0  0
    3.5069    0.2579    0.7535 C   0  0  0  0  0  0  0  0  0  0  0  0
    0.1551   -2.2227    0.4098 H   0  0  0  0  0  0  0  0  0  0  0  0
   -1.5279    0.7597    1.7396 H   0  0  0  0  0  0  0  0  0  0  0  0
   -1.7311   -3.7168    0.0514 H   0  0  0  0  0  0  0  0  0  0  0  0
    2.1719    3.0262    0.4113 H   0  0  0  0  0  0  0  0  0  0  0  0
   -1.2413   -1.5458   -2.2127 H   0  0  0  0  0  0  0  0  0  0  0  0
   -2.3291   -0.3096   -2.0989 H   0  0  0  0  0  0  0  0  0  0  0  0
   -3.2405   -1.3847    1.3008 H   0  0  0  0  0  0  0  0  0  0  0  0
   -3.5665   -2.0280   -0.2741 H   0  0  0  0  0  0  0  0  0  0  0  0
    1.6121   -2.8516   -1.5188 H   0  0  0  0  0  0  0  0  0  0  0  0
    1.5309   -3.5147    0.0884 H   0  0  0  0  0  0  0  0  0  0  0  0
   -0.3458    0.2436   -3.4981 H   0  0  0  0  0  0  0  0  0  0  0  0
   -0.5979    1.2775   -2.0573 H   0  0  0  0  0  0  0  0  0  0  0  0
   -3.7959    0.0544   -1.2662 H   0  0  0  0  0  0  0  0  0  0  0  0
   -4.4345    0.3194    0.2852 H   0  0  0  0  0  0  0  0  0  0  0  0
    1.2451    1.5144   -2.0030 H   0  0  0  0  0  0  0  0  0  0  0  0
    2.0502    1.0549   -0.8712 H   0  0  0  0  0  0  0  0  0  0  0  0
    2.6026    0.3097   -2.2422 H   0  0  0  0  0  0  0  0  0  0  0  0
    3.9281   -1.7502   -0.0517 H   0  0  0  0  0  0  0  0  0  0  0  0
    4.4886    0.6016    0.4067 H   0  0  0  0  0  0  0  0  0  0  0  0
  1  9  1  0  0  0  0
  1 18  1  0  0  0  0
  2 25  1  0  0  0  0
  3 17  2  0  0  0  0
  4 21  1  0  0  0  0
  4 26  1  0  0  0  0
  5  8  1  0  0  0  0
  5 14  1  0  0  0  0
  5 19  1  0  0  0  0
  6  7  1  0  0  0  0
  6  9  1  0  0  0  0
  6 10  1  0  0  0  0
  6 11  1  6  0  0  0
  7  2  1  1  0  0  0
  7  8  1  0  0  0  0
  7 12  1  0  0  0  0
  8 13  1  0  0  0  0
  8 23  1  1  0  0  0
  9 17  1  0  0  0  0
  9 24  1  1  0  0  0
 10 14  1  0  0  0  0
 10 27  1  0  0  0  0
 10 28  1  0  0  0  0
 11 15  2  0  0  0  0
 11 18  1  0  0  0  0
 12 16  1  0  0  0  0
 12 29  1  0  0  0  0
 12 30  1  0  0  0  0
 13 15  1  0  0  0  0
 13 31  1  0  0  0  0
 13 32  1  0  0  0  0
 14 33  1  0  0  0  0
 14 34  1  0  0  0  0
 15 20  1  0  0  0  0
 16 17  1  0  0  0  0
 16 35  1  0  0  0  0
 16 36  1  0  0  0  0
 18 21  2  0  0  0  0
 19 37  1  0  0  0  0
 19 38  1  0  0  0  0
 19 39  1  0  0  0  0
 20 22  2  0  0  0  0
 20 40  1  0  0  0  0
 21 22  1  0  0  0  0
 22 41  1  0  0  0  0
M  END
>  <DRUGBANK_ID>
DB01192

>  <SECONDARY_ACCESSION_NUMBERS>
APRD00158

>  <COMMON_NAME>
Oxymorphone

>  <CAS_NUMBER>
76-41-5

>  <UNII>
9VXA968E0C

>  <SYNONYMS>
(14S)-14-Hydroxydihydromorphinone; 14-Hydroxydihydromorphinone; Dihydrohydroxymorphinone; Dihydroxymorphinone; Oximorfona; Oximorphonum; Oxymorphone; Oxymorphonum

$$$$
