
 OpenBabel10282417123D

 26 25  0  0  1  0  0  0  0  0999 V2000
    1.4247    0.2807    0.2529 C   0  0  0  0  0  0  0  0  0  0  0  0
    0.6451    1.4416    0.6144 N   0  0  0  0  0  0  0  0  0  0  0  0
   -0.2273    2.1685   -0.1553 C   0  0  0  0  0  0  0  0  0  0  0  0
   -0.6953    3.2014    0.3199 O   0  0  0  0  0  0  0  0  0  0  0  0
   -0.6362    1.6970   -1.5913 C   0  0  1  0  0  0  0  0  0  0  0  0
    0.5736    1.6350   -2.4463 N   0  0  0  0  0  0  0  0  0  0  0  0
   -1.5437    0.4106   -1.6277 C   0  0  0  0  0  0  0  0  0  0  0  0
   -2.8162    0.6581   -0.7945 C   0  0  0  0  0  0  0  0  0  0  0  0
   -1.9293    0.0503   -3.0740 C   0  0  0  0  0  0  0  0  0  0  0  0
   -0.9099   -0.8585   -1.0557 C   0  0  0  0  0  0  0  0  0  0  0  0
    1.3727    0.0855   -0.8109 H   0  0  0  0  0  0  0  0  0  0  0  0
    1.0539   -0.5771    0.8238 H   0  0  0  0  0  0  0  0  0  0  0  0
    2.4737    0.4223    0.4979 H   0  0  0  0  0  0  0  0  0  0  0  0
    0.7525    1.8070    1.5521 H   0  0  0  0  0  0  0  0  0  0  0  0
   -1.2381    2.5246   -2.0009 H   0  0  0  0  0  0  0  0  0  0  0  0
    0.3042    1.4507   -3.4097 H   0  0  0  0  0  0  0  0  0  0  0  0
    1.0101    2.5594   -2.4537 H   0  0  0  0  0  0  0  0  0  0  0  0
   -3.4359    1.4503   -1.2225 H   0  0  0  0  0  0  0  0  0  0  0  0
   -3.4200   -0.2544   -0.7321 H   0  0  0  0  0  0  0  0  0  0  0  0
   -2.5666    0.9399    0.2356 H   0  0  0  0  0  0  0  0  0  0  0  0
   -1.0407   -0.1372   -3.6881 H   0  0  0  0  0  0  0  0  0  0  0  0
   -2.5141   -0.8768   -3.0946 H   0  0  0  0  0  0  0  0  0  0  0  0
   -2.5187    0.8380   -3.5487 H   0  0  0  0  0  0  0  0  0  0  0  0
    0.0129   -1.1155   -1.5829 H   0  0  0  0  0  0  0  0  0  0  0  0
   -0.7608   -0.7336    0.0151 H   0  0  0  0  0  0  0  0  0  0  0  0
   -1.5547   -1.7381   -1.1347 H   0  0  0  0  0  0  0  0  0  0  0  0
  1  2  1  0  0  0  0
  1 11  1  0  0  0  0
  1 12  1  0  0  0  0
  1 13  1  0  0  0  0
  2  3  1  0  0  0  0
  2 14  1  0  0  0  0
  3  4  2  0  0  0  0
  3  5  1  0  0  0  0
  5  6  1  0  0  0  0
  5  7  1  0  0  0  0
  5 15  1  6  0  0  0
  6 16  1  0  0  0  0
  6 17  1  0  0  0  0
  7  8  1  0  0  0  0
  7  9  1  0  0  0  0
  7 10  1  0  0  0  0
  8 18  1  0  0  0  0
  8 19  1  0  0  0  0
  8 20  1  0  0  0  0
  9 21  1  0  0  0  0
  9 22  1  0  0  0  0
  9 23  1  0  0  0  0
 10 24  1  0  0  0  0
 10 25  1  0  0  0  0
 10 26  1  0  0  0  0
M  END
>  <DRUGBANK_ID>
DB01949

>  <SECONDARY_ACCESSION_NUMBERS>
EXPT00776

>  <COMMON_NAME>
2-Amino-N,3,3-Trimethylbutanamide

$$$$
