4IG
 OpenBabel10282417163D

 59 62  0  0  0  0  0  0  0  0999 V2000
    1.1586    0.1618   -0.2055 C   0  0  0  0  0  0  0  0  0  0  0  0
    0.0633    0.9277   -0.0289 N   0  0  0  0  0  0  0  0  0  0  0  0
   -1.1082    0.3074    0.0231 C   0  0  0  0  0  0  0  0  0  0  0  0
   -1.2497   -1.0175    0.0135 N   0  0  0  0  0  0  0  0  0  0  0  0
   -0.1234   -1.7765   -0.0766 C   0  0  0  0  0  0  0  0  0  0  0  0
    1.1486   -1.2465   -0.2713 C   0  0  0  0  0  0  0  0  0  0  0  0
    2.2892    0.9181   -0.4970 N   0  0  0  0  0  0  0  0  0  0  0  0
   -2.2360    1.0766    0.0593 N   0  0  0  0  0  0  0  0  0  0  0  0
   -0.3351   -3.2649    0.0366 C   0  0  0  0  0  0  0  0  0  0  0  0
   -1.0985   -3.6568    1.2869 C   0  0  0  0  0  0  0  0  0  0  0  0
    2.6907   -3.0893   -1.2289 C   0  0  0  0  0  0  0  0  0  0  0  0
    3.8335   -3.8931   -1.0050 C   0  0  0  0  0  0  0  0  0  0  0  0
    4.6847   -3.7438    0.1283 C   0  0  0  0  0  0  0  0  0  0  0  0
    4.4473   -2.7567    1.0567 C   0  0  0  0  0  0  0  0  0  0  0  0
    3.2601   -2.0753    0.7682 C   0  0  0  0  0  0  0  0  0  0  0  0
    2.3723   -2.1236   -0.3115 C   0  0  0  0  0  0  0  0  0  0  0  0
    5.7373   -4.5973    0.2013 O   0  0  0  0  0  0  0  0  0  0  0  0
    6.4601   -4.5980    1.4256 C   0  0  2  0  0  0  0  0  0  0  0  0
    6.3920   -3.4090    2.3993 C   0  0  0  0  0  0  0  0  0  0  0  0
    5.3800   -2.4862    2.1490 N   0  0  0  0  0  0  0  0  0  0  0  0
    5.3983   -1.3910    3.1426 C   0  0  0  0  0  0  0  0  0  0  0  0
    5.4027    0.0400    2.6541 C   0  0  0  0  0  0  0  0  0  0  0  0
    4.1770    0.3702    1.8939 C   0  0  0  0  0  0  0  0  0  0  0  0
    2.9283    0.2275    2.6119 O   0  0  0  0  0  0  0  0  0  0  0  0
    2.5251   -0.9138    3.4169 C   0  0  0  0  0  0  0  0  0  0  0  0
    7.1495   -3.3081    3.3502 O   0  0  0  0  0  0  0  0  0  0  0  0
   10.2008   -5.2305    1.8180 C   0  0  0  0  0  0  0  0  0  0  0  0
    8.8496   -5.1278    2.1110 C   0  0  0  0  0  0  0  0  0  0  0  0
    7.9244   -4.8331    1.0927 C   0  0  0  0  0  0  0  0  0  0  0  0
    8.3971   -4.6626   -0.2152 C   0  0  0  0  0  0  0  0  0  0  0  0
    9.7486   -4.7993   -0.4882 C   0  0  0  0  0  0  0  0  0  0  0  0
   10.6589   -5.0794    0.5192 C   0  0  0  0  0  0  0  0  0  0  0  0
   11.0686   -5.4679    2.8092 F   0  0  0  0  0  0  0  0  0  0  0  0
   10.1716   -4.6463   -1.7483 F   0  0  0  0  0  0  0  0  0  0  0  0
    6.0811   -5.4542    1.9969 H   0  0  0  0  0  0  0  0  0  0  0  0
    2.1878    1.8537   -0.1062 H   0  0  0  0  0  0  0  0  0  0  0  0
    3.1663    0.4738   -0.3136 H   0  0  0  0  0  0  0  0  0  0  0  0
   -2.1274    2.0760    0.0396 H   0  0  0  0  0  0  0  0  0  0  0  0
   -3.1269    0.6153    0.0152 H   0  0  0  0  0  0  0  0  0  0  0  0
   -0.8419   -3.6058   -0.8706 H   0  0  0  0  0  0  0  0  0  0  0  0
    0.6089   -3.8087    0.0936 H   0  0  0  0  0  0  0  0  0  0  0  0
   -2.1057   -3.2329    1.2930 H   0  0  0  0  0  0  0  0  0  0  0  0
   -1.1788   -4.7469    1.3343 H   0  0  0  0  0  0  0  0  0  0  0  0
   -0.5737   -3.3161    2.1869 H   0  0  0  0  0  0  0  0  0  0  0  0
    2.0400   -3.2506   -2.0817 H   0  0  0  0  0  0  0  0  0  0  0  0
    4.0689   -4.6582   -1.7387 H   0  0  0  0  0  0  0  0  0  0  0  0
    2.8835   -1.3374    1.4003 H   0  0  0  0  0  0  0  0  0  0  0  0
    4.7016   -1.6272    3.9414 H   0  0  0  0  0  0  0  0  0  0  0  0
    6.3364   -1.4048    3.7167 H   0  0  0  0  0  0  0  0  0  0  0  0
    5.4600    0.7496    3.4820 H   0  0  0  0  0  0  0  0  0  0  0  0
    6.2868    0.1927    2.0183 H   0  0  0  0  0  0  0  0  0  0  0  0
    4.2119    1.3887    1.4965 H   0  0  0  0  0  0  0  0  0  0  0  0
    4.3005   -0.1789    0.9549 H   0  0  0  0  0  0  0  0  0  0  0  0
    2.6910   -1.9388    3.0376 H   0  0  0  0  0  0  0  0  0  0  0  0
    2.9937   -0.8848    4.3936 H   0  0  0  0  0  0  0  0  0  0  0  0
    1.4395   -0.8824    3.5395 H   0  0  0  0  0  0  0  0  0  0  0  0
    8.5414   -5.2147    3.1526 H   0  0  0  0  0  0  0  0  0  0  0  0
    7.7266   -4.4104   -1.0327 H   0  0  0  0  0  0  0  0  0  0  0  0
   11.7121   -5.1727    0.2955 H   0  0  0  0  0  0  0  0  0  0  0  0
  1  2  1  0  0  0  0
  1  6  2  0  0  0  0
  1  7  1  0  0  0  0
  2  3  2  0  0  0  0
  3  4  1  0  0  0  0
  3  8  1  0  0  0  0
  4  5  2  0  0  0  0
  5  6  1  0  0  0  0
  5  9  1  0  0  0  0
  6 16  1  0  0  0  0
  7 36  1  0  0  0  0
  7 37  1  0  0  0  0
  8 38  1  0  0  0  0
  8 39  1  0  0  0  0
  9 10  1  0  0  0  0
  9 40  1  0  0  0  0
  9 41  1  0  0  0  0
 10 42  1  0  0  0  0
 10 43  1  0  0  0  0
 10 44  1  0  0  0  0
 11 12  2  0  0  0  0
 11 16  1  0  0  0  0
 11 45  1  0  0  0  0
 12 13  1  0  0  0  0
 12 46  1  0  0  0  0
 13 14  2  0  0  0  0
 13 17  1  0  0  0  0
 14 15  1  0  0  0  0
 14 20  1  0  0  0  0
 15 16  2  0  0  0  0
 15 47  1  0  0  0  0
 17 18  1  0  0  0  0
 18 19  1  0  0  0  0
 18 29  1  0  0  0  0
 18 35  1  1  0  0  0
 19 20  1  0  0  0  0
 19 26  2  0  0  0  0
 20 21  1  0  0  0  0
 21 22  1  0  0  0  0
 21 48  1  0  0  0  0
 21 49  1  0  0  0  0
 22 23  1  0  0  0  0
 22 50  1  0  0  0  0
 22 51  1  0  0  0  0
 23 24  1  0  0  0  0
 23 52  1  0  0  0  0
 23 53  1  0  0  0  0
 24 25  1  0  0  0  0
 25 54  1  0  0  0  0
 25 55  1  0  0  0  0
 25 56  1  0  0  0  0
 27 28  2  0  0  0  0
 27 32  1  0  0  0  0
 27 33  1  0  0  0  0
 28 29  1  0  0  0  0
 28 57  1  0  0  0  0
 29 30  2  0  0  0  0
 30 31  1  0  0  0  0
 30 58  1  0  0  0  0
 31 32  2  0  0  0  0
 31 34  1  0  0  0  0
 32 59  1  0  0  0  0
M  END
>  <DRUGBANK_ID>
DB07113

>  <COMMON_NAME>
(2S)-6-(2,4-DIAMINO-6-ETHYLPYRIMIDIN-5-YL)-2-(3,5-DIFLUOROPHENYL)-4-(3-METHOXYPROPYL)-2H-1,4-BENZOXAZIN-3(4H)-ONE

$$$$
