
 OpenBabel10282417123D

 47 49  0  0  1  0  0  0  0  0999 V2000
    4.1444    0.6524    0.0173 C   0  0  0  0  0  0  0  0  0  0  0  0
    4.3084    0.5315   -1.3391 C   0  0  0  0  0  0  0  0  0  0  0  0
    4.1029    2.4966   -3.9887 C   0  0  0  0  0  0  0  0  0  0  0  0
   -0.5992   -2.3365    0.5709 C   0  0  0  0  0  0  0  0  0  0  0  0
    3.1099    1.5022   -3.3830 C   0  0  2  0  0  0  0  0  0  0  0  0
    0.1521   -1.1995   -0.0172 C   0  0  2  0  0  0  0  0  0  0  0  0
   -0.3234   -0.0242    0.8576 C   0  0  2  0  0  0  0  0  0  0  0  0
    0.3024    1.1701    0.3233 C   0  0  1  0  0  0  0  0  0  0  0  0
    1.1877    3.4757   -2.8698 C   0  0  2  0  0  0  0  0  0  0  0  0
    1.3296    3.4390   -1.1146 C   0  0  2  0  0  0  0  0  0  0  0  0
    0.1028    0.9384   -1.2584 C   0  0  2  0  0  0  0  0  0  0  0  0
    1.5323    1.8909   -3.7953 C   0  0  2  0  0  0  0  0  0  0  0  0
    2.8303    2.3271   -0.7743 C   0  0  0  0  0  0  0  0  0  0  0  0
    0.5670   -0.2087   -2.1025 C   0  0  1  0  0  0  0  0  0  0  0  0
    3.2799    1.7273    0.3498 N   0  0  0  0  0  0  0  0  0  0  0  0
    3.4562    1.4656   -1.8973 N   0  0  0  0  0  0  0  0  0  0  0  0
    4.9951    3.1099   -3.0506 O   0  0  0  0  0  0  0  0  0  0  0  0
   -0.2278   -3.4876   -0.1522 O   0  0  0  0  0  0  0  0  0  0  0  0
    0.0349   -0.1432    2.2419 O   0  0  0  0  0  0  0  0  0  0  0  0
   -0.2920    2.2458    1.1291 O   0  0  0  0  0  0  0  0  0  0  0  0
    2.1834    4.4322   -3.1617 O   0  0  0  0  0  0  0  0  0  0  0  0
   -0.1939    3.3589   -0.8605 O   0  0  0  0  0  0  0  0  0  0  0  0
    1.3072    1.2090   -1.6499 O   0  0  0  0  0  0  0  0  0  0  0  0
   -0.2309   -1.2038   -1.4970 O   0  0  0  0  0  0  0  0  0  0  0  0
    0.5452    0.5102   -3.5931 O   0  0  0  0  0  0  0  0  0  0  0  0
    3.2806    0.4830   -3.7854 H   0  0  0  0  0  0  0  0  0  0  0  0
    1.2501   -1.3083    0.0629 H   0  0  0  0  0  0  0  0  0  0  0  0
   -1.3964    0.1790    0.7756 H   0  0  0  0  0  0  0  0  0  0  0  0
    1.3267    1.2003    0.6720 H   0  0  0  0  0  0  0  0  0  0  0  0
    0.1734    3.8194   -3.1473 H   0  0  0  0  0  0  0  0  0  0  0  0
    1.5128    4.3104   -0.4921 H   0  0  0  0  0  0  0  0  0  0  0  0
   -0.7607    1.3602   -1.7933 H   0  0  0  0  0  0  0  0  0  0  0  0
    1.4365    2.1135   -4.8791 H   0  0  0  0  0  0  0  0  0  0  0  0
    1.6243   -0.5957   -2.0663 H   0  0  0  0  0  0  0  0  0  0  0  0
    4.6393    0.0258    0.7652 H   0  0  0  0  0  0  0  0  0  0  0  0
    4.9432   -0.1293   -1.9339 H   0  0  0  0  0  0  0  0  0  0  0  0
    4.7184    2.0071   -4.7460 H   0  0  0  0  0  0  0  0  0  0  0  0
    3.5767    3.2946   -4.5068 H   0  0  0  0  0  0  0  0  0  0  0  0
   -0.3817   -2.4310    1.6364 H   0  0  0  0  0  0  0  0  0  0  0  0
   -1.6642   -2.1285    0.4181 H   0  0  0  0  0  0  0  0  0  0  0  0
    4.6314    3.1874   -2.1494 H   0  0  0  0  0  0  0  0  0  0  0  0
   -0.3171   -3.2091   -1.0877 H   0  0  0  0  0  0  0  0  0  0  0  0
    0.9437    0.2000    2.3694 H   0  0  0  0  0  0  0  0  0  0  0  0
   -0.4261    3.1455    0.7658 H   0  0  0  0  0  0  0  0  0  0  0  0
    2.9578    4.1843   -2.6187 H   0  0  0  0  0  0  0  0  0  0  0  0
   -0.7691    2.5975   -0.6192 H   0  0  0  0  0  0  0  0  0  0  0  0
    1.5224    2.0217   -2.0707 H   0  0  0  0  0  0  0  0  0  0  0  0
  1 35  1  0  0  0  0
  2  1  2  0  0  0  0
  2 36  1  0  0  0  0
  3 37  1  0  0  0  0
  3 38  1  0  0  0  0
  4 39  1  0  0  0  0
  4 40  1  0  0  0  0
  5 26  1  6  0  0  0
  5  3  1  0  0  0  0
  6  4  1  0  0  0  0
  6 27  1  1  0  0  0
  7  6  1  0  0  0  0
  7 19  1  0  0  0  0
  7 28  1  6  0  0  0
  8  7  1  0  0  0  0
  8 20  1  0  0  0  0
  8 29  1  1  0  0  0
  9 21  1  0  0  0  0
  9 30  1  6  0  0  0
 10  9  1  0  0  0  0
 10 31  1  1  0  0  0
 10 22  1  0  0  0  0
 11  8  1  0  0  0  0
 11 23  1  0  0  0  0
 11 32  1  6  0  0  0
 12  5  1  0  0  0  0
 12  9  1  0  0  0  0
 12 25  1  0  0  0  0
 12 33  1  6  0  0  0
 13 10  1  0  0  0  0
 14 11  1  0  0  0  0
 14 34  1  1  0  0  0
 14 25  1  0  0  0  0
 15  1  1  0  0  0  0
 15 13  2  0  0  0  0
 16  2  1  0  0  0  0
 16  5  1  0  0  0  0
 16 13  1  0  0  0  0
 17  3  1  0  0  0  0
 17 41  1  0  0  0  0
 18  4  1  0  0  0  0
 18 42  1  0  0  0  0
 19 43  1  0  0  0  0
 20 44  1  0  0  0  0
 21 45  1  0  0  0  0
 22 46  1  0  0  0  0
 23 47  1  0  0  0  0
 24  6  1  0  0  0  0
 24 14  1  0  0  0  0
M  END
>  <DRUGBANK_ID>
DB02017

>  <SECONDARY_ACCESSION_NUMBERS>
EXPT01837

>  <COMMON_NAME>
Imidazole-Derived Cellobiose

$$$$
