
 OpenBabel10282417153D

 61 62  0  0  1  0  0  0  0  0999 V2000
    7.0167   -5.1211    0.0106 Cl  0  0  0  0  0  0  0  0  0  0  0  0
    1.0826   -0.0323    0.0461 Cl  0  0  0  0  0  0  0  0  0  0  0  0
    2.2393   -5.7799    1.1921 N   0  0  0  0  0  0  0  0  0  0  0  0
    2.9879   -7.0449    1.1984 C   0  0  0  0  0  0  0  0  0  0  0  0
    2.1550   -8.3210    1.1111 C   0  0  0  0  0  0  0  0  0  0  0  0
    3.8132   -7.0466    2.4914 C   0  0  0  0  0  0  0  0  0  0  0  0
    3.0338   -9.5585    1.2214 C   0  0  0  0  0  0  0  0  0  0  0  0
    4.6786   -8.2960    2.6074 C   0  0  0  0  0  0  0  0  0  0  0  0
    3.8382   -9.5598    2.5152 C   0  0  0  0  0  0  0  0  0  0  0  0
    8.3200   -2.4278    0.1253 C   0  0  0  0  0  0  0  0  0  0  0  0
    9.0362   -3.0814   -1.0535 C   0  0  0  0  0  0  0  0  0  0  0  0
    8.7043   -3.1379    1.4295 C   0  0  0  0  0  0  0  0  0  0  0  0
   10.5428   -3.0980   -0.8394 C   0  0  0  0  0  0  0  0  0  0  0  0
   10.2147   -3.1687    1.6319 C   0  0  0  0  0  0  0  0  0  0  0  0
   10.9167   -3.8183    0.4498 C   0  0  0  0  0  0  0  0  0  0  0  0
    2.6040   -5.0005    0.0003 C   0  0  0  0  0  0  0  0  0  0  0  0
    6.8008   -2.4419    0.0777 C   0  0  0  0  0  0  0  0  0  0  0  0
    2.5680   -5.0100    2.4005 C   0  0  0  0  0  0  0  0  0  0  0  0
    1.8298   -3.6925   -0.0062 C   0  0  0  0  0  0  0  0  0  0  0  0
    6.1087   -3.6404    0.0309 C   0  0  0  0  0  0  0  0  0  0  0  0
    6.0819   -1.2510    0.0805 C   0  0  0  0  0  0  0  0  0  0  0  0
    4.0591   -4.7161    2.4240 C   0  0  0  0  0  0  0  0  0  0  0  0
    4.0169   -2.4907    0.0314 C   0  0  0  0  0  0  0  0  0  0  0  0
    4.7227   -3.6931    0.0372 C   0  0  0  0  0  0  0  0  0  0  0  0
    4.6923   -1.2808    0.0462 C   0  0  0  0  0  0  0  0  0  0  0  0
    2.4971   -2.5071    0.0085 C   0  0  0  0  0  0  0  0  0  0  0  0
    2.4126   -0.0323    0.0461 H   0  0  0  0  0  0  0  0  0  0  0  0
    3.5781   -7.0717    0.3063 H   0  0  0  0  0  0  0  0  0  0  0  0
    1.4570   -8.3270    1.9220 H   0  0  0  0  0  0  0  0  0  0  0  0
    1.6418   -8.3396    0.1724 H   0  0  0  0  0  0  0  0  0  0  0  0
    4.4595   -6.1940    2.4752 H   0  0  0  0  0  0  0  0  0  0  0  0
    3.1470   -7.0076    3.3278 H   0  0  0  0  0  0  0  0  0  0  0  0
    2.4004  -10.4208    1.2196 H   0  0  0  0  0  0  0  0  0  0  0  0
    3.7096   -9.5798    0.3921 H   0  0  0  0  0  0  0  0  0  0  0  0
    5.1655   -8.2826    3.5601 H   0  0  0  0  0  0  0  0  0  0  0  0
    5.3977   -8.2968    1.8151 H   0  0  0  0  0  0  0  0  0  0  0  0
    3.1655   -9.5953    3.3465 H   0  0  0  0  0  0  0  0  0  0  0  0
    4.4813  -10.4148    2.5315 H   0  0  0  0  0  0  0  0  0  0  0  0
    8.6370   -1.4072    0.0725 H   0  0  0  0  0  0  0  0  0  0  0  0
    8.6946   -4.0916   -1.1406 H   0  0  0  0  0  0  0  0  0  0  0  0
    8.8160   -2.5314   -1.9445 H   0  0  0  0  0  0  0  0  0  0  0  0
    8.2700   -2.5966    2.2440 H   0  0  0  0  0  0  0  0  0  0  0  0
    8.3383   -4.1429    1.3979 H   0  0  0  0  0  0  0  0  0  0  0  0
   10.9920   -3.6207   -1.6579 H   0  0  0  0  0  0  0  0  0  0  0  0
   10.8978   -2.0898   -0.7897 H   0  0  0  0  0  0  0  0  0  0  0  0
   10.4266   -3.7441    2.5088 H   0  0  0  0  0  0  0  0  0  0  0  0
   10.5723   -2.1662    1.7419 H   0  0  0  0  0  0  0  0  0  0  0  0
   10.6129   -4.8419    0.3806 H   0  0  0  0  0  0  0  0  0  0  0  0
   11.9757   -3.7624    0.5924 H   0  0  0  0  0  0  0  0  0  0  0  0
    2.3647   -5.5610   -0.8793 H   0  0  0  0  0  0  0  0  0  0  0  0
    3.6537   -4.7937    0.0169 H   0  0  0  0  0  0  0  0  0  0  0  0
    2.0230   -4.0892    2.3959 H   0  0  0  0  0  0  0  0  0  0  0  0
    2.3025   -5.5773    3.2680 H   0  0  0  0  0  0  0  0  0  0  0  0
    0.7600   -3.7040   -0.0223 H   0  0  0  0  0  0  0  0  0  0  0  0
    6.5973   -0.3138    0.1090 H   0  0  0  0  0  0  0  0  0  0  0  0
    4.3246   -4.1489    1.5565 H   0  0  0  0  0  0  0  0  0  0  0  0
    4.2983   -4.1557    3.3036 H   0  0  0  0  0  0  0  0  0  0  0  0
    4.6041   -5.6369    2.4286 H   0  0  0  0  0  0  0  0  0  0  0  0
    4.2089   -4.6316    0.0464 H   0  0  0  0  0  0  0  0  0  0  0  0
    4.1410   -0.3639    0.0313 H   0  0  0  0  0  0  0  0  0  0  0  0
    1.9522   -1.5863    0.0039 H   0  0  0  0  0  0  0  0  0  0  0  0
  1 20  1  0  0  0  0
  2 27  1  0  0  0  0
  3  4  1  0  0  0  0
  3 16  1  0  0  0  0
  3 18  1  0  0  0  0
  4  5  1  0  0  0  0
  4  6  1  0  0  0  0
  4 28  1  0  0  0  0
  5  7  1  0  0  0  0
  5 29  1  0  0  0  0
  5 30  1  0  0  0  0
  6  8  1  0  0  0  0
  6 31  1  0  0  0  0
  6 32  1  0  0  0  0
  7  9  1  0  0  0  0
  7 33  1  0  0  0  0
  7 34  1  0  0  0  0
  8  9  1  0  0  0  0
  8 35  1  0  0  0  0
  8 36  1  0  0  0  0
  9 37  1  0  0  0  0
  9 38  1  0  0  0  0
 10 11  1  0  0  0  0
 10 12  1  0  0  0  0
 10 17  1  0  0  0  0
 10 39  1  0  0  0  0
 11 13  1  0  0  0  0
 11 40  1  0  0  0  0
 11 41  1  0  0  0  0
 12 14  1  0  0  0  0
 12 42  1  0  0  0  0
 12 43  1  0  0  0  0
 13 15  1  0  0  0  0
 13 44  1  0  0  0  0
 13 45  1  0  0  0  0
 14 15  1  0  0  0  0
 14 46  1  0  0  0  0
 14 47  1  0  0  0  0
 15 48  1  0  0  0  0
 15 49  1  0  0  0  0
 16 19  1  0  0  0  0
 16 50  1  0  0  0  0
 16 51  1  0  0  0  0
 17 20  2  0  0  0  0
 17 21  1  0  0  0  0
 18 22  1  0  0  0  0
 18 52  1  0  0  0  0
 18 53  1  0  0  0  0
 19 26  2  0  0  0  0
 19 54  1  0  0  0  0
 20 24  1  0  0  0  0
 21 25  2  0  0  0  0
 21 55  1  0  0  0  0
 22 56  1  0  0  0  0
 22 57  1  0  0  0  0
 22 58  1  0  0  0  0
 23 24  2  0  0  0  0
 23 25  1  0  0  0  0
 23 26  1  0  0  0  0
 24 59  1  0  0  0  0
 25 60  1  0  0  0  0
 26 61  1  0  0  0  0
M  END
>  <DRUGBANK_ID>
DB05792

>  <COMMON_NAME>
Arylacenamide

>  <CAS_NUMBER>
132173-07-0

>  <UNII>
9K6U3I1UR0

$$$$
