
 OpenBabel10282417233D

234245  0  0  1  0  0  0  0  0999 V2000
   -4.8740  -24.3444   14.9186 H   0  0  0  0  0  0  0  0  0  0  0  0
   -5.5261  -23.7788   15.5929 C   0  0  2  0  0  0  0  0  0  0  0  0
   -6.0806  -22.4149   14.8877 C   0  0  0  0  0  0  0  0  0  0  0  0
   -5.0856  -21.7225   14.1909 C   0  0  0  0  0  0  0  0  0  0  0  0
   -5.0304  -20.9357   13.1072 C   0  0  0  0  0  0  0  0  0  0  0  0
   -3.7466  -20.4532   13.0023 N   0  0  0  0  0  0  0  0  0  0  0  0
   -2.9626  -20.9438   14.0393 C   0  0  0  0  0  0  0  0  0  0  0  0
   -3.8322  -21.7221   14.7755 C   0  0  0  0  0  0  0  0  0  0  0  0
   -3.7124  -22.3999   15.9686 C   0  0  0  0  0  0  0  0  0  0  0  0
   -2.1571  -22.2875   16.3503 C   0  0  0  0  0  0  0  0  0  0  0  0
   -1.2237  -21.4867   15.5825 C   0  0  0  0  0  0  0  0  0  0  0  0
   -1.6352  -20.8005   14.4306 C   0  0  0  0  0  0  0  0  0  0  0  0
   -5.6100  -22.8403   16.5958 C   0  0  1  0  0  0  0  0  0  0  0  0
   -4.3058  -23.3380   17.3371 H   0  0  0  0  0  0  0  0  0  0  0  0
   -7.8209  -22.8494   16.1303 C   0  0  0  0  0  0  0  0  0  0  0  0
   -8.1943  -23.9554   14.6975 C   0  0  1  0  0  0  0  0  0  0  0  0
   -7.0603  -24.2991   13.6125 C   0  0  0  0  0  0  0  0  0  0  0  0
   -7.4028  -23.1586   12.3329 S   0  0  0  0  0  0  0  0  0  0  0  0
   -8.8481  -23.9098   11.5754 C   0  0  0  0  0  0  0  0  0  0  0  0
   -8.5162  -25.3163   11.0756 C   0  0  0  0  0  0  0  0  0  0  0  0
   -9.1758  -26.2749   11.4880 O   0  0  0  0  0  0  0  0  0  0  0  0
   -7.4586  -25.4690   10.1530 N   0  0  0  0  0  0  0  0  0  0  0  0
   -6.6530  -24.3470    9.6642 C   0  0  0  0  0  0  0  0  0  0  0  0
   -5.1979  -24.5224   10.0346 C   0  0  0  0  0  0  0  0  0  0  0  0
   -4.6584  -25.7821    9.3915 C   0  0  0  0  0  0  0  0  0  0  0  0
   -4.7644  -25.6899    7.8974 C   0  0  0  0  0  0  0  0  0  0  0  0
   -3.9196  -24.5427    7.5275 C   0  0  1  0  0  0  0  0  0  0  0  0
   -2.4867  -24.5200    7.7918 N   0  0  0  0  0  0  0  0  0  0  0  0
   -1.2316  -24.0263    6.4852 C   0  0  0  0  0  0  0  0  0  0  0  0
   -0.1101  -24.1613    6.8082 O   0  0  0  0  0  0  0  0  0  0  0  0
   -1.8491  -24.4913    5.0981 C   0  0  0  0  0  0  0  0  0  0  0  0
   -3.0522  -26.1590    4.6884 S   0  0  0  0  0  0  0  0  0  0  0  0
   -1.9405  -27.6643    4.8421 C   0  0  0  0  0  0  0  0  0  0  0  0
    0.0015  -27.6846    3.8852 C   0  0  1  0  0  0  0  0  0  0  0  0
    2.3551  -27.6277    4.2252 C   0  0  0  0  0  0  0  0  0  0  0  0
    2.3956  -28.6190    3.5335 N   0  0  0  0  0  0  0  0  0  0  0  0
    3.0717  -29.6797    3.3001 C   0  0  0  0  0  0  0  0  0  0  0  0
    3.9594  -29.3379    2.2693 C   0  0  0  0  0  0  0  0  0  0  0  0
    5.1340  -28.6349    2.8051 C   0  0  0  0  0  0  0  0  0  0  0  0
    1.8573  -28.5830    4.7785 C   0  0  2  0  0  0  0  0  0  0  0  0
    2.5813  -29.4975    5.7138 H   0  0  0  0  0  0  0  0  0  0  0  0
    1.9254  -27.0635    6.0880 C   0  0  0  0  0  0  0  0  0  0  0  0
    0.5343  -27.6378    7.5295 C   0  0  0  0  0  0  0  0  0  0  0  0
    0.6244  -27.1705    8.7116 C   0  0  0  0  0  0  0  0  0  0  0  0
   -0.7816  -27.4962    8.9652 N   0  0  0  0  0  0  0  0  0  0  0  0
   -1.2202  -28.5384    8.3448 C   0  0  0  0  0  0  0  0  0  0  0  0
   -0.6344  -28.3843    7.1982 C   0  0  0  0  0  0  0  0  0  0  0  0
   -0.9831  -29.2188    5.9624 C   0  0  0  0  0  0  0  0  0  0  0  0
   -1.3251  -31.1778    6.8104 C   0  0  0  0  0  0  0  0  0  0  0  0
   -1.9592  -30.9471    7.8299 C   0  0  0  0  0  0  0  0  0  0  0  0
   -1.9546  -29.7002    8.5627 C   0  0  0  0  0  0  0  0  0  0  0  0
    0.3559  -29.3418    4.3489 C   0  0  1  0  0  0  0  0  0  0  0  0
    1.1446  -30.6391    3.7046 H   0  0  0  0  0  0  0  0  0  0  0  0
   -0.4940  -28.8691    3.4404 C   0  0  0  0  0  0  0  0  0  0  0  0
   -2.3532  -25.0331    7.2639 C   0  0  0  0  0  0  0  0  0  0  0  0
   -3.4827  -24.1537    6.1827 O   0  0  0  0  0  0  0  0  0  0  0  0
   -0.4245  -25.3465    8.3719 N   0  0  0  0  0  0  0  0  0  0  0  0
    1.7648  -25.6760    9.7029 C   0  0  0  0  0  0  0  0  0  0  0  0
    3.9580  -25.6477   11.4168 C   0  0  0  0  0  0  0  0  0  0  0  0
    6.3909  -25.1077   13.1855 S   0  0  0  0  0  0  0  0  0  0  0  0
    9.3893  -25.3320   14.1224 S   0  0  0  0  0  0  0  0  0  0  0  0
   11.8079  -26.1650   13.3851 C   0  0  0  0  0  0  0  0  0  0  0  0
   11.2402  -27.4338   12.9517 C   0  0  2  0  0  0  0  0  0  0  0  0
    9.8438  -27.3655   13.3601 N   0  0  0  0  0  0  0  0  0  0  0  0
    8.8011  -27.2707   12.4510 C   0  0  0  0  0  0  0  0  0  0  0  0
    9.0027  -27.3518   11.2434 O   0  0  0  0  0  0  0  0  0  0  0  0
    7.3900  -27.2021   12.9044 C   0  0  0  0  0  0  0  0  0  0  0  0
    7.1578  -27.2187   14.4466 C   0  0  0  0  0  0  0  0  0  0  0  0
    5.8658  -26.7844   15.0704 C   0  0  0  0  0  0  0  0  0  0  0  0
    6.9657  -26.0895   11.7115 N   0  0  0  0  0  0  0  0  0  0  0  0
    5.8368  -26.0255   11.1573 C   0  0  0  0  0  0  0  0  0  0  0  0
    5.3909  -27.1451   11.3838 O   0  0  0  0  0  0  0  0  0  0  0  0
    5.0964  -24.4813   10.7212 C   0  0  2  0  0  0  0  0  0  0  0  0
    3.4195  -24.1318   11.4301 C   0  0  0  0  0  0  0  0  0  0  0  0
    2.5170  -25.4787   11.0776 C   0  0  0  0  0  0  0  0  0  0  0  0
    2.9767  -27.0494   11.3470 C   0  0  0  0  0  0  0  0  0  0  0  0
    3.0839  -27.0542   12.8535 C   0  0  0  0  0  0  0  0  0  0  0  0
    1.7606  -26.8056   13.3161 N   0  0  0  0  0  0  0  0  0  0  0  0
    4.9475  -24.7687    9.3768 N   0  0  0  0  0  0  0  0  0  0  0  0
    3.7548  -24.6182    8.6608 C   0  0  0  0  0  0  0  0  0  0  0  0
    2.6875  -24.1782    9.1151 O   0  0  0  0  0  0  0  0  0  0  0  0
    3.7487  -24.8621    7.2313 C   0  0  1  0  0  0  0  0  0  0  0  0
    5.0919  -25.0898    6.6825 C   0  0  0  0  0  0  0  0  0  0  0  0
    5.0951  -25.2083    5.2171 C   0  0  0  0  0  0  0  0  0  0  0  0
    6.1051  -24.9633    4.3645 C   0  0  0  0  0  0  0  0  0  0  0  0
    5.7245  -25.2125    3.0646 N   0  0  0  0  0  0  0  0  0  0  0  0
    4.4282  -25.5817    3.0080 C   0  0  0  0  0  0  0  0  0  0  0  0
    4.1091  -25.3861    4.3001 C   0  0  0  0  0  0  0  0  0  0  0  0
    2.8619  -25.6247    4.3735 C   0  0  0  0  0  0  0  0  0  0  0  0
    1.8049  -26.0224    3.3329 C   0  0  0  0  0  0  0  0  0  0  0  0
    2.2725  -26.4284    2.1976 C   0  0  0  0  0  0  0  0  0  0  0  0
    3.5544  -26.0503    1.9920 C   0  0  0  0  0  0  0  0  0  0  0  0
    2.9233  -25.9181    7.1600 N   0  0  0  0  0  0  0  0  0  0  0  0
    1.6654  -25.4276    6.3562 C   0  0  0  0  0  0  0  0  0  0  0  0
    1.4325  -24.4713    5.5654 O   0  0  0  0  0  0  0  0  0  0  0  0
    0.4471  -27.3109    5.7249 C   0  0  0  0  0  0  0  0  0  0  0  0
    1.5746  -28.7221    6.5878 C   0  0  0  0  0  0  0  0  0  0  0  0
    1.0162  -29.8811    6.3582 C   0  0  0  0  0  0  0  0  0  0  0  0
    1.1588  -30.7081    5.3895 C   0  0  0  0  0  0  0  0  0  0  0  0
   -0.0356  -31.4373    4.3723 C   0  0  0  0  0  0  0  0  0  0  0  0
   -1.3605  -31.3864    4.3927 C   0  0  0  0  0  0  0  0  0  0  0  0
   -2.0127  -32.5230    4.2830 O   0  0  0  0  0  0  0  0  0  0  0  0
   -1.6557  -30.5734    5.3294 C   0  0  0  0  0  0  0  0  0  0  0  0
    0.0002  -30.3004    6.6991 C   0  0  0  0  0  0  0  0  0  0  0  0
   -0.5647  -26.6923    6.2054 N   0  0  0  0  0  0  0  0  0  0  0  0
    0.4343  -25.7691    7.5487 C   0  0  0  0  0  0  0  0  0  0  0  0
   -0.6670  -26.0328    6.2775 O   0  0  0  0  0  0  0  0  0  0  0  0
   11.8618  -28.6922   13.5987 C   0  0  0  0  0  0  0  0  0  0  0  0
   12.2415  -29.6120   12.8694 O   0  0  0  0  0  0  0  0  0  0  0  0
   11.9717  -28.7665   15.0033 N   0  0  0  0  0  0  0  0  0  0  0  0
   11.5498  -27.7352   15.9408 C   0  0  1  0  0  0  0  0  0  0  0  0
   10.4367  -28.1635   16.8570 C   0  0  1  0  0  0  0  0  0  0  0  0
   10.9608  -29.2729   17.7055 C   0  0  0  0  0  0  0  0  0  0  0  0
    9.9943  -27.0749   17.6630 O   0  0  0  0  0  0  0  0  0  0  0  0
   12.7325  -27.1260   16.7423 C   0  0  0  0  0  0  0  0  0  0  0  0
   13.1099  -25.7774   16.6055 N   0  0  0  0  0  0  0  0  0  0  0  0
   13.3366  -27.8840   17.5060 O   0  0  0  0  0  0  0  0  0  0  0  0
   -7.5585  -25.0233   15.4505 C   0  0  0  0  0  0  0  0  0  0  0  0
   -6.5202  -24.5329   16.3473 N   0  0  0  0  0  0  0  0  0  0  0  0
   -5.9139  -25.5566   17.1100 C   0  0  0  0  0  0  0  0  0  0  0  0
   -5.8135  -25.0335   18.5155 C   0  0  0  0  0  0  0  0  0  0  0  0
   -7.1736  -24.6277   19.0207 C   0  0  0  0  0  0  0  0  0  0  0  0
   -7.0720  -21.9341   14.8215 H   0  0  0  0  0  0  0  0  0  0  0  0
   -6.8438  -22.9865   14.6517 H   0  0  0  0  0  0  0  0  0  0  0  0
   -5.8366  -20.7123   12.4400 H   0  0  0  0  0  0  0  0  0  0  0  0
   -3.4337  -19.8306   12.2709 H   0  0  0  0  0  0  0  0  0  0  0  0
   -1.7171  -22.7761   17.2262 H   0  0  0  0  0  0  0  0  0  0  0  0
   -0.1836  -21.3698   15.8785 H   0  0  0  0  0  0  0  0  0  0  0  0
   -0.9350  -20.1971   13.8811 H   0  0  0  0  0  0  0  0  0  0  0  0
   -9.3107  -22.3685   16.1666 H   0  0  0  0  0  0  0  0  0  0  0  0
   -9.3405  -22.5298   15.7949 H   0  0  0  0  0  0  0  0  0  0  0  0
   -8.8620  -23.4399   13.9550 H   0  0  0  0  0  0  0  0  0  0  0  0
   -6.0924  -24.0336   13.9810 H   0  0  0  0  0  0  0  0  0  0  0  0
   -6.7474  -25.2793   13.4111 H   0  0  0  0  0  0  0  0  0  0  0  0
   -9.6941  -23.9440   12.2648 H   0  0  0  0  0  0  0  0  0  0  0  0
   -9.1345  -23.2707   10.7423 H   0  0  0  0  0  0  0  0  0  0  0  0
   -7.2186  -26.4109    9.8136 H   0  0  0  0  0  0  0  0  0  0  0  0
   -6.7560  -24.2536    8.5876 H   0  0  0  0  0  0  0  0  0  0  0  0
   -7.0230  -23.4267   10.0824 H   0  0  0  0  0  0  0  0  0  0  0  0
   -4.6228  -23.6603    9.6995 H   0  0  0  0  0  0  0  0  0  0  0  0
   -5.0948  -24.5878   11.1100 H   0  0  0  0  0  0  0  0  0  0  0  0
   -3.6177  -25.9186    9.6678 H   0  0  0  0  0  0  0  0  0  0  0  0
   -5.2162  -26.6389    9.7430 H   0  0  0  0  0  0  0  0  0  0  0  0
   -4.4044  -26.5907    7.4243 H   0  0  0  0  0  0  0  0  0  0  0  0
   -5.8095  -25.5611    7.5982 H   0  0  0  0  0  0  0  0  0  0  0  0
   -4.3328  -23.5680    7.8344 H   0  0  0  0  0  0  0  0  0  0  0  0
   -2.2649  -24.7277    8.7731 H   0  0  0  0  0  0  0  0  0  0  0  0
   -2.3956  -23.5939    5.0032 H   0  0  0  0  0  0  0  0  0  0  0  0
   -0.9997  -24.6217    4.5505 H   0  0  0  0  0  0  0  0  0  0  0  0
   -2.1441  -27.6596    6.0506 H   0  0  0  0  0  0  0  0  0  0  0  0
   -2.9102  -28.3630    4.7451 H   0  0  0  0  0  0  0  0  0  0  0  0
   -1.0882  -26.6238    3.8122 H   0  0  0  0  0  0  0  0  0  0  0  0
    3.9601  -27.2957    4.1353 H   0  0  0  0  0  0  0  0  0  0  0  0
    3.9379  -27.2750    4.6486 H   0  0  0  0  0  0  0  0  0  0  0  0
    3.4210  -30.1548    4.1901 H   0  0  0  0  0  0  0  0  0  0  0  0
    2.1765  -30.1094    2.8661 H   0  0  0  0  0  0  0  0  0  0  0  0
    4.2542  -30.2860    1.8995 H   0  0  0  0  0  0  0  0  0  0  0  0
    3.4566  -28.7650    1.4967 H   0  0  0  0  0  0  0  0  0  0  0  0
    5.5731  -29.1288    3.6511 H   0  0  0  0  0  0  0  0  0  0  0  0
    5.8368  -28.3999    2.0495 H   0  0  0  0  0  0  0  0  0  0  0  0
    4.8501  -27.6873    3.0608 H   0  0  0  0  0  0  0  0  0  0  0  0
    1.7348  -26.4478    5.1919 H   0  0  0  0  0  0  0  0  0  0  0  0
    0.7375  -25.9813    5.5465 H   0  0  0  0  0  0  0  0  0  0  0  0
    1.0324  -25.5859    8.6335 H   0  0  0  0  0  0  0  0  0  0  0  0
   -1.2021  -27.0568    9.7112 H   0  0  0  0  0  0  0  0  0  0  0  0
   -0.9752  -31.9760    6.0607 H   0  0  0  0  0  0  0  0  0  0  0  0
   -2.4726  -31.7727    7.9115 H   0  0  0  0  0  0  0  0  0  0  0  0
   -2.4152  -29.8004    9.4638 H   0  0  0  0  0  0  0  0  0  0  0  0
   -0.0240  -29.1977    2.6494 H   0  0  0  0  0  0  0  0  0  0  0  0
   -1.3727  -29.3887    3.5330 H   0  0  0  0  0  0  0  0  0  0  0  0
   -1.3947  -25.6498    7.1095 H   0  0  0  0  0  0  0  0  0  0  0  0
    0.1165  -25.8371    9.5460 H   0  0  0  0  0  0  0  0  0  0  0  0
    5.1001  -25.4530   12.8339 H   0  0  0  0  0  0  0  0  0  0  0  0
    4.9733  -25.6497   12.9391 H   0  0  0  0  0  0  0  0  0  0  0  0
   13.0892  -26.3093   13.0210 H   0  0  0  0  0  0  0  0  0  0  0  0
   11.7000  -25.3008   12.8430 H   0  0  0  0  0  0  0  0  0  0  0  0
   11.2573  -27.5267   11.8753 H   0  0  0  0  0  0  0  0  0  0  0  0
    9.6821  -27.1227   14.3818 H   0  0  0  0  0  0  0  0  0  0  0  0
    6.7307  -27.9454   12.6809 H   0  0  0  0  0  0  0  0  0  0  0  0
    7.8041  -27.8397   14.9811 H   0  0  0  0  0  0  0  0  0  0  0  0
    7.6270  -26.4014   14.8317 H   0  0  0  0  0  0  0  0  0  0  0  0
    5.2849  -27.5732   14.7363 H   0  0  0  0  0  0  0  0  0  0  0  0
    5.9430  -26.5818   16.1092 H   0  0  0  0  0  0  0  0  0  0  0  0
    5.2801  -25.8809   14.7903 H   0  0  0  0  0  0  0  0  0  0  0  0
    7.2428  -24.9234   12.2507 H   0  0  0  0  0  0  0  0  0  0  0  0
    5.6072  -23.7430   11.1822 H   0  0  0  0  0  0  0  0  0  0  0  0
    3.4781  -24.3683   12.5285 H   0  0  0  0  0  0  0  0  0  0  0  0
    3.1238  -23.3490   11.0579 H   0  0  0  0  0  0  0  0  0  0  0  0
    1.6071  -25.3679   11.3243 H   0  0  0  0  0  0  0  0  0  0  0  0
    3.1767  -25.6480   10.0274 H   0  0  0  0  0  0  0  0  0  0  0  0
    2.4775  -27.7381   10.8733 H   0  0  0  0  0  0  0  0  0  0  0  0
    3.9012  -27.1470   10.7530 H   0  0  0  0  0  0  0  0  0  0  0  0
    3.5187  -27.9683   13.1456 H   0  0  0  0  0  0  0  0  0  0  0  0
    3.6893  -26.2768   13.3221 H   0  0  0  0  0  0  0  0  0  0  0  0
    1.7652  -26.8368   14.3257 H   0  0  0  0  0  0  0  0  0  0  0  0
    1.4293  -25.8860   13.0219 H   0  0  0  0  0  0  0  0  0  0  0  0
    5.8319  -24.9418    8.9461 H   0  0  0  0  0  0  0  0  0  0  0  0
    3.2659  -23.9980    6.7690 H   0  0  0  0  0  0  0  0  0  0  0  0
    5.6984  -24.2317    6.9730 H   0  0  0  0  0  0  0  0  0  0  0  0
    5.5226  -25.9798    7.1454 H   0  0  0  0  0  0  0  0  0  0  0  0
    7.0543  -24.6027    4.6761 H   0  0  0  0  0  0  0  0  0  0  0  0
    6.2958  -25.1022    2.2500 H   0  0  0  0  0  0  0  0  0  0  0  0
    2.9996  -26.0044    5.3864 H   0  0  0  0  0  0  0  0  0  0  0  0
    0.8899  -26.4779    3.4994 H   0  0  0  0  0  0  0  0  0  0  0  0
    1.5920  -26.8397    1.5203 H   0  0  0  0  0  0  0  0  0  0  0  0
    3.8770  -26.0737    0.9909 H   0  0  0  0  0  0  0  0  0  0  0  0
    3.1586  -26.9530    7.2319 H   0  0  0  0  0  0  0  0  0  0  0  0
    0.8492  -27.1980    4.8278 H   0  0  0  0  0  0  0  0  0  0  0  0
    2.8340  -28.2853    6.1475 H   0  0  0  0  0  0  0  0  0  0  0  0
    1.8293  -28.5073    7.5161 H   0  0  0  0  0  0  0  0  0  0  0  0
    1.8641  -30.0861    4.5357 H   0  0  0  0  0  0  0  0  0  0  0  0
    0.3690  -31.8936    3.4567 H   0  0  0  0  0  0  0  0  0  0  0  0
   -1.6472  -33.0714    3.5863 H   0  0  0  0  0  0  0  0  0  0  0  0
   -2.7176  -30.4523    5.9918 H   0  0  0  0  0  0  0  0  0  0  0  0
   -0.3559  -29.9690    7.7704 H   0  0  0  0  0  0  0  0  0  0  0  0
   -0.9821  -26.8241    7.0316 H   0  0  0  0  0  0  0  0  0  0  0  0
   12.3740  -29.5996   15.4445 H   0  0  0  0  0  0  0  0  0  0  0  0
   11.0341  -27.0629   15.3585 H   0  0  0  0  0  0  0  0  0  0  0  0
    9.5943  -28.5200   16.2579 H   0  0  0  0  0  0  0  0  0  0  0  0
   11.7911  -28.9184   18.3029 H   0  0  0  0  0  0  0  0  0  0  0  0
   10.1969  -29.6235   18.3751 H   0  0  0  0  0  0  0  0  0  0  0  0
   11.3055  -30.0929   17.0847 H   0  0  0  0  0  0  0  0  0  0  0  0
   10.7507  -26.7451   18.1915 H   0  0  0  0  0  0  0  0  0  0  0  0
   13.9116  -25.3943   17.1317 H   0  0  0  0  0  0  0  0  0  0  0  0
   12.6514  -25.1231   15.9643 H   0  0  0  0  0  0  0  0  0  0  0  0
   -8.3163  -25.7313   15.5819 H   0  0  0  0  0  0  0  0  0  0  0  0
   -6.8316  -25.6828   15.0120 H   0  0  0  0  0  0  0  0  0  0  0  0
   -6.5655  -26.4171   17.0783 H   0  0  0  0  0  0  0  0  0  0  0  0
   -4.9365  -25.8351   16.7286 H   0  0  0  0  0  0  0  0  0  0  0  0
   -5.3944  -25.7988   19.1513 H   0  0  0  0  0  0  0  0  0  0  0  0
   -5.1556  -24.1737   18.5524 H   0  0  0  0  0  0  0  0  0  0  0  0
   -7.8393  -25.4840   19.0004 H   0  0  0  0  0  0  0  0  0  0  0  0
   -7.1028  -24.2511   20.0308 H   0  0  0  0  0  0  0  0  0  0  0  0
   -7.5948  -23.8483   18.3919 H   0  0  0  0  0  0  0  0  0  0  0  0
  2  3  1  0  0  0  0
  2 13  1  0  0  0  0
  2119  1  0  0  0  0
  2  1  1  1  0  0  0
  3  4  1  0  0  0  0
  3123  1  0  0  0  0
  3124  1  0  0  0  0
  4  5  2  0  0  0  0
  4  8  1  0  0  0  0
  5  6  1  0  0  0  0
  5125  1  0  0  0  0
  6  7  1  0  0  0  0
  6126  1  0  0  0  0
  7  8  2  0  0  0  0
  7 12  1  0  0  0  0
  8  9  1  0  0  0  0
  9 10  2  0  0  0  0
 10 11  1  0  0  0  0
 10127  1  0  0  0  0
 11 12  2  0  0  0  0
 11128  1  0  0  0  0
 12129  1  0  0  0  0
 13  9  1  0  0  0  0
 13 15  1  0  0  0  0
 13 14  1  1  0  0  0
 15130  1  0  0  0  0
 15131  1  0  0  0  0
 16 15  1  0  0  0  0
 16118  1  0  0  0  0
 16132  1  6  0  0  0
 16 17  1  0  0  0  0
 17 18  1  0  0  0  0
 17133  1  0  0  0  0
 17134  1  0  0  0  0
 18 19  1  0  0  0  0
 19 20  1  0  0  0  0
 19135  1  0  0  0  0
 19136  1  0  0  0  0
 20 21  2  0  0  0  0
 20 22  1  0  0  0  0
 22 23  1  0  0  0  0
 22137  1  0  0  0  0
 23 24  1  0  0  0  0
 23138  1  0  0  0  0
 23139  1  0  0  0  0
 24 25  1  0  0  0  0
 24140  1  0  0  0  0
 24141  1  0  0  0  0
 25 26  1  0  0  0  0
 25142  1  0  0  0  0
 25143  1  0  0  0  0
 26144  1  0  0  0  0
 26145  1  0  0  0  0
 27 26  1  0  0  0  0
 27 28  1  0  0  0  0
 27 55  1  0  0  0  0
 27146  1  6  0  0  0
 28 29  1  0  0  0  0
 28147  1  0  0  0  0
 29 30  2  0  0  0  0
 29 31  1  0  0  0  0
 31 32  1  0  0  0  0
 31148  1  0  0  0  0
 31149  1  0  0  0  0
 32 33  1  0  0  0  0
 33150  1  0  0  0  0
 33151  1  0  0  0  0
 34 35  1  0  0  0  0
 34 54  1  0  0  0  0
 34152  1  6  0  0  0
 34 33  1  0  0  0  0
 35 36  1  0  0  0  0
 35153  1  0  0  0  0
 35154  1  0  0  0  0
 36 37  1  0  0  0  0
 37 38  1  0  0  0  0
 37155  1  0  0  0  0
 37156  1  0  0  0  0
 38 39  1  0  0  0  0
 38157  1  0  0  0  0
 38158  1  0  0  0  0
 39159  1  0  0  0  0
 39160  1  0  0  0  0
 39161  1  0  0  0  0
 40 36  1  0  0  0  0
 40 42  1  0  0  0  0
 40 52  1  0  0  0  0
 40 41  1  6  0  0  0
 42 43  1  0  0  0  0
 42162  1  0  0  0  0
 42163  1  0  0  0  0
 43 44  2  0  0  0  0
 43 47  1  0  0  0  0
 44 45  1  0  0  0  0
 44164  1  0  0  0  0
 45 46  1  0  0  0  0
 45165  1  0  0  0  0
 46 47  2  0  0  0  0
 46 51  1  0  0  0  0
 47 48  1  0  0  0  0
 48 49  2  0  0  0  0
 49 50  1  0  0  0  0
 49166  1  0  0  0  0
 50 51  2  0  0  0  0
 50167  1  0  0  0  0
 51168  1  0  0  0  0
 52 48  1  0  0  0  0
 52 54  1  0  0  0  0
 52 53  1  6  0  0  0
 54169  1  0  0  0  0
 54170  1  0  0  0  0
 55 56  2  0  0  0  0
 55 57  1  0  0  0  0
 57171  1  0  0  0  0
 58 57  1  0  0  0  0
 58 59  1  0  0  0  0
 58106  1  0  0  0  0
 58172  1  0  0  0  0
 59 60  1  0  0  0  0
 59173  1  0  0  0  0
 59174  1  0  0  0  0
 60 61  1  0  0  0  0
 61 62  1  0  0  0  0
 62175  1  0  0  0  0
 62176  1  0  0  0  0
 63 62  1  0  0  0  0
 63 64  1  0  0  0  0
 63108  1  0  0  0  0
 63177  1  6  0  0  0
 64 65  1  0  0  0  0
 64178  1  0  0  0  0
 65 66  2  0  0  0  0
 67 65  1  0  0  0  0
 67 68  1  0  0  0  0
 67 70  1  0  0  0  0
 67179  1  0  0  0  0
 68 69  1  0  0  0  0
 68180  1  0  0  0  0
 68181  1  0  0  0  0
 69182  1  0  0  0  0
 69183  1  0  0  0  0
 69184  1  0  0  0  0
 70 71  1  0  0  0  0
 70185  1  0  0  0  0
 71 72  2  0  0  0  0
 73 71  1  0  0  0  0
 73 79  1  0  0  0  0
 73186  1  1  0  0  0
 73 74  1  0  0  0  0
 74 75  1  0  0  0  0
 74187  1  0  0  0  0
 74188  1  0  0  0  0
 75 76  1  0  0  0  0
 75189  1  0  0  0  0
 75190  1  0  0  0  0
 76 77  1  0  0  0  0
 76191  1  0  0  0  0
 76192  1  0  0  0  0
 77 78  1  0  0  0  0
 77193  1  0  0  0  0
 77194  1  0  0  0  0
 78195  1  0  0  0  0
 78196  1  0  0  0  0
 79 80  1  0  0  0  0
 79197  1  0  0  0  0
 80 81  2  0  0  0  0
 82 80  1  0  0  0  0
 82 83  1  0  0  0  0
 82 93  1  0  0  0  0
 82198  1  6  0  0  0
 83 84  1  0  0  0  0
 83199  1  0  0  0  0
 83200  1  0  0  0  0
 84 85  2  0  0  0  0
 84 88  1  0  0  0  0
 85 86  1  0  0  0  0
 85201  1  0  0  0  0
 86 87  1  0  0  0  0
 86202  1  0  0  0  0
 87 88  2  0  0  0  0
 87 92  1  0  0  0  0
 88 89  1  0  0  0  0
 89 90  2  0  0  0  0
 89203  1  0  0  0  0
 90 91  1  0  0  0  0
 90204  1  0  0  0  0
 91 92  2  0  0  0  0
 91205  1  0  0  0  0
 92206  1  0  0  0  0
 93 94  1  0  0  0  0
 93207  1  0  0  0  0
 94 95  2  0  0  0  0
 96 94  1  0  0  0  0
 96 97  1  0  0  0  0
 96105  1  0  0  0  0
 96208  1  0  0  0  0
 97 98  1  0  0  0  0
 97209  1  0  0  0  0
 97210  1  0  0  0  0
 98 99  2  0  0  0  0
 98104  1  0  0  0  0
 99100  1  0  0  0  0
 99211  1  0  0  0  0
100101  2  0  0  0  0
100212  1  0  0  0  0
101102  1  0  0  0  0
101103  1  0  0  0  0
102213  1  0  0  0  0
103104  2  0  0  0  0
103214  1  0  0  0  0
104215  1  0  0  0  0
105106  1  0  0  0  0
105216  1  0  0  0  0
106107  2  0  0  0  0
108109  2  0  0  0  0
108110  1  0  0  0  0
110217  1  0  0  0  0
111110  1  0  0  0  0
111112  1  0  0  0  0
111115  1  0  0  0  0
111218  1  6  0  0  0
112113  1  0  0  0  0
112114  1  0  0  0  0
112219  1  6  0  0  0
113220  1  0  0  0  0
113221  1  0  0  0  0
113222  1  0  0  0  0
114223  1  0  0  0  0
115116  1  0  0  0  0
115117  2  0  0  0  0
116224  1  0  0  0  0
116225  1  0  0  0  0
118119  1  0  0  0  0
118226  1  0  0  0  0
118227  1  0  0  0  0
119120  1  0  0  0  0
120121  1  0  0  0  0
120228  1  0  0  0  0
120229  1  0  0  0  0
121122  1  0  0  0  0
121230  1  0  0  0  0
121231  1  0  0  0  0
122232  1  0  0  0  0
122233  1  0  0  0  0
122234  1  0  0  0  0
M  END
>  <DRUGBANK_ID>
DB16144

>  <COMMON_NAME>
Dopastatin

>  <CAS_NUMBER>
868562-36-1

>  <UNII>
L32IM11DV4

$$$$
