
 OpenBabel10282417123D

 54 54  0  0  1  0  0  0  0  0999 V2000
    1.1866    2.8206   -0.3824 C   0  0  0  0  0  0  0  0  0  0  0  0
   -0.6115    2.8638   -2.0414 C   0  0  0  0  0  0  0  0  0  0  0  0
    0.3170    1.8663   -0.0455 C   0  0  0  0  0  0  0  0  0  0  0  0
   -0.7641    1.6838   -1.0844 C   0  0  0  0  0  0  0  0  0  0  0  0
    2.3339    3.3871    0.3232 C   0  0  0  0  0  0  0  0  0  0  0  0
    0.3688    1.0393    1.1416 C   0  0  0  0  0  0  0  0  0  0  0  0
    1.2872    1.0819    2.1264 C   0  0  0  0  0  0  0  0  0  0  0  0
    0.9739   -1.1700    3.1082 C   0  0  0  0  0  0  0  0  0  0  0  0
    1.8910   -2.1754    2.4050 C   0  0  0  0  0  0  0  0  0  0  0  0
    2.9851   -2.7499    3.3081 C   0  0  0  0  0  0  0  0  0  0  0  0
    2.4401   -3.2431    4.6522 C   0  0  0  0  0  0  0  0  0  0  0  0
    1.3760   -4.3202    4.4738 C   0  0  0  0  0  0  0  0  0  0  0  0
    1.5188    0.2235    3.3125 C   0  0  2  0  0  0  0  0  0  0  0  0
    0.8550    0.8673    4.3947 O   0  0  0  0  0  0  0  0  0  0  0  0
    0.7246    3.3935   -1.6596 C   0  0  0  0  0  0  0  0  0  0  0  0
    1.3397    4.2420   -2.3012 O   0  0  0  0  0  0  0  0  0  0  0  0
    6.3792    7.2027   -1.0718 C   0  0  0  0  0  0  0  0  0  0  0  0
    7.1405    8.3136   -1.0144 O   0  0  0  0  0  0  0  0  0  0  0  0
    3.6138    3.2086   -0.3929 C   0  0  0  0  0  0  0  0  0  0  0  0
    4.4205    4.2529   -0.5730 C   0  0  0  0  0  0  0  0  0  0  0  0
    5.6712    6.9769   -2.0346 O   0  0  0  0  0  0  0  0  0  0  0  0
    6.5078    6.3004    0.1434 C   0  0  0  0  0  0  0  0  0  0  0  0
    4.0914    5.6263   -0.0514 C   0  0  0  0  0  0  0  0  0  0  0  0
    5.1803    6.1491    0.8667 C   0  0  0  0  0  0  0  0  0  0  0  0
   -0.6271    2.5610   -3.0911 H   0  0  0  0  0  0  0  0  0  0  0  0
   -1.3598    3.6418   -1.8563 H   0  0  0  0  0  0  0  0  0  0  0  0
   -1.7695    1.6776   -0.6519 H   0  0  0  0  0  0  0  0  0  0  0  0
   -0.6154    0.7426   -1.6260 H   0  0  0  0  0  0  0  0  0  0  0  0
    2.0057    4.3903    0.5766 H   0  0  0  0  0  0  0  0  0  0  0  0
    2.5929    3.0358    1.2995 H   0  0  0  0  0  0  0  0  0  0  0  0
   -0.4313    0.3062    1.1838 H   0  0  0  0  0  0  0  0  0  0  0  0
    2.0756    1.7922    2.1929 H   0  0  0  0  0  0  0  0  0  0  0  0
    0.6168   -1.5354    4.0685 H   0  0  0  0  0  0  0  0  0  0  0  0
    0.0653   -1.1204    2.5102 H   0  0  0  0  0  0  0  0  0  0  0  0
    1.2449   -3.0009    2.0846 H   0  0  0  0  0  0  0  0  0  0  0  0
    2.3274   -1.7853    1.4767 H   0  0  0  0  0  0  0  0  0  0  0  0
    3.4692   -3.5887    2.7899 H   0  0  0  0  0  0  0  0  0  0  0  0
    3.7641   -1.9975    3.4773 H   0  0  0  0  0  0  0  0  0  0  0  0
    3.2601   -3.6325    5.2623 H   0  0  0  0  0  0  0  0  0  0  0  0
    2.0263   -2.4051    5.2237 H   0  0  0  0  0  0  0  0  0  0  0  0
    1.8019   -5.1953    3.9742 H   0  0  0  0  0  0  0  0  0  0  0  0
    0.9740   -4.6259    5.4423 H   0  0  0  0  0  0  0  0  0  0  0  0
    0.5272   -3.9737    3.8749 H   0  0  0  0  0  0  0  0  0  0  0  0
    2.5914    0.2279    3.5619 H   0  0  0  0  0  0  0  0  0  0  0  0
   -0.0890    0.8922    4.1655 H   0  0  0  0  0  0  0  0  0  0  0  0
    7.7075    8.3802   -0.2284 H   0  0  0  0  0  0  0  0  0  0  0  0
    3.8996    2.2130   -0.7278 H   0  0  0  0  0  0  0  0  0  0  0  0
    5.3382    4.0923   -1.1303 H   0  0  0  0  0  0  0  0  0  0  0  0
    7.2524    6.6799    0.8471 H   0  0  0  0  0  0  0  0  0  0  0  0
    6.8841    5.3292   -0.1949 H   0  0  0  0  0  0  0  0  0  0  0  0
    3.8638    6.2775   -0.8944 H   0  0  0  0  0  0  0  0  0  0  0  0
    3.1888    5.6919    0.5516 H   0  0  0  0  0  0  0  0  0  0  0  0
    4.8519    7.1100    1.2799 H   0  0  0  0  0  0  0  0  0  0  0  0
    5.2894    5.4673    1.7246 H   0  0  0  0  0  0  0  0  0  0  0  0
  1 15  1  0  0  0  0
  1  5  1  0  0  0  0
  2 25  1  0  0  0  0
  2 26  1  0  0  0  0
  3  1  2  0  0  0  0
  3  6  1  0  0  0  0
  4  2  1  0  0  0  0
  4  3  1  0  0  0  0
  4 27  1  0  0  0  0
  4 28  1  0  0  0  0
  5 19  1  0  0  0  0
  5 29  1  0  0  0  0
  5 30  1  0  0  0  0
  6 31  1  0  0  0  0
  7  6  2  0  0  0  0
  7 32  1  0  0  0  0
  8 33  1  0  0  0  0
  8 34  1  0  0  0  0
  9  8  1  0  0  0  0
  9 35  1  0  0  0  0
  9 36  1  0  0  0  0
 10  9  1  0  0  0  0
 10 37  1  0  0  0  0
 10 38  1  0  0  0  0
 11 10  1  0  0  0  0
 11 39  1  0  0  0  0
 11 40  1  0  0  0  0
 12 11  1  0  0  0  0
 12 41  1  0  0  0  0
 12 42  1  0  0  0  0
 12 43  1  0  0  0  0
 13 14  1  0  0  0  0
 13 44  1  1  0  0  0
 13  8  1  0  0  0  0
 13  7  1  0  0  0  0
 14 45  1  0  0  0  0
 15  2  1  0  0  0  0
 15 16  2  0  0  0  0
 18 17  1  0  0  0  0
 18 46  1  0  0  0  0
 19 47  1  0  0  0  0
 20 19  2  0  0  0  0
 20 48  1  0  0  0  0
 21 17  2  0  0  0  0
 22 17  1  0  0  0  0
 22 49  1  0  0  0  0
 22 50  1  0  0  0  0
 23 20  1  0  0  0  0
 23 51  1  0  0  0  0
 23 52  1  0  0  0  0
 24 22  1  0  0  0  0
 24 23  1  0  0  0  0
 24 53  1  0  0  0  0
 24 54  1  0  0  0  0
M  END
>  <DRUGBANK_ID>
DB02304

>  <SECONDARY_ACCESSION_NUMBERS>
EXPT01314

>  <COMMON_NAME>
Prostaglandin B2

>  <CAS_NUMBER>
13367-85-6

>  <UNII>
BIU61O9T9T

$$$$
