24I
 OpenBabel10282417163D

 37 37  0  0  0  0  0  0  0  0999 V2000
    0.9782   -0.1603    0.1943 O   0  0  0  0  0  0  0  0  0  0  0  0
    2.2026   -0.1008    0.1413 C   0  0  0  0  0  0  0  0  0  0  0  0
    2.9645   -1.0702    0.6843 O   0  0  0  0  0  0  0  0  0  0  0  0
    2.9791    1.0077   -0.5463 C   0  0  0  0  0  0  0  0  0  0  0  0
    2.5724    1.1250   -2.0093 C   0  0  0  0  0  0  0  0  0  0  0  0
    1.0893    1.4392   -2.3053 C   0  0  1  0  0  0  0  0  0  0  0  0
    0.6728    2.7578   -1.6857 C   0  0  0  0  0  0  0  0  0  0  0  0
    0.1116    3.6708   -2.4932 O   0  0  0  0  0  0  0  0  0  0  0  0
    0.8077    2.9997   -0.4868 O   0  0  0  0  0  0  0  0  0  0  0  0
    0.7346    1.2736   -3.7991 C   0  0  0  0  0  0  0  0  0  0  0  0
    1.1767   -0.3402   -4.5401 P   0  0  1  0  0  0  0  0  0  0  0  0
    2.6081    0.1658   -4.5610 O   0  0  0  0  0  0  0  0  0  0  0  0
    0.5216   -1.1064   -3.2563 O   0  0  0  0  0  0  0  0  0  0  0  0
    1.6188   -1.9540   -5.2810 C   0  0  0  0  0  0  0  0  0  0  0  0
    2.5627   -2.7896   -4.3730 C   0  0  0  0  0  0  0  0  0  0  0  0
    2.3839   -4.1640   -4.2382 C   0  0  0  0  0  0  0  0  0  0  0  0
    3.1796   -4.9004   -3.3436 C   0  0  0  0  0  0  0  0  0  0  0  0
    3.6030   -2.2079   -3.6112 C   0  0  0  0  0  0  0  0  0  0  0  0
    4.3530   -2.9144   -2.6759 C   0  0  0  0  0  0  0  0  0  0  0  0
    4.1483   -4.2730   -2.5570 C   0  0  0  0  0  0  0  0  0  0  0  0
    5.3355   -5.3566   -1.2498 I   0  0  0  0  0  0  0  0  0  0  0  0
    0.4686    0.7078   -1.7907 H   0  0  0  0  0  0  0  0  0  0  0  0
    3.9248   -0.9541    0.5766 H   0  0  0  0  0  0  0  0  0  0  0  0
    2.8509    1.9474   -0.0106 H   0  0  0  0  0  0  0  0  0  0  0  0
    4.0532    0.7848   -0.5164 H   0  0  0  0  0  0  0  0  0  0  0  0
    3.2125    1.8473   -2.5327 H   0  0  0  0  0  0  0  0  0  0  0  0
    2.8122    0.1367   -2.3942 H   0  0  0  0  0  0  0  0  0  0  0  0
    0.0250    3.4524   -3.4350 H   0  0  0  0  0  0  0  0  0  0  0  0
   -0.3459    1.4025   -3.9401 H   0  0  0  0  0  0  0  0  0  0  0  0
    1.2165    2.0651   -4.3889 H   0  0  0  0  0  0  0  0  0  0  0  0
   -0.2794   -0.7310   -2.8301 H   0  0  0  0  0  0  0  0  0  0  0  0
    0.6945   -2.5120   -5.4682 H   0  0  0  0  0  0  0  0  0  0  0  0
    2.1195   -1.7943   -6.2423 H   0  0  0  0  0  0  0  0  0  0  0  0
    1.6197   -4.6740   -4.8160 H   0  0  0  0  0  0  0  0  0  0  0  0
    3.0246   -5.9710   -3.2641 H   0  0  0  0  0  0  0  0  0  0  0  0
    3.8798   -1.1658   -3.6888 H   0  0  0  0  0  0  0  0  0  0  0  0
    5.0858   -2.3774   -2.0788 H   0  0  0  0  0  0  0  0  0  0  0  0
  1  2  2  0  0  0  0
  2  3  1  0  0  0  0
  2  4  1  0  0  0  0
  3 23  1  0  0  0  0
  4  5  1  0  0  0  0
  4 24  1  0  0  0  0
  4 25  1  0  0  0  0
  5  6  1  0  0  0  0
  5 26  1  0  0  0  0
  5 27  1  0  0  0  0
  6  7  1  0  0  0  0
  6 10  1  0  0  0  0
  6 22  1  1  0  0  0
  7  8  1  0  0  0  0
  7  9  2  0  0  0  0
  8 28  1  0  0  0  0
 10 11  1  0  0  0  0
 10 29  1  0  0  0  0
 10 30  1  0  0  0  0
 11 12  2  1  0  0  0
 11 13  1  0  0  0  0
 11 14  1  0  0  0  0
 13 31  1  0  0  0  0
 14 15  1  0  0  0  0
 14 32  1  0  0  0  0
 14 33  1  0  0  0  0
 15 16  2  0  0  0  0
 15 18  1  0  0  0  0
 16 17  1  0  0  0  0
 16 34  1  0  0  0  0
 17 20  2  0  0  0  0
 17 35  1  0  0  0  0
 18 19  2  0  0  0  0
 18 36  1  0  0  0  0
 19 20  1  0  0  0  0
 19 37  1  0  0  0  0
 20 21  1  0  0  0  0
M  END
>  <DRUGBANK_ID>
DB06928

>  <COMMON_NAME>
(2S)-2-{[HYDROXY(4-IODOBENZYL)PHOSPHORYL]METHYL}PENTANEDIOIC ACID

$$$$
