CQP
 OpenBabel10282417163D

 51 54  0  0  0  0  0  0  0  0999 V2000
    7.3252    5.3222    4.0185 Cl  0  0  0  0  0  0  0  0  0  0  0  0
    7.1560    3.6261    3.8045 C   0  0  0  0  0  0  0  0  0  0  0  0
    7.4608    2.7442    4.8383 C   0  0  0  0  0  0  0  0  0  0  0  0
    7.1619    1.3809    4.7114 C   0  0  0  0  0  0  0  0  0  0  0  0
    6.6812    0.8781    3.4992 C   0  0  0  0  0  0  0  0  0  0  0  0
    5.9931   -0.4805    3.4249 C   0  0  0  0  0  0  0  0  0  0  0  0
    4.5527   -0.4276    3.5487 O   0  0  0  0  0  0  0  0  0  0  0  0
    3.8239    0.0286    2.3983 C   0  0  1  0  0  0  0  0  0  0  0  0
    2.3162   -0.0961    2.6164 C   0  0  0  0  0  0  0  0  0  0  0  0
    1.9769    1.0106    3.5552 N   0  0  0  0  0  0  0  0  0  0  0  0
    2.8966    2.1253    3.2286 C   0  0  2  0  0  0  0  0  0  0  0  0
    2.2435    3.3099    2.5658 C   0  0  0  0  0  0  0  0  0  0  0  0
    3.0046    4.5398    2.2343 N   0  0  0  0  0  0  0  0  0  0  0  0
    1.9748    5.7640    1.5451 S   0  0  0  0  0  0  0  0  0  0  0  0
    0.8411    5.9157    2.4465 O   0  0  0  0  0  0  0  0  0  0  0  0
    2.8251    6.8892    1.2629 O   0  0  0  0  0  0  0  0  0  0  0  0
    1.3508    5.1073   -0.0164 C   0  0  0  0  0  0  0  0  0  0  0  0
    1.7779    5.7424   -1.1938 C   0  0  0  0  0  0  0  0  0  0  0  0
    1.2809    5.3286   -2.4305 C   0  0  0  0  0  0  0  0  0  0  0  0
    0.3974    4.2523   -2.5079 C   0  0  0  0  0  0  0  0  0  0  0  0
   -0.0218    3.5832   -1.3473 C   0  0  0  0  0  0  0  0  0  0  0  0
   -0.8626    2.4599   -1.4045 C   0  0  0  0  0  0  0  0  0  0  0  0
   -1.2716    1.7338   -0.3386 N   0  0  0  0  0  0  0  0  0  0  0  0
   -0.9215    2.2103    0.8585 C   0  0  0  0  0  0  0  0  0  0  0  0
   -0.1993    3.3772    1.0143 C   0  0  0  0  0  0  0  0  0  0  0  0
    0.3912    4.0430   -0.0815 C   0  0  0  0  0  0  0  0  0  0  0  0
    6.6775    1.7396    2.3856 C   0  0  0  0  0  0  0  0  0  0  0  0
    3.8681    1.5256    2.2646 C   0  0  0  0  0  0  0  0  0  0  0  0
    6.7278    3.1297    2.5852 C   0  0  0  0  0  0  0  0  0  0  0  0
    4.1579   -0.5037    1.4985 H   0  0  0  0  0  0  0  0  0  0  0  0
    3.4026    2.4617    4.1450 H   0  0  0  0  0  0  0  0  0  0  0  0
    7.8886    3.1190    5.7622 H   0  0  0  0  0  0  0  0  0  0  0  0
    7.2907    0.7225    5.5671 H   0  0  0  0  0  0  0  0  0  0  0  0
    6.2889   -1.0234    2.5219 H   0  0  0  0  0  0  0  0  0  0  0  0
    6.3267   -1.0849    4.2782 H   0  0  0  0  0  0  0  0  0  0  0  0
    1.7758    0.0684    1.6736 H   0  0  0  0  0  0  0  0  0  0  0  0
    2.0169   -1.0595    3.0343 H   0  0  0  0  0  0  0  0  0  0  0  0
    2.2829    0.6705    4.4739 H   0  0  0  0  0  0  0  0  0  0  0  0
    1.9580    2.9183    1.5945 H   0  0  0  0  0  0  0  0  0  0  0  0
    1.4355    3.5966    3.2326 H   0  0  0  0  0  0  0  0  0  0  0  0
    3.4559    4.9732    3.0479 H   0  0  0  0  0  0  0  0  0  0  0  0
    2.4703    6.5820   -1.1605 H   0  0  0  0  0  0  0  0  0  0  0  0
    1.5794    5.8468   -3.3396 H   0  0  0  0  0  0  0  0  0  0  0  0
    0.0257    3.9412   -3.4832 H   0  0  0  0  0  0  0  0  0  0  0  0
   -1.2399    2.0847   -2.3517 H   0  0  0  0  0  0  0  0  0  0  0  0
   -1.2206    1.6352    1.7311 H   0  0  0  0  0  0  0  0  0  0  0  0
   -0.0572    3.7095    2.0291 H   0  0  0  0  0  0  0  0  0  0  0  0
    6.2824    1.3773    1.4336 H   0  0  0  0  0  0  0  0  0  0  0  0
    4.7086    1.9781    2.6979 H   0  0  0  0  0  0  0  0  0  0  0  0
    3.7830    1.8399    1.2180 H   0  0  0  0  0  0  0  0  0  0  0  0
    6.3102    3.8003    1.8313 H   0  0  0  0  0  0  0  0  0  0  0  0
  1  2  1  0  0  0  0
  2  3  2  0  0  0  0
  2 29  1  0  0  0  0
  3  4  1  0  0  0  0
  3 32  1  0  0  0  0
  4  5  2  0  0  0  0
  4 33  1  0  0  0  0
  5  6  1  0  0  0  0
  5 27  1  0  0  0  0
  6  7  1  0  0  0  0
  6 34  1  0  0  0  0
  6 35  1  0  0  0  0
  8  9  1  0  0  0  0
  8 28  1  0  0  0  0
  8 30  1  6  0  0  0
  8  7  1  0  0  0  0
  9 10  1  0  0  0  0
  9 36  1  0  0  0  0
  9 37  1  0  0  0  0
 10 11  1  0  0  0  0
 10 38  1  0  0  0  0
 11 28  1  0  0  0  0
 11 31  1  1  0  0  0
 11 12  1  0  0  0  0
 12 13  1  0  0  0  0
 12 39  1  0  0  0  0
 12 40  1  0  0  0  0
 13 14  1  0  0  0  0
 13 41  1  0  0  0  0
 14 15  2  0  0  0  0
 14 16  2  0  0  0  0
 14 17  1  0  0  0  0
 17 18  2  0  0  0  0
 17 26  1  0  0  0  0
 18 19  1  0  0  0  0
 18 42  1  0  0  0  0
 19 20  2  0  0  0  0
 19 43  1  0  0  0  0
 20 21  1  0  0  0  0
 20 44  1  0  0  0  0
 21 22  2  0  0  0  0
 21 26  1  0  0  0  0
 22 23  1  0  0  0  0
 22 45  1  0  0  0  0
 23 24  2  0  0  0  0
 24 25  1  0  0  0  0
 24 46  1  0  0  0  0
 25 26  2  0  0  0  0
 25 47  1  0  0  0  0
 27 29  2  0  0  0  0
 27 48  1  0  0  0  0
 28 49  1  0  0  0  0
 28 50  1  0  0  0  0
 29 51  1  0  0  0  0
M  END
>  <DRUGBANK_ID>
DB07583

>  <COMMON_NAME>
(4R,2S)-5'-(4-(4-CHLOROBENZYLOXY)PYRROLIDIN-2-YLMETHANESULFONYL)ISOQUINOLINE

$$$$
