
 OpenBabel10282417123D

108112  0  0  1  0  0  0  0  0999 V2000
   -0.0024    0.3251    2.0012 C   0  0  0  0  0  0  0  0  0  0  0  0
   -2.5296    1.6105    2.0751 C   0  0  0  0  0  0  0  0  0  0  0  0
   -1.2100   -0.9343    3.4687 C   0  0  0  0  0  0  0  0  0  0  0  0
   -0.4924    1.1872   -2.1094 C   0  0  0  0  0  0  0  0  0  0  0  0
    0.9709   -0.5032   -2.2548 C   0  0  0  0  0  0  0  0  0  0  0  0
    0.6716   -0.9338    1.4214 C   0  0  2  0  0  0  0  0  0  0  0  0
   -2.2209    0.8312    3.4282 C   0  0  2  0  0  0  0  0  0  0  0  0
   -0.5400   -2.0307    3.2673 C   0  0  2  0  0  0  0  0  0  0  0  0
    0.8914    0.9614   -1.3202 C   0  0  2  0  0  0  0  0  0  0  0  0
    1.2731   -0.3386   -0.2391 C   0  0  2  0  0  0  0  0  0  0  0  0
   -0.1315   -2.0021    0.0958 C   0  0  2  0  0  0  0  0  0  0  0  0
    0.6632   -3.9169   -0.3719 C   0  0  1  0  0  0  0  0  0  0  0  0
   -1.8585   -2.4032    4.6491 C   0  0  2  0  0  0  0  0  0  0  0  0
    0.3093   -4.8078    2.4425 C   0  0  2  0  0  0  0  0  0  0  0  0
    2.2044   -1.8818   -2.7267 C   0  0  2  0  0  0  0  0  0  0  0  0
    1.5970   -2.8678    0.6696 C   0  0  2  0  0  0  0  0  0  0  0  0
    0.1657   -2.9026    1.5516 C   0  0  2  0  0  0  0  0  0  0  0  0
    0.7221   -2.3385   -1.5547 C   0  0  2  0  0  0  0  0  0  0  0  0
   -0.7196   -1.4134    5.8432 C   0  0  2  0  0  0  0  0  0  0  0  0
    2.6334   -4.3448    0.5814 C   0  0  2  0  0  0  0  0  0  0  0  0
    1.8705   -4.5217    3.2370 C   0  0  2  0  0  0  0  0  0  0  0  0
   -2.9862   -1.1593    3.3381 C   0  0  2  0  0  0  0  0  0  0  0  0
   -1.2945   -3.4780    2.3914 C   0  0  2  0  0  0  0  0  0  0  0  0
    2.7737   -0.1360   -1.6815 C   0  0  2  0  0  0  0  0  0  0  0  0
    2.4704   -1.0316    0.6954 C   0  0  2  0  0  0  0  0  0  0  0  0
   -1.4818   -1.6261    1.0913 C   0  0  2  0  0  0  0  0  0  0  0  0
   -0.9368   -2.3993   -1.3110 C   0  0  2  0  0  0  0  0  0  0  0  0
   -0.0273    0.4162    5.7312 C   0  0  2  0  0  0  0  0  0  0  0  0
    3.4246   -2.6326    1.1985 C   0  0  2  0  0  0  0  0  0  0  0  0
    2.4809   -2.8116    3.8472 C   0  0  2  0  0  0  0  0  0  0  0  0
    0.8371    0.1374    3.0207 O   0  0  0  0  0  0  0  0  0  0  0  0
   -1.7286    2.7825    1.9898 O   0  0  0  0  0  0  0  0  0  0  0  0
   -0.6661   -0.1945    4.2425 O   0  0  0  0  0  0  0  0  0  0  0  0
   -0.1122    2.4654   -2.2481 O   0  0  0  0  0  0  0  0  0  0  0  0
    1.4699    0.2176   -3.3118 O   0  0  0  0  0  0  0  0  0  0  0  0
   -1.9193   -1.0409   -0.4186 O   0  0  0  0  0  0  0  0  0  0  0  0
   -0.0857   -5.0725   -0.9097 O   0  0  0  0  0  0  0  0  0  0  0  0
   -2.1389   -3.7476    4.7152 O   0  0  0  0  0  0  0  0  0  0  0  0
    0.2470   -5.8420    1.4379 O   0  0  0  0  0  0  0  0  0  0  0  0
    0.9762   -2.1351   -3.8080 O   0  0  0  0  0  0  0  0  0  0  0  0
    2.1019   -4.2015   -0.9261 O   0  0  0  0  0  0  0  0  0  0  0  0
    0.8267   -2.9749    2.7757 O   0  0  0  0  0  0  0  0  0  0  0  0
    2.0733   -2.2324   -0.8813 O   0  0  0  0  0  0  0  0  0  0  0  0
    0.2920   -2.2913    6.3181 O   0  0  0  0  0  0  0  0  0  0  0  0
    3.8585   -4.4304   -0.2502 O   0  0  0  0  0  0  0  0  0  0  0  0
    3.0100   -5.2364    2.7738 O   0  0  0  0  0  0  0  0  0  0  0  0
   -0.5235   -0.0624    0.3022 O   0  0  0  0  0  0  0  0  0  0  0  0
   -0.5427   -0.4494   -1.3432 O   0  0  0  0  0  0  0  0  0  0  0  0
   -1.2497    1.5128    4.8322 O   0  0  0  0  0  0  0  0  0  0  0  0
    1.9539   -1.6772    2.1485 O   0  0  0  0  0  0  0  0  0  0  0  0
    0.9748   -1.9493    4.3074 O   0  0  0  0  0  0  0  0  0  0  0  0
   -2.8902   -1.4950    1.7934 O   0  0  0  0  0  0  0  0  0  0  0  0
   -1.7041   -3.3956    0.4945 O   0  0  0  0  0  0  0  0  0  0  0  0
    2.0359    0.4948    5.0243 S   0  0  0  0  0  0  0  0  0  0  0  0
    4.5012   -1.3040   -0.4485 S   0  0  0  0  0  0  0  0  0  0  0  0
    3.6888   -0.9875    2.8379 S   0  0  0  0  0  0  0  0  0  0  0  0
    1.0563    0.0788    1.3095 H   0  0  0  0  0  0  0  0  0  0  0  0
   -1.0388    1.2083    3.1661 H   0  0  0  0  0  0  0  0  0  0  0  0
   -0.1659   -1.4425    2.6231 H   0  0  0  0  0  0  0  0  0  0  0  0
    0.8038    1.5931   -0.3145 H   0  0  0  0  0  0  0  0  0  0  0  0
    1.9417    0.6875    0.1194 H   0  0  0  0  0  0  0  0  0  0  0  0
   -0.3747   -3.4558    0.0457 H   0  0  0  0  0  0  0  0  0  0  0  0
    1.3685   -3.5383   -1.8780 H   0  0  0  0  0  0  0  0  0  0  0  0
   -0.7692   -3.0667    4.4361 H   0  0  0  0  0  0  0  0  0  0  0  0
    0.8467   -4.5324    1.5449 H   0  0  0  0  0  0  0  0  0  0  0  0
    2.9408   -2.7058   -2.5007 H   0  0  0  0  0  0  0  0  0  0  0  0
    1.9688   -3.3170    1.6077 H   0  0  0  0  0  0  0  0  0  0  0  0
   -0.5343   -4.1059    1.2581 H   0  0  0  0  0  0  0  0  0  0  0  0
   -0.0976   -3.2419   -1.8216 H   0  0  0  0  0  0  0  0  0  0  0  0
   -1.6904   -1.2432    6.2209 H   0  0  0  0  0  0  0  0  0  0  0  0
    2.3040   -5.1848    1.0816 H   0  0  0  0  0  0  0  0  0  0  0  0
    1.1945   -5.0520    3.8928 H   0  0  0  0  0  0  0  0  0  0  0  0
   -3.8193   -0.7396    3.7767 H   0  0  0  0  0  0  0  0  0  0  0  0
   -1.9189   -4.1608    2.8158 H   0  0  0  0  0  0  0  0  0  0  0  0
    3.2658    0.6551   -2.1775 H   0  0  0  0  0  0  0  0  0  0  0  0
    3.0393   -0.4004    0.1855 H   0  0  0  0  0  0  0  0  0  0  0  0
   -2.1555   -2.3118   -0.3010 H   0  0  0  0  0  0  0  0  0  0  0  0
   -1.4798   -2.2282   -2.1813 H   0  0  0  0  0  0  0  0  0  0  0  0
    0.0654    0.8686    6.6464 H   0  0  0  0  0  0  0  0  0  0  0  0
    3.9166   -3.0064    2.0897 H   0  0  0  0  0  0  0  0  0  0  0  0
    2.8571   -3.1705    4.7786 H   0  0  0  0  0  0  0  0  0  0  0  0
   -1.1531    0.2591    1.6740 H   0  0  0  0  0  0  0  0  0  0  0  0
   -0.1223    1.3313    1.6274 H   0  0  0  0  0  0  0  0  0  0  0  0
   -2.5268    1.0977    1.0661 H   0  0  0  0  0  0  0  0  0  0  0  0
   -3.5091    1.6044    2.4580 H   0  0  0  0  0  0  0  0  0  0  0  0
   -1.6002   -0.6100    2.5983 H   0  0  0  0  0  0  0  0  0  0  0  0
   -1.8453   -0.7679    4.3309 H   0  0  0  0  0  0  0  0  0  0  0  0
   -0.5854    0.4927   -2.9806 H   0  0  0  0  0  0  0  0  0  0  0  0
   -1.5193    0.9820   -1.6821 H   0  0  0  0  0  0  0  0  0  0  0  0
    1.5145   -0.9687   -1.5688 H   0  0  0  0  0  0  0  0  0  0  0  0
    0.2071   -1.1457   -2.5045 H   0  0  0  0  0  0  0  0  0  0  0  0
    0.9914    0.8553    3.6119 H   0  0  0  0  0  0  0  0  0  0  0  0
   -1.4442    2.9600    2.9101 H   0  0  0  0  0  0  0  0  0  0  0  0
    0.2137   -0.4560    4.1037 H   0  0  0  0  0  0  0  0  0  0  0  0
   -0.1824    2.7213   -1.2999 H   0  0  0  0  0  0  0  0  0  0  0  0
    1.1707    1.1123   -3.1119 H   0  0  0  0  0  0  0  0  0  0  0  0
   -1.7613   -0.5350   -1.1503 H   0  0  0  0  0  0  0  0  0  0  0  0
   -0.3109   -5.4103   -0.0321 H   0  0  0  0  0  0  0  0  0  0  0  0
   -3.0013   -3.3977    4.6222 H   0  0  0  0  0  0  0  0  0  0  0  0
   -0.6511   -6.0621    1.6119 H   0  0  0  0  0  0  0  0  0  0  0  0
    0.1861   -1.4700   -3.8069 H   0  0  0  0  0  0  0  0  0  0  0  0
    1.0160   -4.6218   -1.6789 H   0  0  0  0  0  0  0  0  0  0  0  0
    1.2037   -1.9858    3.0427 H   0  0  0  0  0  0  0  0  0  0  0  0
    2.2959   -3.1219   -0.7168 H   0  0  0  0  0  0  0  0  0  0  0  0
    1.0027   -2.2257    5.6145 H   0  0  0  0  0  0  0  0  0  0  0  0
    3.6801   -3.6082   -0.7972 H   0  0  0  0  0  0  0  0  0  0  0  0
    3.5743   -4.7336    2.1350 H   0  0  0  0  0  0  0  0  0  0  0  0
    2.1480   -0.6151    3.9695 H   0  0  0  0  0  0  0  0  0  0  0  0
  1 82  1  0  0  0  0
  1 83  1  0  0  0  0
  2 84  1  0  0  0  0
  2 85  1  0  0  0  0
  3 86  1  0  0  0  0
  3 87  1  0  0  0  0
  4 88  1  0  0  0  0
  4 89  1  0  0  0  0
  5 90  1  0  0  0  0
  5 91  1  0  0  0  0
  6 57  1  6  0  0  0
  6  1  1  0  0  0  0
  7  2  1  0  0  0  0
  7 58  1  6  0  0  0
  8  3  1  0  0  0  0
  8 59  1  6  0  0  0
  9 60  1  1  0  0  0
  9  4  1  0  0  0  0
 10 61  1  1  0  0  0
 10  5  1  0  0  0  0
 11  6  1  0  0  0  0
 11 36  1  0  0  0  0
 11 62  1  1  0  0  0
 12 11  1  0  0  0  0
 12 37  1  0  0  0  0
 12 63  1  6  0  0  0
 13 38  1  0  0  0  0
 13 64  1  6  0  0  0
 14 39  1  0  0  0  0
 14 65  1  6  0  0  0
 15 40  1  0  0  0  0
 15 66  1  6  0  0  0
 16 41  1  0  0  0  0
 16 67  1  1  0  0  0
 17 16  1  0  0  0  0
 17 68  1  6  0  0  0
 17 42  1  0  0  0  0
 18 15  1  0  0  0  0
 18 69  1  6  0  0  0
 18 43  1  0  0  0  0
 19 13  1  0  0  0  0
 19 44  1  0  0  0  0
 19 70  1  1  0  0  0
 20 12  1  0  0  0  0
 20 45  1  0  0  0  0
 20 71  1  1  0  0  0
 21 14  1  0  0  0  0
 21 46  1  0  0  0  0
 21 72  1  1  0  0  0
 22  7  1  0  0  0  0
 22 13  1  0  0  0  0
 22 52  1  0  0  0  0
 22 73  1  1  0  0  0
 23  8  1  0  0  0  0
 23 14  1  0  0  0  0
 23 53  1  0  0  0  0
 23 74  1  1  0  0  0
 24  9  1  0  0  0  0
 24 15  1  0  0  0  0
 24 55  1  0  0  0  0
 24 75  1  6  0  0  0
 25 10  1  0  0  0  0
 25 16  1  0  0  0  0
 25 56  1  0  0  0  0
 25 76  1  6  0  0  0
 26 17  1  0  0  0  0
 26 77  1  6  0  0  0
 26 52  1  0  0  0  0
 27 18  1  0  0  0  0
 27 78  1  6  0  0  0
 27 53  1  0  0  0  0
 28 19  1  0  0  0  0
 28 79  1  1  0  0  0
 28 54  1  0  0  0  0
 29 20  1  0  0  0  0
 29 80  1  1  0  0  0
 29 55  1  0  0  0  0
 30 21  1  0  0  0  0
 30 81  1  1  0  0  0
 30 56  1  0  0  0  0
 31  1  1  0  0  0  0
 31 92  1  0  0  0  0
 32  2  1  0  0  0  0
 32 93  1  0  0  0  0
 33  3  1  0  0  0  0
 33 94  1  0  0  0  0
 34  4  1  0  0  0  0
 34 95  1  0  0  0  0
 35  5  1  0  0  0  0
 35 96  1  0  0  0  0
 36 97  1  0  0  0  0
 37 98  1  0  0  0  0
 38 99  1  0  0  0  0
 39100  1  0  0  0  0
 40101  1  0  0  0  0
 41102  1  0  0  0  0
 42103  1  0  0  0  0
 43104  1  0  0  0  0
 44105  1  0  0  0  0
 45106  1  0  0  0  0
 46107  1  0  0  0  0
 47 10  1  0  0  0  0
 47 26  1  0  0  0  0
 48  9  1  0  0  0  0
 48 27  1  0  0  0  0
 49  7  1  0  0  0  0
 49 28  1  0  0  0  0
 50  6  1  0  0  0  0
 50 29  1  0  0  0  0
 51  8  1  0  0  0  0
 51 30  1  0  0  0  0
 54108  1  0  0  0  0
M  END
>  <DRUGBANK_ID>
DB01719

>  <SECONDARY_ACCESSION_NUMBERS>
EXPT03067

>  <COMMON_NAME>
Thio-Maltopentaose

$$$$
