
 OpenBabel10282417233D

 40 41  0  0  1  0  0  0  0  0999 V2000
    1.0502   -0.0640   -0.0303 C   0  0  0  0  0  0  0  0  0  0  0  0
    0.6272   -0.3190    1.4111 C   0  0  0  0  0  0  0  0  0  0  0  0
    1.1409    0.6945    2.3379 N   0  0  0  0  0  0  0  0  0  0  0  0
    0.1788    1.5044    3.0680 C   0  0  0  0  0  0  0  0  0  0  0  0
    2.5265    0.7910    2.5184 C   0  0  0  0  0  0  0  0  0  0  0  0
    3.3103    0.0382    1.9373 O   0  0  0  0  0  0  0  0  0  0  0  0
    2.9470    1.8072    3.3940 O   0  0  0  0  0  0  0  0  0  0  0  0
    4.3490    2.0244    3.5317 C   0  0  0  0  0  0  0  0  0  0  0  0
    5.1924    2.1222    2.4187 C   0  0  0  0  0  0  0  0  0  0  0  0
    6.5581    2.3204    2.6203 C   0  0  0  0  0  0  0  0  0  0  0  0
    7.0788    2.4838    3.9094 C   0  0  0  0  0  0  0  0  0  0  0  0
    8.5616    2.7113    3.8605 C   0  0  0  0  0  0  0  0  0  0  0  0
    8.7468    3.1189    2.3861 C   0  0  0  0  0  0  0  0  0  0  0  0
    7.6442    2.3803    1.5738 C   0  0  1  0  0  0  0  0  0  0  0  0
    8.1581    1.0801    1.1324 N   0  0  0  0  0  0  0  0  0  0  0  0
    7.1480    0.1352    0.6559 C   0  0  0  0  0  0  0  0  0  0  0  0
    7.8643   -1.1245    0.1971 C   0  0  0  0  0  0  0  0  0  0  0  0
    8.4787   -2.2051   -0.1964 C   0  0  0  0  0  0  0  0  0  0  0  0
    6.2474    2.4109    5.0190 C   0  0  0  0  0  0  0  0  0  0  0  0
    4.8707    2.1890    4.8261 C   0  0  0  0  0  0  0  0  0  0  0  0
    0.6930    0.9123   -0.3715 H   0  0  0  0  0  0  0  0  0  0  0  0
    0.6480   -0.8362   -0.6929 H   0  0  0  0  0  0  0  0  0  0  0  0
    2.1374   -0.0749   -0.1446 H   0  0  0  0  0  0  0  0  0  0  0  0
   -0.4685   -0.3483    1.4528 H   0  0  0  0  0  0  0  0  0  0  0  0
    0.9865   -1.3005    1.7413 H   0  0  0  0  0  0  0  0  0  0  0  0
    0.3223    1.3627    4.1425 H   0  0  0  0  0  0  0  0  0  0  0  0
    0.3232    2.5566    2.8130 H   0  0  0  0  0  0  0  0  0  0  0  0
   -0.8492    1.2196    2.8139 H   0  0  0  0  0  0  0  0  0  0  0  0
    4.8055    2.0115    1.4117 H   0  0  0  0  0  0  0  0  0  0  0  0
    9.1097    1.7906    4.0882 H   0  0  0  0  0  0  0  0  0  0  0  0
    8.8879    3.5085    4.5361 H   0  0  0  0  0  0  0  0  0  0  0  0
    8.6029    4.2059    2.2967 H   0  0  0  0  0  0  0  0  0  0  0  0
    9.7640    2.9169    2.0275 H   0  0  0  0  0  0  0  0  0  0  0  0
    7.3448    2.9964    0.7183 H   0  0  0  0  0  0  0  0  0  0  0  0
    8.6752    0.6373    1.8878 H   0  0  0  0  0  0  0  0  0  0  0  0
    6.4675   -0.1564    1.4619 H   0  0  0  0  0  0  0  0  0  0  0  0
    6.5698    0.5485   -0.1768 H   0  0  0  0  0  0  0  0  0  0  0  0
    8.9819   -3.0866   -0.5190 H   0  0  0  0  0  0  0  0  0  0  0  0
    6.6516    2.5244    6.0212 H   0  0  0  0  0  0  0  0  0  0  0  0
    4.2138    2.1376    5.6898 H   0  0  0  0  0  0  0  0  0  0  0  0
  1  2  1  0  0  0  0
  1 21  1  0  0  0  0
  1 22  1  0  0  0  0
  1 23  1  0  0  0  0
  2  3  1  0  0  0  0
  2 24  1  0  0  0  0
  2 25  1  0  0  0  0
  3  4  1  0  0  0  0
  3  5  1  0  0  0  0
  4 26  1  0  0  0  0
  4 27  1  0  0  0  0
  4 28  1  0  0  0  0
  5  6  2  0  0  0  0
  5  7  1  0  0  0  0
  7  8  1  0  0  0  0
  8  9  2  0  0  0  0
  8 20  1  0  0  0  0
  9 10  1  0  0  0  0
  9 29  1  0  0  0  0
 10 11  2  0  0  0  0
 11 12  1  0  0  0  0
 11 19  1  0  0  0  0
 12 13  1  0  0  0  0
 12 30  1  0  0  0  0
 12 31  1  0  0  0  0
 13 32  1  0  0  0  0
 13 33  1  0  0  0  0
 14 13  1  0  0  0  0
 14 10  1  0  0  0  0
 14 34  1  6  0  0  0
 14 15  1  0  0  0  0
 15 16  1  0  0  0  0
 15 35  1  0  0  0  0
 16 17  1  0  0  0  0
 16 36  1  0  0  0  0
 16 37  1  0  0  0  0
 17 18  3  0  0  0  0
 18 38  1  0  0  0  0
 19 20  2  0  0  0  0
 19 39  1  0  0  0  0
 20 40  1  0  0  0  0
M  END
>  <DRUGBANK_ID>
DB16213

>  <COMMON_NAME>
Ladostigil

>  <CAS_NUMBER>
209394-27-4

>  <UNII>
SW3H1USR4Q

>  <SYNONYMS>
Ladostigil; Tv-3326 free base

$$$$
