
 OpenBabel10282417123D

 14 14  0  0  0  0  0  0  0  0999 V2000
    1.0254    0.0321    0.0510 N   0  0  0  0  0  0  0  0  0  0  0  0
    0.3452   -1.0968    0.4788 C   0  0  0  0  0  0  0  0  0  0  0  0
   -1.0353   -1.0944    0.3876 N   0  3  0  0  0  0  0  0  0  0  0  0
    0.9858   -2.2534    0.9642 N   0  0  0  0  0  0  0  0  0  0  0  0
    2.1241   -2.3030    1.7184 C   0  0  0  0  0  0  0  0  0  0  0  0
    2.4215   -3.5548    1.9846 N   0  0  0  0  0  0  0  0  0  0  0  0
    1.4134   -4.2536    1.3908 C   0  0  0  0  0  0  0  0  0  0  0  0
    0.4727   -3.4991    0.8126 N   0  0  0  0  0  0  0  0  0  0  0  0
    0.5369    0.8266   -0.3546 H   0  0  0  0  0  0  0  0  0  0  0  0
    2.0418    0.0569   -0.0256 H   0  0  0  0  0  0  0  0  0  0  0  0
   -1.5401   -1.9335    0.6883 H   0  0  0  0  0  0  0  0  0  0  0  0
   -1.5895   -0.3110    0.0632 H   0  0  0  0  0  0  0  0  0  0  0  0
    2.6507   -1.4346    2.0853 H   0  0  0  0  0  0  0  0  0  0  0  0
    1.3571   -5.3374    1.3905 H   0  0  0  0  0  0  0  0  0  0  0  0
  1  2  1  0  0  0  0
  1  9  1  0  0  0  0
  1 10  1  0  0  0  0
  2  3  2  0  0  0  0
  2  4  1  0  0  0  0
  3 11  1  0  0  0  0
  3 12  1  0  0  0  0
  4  5  1  0  0  0  0
  4  8  1  0  0  0  0
  5  6  2  0  0  0  0
  5 13  1  0  0  0  0
  6  7  1  0  0  0  0
  7  8  2  0  0  0  0
  7 14  1  0  0  0  0
M  CHG  1   3   1
M  END
>  <DRUGBANK_ID>
DB02048

>  <SECONDARY_ACCESSION_NUMBERS>
EXPT03150

>  <COMMON_NAME>
1,2,4-Triazole-Carboxamidine

$$$$
