
 OpenBabel10282417123D

 24 23  0  0  0  0  0  0  0  0999 V2000
    0.8278   -0.1246   -0.0267 C   0  0  0  0  0  0  0  0  0  0  0  0
    0.2629    0.9107    0.9966 C   0  0  0  0  0  0  0  0  0  0  0  0
    0.7254    0.3806   -1.3278 O   0  0  0  0  0  0  0  0  0  0  0  0
    1.8650    1.1599   -1.7276 N   0  0  0  0  0  0  0  0  0  0  0  0
    2.6241    1.9152   -0.8491 C   0  0  0  0  0  0  0  0  0  0  0  0
    3.2202    1.3870    0.2573 N   0  0  0  0  0  0  0  0  0  0  0  0
    2.7623    3.2075   -0.9379 N   0  0  0  0  0  0  0  0  0  0  0  0
    0.4438    2.4583    0.7865 C   0  0  1  0  0  0  0  0  0  0  0  0
   -0.1509    3.1592   -0.5193 C   0  0  0  0  0  0  0  0  0  0  0  0
    0.0858    3.2347    2.0012 N   0  0  0  0  0  0  0  0  0  0  0  0
   -0.7759    4.3303   -0.2732 O   0  0  0  0  0  0  0  0  0  0  0  0
   -0.0143    2.8294   -1.7029 O   0  0  0  0  0  0  0  0  0  0  0  0
    0.2570   -1.0615    0.0635 H   0  0  0  0  0  0  0  0  0  0  0  0
    1.8377   -0.5303    0.0870 H   0  0  0  0  0  0  0  0  0  0  0  0
   -0.8154    0.7372    1.0502 H   0  0  0  0  0  0  0  0  0  0  0  0
    0.6690    0.6179    1.9775 H   0  0  0  0  0  0  0  0  0  0  0  0
    1.4378    1.8122   -2.4024 H   0  0  0  0  0  0  0  0  0  0  0  0
    2.7126    0.7224    0.8137 H   0  0  0  0  0  0  0  0  0  0  0  0
    3.4428    2.1403    0.9062 H   0  0  0  0  0  0  0  0  0  0  0  0
    2.2103    3.5832   -1.7184 H   0  0  0  0  0  0  0  0  0  0  0  0
    1.4871    2.7061    0.8505 H   0  0  0  0  0  0  0  0  0  0  0  0
    0.6016    4.1203    1.9918 H   0  0  0  0  0  0  0  0  0  0  0  0
   -0.9130    3.3493    2.1010 H   0  0  0  0  0  0  0  0  0  0  0  0
   -0.6481    4.5908    0.6517 H   0  0  0  0  0  0  0  0  0  0  0  0
  1  2  1  0  0  0  0
  1  3  1  0  0  0  0
  1 13  1  0  0  0  0
  1 14  1  0  0  0  0
  2  8  1  0  0  0  0
  2 15  1  0  0  0  0
  2 16  1  0  0  0  0
  3  4  1  0  0  0  0
  4  5  1  0  0  0  0
  4 17  1  0  0  0  0
  5  7  2  0  0  0  0
  5  6  1  0  0  0  0
  6 18  1  0  0  0  0
  6 19  1  0  0  0  0
  7 20  1  0  0  0  0
  8  9  1  0  0  0  0
  8 10  1  0  0  0  0
  8 21  1  6  0  0  0
  9 11  1  0  0  0  0
  9 12  2  0  0  0  0
 10 22  1  0  0  0  0
 10 23  1  0  0  0  0
 11 24  1  0  0  0  0
M  END
>  <DRUGBANK_ID>
DB01833

>  <SECONDARY_ACCESSION_NUMBERS>
EXPT01587

>  <COMMON_NAME>
Canavanine

>  <CAS_NUMBER>
543-38-4

>  <UNII>
3HZV514J4B

>  <SYNONYMS>
(L)-Canavanine; 2-Amino-4-(guanidinooxy)butyric acid; Canavanin; L-Canavanine; O-((Aminoiminomethyl)amino)-L-homoserine

$$$$
