
 OpenBabel10282417223D

 46 49  0  0  1  0  0  0  0  0999 V2000
    1.3816   -0.3349    0.0861 C   0  0  0  0  0  0  0  0  0  0  0  0
    1.1837    0.9965   -0.5833 C   0  0  0  0  0  0  0  0  0  0  0  0
    1.2306    1.2707   -2.0865 C   0  0  2  0  0  0  0  0  0  0  0  0
    0.7198    2.6128   -2.6268 C   0  0  0  0  0  0  0  0  0  0  0  0
    0.7114    2.4821   -4.0431 N   0  0  0  0  0  0  0  0  0  0  0  0
    0.4189    1.0795   -4.3436 C   0  0  0  0  0  0  0  0  0  0  0  0
    0.3607    0.3736   -2.9467 C   0  0  2  0  0  0  0  0  0  0  0  0
   -1.0901    0.1760   -2.4615 C   0  0  0  0  0  0  0  0  0  0  0  0
   -1.9216   -0.8332   -2.9419 C   0  0  0  0  0  0  0  0  0  0  0  0
   -3.0518   -0.9778   -2.1840 N   0  0  0  0  0  0  0  0  0  0  0  0
   -2.9499   -0.0579   -1.2477 C   0  0  0  0  0  0  0  0  0  0  0  0
   -3.8274    0.1104   -0.0986 C   0  0  0  0  0  0  0  0  0  0  0  0
   -3.5893    0.9342    0.8980 N   0  0  0  0  0  0  0  0  0  0  0  0
   -2.4998    1.7234    0.7105 C   0  0  0  0  0  0  0  0  0  0  0  0
   -1.7152    1.8301   -0.4226 C   0  0  0  0  0  0  0  0  0  0  0  0
   -0.8215    2.8990   -0.1498 C   0  0  0  0  0  0  0  0  0  0  0  0
   -0.7792    3.0746    1.2102 C   0  0  0  0  0  0  0  0  0  0  0  0
   -1.9257    2.5161    1.6883 N   0  0  0  0  0  0  0  0  0  0  0  0
   -1.8571    0.7769   -1.4255 N   0  0  0  0  0  0  0  0  0  0  0  0
    0.9369    3.4503   -4.9582 C   0  0  0  0  0  0  0  0  0  0  0  0
    1.0736    3.1778   -6.1692 O   0  0  0  0  0  0  0  0  0  0  0  0
    1.0302    4.7563   -4.6099 N   0  0  0  0  0  0  0  0  0  0  0  0
    0.9019    5.4992   -3.3388 C   0  0  0  0  0  0  0  0  0  0  0  0
    2.2299    5.9897   -2.7483 C   0  0  0  0  0  0  0  0  0  0  0  0
    2.6882    7.0654   -3.4259 F   0  0  0  0  0  0  0  0  0  0  0  0
    2.0682    6.3571   -1.4554 F   0  0  0  0  0  0  0  0  0  0  0  0
    3.1901    5.0400   -2.7762 F   0  0  0  0  0  0  0  0  0  0  0  0
    0.8782   -1.1366   -0.4612 H   0  0  0  0  0  0  0  0  0  0  0  0
    0.8634   -0.2782    1.0631 H   0  0  0  0  0  0  0  0  0  0  0  0
    2.4283   -0.5402    0.2657 H   0  0  0  0  0  0  0  0  0  0  0  0
    0.1536    0.9647   -0.3823 H   0  0  0  0  0  0  0  0  0  0  0  0
    1.6011    1.8122    0.0145 H   0  0  0  0  0  0  0  0  0  0  0  0
    2.2876    1.2413   -2.3764 H   0  0  0  0  0  0  0  0  0  0  0  0
   -0.3452    2.8307   -2.4664 H   0  0  0  0  0  0  0  0  0  0  0  0
    1.3676    3.3959   -2.2632 H   0  0  0  0  0  0  0  0  0  0  0  0
    1.2287    0.6890   -4.9676 H   0  0  0  0  0  0  0  0  0  0  0  0
   -0.5296    0.9984   -4.8857 H   0  0  0  0  0  0  0  0  0  0  0  0
    0.8553   -0.6063   -3.0053 H   0  0  0  0  0  0  0  0  0  0  0  0
   -1.7101   -1.5028   -3.7734 H   0  0  0  0  0  0  0  0  0  0  0  0
   -4.7469   -0.4937   -0.0666 H   0  0  0  0  0  0  0  0  0  0  0  0
   -0.0066    3.3277   -0.6883 H   0  0  0  0  0  0  0  0  0  0  0  0
   -0.0218    3.5737    1.8084 H   0  0  0  0  0  0  0  0  0  0  0  0
   -2.2582    2.6518    2.6300 H   0  0  0  0  0  0  0  0  0  0  0  0
    1.2962    5.3237   -5.4068 H   0  0  0  0  0  0  0  0  0  0  0  0
    0.2440    6.3538   -3.5214 H   0  0  0  0  0  0  0  0  0  0  0  0
    0.3520    4.9283   -2.5970 H   0  0  0  0  0  0  0  0  0  0  0  0
  1  2  1  0  0  0  0
  1 28  1  0  0  0  0
  1 29  1  0  0  0  0
  1 30  1  0  0  0  0
  2 31  1  0  0  0  0
  2 32  1  0  0  0  0
  3  2  1  0  0  0  0
  3  4  1  0  0  0  0
  3  7  1  0  0  0  0
  3 33  1  6  0  0  0
  4  5  1  0  0  0  0
  4 34  1  0  0  0  0
  4 35  1  0  0  0  0
  5  6  1  0  0  0  0
  5 20  1  0  0  0  0
  6 36  1  0  0  0  0
  6 37  1  0  0  0  0
  7  6  1  0  0  0  0
  7 38  1  6  0  0  0
  7  8  1  0  0  0  0
  8  9  2  0  0  0  0
  8 19  1  0  0  0  0
  9 10  1  0  0  0  0
  9 39  1  0  0  0  0
 10 11  2  0  0  0  0
 11 12  1  0  0  0  0
 11 19  1  0  0  0  0
 12 13  2  0  0  0  0
 12 40  1  0  0  0  0
 13 14  1  0  0  0  0
 14 15  2  0  0  0  0
 14 18  1  0  0  0  0
 15 16  1  0  0  0  0
 15 19  1  0  0  0  0
 16 17  2  0  0  0  0
 16 41  1  0  0  0  0
 17 18  1  0  0  0  0
 17 42  1  0  0  0  0
 18 43  1  0  0  0  0
 20 21  2  0  0  0  0
 20 22  1  0  0  0  0
 22 23  1  0  0  0  0
 22 44  1  0  0  0  0
 23 24  1  0  0  0  0
 23 45  1  0  0  0  0
 23 46  1  0  0  0  0
 24 25  1  0  0  0  0
 24 26  1  0  0  0  0
 24 27  1  0  0  0  0
M  END
>  <DRUGBANK_ID>
DB15091

>  <COMMON_NAME>
Upadacitinib

>  <CAS_NUMBER>
1310726-60-3

>  <UNII>
4RA0KN46E0

>  <SYNONYMS>
Upadacitinib

$$$$
