
 OpenBabel10282417213D

 30 33  0  0  0  0  0  0  0  0999 V2000
    1.0590   -0.0643    0.2116 F   0  0  0  0  0  0  0  0  0  0  0  0
    2.3970   -0.0169    0.1100 C   0  0  0  0  0  0  0  0  0  0  0  0
    3.0119    1.2157    0.0550 C   0  0  0  0  0  0  0  0  0  0  0  0
    4.3926    1.2585   -0.1863 C   0  0  0  0  0  0  0  0  0  0  0  0
    5.1569    0.0828   -0.3304 C   0  0  0  0  0  0  0  0  0  0  0  0
    4.4295   -1.0978   -0.1356 C   0  0  0  0  0  0  0  0  0  0  0  0
    3.0752   -1.1791    0.0493 N   0  0  0  0  0  0  0  0  0  0  0  0
    6.6393    0.1484   -0.5486 C   0  0  0  0  0  0  0  0  0  0  0  0
    7.3561   -0.4060   -1.6263 C   0  0  0  0  0  0  0  0  0  0  0  0
    8.8104   -0.2707   -1.7800 C   0  0  0  0  0  0  0  0  0  0  0  0
    9.6069    0.3076   -0.7277 C   0  0  0  0  0  0  0  0  0  0  0  0
    8.8173    0.7953    0.3251 C   0  0  0  0  0  0  0  0  0  0  0  0
    9.6722    1.1230    1.3279 N   0  0  0  0  0  0  0  0  0  0  0  0
   10.8454    0.4820    1.1354 C   0  0  0  0  0  0  0  0  0  0  0  0
   11.0258    0.4856   -0.2510 C   0  0  0  0  0  0  0  0  0  0  0  0
   12.4003    0.4198   -0.6103 C   0  0  0  0  0  0  0  0  0  0  0  0
   13.3247   -0.1109    0.2750 N   0  0  0  0  0  0  0  0  0  0  0  0
   12.9309   -0.4774    1.5104 C   0  0  0  0  0  0  0  0  0  0  0  0
   11.7288   -0.0897    2.0412 C   0  0  0  0  0  0  0  0  0  0  0  0
    7.4160    0.8296    0.3800 C   0  0  0  0  0  0  0  0  0  0  0  0
    2.4240    2.1181    0.1828 H   0  0  0  0  0  0  0  0  0  0  0  0
    4.8703    2.2320   -0.2631 H   0  0  0  0  0  0  0  0  0  0  0  0
    4.9206   -2.0663   -0.0775 H   0  0  0  0  0  0  0  0  0  0  0  0
    6.7912   -0.9559   -2.3844 H   0  0  0  0  0  0  0  0  0  0  0  0
    9.2536   -0.7362   -2.6628 H   0  0  0  0  0  0  0  0  0  0  0  0
    9.3426    1.4395    2.2414 H   0  0  0  0  0  0  0  0  0  0  0  0
   12.8855    1.0927   -1.3257 H   0  0  0  0  0  0  0  0  0  0  0  0
   13.6369   -1.0546    2.1058 H   0  0  0  0  0  0  0  0  0  0  0  0
   11.4334   -0.2949    3.0609 H   0  0  0  0  0  0  0  0  0  0  0  0
    6.9474    1.3105    1.2343 H   0  0  0  0  0  0  0  0  0  0  0  0
  1  2  1  0  0  0  0
  2  3  2  0  0  0  0
  2  7  1  0  0  0  0
  3  4  1  0  0  0  0
  3 21  1  0  0  0  0
  4  5  2  0  0  0  0
  4 22  1  0  0  0  0
  5  6  1  0  0  0  0
  5  8  1  0  0  0  0
  6  7  2  0  0  0  0
  6 23  1  0  0  0  0
  8  9  2  0  0  0  0
  8 20  1  0  0  0  0
  9 10  1  0  0  0  0
  9 24  1  0  0  0  0
 10 11  2  0  0  0  0
 10 25  1  0  0  0  0
 11 12  1  0  0  0  0
 11 15  1  0  0  0  0
 12 13  1  0  0  0  0
 12 20  2  0  0  0  0
 13 14  1  0  0  0  0
 13 26  1  0  0  0  0
 14 15  2  0  0  0  0
 14 19  1  0  0  0  0
 15 16  1  0  0  0  0
 16 17  2  0  0  0  0
 16 27  1  0  0  0  0
 17 18  1  0  0  0  0
 18 19  2  0  0  0  0
 18 28  1  0  0  0  0
 19 29  1  0  0  0  0
 20 30  1  0  0  0  0
M  ISO  1   1  18
M  END
>  <DRUGBANK_ID>
DB14914

>  <COMMON_NAME>
Flortaucipir F-18

>  <CAS_NUMBER>
1522051-90-6

>  <UNII>
T1JP1KYU9O

>  <SYNONYMS>
Flortaucipir (18F); Flortaucipir F 18

$$$$
