
 OpenBabel10282417213D

 42 44  0  0  0  0  0  0  0  0999 V2000
    1.0005   -0.3414   -0.0926 C   0  0  0  0  0  0  0  0  0  0  0  0
    0.4853    0.3610   -1.2654 N   0  0  0  0  0  0  0  0  0  0  0  0
   -0.9761    0.3202   -1.2779 C   0  0  0  0  0  0  0  0  0  0  0  0
    0.9585    1.7547   -1.3393 C   0  0  0  0  0  0  0  0  0  0  0  0
    0.4550    2.7151   -0.2306 C   0  0  0  0  0  0  0  0  0  0  0  0
    1.0352    2.4282    1.1474 C   0  0  0  0  0  0  0  0  0  0  0  0
    1.9689    3.1120    1.8176 C   0  0  0  0  0  0  0  0  0  0  0  0
    2.3708    2.6715    3.1657 C   0  0  0  0  0  0  0  0  0  0  0  0
    3.2829    1.6318    3.3639 C   0  0  0  0  0  0  0  0  0  0  0  0
    3.7244    1.3385    4.6550 C   0  0  0  0  0  0  0  0  0  0  0  0
    3.2425    2.0701    5.7420 C   0  0  0  0  0  0  0  0  0  0  0  0
    2.3257    3.1055    5.5435 C   0  0  0  0  0  0  0  0  0  0  0  0
    1.8934    3.4183    4.2496 C   0  0  0  0  0  0  0  0  0  0  0  0
    0.9567    4.5636    3.9571 C   0  0  0  0  0  0  0  0  0  0  0  0
    1.6157    5.6888    3.3534 O   0  0  0  0  0  0  0  0  0  0  0  0
    2.1001    5.5969    2.0688 C   0  0  0  0  0  0  0  0  0  0  0  0
    2.3352    4.4378    1.3190 C   0  0  0  0  0  0  0  0  0  0  0  0
    2.8745    4.5135    0.0222 C   0  0  0  0  0  0  0  0  0  0  0  0
    3.0850    5.7367   -0.5848 C   0  0  0  0  0  0  0  0  0  0  0  0
    2.8686    6.8925    0.1516 C   0  0  0  0  0  0  0  0  0  0  0  0
    2.4043    6.8231    1.4736 C   0  0  0  0  0  0  0  0  0  0  0  0
    0.8249   -1.4169   -0.1583 H   0  0  0  0  0  0  0  0  0  0  0  0
    0.4849   -0.0423    0.8172 H   0  0  0  0  0  0  0  0  0  0  0  0
    2.0787   -0.1843    0.0338 H   0  0  0  0  0  0  0  0  0  0  0  0
   -1.4192    0.8743   -0.4442 H   0  0  0  0  0  0  0  0  0  0  0  0
   -1.3589    0.7442   -2.2121 H   0  0  0  0  0  0  0  0  0  0  0  0
   -1.3394   -0.7067   -1.1997 H   0  0  0  0  0  0  0  0  0  0  0  0
    2.0570    1.7580   -1.3914 H   0  0  0  0  0  0  0  0  0  0  0  0
    0.6489    2.1647   -2.3129 H   0  0  0  0  0  0  0  0  0  0  0  0
    0.6597    3.7336   -0.5697 H   0  0  0  0  0  0  0  0  0  0  0  0
   -0.6350    2.7160   -0.1647 H   0  0  0  0  0  0  0  0  0  0  0  0
    0.5973    1.5907    1.6818 H   0  0  0  0  0  0  0  0  0  0  0  0
    3.6845    1.0818    2.5169 H   0  0  0  0  0  0  0  0  0  0  0  0
    4.4613    0.5549    4.8114 H   0  0  0  0  0  0  0  0  0  0  0  0
    3.5962    1.8450    6.7455 H   0  0  0  0  0  0  0  0  0  0  0  0
    1.9719    3.6775    6.3974 H   0  0  0  0  0  0  0  0  0  0  0  0
    0.1012    4.2372    3.3490 H   0  0  0  0  0  0  0  0  0  0  0  0
    0.5143    4.9105    4.8991 H   0  0  0  0  0  0  0  0  0  0  0  0
    3.0531    3.6050   -0.5469 H   0  0  0  0  0  0  0  0  0  0  0  0
    3.4072    5.7694   -1.6209 H   0  0  0  0  0  0  0  0  0  0  0  0
    3.0699    7.8562   -0.3041 H   0  0  0  0  0  0  0  0  0  0  0  0
    2.2612    7.7391    2.0383 H   0  0  0  0  0  0  0  0  0  0  0  0
  1  2  1  0  0  0  0
  1 22  1  0  0  0  0
  1 23  1  0  0  0  0
  1 24  1  0  0  0  0
  2  3  1  0  0  0  0
  2  4  1  0  0  0  0
  3 25  1  0  0  0  0
  3 26  1  0  0  0  0
  3 27  1  0  0  0  0
  4  5  1  0  0  0  0
  4 28  1  0  0  0  0
  4 29  1  0  0  0  0
  5  6  1  0  0  0  0
  5 30  1  0  0  0  0
  5 31  1  0  0  0  0
  6  7  2  0  0  0  0
  6 32  1  0  0  0  0
  7  8  1  0  0  0  0
  7 17  1  0  0  0  0
  8  9  2  0  0  0  0
  8 13  1  0  0  0  0
  9 10  1  0  0  0  0
  9 33  1  0  0  0  0
 10 11  2  0  0  0  0
 10 34  1  0  0  0  0
 11 12  1  0  0  0  0
 11 35  1  0  0  0  0
 12 13  2  0  0  0  0
 12 36  1  0  0  0  0
 13 14  1  0  0  0  0
 14 15  1  0  0  0  0
 14 37  1  0  0  0  0
 14 38  1  0  0  0  0
 15 16  1  0  0  0  0
 16 17  2  0  0  0  0
 16 21  1  0  0  0  0
 17 18  1  0  0  0  0
 18 19  2  0  0  0  0
 18 39  1  0  0  0  0
 19 20  1  0  0  0  0
 19 40  1  0  0  0  0
 20 21  2  0  0  0  0
 20 41  1  0  0  0  0
 21 42  1  0  0  0  0
M  END
>  <DRUGBANK_ID>
DB14750

>  <COMMON_NAME>
Cidoxepin

>  <CAS_NUMBER>
3607-18-9

>  <UNII>
F96TTB8728

>  <SYNONYMS>
(Z)-Doxepin; Cidoxepin; Cidoxepina; Cidoxepinum

$$$$
