
 OpenBabel10282417113D

 52 55  0  0  0  0  0  0  0  0999 V2000
   -2.3258   -0.5463    6.2633 O   0  0  0  0  0  0  0  0  0  0  0  0
   -5.5684   -7.8815   -1.1081 O   0  0  0  0  0  0  0  0  0  0  0  0
   -3.1909   -2.0860    4.2562 C   0  0  1  0  0  0  0  0  0  0  0  0
   -3.8509   -3.5261    4.5903 C   0  0  2  0  0  0  0  0  0  0  0  0
   -3.7406   -4.6468    3.5387 C   0  0  1  0  0  0  0  0  0  0  0  0
   -4.2164   -4.2521    2.0807 C   0  0  1  0  0  0  0  0  0  0  0  0
   -3.5189   -5.2455    1.0273 C   0  0  1  0  0  0  0  0  0  0  0  0
   -2.3824   -1.8858    5.7524 C   0  0  2  0  0  0  0  0  0  0  0  0
   -4.5161   -1.9886    3.2272 C   0  0  0  0  0  0  0  0  0  0  0  0
   -3.9057   -2.7655    1.9392 C   0  0  0  0  0  0  0  0  0  0  0  0
   -3.3131   -3.9946    5.9351 C   0  0  0  0  0  0  0  0  0  0  0  0
   -4.2231   -6.0454    3.9655 C   0  0  0  0  0  0  0  0  0  0  0  0
   -4.1090   -6.6653    1.5053 C   0  0  1  0  0  0  0  0  0  0  0  0
   -3.1167   -2.7601    6.7531 C   0  0  0  0  0  0  0  0  0  0  0  0
   -3.7352   -7.0584    2.9315 C   0  0  0  0  0  0  0  0  0  0  0  0
   -2.5692   -0.8737    3.5145 C   0  0  0  0  0  0  0  0  0  0  0  0
   -2.0094   -4.8973    1.1692 C   0  0  0  0  0  0  0  0  0  0  0  0
   -0.8540   -2.2645    5.6227 C   0  0  0  0  0  0  0  0  0  0  0  0
   -3.5779   -5.1908   -0.5486 C   0  0  0  0  0  0  0  0  0  0  0  0
   -3.7573   -7.7722    0.5198 C   0  0  0  0  0  0  0  0  0  0  0  0
   -3.9978   -6.1640   -1.3819 C   0  0  0  0  0  0  0  0  0  0  0  0
   -4.4887   -7.3615   -0.7220 C   0  0  0  0  0  0  0  0  0  0  0  0
   -4.9314   -3.3929    4.8148 H   0  0  0  0  0  0  0  0  0  0  0  0
   -2.6637   -4.7923    3.5326 H   0  0  0  0  0  0  0  0  0  0  0  0
   -5.3104   -4.3538    2.0041 H   0  0  0  0  0  0  0  0  0  0  0  0
   -5.2165   -6.5916    1.4878 H   0  0  0  0  0  0  0  0  0  0  0  0
   -1.6725   -0.5541    6.9929 H   0  0  0  0  0  0  0  0  0  0  0  0
   -4.8404   -1.2937    2.4153 H   0  0  0  0  0  0  0  0  0  0  0  0
   -4.9119   -1.0724    3.6957 H   0  0  0  0  0  0  0  0  0  0  0  0
   -4.2666   -2.4324    0.9536 H   0  0  0  0  0  0  0  0  0  0  0  0
   -2.8222   -2.5952    1.8784 H   0  0  0  0  0  0  0  0  0  0  0  0
   -3.9806   -4.6967    6.4436 H   0  0  0  0  0  0  0  0  0  0  0  0
   -2.3620   -4.5282    5.7992 H   0  0  0  0  0  0  0  0  0  0  0  0
   -5.3047   -6.1221    4.1433 H   0  0  0  0  0  0  0  0  0  0  0  0
   -3.7483   -6.3184    4.9151 H   0  0  0  0  0  0  0  0  0  0  0  0
   -3.4143   -3.0537    7.7749 H   0  0  0  0  0  0  0  0  0  0  0  0
   -3.8288   -1.9633    6.9628 H   0  0  0  0  0  0  0  0  0  0  0  0
   -4.1149   -8.0579    3.1795 H   0  0  0  0  0  0  0  0  0  0  0  0
   -2.6447   -7.1109    3.0005 H   0  0  0  0  0  0  0  0  0  0  0  0
   -2.9644   -0.5708    2.5356 H   0  0  0  0  0  0  0  0  0  0  0  0
   -2.8300    0.0215    4.1065 H   0  0  0  0  0  0  0  0  0  0  0  0
   -1.4933   -0.9281    3.3923 H   0  0  0  0  0  0  0  0  0  0  0  0
   -1.7295   -4.1345    0.4237 H   0  0  0  0  0  0  0  0  0  0  0  0
   -1.7447   -4.3457    2.0687 H   0  0  0  0  0  0  0  0  0  0  0  0
   -1.3423   -5.7479    1.0967 H   0  0  0  0  0  0  0  0  0  0  0  0
   -0.1972   -1.4036    5.8349 H   0  0  0  0  0  0  0  0  0  0  0  0
   -0.5413   -3.0352    6.3371 H   0  0  0  0  0  0  0  0  0  0  0  0
   -0.5784   -2.6042    4.6192 H   0  0  0  0  0  0  0  0  0  0  0  0
   -2.9814   -4.4477   -1.0864 H   0  0  0  0  0  0  0  0  0  0  0  0
   -4.0663   -8.7890    0.7867 H   0  0  0  0  0  0  0  0  0  0  0  0
   -2.6681   -7.7944    0.4014 H   0  0  0  0  0  0  0  0  0  0  0  0
   -3.9388   -6.1381   -2.4662 H   0  0  0  0  0  0  0  0  0  0  0  0
  1 27  1  0  0  0  0
  2 22  2  0  0  0  0
  3  4  1  0  0  0  0
  3  8  1  0  0  0  0
  3  9  1  0  0  0  0
  3 16  1  1  0  0  0
  4  5  1  0  0  0  0
  4 11  1  0  0  0  0
  4 23  1  6  0  0  0
  5  6  1  0  0  0  0
  5 12  1  0  0  0  0
  5 24  1  1  0  0  0
  6  7  1  0  0  0  0
  6 10  1  0  0  0  0
  6 25  1  1  0  0  0
  7 13  1  0  0  0  0
  7 19  1  0  0  0  0
  7 17  1  6  0  0  0
  8 14  1  0  0  0  0
  8  1  1  1  0  0  0
  8 18  1  0  0  0  0
  9 10  1  0  0  0  0
  9 28  1  0  0  0  0
  9 29  1  0  0  0  0
 10 30  1  0  0  0  0
 10 31  1  0  0  0  0
 11 14  1  0  0  0  0
 11 32  1  0  0  0  0
 11 33  1  0  0  0  0
 12 15  1  0  0  0  0
 12 34  1  0  0  0  0
 12 35  1  0  0  0  0
 13 15  1  0  0  0  0
 13 20  1  0  0  0  0
 13 26  1  1  0  0  0
 14 36  1  0  0  0  0
 14 37  1  0  0  0  0
 15 38  1  0  0  0  0
 15 39  1  0  0  0  0
 16 40  1  0  0  0  0
 16 41  1  0  0  0  0
 16 42  1  0  0  0  0
 17 43  1  0  0  0  0
 17 44  1  0  0  0  0
 17 45  1  0  0  0  0
 18 46  1  0  0  0  0
 18 47  1  0  0  0  0
 18 48  1  0  0  0  0
 19 21  2  0  0  0  0
 19 49  1  0  0  0  0
 20 22  1  0  0  0  0
 20 50  1  0  0  0  0
 20 51  1  0  0  0  0
 21 22  1  0  0  0  0
 21 52  1  0  0  0  0
M  END
>  <DRUGBANK_ID>
DB01572

>  <COMMON_NAME>
Methyl-1-testosterone

>  <CAS_NUMBER>
65-04-3

>  <UNII>
21O907N0NH

>  <SYNONYMS>
(+)-Methyl-1-testosterone; (5α,17β)-17-Hydroxy-17-methylandrost-1-en-3-one; 17alpha-Methyl-17beta-hydroxy-5alpha-androst-1-en-3-one; 17alpha-Methyl-17beta-hydroxy-delta1-5alpha-androsten-3-one; 17beta-Hydroxy-17alpha-methyl-5alpha-androst-1-ene-3-one

$$$$
