
 OpenBabel10282417143D

 87 92  0  0  1  0  0  0  0  0999 V2000
    6.3987   -4.7864   16.0700 N   0  0  0  0  0  0  0  0  0  0  0  0
    5.2276   -4.5738   15.4386 C   0  0  0  0  0  0  0  0  0  0  0  0
    4.8645   -3.4061   15.2928 O   0  0  0  0  0  0  0  0  0  0  0  0
    4.4072   -5.8012   14.9566 C   0  0  0  0  0  0  0  0  0  0  0  0
    5.0584   -6.9166   14.0657 C   0  0  1  0  0  0  0  0  0  0  0  0
    4.5292   -7.0425   12.5918 C   0  0  0  0  0  0  0  0  0  0  0  0
    5.4784   -6.2440   11.6463 C   0  0  1  0  0  0  0  0  0  0  0  0
    4.9921   -4.8601   11.4345 C   0  0  0  0  0  0  0  0  0  0  0  0
    4.7529   -3.9474   12.3583 C   0  0  0  0  0  0  0  0  0  0  0  0
    4.3060   -2.7252   12.0156 N   0  0  0  0  0  0  0  0  0  0  0  0
    4.2279   -2.6368   10.5705 C   0  0  2  0  0  0  0  0  0  0  0  0
    5.4713   -1.8428   10.0078 C   0  0  0  0  0  0  0  0  0  0  0  0
    4.9883   -0.5017    9.6033 C   0  0  2  0  0  0  0  0  0  0  0  0
    4.3320   -0.6832    8.3467 O   0  0  0  0  0  0  0  0  0  0  0  0
    5.6597    0.8681    9.8248 C   0  0  2  0  0  0  0  0  0  0  0  0
    5.7296    1.7528    8.5636 C   0  0  0  0  0  0  0  0  0  0  0  0
    5.1556    3.1469    8.8157 C   0  0  0  0  0  0  0  0  0  0  0  0
    3.8446    3.4997    8.4396 C   0  0  0  0  0  0  0  0  0  0  0  0
    3.3034    4.7447    8.7887 C   0  0  0  0  0  0  0  0  0  0  0  0
    4.0679    5.6511    9.5152 C   0  0  0  0  0  0  0  0  0  0  0  0
    5.3527    5.2988    9.9224 C   0  0  0  0  0  0  0  0  0  0  0  0
    5.9033    4.0702    9.5496 C   0  0  0  0  0  0  0  0  0  0  0  0
    6.8150    0.7755   10.7020 N   0  0  0  0  0  0  0  0  0  0  0  0
    7.0655    1.0376   12.0388 C   0  0  0  0  0  0  0  0  0  0  0  0
    8.0782    0.5467   12.5004 O   0  0  0  0  0  0  0  0  0  0  0  0
    6.2764    1.8261   12.8430 O   0  0  0  0  0  0  0  0  0  0  0  0
    4.9911    2.3651   12.5552 C   0  0  1  0  0  0  0  0  0  0  0  0
    3.9552    1.2912   12.5580 C   0  0  0  0  0  0  0  0  0  0  0  0
    2.7124    2.1088   12.6022 C   0  0  0  0  0  0  0  0  0  0  0  0
    2.9257    3.1364   13.5400 O   0  0  0  0  0  0  0  0  0  0  0  0
    4.3560    3.2993   13.5959 C   0  0  0  0  0  0  0  0  0  0  0  0
    2.7002   -2.3081   10.2168 C   0  0  0  0  0  0  0  0  0  0  0  0
    1.8855   -1.0119   10.5445 C   0  0  0  0  0  0  0  0  0  0  0  0
    2.1873    0.2314    9.9815 C   0  0  0  0  0  0  0  0  0  0  0  0
    1.5002    1.4231   10.0378 C   0  0  0  0  0  0  0  0  0  0  0  0
    0.4108    1.4703   10.8381 C   0  0  0  0  0  0  0  0  0  0  0  0
   -0.0007    0.2800   11.4403 C   0  0  0  0  0  0  0  0  0  0  0  0
    0.7192   -0.9496   11.3015 C   0  0  0  0  0  0  0  0  0  0  0  0
    4.6083   -4.1255   10.1990 C   0  0  0  0  0  0  0  0  0  0  0  0
    4.6809   -4.5940    9.0983 O   0  0  0  0  0  0  0  0  0  0  0  0
    6.7607   -6.3510   12.4552 C   0  0  0  0  0  0  0  0  0  0  0  0
    8.0567   -6.0708   12.0410 C   0  0  0  0  0  0  0  0  0  0  0  0
    9.1091   -6.2251   12.9531 C   0  0  0  0  0  0  0  0  0  0  0  0
    8.8705   -6.6920   14.2504 C   0  0  0  0  0  0  0  0  0  0  0  0
    7.5795   -7.0329   14.6421 C   0  0  0  0  0  0  0  0  0  0  0  0
    6.5260   -6.7925   13.7681 C   0  0  0  0  0  0  0  0  0  0  0  0
    7.0676   -4.0255   16.0682 H   0  0  0  0  0  0  0  0  0  0  0  0
    6.7069   -5.6960   16.3528 H   0  0  0  0  0  0  0  0  0  0  0  0
    4.0106   -6.2579   15.8693 H   0  0  0  0  0  0  0  0  0  0  0  0
    3.5105   -5.4257   14.4395 H   0  0  0  0  0  0  0  0  0  0  0  0
    4.8561   -7.8775   14.5565 H   0  0  0  0  0  0  0  0  0  0  0  0
    4.6022   -8.1035   12.2972 H   0  0  0  0  0  0  0  0  0  0  0  0
    3.4726   -6.7757   12.4796 H   0  0  0  0  0  0  0  0  0  0  0  0
    5.5919   -6.7621   10.6870 H   0  0  0  0  0  0  0  0  0  0  0  0
    4.8917   -4.1282   13.3757 H   0  0  0  0  0  0  0  0  0  0  0  0
    4.3485   -1.9667   12.6911 H   0  0  0  0  0  0  0  0  0  0  0  0
    6.2579   -1.7809   10.7655 H   0  0  0  0  0  0  0  0  0  0  0  0
    5.8838   -2.3283    9.1181 H   0  0  0  0  0  0  0  0  0  0  0  0
    4.3141   -0.4794   10.4376 H   0  0  0  0  0  0  0  0  0  0  0  0
    3.6655    0.0004    8.1492 H   0  0  0  0  0  0  0  0  0  0  0  0
    4.9510    1.4441   10.3872 H   0  0  0  0  0  0  0  0  0  0  0  0
    6.7518    1.7968    8.1938 H   0  0  0  0  0  0  0  0  0  0  0  0
    5.1155    1.3399    7.7593 H   0  0  0  0  0  0  0  0  0  0  0  0
    3.2052    2.8017    7.9008 H   0  0  0  0  0  0  0  0  0  0  0  0
    2.2816    5.0029    8.5128 H   0  0  0  0  0  0  0  0  0  0  0  0
    3.6662    6.6300    9.7667 H   0  0  0  0  0  0  0  0  0  0  0  0
    5.9247    5.9748   10.5518 H   0  0  0  0  0  0  0  0  0  0  0  0
    6.9026    3.8062    9.8871 H   0  0  0  0  0  0  0  0  0  0  0  0
    7.4915    0.0815   10.4005 H   0  0  0  0  0  0  0  0  0  0  0  0
    5.0570    2.9403   11.6358 H   0  0  0  0  0  0  0  0  0  0  0  0
    4.0512    0.5745   13.3738 H   0  0  0  0  0  0  0  0  0  0  0  0
    3.9733    0.6756   11.6980 H   0  0  0  0  0  0  0  0  0  0  0  0
    2.5836    2.6520   11.6662 H   0  0  0  0  0  0  0  0  0  0  0  0
    1.8658    1.4839   12.8653 H   0  0  0  0  0  0  0  0  0  0  0  0
    4.6246    3.0367   14.6138 H   0  0  0  0  0  0  0  0  0  0  0  0
    4.5572    4.3482   13.3710 H   0  0  0  0  0  0  0  0  0  0  0  0
    2.6299   -2.4190    9.1321 H   0  0  0  0  0  0  0  0  0  0  0  0
    2.1076   -3.1443   10.6221 H   0  0  0  0  0  0  0  0  0  0  0  0
    3.1480    0.5215    9.6682 H   0  0  0  0  0  0  0  0  0  0  0  0
    2.0426    2.3136    9.7326 H   0  0  0  0  0  0  0  0  0  0  0  0
    0.0791    2.4514   11.1706 H   0  0  0  0  0  0  0  0  0  0  0  0
   -0.8568    0.3498   12.0997 H   0  0  0  0  0  0  0  0  0  0  0  0
    0.3617   -1.8165   11.8493 H   0  0  0  0  0  0  0  0  0  0  0  0
    8.2613   -5.7240   11.0330 H   0  0  0  0  0  0  0  0  0  0  0  0
   10.1278   -5.9895   12.6540 H   0  0  0  0  0  0  0  0  0  0  0  0
    9.6912   -6.7765   14.9594 H   0  0  0  0  0  0  0  0  0  0  0  0
    7.4046   -7.4157   15.6430 H   0  0  0  0  0  0  0  0  0  0  0  0
  1  2  1  0  0  0  0
  1 47  1  0  0  0  0
  1 48  1  0  0  0  0
  2  3  2  0  0  0  0
  2  4  1  0  0  0  0
  4 49  1  0  0  0  0
  4 50  1  0  0  0  0
  5  6  1  0  0  0  0
  5 46  1  0  0  0  0
  5 51  1  1  0  0  0
  5  4  1  0  0  0  0
  6  7  1  0  0  0  0
  6 52  1  0  0  0  0
  6 53  1  0  0  0  0
  7 41  1  0  0  0  0
  7 54  1  6  0  0  0
  7  8  1  0  0  0  0
  8  9  2  0  0  0  0
  8 39  1  0  0  0  0
  9 10  1  0  0  0  0
  9 55  1  0  0  0  0
 10 11  1  0  0  0  0
 10 56  1  0  0  0  0
 11 39  1  0  0  0  0
 11 32  1  6  0  0  0
 11 12  1  0  0  0  0
 12 57  1  0  0  0  0
 12 58  1  0  0  0  0
 13 59  1  1  0  0  0
 13 14  1  0  0  0  0
 13 12  1  0  0  0  0
 14 60  1  0  0  0  0
 15 23  1  0  0  0  0
 15 61  1  1  0  0  0
 15 16  1  0  0  0  0
 15 13  1  0  0  0  0
 16 17  1  0  0  0  0
 16 62  1  0  0  0  0
 16 63  1  0  0  0  0
 17 18  2  0  0  0  0
 17 22  1  0  0  0  0
 18 19  1  0  0  0  0
 18 64  1  0  0  0  0
 19 20  2  0  0  0  0
 19 65  1  0  0  0  0
 20 21  1  0  0  0  0
 20 66  1  0  0  0  0
 21 22  2  0  0  0  0
 21 67  1  0  0  0  0
 22 68  1  0  0  0  0
 23 24  1  0  0  0  0
 23 69  1  0  0  0  0
 24 25  2  0  0  0  0
 24 26  1  0  0  0  0
 27 28  1  0  0  0  0
 27 31  1  0  0  0  0
 27 70  1  6  0  0  0
 27 26  1  0  0  0  0
 28 29  1  0  0  0  0
 28 71  1  0  0  0  0
 28 72  1  0  0  0  0
 29 30  1  0  0  0  0
 29 73  1  0  0  0  0
 29 74  1  0  0  0  0
 30 31  1  0  0  0  0
 31 75  1  0  0  0  0
 31 76  1  0  0  0  0
 32 33  1  0  0  0  0
 32 77  1  0  0  0  0
 32 78  1  0  0  0  0
 33 34  2  0  0  0  0
 33 38  1  0  0  0  0
 34 35  1  0  0  0  0
 34 79  1  0  0  0  0
 35 36  2  0  0  0  0
 35 80  1  0  0  0  0
 36 37  1  0  0  0  0
 36 81  1  0  0  0  0
 37 38  2  0  0  0  0
 37 82  1  0  0  0  0
 38 83  1  0  0  0  0
 39 40  2  0  0  0  0
 41 42  2  0  0  0  0
 41 46  1  0  0  0  0
 42 43  1  0  0  0  0
 42 84  1  0  0  0  0
 43 44  2  0  0  0  0
 43 85  1  0  0  0  0
 44 45  1  0  0  0  0
 44 86  1  0  0  0  0
 45 46  2  0  0  0  0
 45 87  1  0  0  0  0
M  END
>  <DRUGBANK_ID>
DB04708

>  <COMMON_NAME>
(S)-TETRAHYDROFURAN-3-YL (2S,3S)-4-((S)-4-((1R,3R)-3-(2-AMINO-2-OXOETHYL)-2,3-DIHYDRO-1H-INDEN-1-YL)-2-BENZYL-3-OXO-2,3-DIHYDRO-1H-PYRROL-2-YL)-3-HYDROXY-1-PHENYLBUTAN-2-YLCARBAMATE

$$$$
