
 OpenBabel10282417203D

 65 64  0  0  0  0  0  0  0  0999 V2000
    0.0519   -0.1264   -0.7506 C   0  0  0  0  0  0  0  0  0  0  0  0
   -0.3806    1.2484   -0.2668 C   0  0  0  0  0  0  0  0  0  0  0  0
   -1.8807    1.2629    0.0319 C   0  0  0  0  0  0  0  0  0  0  0  0
   -2.2414    0.2509    1.1242 C   0  0  0  0  0  0  0  0  0  0  0  0
   -1.4706    0.5485    2.4163 C   0  0  0  0  0  0  0  0  0  0  0  0
   -1.8259    1.9412    2.9513 C   0  0  0  0  0  0  0  0  0  0  0  0
   -3.3195    2.0276    3.2519 C   0  0  0  0  0  0  0  0  0  0  0  0
   -3.7222    0.9336    4.2261 C   0  0  0  0  0  0  0  0  0  0  0  0
   -3.0415    1.1824    5.5330 C   0  0  0  0  0  0  0  0  0  0  0  0
   -3.7054    1.4990    6.6399 C   0  0  0  0  0  0  0  0  0  0  0  0
   -5.1970    1.4774    6.7185 C   0  0  0  0  0  0  0  0  0  0  0  0
   -5.6135    0.3773    7.6804 C   0  0  0  0  0  0  0  0  0  0  0  0
   -5.1403    0.7108    9.0917 C   0  0  0  0  0  0  0  0  0  0  0  0
   -5.6732    2.0864    9.5092 C   0  0  0  0  0  0  0  0  0  0  0  0
   -7.2067    2.0897    9.4766 C   0  0  0  0  0  0  0  0  0  0  0  0
   -7.7591    1.1061   10.5079 C   0  0  0  0  0  0  0  0  0  0  0  0
   -7.1777    1.3340   11.9063 C   0  0  0  0  0  0  0  0  0  0  0  0
  -10.0638    4.2034   12.9417 C   0  0  0  0  0  0  0  0  0  0  0  0
   -7.8283    5.0319   12.0178 C   0  0  0  0  0  0  0  0  0  0  0  0
   -9.3634    5.1496   11.9679 C   0  0  3  0  0  0  0  0  0  0  0  0
   -7.4586    2.6817   12.5242 C   0  0  0  0  0  0  0  0  0  0  0  0
   -9.5906    4.4907   14.2611 O   0  0  0  0  0  0  0  0  0  0  0  0
   -9.7247    6.4932   12.3127 O   0  0  0  0  0  0  0  0  0  0  0  0
   -7.7374    2.8083   13.7166 O   0  0  0  0  0  0  0  0  0  0  0  0
   -7.3590    3.7168   11.6591 O   0  0  0  0  0  0  0  0  0  0  0  0
   -1.9540    1.1549    5.5816 H   0  0  0  0  0  0  0  0  0  0  0  0
   -3.1262    1.7325    7.5321 H   0  0  0  0  0  0  0  0  0  0  0  0
   -0.1348   -0.9045   -0.0032 H   0  0  0  0  0  0  0  0  0  0  0  0
    1.1216   -0.1438   -0.9615 H   0  0  0  0  0  0  0  0  0  0  0  0
   -0.5014   -0.3911   -1.6562 H   0  0  0  0  0  0  0  0  0  0  0  0
    0.2028    1.5278    0.6186 H   0  0  0  0  0  0  0  0  0  0  0  0
   -0.1482    2.0070   -1.0189 H   0  0  0  0  0  0  0  0  0  0  0  0
   -2.1843    2.2752    0.3258 H   0  0  0  0  0  0  0  0  0  0  0  0
   -2.4519    1.0439   -0.8754 H   0  0  0  0  0  0  0  0  0  0  0  0
   -3.3249    0.2581    1.2872 H   0  0  0  0  0  0  0  0  0  0  0  0
   -2.0368   -0.7739    0.8025 H   0  0  0  0  0  0  0  0  0  0  0  0
   -1.6748   -0.2374    3.1503 H   0  0  0  0  0  0  0  0  0  0  0  0
   -0.3895    0.4776    2.2765 H   0  0  0  0  0  0  0  0  0  0  0  0
   -1.2305    2.1551    3.8443 H   0  0  0  0  0  0  0  0  0  0  0  0
   -1.5521    2.7325    2.2484 H   0  0  0  0  0  0  0  0  0  0  0  0
   -3.5729    3.0196    3.6459 H   0  0  0  0  0  0  0  0  0  0  0  0
   -3.9199    1.9235    2.3415 H   0  0  0  0  0  0  0  0  0  0  0  0
   -4.8076    0.9380    4.2579 H   0  0  0  0  0  0  0  0  0  0  0  0
   -3.4922   -0.0810    3.8959 H   0  0  0  0  0  0  0  0  0  0  0  0
   -5.5505    2.4766    6.9803 H   0  0  0  0  0  0  0  0  0  0  0  0
   -5.7127    1.2778    5.7844 H   0  0  0  0  0  0  0  0  0  0  0  0
   -6.7025    0.2671    7.6360 H   0  0  0  0  0  0  0  0  0  0  0  0
   -5.2216   -0.5968    7.3650 H   0  0  0  0  0  0  0  0  0  0  0  0
   -5.4594   -0.0798    9.7767 H   0  0  0  0  0  0  0  0  0  0  0  0
   -4.0481    0.7033    9.1570 H   0  0  0  0  0  0  0  0  0  0  0  0
   -5.2693    2.3476   10.4901 H   0  0  0  0  0  0  0  0  0  0  0  0
   -5.2928    2.8922    8.8752 H   0  0  0  0  0  0  0  0  0  0  0  0
   -7.5882    3.0984    9.6324 H   0  0  0  0  0  0  0  0  0  0  0  0
   -7.6044    1.8534    8.4848 H   0  0  0  0  0  0  0  0  0  0  0  0
   -8.8524    1.1462   10.5153 H   0  0  0  0  0  0  0  0  0  0  0  0
   -7.5155    0.0793   10.1981 H   0  0  0  0  0  0  0  0  0  0  0  0
   -7.5978    0.5661   12.5637 H   0  0  0  0  0  0  0  0  0  0  0  0
   -6.0941    1.1859   11.9358 H   0  0  0  0  0  0  0  0  0  0  0  0
  -11.1452    4.3482   12.9524 H   0  0  0  0  0  0  0  0  0  0  0  0
   -9.8948    3.1539   12.6787 H   0  0  0  0  0  0  0  0  0  0  0  0
   -7.4101    5.3454   12.9809 H   0  0  0  0  0  0  0  0  0  0  0  0
   -7.4134    5.7387   11.2853 H   0  0  0  0  0  0  0  0  0  0  0  0
   -9.7239    4.9492   10.9524 H   0  0  0  0  0  0  0  0  0  0  0  0
   -8.6953    4.0862   14.3290 H   0  0  0  0  0  0  0  0  0  0  0  0
   -9.6043    6.5550   13.2828 H   0  0  0  0  0  0  0  0  0  0  0  0
  1 28  1  0  0  0  0
  1 29  1  0  0  0  0
  1 30  1  0  0  0  0
  2  1  1  0  0  0  0
  2 31  1  0  0  0  0
  2 32  1  0  0  0  0
  3  2  1  0  0  0  0
  3 33  1  0  0  0  0
  3 34  1  0  0  0  0
  4  3  1  0  0  0  0
  4 35  1  0  0  0  0
  4 36  1  0  0  0  0
  5  4  1  0  0  0  0
  5 37  1  0  0  0  0
  5 38  1  0  0  0  0
  6  5  1  0  0  0  0
  6 39  1  0  0  0  0
  6 40  1  0  0  0  0
  7  6  1  0  0  0  0
  7 41  1  0  0  0  0
  7 42  1  0  0  0  0
  8  7  1  0  0  0  0
  8 43  1  0  0  0  0
  8 44  1  0  0  0  0
  9  8  1  0  0  0  0
 10  9  2  0  0  0  0
 11 10  1  0  0  0  0
 11 45  1  0  0  0  0
 11 46  1  0  0  0  0
 12 11  1  0  0  0  0
 12 47  1  0  0  0  0
 12 48  1  0  0  0  0
 13 12  1  0  0  0  0
 13 49  1  0  0  0  0
 13 50  1  0  0  0  0
 14 13  1  0  0  0  0
 14 51  1  0  0  0  0
 14 52  1  0  0  0  0
 15 14  1  0  0  0  0
 15 53  1  0  0  0  0
 15 54  1  0  0  0  0
 16 15  1  0  0  0  0
 16 55  1  0  0  0  0
 16 56  1  0  0  0  0
 17 16  1  0  0  0  0
 17 57  1  0  0  0  0
 17 58  1  0  0  0  0
 18 59  1  0  0  0  0
 18 60  1  0  0  0  0
 19 61  1  0  0  0  0
 19 62  1  0  0  0  0
 20 18  1  0  0  0  0
 20 19  1  0  0  0  0
 20 63  1  0  0  0  0
 21 17  1  0  0  0  0
 22 18  1  0  0  0  0
 22 64  1  0  0  0  0
 23 20  1  0  0  0  0
 23 65  1  0  0  0  0
 24 21  2  0  0  0  0
 25 19  1  0  0  0  0
 25 21  1  0  0  0  0
 26  9  1  0  0  0  0
 27 10  1  0  0  0  0
M  END
>  <DRUGBANK_ID>
DB13171

>  <COMMON_NAME>
Glyceryl 1-oleate

>  <CAS_NUMBER>
111-03-5

>  <UNII>
D3AEF6S35P

>  <SYNONYMS>
1-(9Z-octadecenoyl)-rac-glycerol; 1-(9Z)-octadecenoylglycerol; 1-Glyceryl oleate; 1-monoolein; 1-monooleoyl-rac-glycerol; 1-monooleoylglycerol; 1-oleoyl-rac-glycerol; 1-oleoylglycerol; 2,3-dihydroxypropyl oleate; 9-Octadecenoic acid, 2,3-dihydroxypropyl ester; Glyceryl monooleate; Glyceryl oleate; MG (18:1/0:0/0:0); Monoolein

$$$$
