NHB
 OpenBabel10282417133D

 41 43  0  0  0  0  0  0  0  0999 V2000
    0.6876    1.1933    0.0938 C   0  0  0  0  0  0  0  0  0  0  0  0
    1.4357    0.0289    0.0230 C   0  0  0  0  0  0  0  0  0  0  0  0
    0.7702   -1.1888    0.0073 C   0  0  0  0  0  0  0  0  0  0  0  0
   -0.6183   -1.1874    0.0437 C   0  0  0  0  0  0  0  0  0  0  0  0
   -1.3746   -0.0710    0.1181 N   0  0  0  0  0  0  0  0  0  0  0  0
   -0.7042    1.0962    0.1762 C   0  0  0  0  0  0  0  0  0  0  0  0
   -1.4992    2.3031    0.0458 C   0  0  0  0  0  0  0  0  0  0  0  0
   -2.6701    2.8729    1.1696 S   0  0  0  0  0  0  0  0  0  0  0  0
   -1.3504    3.1585   -1.0069 C   0  0  0  0  0  0  0  0  0  0  0  0
   -2.1768    4.2706   -0.8902 C   0  0  0  0  0  0  0  0  0  0  0  0
   -2.9734    4.3095    0.2356 C   0  0  0  0  0  0  0  0  0  0  0  0
   -4.1643    5.5138    0.8804 S   0  0  0  0  0  0  0  0  0  0  0  0
   -5.4185    4.8085    0.9748 O   0  0  0  0  0  0  0  0  0  0  0  0
   -3.5140    6.0248    2.0829 O   0  0  0  0  0  0  0  0  0  0  0  0
   -4.4149    6.8110   -0.2165 N   0  0  0  0  0  0  0  0  0  0  0  0
   -3.5466    7.1145   -1.3427 C   0  0  0  0  0  0  0  0  0  0  0  0
   -5.2473    7.9199    0.1404 C   0  0  0  0  0  0  0  0  0  0  0  0
   -5.1464    8.5241    1.3787 C   0  0  0  0  0  0  0  0  0  0  0  0
   -5.7776    9.7421    1.6182 C   0  0  0  0  0  0  0  0  0  0  0  0
   -5.9536    8.5815   -0.8760 C   0  0  0  0  0  0  0  0  0  0  0  0
   -6.5899    9.8007   -0.6320 C   0  0  0  0  0  0  0  0  0  0  0  0
   -6.5741   10.3642    0.6526 C   0  0  0  0  0  0  0  0  0  0  0  0
   -7.4599   11.5480    0.8938 C   0  0  0  0  0  0  0  0  0  0  0  0
   -8.1061   12.0020   -0.0532 O   0  0  0  0  0  0  0  0  0  0  0  0
   -7.6539   12.1050    2.1247 N   0  0  0  0  0  0  0  0  0  0  0  0
   -6.9916   11.8194    3.3175 O   0  0  0  0  0  0  0  0  0  0  0  0
    1.1777    2.1625    0.0575 H   0  0  0  0  0  0  0  0  0  0  0  0
    2.5194    0.0762   -0.0231 H   0  0  0  0  0  0  0  0  0  0  0  0
    1.3210   -2.1210   -0.0310 H   0  0  0  0  0  0  0  0  0  0  0  0
   -1.1767   -2.1180    0.0148 H   0  0  0  0  0  0  0  0  0  0  0  0
   -0.6761    3.0194   -1.8411 H   0  0  0  0  0  0  0  0  0  0  0  0
   -2.0843    4.9569   -1.6960 H   0  0  0  0  0  0  0  0  0  0  0  0
   -4.1245    7.1246   -2.2717 H   0  0  0  0  0  0  0  0  0  0  0  0
   -2.9502    8.0205   -1.2293 H   0  0  0  0  0  0  0  0  0  0  0  0
   -2.8314    6.3684   -1.5030 H   0  0  0  0  0  0  0  0  0  0  0  0
   -4.5463    8.1057    2.1788 H   0  0  0  0  0  0  0  0  0  0  0  0
   -5.5449   10.1682    2.5804 H   0  0  0  0  0  0  0  0  0  0  0  0
   -6.0022    8.1621   -1.8788 H   0  0  0  0  0  0  0  0  0  0  0  0
   -7.0872   10.3049   -1.4611 H   0  0  0  0  0  0  0  0  0  0  0  0
   -8.3275   12.8645    2.1716 H   0  0  0  0  0  0  0  0  0  0  0  0
   -7.0011   10.8502    3.3687 H   0  0  0  0  0  0  0  0  0  0  0  0
  1  2  2  0  0  0  0
  1  6  1  0  0  0  0
  1 27  1  0  0  0  0
  2  3  1  0  0  0  0
  2 28  1  0  0  0  0
  3  4  2  0  0  0  0
  3 29  1  0  0  0  0
  4  5  1  0  0  0  0
  4 30  1  0  0  0  0
  5  6  2  0  0  0  0
  6  7  1  0  0  0  0
  7  8  1  0  0  0  0
  7  9  2  0  0  0  0
  8 11  1  0  0  0  0
  9 10  1  0  0  0  0
  9 31  1  0  0  0  0
 10 11  2  0  0  0  0
 10 32  1  0  0  0  0
 11 12  1  0  0  0  0
 12 13  2  0  0  0  0
 12 14  2  0  0  0  0
 12 15  1  0  0  0  0
 15 16  1  0  0  0  0
 15 17  1  0  0  0  0
 16 33  1  0  0  0  0
 16 34  1  0  0  0  0
 16 35  1  0  0  0  0
 17 18  2  0  0  0  0
 17 20  1  0  0  0  0
 18 19  1  0  0  0  0
 18 36  1  0  0  0  0
 19 22  2  0  0  0  0
 19 37  1  0  0  0  0
 20 21  2  0  0  0  0
 20 38  1  0  0  0  0
 21 22  1  0  0  0  0
 21 39  1  0  0  0  0
 22 23  1  0  0  0  0
 23 24  2  0  0  0  0
 23 25  1  0  0  0  0
 25 26  1  0  0  0  0
 25 40  1  0  0  0  0
 26 41  1  0  0  0  0
M  END
>  <DRUGBANK_ID>
DB02917

>  <SECONDARY_ACCESSION_NUMBERS>
EXPT02343

>  <COMMON_NAME>
N-Hydroxy-4-(Methyl{[5-(2-Pyridinyl)-2-Thienyl]Sulfonyl}Amino)Benzamide

$$$$
