
 OpenBabel10282417213D

 37 38  0  0  0  0  0  0  0  0999 V2000
    1.4696   -0.2391    0.0385 C   0  0  0  0  0  0  0  0  0  0  0  0
    0.6865   -1.3852    0.0732 C   0  0  0  0  0  0  0  0  0  0  0  0
    0.8990    1.0302    0.0360 C   0  0  0  0  0  0  0  0  0  0  0  0
   -0.6953   -1.2605    0.1030 C   0  0  0  0  0  0  0  0  0  0  0  0
   -0.4965    1.1505    0.0823 C   0  0  0  0  0  0  0  0  0  0  0  0
   -4.8743   -0.9241    0.0828 C   0  0  0  0  0  0  0  0  0  0  0  0
   -4.3443    0.2387   -1.9548 C   0  0  0  0  0  0  0  0  0  0  0  0
   -3.6194   -0.3645    0.7954 C   0  0  0  0  0  0  0  0  0  0  0  0
   -3.0139    0.7632   -1.3269 C   0  0  0  0  0  0  0  0  0  0  0  0
   -6.2326    1.0736   -0.5154 C   0  0  0  0  0  0  0  0  0  0  0  0
   -4.7262    3.1190   -0.8027 C   0  0  0  0  0  0  0  0  0  0  0  0
   -1.2769   -0.0123    0.0725 C   0  0  0  0  0  0  0  0  0  0  0  0
   -5.5653    2.2932    0.1720 C   0  0  3  0  0  0  0  0  0  0  0  0
   -5.4296   -0.0717   -0.9970 N   0  0  0  0  0  0  0  0  0  0  0  0
   -2.6259   -0.0701   -0.2324 N   0  0  0  0  0  0  0  0  0  0  0  0
   -5.5167    3.8665   -1.7068 O   0  0  0  0  0  0  0  0  0  0  0  0
   -6.5558    3.1678    0.7214 O   0  0  0  0  0  0  0  0  0  0  0  0
    2.5526   -0.3485    0.0027 H   0  0  0  0  0  0  0  0  0  0  0  0
    1.1013   -2.3780    0.0280 H   0  0  0  0  0  0  0  0  0  0  0  0
    1.5228    1.9153   -0.0372 H   0  0  0  0  0  0  0  0  0  0  0  0
   -1.3385   -2.1296    0.0309 H   0  0  0  0  0  0  0  0  0  0  0  0
   -0.9292    2.1484    0.0777 H   0  0  0  0  0  0  0  0  0  0  0  0
   -5.6542   -1.1997    0.7990 H   0  0  0  0  0  0  0  0  0  0  0  0
   -4.5634   -1.8680   -0.3910 H   0  0  0  0  0  0  0  0  0  0  0  0
   -4.0999   -0.6948   -2.4851 H   0  0  0  0  0  0  0  0  0  0  0  0
   -4.7206    0.8955   -2.7505 H   0  0  0  0  0  0  0  0  0  0  0  0
   -3.8517    0.5225    1.3862 H   0  0  0  0  0  0  0  0  0  0  0  0
   -3.2480   -1.0941    1.5204 H   0  0  0  0  0  0  0  0  0  0  0  0
   -3.0088    1.7084   -0.8050 H   0  0  0  0  0  0  0  0  0  0  0  0
   -2.2771    0.9194   -2.1272 H   0  0  0  0  0  0  0  0  0  0  0  0
   -6.8078    1.4596   -1.3682 H   0  0  0  0  0  0  0  0  0  0  0  0
   -7.0146    0.6847    0.1523 H   0  0  0  0  0  0  0  0  0  0  0  0
   -3.9436    3.7014   -0.2991 H   0  0  0  0  0  0  0  0  0  0  0  0
   -4.2378    2.5136   -1.5249 H   0  0  0  0  0  0  0  0  0  0  0  0
   -4.9862    1.9586    1.0292 H   0  0  0  0  0  0  0  0  0  0  0  0
   -5.6790    3.2376   -2.4437 H   0  0  0  0  0  0  0  0  0  0  0  0
   -6.6592    3.8811    0.0592 H   0  0  0  0  0  0  0  0  0  0  0  0
  1 18  1  0  0  0  0
  2  1  2  0  0  0  0
  2 19  1  0  0  0  0
  3  1  1  0  0  0  0
  3 20  1  0  0  0  0
  4  2  1  0  0  0  0
  4 21  1  0  0  0  0
  5  3  2  0  0  0  0
  5 22  1  0  0  0  0
  6 23  1  0  0  0  0
  6 24  1  0  0  0  0
  7 25  1  0  0  0  0
  7 26  1  0  0  0  0
  8  6  1  0  0  0  0
  8 27  1  0  0  0  0
  8 28  1  0  0  0  0
  9  7  1  0  0  0  0
  9 29  1  0  0  0  0
  9 30  1  0  0  0  0
 10 31  1  0  0  0  0
 10 32  1  0  0  0  0
 11 33  1  0  0  0  0
 11 34  1  0  0  0  0
 12  4  2  0  0  0  0
 12  5  1  0  0  0  0
 13 10  1  0  0  0  0
 13 11  1  0  0  0  0
 13 35  1  0  0  0  0
 14  6  1  0  0  0  0
 14  7  1  0  0  0  0
 14 10  1  0  0  0  0
 15  8  1  0  0  0  0
 15  9  1  0  0  0  0
 15 12  1  0  0  0  0
 16 11  1  0  0  0  0
 16 36  1  0  0  0  0
 17 13  1  0  0  0  0
 17 37  1  0  0  0  0
M  END
>  <DRUGBANK_ID>
DB13785

>  <COMMON_NAME>
Dropropizine

>  <CAS_NUMBER>
17692-31-8

>  <UNII>
U0K8WHL37U

>  <SYNONYMS>
Dropropizine

$$$$
