
 OpenBabel10282417243D

 53 56  0  0  0  0  0  0  0  0999 V2000
    2.2055    0.0552   -0.0505 C   0  0  0  0  0  0  0  0  0  0  0  0
    0.7450   -0.1586   -0.1262 C   0  0  0  0  0  0  0  0  0  0  0  0
   -0.0333    0.9541   -0.0793 O   0  0  0  0  0  0  0  0  0  0  0  0
   -1.3666    0.5896   -0.0695 N   0  0  0  0  0  0  0  0  0  0  0  0
   -1.3939   -0.7517   -0.1025 C   0  0  0  0  0  0  0  0  0  0  0  0
   -0.0628   -1.2815   -0.1311 C   0  0  0  0  0  0  0  0  0  0  0  0
    0.3691   -2.7104   -0.0201 C   0  0  0  0  0  0  0  0  0  0  0  0
   -0.1033   -3.4547    1.1270 O   0  0  0  0  0  0  0  0  0  0  0  0
    0.3183   -2.9913    2.3435 C   0  0  0  0  0  0  0  0  0  0  0  0
    0.1310   -1.6961    2.7207 C   0  0  0  0  0  0  0  0  0  0  0  0
    0.4878   -1.2891    3.9747 C   0  0  0  0  0  0  0  0  0  0  0  0
    1.1005   -2.1326    4.8664 C   0  0  0  0  0  0  0  0  0  0  0  0
    1.2102   -3.4304    4.5191 N   0  0  0  0  0  0  0  0  0  0  0  0
    0.7815   -3.8710    3.2456 N   0  0  0  0  0  0  0  0  0  0  0  0
    1.7200   -1.6623    6.1582 C   0  0  0  0  0  0  0  0  0  0  0  0
    2.1744   -2.4821    6.9651 O   0  0  0  0  0  0  0  0  0  0  0  0
    1.8373   -0.3103    6.4844 N   0  0  0  0  0  0  0  0  0  0  0  0
    1.5842    0.8490    5.6398 C   0  0  0  0  0  0  0  0  0  0  0  0
    2.5335    0.8615    4.4228 C   0  0  0  0  0  0  0  0  0  0  0  0
    2.1797    1.9982    3.4865 C   0  0  0  0  0  0  0  0  0  0  0  0
    2.2520    3.2271    4.1942 O   0  0  0  0  0  0  0  0  0  0  0  0
    1.3277    3.2868    5.2806 C   0  0  0  0  0  0  0  0  0  0  0  0
    1.6122    2.2035    6.3278 C   0  0  0  0  0  0  0  0  0  0  0  0
   -2.6401   -1.4942   -0.0104 C   0  0  0  0  0  0  0  0  0  0  0  0
   -2.9192   -2.3629    1.0473 C   0  0  0  0  0  0  0  0  0  0  0  0
   -4.0651   -3.1482    1.0333 C   0  0  0  0  0  0  0  0  0  0  0  0
   -4.9453   -3.0072   -0.0270 C   0  0  0  0  0  0  0  0  0  0  0  0
   -6.2135   -3.8010   -0.0658 C   0  0  0  0  0  0  0  0  0  0  0  0
   -4.7221   -2.1466   -1.0512 N   0  0  0  0  0  0  0  0  0  0  0  0
   -3.5816   -1.4131   -1.0204 C   0  0  0  0  0  0  0  0  0  0  0  0
    2.5595    0.6260   -0.9122 H   0  0  0  0  0  0  0  0  0  0  0  0
    2.4751    0.5973    0.8603 H   0  0  0  0  0  0  0  0  0  0  0  0
    2.7428   -0.8974   -0.0277 H   0  0  0  0  0  0  0  0  0  0  0  0
   -0.0165   -3.2346   -0.9009 H   0  0  0  0  0  0  0  0  0  0  0  0
    1.4597   -2.7983   -0.0514 H   0  0  0  0  0  0  0  0  0  0  0  0
   -0.3083   -0.9141    2.1292 H   0  0  0  0  0  0  0  0  0  0  0  0
    0.2955   -0.2492    4.0860 H   0  0  0  0  0  0  0  0  0  0  0  0
    2.3091   -0.1581    7.3702 H   0  0  0  0  0  0  0  0  0  0  0  0
    0.5207    0.7854    5.4052 H   0  0  0  0  0  0  0  0  0  0  0  0
    3.5607    0.9697    4.7866 H   0  0  0  0  0  0  0  0  0  0  0  0
    2.5512   -0.0655    3.8444 H   0  0  0  0  0  0  0  0  0  0  0  0
    2.8961    2.0283    2.6598 H   0  0  0  0  0  0  0  0  0  0  0  0
    1.1816    1.8718    3.0447 H   0  0  0  0  0  0  0  0  0  0  0  0
    0.3085    3.2021    4.8788 H   0  0  0  0  0  0  0  0  0  0  0  0
    1.4219    4.2739    5.7370 H   0  0  0  0  0  0  0  0  0  0  0  0
    0.8443    2.2432    7.1101 H   0  0  0  0  0  0  0  0  0  0  0  0
    2.5876    2.3557    6.7937 H   0  0  0  0  0  0  0  0  0  0  0  0
   -2.2638   -2.4655    1.9006 H   0  0  0  0  0  0  0  0  0  0  0  0
   -4.2521   -3.8517    1.8394 H   0  0  0  0  0  0  0  0  0  0  0  0
   -7.0693   -3.1200   -0.0677 H   0  0  0  0  0  0  0  0  0  0  0  0
   -6.2379   -4.4188   -0.9675 H   0  0  0  0  0  0  0  0  0  0  0  0
   -6.3046   -4.4597    0.8044 H   0  0  0  0  0  0  0  0  0  0  0  0
   -3.4355   -0.7531   -1.8709 H   0  0  0  0  0  0  0  0  0  0  0  0
  1  2  1  0  0  0  0
  1 31  1  0  0  0  0
  1 32  1  0  0  0  0
  1 33  1  0  0  0  0
  2  3  1  0  0  0  0
  2  6  2  0  0  0  0
  3  4  1  0  0  0  0
  4  5  2  0  0  0  0
  5  6  1  0  0  0  0
  5 24  1  0  0  0  0
  6  7  1  0  0  0  0
  7  8  1  0  0  0  0
  7 34  1  0  0  0  0
  7 35  1  0  0  0  0
  8  9  1  0  0  0  0
  9 10  2  0  0  0  0
  9 14  1  0  0  0  0
 10 11  1  0  0  0  0
 10 36  1  0  0  0  0
 11 12  2  0  0  0  0
 11 37  1  0  0  0  0
 12 13  1  0  0  0  0
 12 15  1  0  0  0  0
 13 14  2  0  0  0  0
 15 16  2  0  0  0  0
 15 17  1  0  0  0  0
 17 18  1  0  0  0  0
 17 38  1  0  0  0  0
 18 19  1  0  0  0  0
 18 23  1  0  0  0  0
 18 39  1  0  0  0  0
 19 20  1  0  0  0  0
 19 40  1  0  0  0  0
 19 41  1  0  0  0  0
 20 21  1  0  0  0  0
 20 42  1  0  0  0  0
 20 43  1  0  0  0  0
 21 22  1  0  0  0  0
 22 23  1  0  0  0  0
 22 44  1  0  0  0  0
 22 45  1  0  0  0  0
 23 46  1  0  0  0  0
 23 47  1  0  0  0  0
 24 25  2  0  0  0  0
 24 30  1  0  0  0  0
 25 26  1  0  0  0  0
 25 48  1  0  0  0  0
 26 27  2  0  0  0  0
 26 49  1  0  0  0  0
 27 28  1  0  0  0  0
 27 29  1  0  0  0  0
 28 50  1  0  0  0  0
 28 51  1  0  0  0  0
 28 52  1  0  0  0  0
 29 30  2  0  0  0  0
 30 53  1  0  0  0  0
M  END
>  <DRUGBANK_ID>
DB18708

>  <COMMON_NAME>
Alogabat

>  <CAS_NUMBER>
2230009-48-8

>  <UNII>
0HPA4GK3UH

>  <SYNONYMS>
3-pyridazinecarboxamide, 6-((5-methyl-3-(6-methyl-3-pyridinyl)-4-isoxazolyl)methoxy)-n-(tetrahydro-2h-pyran-4-yl)-; Alogabat

$$$$
