
 OpenBabel10282417153D

 69 71  0  0  0  0  0  0  0  0999 V2000
    0.9983    0.0318   -0.0709 C   0  0  0  0  0  0  0  0  0  0  0  0
    0.5811   -0.4293    1.3071 C   0  0  0  0  0  0  0  0  0  0  0  0
   -0.1217    0.2859    2.0237 O   0  0  0  0  0  0  0  0  0  0  0  0
    0.9119   -1.7071    1.7115 N   0  0  0  0  0  0  0  0  0  0  0  0
    1.7810   -2.6218    1.0703 C   0  0  0  0  0  0  0  0  0  0  0  0
    2.9591   -2.1701    0.4732 C   0  0  0  0  0  0  0  0  0  0  0  0
    3.8006   -3.0173   -0.2308 C   0  0  0  0  0  0  0  0  0  0  0  0
    3.5276   -4.3530   -0.2725 C   0  0  0  0  0  0  0  0  0  0  0  0
    2.4380   -4.8784    0.3874 C   0  0  0  0  0  0  0  0  0  0  0  0
    1.5160   -4.0019    1.0434 C   0  0  0  0  0  0  0  0  0  0  0  0
    2.3589   -6.2528    0.1018 N   0  0  0  0  0  0  0  0  0  0  0  0
    3.1253   -7.1769    1.0061 C   0  0  0  0  0  0  0  0  0  0  0  0
    2.8494   -8.6297    0.5003 C   0  0  0  0  0  0  0  0  0  0  0  0
    1.4249   -9.0581    0.3979 N   0  0  0  0  0  0  0  0  0  0  0  0
    0.7173   -8.0816   -0.4551 C   0  0  0  0  0  0  0  0  0  0  0  0
    1.0013   -6.6536   -0.0182 C   0  0  0  0  0  0  0  0  0  0  0  0
    0.7849   -9.3513    1.6975 C   0  0  0  0  0  0  0  0  0  0  0  0
    0.5417   -8.2277    2.7384 C   0  0  0  0  0  0  0  0  0  0  0  0
   -0.4761   -7.1250    2.3741 C   0  0  0  0  0  0  0  0  0  0  0  0
   -1.7876   -7.6652    1.9795 C   0  0  0  0  0  0  0  0  0  0  0  0
   -2.4070   -7.9826    3.2178 N   0  0  0  0  0  0  0  0  0  0  0  0
   -3.9464   -8.5255    3.0047 S   0  0  0  0  0  0  0  0  0  0  0  0
   -3.8448   -9.6180    2.0821 O   0  0  0  0  0  0  0  0  0  0  0  0
   -4.4492   -8.7008    4.3598 O   0  0  0  0  0  0  0  0  0  0  0  0
   -4.7251   -7.1136    2.1984 C   0  0  0  0  0  0  0  0  0  0  0  0
   -4.6304   -5.7998    2.9940 C   0  0  0  0  0  0  0  0  0  0  0  0
   -5.9409   -5.0287    2.8068 C   0  0  0  0  0  0  0  0  0  0  0  0
   -5.9224   -3.6991    3.5501 C   0  0  0  0  0  0  0  0  0  0  0  0
   -4.7519   -2.8282    3.1099 C   0  0  0  0  0  0  0  0  0  0  0  0
   -3.4343   -3.5597    3.2913 C   0  0  0  0  0  0  0  0  0  0  0  0
   -3.4496   -4.8997    2.5701 C   0  0  0  0  0  0  0  0  0  0  0  0
    0.5496    1.0015   -0.2988 H   0  0  0  0  0  0  0  0  0  0  0  0
    0.6652   -0.6916   -0.8210 H   0  0  0  0  0  0  0  0  0  0  0  0
    2.0731    0.1859   -0.1327 H   0  0  0  0  0  0  0  0  0  0  0  0
    0.4381   -1.9948    2.5617 H   0  0  0  0  0  0  0  0  0  0  0  0
    3.2874   -1.1466    0.5701 H   0  0  0  0  0  0  0  0  0  0  0  0
    4.6797   -2.6626   -0.7452 H   0  0  0  0  0  0  0  0  0  0  0  0
    4.1162   -5.0426   -0.8687 H   0  0  0  0  0  0  0  0  0  0  0  0
    0.5618   -4.3414    1.4519 H   0  0  0  0  0  0  0  0  0  0  0  0
    4.1944   -6.9567    0.9881 H   0  0  0  0  0  0  0  0  0  0  0  0
    2.8564   -7.0703    2.0636 H   0  0  0  0  0  0  0  0  0  0  0  0
    3.2394   -8.6473   -0.5262 H   0  0  0  0  0  0  0  0  0  0  0  0
    3.4207   -9.3762    1.0576 H   0  0  0  0  0  0  0  0  0  0  0  0
    1.0242   -8.1817   -1.5011 H   0  0  0  0  0  0  0  0  0  0  0  0
   -0.3610   -8.2868   -0.4468 H   0  0  0  0  0  0  0  0  0  0  0  0
    0.9632   -6.6618    1.0326 H   0  0  0  0  0  0  0  0  0  0  0  0
    0.2797   -5.9271   -0.4122 H   0  0  0  0  0  0  0  0  0  0  0  0
   -0.1678   -9.8660    1.5142 H   0  0  0  0  0  0  0  0  0  0  0  0
    1.3883  -10.1294    2.1866 H   0  0  0  0  0  0  0  0  0  0  0  0
    0.2156   -8.6925    3.6790 H   0  0  0  0  0  0  0  0  0  0  0  0
    1.4911   -7.7964    3.0452 H   0  0  0  0  0  0  0  0  0  0  0  0
   -0.3728   -6.2597    3.0391 H   0  0  0  0  0  0  0  0  0  0  0  0
   -0.4759   -6.5888    1.4499 H   0  0  0  0  0  0  0  0  0  0  0  0
   -2.3086   -6.8938    1.3975 H   0  0  0  0  0  0  0  0  0  0  0  0
   -1.7026   -8.5022    1.2874 H   0  0  0  0  0  0  0  0  0  0  0  0
   -1.8609   -8.6391    3.7743 H   0  0  0  0  0  0  0  0  0  0  0  0
   -4.3109   -7.0003    1.1881 H   0  0  0  0  0  0  0  0  0  0  0  0
   -5.7567   -7.4435    2.0640 H   0  0  0  0  0  0  0  0  0  0  0  0
   -4.5132   -6.0261    4.0611 H   0  0  0  0  0  0  0  0  0  0  0  0
   -6.1122   -4.8487    1.7372 H   0  0  0  0  0  0  0  0  0  0  0  0
   -6.7777   -5.6364    3.1695 H   0  0  0  0  0  0  0  0  0  0  0  0
   -6.8632   -3.1698    3.3722 H   0  0  0  0  0  0  0  0  0  0  0  0
   -5.8514   -3.8893    4.6281 H   0  0  0  0  0  0  0  0  0  0  0  0
   -4.8729   -2.5548    2.0544 H   0  0  0  0  0  0  0  0  0  0  0  0
   -4.7380   -1.8992    3.6882 H   0  0  0  0  0  0  0  0  0  0  0  0
   -2.6071   -2.9485    2.9108 H   0  0  0  0  0  0  0  0  0  0  0  0
   -3.2422   -3.7286    4.3581 H   0  0  0  0  0  0  0  0  0  0  0  0
   -2.4976   -5.3675    2.8073 H   0  0  0  0  0  0  0  0  0  0  0  0
   -3.4747   -4.7281    1.4859 H   0  0  0  0  0  0  0  0  0  0  0  0
  1  2  1  0  0  0  0
  1 32  1  0  0  0  0
  1 33  1  0  0  0  0
  1 34  1  0  0  0  0
  2  3  2  0  0  0  0
  2  4  1  0  0  0  0
  4  5  1  0  0  0  0
  4 35  1  0  0  0  0
  5  6  2  0  0  0  0
  5 10  1  0  0  0  0
  6  7  1  0  0  0  0
  6 36  1  0  0  0  0
  7  8  2  0  0  0  0
  7 37  1  0  0  0  0
  8  9  1  0  0  0  0
  8 38  1  0  0  0  0
  9 10  2  0  0  0  0
  9 11  1  0  0  0  0
 10 39  1  0  0  0  0
 11 12  1  0  0  0  0
 11 16  1  0  0  0  0
 12 13  1  0  0  0  0
 12 40  1  0  0  0  0
 12 41  1  0  0  0  0
 13 14  1  0  0  0  0
 13 42  1  0  0  0  0
 13 43  1  0  0  0  0
 14 15  1  0  0  0  0
 14 17  1  0  0  0  0
 15 16  1  0  0  0  0
 15 44  1  0  0  0  0
 15 45  1  0  0  0  0
 16 46  1  0  0  0  0
 16 47  1  0  0  0  0
 17 18  1  0  0  0  0
 17 48  1  0  0  0  0
 17 49  1  0  0  0  0
 18 19  1  0  0  0  0
 18 50  1  0  0  0  0
 18 51  1  0  0  0  0
 19 20  1  0  0  0  0
 19 52  1  0  0  0  0
 19 53  1  0  0  0  0
 20 21  1  0  0  0  0
 20 54  1  0  0  0  0
 20 55  1  0  0  0  0
 21 22  1  0  0  0  0
 21 56  1  0  0  0  0
 22 23  2  0  0  0  0
 22 24  2  0  0  0  0
 22 25  1  0  0  0  0
 25 26  1  0  0  0  0
 25 57  1  0  0  0  0
 25 58  1  0  0  0  0
 26 27  1  0  0  0  0
 26 31  1  0  0  0  0
 26 59  1  0  0  0  0
 27 28  1  0  0  0  0
 27 60  1  0  0  0  0
 27 61  1  0  0  0  0
 28 29  1  0  0  0  0
 28 62  1  0  0  0  0
 28 63  1  0  0  0  0
 29 30  1  0  0  0  0
 29 64  1  0  0  0  0
 29 65  1  0  0  0  0
 30 31  1  0  0  0  0
 30 66  1  0  0  0  0
 30 67  1  0  0  0  0
 31 68  1  0  0  0  0
 31 69  1  0  0  0  0
M  END
>  <DRUGBANK_ID>
DB05562

>  <COMMON_NAME>
Naluzotan

>  <CAS_NUMBER>
740873-06-7

>  <UNII>
LQ54E5B4EW

>  <SYNONYMS>
Naluzotan

$$$$
