
 OpenBabel10282417193D

 63 67  0  0  1  0  0  0  0  0999 V2000
    2.0929    1.0065    0.0056 C   0  0  0  0  0  0  0  0  0  0  0  0
    0.8298    1.5542    0.0890 C   0  0  0  0  0  0  0  0  0  0  0  0
   -0.2127    0.6331    0.2640 C   0  0  0  0  0  0  0  0  0  0  0  0
   -0.0452   -0.7240    0.4789 C   0  0  0  0  0  0  0  0  0  0  0  0
    1.2719   -1.2649    0.4652 C   0  0  0  0  0  0  0  0  0  0  0  0
    2.2788   -0.3570    0.1183 C   0  0  0  0  0  0  0  0  0  0  0  0
    1.4944   -2.5842    0.6879 O   0  0  0  0  0  0  0  0  0  0  0  0
    2.5911   -3.3897    0.2030 C   0  0  2  0  0  0  0  0  0  0  0  0
    3.7337   -3.4026    1.1727 C   0  0  0  0  0  0  0  0  0  0  0  0
    4.6963   -2.4098    0.5783 C   0  0  0  0  0  0  0  0  0  0  0  0
    4.4711   -2.3771   -0.8437 O   0  0  0  0  0  0  0  0  0  0  0  0
    3.2424   -3.0682   -1.1397 C   0  0  0  0  0  0  0  0  0  0  0  0
   -1.3906   -1.2089    0.4308 C   0  0  0  0  0  0  0  0  0  0  0  0
   -2.2797   -0.2098    0.2999 N   0  0  0  0  0  0  0  0  0  0  0  0
   -1.5317    0.9450    0.1820 O   0  0  0  0  0  0  0  0  0  0  0  0
   -1.9368   -2.4348    0.2611 O   0  0  0  0  0  0  0  0  0  0  0  0
   -1.0560   -3.5125   -0.0682 C   0  0  0  0  0  0  0  0  0  0  0  0
   -0.2181   -3.4713   -1.4205 C   0  0  0  0  0  0  0  0  0  0  0  0
   -0.2384   -2.1912   -2.2631 C   0  0  0  0  0  0  0  0  0  0  0  0
   -1.6319   -1.9652   -2.7738 C   0  0  0  0  0  0  0  0  0  0  0  0
   -2.0235   -3.0488   -3.6725 N   0  0  0  0  0  0  0  0  0  0  0  0
   -1.7927   -4.3720   -3.0864 C   0  0  0  0  0  0  0  0  0  0  0  0
   -0.4703   -4.6185   -2.4091 C   0  0  0  0  0  0  0  0  0  0  0  0
   -3.4460   -2.8341   -4.0494 C   0  0  0  0  0  0  0  0  0  0  0  0
   -4.5556   -2.8620   -2.9219 C   0  0  0  0  0  0  0  0  0  0  0  0
   -4.5956   -4.1946   -2.1561 C   0  0  0  0  0  0  0  0  0  0  0  0
   -5.7418   -4.3481   -1.2031 C   0  0  0  0  0  0  0  0  0  0  0  0
   -6.9601   -4.1061   -1.8687 O   0  0  0  0  0  0  0  0  0  0  0  0
   -6.9975   -2.7997   -2.4449 C   0  0  0  0  0  0  0  0  0  0  0  0
   -5.9336   -2.6269   -3.5302 C   0  0  0  0  0  0  0  0  0  0  0  0
   -4.3639   -1.7345   -2.0553 O   0  0  0  0  0  0  0  0  0  0  0  0
    2.9712    1.6219   -0.1930 H   0  0  0  0  0  0  0  0  0  0  0  0
    0.6615    2.6076   -0.0652 H   0  0  0  0  0  0  0  0  0  0  0  0
    3.2547   -0.6842   -0.1501 H   0  0  0  0  0  0  0  0  0  0  0  0
    2.1808   -4.4095    0.1509 H   0  0  0  0  0  0  0  0  0  0  0  0
    4.2072   -4.3891    1.1641 H   0  0  0  0  0  0  0  0  0  0  0  0
    3.4256   -3.1579    2.1912 H   0  0  0  0  0  0  0  0  0  0  0  0
    4.5303   -1.4201    1.0163 H   0  0  0  0  0  0  0  0  0  0  0  0
    5.7418   -2.6427    0.7659 H   0  0  0  0  0  0  0  0  0  0  0  0
    3.5251   -3.9861   -1.6715 H   0  0  0  0  0  0  0  0  0  0  0  0
    2.6250   -2.4767   -1.8238 H   0  0  0  0  0  0  0  0  0  0  0  0
   -0.4256   -3.6815    0.8103 H   0  0  0  0  0  0  0  0  0  0  0  0
   -1.6817   -4.4144   -0.0626 H   0  0  0  0  0  0  0  0  0  0  0  0
    0.7931   -3.6975   -1.1513 H   0  0  0  0  0  0  0  0  0  0  0  0
    0.0783   -1.3011   -1.7446 H   0  0  0  0  0  0  0  0  0  0  0  0
    0.4730   -2.2617   -3.0921 H   0  0  0  0  0  0  0  0  0  0  0  0
   -2.2818   -1.9525   -1.9118 H   0  0  0  0  0  0  0  0  0  0  0  0
   -1.7160   -0.9752   -3.2350 H   0  0  0  0  0  0  0  0  0  0  0  0
   -2.0726   -5.1810   -3.7631 H   0  0  0  0  0  0  0  0  0  0  0  0
   -2.3859   -4.4822   -2.2165 H   0  0  0  0  0  0  0  0  0  0  0  0
    0.3319   -4.6770   -3.1524 H   0  0  0  0  0  0  0  0  0  0  0  0
   -0.4889   -5.5762   -1.8717 H   0  0  0  0  0  0  0  0  0  0  0  0
   -3.4848   -1.8510   -4.5446 H   0  0  0  0  0  0  0  0  0  0  0  0
   -3.6849   -3.5636   -4.8312 H   0  0  0  0  0  0  0  0  0  0  0  0
   -4.5931   -5.0198   -2.8842 H   0  0  0  0  0  0  0  0  0  0  0  0
   -3.7943   -4.2963   -1.4373 H   0  0  0  0  0  0  0  0  0  0  0  0
   -5.7213   -5.3690   -0.8025 H   0  0  0  0  0  0  0  0  0  0  0  0
   -5.6012   -3.6716   -0.3503 H   0  0  0  0  0  0  0  0  0  0  0  0
   -7.9889   -2.6685   -2.8756 H   0  0  0  0  0  0  0  0  0  0  0  0
   -6.8788   -2.0562   -1.6465 H   0  0  0  0  0  0  0  0  0  0  0  0
   -5.9965   -1.6091   -3.9345 H   0  0  0  0  0  0  0  0  0  0  0  0
   -6.1007   -3.3377   -4.3459 H   0  0  0  0  0  0  0  0  0  0  0  0
   -4.7233   -1.9018   -1.1697 H   0  0  0  0  0  0  0  0  0  0  0  0
  1  2  1  0  0  0  0
  1  6  2  0  0  0  0
  1 32  1  0  0  0  0
  2  3  2  0  0  0  0
  2 33  1  0  0  0  0
  3  4  1  0  0  0  0
  3 15  1  0  0  0  0
  4  5  2  0  0  0  0
  4 13  1  0  0  0  0
  5  6  1  0  0  0  0
  5  7  1  0  0  0  0
  6 34  1  0  0  0  0
  8  7  1  0  0  0  0
  8  9  1  0  0  0  0
  8 12  1  0  0  0  0
  8 35  1  6  0  0  0
  9 10  1  0  0  0  0
  9 36  1  0  0  0  0
  9 37  1  0  0  0  0
 10 11  1  0  0  0  0
 10 38  1  0  0  0  0
 10 39  1  0  0  0  0
 11 12  1  0  0  0  0
 12 40  1  0  0  0  0
 12 41  1  0  0  0  0
 13 14  2  0  0  0  0
 13 16  1  0  0  0  0
 14 15  1  0  0  0  0
 16 17  1  0  0  0  0
 17 18  1  0  0  0  0
 17 42  1  0  0  0  0
 17 43  1  0  0  0  0
 18 19  1  0  0  0  0
 18 23  1  0  0  0  0
 18 44  1  0  0  0  0
 19 20  1  0  0  0  0
 19 45  1  0  0  0  0
 19 46  1  0  0  0  0
 20 21  1  0  0  0  0
 20 47  1  0  0  0  0
 20 48  1  0  0  0  0
 21 22  1  0  0  0  0
 21 24  1  0  0  0  0
 22 23  1  0  0  0  0
 22 49  1  0  0  0  0
 22 50  1  0  0  0  0
 23 51  1  0  0  0  0
 23 52  1  0  0  0  0
 24 25  1  0  0  0  0
 24 53  1  0  0  0  0
 24 54  1  0  0  0  0
 25 26  1  0  0  0  0
 25 30  1  0  0  0  0
 25 31  1  0  0  0  0
 26 27  1  0  0  0  0
 26 55  1  0  0  0  0
 26 56  1  0  0  0  0
 27 28  1  0  0  0  0
 27 57  1  0  0  0  0
 27 58  1  0  0  0  0
 28 29  1  0  0  0  0
 29 30  1  0  0  0  0
 29 59  1  0  0  0  0
 29 60  1  0  0  0  0
 30 61  1  0  0  0  0
 30 62  1  0  0  0  0
 31 63  1  0  0  0  0
M  END
>  <DRUGBANK_ID>
DB12675

>  <COMMON_NAME>
PF-04995274

>  <CAS_NUMBER>
1331782-27-4

>  <UNII>
XI179PG9LV

$$$$
