Glycyrrhetinic acid ChEBI
 OpenBabel10282417203D

 80 84  0  0  1  0  0  0  0  0999 V2000
   -1.0066    3.3229   -3.9206 C   0  0  0  0  0  0  0  0  0  0  0  0
   -2.5404    3.5607   -3.4702 C   0  0  0  0  0  0  0  0  0  0  0  0
   -3.1821    4.2512   -4.7162 C   0  0  1  0  0  0  0  0  0  0  0  0
   -2.8109    5.8376   -4.6981 C   0  0  0  0  0  0  0  0  0  0  0  0
   -0.8297    5.7056   -5.1887 C   0  0  2  0  0  0  0  0  0  0  0  0
    0.0803    7.2904   -4.4861 C   0  0  0  0  0  0  0  0  0  0  0  0
    1.2297    6.7206   -3.3938 C   0  0  0  0  0  0  0  0  0  0  0  0
    1.8564    5.4802   -1.7712 C   0  0  2  0  0  0  0  0  0  0  0  0
    0.9717    4.6296   -2.9833 C   0  0  1  0  0  0  0  0  0  0  0  0
   -0.2230    4.6507   -4.2304 C   0  0  1  0  0  0  0  0  0  0  0  0
    0.1346    4.4556   -1.8211 C   0  0  0  0  0  0  0  0  0  0  0  0
    0.8434    4.1880   -0.5729 C   0  0  0  0  0  0  0  0  0  0  0  0
    1.0795    5.2860    0.6743 C   0  0  0  0  0  0  0  0  0  0  0  0
    1.7162    4.2748    0.0882 C   0  0  1  0  0  0  0  0  0  0  0  0
    0.2673    3.3585    1.3924 C   0  0  0  0  0  0  0  0  0  0  0  0
   -1.0273    4.0762    2.5800 C   0  0  0  0  0  0  0  0  0  0  0  0
   -1.4293    5.2678    1.8246 C   0  0  2  0  0  0  0  0  0  0  0  0
   -0.2996    6.1439    1.3806 C   0  0  1  0  0  0  0  0  0  0  0  0
   -1.0521    6.9441    0.1000 C   0  0  0  0  0  0  0  0  0  0  0  0
   -1.8427    7.9468    0.6020 C   0  0  1  0  0  0  0  0  0  0  0  0
   -3.1349    6.8487    0.7430 C   0  0  0  0  0  0  0  0  0  0  0  0
   -2.9144    5.6080    1.6467 C   0  0  0  0  0  0  0  0  0  0  0  0
   -3.9075    6.8968   -4.8129 C   0  0  0  0  0  0  0  0  0  0  0  0
   -2.7120    6.8836   -3.0022 C   0  0  0  0  0  0  0  0  0  0  0  0
   -1.1069    5.7060   -3.7899 C   0  0  0  0  0  0  0  0  0  0  0  0
    3.1448    6.2538   -3.0698 C   0  0  0  0  0  0  0  0  0  0  0  0
    2.1505    3.6388    1.9623 C   0  0  0  0  0  0  0  0  0  0  0  0
   -1.2402    4.7324    0.4507 C   0  0  0  0  0  0  0  0  0  0  0  0
   -2.6228    9.1622    0.4877 C   0  0  0  0  0  0  0  0  0  0  0  0
   -0.6367    8.5904   -0.5632 C   0  0  0  0  0  0  0  0  0  0  0  0
   -0.6443    5.5350   -6.2460 H   0  0  0  0  0  0  0  0  0  0  0  0
    1.7055    3.9940   -3.4489 H   0  0  0  0  0  0  0  0  0  0  0  0
    0.1495    6.7679    2.1443 H   0  0  0  0  0  0  0  0  0  0  0  0
   -0.5641    9.7744   -0.8571 O   0  0  0  0  0  0  0  0  0  0  0  0
    0.4109    7.9023   -1.1474 O   0  0  0  0  0  0  0  0  0  0  0  0
   -2.7644    3.5151   -5.8853 O   0  0  0  0  0  0  0  0  0  0  0  0
   -1.0546    4.6030   -1.7987 O   0  0  0  0  0  0  0  0  0  0  0  0
   -0.9997    2.3778   -4.4364 H   0  0  0  0  0  0  0  0  0  0  0  0
   -0.2680    2.9076   -3.2149 H   0  0  0  0  0  0  0  0  0  0  0  0
   -3.4807    3.0814   -3.1828 H   0  0  0  0  0  0  0  0  0  0  0  0
   -2.2732    2.7509   -2.7741 H   0  0  0  0  0  0  0  0  0  0  0  0
   -4.2412    4.2952   -4.9483 H   0  0  0  0  0  0  0  0  0  0  0  0
   -0.5541    8.2001   -4.7537 H   0  0  0  0  0  0  0  0  0  0  0  0
   -0.2421    7.8368   -3.5040 H   0  0  0  0  0  0  0  0  0  0  0  0
    1.6130    7.7588   -3.8749 H   0  0  0  0  0  0  0  0  0  0  0  0
    1.6128    6.2814   -4.4099 H   0  0  0  0  0  0  0  0  0  0  0  0
    1.3772    3.2357   -1.2024 H   0  0  0  0  0  0  0  0  0  0  0  0
   -0.2853    2.4804    2.0355 H   0  0  0  0  0  0  0  0  0  0  0  0
    0.4160    2.2677    1.1395 H   0  0  0  0  0  0  0  0  0  0  0  0
   -2.0236    3.8859    3.1920 H   0  0  0  0  0  0  0  0  0  0  0  0
   -0.6539    3.8199    3.5801 H   0  0  0  0  0  0  0  0  0  0  0  0
   -1.8464    6.7255   -0.6563 H   0  0  0  0  0  0  0  0  0  0  0  0
   -0.9473    6.4247   -0.8658 H   0  0  0  0  0  0  0  0  0  0  0  0
   -4.0296    7.3473    1.0965 H   0  0  0  0  0  0  0  0  0  0  0  0
   -3.4561    6.4064   -0.2165 H   0  0  0  0  0  0  0  0  0  0  0  0
   -3.7067    5.5887    2.4034 H   0  0  0  0  0  0  0  0  0  0  0  0
   -3.2336    4.6864    1.1228 H   0  0  0  0  0  0  0  0  0  0  0  0
   -4.1499    7.5975   -3.9535 H   0  0  0  0  0  0  0  0  0  0  0  0
   -3.7303    7.5918   -5.6100 H   0  0  0  0  0  0  0  0  0  0  0  0
   -4.7735    6.2758   -4.6874 H   0  0  0  0  0  0  0  0  0  0  0  0
   -3.4190    6.6008   -2.2495 H   0  0  0  0  0  0  0  0  0  0  0  0
   -1.8509    6.8411   -2.3320 H   0  0  0  0  0  0  0  0  0  0  0  0
   -2.4405    7.9420   -3.2597 H   0  0  0  0  0  0  0  0  0  0  0  0
   -1.8868    5.2674   -3.2045 H   0  0  0  0  0  0  0  0  0  0  0  0
   -0.7024    6.3580   -3.1344 H   0  0  0  0  0  0  0  0  0  0  0  0
   -1.6119    6.9139   -4.5348 H   0  0  0  0  0  0  0  0  0  0  0  0
    4.1437    6.4619   -2.8158 H   0  0  0  0  0  0  0  0  0  0  0  0
    3.1849    5.8710   -4.2180 H   0  0  0  0  0  0  0  0  0  0  0  0
    3.0362    7.4190   -3.4368 H   0  0  0  0  0  0  0  0  0  0  0  0
    1.9139    4.2812    2.8938 H   0  0  0  0  0  0  0  0  0  0  0  0
    1.4766    2.7452    2.6690 H   0  0  0  0  0  0  0  0  0  0  0  0
    2.9563    2.9274    2.0897 H   0  0  0  0  0  0  0  0  0  0  0  0
   -1.1088    3.6937    0.3266 H   0  0  0  0  0  0  0  0  0  0  0  0
   -2.0183    4.7386   -0.2377 H   0  0  0  0  0  0  0  0  0  0  0  0
   -0.3906    5.3471   -0.1472 H   0  0  0  0  0  0  0  0  0  0  0  0
   -3.2805    9.1303   -0.3838 H   0  0  0  0  0  0  0  0  0  0  0  0
   -3.1072    9.1724    1.4547 H   0  0  0  0  0  0  0  0  0  0  0  0
   -1.9876   10.0308    0.5285 H   0  0  0  0  0  0  0  0  0  0  0  0
    0.4358    6.9377   -1.2760 H   0  0  0  0  0  0  0  0  0  0  0  0
   -2.0259    2.9291   -5.6695 H   0  0  0  0  0  0  0  0  0  0  0  0
  1 10  1  0  0  0  0
  1 38  1  0  0  0  0
  1 39  1  0  0  0  0
  2  1  1  0  0  0  0
  2  3  1  0  0  0  0
  2 40  1  0  0  0  0
  2 41  1  0  0  0  0
  3  4  1  0  0  0  0
  3 42  1  1  0  0  0
  3 36  1  0  0  0  0
  4  5  1  0  0  0  0
  4 23  1  0  0  0  0
  4 24  1  0  0  0  0
  5 10  1  0  0  0  0
  5 31  1  1  0  0  0
  6  5  1  0  0  0  0
  6  7  1  0  0  0  0
  6 43  1  0  0  0  0
  6 44  1  0  0  0  0
  7  8  1  0  0  0  0
  7 45  1  0  0  0  0
  7 46  1  0  0  0  0
  8 26  1  6  0  0  0
  9  8  1  0  0  0  0
  9 10  1  0  0  0  0
  9 32  1  1  0  0  0
 10 25  1  6  0  0  0
 11  9  1  0  0  0  0
 12 13  2  0  0  0  0
 12 11  1  0  0  0  0
 12 47  1  0  0  0  0
 13 14  1  0  0  0  0
 14  8  1  0  0  0  0
 14 27  1  1  0  0  0
 15 14  1  0  0  0  0
 15 48  1  0  0  0  0
 15 49  1  0  0  0  0
 16 17  1  0  0  0  0
 16 15  1  0  0  0  0
 16 50  1  0  0  0  0
 16 51  1  0  0  0  0
 17 18  1  0  0  0  0
 17 28  1  6  0  0  0
 18 13  1  0  0  0  0
 18 33  1  6  0  0  0
 19 18  1  0  0  0  0
 19 52  1  0  0  0  0
 19 53  1  0  0  0  0
 20 19  1  0  0  0  0
 20 29  1  0  0  0  0
 20 30  1  6  0  0  0
 21 20  1  0  0  0  0
 21 22  1  0  0  0  0
 21 54  1  0  0  0  0
 21 55  1  0  0  0  0
 22 17  1  0  0  0  0
 22 56  1  0  0  0  0
 22 57  1  0  0  0  0
 23 58  1  0  0  0  0
 23 59  1  0  0  0  0
 23 60  1  0  0  0  0
 24 61  1  0  0  0  0
 24 62  1  0  0  0  0
 24 63  1  0  0  0  0
 25 64  1  0  0  0  0
 25 65  1  0  0  0  0
 25 66  1  0  0  0  0
 26 67  1  0  0  0  0
 26 68  1  0  0  0  0
 26 69  1  0  0  0  0
 27 70  1  0  0  0  0
 27 71  1  0  0  0  0
 27 72  1  0  0  0  0
 28 73  1  0  0  0  0
 28 74  1  0  0  0  0
 28 75  1  0  0  0  0
 29 76  1  0  0  0  0
 29 77  1  0  0  0  0
 29 78  1  0  0  0  0
 34 30  2  0  0  0  0
 35 30  1  0  0  0  0
 35 79  1  0  0  0  0
 36 80  1  0  0  0  0
 37 11  2  0  0  0  0
M  END
>  <DRUGBANK_ID>
DB13089

>  <COMMON_NAME>
Enoxolone

>  <CAS_NUMBER>
471-53-4

>  <UNII>
P540XA09DR

>  <SYNONYMS>
Enoxolona; Enoxolone; Glycyrrhetic Acid

$$$$
