
 OpenBabel10282417123D

 13 12  0  0  0  0  0  0  0  0999 V2000
    0.9729    0.1286   -0.0435 C   0  0  0  0  0  0  0  0  0  0  0  0
    0.4445    1.5401   -0.2409 C   0  0  0  0  0  0  0  0  0  0  0  0
    0.5003   -0.8031   -1.0568 N   0  0  0  0  0  0  0  0  0  0  0  0
   -0.3215   -1.8759   -0.8828 C   0  0  0  0  0  0  0  0  0  0  0  0
   -0.2967    1.9606   -1.1151 O   0  0  0  0  0  0  0  0  0  0  0  0
   -0.7201   -2.5929   -1.7942 O   0  0  0  0  0  0  0  0  0  0  0  0
    0.8776    2.3795    0.7288 O   0  0  0  0  0  0  0  0  0  0  0  0
    0.9293   -0.5141   -2.3681 O   0  0  0  0  0  0  0  0  0  0  0  0
    0.6375   -0.2285    0.9360 H   0  0  0  0  0  0  0  0  0  0  0  0
    2.0660    0.1393   -0.0817 H   0  0  0  0  0  0  0  0  0  0  0  0
   -0.5776   -2.0644    0.1720 H   0  0  0  0  0  0  0  0  0  0  0  0
    0.4879    3.2479    0.4858 H   0  0  0  0  0  0  0  0  0  0  0  0
    0.3886   -1.1325   -2.9060 H   0  0  0  0  0  0  0  0  0  0  0  0
  1  9  1  0  0  0  0
  1 10  1  0  0  0  0
  2  1  1  0  0  0  0
  3  1  1  0  0  0  0
  4  3  1  0  0  0  0
  4 11  1  0  0  0  0
  5  2  2  0  0  0  0
  6  4  2  0  0  0  0
  7  2  1  0  0  0  0
  7 12  1  0  0  0  0
  8  3  1  0  0  0  0
  8 13  1  0  0  0  0
M  END
>  <DRUGBANK_ID>
DB02109

>  <SECONDARY_ACCESSION_NUMBERS>
EXPT01711

>  <COMMON_NAME>
Hadacidin

>  <CAS_NUMBER>
689-13-4

>  <UNII>
BFO5P1010A

>  <SYNONYMS>
Hadacidine; N-formyl hydroxyaminoacetic acid; N-formyl-N- hydroxyaminoacetic acid; N-hydroxyformamidoacetic acid

$$$$
