
 OpenBabel10282417123D

 29 28  0  0  1  0  0  0  0  0999 V2000
    0.4945   -6.4497    2.9471 C   0  0  0  0  0  0  0  0  0  0  0  0
    0.3192   -6.3773    1.3975 C   0  0  2  0  0  0  0  0  0  0  0  0
    0.4098   -7.7102    0.6743 C   0  0  0  0  0  0  0  0  0  0  0  0
    1.1867   -8.6720    1.3693 O   0  0  0  0  0  0  0  0  0  0  0  0
    1.4180   -5.5257    0.8269 C   0  0  0  0  0  0  0  0  0  0  0  0
    1.5842   -5.1662   -0.6669 C   0  0  0  0  0  0  0  0  0  0  0  0
    0.7378   -4.1492   -1.1803 O   0  0  0  0  0  0  0  0  0  0  0  0
    0.8373   -2.7056   -0.4566 P   0  0  2  0  0  0  0  0  0  0  0  0
   -0.3615   -2.9546    0.5848 O   0  0  0  0  0  0  0  0  0  0  0  0
    0.5523   -1.5297   -1.3072 O   0  0  0  0  0  0  0  0  0  0  0  0
    2.3336   -2.7840    0.1445 O   0  0  0  0  0  0  0  0  0  0  0  0
    2.9102   -2.7331    1.7748 P   0  0  0  0  0  0  0  0  0  0  0  0
    1.4102   -2.4169    2.2471 O   0  0  0  0  0  0  0  0  0  0  0  0
    3.2511   -4.2888    1.6729 O   0  0  0  0  0  0  0  0  0  0  0  0
    3.4264   -2.6875    3.2338 O   0  0  0  0  0  0  0  0  0  0  0  0
    0.9116   -7.3978    3.2988 H   0  0  0  0  0  0  0  0  0  0  0  0
   -0.4719   -6.3244    3.4436 H   0  0  0  0  0  0  0  0  0  0  0  0
    1.1580   -5.6690    3.3517 H   0  0  0  0  0  0  0  0  0  0  0  0
   -0.6118   -5.8450    1.1756 H   0  0  0  0  0  0  0  0  0  0  0  0
   -0.5924   -8.0912    0.4952 H   0  0  0  0  0  0  0  0  0  0  0  0
    0.8864   -7.6056   -0.3022 H   0  0  0  0  0  0  0  0  0  0  0  0
    2.0267   -8.2545    1.6329 H   0  0  0  0  0  0  0  0  0  0  0  0
    1.2609   -4.6158    1.3975 H   0  0  0  0  0  0  0  0  0  0  0  0
    2.3398   -6.0510    1.1167 H   0  0  0  0  0  0  0  0  0  0  0  0
    2.6116   -4.8039   -0.8201 H   0  0  0  0  0  0  0  0  0  0  0  0
    1.5171   -6.0251   -1.3233 H   0  0  0  0  0  0  0  0  0  0  0  0
   -1.2009   -3.0019    0.0840 H   0  0  0  0  0  0  0  0  0  0  0  0
    1.3587   -1.4584    2.4557 H   0  0  0  0  0  0  0  0  0  0  0  0
    3.9097   -4.4863    0.9889 H   0  0  0  0  0  0  0  0  0  0  0  0
  1 16  1  0  0  0  0
  1 17  1  0  0  0  0
  1 18  1  0  0  0  0
  2  5  1  0  0  0  0
  2 19  1  6  0  0  0
  2  3  1  0  0  0  0
  2  1  1  0  0  0  0
  3  4  1  0  0  0  0
  3 20  1  0  0  0  0
  3 21  1  0  0  0  0
  4 22  1  0  0  0  0
  5  6  1  0  0  0  0
  5 23  1  0  0  0  0
  5 24  1  0  0  0  0
  6  7  1  0  0  0  0
  6 25  1  0  0  0  0
  6 26  1  0  0  0  0
  8 10  2  6  0  0  0
  8 11  1  0  0  0  0
  8  9  1  0  0  0  0
  8  7  1  0  0  0  0
  9 27  1  0  0  0  0
 11 12  1  0  0  0  0
 12 13  1  0  0  0  0
 12 14  1  0  0  0  0
 12 15  2  0  0  0  0
 13 28  1  0  0  0  0
 14 29  1  0  0  0  0
M  END
>  <DRUGBANK_ID>
DB01799

>  <SECONDARY_ACCESSION_NUMBERS>
EXPT01334

>  <COMMON_NAME>
4-Hydroxy-3-Methyl Butyl Diphosphate

$$$$
