
 OpenBabel10282417223D

 48 50  0  0  0  0  0  0  0  0999 V2000
    1.7737   -0.5694   -0.2727 C   0  0  0  0  0  0  0  0  0  0  0  0
    0.8649   -1.0876    0.6155 N   0  0  0  0  0  0  0  0  0  0  0  0
   -0.2518    0.0251    2.1269 C   0  0  0  0  0  0  0  0  0  0  0  0
   -0.0305    1.3075    2.8763 C   0  0  0  0  0  0  0  0  0  0  0  0
   -0.7256    1.4242    4.1606 C   0  0  0  0  0  0  0  0  0  0  0  0
   -0.1541    0.5553    5.2794 C   0  0  0  0  0  0  0  0  0  0  0  0
   -0.2696   -0.8218    4.9817 C   0  0  0  0  0  0  0  0  0  0  0  0
    0.2919   -1.1500    3.7369 C   0  0  0  0  0  0  0  0  0  0  0  0
    1.2171   -2.6782    0.5437 C   0  0  0  0  0  0  0  0  0  0  0  0
    2.1471   -3.2720   -0.7333 S   0  0  0  0  0  0  0  0  0  0  0  0
    0.5676   -3.6875    1.4375 N   0  0  0  0  0  0  0  0  0  0  0  0
   -0.6729   -3.7802    2.2890 N   0  0  0  0  0  0  0  0  0  0  0  0
   -1.2024   -2.6305    2.5380 C   0  0  0  0  0  0  0  0  0  0  0  0
   -0.3134   -1.6945    1.7954 C   0  0  0  0  0  0  0  0  0  0  0  0
   -1.1765   -1.0975    0.3494 C   0  0  0  0  0  0  0  0  0  0  0  0
   -0.6419    0.3640   -0.5243 C   0  0  0  0  0  0  0  0  0  0  0  0
    0.6045    1.5385    0.0302 C   0  0  0  0  0  0  0  0  0  0  0  0
    1.5863    0.9837    1.4031 C   0  0  0  0  0  0  0  0  0  0  0  0
    1.3370   -0.6411    2.2382 N   0  0  0  0  0  0  0  0  0  0  0  0
   -2.2620   -2.2848    3.8157 C   0  0  0  0  0  0  0  0  0  0  0  0
   -3.0504   -1.1281    3.7115 N   0  0  0  0  0  0  0  0  0  0  0  0
   -3.5749   -0.5940    4.9024 C   0  0  0  0  0  0  0  0  0  0  0  0
   -3.3105   -1.0754    6.2058 C   0  0  0  0  0  0  0  0  0  0  0  0
   -2.4069   -2.1295    6.3716 C   0  0  0  0  0  0  0  0  0  0  0  0
   -1.9216   -2.7861    5.1793 C   0  0  0  0  0  0  0  0  0  0  0  0
    0.9888   -0.0900    0.1586 H   0  0  0  0  0  0  0  0  0  0  0  0
    1.5204   -0.3520   -1.2936 H   0  0  0  0  0  0  0  0  0  0  0  0
    2.7106   -0.1788    0.1000 H   0  0  0  0  0  0  0  0  0  0  0  0
   -1.3940   -0.0608    2.0633 H   0  0  0  0  0  0  0  0  0  0  0  0
    0.9755    1.3274    3.3051 H   0  0  0  0  0  0  0  0  0  0  0  0
   -0.3492    2.0338    2.1344 H   0  0  0  0  0  0  0  0  0  0  0  0
   -0.4281    2.4132    4.4557 H   0  0  0  0  0  0  0  0  0  0  0  0
   -1.7801    1.2900    3.9069 H   0  0  0  0  0  0  0  0  0  0  0  0
    0.9188    0.5273    5.4296 H   0  0  0  0  0  0  0  0  0  0  0  0
   -0.8032    0.6242    6.1437 H   0  0  0  0  0  0  0  0  0  0  0  0
    0.1235   -1.5716    5.6647 H   0  0  0  0  0  0  0  0  0  0  0  0
   -1.3038   -0.7926    4.8804 H   0  0  0  0  0  0  0  0  0  0  0  0
    0.1637   -2.2541    3.7310 H   0  0  0  0  0  0  0  0  0  0  0  0
    1.3714   -1.5393    3.7837 H   0  0  0  0  0  0  0  0  0  0  0  0
    0.8795   -4.6348    1.2943 H   0  0  0  0  0  0  0  0  0  0  0  0
   -1.2747   -2.0509   -0.2244 H   0  0  0  0  0  0  0  0  0  0  0  0
   -0.3335   -0.1297   -1.5567 H   0  0  0  0  0  0  0  0  0  0  0  0
    1.3815    1.9038   -0.7822 H   0  0  0  0  0  0  0  0  0  0  0  0
    1.9679    1.8907    1.9738 H   0  0  0  0  0  0  0  0  0  0  0  0
   -4.2292    0.2843    4.8036 H   0  0  0  0  0  0  0  0  0  0  0  0
   -3.8110   -0.6512    7.0741 H   0  0  0  0  0  0  0  0  0  0  0  0
   -1.9574   -2.3059    7.3686 H   0  0  0  0  0  0  0  0  0  0  0  0
   -0.9563   -3.3064    5.3574 H   0  0  0  0  0  0  0  0  0  0  0  0
  1  2  1  0  0  0  0
  1 26  1  0  0  0  0
  1 27  1  0  0  0  0
  1 28  1  0  0  0  0
  2  3  1  0  0  0  0
  2  9  1  0  0  0  0
  3  4  1  0  0  0  0
  3  8  1  0  0  0  0
  3 29  1  0  0  0  0
  4  5  1  0  0  0  0
  4 30  1  0  0  0  0
  4 31  1  0  0  0  0
  5  6  1  0  0  0  0
  5 32  1  0  0  0  0
  5 33  1  0  0  0  0
  6  7  1  0  0  0  0
  6 34  1  0  0  0  0
  6 35  1  0  0  0  0
  7  8  1  0  0  0  0
  7 36  1  0  0  0  0
  7 37  1  0  0  0  0
  8 38  1  0  0  0  0
  8 39  1  0  0  0  0
  9 10  2  0  0  0  0
  9 11  1  0  0  0  0
 11 12  1  0  0  0  0
 11 40  1  0  0  0  0
 12 13  2  0  0  0  0
 13 14  1  0  0  0  0
 13 20  1  0  0  0  0
 14 15  2  0  0  0  0
 14 19  1  0  0  0  0
 15 16  1  0  0  0  0
 15 41  1  0  0  0  0
 16 17  2  0  0  0  0
 16 42  1  0  0  0  0
 17 18  1  0  0  0  0
 17 43  1  0  0  0  0
 18 19  2  0  0  0  0
 18 44  1  0  0  0  0
 20 21  2  0  0  0  0
 20 25  1  0  0  0  0
 21 22  1  0  0  0  0
 22 23  2  0  0  0  0
 22 45  1  0  0  0  0
 23 24  1  0  0  0  0
 23 46  1  0  0  0  0
 24 25  2  0  0  0  0
 24 47  1  0  0  0  0
 25 48  1  0  0  0  0
M  END
>  <DRUGBANK_ID>
DB15235

>  <COMMON_NAME>
Di-2-pyridylketone 4-cyclohexyl-4-methyl-3-thiosemicarbazone

>  <CAS_NUMBER>
1382469-39-7

>  <UNII>
6068Z4Y7QI

>  <SYNONYMS>
DP4CYCH4MT

$$$$
