
 OpenBabel10282417243D

 53 55  0  0  1  0  0  0  0  0999 V2000
    0.9027    0.0905   -0.1195 C   0  0  0  0  0  0  0  0  0  0  0  0
    0.5867   -1.2965    0.4132 C   0  0  0  0  0  0  0  0  0  0  0  0
    1.0114   -1.5049    1.7690 O   0  0  0  0  0  0  0  0  0  0  0  0
    2.3529   -1.6944    1.9667 C   0  0  0  0  0  0  0  0  0  0  0  0
    3.2451   -0.6693    1.6257 C   0  0  0  0  0  0  0  0  0  0  0  0
    4.6184   -0.7780    1.8176 C   0  0  0  0  0  0  0  0  0  0  0  0
    5.0711   -1.9244    2.4527 C   0  0  0  0  0  0  0  0  0  0  0  0
    4.1816   -2.8218    3.0304 C   0  0  0  0  0  0  0  0  0  0  0  0
    2.8302   -2.7840    2.7032 C   0  0  0  0  0  0  0  0  0  0  0  0
    2.1431   -3.8742    3.1608 O   0  0  0  0  0  0  0  0  0  0  0  0
    0.8561   -4.0802    2.6023 C   0  0  0  0  0  0  0  0  0  0  0  0
    5.5293    0.3862    1.4561 C   0  0  1  0  0  0  0  0  0  0  0  0
    6.0055    1.1095    2.7414 C   0  0  0  0  0  0  0  0  0  0  0  0
    7.0899    0.1918    3.9098 S   0  0  0  0  0  0  0  0  0  0  0  0
    8.3943   -0.7161    3.0434 C   0  0  0  0  0  0  0  0  0  0  0  0
    7.7662    1.1799    4.7296 O   0  0  0  0  0  0  0  0  0  0  0  0
    6.2955   -0.8096    4.5947 O   0  0  0  0  0  0  0  0  0  0  0  0
    6.5808    0.0117    0.5142 N   0  0  0  0  0  0  0  0  0  0  0  0
    6.3927   -0.7521   -0.6305 C   0  0  0  0  0  0  0  0  0  0  0  0
    5.3563   -1.1064   -1.1711 O   0  0  0  0  0  0  0  0  0  0  0  0
    7.7349   -1.0251   -1.0829 C   0  0  0  0  0  0  0  0  0  0  0  0
    8.3558   -1.7622   -2.0429 C   0  0  0  0  0  0  0  0  0  0  0  0
   10.0672   -1.6485   -1.8342 S   0  0  0  0  0  0  0  0  0  0  0  0
    9.9640   -0.5831   -0.4830 C   0  0  0  0  0  0  0  0  0  0  0  0
   11.0897   -0.1768    0.2470 N   0  0  0  0  0  0  0  0  0  0  0  0
   12.4066   -0.4416   -0.1154 C   0  0  0  0  0  0  0  0  0  0  0  0
   13.4774    0.1397    0.7874 C   0  0  0  0  0  0  0  0  0  0  0  0
   12.7732   -1.0761   -1.1014 O   0  0  0  0  0  0  0  0  0  0  0  0
    8.6388   -0.2834   -0.3017 C   0  0  0  0  0  0  0  0  0  0  0  0
    7.8547    0.5340    0.5559 C   0  0  0  0  0  0  0  0  0  0  0  0
    8.2868    1.4604    1.2370 O   0  0  0  0  0  0  0  0  0  0  0  0
    0.7098    0.8472    0.6498 H   0  0  0  0  0  0  0  0  0  0  0  0
    0.3399    0.3248   -1.0223 H   0  0  0  0  0  0  0  0  0  0  0  0
    1.9500    0.1573   -0.4251 H   0  0  0  0  0  0  0  0  0  0  0  0
   -0.5050   -1.3956    0.4371 H   0  0  0  0  0  0  0  0  0  0  0  0
    0.9617   -2.0851   -0.2499 H   0  0  0  0  0  0  0  0  0  0  0  0
    2.8767    0.2691    1.2413 H   0  0  0  0  0  0  0  0  0  0  0  0
    6.1193   -2.1027    2.6305 H   0  0  0  0  0  0  0  0  0  0  0  0
    4.5638   -3.5401    3.7533 H   0  0  0  0  0  0  0  0  0  0  0  0
    0.1570   -3.3479    3.0119 H   0  0  0  0  0  0  0  0  0  0  0  0
    0.8780   -4.0627    1.5062 H   0  0  0  0  0  0  0  0  0  0  0  0
    0.5047   -5.0706    2.9028 H   0  0  0  0  0  0  0  0  0  0  0  0
    4.9165    1.1079    0.8874 H   0  0  0  0  0  0  0  0  0  0  0  0
    6.5108    2.0471    2.4870 H   0  0  0  0  0  0  0  0  0  0  0  0
    5.1321    1.4261    3.3312 H   0  0  0  0  0  0  0  0  0  0  0  0
    9.1737   -0.0261    2.7192 H   0  0  0  0  0  0  0  0  0  0  0  0
    8.8708   -1.4329    3.7125 H   0  0  0  0  0  0  0  0  0  0  0  0
    7.9977   -1.2979    2.2124 H   0  0  0  0  0  0  0  0  0  0  0  0
    7.9279   -2.3651   -2.8312 H   0  0  0  0  0  0  0  0  0  0  0  0
   10.9286    0.3871    1.0769 H   0  0  0  0  0  0  0  0  0  0  0  0
   14.1216   -0.6739    1.1410 H   0  0  0  0  0  0  0  0  0  0  0  0
   14.0963    0.8240    0.1950 H   0  0  0  0  0  0  0  0  0  0  0  0
   13.0887    0.6802    1.6518 H   0  0  0  0  0  0  0  0  0  0  0  0
  1  2  1  0  0  0  0
  1 32  1  0  0  0  0
  1 33  1  0  0  0  0
  1 34  1  0  0  0  0
  2  3  1  0  0  0  0
  2 35  1  0  0  0  0
  2 36  1  0  0  0  0
  3  4  1  0  0  0  0
  4  5  2  0  0  0  0
  4  9  1  0  0  0  0
  5  6  1  0  0  0  0
  5 37  1  0  0  0  0
  6  7  2  0  0  0  0
  7  8  1  0  0  0  0
  7 38  1  0  0  0  0
  8  9  2  0  0  0  0
  8 39  1  0  0  0  0
  9 10  1  0  0  0  0
 10 11  1  0  0  0  0
 11 40  1  0  0  0  0
 11 41  1  0  0  0  0
 11 42  1  0  0  0  0
 12  6  1  0  0  0  0
 12 13  1  0  0  0  0
 12 18  1  0  0  0  0
 12 43  1  6  0  0  0
 13 14  1  0  0  0  0
 13 44  1  0  0  0  0
 13 45  1  0  0  0  0
 14 15  1  0  0  0  0
 14 16  2  0  0  0  0
 14 17  2  0  0  0  0
 15 46  1  0  0  0  0
 15 47  1  0  0  0  0
 15 48  1  0  0  0  0
 18 19  1  0  0  0  0
 18 30  1  0  0  0  0
 19 20  2  0  0  0  0
 19 21  1  0  0  0  0
 21 22  2  0  0  0  0
 21 29  1  0  0  0  0
 22 23  1  0  0  0  0
 22 49  1  0  0  0  0
 23 24  1  0  0  0  0
 24 25  1  0  0  0  0
 24 29  2  0  0  0  0
 25 26  1  0  0  0  0
 25 50  1  0  0  0  0
 26 27  1  0  0  0  0
 26 28  2  0  0  0  0
 27 51  1  0  0  0  0
 27 52  1  0  0  0  0
 27 53  1  0  0  0  0
 29 30  1  0  0  0  0
 30 31  2  0  0  0  0
M  END
>  <DRUGBANK_ID>
DB18075

>  <COMMON_NAME>
Mufemilast

>  <CAS_NUMBER>
1255909-03-5

>  <UNII>
4QX9BK9E7P

$$$$
