
 OpenBabel10282417123D

 26 27  0  0  0  0  0  0  0  0999 V2000
    1.1827   -0.1662   -0.3739 O   0  0  0  0  0  0  0  0  0  0  0  0
    4.6008   -3.1798    1.4186 O   0  0  0  0  0  0  0  0  0  0  0  0
    3.9402    1.4678    0.9715 N   0  0  0  0  0  0  0  0  0  0  0  0
    3.1819   -1.1016    0.2694 N   0  0  0  0  0  0  0  0  0  0  0  0
    5.4524    0.5005    2.6053 N   0  0  0  0  0  0  0  0  0  0  0  0
    5.8545   -1.8105    2.7737 N   0  0  0  0  0  0  0  0  0  0  0  0
    7.0150   -0.3205    4.0652 N   0  0  0  0  0  0  0  0  0  0  0  0
    3.2033    1.2583   -0.2945 C   0  0  0  0  0  0  0  0  0  0  0  0
    2.3806   -0.0485   -0.1436 C   0  0  0  0  0  0  0  0  0  0  0  0
    4.5263    0.3772    1.6049 C   0  0  0  0  0  0  0  0  0  0  0  0
    4.2381    1.0073   -1.4167 C   0  0  0  0  0  0  0  0  0  0  0  0
    2.3392    2.4448   -0.6977 C   0  0  0  0  0  0  0  0  0  0  0  0
    4.1949   -0.8753    1.1957 C   0  0  0  0  0  0  0  0  0  0  0  0
    4.8997   -2.0467    1.8104 C   0  0  0  0  0  0  0  0  0  0  0  0
    6.0863   -0.5842    3.1231 C   0  0  0  0  0  0  0  0  0  0  0  0
    3.9406    2.3757    1.4181 H   0  0  0  0  0  0  0  0  0  0  0  0
    2.8897   -2.0570    0.0973 H   0  0  0  0  0  0  0  0  0  0  0  0
    5.7256    1.4340    2.8651 H   0  0  0  0  0  0  0  0  0  0  0  0
    7.2733    0.5995    4.3825 H   0  0  0  0  0  0  0  0  0  0  0  0
    7.4957   -1.1134    4.4759 H   0  0  0  0  0  0  0  0  0  0  0  0
    3.7371    0.7532   -2.3570 H   0  0  0  0  0  0  0  0  0  0  0  0
    4.8761    1.8817   -1.5701 H   0  0  0  0  0  0  0  0  0  0  0  0
    4.9095    0.1694   -1.1921 H   0  0  0  0  0  0  0  0  0  0  0  0
    1.5674    2.6736    0.0423 H   0  0  0  0  0  0  0  0  0  0  0  0
    2.9472    3.3437   -0.8502 H   0  0  0  0  0  0  0  0  0  0  0  0
    1.8278    2.2350   -1.6476 H   0  0  0  0  0  0  0  0  0  0  0  0
  1  9  2  0  0  0  0
  2 14  2  0  0  0  0
  3  8  1  0  0  0  0
  3 10  1  0  0  0  0
  3 16  1  0  0  0  0
  4  9  1  0  0  0  0
  4 13  1  0  0  0  0
  4 17  1  0  0  0  0
  5 10  1  0  0  0  0
  5 15  1  0  0  0  0
  5 18  1  0  0  0  0
  6 14  1  0  0  0  0
  6 15  2  0  0  0  0
  7 15  1  0  0  0  0
  7 19  1  0  0  0  0
  7 20  1  0  0  0  0
  8  9  1  0  0  0  0
  8 11  1  0  0  0  0
  8 12  1  0  0  0  0
 10 13  2  0  0  0  0
 11 21  1  0  0  0  0
 11 22  1  0  0  0  0
 11 23  1  0  0  0  0
 12 24  1  0  0  0  0
 12 25  1  0  0  0  0
 12 26  1  0  0  0  0
 13 14  1  0  0  0  0
M  END
>  <DRUGBANK_ID>
DB02278

>  <SECONDARY_ACCESSION_NUMBERS>
EXPT02803

>  <COMMON_NAME>
7,8-dihydro-7,7-dimethyl-6-hydroxypterin

$$$$
