FTA
 OpenBabel10282417143D

 36 38  0  0  0  0  0  0  0  0999 V2000
    0.9016    0.0778   -0.0284 N   0  0  0  0  0  0  0  0  0  0  0  0
    0.2116    1.1938    0.4772 C   0  0  0  0  0  0  0  0  0  0  0  0
    0.5937    2.4898    0.1300 C   0  0  0  0  0  0  0  0  0  0  0  0
   -0.2211    3.5760    0.4670 C   0  0  0  0  0  0  0  0  0  0  0  0
   -1.4210    3.3739    1.1518 C   0  0  0  0  0  0  0  0  0  0  0  0
   -1.8018    2.0888    1.5200 C   0  0  0  0  0  0  0  0  0  0  0  0
   -0.9787    1.0128    1.2022 C   0  0  0  0  0  0  0  0  0  0  0  0
    0.2860   -1.0753   -0.5389 C   0  0  0  0  0  0  0  0  0  0  0  0
    0.6879   -2.3480   -0.1404 C   0  0  0  0  0  0  0  0  0  0  0  0
   -0.0474   -3.4781   -0.5350 C   0  0  0  0  0  0  0  0  0  0  0  0
   -0.8609   -0.9547   -1.3293 C   0  0  0  0  0  0  0  0  0  0  0  0
   -1.6032   -2.0687   -1.6931 C   0  0  0  0  0  0  0  0  0  0  0  0
   -1.1944   -3.3512   -1.3384 C   0  0  0  0  0  0  0  0  0  0  0  0
   -1.8878   -4.4884   -1.7776 N   0  0  0  0  0  0  0  0  0  0  0  0
   -2.9705   -4.5439   -2.6380 C   0  0  0  0  0  0  0  0  0  0  0  0
   -3.5631   -5.6410   -3.1379 C   0  0  0  0  0  0  0  0  0  0  0  0
   -4.7760   -5.5402   -4.0485 C   0  0  0  0  0  0  0  0  0  0  0  0
   -5.7822   -5.4567   -4.8039 N   0  0  0  0  0  0  0  0  0  0  0  0
   -3.1187   -6.9645   -2.8088 C   0  0  0  0  0  0  0  0  0  0  0  0
   -2.8932   -8.0003   -3.6304 N   0  0  0  0  0  0  0  0  0  0  0  0
   -2.3426   -8.8788   -2.7692 N   0  0  0  0  0  0  0  0  0  0  0  0
   -2.2238   -8.4563   -1.5044 N   0  0  0  0  0  0  0  0  0  0  0  0
   -2.7172   -7.2302   -1.5130 N   0  0  0  0  0  0  0  0  0  0  0  0
    1.9115    0.1001   -0.0059 H   0  0  0  0  0  0  0  0  0  0  0  0
    1.4925    2.6590   -0.4559 H   0  0  0  0  0  0  0  0  0  0  0  0
    0.0622    4.5802    0.1638 H   0  0  0  0  0  0  0  0  0  0  0  0
   -2.0644    4.2159    1.3909 H   0  0  0  0  0  0  0  0  0  0  0  0
   -2.7444    1.9130    2.0303 H   0  0  0  0  0  0  0  0  0  0  0  0
   -1.2738    0.0114    1.5104 H   0  0  0  0  0  0  0  0  0  0  0  0
    1.5433   -2.4645    0.5198 H   0  0  0  0  0  0  0  0  0  0  0  0
    0.2813   -4.4546   -0.1856 H   0  0  0  0  0  0  0  0  0  0  0  0
   -1.1969    0.0222   -1.6675 H   0  0  0  0  0  0  0  0  0  0  0  0
   -2.5139   -1.8931   -2.2513 H   0  0  0  0  0  0  0  0  0  0  0  0
   -1.4988   -5.3814   -1.4727 H   0  0  0  0  0  0  0  0  0  0  0  0
   -3.3653   -3.5801   -2.9369 H   0  0  0  0  0  0  0  0  0  0  0  0
   -2.0187   -9.7973   -3.0527 H   0  0  0  0  0  0  0  0  0  0  0  0
  1  2  1  0  0  0  0
  1  8  1  0  0  0  0
  1 24  1  0  0  0  0
  2  3  2  0  0  0  0
  2  7  1  0  0  0  0
  3  4  1  0  0  0  0
  3 25  1  0  0  0  0
  4  5  2  0  0  0  0
  4 26  1  0  0  0  0
  5  6  1  0  0  0  0
  5 27  1  0  0  0  0
  6  7  2  0  0  0  0
  6 28  1  0  0  0  0
  7 29  1  0  0  0  0
  8  9  2  0  0  0  0
  8 11  1  0  0  0  0
  9 10  1  0  0  0  0
  9 30  1  0  0  0  0
 10 13  2  0  0  0  0
 10 31  1  0  0  0  0
 11 12  2  0  0  0  0
 11 32  1  0  0  0  0
 12 13  1  0  0  0  0
 12 33  1  0  0  0  0
 13 14  1  0  0  0  0
 14 15  1  0  0  0  0
 14 34  1  0  0  0  0
 15 16  2  0  0  0  0
 15 35  1  0  0  0  0
 16 17  1  0  0  0  0
 16 19  1  0  0  0  0
 17 18  3  0  0  0  0
 19 20  2  0  0  0  0
 19 23  1  0  0  0  0
 20 21  1  0  0  0  0
 21 22  1  0  0  0  0
 21 36  1  0  0  0  0
 22 23  2  0  0  0  0
M  END
>  <DRUGBANK_ID>
DB04430

>  <SECONDARY_ACCESSION_NUMBERS>
EXPT01502

>  <COMMON_NAME>
3-(4-Phenylamino-Phenylamino)-2-(1h-Tetrazol-5-Yl)-Acrylonitrile

$$$$
