
 OpenBabel10282417153D

 37 38  0  0  0  0  0  0  0  0999 V2000
    2.3813   -0.9348   -0.0128 O   0  0  0  0  0  0  0  0  0  0  0  0
    1.1889   -0.2606   -0.0117 C   0  0  0  0  0  0  0  0  0  0  0  0
    1.1781    1.1396   -0.0071 C   0  0  0  0  0  0  0  0  0  0  0  0
   -0.0413    1.8347    0.0152 C   0  0  0  0  0  0  0  0  0  0  0  0
   -0.0559    3.3046    0.0312 C   0  0  0  0  0  0  0  0  0  0  0  0
   -1.1760    4.0530    0.0743 C   0  0  0  0  0  0  0  0  0  0  0  0
   -1.1610    5.5119    0.0486 C   0  0  0  0  0  0  0  0  0  0  0  0
   -0.3738    6.1948   -0.8825 C   0  0  0  0  0  0  0  0  0  0  0  0
   -0.3868    7.5851   -0.9258 C   0  0  0  0  0  0  0  0  0  0  0  0
   -1.2188    8.2993   -0.0658 C   0  0  0  0  0  0  0  0  0  0  0  0
   -2.0476    7.6236    0.8295 C   0  0  0  0  0  0  0  0  0  0  0  0
   -2.0047    6.2315    0.9031 C   0  0  0  0  0  0  0  0  0  0  0  0
   -1.2297    1.1005    0.0188 C   0  0  0  0  0  0  0  0  0  0  0  0
   -1.2098   -0.2849    0.0035 C   0  0  0  0  0  0  0  0  0  0  0  0
   -2.4045   -0.9510    0.0062 O   0  0  0  0  0  0  0  0  0  0  0  0
   -0.0052   -0.9980   -0.0113 C   0  0  0  0  0  0  0  0  0  0  0  0
    0.0002   -2.5150   -0.0280 C   0  0  0  0  0  0  0  0  0  0  0  0
   -0.6489   -3.0793    1.2395 C   0  0  0  0  0  0  0  0  0  0  0  0
   -0.6703   -3.0506   -1.2972 C   0  0  0  0  0  0  0  0  0  0  0  0
    3.1183   -0.3043    0.0146 H   0  0  0  0  0  0  0  0  0  0  0  0
    2.1152    1.6901   -0.0189 H   0  0  0  0  0  0  0  0  0  0  0  0
    0.9151    3.7920    0.0083 H   0  0  0  0  0  0  0  0  0  0  0  0
   -2.1710    3.6270    0.1121 H   0  0  0  0  0  0  0  0  0  0  0  0
    0.2482    5.6439   -1.5838 H   0  0  0  0  0  0  0  0  0  0  0  0
    0.2456    8.1053   -1.6387 H   0  0  0  0  0  0  0  0  0  0  0  0
   -1.2227    9.3849   -0.0966 H   0  0  0  0  0  0  0  0  0  0  0  0
   -2.7264    8.1814    1.4692 H   0  0  0  0  0  0  0  0  0  0  0  0
   -2.6251    5.7173    1.6342 H   0  0  0  0  0  0  0  0  0  0  0  0
   -2.1923    1.5950    0.0343 H   0  0  0  0  0  0  0  0  0  0  0  0
   -3.1380   -0.3169    0.0065 H   0  0  0  0  0  0  0  0  0  0  0  0
    1.0331   -2.8832   -0.0415 H   0  0  0  0  0  0  0  0  0  0  0  0
   -1.7026   -2.8012    1.3339 H   0  0  0  0  0  0  0  0  0  0  0  0
   -0.6044   -4.1717    1.2426 H   0  0  0  0  0  0  0  0  0  0  0  0
   -0.1355   -2.7100    2.1347 H   0  0  0  0  0  0  0  0  0  0  0  0
   -0.1730   -2.6596   -2.1923 H   0  0  0  0  0  0  0  0  0  0  0  0
   -0.6249   -4.1425   -1.3268 H   0  0  0  0  0  0  0  0  0  0  0  0
   -1.7259   -2.7721   -1.3672 H   0  0  0  0  0  0  0  0  0  0  0  0
  1  2  1  0  0  0  0
  1 20  1  0  0  0  0
  2  3  2  0  0  0  0
  2 16  1  0  0  0  0
  3  4  1  0  0  0  0
  3 21  1  0  0  0  0
  4  5  1  0  0  0  0
  4 13  2  0  0  0  0
  5  6  2  0  0  0  0
  5 22  1  0  0  0  0
  6  7  1  0  0  0  0
  6 23  1  0  0  0  0
  7  8  2  0  0  0  0
  7 12  1  0  0  0  0
  8  9  1  0  0  0  0
  8 24  1  0  0  0  0
  9 10  2  0  0  0  0
  9 25  1  0  0  0  0
 10 11  1  0  0  0  0
 10 26  1  0  0  0  0
 11 12  2  0  0  0  0
 11 27  1  0  0  0  0
 12 28  1  0  0  0  0
 13 14  1  0  0  0  0
 13 29  1  0  0  0  0
 14 15  1  0  0  0  0
 14 16  2  0  0  0  0
 15 30  1  0  0  0  0
 16 17  1  0  0  0  0
 17 18  1  0  0  0  0
 17 19  1  0  0  0  0
 17 31  1  0  0  0  0
 18 32  1  0  0  0  0
 18 33  1  0  0  0  0
 18 34  1  0  0  0  0
 19 35  1  0  0  0  0
 19 36  1  0  0  0  0
 19 37  1  0  0  0  0
M  END
>  <DRUGBANK_ID>
DB06083

>  <COMMON_NAME>
Tapinarof

>  <CAS_NUMBER>
79338-84-4

>  <UNII>
84HW7D0V04

>  <SYNONYMS>
3,5-Dihydroxy-4-isopropyl-trans-stilbene; Benvitimod; Tapinarof

$$$$
