
 OpenBabel10282417203D

 24 24  0  0  0  0  0  0  0  0999 V2000
    1.0921    0.0569    0.4762 C   0  0  0  0  0  0  0  0  0  0  0  0
    0.9052   -0.8817   -2.4633 C   0  0  0  0  0  0  0  0  0  0  0  0
   -0.3126   -2.8698    1.9701 C   0  0  0  0  0  0  0  0  0  0  0  0
    1.8804   -2.6946   -0.9114 C   0  0  0  0  0  0  0  0  0  0  0  0
    0.5987   -1.3158    0.8038 C   0  0  0  0  0  0  0  0  0  0  0  0
    1.2590   -2.3458   -2.2802 C   0  0  3  0  0  0  0  0  0  0  0  0
    0.4818   -3.5174    1.0609 C   0  0  0  0  0  0  0  0  0  0  0  0
    2.3961    0.1199   -2.3825 Cl  0  0  0  0  0  0  0  0  0  0  0  0
   -0.2712   -1.5229    1.7719 N   0  0  0  0  0  0  0  0  0  0  0  0
    1.0120   -2.5346    0.2428 N   0  0  0  0  0  0  0  0  0  0  0  0
    0.7217   -4.9270    1.0055 N   0  0  0  0  0  0  0  0  0  0  0  0
    2.1825   -2.7046   -3.3150 O   0  0  0  0  0  0  0  0  0  0  0  0
    1.4555   -5.3744    0.1332 O   0  0  0  0  0  0  0  0  0  0  0  0
    0.1515   -5.6087    1.8764 O   0  0  0  0  0  0  0  0  0  0  0  0
    0.7726    0.7827    1.2267 H   0  0  0  0  0  0  0  0  0  0  0  0
    0.6651    0.4934   -0.4226 H   0  0  0  0  0  0  0  0  0  0  0  0
    2.1814    0.0664    0.4156 H   0  0  0  0  0  0  0  0  0  0  0  0
    0.4646   -0.6366   -3.4263 H   0  0  0  0  0  0  0  0  0  0  0  0
    0.1363   -0.6279   -1.7348 H   0  0  0  0  0  0  0  0  0  0  0  0
   -0.8970   -3.2960    2.7772 H   0  0  0  0  0  0  0  0  0  0  0  0
    2.8116   -2.1564   -0.7069 H   0  0  0  0  0  0  0  0  0  0  0  0
    2.2114   -3.7292   -0.9949 H   0  0  0  0  0  0  0  0  0  0  0  0
    0.3496   -2.9402   -2.4276 H   0  0  0  0  0  0  0  0  0  0  0  0
    2.9287   -2.0742   -3.2536 H   0  0  0  0  0  0  0  0  0  0  0  0
  1 15  1  0  0  0  0
  1 16  1  0  0  0  0
  1 17  1  0  0  0  0
  2 18  1  0  0  0  0
  2 19  1  0  0  0  0
  3 20  1  0  0  0  0
  4 21  1  0  0  0  0
  4 22  1  0  0  0  0
  5  1  1  0  0  0  0
  6  2  1  0  0  0  0
  6  4  1  0  0  0  0
  6 23  1  0  0  0  0
  7  3  2  0  0  0  0
  8  2  1  0  0  0  0
  9  3  1  0  0  0  0
  9  5  2  0  0  0  0
 10  4  1  0  0  0  0
 10  5  1  0  0  0  0
 10  7  1  0  0  0  0
 11  7  1  0  0  0  0
 12  6  1  0  0  0  0
 12 24  1  0  0  0  0
 13 11  2  0  0  0  0
 14 11  2  0  0  0  0
M  END
>  <DRUGBANK_ID>
DB13026

>  <COMMON_NAME>
Ornidazole

>  <CAS_NUMBER>
16773-42-5

>  <UNII>
62XCK0G93T

>  <SYNONYMS>
ornidazol; Ornidazole

$$$$
