1395
 OpenBabel10282417113D

 57 63  0  0  1  0  0  0  0  0999 V2000
   -4.4365   11.0641    2.8305 O   0  0  0  0  0  0  0  0  0  0  0  0
   -6.2430    9.9927    1.8719 O   0  0  0  0  0  0  0  0  0  0  0  0
    3.2632    6.0283    5.6565 O   0  0  0  0  0  0  0  0  0  0  0  0
   -1.8803    9.6551    3.8772 C   0  0  2  0  0  0  0  0  0  0  0  0
   -1.5463   11.2374    4.3732 C   0  0  1  0  0  0  0  0  0  0  0  0
   -2.3761   12.1954    3.3612 C   0  0  1  0  0  0  0  0  0  0  0  0
   -2.1750   10.0503    2.4959 C   0  0  1  0  0  0  0  0  0  0  0  0
   -1.0265    8.2020    3.2429 C   0  0  2  0  0  0  0  0  0  0  0  0
   -3.0805   11.2760    2.4186 C   0  0  1  0  0  0  0  0  0  0  0  0
   -2.5615   12.3116    4.8185 C   0  0  0  0  0  0  0  0  0  0  0  0
   -1.3960    6.6423    2.5496 C   0  0  2  0  0  0  0  0  0  0  0  0
    0.2645    8.3262    2.5193 C   0  0  1  0  0  0  0  0  0  0  0  0
   -0.4132    5.4576    2.6320 C   0  0  1  0  0  0  0  0  0  0  0  0
   -0.5981   10.5226    2.0250 C   0  0  0  0  0  0  0  0  0  0  0  0
   -1.6794    5.5106    3.5237 C   0  0  0  0  0  0  0  0  0  0  0  0
    1.1995    7.3018    3.1894 C   0  0  2  0  0  0  0  0  0  0  0  0
    0.5984    9.7652    2.6461 C   0  0  0  0  0  0  0  0  0  0  0  0
   -3.1812   11.5570    0.9328 C   0  0  0  0  0  0  0  0  0  0  0  0
    1.0567    5.8080    2.9527 C   0  0  0  0  0  0  0  0  0  0  0  0
   -3.0001    8.8262    2.0691 C   0  0  0  0  0  0  0  0  0  0  0  0
    0.8213    7.3003    4.7597 C   0  0  0  0  0  0  0  0  0  0  0  0
   -4.3467   10.6793    0.5007 C   0  0  0  0  0  0  0  0  0  0  0  0
    2.5545    7.6892    2.5692 C   0  0  0  0  0  0  0  0  0  0  0  0
   -5.1480   10.5904    1.7619 C   0  0  0  0  0  0  0  0  0  0  0  0
    2.0895    5.1088    3.6015 C   0  0  0  0  0  0  0  0  0  0  0  0
    0.9438    6.0160    5.5587 C   0  0  0  0  0  0  0  0  0  0  0  0
    2.2490    5.6531    5.0865 C   0  0  0  0  0  0  0  0  0  0  0  0
   -2.6774    9.3341    4.5573 H   0  0  0  0  0  0  0  0  0  0  0  0
   -0.6873   11.3946    5.0201 H   0  0  0  0  0  0  0  0  0  0  0  0
   -2.2375   13.1799    2.9297 H   0  0  0  0  0  0  0  0  0  0  0  0
   -1.3415    7.8167    4.1705 H   0  0  0  0  0  0  0  0  0  0  0  0
   -1.8094    6.6680    1.5365 H   0  0  0  0  0  0  0  0  0  0  0  0
    0.1808    8.1243    1.4213 H   0  0  0  0  0  0  0  0  0  0  0  0
   -0.5181    4.6170    1.9329 H   0  0  0  0  0  0  0  0  0  0  0  0
   -3.5079   12.0872    5.2781 H   0  0  0  0  0  0  0  0  0  0  0  0
   -2.1811   13.2854    5.1765 H   0  0  0  0  0  0  0  0  0  0  0  0
   -0.5062   10.5529    0.9447 H   0  0  0  0  0  0  0  0  0  0  0  0
   -0.3677   11.5535    2.3564 H   0  0  0  0  0  0  0  0  0  0  0  0
   -1.3529    4.7601    4.2562 H   0  0  0  0  0  0  0  0  0  0  0  0
   -1.9471    6.0536    4.4568 H   0  0  0  0  0  0  0  0  0  0  0  0
    1.5369   10.0551    2.1607 H   0  0  0  0  0  0  0  0  0  0  0  0
    0.7444    9.9671    3.7139 H   0  0  0  0  0  0  0  0  0  0  0  0
   -3.3798   12.6014    0.7189 H   0  0  0  0  0  0  0  0  0  0  0  0
   -2.2871   11.2747    0.3688 H   0  0  0  0  0  0  0  0  0  0  0  0
   -4.0311    8.9023    2.3950 H   0  0  0  0  0  0  0  0  0  0  0  0
   -2.7808    8.5632    1.0479 H   0  0  0  0  0  0  0  0  0  0  0  0
   -2.9777    7.9277    2.6733 H   0  0  0  0  0  0  0  0  0  0  0  0
    1.0535    8.2534    5.2161 H   0  0  0  0  0  0  0  0  0  0  0  0
   -0.2227    7.2170    4.9588 H   0  0  0  0  0  0  0  0  0  0  0  0
   -4.0259    9.6820    0.1711 H   0  0  0  0  0  0  0  0  0  0  0  0
   -4.9086   11.0910   -0.3260 H   0  0  0  0  0  0  0  0  0  0  0  0
    2.4267    7.9403    1.4978 H   0  0  0  0  0  0  0  0  0  0  0  0
    2.9628    8.5259    3.1213 H   0  0  0  0  0  0  0  0  0  0  0  0
    3.3204    6.9239    2.4857 H   0  0  0  0  0  0  0  0  0  0  0  0
    3.1576    5.3521    3.4202 H   0  0  0  0  0  0  0  0  0  0  0  0
    0.6965    6.1289    6.6062 H   0  0  0  0  0  0  0  0  0  0  0  0
    0.3249    5.1658    5.2297 H   0  0  0  0  0  0  0  0  0  0  0  0
  1 24  1  0  0  0  0
  2 24  2  0  0  0  0
  3 27  2  0  0  0  0
  4  5  1  0  0  0  0
  4  7  1  0  0  0  0
  4  8  1  0  0  0  0
  4 28  1  6  0  0  0
  5  6  1  0  0  0  0
  5 10  1  0  0  0  0
  5 29  1  1  0  0  0
  6  9  1  0  0  0  0
  6 10  1  0  0  0  0
  6 30  1  6  0  0  0
  7  9  1  0  0  0  0
  7 14  1  0  0  0  0
  7 20  1  6  0  0  0
  8 11  1  0  0  0  0
  8 12  1  0  0  0  0
  8 31  1  6  0  0  0
  9  1  1  1  0  0  0
  9 18  1  0  0  0  0
 10 35  1  0  0  0  0
 10 36  1  0  0  0  0
 11 13  1  0  0  0  0
 11 15  1  0  0  0  0
 11 32  1  1  0  0  0
 12 16  1  0  0  0  0
 12 17  1  0  0  0  0
 12 33  1  1  0  0  0
 13 15  1  0  0  0  0
 13 19  1  0  0  0  0
 13 34  1  1  0  0  0
 14 17  1  0  0  0  0
 14 37  1  0  0  0  0
 14 38  1  0  0  0  0
 15 39  1  0  0  0  0
 15 40  1  0  0  0  0
 16 19  1  0  0  0  0
 16 21  1  0  0  0  0
 16 23  1  6  0  0  0
 17 41  1  0  0  0  0
 17 42  1  0  0  0  0
 18 22  1  0  0  0  0
 18 43  1  0  0  0  0
 18 44  1  0  0  0  0
 19 25  2  0  0  0  0
 20 45  1  0  0  0  0
 20 46  1  0  0  0  0
 20 47  1  0  0  0  0
 21 26  1  0  0  0  0
 21 48  1  0  0  0  0
 21 49  1  0  0  0  0
 22 24  1  0  0  0  0
 22 50  1  0  0  0  0
 22 51  1  0  0  0  0
 23 52  1  0  0  0  0
 23 53  1  0  0  0  0
 23 54  1  0  0  0  0
 25 27  1  0  0  0  0
 25 55  1  0  0  0  0
 26 27  1  0  0  0  0
 26 56  1  0  0  0  0
 26 57  1  0  0  0  0
M  END
>  <DRUGBANK_ID>
DB01395

>  <COMMON_NAME>
Drospirenone

>  <CAS_NUMBER>
67392-87-4

>  <UNII>
N295J34A25

>  <SYNONYMS>
1,2-Dihydrospirorenone; 6β,7β;15β,16β-Dimethylene-3-oxo-17α-pregn-4-ene-21,17-carbolactone; Dehydrospirorenone; Drospirenona; Drospirenone; Drospirénone; Drospirenonum; DRSP

$$$$
