X98
 OpenBabel10282417173D

 61 65  0  0  0  0  0  0  0  0999 V2000
    1.3006    0.5584    0.3491 C   0  0  0  0  0  0  0  0  0  0  0  0
    0.7762    1.6988    0.3095 O   0  0  0  0  0  0  0  0  0  0  0  0
    0.6006   -0.5998   -0.0121 C   0  0  0  0  0  0  0  0  0  0  0  0
    1.2216   -1.0441   -1.3466 C   0  0  0  0  0  0  0  0  0  0  0  0
    2.5841   -1.9407   -1.7935 N   0  0  0  0  0  0  0  0  0  0  0  0
    3.1694   -3.3657   -1.5198 C   0  0  0  0  0  0  0  0  0  0  0  0
    4.5318   -3.6879   -1.9429 C   0  0  0  0  0  0  0  0  0  0  0  0
    5.3549   -2.7339   -2.2248 N   0  0  0  0  0  0  0  0  0  0  0  0
    4.8169   -1.4220   -2.3646 C   0  0  0  0  0  0  0  0  0  0  0  0
    5.6501   -0.3449   -2.2173 C   0  0  0  0  0  0  0  0  0  0  0  0
    5.2099    0.9880   -2.3925 C   0  0  0  0  0  0  0  0  0  0  0  0
    3.8864    1.3151   -2.5431 C   0  0  0  0  0  0  0  0  0  0  0  0
    3.0189    0.2852   -2.5231 C   0  0  0  0  0  0  0  0  0  0  0  0
    3.4714   -1.0540   -2.4019 C   0  0  0  0  0  0  0  0  0  0  0  0
    2.6998   -4.4170   -1.0576 O   0  0  0  0  0  0  0  0  0  0  0  0
    4.8152   -5.1697   -1.9711 C   0  0  0  0  0  0  0  0  0  0  0  0
    4.1600   -5.9752   -2.9335 C   0  0  0  0  0  0  0  0  0  0  0  0
    4.2137   -7.3705   -2.8541 C   0  0  0  0  0  0  0  0  0  0  0  0
    4.9766   -7.9625   -1.8511 C   0  0  0  0  0  0  0  0  0  0  0  0
    5.5848   -7.1711   -0.8706 C   0  0  0  0  0  0  0  0  0  0  0  0
    5.4104   -5.7845   -0.8689 C   0  0  0  0  0  0  0  0  0  0  0  0
    2.5602    0.1949    0.6414 N   0  0  0  0  0  0  0  0  0  0  0  0
    3.1059   -1.2366    0.6208 C   0  0  2  0  0  0  0  0  0  0  0  0
    2.0349   -2.8096    0.6440 C   0  0  0  0  0  0  0  0  0  0  0  0
    2.2884   -3.5628    1.6036 O   0  0  0  0  0  0  0  0  0  0  0  0
    4.5151   -0.9202    1.2612 C   0  0  0  0  0  0  0  0  0  0  0  0
    4.8360    0.5895    0.9262 C   0  0  0  0  0  0  0  0  0  0  0  0
    3.5140    1.2576    0.7151 C   0  0  0  0  0  0  0  0  0  0  0  0
    0.8630   -3.3116   -0.5300 N   0  0  0  0  0  0  0  0  0  0  0  0
    0.8738   -3.6477   -2.3197 C   0  0  0  0  0  0  0  0  0  0  0  0
   -0.5774   -3.0489   -0.3205 C   0  0  0  0  0  0  0  0  0  0  0  0
   -1.1915   -2.5879   -1.8795 C   0  0  0  0  0  0  0  0  0  0  0  0
   -0.1032   -2.7054   -3.0357 C   0  0  0  0  0  0  0  0  0  0  0  0
    3.6436   -1.3779   -0.2752 H   0  0  0  0  0  0  0  0  0  0  0  0
    0.6659   -1.2297    0.8784 H   0  0  0  0  0  0  0  0  0  0  0  0
   -0.4644   -0.3768   -0.1497 H   0  0  0  0  0  0  0  0  0  0  0  0
    0.5271   -1.7439   -1.4864 H   0  0  0  0  0  0  0  0  0  0  0  0
    0.8012   -0.4364   -2.1488 H   0  0  0  0  0  0  0  0  0  0  0  0
    6.6098   -0.5399   -1.7520 H   0  0  0  0  0  0  0  0  0  0  0  0
    5.8940    1.8037   -2.2460 H   0  0  0  0  0  0  0  0  0  0  0  0
    3.4671    2.3093   -2.3910 H   0  0  0  0  0  0  0  0  0  0  0  0
    2.0323    0.6769   -2.2962 H   0  0  0  0  0  0  0  0  0  0  0  0
    3.5368   -5.5232   -3.7016 H   0  0  0  0  0  0  0  0  0  0  0  0
    3.6731   -7.9912   -3.5678 H   0  0  0  0  0  0  0  0  0  0  0  0
    5.0818   -9.0441   -1.8183 H   0  0  0  0  0  0  0  0  0  0  0  0
    6.1938   -7.6338   -0.0990 H   0  0  0  0  0  0  0  0  0  0  0  0
    5.6796   -5.2051    0.0110 H   0  0  0  0  0  0  0  0  0  0  0  0
    4.5102   -1.0617    2.3325 H   0  0  0  0  0  0  0  0  0  0  0  0
    5.3301   -1.5187    0.8158 H   0  0  0  0  0  0  0  0  0  0  0  0
    5.4019    1.1133    1.6964 H   0  0  0  0  0  0  0  0  0  0  0  0
    5.4618    0.7161    0.0396 H   0  0  0  0  0  0  0  0  0  0  0  0
    3.1977    1.9388    1.5053 H   0  0  0  0  0  0  0  0  0  0  0  0
    3.4666    1.8713   -0.1925 H   0  0  0  0  0  0  0  0  0  0  0  0
    0.6078   -4.6862   -2.4889 H   0  0  0  0  0  0  0  0  0  0  0  0
    1.7793   -3.5176   -2.9474 H   0  0  0  0  0  0  0  0  0  0  0  0
   -0.7865   -2.2950    0.4429 H   0  0  0  0  0  0  0  0  0  0  0  0
   -1.0330   -3.9229    0.1364 H   0  0  0  0  0  0  0  0  0  0  0  0
   -1.5580   -1.5407   -1.8586 H   0  0  0  0  0  0  0  0  0  0  0  0
   -1.9926   -3.2591   -2.1428 H   0  0  0  0  0  0  0  0  0  0  0  0
    0.4402   -1.7755   -3.3738 H   0  0  0  0  0  0  0  0  0  0  0  0
   -0.4003   -2.9987   -4.0507 H   0  0  0  0  0  0  0  0  0  0  0  0
  1  2  2  0  0  0  0
  1  3  1  0  0  0  0
  1 22  1  0  0  0  0
  3  4  1  0  0  0  0
  3 35  1  0  0  0  0
  3 36  1  0  0  0  0
  4  5  1  0  0  0  0
  4 37  1  0  0  0  0
  4 38  1  0  0  0  0
  5  6  1  0  0  0  0
  5 14  1  0  0  0  0
  6  7  1  0  0  0  0
  6 15  2  0  0  0  0
  7  8  2  0  0  0  0
  7 16  1  0  0  0  0
  8  9  1  0  0  0  0
  9 10  2  0  0  0  0
  9 14  1  0  0  0  0
 10 11  1  0  0  0  0
 10 39  1  0  0  0  0
 11 12  2  0  0  0  0
 11 40  1  0  0  0  0
 12 13  1  0  0  0  0
 12 41  1  0  0  0  0
 13 14  2  0  0  0  0
 13 42  1  0  0  0  0
 16 17  2  0  0  0  0
 16 21  1  0  0  0  0
 17 18  1  0  0  0  0
 17 43  1  0  0  0  0
 18 19  2  0  0  0  0
 18 44  1  0  0  0  0
 19 20  1  0  0  0  0
 19 45  1  0  0  0  0
 20 21  2  0  0  0  0
 20 46  1  0  0  0  0
 21 47  1  0  0  0  0
 22 23  1  0  0  0  0
 22 28  1  0  0  0  0
 23 26  1  0  0  0  0
 23 34  1  6  0  0  0
 23 24  1  0  0  0  0
 24 25  2  0  0  0  0
 24 29  1  0  0  0  0
 26 27  1  0  0  0  0
 26 48  1  0  0  0  0
 26 49  1  0  0  0  0
 27 28  1  0  0  0  0
 27 50  1  0  0  0  0
 27 51  1  0  0  0  0
 28 52  1  0  0  0  0
 28 53  1  0  0  0  0
 29 30  1  0  0  0  0
 29 31  1  0  0  0  0
 30 33  1  0  0  0  0
 30 54  1  0  0  0  0
 30 55  1  0  0  0  0
 31 32  1  0  0  0  0
 31 56  1  0  0  0  0
 31 57  1  0  0  0  0
 32 33  1  0  0  0  0
 32 58  1  0  0  0  0
 32 59  1  0  0  0  0
 33 60  1  0  0  0  0
 33 61  1  0  0  0  0
M  END
>  <DRUGBANK_ID>
DB08738

>  <COMMON_NAME>
1-{3-oxo-3-[(2S)-2-(pyrrolidin-1-ylcarbonyl)pyrrolidin-1-yl]propyl}-3-phenylquinoxalin-2(1H)-one

$$$$
