784
 OpenBabel10282417113D

 33 34  0  0  0  0  0  0  0  0999 V2000
    0.7799   -0.0049    0.0483 O   0  0  0  0  0  0  0  0  0  0  0  0
    0.9325    1.8230    1.3408 O   0  0  0  0  0  0  0  0  0  0  0  0
   -1.3130   -1.4824    1.0605 N   0  0  0  0  0  0  0  0  0  0  0  0
   -2.8788   -3.0958   -0.0249 C   0  0  0  0  0  0  0  0  0  0  0  0
   -1.9422   -2.7415    0.9787 C   0  0  0  0  0  0  0  0  0  0  0  0
   -3.5635   -4.3262    0.0885 C   0  0  0  0  0  0  0  0  0  0  0  0
   -1.9528   -0.2286    0.9553 C   0  0  0  0  0  0  0  0  0  0  0  0
   -1.6228   -3.6489    1.9958 C   0  0  0  0  0  0  0  0  0  0  0  0
   -3.2768   -5.1822    1.1660 C   0  0  0  0  0  0  0  0  0  0  0  0
   -3.2159   -2.1706   -1.1732 C   0  0  0  0  0  0  0  0  0  0  0  0
   -2.3089   -4.8493    2.1096 C   0  0  0  0  0  0  0  0  0  0  0  0
   -1.2394    0.9641    0.7828 C   0  0  0  0  0  0  0  0  0  0  0  0
   -4.6130   -4.7626   -0.8991 C   0  0  0  0  0  0  0  0  0  0  0  0
   -3.3540   -0.1461    1.0921 C   0  0  0  0  0  0  0  0  0  0  0  0
   -1.9294    2.1830    0.6781 C   0  0  0  0  0  0  0  0  0  0  0  0
   -4.0431    1.0392    0.8778 C   0  0  0  0  0  0  0  0  0  0  0  0
   -3.3276    2.2139    0.7075 C   0  0  0  0  0  0  0  0  0  0  0  0
    0.2371    0.9899    0.7784 C   0  0  0  0  0  0  0  0  0  0  0  0
    1.7486    0.1505    0.0962 H   0  0  0  0  0  0  0  0  0  0  0  0
   -0.3486   -1.4907    0.7231 H   0  0  0  0  0  0  0  0  0  0  0  0
   -0.8895   -3.3717    2.7500 H   0  0  0  0  0  0  0  0  0  0  0  0
   -3.8130   -6.1224    1.2732 H   0  0  0  0  0  0  0  0  0  0  0  0
   -3.0460   -2.6646   -2.1320 H   0  0  0  0  0  0  0  0  0  0  0  0
   -4.2644   -1.8538   -1.0985 H   0  0  0  0  0  0  0  0  0  0  0  0
   -2.6056   -1.2681   -1.2096 H   0  0  0  0  0  0  0  0  0  0  0  0
   -2.1069   -5.5079    2.9489 H   0  0  0  0  0  0  0  0  0  0  0  0
   -4.2944   -5.6880   -1.3874 H   0  0  0  0  0  0  0  0  0  0  0  0
   -5.5688   -4.9251   -0.3906 H   0  0  0  0  0  0  0  0  0  0  0  0
   -4.7945   -4.0283   -1.6874 H   0  0  0  0  0  0  0  0  0  0  0  0
   -3.9361   -1.0403    1.3069 H   0  0  0  0  0  0  0  0  0  0  0  0
   -1.3797    3.1131    0.5612 H   0  0  0  0  0  0  0  0  0  0  0  0
   -5.1294    1.0280    0.8467 H   0  0  0  0  0  0  0  0  0  0  0  0
   -3.8639    3.1544    0.6230 H   0  0  0  0  0  0  0  0  0  0  0  0
  1 18  1  0  0  0  0
  1 19  1  0  0  0  0
  2 18  2  0  0  0  0
  3  5  1  0  0  0  0
  3  7  1  0  0  0  0
  3 20  1  0  0  0  0
  4  5  1  0  0  0  0
  4  6  2  0  0  0  0
  4 10  1  0  0  0  0
  5  8  2  0  0  0  0
  6  9  1  0  0  0  0
  6 13  1  0  0  0  0
  7 12  1  0  0  0  0
  7 14  2  0  0  0  0
  8 11  1  0  0  0  0
  8 21  1  0  0  0  0
  9 11  2  0  0  0  0
  9 22  1  0  0  0  0
 10 23  1  0  0  0  0
 10 24  1  0  0  0  0
 10 25  1  0  0  0  0
 11 26  1  0  0  0  0
 12 15  2  0  0  0  0
 12 18  1  0  0  0  0
 13 27  1  0  0  0  0
 13 28  1  0  0  0  0
 13 29  1  0  0  0  0
 14 16  1  0  0  0  0
 14 30  1  0  0  0  0
 15 17  1  0  0  0  0
 15 31  1  0  0  0  0
 16 17  2  0  0  0  0
 16 32  1  0  0  0  0
 17 33  1  0  0  0  0
M  END
>  <DRUGBANK_ID>
DB00784

>  <SECONDARY_ACCESSION_NUMBERS>
APRD00730

>  <COMMON_NAME>
Mefenamic acid

>  <CAS_NUMBER>
61-68-7

>  <UNII>
367589PJ2C

>  <SYNONYMS>
Acide méfénamique; ácido mefenámico; Acidum mefenamicum; Mefenamic acid; Mefenaminsäure; N-(2,3-xylyl)-2-aminobenzoic acid; N-2,3-xylylanthranilic acid

$$$$
