TYI
 OpenBabel10282417133D

 24 24  0  0  0  0  0  0  0  0999 V2000
    1.0040   -0.1726    0.0509 N   0  0  0  0  0  0  0  0  0  0  0  0
    0.4035    0.3375    1.3200 C   0  0  1  0  0  0  0  0  0  0  0  0
    0.9007    1.7547    1.6893 C   0  0  0  0  0  0  0  0  0  0  0  0
    0.5428    2.8845    0.7353 C   0  0  0  0  0  0  0  0  0  0  0  0
    0.8656    4.2056    1.0447 C   0  0  0  0  0  0  0  0  0  0  0  0
    0.5434    5.2305    0.1354 C   0  0  0  0  0  0  0  0  0  0  0  0
   -0.1126    2.6614   -0.4884 C   0  0  0  0  0  0  0  0  0  0  0  0
   -0.4606    3.6594   -1.3788 C   0  0  0  0  0  0  0  0  0  0  0  0
   -0.1187    4.9569   -1.0747 C   0  0  0  0  0  0  0  0  0  0  0  0
   -0.4369    5.9244   -1.9827 O   0  0  0  0  0  0  0  0  0  0  0  0
   -1.1423    0.2094    1.4210 C   0  0  0  0  0  0  0  0  0  0  0  0
   -1.7427   -0.5847    2.1401 O   0  0  0  0  0  0  0  0  0  0  0  0
   -1.8542    1.0811    0.6840 O   0  0  0  0  0  0  0  0  0  0  0  0
    1.0993    7.1846    0.6115 I   0  0  0  0  0  0  0  0  0  0  0  0
   -1.4797    3.0772   -3.1107 I   0  0  0  0  0  0  0  0  0  0  0  0
    0.7849   -0.3517    2.0841 H   0  0  0  0  0  0  0  0  0  0  0  0
    0.7847    0.4293   -0.7382 H   0  0  0  0  0  0  0  0  0  0  0  0
    2.0189   -0.0639    0.1154 H   0  0  0  0  0  0  0  0  0  0  0  0
    0.5341    1.9958    2.6979 H   0  0  0  0  0  0  0  0  0  0  0  0
    1.9986    1.7225    1.7666 H   0  0  0  0  0  0  0  0  0  0  0  0
    1.3673    4.4296    1.9856 H   0  0  0  0  0  0  0  0  0  0  0  0
   -0.4504    1.6819   -0.7867 H   0  0  0  0  0  0  0  0  0  0  0  0
   -0.1072    6.7703   -1.6427 H   0  0  0  0  0  0  0  0  0  0  0  0
   -2.8120    0.9408    0.8157 H   0  0  0  0  0  0  0  0  0  0  0  0
  1 17  1  0  0  0  0
  1 18  1  0  0  0  0
  2  1  1  0  0  0  0
  2  3  1  0  0  0  0
  2 11  1  0  0  0  0
  2 16  1  1  0  0  0
  3  4  1  0  0  0  0
  3 19  1  0  0  0  0
  3 20  1  0  0  0  0
  4  5  2  0  0  0  0
  4  7  1  0  0  0  0
  5  6  1  0  0  0  0
  5 21  1  0  0  0  0
  6  9  2  0  0  0  0
  6 14  1  0  0  0  0
  7  8  2  0  0  0  0
  7 22  1  0  0  0  0
  8  9  1  0  0  0  0
  8 15  1  0  0  0  0
  9 10  1  0  0  0  0
 10 23  1  0  0  0  0
 11 12  2  0  0  0  0
 11 13  1  0  0  0  0
 13 24  1  0  0  0  0
M  END
>  <DRUGBANK_ID>
DB03374

>  <SECONDARY_ACCESSION_NUMBERS>
EXPT03137

>  <COMMON_NAME>
3,5-Diiodotyrosine

>  <CAS_NUMBER>
300-39-0

>  <UNII>
6L57Q44ZWW

$$$$
