S1H
 OpenBabel10282417133D

 65 64  0  0  0  0  0  0  0  0999 V2000
    1.0639   -1.9457   -1.7333 N   0  0  0  0  0  0  0  0  0  0  0  0
    0.7991   -0.4815   -1.5428 C   0  0  2  0  0  0  0  0  0  0  0  0
    1.9059   -0.0024   -0.5322 C   0  0  0  0  0  0  0  0  0  0  0  0
    2.5821   -0.7606    0.1595 O   0  0  0  0  0  0  0  0  0  0  0  0
   -0.7512   -0.3786   -1.3698 C   0  0  0  0  0  0  0  0  0  0  0  0
   -1.3720    0.8196   -0.9531 O   0  0  0  0  0  0  0  0  0  0  0  0
    2.0623    1.3255   -0.4564 O   0  0  0  0  0  0  0  0  0  0  0  0
   -1.8368    0.2930    1.6886 C   0  0  0  0  0  0  0  0  0  0  0  0
   -1.2904   -1.1365    1.6597 C   0  0  0  0  0  0  0  0  0  0  0  0
    0.2199   -1.1427    1.6591 C   0  0  0  0  0  0  0  0  0  0  0  0
    0.8954   -0.5867    2.8965 C   0  0  0  0  0  0  0  0  0  0  0  0
    0.5027   -1.4957    4.0368 C   0  0  0  0  0  0  0  0  0  0  0  0
    1.0433   -2.9059    3.7583 C   0  0  0  0  0  0  0  0  0  0  0  0
    2.5749   -2.8801    3.7164 C   0  0  0  0  0  0  0  0  0  0  0  0
    3.0963   -2.3434    5.0500 C   0  0  0  0  0  0  0  0  0  0  0  0
    2.5796   -3.2346    6.1844 C   0  0  0  0  0  0  0  0  0  0  0  0
    3.0811   -4.6664    5.9727 C   0  0  0  0  0  0  0  0  0  0  0  0
    4.6119   -4.6730    5.9703 C   0  0  0  0  0  0  0  0  0  0  0  0
    5.1290   -4.1346    7.3074 C   0  0  0  0  0  0  0  0  0  0  0  0
    4.6237   -5.0148    8.4560 C   0  0  0  0  0  0  0  0  0  0  0  0
    5.1323   -6.4518    8.2971 C   0  0  0  0  0  0  0  0  0  0  0  0
    6.6607   -6.4966    8.2758 C   0  0  0  0  0  0  0  0  0  0  0  0
    7.2220   -5.9395    9.5738 C   0  0  0  0  0  0  0  0  0  0  0  0
   -1.2250    1.5190    0.5093 S   0  0  0  0  0  0  0  0  0  0  0  0
    0.1555    1.7624    0.8081 O   0  0  0  0  0  0  0  0  0  0  0  0
   -2.1433    2.6562    0.5241 O   0  0  0  0  0  0  0  0  0  0  0  0
    1.0422    0.0539   -2.4605 H   0  0  0  0  0  0  0  0  0  0  0  0
    0.7483   -2.4466   -0.8951 H   0  0  0  0  0  0  0  0  0  0  0  0
    2.0832   -2.0560   -1.6598 H   0  0  0  0  0  0  0  0  0  0  0  0
   -1.1793   -0.5909   -2.3671 H   0  0  0  0  0  0  0  0  0  0  0  0
   -1.1948   -1.2142   -0.8387 H   0  0  0  0  0  0  0  0  0  0  0  0
    1.7269    1.5894    0.4449 H   0  0  0  0  0  0  0  0  0  0  0  0
   -1.5214    0.7369    2.6419 H   0  0  0  0  0  0  0  0  0  0  0  0
   -2.9239    0.2990    1.6665 H   0  0  0  0  0  0  0  0  0  0  0  0
   -1.6825   -1.7255    2.4915 H   0  0  0  0  0  0  0  0  0  0  0  0
   -1.6480   -1.7036    0.8057 H   0  0  0  0  0  0  0  0  0  0  0  0
    0.6415   -2.1028    1.3407 H   0  0  0  0  0  0  0  0  0  0  0  0
    0.4592   -0.4774    0.8793 H   0  0  0  0  0  0  0  0  0  0  0  0
    1.9843   -0.5332    2.7570 H   0  0  0  0  0  0  0  0  0  0  0  0
    0.6148    0.4509    3.0897 H   0  0  0  0  0  0  0  0  0  0  0  0
    0.8482   -1.0744    4.9826 H   0  0  0  0  0  0  0  0  0  0  0  0
   -0.5812   -1.5248    4.1476 H   0  0  0  0  0  0  0  0  0  0  0  0
    0.6505   -3.5931    4.5104 H   0  0  0  0  0  0  0  0  0  0  0  0
    0.6694   -3.3416    2.8286 H   0  0  0  0  0  0  0  0  0  0  0  0
    2.9539   -3.8819    3.4921 H   0  0  0  0  0  0  0  0  0  0  0  0
    2.9688   -2.2786    2.8922 H   0  0  0  0  0  0  0  0  0  0  0  0
    4.1869   -2.2806    5.0266 H   0  0  0  0  0  0  0  0  0  0  0  0
    2.7968   -1.3067    5.2246 H   0  0  0  0  0  0  0  0  0  0  0  0
    2.8826   -2.8196    7.1484 H   0  0  0  0  0  0  0  0  0  0  0  0
    1.4884   -3.2342    6.2566 H   0  0  0  0  0  0  0  0  0  0  0  0
    2.6621   -5.3223    6.7398 H   0  0  0  0  0  0  0  0  0  0  0  0
    2.7082   -5.1075    5.0437 H   0  0  0  0  0  0  0  0  0  0  0  0
    4.9777   -5.6809    5.7596 H   0  0  0  0  0  0  0  0  0  0  0  0
    5.0260   -4.0803    5.1487 H   0  0  0  0  0  0  0  0  0  0  0  0
    6.2195   -4.0708    7.2827 H   0  0  0  0  0  0  0  0  0  0  0  0
    4.8235   -3.0973    7.4780 H   0  0  0  0  0  0  0  0  0  0  0  0
    4.9263   -4.5826    9.4125 H   0  0  0  0  0  0  0  0  0  0  0  0
    3.5302   -5.0175    8.5147 H   0  0  0  0  0  0  0  0  0  0  0  0
    4.7421   -7.0717    9.1095 H   0  0  0  0  0  0  0  0  0  0  0  0
    4.7416   -6.9072    7.3786 H   0  0  0  0  0  0  0  0  0  0  0  0
    6.9970   -7.5257    8.1247 H   0  0  0  0  0  0  0  0  0  0  0  0
    7.0634   -5.9310    7.4270 H   0  0  0  0  0  0  0  0  0  0  0  0
    6.8489   -6.5254   10.4188 H   0  0  0  0  0  0  0  0  0  0  0  0
    8.3117   -5.9638    9.5669 H   0  0  0  0  0  0  0  0  0  0  0  0
    6.9319   -4.8960    9.7348 H   0  0  0  0  0  0  0  0  0  0  0  0
  1 28  1  0  0  0  0
  1 29  1  0  0  0  0
  2  5  1  0  0  0  0
  2 27  1  6  0  0  0
  2  3  1  0  0  0  0
  2  1  1  0  0  0  0
  3  4  2  0  0  0  0
  3  7  1  0  0  0  0
  5  6  1  0  0  0  0
  5 30  1  0  0  0  0
  5 31  1  0  0  0  0
  6 24  1  0  0  0  0
  7 32  1  0  0  0  0
  8  9  1  0  0  0  0
  8 24  1  0  0  0  0
  8 33  1  0  0  0  0
  8 34  1  0  0  0  0
  9 10  1  0  0  0  0
  9 35  1  0  0  0  0
  9 36  1  0  0  0  0
 10 11  1  0  0  0  0
 10 37  1  0  0  0  0
 10 38  1  0  0  0  0
 11 12  1  0  0  0  0
 11 39  1  0  0  0  0
 11 40  1  0  0  0  0
 12 13  1  0  0  0  0
 12 41  1  0  0  0  0
 12 42  1  0  0  0  0
 13 14  1  0  0  0  0
 13 43  1  0  0  0  0
 13 44  1  0  0  0  0
 14 15  1  0  0  0  0
 14 45  1  0  0  0  0
 14 46  1  0  0  0  0
 15 16  1  0  0  0  0
 15 47  1  0  0  0  0
 15 48  1  0  0  0  0
 16 17  1  0  0  0  0
 16 49  1  0  0  0  0
 16 50  1  0  0  0  0
 17 18  1  0  0  0  0
 17 51  1  0  0  0  0
 17 52  1  0  0  0  0
 18 19  1  0  0  0  0
 18 53  1  0  0  0  0
 18 54  1  0  0  0  0
 19 20  1  0  0  0  0
 19 55  1  0  0  0  0
 19 56  1  0  0  0  0
 20 21  1  0  0  0  0
 20 57  1  0  0  0  0
 20 58  1  0  0  0  0
 21 22  1  0  0  0  0
 21 59  1  0  0  0  0
 21 60  1  0  0  0  0
 22 23  1  0  0  0  0
 22 61  1  0  0  0  0
 22 62  1  0  0  0  0
 23 63  1  0  0  0  0
 23 64  1  0  0  0  0
 23 65  1  0  0  0  0
 24 25  2  0  0  0  0
 24 26  2  0  0  0  0
M  END
>  <DRUGBANK_ID>
DB03692

>  <SECONDARY_ACCESSION_NUMBERS>
EXPT02830

>  <COMMON_NAME>
1-Hexadecanosulfonyl-O-L-Serine

$$$$
