
 OpenBabel10282417133D

 20 20  0  0  0  0  0  0  0  0999 V2000
   -1.9120    0.0661   -0.0130 C   0  0  0  0  0  0  0  0  0  0  0  0
   -1.1396    1.2371    0.0012 C   0  0  0  0  0  0  0  0  0  0  0  0
   -1.2320   -1.1645   -0.0023 C   0  0  0  0  0  0  0  0  0  0  0  0
    0.1733   -1.2165    0.0102 C   0  0  0  0  0  0  0  0  0  0  0  0
    0.2546    1.1890    0.0140 C   0  0  0  0  0  0  0  0  0  0  0  0
    0.9038   -0.0336    0.0115 C   0  0  0  0  0  0  0  0  0  0  0  0
   -5.5890    1.2965   -0.0869 C   0  0  0  0  0  0  0  0  0  0  0  0
   -3.3917    0.0994   -0.0404 C   0  0  0  0  0  0  0  0  0  0  0  0
   -6.1943    0.1022   -0.0988 O   0  0  0  0  0  0  0  0  0  0  0  0
   -6.2195    2.3416   -0.1000 O   0  0  0  0  0  0  0  0  0  0  0  0
    2.2661   -0.0080    0.0088 O   0  0  0  0  0  0  0  0  0  0  0  0
   -4.1235    1.2276   -0.0571 C   0  0  0  0  0  0  0  0  0  0  0  0
   -1.5946    2.2213    0.0010 H   0  0  0  0  0  0  0  0  0  0  0  0
   -1.7864   -2.1016   -0.0049 H   0  0  0  0  0  0  0  0  0  0  0  0
    0.6712   -2.1815    0.0195 H   0  0  0  0  0  0  0  0  0  0  0  0
    0.8268    2.1117    0.0240 H   0  0  0  0  0  0  0  0  0  0  0  0
   -3.8960   -0.8654   -0.0509 H   0  0  0  0  0  0  0  0  0  0  0  0
   -7.1499    0.3181   -0.1180 H   0  0  0  0  0  0  0  0  0  0  0  0
    2.6069   -0.9157   -0.0206 H   0  0  0  0  0  0  0  0  0  0  0  0
   -3.6750    2.2127   -0.0501 H   0  0  0  0  0  0  0  0  0  0  0  0
  1  8  1  0  0  0  0
  2  1  2  0  0  0  0
  2 13  1  0  0  0  0
  3  1  1  0  0  0  0
  3 14  1  0  0  0  0
  4  3  2  0  0  0  0
  4 15  1  0  0  0  0
  5  2  1  0  0  0  0
  5 16  1  0  0  0  0
  6  4  1  0  0  0  0
  6  5  2  0  0  0  0
  8 12  2  0  0  0  0
  8 17  1  0  0  0  0
  9  7  1  0  0  0  0
  9 18  1  0  0  0  0
 10  7  2  0  0  0  0
 11  6  1  0  0  0  0
 11 19  1  0  0  0  0
 12  7  1  0  0  0  0
 12 20  1  0  0  0  0
M  END
>  <DRUGBANK_ID>
DB04066

>  <SECONDARY_ACCESSION_NUMBERS>
EXPT01706

>  <COMMON_NAME>
p-Coumaric acid

>  <CAS_NUMBER>
501-98-4

>  <UNII>
IBS9D1EU3J

>  <SYNONYMS>
(2E)-3-(4-hydroxyphenyl)acrylic acid; (E)-3-(4-hydroxyphenyl)-2-propenoic acid; (E)-p-coumaric acid; (E)-p-hydroxycinnamic acid; 4-coumaric acid; 4-Hydroxycinnamic acid; 4'-hydroxycinnamic acid; naringeninic acid; p-Coumaric acid; para-Coumaric Acid; trans-4-coumaric acid; trans-4-hydroxycinnamic acid; trans-p-coumaric acid; trans-p-coumarinic acid; trans-p-Hydroxycinnamate; trans-p-hydroxycinnamic acid

$$$$
