
 OpenBabel10282417173D

 28 29  0  0  0  0  0  0  0  0999 V2000
   -2.4428   -0.7588   -0.0508 C   0  0  0  0  0  0  0  0  0  0  0  0
   -2.4589    0.6284   -0.1455 C   0  0  0  0  0  0  0  0  0  0  0  0
   -1.2952    1.3440    0.0785 C   0  0  0  0  0  0  0  0  0  0  0  0
   -0.0675    0.6672    0.1094 C   0  0  0  0  0  0  0  0  0  0  0  0
   -0.0281   -0.7499    0.0963 C   0  0  0  0  0  0  0  0  0  0  0  0
   -1.2418   -1.4426    0.1210 C   0  0  0  0  0  0  0  0  0  0  0  0
    1.2051   -1.4203    0.0235 C   0  0  0  0  0  0  0  0  0  0  0  0
    2.3539   -0.6459   -0.0385 C   0  0  0  0  0  0  0  0  0  0  0  0
    2.3231    0.7000   -0.0026 N   0  0  0  0  0  0  0  0  0  0  0  0
    1.1478    1.3265    0.0842 C   0  0  0  0  0  0  0  0  0  0  0  0
    1.3269    3.0409    0.0594 Cl  0  0  0  0  0  0  0  0  0  0  0  0
    3.7049   -1.2732   -0.1603 C   0  0  0  0  0  0  0  0  0  0  0  0
    3.7905   -2.5038   -0.2069 O   0  0  0  0  0  0  0  0  0  0  0  0
    4.8506   -0.5170   -0.2397 N   0  0  0  0  0  0  0  0  0  0  0  0
    5.0419    0.9346   -0.2012 C   0  0  0  0  0  0  0  0  0  0  0  0
    5.7807    1.4115    1.0258 C   0  0  0  0  0  0  0  0  0  0  0  0
    6.6726    2.2564    1.0285 O   0  0  0  0  0  0  0  0  0  0  0  0
    5.2774    0.9459    2.1862 O   0  0  0  0  0  0  0  0  0  0  0  0
    1.2154   -2.7924   -0.0309 O   0  0  0  0  0  0  0  0  0  0  0  0
   -3.3700   -1.3170   -0.1190 H   0  0  0  0  0  0  0  0  0  0  0  0
   -3.3726    1.1573   -0.3966 H   0  0  0  0  0  0  0  0  0  0  0  0
   -1.3482    2.4268    0.1690 H   0  0  0  0  0  0  0  0  0  0  0  0
   -1.2485   -2.5265    0.2163 H   0  0  0  0  0  0  0  0  0  0  0  0
    5.6926   -1.0767   -0.2952 H   0  0  0  0  0  0  0  0  0  0  0  0
    5.5687    1.2161   -1.1138 H   0  0  0  0  0  0  0  0  0  0  0  0
    4.1358    1.5214   -0.2076 H   0  0  0  0  0  0  0  0  0  0  0  0
    5.7762    1.4164    2.8863 H   0  0  0  0  0  0  0  0  0  0  0  0
    2.1471   -3.1018   -0.1145 H   0  0  0  0  0  0  0  0  0  0  0  0
  1  2  2  0  0  0  0
  1  6  1  0  0  0  0
  1 20  1  0  0  0  0
  2  3  1  0  0  0  0
  2 21  1  0  0  0  0
  3  4  2  0  0  0  0
  3 22  1  0  0  0  0
  4  5  1  0  0  0  0
  4 10  1  0  0  0  0
  5  6  2  0  0  0  0
  5  7  1  0  0  0  0
  6 23  1  0  0  0  0
  7  8  2  0  0  0  0
  7 19  1  0  0  0  0
  8  9  1  0  0  0  0
  8 12  1  0  0  0  0
  9 10  2  0  0  0  0
 10 11  1  0  0  0  0
 12 13  2  0  0  0  0
 12 14  1  0  0  0  0
 14 15  1  0  0  0  0
 14 24  1  0  0  0  0
 15 16  1  0  0  0  0
 15 25  1  0  0  0  0
 15 26  1  0  0  0  0
 16 17  2  0  0  0  0
 16 18  1  0  0  0  0
 18 27  1  0  0  0  0
 19 28  1  0  0  0  0
M  END
>  <DRUGBANK_ID>
DB08687

>  <SECONDARY_ACCESSION_NUMBERS>
DB05577

>  <COMMON_NAME>
FG-2216

>  <CAS_NUMBER>
223387-75-5

>  <UNII>
RU921DS4Z5

>  <SYNONYMS>
(((1-Chloro-4-hydroxyisoquinolin-3-yl)carbonyl)amino)acetic acid; 1-Chloro-N- (hydroxyformylmethyl-4-hydroxyisoquinoline-3-carboxamide; 1-Chloro-N-(hydroxyformylmethyl-4-hydroxyisoquinoline-3-carboxamide

$$$$
