
 OpenBabel10282417153D

 48 47  0  0  0  0  0  0  0  0999 V2000
    0.9131   -0.0214    0.0912 C   0  0  0  0  0  0  0  0  0  0  0  0
   -3.4630    1.2274   -1.9008 C   0  0  0  0  0  0  0  0  0  0  0  0
   -4.1712    1.8380   -2.8746 C   0  0  0  0  0  0  0  0  0  0  0  0
   -8.5182    3.1121   -4.9071 C   0  0  0  0  0  0  0  0  0  0  0  0
   -7.8889    3.8419   -6.0712 C   0  0  0  0  0  0  0  0  0  0  0  0
  -12.2284    2.4790   -3.8972 C   0  0  0  0  0  0  0  0  0  0  0  0
  -12.9095    1.8569   -2.9049 C   0  0  0  0  0  0  0  0  0  0  0  0
  -12.2747    1.1318   -1.7482 C   0  0  0  0  0  0  0  0  0  0  0  0
  -10.0011    3.1117   -4.9065 C   0  0  0  0  0  0  0  0  0  0  0  0
  -10.7731    2.5267   -3.9733 C   0  0  0  0  0  0  0  0  0  0  0  0
   -6.3088    2.4897   -3.9143 C   0  0  0  0  0  0  0  0  0  0  0  0
   -7.7618    2.5171   -3.9579 C   0  0  0  0  0  0  0  0  0  0  0  0
   -5.6242    1.8794   -2.9407 C   0  0  0  0  0  0  0  0  0  0  0  0
   -4.1445    0.5086   -0.7542 C   0  0  0  0  0  0  0  0  0  0  0  0
   -1.9827    1.2387   -1.9187 C   0  0  0  0  0  0  0  0  0  0  0  0
   -1.2241    0.6492   -0.9784 C   0  0  0  0  0  0  0  0  0  0  0  0
    0.2291    0.5995   -0.8991 C   0  0  0  0  0  0  0  0  0  0  0  0
    0.2800   -0.7463    1.2477 C   0  0  0  0  0  0  0  0  0  0  0  0
    2.4053    0.0040    0.0508 C   0  0  0  0  0  0  0  0  0  0  0  0
    3.1046    0.5361   -0.7980 O   0  0  0  0  0  0  0  0  0  0  0  0
  -14.4012    1.8810   -2.9434 C   0  0  0  0  0  0  0  0  0  0  0  0
  -15.1021    2.4127   -3.7914 O   0  0  0  0  0  0  0  0  0  0  0  0
    2.9620   -0.6475    1.0900 O   0  0  0  0  0  0  0  0  0  0  0  0
  -14.9559    1.2292   -1.9036 O   0  0  0  0  0  0  0  0  0  0  0  0
   -3.6441    2.3449   -3.6833 H   0  0  0  0  0  0  0  0  0  0  0  0
   -8.1732    3.3775   -7.0190 H   0  0  0  0  0  0  0  0  0  0  0  0
   -8.1732    4.8973   -6.0663 H   0  0  0  0  0  0  0  0  0  0  0  0
   -6.7973    3.8331   -6.0573 H   0  0  0  0  0  0  0  0  0  0  0  0
  -12.7778    2.9794   -4.6954 H   0  0  0  0  0  0  0  0  0  0  0  0
  -12.5587    1.5928   -0.7978 H   0  0  0  0  0  0  0  0  0  0  0  0
  -12.5587    0.0754   -1.7490 H   0  0  0  0  0  0  0  0  0  0  0  0
  -11.1847    1.1421   -1.7647 H   0  0  0  0  0  0  0  0  0  0  0  0
  -10.4815    3.6311   -5.7350 H   0  0  0  0  0  0  0  0  0  0  0  0
  -10.2576    2.0238   -3.1711 H   0  0  0  0  0  0  0  0  0  0  0  0
   -5.7390    2.9775   -4.6924 H   0  0  0  0  0  0  0  0  0  0  0  0
   -8.2362    1.9969   -3.1282 H   0  0  0  0  0  0  0  0  0  0  0  0
   -6.2060    1.3944   -2.1671 H   0  0  0  0  0  0  0  0  0  0  0  0
   -3.8764   -0.5521   -0.7532 H   0  0  0  0  0  0  0  0  0  0  0  0
   -3.8764    0.9699    0.2010 H   0  0  0  0  0  0  0  0  0  0  0  0
   -5.2335    0.5283   -0.7855 H   0  0  0  0  0  0  0  0  0  0  0  0
   -1.4944    1.7556   -2.7433 H   0  0  0  0  0  0  0  0  0  0  0  0
   -1.7530    0.1486   -0.1798 H   0  0  0  0  0  0  0  0  0  0  0  0
    0.7773    1.1001   -1.6976 H   0  0  0  0  0  0  0  0  0  0  0  0
    0.5650   -1.8024    1.2465 H   0  0  0  0  0  0  0  0  0  0  0  0
    0.5650   -0.2851    2.1977 H   0  0  0  0  0  0  0  0  0  0  0  0
   -0.8100   -0.7349    1.2294 H   0  0  0  0  0  0  0  0  0  0  0  0
    3.9307   -0.5645    0.9576 H   0  0  0  0  0  0  0  0  0  0  0  0
  -15.9246    1.3119   -2.0355 H   0  0  0  0  0  0  0  0  0  0  0  0
  1 17  2  0  0  0  0
  1 19  1  0  0  0  0
  2  3  2  0  0  0  0
  3 13  1  0  0  0  0
  3 25  1  0  0  0  0
  4  5  1  0  0  0  0
  4  9  1  0  0  0  0
  5 26  1  0  0  0  0
  5 27  1  0  0  0  0
  5 28  1  0  0  0  0
  6  7  2  0  0  0  0
  6 29  1  0  0  0  0
  7  8  1  0  0  0  0
  7 21  1  0  0  0  0
  8 30  1  0  0  0  0
  8 31  1  0  0  0  0
  8 32  1  0  0  0  0
  9 10  2  0  0  0  0
  9 33  1  0  0  0  0
 10  6  1  0  0  0  0
 10 34  1  0  0  0  0
 11 12  1  0  0  0  0
 11 35  1  0  0  0  0
 12  4  2  0  0  0  0
 12 36  1  0  0  0  0
 13 11  2  0  0  0  0
 13 37  1  0  0  0  0
 14  2  1  0  0  0  0
 14 38  1  0  0  0  0
 14 39  1  0  0  0  0
 14 40  1  0  0  0  0
 15  2  1  0  0  0  0
 15 41  1  0  0  0  0
 16 15  2  0  0  0  0
 16 42  1  0  0  0  0
 17 16  1  0  0  0  0
 17 43  1  0  0  0  0
 18  1  1  0  0  0  0
 18 44  1  0  0  0  0
 18 45  1  0  0  0  0
 18 46  1  0  0  0  0
 19 20  2  0  0  0  0
 19 23  1  0  0  0  0
 21 22  2  0  0  0  0
 21 24  1  0  0  0  0
 23 47  1  0  0  0  0
 24 48  1  0  0  0  0
M  END
>  <DRUGBANK_ID>
DB05974

>  <COMMON_NAME>
Transcrocetinate

>  <CAS_NUMBER>
27876-94-4

>  <UNII>
20TC155L9C

>  <SYNONYMS>
8,8'-diapo-8,8'-carotenedioic acid; 8,8'-diapo-ψ,ψ-carotenedioic acid; 8,8'-diapocarotenedioic acid; Crocetin; trans-crocetin

$$$$
