
 OpenBabel10282417123D

 29 31  0  0  0  0  0  0  0  0999 V2000
    1.0034    0.0956   -0.2214 N   0  0  0  0  0  0  0  0  0  0  0  0
    0.2838   -0.6275   -1.1338 C   0  0  0  0  0  0  0  0  0  0  0  0
    0.7374   -1.7513   -1.6040 N   0  0  0  0  0  0  0  0  0  0  0  0
   -0.0015   -2.4240   -2.5670 C   0  0  0  0  0  0  0  0  0  0  0  0
    0.3141   -3.5177   -3.0312 O   0  0  0  0  0  0  0  0  0  0  0  0
   -1.1785   -1.7234   -2.9969 C   0  0  0  0  0  0  0  0  0  0  0  0
   -1.5888   -0.5236   -2.4814 C   0  0  0  0  0  0  0  0  0  0  0  0
   -0.8780    0.0194   -1.4787 N   0  0  0  0  0  0  0  0  0  0  0  0
   -2.7645   -0.0999   -3.1585 C   0  0  0  0  0  0  0  0  0  0  0  0
   -3.5824    1.1316   -2.9306 C   0  0  0  0  0  0  0  0  0  0  0  0
   -3.6314    1.9405   -4.2049 C   0  0  0  0  0  0  0  0  0  0  0  0
   -4.2466    1.4957   -5.3765 C   0  0  0  0  0  0  0  0  0  0  0  0
   -4.3516    2.2140   -6.5202 N   0  0  0  0  0  0  0  0  0  0  0  0
   -3.8442    3.4603   -6.4966 C   0  0  0  0  0  0  0  0  0  0  0  0
   -3.2452    4.0195   -5.3823 C   0  0  0  0  0  0  0  0  0  0  0  0
   -3.1366    3.2479   -4.2275 C   0  0  0  0  0  0  0  0  0  0  0  0
   -3.0693   -1.1481   -4.0202 C   0  0  0  0  0  0  0  0  0  0  0  0
   -2.0839   -2.0997   -3.9479 N   0  0  0  0  0  0  0  0  0  0  0  0
    0.5101    0.2931    0.6431 H   0  0  0  0  0  0  0  0  0  0  0  0
    1.9048   -0.3249   -0.0083 H   0  0  0  0  0  0  0  0  0  0  0  0
   -1.0143    0.9553   -1.1281 H   0  0  0  0  0  0  0  0  0  0  0  0
   -4.5984    0.8713   -2.6148 H   0  0  0  0  0  0  0  0  0  0  0  0
   -3.1379    1.7278   -2.1243 H   0  0  0  0  0  0  0  0  0  0  0  0
   -4.7120    0.5187   -5.4469 H   0  0  0  0  0  0  0  0  0  0  0  0
   -3.9442    4.0200   -7.4215 H   0  0  0  0  0  0  0  0  0  0  0  0
   -2.8762    5.0378   -5.4083 H   0  0  0  0  0  0  0  0  0  0  0  0
   -2.6802    3.6810   -3.3420 H   0  0  0  0  0  0  0  0  0  0  0  0
   -3.9007   -1.2978   -4.6946 H   0  0  0  0  0  0  0  0  0  0  0  0
   -2.0499   -2.9537   -4.4926 H   0  0  0  0  0  0  0  0  0  0  0  0
  1  2  1  0  0  0  0
  1 19  1  0  0  0  0
  1 20  1  0  0  0  0
  2  3  2  0  0  0  0
  2  8  1  0  0  0  0
  3  4  1  0  0  0  0
  4  5  2  0  0  0  0
  4  6  1  0  0  0  0
  6  7  2  0  0  0  0
  6 18  1  0  0  0  0
  7  8  1  0  0  0  0
  7  9  1  0  0  0  0
  8 21  1  0  0  0  0
  9 10  1  0  0  0  0
  9 17  2  0  0  0  0
 10 11  1  0  0  0  0
 10 22  1  0  0  0  0
 10 23  1  0  0  0  0
 11 12  2  0  0  0  0
 11 16  1  0  0  0  0
 12 13  1  0  0  0  0
 12 24  1  0  0  0  0
 13 14  2  0  0  0  0
 14 15  1  0  0  0  0
 14 25  1  0  0  0  0
 15 16  2  0  0  0  0
 15 26  1  0  0  0  0
 16 27  1  0  0  0  0
 17 18  1  0  0  0  0
 17 28  1  0  0  0  0
 18 29  1  0  0  0  0
M  END
>  <DRUGBANK_ID>
DB02568

>  <SECONDARY_ACCESSION_NUMBERS>
EXPT03305; DB07442

>  <COMMON_NAME>
Peldesine

>  <CAS_NUMBER>
133432-71-0

>  <UNII>
7B646RJ70F

>  <SYNONYMS>
2-Amino-3,5-dihydro-7-(3-pyridylmethyl)-4H-pyrrolo(3,2-d)pyrimidin-4-one; Peldesine

$$$$
