580
 OpenBabel10282417103D

 36 38  0  0  0  0  0  0  0  0999 V2000
    1.0197    0.1319    0.0283 S   0  0  0  0  0  0  0  0  0  0  0  0
    9.1489   -0.2272   -0.8287 O   0  0  0  0  0  0  0  0  0  0  0  0
    0.6173    0.6177    1.3208 O   0  0  0  0  0  0  0  0  0  0  0  0
    0.5647    0.7361   -1.2079 O   0  0  0  0  0  0  0  0  0  0  0  0
    9.1765    0.5263    0.3275 N   0  0  0  0  0  0  0  0  0  0  0  0
    0.5214   -1.4783   -0.0260 N   0  0  0  0  0  0  0  0  0  0  0  0
    7.0184    0.1396   -0.2856 C   0  0  0  0  0  0  0  0  0  0  0  0
    5.5724    0.1083   -0.2958 C   0  0  0  0  0  0  0  0  0  0  0  0
    7.8947    0.7302    0.6681 C   0  0  0  0  0  0  0  0  0  0  0  0
    7.8591   -0.4575   -1.1959 C   0  0  0  0  0  0  0  0  0  0  0  0
    2.7900    0.0764   -0.0268 C   0  0  0  0  0  0  0  0  0  0  0  0
    4.8858   -1.1096   -0.2238 C   0  0  0  0  0  0  0  0  0  0  0  0
    4.8573    1.3107   -0.2318 C   0  0  0  0  0  0  0  0  0  0  0  0
    7.5455    1.3976    1.9133 C   0  0  0  0  0  0  0  0  0  0  0  0
    3.4928   -1.1292   -0.0984 C   0  0  0  0  0  0  0  0  0  0  0  0
    3.4740    1.2962   -0.0500 C   0  0  0  0  0  0  0  0  0  0  0  0
    7.6764   -1.2442   -2.4269 C   0  0  0  0  0  0  0  0  0  0  0  0
    6.7419    0.7394    2.8552 C   0  0  0  0  0  0  0  0  0  0  0  0
    8.0651    2.6606    2.2103 C   0  0  0  0  0  0  0  0  0  0  0  0
    6.5109    1.3125    4.1043 C   0  0  0  0  0  0  0  0  0  0  0  0
    7.8728    3.2089    3.4784 C   0  0  0  0  0  0  0  0  0  0  0  0
    7.0888    2.5406    4.4196 C   0  0  0  0  0  0  0  0  0  0  0  0
    0.7516   -1.9642    0.8395 H   0  0  0  0  0  0  0  0  0  0  0  0
   -0.4899   -1.4898   -0.1862 H   0  0  0  0  0  0  0  0  0  0  0  0
    5.4327   -2.0501   -0.2488 H   0  0  0  0  0  0  0  0  0  0  0  0
    5.3748    2.2660   -0.3070 H   0  0  0  0  0  0  0  0  0  0  0  0
    2.9854   -2.0875   -0.0550 H   0  0  0  0  0  0  0  0  0  0  0  0
    2.9390    2.2359    0.0734 H   0  0  0  0  0  0  0  0  0  0  0  0
    8.1385   -0.7326   -3.2762 H   0  0  0  0  0  0  0  0  0  0  0  0
    8.1342   -2.2330   -2.3240 H   0  0  0  0  0  0  0  0  0  0  0  0
    6.6162   -1.3833   -2.6532 H   0  0  0  0  0  0  0  0  0  0  0  0
    6.3147   -0.2357    2.6336 H   0  0  0  0  0  0  0  0  0  0  0  0
    8.6374    3.2088    1.4651 H   0  0  0  0  0  0  0  0  0  0  0  0
    5.9102    0.7847    4.8402 H   0  0  0  0  0  0  0  0  0  0  0  0
    8.3581    4.1450    3.7409 H   0  0  0  0  0  0  0  0  0  0  0  0
    6.9331    2.9760    5.4029 H   0  0  0  0  0  0  0  0  0  0  0  0
  1  3  2  0  0  0  0
  1  4  2  0  0  0  0
  1  6  1  0  0  0  0
  1 11  1  0  0  0  0
  2  5  1  0  0  0  0
  2 10  1  0  0  0  0
  5  9  2  0  0  0  0
  6 23  1  0  0  0  0
  6 24  1  0  0  0  0
  7  8  1  0  0  0  0
  7  9  1  0  0  0  0
  7 10  2  0  0  0  0
  8 12  2  0  0  0  0
  8 13  1  0  0  0  0
  9 14  1  0  0  0  0
 10 17  1  0  0  0  0
 11 15  2  0  0  0  0
 11 16  1  0  0  0  0
 12 15  1  0  0  0  0
 12 25  1  0  0  0  0
 13 16  2  0  0  0  0
 13 26  1  0  0  0  0
 14 18  2  0  0  0  0
 14 19  1  0  0  0  0
 15 27  1  0  0  0  0
 16 28  1  0  0  0  0
 17 29  1  0  0  0  0
 17 30  1  0  0  0  0
 17 31  1  0  0  0  0
 18 20  1  0  0  0  0
 18 32  1  0  0  0  0
 19 21  2  0  0  0  0
 19 33  1  0  0  0  0
 20 22  2  0  0  0  0
 20 34  1  0  0  0  0
 21 22  1  0  0  0  0
 21 35  1  0  0  0  0
 22 36  1  0  0  0  0
M  END
>  <DRUGBANK_ID>
DB00580

>  <SECONDARY_ACCESSION_NUMBERS>
APRD00183; DB07576

>  <COMMON_NAME>
Valdecoxib

>  <CAS_NUMBER>
181695-72-7

>  <UNII>
2919279Q3W

>  <SYNONYMS>
Valdecoxib

$$$$
