
 OpenBabel10282417183D

 69 73  0  0  0  0  0  0  0  0999 V2000
    1.1419    0.0461   -0.0746 C   0  0  0  0  0  0  0  0  0  0  0  0
    0.5695    1.2471    0.6887 C   0  0  0  0  0  0  0  0  0  0  0  0
    1.0882    2.5310    0.0264 C   0  0  0  0  0  0  0  0  0  0  0  0
   -0.9541    1.2193    0.7143 C   0  0  0  0  0  0  0  0  0  0  0  0
   -1.6431    0.0093    0.7163 C   0  0  0  0  0  0  0  0  0  0  0  0
   -3.0122    0.0233    0.5784 C   0  0  0  0  0  0  0  0  0  0  0  0
   -3.6509    1.2482    0.4559 C   0  0  0  0  0  0  0  0  0  0  0  0
   -2.9460    2.4343    0.6255 C   0  0  0  0  0  0  0  0  0  0  0  0
   -1.6011    2.4149    0.7396 N   0  0  0  0  0  0  0  0  0  0  0  0
   -3.6194    3.6623    0.6732 N   0  0  0  0  0  0  0  0  0  0  0  0
   -3.5629    4.7494   -0.2398 C   0  0  0  0  0  0  0  0  0  0  0  0
   -4.4080    5.7426    0.1743 C   0  0  0  0  0  0  0  0  0  0  0  0
   -4.5175    6.8627   -0.5836 C   0  0  0  0  0  0  0  0  0  0  0  0
   -3.8176    6.9951   -1.7356 N   0  0  0  0  0  0  0  0  0  0  0  0
   -3.0109    5.9679   -2.1012 C   0  0  0  0  0  0  0  0  0  0  0  0
   -2.8701    4.8361   -1.3797 N   0  0  0  0  0  0  0  0  0  0  0  0
   -2.2587    6.1227   -3.2657 N   0  0  0  0  0  0  0  0  0  0  0  0
   -1.4321    5.1675   -3.8682 C   0  0  0  0  0  0  0  0  0  0  0  0
   -1.9175    3.8931   -4.1693 C   0  0  0  0  0  0  0  0  0  0  0  0
   -1.0782    2.9081   -4.6958 C   0  0  0  0  0  0  0  0  0  0  0  0
    0.2817    3.1505   -4.9082 C   0  0  0  0  0  0  0  0  0  0  0  0
    0.7652    4.4288   -4.6153 C   0  0  0  0  0  0  0  0  0  0  0  0
   -0.0844    5.4356   -4.1244 C   0  0  0  0  0  0  0  0  0  0  0  0
    1.0941    2.1326   -5.3445 N   0  0  0  0  0  0  0  0  0  0  0  0
    0.9213    1.5435   -6.6758 C   0  0  0  0  0  0  0  0  0  0  0  0
    1.0821    0.0096   -6.5843 C   0  0  0  0  0  0  0  0  0  0  0  0
    2.3857   -0.3606   -5.9824 N   0  0  0  0  0  0  0  0  0  0  0  0
    2.4382    0.2121   -4.6149 C   0  0  0  0  0  0  0  0  0  0  0  0
    2.3164    1.7584   -4.6305 C   0  0  0  0  0  0  0  0  0  0  0  0
    2.5522   -1.8075   -5.9515 C   0  0  0  0  0  0  0  0  0  0  0  0
   -5.0555    5.2960    1.3915 C   0  0  0  0  0  0  0  0  0  0  0  0
   -5.8185    5.9896    2.0489 O   0  0  0  0  0  0  0  0  0  0  0  0
   -4.6401    3.9919    1.6158 N   0  0  0  0  0  0  0  0  0  0  0  0
   -4.8761    3.2891    2.8634 C   0  0  0  0  0  0  0  0  0  0  0  0
   -5.5645    1.9846    2.5966 C   0  0  0  0  0  0  0  0  0  0  0  0
   -5.0616    0.8013    2.9801 C   0  0  0  0  0  0  0  0  0  0  0  0
    1.0582    1.2050    2.0335 O   0  0  0  0  0  0  0  0  0  0  0  0
    0.7711    0.0278   -1.1066 H   0  0  0  0  0  0  0  0  0  0  0  0
    0.8799   -0.9055    0.4002 H   0  0  0  0  0  0  0  0  0  0  0  0
    2.2346    0.0674   -0.0880 H   0  0  0  0  0  0  0  0  0  0  0  0
    0.7360    2.6134   -1.0082 H   0  0  0  0  0  0  0  0  0  0  0  0
    0.7644    3.4267    0.5701 H   0  0  0  0  0  0  0  0  0  0  0  0
    2.1831    2.5527    0.0275 H   0  0  0  0  0  0  0  0  0  0  0  0
   -1.1380   -0.9456    0.7874 H   0  0  0  0  0  0  0  0  0  0  0  0
   -3.5768   -0.9035    0.5829 H   0  0  0  0  0  0  0  0  0  0  0  0
   -4.7238    1.2687    0.3125 H   0  0  0  0  0  0  0  0  0  0  0  0
   -5.1713    7.6798   -0.3004 H   0  0  0  0  0  0  0  0  0  0  0  0
   -2.3721    7.0166   -3.7157 H   0  0  0  0  0  0  0  0  0  0  0  0
   -2.9594    3.6520   -3.9774 H   0  0  0  0  0  0  0  0  0  0  0  0
   -1.4858    1.9187   -4.8827 H   0  0  0  0  0  0  0  0  0  0  0  0
    1.8162    4.6544   -4.7747 H   0  0  0  0  0  0  0  0  0  0  0  0
    0.3375    6.4090   -3.8891 H   0  0  0  0  0  0  0  0  0  0  0  0
    1.6854    1.9469   -7.3537 H   0  0  0  0  0  0  0  0  0  0  0  0
   -0.0567    1.7812   -7.1091 H   0  0  0  0  0  0  0  0  0  0  0  0
    0.9951   -0.4165   -7.5900 H   0  0  0  0  0  0  0  0  0  0  0  0
    0.2599   -0.3986   -5.9796 H   0  0  0  0  0  0  0  0  0  0  0  0
    1.6181   -0.2016   -4.0100 H   0  0  0  0  0  0  0  0  0  0  0  0
    3.3781   -0.0641   -4.1248 H   0  0  0  0  0  0  0  0  0  0  0  0
    3.1932    2.1954   -5.1231 H   0  0  0  0  0  0  0  0  0  0  0  0
    2.2945    2.1132   -3.5932 H   0  0  0  0  0  0  0  0  0  0  0  0
    3.5248   -2.0689   -5.5206 H   0  0  0  0  0  0  0  0  0  0  0  0
    1.7679   -2.3034   -5.3706 H   0  0  0  0  0  0  0  0  0  0  0  0
    2.5410   -2.2121   -6.9697 H   0  0  0  0  0  0  0  0  0  0  0  0
   -3.9334    3.1676    3.4081 H   0  0  0  0  0  0  0  0  0  0  0  0
   -5.5437    3.8909    3.4902 H   0  0  0  0  0  0  0  0  0  0  0  0
   -6.4512    2.0123    1.9652 H   0  0  0  0  0  0  0  0  0  0  0  0
   -5.4938   -0.1311    2.6289 H   0  0  0  0  0  0  0  0  0  0  0  0
   -4.1120    0.7457    3.5075 H   0  0  0  0  0  0  0  0  0  0  0  0
    0.6542    1.9691    2.4856 H   0  0  0  0  0  0  0  0  0  0  0  0
  1  2  1  0  0  0  0
  1 38  1  0  0  0  0
  1 39  1  0  0  0  0
  1 40  1  0  0  0  0
  2  3  1  0  0  0  0
  2  4  1  0  0  0  0
  2 37  1  0  0  0  0
  3 41  1  0  0  0  0
  3 42  1  0  0  0  0
  3 43  1  0  0  0  0
  4  5  2  0  0  0  0
  4  9  1  0  0  0  0
  5  6  1  0  0  0  0
  5 44  1  0  0  0  0
  6  7  2  0  0  0  0
  6 45  1  0  0  0  0
  7  8  1  0  0  0  0
  7 46  1  0  0  0  0
  8  9  2  0  0  0  0
  8 10  1  0  0  0  0
 10 11  1  0  0  0  0
 10 33  1  0  0  0  0
 11 12  1  0  0  0  0
 11 16  2  0  0  0  0
 12 13  2  0  0  0  0
 12 31  1  0  0  0  0
 13 14  1  0  0  0  0
 13 47  1  0  0  0  0
 14 15  2  0  0  0  0
 15 16  1  0  0  0  0
 15 17  1  0  0  0  0
 17 18  1  0  0  0  0
 17 48  1  0  0  0  0
 18 19  2  0  0  0  0
 18 23  1  0  0  0  0
 19 20  1  0  0  0  0
 19 49  1  0  0  0  0
 20 21  2  0  0  0  0
 20 50  1  0  0  0  0
 21 22  1  0  0  0  0
 21 24  1  0  0  0  0
 22 23  2  0  0  0  0
 22 51  1  0  0  0  0
 23 52  1  0  0  0  0
 24 25  1  0  0  0  0
 24 29  1  0  0  0  0
 25 26  1  0  0  0  0
 25 53  1  0  0  0  0
 25 54  1  0  0  0  0
 26 27  1  0  0  0  0
 26 55  1  0  0  0  0
 26 56  1  0  0  0  0
 27 28  1  0  0  0  0
 27 30  1  0  0  0  0
 28 29  1  0  0  0  0
 28 57  1  0  0  0  0
 28 58  1  0  0  0  0
 29 59  1  0  0  0  0
 29 60  1  0  0  0  0
 30 61  1  0  0  0  0
 30 62  1  0  0  0  0
 30 63  1  0  0  0  0
 31 32  2  0  0  0  0
 31 33  1  0  0  0  0
 33 34  1  0  0  0  0
 34 35  1  0  0  0  0
 34 64  1  0  0  0  0
 34 65  1  0  0  0  0
 35 36  2  0  0  0  0
 35 66  1  0  0  0  0
 36 67  1  0  0  0  0
 36 68  1  0  0  0  0
 37 69  1  0  0  0  0
M  END
>  <DRUGBANK_ID>
DB11740

>  <COMMON_NAME>
Adavosertib

>  <CAS_NUMBER>
955365-80-7

>  <UNII>
K2T6HJX3I3

$$$$
