
 OpenBabel10282417123D

116127  0  0  0  0  0  0  0  0999 V2000
  -11.1297    1.8748    2.0740 C   0  0  0  0  0  0  0  0  0  0  0  0
   -9.8284    1.4187    2.7135 C   0  0  0  0  0  0  0  0  0  0  0  0
   -8.7656    1.0459    2.0137 C   0  0  0  0  0  0  0  0  0  0  0  0
   -7.7121    0.4956    2.6157 C   0  0  0  0  0  0  0  0  0  0  0  0
   -6.6354    0.1227    1.8724 C   0  0  0  0  0  0  0  0  0  0  0  0
   -5.5998   -0.4818    2.4528 C   0  0  0  0  0  0  0  0  0  0  0  0
   -4.5699   -0.9039    1.7320 C   0  0  0  0  0  0  0  0  0  0  0  0
   -3.3947   -1.5920    2.4072 C   0  0  0  0  0  0  0  0  0  0  0  0
   -2.7680   -0.6475    3.4198 C   0  0  0  0  0  0  0  0  0  0  0  0
   -3.8026   -0.2680    4.4667 C   0  0  0  0  0  0  0  0  0  0  0  0
   -4.2888   -1.5213    5.1761 C   0  0  0  0  0  0  0  0  0  0  0  0
   -3.1136   -2.2095    5.8513 C   0  0  0  0  0  0  0  0  0  0  0  0
   -2.4869   -1.2649    6.8639 C   0  0  0  0  0  0  0  0  0  0  0  0
   -3.5215   -0.8854    7.9108 C   0  0  0  0  0  0  0  0  0  0  0  0
   -4.0076   -2.1387    8.6203 C   0  0  0  0  0  0  0  0  0  0  0  0
   -2.8325   -2.8269    9.2954 C   0  0  0  0  0  0  0  0  0  0  0  0
   -2.8349   -2.9993   10.5546 O   0  0  0  0  0  0  0  0  0  0  0  0
   -1.6931   -3.2929    8.4919 N   0  0  0  0  0  0  0  0  0  0  0  0
   -1.6898   -3.0935    7.0355 C   0  0  1  0  0  0  0  0  0  0  0  0
   -0.9684   -4.1174    6.1724 C   0  0  2  0  0  0  0  0  0  0  0  0
   -4.8171   -3.4582    3.7083 C   0  0  0  0  0  0  0  0  0  0  0  0
   -3.5680   -3.7512    4.5234 C   0  0  1  0  0  0  0  0  0  0  0  0
   -2.5263   -3.4141    3.5590 C   0  0  0  0  0  0  0  0  0  0  0  0
   -1.3783   -2.6195    4.1614 C   0  0  1  0  0  0  0  0  0  0  0  0
   -0.3942   -3.5146    4.8989 C   0  0  0  0  0  0  0  0  0  0  0  0
   -1.9121   -1.5316    5.0903 C   0  0  0  0  0  0  0  0  0  0  0  0
   -2.6431   -2.2084    6.2475 C   0  0  2  0  0  0  0  0  0  0  0  0
   -3.8449   -2.9856    5.7336 C   0  0  0  0  0  0  0  0  0  0  0  0
   -4.5717   -0.7102    0.3346 C   0  0  0  0  0  0  0  0  0  0  0  0
   -5.6334   -0.0998   -0.2411 C   0  0  0  0  0  0  0  0  0  0  0  0
   -6.6661    0.3219    0.5417 N   0  0  0  0  0  0  0  0  0  0  0  0
   -5.9560   -0.5881    4.8892 Ru  0  2  0  0  0  0  0  0  0  0  0  0
   -7.1170   -2.6240    1.0587 N   0  0  0  0  0  0  0  0  0  0  0  0
   -6.8658   -1.8575   -0.0017 C   0  0  0  0  0  0  0  0  0  0  0  0
   -6.3348   -0.6512    0.1442 C   0  0  0  0  0  0  0  0  0  0  0  0
   -6.0328   -0.1747    1.4373 C   0  0  0  0  0  0  0  0  0  0  0  0
   -6.2992   -0.9625    2.5048 C   0  0  0  0  0  0  0  0  0  0  0  0
   -6.8399   -2.1973    2.3048 C   0  0  0  0  0  0  0  0  0  0  0  0
   -7.0987   -2.9992    3.3728 C   0  0  0  0  0  0  0  0  0  0  0  0
   -7.6268   -4.2060    3.1739 C   0  0  0  0  0  0  0  0  0  0  0  0
   -7.8893   -5.0083    4.1965 C   0  0  0  0  0  0  0  0  0  0  0  0
   -7.6056   -4.5783    5.5099 C   0  0  0  0  0  0  0  0  0  0  0  0
   -7.0637   -3.3523    5.6955 C   0  0  0  0  0  0  0  0  0  0  0  0
   -6.8170   -2.5609    4.6138 N   0  0  0  0  0  0  0  0  0  0  0  0
   -4.9314    2.6138    1.7435 N   0  0  0  0  0  0  0  0  0  0  0  0
   -5.3755    3.8270    2.0687 C   0  0  0  0  0  0  0  0  0  0  0  0
   -6.0900    4.0150    3.1700 C   0  0  0  0  0  0  0  0  0  0  0  0
   -6.3828    2.9171    4.0061 C   0  0  0  0  0  0  0  0  0  0  0  0
   -5.9298    1.6899    3.6594 C   0  0  0  0  0  0  0  0  0  0  0  0
   -5.1944    1.5471    2.5210 C   0  0  0  0  0  0  0  0  0  0  0  0
   -4.7199    0.3211    2.1709 C   0  0  0  0  0  0  0  0  0  0  0  0
   -3.9981    0.1905    1.0588 C   0  0  0  0  0  0  0  0  0  0  0  0
   -3.5232   -0.9925    0.6935 C   0  0  0  0  0  0  0  0  0  0  0  0
   -3.7857   -2.1253    1.4924 C   0  0  0  0  0  0  0  0  0  0  0  0
   -4.5153   -1.9757    2.6222 C   0  0  0  0  0  0  0  0  0  0  0  0
   -4.9871   -0.7409    2.9535 N   0  0  0  0  0  0  0  0  0  0  0  0
   -7.6964    0.3028    3.9477 N   0  0  0  0  0  0  0  0  0  0  0  0
   -8.7680    0.6645    4.7079 C   0  0  0  0  0  0  0  0  0  0  0  0
   -9.8430    1.2301    4.1116 C   0  0  0  0  0  0  0  0  0  0  0  0
  -10.9844    2.0022    1.0215 H   0  0  0  0  0  0  0  0  0  0  0  0
  -11.4333    2.8048    2.5073 H   0  0  0  0  0  0  0  0  0  0  0  0
  -11.8874    1.1384    2.2428 H   0  0  0  0  0  0  0  0  0  0  0  0
   -8.7539    1.1886    0.9533 H   0  0  0  0  0  0  0  0  0  0  0  0
   -5.5991   -0.6285    3.5127 H   0  0  0  0  0  0  0  0  0  0  0  0
   -3.7369   -2.4743    2.9066 H   0  0  0  0  0  0  0  0  0  0  0  0
   -2.6664   -1.8591    1.6702 H   0  0  0  0  0  0  0  0  0  0  0  0
   -1.9408   -1.1319    3.8950 H   0  0  0  0  0  0  0  0  0  0  0  0
   -2.4258    0.2348    2.9204 H   0  0  0  0  0  0  0  0  0  0  0  0
   -3.3614    0.3969    5.1795 H   0  0  0  0  0  0  0  0  0  0  0  0
   -4.6299    0.2164    3.9914 H   0  0  0  0  0  0  0  0  0  0  0  0
   -5.0171   -1.2542    5.9131 H   0  0  0  0  0  0  0  0  0  0  0  0
   -4.7299   -2.1862    4.4633 H   0  0  0  0  0  0  0  0  0  0  0  0
   -3.4558   -3.0917    6.3507 H   0  0  0  0  0  0  0  0  0  0  0  0
   -2.3853   -2.4766    5.1143 H   0  0  0  0  0  0  0  0  0  0  0  0
   -1.6596   -1.7493    7.3392 H   0  0  0  0  0  0  0  0  0  0  0  0
   -2.1447   -0.3826    6.3645 H   0  0  0  0  0  0  0  0  0  0  0  0
   -3.0803   -0.2205    8.6236 H   0  0  0  0  0  0  0  0  0  0  0  0
   -4.3487   -0.4010    7.4355 H   0  0  0  0  0  0  0  0  0  0  0  0
   -4.7359   -1.8716    9.3572 H   0  0  0  0  0  0  0  0  0  0  0  0
   -4.4488   -2.8037    7.9074 H   0  0  0  0  0  0  0  0  0  0  0  0
   -0.9045   -3.7547    8.9450 H   0  0  0  0  0  0  0  0  0  0  0  0
   -1.1196   -2.2581    7.3848 H   0  0  0  0  0  0  0  0  0  0  0  0
   -0.3917   -4.8687    6.6702 H   0  0  0  0  0  0  0  0  0  0  0  0
   -5.8602   -3.5032    3.4740 H   0  0  0  0  0  0  0  0  0  0  0  0
   -5.4485   -3.1078    2.9187 H   0  0  0  0  0  0  0  0  0  0  0  0
   -3.2677   -4.7089    4.8943 H   0  0  0  0  0  0  0  0  0  0  0  0
   -2.9411   -4.3066    3.1392 H   0  0  0  0  0  0  0  0  0  0  0  0
   -2.1254   -2.7868    2.7905 H   0  0  0  0  0  0  0  0  0  0  0  0
   -0.8486   -2.1580    3.3543 H   0  0  0  0  0  0  0  0  0  0  0  0
    0.4192   -4.0924    5.2854 H   0  0  0  0  0  0  0  0  0  0  0  0
   -0.0563   -3.0696    3.9863 H   0  0  0  0  0  0  0  0  0  0  0  0
   -2.1602   -0.7135    5.7338 H   0  0  0  0  0  0  0  0  0  0  0  0
   -1.4923   -1.0768    4.2175 H   0  0  0  0  0  0  0  0  0  0  0  0
   -3.0079   -1.4565    6.9158 H   0  0  0  0  0  0  0  0  0  0  0  0
   -4.6442   -3.2019    6.4112 H   0  0  0  0  0  0  0  0  0  0  0  0
   -4.5618   -2.3211    5.2985 H   0  0  0  0  0  0  0  0  0  0  0  0
   -3.7464   -1.0408   -0.2608 H   0  0  0  0  0  0  0  0  0  0  0  0
   -5.6618    0.0501   -1.3002 H   0  0  0  0  0  0  0  0  0  0  0  0
   -7.0951   -2.2194   -0.9821 H   0  0  0  0  0  0  0  0  0  0  0  0
   -6.1365   -0.0430   -0.7136 H   0  0  0  0  0  0  0  0  0  0  0  0
   -5.5999    0.7945    1.5718 H   0  0  0  0  0  0  0  0  0  0  0  0
   -6.0874   -0.6193    3.4959 H   0  0  0  0  0  0  0  0  0  0  0  0
   -7.8417   -4.5315    2.1775 H   0  0  0  0  0  0  0  0  0  0  0  0
   -8.3137   -5.9757    4.0267 H   0  0  0  0  0  0  0  0  0  0  0  0
   -7.8156   -5.2118    6.3463 H   0  0  0  0  0  0  0  0  0  0  0  0
   -6.8313   -3.0077    6.6815 H   0  0  0  0  0  0  0  0  0  0  0  0
   -5.1531    4.6593    1.4341 H   0  0  0  0  0  0  0  0  0  0  0  0
   -6.4421    4.9932    3.4228 H   0  0  0  0  0  0  0  0  0  0  0  0
   -6.9543    3.0525    4.9005 H   0  0  0  0  0  0  0  0  0  0  0  0
   -6.1469    0.8405    4.2727 H   0  0  0  0  0  0  0  0  0  0  0  0
   -3.7993    1.0501    0.4533 H   0  0  0  0  0  0  0  0  0  0  0  0
   -2.9446   -1.0873   -0.2015 H   0  0  0  0  0  0  0  0  0  0  0  0
   -3.4136   -3.0878    1.2094 H   0  0  0  0  0  0  0  0  0  0  0  0
   -4.7198   -2.8184    3.2491 H   0  0  0  0  0  0  0  0  0  0  0  0
   -8.7594    0.5028    5.7656 H   0  0  0  0  0  0  0  0  0  0  0  0
  -10.6910    1.5296    4.6914 H   0  0  0  0  0  0  0  0  0  0  0  0
  1  2  1  0  0  0  0
  1 60  1  0  0  0  0
  1 61  1  0  0  0  0
  1 62  1  0  0  0  0
  2  3  2  0  0  0  0
  2 59  1  0  0  0  0
  3  4  1  0  0  0  0
  3 63  1  0  0  0  0
  4  5  2  0  0  0  0
  4 57  1  0  0  0  0
  5  6  1  0  0  0  0
  5 31  1  0  0  0  0
  6  7  2  0  0  0  0
  6 64  1  0  0  0  0
  7  8  1  0  0  0  0
  7 29  1  0  0  0  0
  8  9  1  0  0  0  0
  8 65  1  0  0  0  0
  8 66  1  0  0  0  0
  9 10  1  0  0  0  0
  9 67  1  0  0  0  0
  9 68  1  0  0  0  0
 10 11  1  0  0  0  0
 10 69  1  0  0  0  0
 10 70  1  0  0  0  0
 11 12  1  0  0  0  0
 11 71  1  0  0  0  0
 11 72  1  0  0  0  0
 12 13  1  0  0  0  0
 12 73  1  0  0  0  0
 12 74  1  0  0  0  0
 13 14  1  0  0  0  0
 13 75  1  0  0  0  0
 13 76  1  0  0  0  0
 14 15  1  0  0  0  0
 14 77  1  0  0  0  0
 14 78  1  0  0  0  0
 15 16  1  0  0  0  0
 15 79  1  0  0  0  0
 15 80  1  0  0  0  0
 16 17  2  0  0  0  0
 16 18  1  0  0  0  0
 18 81  1  0  0  0  0
 19 20  1  0  0  0  0
 19 27  1  0  0  0  0
 19 18  1  0  0  0  0
 19 82  1  1  0  0  0
 20 21  1  0  0  0  0
 20 25  1  0  0  0  0
 20 83  1  6  0  0  0
 21 84  1  0  0  0  0
 21 85  1  0  0  0  0
 22 21  1  0  0  0  0
 22 23  1  0  0  0  0
 22 28  1  0  0  0  0
 22 86  1  1  0  0  0
 23 87  1  0  0  0  0
 23 88  1  0  0  0  0
 24 23  1  0  0  0  0
 24 25  1  0  0  0  0
 24 26  1  0  0  0  0
 24 89  1  1  0  0  0
 25 90  1  0  0  0  0
 25 91  1  0  0  0  0
 26 92  1  0  0  0  0
 26 93  1  0  0  0  0
 27 26  1  0  0  0  0
 27 28  1  0  0  0  0
 27 94  1  6  0  0  0
 28 95  1  0  0  0  0
 28 96  1  0  0  0  0
 29 30  2  0  0  0  0
 29 97  1  0  0  0  0
 30 31  1  0  0  0  0
 30 98  1  0  0  0  0
 31 32  1  0  0  0  0
 33 32  1  0  0  0  0
 33 34  1  0  0  0  0
 33 38  1  0  0  0  0
 34 35  2  0  0  0  0
 34 99  1  0  0  0  0
 35 36  1  0  0  0  0
 35100  1  0  0  0  0
 36 37  2  0  0  0  0
 36101  1  0  0  0  0
 37 38  1  0  0  0  0
 37102  1  0  0  0  0
 38 39  2  0  0  0  0
 39 40  1  0  0  0  0
 39 44  1  0  0  0  0
 40 41  2  0  0  0  0
 40103  1  0  0  0  0
 41 42  1  0  0  0  0
 41104  1  0  0  0  0
 42 43  2  0  0  0  0
 42105  1  0  0  0  0
 43 44  1  0  0  0  0
 43106  1  0  0  0  0
 44 32  1  0  0  0  0
 45 32  1  0  0  0  0
 45 46  1  0  0  0  0
 45 50  1  0  0  0  0
 46 47  2  0  0  0  0
 46107  1  0  0  0  0
 47 48  1  0  0  0  0
 47108  1  0  0  0  0
 48 49  2  0  0  0  0
 48109  1  0  0  0  0
 49 50  1  0  0  0  0
 49110  1  0  0  0  0
 50 51  2  0  0  0  0
 51 52  1  0  0  0  0
 51 56  1  0  0  0  0
 52 53  2  0  0  0  0
 52111  1  0  0  0  0
 53 54  1  0  0  0  0
 53112  1  0  0  0  0
 54 55  2  0  0  0  0
 54113  1  0  0  0  0
 55 56  1  0  0  0  0
 55114  1  0  0  0  0
 56 32  1  0  0  0  0
 57 32  1  0  0  0  0
 57 58  1  0  0  0  0
 58 59  2  0  0  0  0
 58115  1  0  0  0  0
 59116  1  0  0  0  0
M  CHG  1  32   2
M  END
>  <DRUGBANK_ID>
DB01663

>  <SECONDARY_ACCESSION_NUMBERS>
EXPT02060

>  <COMMON_NAME>
lambda-bis(2,2'-bipyridine)-(5-methyl-2-2'-bipyridine)-C9-adamantane ruthenium (II)

$$$$
