
 OpenBabel10282417203D

 54 58  0  0  0  0  0  0  0  0999 V2000
    0.8553    0.1231    0.0272 C   0  0  0  0  0  0  0  0  0  0  0  0
    0.4326    1.4834    0.0798 O   0  0  0  0  0  0  0  0  0  0  0  0
    0.9264    2.2768    1.0870 C   0  0  0  0  0  0  0  0  0  0  0  0
   -0.0052    3.2184    1.5970 C   0  0  0  0  0  0  0  0  0  0  0  0
    0.3479    4.1955    2.5449 C   0  0  0  0  0  0  0  0  0  0  0  0
    1.6713    4.1962    2.9959 C   0  0  0  0  0  0  0  0  0  0  0  0
    2.5991    3.2660    2.5231 C   0  0  0  0  0  0  0  0  0  0  0  0
    2.2449    2.3229    1.5567 C   0  0  0  0  0  0  0  0  0  0  0  0
    3.5657    1.3669    0.9849 Cl  0  0  0  0  0  0  0  0  0  0  0  0
   -0.5473    5.1257    3.0229 N   0  0  0  0  0  0  0  0  0  0  0  0
   -0.3349    6.5677    2.8211 C   0  0  0  0  0  0  0  0  0  0  0  0
   -0.5355    7.2894    4.1491 C   0  0  0  0  0  0  0  0  0  0  0  0
   -1.8438    6.9590    4.7582 N   0  0  0  0  0  0  0  0  0  0  0  0
   -2.0208    5.5111    4.9665 C   0  0  0  0  0  0  0  0  0  0  0  0
   -1.8436    4.7634    3.6258 C   0  0  0  0  0  0  0  0  0  0  0  0
   -2.7021    7.8577    5.3828 C   0  0  0  0  0  0  0  0  0  0  0  0
   -3.7700    7.4835    5.8993 O   0  0  0  0  0  0  0  0  0  0  0  0
   -2.3731    9.3408    5.3644 C   0  0  0  0  0  0  0  0  0  0  0  0
   -1.2528    9.7316    6.2142 N   0  0  0  0  0  0  0  0  0  0  0  0
   -0.3219    8.9154    6.8134 C   0  0  0  0  0  0  0  0  0  0  0  0
    0.7011    9.7317    7.2437 C   0  0  0  0  0  0  0  0  0  0  0  0
    1.8138    9.1206    7.8451 C   0  0  0  0  0  0  0  0  0  0  0  0
    1.8710    7.7279    7.8519 C   0  0  0  0  0  0  0  0  0  0  0  0
    0.7951    7.0216    7.3580 C   0  0  0  0  0  0  0  0  0  0  0  0
   -0.3469    7.5764    6.9173 N   0  0  0  0  0  0  0  0  0  0  0  0
    0.2193   11.0364    7.0158 C   0  0  0  0  0  0  0  0  0  0  0  0
   -0.9938   11.0570    6.4333 N   0  0  0  0  0  0  0  0  0  0  0  0
    0.9411   12.2405    7.5049 C   0  0  0  0  0  0  0  0  0  0  0  0
    0.3802   13.1661    8.3449 N   0  0  0  0  0  0  0  0  0  0  0  0
    1.3722   14.0242    8.7367 C   0  0  0  0  0  0  0  0  0  0  0  0
    2.4922   13.6079    8.0579 C   0  0  0  0  0  0  0  0  0  0  0  0
    2.2339   12.4588    7.3591 N   0  0  0  0  0  0  0  0  0  0  0  0
    0.3691   -0.3492   -0.8330 H   0  0  0  0  0  0  0  0  0  0  0  0
    0.5595   -0.4170    0.9311 H   0  0  0  0  0  0  0  0  0  0  0  0
    1.9177    0.0002   -0.1690 H   0  0  0  0  0  0  0  0  0  0  0  0
   -1.0228    3.2158    1.2098 H   0  0  0  0  0  0  0  0  0  0  0  0
    1.9985    4.9137    3.7438 H   0  0  0  0  0  0  0  0  0  0  0  0
    3.6198    3.2934    2.8968 H   0  0  0  0  0  0  0  0  0  0  0  0
    0.6638    6.8045    2.4390 H   0  0  0  0  0  0  0  0  0  0  0  0
   -1.0761    6.9499    2.1115 H   0  0  0  0  0  0  0  0  0  0  0  0
    0.2555    6.9063    4.8007 H   0  0  0  0  0  0  0  0  0  0  0  0
   -0.3935    8.3644    4.0406 H   0  0  0  0  0  0  0  0  0  0  0  0
   -1.2480    5.1867    5.6800 H   0  0  0  0  0  0  0  0  0  0  0  0
   -2.9866    5.2825    5.4287 H   0  0  0  0  0  0  0  0  0  0  0  0
   -2.6425    5.0899    2.9512 H   0  0  0  0  0  0  0  0  0  0  0  0
   -1.9361    3.6859    3.7881 H   0  0  0  0  0  0  0  0  0  0  0  0
   -2.1817    9.6656    4.3339 H   0  0  0  0  0  0  0  0  0  0  0  0
   -3.2458    9.9049    5.7190 H   0  0  0  0  0  0  0  0  0  0  0  0
    2.6067    9.7175    8.2808 H   0  0  0  0  0  0  0  0  0  0  0  0
    2.7315    7.2022    8.2462 H   0  0  0  0  0  0  0  0  0  0  0  0
    0.8311    5.9382    7.2645 H   0  0  0  0  0  0  0  0  0  0  0  0
   -0.5631   13.1156    8.7041 H   0  0  0  0  0  0  0  0  0  0  0  0
    1.2016   14.8296    9.4358 H   0  0  0  0  0  0  0  0  0  0  0  0
    3.4788   14.0532    8.0610 H   0  0  0  0  0  0  0  0  0  0  0  0
  1  2  1  0  0  0  0
  1 33  1  0  0  0  0
  1 34  1  0  0  0  0
  1 35  1  0  0  0  0
  2  3  1  0  0  0  0
  3  4  2  0  0  0  0
  3  8  1  0  0  0  0
  4  5  1  0  0  0  0
  4 36  1  0  0  0  0
  5  6  2  0  0  0  0
  5 10  1  0  0  0  0
  6  7  1  0  0  0  0
  6 37  1  0  0  0  0
  7  8  2  0  0  0  0
  7 38  1  0  0  0  0
  8  9  1  0  0  0  0
 10 11  1  0  0  0  0
 10 15  1  0  0  0  0
 11 12  1  0  0  0  0
 11 39  1  0  0  0  0
 11 40  1  0  0  0  0
 12 13  1  0  0  0  0
 12 41  1  0  0  0  0
 12 42  1  0  0  0  0
 13 14  1  0  0  0  0
 13 16  1  0  0  0  0
 14 15  1  0  0  0  0
 14 43  1  0  0  0  0
 14 44  1  0  0  0  0
 15 45  1  0  0  0  0
 15 46  1  0  0  0  0
 16 17  2  0  0  0  0
 16 18  1  0  0  0  0
 18 19  1  0  0  0  0
 18 47  1  0  0  0  0
 18 48  1  0  0  0  0
 19 20  1  0  0  0  0
 19 27  1  0  0  0  0
 20 21  1  0  0  0  0
 20 25  2  0  0  0  0
 21 22  2  0  0  0  0
 21 26  1  0  0  0  0
 22 23  1  0  0  0  0
 22 49  1  0  0  0  0
 23 24  2  0  0  0  0
 23 50  1  0  0  0  0
 24 25  1  0  0  0  0
 24 51  1  0  0  0  0
 26 27  2  0  0  0  0
 26 28  1  0  0  0  0
 28 29  1  0  0  0  0
 28 32  2  0  0  0  0
 29 30  1  0  0  0  0
 29 52  1  0  0  0  0
 30 31  2  0  0  0  0
 30 53  1  0  0  0  0
 31 32  1  0  0  0  0
 31 54  1  0  0  0  0
M  END
>  <DRUGBANK_ID>
DB12963

>  <COMMON_NAME>
CCX-354

>  <CAS_NUMBER>
1010073-75-2

>  <UNII>
22PQS5K5TY

$$$$
