
 OpenBabel10282417203D

 42 43  0  0  0  0  0  0  0  0999 V2000
    0.6973    1.3063   -0.2383 C   0  0  2  0  0  0  0  0  0  0  0  0
    1.4346    0.1954    0.5314 C   0  0  1  0  0  0  0  0  0  0  0  0
   -0.8005    1.3353    0.2206 C   0  0  0  0  0  0  0  0  0  0  0  0
    0.8043    0.9413   -1.7209 O   0  0  0  0  0  0  0  0  0  0  0  0
   -0.8576   -1.1025    0.5174 N   0  0  0  0  0  0  0  0  0  0  0  0
    0.5577   -1.0933    0.1508 C   0  0  0  0  0  0  0  0  0  0  0  0
    1.3558    0.0164   -2.5583 C   0  0  0  0  0  0  0  0  0  0  0  0
    1.3432    2.6988   -0.0765 C   0  0  0  0  0  0  0  0  0  0  0  0
   -1.5348    0.0431   -0.1016 C   0  0  0  0  0  0  0  0  0  0  0  0
    1.2358    0.2824   -3.7888 O   0  0  0  0  0  0  0  0  0  0  0  0
    3.0052    0.3662    0.3103 C   0  0  0  0  0  0  0  0  0  0  0  0
   -0.9302   -1.2198    1.9525 C   0  0  0  0  0  0  0  0  0  0  0  0
    1.9751   -1.4275   -2.2410 C   0  0  0  0  0  0  0  0  0  0  0  0
    2.5813    2.8747   -0.7152 C   0  0  0  0  0  0  0  0  0  0  0  0
    0.8428    3.8207    0.5852 C   0  0  0  0  0  0  0  0  0  0  0  0
    3.1274   -1.7508   -1.2950 C   0  0  0  0  0  0  0  0  0  0  0  0
    3.4262    3.9394   -0.5295 C   0  0  0  0  0  0  0  0  0  0  0  0
    1.5518    5.0341    0.4719 C   0  0  0  0  0  0  0  0  0  0  0  0
    2.8600    5.0790   -0.0308 C   0  0  0  0  0  0  0  0  0  0  0  0
    1.3613    0.3134    1.6118 H   0  0  0  0  0  0  0  0  0  0  0  0
   -0.8506    1.4866    1.3099 H   0  0  0  0  0  0  0  0  0  0  0  0
   -1.3531    2.1670   -0.2287 H   0  0  0  0  0  0  0  0  0  0  0  0
    0.3387   -1.1323   -0.8999 H   0  0  0  0  0  0  0  0  0  0  0  0
    1.0019   -2.0550    0.4118 H   0  0  0  0  0  0  0  0  0  0  0  0
   -1.5580   -0.0721   -1.1993 H   0  0  0  0  0  0  0  0  0  0  0  0
   -2.5925    0.0772    0.1850 H   0  0  0  0  0  0  0  0  0  0  0  0
    3.4186    1.2575    0.7960 H   0  0  0  0  0  0  0  0  0  0  0  0
    3.6848   -0.3947    0.7013 H   0  0  0  0  0  0  0  0  0  0  0  0
    3.2441    0.4798   -0.7530 H   0  0  0  0  0  0  0  0  0  0  0  0
   -0.3931   -0.4129    2.4512 H   0  0  0  0  0  0  0  0  0  0  0  0
   -1.9599   -1.2428    2.2996 H   0  0  0  0  0  0  0  0  0  0  0  0
   -0.4476   -2.1626    2.2402 H   0  0  0  0  0  0  0  0  0  0  0  0
    1.1870   -2.1586   -2.0227 H   0  0  0  0  0  0  0  0  0  0  0  0
    2.3172   -1.8002   -3.2083 H   0  0  0  0  0  0  0  0  0  0  0  0
    2.9453    2.1319   -1.4040 H   0  0  0  0  0  0  0  0  0  0  0  0
   -0.1183    3.8297    1.0979 H   0  0  0  0  0  0  0  0  0  0  0  0
    2.7967   -1.6597   -0.2719 H   0  0  0  0  0  0  0  0  0  0  0  0
    3.4502   -2.7896   -1.2162 H   0  0  0  0  0  0  0  0  0  0  0  0
    4.0106   -1.1429   -1.5078 H   0  0  0  0  0  0  0  0  0  0  0  0
    4.4344    3.8693   -0.9222 H   0  0  0  0  0  0  0  0  0  0  0  0
    1.0632    5.9722    0.7171 H   0  0  0  0  0  0  0  0  0  0  0  0
    3.4121    6.0050   -0.1354 H   0  0  0  0  0  0  0  0  0  0  0  0
  1  8  1  0  0  0  0
  1  4  1  6  0  0  0
  2  1  1  0  0  0  0
  2 11  1  0  0  0  0
  2 20  1  1  0  0  0
  3  1  1  0  0  0  0
  3 21  1  0  0  0  0
  3 22  1  0  0  0  0
  5  9  1  0  0  0  0
  5  6  1  0  0  0  0
  6  2  1  0  0  0  0
  6 23  1  0  0  0  0
  6 24  1  0  0  0  0
  7  4  1  0  0  0  0
  9  3  1  0  0  0  0
  9 25  1  0  0  0  0
  9 26  1  0  0  0  0
 10  7  2  0  0  0  0
 11 27  1  0  0  0  0
 11 28  1  0  0  0  0
 11 29  1  0  0  0  0
 12  5  1  0  0  0  0
 12 30  1  0  0  0  0
 12 31  1  0  0  0  0
 12 32  1  0  0  0  0
 13  7  1  0  0  0  0
 13 33  1  0  0  0  0
 13 34  1  0  0  0  0
 14  8  2  0  0  0  0
 14 35  1  0  0  0  0
 15  8  1  0  0  0  0
 15 36  1  0  0  0  0
 16 13  1  0  0  0  0
 16 37  1  0  0  0  0
 16 38  1  0  0  0  0
 16 39  1  0  0  0  0
 17 14  1  0  0  0  0
 17 40  1  0  0  0  0
 18 15  2  0  0  0  0
 18 19  1  0  0  0  0
 18 41  1  0  0  0  0
 19 17  2  0  0  0  0
 19 42  1  0  0  0  0
M  END
>  <DRUGBANK_ID>
DB13160

>  <COMMON_NAME>
Alphaprodine

>  <CAS_NUMBER>
77-20-3

>  <UNII>
001O2254AC

>  <SYNONYMS>
Alphaprodine; dl-alpha-prodine

$$$$
