
 OpenBabel10282417183D

  3  0  0  0  0  0  0  0  0  0999 V2000
    1.0136   -0.0883   -0.0449 Na  0  3  0  0  0  0  0  0  0  0  0  0
    1.0937   -0.0283    0.0204 Na  0  3  0  0  0  0  0  0  0  0  0  0
    0.9685   -0.0444    0.0839 S   0  6  0  0  0  0  0  0  0  0  0  0
M  CHG  3   1   1   2   1   3  -2
M  END
>  <DRUGBANK_ID>
DB11159

>  <COMMON_NAME>
Sodium sulfide

>  <CAS_NUMBER>
1313-82-2

>  <UNII>
YGR27ZW0Y7

$$$$
