
 OpenBabel10282417143D

 13 12  0  0  0  0  0  0  0  0999 V2000
    0.7540   -0.0564    0.0376 O   0  0  0  0  0  0  0  0  0  0  0  0
    0.4333   -1.2208   -0.7168 C   0  0  0  0  0  0  0  0  0  0  0  0
    1.0104   -1.1705   -2.1360 C   0  0  0  0  0  0  0  0  0  0  0  0
    2.5208   -1.1580   -2.1666 C   0  0  0  0  0  0  0  0  0  0  0  0
    3.3337   -2.6592   -2.9315 Br  0  0  0  0  0  0  0  0  0  0  0  0
    3.2643   -0.1405   -1.7009 C   0  0  0  0  0  0  0  0  0  0  0  0
    1.6872   -0.1413    0.3018 H   0  0  0  0  0  0  0  0  0  0  0  0
    0.7848   -2.1018   -0.1697 H   0  0  0  0  0  0  0  0  0  0  0  0
   -0.6586   -1.2693   -0.7681 H   0  0  0  0  0  0  0  0  0  0  0  0
    0.6183   -2.0347   -2.6887 H   0  0  0  0  0  0  0  0  0  0  0  0
    0.6392   -0.2793   -2.6574 H   0  0  0  0  0  0  0  0  0  0  0  0
    2.8009    0.7548   -1.2987 H   0  0  0  0  0  0  0  0  0  0  0  0
    4.3476   -0.1712   -1.7025 H   0  0  0  0  0  0  0  0  0  0  0  0
  1  2  1  0  0  0  0
  1  7  1  0  0  0  0
  2  3  1  0  0  0  0
  2  8  1  0  0  0  0
  2  9  1  0  0  0  0
  3  4  1  0  0  0  0
  3 10  1  0  0  0  0
  3 11  1  0  0  0  0
  4  5  1  0  0  0  0
  4  6  2  0  0  0  0
  6 12  1  0  0  0  0
  6 13  1  0  0  0  0
M  END
>  <DRUGBANK_ID>
DB04592

>  <COMMON_NAME>
3-Bromo-3-buten-1-ol

>  <CAS_NUMBER>
76334-36-6

>  <UNII>
T4HW642ALH

$$$$
