
 OpenBabel10282417183D

 18 16  0  0  0  0  0  0  0  0999 V2000
    1.5492   -0.3067   -0.0636 C   0  0  0  0  0  0  0  0  0  0  0  0
    1.4168   -1.2659    2.3226 C   0  0  0  0  0  0  0  0  0  0  0  0
    0.7062   -1.2587    0.9033 C   0  0  0  0  0  0  0  0  0  0  0  0
    1.3764    1.1281    0.0284 O   0  0  0  0  0  0  0  0  0  0  0  0
    1.8584    0.0175    2.8189 O   0  0  0  0  0  0  0  0  0  0  0  0
   -0.0067    0.8834    1.7215 O   0  5  0  0  0  0  0  0  0  0  0  0
   -1.8164    0.6422   -0.0103 O   0  5  0  0  0  0  0  0  0  0  0  0
   -1.9274    1.7075    2.0135 O   0  0  0  0  0  0  0  0  0  0  0  0
   -0.8346   -1.1562    0.8506 O   0  0  0  0  0  0  0  0  0  0  0  0
   -1.4113    0.3550    1.4643 P   0  0  0  0  0  0  0  0  0  0  0  0
   -0.5642    1.8901   -0.7155 Ca  0  2  0  0  0  0  0  0  0  0  0  0
    1.3422   -0.5436   -1.1046 H   0  0  0  0  0  0  0  0  0  0  0  0
    2.6206   -0.4481    0.1199 H   0  0  0  0  0  0  0  0  0  0  0  0
    0.7894   -1.7076    3.0993 H   0  0  0  0  0  0  0  0  0  0  0  0
    2.3420   -1.8332    2.2356 H   0  0  0  0  0  0  0  0  0  0  0  0
    0.8753   -2.2713    0.5165 H   0  0  0  0  0  0  0  0  0  0  0  0
    1.1752    1.2188    1.0232 H   0  0  0  0  0  0  0  0  0  0  0  0
    1.0616    0.5554    2.8146 H   0  0  0  0  0  0  0  0  0  0  0  0
  1 12  1  0  0  0  0
  1 13  1  0  0  0  0
  2 14  1  0  0  0  0
  2 15  1  0  0  0  0
  3  1  1  0  0  0  0
  3  2  1  0  0  0  0
  3 16  1  0  0  0  0
  4  1  1  0  0  0  0
  4 17  1  0  0  0  0
  5  2  1  0  0  0  0
  5 18  1  0  0  0  0
  9  3  1  0  0  0  0
 10  6  1  0  0  0  0
 10  7  1  0  0  0  0
 10  8  2  0  0  0  0
 10  9  1  0  0  0  0
M  CHG  3   6  -1   7  -1  11   2
M  END
>  <DRUGBANK_ID>
DB11264

>  <SECONDARY_ACCESSION_NUMBERS>
DBSALT002553

>  <COMMON_NAME>
Calcium glycerophosphate

>  <CAS_NUMBER>
27214-00-2

>  <UNII>
Y56W30YB7O

>  <SYNONYMS>
1,2,3-Propanetriol, mono(dihydrogen phosphate) calcium salt; 1,2,3-Propanetriol, mono(dihydrogen phosphate), calcium salt; Calcium beta-glycerophosphate; calcium β-glycerophosphate; β-glycerophosphoric acid calcium salt

$$$$
