
 OpenBabel10282417113D

127132  0  0  1  0  0  0  0  0999 V2000
    1.1122    1.4565    1.0835 C   0  0  0  0  0  0  0  0  0  0  0  0
    0.6041   -0.1732    0.1903 C   0  0  0  0  0  0  0  0  0  0  0  0
   -0.8620   -0.5061   -0.0427 C   0  0  0  0  0  0  0  0  0  0  0  0
   -1.8176   -1.6881   -0.0130 C   0  0  0  0  0  0  0  0  0  0  0  0
   -1.6613    0.6237   -0.0266 C   0  0  0  0  0  0  0  0  0  0  0  0
   -1.5836    1.2430    4.1832 C   0  0  1  0  0  0  0  0  0  0  0  0
   -1.0865    1.9006   -0.0102 C   0  0  0  0  0  0  0  0  0  0  0  0
    0.3223    2.0570    0.0211 C   0  0  0  0  0  0  0  0  0  0  0  0
   -1.0569    1.4902    5.5913 C   0  0  2  0  0  0  0  0  0  0  0  0
   -1.0123    2.9350    5.8415 C   0  0  1  0  0  0  0  0  0  0  0  0
    0.1115    3.9455    7.2350 C   0  0  1  0  0  0  0  0  0  0  0  0
   -0.4470    2.9471    7.1624 C   0  0  1  0  0  0  0  0  0  0  0  0
    0.4769    4.9385    8.8685 C   0  0  1  0  0  0  0  0  0  0  0  0
    1.6721    4.3645    8.9830 O   0  0  0  0  0  0  0  0  0  0  0  0
    0.7323    6.5655    8.9359 C   0  0  2  0  0  0  0  0  0  0  0  0
   -0.1113    7.6403    7.9746 C   0  0  0  0  0  0  0  0  0  0  0  0
   -2.5290    8.4108   10.2541 C   0  0  0  0  0  0  0  0  0  0  0  0
   -2.4800    8.6554    9.1729 C   0  0  0  0  0  0  0  0  0  0  0  0
   -0.6916    8.4890    9.0418 C   0  0  0  0  0  0  0  0  0  0  0  0
   -1.2435    6.6410    8.9725 C   0  0  0  0  0  0  0  0  0  0  0  0
    1.3054    2.6408    2.9166 C   0  0  0  0  0  0  0  0  0  0  0  0
    0.8381    3.3717    5.1433 C   0  0  0  0  0  0  0  0  0  0  0  0
   -0.1848    5.2197    6.9539 N   0  0  0  0  0  0  0  0  0  0  0  0
   -1.5728   -2.8872   -0.0027 O   0  0  0  0  0  0  0  0  0  0  0  0
   -1.8238   -0.1863    3.8798 C   0  0  2  0  0  0  0  0  0  0  0  0
   -2.3024   -0.5458    2.6082 C   0  0  0  0  0  0  0  0  0  0  0  0
   -3.4650   -1.1586    2.4114 C   0  0  0  0  0  0  0  0  0  0  0  0
   -3.9758   -1.4249    1.1577 O   0  0  0  0  0  0  0  0  0  0  0  0
   -3.2064   -1.0492    0.0104 C   0  0  1  0  0  0  0  0  0  0  0  0
   -3.0019    0.3548   -0.0118 O   0  0  0  0  0  0  0  0  0  0  0  0
   -3.9809   -1.4293   -1.2283 C   0  0  0  0  0  0  0  0  0  0  0  0
   -4.2948    9.9322   10.4025 C   0  0  0  0  0  0  0  0  0  0  0  0
   -2.9307   -0.7746    4.8426 O   0  0  0  0  0  0  0  0  0  0  0  0
   -3.6763    0.1997    5.3640 C   0  0  0  0  0  0  0  0  0  0  0  0
   -2.8749    1.9790    3.9625 C   0  0  0  0  0  0  0  0  0  0  0  0
    1.0757    5.2341    6.1631 C   0  0  0  0  0  0  0  0  0  0  0  0
    1.6273    7.1121    7.9982 C   0  0  0  0  0  0  0  0  0  0  0  0
    0.2009    0.8135    5.7835 O   0  0  0  0  0  0  0  0  0  0  0  0
   -1.2744    2.7737    8.1594 O   0  0  0  0  0  0  0  0  0  0  0  0
    0.3178   -0.5659    5.6818 C   0  0  0  0  0  0  0  0  0  0  0  0
   -0.8585   -1.4583    5.4424 C   0  0  0  0  0  0  0  0  0  0  0  0
    1.3952   -1.1308    5.8040 O   0  0  0  0  0  0  0  0  0  0  0  0
    2.4928    2.4362    1.1822 O   0  0  0  0  0  0  0  0  0  0  0  0
    0.8633    3.3431   -0.0192 O   0  0  0  0  0  0  0  0  0  0  0  0
   -0.6547    3.5112    4.5674 C   0  0  0  0  0  0  0  0  0  0  0  0
   -1.4959    7.6325   10.5949 O   0  0  0  0  0  0  0  0  0  0  0  0
    1.4415    1.2739    3.3906 C   0  0  0  0  0  0  0  0  0  0  0  0
    1.2975   -0.2894    1.6761 C   0  0  0  0  0  0  0  0  0  0  0  0
    0.9182   -2.1141    0.4935 O   0  0  0  0  0  0  0  0  0  0  0  0
    2.4879   -0.6932    1.8697 C   0  0  0  0  0  0  0  0  0  0  0  0
    2.8379   -2.5245    0.8076 N   0  0  0  0  0  0  0  0  0  0  0  0
    3.6327   -4.5070    0.1582 N   0  0  0  0  0  0  0  0  0  0  0  0
    4.9733   -5.1430    0.8311 C   0  0  0  0  0  0  0  0  0  0  0  0
    6.1781   -5.5073   -0.0214 C   0  0  0  0  0  0  0  0  0  0  0  0
    6.0025   -6.7080   -0.8486 N   0  0  3  0  0  0  0  0  0  0  0  0
    4.8187   -6.4956   -1.6890 C   0  0  0  0  0  0  0  0  0  0  0  0
    3.5674   -6.1295   -0.8697 C   0  0  0  0  0  0  0  0  0  0  0  0
    5.8007   -7.8740    0.0215 C   0  0  0  0  0  0  0  0  0  0  0  0
    4.5752   -7.7942    0.9046 C   0  0  0  0  0  0  0  0  0  0  0  0
    4.7687   -8.5692    2.1399 C   0  0  0  0  0  0  0  0  0  0  0  0
    6.2914   -8.8443    2.1839 C   0  0  0  0  0  0  0  0  0  0  0  0
    6.9001   -7.9789    1.0884 C   0  0  0  0  0  0  0  0  0  0  0  0
   -1.9301    3.1345   -0.0015 C   0  0  0  0  0  0  0  0  0  0  0  0
   -0.8747    1.5979    3.4612 H   0  0  0  0  0  0  0  0  0  0  0  0
   -1.7198    1.1390    6.3440 H   0  0  0  0  0  0  0  0  0  0  0  0
   -1.8484    3.5090    5.6893 H   0  0  0  0  0  0  0  0  0  0  0  0
   -1.4351    4.9110    7.0415 H   0  0  0  0  0  0  0  0  0  0  0  0
    0.6024    2.7414    7.3254 H   0  0  0  0  0  0  0  0  0  0  0  0
   -0.3337    4.6699    9.5174 H   0  0  0  0  0  0  0  0  0  0  0  0
    1.5033    3.4220    8.8322 H   0  0  0  0  0  0  0  0  0  0  0  0
    0.9399    6.7655    9.9632 H   0  0  0  0  0  0  0  0  0  0  0  0
   -1.2590    7.2513    7.6818 H   0  0  0  0  0  0  0  0  0  0  0  0
   -3.2071    8.6223    8.6034 H   0  0  0  0  0  0  0  0  0  0  0  0
   -0.2654    8.1244   10.4442 H   0  0  0  0  0  0  0  0  0  0  0  0
   -0.7088    6.0388    8.4927 H   0  0  0  0  0  0  0  0  0  0  0  0
   -0.8128   -0.6255    3.9744 H   0  0  0  0  0  0  0  0  0  0  0  0
   -1.7074   -0.2374    1.8025 H   0  0  0  0  0  0  0  0  0  0  0  0
   -4.0610   -1.4672    3.2777 H   0  0  0  0  0  0  0  0  0  0  0  0
   -3.4517   -1.1209   -2.1211 H   0  0  0  0  0  0  0  0  0  0  0  0
   -4.1130   -2.5021   -1.2496 H   0  0  0  0  0  0  0  0  0  0  0  0
   -4.9577   -0.9581   -1.2244 H   0  0  0  0  0  0  0  0  0  0  0  0
   -5.2012    9.7475   11.1480 H   0  0  0  0  0  0  0  0  0  0  0  0
   -4.3581   11.1703   10.5557 H   0  0  0  0  0  0  0  0  0  0  0  0
   -4.8787    9.9277    9.4297 H   0  0  0  0  0  0  0  0  0  0  0  0
   -3.1258    1.0575    5.7891 H   0  0  0  0  0  0  0  0  0  0  0  0
   -4.2470    0.4715    4.4630 H   0  0  0  0  0  0  0  0  0  0  0  0
   -4.3089   -0.1334    6.0968 H   0  0  0  0  0  0  0  0  0  0  0  0
   -3.6226    1.7603    4.6517 H   0  0  0  0  0  0  0  0  0  0  0  0
   -2.7831    3.0119    4.1285 H   0  0  0  0  0  0  0  0  0  0  0  0
   -3.2805    1.7533    3.0069 H   0  0  0  0  0  0  0  0  0  0  0  0
    1.4999    5.8946    6.6371 H   0  0  0  0  0  0  0  0  0  0  0  0
    1.6651    4.5495    6.1072 H   0  0  0  0  0  0  0  0  0  0  0  0
    0.2542    5.7550    5.5294 H   0  0  0  0  0  0  0  0  0  0  0  0
    1.2945    7.1030    6.9845 H   0  0  0  0  0  0  0  0  0  0  0  0
    1.6784    8.1744    8.0084 H   0  0  0  0  0  0  0  0  0  0  0  0
    2.5352    6.6419    8.1720 H   0  0  0  0  0  0  0  0  0  0  0  0
   -1.1237    1.8150    8.1560 H   0  0  0  0  0  0  0  0  0  0  0  0
   -0.8067   -1.9874    4.4429 H   0  0  0  0  0  0  0  0  0  0  0  0
   -1.1532   -2.1002    6.1549 H   0  0  0  0  0  0  0  0  0  0  0  0
   -1.5534   -0.7228    5.4702 H   0  0  0  0  0  0  0  0  0  0  0  0
    2.5421    3.0761    0.0720 H   0  0  0  0  0  0  0  0  0  0  0  0
    0.2871    4.1178   -0.0021 H   0  0  0  0  0  0  0  0  0  0  0  0
    0.3843    4.6700    4.8450 H   0  0  0  0  0  0  0  0  0  0  0  0
    0.4497    2.2738    4.3583 H   0  0  0  0  0  0  0  0  0  0  0  0
   -0.4845    3.8642    3.6962 H   0  0  0  0  0  0  0  0  0  0  0  0
    1.2915   -3.5044    0.0582 H   0  0  0  0  0  0  0  0  0  0  0  0
    3.6904   -1.7633    0.7379 H   0  0  0  0  0  0  0  0  0  0  0  0
    5.1480   -4.3237    1.4304 H   0  0  0  0  0  0  0  0  0  0  0  0
    4.9186   -5.8497    1.6372 H   0  0  0  0  0  0  0  0  0  0  0  0
    6.3548   -4.6645   -0.6610 H   0  0  0  0  0  0  0  0  0  0  0  0
    7.0401   -5.6423    0.6190 H   0  0  0  0  0  0  0  0  0  0  0  0
    4.9951   -5.6605   -2.3507 H   0  0  0  0  0  0  0  0  0  0  0  0
    4.6452   -7.3876   -2.2885 H   0  0  0  0  0  0  0  0  0  0  0  0
    3.3591   -6.9643   -0.2802 H   0  0  0  0  0  0  0  0  0  0  0  0
    2.7343   -6.0603   -1.4933 H   0  0  0  0  0  0  0  0  0  0  0  0
    5.7460   -8.7393   -0.6407 H   0  0  0  0  0  0  0  0  0  0  0  0
    4.2668   -6.8538    1.0964 H   0  0  0  0  0  0  0  0  0  0  0  0
    3.6788   -8.1056    0.4230 H   0  0  0  0  0  0  0  0  0  0  0  0
    4.3980   -8.0762    3.0365 H   0  0  0  0  0  0  0  0  0  0  0  0
    4.1949   -9.4846    2.0483 H   0  0  0  0  0  0  0  0  0  0  0  0
    6.7243   -8.6379    3.1591 H   0  0  0  0  0  0  0  0  0  0  0  0
    6.5008   -9.8920    1.9852 H   0  0  0  0  0  0  0  0  0  0  0  0
    7.8342   -8.3603    0.7014 H   0  0  0  0  0  0  0  0  0  0  0  0
    7.1429   -7.0045    1.4960 H   0  0  0  0  0  0  0  0  0  0  0  0
   -1.7216    3.7300    0.8828 H   0  0  0  0  0  0  0  0  0  0  0  0
   -1.7219    3.7321   -0.8801 H   0  0  0  0  0  0  0  0  0  0  0  0
   -2.9742    2.8645    0.0010 H   0  0  0  0  0  0  0  0  0  0  0  0
  1  2  2  0  0  0  0
  1  8  1  0  0  0  0
  2 48  1  0  0  0  0
  3  2  1  0  0  0  0
  3  5  2  0  0  0  0
  4  3  1  0  0  0  0
  4 24  2  0  0  0  0
  5  7  1  0  0  0  0
  6 35  1  0  0  0  0
  6 25  1  0  0  0  0
  6 64  1  6  0  0  0
  7  8  2  0  0  0  0
  7 63  1  0  0  0  0
  8 44  1  0  0  0  0
  9 38  1  0  0  0  0
  9  6  1  0  0  0  0
  9 65  1  1  0  0  0
 10  9  1  0  0  0  0
 10 66  1  1  0  0  0
 10 45  1  0  0  0  0
 11 12  1  0  0  0  0
 11 67  1  6  0  0  0
 11 36  1  0  0  0  0
 12 10  1  0  0  0  0
 12 68  1  1  0  0  0
 12 39  1  0  0  0  0
 13 14  1  0  0  0  0
 13 11  1  0  0  0  0
 13 69  1  1  0  0  0
 14 70  1  0  0  0  0
 15 13  1  0  0  0  0
 15 71  1  1  0  0  0
 15 37  1  0  0  0  0
 16 15  1  0  0  0  0
 16 72  1  0  0  0  0
 17 32  1  0  0  0  0
 17 18  2  0  0  0  0
 18 19  1  0  0  0  0
 18 73  1  0  0  0  0
 19 16  2  0  0  0  0
 19 74  1  0  0  0  0
 20 17  1  0  0  0  0
 20 46  2  0  0  0  0
 21 43  1  0  0  0  0
 21  1  1  0  0  0  0
 21 22  2  0  0  0  0
 22 23  1  0  0  0  0
 23 20  1  0  0  0  0
 23 75  1  0  0  0  0
 25 76  1  1  0  0  0
 25 33  1  0  0  0  0
 26 25  1  0  0  0  0
 26 27  2  0  0  0  0
 26 77  1  0  0  0  0
 27 28  1  0  0  0  0
 27 78  1  0  0  0  0
 28 29  1  0  0  0  0
 29  4  1  0  0  0  0
 29 31  1  6  0  0  0
 29 30  1  0  0  0  0
 30  5  1  0  0  0  0
 31 79  1  0  0  0  0
 31 80  1  0  0  0  0
 31 81  1  0  0  0  0
 32 82  1  0  0  0  0
 32 83  1  0  0  0  0
 32 84  1  0  0  0  0
 33 34  1  0  0  0  0
 34 85  1  0  0  0  0
 34 86  1  0  0  0  0
 34 87  1  0  0  0  0
 35 88  1  0  0  0  0
 35 89  1  0  0  0  0
 35 90  1  0  0  0  0
 36 91  1  0  0  0  0
 36 92  1  0  0  0  0
 36 93  1  0  0  0  0
 37 94  1  0  0  0  0
 37 95  1  0  0  0  0
 37 96  1  0  0  0  0
 38 40  1  0  0  0  0
 39 97  1  0  0  0  0
 40 41  1  0  0  0  0
 40 42  2  0  0  0  0
 41 98  1  0  0  0  0
 41 99  1  0  0  0  0
 41100  1  0  0  0  0
 43101  1  0  0  0  0
 44102  1  0  0  0  0
 45103  1  0  0  0  0
 45104  1  0  0  0  0
 45105  1  0  0  0  0
 47 22  1  0  0  0  0
 47 48  2  0  0  0  0
 47 50  1  0  0  0  0
 48 49  1  0  0  0  0
 49106  1  0  0  0  0
 50 51  2  0  0  0  0
 50107  1  0  0  0  0
 51 52  1  0  0  0  0
 52 53  1  0  0  0  0
 53 54  1  0  0  0  0
 53108  1  0  0  0  0
 53109  1  0  0  0  0
 54 55  1  0  0  0  0
 54110  1  0  0  0  0
 54111  1  0  0  0  0
 55 56  1  0  0  0  0
 55 58  1  0  0  0  0
 56 57  1  0  0  0  0
 56112  1  0  0  0  0
 56113  1  0  0  0  0
 57 52  1  0  0  0  0
 57114  1  0  0  0  0
 57115  1  0  0  0  0
 58 59  1  0  0  0  0
 58116  1  0  0  0  0
 59 60  1  0  0  0  0
 59117  1  0  0  0  0
 59118  1  0  0  0  0
 60 61  1  0  0  0  0
 60119  1  0  0  0  0
 60120  1  0  0  0  0
 61 62  1  0  0  0  0
 61121  1  0  0  0  0
 61122  1  0  0  0  0
 62 58  1  0  0  0  0
 62123  1  0  0  0  0
 62124  1  0  0  0  0
 63125  1  0  0  0  0
 63126  1  0  0  0  0
 63127  1  0  0  0  0
M  END
>  <DRUGBANK_ID>
DB01201

>  <SECONDARY_ACCESSION_NUMBERS>
APRD01217

>  <COMMON_NAME>
Rifapentine

>  <CAS_NUMBER>
61379-65-5

>  <UNII>
XJM390A33U

>  <SYNONYMS>
3-(((4-Cyclopentyl-1-piperazinyl)imino)methyl)rifamycin; Cyclopentylrifampicin; Rifapentin; Rifapentine

$$$$
