
 OpenBabel10282417163D

 47 50  0  0  0  0  0  0  0  0999 V2000
    1.2878   -1.4209   -0.0589 C   0  0  0  0  0  0  0  0  0  0  0  0
    2.4725   -0.6850   -0.0276 C   0  0  0  0  0  0  0  0  0  0  0  0
    2.4515    0.7079    0.0450 C   0  0  0  0  0  0  0  0  0  0  0  0
    1.2291    1.3803    0.0825 C   0  0  0  0  0  0  0  0  0  0  0  0
    0.0389    0.6438    0.0258 C   0  0  0  0  0  0  0  0  0  0  0  0
    0.0542   -0.7657   -0.0381 C   0  0  0  0  0  0  0  0  0  0  0  0
   -1.2417   -1.4795   -0.0359 C   0  0  0  0  0  0  0  0  0  0  0  0
   -1.2681    1.3528   -0.0459 C   0  0  0  0  0  0  0  0  0  0  0  0
   -2.3377    0.5738   -0.4082 N   0  0  0  0  0  0  0  0  0  0  0  0
   -2.4445   -0.6388    0.2115 C   0  0  0  0  0  0  0  0  0  0  0  0
   -3.4016   -0.9863    0.8962 O   0  0  0  0  0  0  0  0  0  0  0  0
   -1.3823    2.5409    0.2232 O   0  0  0  0  0  0  0  0  0  0  0  0
    4.1206   -1.6086   -0.0758 Br  0  0  0  0  0  0  0  0  0  0  0  0
   -1.4282   -2.7685   -0.3885 C   0  0  0  0  0  0  0  0  0  0  0  0
   -2.6027   -3.4839   -0.5046 N   0  0  0  0  0  0  0  0  0  0  0  0
   -2.7497   -4.8463   -0.8170 C   0  0  0  0  0  0  0  0  0  0  0  0
   -1.8965   -5.8271   -0.3182 C   0  0  0  0  0  0  0  0  0  0  0  0
   -3.7460   -5.2491   -1.7168 C   0  0  0  0  0  0  0  0  0  0  0  0
   -3.7863   -6.5565   -2.2267 C   0  0  0  0  0  0  0  0  0  0  0  0
   -2.8067   -7.4813   -1.8605 C   0  0  0  0  0  0  0  0  0  0  0  0
   -1.9736   -7.1477   -0.7842 C   0  0  0  0  0  0  0  0  0  0  0  0
   -2.5439   -8.7216   -2.7056 C   0  0  0  0  0  0  0  0  0  0  0  0
   -1.3168   -8.7129   -3.5460 N   0  0  0  0  0  0  0  0  0  0  0  0
   -0.0652   -8.5929   -2.7908 C   0  0  0  0  0  0  0  0  0  0  0  0
   -1.2777   -7.6548   -4.5680 C   0  0  0  0  0  0  0  0  0  0  0  0
   -0.1988   -6.6493   -4.1613 C   0  0  0  0  0  0  0  0  0  0  0  0
    0.2819   -7.1121   -2.8072 C   0  0  0  0  0  0  0  0  0  0  0  0
    1.3385   -2.5047   -0.0952 H   0  0  0  0  0  0  0  0  0  0  0  0
    3.3796    1.2741    0.0652 H   0  0  0  0  0  0  0  0  0  0  0  0
    1.2083    2.4683    0.1312 H   0  0  0  0  0  0  0  0  0  0  0  0
   -3.2000    1.0976   -0.4371 H   0  0  0  0  0  0  0  0  0  0  0  0
   -0.5773   -3.3592   -0.7194 H   0  0  0  0  0  0  0  0  0  0  0  0
   -3.4593   -3.0108   -0.2207 H   0  0  0  0  0  0  0  0  0  0  0  0
   -1.1095   -5.5726    0.3868 H   0  0  0  0  0  0  0  0  0  0  0  0
   -4.4533   -4.5194   -2.1010 H   0  0  0  0  0  0  0  0  0  0  0  0
   -4.5459   -6.8224   -2.9582 H   0  0  0  0  0  0  0  0  0  0  0  0
   -1.2181   -7.8488   -0.4375 H   0  0  0  0  0  0  0  0  0  0  0  0
   -2.5170   -9.6008   -2.0495 H   0  0  0  0  0  0  0  0  0  0  0  0
   -3.3999   -8.9008   -3.3725 H   0  0  0  0  0  0  0  0  0  0  0  0
    0.7272   -9.1355   -3.3209 H   0  0  0  0  0  0  0  0  0  0  0  0
   -0.1184   -9.0527   -1.7992 H   0  0  0  0  0  0  0  0  0  0  0  0
   -2.2483   -7.1717   -4.7209 H   0  0  0  0  0  0  0  0  0  0  0  0
   -0.9969   -8.0876   -5.5364 H   0  0  0  0  0  0  0  0  0  0  0  0
   -0.6056   -5.6330   -4.1107 H   0  0  0  0  0  0  0  0  0  0  0  0
    0.6433   -6.6544   -4.8586 H   0  0  0  0  0  0  0  0  0  0  0  0
   -0.2530   -6.5064   -2.0899 H   0  0  0  0  0  0  0  0  0  0  0  0
    1.3307   -6.9123   -2.5838 H   0  0  0  0  0  0  0  0  0  0  0  0
  1  2  1  0  0  0  0
  1  6  2  0  0  0  0
  1 28  1  0  0  0  0
  2  3  2  0  0  0  0
  2 13  1  0  0  0  0
  3  4  1  0  0  0  0
  3 29  1  0  0  0  0
  4  5  2  0  0  0  0
  4 30  1  0  0  0  0
  5  6  1  0  0  0  0
  5  8  1  0  0  0  0
  6  7  1  0  0  0  0
  7 10  1  0  0  0  0
  7 14  2  0  0  0  0
  8  9  1  0  0  0  0
  8 12  2  0  0  0  0
  9 10  1  0  0  0  0
  9 31  1  0  0  0  0
 10 11  2  0  0  0  0
 14 15  1  0  0  0  0
 14 32  1  0  0  0  0
 15 16  1  0  0  0  0
 15 33  1  0  0  0  0
 16 17  1  0  0  0  0
 16 18  2  0  0  0  0
 17 21  2  0  0  0  0
 17 34  1  0  0  0  0
 18 19  1  0  0  0  0
 18 35  1  0  0  0  0
 19 20  2  0  0  0  0
 19 36  1  0  0  0  0
 20 21  1  0  0  0  0
 20 22  1  0  0  0  0
 21 37  1  0  0  0  0
 22 23  1  0  0  0  0
 22 38  1  0  0  0  0
 22 39  1  0  0  0  0
 23 24  1  0  0  0  0
 23 25  1  0  0  0  0
 24 27  1  0  0  0  0
 24 40  1  0  0  0  0
 24 41  1  0  0  0  0
 25 26  1  0  0  0  0
 25 42  1  0  0  0  0
 25 43  1  0  0  0  0
 26 27  1  0  0  0  0
 26 44  1  0  0  0  0
 26 45  1  0  0  0  0
 27 46  1  0  0  0  0
 27 47  1  0  0  0  0
M  END
>  <DRUGBANK_ID>
DB07156

>  <COMMON_NAME>
(4Z)-6-bromo-4-({[4-(pyrrolidin-1-ylmethyl)phenyl]amino}methylidene)isoquinoline-1,3(2H,4H)-dione

$$$$
