
 OpenBabel10282417223D

 49 53  0  0  0  0  0  0  0  0999 V2000
   -1.2036    1.4298    0.3421 C   0  0  1  0  0  0  0  0  0  0  0  0
   -2.4167    0.5807    0.1507 C   0  0  0  0  0  0  0  0  0  0  0  0
    0.0951    0.6067    0.4493 C   0  0  0  0  0  0  0  0  0  0  0  0
   -2.4338   -0.7489    0.1245 C   0  0  0  0  0  0  0  0  0  0  0  0
    0.0875   -0.8096    0.3252 C   0  0  0  0  0  0  0  0  0  0  0  0
   -1.1003    2.4464   -0.7929 C   0  0  0  0  0  0  0  0  0  0  0  0
   -3.8089    0.9989   -0.0654 C   0  0  0  0  0  0  0  0  0  0  0  0
    1.3221    1.3189    0.4737 C   0  0  0  0  0  0  0  0  0  0  0  0
   -0.9870    4.4002   -2.8042 C   0  0  0  0  0  0  0  0  0  0  0  0
   -1.2226   -1.5932    0.3442 C   0  0  0  0  0  0  0  0  0  0  0  0
   -4.5105   -0.0619   -0.5355 O   0  0  0  0  0  0  0  0  0  0  0  0
   -2.0446    4.3931   -1.8769 C   0  0  0  0  0  0  0  0  0  0  0  0
    0.0089    3.4162   -2.7314 C   0  0  0  0  0  0  0  0  0  0  0  0
    2.4752    0.6361    0.1933 C   0  0  0  0  0  0  0  0  0  0  0  0
    2.4797   -0.7281    0.0623 C   0  0  0  0  0  0  0  0  0  0  0  0
   -2.0261    3.4812   -0.8371 C   0  0  0  0  0  0  0  0  0  0  0  0
   -0.1219    2.4014   -1.7969 C   0  0  0  0  0  0  0  0  0  0  0  0
    1.3192   -1.4804    0.1731 C   0  0  0  0  0  0  0  0  0  0  0  0
   -3.7937   -1.2365   -0.1696 C   0  0  0  0  0  0  0  0  0  0  0  0
    3.6801    1.2046   -0.0776 O   0  0  0  0  0  0  0  0  0  0  0  0
    3.7294   -1.1917   -0.2276 O   0  0  0  0  0  0  0  0  0  0  0  0
    4.3961    0.0509   -0.5549 C   0  0  0  0  0  0  0  0  0  0  0  0
   -4.3164    2.0856    0.1770 O   0  0  0  0  0  0  0  0  0  0  0  0
   -0.8337    5.3181   -3.8010 O   0  0  0  0  0  0  0  0  0  0  0  0
    1.1619    3.2984   -3.4688 O   0  0  0  0  0  0  0  0  0  0  0  0
   -3.0473    5.3072   -2.0111 O   0  0  0  0  0  0  0  0  0  0  0  0
   -1.8165    6.3086   -3.9821 C   0  0  0  0  0  0  0  0  0  0  0  0
    1.3777    4.2793   -4.4693 C   0  0  0  0  0  0  0  0  0  0  0  0
   -4.1775    5.2419   -1.1595 C   0  0  0  0  0  0  0  0  0  0  0  0
   -1.2916    1.9526    1.3049 H   0  0  0  0  0  0  0  0  0  0  0  0
    1.3437    2.4071    0.4896 H   0  0  0  0  0  0  0  0  0  0  0  0
   -1.3081   -2.0732    1.3258 H   0  0  0  0  0  0  0  0  0  0  0  0
   -1.1912   -2.3730   -0.4245 H   0  0  0  0  0  0  0  0  0  0  0  0
   -2.7616    3.5536   -0.0488 H   0  0  0  0  0  0  0  0  0  0  0  0
    0.6245    1.6118   -1.8443 H   0  0  0  0  0  0  0  0  0  0  0  0
    1.3661   -2.5597    0.0793 H   0  0  0  0  0  0  0  0  0  0  0  0
   -4.2921   -1.6427    0.7137 H   0  0  0  0  0  0  0  0  0  0  0  0
   -3.8298   -1.9457   -0.9975 H   0  0  0  0  0  0  0  0  0  0  0  0
    5.4049    0.0630   -0.1286 H   0  0  0  0  0  0  0  0  0  0  0  0
    4.4820    0.1136   -1.6488 H   0  0  0  0  0  0  0  0  0  0  0  0
   -2.7696    5.8459   -4.2554 H   0  0  0  0  0  0  0  0  0  0  0  0
   -1.8797    6.9520   -3.0993 H   0  0  0  0  0  0  0  0  0  0  0  0
   -1.4975    6.9296   -4.8178 H   0  0  0  0  0  0  0  0  0  0  0  0
    0.5910    4.2091   -5.2269 H   0  0  0  0  0  0  0  0  0  0  0  0
    1.4583    5.2801   -4.0288 H   0  0  0  0  0  0  0  0  0  0  0  0
    2.3249    4.0753   -4.9707 H   0  0  0  0  0  0  0  0  0  0  0  0
   -4.7243    4.3033   -1.2891 H   0  0  0  0  0  0  0  0  0  0  0  0
   -3.8883    5.4098   -0.1187 H   0  0  0  0  0  0  0  0  0  0  0  0
   -4.8383    6.0605   -1.4555 H   0  0  0  0  0  0  0  0  0  0  0  0
  1  6  1  0  0  0  0
  1 30  1  1  0  0  0
  2  1  1  0  0  0  0
  3  1  1  0  0  0  0
  4  2  2  0  0  0  0
  4 10  1  0  0  0  0
  5  3  2  0  0  0  0
  7  2  1  0  0  0  0
  8  3  1  0  0  0  0
  8 31  1  0  0  0  0
  9 13  2  0  0  0  0
  9 12  1  0  0  0  0
 10  5  1  0  0  0  0
 10 32  1  0  0  0  0
 10 33  1  0  0  0  0
 11  7  1  0  0  0  0
 12 16  2  0  0  0  0
 13 17  1  0  0  0  0
 14  8  2  0  0  0  0
 15 18  2  0  0  0  0
 15 14  1  0  0  0  0
 16  6  1  0  0  0  0
 16 34  1  0  0  0  0
 17  6  2  0  0  0  0
 17 35  1  0  0  0  0
 18  5  1  0  0  0  0
 18 36  1  0  0  0  0
 19  4  1  0  0  0  0
 19 11  1  0  0  0  0
 19 37  1  0  0  0  0
 19 38  1  0  0  0  0
 20 14  1  0  0  0  0
 21 15  1  0  0  0  0
 22 20  1  0  0  0  0
 22 21  1  0  0  0  0
 22 39  1  0  0  0  0
 22 40  1  0  0  0  0
 23  7  2  0  0  0  0
 24  9  1  0  0  0  0
 25 13  1  0  0  0  0
 26 12  1  0  0  0  0
 27 24  1  0  0  0  0
 27 41  1  0  0  0  0
 27 42  1  0  0  0  0
 27 43  1  0  0  0  0
 28 25  1  0  0  0  0
 28 44  1  0  0  0  0
 28 45  1  0  0  0  0
 28 46  1  0  0  0  0
 29 26  1  0  0  0  0
 29 47  1  0  0  0  0
 29 48  1  0  0  0  0
 29 49  1  0  0  0  0
M  END
>  <DRUGBANK_ID>
DB15590

>  <COMMON_NAME>
beta-Apopicropodophyllin

>  <CAS_NUMBER>
477-52-1

>  <SYNONYMS>
beta-Apopicropodophyllin; Î²-apopicropodophyllin

$$$$
