OLO
 OpenBabel10282417123D

 40 42  0  0  0  0  0  0  0  0999 V2000
    1.5251   -0.3410    0.0048 N   0  0  0  0  0  0  0  0  0  0  0  0
    1.8912    0.9772    0.0003 C   0  0  0  0  0  0  0  0  0  0  0  0
    0.8453    1.7774    0.0045 N   0  0  0  0  0  0  0  0  0  0  0  0
   -0.2471    0.9288    0.0088 C   0  0  0  0  0  0  0  0  0  0  0  0
    0.1594   -0.3935   -0.0051 C   0  0  0  0  0  0  0  0  0  0  0  0
   -1.6331    1.1595    0.0262 C   0  0  0  0  0  0  0  0  0  0  0  0
   -2.4404    0.0706   -0.0048 N   0  0  0  0  0  0  0  0  0  0  0  0
   -1.9267   -1.1721   -0.0305 C   0  0  0  0  0  0  0  0  0  0  0  0
   -0.6222   -1.4865   -0.0189 N   0  0  0  0  0  0  0  0  0  0  0  0
    2.4133   -1.4726    0.0430 C   0  0  0  0  0  0  0  0  0  0  0  0
   -2.7942   -2.2321   -0.1101 N   0  0  0  0  0  0  0  0  0  0  0  0
   -4.2312   -2.0445   -0.0734 C   0  0  0  0  0  0  0  0  0  0  0  0
   -4.8510   -2.6187   -1.3490 C   0  0  0  0  0  0  0  0  0  0  0  0
   -4.6344   -4.0276   -1.4241 O   0  0  0  0  0  0  0  0  0  0  0  0
   -2.1735    2.4264    0.0518 N   0  0  0  0  0  0  0  0  0  0  0  0
   -3.5928    2.6563    0.1682 C   0  0  0  0  0  0  0  0  0  0  0  0
   -4.7580    2.9307    2.4092 C   0  0  0  0  0  0  0  0  0  0  0  0
   -5.1507    3.7216    3.4933 C   0  0  0  0  0  0  0  0  0  0  0  0
   -4.7175    5.0430    3.5881 C   0  0  0  0  0  0  0  0  0  0  0  0
   -3.8726    5.5682    2.6133 C   0  0  0  0  0  0  0  0  0  0  0  0
   -3.4636    4.7741    1.5414 C   0  0  0  0  0  0  0  0  0  0  0  0
   -3.9261    3.4564    1.4079 C   0  0  0  0  0  0  0  0  0  0  0  0
    2.9256    1.2984    0.0010 H   0  0  0  0  0  0  0  0  0  0  0  0
    2.2166   -2.0383    0.9576 H   0  0  0  0  0  0  0  0  0  0  0  0
    2.2333   -2.0936   -0.8381 H   0  0  0  0  0  0  0  0  0  0  0  0
    3.4501   -1.1254    0.0433 H   0  0  0  0  0  0  0  0  0  0  0  0
   -2.3718   -3.1380    0.0053 H   0  0  0  0  0  0  0  0  0  0  0  0
   -4.6326   -2.5624    0.8044 H   0  0  0  0  0  0  0  0  0  0  0  0
   -4.5308   -0.9936    0.0078 H   0  0  0  0  0  0  0  0  0  0  0  0
   -5.9304   -2.4432   -1.3560 H   0  0  0  0  0  0  0  0  0  0  0  0
   -4.4196   -2.1555   -2.2432 H   0  0  0  0  0  0  0  0  0  0  0  0
   -3.6690   -4.1452   -1.4517 H   0  0  0  0  0  0  0  0  0  0  0  0
   -1.5232    3.1974    0.1228 H   0  0  0  0  0  0  0  0  0  0  0  0
   -3.9273    3.2356   -0.7018 H   0  0  0  0  0  0  0  0  0  0  0  0
   -4.1876    1.7350    0.1458 H   0  0  0  0  0  0  0  0  0  0  0  0
   -5.1129    1.9038    2.3487 H   0  0  0  0  0  0  0  0  0  0  0  0
   -5.8023    3.3105    4.2604 H   0  0  0  0  0  0  0  0  0  0  0  0
   -5.0312    5.6618    4.4246 H   0  0  0  0  0  0  0  0  0  0  0  0
   -3.5362    6.5991    2.6807 H   0  0  0  0  0  0  0  0  0  0  0  0
   -2.7885    5.1916    0.7988 H   0  0  0  0  0  0  0  0  0  0  0  0
  1  2  1  0  0  0  0
  1  5  1  0  0  0  0
  1 10  1  0  0  0  0
  2  3  2  0  0  0  0
  2 23  1  0  0  0  0
  3  4  1  0  0  0  0
  4  5  2  0  0  0  0
  4  6  1  0  0  0  0
  5  9  1  0  0  0  0
  6  7  2  0  0  0  0
  6 15  1  0  0  0  0
  7  8  1  0  0  0  0
  8  9  2  0  0  0  0
  8 11  1  0  0  0  0
 10 24  1  0  0  0  0
 10 25  1  0  0  0  0
 10 26  1  0  0  0  0
 11 12  1  0  0  0  0
 11 27  1  0  0  0  0
 12 13  1  0  0  0  0
 12 28  1  0  0  0  0
 12 29  1  0  0  0  0
 13 14  1  0  0  0  0
 13 30  1  0  0  0  0
 13 31  1  0  0  0  0
 14 32  1  0  0  0  0
 15 16  1  0  0  0  0
 15 33  1  0  0  0  0
 16 22  1  0  0  0  0
 16 34  1  0  0  0  0
 16 35  1  0  0  0  0
 17 18  2  0  0  0  0
 17 22  1  0  0  0  0
 17 36  1  0  0  0  0
 18 19  1  0  0  0  0
 18 37  1  0  0  0  0
 19 20  2  0  0  0  0
 19 38  1  0  0  0  0
 20 21  1  0  0  0  0
 20 39  1  0  0  0  0
 21 22  2  0  0  0  0
 21 40  1  0  0  0  0
M  END
>  <DRUGBANK_ID>
DB02116

>  <SECONDARY_ACCESSION_NUMBERS>
EXPT02433

>  <COMMON_NAME>
Olomoucine

>  <CAS_NUMBER>
101622-51-9

>  <UNII>
6A839B2HYS

$$$$
