
 OpenBabel10282417153D

 72 75  0  0  1  0  0  0  0  0999 V2000
    1.1264    0.1851   -0.0990 S   0  0  0  0  0  0  0  0  0  0  0  0
    0.8736    1.0569    1.0284 O   0  0  0  0  0  0  0  0  0  0  0  0
    0.6125    0.5119   -1.4077 O   0  0  0  0  0  0  0  0  0  0  0  0
    6.9564    0.4040    0.1247 O   0  0  0  0  0  0  0  0  0  0  0  0
    5.9127   -5.3383   -2.6675 O   0  0  0  0  0  0  0  0  0  0  0  0
   -1.7134   -2.3039    1.7852 N   0  0  0  0  0  0  0  0  0  0  0  0
    0.6221   -1.3746    0.2677 N   0  0  0  0  0  0  0  0  0  0  0  0
    6.5091   -3.1869    0.4930 N   0  0  0  0  0  0  0  0  0  0  0  0
    7.8367   -6.0225   -0.3088 N   0  0  0  0  0  0  0  0  0  0  0  0
    8.5606   -5.9122    0.8575 N   0  0  0  0  0  0  0  0  0  0  0  0
    5.4889   -3.3543   -1.5744 N   0  0  0  0  0  0  0  0  0  0  0  0
   -1.1406   -1.3053    2.7013 C   0  0  3  0  0  0  0  0  0  0  0  0
   -1.7532    0.0017    2.1836 C   0  0  0  0  0  0  0  0  0  0  0  0
   -3.0405   -0.3887    1.4802 C   0  0  0  0  0  0  0  0  0  0  0  0
   -3.1057   -1.9009    1.5910 C   0  0  0  0  0  0  0  0  0  0  0  0
    0.3934   -1.3208    2.7339 C   0  0  0  0  0  0  0  0  0  0  0  0
    1.0332   -1.9982    1.5311 C   0  0  0  0  0  0  0  0  0  0  0  0
   -1.6019   -3.6741    2.2747 C   0  0  0  0  0  0  0  0  0  0  0  0
    2.8889    0.0836   -0.2143 C   0  0  0  0  0  0  0  0  0  0  0  0
    3.6039   -1.1343   -0.2848 C   0  0  0  0  0  0  0  0  0  0  0  0
    5.0074   -1.1545   -0.3527 C   0  0  0  0  0  0  0  0  0  0  0  0
    3.5414    1.3036   -0.0726 C   0  0  0  0  0  0  0  0  0  0  0  0
    7.2063   -4.2619    0.4689 C   0  0  0  0  0  0  0  0  0  0  0  0
    5.7051   -2.6466   -0.4975 C   0  0  0  0  0  0  0  0  0  0  0  0
    5.6281    0.1101   -0.0423 C   0  0  0  0  0  0  0  0  0  0  0  0
    8.0805   -4.8053    1.4412 C   0  0  0  0  0  0  0  0  0  0  0  0
    7.0096   -5.0020   -0.6181 C   0  0  0  0  0  0  0  0  0  0  0  0
    4.8889    1.2901    0.1874 C   0  0  0  0  0  0  0  0  0  0  0  0
    8.5331   -4.2862    2.8417 C   0  0  0  0  0  0  0  0  0  0  0  0
    6.1161   -4.6057   -1.6796 C   0  0  0  0  0  0  0  0  0  0  0  0
    8.2000   -5.1934    4.0283 C   0  0  0  0  0  0  0  0  0  0  0  0
    8.0155   -7.1381   -1.1766 C   0  0  0  0  0  0  0  0  0  0  0  0
    7.6921   -0.7528    0.3338 C   0  0  0  0  0  0  0  0  0  0  0  0
    8.8624   -6.5356    3.8391 C   0  0  0  0  0  0  0  0  0  0  0  0
    7.3112   -1.3241    1.7587 C   0  0  0  0  0  0  0  0  0  0  0  0
    5.6366   -1.7503    2.2760 C   0  0  0  0  0  0  0  0  0  0  0  0
   -0.3934   -1.4936    0.1191 H   0  0  0  0  0  0  0  0  0  0  0  0
    6.4800   -3.0590    1.4660 H   0  0  0  0  0  0  0  0  0  0  0  0
   -1.5074   -1.4601    3.7244 H   0  0  0  0  0  0  0  0  0  0  0  0
   -1.8976    0.7368    2.9818 H   0  0  0  0  0  0  0  0  0  0  0  0
   -1.1628    0.4934    1.4224 H   0  0  0  0  0  0  0  0  0  0  0  0
   -3.9070    0.1031    1.9284 H   0  0  0  0  0  0  0  0  0  0  0  0
   -2.9841   -0.0779    0.4277 H   0  0  0  0  0  0  0  0  0  0  0  0
   -3.5332   -2.3501    0.6898 H   0  0  0  0  0  0  0  0  0  0  0  0
   -3.7141   -2.1771    2.4577 H   0  0  0  0  0  0  0  0  0  0  0  0
    0.7406   -1.8350    3.6369 H   0  0  0  0  0  0  0  0  0  0  0  0
    0.7860   -0.3062    2.8339 H   0  0  0  0  0  0  0  0  0  0  0  0
    0.7744   -3.0573    1.4489 H   0  0  0  0  0  0  0  0  0  0  0  0
    2.1118   -2.0275    1.6586 H   0  0  0  0  0  0  0  0  0  0  0  0
   -2.1082   -3.8097    3.2315 H   0  0  0  0  0  0  0  0  0  0  0  0
   -1.9999   -4.3677    1.5282 H   0  0  0  0  0  0  0  0  0  0  0  0
   -0.5672   -3.9877    2.4402 H   0  0  0  0  0  0  0  0  0  0  0  0
    3.0785   -2.0790   -0.2117 H   0  0  0  0  0  0  0  0  0  0  0  0
    3.0014    2.2471   -0.1382 H   0  0  0  0  0  0  0  0  0  0  0  0
    5.3695    2.1964    0.5641 H   0  0  0  0  0  0  0  0  0  0  0  0
    9.6104   -4.0593    2.8411 H   0  0  0  0  0  0  0  0  0  0  0  0
    8.0622   -3.3390    3.1305 H   0  0  0  0  0  0  0  0  0  0  0  0
    8.5478   -4.7466    4.9760 H   0  0  0  0  0  0  0  0  0  0  0  0
    7.1128   -5.2954    4.1241 H   0  0  0  0  0  0  0  0  0  0  0  0
    7.0257   -7.5834   -1.2852 H   0  0  0  0  0  0  0  0  0  0  0  0
    8.3816   -6.7119   -2.1108 H   0  0  0  0  0  0  0  0  0  0  0  0
    8.7273   -7.8161   -0.7154 H   0  0  0  0  0  0  0  0  0  0  0  0
    7.6104   -1.3832   -0.5731 H   0  0  0  0  0  0  0  0  0  0  0  0
    8.7721   -0.5469    0.2811 H   0  0  0  0  0  0  0  0  0  0  0  0
    9.9462   -6.4064    3.7501 H   0  0  0  0  0  0  0  0  0  0  0  0
    8.6333   -7.2162    4.6566 H   0  0  0  0  0  0  0  0  0  0  0  0
    8.4960   -7.0125    2.9314 H   0  0  0  0  0  0  0  0  0  0  0  0
    8.0266   -2.1583    1.7257 H   0  0  0  0  0  0  0  0  0  0  0  0
    7.7158   -0.7670    2.5921 H   0  0  0  0  0  0  0  0  0  0  0  0
    4.9582   -2.3798    1.6226 H   0  0  0  0  0  0  0  0  0  0  0  0
    5.6477   -2.4996    3.0847 H   0  0  0  0  0  0  0  0  0  0  0  0
    4.9969   -0.8917    2.3919 H   0  0  0  0  0  0  0  0  0  0  0  0
  1  2  2  0  0  0  0
  1  3  2  0  0  0  0
  1  7  1  0  0  0  0
  1 19  1  0  0  0  0
  4 25  1  0  0  0  0
  4 33  1  0  0  0  0
  5 30  2  0  0  0  0
  6 12  1  0  0  0  0
  6 15  1  0  0  0  0
  6 18  1  0  0  0  0
  7 17  1  0  0  0  0
  7 37  1  0  0  0  0
  8 23  1  0  0  0  0
  8 24  1  0  0  0  0
  8 38  1  0  0  0  0
  9 10  1  0  0  0  0
  9 27  1  0  0  0  0
  9 32  1  0  0  0  0
 10 26  2  0  0  0  0
 11 24  2  0  0  0  0
 11 30  1  0  0  0  0
 12 13  1  0  0  0  0
 12 16  1  0  0  0  0
 12 39  1  0  0  0  0
 13 14  1  0  0  0  0
 13 40  1  0  0  0  0
 13 41  1  0  0  0  0
 14 15  1  0  0  0  0
 14 42  1  0  0  0  0
 14 43  1  0  0  0  0
 15 44  1  0  0  0  0
 15 45  1  0  0  0  0
 16 17  1  0  0  0  0
 16 46  1  0  0  0  0
 16 47  1  0  0  0  0
 17 48  1  0  0  0  0
 17 49  1  0  0  0  0
 18 50  1  0  0  0  0
 18 51  1  0  0  0  0
 18 52  1  0  0  0  0
 19 20  2  0  0  0  0
 19 22  1  0  0  0  0
 20 21  1  0  0  0  0
 20 53  1  0  0  0  0
 21 24  1  0  0  0  0
 21 25  2  0  0  0  0
 22 28  2  0  0  0  0
 22 54  1  0  0  0  0
 23 26  1  0  0  0  0
 23 27  2  0  0  0  0
 25 28  1  0  0  0  0
 26 29  1  0  0  0  0
 27 30  1  0  0  0  0
 28 55  1  0  0  0  0
 29 31  1  0  0  0  0
 29 56  1  0  0  0  0
 29 57  1  0  0  0  0
 31 34  1  0  0  0  0
 31 58  1  0  0  0  0
 31 59  1  0  0  0  0
 32 60  1  0  0  0  0
 32 61  1  0  0  0  0
 32 62  1  0  0  0  0
 33 35  1  0  0  0  0
 33 63  1  0  0  0  0
 33 64  1  0  0  0  0
 34 65  1  0  0  0  0
 34 66  1  0  0  0  0
 34 67  1  0  0  0  0
 35 36  1  0  0  0  0
 35 68  1  0  0  0  0
 35 69  1  0  0  0  0
 36 70  1  0  0  0  0
 36 71  1  0  0  0  0
 36 72  1  0  0  0  0
M  END
>  <DRUGBANK_ID>
DB06267

>  <COMMON_NAME>
Udenafil

>  <CAS_NUMBER>
268203-93-6

>  <UNII>
L5IB4XLY36

>  <SYNONYMS>
Udenafil

$$$$
