BHM
 OpenBabel10282417163D

 31 31  0  0  0  0  0  0  0  0999 V2000
    0.9576    0.1803    0.1178 Br  0  0  0  0  0  0  0  0  0  0  0  0
    2.8944    0.0565    0.1059 C   0  0  0  0  0  0  0  0  0  0  0  0
    3.4642   -0.4490   -1.2248 C   0  0  1  0  0  0  0  0  0  0  0  0
    3.0207    0.3928   -2.2971 O   0  0  0  0  0  0  0  0  0  0  0  0
    4.9592   -0.1969   -1.0563 C   0  0  0  0  0  0  0  0  0  0  0  0
    3.0932   -1.9641   -1.5110 C   0  0  0  0  0  0  0  0  0  0  0  0
    2.4479   -2.6266   -0.6911 O   0  0  0  0  0  0  0  0  0  0  0  0
    3.3743   -2.5698   -2.7283 N   0  0  0  0  0  0  0  0  0  0  0  0
    4.2355   -2.1299   -3.7440 C   0  0  0  0  0  0  0  0  0  0  0  0
    5.5229   -1.7343   -3.4157 C   0  0  0  0  0  0  0  0  0  0  0  0
    3.8837   -2.1319   -5.0844 C   0  0  0  0  0  0  0  0  0  0  0  0
    4.7659   -1.5640   -6.0243 C   0  0  0  0  0  0  0  0  0  0  0  0
    5.9302   -0.8785   -5.6057 C   0  0  0  0  0  0  0  0  0  0  0  0
    6.7200   -0.1536   -6.6217 N   0  3  0  0  0  0  0  0  0  0  0  0
    6.3612   -0.2407   -7.7952 O   0  0  0  0  0  0  0  0  0  0  0  0
    7.7057    0.5009   -6.2477 O   0  5  0  0  0  0  0  0  0  0  0  0
    6.3160   -0.9447   -4.2683 C   0  0  0  0  0  0  0  0  0  0  0  0
    7.5044   -0.2204   -3.6782 C   0  0  0  0  0  0  0  0  0  0  0  0
    8.6814   -0.7060   -4.1413 F   0  0  0  0  0  0  0  0  0  0  0  0
    7.4832    1.1241   -3.8827 F   0  0  0  0  0  0  0  0  0  0  0  0
    7.5864   -0.3473   -2.3181 F   0  0  0  0  0  0  0  0  0  0  0  0
    3.2216    1.0891    0.2859 H   0  0  0  0  0  0  0  0  0  0  0  0
    3.2142   -0.5632    0.9495 H   0  0  0  0  0  0  0  0  0  0  0  0
    2.0456    0.3503   -2.3017 H   0  0  0  0  0  0  0  0  0  0  0  0
    5.4586   -1.0140   -0.5244 H   0  0  0  0  0  0  0  0  0  0  0  0
    5.3993    0.0028   -2.0204 H   0  0  0  0  0  0  0  0  0  0  0  0
    5.2031    0.7427   -0.5522 H   0  0  0  0  0  0  0  0  0  0  0  0
    2.8656   -3.4365   -2.8760 H   0  0  0  0  0  0  0  0  0  0  0  0
    5.8923   -1.9860   -2.4240 H   0  0  0  0  0  0  0  0  0  0  0  0
    2.9249   -2.5207   -5.4202 H   0  0  0  0  0  0  0  0  0  0  0  0
    4.5259   -1.6435   -7.0829 H   0  0  0  0  0  0  0  0  0  0  0  0
  1  2  1  0  0  0  0
  2  3  1  0  0  0  0
  2 22  1  0  0  0  0
  2 23  1  0  0  0  0
  3  4  1  6  0  0  0
  3  5  1  0  0  0  0
  3  6  1  0  0  0  0
  4 24  1  0  0  0  0
  5 25  1  0  0  0  0
  5 26  1  0  0  0  0
  5 27  1  0  0  0  0
  6  7  2  0  0  0  0
  6  8  1  0  0  0  0
  8  9  1  0  0  0  0
  8 28  1  0  0  0  0
  9 10  2  0  0  0  0
  9 11  1  0  0  0  0
 10 17  1  0  0  0  0
 10 29  1  0  0  0  0
 11 12  2  0  0  0  0
 11 30  1  0  0  0  0
 12 13  1  0  0  0  0
 12 31  1  0  0  0  0
 13 14  1  0  0  0  0
 13 17  2  0  0  0  0
 14 15  2  0  0  0  0
 14 16  1  0  0  0  0
 17 18  1  0  0  0  0
 18 19  1  0  0  0  0
 18 20  1  0  0  0  0
 18 21  1  0  0  0  0
M  CHG  2  14   1  16  -1
M  END
>  <DRUGBANK_ID>
DB07454

>  <COMMON_NAME>
(R)-3-BROMO-2-HYDROXY-2-METHYL-N-[4-NITRO-3-(TRIFLUOROMETHYL)PHENYL]PROPANAMIDE

$$$$
