253
 OpenBabel10282417163D

 43 46  0  0  0  0  0  0  0  0999 V2000
    0.6279    0.3831    0.0327 C   0  0  0  0  0  0  0  0  0  0  0  0
    0.3726   -0.0592   -1.3060 O   0  0  0  0  0  0  0  0  0  0  0  0
    0.8472    0.8212   -2.2363 C   0  0  0  0  0  0  0  0  0  0  0  0
    2.1833    1.1450   -2.3783 C   0  0  0  0  0  0  0  0  0  0  0  0
    3.2529    0.6134   -1.7057 O   0  0  0  0  0  0  0  0  0  0  0  0
    3.1790   -0.7237   -1.2033 C   0  0  0  0  0  0  0  0  0  0  0  0
    2.4988    2.1849   -3.2646 C   0  0  0  0  0  0  0  0  0  0  0  0
    1.5266    2.9119   -4.0302 C   0  0  0  0  0  0  0  0  0  0  0  0
    1.8035    4.0679   -4.8738 C   0  0  0  0  0  0  0  0  0  0  0  0
    3.0012    4.8700   -4.8745 C   0  0  0  0  0  0  0  0  0  0  0  0
    3.2288    5.7618   -5.9398 C   0  0  0  0  0  0  0  0  0  0  0  0
    2.2841    5.9812   -6.8845 N   0  0  0  0  0  0  0  0  0  0  0  0
    4.4629    6.4427   -6.0166 C   0  0  0  0  0  0  0  0  0  0  0  0
    4.7494    7.3349   -7.1990 C   0  0  0  0  0  0  0  0  0  0  0  0
    5.4645    6.2932   -5.0295 C   0  0  0  0  0  0  0  0  0  0  0  0
    6.6296    7.0589   -5.0368 N   0  0  0  0  0  0  0  0  0  0  0  0
    5.1759    5.5278   -3.9145 C   0  0  0  0  0  0  0  0  0  0  0  0
    3.9630    4.8542   -3.8291 C   0  0  0  0  0  0  0  0  0  0  0  0
    0.7978    4.4455   -5.7984 C   0  0  0  0  0  0  0  0  0  0  0  0
    1.0894    5.3815   -6.7973 C   0  0  0  0  0  0  0  0  0  0  0  0
    0.1396    5.8301   -7.7094 N   0  0  0  0  0  0  0  0  0  0  0  0
   -0.4446    3.8330   -5.6779 C   0  0  0  0  0  0  0  0  0  0  0  0
   -0.7606    2.8705   -4.7883 N   0  0  0  0  0  0  0  0  0  0  0  0
    0.2174    2.4063   -3.9955 C   0  0  0  0  0  0  0  0  0  0  0  0
   -0.1019    1.3895   -3.1018 C   0  0  0  0  0  0  0  0  0  0  0  0
    0.5126   -0.4948    0.6765 H   0  0  0  0  0  0  0  0  0  0  0  0
   -0.0716    1.1616    0.3335 H   0  0  0  0  0  0  0  0  0  0  0  0
    1.6347    0.7843    0.1966 H   0  0  0  0  0  0  0  0  0  0  0  0
    2.6193   -0.8186   -0.2733 H   0  0  0  0  0  0  0  0  0  0  0  0
    2.7859   -1.4302   -1.9375 H   0  0  0  0  0  0  0  0  0  0  0  0
    4.1893   -1.0171   -0.9052 H   0  0  0  0  0  0  0  0  0  0  0  0
    3.5548    2.3986   -3.3930 H   0  0  0  0  0  0  0  0  0  0  0  0
    4.9403    8.3571   -6.8584 H   0  0  0  0  0  0  0  0  0  0  0  0
    5.6271    6.9538   -7.7327 H   0  0  0  0  0  0  0  0  0  0  0  0
    3.9299    7.3760   -7.9202 H   0  0  0  0  0  0  0  0  0  0  0  0
    7.3838    6.7955   -4.4133 H   0  0  0  0  0  0  0  0  0  0  0  0
    6.9172    7.4872   -5.9077 H   0  0  0  0  0  0  0  0  0  0  0  0
    5.8865    5.4420   -3.0952 H   0  0  0  0  0  0  0  0  0  0  0  0
    3.7649    4.3474   -2.8900 H   0  0  0  0  0  0  0  0  0  0  0  0
    0.5294    6.4001   -8.4523 H   0  0  0  0  0  0  0  0  0  0  0  0
   -0.6573    5.2643   -7.9511 H   0  0  0  0  0  0  0  0  0  0  0  0
   -1.2781    4.1127   -6.3213 H   0  0  0  0  0  0  0  0  0  0  0  0
   -1.1324    1.0465   -3.0599 H   0  0  0  0  0  0  0  0  0  0  0  0
  1 26  1  0  0  0  0
  1 27  1  0  0  0  0
  1 28  1  0  0  0  0
  2  1  1  0  0  0  0
  3  4  1  0  0  0  0
  3  2  1  0  0  0  0
  4  5  1  0  0  0  0
  6  5  1  0  0  0  0
  6 29  1  0  0  0  0
  6 30  1  0  0  0  0
  6 31  1  0  0  0  0
  7  4  2  0  0  0  0
  7 32  1  0  0  0  0
  8  7  1  0  0  0  0
  9  8  2  0  0  0  0
 10  9  1  0  0  0  0
 10 18  2  0  0  0  0
 11 10  1  0  0  0  0
 12 20  2  0  0  0  0
 12 11  1  0  0  0  0
 13 11  2  0  0  0  0
 13 15  1  0  0  0  0
 14 13  1  0  0  0  0
 14 33  1  0  0  0  0
 14 34  1  0  0  0  0
 14 35  1  0  0  0  0
 15 17  2  0  0  0  0
 16 15  1  0  0  0  0
 16 36  1  0  0  0  0
 16 37  1  0  0  0  0
 17 18  1  0  0  0  0
 17 38  1  0  0  0  0
 18 39  1  0  0  0  0
 19 22  2  0  0  0  0
 19  9  1  0  0  0  0
 20 19  1  0  0  0  0
 21 20  1  0  0  0  0
 21 40  1  0  0  0  0
 21 41  1  0  0  0  0
 22 23  1  0  0  0  0
 22 42  1  0  0  0  0
 23 24  2  0  0  0  0
 24  8  1  0  0  0  0
 24 25  1  0  0  0  0
 25  3  2  0  0  0  0
 25 43  1  0  0  0  0
M  END
>  <DRUGBANK_ID>
DB06932

>  <COMMON_NAME>
10,11-dimethoxy-4-methyldibenzo[c,f]-2,7-naphthyridine-3,6-diamine

$$$$
