
 OpenBabel10282417223D

 22 21  0  0  1  0  0  0  0  0999 V2000
   -4.1605    4.6971    1.4387 C   0  0  0  0  0  0  0  0  0  0  0  0
   -2.8824    3.8733    1.3567 C   0  0  2  0  0  0  0  0  0  0  0  0
   -1.8114    4.6555    1.9172 O   0  0  0  0  0  0  0  0  0  0  0  0
   -2.4649    3.4352   -0.0648 C   0  0  1  0  0  0  0  0  0  0  0  0
   -1.1936    2.7800    0.0551 O   0  0  0  0  0  0  0  0  0  0  0  0
   -3.4583    2.4703   -0.7476 C   0  0  1  0  0  0  0  0  0  0  0  0
   -4.7574    3.0620   -0.8710 O   0  0  0  0  0  0  0  0  0  0  0  0
   -2.9974    2.0365   -2.1525 C   0  0  2  0  0  0  0  0  0  0  0  0
   -1.6459    1.9306   -2.2393 F   0  0  0  0  0  0  0  0  0  0  0  0
   -3.5172    3.0066   -3.1861 C   0  0  0  0  0  0  0  0  0  0  0  0
   -4.2207    2.6842   -4.1359 O   0  0  0  0  0  0  0  0  0  0  0  0
   -4.0661    5.6221    0.8612 H   0  0  0  0  0  0  0  0  0  0  0  0
   -4.3724    4.9718    2.4756 H   0  0  0  0  0  0  0  0  0  0  0  0
   -5.0455    4.1675    1.0943 H   0  0  0  0  0  0  0  0  0  0  0  0
   -2.9710    2.9858    1.9937 H   0  0  0  0  0  0  0  0  0  0  0  0
   -1.7265    5.4748    1.3993 H   0  0  0  0  0  0  0  0  0  0  0  0
   -2.3125    4.3245   -0.6877 H   0  0  0  0  0  0  0  0  0  0  0  0
   -0.5795    3.4095    0.4768 H   0  0  0  0  0  0  0  0  0  0  0  0
   -3.5510    1.5697   -0.1263 H   0  0  0  0  0  0  0  0  0  0  0  0
   -5.3206    2.7372   -0.1468 H   0  0  0  0  0  0  0  0  0  0  0  0
   -3.4136    1.0495   -2.3775 H   0  0  0  0  0  0  0  0  0  0  0  0
   -3.2207    4.0599   -3.0347 H   0  0  0  0  0  0  0  0  0  0  0  0
  1 12  1  0  0  0  0
  1 13  1  0  0  0  0
  1 14  1  0  0  0  0
  2 15  1  1  0  0  0
  2  3  1  0  0  0  0
  2  1  1  0  0  0  0
  3 16  1  0  0  0  0
  4  2  1  0  0  0  0
  4  5  1  0  0  0  0
  4  6  1  0  0  0  0
  4 17  1  6  0  0  0
  5 18  1  0  0  0  0
  6  7  1  0  0  0  0
  6 19  1  1  0  0  0
  7 20  1  0  0  0  0
  8 10  1  0  0  0  0
  8 21  1  6  0  0  0
  8  9  1  0  0  0  0
  8  6  1  0  0  0  0
 10 11  2  0  0  0  0
 10 22  1  0  0  0  0
M  END
>  <DRUGBANK_ID>
DB15302

>  <COMMON_NAME>
2-fluorofucose

>  <CAS_NUMBER>
70763-62-1

>  <UNII>
W39886N0ZG

>  <SYNONYMS>
SGN-2FF

$$$$
