1512
 OpenBabel10282417113D

 43 47  0  0  1  0  0  0  0  0999 V2000
   -0.0581    1.7839    0.7739 O   0  0  0  0  0  0  0  0  0  0  0  0
   -1.7417   -2.9771   -0.5472 O   0  0  0  0  0  0  0  0  0  0  0  0
   -2.3877    2.0780   -1.2298 O   0  0  0  0  0  0  0  0  0  0  0  0
    2.8686    2.5740    0.9081 O   0  0  0  0  0  0  0  0  0  0  0  0
    0.7465   -0.6466   -1.8647 N   0  0  0  0  0  0  0  0  0  0  0  0
   -0.8068   -0.3853   -0.0856 C   0  0  1  0  0  0  0  0  0  0  0  0
   -1.3457   -1.7606    0.1945 C   0  0  1  0  0  0  0  0  0  0  0  0
    0.1387   -2.0095   -0.7924 C   0  0  1  0  0  0  0  0  0  0  0  0
   -1.2402    0.8730    0.6473 C   0  0  2  0  0  0  0  0  0  0  0  0
   -1.3005   -0.5558   -1.7845 C   0  0  0  0  0  0  0  0  0  0  0  0
    0.7666   -0.3506    0.6966 C   0  0  0  0  0  0  0  0  0  0  0  0
   -2.9083   -1.2955    0.2553 C   0  0  0  0  0  0  0  0  0  0  0  0
   -2.5535    1.3458   -0.0099 C   0  0  2  0  0  0  0  0  0  0  0  0
    1.4810   -2.5766   -0.4559 C   0  0  0  0  0  0  0  0  0  0  0  0
   -3.4754    0.1025   -0.2145 C   0  0  0  0  0  0  0  0  0  0  0  0
   -0.2982    0.1291   -2.5017 C   0  0  0  0  0  0  0  0  0  0  0  0
    1.9036   -1.3474    0.4007 C   0  0  0  0  0  0  0  0  0  0  0  0
    1.0483    0.9632    1.0749 C   0  0  0  0  0  0  0  0  0  0  0  0
    1.7681    0.4423   -1.7721 C   0  0  0  0  0  0  0  0  0  0  0  0
    3.2165   -1.0472    0.4987 C   0  0  0  0  0  0  0  0  0  0  0  0
    2.4331    1.2668    1.1241 C   0  0  0  0  0  0  0  0  0  0  0  0
    3.5054    0.2955    0.8355 C   0  0  0  0  0  0  0  0  0  0  0  0
    0.1762   -2.2711    0.3359 H   0  0  0  0  0  0  0  0  0  0  0  0
   -1.5039    0.6571    1.6937 H   0  0  0  0  0  0  0  0  0  0  0  0
   -1.7399   -3.7211    0.0789 H   0  0  0  0  0  0  0  0  0  0  0  0
   -2.4694    1.5025   -2.0073 H   0  0  0  0  0  0  0  0  0  0  0  0
    2.1388    3.0232    0.4467 H   0  0  0  0  0  0  0  0  0  0  0  0
   -1.2652   -1.5868   -2.2094 H   0  0  0  0  0  0  0  0  0  0  0  0
   -2.2996   -0.3381   -2.1098 H   0  0  0  0  0  0  0  0  0  0  0  0
   -3.1881   -1.3800    1.3160 H   0  0  0  0  0  0  0  0  0  0  0  0
   -3.5606   -2.0345   -0.2391 H   0  0  0  0  0  0  0  0  0  0  0  0
   -3.0627    2.0566    0.6424 H   0  0  0  0  0  0  0  0  0  0  0  0
    1.8450   -2.8130   -1.4595 H   0  0  0  0  0  0  0  0  0  0  0  0
    1.5237   -3.5219    0.1149 H   0  0  0  0  0  0  0  0  0  0  0  0
   -3.8203    0.0143   -1.2553 H   0  0  0  0  0  0  0  0  0  0  0  0
   -4.4298    0.2727    0.2932 H   0  0  0  0  0  0  0  0  0  0  0  0
   -0.2752    0.0478   -3.5853 H   0  0  0  0  0  0  0  0  0  0  0  0
   -0.4252    1.1858   -2.2270 H   0  0  0  0  0  0  0  0  0  0  0  0
    1.3525    1.4404   -2.0443 H   0  0  0  0  0  0  0  0  0  0  0  0
    2.1583    0.8713   -0.8896 H   0  0  0  0  0  0  0  0  0  0  0  0
    2.6456    0.2640   -2.3751 H   0  0  0  0  0  0  0  0  0  0  0  0
    3.9684   -1.7028    0.0295 H   0  0  0  0  0  0  0  0  0  0  0  0
    4.4851    0.6484    0.5259 H   0  0  0  0  0  0  0  0  0  0  0  0
  1  9  1  0  0  0  0
  1 18  1  0  0  0  0
  2 25  1  0  0  0  0
  3 26  1  0  0  0  0
  4 21  1  0  0  0  0
  4 27  1  0  0  0  0
  5  8  1  0  0  0  0
  5 16  1  0  0  0  0
  5 19  1  0  0  0  0
  6  7  1  0  0  0  0
  6  9  1  0  0  0  0
  6 10  1  0  0  0  0
  6 11  1  6  0  0  0
  7  2  1  1  0  0  0
  7  8  1  0  0  0  0
  7 12  1  0  0  0  0
  8 14  1  0  0  0  0
  8 23  1  1  0  0  0
  9 13  1  0  0  0  0
  9 24  1  1  0  0  0
 10 16  1  0  0  0  0
 10 28  1  0  0  0  0
 10 29  1  0  0  0  0
 11 17  2  0  0  0  0
 11 18  1  0  0  0  0
 12 15  1  0  0  0  0
 12 30  1  0  0  0  0
 12 31  1  0  0  0  0
 13  3  1  0  0  0  0
 13 15  1  0  0  0  0
 13 32  1  1  0  0  0
 14 17  1  0  0  0  0
 14 33  1  0  0  0  0
 14 34  1  0  0  0  0
 15 35  1  0  0  0  0
 15 36  1  0  0  0  0
 16 37  1  0  0  0  0
 16 38  1  0  0  0  0
 17 20  1  0  0  0  0
 18 21  2  0  0  0  0
 19 39  1  0  0  0  0
 19 40  1  0  0  0  0
 19 41  1  0  0  0  0
 20 22  2  0  0  0  0
 20 42  1  0  0  0  0
 21 22  1  0  0  0  0
 22 43  1  0  0  0  0
M  END
>  <DRUGBANK_ID>
DB01512

>  <COMMON_NAME>
Hydromorphinol

>  <CAS_NUMBER>
2183-56-4

>  <UNII>
1O00P9X5C1

>  <SYNONYMS>
Hydromorphinol

$$$$
