
 OpenBabel10282417123D

 98100  0  0  0  0  0  0  0  0999 V2000
    1.7242   12.9499  -11.2716 N   0  0  0  0  0  0  0  0  0  0  0  0
    3.1009   12.4360   -9.5741 C   0  0  0  0  0  0  0  0  0  0  0  0
    8.9462   11.3366   -7.4144 O   0  0  0  0  0  0  0  0  0  0  0  0
    4.8067   11.6455   -7.9723 C   0  0  0  0  0  0  0  0  0  0  0  0
    6.3153   11.1631   -6.7542 C   0  0  0  0  0  0  0  0  0  0  0  0
    0.2036   13.5746  -13.0448 C   0  0  0  0  0  0  0  0  0  0  0  0
   -0.2791   14.0914  -15.1590 C   0  0  0  0  0  0  0  0  0  0  0  0
    0.8163   14.6778  -15.2355 C   0  0  0  0  0  0  0  0  0  0  0  0
    1.9928   15.0070  -15.7335 C   0  0  0  0  0  0  0  0  0  0  0  0
    2.2444   15.2535  -17.1611 C   0  0  0  0  0  0  0  0  0  0  0  0
    2.9517   15.0474  -14.7672 C   0  0  0  0  0  0  0  0  0  0  0  0
    4.3938   15.3646  -15.1162 C   0  0  2  0  0  0  0  0  0  0  0  0
    5.2519   14.1938  -14.8939 C   0  0  0  0  0  0  0  0  0  0  0  0
   10.1239   11.1265   -7.3091 C   0  0  0  0  0  0  0  0  0  0  0  0
   10.4649    9.9014   -6.9050 O   0  0  0  0  0  0  0  0  0  0  0  0
    7.9436    9.9500   -5.7428 C   0  0  2  0  0  0  0  0  0  0  0  0
    9.9336    9.5146   -5.6918 C   0  0  1  0  0  0  0  0  0  0  0  0
    7.9426   12.4734  -11.2303 N   0  0  0  0  0  0  0  0  0  0  0  0
    6.7996   12.7592  -11.8226 C   0  0  0  0  0  0  0  0  0  0  0  0
    5.3280   13.7536  -13.4552 C   0  0  0  0  0  0  0  0  0  0  0  0
    6.5007   14.0249  -12.5706 C   0  0  0  0  0  0  0  0  0  0  0  0
    7.8225   11.2053  -10.7099 C   0  0  0  0  0  0  0  0  0  0  0  0
    6.5980   10.7050  -11.0885 C   0  0  0  0  0  0  0  0  0  0  0  0
    5.9418   11.6696  -11.7789 O   0  0  0  0  0  0  0  0  0  0  0  0
    8.9564   10.4616  -10.1127 C   0  0  0  0  0  0  0  0  0  0  0  0
   10.2252   11.0798   -9.7117 N   0  0  0  0  0  0  0  0  0  0  0  0
   11.0833   11.5372  -10.7816 C   0  0  0  0  0  0  0  0  0  0  0  0
   10.5953   11.8585   -8.4737 C   0  0  2  0  0  0  0  0  0  0  0  0
   12.2741   12.2121  -10.1008 C   0  0  0  0  0  0  0  0  0  0  0  0
   11.9952   12.1002   -8.5669 C   0  0  1  0  0  0  0  0  0  0  0  0
   12.4931   12.4196   -6.8753 S   0  0  0  0  0  0  0  0  0  0  0  0
    3.5035   12.8985   -8.1615 O   0  0  0  0  0  0  0  0  0  0  0  0
    5.3443   16.3334  -15.4516 O   0  0  0  0  0  0  0  0  0  0  0  0
    4.6334   12.7733  -13.2017 O   0  0  0  0  0  0  0  0  0  0  0  0
    9.1171    9.3343  -10.6009 O   0  0  0  0  0  0  0  0  0  0  0  0
    7.2517    8.9825   -6.4150 C   0  0  0  0  0  0  0  0  0  0  0  0
   11.1543    8.8636   -4.5557 C   0  0  0  0  0  0  0  0  0  0  0  0
   11.0982    7.3602   -4.3994 C   0  0  0  0  0  0  0  0  0  0  0  0
   12.5047    9.0644   -4.8719 C   0  0  0  0  0  0  0  0  0  0  0  0
   12.8784   10.7337   -6.3159 C   0  0  0  0  0  0  0  0  0  0  0  0
   13.8283    9.7185   -6.9373 C   0  0  0  0  0  0  0  0  0  0  0  0
   15.1221   10.2824   -6.7761 N   0  0  0  0  0  0  0  0  0  0  0  0
   16.0864    9.4912   -7.4396 C   0  0  0  0  0  0  0  0  0  0  0  0
   15.1654   11.5356   -7.4306 C   0  0  0  0  0  0  0  0  0  0  0  0
   15.7366    9.2307   -8.8616 C   0  0  0  0  0  0  0  0  0  0  0  0
   14.6118   11.6161   -8.7813 C   0  0  0  0  0  0  0  0  0  0  0  0
   13.6274   13.3141   -6.7347 O   0  0  0  0  0  0  0  0  0  0  0  0
   11.4051   12.9309   -6.1149 O   0  0  0  0  0  0  0  0  0  0  0  0
    0.8777   12.5885  -12.3344 H   0  0  0  0  0  0  0  0  0  0  0  0
    5.3497   11.5283   -6.4220 H   0  0  0  0  0  0  0  0  0  0  0  0
    7.7294   11.4473   -6.3204 H   0  0  0  0  0  0  0  0  0  0  0  0
   -0.9928   14.3879  -13.8813 H   0  0  0  0  0  0  0  0  0  0  0  0
   -1.1636   13.5276  -14.0177 H   0  0  0  0  0  0  0  0  0  0  0  0
   -0.2942   14.5929  -16.7071 H   0  0  0  0  0  0  0  0  0  0  0  0
    0.5917   14.6822  -14.2743 H   0  0  0  0  0  0  0  0  0  0  0  0
    2.7460   14.4007  -17.6122 H   0  0  0  0  0  0  0  0  0  0  0  0
    1.3444   15.4803  -17.7124 H   0  0  0  0  0  0  0  0  0  0  0  0
    2.8934   16.1271  -17.2667 H   0  0  0  0  0  0  0  0  0  0  0  0
    2.7261   14.8067  -13.7311 H   0  0  0  0  0  0  0  0  0  0  0  0
    3.7687   15.9231  -15.7945 H   0  0  0  0  0  0  0  0  0  0  0  0
    6.2556   13.8910  -15.2083 H   0  0  0  0  0  0  0  0  0  0  0  0
    4.7777   13.5934  -15.6464 H   0  0  0  0  0  0  0  0  0  0  0  0
    8.4331    8.5999   -5.0598 H   0  0  0  0  0  0  0  0  0  0  0  0
   10.0092    8.9908   -4.6971 H   0  0  0  0  0  0  0  0  0  0  0  0
    7.4099   14.5951  -12.3237 H   0  0  0  0  0  0  0  0  0  0  0  0
    6.1333   15.0454  -12.7154 H   0  0  0  0  0  0  0  0  0  0  0  0
    6.1368    9.7484  -10.9033 H   0  0  0  0  0  0  0  0  0  0  0  0
   11.6909   11.2320  -11.6557 H   0  0  0  0  0  0  0  0  0  0  0  0
   10.2129   11.8600  -11.3677 H   0  0  0  0  0  0  0  0  0  0  0  0
   10.1270   12.8679   -8.4466 H   0  0  0  0  0  0  0  0  0  0  0  0
   13.3447   12.3007  -10.3101 H   0  0  0  0  0  0  0  0  0  0  0  0
   12.2865   12.8694  -10.9770 H   0  0  0  0  0  0  0  0  0  0  0  0
   12.9130   11.8350   -8.1109 H   0  0  0  0  0  0  0  0  0  0  0  0
    4.8446   17.1488  -15.5586 H   0  0  0  0  0  0  0  0  0  0  0  0
    7.1584    9.7167   -7.1356 H   0  0  0  0  0  0  0  0  0  0  0  0
    7.4939    8.1752   -7.0113 H   0  0  0  0  0  0  0  0  0  0  0  0
    6.4980    8.8806   -5.6691 H   0  0  0  0  0  0  0  0  0  0  0  0
   11.0378    9.4005   -3.5556 H   0  0  0  0  0  0  0  0  0  0  0  0
   11.2897    6.9020   -5.3647 H   0  0  0  0  0  0  0  0  0  0  0  0
   11.8410    7.0565   -3.6720 H   0  0  0  0  0  0  0  0  0  0  0  0
   10.1067    7.1031   -4.0542 H   0  0  0  0  0  0  0  0  0  0  0  0
   12.2010   10.0894   -4.7727 H   0  0  0  0  0  0  0  0  0  0  0  0
   13.3557    8.9374   -4.2656 H   0  0  0  0  0  0  0  0  0  0  0  0
   12.5728    8.6615   -5.8664 H   0  0  0  0  0  0  0  0  0  0  0  0
   13.3371   10.9355   -5.2186 H   0  0  0  0  0  0  0  0  0  0  0  0
   11.9638   10.1756   -6.3365 H   0  0  0  0  0  0  0  0  0  0  0  0
   13.9506    8.6897   -6.5073 H   0  0  0  0  0  0  0  0  0  0  0  0
   13.4490    9.5352   -7.9199 H   0  0  0  0  0  0  0  0  0  0  0  0
   17.0390   10.0036   -7.3526 H   0  0  0  0  0  0  0  0  0  0  0  0
   16.1353    8.5289   -6.9735 H   0  0  0  0  0  0  0  0  0  0  0  0
   14.4963   11.8806   -6.7664 H   0  0  0  0  0  0  0  0  0  0  0  0
   15.9894   12.1715   -7.2617 H   0  0  0  0  0  0  0  0  0  0  0  0
   15.8788   10.0581   -9.4602 H   0  0  0  0  0  0  0  0  0  0  0  0
   16.4736    8.7328   -9.4195 H   0  0  0  0  0  0  0  0  0  0  0  0
   14.7341    8.8694   -9.0225 H   0  0  0  0  0  0  0  0  0  0  0  0
   13.7527   10.9562   -8.9871 H   0  0  0  0  0  0  0  0  0  0  0  0
   14.5658   12.5830   -9.2152 H   0  0  0  0  0  0  0  0  0  0  0  0
   15.2766   11.3145   -9.4625 H   0  0  0  0  0  0  0  0  0  0  0  0
  1  2  1  0  0  0  0
  1  6  1  0  0  0  0
  1 49  1  0  0  0  0
  2  4  1  0  0  0  0
  2 32  2  0  0  0  0
  3 14  2  0  0  0  0
  4  5  2  0  0  0  0
  4 50  1  0  0  0  0
  5 16  1  0  0  0  0
  5 51  1  0  0  0  0
  6  7  1  0  0  0  0
  6 52  1  0  0  0  0
  6 53  1  0  0  0  0
  7  8  2  0  0  0  0
  7 54  1  0  0  0  0
  8  9  1  0  0  0  0
  8 55  1  0  0  0  0
  9 11  2  0  0  0  0
  9 10  1  0  0  0  0
 10 56  1  0  0  0  0
 10 57  1  0  0  0  0
 10 58  1  0  0  0  0
 11 12  1  0  0  0  0
 11 59  1  0  0  0  0
 12 13  1  0  0  0  0
 12 33  1  0  0  0  0
 12 60  1  6  0  0  0
 13 20  1  0  0  0  0
 13 61  1  0  0  0  0
 13 62  1  0  0  0  0
 14 15  1  0  0  0  0
 15 17  1  0  0  0  0
 16 17  1  0  0  0  0
 16 63  1  1  0  0  0
 16 36  1  0  0  0  0
 17 37  1  0  0  0  0
 17 64  1  1  0  0  0
 18 22  1  0  0  0  0
 18 19  2  0  0  0  0
 19 21  1  0  0  0  0
 19 24  1  0  0  0  0
 20 21  1  0  0  0  0
 20 34  2  0  0  0  0
 21 65  1  0  0  0  0
 21 66  1  0  0  0  0
 22 25  1  0  0  0  0
 22 23  2  0  0  0  0
 23 24  1  0  0  0  0
 23 67  1  0  0  0  0
 25 26  1  0  0  0  0
 25 35  2  0  0  0  0
 26 27  1  0  0  0  0
 26 28  1  0  0  0  0
 27 29  1  0  0  0  0
 27 68  1  0  0  0  0
 27 69  1  0  0  0  0
 28 14  1  0  0  0  0
 28 30  1  0  0  0  0
 28 70  1  6  0  0  0
 29 30  1  0  0  0  0
 29 71  1  0  0  0  0
 29 72  1  0  0  0  0
 30 73  1  1  0  0  0
 30 31  1  0  0  0  0
 31 40  1  0  0  0  0
 31 47  2  0  0  0  0
 31 48  2  0  0  0  0
 33 74  1  0  0  0  0
 36 75  1  0  0  0  0
 36 76  1  0  0  0  0
 36 77  1  0  0  0  0
 37 38  1  0  0  0  0
 37 39  1  0  0  0  0
 37 78  1  0  0  0  0
 38 79  1  0  0  0  0
 38 80  1  0  0  0  0
 38 81  1  0  0  0  0
 39 82  1  0  0  0  0
 39 83  1  0  0  0  0
 39 84  1  0  0  0  0
 40 41  1  0  0  0  0
 40 85  1  0  0  0  0
 40 86  1  0  0  0  0
 41 42  1  0  0  0  0
 41 87  1  0  0  0  0
 41 88  1  0  0  0  0
 42 43  1  0  0  0  0
 42 44  1  0  0  0  0
 43 45  1  0  0  0  0
 43 89  1  0  0  0  0
 43 90  1  0  0  0  0
 44 46  1  0  0  0  0
 44 91  1  0  0  0  0
 44 92  1  0  0  0  0
 45 93  1  0  0  0  0
 45 94  1  0  0  0  0
 45 95  1  0  0  0  0
 46 96  1  0  0  0  0
 46 97  1  0  0  0  0
 46 98  1  0  0  0  0
M  END
>  <DRUGBANK_ID>
DB01764

>  <SECONDARY_ACCESSION_NUMBERS>
EXPT01246

>  <COMMON_NAME>
Dalfopristin

>  <CAS_NUMBER>
112362-50-2

>  <UNII>
R9M4FJE48E

>  <SYNONYMS>
Dalfopristin; Dalfopristina; Dalfopristine; Dalfopristinum

$$$$
