
 OpenBabel10282417193D

 83 82  0  0  1  0  0  0  0  0999 V2000
    0.8733   -0.3276    0.0564 C   0  0  0  0  0  0  0  0  0  0  0  0
    0.4012   -0.5128    1.4591 C   0  0  0  0  0  0  0  0  0  0  0  0
    0.9204    0.3699    2.5810 C   0  0  0  0  0  0  0  0  0  0  0  0
    0.3412    1.3387   -0.3028 O   0  0  0  0  0  0  0  0  0  0  0  0
    0.4300    1.6306    2.5476 O   0  0  0  0  0  0  0  0  0  0  0  0
   -1.0781   -0.4402    1.3880 O   0  0  0  0  0  0  0  0  0  0  0  0
    0.7645   -1.5074    1.7315 H   0  0  0  0  0  0  0  0  0  0  0  0
    1.7132    3.7863   -5.4885 C   0  0  0  0  0  0  0  0  0  0  0  0
    2.1578    2.4722   -4.8741 C   0  0  0  0  0  0  0  0  0  0  0  0
    2.9538    2.7746   -3.6094 C   0  0  0  0  0  0  0  0  0  0  0  0
    2.0638    3.5666   -2.7171 C   0  0  0  0  0  0  0  0  0  0  0  0
    0.8531    2.6739   -2.6238 C   0  0  0  0  0  0  0  0  0  0  0  0
    1.3668    1.3417   -1.9328 C   0  0  0  0  0  0  0  0  0  0  0  0
    2.0806    1.4858   -0.0919 C   0  0  0  0  0  0  0  0  0  0  0  0
    0.7571    2.2354    1.4084 C   0  0  0  0  0  0  0  0  0  0  0  0
    0.2784    3.4605    1.5132 O   0  0  0  0  0  0  0  0  0  0  0  0
   -4.1446    5.8360   -1.8396 C   0  0  0  0  0  0  0  0  0  0  0  0
   -2.6551    5.5855   -1.7277 C   0  0  0  0  0  0  0  0  0  0  0  0
   -2.3426    5.1705   -0.3014 C   0  0  0  0  0  0  0  0  0  0  0  0
   -3.1685    3.9212    0.0605 C   0  0  0  0  0  0  0  0  0  0  0  0
   -2.9833    2.7629   -0.9310 C   0  0  0  0  0  0  0  0  0  0  0  0
   -1.6141    2.3649   -0.7587 C   0  0  0  0  0  0  0  0  0  0  0  0
   -1.6161    1.9231    0.6824 C   0  0  0  0  0  0  0  0  0  0  0  0
   -1.9755    0.5695    1.0841 C   0  0  0  0  0  0  0  0  0  0  0  0
   -3.1789    0.4002    1.1798 O   0  0  0  0  0  0  0  0  0  0  0  0
    3.7788    7.1834    3.3319 C   0  0  0  0  0  0  0  0  0  0  0  0
    4.1446    5.7300    3.5585 C   0  0  0  0  0  0  0  0  0  0  0  0
    2.8827    4.9322    3.7359 C   0  0  0  0  0  0  0  0  0  0  0  0
    2.0617    5.1085    2.4892 C   0  0  0  0  0  0  0  0  0  0  0  0
    2.9014    4.6977    1.2425 C   0  0  0  0  0  0  0  0  0  0  0  0
    3.6670    3.4176    1.3709 C   0  0  0  0  0  0  0  0  0  0  0  0
    2.5004    2.6640    1.3774 C   0  0  0  0  0  0  0  0  0  0  0  0
    1.1728    2.9825   -0.1700 C   0  0  0  0  0  0  0  0  0  0  0  0
    0.6972    4.0371   -0.6549 O   0  0  0  0  0  0  0  0  0  0  0  0
    0.4619   -0.9601   -0.7342 H   0  0  0  0  0  0  0  0  0  0  0  0
    1.9563   -0.6002   -0.1185 H   0  0  0  0  0  0  0  0  0  0  0  0
    0.5342    0.1289    3.5486 H   0  0  0  0  0  0  0  0  0  0  0  0
    1.9960    0.3272    2.7368 H   0  0  0  0  0  0  0  0  0  0  0  0
    2.6010    4.3901   -5.6815 H   0  0  0  0  0  0  0  0  0  0  0  0
    1.1557    3.6053   -6.4007 H   0  0  0  0  0  0  0  0  0  0  0  0
    1.0483    4.3716   -4.8378 H   0  0  0  0  0  0  0  0  0  0  0  0
    2.7629    1.8713   -5.5348 H   0  0  0  0  0  0  0  0  0  0  0  0
    1.2718    1.8432   -4.7025 H   0  0  0  0  0  0  0  0  0  0  0  0
    3.8613    3.3344   -3.7709 H   0  0  0  0  0  0  0  0  0  0  0  0
    3.2649    1.8456   -3.1177 H   0  0  0  0  0  0  0  0  0  0  0  0
    1.7623    4.5667   -3.0310 H   0  0  0  0  0  0  0  0  0  0  0  0
    2.5834    3.7735   -1.7740 H   0  0  0  0  0  0  0  0  0  0  0  0
    0.1830    2.4526   -3.4642 H   0  0  0  0  0  0  0  0  0  0  0  0
    0.0555    3.3104   -2.2688 H   0  0  0  0  0  0  0  0  0  0  0  0
    1.9972    0.6626   -2.4727 H   0  0  0  0  0  0  0  0  0  0  0  0
    0.4238    0.7477   -2.0458 H   0  0  0  0  0  0  0  0  0  0  0  0
    2.8977    2.2119   -0.5509 H   0  0  0  0  0  0  0  0  0  0  0  0
    2.7954    0.7145    0.1720 H   0  0  0  0  0  0  0  0  0  0  0  0
   -4.4343    6.6175   -1.1317 H   0  0  0  0  0  0  0  0  0  0  0  0
   -4.4092    6.1250   -2.8520 H   0  0  0  0  0  0  0  0  0  0  0  0
   -4.7301    4.9402   -1.6079 H   0  0  0  0  0  0  0  0  0  0  0  0
   -2.0849    6.4762   -1.9927 H   0  0  0  0  0  0  0  0  0  0  0  0
   -2.3501    4.8124   -2.4434 H   0  0  0  0  0  0  0  0  0  0  0  0
   -2.5687    5.9660    0.4106 H   0  0  0  0  0  0  0  0  0  0  0  0
   -1.2603    5.0394   -0.2010 H   0  0  0  0  0  0  0  0  0  0  0  0
   -4.2264    4.0990    0.0971 H   0  0  0  0  0  0  0  0  0  0  0  0
   -2.9437    3.6777    1.1013 H   0  0  0  0  0  0  0  0  0  0  0  0
   -3.0918    3.0118   -1.9793 H   0  0  0  0  0  0  0  0  0  0  0  0
   -3.5231    1.8541   -0.7044 H   0  0  0  0  0  0  0  0  0  0  0  0
   -1.1009    3.2867   -0.9543 H   0  0  0  0  0  0  0  0  0  0  0  0
   -1.2885    1.6597   -1.5236 H   0  0  0  0  0  0  0  0  0  0  0  0
   -1.5601    2.7321    1.4118 H   0  0  0  0  0  0  0  0  0  0  0  0
   -0.7288    1.5790    0.9295 H   0  0  0  0  0  0  0  0  0  0  0  0
    3.1972    7.5460    4.1832 H   0  0  0  0  0  0  0  0  0  0  0  0
    4.6776    7.7758    3.2002 H   0  0  0  0  0  0  0  0  0  0  0  0
    3.1744    7.3346    2.4291 H   0  0  0  0  0  0  0  0  0  0  0  0
    4.7685    5.5950    4.4340 H   0  0  0  0  0  0  0  0  0  0  0  0
    4.7295    5.3625    2.7078 H   0  0  0  0  0  0  0  0  0  0  0  0
    2.2897    5.2459    4.5955 H   0  0  0  0  0  0  0  0  0  0  0  0
    3.1030    3.8719    3.9135 H   0  0  0  0  0  0  0  0  0  0  0  0
    1.6616    6.1038    2.3055 H   0  0  0  0  0  0  0  0  0  0  0  0
    1.1622    4.5760    2.7872 H   0  0  0  0  0  0  0  0  0  0  0  0
    3.6998    5.3585    1.0093 H   0  0  0  0  0  0  0  0  0  0  0  0
    2.2708    4.7739    0.3641 H   0  0  0  0  0  0  0  0  0  0  0  0
    4.0723    3.0892    2.3283 H   0  0  0  0  0  0  0  0  0  0  0  0
    4.1799    2.9737    0.5400 H   0  0  0  0  0  0  0  0  0  0  0  0
    2.1631    2.7326    2.5021 H   0  0  0  0  0  0  0  0  0  0  0  0
    2.7519    1.5474    1.6434 H   0  0  0  0  0  0  0  0  0  0  0  0
  1 35  1  0  0  0  0
  1 36  1  0  0  0  0
  2  1  1  0  0  0  0
  2  6  1  0  0  0  0
  2  7  1  0  0  0  0
  3  2  1  0  0  0  0
  3 37  1  0  0  0  0
  3 38  1  0  0  0  0
  4  1  1  0  0  0  0
  5  3  1  0  0  0  0
  8  9  1  0  0  0  0
  8 39  1  0  0  0  0
  8 40  1  0  0  0  0
  8 41  1  0  0  0  0
  9 10  1  0  0  0  0
  9 42  1  0  0  0  0
  9 43  1  0  0  0  0
 10 11  1  0  0  0  0
 10 44  1  0  0  0  0
 10 45  1  0  0  0  0
 11 12  1  0  0  0  0
 11 46  1  0  0  0  0
 11 47  1  0  0  0  0
 12 13  1  0  0  0  0
 12 48  1  0  0  0  0
 12 49  1  0  0  0  0
 13 14  1  0  0  0  0
 13 50  1  0  0  0  0
 13 51  1  0  0  0  0
 14 15  1  0  0  0  0
 14 52  1  0  0  0  0
 14 53  1  0  0  0  0
 15  5  1  0  0  0  0
 15 16  2  0  0  0  0
 17 18  1  0  0  0  0
 17 54  1  0  0  0  0
 17 55  1  0  0  0  0
 17 56  1  0  0  0  0
 18 19  1  0  0  0  0
 18 57  1  0  0  0  0
 18 58  1  0  0  0  0
 19 20  1  0  0  0  0
 19 59  1  0  0  0  0
 19 60  1  0  0  0  0
 20 21  1  0  0  0  0
 20 61  1  0  0  0  0
 20 62  1  0  0  0  0
 21 22  1  0  0  0  0
 21 63  1  0  0  0  0
 21 64  1  0  0  0  0
 22 23  1  0  0  0  0
 22 65  1  0  0  0  0
 22 66  1  0  0  0  0
 23 24  1  0  0  0  0
 23 67  1  0  0  0  0
 23 68  1  0  0  0  0
 24  6  1  0  0  0  0
 24 25  2  0  0  0  0
 26 27  1  0  0  0  0
 26 69  1  0  0  0  0
 26 70  1  0  0  0  0
 26 71  1  0  0  0  0
 27 28  1  0  0  0  0
 27 72  1  0  0  0  0
 27 73  1  0  0  0  0
 28 29  1  0  0  0  0
 28 74  1  0  0  0  0
 28 75  1  0  0  0  0
 29 30  1  0  0  0  0
 29 76  1  0  0  0  0
 29 77  1  0  0  0  0
 30 31  1  0  0  0  0
 30 78  1  0  0  0  0
 30 79  1  0  0  0  0
 31 32  1  0  0  0  0
 31 80  1  0  0  0  0
 31 81  1  0  0  0  0
 32 33  1  0  0  0  0
 32 82  1  0  0  0  0
 32 83  1  0  0  0  0
 33  4  1  0  0  0  0
 33 34  2  0  0  0  0
M  END
>  <DRUGBANK_ID>
DB12176

>  <SECONDARY_ACCESSION_NUMBERS>
DB05781

>  <COMMON_NAME>
Tricaprylin

>  <CAS_NUMBER>
538-23-8

>  <UNII>
6P92858988

>  <SYNONYMS>
Caprylic acid triglyceride; Caprylic triglyceride; Glycerol tricaprylate; Glycerol trioctanoate; Tricaprilin; Tricaprylyl glycerin; Tricaprylyl glycerol

$$$$
