
 OpenBabel10282417123D

 21 20  0  0  0  0  0  0  0  0999 V2000
    1.0370    0.1303    0.0772 C   0  0  0  0  0  0  0  0  0  0  0  0
    0.5642    0.5255   -1.3292 C   0  0  0  0  0  0  0  0  0  0  0  0
    0.1950    3.4450    0.7789 O   0  0  0  0  0  0  0  0  0  0  0  0
    1.0858   -0.4054   -2.4114 C   0  0  0  0  0  0  0  0  0  0  0  0
    1.1164    2.4707    0.9632 C   0  0  0  0  0  0  0  0  0  0  0  0
    2.3193    2.7054    0.9152 O   0  0  0  0  0  0  0  0  0  0  0  0
    0.5301    1.0687    1.1737 C   0  0  1  0  0  0  0  0  0  0  0  0
   -0.9452    1.0624    1.2136 N   0  0  0  0  0  0  0  0  0  0  0  0
    0.5971   -1.8219   -2.2309 C   0  0  0  0  0  0  0  0  0  0  0  0
   -0.0942   -2.1908   -3.0042 H   0  0  0  0  0  0  0  0  0  0  0  0
    0.9103   -2.5429   -1.2889 O   0  0  0  0  0  0  0  0  0  0  0  0
    0.6927   -0.8778    0.3286 H   0  0  0  0  0  0  0  0  0  0  0  0
    2.1348    0.0940    0.0877 H   0  0  0  0  0  0  0  0  0  0  0  0
   -0.5296    0.5357   -1.3778 H   0  0  0  0  0  0  0  0  0  0  0  0
    0.9020    1.5450   -1.5539 H   0  0  0  0  0  0  0  0  0  0  0  0
   -0.7139    3.0968    0.8243 H   0  0  0  0  0  0  0  0  0  0  0  0
    0.7247   -0.0533   -3.3848 H   0  0  0  0  0  0  0  0  0  0  0  0
    2.1789   -0.4041   -2.4468 H   0  0  0  0  0  0  0  0  0  0  0  0
    0.8875    0.7055    2.1447 H   0  0  0  0  0  0  0  0  0  0  0  0
   -1.3208    1.5868    1.9964 H   0  0  0  0  0  0  0  0  0  0  0  0
   -1.3750    1.3009    0.3263 H   0  0  0  0  0  0  0  0  0  0  0  0
  1  2  1  0  0  0  0
  1 12  1  0  0  0  0
  1 13  1  0  0  0  0
  2  4  1  0  0  0  0
  2 14  1  0  0  0  0
  2 15  1  0  0  0  0
  3 16  1  0  0  0  0
  4  9  1  0  0  0  0
  4 17  1  0  0  0  0
  4 18  1  0  0  0  0
  5  3  1  0  0  0  0
  5  6  2  0  0  0  0
  7  1  1  0  0  0  0
  7  5  1  0  0  0  0
  7  8  1  0  0  0  0
  7 19  1  1  0  0  0
  8 20  1  0  0  0  0
  8 21  1  0  0  0  0
  9 10  1  0  0  0  0
  9 11  2  0  0  0  0
M  END
>  <DRUGBANK_ID>
DB02571

>  <SECONDARY_ACCESSION_NUMBERS>
EXPT01240

>  <COMMON_NAME>
Allysine

>  <CAS_NUMBER>
6665-12-9

>  <UNII>
425I4Y24YZ

>  <SYNONYMS>
2-Amino-5-formylvaleric acid; 2-Amino-6-oxo-hexanoic acid; 2-Aminoadipate semialdehyde; 6-Oxo-L-norleucine; L-Allysine

$$$$
