888
 OpenBabel10282417113D

 19 18  0  0  0  0  0  0  0  0999 V2000
    1.2168    0.7025   -0.2985 Cl  0  0  0  0  0  0  0  0  0  0  0  0
    1.2063   -1.3751    4.6844 Cl  0  0  0  0  0  0  0  0  0  0  0  0
    2.8053   -1.7378    1.6381 N   0  0  0  0  0  0  0  0  0  0  0  0
    3.2504   -0.3769    1.2784 C   0  0  0  0  0  0  0  0  0  0  0  0
    3.2810   -2.1498    2.9804 C   0  0  0  0  0  0  0  0  0  0  0  0
    1.3629   -1.9290    1.5050 C   0  0  0  0  0  0  0  0  0  0  0  0
    2.9061    0.1557   -0.1260 C   0  0  0  0  0  0  0  0  0  0  0  0
    2.9213   -1.2990    4.2159 C   0  0  0  0  0  0  0  0  0  0  0  0
    4.3481   -0.3837    1.3299 H   0  0  0  0  0  0  0  0  0  0  0  0
    2.9084    0.3569    2.0174 H   0  0  0  0  0  0  0  0  0  0  0  0
    2.9850   -3.1907    3.1605 H   0  0  0  0  0  0  0  0  0  0  0  0
    4.3793   -2.1870    2.9294 H   0  0  0  0  0  0  0  0  0  0  0  0
    0.7950   -1.1287    1.9876 H   0  0  0  0  0  0  0  0  0  0  0  0
    1.0771   -1.9706    0.4494 H   0  0  0  0  0  0  0  0  0  0  0  0
    1.0454   -2.8867    1.9289 H   0  0  0  0  0  0  0  0  0  0  0  0
    3.1216   -0.5823   -0.9049 H   0  0  0  0  0  0  0  0  0  0  0  0
    3.5133    1.0439   -0.3234 H   0  0  0  0  0  0  0  0  0  0  0  0
    3.4819   -1.6682    5.0797 H   0  0  0  0  0  0  0  0  0  0  0  0
    3.1906   -0.2495    4.0801 H   0  0  0  0  0  0  0  0  0  0  0  0
  1  7  1  0  0  0  0
  2  8  1  0  0  0  0
  3  4  1  0  0  0  0
  3  5  1  0  0  0  0
  3  6  1  0  0  0  0
  4  7  1  0  0  0  0
  4  9  1  0  0  0  0
  4 10  1  0  0  0  0
  5  8  1  0  0  0  0
  5 11  1  0  0  0  0
  5 12  1  0  0  0  0
  6 13  1  0  0  0  0
  6 14  1  0  0  0  0
  6 15  1  0  0  0  0
  7 16  1  0  0  0  0
  7 17  1  0  0  0  0
  8 18  1  0  0  0  0
  8 19  1  0  0  0  0
M  END
>  <DRUGBANK_ID>
DB00888

>  <SECONDARY_ACCESSION_NUMBERS>
APRD00249

>  <COMMON_NAME>
Mechlorethamine

>  <CAS_NUMBER>
51-75-2

>  <UNII>
50D9XSG0VR

>  <SYNONYMS>
2,2'-dichloro-N-methyldiethylamine; bis(2-chloroethyl)methylamine; bis(β-chloroethyl)methylamine; Chlormethine; Chlormethinum; Clormetina; Mechlorethamine; methylbis(2-chloroethyl)amine; methylbis(β-chloroethyl)amine; Mustine; N-methyl-bis(2-chloroethyl)amine; N-methyl-bis(β-chloroethyl)amine; Nitrogen mustard; β,β'-dichlorodiethyl-N-methylamine

$$$$
