
 OpenBabel10282417153D

 64 68  0  0  0  0  0  0  0  0999 V2000
    2.5173   -0.1558    0.3622 C   0  0  0  0  0  0  0  0  0  0  0  0
    1.1275   -0.0764    1.0042 C   0  0  0  0  0  0  0  0  0  0  0  0
    0.4938    1.1536    1.1952 C   0  0  0  0  0  0  0  0  0  0  0  0
   -0.9236    1.2424    1.3391 C   0  0  0  0  0  0  0  0  0  0  0  0
   -1.7199    0.1134    1.3085 C   0  0  0  0  0  0  0  0  0  0  0  0
   -1.1345   -1.1346    1.2726 N   0  0  0  0  0  0  0  0  0  0  0  0
    0.2682   -1.1873    1.1337 C   0  0  0  0  0  0  0  0  0  0  0  0
   -3.5802    0.2904    1.0225 S   0  0  0  0  0  0  0  0  0  0  0  0
   -4.0543   -0.6011    0.0268 O   0  0  0  0  0  0  0  0  0  0  0  0
   -4.2261    0.1303    2.3353 O   0  0  0  0  0  0  0  0  0  0  0  0
   -4.0533    1.8524    0.4465 N   0  0  0  0  0  0  0  0  0  0  0  0
   -3.2026    2.8713   -0.0811 C   0  0  0  0  0  0  0  0  0  0  0  0
   -2.3712    2.8604   -1.2159 C   0  0  0  0  0  0  0  0  0  0  0  0
   -1.4146    3.9383   -1.1905 C   0  0  0  0  0  0  0  0  0  0  0  0
   -1.4226    4.9162   -0.2427 N   0  0  0  0  0  0  0  0  0  0  0  0
   -2.3848    4.9028    0.6826 C   0  0  0  0  0  0  0  0  0  0  0  0
   -3.2747    3.9125    0.7972 N   0  0  0  0  0  0  0  0  0  0  0  0
   -2.4826    6.0618    1.5885 C   0  0  0  0  0  0  0  0  0  0  0  0
   -2.6202    7.3516    1.0569 C   0  0  0  0  0  0  0  0  0  0  0  0
   -2.7253    8.4412    1.9104 C   0  0  0  0  0  0  0  0  0  0  0  0
   -2.7013    8.3453    3.2577 N   0  0  0  0  0  0  0  0  0  0  0  0
   -2.5228    7.1046    3.7692 C   0  0  0  0  0  0  0  0  0  0  0  0
   -2.4361    5.9519    2.9866 C   0  0  0  0  0  0  0  0  0  0  0  0
   -2.3831    7.0339    5.2108 C   0  0  0  0  0  0  0  0  0  0  0  0
   -3.3257    7.4642    6.1002 N   0  0  0  0  0  0  0  0  0  0  0  0
   -2.9445    7.1784    7.3546 N   0  0  0  0  0  0  0  0  0  0  0  0
   -1.7547    6.6079    7.2302 N   0  0  0  0  0  0  0  0  0  0  0  0
   -1.4000    6.4942    5.9074 N   0  0  0  0  0  0  0  0  0  0  0  0
   -0.1929    4.0357   -1.8466 O   0  0  0  0  0  0  0  0  0  0  0  0
    0.3317    3.1029   -2.8067 C   0  0  0  0  0  0  0  0  0  0  0  0
    0.8796    1.8716   -2.1719 C   0  0  0  0  0  0  0  0  0  0  0  0
   -0.1125    1.5861   -1.2626 O   0  0  0  0  0  0  0  0  0  0  0  0
   -2.1947    1.8428   -2.1751 O   0  0  0  0  0  0  0  0  0  0  0  0
   -2.9417    0.6744   -2.2788 C   0  0  0  0  0  0  0  0  0  0  0  0
   -4.2887    0.9098   -2.5656 C   0  0  0  0  0  0  0  0  0  0  0  0
   -5.1942   -0.1513   -2.6606 C   0  0  0  0  0  0  0  0  0  0  0  0
   -4.7849   -1.4716   -2.5019 C   0  0  0  0  0  0  0  0  0  0  0  0
   -3.4537   -1.7454   -2.3162 C   0  0  0  0  0  0  0  0  0  0  0  0
   -2.5171   -0.7096   -2.2246 C   0  0  0  0  0  0  0  0  0  0  0  0
   -1.3893   -1.4479   -1.9738 O   0  0  0  0  0  0  0  0  0  0  0  0
   -0.2980   -0.7552   -1.5617 C   0  0  0  0  0  0  0  0  0  0  0  0
    3.2092   -0.7259    0.9834 H   0  0  0  0  0  0  0  0  0  0  0  0
    2.5193   -0.6228   -0.6380 H   0  0  0  0  0  0  0  0  0  0  0  0
    2.9685    0.8350    0.1888 H   0  0  0  0  0  0  0  0  0  0  0  0
    1.0256    2.0710    0.9218 H   0  0  0  0  0  0  0  0  0  0  0  0
   -1.3808    2.2072    1.2448 H   0  0  0  0  0  0  0  0  0  0  0  0
    0.6408   -2.1636    0.7956 H   0  0  0  0  0  0  0  0  0  0  0  0
   -4.9680    1.8242   -0.0081 H   0  0  0  0  0  0  0  0  0  0  0  0
   -2.6547    7.5019   -0.0184 H   0  0  0  0  0  0  0  0  0  0  0  0
   -2.8278    9.4480    1.5105 H   0  0  0  0  0  0  0  0  0  0  0  0
   -2.3231    4.9874    3.4743 H   0  0  0  0  0  0  0  0  0  0  0  0
   -4.2313    7.8818    5.9314 H   0  0  0  0  0  0  0  0  0  0  0  0
   -0.4572    2.8542   -3.5163 H   0  0  0  0  0  0  0  0  0  0  0  0
    1.1993    3.4999   -3.3355 H   0  0  0  0  0  0  0  0  0  0  0  0
    1.0139    1.1083   -2.9418 H   0  0  0  0  0  0  0  0  0  0  0  0
    1.7637    1.8829   -1.5450 H   0  0  0  0  0  0  0  0  0  0  0  0
   -0.1544    2.3342   -0.6577 H   0  0  0  0  0  0  0  0  0  0  0  0
   -4.6656    1.9272   -2.5934 H   0  0  0  0  0  0  0  0  0  0  0  0
   -6.2524    0.0637   -2.7025 H   0  0  0  0  0  0  0  0  0  0  0  0
   -5.4885   -2.2734   -2.3203 H   0  0  0  0  0  0  0  0  0  0  0  0
   -3.1359   -2.7471   -2.0044 H   0  0  0  0  0  0  0  0  0  0  0  0
    0.0426   -0.2518   -2.4284 H   0  0  0  0  0  0  0  0  0  0  0  0
   -0.6579   -0.1518   -0.7578 H   0  0  0  0  0  0  0  0  0  0  0  0
    0.5517   -1.3456   -1.2293 H   0  0  0  0  0  0  0  0  0  0  0  0
  1  2  1  0  0  0  0
  1 42  1  0  0  0  0
  1 43  1  0  0  0  0
  1 44  1  0  0  0  0
  2  3  2  0  0  0  0
  2  7  1  0  0  0  0
  3  4  1  0  0  0  0
  3 45  1  0  0  0  0
  4  5  2  0  0  0  0
  4 46  1  0  0  0  0
  5  6  1  0  0  0  0
  5  8  1  0  0  0  0
  6  7  2  0  0  0  0
  7 47  1  0  0  0  0
  8  9  2  0  0  0  0
  8 10  2  0  0  0  0
  8 11  1  0  0  0  0
 11 12  1  0  0  0  0
 11 48  1  0  0  0  0
 12 13  2  0  0  0  0
 12 17  1  0  0  0  0
 13 14  1  0  0  0  0
 13 33  1  0  0  0  0
 14 15  2  0  0  0  0
 14 29  1  0  0  0  0
 15 16  1  0  0  0  0
 16 17  2  0  0  0  0
 16 18  1  0  0  0  0
 18 19  2  0  0  0  0
 18 23  1  0  0  0  0
 19 20  1  0  0  0  0
 19 49  1  0  0  0  0
 20 21  2  0  0  0  0
 20 50  1  0  0  0  0
 21 22  1  0  0  0  0
 22 23  2  0  0  0  0
 22 24  1  0  0  0  0
 23 51  1  0  0  0  0
 24 25  1  0  0  0  0
 24 28  2  0  0  0  0
 25 26  1  0  0  0  0
 25 52  1  0  0  0  0
 26 27  2  0  0  0  0
 27 28  1  0  0  0  0
 29 30  1  0  0  0  0
 30 31  1  0  0  0  0
 30 53  1  0  0  0  0
 30 54  1  0  0  0  0
 31 32  1  0  0  0  0
 31 55  1  0  0  0  0
 31 56  1  0  0  0  0
 32 57  1  0  0  0  0
 33 34  1  0  0  0  0
 34 35  2  0  0  0  0
 34 39  1  0  0  0  0
 35 36  1  0  0  0  0
 35 58  1  0  0  0  0
 36 37  2  0  0  0  0
 36 59  1  0  0  0  0
 37 38  1  0  0  0  0
 37 60  1  0  0  0  0
 38 39  2  0  0  0  0
 38 61  1  0  0  0  0
 39 40  1  0  0  0  0
 40 41  1  0  0  0  0
 41 62  1  0  0  0  0
 41 63  1  0  0  0  0
 41 64  1  0  0  0  0
M  END
>  <DRUGBANK_ID>
DB06677

>  <COMMON_NAME>
Clazosentan

>  <CAS_NUMBER>
180384-56-9

>  <UNII>
3DRR0X4728

>  <SYNONYMS>
Clazosentan

$$$$
