
 OpenBabel10282417173D

 55 57  0  0  0  0  0  0  0  0999 V2000
   -0.9676   -1.4057   -0.0093 C   0  0  0  0  0  0  0  0  0  0  0  0
   -2.1886   -0.7235    0.0042 C   0  0  0  0  0  0  0  0  0  0  0  0
   -2.1853    0.6558   -0.0318 C   0  0  0  0  0  0  0  0  0  0  0  0
   -0.9936    1.3610   -0.1073 C   0  0  0  0  0  0  0  0  0  0  0  0
   -4.5492   -0.7502    0.0150 C   0  0  0  0  0  0  0  0  0  0  0  0
    1.6224   -1.0892   -0.0599 C   0  0  0  0  0  0  0  0  0  0  0  0
    2.4117    0.0628   -0.0957 C   0  0  0  0  0  0  0  0  0  0  0  0
    1.9667    2.5583    0.0223 C   0  0  0  0  0  0  0  0  0  0  0  0
    0.9349   -4.2498    1.2138 O   0  0  0  0  0  0  0  0  0  0  0  0
    1.6210   -3.2276    1.2767 C   0  0  0  0  0  0  0  0  0  0  0  0
    1.9899   -2.7674    2.5161 N   0  0  0  0  0  0  0  0  0  0  0  0
    2.7872   -1.5818    2.8202 C   0  0  1  0  0  0  0  0  0  0  0  0
    1.9911   -0.4890    3.5322 C   0  0  0  0  0  0  0  0  0  0  0  0
    1.5887   -0.9207    4.9277 C   0  0  0  0  0  0  0  0  0  0  0  0
    4.1084   -1.9222    3.5107 C   0  0  0  0  0  0  0  0  0  0  0  0
    4.8293   -2.8779    2.7381 O   0  0  0  0  0  0  0  0  0  0  0  0
    2.1077   -2.5114    0.0168 C   0  0  0  0  0  0  0  0  0  0  0  0
    0.2605   -0.6911   -0.0416 C   0  0  0  0  0  0  0  0  0  0  0  0
    3.9169    0.1093   -0.1186 C   0  0  0  0  0  0  0  0  0  0  0  0
    1.5695    1.1847   -0.0405 N   0  0  0  0  0  0  0  0  0  0  0  0
    0.2441    0.7045   -0.0630 C   0  0  0  0  0  0  0  0  0  0  0  0
   -3.3256   -1.4858    0.0253 O   0  0  0  0  0  0  0  0  0  0  0  0
    3.1678    2.8459   -0.0221 O   0  0  0  0  0  0  0  0  0  0  0  0
    1.0569    3.7128    0.1007 C   0  0  0  0  0  0  0  0  0  0  0  0
    0.1556    3.8382    1.1635 C   0  0  0  0  0  0  0  0  0  0  0  0
   -0.9161    4.7254    1.0359 C   0  0  0  0  0  0  0  0  0  0  0  0
   -0.9670    5.6013   -0.0494 C   0  0  0  0  0  0  0  0  0  0  0  0
   -2.3243    6.6390   -0.2410 Cl  0  0  0  0  0  0  0  0  0  0  0  0
    0.0505    5.6074   -1.0040 C   0  0  0  0  0  0  0  0  0  0  0  0
    1.0384    4.6233   -0.9623 C   0  0  0  0  0  0  0  0  0  0  0  0
   -0.9677   -2.4942   -0.0003 H   0  0  0  0  0  0  0  0  0  0  0  0
   -3.0959    1.2444   -0.0298 H   0  0  0  0  0  0  0  0  0  0  0  0
   -1.0971    2.4244   -0.2216 H   0  0  0  0  0  0  0  0  0  0  0  0
   -4.6352   -0.1259    0.9127 H   0  0  0  0  0  0  0  0  0  0  0  0
   -4.6369   -0.1395   -0.8925 H   0  0  0  0  0  0  0  0  0  0  0  0
   -5.3807   -1.4576    0.0195 H   0  0  0  0  0  0  0  0  0  0  0  0
    1.5812   -3.2914    3.2803 H   0  0  0  0  0  0  0  0  0  0  0  0
    3.0835   -1.1796    1.8779 H   0  0  0  0  0  0  0  0  0  0  0  0
    2.5985    0.4245    3.5898 H   0  0  0  0  0  0  0  0  0  0  0  0
    1.0936   -0.2267    2.9583 H   0  0  0  0  0  0  0  0  0  0  0  0
    2.4696   -1.1412    5.5362 H   0  0  0  0  0  0  0  0  0  0  0  0
    1.0259   -0.1322    5.4297 H   0  0  0  0  0  0  0  0  0  0  0  0
    0.9674   -1.8195    4.8839 H   0  0  0  0  0  0  0  0  0  0  0  0
    4.7247   -1.0201    3.5963 H   0  0  0  0  0  0  0  0  0  0  0  0
    3.9542   -2.3435    4.5044 H   0  0  0  0  0  0  0  0  0  0  0  0
    4.2326   -3.6425    2.6366 H   0  0  0  0  0  0  0  0  0  0  0  0
    1.7429   -3.0594   -0.8608 H   0  0  0  0  0  0  0  0  0  0  0  0
    3.2008   -2.5707   -0.0073 H   0  0  0  0  0  0  0  0  0  0  0  0
    4.3600   -0.3870    0.7490 H   0  0  0  0  0  0  0  0  0  0  0  0
    4.2810   -0.4266   -0.9982 H   0  0  0  0  0  0  0  0  0  0  0  0
    4.3633    1.0964   -0.1193 H   0  0  0  0  0  0  0  0  0  0  0  0
    0.1932    3.1509    2.0056 H   0  0  0  0  0  0  0  0  0  0  0  0
   -1.7374    4.6806    1.7474 H   0  0  0  0  0  0  0  0  0  0  0  0
    0.0545    6.3454   -1.8019 H   0  0  0  0  0  0  0  0  0  0  0  0
    1.7644    4.5449   -1.7700 H   0  0  0  0  0  0  0  0  0  0  0  0
  1  2  2  0  0  0  0
  1 31  1  0  0  0  0
  2  3  1  0  0  0  0
  2 22  1  0  0  0  0
  3  4  2  0  0  0  0
  3 32  1  0  0  0  0
  4 33  1  0  0  0  0
  5 22  1  0  0  0  0
  5 34  1  0  0  0  0
  5 35  1  0  0  0  0
  5 36  1  0  0  0  0
  6  7  2  0  0  0  0
  7 20  1  0  0  0  0
  8 20  1  0  0  0  0
  8 23  2  0  0  0  0
 10  9  2  0  0  0  0
 10 11  1  0  0  0  0
 11 37  1  0  0  0  0
 12 11  1  0  0  0  0
 12 13  1  0  0  0  0
 12 15  1  0  0  0  0
 12 38  1  6  0  0  0
 13 14  1  0  0  0  0
 13 39  1  0  0  0  0
 13 40  1  0  0  0  0
 14 41  1  0  0  0  0
 14 42  1  0  0  0  0
 14 43  1  0  0  0  0
 15 16  1  0  0  0  0
 15 44  1  0  0  0  0
 15 45  1  0  0  0  0
 16 46  1  0  0  0  0
 17  6  1  0  0  0  0
 17 10  1  0  0  0  0
 17 47  1  0  0  0  0
 17 48  1  0  0  0  0
 18  1  1  0  0  0  0
 18  6  1  0  0  0  0
 19  7  1  0  0  0  0
 19 49  1  0  0  0  0
 19 50  1  0  0  0  0
 19 51  1  0  0  0  0
 21  4  1  0  0  0  0
 21 18  2  0  0  0  0
 21 20  1  0  0  0  0
 24  8  1  0  0  0  0
 24 25  1  0  0  0  0
 24 30  2  0  0  0  0
 25 52  1  0  0  0  0
 26 25  2  0  0  0  0
 26 53  1  0  0  0  0
 27 26  1  0  0  0  0
 27 28  1  0  0  0  0
 29 27  2  0  0  0  0
 29 54  1  0  0  0  0
 30 29  1  0  0  0  0
 30 55  1  0  0  0  0
M  END
>  <DRUGBANK_ID>
DB07984

>  <COMMON_NAME>
2-[1-(4-chlorobenzoyl)-5-methoxy-2-methyl-1H-indol-3-yl]-n-[(1S)-1-(hydroxymethyl)propyl]acetamide

$$$$
