OA2
 OpenBabel10282417173D

 40 42  0  0  0  0  0  0  0  0999 V2000
    1.0459    0.0239   -0.0652 O   0  0  0  0  0  0  0  0  0  0  0  0
    2.2666    0.0714   -0.1710 C   0  0  0  0  0  0  0  0  0  0  0  0
    2.8592    1.2806   -0.7456 C   0  0  0  0  0  0  0  0  0  0  0  0
    3.6179    1.3205   -1.9030 O   0  0  0  0  0  0  0  0  0  0  0  0
    3.9821    2.6422   -2.0351 C   0  0  0  0  0  0  0  0  0  0  0  0
    4.9534    2.9672   -2.8890 N   0  0  0  0  0  0  0  0  0  0  0  0
    3.3775    3.4471   -1.2040 N   0  0  0  0  0  0  0  0  0  0  0  0
    2.6058    2.6048   -0.4456 C   0  0  0  0  0  0  0  0  0  0  0  0
    3.0506   -0.9925    0.3833 N   0  0  0  0  0  0  0  0  0  0  0  0
    2.2708   -2.0730    1.1315 C   0  0  0  0  0  0  0  0  0  0  0  0
    2.4357   -3.4945    0.6028 C   0  0  0  0  0  0  0  0  0  0  0  0
    3.3407   -3.7167   -0.4133 C   0  0  0  0  0  0  0  0  0  0  0  0
    3.7670   -4.9545   -0.8777 C   0  0  0  0  0  0  0  0  0  0  0  0
    3.1233   -6.0699   -0.4164 C   0  0  0  0  0  0  0  0  0  0  0  0
    2.1004   -5.9048    0.5198 C   0  0  0  0  0  0  0  0  0  0  0  0
    1.7526   -4.6286    1.0290 C   0  0  0  0  0  0  0  0  0  0  0  0
    4.5532   -0.9929    0.5195 C   0  0  0  0  0  0  0  0  0  0  0  0
    5.3686   -1.0755   -0.7811 C   0  0  0  0  0  0  0  0  0  0  0  0
    5.8265    0.0799   -1.3762 C   0  0  0  0  0  0  0  0  0  0  0  0
    6.2822    0.0775   -2.7038 C   0  0  0  0  0  0  0  0  0  0  0  0
    6.3282   -1.0772   -3.4640 C   0  0  0  0  0  0  0  0  0  0  0  0
    6.1156   -2.2685   -2.8158 C   0  0  0  0  0  0  0  0  0  0  0  0
    5.7192   -2.2495   -1.4714 C   0  0  0  0  0  0  0  0  0  0  0  0
    5.3449    2.3204   -3.5526 H   0  0  0  0  0  0  0  0  0  0  0  0
    5.2684    3.9256   -2.9614 H   0  0  0  0  0  0  0  0  0  0  0  0
    1.9233    2.9906    0.2939 H   0  0  0  0  0  0  0  0  0  0  0  0
    2.5986   -2.0422    2.1822 H   0  0  0  0  0  0  0  0  0  0  0  0
    1.1985   -1.8499    1.1365 H   0  0  0  0  0  0  0  0  0  0  0  0
    3.6783   -2.8358   -0.9087 H   0  0  0  0  0  0  0  0  0  0  0  0
    4.5615   -5.0218   -1.6155 H   0  0  0  0  0  0  0  0  0  0  0  0
    3.3868   -7.0360   -0.8341 H   0  0  0  0  0  0  0  0  0  0  0  0
    1.5680   -6.7896    0.8522 H   0  0  0  0  0  0  0  0  0  0  0  0
    0.9154   -4.5460    1.7159 H   0  0  0  0  0  0  0  0  0  0  0  0
    4.8279   -0.0880    1.0764 H   0  0  0  0  0  0  0  0  0  0  0  0
    4.8416   -1.8336    1.1649 H   0  0  0  0  0  0  0  0  0  0  0  0
    5.7418    1.0177   -0.8341 H   0  0  0  0  0  0  0  0  0  0  0  0
    6.5991    0.9986   -3.1635 H   0  0  0  0  0  0  0  0  0  0  0  0
    6.6087   -1.0419   -4.5113 H   0  0  0  0  0  0  0  0  0  0  0  0
    6.2740   -3.2110   -3.3326 H   0  0  0  0  0  0  0  0  0  0  0  0
    5.6508   -3.2164   -0.9953 H   0  0  0  0  0  0  0  0  0  0  0  0
  1  2  2  0  0  0  0
  2  3  1  0  0  0  0
  2  9  1  0  0  0  0
  3  4  1  0  0  0  0
  3  8  2  0  0  0  0
  4  5  1  0  0  0  0
  5  6  1  0  0  0  0
  5  7  2  0  0  0  0
  6 24  1  0  0  0  0
  6 25  1  0  0  0  0
  7  8  1  0  0  0  0
  8 26  1  0  0  0  0
  9 10  1  0  0  0  0
  9 17  1  0  0  0  0
 10 11  1  0  0  0  0
 10 27  1  0  0  0  0
 10 28  1  0  0  0  0
 11 12  1  0  0  0  0
 11 16  2  0  0  0  0
 12 13  2  0  0  0  0
 12 29  1  0  0  0  0
 13 14  1  0  0  0  0
 13 30  1  0  0  0  0
 14 15  2  0  0  0  0
 14 31  1  0  0  0  0
 15 16  1  0  0  0  0
 15 32  1  0  0  0  0
 16 33  1  0  0  0  0
 17 18  1  0  0  0  0
 17 34  1  0  0  0  0
 17 35  1  0  0  0  0
 18 19  1  0  0  0  0
 18 23  2  0  0  0  0
 19 20  2  0  0  0  0
 19 36  1  0  0  0  0
 20 21  1  0  0  0  0
 20 37  1  0  0  0  0
 21 22  2  0  0  0  0
 21 38  1  0  0  0  0
 22 23  1  0  0  0  0
 22 39  1  0  0  0  0
 23 40  1  0  0  0  0
M  END
>  <DRUGBANK_ID>
DB08315

>  <COMMON_NAME>
2-AMINO-N,N-BIS(PHENYLMETHYL)-1,3-OXAZOLE-5-CARBOXAMIDE

$$$$
