
 OpenBabel10282417213D

 38 39  0  0  0  0  0  0  0  0999 V2000
    1.3659    0.1526   -0.5635 S   0  0  0  0  0  0  0  0  0  0  0  0
    3.2328    0.0763    0.3481 S   0  0  0  0  0  0  0  0  0  0  0  0
    3.7890   -1.6285    0.2049 C   0  0  0  0  0  0  0  0  0  0  0  0
    5.1897   -1.7874    0.1489 N   0  0  0  0  0  0  0  0  0  0  0  0
    2.7273   -2.9383    0.1680 S   0  0  0  0  0  0  0  0  0  0  0  0
    0.6505    1.7507   -0.2442 C   0  0  0  0  0  0  0  0  0  0  0  0
    1.4947    2.8730   -0.1681 N   0  0  0  0  0  0  0  0  0  0  0  0
   -1.0300    1.8676   -0.1505 S   0  0  0  0  0  0  0  0  0  0  0  0
    1.1729    4.0172    0.6951 C   0  0  0  0  0  0  0  0  0  0  0  0
    0.9792    5.2999   -0.1118 C   0  0  0  0  0  0  0  0  0  0  0  0
    2.1889    5.5688   -0.9990 C   0  0  0  0  0  0  0  0  0  0  0  0
    2.5002    4.3583   -1.8760 C   0  0  0  0  0  0  0  0  0  0  0  0
    2.6345    3.0670   -1.0581 C   0  0  0  0  0  0  0  0  0  0  0  0
    5.8417   -2.9163   -0.5414 C   0  0  0  0  0  0  0  0  0  0  0  0
    6.5506   -3.8574    0.4323 C   0  0  0  0  0  0  0  0  0  0  0  0
    7.5138   -3.0901    1.3362 C   0  0  0  0  0  0  0  0  0  0  0  0
    6.8121   -1.9089    2.0052 C   0  0  0  0  0  0  0  0  0  0  0  0
    6.1121   -1.0056    0.9822 C   0  0  0  0  0  0  0  0  0  0  0  0
    2.0303    4.1390    1.3750 H   0  0  0  0  0  0  0  0  0  0  0  0
    0.3067    3.8278    1.3232 H   0  0  0  0  0  0  0  0  0  0  0  0
    0.8223    6.1448    0.5686 H   0  0  0  0  0  0  0  0  0  0  0  0
    0.0804    5.2158   -0.7360 H   0  0  0  0  0  0  0  0  0  0  0  0
    2.0034    6.4479   -1.6263 H   0  0  0  0  0  0  0  0  0  0  0  0
    3.0594    5.8014   -0.3717 H   0  0  0  0  0  0  0  0  0  0  0  0
    1.6952    4.2384   -2.6129 H   0  0  0  0  0  0  0  0  0  0  0  0
    3.4242    4.5366   -2.4355 H   0  0  0  0  0  0  0  0  0  0  0  0
    2.7410    2.2358   -1.7559 H   0  0  0  0  0  0  0  0  0  0  0  0
    3.5344    3.1199   -0.4309 H   0  0  0  0  0  0  0  0  0  0  0  0
    6.5808   -2.4809   -1.2258 H   0  0  0  0  0  0  0  0  0  0  0  0
    5.1357   -3.4719   -1.1654 H   0  0  0  0  0  0  0  0  0  0  0  0
    7.1037   -4.6231   -0.1251 H   0  0  0  0  0  0  0  0  0  0  0  0
    5.8125   -4.3802    1.0514 H   0  0  0  0  0  0  0  0  0  0  0  0
    7.9233   -3.7632    2.0988 H   0  0  0  0  0  0  0  0  0  0  0  0
    8.3626   -2.7256    0.7447 H   0  0  0  0  0  0  0  0  0  0  0  0
    6.0720   -2.2949    2.7175 H   0  0  0  0  0  0  0  0  0  0  0  0
    7.5404   -1.3259    2.5796 H   0  0  0  0  0  0  0  0  0  0  0  0
    5.5946   -0.2147    1.5284 H   0  0  0  0  0  0  0  0  0  0  0  0
    6.8477   -0.5388    0.3181 H   0  0  0  0  0  0  0  0  0  0  0  0
  1  6  1  0  0  0  0
  1  2  1  0  0  0  0
  2  3  1  0  0  0  0
  3  5  2  0  0  0  0
  3  4  1  0  0  0  0
  4 14  1  0  0  0  0
  4 18  1  0  0  0  0
  6  7  1  0  0  0  0
  6  8  2  0  0  0  0
  7 13  1  0  0  0  0
  7  9  1  0  0  0  0
  9 10  1  0  0  0  0
  9 19  1  0  0  0  0
  9 20  1  0  0  0  0
 10 11  1  0  0  0  0
 10 21  1  0  0  0  0
 10 22  1  0  0  0  0
 11 12  1  0  0  0  0
 11 23  1  0  0  0  0
 11 24  1  0  0  0  0
 12 13  1  0  0  0  0
 12 25  1  0  0  0  0
 12 26  1  0  0  0  0
 13 27  1  0  0  0  0
 13 28  1  0  0  0  0
 14 15  1  0  0  0  0
 14 29  1  0  0  0  0
 14 30  1  0  0  0  0
 15 16  1  0  0  0  0
 15 31  1  0  0  0  0
 15 32  1  0  0  0  0
 16 17  1  0  0  0  0
 16 33  1  0  0  0  0
 16 34  1  0  0  0  0
 17 18  1  0  0  0  0
 17 35  1  0  0  0  0
 17 36  1  0  0  0  0
 18 37  1  0  0  0  0
 18 38  1  0  0  0  0
M  END
>  <DRUGBANK_ID>
DB14174

>  <COMMON_NAME>
Dipentamethylenethiuram disulfide

>  <CAS_NUMBER>
94-37-1

>  <UNII>
CR113982E5

>  <SYNONYMS>
1-Piperidinethiocarbonyl disulfide; 1,1'-(Dithiodicarbonothioyl)bispiperidine; Bis(1-piperidylthiocarbonyl) disulfide; Bis(1-piperidylthiocarbonyl)disulfide; Bis(pentamethylene)thiuram disulfide; Bis(piperidinothiocarbonyl)disulfide

$$$$
