
 OpenBabel10282417213D

 48 52  0  0  1  0  0  0  0  0999 V2000
    0.5665    0.0363    0.0758 C   0  0  0  0  0  0  0  0  0  0  0  0
    0.2489   -0.2852    1.4222 O   0  0  0  0  0  0  0  0  0  0  0  0
    0.7348   -1.4861    1.8688 C   0  0  0  0  0  0  0  0  0  0  0  0
    2.0823   -1.8389    1.9184 C   0  0  0  0  0  0  0  0  0  0  0  0
    2.4147   -3.0804    2.5427 C   0  0  0  0  0  0  0  0  0  0  0  0
    1.4671   -4.0081    2.9321 C   0  0  0  0  0  0  0  0  0  0  0  0
    0.1448   -3.6258    2.8973 C   0  0  0  0  0  0  0  0  0  0  0  0
   -1.0426   -4.7250    3.4717 Cl  0  0  0  0  0  0  0  0  0  0  0  0
   -0.2157   -2.3577    2.4241 C   0  0  0  0  0  0  0  0  0  0  0  0
    3.2008   -1.0388    1.2486 C   0  0  2  0  0  0  0  0  0  0  0  0
    3.5924   -1.7559   -0.0171 N   0  0  0  0  0  0  0  0  0  0  0  0
    4.2826   -3.0294    0.2035 C   0  0  0  0  0  0  0  0  0  0  0  0
    5.5927   -2.6719    0.9227 C   0  0  0  0  0  0  0  0  0  0  0  0
    6.5939   -2.1170   -0.1017 C   0  0  0  0  0  0  0  0  0  0  0  0
    6.7981   -3.4407    0.5761 C   0  0  0  0  0  0  0  0  0  0  0  0
    5.4605   -1.7847    2.1504 C   0  0  0  0  0  0  0  0  0  0  0  0
    4.3756   -0.9539    2.1633 C   0  0  0  0  0  0  0  0  0  0  0  0
    4.5788   -0.0107    3.1361 N   0  0  0  0  0  0  0  0  0  0  0  0
    5.7251   -0.3272    3.8388 C   0  0  0  0  0  0  0  0  0  0  0  0
    6.2444   -1.5110    3.2861 C   0  0  0  0  0  0  0  0  0  0  0  0
    7.3528   -2.0971    3.9151 C   0  0  0  0  0  0  0  0  0  0  0  0
    7.8119   -3.2945    3.5280 F   0  0  0  0  0  0  0  0  0  0  0  0
    7.9805   -1.4530    4.9790 C   0  0  0  0  0  0  0  0  0  0  0  0
    7.5013   -0.2314    5.4445 C   0  0  0  0  0  0  0  0  0  0  0  0
    6.3514    0.3477    4.8964 C   0  0  0  0  0  0  0  0  0  0  0  0
    3.6217   -1.3347   -1.3431 C   0  0  0  0  0  0  0  0  0  0  0  0
    3.3154    0.0855   -1.7326 C   0  0  0  0  0  0  0  0  0  0  0  0
    3.9290   -2.0892   -2.2558 O   0  0  0  0  0  0  0  0  0  0  0  0
    0.1877    1.0304   -0.1720 H   0  0  0  0  0  0  0  0  0  0  0  0
    0.2350   -0.7137   -0.6446 H   0  0  0  0  0  0  0  0  0  0  0  0
    1.6180    0.1550   -0.0447 H   0  0  0  0  0  0  0  0  0  0  0  0
    3.4503   -3.3965    2.6660 H   0  0  0  0  0  0  0  0  0  0  0  0
    1.7866   -4.9975    3.2510 H   0  0  0  0  0  0  0  0  0  0  0  0
   -1.2553   -2.0519    2.4651 H   0  0  0  0  0  0  0  0  0  0  0  0
    2.9683    0.0083    1.0748 H   0  0  0  0  0  0  0  0  0  0  0  0
    3.6321   -3.7513    0.6983 H   0  0  0  0  0  0  0  0  0  0  0  0
    4.5062   -3.5640   -0.7264 H   0  0  0  0  0  0  0  0  0  0  0  0
    7.5637   -1.6489   -0.1444 H   0  0  0  0  0  0  0  0  0  0  0  0
    6.1013   -1.8997   -1.0440 H   0  0  0  0  0  0  0  0  0  0  0  0
    7.5908   -3.4691    1.3104 H   0  0  0  0  0  0  0  0  0  0  0  0
    6.7227   -4.3085   -0.0549 H   0  0  0  0  0  0  0  0  0  0  0  0
    4.0043    0.8060    3.3084 H   0  0  0  0  0  0  0  0  0  0  0  0
    8.8565   -1.9134    5.4236 H   0  0  0  0  0  0  0  0  0  0  0  0
    8.0248    0.2742    6.2526 H   0  0  0  0  0  0  0  0  0  0  0  0
    5.9771    1.2968    5.2702 H   0  0  0  0  0  0  0  0  0  0  0  0
    4.1498    0.4664   -2.3287 H   0  0  0  0  0  0  0  0  0  0  0  0
    2.4171    0.0709   -2.3599 H   0  0  0  0  0  0  0  0  0  0  0  0
    3.2015    0.7741   -0.9047 H   0  0  0  0  0  0  0  0  0  0  0  0
  1  2  1  0  0  0  0
  1 29  1  0  0  0  0
  1 30  1  0  0  0  0
  1 31  1  0  0  0  0
  2  3  1  0  0  0  0
  3  4  2  0  0  0  0
  3  9  1  0  0  0  0
  4  5  1  0  0  0  0
  5  6  2  0  0  0  0
  5 32  1  0  0  0  0
  6  7  1  0  0  0  0
  6 33  1  0  0  0  0
  7  8  1  0  0  0  0
  7  9  2  0  0  0  0
  9 34  1  0  0  0  0
 10  4  1  0  0  0  0
 10 11  1  0  0  0  0
 10 17  1  0  0  0  0
 10 35  1  6  0  0  0
 11 12  1  0  0  0  0
 11 26  1  0  0  0  0
 12 13  1  0  0  0  0
 12 36  1  0  0  0  0
 12 37  1  0  0  0  0
 13 14  1  0  0  0  0
 13 15  1  0  0  0  0
 13 16  1  0  0  0  0
 14 15  1  0  0  0  0
 14 38  1  0  0  0  0
 14 39  1  0  0  0  0
 15 40  1  0  0  0  0
 15 41  1  0  0  0  0
 16 17  2  0  0  0  0
 16 20  1  0  0  0  0
 17 18  1  0  0  0  0
 18 19  1  0  0  0  0
 18 42  1  0  0  0  0
 19 20  2  0  0  0  0
 19 25  1  0  0  0  0
 20 21  1  0  0  0  0
 21 22  1  0  0  0  0
 21 23  2  0  0  0  0
 23 24  1  0  0  0  0
 23 43  1  0  0  0  0
 24 25  2  0  0  0  0
 24 44  1  0  0  0  0
 25 45  1  0  0  0  0
 26 27  1  0  0  0  0
 26 28  2  0  0  0  0
 27 46  1  0  0  0  0
 27 47  1  0  0  0  0
 27 48  1  0  0  0  0
M  END
>  <DRUGBANK_ID>
DB14802

>  <COMMON_NAME>
ONO-2952

>  <CAS_NUMBER>
895169-20-7

>  <UNII>
ZH8CPX4YNB

$$$$
