
 OpenBabel10282417143D

 46 48  0  0  1  0  0  0  0  0999 V2000
    0.8821    4.2118    1.3275 O   0  0  0  0  0  0  0  0  0  0  0  0
    0.8519    1.7855    1.1086 N   0  0  0  0  0  0  0  0  0  0  0  0
    2.3739    2.2358    1.2349 C   0  0  1  0  0  0  0  0  0  0  0  0
    2.7299    3.1192    0.0645 C   0  0  0  0  0  0  0  0  0  0  0  0
    3.0322    3.0965    2.5484 C   0  0  0  0  0  0  0  0  0  0  0  0
    1.5584    3.9777   -0.1697 C   0  0  0  0  0  0  0  0  0  0  0  0
    0.4977    0.4196    1.0672 C   0  0  0  0  0  0  0  0  0  0  0  0
   -0.1278    2.3152    0.1529 C   0  0  0  0  0  0  0  0  0  0  0  0
    2.9605    4.5149    2.5856 C   0  0  0  0  0  0  0  0  0  0  0  0
    3.2973    2.5091    3.8039 C   0  0  0  0  0  0  0  0  0  0  0  0
    0.5749    3.3616    2.8293 C   0  0  0  0  0  0  0  0  0  0  0  0
    1.1348    1.9596    3.8566 C   0  0  0  0  0  0  0  0  0  0  0  0
    2.8486    5.2480    3.7720 C   0  0  0  0  0  0  0  0  0  0  0  0
    3.0004    3.2279    5.0190 C   0  0  0  0  0  0  0  0  0  0  0  0
   -0.0595    1.9164    3.9881 C   0  0  0  0  0  0  0  0  0  0  0  0
    2.8785    4.6019    4.9932 C   0  0  0  0  0  0  0  0  0  0  0  0
   -0.0419    4.5500    3.3158 C   0  0  0  0  0  0  0  0  0  0  0  0
    1.7284    0.4183    5.0272 C   0  0  0  0  0  0  0  0  0  0  0  0
   -0.1654    2.9755    4.9848 C   0  0  0  0  0  0  0  0  0  0  0  0
   -0.1222    4.3266    4.6240 C   0  0  0  0  0  0  0  0  0  0  0  0
    0.0523    0.5975    3.7090 C   0  0  0  0  0  0  0  0  0  0  0  0
    1.2434   -0.8447    4.9467 C   0  0  0  0  0  0  0  0  0  0  0  0
    0.1254   -0.1120    4.9044 C   0  0  0  0  0  0  0  0  0  0  0  0
    2.9223    1.3094    1.2809 H   0  0  0  0  0  0  0  0  0  0  0  0
    2.9878    2.5010   -0.7840 H   0  0  0  0  0  0  0  0  0  0  0  0
    3.5073    3.8502    0.2648 H   0  0  0  0  0  0  0  0  0  0  0  0
    0.9339    3.4994   -0.9469 H   0  0  0  0  0  0  0  0  0  0  0  0
    1.5693    4.7925   -0.9395 H   0  0  0  0  0  0  0  0  0  0  0  0
   -0.5918    0.3337    1.2315 H   0  0  0  0  0  0  0  0  0  0  0  0
    0.9600   -0.0141    0.2139 H   0  0  0  0  0  0  0  0  0  0  0  0
    0.8818   -0.2074    1.8068 H   0  0  0  0  0  0  0  0  0  0  0  0
   -1.1899    2.1159    0.1861 H   0  0  0  0  0  0  0  0  0  0  0  0
   -0.3743    3.3852    0.1980 H   0  0  0  0  0  0  0  0  0  0  0  0
    0.2910    1.9319   -0.7806 H   0  0  0  0  0  0  0  0  0  0  0  0
    2.7153    5.0762    1.6910 H   0  0  0  0  0  0  0  0  0  0  0  0
    3.2243    1.4180    3.8488 H   0  0  0  0  0  0  0  0  0  0  0  0
    2.5863    6.2986    3.7042 H   0  0  0  0  0  0  0  0  0  0  0  0
    2.6102    2.7110    5.9184 H   0  0  0  0  0  0  0  0  0  0  0  0
    2.7672    5.1490    5.9152 H   0  0  0  0  0  0  0  0  0  0  0  0
   -0.1331    5.5491    2.8739 H   0  0  0  0  0  0  0  0  0  0  0  0
    1.3322   -0.0725    6.3183 H   0  0  0  0  0  0  0  0  0  0  0  0
    0.0902    2.6793    5.9798 H   0  0  0  0  0  0  0  0  0  0  0  0
    0.0336    5.1008    5.3533 H   0  0  0  0  0  0  0  0  0  0  0  0
    1.2745    0.2339    3.1587 H   0  0  0  0  0  0  0  0  0  0  0  0
    1.5297   -1.7128    4.2899 H   0  0  0  0  0  0  0  0  0  0  0  0
    0.1312    0.8092    5.9074 H   0  0  0  0  0  0  0  0  0  0  0  0
  1  6  1  0  0  0  0
  1 11  1  0  0  0  0
  2  7  1  0  0  0  0
  2  8  1  0  0  0  0
  3  5  1  0  0  0  0
  3 24  1  6  0  0  0
  3  4  1  0  0  0  0
  3  2  1  0  0  0  0
  4  6  1  0  0  0  0
  4 25  1  0  0  0  0
  4 26  1  0  0  0  0
  5  9  2  0  0  0  0
  5 10  1  0  0  0  0
  6 27  1  0  0  0  0
  6 28  1  0  0  0  0
  7 29  1  0  0  0  0
  7 30  1  0  0  0  0
  7 31  1  0  0  0  0
  8 32  1  0  0  0  0
  8 33  1  0  0  0  0
  8 34  1  0  0  0  0
  9 13  1  0  0  0  0
  9 35  1  0  0  0  0
 10 14  2  0  0  0  0
 10 36  1  0  0  0  0
 11 12  1  0  0  0  0
 11 17  2  0  0  0  0
 12 15  1  0  0  0  0
 12 18  2  0  0  0  0
 13 16  2  0  0  0  0
 13 37  1  0  0  0  0
 14 16  1  0  0  0  0
 14 38  1  0  0  0  0
 15 19  1  0  0  0  0
 15 21  2  0  0  0  0
 16 39  1  0  0  0  0
 17 20  1  0  0  0  0
 17 40  1  0  0  0  0
 18 22  1  0  0  0  0
 18 41  1  0  0  0  0
 19 20  2  0  0  0  0
 19 42  1  0  0  0  0
 20 43  1  0  0  0  0
 21 23  1  0  0  0  0
 21 44  1  0  0  0  0
 22 23  2  0  0  0  0
 22 45  1  0  0  0  0
 23 46  1  0  0  0  0
M  END
>  <DRUGBANK_ID>
DB04884

>  <COMMON_NAME>
Dapoxetine

>  <CAS_NUMBER>
119356-77-3

>  <UNII>
GB2433A4M3

>  <SYNONYMS>
Dapoxetina; Dapoxetine; Dapoxetinum

$$$$
