
 OpenBabel10282417223D

 45 48  0  0  0  0  0  0  0  0999 V2000
    1.0839   -0.0302    0.1170 F   0  0  0  0  0  0  0  0  0  0  0  0
    2.4244   -0.0173    0.0308 C   0  0  0  0  0  0  0  0  0  0  0  0
    3.0968    1.1947    0.0079 C   0  0  0  0  0  0  0  0  0  0  0  0
    4.4852    1.2072   -0.1797 C   0  0  0  0  0  0  0  0  0  0  0  0
    5.2089    0.0131   -0.3023 C   0  0  0  0  0  0  0  0  0  0  0  0
    4.5082   -1.1935   -0.1329 C   0  0  0  0  0  0  0  0  0  0  0  0
    3.1140   -1.2111   -0.0248 C   0  0  0  0  0  0  0  0  0  0  0  0
    6.9810    0.0431   -0.7164 P   0  3  0  0  0  0  0  0  0  0  0  0
    7.1676    0.8111   -2.3376 C   0  0  0  0  0  0  0  0  0  0  0  0
    6.7036    2.1109   -2.5933 C   0  0  0  0  0  0  0  0  0  0  0  0
    6.6374    2.6105   -3.8975 C   0  0  0  0  0  0  0  0  0  0  0  0
    7.1174    1.8523   -4.9598 C   0  0  0  0  0  0  0  0  0  0  0  0
    7.7054    0.6185   -4.7099 C   0  0  0  0  0  0  0  0  0  0  0  0
    7.7173    0.1005   -3.4137 C   0  0  0  0  0  0  0  0  0  0  0  0
    7.8330    0.9557    0.5668 C   0  0  0  0  0  0  0  0  0  0  0  0
    7.6423    0.5899    1.9101 C   0  0  0  0  0  0  0  0  0  0  0  0
    8.2517    1.3019    2.9440 C   0  0  0  0  0  0  0  0  0  0  0  0
    9.1034    2.3614    2.6479 C   0  0  0  0  0  0  0  0  0  0  0  0
    9.3546    2.6964    1.3193 C   0  0  0  0  0  0  0  0  0  0  0  0
    8.7062    2.0132    0.2863 C   0  0  0  0  0  0  0  0  0  0  0  0
    7.5863   -1.6562   -0.7742 C   0  0  0  0  0  0  0  0  0  0  0  0
    6.9664   -2.6007   -1.6144 C   0  0  0  0  0  0  0  0  0  0  0  0
    7.2921   -3.9541   -1.5401 C   0  0  0  0  0  0  0  0  0  0  0  0
    8.3077   -4.3729   -0.6880 C   0  0  0  0  0  0  0  0  0  0  0  0
    9.0072   -3.4363    0.0689 C   0  0  0  0  0  0  0  0  0  0  0  0
    8.6346   -2.0914    0.0425 C   0  0  0  0  0  0  0  0  0  0  0  0
    2.5445    2.1199    0.1160 H   0  0  0  0  0  0  0  0  0  0  0  0
    4.9885    2.1662   -0.2370 H   0  0  0  0  0  0  0  0  0  0  0  0
    5.0228   -2.1452   -0.0973 H   0  0  0  0  0  0  0  0  0  0  0  0
    2.5781   -2.1547    0.0096 H   0  0  0  0  0  0  0  0  0  0  0  0
    6.3713    2.7504   -1.7818 H   0  0  0  0  0  0  0  0  0  0  0  0
    6.1979    3.5871   -4.0844 H   0  0  0  0  0  0  0  0  0  0  0  0
    7.0434    2.2242   -5.9777 H   0  0  0  0  0  0  0  0  0  0  0  0
    8.1365    0.0420   -5.5238 H   0  0  0  0  0  0  0  0  0  0  0  0
    8.1475   -0.8852   -3.2677 H   0  0  0  0  0  0  0  0  0  0  0  0
    7.0241   -0.2723    2.1538 H   0  0  0  0  0  0  0  0  0  0  0  0
    8.0655    1.0240    3.9781 H   0  0  0  0  0  0  0  0  0  0  0  0
    9.5779    2.9196    3.4506 H   0  0  0  0  0  0  0  0  0  0  0  0
   10.0578    3.4919    1.0853 H   0  0  0  0  0  0  0  0  0  0  0  0
    8.8993    2.3168   -0.7391 H   0  0  0  0  0  0  0  0  0  0  0  0
    6.1851   -2.2840   -2.3047 H   0  0  0  0  0  0  0  0  0  0  0  0
    6.7446   -4.6786   -2.1373 H   0  0  0  0  0  0  0  0  0  0  0  0
    8.5589   -5.4273   -0.6164 H   0  0  0  0  0  0  0  0  0  0  0  0
    9.8353   -3.7525    0.6973 H   0  0  0  0  0  0  0  0  0  0  0  0
    9.1664   -1.3945    0.6838 H   0  0  0  0  0  0  0  0  0  0  0  0
  1  2  1  0  0  0  0
  2  3  2  0  0  0  0
  2  7  1  0  0  0  0
  3  4  1  0  0  0  0
  3 27  1  0  0  0  0
  4  5  2  0  0  0  0
  4 28  1  0  0  0  0
  5  6  1  0  0  0  0
  5  8  1  0  0  0  0
  6  7  2  0  0  0  0
  6 29  1  0  0  0  0
  7 30  1  0  0  0  0
  8  9  1  0  0  0  0
  8 15  1  0  0  0  0
  8 21  1  0  0  0  0
  9 10  2  0  0  0  0
  9 14  1  0  0  0  0
 10 11  1  0  0  0  0
 10 31  1  0  0  0  0
 11 12  2  0  0  0  0
 11 32  1  0  0  0  0
 12 13  1  0  0  0  0
 12 33  1  0  0  0  0
 13 14  2  0  0  0  0
 13 34  1  0  0  0  0
 14 35  1  0  0  0  0
 15 16  2  0  0  0  0
 15 20  1  0  0  0  0
 16 17  1  0  0  0  0
 16 36  1  0  0  0  0
 17 18  2  0  0  0  0
 17 37  1  0  0  0  0
 18 19  1  0  0  0  0
 18 38  1  0  0  0  0
 19 20  2  0  0  0  0
 19 39  1  0  0  0  0
 20 40  1  0  0  0  0
 21 22  2  0  0  0  0
 21 26  1  0  0  0  0
 22 23  1  0  0  0  0
 22 41  1  0  0  0  0
 23 24  2  0  0  0  0
 23 42  1  0  0  0  0
 24 25  1  0  0  0  0
 24 43  1  0  0  0  0
 25 26  2  0  0  0  0
 25 44  1  0  0  0  0
 26 45  1  0  0  0  0
M  ISO  1   1  18
M  CHG  1   8   1
M  END
>  <DRUGBANK_ID>
DB15424

>  <COMMON_NAME>
Bfpet F-18

>  <CAS_NUMBER>
863644-14-8

>  <UNII>
BHG7KQ27XV

>  <SYNONYMS>
18F-TPP

$$$$
