SIH
 OpenBabel10282417173D

 65 68  0  0  0  0  0  0  0  0999 V2000
   -2.2793   -1.4149    0.0933 C   0  0  0  0  0  0  0  0  0  0  0  0
   -3.7646   -1.2355   -0.1402 C   0  0  0  0  0  0  0  0  0  0  0  0
   -4.1800    0.1040    0.3776 C   0  0  0  0  0  0  0  0  0  0  0  0
   -5.3090    0.3203    0.8073 O   0  0  0  0  0  0  0  0  0  0  0  0
   -3.2023    1.2118    0.2378 C   0  0  0  0  0  0  0  0  0  0  0  0
   -1.9532    1.0080   -0.2283 C   0  0  0  0  0  0  0  0  0  0  0  0
   -1.0702    2.1770   -0.5634 C   0  0  0  0  0  0  0  0  0  0  0  0
    0.3453    2.0650   -0.0062 C   0  0  0  0  0  0  0  0  0  0  0  0
    1.0046    0.7088   -0.2891 C   0  0  2  0  0  0  0  0  0  0  0  0
    0.0902   -0.4126    0.2645 C   0  0  1  0  0  0  0  0  0  0  0  0
   -1.3288   -0.3654   -0.4702 C   0  0  1  0  0  0  0  0  0  0  0  0
    0.8330   -1.7945    0.3796 C   0  0  2  0  0  0  0  0  0  0  0  0
    0.2296   -2.6558    1.3686 O   0  0  0  0  0  0  0  0  0  0  0  0
    2.3246   -1.8007    0.7505 C   0  0  0  0  0  0  0  0  0  0  0  0
    3.1089   -0.7106    0.0564 C   0  0  1  0  0  0  0  0  0  0  0  0
    2.3820    0.6160    0.3657 C   0  0  1  0  0  0  0  0  0  0  0  0
    3.4118    1.6753    0.0093 C   0  0  0  0  0  0  0  0  0  0  0  0
    4.7482    1.0412    0.4058 C   0  0  0  0  0  0  0  0  0  0  0  0
    4.4647   -0.4361    0.7286 C   0  0  2  0  0  0  0  0  0  0  0  0
    3.2413   -1.0181   -1.4456 C   0  0  0  0  0  0  0  0  0  0  0  0
   -1.1980   -0.6559   -1.9795 C   0  0  0  0  0  0  0  0  0  0  0  0
    5.6708   -1.2966    0.3670 C   0  0  0  0  0  0  0  0  0  0  0  0
    5.7318   -2.0628   -0.5896 O   0  0  0  0  0  0  0  0  0  0  0  0
    6.8446   -1.1512    1.2875 C   0  0  0  0  0  0  0  0  0  0  0  0
    0.0603   -2.2671    2.6548 C   0  0  0  0  0  0  0  0  0  0  0  0
    0.5055   -1.2411    3.1504 O   0  0  0  0  0  0  0  0  0  0  0  0
   -0.7457   -3.2745    3.4372 C   0  0  0  0  0  0  0  0  0  0  0  0
   -2.1915   -3.4298    2.9837 C   0  0  0  0  0  0  0  0  0  0  0  0
   -2.3707   -4.2758    1.7323 C   0  0  0  0  0  0  0  0  0  0  0  0
   -3.2302   -5.1025    1.5447 O   0  0  0  0  0  0  0  0  0  0  0  0
   -1.5258   -3.9702    0.7445 O   0  0  0  0  0  0  0  0  0  0  0  0
    1.1232    0.6015   -1.3713 H   0  0  0  0  0  0  0  0  0  0  0  0
   -0.1389   -0.1163    1.2938 H   0  0  0  0  0  0  0  0  0  0  0  0
    0.7388   -2.3093   -0.5857 H   0  0  0  0  0  0  0  0  0  0  0  0
    2.2226    0.6922    1.4551 H   0  0  0  0  0  0  0  0  0  0  0  0
    4.3424   -0.5418    1.8183 H   0  0  0  0  0  0  0  0  0  0  0  0
   -2.1200   -1.4773    1.1690 H   0  0  0  0  0  0  0  0  0  0  0  0
   -2.0357   -2.3344   -0.4188 H   0  0  0  0  0  0  0  0  0  0  0  0
   -4.3089   -2.0227    0.3961 H   0  0  0  0  0  0  0  0  0  0  0  0
   -4.0127   -1.3142   -1.2021 H   0  0  0  0  0  0  0  0  0  0  0  0
   -3.5995    2.1954    0.4568 H   0  0  0  0  0  0  0  0  0  0  0  0
   -1.0203    2.2470   -1.6559 H   0  0  0  0  0  0  0  0  0  0  0  0
   -1.5157    3.1109   -0.2051 H   0  0  0  0  0  0  0  0  0  0  0  0
    0.9493    2.8643   -0.4459 H   0  0  0  0  0  0  0  0  0  0  0  0
    0.3196    2.2352    1.0776 H   0  0  0  0  0  0  0  0  0  0  0  0
    2.4316   -1.6763    1.8337 H   0  0  0  0  0  0  0  0  0  0  0  0
    2.7506   -2.7951    0.5600 H   0  0  0  0  0  0  0  0  0  0  0  0
    3.3985    1.9057   -1.0609 H   0  0  0  0  0  0  0  0  0  0  0  0
    3.2388    2.6069    0.5561 H   0  0  0  0  0  0  0  0  0  0  0  0
    5.4736    1.1434   -0.4078 H   0  0  0  0  0  0  0  0  0  0  0  0
    5.1665    1.5420    1.2857 H   0  0  0  0  0  0  0  0  0  0  0  0
    3.7712   -0.2210   -1.9739 H   0  0  0  0  0  0  0  0  0  0  0  0
    3.7822   -1.9515   -1.6161 H   0  0  0  0  0  0  0  0  0  0  0  0
    2.2770   -1.1689   -1.9345 H   0  0  0  0  0  0  0  0  0  0  0  0
   -0.5907    0.0815   -2.5053 H   0  0  0  0  0  0  0  0  0  0  0  0
   -0.7477   -1.6404   -2.1527 H   0  0  0  0  0  0  0  0  0  0  0  0
   -2.1804   -0.6640   -2.4641 H   0  0  0  0  0  0  0  0  0  0  0  0
    7.0817   -0.0905    1.3877 H   0  0  0  0  0  0  0  0  0  0  0  0
    6.5815   -1.5796    2.2565 H   0  0  0  0  0  0  0  0  0  0  0  0
    7.7075   -1.6707    0.8671 H   0  0  0  0  0  0  0  0  0  0  0  0
   -0.2209   -4.2327    3.4521 H   0  0  0  0  0  0  0  0  0  0  0  0
   -0.7525   -2.8932    4.4671 H   0  0  0  0  0  0  0  0  0  0  0  0
   -2.7355   -3.9637    3.7708 H   0  0  0  0  0  0  0  0  0  0  0  0
   -2.6879   -2.4571    2.8863 H   0  0  0  0  0  0  0  0  0  0  0  0
   -1.8161   -4.3265   -0.1152 H   0  0  0  0  0  0  0  0  0  0  0  0
  1  2  1  0  0  0  0
  1 11  1  0  0  0  0
  1 37  1  0  0  0  0
  1 38  1  0  0  0  0
  2  3  1  0  0  0  0
  2 39  1  0  0  0  0
  2 40  1  0  0  0  0
  3  4  2  0  0  0  0
  3  5  1  0  0  0  0
  5  6  2  0  0  0  0
  5 41  1  0  0  0  0
  6  7  1  0  0  0  0
  6 11  1  0  0  0  0
  7  8  1  0  0  0  0
  7 42  1  0  0  0  0
  7 43  1  0  0  0  0
  8  9  1  0  0  0  0
  8 44  1  0  0  0  0
  8 45  1  0  0  0  0
  9 10  1  0  0  0  0
  9 16  1  0  0  0  0
  9 32  1  6  0  0  0
 10 11  1  0  0  0  0
 10 12  1  0  0  0  0
 10 33  1  1  0  0  0
 11 21  1  6  0  0  0
 12 13  1  0  0  0  0
 12 14  1  0  0  0  0
 12 34  1  6  0  0  0
 13 25  1  0  0  0  0
 14 15  1  0  0  0  0
 14 46  1  0  0  0  0
 14 47  1  0  0  0  0
 15 16  1  0  0  0  0
 15 19  1  0  0  0  0
 15 20  1  6  0  0  0
 16 17  1  0  0  0  0
 16 35  1  1  0  0  0
 17 18  1  0  0  0  0
 17 48  1  0  0  0  0
 17 49  1  0  0  0  0
 18 19  1  0  0  0  0
 18 50  1  0  0  0  0
 18 51  1  0  0  0  0
 19 36  1  1  0  0  0
 19 22  1  0  0  0  0
 20 52  1  0  0  0  0
 20 53  1  0  0  0  0
 20 54  1  0  0  0  0
 21 55  1  0  0  0  0
 21 56  1  0  0  0  0
 21 57  1  0  0  0  0
 22 23  2  0  0  0  0
 22 24  1  0  0  0  0
 24 58  1  0  0  0  0
 24 59  1  0  0  0  0
 24 60  1  0  0  0  0
 25 26  2  0  0  0  0
 25 27  1  0  0  0  0
 27 28  1  0  0  0  0
 27 61  1  0  0  0  0
 27 62  1  0  0  0  0
 28 29  1  0  0  0  0
 28 63  1  0  0  0  0
 28 64  1  0  0  0  0
 29 30  2  0  0  0  0
 29 31  1  0  0  0  0
 31 65  1  0  0  0  0
M  END
>  <DRUGBANK_ID>
DB08547

>  <COMMON_NAME>
PROGESTERONE-11-ALPHA-OL-HEMISUCCINATE

$$$$
