
 OpenBabel10282417223D

 23 23  0  0  0  0  0  0  0  0999 V2000
    0.9530   -0.1191   -0.0237 C   0  0  0  0  0  0  0  0  0  0  0  0
    0.2617    0.9889   -0.4851 N   0  0  0  0  0  0  0  0  0  0  0  0
   -1.1496    1.0791   -0.4425 C   0  0  0  0  0  0  0  0  0  0  0  0
   -1.8505    0.5669    0.6499 C   0  0  0  0  0  0  0  0  0  0  0  0
   -3.2388    0.6756    0.7337 C   0  0  0  0  0  0  0  0  0  0  0  0
   -3.9599    1.2868   -0.2866 C   0  0  0  0  0  0  0  0  0  0  0  0
   -3.2628    1.8342   -1.3701 C   0  0  0  0  0  0  0  0  0  0  0  0
   -1.8624    1.7221   -1.4575 C   0  0  0  0  0  0  0  0  0  0  0  0
   -5.3256    1.3892   -0.3261 O   0  0  0  0  0  0  0  0  0  0  0  0
   -6.0353    0.7236    0.7195 C   0  0  0  0  0  0  0  0  0  0  0  0
    0.4275   -1.1649    0.3728 O   0  0  0  0  0  0  0  0  0  0  0  0
    2.4542   -0.0232   -0.0621 C   0  0  0  0  0  0  0  0  0  0  0  0
    0.7619    1.7145   -0.9841 H   0  0  0  0  0  0  0  0  0  0  0  0
   -1.3222    0.0957    1.4738 H   0  0  0  0  0  0  0  0  0  0  0  0
   -3.7171    0.2713    1.6179 H   0  0  0  0  0  0  0  0  0  0  0  0
   -3.8153    2.3409   -2.1592 H   0  0  0  0  0  0  0  0  0  0  0  0
   -1.3647    2.0771   -2.3565 H   0  0  0  0  0  0  0  0  0  0  0  0
   -5.7944   -0.3459    0.7574 H   0  0  0  0  0  0  0  0  0  0  0  0
   -5.8380    1.2024    1.6848 H   0  0  0  0  0  0  0  0  0  0  0  0
   -7.1076    0.8095    0.5198 H   0  0  0  0  0  0  0  0  0  0  0  0
    2.8125    0.9489   -0.4049 H   0  0  0  0  0  0  0  0  0  0  0  0
    2.8396   -0.2069    0.9466 H   0  0  0  0  0  0  0  0  0  0  0  0
    2.8376   -0.8010   -0.7304 H   0  0  0  0  0  0  0  0  0  0  0  0
  2  1  1  0  0  0  0
  2 13  1  0  0  0  0
  3  2  1  0  0  0  0
  4  3  2  0  0  0  0
  4 14  1  0  0  0  0
  5  4  1  0  0  0  0
  5  6  2  0  0  0  0
  5 15  1  0  0  0  0
  6  7  1  0  0  0  0
  7  8  2  0  0  0  0
  7 16  1  0  0  0  0
  8  3  1  0  0  0  0
  8 17  1  0  0  0  0
  9  6  1  0  0  0  0
 10  9  1  0  0  0  0
 10 18  1  0  0  0  0
 10 19  1  0  0  0  0
 10 20  1  0  0  0  0
 11  1  2  0  0  0  0
 12  1  1  0  0  0  0
 12 21  1  0  0  0  0
 12 22  1  0  0  0  0
 12 23  1  0  0  0  0
M  ISO  1  10  13
M  END
>  <DRUGBANK_ID>
DB15885

>  <COMMON_NAME>
Methacetin methoxy-C-13

>  <CAS_NUMBER>
72156-70-8

>  <UNII>
6RR3G0X81D

>  <SYNONYMS>
Methacetin C-13; Methacetin methoxy-C-13; Methacetin, C-13; p-Acetanisidine C-13

$$$$
