
 OpenBabel10282417123D

 43 44  0  0  0  0  0  0  0  0999 V2000
    1.2888   -0.2098    8.1324 O   0  0  0  0  0  0  0  0  0  0  0  0
    2.9950   -0.4866    8.2044 P   0  0  0  0  0  0  0  0  0  0  0  0
    4.5221   -0.7343    8.2688 O   0  0  0  0  0  0  0  0  0  0  0  0
    3.0979    1.0644    8.7104 O   0  0  0  0  0  0  0  0  0  0  0  0
    2.6787   -1.1648    9.6618 O   0  0  0  0  0  0  0  0  0  0  0  0
    0.2926   -0.0022    4.8255 O   0  0  0  0  0  0  0  0  0  0  0  0
    0.7907   -0.1060    6.4790 P   0  0  3  0  0  0  0  0  0  0  0  0
   -0.7584    0.1117    6.9610 O   0  0  0  0  0  0  0  0  0  0  0  0
    1.3787    1.3088    6.3905 O   0  0  0  0  0  0  0  0  0  0  0  0
    2.4233   -1.2035    5.0598 O   0  0  0  0  0  0  0  0  0  0  0  0
    1.3349   -0.9764    3.8470 P   0  0  3  0  0  0  0  0  0  0  0  0
    0.3048   -2.0996    3.8678 O   0  0  0  0  0  0  0  0  0  0  0  0
    2.3773   -1.9505    2.8685 O   0  0  0  0  0  0  0  0  0  0  0  0
    5.3118    0.8054    3.9779 O   0  0  0  0  0  0  0  0  0  0  0  0
    4.3623   -0.2533    3.9076 C   0  0  1  0  0  0  0  0  0  0  0  0
    6.5831    0.2382    3.6433 C   0  0  2  0  0  0  0  0  0  0  0  0
    6.4085   -1.2351    3.6436 C   0  0  0  0  0  0  0  0  0  0  0  0
    5.1217   -1.5234    3.7994 C   0  0  0  0  0  0  0  0  0  0  0  0
    3.4931   -0.2629    5.1252 C   0  0  0  0  0  0  0  0  0  0  0  0
    7.5686    0.6984    4.5954 N   0  0  0  0  0  0  0  0  0  0  0  0
    9.3142    2.2522    5.0120 C   0  0  0  0  0  0  0  0  0  0  0  0
    7.4208    0.3950    5.9401 C   0  0  0  0  0  0  0  0  0  0  0  0
    8.3703    0.9149    6.7752 N   0  0  0  0  0  0  0  0  0  0  0  0
    9.2134    1.9312    6.4521 C   0  0  0  0  0  0  0  0  0  0  0  0
    6.5155   -0.2913    6.4002 O   0  0  0  0  0  0  0  0  0  0  0  0
    9.8611    2.5506    7.2977 O   0  0  0  0  0  0  0  0  0  0  0  0
    8.5330    1.5791    4.1610 C   0  0  0  0  0  0  0  0  0  0  0  0
   10.2468    3.3371    4.6015 C   0  0  0  0  0  0  0  0  0  0  0  0
    3.2473    1.6581    7.9509 H   0  0  0  0  0  0  0  0  0  0  0  0
    1.7735   -1.5092    9.7148 H   0  0  0  0  0  0  0  0  0  0  0  0
   -1.2862   -0.7003    7.0321 H   0  0  0  0  0  0  0  0  0  0  0  0
    3.0357   -1.5272    2.2996 H   0  0  0  0  0  0  0  0  0  0  0  0
    3.7544   -0.0284    3.0343 H   0  0  0  0  0  0  0  0  0  0  0  0
    6.8194    0.5756    2.6290 H   0  0  0  0  0  0  0  0  0  0  0  0
    7.2026   -1.9596    3.5939 H   0  0  0  0  0  0  0  0  0  0  0  0
    4.7013   -2.5144    3.9284 H   0  0  0  0  0  0  0  0  0  0  0  0
    3.1050    0.7417    5.2548 H   0  0  0  0  0  0  0  0  0  0  0  0
    4.0816   -0.4978    6.0014 H   0  0  0  0  0  0  0  0  0  0  0  0
    8.2635    0.6902    7.7538 H   0  0  0  0  0  0  0  0  0  0  0  0
    8.5954    1.7480    3.0901 H   0  0  0  0  0  0  0  0  0  0  0  0
    9.9478    4.2813    5.0696 H   0  0  0  0  0  0  0  0  0  0  0  0
   11.2710    3.1021    4.9016 H   0  0  0  0  0  0  0  0  0  0  0  0
   10.2328    3.4906    3.5174 H   0  0  0  0  0  0  0  0  0  0  0  0
  1  2  1  0  0  0  0
  2  4  1  0  0  0  0
  2  5  1  0  0  0  0
  2  3  2  0  0  0  0
  4 29  1  0  0  0  0
  5 30  1  0  0  0  0
  6  7  1  0  0  0  0
  7  8  1  0  0  0  0
  7  9  2  0  0  0  0
  7  1  1  0  0  0  0
  8 31  1  0  0  0  0
 10 11  1  0  0  0  0
 11 12  2  0  0  0  0
 11 13  1  0  0  0  0
 11  6  1  0  0  0  0
 13 32  1  0  0  0  0
 14 16  1  0  0  0  0
 15 14  1  0  0  0  0
 15 33  1  6  0  0  0
 15 19  1  0  0  0  0
 16 17  1  0  0  0  0
 16 34  1  6  0  0  0
 16 20  1  0  0  0  0
 17 18  2  0  0  0  0
 17 35  1  0  0  0  0
 18 15  1  0  0  0  0
 18 36  1  0  0  0  0
 19 10  1  0  0  0  0
 19 37  1  0  0  0  0
 19 38  1  0  0  0  0
 20 22  1  0  0  0  0
 20 27  1  0  0  0  0
 21 27  2  0  0  0  0
 21 24  1  0  0  0  0
 21 28  1  0  0  0  0
 22 23  1  0  0  0  0
 22 25  2  0  0  0  0
 23 24  1  0  0  0  0
 23 39  1  0  0  0  0
 24 26  2  0  0  0  0
 27 40  1  0  0  0  0
 28 41  1  0  0  0  0
 28 42  1  0  0  0  0
 28 43  1  0  0  0  0
M  END
>  <DRUGBANK_ID>
DB02887

>  <SECONDARY_ACCESSION_NUMBERS>
EXPT01098

>  <COMMON_NAME>
Stavudine triphosphate

>  <CAS_NUMBER>
26194-89-8

>  <UNII>
1ZP0VJ751G

>  <SYNONYMS>
2',3'-Dideoxy-2',3'-dehydrothymidine 5'-triphosphate; D4TTP

$$$$
