
 OpenBabel10282417153D

 75 77  0  0  1  0  0  0  0  0999 V2000
   -5.5038  -11.2339    2.3376 F   0  0  0  0  0  0  0  0  0  0  0  0
   -7.5524   -9.3065   -2.9925 O   0  0  0  0  0  0  0  0  0  0  0  0
   -0.9685  -11.5127    2.6094 O   0  0  0  0  0  0  0  0  0  0  0  0
   -4.6877   -7.8014    3.2876 C   0  0  2  0  0  0  0  0  0  0  0  0
   -6.0352   -8.4885    2.9799 C   0  0  1  0  0  0  0  0  0  0  0  0
   -4.1977   -6.8169    4.3271 C   0  0  0  0  0  0  0  0  0  0  0  0
   -4.1364   -7.4878    1.9204 C   0  0  0  0  0  0  0  0  0  0  0  0
   -5.2328   -9.2184    1.4535 C   0  0  0  0  0  0  0  0  0  0  0  0
   -6.4024   -8.6545    4.7156 C   0  0  0  0  0  0  0  0  0  0  0  0
   -4.6186   -7.0330    5.7597 C   0  0  0  0  0  0  0  0  0  0  0  0
   -4.0447   -9.0071    3.8431 C   0  0  0  0  0  0  0  0  0  0  0  0
   -6.1091   -7.3143    5.6274 C   0  0  0  0  0  0  0  0  0  0  0  0
   -3.8429   -8.6385    1.2953 C   0  0  0  0  0  0  0  0  0  0  0  0
   -5.1238   -6.5375    1.1585 C   0  0  2  0  0  0  0  0  0  0  0  0
   -4.7969   -6.3595   -0.3338 C   0  0  0  0  0  0  0  0  0  0  0  0
   -6.3130   -9.8247    5.4558 C   0  0  0  0  0  0  0  0  0  0  0  0
   -5.1718   -5.2588    1.9414 C   0  0  0  0  0  0  0  0  0  0  0  0
   -4.9000  -10.4161    5.9005 C   0  0  0  0  0  0  0  0  0  0  0  0
   -5.2251   -7.4746   -1.2154 C   0  0  0  0  0  0  0  0  0  0  0  0
   -4.1675  -11.3284    5.1403 C   0  0  0  0  0  0  0  0  0  0  0  0
   -6.1000   -7.6158   -2.2826 C   0  0  0  0  0  0  0  0  0  0  0  0
   -2.5912  -11.2251    4.6928 C   0  0  0  0  0  0  0  0  0  0  0  0
   -6.1563   -8.9613   -2.9970 C   0  0  0  0  0  0  0  0  0  0  0  0
   -4.9127  -12.2468    4.2887 C   0  0  0  0  0  0  0  0  0  0  0  0
   -2.2930  -11.2499    3.1088 C   0  0  2  0  0  0  0  0  0  0  0  0
   -4.7255  -12.2138    2.8087 C   0  0  2  0  0  0  0  0  0  0  0  0
   -3.2728  -12.1362    2.3446 C   0  0  0  0  0  0  0  0  0  0  0  0
   -5.7159   -8.7005   -4.4492 C   0  0  0  0  0  0  0  0  0  0  0  0
   -5.4061  -10.2317   -2.4152 C   0  0  0  0  0  0  0  0  0  0  0  0
   -5.8557  -13.0138    4.8441 C   0  0  0  0  0  0  0  0  0  0  0  0
   -4.2557   -8.2761   -4.6165 C   0  0  0  0  0  0  0  0  0  0  0  0
   -3.8689  -10.2039   -2.3304 C   0  0  0  0  0  0  0  0  0  0  0  0
   -6.9402   -8.0314    2.5543 H   0  0  0  0  0  0  0  0  0  0  0  0
   -5.1840  -13.0739    2.3270 H   0  0  0  0  0  0  0  0  0  0  0  0
   -7.8119   -9.4124   -2.0586 H   0  0  0  0  0  0  0  0  0  0  0  0
   -0.9280  -11.0252    1.7460 H   0  0  0  0  0  0  0  0  0  0  0  0
   -3.1032   -6.7863    4.2544 H   0  0  0  0  0  0  0  0  0  0  0  0
   -4.5786   -5.8384    4.1183 H   0  0  0  0  0  0  0  0  0  0  0  0
   -5.3600  -10.1717    0.9286 H   0  0  0  0  0  0  0  0  0  0  0  0
   -5.5067   -8.6934    0.5622 H   0  0  0  0  0  0  0  0  0  0  0  0
   -4.1284   -7.8016    6.3667 H   0  0  0  0  0  0  0  0  0  0  0  0
   -4.2881   -6.1223    6.2711 H   0  0  0  0  0  0  0  0  0  0  0  0
   -3.1682   -9.1998    3.3539 H   0  0  0  0  0  0  0  0  0  0  0  0
   -3.6546   -8.9132    4.8372 H   0  0  0  0  0  0  0  0  0  0  0  0
   -4.6909   -9.8641    3.6761 H   0  0  0  0  0  0  0  0  0  0  0  0
   -6.5363   -7.4370    6.6316 H   0  0  0  0  0  0  0  0  0  0  0  0
   -6.5609   -6.3831    5.2453 H   0  0  0  0  0  0  0  0  0  0  0  0
   -3.2260   -9.4984    1.4986 H   0  0  0  0  0  0  0  0  0  0  0  0
   -6.1586   -6.9141    1.1724 H   0  0  0  0  0  0  0  0  0  0  0  0
   -5.2468   -5.4343   -0.6747 H   0  0  0  0  0  0  0  0  0  0  0  0
   -3.7047   -6.3059   -0.4028 H   0  0  0  0  0  0  0  0  0  0  0  0
   -6.9314  -10.6387    5.0943 H   0  0  0  0  0  0  0  0  0  0  0  0
   -5.8921   -5.3830    2.7661 H   0  0  0  0  0  0  0  0  0  0  0  0
   -4.1726   -5.0487    2.3336 H   0  0  0  0  0  0  0  0  0  0  0  0
   -5.5135   -4.4236    1.3487 H   0  0  0  0  0  0  0  0  0  0  0  0
   -4.3521   -9.7171    6.5331 H   0  0  0  0  0  0  0  0  0  0  0  0
   -4.7530   -8.4038   -1.0412 H   0  0  0  0  0  0  0  0  0  0  0  0
   -6.6294   -6.7524   -2.6308 H   0  0  0  0  0  0  0  0  0  0  0  0
   -2.1433  -10.2902    5.0807 H   0  0  0  0  0  0  0  0  0  0  0  0
   -2.0154  -12.0262    5.1457 H   0  0  0  0  0  0  0  0  0  0  0  0
   -2.2219  -10.2453    2.7573 H   0  0  0  0  0  0  0  0  0  0  0  0
   -3.2147  -11.9391    1.2639 H   0  0  0  0  0  0  0  0  0  0  0  0
   -2.8819  -13.1438    2.4916 H   0  0  0  0  0  0  0  0  0  0  0  0
   -5.9161   -9.5925   -5.0534 H   0  0  0  0  0  0  0  0  0  0  0  0
   -6.3485   -7.9084   -4.8672 H   0  0  0  0  0  0  0  0  0  0  0  0
   -5.8099  -10.4630   -1.4189 H   0  0  0  0  0  0  0  0  0  0  0  0
   -5.6832  -11.1129   -3.0128 H   0  0  0  0  0  0  0  0  0  0  0  0
   -6.4946  -13.6314    4.2315 H   0  0  0  0  0  0  0  0  0  0  0  0
   -6.0349  -12.9510    5.9117 H   0  0  0  0  0  0  0  0  0  0  0  0
   -3.5673   -9.1103   -4.5157 H   0  0  0  0  0  0  0  0  0  0  0  0
   -4.0700   -7.9050   -5.6238 H   0  0  0  0  0  0  0  0  0  0  0  0
   -3.9569   -7.5069   -3.8967 H   0  0  0  0  0  0  0  0  0  0  0  0
   -3.4498   -9.2244   -2.0858 H   0  0  0  0  0  0  0  0  0  0  0  0
   -3.4877  -10.9097   -1.5885 H   0  0  0  0  0  0  0  0  0  0  0  0
   -3.4174  -10.5114   -3.2725 H   0  0  0  0  0  0  0  0  0  0  0  0
  2 23  1  0  0  0  0
  2 35  1  0  0  0  0
  3 36  1  0  0  0  0
  4  5  1  0  0  0  0
  4  6  1  0  0  0  0
  4  7  1  0  0  0  0
  4 11  1  1  0  0  0
  5  8  1  0  0  0  0
  5  9  1  0  0  0  0
  5 33  1  6  0  0  0
  6 10  1  0  0  0  0
  6 37  1  0  0  0  0
  6 38  1  0  0  0  0
  7 13  2  0  0  0  0
  7 14  1  0  0  0  0
  8 13  1  0  0  0  0
  8 39  1  0  0  0  0
  8 40  1  0  0  0  0
  9 12  1  0  0  0  0
  9 16  2  0  0  0  0
 10 12  1  0  0  0  0
 10 41  1  0  0  0  0
 10 42  1  0  0  0  0
 11 43  1  0  0  0  0
 11 44  1  0  0  0  0
 11 45  1  0  0  0  0
 12 46  1  0  0  0  0
 12 47  1  0  0  0  0
 13 48  1  0  0  0  0
 14 49  1  1  0  0  0
 14 17  1  0  0  0  0
 14 15  1  0  0  0  0
 15 19  1  0  0  0  0
 15 50  1  0  0  0  0
 15 51  1  0  0  0  0
 16 18  1  0  0  0  0
 16 52  1  0  0  0  0
 17 53  1  0  0  0  0
 17 54  1  0  0  0  0
 17 55  1  0  0  0  0
 18 20  2  0  0  0  0
 18 56  1  0  0  0  0
 19 21  2  0  0  0  0
 19 57  1  0  0  0  0
 20 22  1  0  0  0  0
 20 24  1  0  0  0  0
 21 23  1  0  0  0  0
 21 58  1  0  0  0  0
 22 25  1  0  0  0  0
 22 59  1  0  0  0  0
 22 60  1  0  0  0  0
 23 28  1  0  0  0  0
 23 29  1  0  0  0  0
 24 26  1  0  0  0  0
 24 30  2  0  0  0  0
 25 27  1  0  0  0  0
 25 61  1  6  0  0  0
 25  3  1  0  0  0  0
 26 27  1  0  0  0  0
 26 34  1  6  0  0  0
 26  1  1  0  0  0  0
 27 62  1  0  0  0  0
 27 63  1  0  0  0  0
 28 31  1  0  0  0  0
 28 64  1  0  0  0  0
 28 65  1  0  0  0  0
 29 32  1  0  0  0  0
 29 66  1  0  0  0  0
 29 67  1  0  0  0  0
 30 68  1  0  0  0  0
 30 69  1  0  0  0  0
 31 70  1  0  0  0  0
 31 71  1  0  0  0  0
 31 72  1  0  0  0  0
 32 73  1  0  0  0  0
 32 74  1  0  0  0  0
 32 75  1  0  0  0  0
M  END
>  <DRUGBANK_ID>
DB06194

>  <COMMON_NAME>
Elocalcitol

>  <CAS_NUMBER>
199798-84-0

>  <UNII>
2WDS5F2V6Q

>  <SYNONYMS>
Elocalcitol

$$$$
