[NO NAME]
 OpenBabel10282417143D
Created with ChemWriter - http://chemwriter.com
 33 34  0  0  0  0  0  0  0  0999 V2000
    1.0359    0.0115    0.0783 O   0  0  0  0  0  0  0  0  0  0  0  0
    0.3328    1.1960   -0.1067 C   0  0  0  0  0  0  0  0  0  0  0  0
    3.1824    1.1766   -0.0150 C   0  0  0  0  0  0  0  0  0  0  0  0
    2.4142    0.0126    0.0157 C   0  0  0  0  0  0  0  0  0  0  0  0
   -0.6302    1.4529    0.8943 C   0  0  0  0  0  0  0  0  0  0  0  0
    3.0545   -1.2295   -0.0802 C   0  0  0  0  0  0  0  0  0  0  0  0
    4.4274   -1.2885   -0.3481 C   0  0  0  0  0  0  0  0  0  0  0  0
    5.1642   -0.1117   -0.4793 C   0  0  0  0  0  0  0  0  0  0  0  0
    4.5406    1.1191   -0.3070 C   0  0  0  0  0  0  0  0  0  0  0  0
   -1.3046    3.4646   -0.2625 C   0  0  0  0  0  0  0  0  0  0  0  0
   -0.3723    3.1913   -1.2536 C   0  0  0  0  0  0  0  0  0  0  0  0
   -1.4803    2.5596    0.7723 C   0  0  0  0  0  0  0  0  0  0  0  0
   -2.8341    1.8845    2.5267 O   0  5  0  0  0  0  0  0  0  0  0  0
   -2.6487    2.7276    1.6410 N   0  3  0  0  0  0  0  0  0  0  0  0
   -3.4073    3.6802    1.4034 O   0  0  0  0  0  0  0  0  0  0  0  0
    0.4557    2.0658   -1.2273 C   0  0  0  0  0  0  0  0  0  0  0  0
    1.2709    1.7273   -2.3746 N   0  0  0  0  0  0  0  0  0  0  0  0
    1.7916    2.8580   -3.5374 S   0  0  0  0  0  0  0  0  0  0  0  0
    0.9015    3.9964   -3.6562 O   0  0  0  0  0  0  0  0  0  0  0  0
    3.2101    3.0454   -3.3679 O   0  0  0  0  0  0  0  0  0  0  0  0
    1.5160    1.9069   -5.0046 C   0  0  0  0  0  0  0  0  0  0  0  0
    2.7330    2.1542    0.1217 H   0  0  0  0  0  0  0  0  0  0  0  0
   -0.7189    0.7793    1.7451 H   0  0  0  0  0  0  0  0  0  0  0  0
    2.4991   -2.1574    0.0422 H   0  0  0  0  0  0  0  0  0  0  0  0
    4.9243   -2.2485   -0.4721 H   0  0  0  0  0  0  0  0  0  0  0  0
    6.2281   -0.1473   -0.6987 H   0  0  0  0  0  0  0  0  0  0  0  0
    5.0975    2.0454   -0.4199 H   0  0  0  0  0  0  0  0  0  0  0  0
   -1.9090    4.3638   -0.3637 H   0  0  0  0  0  0  0  0  0  0  0  0
   -0.3735    3.9094   -2.0569 H   0  0  0  0  0  0  0  0  0  0  0  0
    2.0130    1.0471   -2.1842 H   0  0  0  0  0  0  0  0  0  0  0  0
    0.4818    1.5545   -5.0021 H   0  0  0  0  0  0  0  0  0  0  0  0
    1.6681    2.5702   -5.8589 H   0  0  0  0  0  0  0  0  0  0  0  0
    2.2203    1.0764   -5.0333 H   0  0  0  0  0  0  0  0  0  0  0  0
  1  2  1  0  0  0  0
  2  5  1  0  0  0  0
  3  4  1  0  0  0  0
  3 22  1  0  0  0  0
  4  1  1  0  0  0  0
  5 12  2  0  0  0  0
  5 23  1  0  0  0  0
  6  4  2  0  0  0  0
  6  7  1  0  0  0  0
  6 24  1  0  0  0  0
  7  8  2  0  0  0  0
  7 25  1  0  0  0  0
  8  9  1  0  0  0  0
  8 26  1  0  0  0  0
  9  3  2  0  0  0  0
  9 27  1  0  0  0  0
 10 11  2  0  0  0  0
 10 28  1  0  0  0  0
 11 29  1  0  0  0  0
 12 10  1  0  0  0  0
 12 14  1  0  0  0  0
 14 13  1  0  0  0  0
 14 15  2  0  0  0  0
 16  2  2  0  0  0  0
 16 11  1  0  0  0  0
 16 17  1  0  0  0  0
 17 18  1  0  0  0  0
 17 30  1  0  0  0  0
 18 20  2  0  0  0  0
 18 21  1  0  0  0  0
 18 19  2  0  0  0  0
 21 31  1  0  0  0  0
 21 32  1  0  0  0  0
 21 33  1  0  0  0  0
M  CHG  2  13  -1  14   1
M  END
>  <DRUGBANK_ID>
DB04743

>  <COMMON_NAME>
Nimesulide

>  <CAS_NUMBER>
51803-78-2

>  <UNII>
V4TKW1454M

>  <SYNONYMS>
Nimesulida; Nimesulide; Nimesulidum

$$$$
