723
 OpenBabel10282417103D

 32 32  0  0  1  0  0  0  0  0999 V2000
    1.2123   -0.4068   -0.2041 O   0  0  0  0  0  0  0  0  0  0  0  0
    0.6069    2.1556    1.7263 O   0  0  0  0  0  0  0  0  0  0  0  0
    1.7415   -1.5796    5.6498 O   0  0  0  0  0  0  0  0  0  0  0  0
    2.5805   -2.5239    0.7646 N   0  0  0  0  0  0  0  0  0  0  0  0
    0.6733   -0.9812    0.9989 C   0  0  3  0  0  0  0  0  0  0  0  0
    1.0984   -2.4576    0.7905 C   0  0  3  0  0  0  0  0  0  0  0  0
    1.1204   -0.2561    2.2808 C   0  0  0  0  0  0  0  0  0  0  0  0
    0.4113   -3.4547    1.7146 C   0  0  0  0  0  0  0  0  0  0  0  0
    0.9816    1.1216    2.5409 C   0  0  0  0  0  0  0  0  0  0  0  0
    1.5538   -1.0444    3.3828 C   0  0  0  0  0  0  0  0  0  0  0  0
    1.6103   -0.6052    4.7014 C   0  0  0  0  0  0  0  0  0  0  0  0
    1.2246    1.5945    3.8501 C   0  0  0  0  0  0  0  0  0  0  0  0
    1.5010    0.7526    4.9288 C   0  0  0  0  0  0  0  0  0  0  0  0
    0.4959    1.9701    0.3301 C   0  0  0  0  0  0  0  0  0  0  0  0
    1.6035   -1.1668    7.0066 C   0  0  0  0  0  0  0  0  0  0  0  0
    2.1175   -0.1457    0.0326 H   0  0  0  0  0  0  0  0  0  0  0  0
    2.8898   -3.4448    0.4730 H   0  0  0  0  0  0  0  0  0  0  0  0
    2.8937   -1.8932    0.0216 H   0  0  0  0  0  0  0  0  0  0  0  0
   -0.4235   -0.9181    0.9481 H   0  0  0  0  0  0  0  0  0  0  0  0
    0.7819   -2.7354   -0.2259 H   0  0  0  0  0  0  0  0  0  0  0  0
   -0.6721   -3.4008    1.5702 H   0  0  0  0  0  0  0  0  0  0  0  0
    0.7516   -4.4673    1.4905 H   0  0  0  0  0  0  0  0  0  0  0  0
    0.5674   -3.3054    2.7805 H   0  0  0  0  0  0  0  0  0  0  0  0
    1.8750   -2.0727    3.2444 H   0  0  0  0  0  0  0  0  0  0  0  0
    1.1561    2.6649    4.0474 H   0  0  0  0  0  0  0  0  0  0  0  0
    1.6368    1.1732    5.9141 H   0  0  0  0  0  0  0  0  0  0  0  0
    1.4764    1.7403   -0.0964 H   0  0  0  0  0  0  0  0  0  0  0  0
   -0.2958    1.2516    0.1015 H   0  0  0  0  0  0  0  0  0  0  0  0
    0.1975    2.9017   -0.1527 H   0  0  0  0  0  0  0  0  0  0  0  0
    2.4866   -0.5943    7.3014 H   0  0  0  0  0  0  0  0  0  0  0  0
    0.6848   -0.5918    7.1765 H   0  0  0  0  0  0  0  0  0  0  0  0
    1.5496   -2.0569    7.6425 H   0  0  0  0  0  0  0  0  0  0  0  0
  1  5  1  0  0  0  0
  1 16  1  0  0  0  0
  2  9  1  0  0  0  0
  2 14  1  0  0  0  0
  3 11  1  0  0  0  0
  3 15  1  0  0  0  0
  4  6  1  0  0  0  0
  4 17  1  0  0  0  0
  4 18  1  0  0  0  0
  5  6  1  0  0  0  0
  5  7  1  0  0  0  0
  5 19  1  0  0  0  0
  6  8  1  0  0  0  0
  6 20  1  0  0  0  0
  7  9  2  0  0  0  0
  7 10  1  0  0  0  0
  8 21  1  0  0  0  0
  8 22  1  0  0  0  0
  8 23  1  0  0  0  0
  9 12  1  0  0  0  0
 10 11  2  0  0  0  0
 10 24  1  0  0  0  0
 11 13  1  0  0  0  0
 12 13  2  0  0  0  0
 12 25  1  0  0  0  0
 13 26  1  0  0  0  0
 14 27  1  0  0  0  0
 14 28  1  0  0  0  0
 14 29  1  0  0  0  0
 15 30  1  0  0  0  0
 15 31  1  0  0  0  0
 15 32  1  0  0  0  0
M  END
>  <DRUGBANK_ID>
DB00723

>  <SECONDARY_ACCESSION_NUMBERS>
APRD00062

>  <COMMON_NAME>
Methoxamine

>  <CAS_NUMBER>
390-28-3

>  <UNII>
HUQ1KC1YLI

>  <SYNONYMS>
Méthoxamédrine; Methoxamin; Methoxamine; Méthoxamine; Methoxaminum; Metossamina; Metoxamina; Pseudomethoxamine

$$$$
