
 OpenBabel10282417143D

 55 54  0  0  0  0  0  0  0  0999 V2000
    0.9799    0.0559   -0.3451 O   0  0  0  0  0  0  0  0  0  0  0  0
    0.7326    2.2379    3.2027 O   0  0  0  0  0  0  0  0  0  0  0  0
    1.6746    4.4759    0.8856 O   0  0  0  0  0  0  0  0  0  0  0  0
    4.5169    4.3563    4.8400 O   0  0  0  0  0  0  0  0  0  0  0  0
    4.4700    4.5185    2.5797 O   0  0  0  0  0  0  0  0  0  0  0  0
    2.4367    2.4074    0.5967 N   0  0  0  0  0  0  0  0  0  0  0  0
    2.9697   -0.7993   -0.8314 N   0  0  0  0  0  0  0  0  0  0  0  0
    6.3535   -3.1511   -2.7787 N   0  3  0  0  0  0  0  0  0  0  0  0
    8.3963   -3.9829   -3.4626 N   0  0  0  0  0  0  0  0  0  0  0  0
    6.4659   -4.9369   -4.2705 N   0  0  0  0  0  0  0  0  0  0  0  0
    2.3581    0.3826    2.1440 C   0  0  0  0  0  0  0  0  0  0  0  0
    2.8489    1.0239    0.8571 C   0  0  1  0  0  0  0  0  0  0  0  0
    2.9886   -0.8612    2.7268 C   0  0  0  0  0  0  0  0  0  0  0  0
    2.1992    0.1043   -0.1750 C   0  0  0  0  0  0  0  0  0  0  0  0
    4.5082   -0.8628    2.6663 C   0  0  0  0  0  0  0  0  0  0  0  0
    2.5790   -0.9042    4.2129 C   0  0  0  0  0  0  0  0  0  0  0  0
    4.4078   -0.8930   -0.8519 C   0  0  0  0  0  0  0  0  0  0  0  0
    4.8740   -2.2640   -0.3708 C   0  0  0  0  0  0  0  0  0  0  0  0
    4.4114   -3.3731   -1.2978 C   0  0  0  0  0  0  0  0  0  0  0  0
    1.9709    3.3977    1.4052 C   0  0  0  0  0  0  0  0  0  0  0  0
    1.7679    3.1960    2.9175 C   0  0  2  0  0  0  0  0  0  0  0  0
    4.8866   -3.1271   -2.7153 C   0  0  0  0  0  0  0  0  0  0  0  0
    3.1022    2.8934    3.6461 C   0  0  0  0  0  0  0  0  0  0  0  0
    4.0376    4.0351    3.6322 C   0  0  0  0  0  0  0  0  0  0  0  0
    7.0620   -4.0224   -3.5049 C   0  0  0  0  0  0  0  0  0  0  0  0
    0.0879    2.2557    2.4634 H   0  0  0  0  0  0  0  0  0  0  0  0
    4.1520    3.8135    5.5678 H   0  0  0  0  0  0  0  0  0  0  0  0
    2.6151    2.7663   -0.3390 H   0  0  0  0  0  0  0  0  0  0  0  0
    2.3980   -1.4233   -1.3919 H   0  0  0  0  0  0  0  0  0  0  0  0
    6.8817   -2.4811   -2.2297 H   0  0  0  0  0  0  0  0  0  0  0  0
    8.9536   -4.6301   -4.0054 H   0  0  0  0  0  0  0  0  0  0  0  0
    8.9038   -3.3181   -2.8917 H   0  0  0  0  0  0  0  0  0  0  0  0
    5.4607   -5.0064   -4.3351 H   0  0  0  0  0  0  0  0  0  0  0  0
    6.9849   -5.5962   -4.8295 H   0  0  0  0  0  0  0  0  0  0  0  0
    2.5039    1.0304    2.9579 H   0  0  0  0  0  0  0  0  0  0  0  0
    1.2724    0.2612    2.1013 H   0  0  0  0  0  0  0  0  0  0  0  0
    3.9334    1.0780    0.7978 H   0  0  0  0  0  0  0  0  0  0  0  0
    2.5612   -1.7128    2.1929 H   0  0  0  0  0  0  0  0  0  0  0  0
    4.9622   -0.0933    3.2976 H   0  0  0  0  0  0  0  0  0  0  0  0
    4.8816   -1.8425    2.9718 H   0  0  0  0  0  0  0  0  0  0  0  0
    4.8798   -0.6678    1.6698 H   0  0  0  0  0  0  0  0  0  0  0  0
    1.5089   -0.7026    4.3411 H   0  0  0  0  0  0  0  0  0  0  0  0
    2.8170   -1.8746    4.6450 H   0  0  0  0  0  0  0  0  0  0  0  0
    3.1121   -0.1357    4.7943 H   0  0  0  0  0  0  0  0  0  0  0  0
    4.7224   -0.6631   -1.8702 H   0  0  0  0  0  0  0  0  0  0  0  0
    4.8913   -0.1193   -0.2653 H   0  0  0  0  0  0  0  0  0  0  0  0
    5.9669   -2.2593   -0.2870 H   0  0  0  0  0  0  0  0  0  0  0  0
    4.4898   -2.4971    0.6262 H   0  0  0  0  0  0  0  0  0  0  0  0
    4.7908   -4.3332   -0.9294 H   0  0  0  0  0  0  0  0  0  0  0  0
    3.3177   -3.4414   -1.2832 H   0  0  0  0  0  0  0  0  0  0  0  0
    1.3613    4.1197    3.3273 H   0  0  0  0  0  0  0  0  0  0  0  0
    4.4328   -3.8775   -3.3562 H   0  0  0  0  0  0  0  0  0  0  0  0
    4.5551   -2.1707   -3.1253 H   0  0  0  0  0  0  0  0  0  0  0  0
    2.9167    2.4728    4.6436 H   0  0  0  0  0  0  0  0  0  0  0  0
    3.7759    2.1685    3.1636 H   0  0  0  0  0  0  0  0  0  0  0  0
  1 14  2  0  0  0  0
  2 26  1  0  0  0  0
  3 20  2  0  0  0  0
  4 24  1  0  0  0  0
  4 27  1  0  0  0  0
  5 24  2  0  0  0  0
  6 20  1  0  0  0  0
  6 28  1  0  0  0  0
  7 14  1  0  0  0  0
  7 17  1  0  0  0  0
  7 29  1  0  0  0  0
  8 22  1  0  0  0  0
  8 25  2  0  0  0  0
  8 30  1  0  0  0  0
  9 25  1  0  0  0  0
  9 31  1  0  0  0  0
  9 32  1  0  0  0  0
 10 25  1  0  0  0  0
 10 33  1  0  0  0  0
 10 34  1  0  0  0  0
 11 12  1  0  0  0  0
 11 13  1  0  0  0  0
 11 35  1  0  0  0  0
 11 36  1  0  0  0  0
 12  6  1  0  0  0  0
 12 14  1  0  0  0  0
 12 37  1  6  0  0  0
 13 15  1  0  0  0  0
 13 16  1  0  0  0  0
 13 38  1  0  0  0  0
 15 39  1  0  0  0  0
 15 40  1  0  0  0  0
 15 41  1  0  0  0  0
 16 42  1  0  0  0  0
 16 43  1  0  0  0  0
 16 44  1  0  0  0  0
 17 18  1  0  0  0  0
 17 45  1  0  0  0  0
 17 46  1  0  0  0  0
 18 19  1  0  0  0  0
 18 47  1  0  0  0  0
 18 48  1  0  0  0  0
 19 22  1  0  0  0  0
 19 49  1  0  0  0  0
 19 50  1  0  0  0  0
 20 21  1  0  0  0  0
 21  2  1  0  0  0  0
 21 23  1  0  0  0  0
 21 51  1  1  0  0  0
 22 52  1  0  0  0  0
 22 53  1  0  0  0  0
 23 24  1  0  0  0  0
 23 54  1  0  0  0  0
 23 55  1  0  0  0  0
M  CHG  1   8   1
M  END
>  <DRUGBANK_ID>
DB04276

>  <SECONDARY_ACCESSION_NUMBERS>
EXPT01317

>  <COMMON_NAME>
4-[[(2S)-2-[[(2S)-3-Carboxy-2-hydroxypropanoyl]amino]-4-methylpentanoyl]amino]butyl-(diaminomethylidene)azanium

$$$$
