979
 OpenBabel10282417163D

 55 59  0  0  0  0  0  0  0  0999 V2000
   -1.8794    0.7226    0.0354 C   0  0  0  0  0  0  0  0  0  0  0  0
   -0.7098    1.3759    0.0443 N   0  0  0  0  0  0  0  0  0  0  0  0
    0.3317    0.5330    0.0042 C   0  0  0  0  0  0  0  0  0  0  0  0
    0.2839   -0.8601   -0.0517 C   0  0  0  0  0  0  0  0  0  0  0  0
   -1.0221   -1.4439   -0.0046 C   0  0  0  0  0  0  0  0  0  0  0  0
   -2.0835   -0.6043    0.0182 N   0  0  0  0  0  0  0  0  0  0  0  0
    1.6380    0.9700    0.0276 O   0  0  0  0  0  0  0  0  0  0  0  0
    2.4377   -0.1230   -0.0626 C   0  0  0  0  0  0  0  0  0  0  0  0
    1.6696   -1.2747   -0.1294 C   0  0  0  0  0  0  0  0  0  0  0  0
   -1.3544   -2.7795    0.0703 N   0  0  0  0  0  0  0  0  0  0  0  0
   -0.3726   -3.8266    0.0169 C   0  0  0  0  0  0  0  0  0  0  0  0
   -0.2254   -4.7859    1.1667 C   0  0  0  0  0  0  0  0  0  0  0  0
   -1.5565   -5.2915    1.3899 N   0  0  0  0  0  0  0  0  0  0  0  0
    2.3373   -2.5688   -0.2728 C   0  0  0  0  0  0  0  0  0  0  0  0
    3.0267   -3.1533    0.8063 C   0  0  0  0  0  0  0  0  0  0  0  0
    3.4328   -4.4875    0.7343 C   0  0  0  0  0  0  0  0  0  0  0  0
    3.0650   -5.2712   -0.3622 C   0  0  0  0  0  0  0  0  0  0  0  0
    2.3614   -4.7042   -1.4246 C   0  0  0  0  0  0  0  0  0  0  0  0
    2.0602   -3.3412   -1.4176 C   0  0  0  0  0  0  0  0  0  0  0  0
    3.8874    0.0043   -0.0770 C   0  0  0  0  0  0  0  0  0  0  0  0
    4.5802    0.5199    1.0238 C   0  0  0  0  0  0  0  0  0  0  0  0
    5.9636    0.3337    1.1270 C   0  0  0  0  0  0  0  0  0  0  0  0
    6.6615   -0.3896    0.1575 C   0  0  0  0  0  0  0  0  0  0  0  0
    5.9806   -0.9209   -0.9325 C   0  0  0  0  0  0  0  0  0  0  0  0
    4.6157   -0.6876   -1.0658 C   0  0  0  0  0  0  0  0  0  0  0  0
   -1.6458   -6.7493    1.4285 C   0  0  0  0  0  0  0  0  0  0  0  0
   -2.0299   -4.6502    2.6179 C   0  0  0  0  0  0  0  0  0  0  0  0
   -1.1786   -7.4016    2.7435 C   0  0  0  0  0  0  0  0  0  0  0  0
   -1.3778   -5.2846    3.8595 C   0  0  0  0  0  0  0  0  0  0  0  0
   -1.7084   -6.7171    3.9417 N   0  0  0  0  0  0  0  0  0  0  0  0
   -2.7787    1.3323    0.0556 H   0  0  0  0  0  0  0  0  0  0  0  0
   -2.3329   -3.0377    0.0399 H   0  0  0  0  0  0  0  0  0  0  0  0
   -0.3673   -4.3309   -0.9497 H   0  0  0  0  0  0  0  0  0  0  0  0
    0.5081   -3.3062    0.2166 H   0  0  0  0  0  0  0  0  0  0  0  0
    0.5464   -5.5432    0.9725 H   0  0  0  0  0  0  0  0  0  0  0  0
    0.1929   -4.2135    2.0159 H   0  0  0  0  0  0  0  0  0  0  0  0
    3.1761   -2.6052    1.7364 H   0  0  0  0  0  0  0  0  0  0  0  0
    3.9743   -4.9385    1.5629 H   0  0  0  0  0  0  0  0  0  0  0  0
    3.2718   -6.3384   -0.3596 H   0  0  0  0  0  0  0  0  0  0  0  0
    1.9486   -5.3393   -2.2063 H   0  0  0  0  0  0  0  0  0  0  0  0
    1.3990   -2.9374   -2.1848 H   0  0  0  0  0  0  0  0  0  0  0  0
    4.0406    1.0014    1.8343 H   0  0  0  0  0  0  0  0  0  0  0  0
    6.4982    0.7179    1.9930 H   0  0  0  0  0  0  0  0  0  0  0  0
    7.7306   -0.5540    0.2558 H   0  0  0  0  0  0  0  0  0  0  0  0
    6.4980   -1.5459   -1.6559 H   0  0  0  0  0  0  0  0  0  0  0  0
    4.0957   -1.1391   -1.9114 H   0  0  0  0  0  0  0  0  0  0  0  0
   -2.7071   -6.9810    1.2893 H   0  0  0  0  0  0  0  0  0  0  0  0
   -1.1353   -7.2092    0.5695 H   0  0  0  0  0  0  0  0  0  0  0  0
   -1.8070   -3.5727    2.6001 H   0  0  0  0  0  0  0  0  0  0  0  0
   -3.1188   -4.7237    2.6328 H   0  0  0  0  0  0  0  0  0  0  0  0
   -0.0826   -7.4329    2.7865 H   0  0  0  0  0  0  0  0  0  0  0  0
   -1.5253   -8.4408    2.7585 H   0  0  0  0  0  0  0  0  0  0  0  0
   -0.2837   -5.1742    3.8510 H   0  0  0  0  0  0  0  0  0  0  0  0
   -1.7276   -4.7533    4.7468 H   0  0  0  0  0  0  0  0  0  0  0  0
   -2.7269   -6.7746    3.8858 H   0  0  0  0  0  0  0  0  0  0  0  0
  1  6  2  0  0  0  0
  1  2  1  0  0  0  0
  1 31  1  0  0  0  0
  2  3  2  0  0  0  0
  3  4  1  0  0  0  0
  3  7  1  0  0  0  0
  4  5  2  0  0  0  0
  4  9  1  0  0  0  0
  5  6  1  0  0  0  0
  5 10  1  0  0  0  0
  7  8  1  0  0  0  0
  8  9  2  0  0  0  0
  8 20  1  0  0  0  0
  9 14  1  0  0  0  0
 10 11  1  0  0  0  0
 10 32  1  0  0  0  0
 11 12  1  0  0  0  0
 11 33  1  0  0  0  0
 11 34  1  0  0  0  0
 12 13  1  0  0  0  0
 12 35  1  0  0  0  0
 12 36  1  0  0  0  0
 13 27  1  0  0  0  0
 13 26  1  0  0  0  0
 14 19  2  0  0  0  0
 14 15  1  0  0  0  0
 15 16  2  0  0  0  0
 15 37  1  0  0  0  0
 16 17  1  0  0  0  0
 16 38  1  0  0  0  0
 17 18  2  0  0  0  0
 17 39  1  0  0  0  0
 18 19  1  0  0  0  0
 18 40  1  0  0  0  0
 19 41  1  0  0  0  0
 20 21  2  0  0  0  0
 20 25  1  0  0  0  0
 21 22  1  0  0  0  0
 21 42  1  0  0  0  0
 22 23  2  0  0  0  0
 22 43  1  0  0  0  0
 23 24  1  0  0  0  0
 23 44  1  0  0  0  0
 24 25  2  0  0  0  0
 24 45  1  0  0  0  0
 25 46  1  0  0  0  0
 26 28  1  0  0  0  0
 26 47  1  0  0  0  0
 26 48  1  0  0  0  0
 27 29  1  0  0  0  0
 27 49  1  0  0  0  0
 27 50  1  0  0  0  0
 28 30  1  0  0  0  0
 28 51  1  0  0  0  0
 28 52  1  0  0  0  0
 29 30  1  0  0  0  0
 29 53  1  0  0  0  0
 29 54  1  0  0  0  0
 30 55  1  0  0  0  0
M  END
>  <DRUGBANK_ID>
DB07297

>  <COMMON_NAME>
5,6-DIPHENYL-N-(2-PIPERAZIN-1-YLETHYL)FURO[2,3-D]PYRIMIDIN-4-AMINE

$$$$
