
 OpenBabel10282417203D

 42 44  0  0  1  0  0  0  0  0999 V2000
    2.0482    9.6262   -4.5122 C   0  0  0  0  0  0  0  0  0  0  0  0
    1.4781    8.2969   -4.1150 C   0  0  0  0  0  0  0  0  0  0  0  0
    0.2931    7.8833   -4.5895 C   0  0  0  0  0  0  0  0  0  0  0  0
   -0.3225    6.5901   -4.2478 C   0  0  0  0  0  0  0  0  0  0  0  0
   -1.3934    6.2542   -4.7233 O   0  0  0  0  0  0  0  0  0  0  0  0
    0.3690    5.7919   -3.3622 O   0  0  0  0  0  0  0  0  0  0  0  0
    1.6116    6.1931   -2.8467 C   0  0  0  0  0  0  0  0  0  0  0  0
    2.2163    5.2536   -2.0170 C   0  0  0  0  0  0  0  0  0  0  0  0
    3.4806    5.5033   -1.5333 C   0  0  0  0  0  0  0  0  0  0  0  0
    4.2199    4.5190   -0.9519 O   0  0  0  0  0  0  0  0  0  0  0  0
    3.6513    3.5953    0.0040 C   0  0  2  0  0  0  0  0  0  0  0  0
    2.9846    2.3844   -0.4473 O   0  0  0  0  0  0  0  0  0  0  0  0
    3.0198    1.4079    0.6453 C   0  0  2  0  0  0  0  0  0  0  0  0
    2.5013    0.0248    0.2259 C   0  0  0  0  0  0  0  0  0  0  0  0
    3.2848   -0.4818   -0.8492 O   0  0  0  0  0  0  0  0  0  0  0  0
    2.2390    1.9075    1.8754 C   0  0  1  0  0  0  0  0  0  0  0  0
    2.3508    0.9822    2.9628 O   0  0  0  0  0  0  0  0  0  0  0  0
    2.7264    3.2989    2.3016 C   0  0  2  0  0  0  0  0  0  0  0  0
    1.8725    3.8277    3.3216 O   0  0  0  0  0  0  0  0  0  0  0  0
    2.8054    4.2612    1.1086 C   0  0  1  0  0  0  0  0  0  0  0  0
    3.3535    5.5085    1.5391 O   0  0  0  0  0  0  0  0  0  0  0  0
    4.0893    6.7430   -1.8058 C   0  0  0  0  0  0  0  0  0  0  0  0
    3.4558    7.6929   -2.6332 C   0  0  0  0  0  0  0  0  0  0  0  0
    2.2043    7.4118   -3.1910 C   0  0  0  0  0  0  0  0  0  0  0  0
    2.1916   10.2642   -3.6345 H   0  0  0  0  0  0  0  0  0  0  0  0
    3.0069    9.5061   -5.0276 H   0  0  0  0  0  0  0  0  0  0  0  0
    1.3802   10.1635   -5.1963 H   0  0  0  0  0  0  0  0  0  0  0  0
   -0.2999    8.4867   -5.2667 H   0  0  0  0  0  0  0  0  0  0  0  0
    1.7173    4.3141   -1.8215 H   0  0  0  0  0  0  0  0  0  0  0  0
    4.5804    3.2258    0.4452 H   0  0  0  0  0  0  0  0  0  0  0  0
    4.0758    1.2589    0.9070 H   0  0  0  0  0  0  0  0  0  0  0  0
    2.5904   -0.6892    1.0551 H   0  0  0  0  0  0  0  0  0  0  0  0
    1.4551    0.0569   -0.0895 H   0  0  0  0  0  0  0  0  0  0  0  0
    3.2231    0.1806   -1.5610 H   0  0  0  0  0  0  0  0  0  0  0  0
    1.1710    1.9697    1.6350 H   0  0  0  0  0  0  0  0  0  0  0  0
    3.2510    1.0194    3.3321 H   0  0  0  0  0  0  0  0  0  0  0  0
    3.7166    3.2214    2.7682 H   0  0  0  0  0  0  0  0  0  0  0  0
    1.0021    4.0095    2.9254 H   0  0  0  0  0  0  0  0  0  0  0  0
    1.7858    4.4583    0.7541 H   0  0  0  0  0  0  0  0  0  0  0  0
    4.3062    5.3836    1.6851 H   0  0  0  0  0  0  0  0  0  0  0  0
    5.0691    6.9836   -1.3942 H   0  0  0  0  0  0  0  0  0  0  0  0
    3.9728    8.6266   -2.8526 H   0  0  0  0  0  0  0  0  0  0  0  0
  1  2  1  0  0  0  0
  1 25  1  0  0  0  0
  1 26  1  0  0  0  0
  1 27  1  0  0  0  0
  2  3  2  0  0  0  0
  2 24  1  0  0  0  0
  3  4  1  0  0  0  0
  3 28  1  0  0  0  0
  4  5  2  0  0  0  0
  4  6  1  0  0  0  0
  6  7  1  0  0  0  0
  7  8  2  0  0  0  0
  7 24  1  0  0  0  0
  8  9  1  0  0  0  0
  8 29  1  0  0  0  0
  9 10  1  0  0  0  0
  9 22  2  0  0  0  0
 11 12  1  0  0  0  0
 11 20  1  0  0  0  0
 11 30  1  1  0  0  0
 11 10  1  0  0  0  0
 12 13  1  0  0  0  0
 13 14  1  0  0  0  0
 13 16  1  0  0  0  0
 13 31  1  1  0  0  0
 14 15  1  0  0  0  0
 14 32  1  0  0  0  0
 14 33  1  0  0  0  0
 15 34  1  0  0  0  0
 16 17  1  0  0  0  0
 16 18  1  0  0  0  0
 16 35  1  6  0  0  0
 17 36  1  0  0  0  0
 18 19  1  0  0  0  0
 18 20  1  0  0  0  0
 18 37  1  1  0  0  0
 19 38  1  0  0  0  0
 20 21  1  0  0  0  0
 20 39  1  6  0  0  0
 21 40  1  0  0  0  0
 22 23  1  0  0  0  0
 22 41  1  0  0  0  0
 23 24  2  0  0  0  0
 23 42  1  0  0  0  0
M  END
>  <DRUGBANK_ID>
DB13177

>  <COMMON_NAME>
4-methylumbelliferyl beta-D-glucoside

>  <CAS_NUMBER>
18997-57-4

>  <SYNONYMS>
4-methylumbelliferyl beta-D-glucoside; 4-Methylumbelliferyl glucoside; 4-methylumbelliferyl Î²-D-glucoside; 4-Methylumbelliferyl-beta-D-glucoside; 4-Methylumbelliferyl-beta-glucoside; 7-(beta-D-Glucopyranosyloxy)-4-methyl-2H-1-benzopyran-2-one

$$$$
