
 OpenBabel10282417183D

 66 67  0  0  0  0  0  0  0  0999 V2000
   -0.0051   -1.8196    0.3287 C   0  0  3  0  0  0  0  0  0  0  0  0
   -0.0188   -2.8086    1.6357 C   0  0  0  0  0  0  0  0  0  0  0  0
   -1.4000   -1.1205    0.1514 C   0  0  0  0  0  0  0  0  0  0  0  0
    1.2770   -0.8543    0.1161 C   0  0  0  0  0  0  0  0  0  0  0  0
   -1.0807   -3.7139    1.9678 C   0  0  0  0  0  0  0  0  0  0  0  0
    1.1254   -3.0634    2.3481 C   0  0  0  0  0  0  0  0  0  0  0  0
   -1.4414    0.2204   -0.0108 C   0  0  0  0  0  0  0  0  0  0  0  0
   -2.7247   -1.8027    0.2000 C   0  0  0  0  0  0  0  0  0  0  0  0
    0.9488    0.4680    0.0754 C   0  0  0  0  0  0  0  0  0  0  0  0
    2.6356   -1.6559    0.0098 C   0  0  0  0  0  0  0  0  0  0  0  0
   -0.8781   -5.0398    2.3622 C   0  0  0  0  0  0  0  0  0  0  0  0
    1.3113   -4.3571    2.9238 C   0  0  0  0  0  0  0  0  0  0  0  0
   -0.2942    0.8895   -0.2318 N   0  0  0  0  0  0  0  0  0  0  0  0
   -2.5525    1.2286    0.0702 C   0  0  0  0  0  0  0  0  0  0  0  0
   -2.9286   -3.0110   -0.4109 O   0  0  0  0  0  0  0  0  0  0  0  0
   -3.6876   -1.2620    0.7398 O   0  0  0  0  0  0  0  0  0  0  0  0
    1.7148    1.7148    0.2520 C   0  0  0  0  0  0  0  0  0  0  0  0
    3.8939   -1.1538    0.2133 O   0  0  0  0  0  0  0  0  0  0  0  0
    2.5934   -2.8742   -0.1943 O   0  0  0  0  0  0  0  0  0  0  0  0
    0.3301   -5.3502    2.9058 C   0  0  0  0  0  0  0  0  0  0  0  0
   -1.9064   -3.9802   -0.6363 C   0  0  0  0  0  0  0  0  0  0  0  0
    4.2608    0.2154    0.1220 C   0  0  0  0  0  0  0  0  0  0  0  0
   -1.1340   -3.8630   -1.8929 C   0  0  0  0  0  0  0  0  0  0  0  0
    3.8814    0.6926   -1.2943 C   0  0  0  0  0  0  0  0  0  0  0  0
    1.9597   -1.8912    2.6259 C   0  0  0  0  0  0  0  0  0  0  0  0
    3.1431   -2.0042    3.1731 C   0  0  0  0  0  0  0  0  0  0  0  0
    4.0661   -0.8897    3.4410 C   0  0  0  0  0  0  0  0  0  0  0  0
    5.1484   -1.2221    4.1856 O   0  0  0  0  0  0  0  0  0  0  0  0
    3.8772    0.2342    3.0696 O   0  0  0  0  0  0  0  0  0  0  0  0
    5.2201   -2.4377    4.9543 C   0  0  0  0  0  0  0  0  0  0  0  0
    3.9850   -2.5794    5.8800 C   0  0  0  0  0  0  0  0  0  0  0  0
    5.5344   -3.6264    4.0204 C   0  0  0  0  0  0  0  0  0  0  0  0
    6.4313   -2.2442    5.8641 C   0  0  0  0  0  0  0  0  0  0  0  0
    0.1925   -2.4127   -0.5682 H   0  0  0  0  0  0  0  0  0  0  0  0
   -2.1213   -3.5272    1.7341 H   0  0  0  0  0  0  0  0  0  0  0  0
   -1.6658   -5.7872    2.2466 H   0  0  0  0  0  0  0  0  0  0  0  0
    2.2306   -4.6351    3.4217 H   0  0  0  0  0  0  0  0  0  0  0  0
   -0.3827    1.8823   -0.4496 H   0  0  0  0  0  0  0  0  0  0  0  0
   -2.3168    1.8997    0.9143 H   0  0  0  0  0  0  0  0  0  0  0  0
   -2.5579    1.8496   -0.8333 H   0  0  0  0  0  0  0  0  0  0  0  0
   -3.5468    0.8447    0.2300 H   0  0  0  0  0  0  0  0  0  0  0  0
    1.7171    2.3911   -0.6048 H   0  0  0  0  0  0  0  0  0  0  0  0
    1.6880    2.2034    1.2270 H   0  0  0  0  0  0  0  0  0  0  0  0
    2.6525    1.3447    0.2541 H   0  0  0  0  0  0  0  0  0  0  0  0
    0.4526   -6.2973    3.4216 H   0  0  0  0  0  0  0  0  0  0  0  0
   -1.1038   -3.7050   -0.0315 H   0  0  0  0  0  0  0  0  0  0  0  0
   -2.1377   -4.9856   -0.2602 H   0  0  0  0  0  0  0  0  0  0  0  0
    3.8312    0.6635    1.0171 H   0  0  0  0  0  0  0  0  0  0  0  0
    5.3031    0.4555    0.3491 H   0  0  0  0  0  0  0  0  0  0  0  0
   -1.0071   -2.8032   -2.1270 H   0  0  0  0  0  0  0  0  0  0  0  0
   -0.1398   -4.3039   -1.7005 H   0  0  0  0  0  0  0  0  0  0  0  0
   -1.6514   -4.3680   -2.6872 H   0  0  0  0  0  0  0  0  0  0  0  0
    2.8813    0.3567   -1.6093 H   0  0  0  0  0  0  0  0  0  0  0  0
    3.8832    1.7849   -1.3787 H   0  0  0  0  0  0  0  0  0  0  0  0
    4.5291    0.2413   -2.0365 H   0  0  0  0  0  0  0  0  0  0  0  0
    1.6455   -0.8969    2.3424 H   0  0  0  0  0  0  0  0  0  0  0  0
    3.3416   -2.9894    3.5046 H   0  0  0  0  0  0  0  0  0  0  0  0
    3.0114   -2.6376    5.3900 H   0  0  0  0  0  0  0  0  0  0  0  0
    4.0531   -3.4778    6.4910 H   0  0  0  0  0  0  0  0  0  0  0  0
    3.8815   -1.6874    6.5105 H   0  0  0  0  0  0  0  0  0  0  0  0
    6.4495   -3.4251    3.4539 H   0  0  0  0  0  0  0  0  0  0  0  0
    5.6162   -4.5537    4.5851 H   0  0  0  0  0  0  0  0  0  0  0  0
    4.8268   -3.8301    3.2163 H   0  0  0  0  0  0  0  0  0  0  0  0
    7.3366   -2.0657    5.2743 H   0  0  0  0  0  0  0  0  0  0  0  0
    6.2997   -1.3664    6.5067 H   0  0  0  0  0  0  0  0  0  0  0  0
    6.5782   -3.1272    6.4911 H   0  0  0  0  0  0  0  0  0  0  0  0
  1  2  1  0  0  0  0
  1  3  1  0  0  0  0
  1  4  1  0  0  0  0
  1 34  1  0  0  0  0
  2  5  2  0  0  0  0
  2  6  1  0  0  0  0
  3  7  2  0  0  0  0
  3  8  1  0  0  0  0
  4  9  2  0  0  0  0
  4 10  1  0  0  0  0
  5 11  1  0  0  0  0
  5 35  1  0  0  0  0
  6 12  2  0  0  0  0
  6 25  1  0  0  0  0
  7 13  1  0  0  0  0
  7 14  1  0  0  0  0
  8 15  1  0  0  0  0
  8 16  2  0  0  0  0
  9 17  1  0  0  0  0
  9 13  1  0  0  0  0
 10 18  1  0  0  0  0
 10 19  2  0  0  0  0
 11 20  2  0  0  0  0
 11 36  1  0  0  0  0
 12 20  1  0  0  0  0
 12 37  1  0  0  0  0
 13 38  1  0  0  0  0
 14 39  1  0  0  0  0
 14 40  1  0  0  0  0
 14 41  1  0  0  0  0
 15 21  1  0  0  0  0
 17 42  1  0  0  0  0
 17 43  1  0  0  0  0
 17 44  1  0  0  0  0
 18 22  1  0  0  0  0
 20 45  1  0  0  0  0
 21 23  1  0  0  0  0
 21 46  1  0  0  0  0
 21 47  1  0  0  0  0
 22 24  1  0  0  0  0
 22 48  1  0  0  0  0
 22 49  1  0  0  0  0
 23 50  1  0  0  0  0
 23 51  1  0  0  0  0
 23 52  1  0  0  0  0
 24 53  1  0  0  0  0
 24 54  1  0  0  0  0
 24 55  1  0  0  0  0
 25 26  2  0  0  0  0
 25 56  1  0  0  0  0
 26 27  1  0  0  0  0
 26 57  1  0  0  0  0
 27 28  1  0  0  0  0
 27 29  2  0  0  0  0
 28 30  1  0  0  0  0
 30 31  1  0  0  0  0
 30 32  1  0  0  0  0
 30 33  1  0  0  0  0
 31 58  1  0  0  0  0
 31 59  1  0  0  0  0
 31 60  1  0  0  0  0
 32 61  1  0  0  0  0
 32 62  1  0  0  0  0
 32 63  1  0  0  0  0
 33 64  1  0  0  0  0
 33 65  1  0  0  0  0
 33 66  1  0  0  0  0
M  END
>  <DRUGBANK_ID>
DB09236

>  <COMMON_NAME>
Lacidipine

>  <CAS_NUMBER>
103890-78-4

>  <UNII>
260080034N

>  <SYNONYMS>
Lacidipine; Lacidipino

$$$$
