
 OpenBabel10282417213D

 60 62  0  0  0  0  0  0  0  0999 V2000
    0.0790    2.4978   -0.0879 C   0  0  0  0  0  0  0  0  0  0  0  0
   -1.2033    1.9069    0.0197 C   0  0  0  0  0  0  0  0  0  0  0  0
   -2.4652    2.6225    0.0824 N   0  0  0  0  0  0  0  0  0  0  0  0
   -2.7090    3.9773    0.0980 C   0  0  0  0  0  0  0  0  0  0  0  0
   -1.2206    0.4896    0.0433 C   0  0  0  0  0  0  0  0  0  0  0  0
    0.3504    3.9691   -0.1755 C   0  0  0  0  0  0  0  0  0  0  0  0
   -4.0322    4.5555    0.1104 C   0  0  0  0  0  0  0  0  0  0  0  0
   -6.2000    6.1386    0.8235 C   0  0  0  0  0  0  0  0  0  0  0  0
    0.7902    4.5736    1.0977 N   0  0  0  0  0  0  0  0  0  0  0  0
   -0.0363   -0.2815    0.0223 C   0  0  0  0  0  0  0  0  0  0  0  0
   -5.8733    4.9764    1.5494 C   0  0  0  0  0  0  0  0  0  0  0  0
   -4.8107    4.1745    1.1752 C   0  0  0  0  0  0  0  0  0  0  0  0
   -7.3908    6.9011    1.0652 O   0  0  0  0  0  0  0  0  0  0  0  0
    1.2579    1.7196   -0.0797 C   0  0  0  0  0  0  0  0  0  0  0  0
   -8.5058    6.4125    1.7699 C   0  0  0  0  0  0  0  0  0  0  0  0
    1.2006    0.3448   -0.0178 C   0  0  0  0  0  0  0  0  0  0  0  0
   -1.9322    4.9279    0.2280 O   0  0  0  0  0  0  0  0  0  0  0  0
   -4.2490    5.7953   -0.5388 C   0  0  0  0  0  0  0  0  0  0  0  0
   -5.3315    6.6003   -0.1770 C   0  0  0  0  0  0  0  0  0  0  0  0
   -8.6635    5.3253    2.3131 O   0  0  0  0  0  0  0  0  0  0  0  0
    0.6755    6.0557    1.0535 C   0  0  0  0  0  0  0  0  0  0  0  0
   -2.8606   -0.4828    0.0510 Br  0  0  0  0  0  0  0  0  0  0  0  0
    2.8135   -0.6351   -0.0085 Br  0  0  0  0  0  0  0  0  0  0  0  0
   -6.4960    4.7536    2.7331 O   0  0  0  0  0  0  0  0  0  0  0  0
    0.1620    4.0188    2.3068 C   0  0  0  0  0  0  0  0  0  0  0  0
   -9.6670    7.3380    1.7482 C   0  0  0  0  0  0  0  0  0  0  0  0
    2.0115    6.6555    1.5323 C   0  0  0  0  0  0  0  0  0  0  0  0
   -0.4701    6.6483    1.9155 C   0  0  0  0  0  0  0  0  0  0  0  0
   -6.3888    3.4728    3.3266 C   0  0  0  0  0  0  0  0  0  0  0  0
   -0.5255    8.1528    1.9189 C   0  0  0  0  0  0  0  0  0  0  0  0
    1.9510    8.1862    1.5778 C   0  0  0  0  0  0  0  0  0  0  0  0
    0.7913    8.6921    2.4316 C   0  0  0  0  0  0  0  0  0  0  0  0
   -3.2837    2.0210    0.1413 H   0  0  0  0  0  0  0  0  0  0  0  0
    1.1025    4.1667   -0.9494 H   0  0  0  0  0  0  0  0  0  0  0  0
   -0.4669    4.3903   -0.7343 H   0  0  0  0  0  0  0  0  0  0  0  0
   -0.0746   -1.3678    0.0318 H   0  0  0  0  0  0  0  0  0  0  0  0
   -4.4736    3.3591    1.8024 H   0  0  0  0  0  0  0  0  0  0  0  0
    2.2186    2.2357   -0.1100 H   0  0  0  0  0  0  0  0  0  0  0  0
   -3.4970    6.1696   -1.2400 H   0  0  0  0  0  0  0  0  0  0  0  0
   -5.4341    7.5845   -0.6321 H   0  0  0  0  0  0  0  0  0  0  0  0
    0.5456    6.3824    0.0104 H   0  0  0  0  0  0  0  0  0  0  0  0
   -0.9063    4.2471    2.3907 H   0  0  0  0  0  0  0  0  0  0  0  0
    0.2515    2.9341    2.4008 H   0  0  0  0  0  0  0  0  0  0  0  0
    0.6660    4.4169    3.1959 H   0  0  0  0  0  0  0  0  0  0  0  0
   -9.4109    8.3375    2.0917 H   0  0  0  0  0  0  0  0  0  0  0  0
  -10.1362    7.3167    0.7640 H   0  0  0  0  0  0  0  0  0  0  0  0
  -10.3857    6.9173    2.4659 H   0  0  0  0  0  0  0  0  0  0  0  0
    2.2528    6.2769    2.5339 H   0  0  0  0  0  0  0  0  0  0  0  0
    2.8309    6.3457    0.8705 H   0  0  0  0  0  0  0  0  0  0  0  0
   -1.4549    6.3289    1.6022 H   0  0  0  0  0  0  0  0  0  0  0  0
   -0.3670    6.3296    2.9582 H   0  0  0  0  0  0  0  0  0  0  0  0
   -6.4281    2.6454    2.6059 H   0  0  0  0  0  0  0  0  0  0  0  0
   -5.4626    3.4521    3.9041 H   0  0  0  0  0  0  0  0  0  0  0  0
   -7.2339    3.3578    4.0067 H   0  0  0  0  0  0  0  0  0  0  0  0
   -1.3484    8.4580    2.5753 H   0  0  0  0  0  0  0  0  0  0  0  0
   -0.7508    8.5218    0.9124 H   0  0  0  0  0  0  0  0  0  0  0  0
    2.8907    8.5777    1.9782 H   0  0  0  0  0  0  0  0  0  0  0  0
    1.8409    8.5731    0.5574 H   0  0  0  0  0  0  0  0  0  0  0  0
    0.9340    8.3667    3.4705 H   0  0  0  0  0  0  0  0  0  0  0  0
    0.7547    9.7840    2.4310 H   0  0  0  0  0  0  0  0  0  0  0  0
  2  1  2  0  0  0  0
  3  2  1  0  0  0  0
  3 33  1  0  0  0  0
  4  3  1  0  0  0  0
  5  2  1  0  0  0  0
  5 10  2  0  0  0  0
  6  1  1  0  0  0  0
  6 34  1  0  0  0  0
  6 35  1  0  0  0  0
  7  4  1  0  0  0  0
  8 19  1  0  0  0  0
  9  6  1  0  0  0  0
 10 16  1  0  0  0  0
 10 36  1  0  0  0  0
 11 12  1  0  0  0  0
 11  8  2  0  0  0  0
 12  7  2  0  0  0  0
 12 37  1  0  0  0  0
 13  8  1  0  0  0  0
 14  1  1  0  0  0  0
 14 38  1  0  0  0  0
 15 13  1  0  0  0  0
 16 14  2  0  0  0  0
 17  4  2  0  0  0  0
 18  7  1  0  0  0  0
 18 39  1  0  0  0  0
 19 18  2  0  0  0  0
 19 40  1  0  0  0  0
 20 15  2  0  0  0  0
 21  9  1  0  0  0  0
 21 41  1  0  0  0  0
 22  5  1  0  0  0  0
 23 16  1  0  0  0  0
 24 11  1  0  0  0  0
 25  9  1  0  0  0  0
 25 42  1  0  0  0  0
 25 43  1  0  0  0  0
 25 44  1  0  0  0  0
 26 15  1  0  0  0  0
 26 45  1  0  0  0  0
 26 46  1  0  0  0  0
 26 47  1  0  0  0  0
 27 21  1  0  0  0  0
 27 48  1  0  0  0  0
 27 49  1  0  0  0  0
 28 21  1  0  0  0  0
 28 50  1  0  0  0  0
 28 51  1  0  0  0  0
 29 24  1  0  0  0  0
 29 52  1  0  0  0  0
 29 53  1  0  0  0  0
 29 54  1  0  0  0  0
 30 28  1  0  0  0  0
 30 55  1  0  0  0  0
 30 56  1  0  0  0  0
 31 27  1  0  0  0  0
 31 32  1  0  0  0  0
 31 57  1  0  0  0  0
 31 58  1  0  0  0  0
 32 30  1  0  0  0  0
 32 59  1  0  0  0  0
 32 60  1  0  0  0  0
M  END
>  <DRUGBANK_ID>
DB14720

>  <COMMON_NAME>
Brovanexine

>  <CAS_NUMBER>
54340-61-3

>  <UNII>
Y00SD533IW

>  <SYNONYMS>
Brovanexina; Brovanexine; Brovanexinum

$$$$
