
 OpenBabel10282417123D

 54 57  0  0  1  0  0  0  0  0999 V2000
  -11.1206   21.9823    0.8878 N   0  0  0  0  0  0  0  0  0  0  0  0
  -11.3233   20.7418    0.3769 C   0  0  0  0  0  0  0  0  0  0  0  0
  -11.5045   19.7301    1.1632 N   0  0  0  0  0  0  0  0  0  0  0  0
  -11.6274   18.4906    0.5875 C   0  0  0  0  0  0  0  0  0  0  0  0
  -11.8640   17.4757    1.2631 O   0  0  0  0  0  0  0  0  0  0  0  0
  -11.3406   18.3512   -0.8904 C   0  0  0  0  0  0  0  0  0  0  0  0
  -11.1545   19.4772   -1.6313 C   0  0  0  0  0  0  0  0  0  0  0  0
  -11.2494   20.6777   -0.9723 N   0  0  0  0  0  0  0  0  0  0  0  0
  -10.8578   19.4018   -3.0021 N   0  0  0  0  0  0  0  0  0  0  0  0
  -10.4492   18.2402   -3.4525 C   0  0  0  0  0  0  0  0  0  0  0  0
  -10.1585   17.0657   -2.5425 C   0  0  2  0  0  0  0  0  0  0  0  0
  -10.2602   15.6438   -3.0647 C   0  0  0  0  0  0  0  0  0  0  0  0
  -10.9607   14.9691   -1.9670 N   0  0  0  0  0  0  0  0  0  0  0  0
  -11.2092   15.8248   -0.8346 C   0  0  0  0  0  0  0  0  0  0  0  0
  -11.1489   17.1112   -1.4690 N   0  0  0  0  0  0  0  0  0  0  0  0
  -11.1409   13.6338   -1.8740 C   0  0  0  0  0  0  0  0  0  0  0  0
  -10.0583   12.8443   -2.0145 C   0  0  0  0  0  0  0  0  0  0  0  0
  -10.2921   11.5036   -2.0957 C   0  0  0  0  0  0  0  0  0  0  0  0
  -11.4824   10.7897   -1.8791 C   0  0  0  0  0  0  0  0  0  0  0  0
  -12.5752   11.6019   -1.6905 C   0  0  0  0  0  0  0  0  0  0  0  0
  -12.3964   13.0091   -1.7057 C   0  0  0  0  0  0  0  0  0  0  0  0
  -11.6132    9.2542   -1.8772 C   0  0  0  0  0  0  0  0  0  0  0  0
  -12.7035    8.7102   -1.7089 O   0  0  0  0  0  0  0  0  0  0  0  0
  -10.4976    8.4260   -2.0151 N   0  0  0  0  0  0  0  0  0  0  0  0
   -9.1351    8.8941   -2.2288 C   0  0  2  0  0  0  0  0  0  0  0  0
   -8.7625    9.7156   -0.8879 C   0  0  0  0  0  0  0  0  0  0  0  0
   -7.8587    9.1315    0.1682 C   0  0  0  0  0  0  0  0  0  0  0  0
   -6.5055    9.0797   -0.4625 C   0  0  0  0  0  0  0  0  0  0  0  0
   -5.5841    9.8808    0.1025 O   0  0  0  0  0  0  0  0  0  0  0  0
   -6.2936    8.4673   -1.5026 O   0  0  0  0  0  0  0  0  0  0  0  0
   -9.2428    9.4946   -3.7735 C   0  0  0  0  0  0  0  0  0  0  0  0
   -8.1134    9.4698   -4.5006 O   0  0  0  0  0  0  0  0  0  0  0  0
  -10.2427    9.9916   -4.2882 O   0  0  0  0  0  0  0  0  0  0  0  0
  -11.1125   21.9556    1.9052 H   0  0  0  0  0  0  0  0  0  0  0  0
  -11.8069   22.6634    0.5818 H   0  0  0  0  0  0  0  0  0  0  0  0
  -10.9140   21.4710   -1.4991 H   0  0  0  0  0  0  0  0  0  0  0  0
  -10.2175   18.1196   -4.5248 H   0  0  0  0  0  0  0  0  0  0  0  0
   -9.1598   17.2240   -2.1135 H   0  0  0  0  0  0  0  0  0  0  0  0
   -9.2520   15.2507   -3.2655 H   0  0  0  0  0  0  0  0  0  0  0  0
  -10.8457   15.5599   -3.9844 H   0  0  0  0  0  0  0  0  0  0  0  0
  -12.1743   15.5944   -0.3775 H   0  0  0  0  0  0  0  0  0  0  0  0
  -10.4031   15.7394   -0.0932 H   0  0  0  0  0  0  0  0  0  0  0  0
   -9.0415   13.2064   -2.1434 H   0  0  0  0  0  0  0  0  0  0  0  0
   -9.3783   11.0983   -2.4452 H   0  0  0  0  0  0  0  0  0  0  0  0
  -13.5642   11.1623   -1.6023 H   0  0  0  0  0  0  0  0  0  0  0  0
  -13.2789   13.6352   -1.6527 H   0  0  0  0  0  0  0  0  0  0  0  0
  -10.6785    7.4274   -2.0085 H   0  0  0  0  0  0  0  0  0  0  0  0
   -8.4901    8.0215   -2.3262 H   0  0  0  0  0  0  0  0  0  0  0  0
   -8.2755   10.6773   -1.0917 H   0  0  0  0  0  0  0  0  0  0  0  0
   -9.6780    9.9193   -0.3055 H   0  0  0  0  0  0  0  0  0  0  0  0
   -7.8612    9.8311    1.0217 H   0  0  0  0  0  0  0  0  0  0  0  0
   -8.2155    8.1699    0.5342 H   0  0  0  0  0  0  0  0  0  0  0  0
   -5.8761   10.3958    0.8800 H   0  0  0  0  0  0  0  0  0  0  0  0
   -7.4173    8.8963   -4.1453 H   0  0  0  0  0  0  0  0  0  0  0  0
  1  2  1  0  0  0  0
  1 34  1  0  0  0  0
  1 35  1  0  0  0  0
  2  3  2  0  0  0  0
  2  8  1  0  0  0  0
  3  4  1  0  0  0  0
  4  5  2  0  0  0  0
  4  6  1  0  0  0  0
  6  7  2  0  0  0  0
  6 15  1  0  0  0  0
  7  8  1  0  0  0  0
  7  9  1  0  0  0  0
  8 36  1  0  0  0  0
  9 10  2  0  0  0  0
 10 11  1  0  0  0  0
 10 37  1  0  0  0  0
 11 12  1  0  0  0  0
 11 15  1  0  0  0  0
 11 38  1  1  0  0  0
 12 13  1  0  0  0  0
 12 39  1  0  0  0  0
 12 40  1  0  0  0  0
 13 14  1  0  0  0  0
 13 16  1  0  0  0  0
 14 41  1  0  0  0  0
 14 42  1  0  0  0  0
 15 14  1  0  0  0  0
 16 17  2  0  0  0  0
 16 21  1  0  0  0  0
 17 18  1  0  0  0  0
 17 43  1  0  0  0  0
 18 19  2  0  0  0  0
 18 44  1  0  0  0  0
 19 20  1  0  0  0  0
 19 22  1  0  0  0  0
 20 21  2  0  0  0  0
 20 45  1  0  0  0  0
 21 46  1  0  0  0  0
 22 23  2  0  0  0  0
 22 24  1  0  0  0  0
 24 47  1  0  0  0  0
 25 31  1  0  0  0  0
 25 48  1  6  0  0  0
 25 26  1  0  0  0  0
 25 24  1  0  0  0  0
 26 27  1  0  0  0  0
 26 49  1  0  0  0  0
 26 50  1  0  0  0  0
 27 28  1  0  0  0  0
 27 51  1  0  0  0  0
 27 52  1  0  0  0  0
 28 29  1  0  0  0  0
 28 30  2  0  0  0  0
 29 53  1  0  0  0  0
 31 32  1  0  0  0  0
 31 33  2  0  0  0  0
 32 54  1  0  0  0  0
M  END
>  <DRUGBANK_ID>
DB02301

>  <SECONDARY_ACCESSION_NUMBERS>
EXPT03070

>  <COMMON_NAME>
5,10-Methylene-6-Hydrofolic Acid

$$$$
