7X8
 OpenBabel10282417163D

 41 44  0  0  0  0  0  0  0  0999 V2000
    0.9743    0.0250    0.1501 N   0  0  0  0  0  0  0  0  0  0  0  0
    0.3415    1.2444    0.3732 C   0  0  0  0  0  0  0  0  0  0  0  0
   -0.7483    1.2256    1.1480 N   0  0  0  0  0  0  0  0  0  0  0  0
   -1.3081    2.4008    1.4394 C   0  0  0  0  0  0  0  0  0  0  0  0
   -0.8745    3.5898    0.9140 C   0  0  0  0  0  0  0  0  0  0  0  0
    0.2229    3.5257    0.0800 C   0  0  0  0  0  0  0  0  0  0  0  0
    0.6376    4.6899   -0.5931 N   0  0  0  0  0  0  0  0  0  0  0  0
    1.6612    4.7524   -1.5533 C   0  0  0  0  0  0  0  0  0  0  0  0
    2.8079    5.5152   -1.3464 C   0  0  0  0  0  0  0  0  0  0  0  0
    3.0662    6.3260   -0.2754 O   0  0  0  0  0  0  0  0  0  0  0  0
    4.3201    6.9223   -0.6762 C   0  0  0  0  0  0  0  0  0  0  0  0
    4.8930    6.3030   -1.8432 O   0  0  0  0  0  0  0  0  0  0  0  0
    3.8609    5.5095   -2.2394 C   0  0  0  0  0  0  0  0  0  0  0  0
    3.8356    4.7644   -3.3983 C   0  0  0  0  0  0  0  0  0  0  0  0
    2.6873    4.0186   -3.6624 C   0  0  0  0  0  0  0  0  0  0  0  0
    1.6154    4.0081   -2.7522 C   0  0  0  0  0  0  0  0  0  0  0  0
    0.1968    3.1238   -3.2252 Cl  0  0  0  0  0  0  0  0  0  0  0  0
    0.8641    2.3584   -0.1509 N   0  0  0  0  0  0  0  0  0  0  0  0
   -2.6037   -0.9643   -3.5296 N   0  0  0  0  0  0  0  0  0  0  0  0
   -2.1697   -2.1709   -3.0612 C   0  0  0  0  0  0  0  0  0  0  0  0
   -2.5471   -3.2096   -3.6096 O   0  0  0  0  0  0  0  0  0  0  0  0
   -1.2086   -2.2020   -1.9195 C   0  0  0  0  0  0  0  0  0  0  0  0
   -0.7432   -3.4489   -1.4774 C   0  0  0  0  0  0  0  0  0  0  0  0
    0.2308   -3.5303   -0.4810 C   0  0  0  0  0  0  0  0  0  0  0  0
    0.7717   -2.3666    0.0573 C   0  0  0  0  0  0  0  0  0  0  0  0
    0.3196   -1.1145   -0.3579 C   0  0  0  0  0  0  0  0  0  0  0  0
   -0.7030   -1.0394   -1.3201 C   0  0  0  0  0  0  0  0  0  0  0  0
    1.8983    0.1703   -0.2363 H   0  0  0  0  0  0  0  0  0  0  0  0
   -2.1399    2.3429    2.1320 H   0  0  0  0  0  0  0  0  0  0  0  0
   -1.3784    4.5136    1.1548 H   0  0  0  0  0  0  0  0  0  0  0  0
    0.2978    5.5772   -0.2522 H   0  0  0  0  0  0  0  0  0  0  0  0
    4.1434    7.9813   -0.9029 H   0  0  0  0  0  0  0  0  0  0  0  0
    5.0367    6.8621    0.1514 H   0  0  0  0  0  0  0  0  0  0  0  0
    4.6703    4.7684   -4.0899 H   0  0  0  0  0  0  0  0  0  0  0  0
    2.6167    3.4445   -4.5825 H   0  0  0  0  0  0  0  0  0  0  0  0
   -3.2084   -0.9718   -4.3409 H   0  0  0  0  0  0  0  0  0  0  0  0
   -2.3096   -0.0654   -3.1787 H   0  0  0  0  0  0  0  0  0  0  0  0
   -1.1343   -4.3664   -1.9137 H   0  0  0  0  0  0  0  0  0  0  0  0
    0.5822   -4.4972   -0.1328 H   0  0  0  0  0  0  0  0  0  0  0  0
    1.5210   -2.4267    0.8427 H   0  0  0  0  0  0  0  0  0  0  0  0
   -1.0845   -0.0639   -1.5985 H   0  0  0  0  0  0  0  0  0  0  0  0
  1  2  1  0  0  0  0
  1 26  1  0  0  0  0
  1 28  1  0  0  0  0
  2  3  1  0  0  0  0
  2 18  2  0  0  0  0
  3  4  2  0  0  0  0
  4  5  1  0  0  0  0
  4 29  1  0  0  0  0
  5  6  2  0  0  0  0
  5 30  1  0  0  0  0
  6  7  1  0  0  0  0
  6 18  1  0  0  0  0
  7  8  1  0  0  0  0
  7 31  1  0  0  0  0
  8  9  1  0  0  0  0
  8 16  2  0  0  0  0
  9 10  1  0  0  0  0
  9 13  2  0  0  0  0
 10 11  1  0  0  0  0
 11 12  1  0  0  0  0
 11 32  1  0  0  0  0
 11 33  1  0  0  0  0
 12 13  1  0  0  0  0
 13 14  1  0  0  0  0
 14 15  2  0  0  0  0
 14 34  1  0  0  0  0
 15 16  1  0  0  0  0
 15 35  1  0  0  0  0
 16 17  1  0  0  0  0
 19 20  1  0  0  0  0
 19 36  1  0  0  0  0
 19 37  1  0  0  0  0
 20 21  2  0  0  0  0
 20 22  1  0  0  0  0
 22 23  1  0  0  0  0
 22 27  2  0  0  0  0
 23 24  2  0  0  0  0
 23 38  1  0  0  0  0
 24 25  1  0  0  0  0
 24 39  1  0  0  0  0
 25 26  2  0  0  0  0
 25 40  1  0  0  0  0
 26 27  1  0  0  0  0
 27 41  1  0  0  0  0
M  END
>  <DRUGBANK_ID>
DB07256

>  <COMMON_NAME>
3-({4-[(5-CHLORO-1,3-BENZODIOXOL-4-YL)AMINO]PYRIMIDIN-2-YL}AMINO)BENZAMIDE

$$$$
