RHP
 OpenBabel10282417143D

 27 28  0  0  0  0  0  0  0  0999 V2000
   -6.6238    1.8521   -4.9141 C   0  0  0  0  0  0  0  0  0  0  0  0
   -6.0691    1.8763   -3.7344 C   0  0  0  0  0  0  0  0  0  0  0  0
   -5.4224    1.9045   -2.3591 C   0  0  0  0  0  0  0  0  0  0  0  0
   -4.3026    0.9747   -2.3468 N   0  0  0  0  0  0  0  0  0  0  0  0
   -3.6354    0.9159   -1.0405 C   0  0  2  0  0  0  0  0  0  0  0  0
   -4.2293   -0.1679   -0.1192 C   0  0  0  0  0  0  0  0  0  0  0  0
   -5.0192    0.5299    1.0086 C   0  0  0  0  0  0  0  0  0  0  0  0
   -4.7312    1.9908    0.8034 C   0  0  0  0  0  0  0  0  0  0  0  0
   -3.8320    2.1772   -0.2501 C   0  0  0  0  0  0  0  0  0  0  0  0
   -3.4772    3.4471   -0.7035 C   0  0  0  0  0  0  0  0  0  0  0  0
   -5.3022    3.1003    1.4083 C   0  0  0  0  0  0  0  0  0  0  0  0
   -4.9910    4.3898    0.9237 C   0  0  0  0  0  0  0  0  0  0  0  0
   -4.0948    4.5451   -0.1422 C   0  0  0  0  0  0  0  0  0  0  0  0
   -3.8559    5.7503   -0.7373 O   0  0  0  0  0  0  0  0  0  0  0  0
   -2.5660    0.7361   -1.1904 H   0  0  0  0  0  0  0  0  0  0  0  0
   -7.0717    1.8342   -5.8804 H   0  0  0  0  0  0  0  0  0  0  0  0
   -5.1508    2.9556   -2.2741 H   0  0  0  0  0  0  0  0  0  0  0  0
   -6.1983    1.6486   -1.6290 H   0  0  0  0  0  0  0  0  0  0  0  0
   -4.6414    0.0520   -2.6111 H   0  0  0  0  0  0  0  0  0  0  0  0
   -4.8581   -0.8888   -0.6609 H   0  0  0  0  0  0  0  0  0  0  0  0
   -3.4147   -0.7707    0.3037 H   0  0  0  0  0  0  0  0  0  0  0  0
   -6.0851    0.2907    0.9247 H   0  0  0  0  0  0  0  0  0  0  0  0
   -4.6508    0.1928    1.9825 H   0  0  0  0  0  0  0  0  0  0  0  0
   -2.8990    3.5510   -1.6219 H   0  0  0  0  0  0  0  0  0  0  0  0
   -6.0293    2.9917    2.2105 H   0  0  0  0  0  0  0  0  0  0  0  0
   -5.4763    5.2553    1.3592 H   0  0  0  0  0  0  0  0  0  0  0  0
   -4.3199    6.4517   -0.2600 H   0  0  0  0  0  0  0  0  0  0  0  0
  1  2  3  0  0  0  0
  1 16  1  0  0  0  0
  2  3  1  0  0  0  0
  3  4  1  0  0  0  0
  3 17  1  0  0  0  0
  3 18  1  0  0  0  0
  4 19  1  0  0  0  0
  5  6  1  0  0  0  0
  5  9  1  0  0  0  0
  5 15  1  6  0  0  0
  5  4  1  0  0  0  0
  6  7  1  0  0  0  0
  6 20  1  0  0  0  0
  6 21  1  0  0  0  0
  7  8  1  0  0  0  0
  7 22  1  0  0  0  0
  7 23  1  0  0  0  0
  8  9  1  0  0  0  0
  8 11  2  0  0  0  0
  9 10  2  0  0  0  0
 10 13  1  0  0  0  0
 10 24  1  0  0  0  0
 11 12  1  0  0  0  0
 11 25  1  0  0  0  0
 12 13  2  0  0  0  0
 12 26  1  0  0  0  0
 13 14  1  0  0  0  0
 14 27  1  0  0  0  0
M  END
>  <DRUGBANK_ID>
DB04307

>  <SECONDARY_ACCESSION_NUMBERS>
EXPT02781

>  <COMMON_NAME>
5-Hydroxy-N-Propargyl-1(R)-Aminoindan

$$$$
