
 OpenBabel10282417133D

 38 40  0  0  1  0  0  0  0  0999 V2000
    1.0975   -0.0680    0.0313 C   0  0  0  0  0  0  0  0  0  0  0  0
    0.5885    0.8274   -1.0801 C   0  0  0  0  0  0  0  0  0  0  0  0
    0.9191    0.2929   -2.3893 N   0  0  0  0  0  0  0  0  0  0  0  0
    0.0834   -0.1110   -3.3930 C   0  0  0  0  0  0  0  0  0  0  0  0
    0.5782   -0.5441   -4.4411 O   0  0  0  0  0  0  0  0  0  0  0  0
   -1.4381   -0.0476   -3.2003 C   0  0  2  0  0  0  0  0  0  0  0  0
   -2.0257   -1.3608   -3.3135 O   0  0  0  0  0  0  0  0  0  0  0  0
   -2.9767   -1.3368   -4.4058 C   0  0  2  0  0  0  0  0  0  0  0  0
   -3.3959    0.1327   -4.5190 C   0  0  2  0  0  0  0  0  0  0  0  0
   -3.9586    0.5339   -5.7592 O   0  0  0  0  0  0  0  0  0  0  0  0
   -2.0680    0.8362   -4.2707 C   0  0  1  0  0  0  0  0  0  0  0  0
   -2.2177    2.1893   -3.8388 O   0  0  0  0  0  0  0  0  0  0  0  0
   -4.0672   -2.2592   -4.1337 N   0  0  0  0  0  0  0  0  0  0  0  0
   -4.2098   -3.0657   -3.0334 C   0  0  0  0  0  0  0  0  0  0  0  0
   -5.3055   -3.7943   -3.0849 N   0  0  0  0  0  0  0  0  0  0  0  0
   -5.8920   -3.4635   -4.2882 C   0  0  0  0  0  0  0  0  0  0  0  0
   -5.1276   -2.5254   -4.9661 C   0  0  0  0  0  0  0  0  0  0  0  0
   -5.3912   -1.9963   -6.1724 N   0  0  0  0  0  0  0  0  0  0  0  0
   -6.5588   -2.4674   -6.6631 C   0  0  0  0  0  0  0  0  0  0  0  0
   -7.3992   -3.3734   -6.1156 N   0  0  0  0  0  0  0  0  0  0  0  0
   -7.0753   -3.8990   -4.9128 C   0  0  0  0  0  0  0  0  0  0  0  0
   -7.9189   -4.8299   -4.3487 N   0  0  0  0  0  0  0  0  0  0  0  0
    0.7312   -1.0929   -0.0897 H   0  0  0  0  0  0  0  0  0  0  0  0
    0.7512    0.3074    0.9994 H   0  0  0  0  0  0  0  0  0  0  0  0
    2.1913   -0.0969    0.0442 H   0  0  0  0  0  0  0  0  0  0  0  0
   -0.4843    0.9499   -0.9557 H   0  0  0  0  0  0  0  0  0  0  0  0
    1.0339    1.8242   -1.0089 H   0  0  0  0  0  0  0  0  0  0  0  0
    1.9029    0.2162   -2.6294 H   0  0  0  0  0  0  0  0  0  0  0  0
   -1.7132    0.3273   -2.2188 H   0  0  0  0  0  0  0  0  0  0  0  0
   -2.4635   -1.7011   -5.3031 H   0  0  0  0  0  0  0  0  0  0  0  0
   -4.1155    0.3977   -3.7339 H   0  0  0  0  0  0  0  0  0  0  0  0
   -3.4344    0.1617   -6.4900 H   0  0  0  0  0  0  0  0  0  0  0  0
   -1.4786    0.8698   -5.1945 H   0  0  0  0  0  0  0  0  0  0  0  0
   -2.8411    2.2297   -3.0934 H   0  0  0  0  0  0  0  0  0  0  0  0
   -3.4894   -3.0872   -2.2254 H   0  0  0  0  0  0  0  0  0  0  0  0
   -6.8671   -2.0662   -7.6253 H   0  0  0  0  0  0  0  0  0  0  0  0
   -7.6692   -5.2351   -3.4579 H   0  0  0  0  0  0  0  0  0  0  0  0
   -8.7444   -5.1078   -4.8539 H   0  0  0  0  0  0  0  0  0  0  0  0
  1  2  1  0  0  0  0
  1 23  1  0  0  0  0
  1 24  1  0  0  0  0
  1 25  1  0  0  0  0
  2  3  1  0  0  0  0
  2 26  1  0  0  0  0
  2 27  1  0  0  0  0
  3  4  1  0  0  0  0
  3 28  1  0  0  0  0
  4  5  2  0  0  0  0
  6  4  1  0  0  0  0
  6  7  1  0  0  0  0
  6 11  1  0  0  0  0
  6 29  1  1  0  0  0
  7  8  1  0  0  0  0
  8  9  1  0  0  0  0
  8 13  1  0  0  0  0
  8 30  1  6  0  0  0
  9 10  1  0  0  0  0
  9 11  1  0  0  0  0
  9 31  1  1  0  0  0
 10 32  1  0  0  0  0
 11 12  1  0  0  0  0
 11 33  1  6  0  0  0
 12 34  1  0  0  0  0
 13 14  1  0  0  0  0
 13 17  1  0  0  0  0
 14 15  2  0  0  0  0
 14 35  1  0  0  0  0
 15 16  1  0  0  0  0
 16 17  2  0  0  0  0
 16 21  1  0  0  0  0
 17 18  1  0  0  0  0
 18 19  2  0  0  0  0
 19 20  1  0  0  0  0
 19 36  1  0  0  0  0
 20 21  2  0  0  0  0
 21 22  1  0  0  0  0
 22 37  1  0  0  0  0
 22 38  1  0  0  0  0
M  END
>  <DRUGBANK_ID>
DB03719

>  <SECONDARY_ACCESSION_NUMBERS>
EXPT02324

>  <COMMON_NAME>
N-Ethyl-5'-Carboxamido Adenosine

$$$$
