
 OpenBabel10282417183D

 26 26  0  0  0  0  0  0  0  0999 V2000
    1.1348    0.1593    0.0705 C   0  0  0  0  0  0  0  0  0  0  0  0
    0.5861    0.0917   -1.3555 C   0  0  0  0  0  0  0  0  0  0  0  0
    1.0068   -1.1904   -2.0897 C   0  0  3  0  0  0  0  0  0  0  0  0
    0.5713   -2.4258   -1.4162 N   0  0  0  0  0  0  0  0  0  0  0  0
    1.1233   -3.7100   -1.7726 C   0  0  0  0  0  0  0  0  0  0  0  0
    0.2290   -4.7030   -1.0518 C   0  0  0  0  0  0  0  0  0  0  0  0
   -0.2821   -3.9301    0.1463 C   0  0  0  0  0  0  0  0  0  0  0  0
   -0.3968   -2.5474   -0.4212 C   0  0  0  0  0  0  0  0  0  0  0  0
   -1.1530   -1.6984    0.0285 O   0  0  0  0  0  0  0  0  0  0  0  0
    0.4950   -1.1502   -3.5476 C   0  0  0  0  0  0  0  0  0  0  0  0
    1.4513   -1.1379   -4.5302 N   0  0  0  0  0  0  0  0  0  0  0  0
   -0.6897   -1.1793   -3.8670 O   0  0  0  0  0  0  0  0  0  0  0  0
    0.8574   -0.6967    0.6899 H   0  0  0  0  0  0  0  0  0  0  0  0
    0.7510    1.0458    0.5814 H   0  0  0  0  0  0  0  0  0  0  0  0
    2.2266    0.1852    0.0643 H   0  0  0  0  0  0  0  0  0  0  0  0
   -0.5081    0.1735   -1.3481 H   0  0  0  0  0  0  0  0  0  0  0  0
    0.9377    0.9716   -1.9075 H   0  0  0  0  0  0  0  0  0  0  0  0
    2.1056   -1.2210   -2.1109 H   0  0  0  0  0  0  0  0  0  0  0  0
    2.1623   -3.7570   -1.4327 H   0  0  0  0  0  0  0  0  0  0  0  0
    1.0819   -3.8549   -2.8565 H   0  0  0  0  0  0  0  0  0  0  0  0
    0.7455   -5.6253   -0.7778 H   0  0  0  0  0  0  0  0  0  0  0  0
   -0.6251   -4.9621   -1.6895 H   0  0  0  0  0  0  0  0  0  0  0  0
    0.4420   -3.9181    0.9698 H   0  0  0  0  0  0  0  0  0  0  0  0
   -1.2518   -4.2818    0.5018 H   0  0  0  0  0  0  0  0  0  0  0  0
    1.1222   -1.1251   -5.4888 H   0  0  0  0  0  0  0  0  0  0  0  0
    2.4480   -1.1301   -4.3681 H   0  0  0  0  0  0  0  0  0  0  0  0
  1  2  1  0  0  0  0
  1 13  1  0  0  0  0
  1 14  1  0  0  0  0
  1 15  1  0  0  0  0
  2  3  1  0  0  0  0
  2 16  1  0  0  0  0
  2 17  1  0  0  0  0
  3  4  1  0  0  0  0
  3 10  1  0  0  0  0
  3 18  1  0  0  0  0
  4  5  1  0  0  0  0
  4  8  1  0  0  0  0
  5  6  1  0  0  0  0
  5 19  1  0  0  0  0
  5 20  1  0  0  0  0
  6  7  1  0  0  0  0
  6 21  1  0  0  0  0
  6 22  1  0  0  0  0
  7  8  1  0  0  0  0
  7 23  1  0  0  0  0
  7 24  1  0  0  0  0
  8  9  2  0  0  0  0
 10 11  1  0  0  0  0
 10 12  2  0  0  0  0
 11 25  1  0  0  0  0
 11 26  1  0  0  0  0
M  END
>  <DRUGBANK_ID>
DB11868

>  <COMMON_NAME>
Etiracetam

>  <CAS_NUMBER>
33996-58-6

>  <UNII>
230447L0GL

>  <SYNONYMS>
Etiracetam; étiracétam; Etiracetamum

$$$$
