
 OpenBabel10282417193D

 22 22  0  0  0  0  0  0  0  0999 V2000
    1.3928   -0.2661    0.0234 C   0  0  0  0  0  0  0  0  0  0  0  0
    0.4651   -1.3136    0.0002 C   0  0  0  0  0  0  0  0  0  0  0  0
    0.9486    1.0481    0.0021 C   0  0  0  0  0  0  0  0  0  0  0  0
    3.1170   -0.5841    0.2908 S   0  0  0  0  0  0  0  0  0  0  0  0
   -0.9194   -1.0380   -0.0444 C   0  0  0  0  0  0  0  0  0  0  0  0
   -0.4221    1.3039    0.0304 C   0  0  0  0  0  0  0  0  0  0  0  0
    4.0186    0.2007   -1.3652 Cl  0  0  0  0  0  0  0  0  0  0  0  0
    3.5588    0.2170    1.4087 O   0  0  0  0  0  0  0  0  0  0  0  0
    3.3457   -2.0156    0.2138 O   0  0  0  0  0  0  0  0  0  0  0  0
   -1.3818    0.2878   -0.0456 C   0  0  0  0  0  0  0  0  0  0  0  0
   -2.7759    0.5808   -0.1518 N   0  0  0  0  0  0  0  0  0  0  0  0
   -3.3073    1.8652   -0.2383 C   0  0  0  0  0  0  0  0  0  0  0  0
   -4.7969    1.9791   -0.4163 C   0  0  0  0  0  0  0  0  0  0  0  0
   -2.6742    2.9186   -0.1884 O   0  0  0  0  0  0  0  0  0  0  0  0
    0.8129   -2.3455    0.0333 H   0  0  0  0  0  0  0  0  0  0  0  0
    1.6317    1.8941    0.0006 H   0  0  0  0  0  0  0  0  0  0  0  0
   -1.6063   -1.8820   -0.0505 H   0  0  0  0  0  0  0  0  0  0  0  0
   -0.7007    2.3440    0.1414 H   0  0  0  0  0  0  0  0  0  0  0  0
   -3.4067   -0.2071   -0.2506 H   0  0  0  0  0  0  0  0  0  0  0  0
   -5.1968    2.5423    0.4343 H   0  0  0  0  0  0  0  0  0  0  0  0
   -4.9830    2.5627   -1.3259 H   0  0  0  0  0  0  0  0  0  0  0  0
   -5.3094    1.0217   -0.4933 H   0  0  0  0  0  0  0  0  0  0  0  0
  1  2  2  0  0  0  0
  1  3  1  0  0  0  0
  1  4  1  0  0  0  0
  2  5  1  0  0  0  0
  2 15  1  0  0  0  0
  3  6  2  0  0  0  0
  3 16  1  0  0  0  0
  4  7  1  0  0  0  0
  4  8  2  0  0  0  0
  4  9  2  0  0  0  0
  5 10  2  0  0  0  0
  5 17  1  0  0  0  0
  6 10  1  0  0  0  0
  6 18  1  0  0  0  0
 10 11  1  0  0  0  0
 11 12  1  0  0  0  0
 11 19  1  0  0  0  0
 12 13  1  0  0  0  0
 12 14  2  0  0  0  0
 13 20  1  0  0  0  0
 13 21  1  0  0  0  0
 13 22  1  0  0  0  0
M  END
>  <DRUGBANK_ID>
DB12337

>  <COMMON_NAME>
N-acetylsulfanilyl chloride

>  <CAS_NUMBER>
121-60-8

>  <UNII>
LIX4M9AIVM

>  <SYNONYMS>
4-(acetylamino)benzenesulfonyl chloride; ASC

$$$$
