
 OpenBabel10282417193D

 54 57  0  0  1  0  0  0  0  0999 V2000
   -3.2278    0.9236    2.6429 C   0  0  0  0  0  0  0  0  0  0  0  0
   -2.5214    0.2448    3.8418 C   0  0  2  0  0  0  0  0  0  0  0  0
   -2.2231    1.2165    4.9680 C   0  0  0  0  0  0  0  0  0  0  0  0
   -2.6422    0.8709    6.2712 C   0  0  0  0  0  0  0  0  0  0  0  0
   -2.4924    1.7653    7.3217 C   0  0  0  0  0  0  0  0  0  0  0  0
   -1.9196    3.0120    7.0813 C   0  0  0  0  0  0  0  0  0  0  0  0
   -1.4462    3.3645    5.8029 C   0  0  0  0  0  0  0  0  0  0  0  0
   -1.5726    2.4564    4.7329 C   0  0  0  0  0  0  0  0  0  0  0  0
   -1.0542    2.8419    3.4704 C   0  0  0  0  0  0  0  0  0  0  0  0
   -0.5054    4.0925    3.2386 C   0  0  0  0  0  0  0  0  0  0  0  0
   -0.3888    4.9757    4.2946 C   0  0  0  0  0  0  0  0  0  0  0  0
   -0.8420    4.6112    5.5665 C   0  0  0  0  0  0  0  0  0  0  0  0
   -1.3231   -0.5268    3.4836 N   0  0  0  0  0  0  0  0  0  0  0  0
   -1.5298   -1.4993    2.3990 C   0  0  1  0  0  0  0  0  0  0  0  0
   -0.7457   -2.7867    2.6627 C   0  0  0  0  0  0  0  0  0  0  0  0
   -1.4756   -3.8321    1.8241 C   0  0  0  0  0  0  0  0  0  0  0  0
   -2.8639   -3.4223    1.8347 N   0  0  0  0  0  0  0  0  0  0  0  0
   -2.9795   -2.0012    2.1122 C   0  0  0  0  0  0  0  0  0  0  0  0
   -3.9514   -4.2219    2.0975 C   0  0  0  0  0  0  0  0  0  0  0  0
   -3.9850   -5.1971    3.0985 C   0  0  0  0  0  0  0  0  0  0  0  0
   -5.1334   -5.9790    3.3173 C   0  0  0  0  0  0  0  0  0  0  0  0
   -6.2805   -5.7963    2.5365 C   0  0  0  0  0  0  0  0  0  0  0  0
   -6.2701   -4.7945    1.5633 C   0  0  0  0  0  0  0  0  0  0  0  0
   -5.1157   -4.0417    1.3382 C   0  0  0  0  0  0  0  0  0  0  0  0
   -7.4855   -6.6931    2.6822 C   0  0  0  0  0  0  0  0  0  0  0  0
   -8.7518   -5.9532    3.0108 C   0  0  0  0  0  0  0  0  0  0  0  0
   -9.7642   -5.9167    2.3165 O   0  0  0  0  0  0  0  0  0  0  0  0
   -8.7067   -5.3056    4.1897 O   0  0  0  0  0  0  0  0  0  0  0  0
   -3.2382    2.0141    2.6714 H   0  0  0  0  0  0  0  0  0  0  0  0
   -4.2777    0.6238    2.6012 H   0  0  0  0  0  0  0  0  0  0  0  0
   -2.7656    0.6540    1.6866 H   0  0  0  0  0  0  0  0  0  0  0  0
   -3.2335   -0.4673    4.2737 H   0  0  0  0  0  0  0  0  0  0  0  0
   -3.0989   -0.0993    6.4675 H   0  0  0  0  0  0  0  0  0  0  0  0
   -2.8260    1.4949    8.3207 H   0  0  0  0  0  0  0  0  0  0  0  0
   -1.8344    3.7118    7.9089 H   0  0  0  0  0  0  0  0  0  0  0  0
   -1.0879    2.1755    2.6142 H   0  0  0  0  0  0  0  0  0  0  0  0
   -0.1744    4.3523    2.2374 H   0  0  0  0  0  0  0  0  0  0  0  0
    0.0676    5.9456    4.1298 H   0  0  0  0  0  0  0  0  0  0  0  0
   -0.7164    5.3156    6.3836 H   0  0  0  0  0  0  0  0  0  0  0  0
   -0.5586    0.1071    3.2505 H   0  0  0  0  0  0  0  0  0  0  0  0
   -1.1402   -1.0448    1.4766 H   0  0  0  0  0  0  0  0  0  0  0  0
   -0.7797   -3.0639    3.7226 H   0  0  0  0  0  0  0  0  0  0  0  0
    0.3080   -2.7017    2.3700 H   0  0  0  0  0  0  0  0  0  0  0  0
   -1.1454   -3.7616    0.7809 H   0  0  0  0  0  0  0  0  0  0  0  0
   -1.2971   -4.8501    2.1749 H   0  0  0  0  0  0  0  0  0  0  0  0
   -3.6646   -1.8358    2.9467 H   0  0  0  0  0  0  0  0  0  0  0  0
   -3.3786   -1.4791    1.2355 H   0  0  0  0  0  0  0  0  0  0  0  0
   -3.1231   -5.3494    3.7421 H   0  0  0  0  0  0  0  0  0  0  0  0
   -5.1213   -6.7291    4.1057 H   0  0  0  0  0  0  0  0  0  0  0  0
   -7.1524   -4.5990    0.9581 H   0  0  0  0  0  0  0  0  0  0  0  0
   -5.1082   -3.3285    0.5174 H   0  0  0  0  0  0  0  0  0  0  0  0
   -7.6325   -7.2257    1.7330 H   0  0  0  0  0  0  0  0  0  0  0  0
   -7.3306   -7.4669    3.4429 H   0  0  0  0  0  0  0  0  0  0  0  0
   -9.5614   -4.8324    4.2555 H   0  0  0  0  0  0  0  0  0  0  0  0
  1 29  1  0  0  0  0
  1 30  1  0  0  0  0
  1 31  1  0  0  0  0
  2 13  1  0  0  0  0
  2 32  1  1  0  0  0
  2  3  1  0  0  0  0
  2  1  1  0  0  0  0
  3  4  1  0  0  0  0
  3  8  2  0  0  0  0
  4  5  2  0  0  0  0
  4 33  1  0  0  0  0
  5  6  1  0  0  0  0
  5 34  1  0  0  0  0
  6  7  2  0  0  0  0
  6 35  1  0  0  0  0
  7  8  1  0  0  0  0
  7 12  1  0  0  0  0
  8  9  1  0  0  0  0
  9 10  2  0  0  0  0
  9 36  1  0  0  0  0
 10 11  1  0  0  0  0
 10 37  1  0  0  0  0
 11 12  2  0  0  0  0
 11 38  1  0  0  0  0
 12 39  1  0  0  0  0
 13 40  1  0  0  0  0
 14 15  1  0  0  0  0
 14 18  1  0  0  0  0
 14 41  1  6  0  0  0
 14 13  1  0  0  0  0
 15 16  1  0  0  0  0
 15 42  1  0  0  0  0
 15 43  1  0  0  0  0
 16 17  1  0  0  0  0
 16 44  1  0  0  0  0
 16 45  1  0  0  0  0
 17 18  1  0  0  0  0
 17 19  1  0  0  0  0
 18 46  1  0  0  0  0
 18 47  1  0  0  0  0
 19 20  2  0  0  0  0
 19 24  1  0  0  0  0
 20 21  1  0  0  0  0
 20 48  1  0  0  0  0
 21 22  2  0  0  0  0
 21 49  1  0  0  0  0
 22 23  1  0  0  0  0
 22 25  1  0  0  0  0
 23 24  2  0  0  0  0
 23 50  1  0  0  0  0
 24 51  1  0  0  0  0
 25 26  1  0  0  0  0
 25 52  1  0  0  0  0
 25 53  1  0  0  0  0
 26 27  2  0  0  0  0
 26 28  1  0  0  0  0
 28 54  1  0  0  0  0
M  END
>  <DRUGBANK_ID>
DB12388

>  <COMMON_NAME>
Evocalcet

>  <CAS_NUMBER>
870964-67-3

>  <UNII>
E58MLH082P

>  <SYNONYMS>
Evocalcet

$$$$
