43A
 OpenBabel10282417163D

 41 44  0  0  0  0  0  0  0  0999 V2000
    0.9277    0.0218    0.0134 C   0  0  0  0  0  0  0  0  0  0  0  0
    0.2550   -1.2057    0.0166 C   0  0  0  0  0  0  0  0  0  0  0  0
   -1.1640   -1.1857    0.0044 C   0  0  0  0  0  0  0  0  0  0  0  0
   -1.9027    0.0173   -0.0119 C   0  0  0  0  0  0  0  0  0  0  0  0
   -1.1838    1.2182   -0.0046 C   0  0  0  0  0  0  0  0  0  0  0  0
    0.2073    1.2151    0.0111 C   0  0  0  0  0  0  0  0  0  0  0  0
    2.2714    0.2609    0.0157 O   0  0  0  0  0  0  0  0  0  0  0  0
    0.7757   -2.4755    0.0350 O   0  0  0  0  0  0  0  0  0  0  0  0
    2.1842   -2.6392    0.0619 C   0  0  0  0  0  0  0  0  0  0  0  0
   -3.3801    0.0517   -0.0404 C   0  0  0  0  0  0  0  0  0  0  0  0
   -4.0516    0.6895   -1.0923 C   0  0  0  0  0  0  0  0  0  0  0  0
   -5.4356    0.7456   -1.0580 C   0  0  0  0  0  0  0  0  0  0  0  0
   -6.2205    0.2336   -0.0166 C   0  0  0  0  0  0  0  0  0  0  0  0
   -5.5772   -0.4175    1.0234 C   0  0  0  0  0  0  0  0  0  0  0  0
   -4.1614   -0.5076    1.0010 C   0  0  0  0  0  0  0  0  0  0  0  0
   -6.2271    1.3000   -2.0488 N   0  0  0  0  0  0  0  0  0  0  0  0
   -7.5647    1.2093   -1.7471 C   0  0  0  0  0  0  0  0  0  0  0  0
   -7.6296    0.5282   -0.3908 C   0  0  0  0  0  0  0  0  0  0  0  0
   -8.4521    1.6435   -2.4604 O   0  0  0  0  0  0  0  0  0  0  0  0
   -8.7785    0.3167    0.2854 C   0  0  0  0  0  0  0  0  0  0  0  0
  -10.0502    0.5504   -0.3204 C   0  0  0  0  0  0  0  0  0  0  0  0
  -10.9508    1.4506    0.2092 N   0  0  0  0  0  0  0  0  0  0  0  0
  -12.0467    1.5546   -0.6206 C   0  0  0  0  0  0  0  0  0  0  0  0
  -11.8549    0.7124   -1.6904 C   0  0  0  0  0  0  0  0  0  0  0  0
  -10.6163    0.0649   -1.4874 C   0  0  0  0  0  0  0  0  0  0  0  0
   -1.7046   -2.1327   -0.0047 H   0  0  0  0  0  0  0  0  0  0  0  0
   -1.6973    2.1768   -0.0006 H   0  0  0  0  0  0  0  0  0  0  0  0
    0.7519    2.1561    0.0235 H   0  0  0  0  0  0  0  0  0  0  0  0
    2.7952   -0.5398   -0.0453 H   0  0  0  0  0  0  0  0  0  0  0  0
    2.6307   -2.2452   -0.8583 H   0  0  0  0  0  0  0  0  0  0  0  0
    2.6094   -2.1846    0.9644 H   0  0  0  0  0  0  0  0  0  0  0  0
    2.4375   -3.7020    0.0976 H   0  0  0  0  0  0  0  0  0  0  0  0
   -3.5068    1.1307   -1.9218 H   0  0  0  0  0  0  0  0  0  0  0  0
   -6.1252   -0.8650    1.8461 H   0  0  0  0  0  0  0  0  0  0  0  0
   -3.6513   -1.0090    1.8239 H   0  0  0  0  0  0  0  0  0  0  0  0
   -5.9132    1.7217   -2.9074 H   0  0  0  0  0  0  0  0  0  0  0  0
   -8.7670   -0.1170    1.2819 H   0  0  0  0  0  0  0  0  0  0  0  0
  -10.8164    2.0108    1.0398 H   0  0  0  0  0  0  0  0  0  0  0  0
  -12.8569    2.2379   -0.4003 H   0  0  0  0  0  0  0  0  0  0  0  0
  -12.5127    0.5941   -2.5421 H   0  0  0  0  0  0  0  0  0  0  0  0
  -10.1350   -0.6237   -2.1687 H   0  0  0  0  0  0  0  0  0  0  0  0
  1  2  1  0  0  0  0
  1  6  2  0  0  0  0
  1  7  1  0  0  0  0
  2  3  2  0  0  0  0
  2  8  1  0  0  0  0
  3  4  1  0  0  0  0
  3 26  1  0  0  0  0
  4  5  2  0  0  0  0
  4 10  1  0  0  0  0
  5  6  1  0  0  0  0
  5 27  1  0  0  0  0
  6 28  1  0  0  0  0
  7 29  1  0  0  0  0
  8  9  1  0  0  0  0
  9 30  1  0  0  0  0
  9 31  1  0  0  0  0
  9 32  1  0  0  0  0
 10 11  2  0  0  0  0
 10 15  1  0  0  0  0
 11 12  1  0  0  0  0
 11 33  1  0  0  0  0
 12 13  2  0  0  0  0
 12 16  1  0  0  0  0
 13 14  1  0  0  0  0
 13 18  1  0  0  0  0
 14 15  2  0  0  0  0
 14 34  1  0  0  0  0
 15 35  1  0  0  0  0
 16 17  1  0  0  0  0
 16 36  1  0  0  0  0
 17 18  1  0  0  0  0
 17 19  2  0  0  0  0
 18 20  2  0  0  0  0
 20 21  1  0  0  0  0
 20 37  1  0  0  0  0
 21 22  1  0  0  0  0
 21 25  2  0  0  0  0
 22 23  1  0  0  0  0
 22 38  1  0  0  0  0
 23 24  2  0  0  0  0
 23 39  1  0  0  0  0
 24 25  1  0  0  0  0
 24 40  1  0  0  0  0
 25 41  1  0  0  0  0
M  END
>  <DRUGBANK_ID>
DB07078

>  <COMMON_NAME>
(3Z)-6-(4-HYDROXY-3-METHOXYPHENYL)-3-(1H-PYRROL-2-YLMETHYLENE)-1,3-DIHYDRO-2H-INDOL-2-ONE

$$$$
