FXA
 OpenBabel10282417163D

 50 53  0  0  0  0  0  0  0  0999 V2000
    1.3581   -0.2759    0.0138 C   0  0  0  0  0  0  0  0  0  0  0  0
    0.4389   -1.3249    0.0335 C   0  0  0  0  0  0  0  0  0  0  0  0
   -0.9518   -1.0648    0.0215 C   0  0  0  0  0  0  0  0  0  0  0  0
   -3.3321    1.8741   -0.3001 C   0  0  0  0  0  0  0  0  0  0  0  0
   -4.7911    2.0451   -0.4878 C   0  0  0  0  0  0  0  0  0  0  0  0
   -5.7037    1.3623    0.3056 C   0  0  0  0  0  0  0  0  0  0  0  0
   -7.0669    1.6800    0.2553 C   0  0  0  0  0  0  0  0  0  0  0  0
   -7.5255    2.6958   -0.5936 C   0  0  0  0  0  0  0  0  0  0  0  0
   -6.6013    3.4113   -1.3585 C   0  0  0  0  0  0  0  0  0  0  0  0
   -8.9229    2.9445   -0.7406 N   0  0  0  0  0  0  0  0  0  0  0  0
   -9.6906    3.2203    0.4023 C   0  0  0  0  0  0  0  0  0  0  0  0
  -11.1567    3.3824    0.1765 C   0  0  0  0  0  0  0  0  0  0  0  0
   -9.5248    2.7575   -1.9832 C   0  0  0  0  0  0  0  0  0  0  0  0
  -10.8569    2.7324   -2.1212 C   0  0  0  0  0  0  0  0  0  0  0  0
   -6.4883   -3.3127    0.5920 C   0  0  0  0  0  0  0  0  0  0  0  0
   -1.4372    0.2571   -0.0124 C   0  0  0  0  0  0  0  0  0  0  0  0
   -0.4755    1.2771    0.0567 C   0  0  0  0  0  0  0  0  0  0  0  0
    0.8957    1.0272    0.0127 C   0  0  0  0  0  0  0  0  0  0  0  0
   -2.0556   -2.4599    0.0263 S   0  0  0  0  0  0  0  0  0  0  0  0
   -3.0179   -2.1626    1.3632 N   0  0  0  0  0  0  0  0  0  0  0  0
   -2.8236    0.5843   -0.1602 N   0  0  0  0  0  0  0  0  0  0  0  0
   -2.6935    2.9233   -0.2851 O   0  0  0  0  0  0  0  0  0  0  0  0
   -5.2450    3.0756   -1.3207 C   0  0  0  0  0  0  0  0  0  0  0  0
   -9.2621    3.3549    1.5475 O   0  0  0  0  0  0  0  0  0  0  0  0
  -11.7004    3.0590   -1.0029 C   0  0  0  0  0  0  0  0  0  0  0  0
   -4.4226   -2.3015    1.2809 C   0  0  0  0  0  0  0  0  0  0  0  0
   -5.0920   -3.2519    0.5252 C   0  0  0  0  0  0  0  0  0  0  0  0
   -7.1746   -2.3989    1.3763 C   0  0  0  0  0  0  0  0  0  0  0  0
   -6.4282   -1.4721    2.0801 C   0  0  0  0  0  0  0  0  0  0  0  0
   -5.0643   -1.4394    2.0916 N   0  0  0  0  0  0  0  0  0  0  0  0
   -8.8867   -2.4175    1.4598 Cl  0  0  0  0  0  0  0  0  0  0  0  0
   -2.8453   -2.3538   -1.1743 O   0  0  0  0  0  0  0  0  0  0  0  0
   -1.2787   -3.6537    0.3213 O   0  0  0  0  0  0  0  0  0  0  0  0
    2.4289   -0.4637    0.0127 H   0  0  0  0  0  0  0  0  0  0  0  0
    0.8257   -2.3431    0.0320 H   0  0  0  0  0  0  0  0  0  0  0  0
   -5.3394    0.6329    1.0109 H   0  0  0  0  0  0  0  0  0  0  0  0
   -7.7672    1.1320    0.8806 H   0  0  0  0  0  0  0  0  0  0  0  0
   -6.9222    4.2780   -1.9298 H   0  0  0  0  0  0  0  0  0  0  0  0
  -11.7406    3.7370    1.0154 H   0  0  0  0  0  0  0  0  0  0  0  0
   -8.8730    2.5613   -2.8298 H   0  0  0  0  0  0  0  0  0  0  0  0
  -11.3247    2.5073   -3.0745 H   0  0  0  0  0  0  0  0  0  0  0  0
   -7.0258   -4.0643    0.0212 H   0  0  0  0  0  0  0  0  0  0  0  0
   -0.7499    2.3212    0.1398 H   0  0  0  0  0  0  0  0  0  0  0  0
    1.5823    1.8696   -0.0299 H   0  0  0  0  0  0  0  0  0  0  0  0
   -2.6198   -2.3569    2.2805 H   0  0  0  0  0  0  0  0  0  0  0  0
   -3.4718   -0.1869   -0.2927 H   0  0  0  0  0  0  0  0  0  0  0  0
   -4.5322    3.6489   -1.9099 H   0  0  0  0  0  0  0  0  0  0  0  0
  -12.7734    3.1035   -1.1583 H   0  0  0  0  0  0  0  0  0  0  0  0
   -4.5652   -3.9341   -0.1316 H   0  0  0  0  0  0  0  0  0  0  0  0
   -6.9150   -0.6660    2.6266 H   0  0  0  0  0  0  0  0  0  0  0  0
  1  2  2  0  0  0  0
  1 18  1  0  0  0  0
  1 34  1  0  0  0  0
  2  3  1  0  0  0  0
  2 35  1  0  0  0  0
  3 16  2  0  0  0  0
  3 19  1  0  0  0  0
  4  5  1  0  0  0  0
  4 21  1  0  0  0  0
  4 22  2  0  0  0  0
  5  6  2  0  0  0  0
  5 23  1  0  0  0  0
  6  7  1  0  0  0  0
  6 36  1  0  0  0  0
  7  8  2  0  0  0  0
  7 37  1  0  0  0  0
  8  9  1  0  0  0  0
  8 10  1  0  0  0  0
  9 23  2  0  0  0  0
  9 38  1  0  0  0  0
 10 11  1  0  0  0  0
 10 13  1  0  0  0  0
 11 12  1  0  0  0  0
 11 24  2  0  0  0  0
 12 25  2  0  0  0  0
 12 39  1  0  0  0  0
 13 14  2  0  0  0  0
 13 40  1  0  0  0  0
 14 25  1  0  0  0  0
 14 41  1  0  0  0  0
 15 27  2  0  0  0  0
 15 28  1  0  0  0  0
 15 42  1  0  0  0  0
 16 17  1  0  0  0  0
 16 21  1  0  0  0  0
 17 18  2  0  0  0  0
 17 43  1  0  0  0  0
 18 44  1  0  0  0  0
 19 20  1  0  0  0  0
 19 32  2  0  0  0  0
 19 33  2  0  0  0  0
 20 26  1  0  0  0  0
 20 45  1  0  0  0  0
 21 46  1  0  0  0  0
 23 47  1  0  0  0  0
 25 48  1  0  0  0  0
 26 27  1  0  0  0  0
 26 30  2  0  0  0  0
 27 49  1  0  0  0  0
 28 29  2  0  0  0  0
 28 31  1  0  0  0  0
 29 30  1  0  0  0  0
 29 50  1  0  0  0  0
M  END
>  <DRUGBANK_ID>
DB07800

>  <COMMON_NAME>
N-(2-(((5-CHLORO-2-PYRIDINYL)AMINO)SULFONYL)PHENYL)-4-(2-OXO-1(2H)-PYRIDINYL)BENZAMIDE

$$$$
