
 OpenBabel10282417163D

 65 66  0  0  0  0  0  0  0  0999 V2000
    4.4496    2.9324   -6.1706 Cl  0  0  0  0  0  0  0  0  0  0  0  0
    5.1918    7.0676   -1.0844 O   0  0  0  0  0  0  0  0  0  0  0  0
    8.0686    3.9695    1.2657 O   0  0  0  0  0  0  0  0  0  0  0  0
    6.9096    4.6560   -6.1828 O   0  0  0  0  0  0  0  0  0  0  0  0
    8.1887    5.6806   -0.2239 N   0  0  0  0  0  0  0  0  0  0  0  0
    5.7313    6.0959   -2.9455 N   0  0  0  0  0  0  0  0  0  0  0  0
    5.7910    5.0492    2.3937 N   0  3  0  0  0  0  0  0  0  0  0  0
    8.4578    9.0510   -5.0499 N   0  0  0  0  0  0  0  0  0  0  0  0
    6.4076    9.0640   -3.8078 N   0  0  0  0  0  0  0  0  0  0  0  0
    7.9739   10.4488   -3.2834 N   0  0  0  0  0  0  0  0  0  0  0  0
    7.6164    6.7610   -1.0519 C   0  0  1  0  0  0  0  0  0  0  0  0
    8.6653    6.6867   -2.0678 C   0  0  0  0  0  0  0  0  0  0  0  0
   10.0207    6.2574   -1.7153 C   0  0  0  0  0  0  0  0  0  0  0  0
    9.6607    5.4718   -0.4871 C   0  0  0  0  0  0  0  0  0  0  0  0
    6.1468    6.6634   -1.7627 C   0  0  0  0  0  0  0  0  0  0  0  0
    7.5237    4.8677    0.6583 C   0  0  0  0  0  0  0  0  0  0  0  0
    6.3068    5.9627   -4.3485 C   0  0  1  0  0  0  0  0  0  0  0  0
    6.0407    5.1531    0.9222 C   0  0  1  0  0  0  0  0  0  0  0  0
    7.7707    6.1805   -4.3590 C   0  0  0  0  0  0  0  0  0  0  0  0
    6.1163    4.6183   -4.9898 C   0  0  1  0  0  0  0  0  0  0  0  0
    5.1012    4.1944    0.1587 C   0  0  0  0  0  0  0  0  0  0  0  0
    8.8013    6.6359   -5.3236 C   0  0  0  0  0  0  0  0  0  0  0  0
    4.6676    4.4843   -5.3590 C   0  0  0  0  0  0  0  0  0  0  0  0
    3.6347    4.4551    0.4591 C   0  0  0  0  0  0  0  0  0  0  0  0
    8.3033    7.9086   -5.9666 C   0  0  0  0  0  0  0  0  0  0  0  0
    2.7677    3.3810    0.6798 C   0  0  0  0  0  0  0  0  0  0  0  0
    3.1186    5.7556    0.5964 C   0  0  0  0  0  0  0  0  0  0  0  0
    1.4515    3.6133    1.0905 C   0  0  0  0  0  0  0  0  0  0  0  0
    1.8246    5.9867    1.0455 C   0  0  0  0  0  0  0  0  0  0  0  0
    0.9834    4.9131    1.2789 C   0  0  0  0  0  0  0  0  0  0  0  0
    7.6422    9.4720   -4.1521 C   0  0  0  0  0  0  0  0  0  0  0  0
    7.0174    3.7521   -6.5161 H   0  0  0  0  0  0  0  0  0  0  0  0
    4.7142    6.2017   -2.9803 H   0  0  0  0  0  0  0  0  0  0  0  0
    6.1863    5.8715    2.8615 H   0  0  0  0  0  0  0  0  0  0  0  0
    4.7839    5.0098    2.5960 H   0  0  0  0  0  0  0  0  0  0  0  0
    6.2629    4.2114    2.7601 H   0  0  0  0  0  0  0  0  0  0  0  0
    6.2910    8.9013   -2.8143 H   0  0  0  0  0  0  0  0  0  0  0  0
    6.1065    8.2727   -4.3347 H   0  0  0  0  0  0  0  0  0  0  0  0
    8.5108   11.1800   -3.7382 H   0  0  0  0  0  0  0  0  0  0  0  0
    7.1921   10.8320   -2.7655 H   0  0  0  0  0  0  0  0  0  0  0  0
    7.6811    7.7315   -0.5456 H   0  0  0  0  0  0  0  0  0  0  0  0
    8.3111    5.7359   -2.4464 H   0  0  0  0  0  0  0  0  0  0  0  0
    8.7653    7.6025   -2.6297 H   0  0  0  0  0  0  0  0  0  0  0  0
   10.4304    5.6603   -2.5512 H   0  0  0  0  0  0  0  0  0  0  0  0
   10.6414    7.1445   -1.6006 H   0  0  0  0  0  0  0  0  0  0  0  0
    9.8628    4.4097   -0.6517 H   0  0  0  0  0  0  0  0  0  0  0  0
   10.2527    5.8733    0.3325 H   0  0  0  0  0  0  0  0  0  0  0  0
    5.7894    6.6953   -4.9733 H   0  0  0  0  0  0  0  0  0  0  0  0
    5.8446    6.2017    0.7483 H   0  0  0  0  0  0  0  0  0  0  0  0
    7.6925    7.0653   -3.7820 H   0  0  0  0  0  0  0  0  0  0  0  0
    8.2139    5.2557   -3.9851 H   0  0  0  0  0  0  0  0  0  0  0  0
    6.4891    3.8428   -4.3071 H   0  0  0  0  0  0  0  0  0  0  0  0
    5.2616    4.2215   -0.9264 H   0  0  0  0  0  0  0  0  0  0  0  0
    5.3472    3.1639    0.4531 H   0  0  0  0  0  0  0  0  0  0  0  0
    9.7322    6.8291   -4.7577 H   0  0  0  0  0  0  0  0  0  0  0  0
    9.0386    5.8026   -5.9862 H   0  0  0  0  0  0  0  0  0  0  0  0
    4.3909    5.2932   -6.0468 H   0  0  0  0  0  0  0  0  0  0  0  0
    4.0306    4.5392   -4.4718 H   0  0  0  0  0  0  0  0  0  0  0  0
    8.9489    8.0501   -6.8351 H   0  0  0  0  0  0  0  0  0  0  0  0
    7.2793    7.7614   -6.3192 H   0  0  0  0  0  0  0  0  0  0  0  0
    3.1021    2.3522    0.5530 H   0  0  0  0  0  0  0  0  0  0  0  0
    3.6953    6.6467    0.3872 H   0  0  0  0  0  0  0  0  0  0  0  0
    0.7853    2.7749    1.2800 H   0  0  0  0  0  0  0  0  0  0  0  0
    1.4866    7.0076    1.2109 H   0  0  0  0  0  0  0  0  0  0  0  0
   -0.0412    5.0943    1.5926 H   0  0  0  0  0  0  0  0  0  0  0  0
  1 23  1  0  0  0  0
  2 15  2  0  0  0  0
  3 16  2  0  0  0  0
  4 32  1  0  0  0  0
  5 11  1  0  0  0  0
  5 14  1  0  0  0  0
  5 16  1  0  0  0  0
  6 15  1  0  0  0  0
  6 33  1  0  0  0  0
  7 34  1  0  0  0  0
  7 35  1  0  0  0  0
  7 36  1  0  0  0  0
  8 25  1  0  0  0  0
  8 31  2  0  0  0  0
  9 31  1  0  0  0  0
  9 37  1  0  0  0  0
  9 38  1  0  0  0  0
 10 31  1  0  0  0  0
 10 39  1  0  0  0  0
 10 40  1  0  0  0  0
 11 12  1  0  0  0  0
 11 15  1  0  0  0  0
 11 41  1  1  0  0  0
 12 13  1  0  0  0  0
 12 42  1  0  0  0  0
 12 43  1  0  0  0  0
 13 14  1  0  0  0  0
 13 44  1  0  0  0  0
 13 45  1  0  0  0  0
 14 46  1  0  0  0  0
 14 47  1  0  0  0  0
 17  6  1  0  0  0  0
 17 19  1  0  0  0  0
 17 20  1  0  0  0  0
 17 48  1  6  0  0  0
 18 21  1  0  0  0  0
 18 49  1  6  0  0  0
 18 16  1  0  0  0  0
 18  7  1  0  0  0  0
 19 22  1  0  0  0  0
 19 50  1  0  0  0  0
 19 51  1  0  0  0  0
 20  4  1  0  0  0  0
 20 23  1  0  0  0  0
 20 52  1  1  0  0  0
 21 24  1  0  0  0  0
 21 53  1  0  0  0  0
 21 54  1  0  0  0  0
 22 25  1  0  0  0  0
 22 55  1  0  0  0  0
 22 56  1  0  0  0  0
 23 57  1  0  0  0  0
 23 58  1  0  0  0  0
 24 26  2  0  0  0  0
 24 27  1  0  0  0  0
 25 59  1  0  0  0  0
 25 60  1  0  0  0  0
 26 28  1  0  0  0  0
 26 61  1  0  0  0  0
 27 29  2  0  0  0  0
 27 62  1  0  0  0  0
 28 30  2  0  0  0  0
 28 63  1  0  0  0  0
 29 30  1  0  0  0  0
 29 64  1  0  0  0  0
 30 65  1  0  0  0  0
M  CHG  1   7   1
M  END
>  <DRUGBANK_ID>
DB06841

>  <COMMON_NAME>
[(2R)-1-[(2S)-2-[[(2S,3S)-1-Chloro-6-(diaminomethylideneamino)-2-hydroxyhexan-3-yl]carbamoyl]pyrrolidin-1-yl]-1-oxo-3-phenylpropan-2-yl]azanium

$$$$
