
 OpenBabel10282417133D

 49 49  0  0  1  0  0  0  0  0999 V2000
    1.0183   -0.0678   -0.1353 C   0  0  1  0  0  0  0  0  0  0  0  0
    0.2526   -1.3350    0.2016 C   0  0  1  0  0  0  0  0  0  0  0  0
    0.3092    1.2204    0.1882 C   0  0  1  0  0  0  0  0  0  0  0  0
   -1.2753   -1.1782   -0.0743 C   0  0  2  0  0  0  0  0  0  0  0  0
   -1.1777    1.3011   -0.2870 C   0  0  2  0  0  0  0  0  0  0  0  0
   -1.9890    0.1070    0.2645 C   0  0  2  0  0  0  0  0  0  0  0  0
    2.3593   -0.1597    0.3523 O   0  0  0  0  0  0  0  0  0  0  0  0
   -0.8192   -2.1515   -2.0587 O   0  0  0  0  0  0  0  0  0  0  0  0
    1.9132   -1.3887   -2.0479 O   0  0  0  0  0  0  0  0  0  0  0  0
    0.6138   -2.4133   -3.6016 O   0  0  0  0  0  0  0  0  0  0  0  0
    0.9475   -0.4998    2.9591 O   0  0  0  0  0  0  0  0  0  0  0  0
   -0.7989    0.8848    3.4542 O   0  0  0  0  0  0  0  0  0  0  0  0
   -1.2362   -1.4251    2.7665 O   0  0  0  0  0  0  0  0  0  0  0  0
   -3.6734   -1.9530    1.7291 O   0  0  0  0  0  0  0  0  0  0  0  0
   -2.5935   -3.8540    1.8488 O   0  0  0  0  0  0  0  0  0  0  0  0
   -2.1563   -2.2684    3.5923 O   0  0  0  0  0  0  0  0  0  0  0  0
    0.3502    1.3919   -2.3835 O   0  0  0  0  0  0  0  0  0  0  0  0
   -2.0188   -0.1251   -2.7904 O   0  0  0  0  0  0  0  0  0  0  0  0
   -0.2058    0.1539   -3.8604 O   0  0  0  0  0  0  0  0  0  0  0  0
   -3.0608   -0.0403    3.8007 O   0  0  0  0  0  0  0  0  0  0  0  0
   -3.1502    1.7985    2.3653 O   0  0  0  0  0  0  0  0  0  0  0  0
   -5.0282    0.3675    2.8070 O   0  0  0  0  0  0  0  0  0  0  0  0
    0.8100   -2.4665   -0.3296 O   0  0  0  0  0  0  0  0  0  0  0  0
    0.3391    1.2003    1.5945 O   0  0  0  0  0  0  0  0  0  0  0  0
   -1.9449   -2.3510    0.3219 O   0  0  0  0  0  0  0  0  0  0  0  0
   -1.5710    1.5655   -1.6332 O   0  0  0  0  0  0  0  0  0  0  0  0
   -1.9638    0.0314    1.6918 O   0  0  0  0  0  0  0  0  0  0  0  0
    0.7064   -2.4384   -2.0562 P   0  0  0  0  0  0  0  0  0  0  0  0
   -0.4922   -0.1851    2.2129 P   0  0  0  0  0  0  0  0  0  0  0  0
   -2.0565   -2.3074    2.0477 P   0  0  0  0  0  0  0  0  0  0  0  0
   -1.0438    1.1283   -3.1416 P   0  0  0  0  0  0  0  0  0  0  0  0
   -3.5809    0.2088    2.2803 P   0  0  0  0  0  0  0  0  0  0  0  0
    1.0705   -0.0295   -1.1772 H   0  0  0  0  0  0  0  0  0  0  0  0
    0.5014   -1.7039    1.1868 H   0  0  0  0  0  0  0  0  0  0  0  0
    0.8882    2.0869   -0.1420 H   0  0  0  0  0  0  0  0  0  0  0  0
   -1.5102   -0.9707   -1.0586 H   0  0  0  0  0  0  0  0  0  0  0  0
   -1.5483    2.1855    0.2412 H   0  0  0  0  0  0  0  0  0  0  0  0
   -3.0246    0.1076   -0.0952 H   0  0  0  0  0  0  0  0  0  0  0  0
    2.4114    0.3157    1.2059 H   0  0  0  0  0  0  0  0  0  0  0  0
   -1.2041   -2.0584   -2.9547 H   0  0  0  0  0  0  0  0  0  0  0  0
    2.6309   -1.7166   -1.4569 H   0  0  0  0  0  0  0  0  0  0  0  0
    1.4608   -1.3022    2.7902 H   0  0  0  0  0  0  0  0  0  0  0  0
   -1.4686    1.5492    3.1871 H   0  0  0  0  0  0  0  0  0  0  0  0
   -4.2632   -2.2265    2.4693 H   0  0  0  0  0  0  0  0  0  0  0  0
   -3.3975   -3.7169    1.2984 H   0  0  0  0  0  0  0  0  0  0  0  0
    0.9925    0.7509   -2.7998 H   0  0  0  0  0  0  0  0  0  0  0  0
   -2.7470   -0.0067   -2.1720 H   0  0  0  0  0  0  0  0  0  0  0  0
   -2.8537   -0.9840    4.0280 H   0  0  0  0  0  0  0  0  0  0  0  0
   -3.0129    2.3037    1.5539 H   0  0  0  0  0  0  0  0  0  0  0  0
  1  7  1  0  0  0  0
  1 33  1  6  0  0  0
  2  1  1  0  0  0  0
  2 23  1  0  0  0  0
  2 34  1  1  0  0  0
  3  1  1  0  0  0  0
  3 24  1  0  0  0  0
  3 35  1  6  0  0  0
  4  2  1  0  0  0  0
  4 36  1  6  0  0  0
  4 25  1  0  0  0  0
  5  3  1  0  0  0  0
  5 26  1  0  0  0  0
  5 37  1  1  0  0  0
  6  4  1  0  0  0  0
  6  5  1  0  0  0  0
  6 38  1  6  0  0  0
  6 27  1  0  0  0  0
  7 39  1  0  0  0  0
  8 40  1  0  0  0  0
  9 41  1  0  0  0  0
 11 42  1  0  0  0  0
 12 43  1  0  0  0  0
 14 44  1  0  0  0  0
 15 45  1  0  0  0  0
 17 46  1  0  0  0  0
 18 47  1  0  0  0  0
 20 48  1  0  0  0  0
 21 49  1  0  0  0  0
 28  8  1  0  0  0  0
 28  9  1  0  0  0  0
 28 10  2  0  0  0  0
 28 23  1  0  0  0  0
 29 11  1  0  0  0  0
 29 12  1  0  0  0  0
 29 13  2  0  0  0  0
 29 24  1  0  0  0  0
 30 14  1  0  0  0  0
 30 15  1  0  0  0  0
 30 16  2  0  0  0  0
 30 25  1  0  0  0  0
 31 17  1  0  0  0  0
 31 18  1  0  0  0  0
 31 19  2  0  0  0  0
 31 26  1  0  0  0  0
 32 20  1  0  0  0  0
 32 21  1  0  0  0  0
 32 22  2  0  0  0  0
 32 27  1  0  0  0  0
M  END
>  <DRUGBANK_ID>
DB03344

>  <SECONDARY_ACCESSION_NUMBERS>
EXPT01818

>  <COMMON_NAME>
Inositol-(1,3,4,5,6)-Pentakisphosphate

$$$$
