LS3
 OpenBabel10282417173D

 43 47  0  0  0  0  0  0  0  0999 V2000
   -2.9886    0.7254   -0.0603 O   0  0  0  0  0  0  0  0  0  0  0  0
   -1.7894    0.4914   -0.0146 C   0  0  0  0  0  0  0  0  0  0  0  0
   -0.7570    1.4066    0.0133 N   0  0  0  0  0  0  0  0  0  0  0  0
    0.4814    0.7718    0.0444 C   0  0  0  0  0  0  0  0  0  0  0  0
    1.7143    1.3953    0.0701 C   0  0  0  0  0  0  0  0  0  0  0  0
    2.8511    0.5812    0.0619 C   0  0  0  0  0  0  0  0  0  0  0  0
    2.7313   -0.8251    0.0009 C   0  0  0  0  0  0  0  0  0  0  0  0
    3.9095   -1.6500   -0.1933 C   0  0  0  0  0  0  0  0  0  0  0  0
    4.9072   -1.6259    0.7454 O   0  0  0  0  0  0  0  0  0  0  0  0
    5.8216   -2.5198    0.2605 C   0  0  0  0  0  0  0  0  0  0  0  0
    5.5076   -3.0776   -0.8881 N   0  0  0  0  0  0  0  0  0  0  0  0
    4.2915   -2.5246   -1.1839 C   0  0  0  0  0  0  0  0  0  0  0  0
    1.4521   -1.4299   -0.0105 C   0  0  0  0  0  0  0  0  0  0  0  0
    0.3275   -0.6208    0.0294 C   0  0  0  0  0  0  0  0  0  0  0  0
   -1.1250   -0.8582    0.0258 C   0  0  0  0  0  0  0  0  0  0  0  0
   -1.8526   -1.9865    0.0908 C   0  0  0  0  0  0  0  0  0  0  0  0
   -3.2302   -2.0722    0.0642 N   0  0  0  0  0  0  0  0  0  0  0  0
   -4.0471   -3.2066    0.1712 C   0  0  0  0  0  0  0  0  0  0  0  0
   -5.1393   -3.3324   -0.6864 C   0  0  0  0  0  0  0  0  0  0  0  0
   -5.9388   -4.4807   -0.6679 C   0  0  0  0  0  0  0  0  0  0  0  0
   -7.0886   -4.6213   -1.6036 C   0  0  0  0  0  0  0  0  0  0  0  0
   -7.7523   -6.2235   -1.2343 S   0  0  0  0  0  0  0  0  0  0  0  0
   -9.0911   -6.0382   -0.7036 O   0  0  0  0  0  0  0  0  0  0  0  0
   -7.5240   -7.0780   -2.3862 O   0  0  0  0  0  0  0  0  0  0  0  0
   -6.6322   -6.7080    0.1009 C   0  0  0  0  0  0  0  0  0  0  0  0
   -5.6923   -5.5348    0.2136 C   0  0  0  0  0  0  0  0  0  0  0  0
   -4.6109   -5.4162    1.0905 C   0  0  0  0  0  0  0  0  0  0  0  0
   -3.7883   -4.2662    1.0486 C   0  0  0  0  0  0  0  0  0  0  0  0
   -0.9123    2.4028    0.0023 H   0  0  0  0  0  0  0  0  0  0  0  0
    1.8023    2.4763    0.0777 H   0  0  0  0  0  0  0  0  0  0  0  0
    3.8357    1.0486    0.0542 H   0  0  0  0  0  0  0  0  0  0  0  0
    6.7108   -2.6904    0.8531 H   0  0  0  0  0  0  0  0  0  0  0  0
    3.7489   -2.7642   -2.0866 H   0  0  0  0  0  0  0  0  0  0  0  0
    1.3585   -2.5099   -0.0724 H   0  0  0  0  0  0  0  0  0  0  0  0
   -1.3667   -2.9562    0.1373 H   0  0  0  0  0  0  0  0  0  0  0  0
   -3.7191   -1.1827   -0.0852 H   0  0  0  0  0  0  0  0  0  0  0  0
   -5.3596   -2.5468   -1.4058 H   0  0  0  0  0  0  0  0  0  0  0  0
   -7.8443   -3.8635   -1.3928 H   0  0  0  0  0  0  0  0  0  0  0  0
   -6.7502   -4.6046   -2.6407 H   0  0  0  0  0  0  0  0  0  0  0  0
   -7.2321   -6.8728    1.0004 H   0  0  0  0  0  0  0  0  0  0  0  0
   -6.1273   -7.6261   -0.2130 H   0  0  0  0  0  0  0  0  0  0  0  0
   -4.3756   -6.1940    1.8143 H   0  0  0  0  0  0  0  0  0  0  0  0
   -2.9572   -4.1767    1.7446 H   0  0  0  0  0  0  0  0  0  0  0  0
  1  2  2  0  0  0  0
  2  3  1  0  0  0  0
  2 15  1  0  0  0  0
  3  4  1  0  0  0  0
  3 29  1  0  0  0  0
  4  5  2  0  0  0  0
  4 14  1  0  0  0  0
  5  6  1  0  0  0  0
  5 30  1  0  0  0  0
  6  7  2  0  0  0  0
  6 31  1  0  0  0  0
  7  8  1  0  0  0  0
  7 13  1  0  0  0  0
  8  9  1  0  0  0  0
  8 12  2  0  0  0  0
  9 10  1  0  0  0  0
 10 11  2  0  0  0  0
 10 32  1  0  0  0  0
 11 12  1  0  0  0  0
 12 33  1  0  0  0  0
 13 14  2  0  0  0  0
 13 34  1  0  0  0  0
 14 15  1  0  0  0  0
 15 16  2  0  0  0  0
 16 17  1  0  0  0  0
 16 35  1  0  0  0  0
 17 18  1  0  0  0  0
 17 36  1  0  0  0  0
 18 19  2  0  0  0  0
 18 28  1  0  0  0  0
 19 20  1  0  0  0  0
 19 37  1  0  0  0  0
 20 21  1  0  0  0  0
 20 26  2  0  0  0  0
 21 22  1  0  0  0  0
 21 38  1  0  0  0  0
 21 39  1  0  0  0  0
 22 23  2  0  0  0  0
 22 24  2  0  0  0  0
 22 25  1  0  0  0  0
 25 26  1  0  0  0  0
 25 40  1  0  0  0  0
 25 41  1  0  0  0  0
 26 27  1  0  0  0  0
 27 28  2  0  0  0  0
 27 42  1  0  0  0  0
 28 43  1  0  0  0  0
M  END
>  <DRUGBANK_ID>
DB08124

>  <COMMON_NAME>
3-{[(2,2-dioxido-1,3-dihydro-2-benzothien-5-yl)amino]methylene}-5-(1,3-oxazol-5-yl)-1,3-dihydro-2H-indol-2-one

$$$$
