
 OpenBabel10282417153D

 64 67  0  0  1  0  0  0  0  0999 V2000
    1.1550    0.0568    0.0642 C   0  0  0  0  0  0  0  0  0  0  0  0
    0.6785    0.1842   -1.3596 C   0  0  0  0  0  0  0  0  0  0  0  0
    0.7105    1.4655   -1.9529 C   0  0  0  0  0  0  0  0  0  0  0  0
    0.0743    1.7063   -3.1739 C   0  0  0  0  0  0  0  0  0  0  0  0
   -0.4530    0.6264   -3.8819 C   0  0  0  0  0  0  0  0  0  0  0  0
   -0.3480   -0.6774   -3.3884 C   0  0  0  0  0  0  0  0  0  0  0  0
    0.1402   -0.9034   -2.0853 C   0  0  0  0  0  0  0  0  0  0  0  0
   -0.1232   -2.2606   -1.4553 C   0  0  0  0  0  0  0  0  0  0  0  0
   -1.5539   -2.6024   -1.3949 N   0  0  0  0  0  0  0  0  0  0  0  0
   -1.9616   -3.8198   -2.0649 C   0  0  0  0  0  0  0  0  0  0  0  0
   -2.5826   -4.7700   -1.0541 C   0  0  0  0  0  0  0  0  0  0  0  0
   -3.1154   -5.5851   -0.1869 C   0  0  0  0  0  0  0  0  0  0  0  0
   -2.4597   -1.8925   -0.6272 C   0  0  0  0  0  0  0  0  0  0  0  0
   -2.5690   -0.5408   -0.7799 C   0  0  0  0  0  0  0  0  0  0  0  0
   -3.6191    0.1396   -0.2038 C   0  0  0  0  0  0  0  0  0  0  0  0
   -4.3498   -0.3358    0.8802 C   0  0  0  0  0  0  0  0  0  0  0  0
   -4.2632   -1.6863    1.0590 C   0  0  0  0  0  0  0  0  0  0  0  0
   -3.4219   -2.4319    0.2401 C   0  0  0  0  0  0  0  0  0  0  0  0
   -5.0216   -2.3541    1.9390 F   0  0  0  0  0  0  0  0  0  0  0  0
   -5.2083    0.4577    1.8041 C   0  0  0  0  0  0  0  0  0  0  0  0
   -5.8602   -0.0786    2.6972 O   0  0  0  0  0  0  0  0  0  0  0  0
   -5.2669    1.8235    1.7373 N   0  0  0  0  0  0  0  0  0  0  0  0
   -4.4521    2.7155    0.9455 C   0  0  1  0  0  0  0  0  0  0  0  0
   -5.3247    3.4887   -0.0475 C   0  0  0  0  0  0  0  0  0  0  0  0
   -6.1576    4.5670    0.6215 C   0  0  0  0  0  0  0  0  0  0  0  0
   -5.2876    5.6521    1.1414 C   0  0  0  0  0  0  0  0  0  0  0  0
   -5.6312    6.9576    1.2843 N   0  0  0  0  0  0  0  0  0  0  0  0
   -4.6919    7.6029    1.9949 N   0  0  0  0  0  0  0  0  0  0  0  0
   -3.7092    6.7349    2.1356 N   0  0  0  0  0  0  0  0  0  0  0  0
   -4.0285    5.5807    1.5078 N   0  0  0  0  0  0  0  0  0  0  0  0
   -3.2516    3.2762    1.6881 C   0  0  0  0  0  0  0  0  0  0  0  0
   -2.1758    3.5350    1.1604 O   0  0  0  0  0  0  0  0  0  0  0  0
   -3.5593    3.6854    2.9343 O   0  0  0  0  0  0  0  0  0  0  0  0
   -1.2192    0.9270   -5.1162 C   0  0  0  0  0  0  0  0  0  0  0  0
   -1.7381   -0.0211   -5.7214 O   0  0  0  0  0  0  0  0  0  0  0  0
   -1.3634    2.2266   -5.5381 N   0  0  0  0  0  0  0  0  0  0  0  0
   -0.8124    3.1737   -4.8406 C   0  0  0  0  0  0  0  0  0  0  0  0
   -0.0894    2.9926   -3.6898 N   0  0  0  0  0  0  0  0  0  0  0  0
   -0.9807    4.5893   -5.3443 C   0  0  0  0  0  0  0  0  0  0  0  0
    0.7836   -0.8337    0.5723 H   0  0  0  0  0  0  0  0  0  0  0  0
    0.7817    0.8924    0.6659 H   0  0  0  0  0  0  0  0  0  0  0  0
    2.2463    0.0333    0.0897 H   0  0  0  0  0  0  0  0  0  0  0  0
    1.1728    2.2892   -1.4116 H   0  0  0  0  0  0  0  0  0  0  0  0
   -0.7718   -1.5008   -3.9615 H   0  0  0  0  0  0  0  0  0  0  0  0
    0.4422   -2.9939   -2.0438 H   0  0  0  0  0  0  0  0  0  0  0  0
    0.2787   -2.3615   -0.4478 H   0  0  0  0  0  0  0  0  0  0  0  0
   -2.6999   -3.5916   -2.8428 H   0  0  0  0  0  0  0  0  0  0  0  0
   -1.1255   -4.3299   -2.5559 H   0  0  0  0  0  0  0  0  0  0  0  0
   -3.5509   -6.2489    0.5243 H   0  0  0  0  0  0  0  0  0  0  0  0
   -1.9809    0.0291   -1.4786 H   0  0  0  0  0  0  0  0  0  0  0  0
   -3.8474    1.0085   -0.7962 H   0  0  0  0  0  0  0  0  0  0  0  0
   -3.6078   -3.4734    0.3723 H   0  0  0  0  0  0  0  0  0  0  0  0
   -5.7589    2.2251    2.5290 H   0  0  0  0  0  0  0  0  0  0  0  0
   -3.8375    2.1799    0.2863 H   0  0  0  0  0  0  0  0  0  0  0  0
   -4.7172    3.9166   -0.8550 H   0  0  0  0  0  0  0  0  0  0  0  0
   -6.0050    2.7734   -0.5451 H   0  0  0  0  0  0  0  0  0  0  0  0
   -6.8822    4.9662   -0.0959 H   0  0  0  0  0  0  0  0  0  0  0  0
   -6.7439    4.1063    1.4285 H   0  0  0  0  0  0  0  0  0  0  0  0
   -6.4104    7.4683    0.9007 H   0  0  0  0  0  0  0  0  0  0  0  0
   -3.2262    4.6161    2.8943 H   0  0  0  0  0  0  0  0  0  0  0  0
    0.2660    3.7813   -3.1647 H   0  0  0  0  0  0  0  0  0  0  0  0
   -1.5036    5.1906   -4.5953 H   0  0  0  0  0  0  0  0  0  0  0  0
    0.0046    5.0265   -5.5289 H   0  0  0  0  0  0  0  0  0  0  0  0
   -1.5546    4.6049   -6.2758 H   0  0  0  0  0  0  0  0  0  0  0  0
  1  2  1  0  0  0  0
  1 40  1  0  0  0  0
  1 41  1  0  0  0  0
  1 42  1  0  0  0  0
  2  3  1  0  0  0  0
  2  7  2  0  0  0  0
  3  4  2  0  0  0  0
  3 43  1  0  0  0  0
  4  5  1  0  0  0  0
  4 38  1  0  0  0  0
  5  6  2  0  0  0  0
  5 34  1  0  0  0  0
  6  7  1  0  0  0  0
  6 44  1  0  0  0  0
  7  8  1  0  0  0  0
  8  9  1  0  0  0  0
  8 45  1  0  0  0  0
  8 46  1  0  0  0  0
  9 10  1  0  0  0  0
  9 13  1  0  0  0  0
 10 11  1  0  0  0  0
 10 47  1  0  0  0  0
 10 48  1  0  0  0  0
 11 12  3  0  0  0  0
 12 49  1  0  0  0  0
 13 14  2  0  0  0  0
 13 18  1  0  0  0  0
 14 15  1  0  0  0  0
 14 50  1  0  0  0  0
 15 16  2  0  0  0  0
 15 51  1  0  0  0  0
 16 17  1  0  0  0  0
 16 20  1  0  0  0  0
 17 18  2  0  0  0  0
 17 19  1  0  0  0  0
 18 52  1  0  0  0  0
 20 21  2  0  0  0  0
 20 22  1  0  0  0  0
 22 53  1  0  0  0  0
 23 22  1  0  0  0  0
 23 24  1  0  0  0  0
 23 31  1  0  0  0  0
 23 54  1  6  0  0  0
 24 25  1  0  0  0  0
 24 55  1  0  0  0  0
 24 56  1  0  0  0  0
 25 26  1  0  0  0  0
 25 57  1  0  0  0  0
 25 58  1  0  0  0  0
 26 27  1  0  0  0  0
 26 30  2  0  0  0  0
 27 28  1  0  0  0  0
 27 59  1  0  0  0  0
 28 29  2  0  0  0  0
 29 30  1  0  0  0  0
 31 32  2  0  0  0  0
 31 33  1  0  0  0  0
 33 60  1  0  0  0  0
 34 35  2  0  0  0  0
 34 36  1  0  0  0  0
 36 37  2  0  0  0  0
 37 38  1  0  0  0  0
 37 39  1  0  0  0  0
 38 61  1  0  0  0  0
 39 62  1  0  0  0  0
 39 63  1  0  0  0  0
 39 64  1  0  0  0  0
M  END
>  <DRUGBANK_ID>
DB06163

>  <COMMON_NAME>
Plevitrexed

>  <CAS_NUMBER>
153537-73-6

>  <UNII>
L9P2881C3H

>  <SYNONYMS>
Plevitrexed

$$$$
