1021
 OpenBabel10282417113D

 28 29  0  0  1  0  0  0  0  0999 V2000
    0.9901    0.1625    0.1360 Cl  0  0  0  0  0  0  0  0  0  0  0  0
    3.4517    1.1353    1.3619 Cl  0  0  0  0  0  0  0  0  0  0  0  0
    8.9115   -3.7852   -1.5244 Cl  0  0  0  0  0  0  0  0  0  0  0  0
    2.8827   -3.9611    0.1627 S   0  0  0  0  0  0  0  0  0  0  0  0
    7.3011   -6.8113   -1.2182 S   0  0  0  0  0  0  0  0  0  0  0  0
    2.8336   -4.0739    1.5976 O   0  0  0  0  0  0  0  0  0  0  0  0
    2.1522   -4.8457   -0.7215 O   0  0  0  0  0  0  0  0  0  0  0  0
    7.3702   -7.4762    0.0616 O   0  0  0  0  0  0  0  0  0  0  0  0
    6.6186   -7.3942   -2.3498 O   0  0  0  0  0  0  0  0  0  0  0  0
    2.4296   -2.4086   -0.2582 N   0  0  0  0  0  0  0  0  0  0  0  0
    4.5581   -1.5427   -0.4976 N   0  0  0  0  0  0  0  0  0  0  0  0
    8.8862   -6.5938   -1.6927 N   0  0  0  0  0  0  0  0  0  0  0  0
    3.3291   -1.3969    0.2697 C   0  0  3  0  0  0  0  0  0  0  0  0
    4.5804   -3.9849   -0.3180 C   0  0  0  0  0  0  0  0  0  0  0  0
    5.2085   -2.7639   -0.5585 C   0  0  0  0  0  0  0  0  0  0  0  0
    5.2386   -5.2065   -0.5161 C   0  0  0  0  0  0  0  0  0  0  0  0
    6.5847   -5.2146   -0.9383 C   0  0  0  0  0  0  0  0  0  0  0  0
    2.7681    0.0537    0.1073 C   0  0  0  0  0  0  0  0  0  0  0  0
    6.5471   -2.7962   -0.9509 C   0  0  0  0  0  0  0  0  0  0  0  0
    7.2478   -4.0004   -1.1226 C   0  0  0  0  0  0  0  0  0  0  0  0
    2.2027   -2.3305   -1.2460 H   0  0  0  0  0  0  0  0  0  0  0  0
    5.1076   -0.7055   -0.6720 H   0  0  0  0  0  0  0  0  0  0  0  0
    9.4332   -6.0536   -1.0218 H   0  0  0  0  0  0  0  0  0  0  0  0
    9.3321   -7.4684   -1.9657 H   0  0  0  0  0  0  0  0  0  0  0  0
    3.5121   -1.5780    1.3383 H   0  0  0  0  0  0  0  0  0  0  0  0
    4.6981   -6.1406   -0.3524 H   0  0  0  0  0  0  0  0  0  0  0  0
    3.0917    0.4694   -0.8524 H   0  0  0  0  0  0  0  0  0  0  0  0
    7.0716   -1.8571   -1.1224 H   0  0  0  0  0  0  0  0  0  0  0  0
  1 18  1  0  0  0  0
  2 18  1  0  0  0  0
  3 20  1  0  0  0  0
  4  6  2  0  0  0  0
  4  7  2  0  0  0  0
  4 10  1  0  0  0  0
  4 14  1  0  0  0  0
  5  8  2  0  0  0  0
  5  9  2  0  0  0  0
  5 12  1  0  0  0  0
  5 17  1  0  0  0  0
 10 13  1  0  0  0  0
 10 21  1  0  0  0  0
 11 13  1  0  0  0  0
 11 15  1  0  0  0  0
 11 22  1  0  0  0  0
 12 23  1  0  0  0  0
 12 24  1  0  0  0  0
 13 18  1  0  0  0  0
 13 25  1  0  0  0  0
 14 15  1  0  0  0  0
 14 16  2  0  0  0  0
 15 19  2  0  0  0  0
 16 17  1  0  0  0  0
 16 26  1  0  0  0  0
 17 20  2  0  0  0  0
 18 27  1  0  0  0  0
 19 20  1  0  0  0  0
 19 28  1  0  0  0  0
M  END
>  <DRUGBANK_ID>
DB01021

>  <SECONDARY_ACCESSION_NUMBERS>
APRD00031

>  <COMMON_NAME>
Trichlormethiazide

>  <CAS_NUMBER>
133-67-5

>  <UNII>
Q58C92TUN0

>  <SYNONYMS>
Trichlormethiazide; triclormetiazida

$$$$
