ISA
 OpenBabel10282417123D

 22 22  0  0  0  0  0  0  0  0999 V2000
    5.9861   -7.2617   -2.5115 I   0  0  0  0  0  0  0  0  0  0  0  0
    5.7910   -5.5730   -1.3176 C   0  0  0  0  0  0  0  0  0  0  0  0
    5.5231   -5.7046    0.0411 C   0  0  0  0  0  0  0  0  0  0  0  0
    5.3526   -4.5599    0.8300 C   0  0  0  0  0  0  0  0  0  0  0  0
    5.9138   -4.3078   -1.8817 C   0  0  0  0  0  0  0  0  0  0  0  0
    5.7486   -3.1671   -1.0876 C   0  0  0  0  0  0  0  0  0  0  0  0
    5.4514   -3.2681    0.2768 C   0  0  0  0  0  0  0  0  0  0  0  0
    5.0675   -2.0732    1.1320 C   0  0  0  0  0  0  0  0  0  0  0  0
    5.7493   -0.6956    1.0273 C   0  0  2  0  0  0  0  0  0  0  0  0
    5.1263    0.3416   -0.3540 S   0  0  0  0  0  0  0  0  0  0  0  0
    7.2643   -0.6844    1.0573 C   0  0  0  0  0  0  0  0  0  0  0  0
    7.9504   -0.1867    1.9416 O   0  0  0  0  0  0  0  0  0  0  0  0
    7.8569   -1.2353   -0.0176 O   0  0  0  0  0  0  0  0  0  0  0  0
    5.4423   -0.1349    1.9219 H   0  0  0  0  0  0  0  0  0  0  0  0
    5.4221   -6.6872    0.4956 H   0  0  0  0  0  0  0  0  0  0  0  0
    5.1125   -4.6940    1.8839 H   0  0  0  0  0  0  0  0  0  0  0  0
    6.1216   -4.1849   -2.9417 H   0  0  0  0  0  0  0  0  0  0  0  0
    5.8520   -2.2046   -1.5761 H   0  0  0  0  0  0  0  0  0  0  0  0
    3.9931   -1.9247    0.9517 H   0  0  0  0  0  0  0  0  0  0  0  0
    5.1374   -2.3810    2.1850 H   0  0  0  0  0  0  0  0  0  0  0  0
    4.5485   -0.6469   -1.0499 H   0  0  0  0  0  0  0  0  0  0  0  0
    8.8184   -1.1173    0.1302 H   0  0  0  0  0  0  0  0  0  0  0  0
  1  2  1  0  0  0  0
  2  3  2  0  0  0  0
  2  5  1  0  0  0  0
  3  4  1  0  0  0  0
  3 15  1  0  0  0  0
  4  7  2  0  0  0  0
  4 16  1  0  0  0  0
  5  6  2  0  0  0  0
  5 17  1  0  0  0  0
  6  7  1  0  0  0  0
  6 18  1  0  0  0  0
  7  8  1  0  0  0  0
  8 19  1  0  0  0  0
  8 20  1  0  0  0  0
  9 11  1  0  0  0  0
  9 14  1  1  0  0  0
  9 10  1  0  0  0  0
  9  8  1  0  0  0  0
 10 21  1  0  0  0  0
 11 12  2  0  0  0  0
 11 13  1  0  0  0  0
 13 22  1  0  0  0  0
M  END
>  <DRUGBANK_ID>
DB02570

>  <SECONDARY_ACCESSION_NUMBERS>
EXPT01931

>  <COMMON_NAME>
PD150606

$$$$
