
 OpenBabel10282417103D

165168  0  0  0  0  0  0  0  0999 V2000
   -4.9637  -17.1857    1.1587 C   0  0  1  0  0  0  0  0  0  0  0  0
   -3.7301  -17.0066    3.3141 N   0  0  0  0  0  0  0  0  0  0  0  0
   -5.9409  -17.5746   -1.0317 C   0  0  0  0  0  0  0  0  0  0  0  0
   -4.1091  -17.9935    0.9025 C   0  0  0  0  0  0  0  0  0  0  0  0
   -4.6848  -18.3754   -1.5431 C   0  0  2  0  0  0  0  0  0  0  0  0
   -3.0762  -15.4686   11.4600 C   0  0  0  0  0  0  0  0  0  0  0  0
   -2.8564  -14.4853   10.3663 C   0  0  2  0  0  0  0  0  0  0  0  0
   -2.1033  -15.5093    8.2561 C   0  0  1  0  0  0  0  0  0  0  0  0
   -3.0052  -16.2711    5.6488 C   0  0  0  0  0  0  0  0  0  0  0  0
    1.6493  -16.0348   10.8391 O   0  0  0  0  0  0  0  0  0  0  0  0
   -2.9800  -13.4733   12.2665 O   0  0  0  0  0  0  0  0  0  0  0  0
    1.1307  -14.8971   10.6992 C   0  0  0  0  0  0  0  0  0  0  0  0
   -0.7461  -15.2692   10.2659 N   0  0  0  0  0  0  0  0  0  0  0  0
    1.1531  -12.7270    9.5435 C   0  0  0  0  0  0  0  0  0  0  0  0
    1.3047  -14.2007    9.4303 C   0  0  2  0  0  0  0  0  0  0  0  0
   -0.2461  -12.2579   10.0259 C   0  0  2  0  0  0  0  0  0  0  0  0
   -1.4699  -12.8759    9.4996 C   0  0  1  0  0  0  0  0  0  0  0  0
   -1.0683  -13.3151   10.6548 N   0  0  0  0  0  0  0  0  0  0  0  0
   -1.4188  -12.2049    8.4979 N   0  0  0  0  0  0  0  0  0  0  0  0
   -1.3721  -11.2772   10.5893 O   0  0  0  0  0  0  0  0  0  0  0  0
   -2.5787  -11.4190    8.2626 C   0  0  0  0  0  0  0  0  0  0  0  0
   -3.1265  -10.8309    6.3958 C   0  0  1  0  0  0  0  0  0  0  0  0
   -3.0506  -10.5989    8.9448 O   0  0  0  0  0  0  0  0  0  0  0  0
   -4.3736  -11.6629    5.1634 N   0  0  0  0  0  0  0  0  0  0  0  0
   -4.8084   -9.5098    6.2507 C   0  0  0  0  0  0  0  0  0  0  0  0
   -3.1963   -9.4518    6.3679 C   0  0  2  0  0  0  0  0  0  0  0  0
   -5.3388  -11.0018    5.9889 C   0  0  0  0  0  0  0  0  0  0  0  0
   -4.1466  -13.2393    4.4777 C   0  0  0  0  0  0  0  0  0  0  0  0
   -2.9994  -13.3763    3.4760 C   0  0  2  0  0  0  0  0  0  0  0  0
   -1.6808  -13.0336    4.0707 C   0  0  1  0  0  0  0  0  0  0  0  0
   -2.0504  -12.1562    5.1079 C   0  0  0  0  0  0  0  0  0  0  0  0
   -4.1354  -14.2721    5.1875 O   0  0  0  0  0  0  0  0  0  0  0  0
   -3.6329  -13.3720    2.2019 N   0  0  0  0  0  0  0  0  0  0  0  0
   -1.1883  -14.1984    4.6118 O   0  0  0  0  0  0  0  0  0  0  0  0
   -3.6340  -12.5536    6.6374 C   0  0  0  0  0  0  0  0  0  0  0  0
   -3.2036  -13.8826    6.9687 N   0  0  0  0  0  0  0  0  0  0  0  0
   -3.5301  -14.4498    1.3762 C   0  0  0  0  0  0  0  0  0  0  0  0
   -3.8150  -15.4388    1.9988 O   0  0  0  0  0  0  0  0  0  0  0  0
   -4.0703  -14.5103    0.0010 C   0  0  2  0  0  0  0  0  0  0  0  0
   -3.6092  -13.3282   -0.5855 C   0  0  1  0  0  0  0  0  0  0  0  0
   -5.0579  -15.4716   -0.1187 N   0  0  0  0  0  0  0  0  0  0  0  0
   -4.6316  -16.5904   -0.7174 C   0  0  0  0  0  0  0  0  0  0  0  0
   -3.5097  -17.0471   -1.0127 O   0  0  0  0  0  0  0  0  0  0  0  0
   -1.9126  -12.9554   -0.4464 C   0  0  2  0  0  0  0  0  0  0  0  0
   -2.1027  -11.2941   -1.2282 C   0  0  0  0  0  0  0  0  0  0  0  0
   -1.2540  -13.6995   -1.4050 O   0  0  0  0  0  0  0  0  0  0  0  0
   -3.2219  -13.1603   -1.8876 O   0  0  0  0  0  0  0  0  0  0  0  0
   -2.5341   -9.9353   -0.2856 C   0  0  0  0  0  0  0  0  0  0  0  0
   -1.3244  -11.0356   -2.2421 C   0  0  0  0  0  0  0  0  0  0  0  0
   -1.1509   -9.6995   -2.5514 C   0  0  0  0  0  0  0  0  0  0  0  0
   -1.5988   -8.6259   -1.7868 C   0  0  0  0  0  0  0  0  0  0  0  0
   -2.3058   -8.7884   -0.7158 C   0  0  0  0  0  0  0  0  0  0  0  0
   -1.4637   -7.3298   -2.0179 O   0  0  0  0  0  0  0  0  0  0  0  0
   -2.1264   -9.4611    5.5563 O   0  0  0  0  0  0  0  0  0  0  0  0
   -0.7841  -12.8955   11.9771 C   0  0  0  0  0  0  0  0  0  0  0  0
   -1.1289  -13.2888   13.3266 C   0  0  0  0  0  0  0  0  0  0  0  0
   -1.1762  -14.7339   13.4428 N   0  0  0  0  0  0  0  0  0  0  0  0
    0.3681  -14.4664    8.3289 N   0  0  0  0  0  0  0  0  0  0  0  0
    0.2145  -13.4899    7.4062 C   0  0  0  0  0  0  0  0  0  0  0  0
   -0.8446  -13.6297    6.5912 C   0  0  0  0  0  0  0  0  0  0  0  0
    0.4449  -12.2024    7.4083 O   0  0  0  0  0  0  0  0  0  0  0  0
   -1.2576  -10.6150    6.9847 C   0  0  0  0  0  0  0  0  0  0  0  0
   -1.3460  -10.5112    1.5138 C   0  0  0  0  0  0  0  0  0  0  0  0
   -1.8570  -12.6659    6.8218 C   0  0  0  0  0  0  0  0  0  0  0  0
   -0.6613  -10.5593    0.2135 C   0  0  0  0  0  0  0  0  0  0  0  0
   -2.4102  -10.8046    3.7336 C   0  0  0  0  0  0  0  0  0  0  0  0
   -3.9468   -9.8459    1.9705 C   0  0  0  0  0  0  0  0  0  0  0  0
   -0.7534  -10.5881    5.0910 C   0  0  0  0  0  0  0  0  0  0  0  0
   -3.1145  -11.0771    1.6982 C   0  0  1  0  0  0  0  0  0  0  0  0
   -3.1070   -8.3431    4.4349 C   0  0  0  0  0  0  0  0  0  0  0  0
   -2.4937   -8.1951    3.1900 C   0  0  0  0  0  0  0  0  0  0  0  0
   -3.5643   -9.7816    4.2758 C   0  0  0  0  0  0  0  0  0  0  0  0
   -3.6086   -8.4178    2.2467 C   0  0  1  0  0  0  0  0  0  0  0  0
   -3.7089  -11.3912    0.3599 C   0  0  0  0  0  0  0  0  0  0  0  0
   -3.2808   -7.7591    1.0761 C   0  0  0  0  0  0  0  0  0  0  0  0
   -4.7613  -18.4022   -3.6926 O   0  0  0  0  0  0  0  0  0  0  0  0
   -3.2069  -15.6461    7.2538 O   0  0  0  0  0  0  0  0  0  0  0  0
   -6.1874  -17.5835    0.1280 H   0  0  0  0  0  0  0  0  0  0  0  0
    2.1882  -14.7888    9.1645 H   0  0  0  0  0  0  0  0  0  0  0  0
   -7.0568  -17.6998   -2.3594 H   0  0  0  0  0  0  0  0  0  0  0  0
   -6.9011  -17.3909   -2.4701 H   0  0  0  0  0  0  0  0  0  0  0  0
   -4.0465  -19.0974   -0.4501 H   0  0  0  0  0  0  0  0  0  0  0  0
   -4.5339  -19.1678   -0.3287 H   0  0  0  0  0  0  0  0  0  0  0  0
   -5.2700  -18.5900   -3.2513 H   0  0  0  0  0  0  0  0  0  0  0  0
   -2.6382  -15.9743   12.2954 H   0  0  0  0  0  0  0  0  0  0  0  0
   -4.0832  -15.3292   11.6005 H   0  0  0  0  0  0  0  0  0  0  0  0
   -2.6878  -15.8952   10.6074 H   0  0  0  0  0  0  0  0  0  0  0  0
   -3.3434  -13.3576   10.5538 H   0  0  0  0  0  0  0  0  0  0  0  0
   -0.9565  -14.8653    9.4934 H   0  0  0  0  0  0  0  0  0  0  0  0
   -2.6699  -13.9357   13.3192 H   0  0  0  0  0  0  0  0  0  0  0  0
   -0.0934  -15.0030   11.8580 H   0  0  0  0  0  0  0  0  0  0  0  0
    1.8664  -11.9730    9.6712 H   0  0  0  0  0  0  0  0  0  0  0  0
    1.3525  -12.6599    8.5501 H   0  0  0  0  0  0  0  0  0  0  0  0
    0.1787  -11.7513   10.9519 H   0  0  0  0  0  0  0  0  0  0  0  0
   -1.8349  -13.6726    8.9244 H   0  0  0  0  0  0  0  0  0  0  0  0
   -1.4160  -14.3360   10.7698 H   0  0  0  0  0  0  0  0  0  0  0  0
   -0.7749  -12.3290    7.7549 H   0  0  0  0  0  0  0  0  0  0  0  0
   -2.1602  -11.7566   11.1089 H   0  0  0  0  0  0  0  0  0  0  0  0
   -2.2914  -11.2740    6.2212 H   0  0  0  0  0  0  0  0  0  0  0  0
   -4.9293   -8.5210    6.4431 H   0  0  0  0  0  0  0  0  0  0  0  0
   -5.2641   -9.2904    5.2494 H   0  0  0  0  0  0  0  0  0  0  0  0
   -2.5247   -8.8387    6.8105 H   0  0  0  0  0  0  0  0  0  0  0  0
   -6.0320  -10.8600    6.7345 H   0  0  0  0  0  0  0  0  0  0  0  0
   -5.8699  -11.7209    5.4352 H   0  0  0  0  0  0  0  0  0  0  0  0
   -2.3661  -14.0538    3.0529 H   0  0  0  0  0  0  0  0  0  0  0  0
   -0.9650  -12.4378    3.5705 H   0  0  0  0  0  0  0  0  0  0  0  0
   -0.9098  -11.8478    5.9807 H   0  0  0  0  0  0  0  0  0  0  0  0
   -2.6261  -11.2673    5.0284 H   0  0  0  0  0  0  0  0  0  0  0  0
   -4.2121  -12.5643    1.9472 H   0  0  0  0  0  0  0  0  0  0  0  0
   -1.7949  -14.3787    5.3197 H   0  0  0  0  0  0  0  0  0  0  0  0
   -3.9309  -11.6725    7.2770 H   0  0  0  0  0  0  0  0  0  0  0  0
   -4.3524  -12.9124    6.1668 H   0  0  0  0  0  0  0  0  0  0  0  0
   -3.3976  -14.0287    7.8471 H   0  0  0  0  0  0  0  0  0  0  0  0
   -2.5984  -14.2624    6.3229 H   0  0  0  0  0  0  0  0  0  0  0  0
   -4.1922  -14.7226   -1.0394 H   0  0  0  0  0  0  0  0  0  0  0  0
   -4.4896  -12.6857   -0.5970 H   0  0  0  0  0  0  0  0  0  0  0  0
   -5.7851  -15.6313    0.5588 H   0  0  0  0  0  0  0  0  0  0  0  0
   -1.6467  -12.9376    0.6002 H   0  0  0  0  0  0  0  0  0  0  0  0
   -1.5500  -13.3948   -2.3625 H   0  0  0  0  0  0  0  0  0  0  0  0
   -2.5386  -13.8437   -1.7157 H   0  0  0  0  0  0  0  0  0  0  0  0
   -2.7097  -10.0521    0.6797 H   0  0  0  0  0  0  0  0  0  0  0  0
   -0.9664  -11.8579   -2.7276 H   0  0  0  0  0  0  0  0  0  0  0  0
   -0.6685   -9.4979   -3.4562 H   0  0  0  0  0  0  0  0  0  0  0  0
   -2.4210   -7.9061   -0.3116 H   0  0  0  0  0  0  0  0  0  0  0  0
   -1.0898   -7.1506   -2.8768 H   0  0  0  0  0  0  0  0  0  0  0  0
   -2.0220   -9.9909    4.8295 H   0  0  0  0  0  0  0  0  0  0  0  0
    0.2155  -13.1953   11.7746 H   0  0  0  0  0  0  0  0  0  0  0  0
   -0.8413  -11.8240   12.1198 H   0  0  0  0  0  0  0  0  0  0  0  0
   -0.5130  -12.8664   14.0236 H   0  0  0  0  0  0  0  0  0  0  0  0
   -2.1211  -12.7086   13.7570 H   0  0  0  0  0  0  0  0  0  0  0  0
   -1.5452  -15.0476   14.3238 H   0  0  0  0  0  0  0  0  0  0  0  0
   -1.7872  -15.0552   12.7502 H   0  0  0  0  0  0  0  0  0  0  0  0
   -0.1802  -15.3155    8.2918 H   0  0  0  0  0  0  0  0  0  0  0  0
   -0.5986  -13.1442    5.7185 H   0  0  0  0  0  0  0  0  0  0  0  0
   -1.2715  -14.5842    6.6925 H   0  0  0  0  0  0  0  0  0  0  0  0
   -2.2195  -10.1553    7.4504 H   0  0  0  0  0  0  0  0  0  0  0  0
   -0.7436  -10.8186    7.7286 H   0  0  0  0  0  0  0  0  0  0  0  0
   -1.3960   -9.4992    1.7930 H   0  0  0  0  0  0  0  0  0  0  0  0
   -0.8442  -11.1822    2.0724 H   0  0  0  0  0  0  0  0  0  0  0  0
   -2.7574  -13.1509    5.6797 H   0  0  0  0  0  0  0  0  0  0  0  0
   -2.8104  -12.8692    8.0108 H   0  0  0  0  0  0  0  0  0  0  0  0
   -0.9892   -9.9851   -0.6494 H   0  0  0  0  0  0  0  0  0  0  0  0
    0.1585  -10.0848   -0.0307 H   0  0  0  0  0  0  0  0  0  0  0  0
   -0.7462  -11.5246   -0.1472 H   0  0  0  0  0  0  0  0  0  0  0  0
   -1.8009  -10.6102    3.1168 H   0  0  0  0  0  0  0  0  0  0  0  0
   -3.0870  -11.7490    3.8938 H   0  0  0  0  0  0  0  0  0  0  0  0
   -4.4264   -9.9846    2.7822 H   0  0  0  0  0  0  0  0  0  0  0  0
   -4.7339   -9.7771    1.2911 H   0  0  0  0  0  0  0  0  0  0  0  0
   -0.5429   -9.6096    5.2992 H   0  0  0  0  0  0  0  0  0  0  0  0
   -0.2126  -11.4154    4.9157 H   0  0  0  0  0  0  0  0  0  0  0  0
   -2.9250  -11.8518    2.2662 H   0  0  0  0  0  0  0  0  0  0  0  0
   -3.8666   -7.7790    4.8158 H   0  0  0  0  0  0  0  0  0  0  0  0
   -2.2822   -8.0153    5.2250 H   0  0  0  0  0  0  0  0  0  0  0  0
   -2.0876   -7.2253    3.1655 H   0  0  0  0  0  0  0  0  0  0  0  0
   -1.6739   -8.8718    3.0805 H   0  0  0  0  0  0  0  0  0  0  0  0
   -4.4899  -10.1045    4.0722 H   0  0  0  0  0  0  0  0  0  0  0  0
   -3.9054  -10.1813    5.1178 H   0  0  0  0  0  0  0  0  0  0  0  0
   -4.4903   -7.9040    2.5566 H   0  0  0  0  0  0  0  0  0  0  0  0
   -2.9947  -11.9596    0.0631 H   0  0  0  0  0  0  0  0  0  0  0  0
   -4.6211  -11.6685    0.4034 H   0  0  0  0  0  0  0  0  0  0  0  0
   -3.8205  -10.7599   -0.6391 H   0  0  0  0  0  0  0  0  0  0  0  0
   -3.9921   -7.9402    0.1880 H   0  0  0  0  0  0  0  0  0  0  0  0
   -2.9477   -6.7503    1.0100 H   0  0  0  0  0  0  0  0  0  0  0  0
   -2.1967   -8.3443    1.0610 H   0  0  0  0  0  0  0  0  0  0  0  0
   -4.2016  -19.1526   -4.2334 H   0  0  0  0  0  0  0  0  0  0  0  0
  1 42  1  0  0  0  0
  1 78  1  6  0  0  0
  2  1  1  0  0  0  0
  3  1  1  0  0  0  0
  3 80  1  0  0  0  0
  3 81  1  0  0  0  0
  4  2  1  0  0  0  0
  4 82  1  0  0  0  0
  4 83  1  0  0  0  0
  5  3  1  0  0  0  0
  5  4  1  0  0  0  0
  5 76  1  0  0  0  0
  5 84  1  1  0  0  0
  6 85  1  0  0  0  0
  6 86  1  0  0  0  0
  6 87  1  0  0  0  0
  7  6  1  0  0  0  0
  7 11  1  0  0  0  0
  7 88  1  6  0  0  0
  8  9  1  0  0  0  0
  8 13  1  0  0  0  0
  8  7  1  0  0  0  0
  8 89  1  1  0  0  0
  9  2  1  0  0  0  0
  9 77  2  0  0  0  0
 11 90  1  0  0  0  0
 12 10  2  0  0  0  0
 13 12  1  0  0  0  0
 13 91  1  0  0  0  0
 14 16  1  0  0  0  0
 14 92  1  0  0  0  0
 14 93  1  0  0  0  0
 15 12  1  0  0  0  0
 15 14  1  0  0  0  0
 15 79  1  6  0  0  0
 15 58  1  0  0  0  0
 16 17  1  0  0  0  0
 16 94  1  1  0  0  0
 16 20  1  0  0  0  0
 17 19  1  0  0  0  0
 17 18  1  0  0  0  0
 17 95  1  6  0  0  0
 18 55  1  0  0  0  0
 18 96  1  0  0  0  0
 19 21  1  0  0  0  0
 19 97  1  0  0  0  0
 20 98  1  0  0  0  0
 21 23  2  0  0  0  0
 22 21  1  0  0  0  0
 22 26  1  0  0  0  0
 22 99  1  6  0  0  0
 24 27  1  0  0  0  0
 24 22  1  0  0  0  0
 24 28  1  0  0  0  0
 25100  1  0  0  0  0
 25101  1  0  0  0  0
 26 25  1  0  0  0  0
 26102  1  1  0  0  0
 26 54  1  0  0  0  0
 27 25  1  0  0  0  0
 27103  1  0  0  0  0
 27104  1  0  0  0  0
 28 32  2  0  0  0  0
 29 28  1  0  0  0  0
 29 33  1  0  0  0  0
 29105  1  1  0  0  0
 30 34  1  0  0  0  0
 30106  1  6  0  0  0
 30 29  1  0  0  0  0
 31 30  1  0  0  0  0
 31 35  1  0  0  0  0
 31107  1  0  0  0  0
 31108  1  0  0  0  0
 33 37  1  0  0  0  0
 33109  1  0  0  0  0
 34110  1  0  0  0  0
 35 36  1  0  0  0  0
 35111  1  0  0  0  0
 35112  1  0  0  0  0
 36113  1  0  0  0  0
 36114  1  0  0  0  0
 37 38  2  0  0  0  0
 39 37  1  0  0  0  0
 39 40  1  0  0  0  0
 39115  1  6  0  0  0
 40 47  1  0  0  0  0
 40116  1  1  0  0  0
 41 42  1  0  0  0  0
 41 39  1  0  0  0  0
 41117  1  0  0  0  0
 42 43  2  0  0  0  0
 44 46  1  0  0  0  0
 44118  1  1  0  0  0
 44 45  1  0  0  0  0
 44 40  1  0  0  0  0
 45 48  2  0  0  0  0
 45 49  1  0  0  0  0
 46119  1  0  0  0  0
 47120  1  0  0  0  0
 48 52  1  0  0  0  0
 48121  1  0  0  0  0
 49 50  2  0  0  0  0
 49122  1  0  0  0  0
 50 51  1  0  0  0  0
 50123  1  0  0  0  0
 51 52  2  0  0  0  0
 51 53  1  0  0  0  0
 52124  1  0  0  0  0
 53125  1  0  0  0  0
 54126  1  0  0  0  0
 55 56  1  0  0  0  0
 55127  1  0  0  0  0
 55128  1  0  0  0  0
 56 57  1  0  0  0  0
 56129  1  0  0  0  0
 56130  1  0  0  0  0
 57131  1  0  0  0  0
 57132  1  0  0  0  0
 58 59  1  0  0  0  0
 58133  1  0  0  0  0
 59 60  1  0  0  0  0
 59 61  2  0  0  0  0
 60 64  1  0  0  0  0
 60134  1  0  0  0  0
 60135  1  0  0  0  0
 62 68  1  0  0  0  0
 62136  1  0  0  0  0
 62137  1  0  0  0  0
 63138  1  0  0  0  0
 63139  1  0  0  0  0
 64 62  1  0  0  0  0
 64140  1  0  0  0  0
 64141  1  0  0  0  0
 65 63  1  0  0  0  0
 65142  1  0  0  0  0
 65143  1  0  0  0  0
 65144  1  0  0  0  0
 66 72  1  0  0  0  0
 66145  1  0  0  0  0
 66146  1  0  0  0  0
 67147  1  0  0  0  0
 67148  1  0  0  0  0
 68 66  1  0  0  0  0
 68149  1  0  0  0  0
 68150  1  0  0  0  0
 69 74  1  0  0  0  0
 69151  1  1  0  0  0
 69 63  1  0  0  0  0
 69 67  1  0  0  0  0
 70152  1  0  0  0  0
 70153  1  0  0  0  0
 71 70  1  0  0  0  0
 71154  1  0  0  0  0
 71155  1  0  0  0  0
 72 70  1  0  0  0  0
 72156  1  0  0  0  0
 72157  1  0  0  0  0
 73 75  1  0  0  0  0
 73158  1  1  0  0  0
 73 67  1  0  0  0  0
 73 71  1  0  0  0  0
 74159  1  0  0  0  0
 74160  1  0  0  0  0
 74161  1  0  0  0  0
 75162  1  0  0  0  0
 75163  1  0  0  0  0
 75164  1  0  0  0  0
 76165  1  0  0  0  0
M  END
>  <DRUGBANK_ID>
DB00520

>  <SECONDARY_ACCESSION_NUMBERS>
APRD00199

>  <COMMON_NAME>
Caspofungin

>  <CAS_NUMBER>
162808-62-0

>  <UNII>
F0XDI6ZL63

>  <SYNONYMS>
(4R,5S)-5-((2-Aminoethyl)amino)-N(sup 2)-(10,12-dimethyltetradecanoyl)-4-hydroxy-L-ornithyl-L-threonyl-trans-4-hydroxy-L-prolyl-(S)-4-hydroxy-4-(p-hydroxyphenyl)-L-threonyl-threo-3-hydroxy-L-ornithyl-trans-3-hydroxy-L-proline cyclic (6-1)-peptide; Caspofungin; Caspofungina

$$$$
