
 OpenBabel10282417203D

 52 53  0  0  1  0  0  0  0  0999 V2000
    1.0612   -0.0304   -0.0625 C   0  0  0  0  0  0  0  0  0  0  0  0
    0.6025    0.1407    1.3602 C   0  0  0  0  0  0  0  0  0  0  0  0
    1.1517    1.4344    1.9014 C   0  0  0  0  0  0  0  0  0  0  0  0
    0.5928    2.7250    1.3244 C   0  0  0  0  0  0  0  0  0  0  0  0
   -0.9527    2.7488    1.0292 C   0  0  0  0  0  0  0  0  0  0  0  0
   -1.8130    3.0040    2.2375 C   0  0  0  0  0  0  0  0  0  0  0  0
   -1.7152    4.4927    2.5345 C   0  0  0  0  0  0  0  0  0  0  0  0
    1.2266    3.9077    2.1424 C   0  0  0  0  0  0  0  0  0  0  0  0
    1.7398    4.8401    1.5016 O   0  0  0  0  0  0  0  0  0  0  0  0
    1.0526    4.0740    3.5739 N   0  0  0  0  0  0  0  0  0  0  0  0
    0.2481    3.3778    4.5283 C   0  0  0  0  0  0  0  0  0  0  0  0
   -0.9211    4.0529    5.1899 C   0  0  0  0  0  0  0  0  0  0  0  0
   -1.9818    3.2298    5.3518 C   0  0  0  0  0  0  0  0  0  0  0  0
   -1.8224    1.8553    5.3513 N   0  0  0  0  0  0  0  0  0  0  0  0
   -0.5599    1.3197    5.1336 C   0  0  0  0  0  0  0  0  0  0  0  0
   -0.3521    0.1022    5.2247 O   0  0  0  0  0  0  0  0  0  0  0  0
    0.4444    2.1195    4.6840 N   0  0  0  0  0  0  0  0  0  0  0  0
   -2.9023    0.9621    5.8005 C   0  0  1  0  0  0  0  0  0  0  0  0
   -3.2187   -0.2861    4.9461 C   0  0  0  0  0  0  0  0  0  0  0  0
   -2.5887   -1.4454    5.6988 C   0  0  1  0  0  0  0  0  0  0  0  0
   -2.6068   -0.9347    7.1382 C   0  0  2  0  0  0  0  0  0  0  0  0
   -2.5414    0.5037    7.1210 O   0  0  0  0  0  0  0  0  0  0  0  0
   -1.4694   -1.5460    7.9715 C   0  0  0  0  0  0  0  0  0  0  0  0
   -0.3272   -0.7003    8.0663 O   0  0  0  0  0  0  0  0  0  0  0  0
   -3.2575   -2.7075    5.5792 O   0  0  0  0  0  0  0  0  0  0  0  0
   -4.5710   -0.4753    4.8954 F   0  0  0  0  0  0  0  0  0  0  0  0
   -2.7972   -0.1833    3.6704 F   0  0  0  0  0  0  0  0  0  0  0  0
    0.6848    0.7782   -0.6958 H   0  0  0  0  0  0  0  0  0  0  0  0
    0.7039   -0.9785   -0.4610 H   0  0  0  0  0  0  0  0  0  0  0  0
    2.1550   -0.0071   -0.0970 H   0  0  0  0  0  0  0  0  0  0  0  0
   -0.4888    0.1090    1.4460 H   0  0  0  0  0  0  0  0  0  0  0  0
    0.9697   -0.6764    1.9917 H   0  0  0  0  0  0  0  0  0  0  0  0
    0.9248    1.3720    2.9341 H   0  0  0  0  0  0  0  0  0  0  0  0
    2.2487    1.4620    1.8711 H   0  0  0  0  0  0  0  0  0  0  0  0
    1.0219    2.7982    0.3087 H   0  0  0  0  0  0  0  0  0  0  0  0
   -1.1947    3.5274    0.2964 H   0  0  0  0  0  0  0  0  0  0  0  0
   -1.2905    1.8142    0.5684 H   0  0  0  0  0  0  0  0  0  0  0  0
   -2.8678    2.7309    2.1471 H   0  0  0  0  0  0  0  0  0  0  0  0
   -1.4301    2.3003    2.9721 H   0  0  0  0  0  0  0  0  0  0  0  0
   -1.9238    5.1685    1.7143 H   0  0  0  0  0  0  0  0  0  0  0  0
   -2.2581    4.8264    3.4105 H   0  0  0  0  0  0  0  0  0  0  0  0
   -0.6975    4.7502    2.7083 H   0  0  0  0  0  0  0  0  0  0  0  0
    1.1512    5.0745    3.7210 H   0  0  0  0  0  0  0  0  0  0  0  0
   -1.0360    5.1281    5.2258 H   0  0  0  0  0  0  0  0  0  0  0  0
   -3.0098    3.5974    5.4084 H   0  0  0  0  0  0  0  0  0  0  0  0
   -3.8306    1.5349    5.9368 H   0  0  0  0  0  0  0  0  0  0  0  0
   -1.5760   -1.6382    5.3509 H   0  0  0  0  0  0  0  0  0  0  0  0
   -3.5616   -1.2021    7.6065 H   0  0  0  0  0  0  0  0  0  0  0  0
   -1.8203   -1.7335    8.9909 H   0  0  0  0  0  0  0  0  0  0  0  0
   -1.1493   -2.5103    7.5623 H   0  0  0  0  0  0  0  0  0  0  0  0
   -0.0755   -0.4365    7.1597 H   0  0  0  0  0  0  0  0  0  0  0  0
   -4.2138   -2.5658    5.6916 H   0  0  0  0  0  0  0  0  0  0  0  0
  1  2  1  0  0  0  0
  1 28  1  0  0  0  0
  1 29  1  0  0  0  0
  1 30  1  0  0  0  0
  2  3  1  0  0  0  0
  2 31  1  0  0  0  0
  2 32  1  0  0  0  0
  3  4  1  0  0  0  0
  3 33  1  0  0  0  0
  3 34  1  0  0  0  0
  4  5  1  0  0  0  0
  4  8  1  0  0  0  0
  4 35  1  0  0  0  0
  5  6  1  0  0  0  0
  5 36  1  0  0  0  0
  5 37  1  0  0  0  0
  6  7  1  0  0  0  0
  6 38  1  0  0  0  0
  6 39  1  0  0  0  0
  7 40  1  0  0  0  0
  7 41  1  0  0  0  0
  7 42  1  0  0  0  0
  8  9  2  0  0  0  0
  8 10  1  0  0  0  0
 10 11  1  0  0  0  0
 10 43  1  0  0  0  0
 11 12  1  0  0  0  0
 11 17  2  0  0  0  0
 12 13  2  0  0  0  0
 12 44  1  0  0  0  0
 13 14  1  0  0  0  0
 13 45  1  0  0  0  0
 14 15  1  0  0  0  0
 15 16  2  0  0  0  0
 15 17  1  0  0  0  0
 18 14  1  0  0  0  0
 18 19  1  0  0  0  0
 18 22  1  0  0  0  0
 18 46  1  1  0  0  0
 19 20  1  0  0  0  0
 19 26  1  0  0  0  0
 19 27  1  0  0  0  0
 20 21  1  0  0  0  0
 20 25  1  0  0  0  0
 20 47  1  6  0  0  0
 21 22  1  0  0  0  0
 21 48  1  1  0  0  0
 21 23  1  0  0  0  0
 23 24  1  0  0  0  0
 23 49  1  0  0  0  0
 23 50  1  0  0  0  0
 24 51  1  0  0  0  0
 25 52  1  0  0  0  0
M  END
>  <DRUGBANK_ID>
DB12906

>  <COMMON_NAME>
LY-2334737

>  <CAS_NUMBER>
892128-60-8

>  <UNII>
YLR364XYSA

$$$$
