
 OpenBabel10282417183D

 17 16  0  0  1  0  0  0  0  0999 V2000
    1.4652    2.0585   -1.7433 C   0  0  0  0  0  0  0  0  0  0  0  0
    0.5309    2.6908   -0.7083 C   0  0  1  0  0  0  0  0  0  0  0  0
    0.9465    2.3205    0.7284 C   0  0  2  0  0  0  0  0  0  0  0  0
    0.2310    1.0281    1.0712 C   0  0  0  0  0  0  0  0  0  0  0  0
    0.6599   -0.1094    0.9484 O   0  0  0  0  0  0  0  0  0  0  0  0
   -1.0513    1.2844    1.4306 O   0  0  0  0  0  0  0  0  0  0  0  0
    0.5343    3.3236    1.6630 O   0  0  0  0  0  0  0  0  0  0  0  0
    0.5099    4.1120   -0.8896 O   0  0  0  0  0  0  0  0  0  0  0  0
    2.7939    2.5596   -1.5916 O   0  0  0  0  0  0  0  0  0  0  0  0
    1.1416    2.3323   -2.7526 H   0  0  0  0  0  0  0  0  0  0  0  0
    1.4761    0.9663   -1.6674 H   0  0  0  0  0  0  0  0  0  0  0  0
   -0.4922    2.3506   -0.9121 H   0  0  0  0  0  0  0  0  0  0  0  0
    2.0246    2.2015    0.8646 H   0  0  0  0  0  0  0  0  0  0  0  0
   -1.5034    0.4243    1.5406 H   0  0  0  0  0  0  0  0  0  0  0  0
   -0.4429    3.3072    1.6279 H   0  0  0  0  0  0  0  0  0  0  0  0
    1.4145    4.4273   -0.7069 H   0  0  0  0  0  0  0  0  0  0  0  0
    3.1700    2.2248   -0.7604 H   0  0  0  0  0  0  0  0  0  0  0  0
  1  2  1  0  0  0  0
  1  9  1  0  0  0  0
  1 10  1  0  0  0  0
  1 11  1  0  0  0  0
  2  8  1  0  0  0  0
  2 12  1  6  0  0  0
  3  7  1  0  0  0  0
  3 13  1  1  0  0  0
  3  4  1  0  0  0  0
  3  2  1  0  0  0  0
  4  5  2  0  0  0  0
  4  6  1  0  0  0  0
  6 14  1  0  0  0  0
  7 15  1  0  0  0  0
  8 16  1  0  0  0  0
  9 17  1  0  0  0  0
M  END
>  <DRUGBANK_ID>
DB11192

>  <COMMON_NAME>
L-threonic acid

>  <CAS_NUMBER>
7306-96-9

>  <UNII>
75B0PMW2JF

>  <SYNONYMS>
(2R,3S)-2,3,4-trihydroxy-butanoic acid; L-threonate; L-threonic acid; Threonate

$$$$
