
 OpenBabel10282417123D

 22 21  0  0  1  0  0  0  0  0999 V2000
    0.7601   -5.5169    0.8654 C   0  0  0  0  0  0  0  0  0  0  0  0
    2.5682   -5.4016    0.6362 S   0  0  0  0  0  0  0  0  0  0  0  0
    2.9930   -3.5985    0.6734 C   0  0  0  0  0  0  0  0  0  0  0  0
    2.4686   -2.6915   -0.4332 C   0  0  0  0  0  0  0  0  0  0  0  0
    0.9538   -2.7596   -0.6636 C   0  0  2  0  0  0  0  0  0  0  0  0
    0.1433   -2.6648    0.5632 N   0  0  0  0  0  0  0  0  0  0  0  0
    0.3438   -3.8215   -2.0235 P   0  0  0  0  0  0  0  0  0  0  0  0
    0.5501   -2.4961   -2.9830 O   0  0  0  0  0  0  0  0  0  0  0  0
    1.8468   -4.4647   -2.2018 O   0  0  0  0  0  0  0  0  0  0  0  0
   -0.1723   -4.7200   -3.1740 O   0  0  0  0  0  0  0  0  0  0  0  0
    0.4766   -6.5707    0.9158 H   0  0  0  0  0  0  0  0  0  0  0  0
    0.2114   -5.1504    0.0022 H   0  0  0  0  0  0  0  0  0  0  0  0
    0.4005   -5.0241    1.7712 H   0  0  0  0  0  0  0  0  0  0  0  0
    2.7537   -3.1699    1.6514 H   0  0  0  0  0  0  0  0  0  0  0  0
    4.0884   -3.5631    0.6049 H   0  0  0  0  0  0  0  0  0  0  0  0
    2.7515   -1.6526   -0.2091 H   0  0  0  0  0  0  0  0  0  0  0  0
    3.0247   -2.8790   -1.3621 H   0  0  0  0  0  0  0  0  0  0  0  0
    0.7361   -1.7513   -1.0430 H   0  0  0  0  0  0  0  0  0  0  0  0
   -0.7410   -3.1385    0.5612 H   0  0  0  0  0  0  0  0  0  0  0  0
    0.6800   -2.8729    1.4116 H   0  0  0  0  0  0  0  0  0  0  0  0
   -0.2091   -2.3711   -3.5784 H   0  0  0  0  0  0  0  0  0  0  0  0
    2.1327   -5.0710   -1.4864 H   0  0  0  0  0  0  0  0  0  0  0  0
  1  2  1  0  0  0  0
  1 11  1  0  0  0  0
  1 12  1  0  0  0  0
  1 13  1  0  0  0  0
  2  3  1  0  0  0  0
  3  4  1  0  0  0  0
  3 14  1  0  0  0  0
  3 15  1  0  0  0  0
  4 16  1  0  0  0  0
  4 17  1  0  0  0  0
  5  7  1  0  0  0  0
  5 18  1  6  0  0  0
  5  6  1  0  0  0  0
  5  4  1  0  0  0  0
  6 19  1  0  0  0  0
  6 20  1  0  0  0  0
  7  8  1  0  0  0  0
  7  9  1  0  0  0  0
  7 10  2  0  0  0  0
  8 21  1  0  0  0  0
  9 22  1  0  0  0  0
M  END
>  <DRUGBANK_ID>
DB02151

>  <SECONDARY_ACCESSION_NUMBERS>
EXPT02221

>  <COMMON_NAME>
Methionine Phosphonate

$$$$
