
 OpenBabel10282417233D

 44 48  0  0  0  0  0  0  0  0999 V2000
    1.1247    0.0428   -0.0191 C   0  0  0  0  0  0  0  0  0  0  0  0
    0.7318   -0.2371    1.3275 O   0  0  0  0  0  0  0  0  0  0  0  0
    0.9765   -1.5215    1.7301 C   0  0  0  0  0  0  0  0  0  0  0  0
    2.2821   -1.9892    1.6829 C   0  0  0  0  0  0  0  0  0  0  0  0
    2.5822   -3.2772    2.1111 C   0  0  0  0  0  0  0  0  0  0  0  0
    1.6076   -4.1645    2.6100 C   0  0  0  0  0  0  0  0  0  0  0  0
    0.2867   -3.6793    2.7115 C   0  0  0  0  0  0  0  0  0  0  0  0
   -0.6471   -4.5660    3.2562 C   0  0  0  0  0  0  0  0  0  0  0  0
   -0.3796   -5.8788    3.5264 N   0  3  0  0  0  0  0  0  0  0  0  0
   -1.3467   -6.5801    4.4064 C   0  0  0  0  0  0  0  0  0  0  0  0
    0.8492   -6.4490    3.2304 C   0  0  0  0  0  0  0  0  0  0  0  0
    1.8933   -5.5194    2.9599 C   0  0  0  0  0  0  0  0  0  0  0  0
    3.2177   -6.0092    3.0185 C   0  0  0  0  0  0  0  0  0  0  0  0
    3.4873   -7.3171    3.3851 C   0  0  0  0  0  0  0  0  0  0  0  0
    2.4629   -8.2133    3.6267 C   0  0  0  0  0  0  0  0  0  0  0  0
    2.7027   -9.4461    4.2530 C   0  0  0  0  0  0  0  0  0  0  0  0
    1.6982  -10.4056    4.4014 C   0  0  0  0  0  0  0  0  0  0  0  0
    0.9864  -10.4512    3.2589 C   0  0  0  0  0  0  0  0  0  0  0  0
    1.9746  -11.3054    2.5017 O   0  0  0  0  0  0  0  0  0  0  0  0
    2.6308  -12.0765    3.6167 C   0  0  0  0  0  0  0  0  0  0  0  0
    1.9670  -11.6995    4.8120 O   0  0  0  0  0  0  0  0  0  0  0  0
    0.4867   -9.1646    2.8833 C   0  0  0  0  0  0  0  0  0  0  0  0
    1.1576   -7.9068    3.2508 C   0  0  0  0  0  0  0  0  0  0  0  0
   -0.0270   -2.3371    2.2847 C   0  0  0  0  0  0  0  0  0  0  0  0
   -1.3541   -1.9742    2.4343 O   0  0  0  0  0  0  0  0  0  0  0  0
   -1.7433   -0.6631    2.0085 C   0  0  0  0  0  0  0  0  0  0  0  0
    0.7166    1.0237   -0.2829 H   0  0  0  0  0  0  0  0  0  0  0  0
    0.7125   -0.6926   -0.7194 H   0  0  0  0  0  0  0  0  0  0  0  0
    2.2124    0.1023   -0.1131 H   0  0  0  0  0  0  0  0  0  0  0  0
    3.0866   -1.3554    1.3204 H   0  0  0  0  0  0  0  0  0  0  0  0
    3.6223   -3.5780    1.9942 H   0  0  0  0  0  0  0  0  0  0  0  0
   -1.6533   -4.2112    3.4919 H   0  0  0  0  0  0  0  0  0  0  0  0
   -1.7150   -7.4664    3.8981 H   0  0  0  0  0  0  0  0  0  0  0  0
   -0.8443   -6.8166    5.3511 H   0  0  0  0  0  0  0  0  0  0  0  0
   -2.1925   -5.9201    4.6400 H   0  0  0  0  0  0  0  0  0  0  0  0
    4.0770   -5.3636    2.8712 H   0  0  0  0  0  0  0  0  0  0  0  0
    4.5292   -7.6372    3.4730 H   0  0  0  0  0  0  0  0  0  0  0  0
    3.7436   -9.7634    4.3434 H   0  0  0  0  0  0  0  0  0  0  0  0
    3.6854  -11.8082    3.8442 H   0  0  0  0  0  0  0  0  0  0  0  0
    2.6656  -13.1608    3.4451 H   0  0  0  0  0  0  0  0  0  0  0  0
   -0.5733   -9.0990    2.6200 H   0  0  0  0  0  0  0  0  0  0  0  0
   -1.2305    0.1116    2.5902 H   0  0  0  0  0  0  0  0  0  0  0  0
   -1.5943   -0.5376    0.9298 H   0  0  0  0  0  0  0  0  0  0  0  0
   -2.8143   -0.5370    2.1903 H   0  0  0  0  0  0  0  0  0  0  0  0
  1  2  1  0  0  0  0
  1 27  1  0  0  0  0
  1 28  1  0  0  0  0
  1 29  1  0  0  0  0
  2  3  1  0  0  0  0
  3  4  2  0  0  0  0
  3 24  1  0  0  0  0
  4  5  1  0  0  0  0
  4 30  1  0  0  0  0
  5  6  2  0  0  0  0
  5 31  1  0  0  0  0
  6  7  1  0  0  0  0
  6 12  1  0  0  0  0
  7  8  1  0  0  0  0
  7 24  2  0  0  0  0
  8  9  2  0  0  0  0
  8 32  1  0  0  0  0
  9 10  1  0  0  0  0
  9 11  1  0  0  0  0
 10 33  1  0  0  0  0
 10 34  1  0  0  0  0
 10 35  1  0  0  0  0
 11 12  2  0  0  0  0
 11 23  1  0  0  0  0
 12 13  1  0  0  0  0
 13 14  2  0  0  0  0
 13 36  1  0  0  0  0
 14 15  1  0  0  0  0
 14 37  1  0  0  0  0
 15 16  2  0  0  0  0
 15 23  1  0  0  0  0
 16 17  1  0  0  0  0
 16 38  1  0  0  0  0
 17 18  2  0  0  0  0
 17 21  1  0  0  0  0
 18 19  1  0  0  0  0
 18 22  1  0  0  0  0
 19 20  1  0  0  0  0
 20 21  1  0  0  0  0
 20 39  1  0  0  0  0
 20 40  1  0  0  0  0
 22 23  2  0  0  0  0
 22 41  1  0  0  0  0
 24 25  1  0  0  0  0
 25 26  1  0  0  0  0
 26 42  1  0  0  0  0
 26 43  1  0  0  0  0
 26 44  1  0  0  0  0
M  CHG  1   9   1
M  END
>  <DRUGBANK_ID>
DB17024

>  <COMMON_NAME>
Chelerythrine

>  <CAS_NUMBER>
34316-15-9

>  <UNII>
E3B045W6X0

>  <SYNONYMS>
(1,3)benzodioxolo(5,6-c)phenanthridinium, 1,2-dimethoxy-12-methyl-; 1,2-dimethoxy-12-methyl(1,3)dioxolo)4',5':4,5)benzo(1,2-c)phenanthridinium; Broussonpapyrine; Cheleritrine; Toddalin; Toddaline

$$$$
