
 OpenBabel10282417113D

136139  0  0  0  0  0  0  0  0999 V2000
   -1.5510    1.7294   -1.0886 C   0  0  1  0  0  0  0  0  0  0  0  0
   -1.6876    3.2690   -0.3790 C   0  0  0  0  0  0  0  0  0  0  0  0
   -0.7508    1.8617   -3.0728 C   0  0  2  0  0  0  0  0  0  0  0  0
   -2.4184    4.5505   -1.3372 C   0  0  2  0  0  0  0  0  0  0  0  0
   -2.0355    3.1820   -4.3490 C   0  0  1  0  0  0  0  0  0  0  0  0
   -2.8261    4.3208   -3.1195 O   0  0  0  0  0  0  0  0  0  0  0  0
   -1.7455    6.1909   -0.7706 C   0  0  0  0  0  0  0  0  0  0  0  0
   -2.3547    0.8432   -2.8919 O   0  0  0  0  0  0  0  0  0  0  0  0
   -0.7329    0.9643   -0.2942 N   0  0  0  0  0  0  0  0  0  0  0  0
   -1.2008   -0.1795   -0.9306 C   0  0  0  0  0  0  0  0  0  0  0  0
    0.5936    1.3563   -0.6062 C   0  0  0  0  0  0  0  0  0  0  0  0
   -1.3275    3.8926   -5.1700 O   0  0  0  0  0  0  0  0  0  0  0  0
   -1.5392    1.0351   -4.3809 C   0  0  2  0  0  0  0  0  0  0  0  0
    1.1114    0.5573   -4.3242 C   0  0  0  0  0  0  0  0  0  0  0  0
    3.8496    1.5012   -4.7093 C   0  0  1  0  0  0  0  0  0  0  0  0
   -0.0295    0.0286   -3.6320 C   0  0  2  0  0  0  0  0  0  0  0  0
   -0.9448    3.8938   -3.8302 C   0  0  2  0  0  0  0  0  0  0  0  0
   -2.1938    2.5863   -2.7905 C   0  0  1  0  0  0  0  0  0  0  0  0
    2.5228    3.0718   -6.3662 C   0  0  2  0  0  0  0  0  0  0  0  0
    2.2126   -0.2157   -4.2066 O   0  0  0  0  0  0  0  0  0  0  0  0
    3.4554    2.8572   -5.2352 C   0  0  1  0  0  0  0  0  0  0  0  0
    1.8301    4.7759   -5.2959 C   0  0  2  0  0  0  0  0  0  0  0  0
   -0.9651    5.2893   -2.9853 C   0  0  1  0  0  0  0  0  0  0  0  0
    3.0678    0.2760   -5.2108 C   0  0  2  0  0  0  0  0  0  0  0  0
   -2.4510    0.0716   -4.8839 O   0  0  0  0  0  0  0  0  0  0  0  0
    0.9466    5.8756   -4.0124 C   0  0  1  0  0  0  0  0  0  0  0  0
   -0.5683    6.1095   -4.0541 C   0  0  0  0  0  0  0  0  0  0  0  0
    1.0385    1.6744   -4.8278 O   0  0  0  0  0  0  0  0  0  0  0  0
    5.2314    1.2662   -4.8219 O   0  0  0  0  0  0  0  0  0  0  0  0
   -2.4005    6.0827   -2.7705 O   0  0  0  0  0  0  0  0  0  0  0  0
    3.5950    1.8974   -3.2319 C   0  0  0  0  0  0  0  0  0  0  0  0
   -0.0037   -1.3224   -2.9643 C   0  0  0  0  0  0  0  0  0  0  0  0
   -3.5820    2.6150   -2.0346 C   0  0  0  0  0  0  0  0  0  0  0  0
   -0.1452    4.6368   -1.7287 C   0  0  0  0  0  0  0  0  0  0  0  0
    3.5106   -0.6096   -6.3530 C   0  0  0  0  0  0  0  0  0  0  0  0
    1.4975    5.4310   -2.6940 C   0  0  0  0  0  0  0  0  0  0  0  0
   -3.0592   -0.8456   -3.9789 C   0  0  1  0  0  0  0  0  0  0  0  0
   -3.8818   -0.4595   -2.6869 C   0  0  0  0  0  0  0  0  0  0  0  0
   -4.0137   -1.4474   -4.7876 O   0  0  0  0  0  0  0  0  0  0  0  0
   -4.5536   -2.5492   -4.0953 C   0  0  2  0  0  0  0  0  0  0  0  0
   -5.2986   -2.1391   -2.8350 C   0  0  2  0  0  0  0  0  0  0  0  0
   -3.4568   -3.4958   -3.7997 C   0  0  0  0  0  0  0  0  0  0  0  0
   -6.2940   -1.2162   -3.3158 O   0  0  0  0  0  0  0  0  0  0  0  0
   -4.3909   -1.5204   -1.8187 C   0  0  2  0  0  0  0  0  0  0  0  0
   -4.9975   -0.9307   -0.6595 O   0  0  0  0  0  0  0  0  0  0  0  0
   -6.3166   -0.4966   -0.9231 C   0  0  0  0  0  0  0  0  0  0  0  0
   -3.3044   -2.4224   -1.2552 C   0  0  0  0  0  0  0  0  0  0  0  0
    3.1924   -1.9823   -5.9491 C   0  0  0  0  0  0  0  0  0  0  0  0
    4.3814    3.9582   -4.9533 O   0  0  0  0  0  0  0  0  0  0  0  0
    2.9835    5.6720   -4.5947 N   0  0  0  0  0  0  0  0  0  0  0  0
    3.4937    1.9633   -7.7406 C   0  0  0  0  0  0  0  0  0  0  0  0
    3.9442    5.2075   -5.4720 C   0  0  1  0  0  0  0  0  0  0  0  0
    4.1016    6.0178   -6.7720 C   0  0  0  0  0  0  0  0  0  0  0  0
    3.8608    5.1473   -7.9568 O   0  0  0  0  0  0  0  0  0  0  0  0
    4.7736    4.0252   -7.9732 C   0  0  0  0  0  0  0  0  0  0  0  0
    6.2516    3.8251   -7.8967 C   0  0  0  0  0  0  0  0  0  0  0  0
    6.6911    4.5860   -6.5129 O   0  0  0  0  0  0  0  0  0  0  0  0
    6.3207    6.0026   -6.7254 C   0  0  0  0  0  0  0  0  0  0  0  0
   -2.5686    1.3162   -0.9068 H   0  0  0  0  0  0  0  0  0  0  0  0
   -0.6299    3.3746   -0.1199 H   0  0  0  0  0  0  0  0  0  0  0  0
   -2.0735    3.4775    0.5920 H   0  0  0  0  0  0  0  0  0  0  0  0
    0.3119    2.1813   -2.9095 H   0  0  0  0  0  0  0  0  0  0  0  0
   -3.4549    4.6350   -1.1236 H   0  0  0  0  0  0  0  0  0  0  0  0
   -3.1846    3.0842   -4.4020 H   0  0  0  0  0  0  0  0  0  0  0  0
   -2.0461    7.1149   -1.2800 H   0  0  0  0  0  0  0  0  0  0  0  0
   -1.9804    6.2339    0.2575 H   0  0  0  0  0  0  0  0  0  0  0  0
   -0.6627    6.4331   -0.9540 H   0  0  0  0  0  0  0  0  0  0  0  0
   -3.0652    1.1772   -3.7515 H   0  0  0  0  0  0  0  0  0  0  0  0
   -1.2653   -0.0570   -1.9869 H   0  0  0  0  0  0  0  0  0  0  0  0
   -0.6695   -1.0134   -0.6244 H   0  0  0  0  0  0  0  0  0  0  0  0
   -2.2324   -0.3817   -0.7506 H   0  0  0  0  0  0  0  0  0  0  0  0
    1.0088    1.6085   -1.5697 H   0  0  0  0  0  0  0  0  0  0  0  0
    0.7915    2.3197   -0.1828 H   0  0  0  0  0  0  0  0  0  0  0  0
    1.1564    0.5359   -0.2611 H   0  0  0  0  0  0  0  0  0  0  0  0
   -1.2742    1.5631   -5.2292 H   0  0  0  0  0  0  0  0  0  0  0  0
    0.3412    0.4646   -2.6835 H   0  0  0  0  0  0  0  0  0  0  0  0
    0.1165    3.5535   -3.9702 H   0  0  0  0  0  0  0  0  0  0  0  0
   -0.9440    2.7526   -1.9455 H   0  0  0  0  0  0  0  0  0  0  0  0
    3.5182    3.0254   -6.8388 H   0  0  0  0  0  0  0  0  0  0  0  0
    2.5671    3.0076   -4.6947 H   0  0  0  0  0  0  0  0  0  0  0  0
    1.0202    5.3585   -5.7728 H   0  0  0  0  0  0  0  0  0  0  0  0
    2.2733    0.4920   -5.8948 H   0  0  0  0  0  0  0  0  0  0  0  0
    1.1171    6.9906   -3.7628 H   0  0  0  0  0  0  0  0  0  0  0  0
   -0.9850    6.9152   -4.6390 H   0  0  0  0  0  0  0  0  0  0  0  0
   -1.5514    5.8039   -4.5089 H   0  0  0  0  0  0  0  0  0  0  0  0
    5.5433    2.0543   -4.3424 H   0  0  0  0  0  0  0  0  0  0  0  0
   -2.3865    6.9653   -3.0837 H   0  0  0  0  0  0  0  0  0  0  0  0
    4.5081    2.0641   -2.6835 H   0  0  0  0  0  0  0  0  0  0  0  0
    3.0723    2.8666   -3.1396 H   0  0  0  0  0  0  0  0  0  0  0  0
    2.9282    1.2266   -2.7301 H   0  0  0  0  0  0  0  0  0  0  0  0
    0.8285   -1.4225   -2.2309 H   0  0  0  0  0  0  0  0  0  0  0  0
   -0.8356   -1.6138   -2.3417 H   0  0  0  0  0  0  0  0  0  0  0  0
   -0.2737   -1.9827   -3.7280 H   0  0  0  0  0  0  0  0  0  0  0  0
   -4.0553    1.7275   -2.2407 H   0  0  0  0  0  0  0  0  0  0  0  0
   -3.5616    2.7086   -0.9217 H   0  0  0  0  0  0  0  0  0  0  0  0
   -4.1991    3.3833   -2.3965 H   0  0  0  0  0  0  0  0  0  0  0  0
    0.6916    3.8886   -1.5955 H   0  0  0  0  0  0  0  0  0  0  0  0
   -0.2663    4.8695   -0.7054 H   0  0  0  0  0  0  0  0  0  0  0  0
   -0.7491    3.9723   -2.0288 H   0  0  0  0  0  0  0  0  0  0  0  0
    2.8318   -0.4387   -7.2448 H   0  0  0  0  0  0  0  0  0  0  0  0
    4.5375   -0.4266   -6.6838 H   0  0  0  0  0  0  0  0  0  0  0  0
    2.3926    5.4702   -2.1241 H   0  0  0  0  0  0  0  0  0  0  0  0
    0.9762    5.9732   -1.8766 H   0  0  0  0  0  0  0  0  0  0  0  0
    1.4265    4.3582   -2.9603 H   0  0  0  0  0  0  0  0  0  0  0  0
   -2.1948   -1.4065   -3.6905 H   0  0  0  0  0  0  0  0  0  0  0  0
   -3.3700    0.0086   -1.8950 H   0  0  0  0  0  0  0  0  0  0  0  0
   -4.6012    0.3162   -2.9389 H   0  0  0  0  0  0  0  0  0  0  0  0
   -5.2867   -2.9629   -4.7600 H   0  0  0  0  0  0  0  0  0  0  0  0
   -5.7793   -2.9630   -2.3481 H   0  0  0  0  0  0  0  0  0  0  0  0
   -3.8268   -4.2656   -3.1245 H   0  0  0  0  0  0  0  0  0  0  0  0
   -2.9001   -3.8309   -4.6443 H   0  0  0  0  0  0  0  0  0  0  0  0
   -2.6254   -2.9556   -3.3704 H   0  0  0  0  0  0  0  0  0  0  0  0
   -6.0706   -1.0786   -4.2511 H   0  0  0  0  0  0  0  0  0  0  0  0
   -6.3119    0.3142   -1.6602 H   0  0  0  0  0  0  0  0  0  0  0  0
   -6.9084   -1.3531   -1.2612 H   0  0  0  0  0  0  0  0  0  0  0  0
   -6.7779   -0.1480   -0.0141 H   0  0  0  0  0  0  0  0  0  0  0  0
   -2.9724   -3.2494   -1.8127 H   0  0  0  0  0  0  0  0  0  0  0  0
   -2.3622   -1.9517   -1.1960 H   0  0  0  0  0  0  0  0  0  0  0  0
   -3.4764   -2.9586   -0.3480 H   0  0  0  0  0  0  0  0  0  0  0  0
    2.1366   -2.0272   -5.6539 H   0  0  0  0  0  0  0  0  0  0  0  0
    3.3657   -2.6286   -6.7957 H   0  0  0  0  0  0  0  0  0  0  0  0
    3.8333   -2.1866   -5.0998 H   0  0  0  0  0  0  0  0  0  0  0  0
    3.2824    5.4936   -3.6175 H   0  0  0  0  0  0  0  0  0  0  0  0
    3.6060    0.8988   -7.7280 H   0  0  0  0  0  0  0  0  0  0  0  0
    3.3181    2.1052   -8.8222 H   0  0  0  0  0  0  0  0  0  0  0  0
    4.8130    1.8507   -7.8413 H   0  0  0  0  0  0  0  0  0  0  0  0
    3.2479    4.9166   -6.2000 H   0  0  0  0  0  0  0  0  0  0  0  0
    3.5848    6.8865   -7.2088 H   0  0  0  0  0  0  0  0  0  0  0  0
    3.5998    6.7734   -6.1368 H   0  0  0  0  0  0  0  0  0  0  0  0
    4.8153    3.6692   -6.9585 H   0  0  0  0  0  0  0  0  0  0  0  0
    4.5256    3.4330   -8.8456 H   0  0  0  0  0  0  0  0  0  0  0  0
    6.6639    2.8333   -7.7423 H   0  0  0  0  0  0  0  0  0  0  0  0
    6.5720    4.3684   -8.7900 H   0  0  0  0  0  0  0  0  0  0  0  0
    6.2693    6.6088   -7.6899 H   0  0  0  0  0  0  0  0  0  0  0  0
    6.4443    5.4959   -7.5616 H   0  0  0  0  0  0  0  0  0  0  0  0
    6.4372    6.5820   -5.8288 H   0  0  0  0  0  0  0  0  0  0  0  0
  1  9  1  0  0  0  0
  1 59  1  6  0  0  0
  2  1  1  0  0  0  0
  2 60  1  0  0  0  0
  2 61  1  0  0  0  0
  3  1  1  0  0  0  0
  3  8  1  0  0  0  0
  3 62  1  6  0  0  0
  4  2  1  0  0  0  0
  4  7  1  0  0  0  0
  4 63  1  1  0  0  0
  5  3  1  0  0  0  0
  5 12  1  0  0  0  0
  5 64  1  6  0  0  0
  6  4  1  0  0  0  0
  6  5  1  0  0  0  0
  7 65  1  0  0  0  0
  7 66  1  0  0  0  0
  7 67  1  0  0  0  0
  8 68  1  0  0  0  0
 10  9  1  0  0  0  0
 10 69  1  0  0  0  0
 10 70  1  0  0  0  0
 10 71  1  0  0  0  0
 11  9  1  0  0  0  0
 11 72  1  0  0  0  0
 11 73  1  0  0  0  0
 11 74  1  0  0  0  0
 13 25  1  0  0  0  0
 13 75  1  6  0  0  0
 15 29  1  6  0  0  0
 15 31  1  0  0  0  0
 16 13  1  0  0  0  0
 16 14  1  0  0  0  0
 16 32  1  0  0  0  0
 16 76  1  1  0  0  0
 17 12  1  0  0  0  0
 17 77  1  1  0  0  0
 18 13  1  0  0  0  0
 18 17  1  0  0  0  0
 18 33  1  0  0  0  0
 18 78  1  1  0  0  0
 19 79  1  6  0  0  0
 19 51  1  0  0  0  0
 20 14  1  0  0  0  0
 21 15  1  0  0  0  0
 21 19  1  0  0  0  0
 21 49  1  0  0  0  0
 21 80  1  6  0  0  0
 22 19  1  0  0  0  0
 22 50  1  0  0  0  0
 22 81  1  1  0  0  0
 23 17  1  0  0  0  0
 23 30  1  1  0  0  0
 23 34  1  0  0  0  0
 24 15  1  0  0  0  0
 24 20  1  0  0  0  0
 24 35  1  0  0  0  0
 24 82  1  6  0  0  0
 26 22  1  0  0  0  0
 26 83  1  6  0  0  0
 26 36  1  0  0  0  0
 27 23  1  0  0  0  0
 27 26  1  0  0  0  0
 27 84  1  0  0  0  0
 27 85  1  0  0  0  0
 28 14  2  0  0  0  0
 29 86  1  0  0  0  0
 30 87  1  0  0  0  0
 31 88  1  0  0  0  0
 31 89  1  0  0  0  0
 31 90  1  0  0  0  0
 32 91  1  0  0  0  0
 32 92  1  0  0  0  0
 32 93  1  0  0  0  0
 33 94  1  0  0  0  0
 33 95  1  0  0  0  0
 33 96  1  0  0  0  0
 34 97  1  0  0  0  0
 34 98  1  0  0  0  0
 34 99  1  0  0  0  0
 35 48  1  0  0  0  0
 35100  1  0  0  0  0
 35101  1  0  0  0  0
 36102  1  0  0  0  0
 36103  1  0  0  0  0
 36104  1  0  0  0  0
 37 38  1  0  0  0  0
 37 39  1  0  0  0  0
 37105  1  1  0  0  0
 37 25  1  0  0  0  0
 38 44  1  0  0  0  0
 38106  1  0  0  0  0
 38107  1  0  0  0  0
 39 40  1  0  0  0  0
 40 42  1  0  0  0  0
 40 41  1  0  0  0  0
 40108  1  6  0  0  0
 41109  1  1  0  0  0
 41 43  1  0  0  0  0
 42110  1  0  0  0  0
 42111  1  0  0  0  0
 42112  1  0  0  0  0
 43113  1  0  0  0  0
 44 41  1  0  0  0  0
 44 47  1  0  0  0  0
 44 45  1  1  0  0  0
 45 46  1  0  0  0  0
 46114  1  0  0  0  0
 46115  1  0  0  0  0
 46116  1  0  0  0  0
 47117  1  0  0  0  0
 47118  1  0  0  0  0
 47119  1  0  0  0  0
 48120  1  0  0  0  0
 48121  1  0  0  0  0
 48122  1  0  0  0  0
 49 52  1  0  0  0  0
 50123  1  0  0  0  0
 51124  1  0  0  0  0
 51125  1  0  0  0  0
 51126  1  0  0  0  0
 52 50  1  0  0  0  0
 52 53  1  0  0  0  0
 52127  1  6  0  0  0
 53 54  1  0  0  0  0
 53128  1  0  0  0  0
 53129  1  0  0  0  0
 54 55  1  0  0  0  0
 55 56  1  0  0  0  0
 55130  1  0  0  0  0
 55131  1  0  0  0  0
 56 57  1  0  0  0  0
 56132  1  0  0  0  0
 56133  1  0  0  0  0
 57 58  1  0  0  0  0
 58134  1  0  0  0  0
 58135  1  0  0  0  0
 58136  1  0  0  0  0
M  END
>  <DRUGBANK_ID>
DB00954

>  <SECONDARY_ACCESSION_NUMBERS>
APRD00931

>  <COMMON_NAME>
Dirithromycin

>  <CAS_NUMBER>
62013-04-1

>  <UNII>
1801D76STL

>  <SYNONYMS>
(9S)-9-deoxo-11-deoxy-9,11-(imino((1R)-2-(2-methoxyethoxy)ethylidene)oxy)erythromycin; Dirithromycin; Dirithromycine; Dirithromycinum; Diritromicina

$$$$
