
 OpenBabel10282417193D

 52 55  0  0  0  0  0  0  0  0999 V2000
    1.1157   -0.0112   -0.0667 C   0  0  2  0  0  0  0  0  0  0  0  0
    0.7337   -0.7245    0.6766 H   0  0  0  0  0  0  0  0  0  0  0  0
    2.6489   -0.0680   -0.0123 C   0  0  0  0  0  0  0  0  0  0  0  0
    0.5675   -1.7479   -1.9477 C   0  0  0  0  0  0  0  0  0  0  0  0
    0.5972   -0.4200   -1.4257 C   0  0  0  0  0  0  0  0  0  0  0  0
    0.1755    0.4478   -2.3532 N   0  0  0  0  0  0  0  0  0  0  0  0
   -0.1397   -0.3063   -3.4709 O   0  0  0  0  0  0  0  0  0  0  0  0
    0.1040   -1.6303   -3.2408 C   0  0  0  0  0  0  0  0  0  0  0  0
   -0.4712    1.5446    1.1852 C   0  0  0  0  0  0  0  0  0  0  0  0
   -0.8681    2.8267    1.5740 C   0  0  0  0  0  0  0  0  0  0  0  0
   -0.2180    3.9689    1.0955 C   0  0  0  0  0  0  0  0  0  0  0  0
    0.8507    3.7951    0.2073 C   0  0  0  0  0  0  0  0  0  0  0  0
   -0.5745    5.3249    1.5100 C   0  0  0  0  0  0  0  0  0  0  0  0
   -0.8482    6.3083    0.5454 C   0  0  0  0  0  0  0  0  0  0  0  0
   -0.9925    7.6433    0.9132 C   0  0  0  0  0  0  0  0  0  0  0  0
   -0.9380    8.0002    2.2583 C   0  0  0  0  0  0  0  0  0  0  0  0
   -0.7195    7.0279    3.2330 C   0  0  0  0  0  0  0  0  0  0  0  0
   -0.5320    5.6978    2.8603 C   0  0  0  0  0  0  0  0  0  0  0  0
    0.6050    1.3747    0.2989 C   0  0  0  0  0  0  0  0  0  0  0  0
    1.2472    2.5243   -0.1896 C   0  0  0  0  0  0  0  0  0  0  0  0
   -0.2399   -5.8468   -6.4322 C   0  0  0  0  0  0  0  0  0  0  0  0
    0.1650   -5.7728   -7.8111 O   0  0  0  0  0  0  0  0  0  0  0  0
    0.8030   -4.5118   -8.0818 C   0  0  0  0  0  0  0  0  0  0  0  0
   -1.1982   -4.6987   -6.0622 C   0  0  0  0  0  0  0  0  0  0  0  0
   -0.5376   -3.4155   -6.3546 N   0  0  0  0  0  0  0  0  0  0  0  0
   -0.1426   -3.3382   -7.7767 C   0  0  0  0  0  0  0  0  0  0  0  0
   -0.5147   -2.3146   -5.5227 C   0  0  0  0  0  0  0  0  0  0  0  0
   -0.1083   -2.5489   -4.2260 N   0  0  0  0  0  0  0  0  0  0  0  0
   -0.7909   -1.1342   -5.9544 N   0  0  0  0  0  0  0  0  0  0  0  0
   -1.8868    2.9445    2.4409 F   0  0  0  0  0  0  0  0  0  0  0  0
    3.0149    0.2269    0.9779 H   0  0  0  0  0  0  0  0  0  0  0  0
    3.0152   -1.0746   -0.2312 H   0  0  0  0  0  0  0  0  0  0  0  0
    3.1140    0.5974   -0.7488 H   0  0  0  0  0  0  0  0  0  0  0  0
    0.8759   -2.6470   -1.4406 H   0  0  0  0  0  0  0  0  0  0  0  0
   -1.0073    0.6952    1.5986 H   0  0  0  0  0  0  0  0  0  0  0  0
    1.3994    4.6547   -0.1739 H   0  0  0  0  0  0  0  0  0  0  0  0
   -0.9252    6.0330   -0.5056 H   0  0  0  0  0  0  0  0  0  0  0  0
   -1.1299    8.4011    0.1472 H   0  0  0  0  0  0  0  0  0  0  0  0
   -1.0660    9.0389    2.5472 H   0  0  0  0  0  0  0  0  0  0  0  0
   -0.6696    7.3052    4.2820 H   0  0  0  0  0  0  0  0  0  0  0  0
   -0.3218    4.9532    3.6255 H   0  0  0  0  0  0  0  0  0  0  0  0
    2.0733    2.4502   -0.8920 H   0  0  0  0  0  0  0  0  0  0  0  0
    0.6568   -5.8206   -5.8026 H   0  0  0  0  0  0  0  0  0  0  0  0
   -0.7274   -6.8159   -6.2864 H   0  0  0  0  0  0  0  0  0  0  0  0
    1.0958   -4.5051   -9.1363 H   0  0  0  0  0  0  0  0  0  0  0  0
    1.7156   -4.4430   -7.4777 H   0  0  0  0  0  0  0  0  0  0  0  0
   -2.0998   -4.7819   -6.6861 H   0  0  0  0  0  0  0  0  0  0  0  0
   -1.5118   -4.7805   -5.0180 H   0  0  0  0  0  0  0  0  0  0  0  0
   -1.0374   -3.4133   -8.4093 H   0  0  0  0  0  0  0  0  0  0  0  0
    0.3635   -2.3968   -8.0107 H   0  0  0  0  0  0  0  0  0  0  0  0
    0.1794   -3.4958   -4.0427 H   0  0  0  0  0  0  0  0  0  0  0  0
   -1.0972   -1.1713   -6.9240 H   0  0  0  0  0  0  0  0  0  0  0  0
  1  2  1  1  0  0  0
  1  3  1  0  0  0  0
  3 31  1  0  0  0  0
  3 32  1  0  0  0  0
  3 33  1  0  0  0  0
  4  5  1  0  0  0  0
  4 34  1  0  0  0  0
  5  6  2  0  0  0  0
  5  1  1  0  0  0  0
  6  7  1  0  0  0  0
  7  8  1  0  0  0  0
  8  4  2  0  0  0  0
  9 10  2  0  0  0  0
  9 35  1  0  0  0  0
 10 11  1  0  0  0  0
 10 30  1  0  0  0  0
 11 13  1  0  0  0  0
 11 12  2  0  0  0  0
 12 20  1  0  0  0  0
 12 36  1  0  0  0  0
 13 14  2  0  0  0  0
 14 15  1  0  0  0  0
 14 37  1  0  0  0  0
 15 16  2  0  0  0  0
 15 38  1  0  0  0  0
 16 17  1  0  0  0  0
 16 39  1  0  0  0  0
 17 18  2  0  0  0  0
 17 40  1  0  0  0  0
 18 13  1  0  0  0  0
 18 41  1  0  0  0  0
 19  9  1  0  0  0  0
 19 20  2  0  0  0  0
 19  1  1  0  0  0  0
 20 42  1  0  0  0  0
 21 22  1  0  0  0  0
 21 24  1  0  0  0  0
 21 43  1  0  0  0  0
 21 44  1  0  0  0  0
 22 23  1  0  0  0  0
 23 26  1  0  0  0  0
 23 45  1  0  0  0  0
 23 46  1  0  0  0  0
 24 47  1  0  0  0  0
 24 48  1  0  0  0  0
 25 24  1  0  0  0  0
 25 26  1  0  0  0  0
 25 27  1  0  0  0  0
 26 49  1  0  0  0  0
 26 50  1  0  0  0  0
 27 29  2  0  0  0  0
 28 27  1  0  0  0  0
 28  8  1  0  0  0  0
 28 51  1  0  0  0  0
 29 52  1  0  0  0  0
M  END
>  <DRUGBANK_ID>
DB12571

>  <COMMON_NAME>
Rimacalib

>  <CAS_NUMBER>
215174-50-8

>  <UNII>
BZ76J3N815

>  <SYNONYMS>
Rimacalib

$$$$
