NP2
 OpenBabel10282417173D

 27 27  0  0  0  0  0  0  0  0999 V2000
    0.9390   -0.0708   -0.1063 N   0  0  0  0  0  0  0  0  0  0  0  0
    0.4667   -1.3936    0.2910 C   0  0  0  0  0  0  0  0  0  0  0  0
    0.9214   -1.7727    1.7016 C   0  0  0  0  0  0  0  0  0  0  0  0
    0.4376   -0.8086    2.7848 C   0  0  0  0  0  0  0  0  0  0  0  0
   -1.0134   -0.7343    2.8037 N   0  0  0  0  0  0  0  0  0  0  0  0
   -1.7585   -1.0959    3.9135 C   0  0  0  0  0  0  0  0  0  0  0  0
   -1.3697   -0.5858    5.1624 C   0  0  0  0  0  0  0  0  0  0  0  0
   -2.9064   -1.9148    3.8737 C   0  0  0  0  0  0  0  0  0  0  0  0
   -3.2472   -2.7361    2.6938 N   0  3  0  0  0  0  0  0  0  0  0  0
   -4.2586   -3.4460    2.7582 O   0  0  0  0  0  0  0  0  0  0  0  0
   -2.4908   -2.7103    1.7063 O   0  5  0  0  0  0  0  0  0  0  0  0
   -2.1411   -0.7784    6.3062 C   0  0  0  0  0  0  0  0  0  0  0  0
   -3.7231   -2.0535    5.0129 C   0  0  0  0  0  0  0  0  0  0  0  0
   -3.3297   -1.4924    6.2272 C   0  0  0  0  0  0  0  0  0  0  0  0
    0.5777    0.6340    0.5369 H   0  0  0  0  0  0  0  0  0  0  0  0
    1.9538   -0.0339   -0.0285 H   0  0  0  0  0  0  0  0  0  0  0  0
   -0.6239   -1.4198    0.2097 H   0  0  0  0  0  0  0  0  0  0  0  0
    0.8395   -2.1333   -0.4241 H   0  0  0  0  0  0  0  0  0  0  0  0
    0.5679   -2.7863    1.9307 H   0  0  0  0  0  0  0  0  0  0  0  0
    2.0180   -1.8120    1.7306 H   0  0  0  0  0  0  0  0  0  0  0  0
    0.8531   -1.1346    3.7450 H   0  0  0  0  0  0  0  0  0  0  0  0
    0.8268    0.1993    2.6081 H   0  0  0  0  0  0  0  0  0  0  0  0
   -1.4947   -0.7587    1.9069 H   0  0  0  0  0  0  0  0  0  0  0  0
   -0.4721    0.0239    5.2406 H   0  0  0  0  0  0  0  0  0  0  0  0
   -1.8232   -0.3348    7.2458 H   0  0  0  0  0  0  0  0  0  0  0  0
   -4.6642   -2.5977    4.9690 H   0  0  0  0  0  0  0  0  0  0  0  0
   -3.9411   -1.6267    7.1153 H   0  0  0  0  0  0  0  0  0  0  0  0
  1  2  1  0  0  0  0
  1 15  1  0  0  0  0
  1 16  1  0  0  0  0
  2  3  1  0  0  0  0
  2 17  1  0  0  0  0
  2 18  1  0  0  0  0
  3  4  1  0  0  0  0
  3 19  1  0  0  0  0
  3 20  1  0  0  0  0
  4  5  1  0  0  0  0
  4 21  1  0  0  0  0
  4 22  1  0  0  0  0
  5  6  1  0  0  0  0
  5 23  1  0  0  0  0
  6  7  2  0  0  0  0
  6  8  1  0  0  0  0
  7 12  1  0  0  0  0
  7 24  1  0  0  0  0
  8  9  1  0  0  0  0
  8 13  2  0  0  0  0
  9 10  2  0  0  0  0
  9 11  1  0  0  0  0
 12 14  2  0  0  0  0
 12 25  1  0  0  0  0
 13 14  1  0  0  0  0
 13 26  1  0  0  0  0
 14 27  1  0  0  0  0
M  CHG  2   9   1  11  -1
M  END
>  <DRUGBANK_ID>
DB08291

>  <COMMON_NAME>
N-(3-AMINOPROPYL)-2-NITROBENZENAMINE

>  <UNII>
KSJ78WBX6K

$$$$
