
 OpenBabel10282417233D

 56 59  0  0  1  0  0  0  0  0999 V2000
    0.9238    0.3680    0.0411 N   0  0  0  0  0  0  0  0  0  0  0  0
    0.3133    1.4341   -0.5863 C   0  0  0  0  0  0  0  0  0  0  0  0
    0.7081    1.9017   -1.6851 N   0  0  0  0  0  0  0  0  0  0  0  0
    0.0183    2.9645   -2.2393 C   0  0  0  0  0  0  0  0  0  0  0  0
   -0.6204    4.0341   -1.5495 C   0  0  0  0  0  0  0  0  0  0  0  0
   -1.1041    5.5187   -2.2838 N   0  0  0  0  0  0  0  0  0  0  0  0
   -0.2058    7.0204   -3.0080 C   0  0  0  0  0  0  0  0  0  0  0  0
    1.2132    6.6196   -3.6226 N   0  0  0  0  0  0  0  0  0  0  0  0
    0.9336    5.4309   -2.9387 C   0  0  0  0  0  0  0  0  0  0  0  0
   -0.7436    5.0888   -3.5710 C   0  0  3  0  0  0  0  0  0  0  0  0
   -0.9828    3.7361   -4.1727 C   0  0  0  0  0  0  0  0  0  0  0  0
    0.0343    2.9122   -3.6301 N   0  0  0  0  0  0  0  0  0  0  0  0
    1.5662    6.1401   -4.9166 C   0  0  0  0  0  0  0  0  0  0  0  0
    0.6838    5.4984   -5.7313 C   0  0  0  0  0  0  0  0  0  0  0  0
    1.0187    4.5196   -6.6533 C   0  0  0  0  0  0  0  0  0  0  0  0
    2.2238    4.4833   -7.2763 C   0  0  0  0  0  0  0  0  0  0  0  0
    3.1224    5.4084   -6.7366 C   0  0  0  0  0  0  0  0  0  0  0  0
    2.8270    6.1525   -5.5188 C   0  0  0  0  0  0  0  0  0  0  0  0
    2.4899    3.6878   -8.5294 C   0  0  0  0  0  0  0  0  0  0  0  0
    3.5385    3.9070   -9.1374 O   0  0  0  0  0  0  0  0  0  0  0  0
    1.6163    2.7619   -9.0800 N   0  0  0  0  0  0  0  0  0  0  0  0
    0.3524    2.1715   -8.6251 C   0  0  1  0  0  0  0  0  0  0  0  0
   -0.8173    2.4797   -9.5602 C   0  0  0  0  0  0  0  0  0  0  0  0
   -0.7497    1.7471  -10.8805 C   0  0  0  0  0  0  0  0  0  0  0  0
   -0.7780    0.2454  -10.7435 C   0  0  0  0  0  0  0  0  0  0  0  0
   -2.0039   -0.3043  -10.8308 O   0  0  0  0  0  0  0  0  0  0  0  0
    0.2118   -0.4256  -10.5727 O   0  0  0  0  0  0  0  0  0  0  0  0
    0.5085    0.8199   -7.9073 C   0  0  0  0  0  0  0  0  0  0  0  0
   -0.2398    0.7272   -6.7768 O   0  0  0  0  0  0  0  0  0  0  0  0
    1.2845   -0.0706   -8.2263 O   0  0  0  0  0  0  0  0  0  0  0  0
   -1.2614    3.2939   -0.3416 C   0  0  0  0  0  0  0  0  0  0  0  0
   -2.2824    3.6987    0.2427 O   0  0  0  0  0  0  0  0  0  0  0  0
   -0.7163    2.0603    0.0608 N   0  0  0  0  0  0  0  0  0  0  0  0
    0.4180   -0.3991    0.4632 H   0  0  0  0  0  0  0  0  0  0  0  0
    1.8593    0.1145   -0.2694 H   0  0  0  0  0  0  0  0  0  0  0  0
   -0.7139    7.4694   -3.8968 H   0  0  0  0  0  0  0  0  0  0  0  0
   -0.0199    7.8108   -2.2766 H   0  0  0  0  0  0  0  0  0  0  0  0
    0.8930    5.8441   -1.8495 H   0  0  0  0  0  0  0  0  0  0  0  0
    1.6320    4.6511   -2.6487 H   0  0  0  0  0  0  0  0  0  0  0  0
   -1.4200    5.7627   -4.1484 H   0  0  0  0  0  0  0  0  0  0  0  0
   -1.9743    3.3158   -3.9947 H   0  0  0  0  0  0  0  0  0  0  0  0
   -0.9501    3.7490   -5.2563 H   0  0  0  0  0  0  0  0  0  0  0  0
    0.9977    3.0337   -3.9615 H   0  0  0  0  0  0  0  0  0  0  0  0
   -0.3688    5.6683   -5.6516 H   0  0  0  0  0  0  0  0  0  0  0  0
    0.1781    3.9088   -6.8272 H   0  0  0  0  0  0  0  0  0  0  0  0
    4.0583    5.5843   -7.2631 H   0  0  0  0  0  0  0  0  0  0  0  0
    3.5930    6.8118   -5.1272 H   0  0  0  0  0  0  0  0  0  0  0  0
    2.0330    2.2883   -9.8808 H   0  0  0  0  0  0  0  0  0  0  0  0
    0.0051    2.7343   -7.8126 H   0  0  0  0  0  0  0  0  0  0  0  0
   -1.7738    2.3113   -9.0449 H   0  0  0  0  0  0  0  0  0  0  0  0
   -0.8023    3.5665   -9.7703 H   0  0  0  0  0  0  0  0  0  0  0  0
   -1.5562    2.0835  -11.5366 H   0  0  0  0  0  0  0  0  0  0  0  0
    0.1897    2.0087  -11.3758 H   0  0  0  0  0  0  0  0  0  0  0  0
   -2.5393    0.1065  -11.5310 H   0  0  0  0  0  0  0  0  0  0  0  0
    0.0373    1.3628   -6.0817 H   0  0  0  0  0  0  0  0  0  0  0  0
   -1.0584    1.6217    0.8920 H   0  0  0  0  0  0  0  0  0  0  0  0
  1  2  1  0  0  0  0
  1 34  1  0  0  0  0
  1 35  1  0  0  0  0
  2  3  2  0  0  0  0
  2 33  1  0  0  0  0
  3  4  1  0  0  0  0
  4  5  2  0  0  0  0
  4 12  1  0  0  0  0
  5  6  1  0  0  0  0
  5 31  1  0  0  0  0
  6  7  1  0  0  0  0
  6 10  1  0  0  0  0
  7  8  1  0  0  0  0
  7 36  1  0  0  0  0
  7 37  1  0  0  0  0
  8  9  1  0  0  0  0
  8 13  1  0  0  0  0
  9 10  1  0  0  0  0
  9 38  1  0  0  0  0
  9 39  1  0  0  0  0
 10 11  1  0  0  0  0
 10 40  1  0  0  0  0
 11 12  1  0  0  0  0
 11 41  1  0  0  0  0
 11 42  1  0  0  0  0
 12 43  1  0  0  0  0
 13 14  2  0  0  0  0
 13 18  1  0  0  0  0
 14 15  1  0  0  0  0
 14 44  1  0  0  0  0
 15 16  2  0  0  0  0
 15 45  1  0  0  0  0
 16 17  1  0  0  0  0
 16 19  1  0  0  0  0
 17 18  2  0  0  0  0
 17 46  1  0  0  0  0
 18 47  1  0  0  0  0
 19 20  2  0  0  0  0
 19 21  1  0  0  0  0
 21 48  1  0  0  0  0
 22 21  1  0  0  0  0
 22 23  1  0  0  0  0
 22 28  1  0  0  0  0
 22 49  1  1  0  0  0
 23 24  1  0  0  0  0
 23 50  1  0  0  0  0
 23 51  1  0  0  0  0
 24 25  1  0  0  0  0
 24 52  1  0  0  0  0
 24 53  1  0  0  0  0
 25 26  1  0  0  0  0
 25 27  2  0  0  0  0
 26 54  1  0  0  0  0
 28 29  1  0  0  0  0
 28 30  2  0  0  0  0
 29 55  1  0  0  0  0
 31 32  2  0  0  0  0
 31 33  1  0  0  0  0
 33 56  1  0  0  0  0
M  END
>  <DRUGBANK_ID>
DB17113

>  <COMMON_NAME>
Folitixorin

>  <CAS_NUMBER>
3432-99-3

>  <UNII>
0SXY5ET48B

>  <SYNONYMS>
5,10-methylene-(6rs)-tetrahydrofolic acid; 5,10-methylene-5,6,7,8-tetrahydrofolic acid; 5,10-methylenetetrafolate; 5,10-methylenetetrahydrofolic acid; Folic acid, tetrahydro-n5,n10-methylene-; L-glutamic acid, n-(4-(3-amino-1,2,5,6,6a,7-hexahydro-1-oxoimidazo(1,5-f)pteridin-8(9h)-yl)benzoyl)-; N5,n10-methylene-5,6,7,8-tetrahydrofolic acid; N5,n10-methylenetetrahydrofolic acid; N5,n10-methylenetetrahydropteroylglutamic acid

$$$$
