
 OpenBabel10282417153D

 57 60  0  0  0  0  0  0  0  0999 V2000
    1.0303    0.1076    0.1043 C   0  0  0  0  0  0  0  0  0  0  0  0
   -2.8485    0.8941   -3.0286 C   0  0  0  0  0  0  0  0  0  0  0  0
    0.8818   -3.3988   -2.8662 C   0  0  0  0  0  0  0  0  0  0  0  0
    3.9347   -3.1882   -6.1920 C   0  0  0  0  0  0  0  0  0  0  0  0
   -3.2984    0.3212   -1.8485 C   0  0  0  0  0  0  0  0  0  0  0  0
   -1.9088    0.2424   -3.8499 C   0  0  0  0  0  0  0  0  0  0  0  0
    1.9766   -2.9471   -3.5844 C   0  0  0  0  0  0  0  0  0  0  0  0
    0.6534   -2.8946   -1.6479 C   0  0  0  0  0  0  0  0  0  0  0  0
    3.6716   -0.7444   -1.3033 C   0  0  0  0  0  0  0  0  0  0  0  0
    4.9804   -1.3960   -1.6760 C   0  0  0  0  0  0  0  0  0  0  0  0
    2.4418   -3.5088   -6.3340 C   0  0  0  0  0  0  0  0  0  0  0  0
    4.3133   -1.9254   -5.4063 C   0  0  0  0  0  0  0  0  0  0  0  0
    1.3532   -0.9931   -6.1974 C   0  0  0  0  0  0  0  0  0  0  0  0
    0.0553   -2.9155   -6.7344 C   0  0  0  0  0  0  0  0  0  0  0  0
    0.6483   -0.7033   -4.8267 C   0  0  0  0  0  0  0  0  0  0  0  0
   -0.5396   -2.9695   -5.3142 C   0  0  0  0  0  0  0  0  0  0  0  0
   -1.9961   -1.6333   -2.4435 C   0  0  0  0  0  0  0  0  0  0  0  0
   -2.8113   -0.9227   -1.5186 C   0  0  0  0  0  0  0  0  0  0  0  0
   -1.4611   -1.0692   -3.6346 C   0  0  0  0  0  0  0  0  0  0  0  0
    2.6249   -1.5763   -1.9079 C   0  0  0  0  0  0  0  0  0  0  0  0
    2.9630   -2.1638   -3.1331 C   0  0  0  0  0  0  0  0  0  0  0  0
    1.3936   -1.8230   -1.2606 C   0  0  0  0  0  0  0  0  0  0  0  0
    5.2336   -1.3714   -3.1762 C   0  0  0  0  0  0  0  0  0  0  0  0
   -3.2535   -1.6167    0.0090 Cl  0  0  0  0  0  0  0  0  0  0  0  0
    1.4626   -2.4081   -6.7697 N   0  0  0  0  0  0  0  0  0  0  0  0
   -0.5567   -1.5936   -4.5934 N   0  0  0  0  0  0  0  0  0  0  0  0
    4.1276   -1.8211   -3.9151 N   0  0  0  0  0  0  0  0  0  0  0  0
    6.3153   -1.1167   -3.6328 O   0  0  0  0  0  0  0  0  0  0  0  0
    0.7422   -1.2160   -0.2463 O   0  0  0  0  0  0  0  0  0  0  0  0
    0.5728    0.2397    1.0848 H   0  0  0  0  0  0  0  0  0  0  0  0
    0.6116    0.8338   -0.5989 H   0  0  0  0  0  0  0  0  0  0  0  0
    2.0886    0.2707    0.2413 H   0  0  0  0  0  0  0  0  0  0  0  0
   -3.2453    1.8494   -3.3501 H   0  0  0  0  0  0  0  0  0  0  0  0
   -0.0674   -3.7087   -3.2821 H   0  0  0  0  0  0  0  0  0  0  0  0
    4.3301   -3.1412   -7.2159 H   0  0  0  0  0  0  0  0  0  0  0  0
    4.4624   -4.0253   -5.7076 H   0  0  0  0  0  0  0  0  0  0  0  0
   -4.0425    0.8125   -1.2277 H   0  0  0  0  0  0  0  0  0  0  0  0
   -1.5672    0.7672   -4.7374 H   0  0  0  0  0  0  0  0  0  0  0  0
    1.8099   -2.7044   -4.5948 H   0  0  0  0  0  0  0  0  0  0  0  0
   -0.2883   -3.1568   -1.1978 H   0  0  0  0  0  0  0  0  0  0  0  0
    3.5640   -0.8661   -0.2282 H   0  0  0  0  0  0  0  0  0  0  0  0
    3.5512    0.2935   -1.6302 H   0  0  0  0  0  0  0  0  0  0  0  0
    4.9557   -2.4562   -1.3785 H   0  0  0  0  0  0  0  0  0  0  0  0
    5.7841   -0.8889   -1.1583 H   0  0  0  0  0  0  0  0  0  0  0  0
    2.2933   -4.3870   -6.9800 H   0  0  0  0  0  0  0  0  0  0  0  0
    2.2433   -4.0941   -5.4226 H   0  0  0  0  0  0  0  0  0  0  0  0
    3.9068   -1.0446   -5.8948 H   0  0  0  0  0  0  0  0  0  0  0  0
    5.3808   -1.7765   -5.6247 H   0  0  0  0  0  0  0  0  0  0  0  0
    2.2773   -0.4172   -6.2415 H   0  0  0  0  0  0  0  0  0  0  0  0
    0.7359   -0.4304   -6.9120 H   0  0  0  0  0  0  0  0  0  0  0  0
   -0.5997   -2.2759   -7.3223 H   0  0  0  0  0  0  0  0  0  0  0  0
    0.0454   -3.9167   -7.1880 H   0  0  0  0  0  0  0  0  0  0  0  0
    1.3735   -0.8121   -4.0373 H   0  0  0  0  0  0  0  0  0  0  0  0
    0.5044    0.3761   -4.6334 H   0  0  0  0  0  0  0  0  0  0  0  0
    0.1503   -3.7480   -4.9660 H   0  0  0  0  0  0  0  0  0  0  0  0
   -1.4838   -3.5104   -5.2208 H   0  0  0  0  0  0  0  0  0  0  0  0
   -1.8265   -2.6417   -2.1079 H   0  0  0  0  0  0  0  0  0  0  0  0
  1 30  1  0  0  0  0
  1 31  1  0  0  0  0
  1 32  1  0  0  0  0
  2 33  1  0  0  0  0
  3 34  1  0  0  0  0
  4 35  1  0  0  0  0
  4 36  1  0  0  0  0
  5  2  2  0  0  0  0
  5 37  1  0  0  0  0
  6  2  1  0  0  0  0
  6 38  1  0  0  0  0
  7  3  2  0  0  0  0
  7 39  1  0  0  0  0
  8  3  1  0  0  0  0
  8 40  1  0  0  0  0
  9 41  1  0  0  0  0
  9 42  1  0  0  0  0
 10  9  1  0  0  0  0
 10 43  1  0  0  0  0
 10 44  1  0  0  0  0
 11  4  1  0  0  0  0
 11 45  1  0  0  0  0
 11 46  1  0  0  0  0
 12  4  1  0  0  0  0
 12 47  1  0  0  0  0
 12 48  1  0  0  0  0
 13 49  1  0  0  0  0
 13 50  1  0  0  0  0
 14 51  1  0  0  0  0
 14 52  1  0  0  0  0
 15 13  1  0  0  0  0
 15 53  1  0  0  0  0
 15 54  1  0  0  0  0
 16 14  1  0  0  0  0
 16 55  1  0  0  0  0
 16 56  1  0  0  0  0
 17 57  1  0  0  0  0
 18  5  1  0  0  0  0
 18 17  2  0  0  0  0
 19  6  2  0  0  0  0
 19 17  1  0  0  0  0
 20  9  1  0  0  0  0
 21  7  1  0  0  0  0
 21 20  2  0  0  0  0
 22  8  2  0  0  0  0
 22 20  1  0  0  0  0
 23 10  1  0  0  0  0
 24 18  1  0  0  0  0
 25 11  1  0  0  0  0
 25 13  1  0  0  0  0
 25 14  1  0  0  0  0
 26 15  1  0  0  0  0
 26 16  1  0  0  0  0
 26 19  1  0  0  0  0
 27 12  1  0  0  0  0
 27 21  1  0  0  0  0
 27 23  1  0  0  0  0
 28 23  2  0  0  0  0
 29  1  1  0  0  0  0
 29 22  1  0  0  0  0
M  END
>  <DRUGBANK_ID>
DB05422

>  <COMMON_NAME>
OPC-14523

>  <CAS_NUMBER>
145969-30-8

>  <UNII>
1981OTB4DS

$$$$
