5PP
 OpenBabel10282417163D

 39 40  0  0  0  0  0  0  0  0999 V2000
    2.2662   -0.0351   -0.2136 O   0  0  0  0  0  0  0  0  0  0  0  0
    0.9037   -0.1177   -0.1690 C   0  0  0  0  0  0  0  0  0  0  0  0
    0.1898   -1.2977   -0.0171 C   0  0  0  0  0  0  0  0  0  0  0  0
    0.7928   -2.5270    0.0628 O   0  0  0  0  0  0  0  0  0  0  0  0
    1.6195   -2.7962    1.1332 C   0  0  0  0  0  0  0  0  0  0  0  0
    1.8438   -1.9490    2.2262 C   0  0  0  0  0  0  0  0  0  0  0  0
    2.7653   -2.3037    3.2104 C   0  0  0  0  0  0  0  0  0  0  0  0
    3.4327   -3.5222    3.1335 C   0  0  0  0  0  0  0  0  0  0  0  0
    3.1869   -4.3863    2.0656 C   0  0  0  0  0  0  0  0  0  0  0  0
    2.2879   -4.0189    1.0646 C   0  0  0  0  0  0  0  0  0  0  0  0
   -1.2074   -1.2654   -0.0084 C   0  0  0  0  0  0  0  0  0  0  0  0
   -1.8852   -0.0404   -0.0268 C   0  0  0  0  0  0  0  0  0  0  0  0
   -1.1691    1.1557   -0.0900 C   0  0  0  0  0  0  0  0  0  0  0  0
    0.2247    1.0887   -0.2324 C   0  0  0  0  0  0  0  0  0  0  0  0
   -1.8816    2.4846    0.0121 C   0  0  0  0  0  0  0  0  0  0  0  0
   -1.5137    3.2845    1.2770 C   0  0  0  0  0  0  0  0  0  0  0  0
   -0.0467    3.7338    1.3645 C   0  0  0  0  0  0  0  0  0  0  0  0
    0.4262    4.4954    0.1196 C   0  0  0  0  0  0  0  0  0  0  0  0
   -0.2850    5.8278   -0.0016 C   0  0  0  0  0  0  0  0  0  0  0  0
    2.6292   -0.9322   -0.1128 H   0  0  0  0  0  0  0  0  0  0  0  0
    1.3366   -0.9941    2.3247 H   0  0  0  0  0  0  0  0  0  0  0  0
    2.9590   -1.6221    4.0359 H   0  0  0  0  0  0  0  0  0  0  0  0
    4.1413   -3.8014    3.9082 H   0  0  0  0  0  0  0  0  0  0  0  0
    3.6981   -5.3428    2.0118 H   0  0  0  0  0  0  0  0  0  0  0  0
    2.1092   -4.6885    0.2258 H   0  0  0  0  0  0  0  0  0  0  0  0
   -1.7736   -2.1897    0.0397 H   0  0  0  0  0  0  0  0  0  0  0  0
   -2.9718   -0.0299    0.0195 H   0  0  0  0  0  0  0  0  0  0  0  0
    0.8359    1.9710   -0.3520 H   0  0  0  0  0  0  0  0  0  0  0  0
   -1.6990    3.0643   -0.8992 H   0  0  0  0  0  0  0  0  0  0  0  0
   -2.9674    2.3211    0.0272 H   0  0  0  0  0  0  0  0  0  0  0  0
   -2.1542    4.1739    1.3232 H   0  0  0  0  0  0  0  0  0  0  0  0
   -1.7581    2.6976    2.1712 H   0  0  0  0  0  0  0  0  0  0  0  0
    0.0918    4.3627    2.2513 H   0  0  0  0  0  0  0  0  0  0  0  0
    0.5965    2.8676    1.5537 H   0  0  0  0  0  0  0  0  0  0  0  0
    1.5099    4.6465    0.1719 H   0  0  0  0  0  0  0  0  0  0  0  0
    0.2523    3.9322   -0.8032 H   0  0  0  0  0  0  0  0  0  0  0  0
   -0.0858    6.4392    0.8820 H   0  0  0  0  0  0  0  0  0  0  0  0
    0.0557    6.3631   -0.8906 H   0  0  0  0  0  0  0  0  0  0  0  0
   -1.3670    5.6927   -0.0930 H   0  0  0  0  0  0  0  0  0  0  0  0
  1  2  1  0  0  0  0
  1 20  1  0  0  0  0
  2  3  2  0  0  0  0
  2 14  1  0  0  0  0
  3  4  1  0  0  0  0
  3 11  1  0  0  0  0
  4  5  1  0  0  0  0
  5  6  1  0  0  0  0
  5 10  2  0  0  0  0
  6  7  2  0  0  0  0
  6 21  1  0  0  0  0
  7  8  1  0  0  0  0
  7 22  1  0  0  0  0
  8  9  2  0  0  0  0
  8 23  1  0  0  0  0
  9 10  1  0  0  0  0
  9 24  1  0  0  0  0
 10 25  1  0  0  0  0
 11 12  2  0  0  0  0
 11 26  1  0  0  0  0
 12 13  1  0  0  0  0
 12 27  1  0  0  0  0
 13 14  2  0  0  0  0
 13 15  1  0  0  0  0
 14 28  1  0  0  0  0
 15 16  1  0  0  0  0
 15 29  1  0  0  0  0
 15 30  1  0  0  0  0
 16 17  1  0  0  0  0
 16 31  1  0  0  0  0
 16 32  1  0  0  0  0
 17 18  1  0  0  0  0
 17 33  1  0  0  0  0
 17 34  1  0  0  0  0
 18 19  1  0  0  0  0
 18 35  1  0  0  0  0
 18 36  1  0  0  0  0
 19 37  1  0  0  0  0
 19 38  1  0  0  0  0
 19 39  1  0  0  0  0
M  END
>  <DRUGBANK_ID>
DB07178

>  <COMMON_NAME>
5-PENTYL-2-PHENOXYPHENOL

$$$$
