
 OpenBabel10282417133D

 27 26  0  0  1  0  0  0  0  0999 V2000
    1.4517   -6.1189    4.2023 C   0  0  0  0  0  0  0  0  0  0  0  0
    1.0592   -5.4364    2.9027 C   0  0  0  0  0  0  0  0  0  0  0  0
   -0.4338   -5.6218    2.6168 C   0  0  0  0  0  0  0  0  0  0  0  0
   -1.3383   -5.0198    3.7057 C   0  0  0  0  0  0  0  0  0  0  0  0
   -1.1209   -3.5162    3.8784 C   0  0  0  0  0  0  0  0  0  0  0  0
   -1.5291   -2.7532    2.6120 C   0  0  2  0  0  0  0  0  0  0  0  0
   -0.8477   -1.3947    2.5797 C   0  0  0  0  0  0  0  0  0  0  0  0
   -2.9776   -2.6811    2.5011 N   0  0  0  0  0  0  0  0  0  0  0  0
   -3.7022   -3.3797    1.5761 C   0  0  0  0  0  0  0  0  0  0  0  0
   -4.9273   -3.4451    1.5947 O   0  0  0  0  0  0  0  0  0  0  0  0
    0.9153   -5.6997    5.0589 H   0  0  0  0  0  0  0  0  0  0  0  0
    2.5181   -5.9944    4.3994 H   0  0  0  0  0  0  0  0  0  0  0  0
    1.2218   -7.1873    4.1474 H   0  0  0  0  0  0  0  0  0  0  0  0
    1.3264   -4.3740    2.9445 H   0  0  0  0  0  0  0  0  0  0  0  0
    1.6420   -5.8545    2.0748 H   0  0  0  0  0  0  0  0  0  0  0  0
   -0.6596   -5.1893    1.6364 H   0  0  0  0  0  0  0  0  0  0  0  0
   -0.6605   -6.6882    2.5156 H   0  0  0  0  0  0  0  0  0  0  0  0
   -2.3872   -5.2192    3.4642 H   0  0  0  0  0  0  0  0  0  0  0  0
   -1.1598   -5.5180    4.6643 H   0  0  0  0  0  0  0  0  0  0  0  0
   -1.6803   -3.1513    4.7487 H   0  0  0  0  0  0  0  0  0  0  0  0
   -0.0680   -3.3262    4.1192 H   0  0  0  0  0  0  0  0  0  0  0  0
   -1.1671   -3.2698    1.7212 H   0  0  0  0  0  0  0  0  0  0  0  0
    0.2128   -1.5150    2.8321 H   0  0  0  0  0  0  0  0  0  0  0  0
   -0.8878   -0.9759    1.5691 H   0  0  0  0  0  0  0  0  0  0  0  0
   -1.2916   -0.6797    3.2759 H   0  0  0  0  0  0  0  0  0  0  0  0
   -3.5261   -2.3256    3.2765 H   0  0  0  0  0  0  0  0  0  0  0  0
   -3.0956   -3.8727    0.8008 H   0  0  0  0  0  0  0  0  0  0  0  0
  1  2  1  0  0  0  0
  1 11  1  0  0  0  0
  1 12  1  0  0  0  0
  1 13  1  0  0  0  0
  2  3  1  0  0  0  0
  2 14  1  0  0  0  0
  2 15  1  0  0  0  0
  3  4  1  0  0  0  0
  3 16  1  0  0  0  0
  3 17  1  0  0  0  0
  4  5  1  0  0  0  0
  4 18  1  0  0  0  0
  4 19  1  0  0  0  0
  5 20  1  0  0  0  0
  5 21  1  0  0  0  0
  6  8  1  0  0  0  0
  6 22  1  6  0  0  0
  6  7  1  0  0  0  0
  6  5  1  0  0  0  0
  7 23  1  0  0  0  0
  7 24  1  0  0  0  0
  7 25  1  0  0  0  0
  8  9  1  0  0  0  0
  8 26  1  0  0  0  0
  9 10  2  0  0  0  0
  9 27  1  0  0  0  0
M  END
>  <DRUGBANK_ID>
DB03061

>  <SECONDARY_ACCESSION_NUMBERS>
EXPT02365

>  <COMMON_NAME>
(R)-N-(1-Methyl-Hexyl)-Formamide

$$$$
