AO2
 OpenBabel10282417133D

 49 50  0  0  0  0  0  0  0  0999 V2000
   -3.3573    2.9577   -4.5737 C   0  0  0  0  0  0  0  0  0  0  0  0
   -3.4634    2.7006   -6.0605 C   0  0  0  0  0  0  0  0  0  0  0  0
   -4.9122    2.7922   -6.5248 C   0  0  0  0  0  0  0  0  0  0  0  0
   -5.5481    4.1312   -6.1573 C   0  0  0  0  0  0  0  0  0  0  0  0
   -5.4399    4.3859   -4.6693 C   0  0  0  0  0  0  0  0  0  0  0  0
   -3.9674    4.3249   -4.2326 C   0  0  0  0  0  0  0  0  0  0  0  0
   -3.9395    4.5476   -2.7413 C   0  0  0  0  0  0  0  0  0  0  0  0
   -2.5915    4.4071   -2.0317 C   0  0  1  0  0  0  0  0  0  0  0  0
   -1.7141    5.4685   -2.5532 N   0  0  0  0  0  0  0  0  0  0  0  0
   -2.7256    4.4024   -0.4799 C   0  0  2  0  0  0  0  0  0  0  0  0
   -2.2984    3.1187    0.0071 O   0  0  0  0  0  0  0  0  0  0  0  0
   -4.1525    4.7322    0.0161 C   0  0  0  0  0  0  0  0  0  0  0  0
   -4.3966    5.8007    0.5930 O   0  0  0  0  0  0  0  0  0  0  0  0
   -5.1784    3.8340   -0.2298 N   0  0  0  0  0  0  0  0  0  0  0  0
   -4.9662    2.4938   -0.6009 N   0  0  0  0  0  0  0  0  0  0  0  0
   -6.0490    1.7983   -1.2045 C   0  0  0  0  0  0  0  0  0  0  0  0
   -7.2019    2.3713   -1.7584 C   0  0  0  0  0  0  0  0  0  0  0  0
   -8.2864    1.5620   -2.1465 C   0  0  0  0  0  0  0  0  0  0  0  0
   -8.2300    0.1719   -1.9944 C   0  0  0  0  0  0  0  0  0  0  0  0
   -7.0403   -0.4029   -1.5447 C   0  0  0  0  0  0  0  0  0  0  0  0
   -5.9561    0.4016   -1.1913 C   0  0  0  0  0  0  0  0  0  0  0  0
   -9.4199   -0.7016   -2.2680 C   0  0  0  0  0  0  0  0  0  0  0  0
   -2.1231    3.4537   -2.3036 H   0  0  0  0  0  0  0  0  0  0  0  0
   -2.0311    5.1356   -0.0492 H   0  0  0  0  0  0  0  0  0  0  0  0
   -3.8639    2.1572   -4.0140 H   0  0  0  0  0  0  0  0  0  0  0  0
   -2.3003    2.9140   -4.2928 H   0  0  0  0  0  0  0  0  0  0  0  0
   -2.8533    3.4459   -6.5838 H   0  0  0  0  0  0  0  0  0  0  0  0
   -3.0474    1.7146   -6.2895 H   0  0  0  0  0  0  0  0  0  0  0  0
   -4.9536    2.6539   -7.6074 H   0  0  0  0  0  0  0  0  0  0  0  0
   -5.4879    1.9800   -6.0624 H   0  0  0  0  0  0  0  0  0  0  0  0
   -5.0416    4.9449   -6.6883 H   0  0  0  0  0  0  0  0  0  0  0  0
   -6.6011    4.1445   -6.4538 H   0  0  0  0  0  0  0  0  0  0  0  0
   -5.8718    5.3613   -4.4123 H   0  0  0  0  0  0  0  0  0  0  0  0
   -6.0356    3.6347   -4.1329 H   0  0  0  0  0  0  0  0  0  0  0  0
   -3.4160    5.1235   -4.7376 H   0  0  0  0  0  0  0  0  0  0  0  0
   -4.4203    5.4981   -2.4791 H   0  0  0  0  0  0  0  0  0  0  0  0
   -4.6017    3.7651   -2.4117 H   0  0  0  0  0  0  0  0  0  0  0  0
   -0.7647    5.3345   -2.2103 H   0  0  0  0  0  0  0  0  0  0  0  0
   -1.6547    5.3870   -3.5692 H   0  0  0  0  0  0  0  0  0  0  0  0
   -2.8126    2.9512    0.8205 H   0  0  0  0  0  0  0  0  0  0  0  0
   -6.1103    4.0860    0.0815 H   0  0  0  0  0  0  0  0  0  0  0  0
   -4.0976    2.3016   -1.1160 H   0  0  0  0  0  0  0  0  0  0  0  0
   -7.2881    3.4446   -1.9095 H   0  0  0  0  0  0  0  0  0  0  0  0
   -9.1907    2.0266   -2.5376 H   0  0  0  0  0  0  0  0  0  0  0  0
   -6.9583   -1.4799   -1.4207 H   0  0  0  0  0  0  0  0  0  0  0  0
   -5.0461   -0.0688   -0.8285 H   0  0  0  0  0  0  0  0  0  0  0  0
   -9.1773   -1.4547   -3.0241 H   0  0  0  0  0  0  0  0  0  0  0  0
   -9.7293   -1.2096   -1.3470 H   0  0  0  0  0  0  0  0  0  0  0  0
  -10.2746   -0.1209   -2.6288 H   0  0  0  0  0  0  0  0  0  0  0  0
  1  2  1  0  0  0  0
  1  6  1  0  0  0  0
  1 25  1  0  0  0  0
  1 26  1  0  0  0  0
  2  3  1  0  0  0  0
  2 27  1  0  0  0  0
  2 28  1  0  0  0  0
  3  4  1  0  0  0  0
  3 29  1  0  0  0  0
  3 30  1  0  0  0  0
  4  5  1  0  0  0  0
  4 31  1  0  0  0  0
  4 32  1  0  0  0  0
  5  6  1  0  0  0  0
  5 33  1  0  0  0  0
  5 34  1  0  0  0  0
  6  7  1  0  0  0  0
  6 35  1  0  0  0  0
  7  8  1  0  0  0  0
  7 36  1  0  0  0  0
  7 37  1  0  0  0  0
  8  9  1  0  0  0  0
  8 23  1  6  0  0  0
  9 38  1  0  0  0  0
  9 39  1  0  0  0  0
 10 12  1  0  0  0  0
 10 24  1  1  0  0  0
 10 11  1  0  0  0  0
 10  8  1  0  0  0  0
 11 40  1  0  0  0  0
 12 13  2  0  0  0  0
 12 14  1  0  0  0  0
 14 15  1  0  0  0  0
 14 41  1  0  0  0  0
 15 16  1  0  0  0  0
 15 42  1  0  0  0  0
 16 17  1  0  0  0  0
 16 21  2  0  0  0  0
 17 18  2  0  0  0  0
 17 43  1  0  0  0  0
 18 19  1  0  0  0  0
 18 44  1  0  0  0  0
 19 20  2  0  0  0  0
 19 22  1  0  0  0  0
 20 21  1  0  0  0  0
 20 45  1  0  0  0  0
 21 46  1  0  0  0  0
 22 47  1  0  0  0  0
 22 48  1  0  0  0  0
 22 49  1  0  0  0  0
M  END
>  <DRUGBANK_ID>
DB03086

>  <SECONDARY_ACCESSION_NUMBERS>
EXPT00527

>  <COMMON_NAME>
N'-(2s,3r)-3-Amino-4-Cyclohexyl-2-Hydroxy-Butano-N-(4-Methylphenyl)Hydrazide

$$$$
