
 OpenBabel10282417113D

 21 22  0  0  0  0  0  0  0  0999 V2000
    1.1375   -0.0229    0.0017 N   0  0  0  0  0  0  0  0  0  0  0  0
    0.6248    0.2175   -1.3525 C   0  0  3  0  0  0  0  0  0  0  0  0
    1.4205   -0.2144   -2.5478 C   0  0  0  0  0  0  0  0  0  0  0  0
    1.3323    1.2515   -2.1973 C   0  0  3  0  0  0  0  0  0  0  0  0
    0.6281    2.2486   -3.0882 C   0  0  0  0  0  0  0  0  0  0  0  0
   -0.0728    3.3380   -2.5450 C   0  0  0  0  0  0  0  0  0  0  0  0
   -0.5284    4.3941   -3.3454 C   0  0  0  0  0  0  0  0  0  0  0  0
   -0.2824    4.3823   -4.7170 C   0  0  0  0  0  0  0  0  0  0  0  0
    0.3999    3.3133   -5.2818 C   0  0  0  0  0  0  0  0  0  0  0  0
    0.8256    2.2470   -4.4816 C   0  0  0  0  0  0  0  0  0  0  0  0
    0.8220   -0.9184    0.3711 H   0  0  0  0  0  0  0  0  0  0  0  0
    2.1569   -0.0536    0.0162 H   0  0  0  0  0  0  0  0  0  0  0  0
   -0.4539    0.1128   -1.4461 H   0  0  0  0  0  0  0  0  0  0  0  0
    2.3851   -0.6903   -2.4137 H   0  0  0  0  0  0  0  0  0  0  0  0
    0.8649   -0.5994   -3.3960 H   0  0  0  0  0  0  0  0  0  0  0  0
    2.2263    1.6763   -1.7435 H   0  0  0  0  0  0  0  0  0  0  0  0
   -0.2182    3.3982   -1.4667 H   0  0  0  0  0  0  0  0  0  0  0  0
   -1.0348    5.2417   -2.8939 H   0  0  0  0  0  0  0  0  0  0  0  0
   -0.6073    5.2142   -5.3374 H   0  0  0  0  0  0  0  0  0  0  0  0
    0.6398    3.3202   -6.3432 H   0  0  0  0  0  0  0  0  0  0  0  0
    1.3715    1.4307   -4.9451 H   0  0  0  0  0  0  0  0  0  0  0  0
  1  2  1  0  0  0  0
  1 11  1  0  0  0  0
  1 12  1  0  0  0  0
  2  3  1  0  0  0  0
  2  4  1  0  0  0  0
  2 13  1  0  0  0  0
  3  4  1  0  0  0  0
  3 14  1  0  0  0  0
  3 15  1  0  0  0  0
  4  5  1  0  0  0  0
  4 16  1  0  0  0  0
  5  6  2  0  0  0  0
  5 10  1  0  0  0  0
  6  7  1  0  0  0  0
  6 17  1  0  0  0  0
  7  8  2  0  0  0  0
  7 18  1  0  0  0  0
  8  9  1  0  0  0  0
  8 19  1  0  0  0  0
  9 10  2  0  0  0  0
  9 20  1  0  0  0  0
 10 21  1  0  0  0  0
M  END
>  <DRUGBANK_ID>
DB00752

>  <SECONDARY_ACCESSION_NUMBERS>
APRD00645

>  <COMMON_NAME>
Tranylcypromine

>  <CAS_NUMBER>
155-09-9

>  <UNII>
3E3V44J4Z9

>  <SYNONYMS>
(Â±)-trans-2-phenylcyclopropylamine; (1R*,2S*)-2-phenylcyclopropan-1-amine; dl-tranylcypromine; Racemic Tranylcypromine; Tranilcipromina; trans-2-phenylcyclopropylamine; trans-DL-2-Phenylcyclopropylamine; Transamine; Tranylcypromin; Tranylcypromine; Tranylcyprominum

$$$$
