1488
 OpenBabel10282417113D

 30 31  0  0  0  0  0  0  0  0999 V2000
    1.1311   -0.1838    0.3811 N   0  0  0  0  0  0  0  0  0  0  0  0
   -0.4390    2.2885   -3.5019 N   0  0  0  0  0  0  0  0  0  0  0  0
    0.8040    2.4111    0.0421 C   0  0  0  0  0  0  0  0  0  0  0  0
    0.2366    2.6018   -1.3692 C   0  0  0  0  0  0  0  0  0  0  0  0
    0.5025    1.0972    0.8164 C   0  0  0  0  0  0  0  0  0  0  0  0
    0.1417    3.8608   -2.0583 C   0  0  0  0  0  0  0  0  0  0  0  0
   -0.2950    3.6123   -3.3668 C   0  0  0  0  0  0  0  0  0  0  0  0
   -0.3002    1.7108   -2.2908 C   0  0  0  0  0  0  0  0  0  0  0  0
    0.3803    5.1914   -1.6927 C   0  0  0  0  0  0  0  0  0  0  0  0
   -0.5271    4.5805   -4.3262 C   0  0  0  0  0  0  0  0  0  0  0  0
    0.6795   -0.5262   -0.9480 C   0  0  0  0  0  0  0  0  0  0  0  0
    2.5869   -0.0990    0.2986 C   0  0  0  0  0  0  0  0  0  0  0  0
    0.1387    6.1920   -2.6442 C   0  0  0  0  0  0  0  0  0  0  0  0
   -0.3070    5.8856   -3.9342 C   0  0  0  0  0  0  0  0  0  0  0  0
   -0.7111    1.7858   -4.3507 H   0  0  0  0  0  0  0  0  0  0  0  0
    0.4418    3.2391    0.6718 H   0  0  0  0  0  0  0  0  0  0  0  0
    1.8914    2.5690    0.0144 H   0  0  0  0  0  0  0  0  0  0  0  0
   -0.5901    0.9782    0.8647 H   0  0  0  0  0  0  0  0  0  0  0  0
    0.8024    1.2394    1.8665 H   0  0  0  0  0  0  0  0  0  0  0  0
   -0.5398    0.6785   -2.3368 H   0  0  0  0  0  0  0  0  0  0  0  0
    0.7137    5.4416   -0.6903 H   0  0  0  0  0  0  0  0  0  0  0  0
   -0.8772    4.3006   -5.3139 H   0  0  0  0  0  0  0  0  0  0  0  0
    1.1938    0.1544   -1.6357 H   0  0  0  0  0  0  0  0  0  0  0  0
    0.9348   -1.5054   -1.3517 H   0  0  0  0  0  0  0  0  0  0  0  0
   -0.4149   -0.4777   -0.9527 H   0  0  0  0  0  0  0  0  0  0  0  0
    3.0272   -0.0917    1.2938 H   0  0  0  0  0  0  0  0  0  0  0  0
    2.9761   -0.9733   -0.2393 H   0  0  0  0  0  0  0  0  0  0  0  0
    2.9295    0.7764   -0.2630 H   0  0  0  0  0  0  0  0  0  0  0  0
    0.2963    7.2278   -2.3703 H   0  0  0  0  0  0  0  0  0  0  0  0
   -0.4902    6.6726   -4.6568 H   0  0  0  0  0  0  0  0  0  0  0  0
  1  5  1  0  0  0  0
  1 11  1  0  0  0  0
  1 12  1  0  0  0  0
  2  7  1  0  0  0  0
  2  8  1  0  0  0  0
  2 15  1  0  0  0  0
  3  4  1  0  0  0  0
  3  5  1  0  0  0  0
  3 16  1  0  0  0  0
  3 17  1  0  0  0  0
  4  6  1  0  0  0  0
  4  8  2  0  0  0  0
  5 18  1  0  0  0  0
  5 19  1  0  0  0  0
  6  7  1  0  0  0  0
  6  9  2  0  0  0  0
  7 10  2  0  0  0  0
  8 20  1  0  0  0  0
  9 13  1  0  0  0  0
  9 21  1  0  0  0  0
 10 14  1  0  0  0  0
 10 22  1  0  0  0  0
 11 23  1  0  0  0  0
 11 24  1  0  0  0  0
 11 25  1  0  0  0  0
 12 26  1  0  0  0  0
 12 27  1  0  0  0  0
 12 28  1  0  0  0  0
 13 14  2  0  0  0  0
 13 29  1  0  0  0  0
 14 30  1  0  0  0  0
M  END
>  <DRUGBANK_ID>
DB01488

>  <COMMON_NAME>
Dimethyltryptamine

>  <CAS_NUMBER>
61-50-7

>  <UNII>
WUB601BHAA

>  <SYNONYMS>
2-(3-indolyl)ethyldimethylamine; 3-(2-dimethylaminoethyl)indole; 3-[2-(dimethylamino)ethyl]indole; DMT; N,N-dimethyl-1H-indole-3-ethylamine; N,N-dimethyltryptamine

$$$$
