
 OpenBabel10282417213D

 59 62  0  0  0  0  0  0  0  0999 V2000
    7.7706   -4.0227   -4.9258 F   0  0  0  0  0  0  0  0  0  0  0  0
    4.5874   -7.2667   -6.5113 O   0  0  0  0  0  0  0  0  0  0  0  0
    5.9351   -4.7072   -2.2186 O   0  0  0  0  0  0  0  0  0  0  0  0
    6.5498   -4.2839   -6.9313 O   0  0  0  0  0  0  0  0  0  0  0  0
    3.8136   -4.7056   -8.2110 O   0  0  0  0  0  0  0  0  0  0  0  0
    6.9237    0.0544   -4.1019 O   0  0  0  0  0  0  0  0  0  0  0  0
    5.5321   -3.2336   -8.8101 O   0  0  0  0  0  0  0  0  0  0  0  0
    8.1024   -4.7144   -3.7448 C   0  0  2  0  0  0  0  0  0  0  0  0
    6.6587   -6.5574   -5.2767 C   0  0  1  0  0  0  0  0  0  0  0  0
    9.0576   -5.6830   -4.5387 C   0  0  2  0  0  0  0  0  0  0  0  0
    8.1286   -6.1682   -5.8309 C   0  0  2  0  0  0  0  0  0  0  0  0
    8.4361   -3.5154   -2.8394 C   0  0  2  0  0  0  0  0  0  0  0  0
    5.8678   -6.6591   -6.5851 C   0  0  1  0  0  0  0  0  0  0  0  0
    6.8161   -5.3944   -3.1258 C   0  0  2  0  0  0  0  0  0  0  0  0
    5.9535   -5.5905   -4.3166 C   0  0  0  0  0  0  0  0  0  0  0  0
    9.5333   -2.6716   -3.5317 C   0  0  0  0  0  0  0  0  0  0  0  0
    8.2645   -7.0718   -7.1299 C   0  0  0  0  0  0  0  0  0  0  0  0
    6.8414   -7.6511   -7.3125 C   0  0  0  0  0  0  0  0  0  0  0  0
   10.2689   -4.7678   -4.9648 C   0  0  0  0  0  0  0  0  0  0  0  0
    5.6406   -5.1122   -6.8651 C   0  0  0  0  0  0  0  0  0  0  0  0
    7.1476   -2.7131   -3.0920 C   0  0  0  0  0  0  0  0  0  0  0  0
   10.7105   -3.7513   -3.8365 C   0  0  0  0  0  0  0  0  0  0  0  0
    6.7777   -7.8561   -4.4469 C   0  0  0  0  0  0  0  0  0  0  0  0
    8.5519   -3.8893   -1.3425 C   0  0  0  0  0  0  0  0  0  0  0  0
    9.0496   -1.4408   -4.0236 C   0  0  0  0  0  0  0  0  0  0  0  0
    6.9586   -1.5745   -2.4463 C   0  0  0  0  0  0  0  0  0  0  0  0
    7.6041   -0.7812   -3.5143 C   0  0  0  0  0  0  0  0  0  0  0  0
    4.2211   -4.5592   -6.8515 C   0  0  0  0  0  0  0  0  0  0  0  0
    4.6300   -4.0594   -9.0873 C   0  0  0  0  0  0  0  0  0  0  0  0
    4.3911   -4.4529  -10.4762 C   0  0  0  0  0  0  0  0  0  0  0  0
    8.2129   -5.2570   -6.4232 H   0  0  0  0  0  0  0  0  0  0  0  0
    9.3693   -6.5478   -3.9354 H   0  0  0  0  0  0  0  0  0  0  0  0
    4.0521   -6.9005   -7.2487 H   0  0  0  0  0  0  0  0  0  0  0  0
    5.7769   -5.2706   -1.4437 H   0  0  0  0  0  0  0  0  0  0  0  0
    7.1634   -6.2312   -2.5260 H   0  0  0  0  0  0  0  0  0  0  0  0
    4.9211   -5.8821   -4.0958 H   0  0  0  0  0  0  0  0  0  0  0  0
    5.7887   -4.5706   -4.6964 H   0  0  0  0  0  0  0  0  0  0  0  0
    8.1119   -6.6506   -8.1410 H   0  0  0  0  0  0  0  0  0  0  0  0
    9.3119   -7.1346   -7.4704 H   0  0  0  0  0  0  0  0  0  0  0  0
    6.4703   -7.9363   -8.3081 H   0  0  0  0  0  0  0  0  0  0  0  0
    6.8312   -8.6329   -6.8387 H   0  0  0  0  0  0  0  0  0  0  0  0
   10.9708   -5.3922   -5.5430 H   0  0  0  0  0  0  0  0  0  0  0  0
   10.0155   -4.0386   -5.7327 H   0  0  0  0  0  0  0  0  0  0  0  0
    6.9244   -2.6430   -4.1825 H   0  0  0  0  0  0  0  0  0  0  0  0
   10.8603   -4.3293   -2.9012 H   0  0  0  0  0  0  0  0  0  0  0  0
   11.7092   -3.3269   -4.0148 H   0  0  0  0  0  0  0  0  0  0  0  0
    7.5806   -7.7639   -3.7116 H   0  0  0  0  0  0  0  0  0  0  0  0
    5.8509   -8.0466   -3.8985 H   0  0  0  0  0  0  0  0  0  0  0  0
    7.0398   -8.7475   -5.0015 H   0  0  0  0  0  0  0  0  0  0  0  0
    7.5634   -3.8110   -0.8704 H   0  0  0  0  0  0  0  0  0  0  0  0
    8.8555   -4.9306   -1.1857 H   0  0  0  0  0  0  0  0  0  0  0  0
    9.1927   -3.2398   -0.7406 H   0  0  0  0  0  0  0  0  0  0  0  0
    9.2859   -0.9556   -4.9751 H   0  0  0  0  0  0  0  0  0  0  0  0
    7.2444   -1.4711   -1.4168 H   0  0  0  0  0  0  0  0  0  0  0  0
    3.5678   -5.1132   -6.1633 H   0  0  0  0  0  0  0  0  0  0  0  0
    4.1769   -3.5130   -6.5127 H   0  0  0  0  0  0  0  0  0  0  0  0
    4.5322   -5.5281  -10.6065 H   0  0  0  0  0  0  0  0  0  0  0  0
    3.3915   -4.1172  -10.7407 H   0  0  0  0  0  0  0  0  0  0  0  0
    5.1328   -3.9290  -11.0878 H   0  0  0  0  0  0  0  0  0  0  0  0
  2 33  1  0  0  0  0
  3 34  1  0  0  0  0
  4 20  2  0  0  0  0
  5 28  1  0  0  0  0
  5 29  1  0  0  0  0
  6 27  2  0  0  0  0
  7 29  2  0  0  0  0
  8 10  1  0  0  0  0
  8 12  1  0  0  0  0
  8 14  1  0  0  0  0
  8  1  1  1  0  0  0
  9 11  1  0  0  0  0
  9 13  1  0  0  0  0
  9 15  1  0  0  0  0
  9 23  1  6  0  0  0
 10 11  1  0  0  0  0
 10 19  1  0  0  0  0
 10 32  1  6  0  0  0
 11 17  1  0  0  0  0
 11 31  1  1  0  0  0
 12 16  1  0  0  0  0
 12 21  1  0  0  0  0
 12 24  1  6  0  0  0
 13 18  1  0  0  0  0
 13  2  1  1  0  0  0
 13 20  1  0  0  0  0
 14 15  1  0  0  0  0
 14  3  1  0  0  0  0
 14 35  1  1  0  0  0
 15 36  1  0  0  0  0
 15 37  1  0  0  0  0
 16 22  1  0  0  0  0
 16 25  2  0  0  0  0
 17 18  1  0  0  0  0
 17 38  1  0  0  0  0
 17 39  1  0  0  0  0
 18 40  1  0  0  0  0
 18 41  1  0  0  0  0
 19 22  1  0  0  0  0
 19 42  1  0  0  0  0
 19 43  1  0  0  0  0
 20 28  1  0  0  0  0
 21 26  2  0  0  0  0
 21 44  1  0  0  0  0
 22 45  1  0  0  0  0
 22 46  1  0  0  0  0
 23 47  1  0  0  0  0
 23 48  1  0  0  0  0
 23 49  1  0  0  0  0
 24 50  1  0  0  0  0
 24 51  1  0  0  0  0
 24 52  1  0  0  0  0
 25 27  1  0  0  0  0
 25 53  1  0  0  0  0
 26 27  1  0  0  0  0
 26 54  1  0  0  0  0
 28 55  1  0  0  0  0
 28 56  1  0  0  0  0
 29 30  1  0  0  0  0
 30 57  1  0  0  0  0
 30 58  1  0  0  0  0
 30 59  1  0  0  0  0
M  END
>  <DRUGBANK_ID>
DB14640

>  <SECONDARY_ACCESSION_NUMBERS>
DBSALT001685

>  <COMMON_NAME>
Isoflupredone acetate

>  <CAS_NUMBER>
338-98-7

>  <UNII>
55P9TUL75S

>  <SYNONYMS>
Isoflupredone 21-acetate; Isoflupredone acetate

$$$$
