319
 OpenBabel10282417163D

 45 47  0  0  0  0  0  0  0  0999 V2000
   -1.2856    1.1791    0.0124 C   0  0  0  0  0  0  0  0  0  0  0  0
   -1.2571   -1.2383    0.0164 C   0  0  0  0  0  0  0  0  0  0  0  0
   -7.9217   -4.7294   -3.5193 C   0  0  0  0  0  0  0  0  0  0  0  0
   -8.3454   -5.2679   -4.7696 C   0  0  0  0  0  0  0  0  0  0  0  0
    0.1161    1.1926    0.0072 C   0  0  0  0  0  0  0  0  0  0  0  0
    0.1387   -1.2216    0.0144 C   0  0  0  0  0  0  0  0  0  0  0  0
   -7.1764   -5.6316   -9.2584 C   0  0  0  0  0  0  0  0  0  0  0  0
   -5.6900   -4.6080   -4.3687 C   0  0  0  0  0  0  0  0  0  0  0  0
   -6.0307   -7.2346   -7.8866 C   0  0  0  0  0  0  0  0  0  0  0  0
   -6.2354   -5.9049  -10.2392 C   0  0  0  0  0  0  0  0  0  0  0  0
   -1.9898   -0.0419    0.0105 C   0  0  0  0  0  0  0  0  0  0  0  0
   -6.5838   -4.3544   -3.3307 C   0  0  0  0  0  0  0  0  0  0  0  0
   -7.4320   -5.4736   -5.8223 C   0  0  0  0  0  0  0  0  0  0  0  0
   -7.0387   -6.2792   -8.0377 C   0  0  0  0  0  0  0  0  0  0  0  0
    0.8137   -0.0085    0.0077 C   0  0  0  0  0  0  0  0  0  0  0  0
   -6.1059   -5.1207   -5.5886 C   0  0  0  0  0  0  0  0  0  0  0  0
   -5.1299   -7.4421   -8.9234 C   0  0  0  0  0  0  0  0  0  0  0  0
   -4.0268   -0.7441   -1.3227 C   0  0  0  0  0  0  0  0  0  0  0  0
   -5.2945   -2.5274   -2.3534 C   0  0  0  0  0  0  0  0  0  0  0  0
   -3.5107   -0.1029   -0.0318 C   0  0  0  0  0  0  0  0  0  0  0  0
   -5.2219   -6.7905  -10.0952 N   0  0  0  0  0  0  0  0  0  0  0  0
   -4.1645   -8.4229   -8.8311 N   0  0  0  0  0  0  0  0  0  0  0  0
   -6.0957   -3.6648   -2.1654 N   0  0  0  0  0  0  0  0  0  0  0  0
   -4.8335   -1.8815   -1.2208 N   0  0  0  0  0  0  0  0  0  0  0  0
   -3.7042   -0.2122   -2.3905 O   0  0  0  0  0  0  0  0  0  0  0  0
   -5.0319   -2.1209   -3.4918 O   0  0  0  0  0  0  0  0  0  0  0  0
   -7.9254   -5.9744   -7.0187 O   0  0  0  0  0  0  0  0  0  0  0  0
    2.1536   -0.0001    0.0006 F   0  0  0  0  0  0  0  0  0  0  0  0
   -5.1561   -5.2290   -6.5244 F   0  0  0  0  0  0  0  0  0  0  0  0
   -1.8112    2.1324   -0.0040 H   0  0  0  0  0  0  0  0  0  0  0  0
   -1.7704   -2.1953   -0.0031 H   0  0  0  0  0  0  0  0  0  0  0  0
   -8.6747   -4.5380   -2.7576 H   0  0  0  0  0  0  0  0  0  0  0  0
   -9.4026   -5.4878   -4.9269 H   0  0  0  0  0  0  0  0  0  0  0  0
    0.6700    2.1274   -0.0096 H   0  0  0  0  0  0  0  0  0  0  0  0
    0.7018   -2.1487    0.0048 H   0  0  0  0  0  0  0  0  0  0  0  0
   -7.9677   -4.9153   -9.4399 H   0  0  0  0  0  0  0  0  0  0  0  0
   -4.6351   -4.3730   -4.2731 H   0  0  0  0  0  0  0  0  0  0  0  0
   -5.8936   -7.7451   -6.9420 H   0  0  0  0  0  0  0  0  0  0  0  0
   -6.2630   -5.3996  -11.2014 H   0  0  0  0  0  0  0  0  0  0  0  0
   -3.8865   -0.6084    0.8625 H   0  0  0  0  0  0  0  0  0  0  0  0
   -3.9129    0.9202   -0.0078 H   0  0  0  0  0  0  0  0  0  0  0  0
   -3.5062   -8.4343   -9.6002 H   0  0  0  0  0  0  0  0  0  0  0  0
   -3.8782   -8.7760   -7.9326 H   0  0  0  0  0  0  0  0  0  0  0  0
   -6.5921   -3.8037   -1.2970 H   0  0  0  0  0  0  0  0  0  0  0  0
   -5.0607   -2.2524   -0.3119 H   0  0  0  0  0  0  0  0  0  0  0  0
  1  5  2  0  0  0  0
  1 11  1  0  0  0  0
  1 30  1  0  0  0  0
  2  6  1  0  0  0  0
  2 11  2  0  0  0  0
  2 31  1  0  0  0  0
  3  4  2  0  0  0  0
  3 12  1  0  0  0  0
  3 32  1  0  0  0  0
  4 13  1  0  0  0  0
  4 33  1  0  0  0  0
  5 15  1  0  0  0  0
  5 34  1  0  0  0  0
  6 15  2  0  0  0  0
  6 35  1  0  0  0  0
  7 10  2  0  0  0  0
  7 14  1  0  0  0  0
  7 36  1  0  0  0  0
  8 12  2  0  0  0  0
  8 16  1  0  0  0  0
  8 37  1  0  0  0  0
  9 14  2  0  0  0  0
  9 17  1  0  0  0  0
  9 38  1  0  0  0  0
 10 21  1  0  0  0  0
 10 39  1  0  0  0  0
 11 20  1  0  0  0  0
 12 23  1  0  0  0  0
 13 16  2  0  0  0  0
 13 27  1  0  0  0  0
 14 27  1  0  0  0  0
 15 28  1  0  0  0  0
 16 29  1  0  0  0  0
 17 21  2  0  0  0  0
 17 22  1  0  0  0  0
 18 20  1  0  0  0  0
 18 24  1  0  0  0  0
 18 25  2  0  0  0  0
 19 23  1  0  0  0  0
 19 24  1  0  0  0  0
 19 26  2  0  0  0  0
 20 40  1  0  0  0  0
 20 41  1  0  0  0  0
 22 42  1  0  0  0  0
 22 43  1  0  0  0  0
 23 44  1  0  0  0  0
 24 45  1  0  0  0  0
M  END
>  <DRUGBANK_ID>
DB06995

>  <COMMON_NAME>
N-({4-[(2-aminopyridin-4-yl)oxy]-3-fluorophenyl}carbamoyl)-2-(4-fluorophenyl)acetamide

$$$$
