
 OpenBabel10282417213D

 53 55  0  0  0  0  0  0  0  0999 V2000
    1.4529    5.3536    1.1582 C   0  0  0  0  0  0  0  0  0  0  0  0
    1.2633    4.1956    0.1461 C   0  0  0  0  0  0  0  0  0  0  0  0
    3.7084    6.1248    0.3160 C   0  0  0  0  0  0  0  0  0  0  0  0
    2.3842    6.4276    0.6287 C   0  0  0  0  0  0  0  0  0  0  0  0
    4.6258    7.0505   -0.1905 C   0  0  0  0  0  0  0  0  0  0  0  0
    4.1929    8.3373   -0.4335 C   0  0  0  0  0  0  0  0  0  0  0  0
    2.8769    8.6792   -0.1168 C   0  0  0  0  0  0  0  0  0  0  0  0
    1.9851    7.7409    0.4300 C   0  0  0  0  0  0  0  0  0  0  0  0
    4.1182    4.8310    0.5762 N   0  0  0  0  0  0  0  0  0  0  0  0
    5.1677    4.7046    1.5495 C   0  0  0  0  0  0  0  0  0  0  0  0
    5.4364    3.2953    3.4215 O   0  0  0  0  0  0  0  0  0  0  0  0
    4.6033    4.1330    2.8295 C   0  0  0  0  0  0  0  0  0  0  0  0
    3.4824    4.2879    3.3155 O   0  0  0  0  0  0  0  0  0  0  0  0
    3.7338    3.8531   -0.3266 C   0  0  0  0  0  0  0  0  0  0  0  0
    4.3568    3.5821   -1.3506 O   0  0  0  0  0  0  0  0  0  0  0  0
    2.4147    3.1566    0.0757 C   0  0  1  0  0  0  0  0  0  0  0  0
    2.5233    2.4679    1.3981 N   0  0  0  0  0  0  0  0  0  0  0  0
    2.1980   -0.5291    1.2371 O   0  0  0  0  0  0  0  0  0  0  0  0
    3.1341    0.1635    0.8732 C   0  0  0  0  0  0  0  0  0  0  0  0
    3.9702   -0.2438   -0.0977 O   0  0  0  0  0  0  0  0  0  0  0  0
    3.5971    1.4611    1.4918 C   0  0  2  0  0  0  0  0  0  0  0  0
    4.0424    1.0542    2.9260 C   0  0  0  0  0  0  0  0  0  0  0  0
    5.5156    0.3830    2.9131 C   0  0  0  0  0  0  0  0  0  0  0  0
    6.7314    0.8700    2.0030 C   0  0  0  0  0  0  0  0  0  0  0  0
    8.0457    2.5957    0.7301 C   0  0  0  0  0  0  0  0  0  0  0  0
    7.2571    2.1751    1.8087 C   0  0  0  0  0  0  0  0  0  0  0  0
    7.4728   -0.0747    1.2977 C   0  0  0  0  0  0  0  0  0  0  0  0
    8.3548    0.3116    0.2527 C   0  0  0  0  0  0  0  0  0  0  0  0
    8.5674    1.6453   -0.0942 C   0  0  0  0  0  0  0  0  0  0  0  0
    2.1747    2.4148   -0.7000 H   0  0  0  0  0  0  0  0  0  0  0  0
    0.4835    5.7829    1.4280 H   0  0  0  0  0  0  0  0  0  0  0  0
    1.8201    4.9892    2.1165 H   0  0  0  0  0  0  0  0  0  0  0  0
    1.1022    4.6293   -0.8497 H   0  0  0  0  0  0  0  0  0  0  0  0
    0.3463    3.6486    0.3990 H   0  0  0  0  0  0  0  0  0  0  0  0
    5.6440    6.7555   -0.4377 H   0  0  0  0  0  0  0  0  0  0  0  0
    4.8688    9.0600   -0.8813 H   0  0  0  0  0  0  0  0  0  0  0  0
    2.5333    9.6887   -0.3172 H   0  0  0  0  0  0  0  0  0  0  0  0
    0.9719    8.0407    0.6750 H   0  0  0  0  0  0  0  0  0  0  0  0
    5.9559    4.1356    1.0734 H   0  0  0  0  0  0  0  0  0  0  0  0
    5.5716    5.6556    1.8998 H   0  0  0  0  0  0  0  0  0  0  0  0
    5.4754    2.6198    2.7161 H   0  0  0  0  0  0  0  0  0  0  0  0
    2.6257    3.1828    2.1216 H   0  0  0  0  0  0  0  0  0  0  0  0
    3.6214   -1.1197   -0.3523 H   0  0  0  0  0  0  0  0  0  0  0  0
    4.4678    1.8320    0.9474 H   0  0  0  0  0  0  0  0  0  0  0  0
    3.9979    1.8434    3.6821 H   0  0  0  0  0  0  0  0  0  0  0  0
    3.2730    0.4136    3.3912 H   0  0  0  0  0  0  0  0  0  0  0  0
    5.8603    0.3298    3.9535 H   0  0  0  0  0  0  0  0  0  0  0  0
    5.2907   -0.6510    2.6124 H   0  0  0  0  0  0  0  0  0  0  0  0
    8.2436    3.6591    0.5803 H   0  0  0  0  0  0  0  0  0  0  0  0
    7.1552    3.0152    2.4778 H   0  0  0  0  0  0  0  0  0  0  0  0
    7.4020   -1.1288    1.5556 H   0  0  0  0  0  0  0  0  0  0  0  0
    8.8782   -0.4464   -0.3184 H   0  0  0  0  0  0  0  0  0  0  0  0
    9.1860    1.9503   -0.9322 H   0  0  0  0  0  0  0  0  0  0  0  0
  1  2  1  0  0  0  0
  1 31  1  0  0  0  0
  1 32  1  0  0  0  0
  2 16  1  0  0  0  0
  2 33  1  0  0  0  0
  2 34  1  0  0  0  0
  4  1  1  0  0  0  0
  4  3  1  0  0  0  0
  5  3  2  0  0  0  0
  5  6  1  0  0  0  0
  5 35  1  0  0  0  0
  6  7  2  0  0  0  0
  6 36  1  0  0  0  0
  7  8  1  0  0  0  0
  7 37  1  0  0  0  0
  8  4  2  0  0  0  0
  8 38  1  0  0  0  0
  9  3  1  0  0  0  0
  9 10  1  0  0  0  0
 10 12  1  0  0  0  0
 10 39  1  0  0  0  0
 10 40  1  0  0  0  0
 11 41  1  0  0  0  0
 12 11  1  0  0  0  0
 12 13  2  0  0  0  0
 14  9  1  0  0  0  0
 14 15  2  0  0  0  0
 16 14  1  0  0  0  0
 16 17  1  0  0  0  0
 16 30  1  6  0  0  0
 17 42  1  0  0  0  0
 19 18  2  0  0  0  0
 19 20  1  0  0  0  0
 20 43  1  0  0  0  0
 21 22  1  0  0  0  0
 21 44  1  6  0  0  0
 21 19  1  0  0  0  0
 21 17  1  0  0  0  0
 22 23  1  0  0  0  0
 22 45  1  0  0  0  0
 22 46  1  0  0  0  0
 23 24  1  0  0  0  0
 23 47  1  0  0  0  0
 23 48  1  0  0  0  0
 24 27  1  0  0  0  0
 25 26  1  0  0  0  0
 25 29  2  0  0  0  0
 25 49  1  0  0  0  0
 26 24  2  0  0  0  0
 26 50  1  0  0  0  0
 27 28  2  0  0  0  0
 27 51  1  0  0  0  0
 28 29  1  0  0  0  0
 28 52  1  0  0  0  0
 29 53  1  0  0  0  0
M  END
>  <DRUGBANK_ID>
DB14125

>  <COMMON_NAME>
Benazeprilat

>  <CAS_NUMBER>
86541-78-8

>  <UNII>
JRM708L703

>  <SYNONYMS>
(3S)-3-(((1S)-1-Carboxy-3-phenylpropyl)amino)-2,3,4,5-tetrahydro-2-oxo-1H-1-benzazepine-1-acetic acid; Benazepril diacid; Benazeprilat; Bénazéprilate; Benazeprilatum

$$$$
