
 OpenBabel10282417153D

 25 27  0  0  0  0  0  0  0  0999 V2000
    0.6385    1.3587   -0.3475 C   0  0  0  0  0  0  0  0  0  0  0  0
   -0.7553    1.3815    0.1140 N   0  0  0  0  0  0  0  0  0  0  0  0
   -1.2676    0.0428   -0.1638 C   0  0  0  0  0  0  0  0  0  0  0  0
    1.1588    0.0330    0.2000 C   0  0  1  0  0  0  0  0  0  0  0  0
   -0.1199   -0.7700    0.3975 C   0  0  2  0  0  0  0  0  0  0  0  0
    0.9180   -1.3141   -0.5060 C   0  0  0  0  0  0  0  0  0  0  0  0
    2.5695    0.1656    0.8216 C   0  0  0  0  0  0  0  0  0  0  0  0
   -0.4404   -1.4799    1.1433 H   0  0  0  0  0  0  0  0  0  0  0  0
    3.7308   -0.3482    0.1931 C   0  0  0  0  0  0  0  0  0  0  0  0
    5.0452   -0.0171    0.5922 C   0  0  0  0  0  0  0  0  0  0  0  0
    5.2476    0.8777    1.6485 C   0  0  0  0  0  0  0  0  0  0  0  0
    4.1375    1.4367    2.2634 C   0  0  0  0  0  0  0  0  0  0  0  0
    2.8303    1.0812    1.8713 C   0  0  0  0  0  0  0  0  0  0  0  0
    6.8198    1.3335    2.2071 Cl  0  0  0  0  0  0  0  0  0  0  0  0
    6.3728   -0.6871   -0.2931 Cl  0  0  0  0  0  0  0  0  0  0  0  0
    1.1609    2.2286    0.0581 H   0  0  0  0  0  0  0  0  0  0  0  0
    0.7011    1.3716   -1.4387 H   0  0  0  0  0  0  0  0  0  0  0  0
   -1.2930    2.1084   -0.3463 H   0  0  0  0  0  0  0  0  0  0  0  0
   -1.3878   -0.0962   -1.2480 H   0  0  0  0  0  0  0  0  0  0  0  0
   -2.2355   -0.1286    0.3164 H   0  0  0  0  0  0  0  0  0  0  0  0
    0.7459   -1.3387   -1.5701 H   0  0  0  0  0  0  0  0  0  0  0  0
    1.3957   -2.2109   -0.1136 H   0  0  0  0  0  0  0  0  0  0  0  0
    3.6228   -0.9847   -0.6888 H   0  0  0  0  0  0  0  0  0  0  0  0
    4.2770    2.1928    3.0410 H   0  0  0  0  0  0  0  0  0  0  0  0
    1.9989    1.6048    2.3351 H   0  0  0  0  0  0  0  0  0  0  0  0
  1  2  1  0  0  0  0
  1 16  1  0  0  0  0
  1 17  1  0  0  0  0
  2  3  1  0  0  0  0
  2 18  1  0  0  0  0
  3  5  1  0  0  0  0
  3 19  1  0  0  0  0
  3 20  1  0  0  0  0
  4  7  1  1  0  0  0
  4  1  1  0  0  0  0
  4  6  1  0  0  0  0
  5  8  1  1  0  0  0
  5  4  1  0  0  0  0
  6  5  1  0  0  0  0
  6 21  1  0  0  0  0
  6 22  1  0  0  0  0
  7  9  2  0  0  0  0
  9 10  1  0  0  0  0
  9 23  1  0  0  0  0
 10 11  2  0  0  0  0
 10 15  1  0  0  0  0
 11 12  1  0  0  0  0
 11 14  1  0  0  0  0
 12 13  2  0  0  0  0
 12 24  1  0  0  0  0
 13  7  1  0  0  0  0
 13 25  1  0  0  0  0
M  END
>  <DRUGBANK_ID>
DB05964

>  <COMMON_NAME>
Amitifadine

>  <CAS_NUMBER>
410074-73-6

>  <UNII>
GE0J375F8F

$$$$
