
 OpenBabel10282417173D

 63 67  0  0  1  0  0  0  0  0999 V2000
   -1.7487   -0.4485    0.1320 C   0  0  0  0  0  0  0  0  0  0  0  0
   -1.0721   -1.6250    0.7774 C   0  0  0  0  0  0  0  0  0  0  0  0
   -0.6774    0.0563   -0.9679 C   0  0  0  0  0  0  0  0  0  0  0  0
   -0.1183    1.2953   -0.9916 O   0  0  0  0  0  0  0  0  0  0  0  0
   -0.3331   -0.6856   -1.8625 O   0  0  0  0  0  0  0  0  0  0  0  0
   -0.5577    2.2888   -0.1115 C   0  0  2  0  0  0  0  0  0  0  0  0
   -2.0242    2.5958   -0.3661 C   0  0  3  0  0  0  0  0  0  0  0  0
    0.2227    3.5672   -0.3131 C   0  0  0  0  0  0  0  0  0  0  0  0
   -2.4234    3.6139    0.6939 C   0  0  0  0  0  0  0  0  0  0  0  0
   -2.4168    3.1276   -1.6913 C   0  0  0  0  0  0  0  0  0  0  0  0
   -0.7609    4.7039   -0.5957 N   0  3  3  0  0  0  0  0  0  0  0  0
   -1.7093    4.9037    0.5672 C   0  0  0  0  0  0  0  0  0  0  0  0
   -1.6975    4.4131   -1.8059 C   0  0  0  0  0  0  0  0  0  0  0  0
    0.0580    5.9292   -0.6673 C   0  0  0  0  0  0  0  0  0  0  0  0
   -1.5174   -2.9246    0.8034 C   0  0  0  0  0  0  0  0  0  0  0  0
   -0.7473   -3.7293    1.6731 C   0  0  0  0  0  0  0  0  0  0  0  0
    0.2819   -3.0321    2.2638 C   0  0  0  0  0  0  0  0  0  0  0  0
    0.3999   -1.4408    1.6622 S   0  0  0  0  0  0  0  0  0  0  0  0
    0.7929    6.1445   -1.9679 C   0  0  0  0  0  0  0  0  0  0  0  0
    0.0358    6.1149   -3.3026 C   0  0  0  0  0  0  0  0  0  0  0  0
   -1.1238    6.9483   -3.5610 O   0  0  0  0  0  0  0  0  0  0  0  0
   -2.0414    7.4081   -2.6578 C   0  0  0  0  0  0  0  0  0  0  0  0
   -1.7390    8.0136   -1.4515 C   0  0  0  0  0  0  0  0  0  0  0  0
   -2.6797    8.0467   -0.4007 C   0  0  0  0  0  0  0  0  0  0  0  0
   -4.0212    7.8909   -0.6808 C   0  0  0  0  0  0  0  0  0  0  0  0
   -4.3786    7.6728   -2.0045 C   0  0  0  0  0  0  0  0  0  0  0  0
   -3.4011    7.3255   -2.9615 C   0  0  0  0  0  0  0  0  0  0  0  0
   -2.4761    0.3775    1.2797 C   0  0  0  0  0  0  0  0  0  0  0  0
   -4.1562    1.0206    1.1761 S   0  0  0  0  0  0  0  0  0  0  0  0
   -2.1998    0.4912    2.6441 C   0  0  0  0  0  0  0  0  0  0  0  0
   -3.8335    2.1204    2.4762 C   0  0  0  0  0  0  0  0  0  0  0  0
   -2.8547    1.5892    3.2788 C   0  0  0  0  0  0  0  0  0  0  0  0
   -2.8225   -0.9351   -0.6986 O   0  0  0  0  0  0  0  0  0  0  0  0
   -0.3425    1.9403    0.9027 H   0  0  0  0  0  0  0  0  0  0  0  0
   -2.5659    1.6856   -0.4670 H   0  0  0  0  0  0  0  0  0  0  0  0
    0.7538    3.8382    0.6109 H   0  0  0  0  0  0  0  0  0  0  0  0
    0.9337    3.5197   -1.1405 H   0  0  0  0  0  0  0  0  0  0  0  0
   -2.0736    3.2864    1.6646 H   0  0  0  0  0  0  0  0  0  0  0  0
   -3.4930    3.8278    0.6400 H   0  0  0  0  0  0  0  0  0  0  0  0
   -2.1612    2.4489   -2.5170 H   0  0  0  0  0  0  0  0  0  0  0  0
   -3.5079    3.2596   -1.7544 H   0  0  0  0  0  0  0  0  0  0  0  0
   -1.1607    5.1877    1.4756 H   0  0  0  0  0  0  0  0  0  0  0  0
   -2.4416    5.6809    0.3489 H   0  0  0  0  0  0  0  0  0  0  0  0
   -2.4387    5.1963   -1.8897 H   0  0  0  0  0  0  0  0  0  0  0  0
   -1.1041    4.1969   -2.6573 H   0  0  0  0  0  0  0  0  0  0  0  0
   -0.6203    6.6844   -0.3771 H   0  0  0  0  0  0  0  0  0  0  0  0
    0.7319    5.9732    0.2009 H   0  0  0  0  0  0  0  0  0  0  0  0
   -2.4000   -3.2495    0.2666 H   0  0  0  0  0  0  0  0  0  0  0  0
   -0.9651   -4.7676    1.8740 H   0  0  0  0  0  0  0  0  0  0  0  0
    0.9885   -3.3953    2.9964 H   0  0  0  0  0  0  0  0  0  0  0  0
    1.2803    7.1182   -1.9023 H   0  0  0  0  0  0  0  0  0  0  0  0
    1.6069    5.4054   -1.9994 H   0  0  0  0  0  0  0  0  0  0  0  0
    0.7672    6.3329   -4.0860 H   0  0  0  0  0  0  0  0  0  0  0  0
   -0.1561    5.0913   -3.6382 H   0  0  0  0  0  0  0  0  0  0  0  0
   -0.7188    8.3178   -1.2410 H   0  0  0  0  0  0  0  0  0  0  0  0
   -2.3558    8.1472    0.6368 H   0  0  0  0  0  0  0  0  0  0  0  0
   -4.7680    7.9966    0.1047 H   0  0  0  0  0  0  0  0  0  0  0  0
   -5.4231    7.7680   -2.2895 H   0  0  0  0  0  0  0  0  0  0  0  0
   -3.7269    6.9910   -3.9426 H   0  0  0  0  0  0  0  0  0  0  0  0
   -1.4746   -0.1169    3.1564 H   0  0  0  0  0  0  0  0  0  0  0  0
   -4.3120    3.0954    2.5846 H   0  0  0  0  0  0  0  0  0  0  0  0
   -2.5905    2.0027    4.2440 H   0  0  0  0  0  0  0  0  0  0  0  0
   -2.4209   -1.5513   -1.3411 H   0  0  0  0  0  0  0  0  0  0  0  0
  1  2  1  0  0  0  0
  1  3  1  0  0  0  0
  1 28  1  0  0  0  0
  1 33  1  0  0  0  0
  2 15  2  0  0  0  0
  2 18  1  0  0  0  0
  3  4  1  0  0  0  0
  3  5  2  0  0  0  0
  6  7  1  0  0  0  0
  6  8  1  0  0  0  0
  6 34  1  1  0  0  0
  6  4  1  0  0  0  0
  7  9  1  0  0  0  0
  7 10  1  0  0  0  0
  7 35  1  0  0  0  0
  8 11  1  0  0  0  0
  8 36  1  0  0  0  0
  8 37  1  0  0  0  0
  9 12  1  0  0  0  0
  9 38  1  0  0  0  0
  9 39  1  0  0  0  0
 10 13  1  0  0  0  0
 10 40  1  0  0  0  0
 10 41  1  0  0  0  0
 11 12  1  0  0  0  0
 11 13  1  0  0  0  0
 11 14  1  0  0  0  0
 12 42  1  0  0  0  0
 12 43  1  0  0  0  0
 13 44  1  0  0  0  0
 13 45  1  0  0  0  0
 14 19  1  0  0  0  0
 14 46  1  0  0  0  0
 14 47  1  0  0  0  0
 15 16  1  0  0  0  0
 15 48  1  0  0  0  0
 16 17  2  0  0  0  0
 16 49  1  0  0  0  0
 17 18  1  0  0  0  0
 17 50  1  0  0  0  0
 19 20  1  0  0  0  0
 19 51  1  0  0  0  0
 19 52  1  0  0  0  0
 20 21  1  0  0  0  0
 20 53  1  0  0  0  0
 20 54  1  0  0  0  0
 21 22  1  0  0  0  0
 22 23  2  0  0  0  0
 22 27  1  0  0  0  0
 23 24  1  0  0  0  0
 23 55  1  0  0  0  0
 24 25  2  0  0  0  0
 24 56  1  0  0  0  0
 25 26  1  0  0  0  0
 25 57  1  0  0  0  0
 26 27  2  0  0  0  0
 26 58  1  0  0  0  0
 27 59  1  0  0  0  0
 29 28  1  0  0  0  0
 30 28  2  0  0  0  0
 30 60  1  0  0  0  0
 31 29  1  0  0  0  0
 31 61  1  0  0  0  0
 32 30  1  0  0  0  0
 32 31  2  0  0  0  0
 32 62  1  0  0  0  0
 33 63  1  0  0  0  0
M  CHG  1  11   1
M  END
>  <DRUGBANK_ID>
DB08897

>  <COMMON_NAME>
Aclidinium

>  <CAS_NUMBER>
727649-81-2

>  <UNII>
K17VY42F6C

>  <SYNONYMS>
Aclidinio

$$$$
