C4H
 OpenBabel10282417163D

 54 55  0  0  0  0  0  0  0  0999 V2000
   -0.0578   -0.7162   -0.0197 C   0  0  0  0  0  0  0  0  0  0  0  0
   -1.3983   -1.2198   -0.0664 C   0  0  0  0  0  0  0  0  0  0  0  0
    1.1906   -1.5020   -0.0101 C   0  0  0  0  0  0  0  0  0  0  0  0
    1.2896   -2.9012    0.0295 N   0  0  0  0  0  0  0  0  0  0  0  0
    0.2163   -3.8664    0.1279 C   0  0  0  0  0  0  0  0  0  0  0  0
    2.6043   -3.5587    0.0281 C   0  0  0  0  0  0  0  0  0  0  0  0
    2.4146   -0.7776   -0.0364 C   0  0  0  0  0  0  0  0  0  0  0  0
    2.4721    0.5954   -0.0135 C   0  0  0  0  0  0  0  0  0  0  0  0
    1.2920    1.3014    0.0411 C   0  0  0  0  0  0  0  0  0  0  0  0
    0.0028    0.7097    0.0111 C   0  0  0  0  0  0  0  0  0  0  0  0
   -1.2324    1.4627    0.0066 C   0  0  0  0  0  0  0  0  0  0  0  0
   -2.4984    0.8723   -0.0157 C   0  0  0  0  0  0  0  0  0  0  0  0
   -2.5777   -0.4844   -0.0362 C   0  0  0  0  0  0  0  0  0  0  0  0
   -1.2851    3.2217    0.1310 S   0  0  0  0  0  0  0  0  0  0  0  0
   -2.0809    3.7294   -1.2907 N   0  0  0  0  0  0  0  0  0  0  0  0
   -2.1789    5.2142   -1.3684 C   0  0  0  0  0  0  0  0  0  0  0  0
   -0.8039    5.8427   -1.4761 C   0  0  0  0  0  0  0  0  0  0  0  0
   -0.0895    5.2492   -2.6689 C   0  0  0  0  0  0  0  0  0  0  0  0
   -0.7683    5.7057   -3.9786 C   0  0  0  0  0  0  0  0  0  0  0  0
   -0.5941    7.1297   -4.1594 N   0  0  0  0  0  0  0  0  0  0  0  0
    0.0808    7.7898   -5.1374 C   0  0  0  0  0  0  0  0  0  0  0  0
    0.0778    9.0214   -5.1131 O   0  0  0  0  0  0  0  0  0  0  0  0
    0.7650    7.0185   -6.2565 C   0  0  0  0  0  0  0  0  0  0  0  0
    2.0925    6.3223   -5.9560 C   0  0  0  0  0  0  0  0  0  0  0  0
    2.1537    4.9219   -4.8617 S   0  0  0  0  0  0  0  0  0  0  0  0
   -2.1598    3.5820    1.2374 O   0  0  0  0  0  0  0  0  0  0  0  0
    0.0428    3.7409    0.0514 O   0  0  0  0  0  0  0  0  0  0  0  0
   -1.6582   -2.2490   -0.1762 H   0  0  0  0  0  0  0  0  0  0  0  0
    0.1526   -4.4529   -0.7937 H   0  0  0  0  0  0  0  0  0  0  0  0
    0.3622   -4.5169    0.9934 H   0  0  0  0  0  0  0  0  0  0  0  0
   -0.7575   -3.4940    0.3348 H   0  0  0  0  0  0  0  0  0  0  0  0
    3.1622   -3.3319   -0.8866 H   0  0  0  0  0  0  0  0  0  0  0  0
    3.1882   -3.2851    0.9141 H   0  0  0  0  0  0  0  0  0  0  0  0
    2.4933   -4.6498    0.0573 H   0  0  0  0  0  0  0  0  0  0  0  0
    3.3831   -1.2676   -0.0623 H   0  0  0  0  0  0  0  0  0  0  0  0
    3.4177    1.1328   -0.0244 H   0  0  0  0  0  0  0  0  0  0  0  0
    1.4712    2.3632    0.1071 H   0  0  0  0  0  0  0  0  0  0  0  0
   -3.4139    1.4577   -0.0036 H   0  0  0  0  0  0  0  0  0  0  0  0
   -3.5280   -1.0108   -0.0406 H   0  0  0  0  0  0  0  0  0  0  0  0
   -1.6889    3.2807   -2.1235 H   0  0  0  0  0  0  0  0  0  0  0  0
   -2.7759    5.4820   -2.2436 H   0  0  0  0  0  0  0  0  0  0  0  0
   -2.7116    5.6102   -0.5058 H   0  0  0  0  0  0  0  0  0  0  0  0
   -0.8403    6.9312   -1.5571 H   0  0  0  0  0  0  0  0  0  0  0  0
   -0.1952    5.7154   -0.5785 H   0  0  0  0  0  0  0  0  0  0  0  0
    0.9353    5.5769   -2.4828 H   0  0  0  0  0  0  0  0  0  0  0  0
   -0.0149    4.1534   -2.6657 H   0  0  0  0  0  0  0  0  0  0  0  0
   -0.4262    5.1729   -4.8641 H   0  0  0  0  0  0  0  0  0  0  0  0
   -1.8400    5.4934   -3.9829 H   0  0  0  0  0  0  0  0  0  0  0  0
   -1.0274    7.7564   -3.4876 H   0  0  0  0  0  0  0  0  0  0  0  0
    0.0304    6.3687   -6.7430 H   0  0  0  0  0  0  0  0  0  0  0  0
    1.0210    7.7827   -7.0030 H   0  0  0  0  0  0  0  0  0  0  0  0
    2.5223    5.9260   -6.8709 H   0  0  0  0  0  0  0  0  0  0  0  0
    2.7634    7.0390   -5.4807 H   0  0  0  0  0  0  0  0  0  0  0  0
    1.6190    5.7346   -3.9612 H   0  0  0  0  0  0  0  0  0  0  0  0
  1  2  1  0  0  0  0
  1  3  2  0  0  0  0
  1 10  1  0  0  0  0
  2 13  2  0  0  0  0
  2 28  1  0  0  0  0
  3  4  1  0  0  0  0
  3  7  1  0  0  0  0
  4  5  1  0  0  0  0
  4  6  1  0  0  0  0
  5 29  1  0  0  0  0
  5 30  1  0  0  0  0
  5 31  1  0  0  0  0
  6 32  1  0  0  0  0
  6 33  1  0  0  0  0
  6 34  1  0  0  0  0
  7  8  2  0  0  0  0
  7 35  1  0  0  0  0
  8  9  1  0  0  0  0
  8 36  1  0  0  0  0
  9 10  2  0  0  0  0
  9 37  1  0  0  0  0
 10 11  1  0  0  0  0
 11 12  2  0  0  0  0
 11 14  1  0  0  0  0
 12 13  1  0  0  0  0
 12 38  1  0  0  0  0
 13 39  1  0  0  0  0
 14 15  1  0  0  0  0
 14 26  2  0  0  0  0
 14 27  2  0  0  0  0
 15 16  1  0  0  0  0
 15 40  1  0  0  0  0
 16 17  1  0  0  0  0
 16 41  1  0  0  0  0
 16 42  1  0  0  0  0
 17 18  1  0  0  0  0
 17 43  1  0  0  0  0
 17 44  1  0  0  0  0
 18 19  1  0  0  0  0
 18 45  1  0  0  0  0
 18 46  1  0  0  0  0
 19 20  1  0  0  0  0
 19 47  1  0  0  0  0
 19 48  1  0  0  0  0
 20 21  1  0  0  0  0
 20 49  1  0  0  0  0
 21 22  2  0  0  0  0
 21 23  1  0  0  0  0
 23 24  1  0  0  0  0
 23 50  1  0  0  0  0
 23 51  1  0  0  0  0
 24 25  1  0  0  0  0
 24 52  1  0  0  0  0
 24 53  1  0  0  0  0
 25 54  1  0  0  0  0
M  END
>  <DRUGBANK_ID>
DB07526

>  <COMMON_NAME>
N-[4-({[5-(DIMETHYLAMINO)-1-NAPHTHYL]SULFONYL}AMINO)BUTYL]-3-SULFANYLPROPANAMIDE

$$$$
