
 OpenBabel10282417123D

 44 45  0  0  1  0  0  0  0  0999 V2000
   -2.4871   -8.7425    0.6240 C   0  0  0  0  0  0  0  0  0  0  0  0
   -1.6668   -8.4721    1.8380 C   0  0  0  0  0  0  0  0  0  0  0  0
   -2.2092   -7.6278    2.7171 N   0  0  0  0  0  0  0  0  0  0  0  0
   -1.5341   -7.4849    3.8457 C   0  0  0  0  0  0  0  0  0  0  0  0
   -0.2877   -7.9911    4.1166 C   0  0  0  0  0  0  0  0  0  0  0  0
    0.4354   -7.5943    5.3446 C   0  0  0  0  0  0  0  0  0  0  0  0
    0.9899   -6.2443    5.2564 N   0  3  0  0  0  0  0  0  0  0  0  0
    2.3037   -6.1050    5.3534 C   0  0  0  0  0  0  0  0  0  0  0  0
    2.6696   -4.5425    5.8526 S   0  0  0  0  0  0  0  0  0  0  0  0
    1.1271   -3.9659    5.3229 C   0  0  0  0  0  0  0  0  0  0  0  0
    0.7432   -2.5269    5.1148 C   0  0  0  0  0  0  0  0  0  0  0  0
    1.3145   -1.6598    6.2239 C   0  0  0  0  0  0  0  0  0  0  0  0
    2.7432   -1.6838    6.1830 O   0  0  0  0  0  0  0  0  0  0  0  0
    3.3874   -1.1396    4.7479 P   0  0  2  0  0  0  0  0  0  0  0  0
    3.5452    0.4085    5.5038 O   0  0  0  0  0  0  0  0  0  0  0  0
    2.1547   -0.4309    4.1379 O   0  0  0  0  0  0  0  0  0  0  0  0
    3.2296   -2.6877    3.9920 O   0  0  0  0  0  0  0  0  0  0  0  0
    3.8021   -2.5939    2.3621 P   0  0  2  0  0  0  0  0  0  0  0  0
    4.8232   -3.9621    2.6421 O   0  0  0  0  0  0  0  0  0  0  0  0
    5.1525   -1.8767    2.5297 O   0  5  0  0  0  0  0  0  0  0  0  0
    2.8883   -1.3694    2.1116 O   0  0  0  0  0  0  0  0  0  0  0  0
    0.2866   -5.0359    5.2363 C   0  0  0  0  0  0  0  0  0  0  0  0
   -1.1756   -4.8727    5.1537 C   0  0  0  0  0  0  0  0  0  0  0  0
    0.1471   -8.9300    3.2003 C   0  0  0  0  0  0  0  0  0  0  0  0
    1.1381   -9.8371    3.5135 N   0  0  0  0  0  0  0  0  0  0  0  0
   -0.5360   -9.1698    2.0683 N   0  0  0  0  0  0  0  0  0  0  0  0
   -1.8792   -8.6447   -0.2761 H   0  0  0  0  0  0  0  0  0  0  0  0
   -2.9089   -9.7480    0.6930 H   0  0  0  0  0  0  0  0  0  0  0  0
   -3.3198   -8.0305    0.5593 H   0  0  0  0  0  0  0  0  0  0  0  0
   -2.1028   -6.9418    4.5884 H   0  0  0  0  0  0  0  0  0  0  0  0
   -0.2054   -7.6325    6.2301 H   0  0  0  0  0  0  0  0  0  0  0  0
    1.2657   -8.2807    5.5544 H   0  0  0  0  0  0  0  0  0  0  0  0
    3.0555   -6.8817    5.3106 H   0  0  0  0  0  0  0  0  0  0  0  0
    1.0099   -2.2613    4.0858 H   0  0  0  0  0  0  0  0  0  0  0  0
   -0.3360   -2.3618    5.0921 H   0  0  0  0  0  0  0  0  0  0  0  0
    0.9439   -0.6294    6.1593 H   0  0  0  0  0  0  0  0  0  0  0  0
    0.9861   -2.0509    7.1910 H   0  0  0  0  0  0  0  0  0  0  0  0
    2.7587    0.8447    5.1115 H   0  0  0  0  0  0  0  0  0  0  0  0
    5.5927   -3.4601    2.9956 H   0  0  0  0  0  0  0  0  0  0  0  0
   -1.5259   -5.0437    4.1352 H   0  0  0  0  0  0  0  0  0  0  0  0
   -1.6663   -5.4738    5.9187 H   0  0  0  0  0  0  0  0  0  0  0  0
   -1.5128   -3.8547    5.3636 H   0  0  0  0  0  0  0  0  0  0  0  0
    1.3309  -10.4464    2.7168 H   0  0  0  0  0  0  0  0  0  0  0  0
    1.9599   -9.6021    4.0461 H   0  0  0  0  0  0  0  0  0  0  0  0
  1  2  1  0  0  0  0
  1 27  1  0  0  0  0
  1 28  1  0  0  0  0
  1 29  1  0  0  0  0
  2  3  2  0  0  0  0
  2 26  1  0  0  0  0
  3  4  1  0  0  0  0
  4  5  2  0  0  0  0
  4 30  1  0  0  0  0
  5  6  1  0  0  0  0
  5 24  1  0  0  0  0
  6  7  1  0  0  0  0
  6 31  1  0  0  0  0
  6 32  1  0  0  0  0
  7  8  2  0  0  0  0
  7 22  1  0  0  0  0
  8  9  1  0  0  0  0
  8 33  1  0  0  0  0
  9 10  1  0  0  0  0
 10 11  1  0  0  0  0
 10 22  2  0  0  0  0
 11 12  1  0  0  0  0
 11 34  1  0  0  0  0
 11 35  1  0  0  0  0
 12 13  1  0  0  0  0
 12 36  1  0  0  0  0
 12 37  1  0  0  0  0
 14 16  2  6  0  0  0
 14 17  1  0  0  0  0
 14 15  1  0  0  0  0
 14 13  1  0  0  0  0
 15 38  1  0  0  0  0
 18 20  1  1  0  0  0
 18 21  2  0  0  0  0
 18 19  1  0  0  0  0
 18 17  1  0  0  0  0
 19 39  1  0  0  0  0
 22 23  1  0  0  0  0
 23 40  1  0  0  0  0
 23 41  1  0  0  0  0
 23 42  1  0  0  0  0
 24 25  1  0  0  0  0
 24 26  2  0  0  0  0
 25 43  1  0  0  0  0
 25 44  1  0  0  0  0
M  CHG  2   7   1  20  -1
M  END
>  <DRUGBANK_ID>
DB01987

>  <SECONDARY_ACCESSION_NUMBERS>
EXPT03031; EXPT03093

>  <COMMON_NAME>
Cocarboxylase

>  <CAS_NUMBER>
136-08-3

>  <UNII>
Q57971654Y

>  <SYNONYMS>
Cocarboxylase; Thiamine diphosphate; Thiamine pyrophosphate

$$$$
