
 OpenBabel10282417163D

 39 42  0  0  0  0  0  0  0  0999 V2000
    1.0539   -0.0493    0.1266 O   0  0  0  0  0  0  0  0  0  0  0  0
    0.3301    0.6954    1.0105 C   0  0  0  0  0  0  0  0  0  0  0  0
   -2.8132    0.2596    2.8326 O   0  0  0  0  0  0  0  0  0  0  0  0
   -1.6547    0.8693    2.4083 C   0  0  0  0  0  0  0  0  0  0  0  0
   -0.1242    2.7137    2.1937 C   0  0  0  0  0  0  0  0  0  0  0  0
    0.7074    1.9818    1.3475 C   0  0  0  0  0  0  0  0  0  0  0  0
   -1.2900    2.1610    2.7769 C   0  0  0  0  0  0  0  0  0  0  0  0
   -3.5006    2.3064    3.9967 C   0  0  0  0  0  0  0  0  0  0  0  0
   -3.7340    0.9930    3.5570 C   0  0  0  0  0  0  0  0  0  0  0  0
   -4.4347    2.9196    4.8660 C   0  0  0  0  0  0  0  0  0  0  0  0
   -0.8377    0.1386    1.5321 C   0  0  0  0  0  0  0  0  0  0  0  0
   -4.8474    0.2838    4.0403 C   0  0  0  0  0  0  0  0  0  0  0  0
   -5.5118    2.1886    5.3836 C   0  0  0  0  0  0  0  0  0  0  0  0
   -5.7096    0.8750    4.9663 C   0  0  0  0  0  0  0  0  0  0  0  0
   -6.6863    0.0955    5.5223 O   0  0  0  0  0  0  0  0  0  0  0  0
   -2.1218    2.9234    3.8098 C   0  0  0  0  0  0  0  0  0  0  0  0
   -1.3165    3.1209    5.1312 C   0  0  0  0  0  0  0  0  0  0  0  0
   -0.1219    3.8844    5.0413 C   0  0  0  0  0  0  0  0  0  0  0  0
    0.8381    3.8840    6.0473 C   0  0  0  0  0  0  0  0  0  0  0  0
    0.5102    3.3727    7.2824 C   0  0  0  0  0  0  0  0  0  0  0  0
   -0.7486    2.8313    7.4860 C   0  0  0  0  0  0  0  0  0  0  0  0
   -1.6105    2.5717    6.4078 C   0  0  0  0  0  0  0  0  0  0  0  0
   -2.6302    1.5318    6.7249 C   0  0  0  0  0  0  0  0  0  0  0  0
   -2.7885    0.5104    6.0724 O   0  0  0  0  0  0  0  0  0  0  0  0
   -3.2639    1.7308    7.9004 O   0  0  0  0  0  0  0  0  0  0  0  0
    1.9799    0.2424    0.1491 H   0  0  0  0  0  0  0  0  0  0  0  0
    0.1662    3.7400    2.3802 H   0  0  0  0  0  0  0  0  0  0  0  0
    1.6060    2.4497    0.9546 H   0  0  0  0  0  0  0  0  0  0  0  0
   -4.2020    3.8843    5.3159 H   0  0  0  0  0  0  0  0  0  0  0  0
   -1.1111   -0.8711    1.2441 H   0  0  0  0  0  0  0  0  0  0  0  0
   -4.9447   -0.7785    3.8319 H   0  0  0  0  0  0  0  0  0  0  0  0
   -6.0854    2.6067    6.2073 H   0  0  0  0  0  0  0  0  0  0  0  0
   -7.1676    0.6162    6.1858 H   0  0  0  0  0  0  0  0  0  0  0  0
   -2.3113    3.9173    3.3718 H   0  0  0  0  0  0  0  0  0  0  0  0
    0.1330    4.4498    4.1527 H   0  0  0  0  0  0  0  0  0  0  0  0
    1.8278    4.2949    5.8668 H   0  0  0  0  0  0  0  0  0  0  0  0
    1.2286    3.3822    8.0935 H   0  0  0  0  0  0  0  0  0  0  0  0
   -1.0023    2.5331    8.4942 H   0  0  0  0  0  0  0  0  0  0  0  0
   -2.6676    1.4759    8.6305 H   0  0  0  0  0  0  0  0  0  0  0  0
  1 26  1  0  0  0  0
  2  1  1  0  0  0  0
  4  3  1  0  0  0  0
  4 11  2  0  0  0  0
  5  6  1  0  0  0  0
  5 27  1  0  0  0  0
  6  2  2  0  0  0  0
  6 28  1  0  0  0  0
  7  5  2  0  0  0  0
  7  4  1  0  0  0  0
  8  9  1  0  0  0  0
  8 10  2  0  0  0  0
  9  3  1  0  0  0  0
  9 12  2  0  0  0  0
 10 13  1  0  0  0  0
 10 29  1  0  0  0  0
 11  2  1  0  0  0  0
 11 30  1  0  0  0  0
 12 14  1  0  0  0  0
 12 31  1  0  0  0  0
 13 14  2  0  0  0  0
 13 32  1  0  0  0  0
 14 15  1  0  0  0  0
 15 33  1  0  0  0  0
 16  8  1  0  0  0  0
 16  7  1  0  0  0  0
 16 17  1  0  0  0  0
 16 34  1  0  0  0  0
 17 18  1  0  0  0  0
 18 19  2  0  0  0  0
 18 35  1  0  0  0  0
 19 20  1  0  0  0  0
 19 36  1  0  0  0  0
 20 21  2  0  0  0  0
 20 37  1  0  0  0  0
 21 22  1  0  0  0  0
 21 38  1  0  0  0  0
 22 17  2  0  0  0  0
 22 23  1  0  0  0  0
 23 25  1  0  0  0  0
 23 24  2  0  0  0  0
 25 39  1  0  0  0  0
M  END
>  <DRUGBANK_ID>
DB07764

>  <COMMON_NAME>
Fluorescin

>  <CAS_NUMBER>
518-44-5

>  <UNII>
ES5WQ31089

>  <SYNONYMS>
2-(3,6-dihydroxyxanthen-9-yl)benzoic acid

$$$$
