
 OpenBabel10282417173D

 62 63  0  0  0  0  0  0  0  0999 V2000
    1.0936    0.0437   -0.2775 C   0  0  0  0  0  0  0  0  0  0  0  0
    0.5010   -1.0831   -1.1213 C   0  0  0  0  0  0  0  0  0  0  0  0
    0.6594   -0.0718    1.1593 C   0  0  0  0  0  0  0  0  0  0  0  0
    0.9318   -2.5059   -0.7068 C   0  0  0  0  0  0  0  0  0  0  0  0
    3.6257    2.5488    0.5598 C   0  0  0  0  0  0  0  0  0  0  0  0
   -1.5037    0.5010    3.5866 C   0  0  0  0  0  0  0  0  0  0  0  0
    3.8965    2.8203   -0.7814 C   0  0  0  0  0  0  0  0  0  0  0  0
   -1.8523    1.7881    3.1345 C   0  0  0  0  0  0  0  0  0  0  0  0
    1.2204    0.9155    2.1259 C   0  0  0  0  0  0  0  0  0  0  0  0
    0.3956   -3.1051    0.6147 C   0  0  0  0  0  0  0  0  0  0  0  0
    3.0801    4.8654    0.9601 C   0  0  0  0  0  0  0  0  0  0  0  0
   -2.8928   -0.4808    1.8881 C   0  0  0  0  0  0  0  0  0  0  0  0
    1.1833    3.1843    2.8211 C   0  0  0  0  0  0  0  0  0  0  0  0
   -1.5210   -3.1295    2.1491 C   0  0  0  0  0  0  0  0  0  0  0  0
    3.2166    3.5666    1.4511 C   0  0  0  0  0  0  0  0  0  0  0  0
   -1.9428   -0.6492    2.9159 C   0  0  0  0  0  0  0  0  0  0  0  0
    3.8108    4.1315   -1.2217 C   0  0  0  0  0  0  0  0  0  0  0  0
   -2.6585    1.9210    2.0086 C   0  0  0  0  0  0  0  0  0  0  0  0
    3.3994    5.1382   -0.3549 C   0  0  0  0  0  0  0  0  0  0  0  0
   -3.2153    0.8005    1.4390 C   0  0  0  0  0  0  0  0  0  0  0  0
    2.7220    3.2544    2.8522 C   0  0  3  0  0  0  0  0  0  0  0  0
   -1.2556   -1.9886    3.1848 C   0  0  3  0  0  0  0  0  0  0  0  0
    0.6832    2.2289    1.8431 N   0  0  0  0  0  0  0  0  0  0  0  0
   -1.0457   -2.9302    0.7673 N   0  0  0  0  0  0  0  0  0  0  0  0
    4.1243    4.4770   -2.5043 O   0  0  0  0  0  0  0  0  0  0  0  0
   -2.8741    3.1403    1.4220 O   0  0  0  0  0  0  0  0  0  0  0  0
    3.2887    6.4297   -0.7767 O   0  0  0  0  0  0  0  0  0  0  0  0
   -4.0614    0.9196    0.3696 O   0  0  0  0  0  0  0  0  0  0  0  0
    3.1336    4.2225    3.8081 O   0  0  0  0  0  0  0  0  0  0  0  0
   -1.6399   -2.4388    4.4817 O   0  0  0  0  0  0  0  0  0  0  0  0
    0.7469    1.0009   -0.6845 H   0  0  0  0  0  0  0  0  0  0  0  0
    2.1836    0.0275   -0.3399 H   0  0  0  0  0  0  0  0  0  0  0  0
   -0.5919   -0.9954   -1.1515 H   0  0  0  0  0  0  0  0  0  0  0  0
    0.8322   -0.9100   -2.1525 H   0  0  0  0  0  0  0  0  0  0  0  0
   -0.4210   -0.0623    1.1521 H   0  0  0  0  0  0  0  0  0  0  0  0
    1.0172   -0.9877    1.5873 H   0  0  0  0  0  0  0  0  0  0  0  0
    0.6306   -3.1810   -1.5153 H   0  0  0  0  0  0  0  0  0  0  0  0
    2.0286   -2.5270   -0.6726 H   0  0  0  0  0  0  0  0  0  0  0  0
    3.6915    1.5109    0.8752 H   0  0  0  0  0  0  0  0  0  0  0  0
   -0.7443    0.4205    4.3695 H   0  0  0  0  0  0  0  0  0  0  0  0
    4.1599    2.0039   -1.4470 H   0  0  0  0  0  0  0  0  0  0  0  0
   -1.3808    2.6547    3.5713 H   0  0  0  0  0  0  0  0  0  0  0  0
    1.0022    0.6154    3.1548 H   0  0  0  0  0  0  0  0  0  0  0  0
    2.3011    0.8230    2.0686 H   0  0  0  0  0  0  0  0  0  0  0  0
    0.6408   -4.1709    0.6426 H   0  0  0  0  0  0  0  0  0  0  0  0
    0.9555   -2.7257    1.4684 H   0  0  0  0  0  0  0  0  0  0  0  0
    2.7011    5.6659    1.5841 H   0  0  0  0  0  0  0  0  0  0  0  0
   -3.3129   -1.3192    1.3549 H   0  0  0  0  0  0  0  0  0  0  0  0
    0.7383    4.1600    2.5866 H   0  0  0  0  0  0  0  0  0  0  0  0
    0.8099    2.9406    3.8235 H   0  0  0  0  0  0  0  0  0  0  0  0
   -2.6064   -3.2791    2.0992 H   0  0  0  0  0  0  0  0  0  0  0  0
   -1.1351   -4.0808    2.5327 H   0  0  0  0  0  0  0  0  0  0  0  0
    3.1395    2.3054    3.2048 H   0  0  0  0  0  0  0  0  0  0  0  0
   -0.1694   -1.8347    3.2360 H   0  0  0  0  0  0  0  0  0  0  0  0
    0.9201    2.5148    0.8924 H   0  0  0  0  0  0  0  0  0  0  0  0
   -1.3273   -2.0018    0.4556 H   0  0  0  0  0  0  0  0  0  0  0  0
    4.4412    3.6777   -2.9593 H   0  0  0  0  0  0  0  0  0  0  0  0
   -2.2252    3.7638    1.7874 H   0  0  0  0  0  0  0  0  0  0  0  0
    3.6073    6.4127   -1.6984 H   0  0  0  0  0  0  0  0  0  0  0  0
   -4.1529    1.8853    0.2460 H   0  0  0  0  0  0  0  0  0  0  0  0
    2.6731    5.0506    3.6018 H   0  0  0  0  0  0  0  0  0  0  0  0
   -2.5940   -2.2709    4.5528 H   0  0  0  0  0  0  0  0  0  0  0  0
  1 31  1  0  0  0  0
  1 32  1  0  0  0  0
  2  1  1  0  0  0  0
  2 33  1  0  0  0  0
  2 34  1  0  0  0  0
  3  1  1  0  0  0  0
  3 35  1  0  0  0  0
  3 36  1  0  0  0  0
  4  2  1  0  0  0  0
  4 37  1  0  0  0  0
  4 38  1  0  0  0  0
  5 39  1  0  0  0  0
  6 40  1  0  0  0  0
  7  5  2  0  0  0  0
  7 41  1  0  0  0  0
  8  6  2  0  0  0  0
  8 42  1  0  0  0  0
  9  3  1  0  0  0  0
  9 43  1  0  0  0  0
  9 44  1  0  0  0  0
 10  4  1  0  0  0  0
 10 45  1  0  0  0  0
 10 46  1  0  0  0  0
 11 47  1  0  0  0  0
 12 48  1  0  0  0  0
 13 49  1  0  0  0  0
 13 50  1  0  0  0  0
 14 51  1  0  0  0  0
 14 52  1  0  0  0  0
 15  5  1  0  0  0  0
 15 11  2  0  0  0  0
 16  6  1  0  0  0  0
 16 12  2  0  0  0  0
 17  7  1  0  0  0  0
 18  8  1  0  0  0  0
 19 11  1  0  0  0  0
 19 17  2  0  0  0  0
 20 12  1  0  0  0  0
 20 18  2  0  0  0  0
 21 13  1  0  0  0  0
 21 15  1  0  0  0  0
 21 53  1  0  0  0  0
 22 14  1  0  0  0  0
 22 16  1  0  0  0  0
 22 54  1  0  0  0  0
 23  9  1  0  0  0  0
 23 13  1  0  0  0  0
 23 55  1  0  0  0  0
 24 10  1  0  0  0  0
 24 14  1  0  0  0  0
 24 56  1  0  0  0  0
 25 17  1  0  0  0  0
 25 57  1  0  0  0  0
 26 18  1  0  0  0  0
 26 58  1  0  0  0  0
 27 19  1  0  0  0  0
 27 59  1  0  0  0  0
 28 20  1  0  0  0  0
 28 60  1  0  0  0  0
 29 21  1  0  0  0  0
 29 61  1  0  0  0  0
 30 22  1  0  0  0  0
 30 62  1  0  0  0  0
M  END
>  <DRUGBANK_ID>
DB08957

>  <COMMON_NAME>
Hexoprenaline

>  <CAS_NUMBER>
3215-70-1

>  <UNII>
G9L6B3W684

>  <SYNONYMS>
Hexoprenaline

$$$$
