Protocatechuic acid
 OpenBabel10282417133D

 17 17  0  0  0  0  0  0  0  0999 V2000
    0.7785   -0.1363   -0.0220 O   0  0  0  0  0  0  0  0  0  0  0  0
    0.2258    0.4944    1.0289 C   0  0  0  0  0  0  0  0  0  0  0  0
    0.9048    1.0534    1.8730 O   0  0  0  0  0  0  0  0  0  0  0  0
   -1.2548    0.4779    0.9835 C   0  0  0  0  0  0  0  0  0  0  0  0
   -1.9674   -0.6809    0.6347 C   0  0  0  0  0  0  0  0  0  0  0  0
   -3.3641   -0.6574    0.6746 C   0  0  0  0  0  0  0  0  0  0  0  0
   -4.1198   -1.7570    0.3696 O   0  0  0  0  0  0  0  0  0  0  0  0
   -4.0416    0.5050    1.0437 C   0  0  0  0  0  0  0  0  0  0  0  0
   -5.4065    0.5425    1.0991 O   0  0  0  0  0  0  0  0  0  0  0  0
   -3.3410    1.6560    1.3745 C   0  0  0  0  0  0  0  0  0  0  0  0
   -1.9438    1.6421    1.3552 C   0  0  0  0  0  0  0  0  0  0  0  0
    1.7452    0.0031    0.0869 H   0  0  0  0  0  0  0  0  0  0  0  0
   -1.4260   -1.5819    0.3644 H   0  0  0  0  0  0  0  0  0  0  0  0
   -3.5269   -2.4899    0.1292 H   0  0  0  0  0  0  0  0  0  0  0  0
   -5.7103   -0.3528    0.8548 H   0  0  0  0  0  0  0  0  0  0  0  0
   -3.8827    2.5543    1.6550 H   0  0  0  0  0  0  0  0  0  0  0  0
   -1.3979    2.5417    1.6310 H   0  0  0  0  0  0  0  0  0  0  0  0
  1  2  1  0  0  0  0
  1 12  1  0  0  0  0
  2  3  2  0  0  0  0
  2  4  1  0  0  0  0
  4  5  2  0  0  0  0
  4 11  1  0  0  0  0
  5  6  1  0  0  0  0
  5 13  1  0  0  0  0
  6  7  1  0  0  0  0
  6  8  2  0  0  0  0
  7 14  1  0  0  0  0
  8  9  1  0  0  0  0
  8 10  1  0  0  0  0
  9 15  1  0  0  0  0
 10 11  2  0  0  0  0
 10 16  1  0  0  0  0
 11 17  1  0  0  0  0
M  END
>  <DRUGBANK_ID>
DB03946

>  <SECONDARY_ACCESSION_NUMBERS>
EXPT01187

>  <COMMON_NAME>
3,4-Dihydroxybenzoic Acid

>  <CAS_NUMBER>
99-50-3

>  <UNII>
36R5QJ8L4B

$$$$
