C02
 OpenBabel10282417163D

 51 54  0  0  0  0  0  0  0  0999 V2000
    1.0437   -0.0026    0.0994 N   0  0  0  0  0  0  0  0  0  0  0  0
    0.3904   -1.0733    0.4057 C   0  0  0  0  0  0  0  0  0  0  0  0
    1.0363   -2.2464    0.6702 N   0  0  0  0  0  0  0  0  0  0  0  0
   -1.0883   -0.9655    0.5025 C   0  0  0  0  0  0  0  0  0  0  0  0
   -1.7747   -0.1548   -0.4111 C   0  0  0  0  0  0  0  0  0  0  0  0
   -3.1695   -0.0700   -0.3914 C   0  0  0  0  0  0  0  0  0  0  0  0
   -3.8877   -0.8116    0.5591 C   0  0  0  0  0  0  0  0  0  0  0  0
   -3.1774   -1.5865    1.5108 C   0  0  0  0  0  0  0  0  0  0  0  0
   -1.7861   -1.6660    1.4810 C   0  0  0  0  0  0  0  0  0  0  0  0
   -5.2884   -1.3226    0.1909 C   0  0  0  0  0  0  0  0  0  0  0  0
   -5.0236   -2.7387   -0.3824 C   0  0  0  0  0  0  0  0  0  0  0  0
   -3.7713   -3.0523   -0.7406 N   0  0  0  0  0  0  0  0  0  0  0  0
   -3.7918   -2.6665   -2.0498 C   0  0  0  0  0  0  0  0  0  0  0  0
   -5.0581   -2.9620   -2.5288 C   0  0  0  0  0  0  0  0  0  0  0  0
   -5.7554   -3.3521   -1.3887 N   0  0  0  0  0  0  0  0  0  0  0  0
   -6.1948   -4.7378   -1.3133 C   0  0  0  0  0  0  0  0  0  0  0  0
   -5.3140   -3.0642   -3.8774 C   0  0  0  0  0  0  0  0  0  0  0  0
   -4.3151   -2.5580   -4.7207 C   0  0  0  0  0  0  0  0  0  0  0  0
   -3.1554   -1.9207   -4.2433 C   0  0  0  0  0  0  0  0  0  0  0  0
   -2.8303   -2.1029   -2.9033 C   0  0  0  0  0  0  0  0  0  0  0  0
   -2.2609   -1.3674   -5.2294 N   0  0  0  0  0  0  0  0  0  0  0  0
   -1.0839   -0.1910   -4.8616 S   0  0  0  0  0  0  0  0  0  0  0  0
    0.3279   -0.8284   -5.7299 C   0  0  0  0  0  0  0  0  0  0  0  0
    1.3310    0.0599   -6.1225 C   0  0  0  0  0  0  0  0  0  0  0  0
    2.5009   -0.4419   -6.6885 C   0  0  0  0  0  0  0  0  0  0  0  0
    2.6677   -1.8197   -6.8420 C   0  0  0  0  0  0  0  0  0  0  0  0
    1.6696   -2.7017   -6.4256 C   0  0  0  0  0  0  0  0  0  0  0  0
    0.4765   -2.2077   -5.9048 C   0  0  0  0  0  0  0  0  0  0  0  0
   -1.4856    1.0338   -5.5407 O   0  0  0  0  0  0  0  0  0  0  0  0
   -0.6922   -0.1974   -3.4852 O   0  0  0  0  0  0  0  0  0  0  0  0
    2.0438   -0.1792    0.0955 H   0  0  0  0  0  0  0  0  0  0  0  0
    0.5242   -3.1220    0.6759 H   0  0  0  0  0  0  0  0  0  0  0  0
    2.0312   -2.3215    0.5092 H   0  0  0  0  0  0  0  0  0  0  0  0
   -1.2238    0.2932   -1.2340 H   0  0  0  0  0  0  0  0  0  0  0  0
   -3.6704    0.3343   -1.2725 H   0  0  0  0  0  0  0  0  0  0  0  0
   -3.7088   -2.3711    2.0526 H   0  0  0  0  0  0  0  0  0  0  0  0
   -1.2764   -2.3367    2.1627 H   0  0  0  0  0  0  0  0  0  0  0  0
   -5.9360   -1.2862    1.0744 H   0  0  0  0  0  0  0  0  0  0  0  0
   -5.7473   -0.6737   -0.5717 H   0  0  0  0  0  0  0  0  0  0  0  0
   -5.7650   -5.2255   -0.4337 H   0  0  0  0  0  0  0  0  0  0  0  0
   -7.2826   -4.7421   -1.2907 H   0  0  0  0  0  0  0  0  0  0  0  0
   -5.8362   -5.2647   -2.2054 H   0  0  0  0  0  0  0  0  0  0  0  0
   -6.2093   -3.5544   -4.2285 H   0  0  0  0  0  0  0  0  0  0  0  0
   -4.4562   -2.7073   -5.7855 H   0  0  0  0  0  0  0  0  0  0  0  0
   -1.8854   -1.7958   -2.4824 H   0  0  0  0  0  0  0  0  0  0  0  0
   -2.7348   -1.0930   -6.0917 H   0  0  0  0  0  0  0  0  0  0  0  0
    1.2188    1.1293   -5.9576 H   0  0  0  0  0  0  0  0  0  0  0  0
    3.2963    0.2385   -6.9814 H   0  0  0  0  0  0  0  0  0  0  0  0
    3.5836   -2.2090   -7.2792 H   0  0  0  0  0  0  0  0  0  0  0  0
    1.8336   -3.7745   -6.4834 H   0  0  0  0  0  0  0  0  0  0  0  0
   -0.3050   -2.9021   -5.6080 H   0  0  0  0  0  0  0  0  0  0  0  0
  1  2  2  0  0  0  0
  1 31  1  0  0  0  0
  2  3  1  0  0  0  0
  2  4  1  0  0  0  0
  3 32  1  0  0  0  0
  3 33  1  0  0  0  0
  4  5  2  0  0  0  0
  4  9  1  0  0  0  0
  5  6  1  0  0  0  0
  5 34  1  0  0  0  0
  6  7  2  0  0  0  0
  6 35  1  0  0  0  0
  7  8  1  0  0  0  0
  7 10  1  0  0  0  0
  8  9  2  0  0  0  0
  8 36  1  0  0  0  0
  9 37  1  0  0  0  0
 10 11  1  0  0  0  0
 10 38  1  0  0  0  0
 10 39  1  0  0  0  0
 11 12  2  0  0  0  0
 11 15  1  0  0  0  0
 12 13  1  0  0  0  0
 13 14  2  0  0  0  0
 13 20  1  0  0  0  0
 14 15  1  0  0  0  0
 14 17  1  0  0  0  0
 15 16  1  0  0  0  0
 16 40  1  0  0  0  0
 16 41  1  0  0  0  0
 16 42  1  0  0  0  0
 17 18  2  0  0  0  0
 17 43  1  0  0  0  0
 18 19  1  0  0  0  0
 18 44  1  0  0  0  0
 19 20  2  0  0  0  0
 19 21  1  0  0  0  0
 20 45  1  0  0  0  0
 21 22  1  0  0  0  0
 21 46  1  0  0  0  0
 22 23  1  0  0  0  0
 22 29  2  0  0  0  0
 22 30  2  0  0  0  0
 23 24  2  0  0  0  0
 23 28  1  0  0  0  0
 24 25  1  0  0  0  0
 24 47  1  0  0  0  0
 25 26  2  0  0  0  0
 25 48  1  0  0  0  0
 26 27  1  0  0  0  0
 26 49  1  0  0  0  0
 27 28  2  0  0  0  0
 27 50  1  0  0  0  0
 28 51  1  0  0  0  0
M  END
>  <DRUGBANK_ID>
DB07508

>  <COMMON_NAME>
4-(5-BENZENESULFONYLAMINO-1-METHYL-1H-BENZOIMIDAZOL-2-YLMETHYL)-BENZAMIDINE

$$$$
