
 OpenBabel10282417173D

 18 18  0  0  1  0  0  0  0  0999 V2000
   -4.9960    0.2025   -0.3272 O   0  0  0  0  0  0  0  0  0  0  0  0
   -2.5220   -2.1394   -0.6932 O   0  0  0  0  0  0  0  0  0  0  0  0
   -5.1604   -3.2616   -0.1400 O   0  0  0  0  0  0  0  0  0  0  0  0
   -5.8089   -0.9019   -0.3003 C   0  0  0  0  0  0  0  0  0  0  0  0
   -7.0196   -0.9311   -0.3216 O   0  0  0  0  0  0  0  0  0  0  0  0
   -4.8723   -2.0940   -0.2615 C   0  0  0  0  0  0  0  0  0  0  0  0
   -3.4989   -1.5365   -0.3033 C   0  0  0  0  0  0  0  0  0  0  0  0
   -1.3281    0.3593    1.6720 O   0  0  0  0  0  0  0  0  0  0  0  0
   -1.2003    0.4379    0.2491 C   0  0  0  0  0  0  0  0  0  0  0  0
   -2.5590    0.8298   -0.3543 C   0  0  2  0  0  0  0  0  0  0  0  0
   -2.8486    2.1795    0.0585 O   0  0  0  0  0  0  0  0  0  0  0  0
   -3.6547   -0.1174    0.1428 C   0  0  1  0  0  0  0  0  0  0  0  0
   -3.7214   -0.0743    1.2347 H   0  0  0  0  0  0  0  0  0  0  0  0
   -1.3614    1.2686    2.0163 H   0  0  0  0  0  0  0  0  0  0  0  0
   -0.8624   -0.5371   -0.1086 H   0  0  0  0  0  0  0  0  0  0  0  0
   -0.4208    1.1685    0.0129 H   0  0  0  0  0  0  0  0  0  0  0  0
   -2.4998    0.8483   -1.4474 H   0  0  0  0  0  0  0  0  0  0  0  0
   -2.9349    2.2056    1.0269 H   0  0  0  0  0  0  0  0  0  0  0  0
  1  4  1  0  0  0  0
  4  5  2  0  0  0  0
  4  6  1  0  0  0  0
  6  3  2  0  0  0  0
  6  7  1  0  0  0  0
  7  2  2  0  0  0  0
  8  9  1  0  0  0  0
  8 14  1  0  0  0  0
  9 15  1  0  0  0  0
  9 16  1  0  0  0  0
 10 11  1  0  0  0  0
 10 17  1  6  0  0  0
 10 12  1  0  0  0  0
 10  9  1  0  0  0  0
 11 18  1  0  0  0  0
 12  1  1  0  0  0  0
 12  7  1  0  0  0  0
 12 13  1  1  0  0  0
M  END
>  <DRUGBANK_ID>
DB08830

>  <COMMON_NAME>
Dehydroascorbic acid

>  <CAS_NUMBER>
490-83-5

>  <UNII>
Y2Z3ZTP9UM

>  <SYNONYMS>
dehydro-L-ascorbic acid; DHAA; L-dehydroascorbate; L-dehydroascorbic acid; L-threo-2,3-hexodiulosonic acid, Î³-lactone; L-threo-hexo-2,3-diulosono-1,4-lactone; Oxidized ascorbic acid; Oxidized vitamin C

$$$$
