
 OpenBabel10282417203D

 24 23  0  0  0  0  0  0  0  0999 V2000
    0.9964    0.0669    0.0174 C   0  0  0  0  0  0  0  0  0  0  0  0
    0.8069    1.4721    0.4228 N   0  0  0  0  0  0  0  0  0  0  0  0
   -0.2496    2.2053   -0.3267 C   0  0  0  0  0  0  0  0  0  0  0  0
   -1.6129    2.3602    0.3942 C   0  0  0  0  0  0  0  0  0  0  0  0
   -1.5093    2.9490    1.6999 O   0  0  0  0  0  0  0  0  0  0  0  0
   -0.5147    1.9401    2.6928 P   0  0  0  0  0  0  0  0  0  0  0  0
   -0.7239    2.8860    3.8696 O   0  0  0  0  0  0  0  0  0  0  0  0
   -1.7066    0.8284    2.6770 O   0  0  0  0  0  0  0  0  0  0  0  0
    0.4799    0.9312    3.6857 O   0  0  0  0  0  0  0  0  0  0  0  0
    1.6655    2.0485    1.3302 C   0  0  0  0  0  0  0  0  0  0  0  0
    2.3818    1.3640    2.1828 N   0  0  0  0  0  0  0  0  0  0  0  0
    1.4701    3.3407    1.6807 N   0  0  0  0  0  0  0  0  0  0  0  0
    0.5643   -0.1483   -0.9633 H   0  0  0  0  0  0  0  0  0  0  0  0
    0.5509   -0.6258    0.7431 H   0  0  0  0  0  0  0  0  0  0  0  0
    2.0671   -0.1570   -0.0564 H   0  0  0  0  0  0  0  0  0  0  0  0
    0.1319    3.1976   -0.5720 H   0  0  0  0  0  0  0  0  0  0  0  0
   -0.4470    1.7011   -1.2794 H   0  0  0  0  0  0  0  0  0  0  0  0
   -2.2684    3.0075   -0.1984 H   0  0  0  0  0  0  0  0  0  0  0  0
   -2.1346    1.3979    0.4683 H   0  0  0  0  0  0  0  0  0  0  0  0
   -2.5107    1.2491    3.0332 H   0  0  0  0  0  0  0  0  0  0  0  0
    1.3994    1.2795    3.6195 H   0  0  0  0  0  0  0  0  0  0  0  0
    2.2724    0.3601    2.0033 H   0  0  0  0  0  0  0  0  0  0  0  0
    0.5987    3.8050    1.4282 H   0  0  0  0  0  0  0  0  0  0  0  0
    1.6312    3.4981    2.6827 H   0  0  0  0  0  0  0  0  0  0  0  0
  1  2  1  0  0  0  0
  1 13  1  0  0  0  0
  1 14  1  0  0  0  0
  1 15  1  0  0  0  0
  2  3  1  0  0  0  0
  2 10  1  0  0  0  0
  3  4  1  0  0  0  0
  3 16  1  0  0  0  0
  3 17  1  0  0  0  0
  4  5  1  0  0  0  0
  4 18  1  0  0  0  0
  4 19  1  0  0  0  0
  5  6  1  0  0  0  0
  6  7  2  0  0  0  0
  6  8  1  0  0  0  0
  6  9  1  0  0  0  0
  8 20  1  0  0  0  0
  9 21  1  0  0  0  0
 10 11  2  0  0  0  0
 10 12  1  0  0  0  0
 11 22  1  0  0  0  0
 12 23  1  0  0  0  0
 12 24  1  0  0  0  0
M  END
>  <DRUGBANK_ID>
DB13071

>  <COMMON_NAME>
Creatinolfosfate

>  <CAS_NUMBER>
6903-79-3

>  <UNII>
5O564RN1QD

>  <SYNONYMS>
COP; Creatinolfosfate

$$$$
