
 OpenBabel10282417193D

 70 73  0  0  1  0  0  0  0  0999 V2000
    1.0450    0.0342   -0.4391 C   0  0  0  0  0  0  0  0  0  0  0  0
    0.3552   -1.3197   -0.7412 C   0  0  2  0  0  0  0  0  0  0  0  0
   -0.3576   -1.9802    0.4534 C   0  0  0  0  0  0  0  0  0  0  0  0
    0.5850   -2.6281    1.3805 N   0  0  0  0  0  0  0  0  0  0  0  0
    1.4302   -3.6520    0.7911 C   0  0  0  0  0  0  0  0  0  0  0  0
    2.2069   -3.0599   -0.3899 C   0  0  1  0  0  0  0  0  0  0  0  0
    1.2318   -2.4213   -1.4193 C   0  0  1  0  0  0  0  0  0  0  0  0
    0.3214   -3.4649   -2.1114 C   0  0  0  0  0  0  0  0  0  0  0  0
   -0.6575   -3.0278   -3.0193 C   0  0  0  0  0  0  0  0  0  0  0  0
   -1.5394   -3.9227   -3.6209 C   0  0  0  0  0  0  0  0  0  0  0  0
   -1.4735   -5.2794   -3.3246 C   0  0  0  0  0  0  0  0  0  0  0  0
   -0.5076   -5.7470   -2.4479 C   0  0  0  0  0  0  0  0  0  0  0  0
    0.3841   -4.8514   -1.8617 C   0  0  0  0  0  0  0  0  0  0  0  0
    2.0198   -1.8153   -2.4499 O   0  0  0  0  0  0  0  0  0  0  0  0
    3.2142   -2.0508    0.1773 C   0  0  0  0  0  0  0  0  0  0  0  0
    0.7562   -2.4287    2.7320 C   0  0  0  0  0  0  0  0  0  0  0  0
    1.5728   -3.0719    3.3784 O   0  0  0  0  0  0  0  0  0  0  0  0
   -0.0405   -1.3812    3.4564 C   0  0  2  0  0  0  0  0  0  0  0  0
   -1.5205   -1.7011    3.4726 C   0  0  0  0  0  0  0  0  0  0  0  0
   -2.1908   -0.4273    3.8021 N   0  0  0  0  0  0  0  0  0  0  0  0
   -1.3942    0.6102    3.1291 C   0  0  0  0  0  0  0  0  0  0  0  0
    0.0156    0.0542    2.9617 C   0  0  1  0  0  0  0  0  0  0  0  0
    1.2289    0.8898    3.3093 C   0  0  0  0  0  0  0  0  0  0  0  0
    2.5119    0.3503    3.0996 C   0  0  0  0  0  0  0  0  0  0  0  0
    3.6629    1.1097    3.3002 C   0  0  0  0  0  0  0  0  0  0  0  0
    3.5447    2.4275    3.7082 C   0  0  0  0  0  0  0  0  0  0  0  0
    2.3031    3.0008    3.8985 C   0  0  0  0  0  0  0  0  0  0  0  0
    1.1660    2.2253    3.7324 C   0  0  0  0  0  0  0  0  0  0  0  0
    0.0089    2.8206    4.0378 F   0  0  0  0  0  0  0  0  0  0  0  0
    4.6445    3.1472    3.9543 F   0  0  0  0  0  0  0  0  0  0  0  0
   -2.3022   -0.1733    5.2630 C   0  0  0  0  0  0  0  0  0  0  0  0
   -0.9681   -0.1996    6.0314 C   0  0  0  0  0  0  0  0  0  0  0  0
   -2.9733    1.1955    5.5254 C   0  0  0  0  0  0  0  0  0  0  0  0
   -3.2203   -1.2551    5.8556 C   0  0  0  0  0  0  0  0  0  0  0  0
    0.9868    0.3299    0.5879 H   0  0  0  0  0  0  0  0  0  0  0  0
    0.5505    0.8559   -0.9656 H   0  0  0  0  0  0  0  0  0  0  0  0
    2.1112    0.0949   -0.6494 H   0  0  0  0  0  0  0  0  0  0  0  0
   -0.4315   -1.0053   -1.4349 H   0  0  0  0  0  0  0  0  0  0  0  0
   -1.0134   -1.2517    0.9172 H   0  0  0  0  0  0  0  0  0  0  0  0
   -1.0393   -2.7697    0.1106 H   0  0  0  0  0  0  0  0  0  0  0  0
    2.1447   -4.0927    1.4954 H   0  0  0  0  0  0  0  0  0  0  0  0
    0.7464   -4.4688    0.5595 H   0  0  0  0  0  0  0  0  0  0  0  0
    2.8025   -3.8368   -0.8858 H   0  0  0  0  0  0  0  0  0  0  0  0
   -0.7543   -1.9752   -3.2713 H   0  0  0  0  0  0  0  0  0  0  0  0
   -2.2725   -3.5519   -4.3299 H   0  0  0  0  0  0  0  0  0  0  0  0
   -2.1634   -5.9755   -3.7892 H   0  0  0  0  0  0  0  0  0  0  0  0
   -0.4277   -6.8080   -2.2233 H   0  0  0  0  0  0  0  0  0  0  0  0
    1.1128   -5.2976   -1.1915 H   0  0  0  0  0  0  0  0  0  0  0  0
    1.4151   -1.4385   -3.1089 H   0  0  0  0  0  0  0  0  0  0  0  0
    3.9523   -2.5349    0.8200 H   0  0  0  0  0  0  0  0  0  0  0  0
    3.7307   -1.4957   -0.6082 H   0  0  0  0  0  0  0  0  0  0  0  0
    2.7065   -1.3285    0.8125 H   0  0  0  0  0  0  0  0  0  0  0  0
    0.4047   -1.4139    4.4493 H   0  0  0  0  0  0  0  0  0  0  0  0
   -1.9021   -2.0453    2.5062 H   0  0  0  0  0  0  0  0  0  0  0  0
   -1.7359   -2.5420    4.1321 H   0  0  0  0  0  0  0  0  0  0  0  0
   -1.4301    1.5595    3.6315 H   0  0  0  0  0  0  0  0  0  0  0  0
   -1.8204    0.8400    2.1407 H   0  0  0  0  0  0  0  0  0  0  0  0
    0.0551   -0.0239    1.9059 H   0  0  0  0  0  0  0  0  0  0  0  0
    2.6452   -0.6766    2.7762 H   0  0  0  0  0  0  0  0  0  0  0  0
    4.6434    0.6738    3.1394 H   0  0  0  0  0  0  0  0  0  0  0  0
    2.2034    4.0389    4.1885 H   0  0  0  0  0  0  0  0  0  0  0  0
   -0.2392    0.4988    5.6109 H   0  0  0  0  0  0  0  0  0  0  0  0
   -1.0900    0.0753    7.0786 H   0  0  0  0  0  0  0  0  0  0  0  0
   -0.5438   -1.2068    6.0498 H   0  0  0  0  0  0  0  0  0  0  0  0
   -3.9515    1.2609    5.0382 H   0  0  0  0  0  0  0  0  0  0  0  0
   -3.1047    1.3488    6.5998 H   0  0  0  0  0  0  0  0  0  0  0  0
   -2.3806    2.0523    5.1892 H   0  0  0  0  0  0  0  0  0  0  0  0
   -4.2055   -1.2418    5.3775 H   0  0  0  0  0  0  0  0  0  0  0  0
   -2.8136   -2.2647    5.7463 H   0  0  0  0  0  0  0  0  0  0  0  0
   -3.3443   -1.0969    6.9290 H   0  0  0  0  0  0  0  0  0  0  0  0
  1 35  1  0  0  0  0
  1 36  1  0  0  0  0
  1 37  1  0  0  0  0
  2  1  1  0  0  0  0
  2  3  1  0  0  0  0
  2  7  1  0  0  0  0
  2 38  1  6  0  0  0
  3  4  1  0  0  0  0
  3 39  1  0  0  0  0
  3 40  1  0  0  0  0
  4  5  1  0  0  0  0
  4 16  1  0  0  0  0
  5  6  1  0  0  0  0
  5 41  1  0  0  0  0
  5 42  1  0  0  0  0
  6  7  1  0  0  0  0
  6 15  1  0  0  0  0
  6 43  1  6  0  0  0
  7  8  1  0  0  0  0
  7 14  1  6  0  0  0
  8  9  2  0  0  0  0
  8 13  1  0  0  0  0
  9 10  1  0  0  0  0
  9 44  1  0  0  0  0
 10 11  2  0  0  0  0
 10 45  1  0  0  0  0
 11 12  1  0  0  0  0
 11 46  1  0  0  0  0
 12 13  2  0  0  0  0
 12 47  1  0  0  0  0
 13 48  1  0  0  0  0
 14 49  1  0  0  0  0
 15 50  1  0  0  0  0
 15 51  1  0  0  0  0
 15 52  1  0  0  0  0
 16 17  2  0  0  0  0
 18 16  1  0  0  0  0
 18 19  1  0  0  0  0
 18 22  1  0  0  0  0
 18 53  1  1  0  0  0
 19 20  1  0  0  0  0
 19 54  1  0  0  0  0
 19 55  1  0  0  0  0
 20 21  1  0  0  0  0
 20 31  1  0  0  0  0
 21 22  1  0  0  0  0
 21 56  1  0  0  0  0
 21 57  1  0  0  0  0
 22 23  1  0  0  0  0
 22 58  1  6  0  0  0
 23 24  2  0  0  0  0
 23 28  1  0  0  0  0
 24 25  1  0  0  0  0
 24 59  1  0  0  0  0
 25 26  2  0  0  0  0
 25 60  1  0  0  0  0
 26 27  1  0  0  0  0
 26 30  1  0  0  0  0
 27 28  2  0  0  0  0
 27 61  1  0  0  0  0
 28 29  1  0  0  0  0
 31 32  1  0  0  0  0
 31 33  1  0  0  0  0
 31 34  1  0  0  0  0
 32 62  1  0  0  0  0
 32 63  1  0  0  0  0
 32 64  1  0  0  0  0
 33 65  1  0  0  0  0
 33 66  1  0  0  0  0
 33 67  1  0  0  0  0
 34 68  1  0  0  0  0
 34 69  1  0  0  0  0
 34 70  1  0  0  0  0
M  END
>  <DRUGBANK_ID>
DB12517

>  <COMMON_NAME>
PF-00446687

>  <CAS_NUMBER>
862281-92-3

>  <UNII>
63P236Z73I

$$$$
