
 OpenBabel10282417203D

100110  0  0  0  0  0  0  0  0999 V2000
   -0.8133    1.7179   -1.5877 N   0  0  0  0  0  0  0  0  0  0  0  0
   -0.5040    0.5332   -2.8268 C   0  0  2  0  0  0  0  0  0  0  0  0
    0.5444   -0.3486   -1.4556 C   0  0  2  0  0  0  0  0  0  0  0  0
   -0.1332   -0.4382   -0.1702 C   0  0  0  0  0  0  0  0  0  0  0  0
   -0.8409    0.9894   -0.1002 C   0  0  0  0  0  0  0  0  0  0  0  0
   -2.3573    0.8000    0.6057 C   0  0  0  0  0  0  0  0  0  0  0  0
   -3.4149   -0.8325    1.1413 C   0  0  0  0  0  0  0  0  0  0  0  0
   -2.3606   -2.4400    0.9886 C   0  0  0  0  0  0  0  0  0  0  0  0
   -0.6117   -2.0823    0.4570 C   0  0  0  0  0  0  0  0  0  0  0  0
   -1.3388   -0.1747   -4.6399 C   0  0  0  0  0  0  0  0  0  0  0  0
   -1.3474   -1.9509   -5.0453 C   0  0  1  0  0  0  0  0  0  0  0  0
   -0.1305   -1.6312   -3.7892 C   0  0  0  0  0  0  0  0  0  0  0  0
    1.0939   -1.0428   -2.7085 C   0  0  2  0  0  0  0  0  0  0  0  0
    1.7064   -2.4036   -2.4771 N   0  3  1  0  0  0  0  0  0  0  0  0
   -1.2494   -3.5279   -4.6413 C   0  0  0  0  0  0  0  0  0  0  0  0
    0.6316   -3.5123   -3.7595 C   0  0  0  0  0  0  0  0  0  0  0  0
    3.6274   -1.4619   -1.9290 C   0  0  0  0  0  0  0  0  0  0  0  0
    1.8968   -1.8228   -0.4436 C   0  0  0  0  0  0  0  0  0  0  0  0
    1.6584   -0.0890    0.0065 C   0  0  0  0  0  0  0  0  0  0  0  0
    1.7578   -0.0864   -2.6541 H   0  0  0  0  0  0  0  0  0  0  0  0
   -2.0924   -2.4816   -6.1701 H   0  0  0  0  0  0  0  0  0  0  0  0
    4.4432    0.1977   -1.4976 C   0  0  0  0  0  0  0  0  0  0  0  0
    5.3020    0.9780   -0.5552 C   0  0  0  0  0  0  0  0  0  0  0  0
   -2.3012   -4.5394   -5.3536 C   0  0  0  0  0  0  0  0  0  0  0  0
   -2.9448   -6.1566   -5.8264 C   0  0  0  0  0  0  0  0  0  0  0  0
   -3.4890   -6.8197   -4.6572 O   0  0  0  0  0  0  0  0  0  0  0  0
   -3.5971   -0.7144   -5.4364 N   0  0  0  0  0  0  0  0  0  0  0  0
   -3.7292    0.7632   -4.1989 C   0  0  2  0  0  0  0  0  0  0  0  0
   -4.7474   -0.7828   -3.5458 C   0  0  2  0  0  0  0  0  0  0  0  0
   -4.6838   -2.3843   -4.2619 C   0  0  0  0  0  0  0  0  0  0  0  0
   -4.5740   -2.2463   -5.6444 C   0  0  0  0  0  0  0  0  0  0  0  0
   -4.9289   -3.7086   -3.6294 C   0  0  0  0  0  0  0  0  0  0  0  0
   -5.2564   -4.9903   -4.2279 C   0  0  0  0  0  0  0  0  0  0  0  0
   -5.3545   -5.1097   -5.6467 C   0  0  0  0  0  0  0  0  0  0  0  0
   -4.8678   -3.7804   -6.4878 C   0  0  0  0  0  0  0  0  0  0  0  0
   -4.2850   -0.4557   -1.8575 C   0  0  2  0  0  0  0  0  0  0  0  0
   -4.3649    1.0429   -0.3120 C   0  0  0  0  0  0  0  0  0  0  0  0
   -3.5977    2.5300   -1.1774 C   0  0  2  0  0  0  0  0  0  0  0  0
   -2.8542    2.3034   -2.9667 C   0  0  0  0  0  0  0  0  0  0  0  0
   -2.3084   -0.4745   -5.9262 C   0  0  0  0  0  0  0  0  0  0  0  0
   -1.6121    2.8073   -1.9756 C   0  0  0  0  0  0  0  0  0  0  0  0
   -3.5723    1.3929   -1.9306 C   0  0  0  0  0  0  0  0  0  0  0  0
   -5.3528    0.1669   -1.8872 N   0  3  1  0  0  0  0  0  0  0  0  0
   -5.0154    1.5487   -2.1914 C   0  0  0  0  0  0  0  0  0  0  0  0
   -4.2484   -1.1342   -0.8016 C   0  0  0  0  0  0  0  0  0  0  0  0
   -2.2533   -0.9756   -0.2243 C   0  0  0  0  0  0  0  0  0  0  0  0
   -1.6070   -0.6375    1.5088 C   0  0  0  0  0  0  0  0  0  0  0  0
   -3.7288   -0.3476   -2.8608 H   0  0  0  0  0  0  0  0  0  0  0  0
   -4.4370    2.9560   -0.4465 H   0  0  0  0  0  0  0  0  0  0  0  0
   -6.4351   -0.5300   -2.3409 C   0  0  0  0  0  0  0  0  0  0  0  0
   -6.2152   -0.5841   -3.8039 C   0  0  0  0  0  0  0  0  0  0  0  0
   -2.5376    0.3981   -1.9896 C   0  0  0  0  0  0  0  0  0  0  0  0
   -2.4589   -1.4463   -2.4821 C   0  0  0  0  0  0  0  0  0  0  0  0
   -1.9128   -2.5900   -1.9536 O   0  0  0  0  0  0  0  0  0  0  0  0
    0.3317    1.2387   -2.7942 H   0  0  0  0  0  0  0  0  0  0  0  0
   -4.2349    1.0964   -5.1309 H   0  0  0  0  0  0  0  0  0  0  0  0
   -2.5854    1.7493    0.1920 H   0  0  0  0  0  0  0  0  0  0  0  0
   -4.4655   -0.9834    1.1703 H   0  0  0  0  0  0  0  0  0  0  0  0
   -2.7189   -3.1635    0.1533 H   0  0  0  0  0  0  0  0  0  0  0  0
   -0.0206   -2.7704   -0.1143 H   0  0  0  0  0  0  0  0  0  0  0  0
    0.5235   -1.0751   -4.4019 H   0  0  0  0  0  0  0  0  0  0  0  0
   -0.5675   -1.5675   -2.8299 H   0  0  0  0  0  0  0  0  0  0  0  0
    0.4137   -3.7654   -5.2500 H   0  0  0  0  0  0  0  0  0  0  0  0
    0.5556   -4.7580   -4.5236 H   0  0  0  0  0  0  0  0  0  0  0  0
    3.8805   -1.2793   -0.7616 H   0  0  0  0  0  0  0  0  0  0  0  0
    4.3964   -2.2212   -1.6775 H   0  0  0  0  0  0  0  0  0  0  0  0
    2.9846   -1.9788    0.0553 H   0  0  0  0  0  0  0  0  0  0  0  0
    2.1106   -1.9902    0.6657 H   0  0  0  0  0  0  0  0  0  0  0  0
    2.0060   -0.2148    1.3556 H   0  0  0  0  0  0  0  0  0  0  0  0
    0.9293    0.1553    1.1508 H   0  0  0  0  0  0  0  0  0  0  0  0
    4.6760    0.6899   -2.4182 H   0  0  0  0  0  0  0  0  0  0  0  0
    5.8892    1.9644   -0.8584 H   0  0  0  0  0  0  0  0  0  0  0  0
    5.7281    0.9499    0.5082 H   0  0  0  0  0  0  0  0  0  0  0  0
   -3.3145   -4.1306   -5.4204 H   0  0  0  0  0  0  0  0  0  0  0  0
   -3.6612   -6.3900   -6.7769 H   0  0  0  0  0  0  0  0  0  0  0  0
   -2.1158   -6.7691   -6.0154 H   0  0  0  0  0  0  0  0  0  0  0  0
   -3.3566   -6.1988   -3.9237 H   0  0  0  0  0  0  0  0  0  0  0  0
   -4.8850   -3.7749   -2.5532 H   0  0  0  0  0  0  0  0  0  0  0  0
   -5.1656   -5.8800   -3.5344 H   0  0  0  0  0  0  0  0  0  0  0  0
   -5.2876   -6.2606   -5.9229 H   0  0  0  0  0  0  0  0  0  0  0  0
   -4.3110   -4.3297   -7.4359 H   0  0  0  0  0  0  0  0  0  0  0  0
   -4.4764    1.2585    1.0890 H   0  0  0  0  0  0  0  0  0  0  0  0
   -3.8311    1.2807    0.9834 H   0  0  0  0  0  0  0  0  0  0  0  0
   -3.0684   -0.5471   -7.0030 H   0  0  0  0  0  0  0  0  0  0  0  0
   -1.3410    3.5641   -0.8604 H   0  0  0  0  0  0  0  0  0  0  0  0
   -5.7367    1.9052   -2.8567 H   0  0  0  0  0  0  0  0  0  0  0  0
   -4.6637    2.1558   -3.0309 H   0  0  0  0  0  0  0  0  0  0  0  0
   -5.1502   -1.0334   -0.1972 H   0  0  0  0  0  0  0  0  0  0  0  0
   -4.3543   -2.2282   -1.1462 H   0  0  0  0  0  0  0  0  0  0  0  0
   -1.5472   -0.8147   -1.0429 H   0  0  0  0  0  0  0  0  0  0  0  0
   -0.9605    0.1896    1.8682 H   0  0  0  0  0  0  0  0  0  0  0  0
   -2.5248   -0.1540    2.3787 H   0  0  0  0  0  0  0  0  0  0  0  0
   -7.2704    0.1141   -2.4148 H   0  0  0  0  0  0  0  0  0  0  0  0
   -6.4874   -0.1265   -1.3626 H   0  0  0  0  0  0  0  0  0  0  0  0
   -6.5446   -1.2240   -4.6856 H   0  0  0  0  0  0  0  0  0  0  0  0
   -7.1573   -1.1091   -3.6477 H   0  0  0  0  0  0  0  0  0  0  0  0
   -2.8308    0.3936   -1.0382 H   0  0  0  0  0  0  0  0  0  0  0  0
   -3.3549   -1.9516   -2.6515 H   0  0  0  0  0  0  0  0  0  0  0  0
   -2.0245   -0.8266   -3.1420 H   0  0  0  0  0  0  0  0  0  0  0  0
   -1.1170   -2.3285   -1.5127 H   0  0  0  0  0  0  0  0  0  0  0  0
  1  2  1  0  0  0  0
  1  5  1  0  0  0  0
  1 41  1  0  0  0  0
  2 10  1  0  0  0  0
  2 55  1  1  0  0  0
  3  4  1  6  0  0  0
  3  2  1  0  0  0  0
  3 13  1  0  0  0  0
  3 19  1  0  0  0  0
  4  9  1  0  0  0  0
  4  5  2  0  0  0  0
  5  6  1  0  0  0  0
  6  7  2  0  0  0  0
  6 57  1  0  0  0  0
  7  8  1  0  0  0  0
  7 58  1  0  0  0  0
  8  9  2  0  0  0  0
  8 59  1  0  0  0  0
  9 60  1  0  0  0  0
 10 11  1  0  0  0  0
 10 40  2  0  0  0  0
 11 12  1  0  0  0  0
 11 15  1  0  0  0  0
 11 21  1  6  0  0  0
 12 13  1  0  0  0  0
 12 61  1  0  0  0  0
 12 62  1  0  0  0  0
 13 14  1  0  0  0  0
 13 20  1  6  0  0  0
 14 16  1  0  0  0  0
 14 18  1  0  0  0  0
 14 17  1  6  0  0  0
 15 16  1  0  0  0  0
 15 24  2  0  0  0  0
 16 63  1  0  0  0  0
 16 64  1  0  0  0  0
 17 22  1  0  0  0  0
 17 65  1  0  0  0  0
 17 66  1  0  0  0  0
 18 19  1  0  0  0  0
 18 67  1  0  0  0  0
 18 68  1  0  0  0  0
 19 69  1  0  0  0  0
 19 70  1  0  0  0  0
 22 23  2  0  0  0  0
 22 71  1  0  0  0  0
 23 72  1  0  0  0  0
 23 73  1  0  0  0  0
 24 25  1  0  0  0  0
 24 74  1  0  0  0  0
 25 26  1  0  0  0  0
 25 75  1  0  0  0  0
 25 76  1  0  0  0  0
 26 77  1  0  0  0  0
 27 28  1  0  0  0  0
 27 31  1  0  0  0  0
 27 40  1  0  0  0  0
 28 39  1  0  0  0  0
 28 29  1  0  0  0  0
 28 56  1  1  0  0  0
 29 30  1  1  0  0  0
 29 36  1  0  0  0  0
 29 51  1  0  0  0  0
 30 32  1  0  0  0  0
 31 30  2  0  0  0  0
 31 35  1  0  0  0  0
 32 33  2  0  0  0  0
 32 78  1  0  0  0  0
 33 34  1  0  0  0  0
 33 79  1  0  0  0  0
 34 35  2  0  0  0  0
 34 80  1  0  0  0  0
 35 81  1  0  0  0  0
 36 37  1  0  0  0  0
 36 43  1  0  0  0  0
 36 48  1  6  0  0  0
 37 38  1  0  0  0  0
 37 82  1  0  0  0  0
 37 83  1  0  0  0  0
 38 39  1  0  0  0  0
 38 42  1  0  0  0  0
 38 49  1  1  0  0  0
 39 41  2  0  0  0  0
 40 84  1  0  0  0  0
 41 85  1  0  0  0  0
 42 44  1  0  0  0  0
 42 52  2  0  0  0  0
 43 44  1  0  0  0  0
 43 50  1  0  0  0  0
 43 45  1  6  0  0  0
 44 86  1  0  0  0  0
 44 87  1  0  0  0  0
 45 46  1  0  0  0  0
 45 88  1  0  0  0  0
 45 89  1  0  0  0  0
 46 47  2  0  0  0  0
 46 90  1  0  0  0  0
 47 91  1  0  0  0  0
 47 92  1  0  0  0  0
 50 93  1  0  0  0  0
 50 94  1  0  0  0  0
 51 50  1  0  0  0  0
 51 95  1  0  0  0  0
 51 96  1  0  0  0  0
 52 53  1  0  0  0  0
 52 97  1  0  0  0  0
 53 54  1  0  0  0  0
 53 98  1  0  0  0  0
 53 99  1  0  0  0  0
 54100  1  0  0  0  0
M  CHG  2  14   1  43   1
M  END
>  <DRUGBANK_ID>
DB13648

>  <COMMON_NAME>
Alcuronium

>  <CAS_NUMBER>
23214-96-2

>  <UNII>
S8U3J5W06N

>  <SYNONYMS>
Alcuronum; Alloferine; Diallylnortoxiferine; Diallyltoxiferine; N,N'-diallyl-bis-nor-toxiferine; N,N'-Diallylnortoxiferinium

$$$$
