SHM
 OpenBabel10282417133D

 35 36  0  0  0  0  0  0  0  0999 V2000
    0.0975   -0.9059    0.9550 C   0  0  1  0  0  0  0  0  0  0  0  0
    0.1048    0.6288    1.0681 C   0  0  2  0  0  0  0  0  0  0  0  0
   -1.1073    1.0327    0.3800 N   0  0  0  0  0  0  0  0  0  0  0  0
   -1.7791   -0.0328   -0.1510 C   0  0  0  0  0  0  0  0  0  0  0  0
   -1.1280   -1.1799    0.2319 N   0  0  0  0  0  0  0  0  0  0  0  0
    1.3864    1.1779    0.4239 C   0  0  1  0  0  0  0  0  0  0  0  0
    1.8422   -0.0026   -0.8538 S   0  0  0  0  0  0  0  0  0  0  0  0
    1.3529   -1.3748    0.2129 C   0  0  0  0  0  0  0  0  0  0  0  0
    1.2251    2.6024   -0.0829 C   0  0  0  0  0  0  0  0  0  0  0  0
    0.8448    3.5127    1.0922 C   0  0  0  0  0  0  0  0  0  0  0  0
    1.9322    3.4991    2.1755 C   0  0  0  0  0  0  0  0  0  0  0  0
    3.2543    4.0516    1.6376 C   0  0  0  0  0  0  0  0  0  0  0  0
    3.1034    5.4688    1.0836 C   0  0  0  0  0  0  0  0  0  0  0  0
    2.7130    6.4578    2.1522 C   0  0  0  0  0  0  0  0  0  0  0  0
    3.4048    7.3798    2.5542 O   0  0  0  0  0  0  0  0  0  0  0  0
    1.4919    6.2405    2.6771 O   0  0  0  0  0  0  0  0  0  0  0  0
   -2.7882    0.0357   -0.8328 O   0  0  0  0  0  0  0  0  0  0  0  0
    0.0207   -1.3884    1.9346 H   0  0  0  0  0  0  0  0  0  0  0  0
    0.0088    0.9628    2.1085 H   0  0  0  0  0  0  0  0  0  0  0  0
    2.2061    1.1096    1.1479 H   0  0  0  0  0  0  0  0  0  0  0  0
   -1.4027    1.9774    0.1662 H   0  0  0  0  0  0  0  0  0  0  0  0
   -1.4852   -2.0858   -0.0339 H   0  0  0  0  0  0  0  0  0  0  0  0
    2.1648   -1.5366    0.9308 H   0  0  0  0  0  0  0  0  0  0  0  0
    1.1979   -2.2815   -0.3716 H   0  0  0  0  0  0  0  0  0  0  0  0
    2.1470    2.9457   -0.5652 H   0  0  0  0  0  0  0  0  0  0  0  0
    0.4580    2.6659   -0.8628 H   0  0  0  0  0  0  0  0  0  0  0  0
    0.6488    4.5197    0.7133 H   0  0  0  0  0  0  0  0  0  0  0  0
   -0.1044    3.2120    1.5465 H   0  0  0  0  0  0  0  0  0  0  0  0
    1.5940    4.0560    3.0509 H   0  0  0  0  0  0  0  0  0  0  0  0
    2.0879    2.4960    2.5845 H   0  0  0  0  0  0  0  0  0  0  0  0
    4.0115    4.0237    2.4274 H   0  0  0  0  0  0  0  0  0  0  0  0
    3.6387    3.3942    0.8461 H   0  0  0  0  0  0  0  0  0  0  0  0
    4.0573    5.7842    0.6502 H   0  0  0  0  0  0  0  0  0  0  0  0
    2.3836    5.5258    0.2599 H   0  0  0  0  0  0  0  0  0  0  0  0
    1.4099    6.8352    3.4505 H   0  0  0  0  0  0  0  0  0  0  0  0
  1  2  1  0  0  0  0
  1  5  1  0  0  0  0
  1  8  1  0  0  0  0
  1 18  1  1  0  0  0
  2  3  1  0  0  0  0
  2  6  1  0  0  0  0
  2 19  1  1  0  0  0
  3  4  1  0  0  0  0
  3 21  1  0  0  0  0
  4  5  1  0  0  0  0
  4 17  2  0  0  0  0
  5 22  1  0  0  0  0
  6  7  1  0  0  0  0
  6  9  1  0  0  0  0
  6 20  1  1  0  0  0
  7  8  1  0  0  0  0
  8 23  1  0  0  0  0
  8 24  1  0  0  0  0
  9 10  1  0  0  0  0
  9 25  1  0  0  0  0
  9 26  1  0  0  0  0
 10 11  1  0  0  0  0
 10 27  1  0  0  0  0
 10 28  1  0  0  0  0
 11 12  1  0  0  0  0
 11 29  1  0  0  0  0
 11 30  1  0  0  0  0
 12 13  1  0  0  0  0
 12 31  1  0  0  0  0
 12 32  1  0  0  0  0
 13 14  1  0  0  0  0
 13 33  1  0  0  0  0
 13 34  1  0  0  0  0
 14 15  2  0  0  0  0
 14 16  1  0  0  0  0
 16 35  1  0  0  0  0
M  END
>  <DRUGBANK_ID>
DB03112

>  <SECONDARY_ACCESSION_NUMBERS>
EXPT02904

>  <COMMON_NAME>
6-(2-Oxo-Hexahydro-Thieno[3,4-D]Imidazol-4-Yl)-Hexanoic Acid

$$$$
