
 OpenBabel10282417203D

 39 41  0  0  1  0  0  0  0  0999 V2000
    0.9971    0.0084   -0.0500 C   0  0  0  0  0  0  0  0  0  0  0  0
    0.5894    1.3731   -0.3519 N   0  0  0  0  0  0  0  0  0  0  0  0
   -0.8223    1.4593   -0.6955 C   0  0  0  0  0  0  0  0  0  0  0  0
   -1.3565    2.8616   -0.9721 C   0  0  0  0  0  0  0  0  0  0  0  0
   -0.4301    3.9191   -0.5992 N   0  0  0  0  0  0  0  0  0  0  0  0
    0.8144    3.6001   -0.1141 C   0  0  0  0  0  0  0  0  0  0  0  0
    1.3299    2.4218    0.0781 N   0  0  0  0  0  0  0  0  0  0  0  0
   -0.9364    5.2227   -0.7662 C   0  0  0  0  0  0  0  0  0  0  0  0
   -0.3419    6.1257   -1.6588 C   0  0  0  0  0  0  0  0  0  0  0  0
   -0.9077    7.3929   -1.8840 C   0  0  0  0  0  0  0  0  0  0  0  0
   -2.0400    7.7964   -1.1699 C   0  0  0  0  0  0  0  0  0  0  0  0
   -2.6323    6.9175   -0.2678 C   0  0  0  0  0  0  0  0  0  0  0  0
   -2.1001    5.6446   -0.0977 C   0  0  0  0  0  0  0  0  0  0  0  0
   -2.7374    4.8103    0.7388 F   0  0  0  0  0  0  0  0  0  0  0  0
   -2.5837    9.0763   -1.3327 N   0  0  0  0  0  0  0  0  0  0  0  0
   -3.0386    9.5993   -2.5765 C   0  0  0  0  0  0  0  0  0  0  0  0
   -3.8277   10.8238   -2.1442 C   0  0  1  0  0  0  0  0  0  0  0  0
   -3.4103   11.0918   -0.7985 O   0  0  0  0  0  0  0  0  0  0  0  0
   -2.7807    9.9799   -0.3135 C   0  0  0  0  0  0  0  0  0  0  0  0
   -2.4221    9.8735    0.8526 O   0  0  0  0  0  0  0  0  0  0  0  0
   -3.5735   12.0373   -3.0285 C   0  0  0  0  0  0  0  0  0  0  0  0
   -4.0027   11.7976   -4.3631 O   0  0  0  0  0  0  0  0  0  0  0  0
    0.6377   -0.6661   -0.8368 H   0  0  0  0  0  0  0  0  0  0  0  0
    0.5974   -0.3504    0.9060 H   0  0  0  0  0  0  0  0  0  0  0  0
    2.0864   -0.0835   -0.0304 H   0  0  0  0  0  0  0  0  0  0  0  0
   -1.4440    1.0002    0.0834 H   0  0  0  0  0  0  0  0  0  0  0  0
   -0.9779    0.8740   -1.6096 H   0  0  0  0  0  0  0  0  0  0  0  0
   -1.5690    2.9510   -2.0439 H   0  0  0  0  0  0  0  0  0  0  0  0
   -2.3059    2.9560   -0.4365 H   0  0  0  0  0  0  0  0  0  0  0  0
    1.4232    4.4821    0.1554 H   0  0  0  0  0  0  0  0  0  0  0  0
    0.5496    5.8361   -2.2114 H   0  0  0  0  0  0  0  0  0  0  0  0
   -0.4127    8.0782   -2.5674 H   0  0  0  0  0  0  0  0  0  0  0  0
   -3.5246    7.1898    0.2875 H   0  0  0  0  0  0  0  0  0  0  0  0
   -2.1822    9.8428   -3.2127 H   0  0  0  0  0  0  0  0  0  0  0  0
   -3.6822    8.8794   -3.0951 H   0  0  0  0  0  0  0  0  0  0  0  0
   -4.9020   10.6000   -2.1288 H   0  0  0  0  0  0  0  0  0  0  0  0
   -4.1253   12.9024   -2.6437 H   0  0  0  0  0  0  0  0  0  0  0  0
   -2.5147   12.3206   -3.0282 H   0  0  0  0  0  0  0  0  0  0  0  0
   -3.4577   11.0925   -4.7502 H   0  0  0  0  0  0  0  0  0  0  0  0
  1  2  1  0  0  0  0
  1 23  1  0  0  0  0
  1 24  1  0  0  0  0
  1 25  1  0  0  0  0
  2  3  1  0  0  0  0
  2  7  1  0  0  0  0
  3  4  1  0  0  0  0
  3 26  1  0  0  0  0
  3 27  1  0  0  0  0
  4  5  1  0  0  0  0
  4 28  1  0  0  0  0
  4 29  1  0  0  0  0
  5  6  1  0  0  0  0
  5  8  1  0  0  0  0
  6  7  2  0  0  0  0
  6 30  1  0  0  0  0
  8  9  2  0  0  0  0
  8 13  1  0  0  0  0
  9 10  1  0  0  0  0
  9 31  1  0  0  0  0
 10 11  2  0  0  0  0
 10 32  1  0  0  0  0
 11 12  1  0  0  0  0
 11 15  1  0  0  0  0
 12 13  2  0  0  0  0
 12 33  1  0  0  0  0
 13 14  1  0  0  0  0
 15 16  1  0  0  0  0
 15 19  1  0  0  0  0
 16 17  1  0  0  0  0
 16 34  1  0  0  0  0
 16 35  1  0  0  0  0
 17 18  1  0  0  0  0
 17 21  1  0  0  0  0
 17 36  1  6  0  0  0
 18 19  1  0  0  0  0
 19 20  2  0  0  0  0
 21 22  1  0  0  0  0
 21 37  1  0  0  0  0
 21 38  1  0  0  0  0
 22 39  1  0  0  0  0
M  END
>  <DRUGBANK_ID>
DB13077

>  <COMMON_NAME>
Delpazolid

>  <CAS_NUMBER>
1219707-39-7

>  <UNII>
43EP6XV33E

>  <SYNONYMS>
(5R)-3-(3-fluoro-4-(1-methyl-5,6-dihydro-1,2,4-triazin-4-yl)phenyl)-5-(hydroxymethyl)oxazolidin-2-one; (5R)-3-(3-fluoro-4-(1-methyl-5,6-dihydro-1,2,4-triazin-4(1H)-yl)phenyl)-5-(hydroxymethyl)-1,3-oxazolidin-2-one; (R)-3-[3-Fluoro-4-(1-methyl-1,4,5,6-tetrahydro-1,2,4-triazin-4-yl)phenyl]-5(R)-(hydroxymethyl)oxazolidin-2-one; 2-oxazolidinone, 3-(4-(5,6-dihydro-1-methyl-1,2,4-triazin-4(1H)-yl)-3-fluorophenyl)-5-(hydroxymethyl)-, (5R)-

$$$$
