
 OpenBabel10282417173D

 39 41  0  0  0  0  0  0  0  0999 V2000
    4.9929   -5.1023    3.3302 C   0  0  0  0  0  0  0  0  0  0  0  0
    4.9240   -5.7696    4.5629 C   0  0  0  0  0  0  0  0  0  0  0  0
    3.8998   -5.4904    5.4694 C   0  0  0  0  0  0  0  0  0  0  0  0
    2.9187   -4.5827    5.1247 C   0  0  0  0  0  0  0  0  0  0  0  0
    4.0393   -4.1346    3.0030 C   0  0  0  0  0  0  0  0  0  0  0  0
    3.0061   -3.9409    3.9000 C   0  0  0  0  0  0  0  0  0  0  0  0
    3.0258   -2.4794    1.4850 C   0  0  0  0  0  0  0  0  0  0  0  0
    1.7057   -0.8220   -0.1116 C   0  0  0  0  0  0  0  0  0  0  0  0
    1.2429    1.5178   -1.0290 C   0  0  0  0  0  0  0  0  0  0  0  0
    2.9417   -1.7129    0.1427 C   0  0  2  0  0  0  0  0  0  0  0  0
    3.0539   -2.6533   -1.0934 C   0  0  0  0  0  0  0  0  0  0  0  0
    3.4192   -4.3133   -3.3392 C   0  0  0  0  0  0  0  0  0  0  0  0
    3.3411   -2.9321   -3.4966 C   0  0  0  0  0  0  0  0  0  0  0  0
    3.2043   -2.1044   -2.3803 C   0  0  0  0  0  0  0  0  0  0  0  0
    3.0382   -4.0555   -0.9839 C   0  0  0  0  0  0  0  0  0  0  0  0
    3.3136   -4.8713   -2.0747 C   0  0  0  0  0  0  0  0  0  0  0  0
    4.0595   -3.3095    1.7932 C   0  0  0  0  0  0  0  0  0  0  0  0
    5.1702   -3.5341    0.9961 O   0  0  0  0  0  0  0  0  0  0  0  0
    1.9621   -3.0745    3.6384 O   0  0  0  0  0  0  0  0  0  0  0  0
    1.8952   -2.3690    2.4688 C   0  0  0  0  0  0  0  0  0  0  0  0
    0.8820   -1.6898    2.3179 O   0  0  0  0  0  0  0  0  0  0  0  0
    1.8992    0.6701    0.0346 C   0  0  0  0  0  0  0  0  0  0  0  0
    2.4709    1.1785    0.9971 O   0  0  0  0  0  0  0  0  0  0  0  0
    5.8038   -5.3386    2.6440 H   0  0  0  0  0  0  0  0  0  0  0  0
    5.6834   -6.4998    4.8265 H   0  0  0  0  0  0  0  0  0  0  0  0
    3.8574   -5.9734    6.4395 H   0  0  0  0  0  0  0  0  0  0  0  0
    2.0926   -4.3464    5.7886 H   0  0  0  0  0  0  0  0  0  0  0  0
    1.2987   -1.0078   -1.1070 H   0  0  0  0  0  0  0  0  0  0  0  0
    0.8424   -1.0499    0.4864 H   0  0  0  0  0  0  0  0  0  0  0  0
    0.4135    2.0811   -0.5964 H   0  0  0  0  0  0  0  0  0  0  0  0
    1.9844    2.1827   -1.4741 H   0  0  0  0  0  0  0  0  0  0  0  0
    0.8385    0.8822   -1.8227 H   0  0  0  0  0  0  0  0  0  0  0  0
    3.8515   -1.0849    0.1105 H   0  0  0  0  0  0  0  0  0  0  0  0
    3.5513   -4.9608   -4.2002 H   0  0  0  0  0  0  0  0  0  0  0  0
    3.4060   -2.4982   -4.4906 H   0  0  0  0  0  0  0  0  0  0  0  0
    3.1826   -1.0267   -2.5343 H   0  0  0  0  0  0  0  0  0  0  0  0
    2.8660   -4.5595   -0.0367 H   0  0  0  0  0  0  0  0  0  0  0  0
    3.4435   -5.9397   -1.9228 H   0  0  0  0  0  0  0  0  0  0  0  0
    5.0883   -3.0881    0.1359 H   0  0  0  0  0  0  0  0  0  0  0  0
  1  2  2  0  0  0  0
  1  5  1  0  0  0  0
  1 24  1  0  0  0  0
  2  3  1  0  0  0  0
  2 25  1  0  0  0  0
  3  4  2  0  0  0  0
  3 26  1  0  0  0  0
  4  6  1  0  0  0  0
  4 27  1  0  0  0  0
  6  5  2  0  0  0  0
  6 19  1  0  0  0  0
  8 22  1  0  0  0  0
  8 28  1  0  0  0  0
  8 29  1  0  0  0  0
  9 30  1  0  0  0  0
  9 31  1  0  0  0  0
  9 32  1  0  0  0  0
 10 11  1  0  0  0  0
 10 33  1  6  0  0  0
 10  8  1  0  0  0  0
 10  7  1  0  0  0  0
 11 15  1  0  0  0  0
 12 13  2  0  0  0  0
 12 16  1  0  0  0  0
 12 34  1  0  0  0  0
 13 14  1  0  0  0  0
 13 35  1  0  0  0  0
 14 11  2  0  0  0  0
 14 36  1  0  0  0  0
 15 16  2  0  0  0  0
 15 37  1  0  0  0  0
 16 38  1  0  0  0  0
 17  5  1  0  0  0  0
 17  7  2  0  0  0  0
 17 18  1  0  0  0  0
 18 39  1  0  0  0  0
 19 20  1  0  0  0  0
 20  7  1  0  0  0  0
 20 21  2  0  0  0  0
 22  9  1  0  0  0  0
 22 23  2  0  0  0  0
M  END
>  <DRUGBANK_ID>
DB08496

>  <COMMON_NAME>
(R)-warfarin

>  <CAS_NUMBER>
40281-89-8

>  <UNII>
09CC5J5C8A

>  <SYNONYMS>
(+)-warfarin; (R)-4-Hydroxy-3-(3-oxo-1-phenylbutyl)-2-benzopyrone; (R)-4-Hydroxy-3-(3-oxo-1-phenylbutyl)-2H-1-benzopyran-2-one; 4-hydroxy-3-[(1R)-3-oxo-1-phenylbutyl]-2H-chromen-2-one; R-warfarin; R,R-Warfarin alcohol

$$$$
