
 OpenBabel10282417153D

 66 69  0  0  0  0  0  0  0  0999 V2000
    2.6270    0.1017   -0.1142 C   0  0  0  0  0  0  0  0  0  0  0  0
   -7.7123    2.5138    5.8815 C   0  0  0  0  0  0  0  0  0  0  0  0
   -3.6632   -4.4269   -0.1298 C   0  0  0  0  0  0  0  0  0  0  0  0
   -3.2067   -3.8863   -1.3294 C   0  0  0  0  0  0  0  0  0  0  0  0
   -3.0172   -4.0594    1.0409 C   0  0  0  0  0  0  0  0  0  0  0  0
   -2.1417   -2.8939   -1.3269 C   0  0  0  0  0  0  0  0  0  0  0  0
   -2.0269   -3.0442    1.0482 C   0  0  0  0  0  0  0  0  0  0  0  0
   -3.3600    0.3040   -0.1524 C   0  0  0  0  0  0  0  0  0  0  0  0
   -4.1054    0.5730   -2.4128 C   0  0  0  0  0  0  0  0  0  0  0  0
   -2.7407    1.5245   -0.2040 C   0  0  0  0  0  0  0  0  0  0  0  0
   -3.5061    1.8259   -2.4313 C   0  0  0  0  0  0  0  0  0  0  0  0
   -7.0616    1.2336    3.5011 C   0  0  0  0  0  0  0  0  0  0  0  0
   -8.5576   -0.5603    4.1412 C   0  0  0  0  0  0  0  0  0  0  0  0
   -6.9341    0.6667    2.2440 C   0  0  0  0  0  0  0  0  0  0  0  0
   -8.4302   -1.1402    2.8849 C   0  0  0  0  0  0  0  0  0  0  0  0
    0.1104    2.3978    0.0490 C   0  0  0  0  0  0  0  0  0  0  0  0
   -0.5073    3.1373   -1.2138 C   0  0  0  0  0  0  0  0  0  0  0  0
   -4.5861   -1.5423   -1.2258 C   0  0  0  0  0  0  0  0  0  0  0  0
   -6.8181   -2.4466   -1.6720 C   0  0  0  0  0  0  0  0  0  0  0  0
    1.1811   -0.0448   -0.1555 C   0  0  0  0  0  0  0  0  0  0  0  0
   -4.0290   -0.1803   -1.2623 C   0  0  0  0  0  0  0  0  0  0  0  0
   -1.5307   -2.4351   -0.1181 C   0  0  0  0  0  0  0  0  0  0  0  0
   -7.9185    0.6532    4.4360 C   0  0  0  0  0  0  0  0  0  0  0  0
   -2.6857    2.2221   -1.3783 C   0  0  0  0  0  0  0  0  0  0  0  0
   -7.6101   -0.5251    1.9565 C   0  0  0  0  0  0  0  0  0  0  0  0
    0.1476    0.8327    0.0613 C   0  0  0  0  0  0  0  0  0  0  0  0
   -7.5872   -3.5692   -1.0056 C   0  0  0  0  0  0  0  0  0  0  0  0
   -0.6371   -1.2154    0.0087 C   0  0  0  0  0  0  0  0  0  0  0  0
   -6.1372   -1.3727    0.5113 C   0  0  0  0  0  0  0  0  0  0  0  0
   -0.8613   -0.0096    0.5261 N   0  0  0  0  0  0  0  0  0  0  0  0
   -5.9077   -1.7367   -0.7955 N   0  0  0  0  0  0  0  0  0  0  0  0
   -8.8040   -3.5562   -0.7798 O   0  0  0  0  0  0  0  0  0  0  0  0
   -6.8516   -4.6332   -0.6455 O   0  0  0  0  0  0  0  0  0  0  0  0
   -5.2463   -1.2066    1.3277 O   0  0  0  0  0  0  0  0  0  0  0  0
   -8.2200    1.2010    5.6538 O   0  0  0  0  0  0  0  0  0  0  0  0
   -1.9322    3.3473   -1.4027 O   0  0  0  0  0  0  0  0  0  0  0  0
    0.6866   -1.3263   -0.3332 O   0  0  0  0  0  0  0  0  0  0  0  0
   -7.4743   -1.1708    0.7382 O   0  0  0  0  0  0  0  0  0  0  0  0
    2.9822   -0.3873    0.8004 H   0  0  0  0  0  0  0  0  0  0  0  0
    3.0595   -0.3713   -0.9918 H   0  0  0  0  0  0  0  0  0  0  0  0
    2.9117    1.1557   -0.0635 H   0  0  0  0  0  0  0  0  0  0  0  0
   -6.6234    2.4832    5.9899 H   0  0  0  0  0  0  0  0  0  0  0  0
   -8.0066    3.2168    5.0913 H   0  0  0  0  0  0  0  0  0  0  0  0
   -8.1341    2.8826    6.8196 H   0  0  0  0  0  0  0  0  0  0  0  0
   -4.6044   -4.9768   -0.0670 H   0  0  0  0  0  0  0  0  0  0  0  0
   -3.8977   -3.9924   -2.1811 H   0  0  0  0  0  0  0  0  0  0  0  0
   -3.3521   -4.5017    1.9746 H   0  0  0  0  0  0  0  0  0  0  0  0
   -2.0559   -2.2703   -2.2251 H   0  0  0  0  0  0  0  0  0  0  0  0
   -1.7325   -2.6441    2.0139 H   0  0  0  0  0  0  0  0  0  0  0  0
   -3.1833   -0.3109    0.7338 H   0  0  0  0  0  0  0  0  0  0  0  0
   -4.6304    0.1594   -3.2671 H   0  0  0  0  0  0  0  0  0  0  0  0
   -2.1946    1.8480    0.6698 H   0  0  0  0  0  0  0  0  0  0  0  0
   -3.7441    2.4898   -3.2483 H   0  0  0  0  0  0  0  0  0  0  0  0
   -6.4691    2.1146    3.7188 H   0  0  0  0  0  0  0  0  0  0  0  0
   -9.1590   -1.0624    4.8916 H   0  0  0  0  0  0  0  0  0  0  0  0
   -6.2534    1.1194    1.5246 H   0  0  0  0  0  0  0  0  0  0  0  0
   -8.9456   -2.0592    2.6249 H   0  0  0  0  0  0  0  0  0  0  0  0
   -0.3431    2.8056    0.9620 H   0  0  0  0  0  0  0  0  0  0  0  0
    1.1567    2.7459    0.0826 H   0  0  0  0  0  0  0  0  0  0  0  0
   -0.1594    4.1826   -1.1491 H   0  0  0  0  0  0  0  0  0  0  0  0
   -0.0810    2.7547   -2.1470 H   0  0  0  0  0  0  0  0  0  0  0  0
   -4.4381   -1.9751   -2.2158 H   0  0  0  0  0  0  0  0  0  0  0  0
   -4.0417   -2.0152   -0.4322 H   0  0  0  0  0  0  0  0  0  0  0  0
   -7.4801   -1.7098   -2.1199 H   0  0  0  0  0  0  0  0  0  0  0  0
   -6.2553   -2.9177   -2.4950 H   0  0  0  0  0  0  0  0  0  0  0  0
   -7.4580   -5.2216   -0.1433 H   0  0  0  0  0  0  0  0  0  0  0  0
  1 39  1  0  0  0  0
  1 40  1  0  0  0  0
  1 41  1  0  0  0  0
  2 42  1  0  0  0  0
  2 43  1  0  0  0  0
  2 44  1  0  0  0  0
  3 45  1  0  0  0  0
  4  3  2  0  0  0  0
  4 46  1  0  0  0  0
  5  3  1  0  0  0  0
  5 47  1  0  0  0  0
  6  4  1  0  0  0  0
  6 48  1  0  0  0  0
  7  5  2  0  0  0  0
  7 49  1  0  0  0  0
  8 50  1  0  0  0  0
  9 51  1  0  0  0  0
 10  8  1  0  0  0  0
 10 52  1  0  0  0  0
 11  9  2  0  0  0  0
 11 53  1  0  0  0  0
 12 54  1  0  0  0  0
 13 55  1  0  0  0  0
 14 12  1  0  0  0  0
 14 56  1  0  0  0  0
 15 13  2  0  0  0  0
 15 57  1  0  0  0  0
 16 58  1  0  0  0  0
 16 59  1  0  0  0  0
 17 16  1  0  0  0  0
 17 60  1  0  0  0  0
 17 61  1  0  0  0  0
 18 62  1  0  0  0  0
 18 63  1  0  0  0  0
 19 64  1  0  0  0  0
 19 65  1  0  0  0  0
 20  1  1  0  0  0  0
 21  8  2  0  0  0  0
 21  9  1  0  0  0  0
 21 18  1  0  0  0  0
 22  6  2  0  0  0  0
 22  7  1  0  0  0  0
 23 12  2  0  0  0  0
 23 13  1  0  0  0  0
 24 10  2  0  0  0  0
 24 11  1  0  0  0  0
 25 14  2  0  0  0  0
 25 15  1  0  0  0  0
 26 16  1  0  0  0  0
 26 20  2  0  0  0  0
 27 19  1  0  0  0  0
 28 22  1  0  0  0  0
 30 26  1  0  0  0  0
 30 28  2  0  0  0  0
 31 18  1  0  0  0  0
 31 19  1  0  0  0  0
 31 29  1  0  0  0  0
 32 27  2  0  0  0  0
 33 27  1  0  0  0  0
 33 66  1  0  0  0  0
 34 29  2  0  0  0  0
 35  2  1  0  0  0  0
 35 23  1  0  0  0  0
 36 17  1  0  0  0  0
 36 24  1  0  0  0  0
 37 20  1  0  0  0  0
 37 28  1  0  0  0  0
 38 25  1  0  0  0  0
 38 29  1  0  0  0  0
M  END
>  <DRUGBANK_ID>
DB06510

>  <COMMON_NAME>
Muraglitazar

>  <CAS_NUMBER>
331741-94-7

>  <UNII>
W1MKM70WQI

>  <SYNONYMS>
Muraglitazar

$$$$
