
 OpenBabel10282417203D

 86 87  0  0  0  0  0  0  0  0999 V2000
    0.8858   -0.9811   -0.1461 C   0  0  0  0  0  0  0  0  0  0  0  0
    0.3081    4.0619    1.5244 C   0  0  0  0  0  0  0  0  0  0  0  0
   -1.6436   -2.4069    0.2044 C   0  0  0  0  0  0  0  0  0  0  0  0
    2.8178   -0.5155   -5.8297 C   0  0  0  0  0  0  0  0  0  0  0  0
    1.4121    1.5627    3.7919 C   0  0  0  0  0  0  0  0  0  0  0  0
    4.6788    2.3496   -3.0777 C   0  0  0  0  0  0  0  0  0  0  0  0
    3.4582   -2.7527   -2.7062 C   0  0  0  0  0  0  0  0  0  0  0  0
    4.8189    4.4856    0.0903 C   0  0  0  0  0  0  0  0  0  0  0  0
   -0.8317    1.1903   -0.4130 C   0  0  0  0  0  0  0  0  0  0  0  0
   -2.1323    1.6964    1.3607 C   0  0  0  0  0  0  0  0  0  0  0  0
   -1.1496   -0.0375   -1.0512 C   0  0  0  0  0  0  0  0  0  0  0  0
   -0.1166    1.8887    1.4877 C   0  0  0  0  0  0  0  0  0  0  0  0
    0.9594    2.1919   -1.5168 C   0  0  0  0  0  0  0  0  0  0  0  0
    1.2362    3.1521   -0.5263 C   0  0  0  0  0  0  0  0  0  0  0  0
   -1.2452    3.0873   -1.1674 C   0  0  0  0  0  0  0  0  0  0  0  0
   -2.5350    1.6976   -0.7449 C   0  0  0  0  0  0  0  0  0  0  0  0
   -1.4509   -1.2867   -3.0308 C   0  0  0  0  0  0  0  0  0  0  0  0
    0.4618   -0.0219   -4.5510 C   0  0  0  0  0  0  0  0  0  0  0  0
    2.3998    0.7817    0.9012 C   0  0  0  0  0  0  0  0  0  0  0  0
    3.2885    1.0635   -1.4704 C   0  0  0  0  0  0  0  0  0  0  0  0
   -0.9707    0.0877   -3.9675 C   0  0  0  0  0  0  0  0  0  0  0  0
    2.2604    0.6392   -0.8222 C   0  0  0  0  0  0  0  0  0  0  0  0
   -0.4196   -2.4387   -2.3694 C   0  0  0  0  0  0  0  0  0  0  0  0
    1.4262   -1.3144   -4.1777 C   0  0  0  0  0  0  0  0  0  0  0  0
    2.8934    1.8680    1.5996 C   0  0  0  0  0  0  0  0  0  0  0  0
    3.8288    2.1630   -0.8444 C   0  0  0  0  0  0  0  0  0  0  0  0
    1.0892   -2.4663   -2.9970 C   0  0  0  0  0  0  0  0  0  0  0  0
    3.5774    2.6376    0.6294 C   0  0  0  0  0  0  0  0  0  0  0  0
   -1.5679    1.8703   -3.9413 C   0  0  0  0  0  0  0  0  0  0  0  0
    0.7342    0.4939   -2.1802 C   0  0  0  0  0  0  0  0  0  0  0  0
    0.2521    0.6030   -0.4502 N   0  0  0  0  0  0  0  0  0  0  0  0
    0.6761    2.9555    0.8085 N   0  0  0  0  0  0  0  0  0  0  0  0
   -1.7684    2.3412   -5.0606 O   0  0  0  0  0  0  0  0  0  0  0  0
    0.6729   -0.6105   -2.3876 O   0  0  0  0  0  0  0  0  0  0  0  0
   -0.5564   -2.8606   -0.8351 O   0  0  0  0  0  0  0  0  0  0  0  0
    2.7442   -1.2677   -4.6425 O   0  0  0  0  0  0  0  0  0  0  0  0
    2.4830    2.2520    2.9208 O   0  0  0  0  0  0  0  0  0  0  0  0
    4.5383    2.9118   -1.7671 O   0  0  0  0  0  0  0  0  0  0  0  0
    2.2066   -2.6795   -2.0155 O   0  0  0  0  0  0  0  0  0  0  0  0
    3.9024    3.9251    1.0055 O   0  0  0  0  0  0  0  0  0  0  0  0
   -1.7363    3.0239   -2.8178 O   0  0  0  0  0  0  0  0  0  0  0  0
   -1.0044    1.3929   -2.0910 O   0  0  0  0  0  0  0  0  0  0  0  0
    0.8254   -1.6098    0.7546 H   0  0  0  0  0  0  0  0  0  0  0  0
    0.0651   -0.8239    0.4923 H   0  0  0  0  0  0  0  0  0  0  0  0
    1.9540   -1.0505    0.0507 H   0  0  0  0  0  0  0  0  0  0  0  0
   -0.7732    3.9981    1.4992 H   0  0  0  0  0  0  0  0  0  0  0  0
    0.7111    3.7874    2.4861 H   0  0  0  0  0  0  0  0  0  0  0  0
    0.7883    4.8676    1.0242 H   0  0  0  0  0  0  0  0  0  0  0  0
   -1.4387   -1.4857    0.8333 H   0  0  0  0  0  0  0  0  0  0  0  0
   -2.5556   -2.1486   -0.3290 H   0  0  0  0  0  0  0  0  0  0  0  0
   -1.7417   -3.0685    1.0529 H   0  0  0  0  0  0  0  0  0  0  0  0
    1.8707   -0.5324   -6.3832 H   0  0  0  0  0  0  0  0  0  0  0  0
    3.0997    0.5031   -5.5492 H   0  0  0  0  0  0  0  0  0  0  0  0
    3.5784   -0.9805   -6.4477 H   0  0  0  0  0  0  0  0  0  0  0  0
    0.3324    1.9514    3.7413 H   0  0  0  0  0  0  0  0  0  0  0  0
    1.3588    0.4801    3.6176 H   0  0  0  0  0  0  0  0  0  0  0  0
    1.5114    1.8082    4.8346 H   0  0  0  0  0  0  0  0  0  0  0  0
    4.7930    1.2491   -3.1067 H   0  0  0  0  0  0  0  0  0  0  0  0
    3.8053    2.6543   -3.6695 H   0  0  0  0  0  0  0  0  0  0  0  0
    5.5979    2.7351   -3.4819 H   0  0  0  0  0  0  0  0  0  0  0  0
    3.2474   -3.1619   -3.6920 H   0  0  0  0  0  0  0  0  0  0  0  0
    3.9854   -1.7809   -2.7666 H   0  0  0  0  0  0  0  0  0  0  0  0
    4.1297   -3.4701   -2.2318 H   0  0  0  0  0  0  0  0  0  0  0  0
    5.6038    3.7585   -0.1722 H   0  0  0  0  0  0  0  0  0  0  0  0
    4.2845    4.8769   -0.7909 H   0  0  0  0  0  0  0  0  0  0  0  0
    5.3212    5.2896    0.5980 H   0  0  0  0  0  0  0  0  0  0  0  0
   -1.7239    0.3852    0.0941 H   0  0  0  0  0  0  0  0  0  0  0  0
   -1.0953    1.5268    0.3643 H   0  0  0  0  0  0  0  0  0  0  0  0
   -1.9109    0.5848    1.8174 H   0  0  0  0  0  0  0  0  0  0  0  0
   -2.0565    2.5362    2.0365 H   0  0  0  0  0  0  0  0  0  0  0  0
   -2.0916    0.2021   -1.7522 H   0  0  0  0  0  0  0  0  0  0  0  0
   -1.1601   -1.0007   -0.8247 H   0  0  0  0  0  0  0  0  0  0  0  0
    0.2675    0.8547    1.3665 H   0  0  0  0  0  0  0  0  0  0  0  0
    0.4189    1.7610    2.2945 H   0  0  0  0  0  0  0  0  0  0  0  0
    1.7733    2.1006   -2.2842 H   0  0  0  0  0  0  0  0  0  0  0  0
    0.4712    2.4101   -2.6210 H   0  0  0  0  0  0  0  0  0  0  0  0
    1.2460    4.0643   -1.1520 H   0  0  0  0  0  0  0  0  0  0  0  0
    0.3224    2.7767   -0.5889 H   0  0  0  0  0  0  0  0  0  0  0  0
   -1.8178    3.6962   -0.3786 H   0  0  0  0  0  0  0  0  0  0  0  0
   -0.5492    3.9231   -1.3603 H   0  0  0  0  0  0  0  0  0  0  0  0
   -3.4122    1.0408   -0.9425 H   0  0  0  0  0  0  0  0  0  0  0  0
   -3.0136    2.5488   -1.2178 H   0  0  0  0  0  0  0  0  0  0  0  0
   -2.4107   -1.2343   -2.3970 H   0  0  0  0  0  0  0  0  0  0  0  0
    0.9846    0.9507   -4.8622 H   0  0  0  0  0  0  0  0  0  0  0  0
    1.8480    0.1529    1.6535 H   0  0  0  0  0  0  0  0  0  0  0  0
    3.1217    0.9187   -2.5295 H   0  0  0  0  0  0  0  0  0  0  0  0
  1 43  1  0  0  0  0
  1 44  1  0  0  0  0
  1 45  1  0  0  0  0
  2 46  1  0  0  0  0
  2 47  1  0  0  0  0
  2 48  1  0  0  0  0
  3 49  1  0  0  0  0
  3 50  1  0  0  0  0
  3 51  1  0  0  0  0
  4 52  1  0  0  0  0
  4 53  1  0  0  0  0
  4 54  1  0  0  0  0
  5 55  1  0  0  0  0
  5 56  1  0  0  0  0
  5 57  1  0  0  0  0
  6 58  1  0  0  0  0
  6 59  1  0  0  0  0
  6 60  1  0  0  0  0
  7 61  1  0  0  0  0
  7 62  1  0  0  0  0
  7 63  1  0  0  0  0
  8 64  1  0  0  0  0
  8 65  1  0  0  0  0
  8 66  1  0  0  0  0
  9 67  1  0  0  0  0
  9 68  1  0  0  0  0
 10 69  1  0  0  0  0
 10 70  1  0  0  0  0
 11  9  1  0  0  0  0
 11 71  1  0  0  0  0
 11 72  1  0  0  0  0
 12 10  1  0  0  0  0
 12 73  1  0  0  0  0
 12 74  1  0  0  0  0
 13 75  1  0  0  0  0
 13 76  1  0  0  0  0
 14 13  1  0  0  0  0
 14 77  1  0  0  0  0
 14 78  1  0  0  0  0
 15  9  1  0  0  0  0
 15 79  1  0  0  0  0
 15 80  1  0  0  0  0
 16 10  1  0  0  0  0
 16 81  1  0  0  0  0
 16 82  1  0  0  0  0
 17 83  1  0  0  0  0
 18 84  1  0  0  0  0
 19 85  1  0  0  0  0
 20 86  1  0  0  0  0
 21 17  2  0  0  0  0
 21 18  1  0  0  0  0
 22 19  2  0  0  0  0
 22 20  1  0  0  0  0
 23 17  1  0  0  0  0
 24 18  2  0  0  0  0
 25 19  1  0  0  0  0
 26 20  2  0  0  0  0
 27 23  2  0  0  0  0
 27 24  1  0  0  0  0
 28 25  2  0  0  0  0
 28 26  1  0  0  0  0
 29 21  1  0  0  0  0
 30 22  1  0  0  0  0
 31  1  1  0  0  0  0
 31 11  1  0  0  0  0
 31 13  1  0  0  0  0
 32  2  1  0  0  0  0
 32 12  1  0  0  0  0
 32 14  1  0  0  0  0
 33 29  2  0  0  0  0
 34 30  2  0  0  0  0
 35  3  1  0  0  0  0
 35 23  1  0  0  0  0
 36  4  1  0  0  0  0
 36 24  1  0  0  0  0
 37  5  1  0  0  0  0
 37 25  1  0  0  0  0
 38  6  1  0  0  0  0
 38 26  1  0  0  0  0
 39  7  1  0  0  0  0
 39 27  1  0  0  0  0
 40  8  1  0  0  0  0
 40 28  1  0  0  0  0
 41 15  1  0  0  0  0
 41 29  1  0  0  0  0
 42 16  1  0  0  0  0
 42 30  1  0  0  0  0
M  END
>  <DRUGBANK_ID>
DB13265

>  <COMMON_NAME>
Hexobendine

>  <CAS_NUMBER>
54-03-5

>  <UNII>
B6X4SYR93B

>  <SYNONYMS>
Hexobendine

$$$$
