
 OpenBabel10282417203D

 40 39  0  0  0  0  0  0  0  0999 V2000
    0.6770    1.2160    0.0070 C   0  0  0  0  0  0  0  0  0  0  0  0
    1.4420    0.0470   -0.0030 C   0  0  0  0  0  0  0  0  0  0  0  0
   -0.7010    1.1260   -0.0040 C   0  0  0  0  0  0  0  0  0  0  0  0
   -0.6110   -1.1650    0.0090 C   0  0  0  0  0  0  0  0  0  0  0  0
    0.7650   -1.1660   -0.0050 C   0  0  0  0  0  0  0  0  0  0  0  0
    1.5340   -2.4770   -0.0224 C   0  0  0  0  0  0  0  0  0  0  0  0
   -1.3480   -0.0500   -0.0030 N   0  0  0  0  0  0  0  0  0  0  0  0
    0.9061   -3.5820   -0.0241 O   0  0  0  0  0  0  0  0  0  0  0  0
    2.9539   -2.4672   -0.0368 O   0  5  0  0  0  0  0  0  0  0  0  0
    0.6770    1.2160    0.0070 C   0  0  0  0  0  0  0  0  0  0  0  0
    1.4420    0.0470   -0.0030 C   0  0  0  0  0  0  0  0  0  0  0  0
   -0.7010    1.1260   -0.0040 C   0  0  0  0  0  0  0  0  0  0  0  0
   -0.6110   -1.1650    0.0090 C   0  0  0  0  0  0  0  0  0  0  0  0
    0.7650   -1.1660   -0.0050 C   0  0  0  0  0  0  0  0  0  0  0  0
    1.5340   -2.4770   -0.0224 C   0  0  0  0  0  0  0  0  0  0  0  0
   -1.3480   -0.0500   -0.0030 N   0  0  0  0  0  0  0  0  0  0  0  0
    0.9061   -3.5820   -0.0241 O   0  0  0  0  0  0  0  0  0  0  0  0
    2.9539   -2.4672   -0.0368 O   0  5  0  0  0  0  0  0  0  0  0  0
    0.6770    1.2160    0.0070 C   0  0  0  0  0  0  0  0  0  0  0  0
    1.4420    0.0470   -0.0030 C   0  0  0  0  0  0  0  0  0  0  0  0
   -0.7010    1.1260   -0.0040 C   0  0  0  0  0  0  0  0  0  0  0  0
   -0.6110   -1.1650    0.0090 C   0  0  0  0  0  0  0  0  0  0  0  0
    0.7650   -1.1660   -0.0050 C   0  0  0  0  0  0  0  0  0  0  0  0
    1.5340   -2.4770   -0.0224 C   0  0  0  0  0  0  0  0  0  0  0  0
   -1.3480   -0.0500   -0.0030 N   0  0  0  0  0  0  0  0  0  0  0  0
    0.9061   -3.5820   -0.0241 O   0  0  0  0  0  0  0  0  0  0  0  0
    2.9539   -2.4672   -0.0368 O   0  5  0  0  0  0  0  0  0  0  0  0
    1.0084   -0.0477    0.0875 Al  0  1  0  0  0  0  0  0  0  0  0  0
    1.1549    2.1732    0.0231 H   0  0  0  0  0  0  0  0  0  0  0  0
    2.5113    0.0847   -0.0089 H   0  0  0  0  0  0  0  0  0  0  0  0
   -1.2752    2.0288   -0.0137 H   0  0  0  0  0  0  0  0  0  0  0  0
   -1.1180   -2.1070    0.0306 H   0  0  0  0  0  0  0  0  0  0  0  0
    1.1549    2.1732    0.0231 H   0  0  0  0  0  0  0  0  0  0  0  0
    2.5113    0.0847   -0.0089 H   0  0  0  0  0  0  0  0  0  0  0  0
   -1.2752    2.0288   -0.0137 H   0  0  0  0  0  0  0  0  0  0  0  0
   -1.1180   -2.1070    0.0306 H   0  0  0  0  0  0  0  0  0  0  0  0
    1.1549    2.1732    0.0231 H   0  0  0  0  0  0  0  0  0  0  0  0
    2.5113    0.0847   -0.0089 H   0  0  0  0  0  0  0  0  0  0  0  0
   -1.2752    2.0288   -0.0137 H   0  0  0  0  0  0  0  0  0  0  0  0
   -1.1180   -2.1070    0.0306 H   0  0  0  0  0  0  0  0  0  0  0  0
  1 29  1  0  0  0  0
  2  1  2  0  0  0  0
  2 30  1  0  0  0  0
  3  1  1  0  0  0  0
  3 31  1  0  0  0  0
  4 32  1  0  0  0  0
  5  2  1  0  0  0  0
  5  4  2  0  0  0  0
  6  5  1  0  0  0  0
  7  3  2  0  0  0  0
  7  4  1  0  0  0  0
  8  6  2  0  0  0  0
  9  6  1  0  0  0  0
 10 33  1  0  0  0  0
 11 10  2  0  0  0  0
 11 34  1  0  0  0  0
 12 10  1  0  0  0  0
 12 35  1  0  0  0  0
 13 36  1  0  0  0  0
 14 11  1  0  0  0  0
 14 13  2  0  0  0  0
 15 14  1  0  0  0  0
 16 12  2  0  0  0  0
 16 13  1  0  0  0  0
 17 15  2  0  0  0  0
 18 15  1  0  0  0  0
 19 37  1  0  0  0  0
 20 19  2  0  0  0  0
 20 38  1  0  0  0  0
 21 19  1  0  0  0  0
 21 39  1  0  0  0  0
 22 40  1  0  0  0  0
 23 20  1  0  0  0  0
 23 22  2  0  0  0  0
 24 23  1  0  0  0  0
 25 21  2  0  0  0  0
 25 22  1  0  0  0  0
 26 24  2  0  0  0  0
 27 24  1  0  0  0  0
M  CHG  4   9  -1  18  -1  27  -1  28   3
M  END
>  <DRUGBANK_ID>
DB13576

>  <COMMON_NAME>
Aluminium nicotinate

>  <CAS_NUMBER>
1976-28-9

>  <UNII>
BDI80PUH9N

>  <SYNONYMS>
Niacin aluminum

$$$$
