
 OpenBabel10282417203D

 46 47  0  0  0  0  0  0  0  0999 V2000
    0.9526   -0.0309    0.0907 C   0  0  0  0  0  0  0  0  0  0  0  0
    0.5021    0.8765   -1.0451 C   0  0  0  0  0  0  0  0  0  0  0  0
    1.0880    0.4307   -2.3743 C   0  0  0  0  0  0  0  0  0  0  0  0
   -1.8306   -4.7208   -1.2606 C   0  0  0  0  0  0  0  0  0  0  0  0
   -3.5910    1.3035   -8.3167 C   0  0  0  0  0  0  0  0  0  0  0  0
   -2.5004   -3.4318   -1.0435 C   0  0  0  0  0  0  0  0  0  0  0  0
   -1.8422   -5.3190   -2.5875 C   0  0  0  0  0  0  0  0  0  0  0  0
   -2.3756    1.5693   -7.6999 C   0  0  0  0  0  0  0  0  0  0  0  0
   -4.4822    0.4157   -7.7166 C   0  0  0  0  0  0  0  0  0  0  0  0
   -3.1483   -2.7010   -2.1611 C   0  0  0  0  0  0  0  0  0  0  0  0
   -2.4746   -4.5906   -3.7055 C   0  0  0  0  0  0  0  0  0  0  0  0
   -2.0531    0.9257   -6.4919 C   0  0  0  0  0  0  0  0  0  0  0  0
   -4.1790   -0.1839   -6.4851 C   0  0  0  0  0  0  0  0  0  0  0  0
    0.6774   -0.9416   -2.7290 C   0  0  0  0  0  0  0  0  0  0  0  0
   -3.0888   -3.2184   -3.5237 C   0  0  0  0  0  0  0  0  0  0  0  0
   -2.9393   -0.0040   -5.8782 C   0  0  0  0  0  0  0  0  0  0  0  0
   -0.8085   -1.0761   -2.9449 C   0  0  3  0  0  0  0  0  0  0  0  0
   -1.5973   -0.2074   -3.8552 C   0  0  0  0  0  0  0  0  0  0  0  0
   -0.6080   -2.4451   -3.4083 C   0  0  0  0  0  0  0  0  0  0  0  0
   -2.9766   -2.2573   -4.7126 N   0  0  0  0  0  0  0  0  0  0  0  0
   -2.6095   -0.7630   -4.6661 N   0  0  0  0  0  0  0  0  0  0  0  0
   -1.4304    1.0168   -3.7746 O   0  0  0  0  0  0  0  0  0  0  0  0
   -0.4635   -3.2948   -2.6354 O   0  0  0  0  0  0  0  0  0  0  0  0
   -0.3128   -2.6256   -4.7143 O   0  0  0  0  0  0  0  0  0  0  0  0
    0.5657   -1.0514   -0.0118 H   0  0  0  0  0  0  0  0  0  0  0  0
    0.5936    0.3479    1.0485 H   0  0  0  0  0  0  0  0  0  0  0  0
    2.0450   -0.0853    0.1097 H   0  0  0  0  0  0  0  0  0  0  0  0
   -0.5954    0.9103   -1.0648 H   0  0  0  0  0  0  0  0  0  0  0  0
    0.8401    1.8987   -0.8728 H   0  0  0  0  0  0  0  0  0  0  0  0
    0.7843    1.0884   -3.1872 H   0  0  0  0  0  0  0  0  0  0  0  0
    2.1767    0.4150   -2.3577 H   0  0  0  0  0  0  0  0  0  0  0  0
   -1.0372   -5.0542   -0.5381 H   0  0  0  0  0  0  0  0  0  0  0  0
   -3.8505    1.7977   -9.2508 H   0  0  0  0  0  0  0  0  0  0  0  0
   -2.2689   -2.8734   -0.1006 H   0  0  0  0  0  0  0  0  0  0  0  0
   -1.0786   -6.1056   -2.8308 H   0  0  0  0  0  0  0  0  0  0  0  0
   -1.6708    2.2565   -8.1685 H   0  0  0  0  0  0  0  0  0  0  0  0
   -5.4227    0.1828   -8.2085 H   0  0  0  0  0  0  0  0  0  0  0  0
   -3.3867   -1.6246   -2.0145 H   0  0  0  0  0  0  0  0  0  0  0  0
   -2.0915   -4.9010   -4.7061 H   0  0  0  0  0  0  0  0  0  0  0  0
   -1.0779    1.1690   -6.0681 H   0  0  0  0  0  0  0  0  0  0  0  0
   -4.9448   -0.7494   -5.9673 H   0  0  0  0  0  0  0  0  0  0  0  0
    1.2159   -1.2536   -3.6327 H   0  0  0  0  0  0  0  0  0  0  0  0
    0.9892   -1.6746   -1.9552 H   0  0  0  0  0  0  0  0  0  0  0  0
   -1.2930   -0.9969   -1.9597 H   0  0  0  0  0  0  0  0  0  0  0  0
   -3.3597   -2.5429   -5.6228 H   0  0  0  0  0  0  0  0  0  0  0  0
   -1.0942   -3.1387   -4.9796 H   0  0  0  0  0  0  0  0  0  0  0  0
  1 25  1  0  0  0  0
  1 26  1  0  0  0  0
  1 27  1  0  0  0  0
  2  1  1  0  0  0  0
  2 28  1  0  0  0  0
  2 29  1  0  0  0  0
  3  2  1  0  0  0  0
  3 30  1  0  0  0  0
  3 31  1  0  0  0  0
  4 32  1  0  0  0  0
  5 33  1  0  0  0  0
  6  4  2  0  0  0  0
  6 34  1  0  0  0  0
  7  4  1  0  0  0  0
  7 35  1  0  0  0  0
  8  5  2  0  0  0  0
  8 36  1  0  0  0  0
  9  5  1  0  0  0  0
  9 37  1  0  0  0  0
 10  6  1  0  0  0  0
 10 38  1  0  0  0  0
 11  7  2  0  0  0  0
 11 39  1  0  0  0  0
 12  8  1  0  0  0  0
 12 40  1  0  0  0  0
 13  9  2  0  0  0  0
 13 41  1  0  0  0  0
 14  3  1  0  0  0  0
 14 42  1  0  0  0  0
 14 43  1  0  0  0  0
 15 10  2  0  0  0  0
 15 11  1  0  0  0  0
 16 12  2  0  0  0  0
 16 13  1  0  0  0  0
 17 14  1  0  0  0  0
 17 44  1  0  0  0  0
 18 17  1  0  0  0  0
 19 17  1  0  0  0  0
 20 15  1  0  0  0  0
 20 45  1  0  0  0  0
 21 16  1  0  0  0  0
 21 18  1  0  0  0  0
 21 20  1  0  0  0  0
 22 18  2  0  0  0  0
 23 19  2  0  0  0  0
 24 19  1  0  0  0  0
 24 46  1  0  0  0  0
M  END
>  <DRUGBANK_ID>
DB13286

>  <COMMON_NAME>
Bumadizone

>  <CAS_NUMBER>
3583-64-0

>  <UNII>
ATD81G944M

>  <SYNONYMS>
bumadizona; Bumadizone

$$$$
