
 OpenBabel10282417213D

 50 49  0  0  0  0  0  0  0  0999 V2000
    0.7597    0.3785    0.2521 N   0  0  0  0  0  0  0  0  0  0  0  0
    0.5856   -0.5786    1.5058 C   0  0  0  0  0  0  0  0  0  0  0  0
    1.2602   -2.0836    1.8000 C   0  0  0  0  0  0  0  0  0  0  0  0
    2.7112   -2.2668    1.1877 N   0  0  0  0  0  0  0  0  0  0  0  0
    3.1703   -3.7863    1.1090 C   0  0  0  0  0  0  0  0  0  0  0  0
    2.8315   -4.8900   -0.1693 C   0  0  0  0  0  0  0  0  0  0  0  0
    3.1294   -4.4184   -1.6975 N   0  0  0  0  0  0  0  0  0  0  0  0
    2.5949   -4.8384   -2.9791 C   0  0  0  0  0  0  0  0  0  0  0  0
    1.0753   -4.8558   -3.0777 C   0  0  0  0  0  0  0  0  0  0  0  0
    0.5781   -4.2878   -4.2104 O   0  0  0  0  0  0  0  0  0  0  0  0
    0.3752   -5.2364   -2.1472 O   0  0  0  0  0  0  0  0  0  0  0  0
    3.3294   -1.3089   -0.2360 C   0  0  0  0  0  0  0  0  0  0  0  0
    2.7279   -0.9931   -2.1550 C   0  0  0  0  0  0  0  0  0  0  0  0
    1.8681   -0.3012   -2.8787 O   0  0  0  0  0  0  0  0  0  0  0  0
    2.7336   -1.5945   -3.2726 O   0  0  0  0  0  0  0  0  0  0  0  0
    2.1097    1.0420    0.0981 C   0  0  0  0  0  0  0  0  0  0  0  0
    3.0707    1.5579   -1.1148 C   0  0  0  0  0  0  0  0  0  0  0  0
    4.1999    1.9837   -0.9533 O   0  0  0  0  0  0  0  0  0  0  0  0
    2.7216    1.3817   -2.3940 O   0  0  0  0  0  0  0  0  0  0  0  0
    0.5023   -0.4716   -0.8699 C   0  0  0  0  0  0  0  0  0  0  0  0
   -0.0593   -3.2842   -0.1282 O   0  0  0  0  0  0  0  0  0  0  0  0
    0.7743   -2.3626   -0.3124 C   0  0  0  0  0  0  0  0  0  0  0  0
    1.7585   -3.0178   -0.5148 O   0  0  0  0  0  0  0  0  0  0  0  0
    2.7566   -3.0429   -2.0899 C   0  0  0  0  0  0  0  0  0  0  0  0
   -0.6263   -2.0281   -1.5290 O   0  0  0  0  0  0  0  0  0  0  0  0
    0.8570   -2.5181   -2.3581 C   0  0  0  0  0  0  0  0  0  0  0  0
    0.2045   -2.2907   -3.5077 O   0  0  0  0  0  0  0  0  0  0  0  0
    0.9295   -0.0205    2.3604 H   0  0  0  0  0  0  0  0  0  0  0  0
   -0.5216   -0.6952    1.5326 H   0  0  0  0  0  0  0  0  0  0  0  0
    0.9183   -2.6472    2.7027 H   0  0  0  0  0  0  0  0  0  0  0  0
    0.5687   -2.8700    1.4600 H   0  0  0  0  0  0  0  0  0  0  0  0
    4.2491   -3.6987    1.1323 H   0  0  0  0  0  0  0  0  0  0  0  0
    2.7745   -4.2581    2.0255 H   0  0  0  0  0  0  0  0  0  0  0  0
    3.2028   -5.8989   -0.0914 H   0  0  0  0  0  0  0  0  0  0  0  0
    1.7424   -5.0742    0.0158 H   0  0  0  0  0  0  0  0  0  0  0  0
    2.9862   -4.1424   -3.7838 H   0  0  0  0  0  0  0  0  0  0  0  0
    2.9941   -5.8061   -3.0522 H   0  0  0  0  0  0  0  0  0  0  0  0
    0.7575   -3.2954   -4.3396 H   0  0  0  0  0  0  0  0  0  0  0  0
    3.5396   -0.5493    0.5348 H   0  0  0  0  0  0  0  0  0  0  0  0
    4.3971   -1.5572   -0.2460 H   0  0  0  0  0  0  0  0  0  0  0  0
    1.7560    0.5597   -2.5346 H   0  0  0  0  0  0  0  0  0  0  0  0
    2.6921    1.0536    1.0177 H   0  0  0  0  0  0  0  0  0  0  0  0
    2.2727    0.0785   -0.2050 H   0  0  0  0  0  0  0  0  0  0  0  0
    3.2674    1.0891   -3.2130 H   0  0  0  0  0  0  0  0  0  0  0  0
   -0.5591   -0.2055   -1.1430 H   0  0  0  0  0  0  0  0  0  0  0  0
    0.4713    0.0003   -1.8813 H   0  0  0  0  0  0  0  0  0  0  0  0
    1.6113   -3.8908   -1.0270 H   0  0  0  0  0  0  0  0  0  0  0  0
    3.4227   -2.7808   -1.2214 H   0  0  0  0  0  0  0  0  0  0  0  0
    3.8774   -2.5210   -2.5487 H   0  0  0  0  0  0  0  0  0  0  0  0
   -0.7713   -1.7087   -0.4289 H   0  0  0  0  0  0  0  0  0  0  0  0
  1  2  1  0  0  0  0
  1 16  1  0  0  0  0
  2  3  1  0  0  0  0
  2 28  1  0  0  0  0
  2 29  1  0  0  0  0
  3  4  1  0  0  0  0
  3 30  1  0  0  0  0
  3 31  1  0  0  0  0
  4  5  1  0  0  0  0
  4 12  1  0  0  0  0
  5  6  1  0  0  0  0
  5 32  1  0  0  0  0
  5 33  1  0  0  0  0
  6  7  1  0  0  0  0
  6 34  1  0  0  0  0
  6 35  1  0  0  0  0
  7  8  1  0  0  0  0
  7 24  1  0  0  0  0
  8  9  1  0  0  0  0
  8 36  1  0  0  0  0
  8 37  1  0  0  0  0
  9 10  1  0  0  0  0
  9 11  2  0  0  0  0
 10 38  1  0  0  0  0
 12 13  1  0  0  0  0
 12 39  1  0  0  0  0
 12 40  1  0  0  0  0
 13 14  1  0  0  0  0
 13 15  2  0  0  0  0
 14 41  1  0  0  0  0
 16 17  1  0  0  0  0
 16 42  1  0  0  0  0
 16 43  1  0  0  0  0
 17 18  2  0  0  0  0
 17 19  1  0  0  0  0
 19 44  1  0  0  0  0
 20  1  1  0  0  0  0
 20 22  1  0  0  0  0
 20 45  1  0  0  0  0
 20 46  1  0  0  0  0
 22 21  2  0  0  0  0
 22 23  1  0  0  0  0
 23 47  1  0  0  0  0
 24 26  1  0  0  0  0
 24 48  1  0  0  0  0
 24 49  1  0  0  0  0
 25 50  1  0  0  0  0
 26 25  1  0  0  0  0
 26 27  2  0  0  0  0
M  END
>  <DRUGBANK_ID>
DB14007

>  <SECONDARY_ACCESSION_NUMBERS>
DB11322; DBSALT001589

>  <COMMON_NAME>
Pentetic acid

>  <CAS_NUMBER>
67-43-6

>  <UNII>
7A314HQM0I

>  <SYNONYMS>
Diethylene triamine pentaacetic acid; Diethylenetriamine pentaacetic acid; Diethylenetriaminepentaacetate; Diethylenetriaminepentaacetic acid; DTP-A; DTPA; Pentetate; Pentetic acid

$$$$
