ZYR
 OpenBabel10282417173D

 24 26  0  0  0  0  0  0  0  0999 V2000
   -1.4483    2.5581   -0.0597 O   0  0  0  0  0  0  0  0  0  0  0  0
   -1.6519    1.3496   -0.0256 C   0  0  0  0  0  0  0  0  0  0  0  0
   -0.6106    0.3424    0.0072 C   0  0  0  0  0  0  0  0  0  0  0  0
    0.8100    0.4941    0.0386 C   0  0  0  0  0  0  0  0  0  0  0  0
    1.5763    1.7833    0.0497 C   0  0  0  0  0  0  0  0  0  0  0  0
    3.0702    1.5667    0.3371 C   0  0  0  0  0  0  0  0  0  0  0  0
    3.6283    0.3494   -0.4120 C   0  0  0  0  0  0  0  0  0  0  0  0
    2.9201   -0.9449    0.0174 C   0  0  0  0  0  0  0  0  0  0  0  0
    1.4375   -0.7379    0.0174 C   0  0  0  0  0  0  0  0  0  0  0  0
    0.3391   -2.0383    0.0211 S   0  0  0  0  0  0  0  0  0  0  0  0
   -1.0032   -0.9824    0.0151 C   0  0  0  0  0  0  0  0  0  0  0  0
   -2.2808   -1.4499    0.0178 N   0  0  0  0  0  0  0  0  0  0  0  0
   -3.1812   -0.5221    0.0049 C   0  0  0  0  0  0  0  0  0  0  0  0
   -2.9257    0.8272   -0.0190 N   0  0  0  0  0  0  0  0  0  0  0  0
    1.4623    2.2677   -0.9274 H   0  0  0  0  0  0  0  0  0  0  0  0
    1.1639    2.4605    0.8062 H   0  0  0  0  0  0  0  0  0  0  0  0
    3.6276    2.4672    0.0569 H   0  0  0  0  0  0  0  0  0  0  0  0
    3.2176    1.4204    1.4150 H   0  0  0  0  0  0  0  0  0  0  0  0
    3.4953    0.5012   -1.4910 H   0  0  0  0  0  0  0  0  0  0  0  0
    4.7044    0.2587   -0.2285 H   0  0  0  0  0  0  0  0  0  0  0  0
    3.2069   -1.7577   -0.6590 H   0  0  0  0  0  0  0  0  0  0  0  0
    3.2447   -1.2199    1.0286 H   0  0  0  0  0  0  0  0  0  0  0  0
   -4.2548   -0.7678    0.0130 H   0  0  0  0  0  0  0  0  0  0  0  0
   -3.6782    1.4983   -0.0382 H   0  0  0  0  0  0  0  0  0  0  0  0
  1  2  2  0  0  0  0
  2  3  1  0  0  0  0
  2 14  1  0  0  0  0
  3  4  1  0  0  0  0
  3 11  2  0  0  0  0
  4  5  1  0  0  0  0
  4  9  2  0  0  0  0
  5  6  1  0  0  0  0
  5 15  1  0  0  0  0
  5 16  1  0  0  0  0
  6  7  1  0  0  0  0
  6 17  1  0  0  0  0
  6 18  1  0  0  0  0
  7  8  1  0  0  0  0
  7 19  1  0  0  0  0
  7 20  1  0  0  0  0
  8  9  1  0  0  0  0
  8 21  1  0  0  0  0
  8 22  1  0  0  0  0
  9 10  1  0  0  0  0
 10 11  1  0  0  0  0
 11 12  1  0  0  0  0
 12 13  2  0  0  0  0
 13 14  1  0  0  0  0
 13 23  1  0  0  0  0
 14 24  1  0  0  0  0
M  END
>  <DRUGBANK_ID>
DB08777

>  <COMMON_NAME>
5,6,7,8-TETRAHYDRO[1]BENZOTHIENO[2,3-D]PYRIMIDIN-4(3H)-ONE

>  <UNII>
2QH62B6VZS

$$$$
