
 OpenBabel10282417143D

 48 50  0  0  0  0  0  0  0  0999 V2000
    0.1041    1.9009    0.0169 S   0  0  0  0  0  0  0  0  0  0  0  0
    0.5019   -2.3804    0.3832 O   0  0  0  0  0  0  0  0  0  0  0  0
   -2.4064   -5.5305    1.4056 N   0  0  0  0  0  0  0  0  0  0  0  0
   -2.4663   -2.7818   -0.1610 N   0  0  0  0  0  0  0  0  0  0  0  0
   -1.2909   -4.6038    1.1495 C   0  0  0  0  0  0  0  0  0  0  0  0
   -1.4873   -3.8713   -0.1917 C   0  0  0  0  0  0  0  0  0  0  0  0
   -2.3268   -1.4096   -0.0775 C   0  0  0  0  0  0  0  0  0  0  0  0
   -1.1470   -0.6387   -0.0033 C   0  0  0  0  0  0  0  0  0  0  0  0
   -2.1801   -6.3903    2.5633 C   0  0  0  0  0  0  0  0  0  0  0  0
   -3.7076   -4.8557    1.4193 C   0  0  0  0  0  0  0  0  0  0  0  0
   -1.2662    0.7751    0.0040 C   0  0  0  0  0  0  0  0  0  0  0  0
   -2.5188    1.4367   -0.0004 C   0  0  0  0  0  0  0  0  0  0  0  0
    0.2343   -1.2425    0.0851 C   0  0  0  0  0  0  0  0  0  0  0  0
   -3.5713   -0.7094   -0.0225 C   0  0  0  0  0  0  0  0  0  0  0  0
    1.4703   -0.4957   -0.0276 C   0  0  0  0  0  0  0  0  0  0  0  0
   -3.6744    0.6796    0.0061 C   0  0  0  0  0  0  0  0  0  0  0  0
    1.4878    0.8725   -0.0183 C   0  0  0  0  0  0  0  0  0  0  0  0
   -2.0933   -5.6784    3.9051 C   0  0  0  0  0  0  0  0  0  0  0  0
   -3.8496   -3.6691    2.3822 C   0  0  0  0  0  0  0  0  0  0  0  0
   -2.5997    2.9466   -0.0071 C   0  0  0  0  0  0  0  0  0  0  0  0
    2.6676   -1.2402   -0.0284 C   0  0  0  0  0  0  0  0  0  0  0  0
    2.7067    1.5190   -0.0098 C   0  0  0  0  0  0  0  0  0  0  0  0
    3.8807   -0.5906   -0.0125 C   0  0  0  0  0  0  0  0  0  0  0  0
    3.8918    0.7950   -0.0056 C   0  0  0  0  0  0  0  0  0  0  0  0
   -3.3845   -3.0648   -0.4804 H   0  0  0  0  0  0  0  0  0  0  0  0
   -0.3462   -5.1669    1.0996 H   0  0  0  0  0  0  0  0  0  0  0  0
   -1.1349   -3.8894    1.9685 H   0  0  0  0  0  0  0  0  0  0  0  0
   -1.6869   -4.5627   -1.0150 H   0  0  0  0  0  0  0  0  0  0  0  0
   -0.5411   -3.5513   -0.5384 H   0  0  0  0  0  0  0  0  0  0  0  0
   -2.9931   -7.1254    2.5910 H   0  0  0  0  0  0  0  0  0  0  0  0
   -1.2631   -6.9728    2.4092 H   0  0  0  0  0  0  0  0  0  0  0  0
   -3.9311   -4.5465    0.3975 H   0  0  0  0  0  0  0  0  0  0  0  0
   -4.5066   -5.5821    1.5837 H   0  0  0  0  0  0  0  0  0  0  0  0
   -4.5091   -1.2676   -0.0111 H   0  0  0  0  0  0  0  0  0  0  0  0
   -4.6508    1.1585    0.0195 H   0  0  0  0  0  0  0  0  0  0  0  0
   -3.0598   -5.2854    4.2052 H   0  0  0  0  0  0  0  0  0  0  0  0
   -1.8259   -6.3720    4.7008 H   0  0  0  0  0  0  0  0  0  0  0  0
   -1.3682   -4.8589    3.8946 H   0  0  0  0  0  0  0  0  0  0  0  0
   -2.9489   -3.0509    2.4744 H   0  0  0  0  0  0  0  0  0  0  0  0
   -4.6653   -3.0089    2.0882 H   0  0  0  0  0  0  0  0  0  0  0  0
   -4.1058   -4.0077    3.3811 H   0  0  0  0  0  0  0  0  0  0  0  0
   -2.1033    3.3527    0.8837 H   0  0  0  0  0  0  0  0  0  0  0  0
   -2.1050    3.3407   -0.9046 H   0  0  0  0  0  0  0  0  0  0  0  0
   -3.6245    3.3171   -0.0091 H   0  0  0  0  0  0  0  0  0  0  0  0
    2.6609   -2.3314   -0.0134 H   0  0  0  0  0  0  0  0  0  0  0  0
    2.7188    2.6042    0.0013 H   0  0  0  0  0  0  0  0  0  0  0  0
    4.7907   -1.1773    0.0001 H   0  0  0  0  0  0  0  0  0  0  0  0
    4.8259    1.3352    0.0034 H   0  0  0  0  0  0  0  0  0  0  0  0
  1 11  1  0  0  0  0
  1 17  1  0  0  0  0
  2 13  2  0  0  0  0
  3  5  1  0  0  0  0
  3  9  1  0  0  0  0
  3 10  1  0  0  0  0
  4  6  1  0  0  0  0
  4  7  1  0  0  0  0
  4 25  1  0  0  0  0
  5  6  1  0  0  0  0
  5 26  1  0  0  0  0
  5 27  1  0  0  0  0
  6 28  1  0  0  0  0
  6 29  1  0  0  0  0
  7  8  2  0  0  0  0
  7 14  1  0  0  0  0
  8 11  1  0  0  0  0
  8 13  1  0  0  0  0
  9 18  1  0  0  0  0
  9 30  1  0  0  0  0
  9 31  1  0  0  0  0
 10 19  1  0  0  0  0
 10 32  1  0  0  0  0
 10 33  1  0  0  0  0
 11 12  2  0  0  0  0
 12 16  1  0  0  0  0
 12 20  1  0  0  0  0
 13 15  1  0  0  0  0
 14 16  2  0  0  0  0
 14 34  1  0  0  0  0
 15 17  1  0  0  0  0
 15 21  2  0  0  0  0
 16 35  1  0  0  0  0
 17 22  2  0  0  0  0
 18 36  1  0  0  0  0
 18 37  1  0  0  0  0
 18 38  1  0  0  0  0
 19 39  1  0  0  0  0
 19 40  1  0  0  0  0
 19 41  1  0  0  0  0
 20 42  1  0  0  0  0
 20 43  1  0  0  0  0
 20 44  1  0  0  0  0
 21 23  1  0  0  0  0
 21 45  1  0  0  0  0
 22 24  1  0  0  0  0
 22 46  1  0  0  0  0
 23 24  2  0  0  0  0
 23 47  1  0  0  0  0
 24 48  1  0  0  0  0
M  END
>  <DRUGBANK_ID>
DB04967

>  <COMMON_NAME>
Lucanthone

>  <CAS_NUMBER>
479-50-5

>  <UNII>
FC6D57000M

>  <SYNONYMS>
1-((2-(Diethylamino)ethyl)amino)-4-methylthioxanthen-9-one; 1-{[2-(diethylamino)ethyl]amino}-4-methylthioxanthen-9-one; 1-diethylaminoethylethylamino-4-methyl-thioxanthenone; Lucanthone; Lucanthonum; Lucantona

$$$$
