
 OpenBabel10282417153D

 18 19  0  0  0  0  0  0  0  0999 V2000
   -0.2536   -0.7144    0.0647 C   0  0  0  0  0  0  0  0  0  0  0  0
   -1.6306   -1.1517    0.0795 C   0  0  0  0  0  0  0  0  0  0  0  0
   -2.3932   -0.0170   -0.0023 N   0  0  0  0  0  0  0  0  0  0  0  0
   -1.5895    1.1502   -0.0740 O   0  0  0  0  0  0  0  0  0  0  0  0
   -0.3170    0.6112   -0.0326 C   0  0  0  0  0  0  0  0  0  0  0  0
   -2.0056   -2.3089    0.1439 O   0  0  0  0  0  0  0  0  0  0  0  0
    0.9093    1.4686   -0.0765 C   0  0  0  0  0  0  0  0  0  0  0  0
    2.1086    0.6990    0.3334 N   0  0  0  0  0  0  0  0  0  0  0  0
    2.1504   -0.6037   -0.3594 C   0  0  0  0  0  0  0  0  0  0  0  0
    0.9866   -1.5077    0.0903 C   0  0  0  0  0  0  0  0  0  0  0  0
   -3.3998    0.0343   -0.0002 H   0  0  0  0  0  0  0  0  0  0  0  0
    0.8016    2.3309    0.5899 H   0  0  0  0  0  0  0  0  0  0  0  0
    1.0585    1.8543   -1.0926 H   0  0  0  0  0  0  0  0  0  0  0  0
    2.9488    1.2353    0.1292 H   0  0  0  0  0  0  0  0  0  0  0  0
    2.1027   -0.4426   -1.4454 H   0  0  0  0  0  0  0  0  0  0  0  0
    3.0995   -1.1078   -0.1532 H   0  0  0  0  0  0  0  0  0  0  0  0
    0.9077   -2.3760   -0.5715 H   0  0  0  0  0  0  0  0  0  0  0  0
    1.1615   -1.8708    1.1097 H   0  0  0  0  0  0  0  0  0  0  0  0
  1  2  1  0  0  0  0
  1  5  2  0  0  0  0
  1 10  1  0  0  0  0
  2  3  1  0  0  0  0
  2  6  2  0  0  0  0
  3  4  1  0  0  0  0
  3 11  1  0  0  0  0
  4  5  1  0  0  0  0
  5  7  1  0  0  0  0
  7  8  1  0  0  0  0
  7 12  1  0  0  0  0
  7 13  1  0  0  0  0
  8  9  1  0  0  0  0
  8 14  1  0  0  0  0
  9 10  1  0  0  0  0
  9 15  1  0  0  0  0
  9 16  1  0  0  0  0
 10 17  1  0  0  0  0
 10 18  1  0  0  0  0
M  END
>  <DRUGBANK_ID>
DB06554

>  <COMMON_NAME>
Gaboxadol

>  <CAS_NUMBER>
64603-91-4

>  <UNII>
K1M5RVL18S

>  <SYNONYMS>
4,5,6,7-tetrahydroisoxazolo(5,4-c)pyridin-3-ol; Gaboxadol; THIP

$$$$
