SB8
 OpenBabel10282417173D

 36 37  0  0  0  0  0  0  0  0999 V2000
    1.3864   -0.1455    0.2281 C   0  0  0  0  0  0  0  0  0  0  0  0
    0.5694   -1.2610    0.4539 C   0  0  0  0  0  0  0  0  0  0  0  0
   -0.8128   -1.0755    0.6482 C   0  0  0  0  0  0  0  0  0  0  0  0
   -1.3760    0.1903    0.4376 C   0  0  0  0  0  0  0  0  0  0  0  0
   -0.5395    1.3049    0.3022 C   0  0  0  0  0  0  0  0  0  0  0  0
    0.8381    1.1328    0.1768 C   0  0  0  0  0  0  0  0  0  0  0  0
    1.0927   -2.6488    0.1706 C   0  0  0  0  0  0  0  0  0  0  0  0
    0.3539   -3.6116    0.0558 O   0  0  0  0  0  0  0  0  0  0  0  0
    2.5427   -2.8959    0.0331 C   0  0  0  0  0  0  0  0  0  0  0  0
    3.3411   -2.4860    1.0987 C   0  0  0  0  0  0  0  0  0  0  0  0
    4.6936   -2.7860    1.1087 C   0  0  0  0  0  0  0  0  0  0  0  0
    5.2439   -3.5377    0.0729 C   0  0  0  0  0  0  0  0  0  0  0  0
    4.4442   -3.9714   -0.9887 C   0  0  0  0  0  0  0  0  0  0  0  0
    3.0909   -3.6197   -1.0352 C   0  0  0  0  0  0  0  0  0  0  0  0
   -2.6874    0.4262    0.0946 O   0  0  0  0  0  0  0  0  0  0  0  0
   -3.5319   -0.6807   -0.2549 C   0  0  0  0  0  0  0  0  0  0  0  0
   -3.3207   -1.3987   -1.6157 C   0  0  0  0  0  0  0  0  0  0  0  0
   -1.9981   -1.9265   -1.8996 N   0  0  0  0  0  0  0  0  0  0  0  0
   -1.7276   -3.2501   -1.5239 O   0  0  0  0  0  0  0  0  0  0  0  0
   -0.9313   -1.1354   -2.2480 C   0  0  0  0  0  0  0  0  0  0  0  0
   -0.9828    0.0469   -2.5396 O   0  0  0  0  0  0  0  0  0  0  0  0
    2.4410   -0.2496   -0.0084 H   0  0  0  0  0  0  0  0  0  0  0  0
   -1.4455   -1.9549    0.7222 H   0  0  0  0  0  0  0  0  0  0  0  0
   -0.9642    2.2937    0.1432 H   0  0  0  0  0  0  0  0  0  0  0  0
    1.4714    1.9732   -0.0969 H   0  0  0  0  0  0  0  0  0  0  0  0
    2.8997   -1.9423    1.9288 H   0  0  0  0  0  0  0  0  0  0  0  0
    5.3006   -2.4588    1.9461 H   0  0  0  0  0  0  0  0  0  0  0  0
    6.2991   -3.7957    0.1041 H   0  0  0  0  0  0  0  0  0  0  0  0
    4.8775   -4.6049   -1.7606 H   0  0  0  0  0  0  0  0  0  0  0  0
    2.4850   -3.9271   -1.8860 H   0  0  0  0  0  0  0  0  0  0  0  0
   -3.5891   -1.3788    0.5848 H   0  0  0  0  0  0  0  0  0  0  0  0
   -4.5391   -0.2452   -0.3322 H   0  0  0  0  0  0  0  0  0  0  0  0
   -4.0287   -2.2339   -1.6852 H   0  0  0  0  0  0  0  0  0  0  0  0
   -3.5349   -0.7045   -2.4322 H   0  0  0  0  0  0  0  0  0  0  0  0
   -2.5704   -3.7292   -1.5536 H   0  0  0  0  0  0  0  0  0  0  0  0
    0.0312   -1.6728   -2.1787 H   0  0  0  0  0  0  0  0  0  0  0  0
  1  2  1  0  0  0  0
  1  6  2  0  0  0  0
  1 22  1  0  0  0  0
  2  3  2  0  0  0  0
  2  7  1  0  0  0  0
  3  4  1  0  0  0  0
  3 23  1  0  0  0  0
  4  5  2  0  0  0  0
  4 15  1  0  0  0  0
  5  6  1  0  0  0  0
  5 24  1  0  0  0  0
  6 25  1  0  0  0  0
  7  8  2  0  0  0  0
  7  9  1  0  0  0  0
  9 10  1  0  0  0  0
  9 14  2  0  0  0  0
 10 11  2  0  0  0  0
 10 26  1  0  0  0  0
 11 12  1  0  0  0  0
 11 27  1  0  0  0  0
 12 13  2  0  0  0  0
 12 28  1  0  0  0  0
 13 14  1  0  0  0  0
 13 29  1  0  0  0  0
 14 30  1  0  0  0  0
 15 16  1  0  0  0  0
 16 17  1  0  0  0  0
 16 31  1  0  0  0  0
 16 32  1  0  0  0  0
 17 18  1  0  0  0  0
 17 33  1  0  0  0  0
 17 34  1  0  0  0  0
 18 19  1  0  0  0  0
 18 20  1  0  0  0  0
 19 35  1  0  0  0  0
 20 21  2  0  0  0  0
 20 36  1  0  0  0  0
M  END
>  <DRUGBANK_ID>
DB08524

>  <COMMON_NAME>
2-(3-BENZOYLPHENOXY)ETHYL(HYDROXY)FORMAMIDE

$$$$
