
 OpenBabel10282417213D

 48 50  0  0  1  0  0  0  0  0999 V2000
    0.7834   -0.0910    0.1439 C   0  0  0  0  0  0  0  0  0  0  0  0
    0.2575    0.7932   -1.0109 N   0  3  0  0  0  0  0  0  0  0  0  0
    1.3530    1.1774   -1.9453 C   0  0  2  0  0  0  0  0  0  0  0  0
    0.6830    1.8118   -3.1738 C   0  0  0  0  0  0  0  0  0  0  0  0
   -0.6578    1.1203   -3.2553 C   0  0  0  0  0  0  0  0  0  0  0  0
   -0.6810    0.1299   -2.0675 C   0  0  1  0  0  0  0  0  0  0  0  0
   -0.1446   -1.2537   -2.5612 C   0  0  0  0  0  0  0  0  0  0  0  0
    1.3754   -1.3984   -2.6555 C   0  0  2  0  0  0  0  0  0  0  0  0
    2.0356   -0.1194   -2.2891 C   0  0  0  0  0  0  0  0  0  0  0  0
    1.8239   -1.7554   -4.0216 O   0  0  0  0  0  0  0  0  0  0  0  0
    3.0569   -1.5545   -4.6061 C   0  0  0  0  0  0  0  0  0  0  0  0
    3.1731   -1.8028   -5.8182 O   0  0  0  0  0  0  0  0  0  0  0  0
    4.3079   -1.0543   -3.8026 C   0  0  3  0  0  0  0  0  0  0  0  0
    4.6425    0.5072   -3.7320 C   0  0  0  0  0  0  0  0  0  0  0  0
    3.7900    1.4849   -3.1245 O   0  0  0  0  0  0  0  0  0  0  0  0
    4.5786   -1.9317   -2.5821 C   0  0  0  0  0  0  0  0  0  0  0  0
    4.6435   -3.3271   -2.7551 C   0  0  0  0  0  0  0  0  0  0  0  0
    4.8777   -4.1693   -1.6696 C   0  0  0  0  0  0  0  0  0  0  0  0
    5.0279   -3.6351   -0.3931 C   0  0  0  0  0  0  0  0  0  0  0  0
    4.9843   -2.2580   -0.2066 C   0  0  0  0  0  0  0  0  0  0  0  0
    4.7857   -1.4139   -1.2965 C   0  0  0  0  0  0  0  0  0  0  0  0
   -0.3143    2.0410   -0.3427 C   0  0  0  0  0  0  0  0  0  0  0  0
    0.5371   -1.1322   -0.0518 H   0  0  0  0  0  0  0  0  0  0  0  0
    0.3512    0.2355    1.0901 H   0  0  0  0  0  0  0  0  0  0  0  0
    1.8688    0.0449    0.2381 H   0  0  0  0  0  0  0  0  0  0  0  0
    2.0372    1.8838   -1.4572 H   0  0  0  0  0  0  0  0  0  0  0  0
    1.2249    1.6870   -4.1198 H   0  0  0  0  0  0  0  0  0  0  0  0
    0.5731    2.8963   -3.0479 H   0  0  0  0  0  0  0  0  0  0  0  0
   -0.7666    0.6253   -4.2278 H   0  0  0  0  0  0  0  0  0  0  0  0
   -1.4556    1.8649   -3.1831 H   0  0  0  0  0  0  0  0  0  0  0  0
   -1.6754    0.0417   -1.6297 H   0  0  0  0  0  0  0  0  0  0  0  0
   -0.5915   -1.5021   -3.5305 H   0  0  0  0  0  0  0  0  0  0  0  0
   -0.5025   -2.0117   -1.8568 H   0  0  0  0  0  0  0  0  0  0  0  0
    1.7056   -2.2300   -2.0188 H   0  0  0  0  0  0  0  0  0  0  0  0
    2.7514   -0.3178   -1.5082 H   0  0  0  0  0  0  0  0  0  0  0  0
    2.4717    0.0946   -3.2211 H   0  0  0  0  0  0  0  0  0  0  0  0
    5.1415   -1.3570   -4.4602 H   0  0  0  0  0  0  0  0  0  0  0  0
    5.5666    0.6400   -3.1701 H   0  0  0  0  0  0  0  0  0  0  0  0
    4.7514    0.8830   -4.7479 H   0  0  0  0  0  0  0  0  0  0  0  0
    3.1448    1.7284   -3.8156 H   0  0  0  0  0  0  0  0  0  0  0  0
    4.5253   -3.7761   -3.7429 H   0  0  0  0  0  0  0  0  0  0  0  0
    4.9609   -5.2426   -1.8249 H   0  0  0  0  0  0  0  0  0  0  0  0
    5.2061   -4.2921    0.4539 H   0  0  0  0  0  0  0  0  0  0  0  0
    5.1309   -1.8350    0.7838 H   0  0  0  0  0  0  0  0  0  0  0  0
    4.7571   -0.3431   -1.1069 H   0  0  0  0  0  0  0  0  0  0  0  0
   -1.1400    1.7178    0.2922 H   0  0  0  0  0  0  0  0  0  0  0  0
    0.4847    2.4883    0.2639 H   0  0  0  0  0  0  0  0  0  0  0  0
   -0.6540    2.7598   -1.0887 H   0  0  0  0  0  0  0  0  0  0  0  0
  1  2  1  0  0  0  0
  1 23  1  0  0  0  0
  1 24  1  0  0  0  0
  1 25  1  0  0  0  0
  2  3  1  0  0  0  0
  2  6  1  0  0  0  0
  2 22  1  0  0  0  0
  3  4  1  0  0  0  0
  3  9  1  0  0  0  0
  3 26  1  1  0  0  0
  4  5  1  0  0  0  0
  4 27  1  0  0  0  0
  4 28  1  0  0  0  0
  5 29  1  0  0  0  0
  5 30  1  0  0  0  0
  6  5  1  0  0  0  0
  6  7  1  0  0  0  0
  6 31  1  1  0  0  0
  7  8  1  0  0  0  0
  7 32  1  0  0  0  0
  7 33  1  0  0  0  0
  8  9  1  0  0  0  0
  8 34  1  1  0  0  0
  8 10  1  0  0  0  0
  9 35  1  0  0  0  0
  9 36  1  0  0  0  0
 10 11  1  0  0  0  0
 11 12  2  0  0  0  0
 11 13  1  0  0  0  0
 13 14  1  0  0  0  0
 13 16  1  0  0  0  0
 13 37  1  0  0  0  0
 14 15  1  0  0  0  0
 14 38  1  0  0  0  0
 14 39  1  0  0  0  0
 15 40  1  0  0  0  0
 16 17  2  0  0  0  0
 16 21  1  0  0  0  0
 17 18  1  0  0  0  0
 17 41  1  0  0  0  0
 18 19  2  0  0  0  0
 18 42  1  0  0  0  0
 19 20  1  0  0  0  0
 19 43  1  0  0  0  0
 20 21  2  0  0  0  0
 20 44  1  0  0  0  0
 21 45  1  0  0  0  0
 22 46  1  0  0  0  0
 22 47  1  0  0  0  0
 22 48  1  0  0  0  0
M  CHG  1   2   1
M  END
>  <DRUGBANK_ID>
DB13833

>  <COMMON_NAME>
Methylatropine

>  <CAS_NUMBER>
31610-87-4

>  <UNII>
80719I460H

>  <SYNONYMS>
Methylatropinium

$$$$
