
 OpenBabel10282417163D

 56 58  0  0  0  0  0  0  0  0999 V2000
    0.8156    0.0446    0.0811 C   0  0  3  0  0  0  0  0  0  0  0  0
    0.5377   -4.9601    2.1239 N   0  3  0  0  0  0  0  0  0  0  0  0
    1.0680   -2.6263    0.2349 N   0  0  0  0  0  0  0  0  0  0  0  0
    0.4542   -1.4464   -0.4878 C   0  0  0  0  0  0  0  0  0  0  0  0
    0.2438    0.4686    1.4828 C   0  0  0  0  0  0  0  0  0  0  0  0
    0.4313    1.0863   -1.0018 C   0  0  0  0  0  0  0  0  0  0  0  0
    0.8631   -3.5980    2.6622 C   0  0  0  0  0  0  0  0  0  0  0  0
    1.1086   -5.0800    0.6671 C   0  0  0  0  0  0  0  0  0  0  0  0
    2.2616    0.0518    0.1598 O   0  0  0  0  0  0  0  0  0  0  0  0
    0.6129   -2.5741    1.6077 C   0  0  0  0  0  0  0  0  0  0  0  0
    0.6334   -3.9329   -0.2942 C   0  0  0  0  0  0  0  0  0  0  0  0
   -0.9641   -5.2384    2.1580 C   0  0  0  0  0  0  0  0  0  0  0  0
    1.2539   -5.8931    3.0763 C   0  0  0  0  0  0  0  0  0  0  0  0
   -0.5781   -0.3239    2.2401 C   0  0  0  0  0  0  0  0  0  0  0  0
    0.3671    1.7129    2.1064 C   0  0  0  0  0  0  0  0  0  0  0  0
    1.2159    2.4101   -0.8470 C   0  0  0  0  0  0  0  0  0  0  0  0
   -1.1003    1.2147   -1.0575 C   0  0  0  0  0  0  0  0  0  0  0  0
    0.2017    1.8834    3.4838 C   0  0  0  0  0  0  0  0  0  0  0  0
   -0.4997   -0.3493    3.6337 C   0  0  0  0  0  0  0  0  0  0  0  0
    0.6328    3.5738   -1.6133 C   0  0  0  0  0  0  0  0  0  0  0  0
   -1.5558    2.3691   -1.9188 C   0  0  0  0  0  0  0  0  0  0  0  0
   -0.8835    3.6606   -1.4823 C   0  0  0  0  0  0  0  0  0  0  0  0
   -0.1059    0.8121    4.2752 C   0  0  0  0  0  0  0  0  0  0  0  0
   -0.6367   -1.5536   -0.5309 H   0  0  0  0  0  0  0  0  0  0  0  0
    0.8221   -1.5153   -1.5225 H   0  0  0  0  0  0  0  0  0  0  0  0
    0.7542    0.7106   -1.9856 H   0  0  0  0  0  0  0  0  0  0  0  0
    0.2256   -3.4049    3.5385 H   0  0  0  0  0  0  0  0  0  0  0  0
    1.9105   -3.5420    2.9713 H   0  0  0  0  0  0  0  0  0  0  0  0
    2.1978   -5.0176    0.7714 H   0  0  0  0  0  0  0  0  0  0  0  0
    0.8177   -6.0625    0.2924 H   0  0  0  0  0  0  0  0  0  0  0  0
    2.5436   -0.8033    0.5283 H   0  0  0  0  0  0  0  0  0  0  0  0
    1.1210   -1.7236    2.0348 H   0  0  0  0  0  0  0  0  0  0  0  0
   -0.4756   -2.5883    1.5434 H   0  0  0  0  0  0  0  0  0  0  0  0
    1.0751   -4.0838   -1.2854 H   0  0  0  0  0  0  0  0  0  0  0  0
   -0.4577   -3.9708   -0.4204 H   0  0  0  0  0  0  0  0  0  0  0  0
   -1.3213   -5.1292    3.1883 H   0  0  0  0  0  0  0  0  0  0  0  0
   -1.4939   -4.5280    1.5170 H   0  0  0  0  0  0  0  0  0  0  0  0
   -1.1263   -6.2578    1.8026 H   0  0  0  0  0  0  0  0  0  0  0  0
    2.3165   -5.6258    3.0763 H   0  0  0  0  0  0  0  0  0  0  0  0
    0.8403   -5.7268    4.0793 H   0  0  0  0  0  0  0  0  0  0  0  0
    1.1031   -6.9150    2.7415 H   0  0  0  0  0  0  0  0  0  0  0  0
   -1.2294   -1.0297    1.7391 H   0  0  0  0  0  0  0  0  0  0  0  0
    0.3371    2.6312    1.5564 H   0  0  0  0  0  0  0  0  0  0  0  0
    1.2942    2.7607    0.1667 H   0  0  0  0  0  0  0  0  0  0  0  0
    2.2742    2.2608   -1.0900 H   0  0  0  0  0  0  0  0  0  0  0  0
   -1.5409    0.2857   -1.4405 H   0  0  0  0  0  0  0  0  0  0  0  0
   -1.5243    1.3517   -0.0570 H   0  0  0  0  0  0  0  0  0  0  0  0
    0.2708    2.8910    3.8957 H   0  0  0  0  0  0  0  0  0  0  0  0
   -0.7976   -1.2146    4.2028 H   0  0  0  0  0  0  0  0  0  0  0  0
    1.0776    4.4982   -1.2251 H   0  0  0  0  0  0  0  0  0  0  0  0
    0.9250    3.4777   -2.6613 H   0  0  0  0  0  0  0  0  0  0  0  0
   -2.6440    2.4634   -1.8353 H   0  0  0  0  0  0  0  0  0  0  0  0
   -1.3219    2.1549   -2.9664 H   0  0  0  0  0  0  0  0  0  0  0  0
   -1.1617    3.8836   -0.4429 H   0  0  0  0  0  0  0  0  0  0  0  0
   -1.2484    4.4864   -2.0982 H   0  0  0  0  0  0  0  0  0  0  0  0
   -0.2167    0.9042    5.3478 H   0  0  0  0  0  0  0  0  0  0  0  0
  2  8  1  0  0  0  0
  3  4  1  0  0  0  0
  4  1  1  0  0  0  0
  4 24  1  0  0  0  0
  4 25  1  0  0  0  0
  5  1  1  0  0  0  0
  6  1  1  0  0  0  0
  6 26  1  0  0  0  0
  7 10  1  0  0  0  0
  7  2  1  0  0  0  0
  7 27  1  0  0  0  0
  7 28  1  0  0  0  0
  8 11  1  0  0  0  0
  8 29  1  0  0  0  0
  8 30  1  0  0  0  0
  9  1  1  0  0  0  0
  9 31  1  0  0  0  0
 10  3  1  0  0  0  0
 10 32  1  0  0  0  0
 10 33  1  0  0  0  0
 11  3  1  0  0  0  0
 11 34  1  0  0  0  0
 11 35  1  0  0  0  0
 12  2  1  0  0  0  0
 12 36  1  0  0  0  0
 12 37  1  0  0  0  0
 12 38  1  0  0  0  0
 13  2  1  0  0  0  0
 13 39  1  0  0  0  0
 13 40  1  0  0  0  0
 13 41  1  0  0  0  0
 14  5  2  0  0  0  0
 14 42  1  0  0  0  0
 15  5  1  0  0  0  0
 15 43  1  0  0  0  0
 16  6  1  0  0  0  0
 16 44  1  0  0  0  0
 16 45  1  0  0  0  0
 17  6  1  0  0  0  0
 17 46  1  0  0  0  0
 17 47  1  0  0  0  0
 18 15  2  0  0  0  0
 18 48  1  0  0  0  0
 19 14  1  0  0  0  0
 19 23  2  0  0  0  0
 19 49  1  0  0  0  0
 20 16  1  0  0  0  0
 20 22  1  0  0  0  0
 20 50  1  0  0  0  0
 20 51  1  0  0  0  0
 21 17  1  0  0  0  0
 21 52  1  0  0  0  0
 21 53  1  0  0  0  0
 22 21  1  0  0  0  0
 22 54  1  0  0  0  0
 22 55  1  0  0  0  0
 23 18  1  0  0  0  0
 23 56  1  0  0  0  0
M  CHG  1   2   1
M  END
>  <DRUGBANK_ID>
DB06787

>  <COMMON_NAME>
Hexocyclium

>  <CAS_NUMBER>
6004-98-4

>  <UNII>
LL3147PI1T

$$$$
