
 OpenBabel10282417193D

 56 59  0  0  1  0  0  0  0  0999 V2000
    1.0859   -0.1834   -0.1038 C   0  0  0  0  0  0  0  0  0  0  0  0
    0.6043   -0.5053    1.3158 C   0  0  1  0  0  0  0  0  0  0  0  0
    0.9737    0.6955    2.2500 C   0  0  0  0  0  0  0  0  0  0  0  0
    0.5978    2.1009    1.8577 N   0  0  0  0  0  0  0  0  0  0  0  0
    1.2267    3.2900    2.3782 C   0  0  0  0  0  0  0  0  0  0  0  0
    2.3551    3.5601    3.1704 C   0  0  0  0  0  0  0  0  0  0  0  0
    3.2449    2.6507    3.8121 C   0  0  0  0  0  0  0  0  0  0  0  0
    4.3490    3.1194    4.5456 C   0  0  0  0  0  0  0  0  0  0  0  0
    4.5634    4.4968    4.6422 C   0  0  0  0  0  0  0  0  0  0  0  0
    3.7038    5.3893    4.0299 C   0  0  0  0  0  0  0  0  0  0  0  0
    2.6220    4.9577    3.3135 C   0  0  0  0  0  0  0  0  0  0  0  0
    1.9064    5.9684    2.7971 N   0  0  0  0  0  0  0  0  0  0  0  0
    0.8317    5.6736    2.0776 C   0  0  0  0  0  0  0  0  0  0  0  0
    0.4944    4.3792    1.8712 C   0  0  0  0  0  0  0  0  0  0  0  0
   -0.5440    3.9320    1.1100 N   0  0  0  0  0  0  0  0  0  0  0  0
   -0.4381    2.5842    1.0097 C   0  0  0  0  0  0  0  0  0  0  0  0
   -1.2245    2.0884    0.1986 O   0  0  0  0  0  0  0  0  0  0  0  0
   -1.5828    4.6228    0.4101 C   0  0  0  0  0  0  0  0  0  0  0  0
    5.2646    2.2242    5.2418 C   0  0  0  0  0  0  0  0  0  0  0  0
    5.4188    2.3214    6.6283 C   0  0  0  0  0  0  0  0  0  0  0  0
    6.3484    1.5299    7.3028 C   0  0  0  0  0  0  0  0  0  0  0  0
    7.0944    0.6465    6.5232 C   0  0  0  0  0  0  0  0  0  0  0  0
    6.9763    0.5094    5.1843 N   0  0  0  0  0  0  0  0  0  0  0  0
    6.0679    1.3041    4.5774 C   0  0  0  0  0  0  0  0  0  0  0  0
    6.5426    1.6224    8.8016 C   0  0  0  0  0  0  0  0  0  0  0  0
    6.2159    0.2789    9.4568 C   0  0  0  0  0  0  0  0  0  0  0  0
    7.9745    2.0523    9.1289 C   0  0  0  0  0  0  0  0  0  0  0  0
    5.6558    2.6058    9.3491 O   0  0  0  0  0  0  0  0  0  0  0  0
   -0.7490   -1.0086    1.4458 O   0  0  0  0  0  0  0  0  0  0  0  0
   -1.6740   -0.0064    1.1321 C   0  0  0  0  0  0  0  0  0  0  0  0
    0.7817    0.8137   -0.4308 H   0  0  0  0  0  0  0  0  0  0  0  0
    0.7077   -0.8866   -0.8458 H   0  0  0  0  0  0  0  0  0  0  0  0
    2.1822   -0.1719   -0.1237 H   0  0  0  0  0  0  0  0  0  0  0  0
    1.1774   -1.3848    1.6403 H   0  0  0  0  0  0  0  0  0  0  0  0
    0.5866    0.4956    3.2589 H   0  0  0  0  0  0  0  0  0  0  0  0
    2.0664    0.6580    2.3017 H   0  0  0  0  0  0  0  0  0  0  0  0
    3.0819    1.5786    3.7812 H   0  0  0  0  0  0  0  0  0  0  0  0
    5.4044    4.8949    5.2058 H   0  0  0  0  0  0  0  0  0  0  0  0
    3.8823    6.4579    4.1143 H   0  0  0  0  0  0  0  0  0  0  0  0
    0.2683    6.4851    1.6430 H   0  0  0  0  0  0  0  0  0  0  0  0
   -1.5809    4.2911   -0.6371 H   0  0  0  0  0  0  0  0  0  0  0  0
   -2.5400    4.2923    0.8359 H   0  0  0  0  0  0  0  0  0  0  0  0
   -1.4963    5.7027    0.4538 H   0  0  0  0  0  0  0  0  0  0  0  0
    4.8100    3.0350    7.1833 H   0  0  0  0  0  0  0  0  0  0  0  0
    7.8424   -0.0042    6.9687 H   0  0  0  0  0  0  0  0  0  0  0  0
    6.0210    1.1928    3.4978 H   0  0  0  0  0  0  0  0  0  0  0  0
    6.8768   -0.5187    9.1015 H   0  0  0  0  0  0  0  0  0  0  0  0
    6.3128    0.3410   10.5455 H   0  0  0  0  0  0  0  0  0  0  0  0
    5.1816   -0.0175    9.2449 H   0  0  0  0  0  0  0  0  0  0  0  0
    8.2013    3.0286    8.6840 H   0  0  0  0  0  0  0  0  0  0  0  0
    8.1131    2.1563   10.2102 H   0  0  0  0  0  0  0  0  0  0  0  0
    8.7116    1.3315    8.7599 H   0  0  0  0  0  0  0  0  0  0  0  0
    5.7944    2.6409   10.3100 H   0  0  0  0  0  0  0  0  0  0  0  0
   -1.5724    0.7523    1.9167 H   0  0  0  0  0  0  0  0  0  0  0  0
   -1.4240    0.2254    0.0983 H   0  0  0  0  0  0  0  0  0  0  0  0
   -2.7459   -0.1930    1.0947 H   0  0  0  0  0  0  0  0  0  0  0  0
  1 31  1  0  0  0  0
  1 32  1  0  0  0  0
  1 33  1  0  0  0  0
  2  1  1  0  0  0  0
  2  3  1  0  0  0  0
  2 29  1  0  0  0  0
  2 34  1  1  0  0  0
  3  4  1  0  0  0  0
  3 35  1  0  0  0  0
  3 36  1  0  0  0  0
  4  5  1  0  0  0  0
  4 16  1  0  0  0  0
  5  6  1  0  0  0  0
  5 14  2  0  0  0  0
  6  7  2  0  0  0  0
  6 11  1  0  0  0  0
  7  8  1  0  0  0  0
  7 37  1  0  0  0  0
  8  9  2  0  0  0  0
  8 19  1  0  0  0  0
  9 10  1  0  0  0  0
  9 38  1  0  0  0  0
 10 11  2  0  0  0  0
 10 39  1  0  0  0  0
 11 12  1  0  0  0  0
 12 13  2  0  0  0  0
 13 14  1  0  0  0  0
 13 40  1  0  0  0  0
 14 15  1  0  0  0  0
 15 16  1  0  0  0  0
 15 18  1  0  0  0  0
 16 17  2  0  0  0  0
 18 41  1  0  0  0  0
 18 42  1  0  0  0  0
 18 43  1  0  0  0  0
 19 20  2  0  0  0  0
 19 24  1  0  0  0  0
 20 21  1  0  0  0  0
 20 44  1  0  0  0  0
 21 22  2  0  0  0  0
 21 25  1  0  0  0  0
 22 23  1  0  0  0  0
 22 45  1  0  0  0  0
 23 24  2  0  0  0  0
 24 46  1  0  0  0  0
 25 26  1  0  0  0  0
 25 27  1  0  0  0  0
 25 28  1  0  0  0  0
 26 47  1  0  0  0  0
 26 48  1  0  0  0  0
 26 49  1  0  0  0  0
 27 50  1  0  0  0  0
 27 51  1  0  0  0  0
 27 52  1  0  0  0  0
 28 53  1  0  0  0  0
 29 30  1  0  0  0  0
 30 54  1  0  0  0  0
 30 55  1  0  0  0  0
 30 56  1  0  0  0  0
M  END
>  <DRUGBANK_ID>
DB12167

>  <COMMON_NAME>
LY-3023414

>  <CAS_NUMBER>
1386874-06-1

>  <UNII>
C88817F47Y

>  <SYNONYMS>
Samotolisib

$$$$
