
 OpenBabel10282417233D

 18 17  0  0  0  0  0  0  0  0999 V2000
    1.2572    0.0092    0.3243 O   0  5  0  0  0  0  0  0  0  0  0  0
    2.5149   -0.0908    0.2142 C   0  0  0  0  0  0  0  0  0  0  0  0
    3.2763   -0.9410    0.7586 O   0  0  0  0  0  0  0  0  0  0  0  0
    3.2274    0.9529   -0.6518 C   0  0  0  0  0  0  0  0  0  0  0  0
    2.8497    0.8856   -2.1316 C   0  0  0  0  0  0  0  0  0  0  0  0
    1.3972    1.2757   -2.4267 C   0  0  0  0  0  0  0  0  0  0  0  0
    1.0085    2.6669   -1.9260 C   0  0  0  0  0  0  0  0  0  0  0  0
    1.7074    3.8064   -2.6741 C   0  0  0  0  0  0  0  0  0  0  0  0
    0.9268    4.5753   -3.3185 O   0  5  0  0  0  0  0  0  0  0  0  0
    2.9592    3.8914   -2.5637 O   0  0  0  0  0  0  0  0  0  0  0  0
    3.0437    1.9512   -0.2391 H   0  0  0  0  0  0  0  0  0  0  0  0
    4.3114    0.8067   -0.5670 H   0  0  0  0  0  0  0  0  0  0  0  0
    3.5202    1.5371   -2.7044 H   0  0  0  0  0  0  0  0  0  0  0  0
    3.0388   -0.1243   -2.5147 H   0  0  0  0  0  0  0  0  0  0  0  0
    1.2147    1.2065   -3.5057 H   0  0  0  0  0  0  0  0  0  0  0  0
    0.7285    0.5318   -1.9777 H   0  0  0  0  0  0  0  0  0  0  0  0
   -0.0777    2.7792   -2.0318 H   0  0  0  0  0  0  0  0  0  0  0  0
    1.2003    2.7727   -0.8525 H   0  0  0  0  0  0  0  0  0  0  0  0
  1  2  1  0  0  0  0
  2  3  2  0  0  0  0
  2  4  1  0  0  0  0
  4  5  1  0  0  0  0
  4 11  1  0  0  0  0
  4 12  1  0  0  0  0
  5  6  1  0  0  0  0
  5 13  1  0  0  0  0
  5 14  1  0  0  0  0
  6  7  1  0  0  0  0
  6 15  1  0  0  0  0
  6 16  1  0  0  0  0
  7  8  1  0  0  0  0
  7 17  1  0  0  0  0
  7 18  1  0  0  0  0
  8  9  1  0  0  0  0
  8 10  2  0  0  0  0
M  CHG  2   1  -1   9  -1
M  END
>  <DRUGBANK_ID>
DB16084

>  <COMMON_NAME>
Iron (III) oxide adipate

>  <CAS_NUMBER>
764-65-8

>  <UNII>
U3YC62H084

>  <SYNONYMS>
Adipate; Adipate dianion; Adipate ion; Adipate(2-); Adipic acid ion (2-); Hexanedioate dianion; Hexanedioic acid, ion(2-)

$$$$
