
 OpenBabel10282417183D

 63 67  0  0  0  0  0  0  0  0999 V2000
    1.2749   -0.0388    0.0258 C   0  0  0  0  0  0  0  0  0  0  0  0
    0.5026   -1.4728   -0.5939 C   0  0  2  0  0  0  0  0  0  0  0  0
    0.2702   -1.5027   -2.3888 C   0  0  1  0  0  0  0  0  0  0  0  0
   -1.0112   -2.0837   -2.8086 O   0  0  0  0  0  0  0  0  0  0  0  0
   -1.3119   -2.7330   -4.0214 C   0  0  0  0  0  0  0  0  0  0  0  0
    0.1119   -0.0125   -2.4433 C   0  0  1  0  0  0  0  0  0  0  0  0
    0.7946    0.8196   -3.3425 O   0  0  0  0  0  0  0  0  0  0  0  0
   -1.1535    0.3887   -1.6021 C   0  0  0  0  0  0  0  0  0  0  0  0
   -1.8960   -0.7694   -0.8518 C   0  0  2  0  0  0  0  0  0  0  0  0
   -2.5672   -1.2950   -1.5479 H   0  0  0  0  0  0  0  0  0  0  0  0
   -2.8279   -0.1279    0.1355 C   0  0  0  0  0  0  0  0  0  0  0  0
   -3.0880   -0.8463    1.3302 N   0  0  3  0  0  0  0  0  0  0  0  0
   -4.1248   -0.2493    2.1494 C   0  0  0  0  0  0  0  0  0  0  0  0
   -5.2607   -1.2609    2.2966 C   0  0  0  0  0  0  0  0  0  0  0  0
   -4.6908   -2.5840    2.6715 C   0  0  0  0  0  0  0  0  0  0  0  0
   -5.3138   -3.7043    3.2450 C   0  0  0  0  0  0  0  0  0  0  0  0
   -6.6215   -3.9620    3.6742 C   0  0  0  0  0  0  0  0  0  0  0  0
   -6.9058   -5.2058    4.2380 C   0  0  0  0  0  0  0  0  0  0  0  0
   -5.9177   -6.1866    4.3606 C   0  0  0  0  0  0  0  0  0  0  0  0
   -6.3406   -7.3570    4.9359 O   0  0  0  0  0  0  0  0  0  0  0  0
   -5.3551   -8.3735    5.0727 C   0  0  0  0  0  0  0  0  0  0  0  0
   -4.6108   -5.9456    3.9186 C   0  0  0  0  0  0  0  0  0  0  0  0
   -4.3374   -4.6908    3.3712 C   0  0  0  0  0  0  0  0  0  0  0  0
   -3.1562   -4.1790    2.8792 N   0  0  0  0  0  0  0  0  0  0  0  0
   -3.3574   -2.8911    2.4697 C   0  0  0  0  0  0  0  0  0  0  0  0
   -2.3392   -1.9682    1.8615 C   0  0  1  0  0  0  0  0  0  0  0  0
   -1.6379   -1.6282    2.6295 H   0  0  0  0  0  0  0  0  0  0  0  0
   -1.5407   -2.7080    0.8135 C   0  0  0  0  0  0  0  0  0  0  0  0
   -0.9459   -1.8171   -0.2558 C   0  0  2  0  0  0  0  0  0  0  0  0
   -0.9356   -2.6937   -0.9203 H   0  0  0  0  0  0  0  0  0  0  0  0
    0.8071    1.1071    0.1953 O   0  0  0  0  0  0  0  0  0  0  0  0
    2.6292   -0.1022   -0.0391 O   0  0  0  0  0  0  0  0  0  0  0  0
    3.1910   -1.0836    0.7963 C   0  0  0  0  0  0  0  0  0  0  0  0
    0.1290    2.0130   -3.6233 C   0  0  0  0  0  0  0  0  0  0  0  0
    1.0650   -2.2827   -0.1377 H   0  0  0  0  0  0  0  0  0  0  0  0
    1.0742   -1.8315   -3.0469 H   0  0  0  0  0  0  0  0  0  0  0  0
   -1.7348   -2.0531   -4.7711 H   0  0  0  0  0  0  0  0  0  0  0  0
   -0.4654   -3.2919   -4.4059 H   0  0  0  0  0  0  0  0  0  0  0  0
   -2.1262   -3.4518   -3.8125 H   0  0  0  0  0  0  0  0  0  0  0  0
    1.0138    0.0671   -1.8859 H   0  0  0  0  0  0  0  0  0  0  0  0
   -1.8715    0.9764   -2.1676 H   0  0  0  0  0  0  0  0  0  0  0  0
   -0.8846    1.0887   -0.8160 H   0  0  0  0  0  0  0  0  0  0  0  0
   -2.4944    0.8744    0.4096 H   0  0  0  0  0  0  0  0  0  0  0  0
   -3.7755    0.0034   -0.4090 H   0  0  0  0  0  0  0  0  0  0  0  0
   -3.7035    0.0455    3.1160 H   0  0  0  0  0  0  0  0  0  0  0  0
   -4.5195    0.6644    1.6876 H   0  0  0  0  0  0  0  0  0  0  0  0
   -5.9709   -0.9024    3.0437 H   0  0  0  0  0  0  0  0  0  0  0  0
   -5.7885   -1.3577    1.3373 H   0  0  0  0  0  0  0  0  0  0  0  0
   -7.3880   -3.1996    3.5790 H   0  0  0  0  0  0  0  0  0  0  0  0
   -7.9155   -5.4020    4.5868 H   0  0  0  0  0  0  0  0  0  0  0  0
   -4.9752   -8.6873    4.0940 H   0  0  0  0  0  0  0  0  0  0  0  0
   -4.5381   -8.0454    5.7252 H   0  0  0  0  0  0  0  0  0  0  0  0
   -5.8275   -9.2406    5.5406 H   0  0  0  0  0  0  0  0  0  0  0  0
   -3.8196   -6.6785    3.9953 H   0  0  0  0  0  0  0  0  0  0  0  0
   -2.2873   -4.6923    2.8231 H   0  0  0  0  0  0  0  0  0  0  0  0
   -2.2433   -3.3858    0.2806 H   0  0  0  0  0  0  0  0  0  0  0  0
   -0.7975   -3.3905    1.2468 H   0  0  0  0  0  0  0  0  0  0  0  0
    2.8422   -0.9502    1.8243 H   0  0  0  0  0  0  0  0  0  0  0  0
    2.9464   -2.0667    0.4067 H   0  0  0  0  0  0  0  0  0  0  0  0
    4.2721   -0.9586    0.7556 H   0  0  0  0  0  0  0  0  0  0  0  0
   -0.4993    1.7282   -4.4576 H   0  0  0  0  0  0  0  0  0  0  0  0
   -0.4519    2.4215   -2.7911 H   0  0  0  0  0  0  0  0  0  0  0  0
    0.8644    2.7659   -3.9073 H   0  0  0  0  0  0  0  0  0  0  0  0
  1 31  2  0  0  0  0
  1 32  1  0  0  0  0
  2  1  1  0  0  0  0
  2  3  1  0  0  0  0
  2 29  1  0  0  0  0
  2 35  1  1  0  0  0
  3  6  1  0  0  0  0
  3 36  1  6  0  0  0
  3  4  1  0  0  0  0
  4  5  1  0  0  0  0
  5 37  1  0  0  0  0
  5 38  1  0  0  0  0
  5 39  1  0  0  0  0
  6  7  1  0  0  0  0
  6  8  1  0  0  0  0
  6 40  1  1  0  0  0
  7 34  1  0  0  0  0
  8 41  1  0  0  0  0
  8 42  1  0  0  0  0
  9  8  1  0  0  0  0
  9 10  1  6  0  0  0
  9 11  1  0  0  0  0
 11 12  1  0  0  0  0
 11 43  1  0  0  0  0
 11 44  1  0  0  0  0
 12 13  1  0  0  0  0
 13 14  1  0  0  0  0
 13 45  1  0  0  0  0
 13 46  1  0  0  0  0
 14 47  1  0  0  0  0
 14 48  1  0  0  0  0
 15 14  1  0  0  0  0
 15 16  1  0  0  0  0
 16 17  1  0  0  0  0
 16 23  2  0  0  0  0
 17 18  2  0  0  0  0
 17 49  1  0  0  0  0
 18 19  1  0  0  0  0
 18 50  1  0  0  0  0
 19 20  1  0  0  0  0
 20 21  1  0  0  0  0
 21 51  1  0  0  0  0
 21 52  1  0  0  0  0
 21 53  1  0  0  0  0
 22 19  2  0  0  0  0
 22 54  1  0  0  0  0
 23 22  1  0  0  0  0
 24 23  1  0  0  0  0
 24 55  1  0  0  0  0
 25 24  1  0  0  0  0
 25 15  2  0  0  0  0
 26 25  1  0  0  0  0
 26 12  1  0  0  0  0
 26 27  1  1  0  0  0
 28 26  1  0  0  0  0
 28 56  1  0  0  0  0
 28 57  1  0  0  0  0
 29 28  1  0  0  0  0
 29  9  1  0  0  0  0
 29 30  1  6  0  0  0
 32 33  1  0  0  0  0
 33 58  1  0  0  0  0
 33 59  1  0  0  0  0
 33 60  1  0  0  0  0
 34 61  1  0  0  0  0
 34 62  1  0  0  0  0
 34 63  1  0  0  0  0
M  END
>  <DRUGBANK_ID>
DB11530

>  <COMMON_NAME>
Metoserpate

>  <CAS_NUMBER>
1178-28-5

>  <UNII>
X3G4L02XQU

>  <SYNONYMS>
Methyl O-methyl-18-epireserpate; Metoserpate; Metoserpato; Metoserpatum

$$$$
