
 OpenBabel10282417183D

 92 93  0  0  0  0  0  0  0  0999 V2000
    0.3369    1.2725    0.7254 C   0  0  0  0  0  0  0  0  0  0  0  0
    0.2825    2.6250    0.3449 N   0  0  0  0  0  0  0  0  0  0  0  0
   -0.8171    0.6028    0.9686 N   0  0  0  0  0  0  0  0  0  0  0  0
    1.4238    0.5468    0.3983 N   0  0  0  0  0  0  0  0  0  0  0  0
   -2.2329    1.8354   -1.5083 N   0  3  0  0  0  0  0  0  0  0  0  0
    1.5545    3.3325    0.0958 C   0  0  0  0  0  0  0  0  0  0  0  0
   -0.9796    3.3842    0.1822 C   0  0  0  0  0  0  0  0  0  0  0  0
   -1.7035    3.2467   -1.2315 C   0  0  0  0  0  0  0  0  0  0  0  0
    1.5882    4.2322   -1.1481 C   0  0  0  0  0  0  0  0  0  0  0  0
    1.7727    6.0194   -3.3623 C   0  0  0  0  0  0  0  0  0  0  0  0
    0.9087    5.4602   -1.1806 C   0  0  0  0  0  0  0  0  0  0  0  0
    2.4155    3.9412   -2.2472 C   0  0  0  0  0  0  0  0  0  0  0  0
    2.5404    4.8558   -3.3125 C   0  0  0  0  0  0  0  0  0  0  0  0
    0.9464    6.3138   -2.2837 C   0  0  0  0  0  0  0  0  0  0  0  0
    0.1235   -1.4947    0.2591 C   0  0  0  0  0  0  0  0  0  0  0  0
    1.9080    6.8063   -4.4723 O   0  0  0  0  0  0  0  0  0  0  0  0
    1.3062   -0.7927    0.1931 C   0  0  0  0  0  0  0  0  0  0  0  0
   -0.9151   -0.7256    0.6925 C   0  0  0  0  0  0  0  0  0  0  0  0
   -3.0960    1.4922   -0.2332 C   0  0  0  0  0  0  0  0  0  0  0  0
   -2.9765    1.6186   -2.8212 C   0  0  0  0  0  0  0  0  0  0  0  0
   -1.0353    0.9523   -1.8535 C   0  0  0  0  0  0  0  0  0  0  0  0
    1.0136    7.9161   -4.5726 C   0  0  0  0  0  0  0  0  0  0  0  0
   -4.3448    2.3705   -0.0813 C   0  0  0  0  0  0  0  0  0  0  0  0
  -15.0408   -1.8487   -1.1939 C   0  0  0  0  0  0  0  0  0  0  0  0
  -14.1780   -1.5969    0.0434 C   0  0  0  0  0  0  0  0  0  0  0  0
  -10.8508   -0.2563    0.0222 C   0  0  0  0  0  0  0  0  0  0  0  0
  -11.6873   -0.5498   -1.2258 C   0  0  0  0  0  0  0  0  0  0  0  0
  -12.0599   -2.0345   -1.2562 C   0  0  0  0  0  0  0  0  0  0  0  0
  -12.8735   -2.3993   -0.0097 C   0  0  0  0  0  0  0  0  0  0  0  0
   -5.3493    2.0722   -1.1636 C   0  0  0  0  0  0  0  0  0  0  0  0
   -5.5962    0.5598   -1.2127 C   0  0  0  0  0  0  0  0  0  0  0  0
   -6.3562    0.1807    0.0504 C   0  0  0  0  0  0  0  0  0  0  0  0
   -7.6455    1.0015    0.0780 C   0  0  0  0  0  0  0  0  0  0  0  0
   -8.4273    0.7253   -1.2143 C   0  0  0  0  0  0  0  0  0  0  0  0
   -8.7704   -0.7652   -1.2580 C   0  0  0  0  0  0  0  0  0  0  0  0
   -9.5803   -1.1128   -0.0062 C   0  0  0  0  0  0  0  0  0  0  0  0
  -15.4077   -3.3202   -1.2977 C   0  0  0  0  0  0  0  0  0  0  0  0
    1.7489    3.9782    0.9596 H   0  0  0  0  0  0  0  0  0  0  0  0
    2.4041    2.6459    0.0391 H   0  0  0  0  0  0  0  0  0  0  0  0
   -1.6413    3.2311    1.0397 H   0  0  0  0  0  0  0  0  0  0  0  0
   -0.8036    4.4494    0.3125 H   0  0  0  0  0  0  0  0  0  0  0  0
   -2.5715    3.9177   -1.2665 H   0  0  0  0  0  0  0  0  0  0  0  0
   -1.0710    3.5183   -2.0778 H   0  0  0  0  0  0  0  0  0  0  0  0
    0.3508    5.8229   -0.3219 H   0  0  0  0  0  0  0  0  0  0  0  0
    3.0187    3.0363   -2.2651 H   0  0  0  0  0  0  0  0  0  0  0  0
    3.2677    4.6658   -4.1041 H   0  0  0  0  0  0  0  0  0  0  0  0
    0.3605    7.2235   -2.2427 H   0  0  0  0  0  0  0  0  0  0  0  0
    0.0142   -2.5268   -0.0275 H   0  0  0  0  0  0  0  0  0  0  0  0
    2.2143   -1.3070   -0.1054 H   0  0  0  0  0  0  0  0  0  0  0  0
   -1.9265   -1.1416    0.6792 H   0  0  0  0  0  0  0  0  0  0  0  0
   -3.2773    0.4203   -0.1999 H   0  0  0  0  0  0  0  0  0  0  0  0
   -2.5669    1.6947    0.6872 H   0  0  0  0  0  0  0  0  0  0  0  0
   -2.2862    1.6436   -3.6678 H   0  0  0  0  0  0  0  0  0  0  0  0
   -3.4134    0.6124   -2.7890 H   0  0  0  0  0  0  0  0  0  0  0  0
   -3.6483    2.4281   -3.0382 H   0  0  0  0  0  0  0  0  0  0  0  0
   -0.6800    1.1873   -2.8624 H   0  0  0  0  0  0  0  0  0  0  0  0
   -0.1594    1.2304   -1.3284 H   0  0  0  0  0  0  0  0  0  0  0  0
   -1.3196   -0.0966   -1.7922 H   0  0  0  0  0  0  0  0  0  0  0  0
   -0.0316    7.5854   -4.5362 H   0  0  0  0  0  0  0  0  0  0  0  0
    1.2143    8.6551   -3.7885 H   0  0  0  0  0  0  0  0  0  0  0  0
    1.1704    8.4047   -5.5382 H   0  0  0  0  0  0  0  0  0  0  0  0
   -4.7945    2.1770    0.9056 H   0  0  0  0  0  0  0  0  0  0  0  0
   -4.1240    3.4402   -0.0321 H   0  0  0  0  0  0  0  0  0  0  0  0
  -15.9444   -1.2353   -1.1412 H   0  0  0  0  0  0  0  0  0  0  0  0
  -14.5248   -1.5318   -2.1082 H   0  0  0  0  0  0  0  0  0  0  0  0
  -14.7293   -1.8558    0.9522 H   0  0  0  0  0  0  0  0  0  0  0  0
  -13.9723   -0.5227    0.1299 H   0  0  0  0  0  0  0  0  0  0  0  0
  -11.3999   -0.4389    0.9483 H   0  0  0  0  0  0  0  0  0  0  0  0
  -10.6352    0.8152    0.0771 H   0  0  0  0  0  0  0  0  0  0  0  0
  -12.5664    0.0989   -1.2437 H   0  0  0  0  0  0  0  0  0  0  0  0
  -11.1596   -0.2837   -2.1475 H   0  0  0  0  0  0  0  0  0  0  0  0
  -12.5952   -2.2620   -2.1810 H   0  0  0  0  0  0  0  0  0  0  0  0
  -11.1746   -2.6762   -1.3156 H   0  0  0  0  0  0  0  0  0  0  0  0
  -13.0615   -3.4753    0.0052 H   0  0  0  0  0  0  0  0  0  0  0  0
  -12.3032   -2.2273    0.9096 H   0  0  0  0  0  0  0  0  0  0  0  0
   -6.2391    2.6767   -1.0017 H   0  0  0  0  0  0  0  0  0  0  0  0
   -5.0861    2.4699   -2.1262 H   0  0  0  0  0  0  0  0  0  0  0  0
   -6.1023    0.2917   -2.1428 H   0  0  0  0  0  0  0  0  0  0  0  0
   -4.7067   -0.0675   -1.2757 H   0  0  0  0  0  0  0  0  0  0  0  0
   -6.5318   -0.8989    0.0674 H   0  0  0  0  0  0  0  0  0  0  0  0
   -5.7689    0.3588    0.9557 H   0  0  0  0  0  0  0  0  0  0  0  0
   -8.2034    0.7859    0.9886 H   0  0  0  0  0  0  0  0  0  0  0  0
   -7.4750    2.0733    0.1893 H   0  0  0  0  0  0  0  0  0  0  0  0
   -9.3054    1.3721   -1.2636 H   0  0  0  0  0  0  0  0  0  0  0  0
   -7.8891    1.0065   -2.1246 H   0  0  0  0  0  0  0  0  0  0  0  0
   -9.2978   -1.0006   -2.1856 H   0  0  0  0  0  0  0  0  0  0  0  0
   -7.8816   -1.4009   -1.3149 H   0  0  0  0  0  0  0  0  0  0  0  0
   -9.7872   -2.1842    0.0181 H   0  0  0  0  0  0  0  0  0  0  0  0
   -9.0133   -0.9631    0.9167 H   0  0  0  0  0  0  0  0  0  0  0  0
  -15.9543   -3.6302   -0.4024 H   0  0  0  0  0  0  0  0  0  0  0  0
  -16.0238   -3.5041   -2.1785 H   0  0  0  0  0  0  0  0  0  0  0  0
  -14.5236   -3.9595   -1.3905 H   0  0  0  0  0  0  0  0  0  0  0  0
  2  1  1  0  0  0  0
  3  1  2  0  0  0  0
  4  1  1  0  0  0  0
  5  8  1  0  0  0  0
  6  2  1  0  0  0  0
  6 38  1  0  0  0  0
  6 39  1  0  0  0  0
  7  2  1  0  0  0  0
  7 40  1  0  0  0  0
  7 41  1  0  0  0  0
  8  7  1  0  0  0  0
  8 42  1  0  0  0  0
  8 43  1  0  0  0  0
  9  6  1  0  0  0  0
 10 14  2  0  0  0  0
 10 13  1  0  0  0  0
 11  9  2  0  0  0  0
 11 44  1  0  0  0  0
 12  9  1  0  0  0  0
 12 45  1  0  0  0  0
 13 12  2  0  0  0  0
 13 46  1  0  0  0  0
 14 11  1  0  0  0  0
 14 47  1  0  0  0  0
 15 17  1  0  0  0  0
 15 18  2  0  0  0  0
 15 48  1  0  0  0  0
 16 10  1  0  0  0  0
 17  4  2  0  0  0  0
 17 49  1  0  0  0  0
 18  3  1  0  0  0  0
 18 50  1  0  0  0  0
 19  5  1  0  0  0  0
 19 51  1  0  0  0  0
 19 52  1  0  0  0  0
 20  5  1  0  0  0  0
 20 53  1  0  0  0  0
 20 54  1  0  0  0  0
 20 55  1  0  0  0  0
 21  5  1  0  0  0  0
 21 56  1  0  0  0  0
 21 57  1  0  0  0  0
 21 58  1  0  0  0  0
 22 16  1  0  0  0  0
 22 59  1  0  0  0  0
 22 60  1  0  0  0  0
 22 61  1  0  0  0  0
 23 19  1  0  0  0  0
 23 62  1  0  0  0  0
 23 63  1  0  0  0  0
 24 25  1  0  0  0  0
 24 64  1  0  0  0  0
 24 65  1  0  0  0  0
 25 29  1  0  0  0  0
 25 66  1  0  0  0  0
 25 67  1  0  0  0  0
 26 36  1  0  0  0  0
 26 68  1  0  0  0  0
 26 69  1  0  0  0  0
 27 26  1  0  0  0  0
 27 70  1  0  0  0  0
 27 71  1  0  0  0  0
 28 27  1  0  0  0  0
 28 72  1  0  0  0  0
 28 73  1  0  0  0  0
 29 28  1  0  0  0  0
 29 74  1  0  0  0  0
 29 75  1  0  0  0  0
 30 23  1  0  0  0  0
 30 76  1  0  0  0  0
 30 77  1  0  0  0  0
 31 30  1  0  0  0  0
 31 78  1  0  0  0  0
 31 79  1  0  0  0  0
 32 31  1  0  0  0  0
 32 80  1  0  0  0  0
 32 81  1  0  0  0  0
 33 32  1  0  0  0  0
 33 82  1  0  0  0  0
 33 83  1  0  0  0  0
 34 33  1  0  0  0  0
 34 84  1  0  0  0  0
 34 85  1  0  0  0  0
 35 34  1  0  0  0  0
 35 86  1  0  0  0  0
 35 87  1  0  0  0  0
 36 35  1  0  0  0  0
 36 88  1  0  0  0  0
 36 89  1  0  0  0  0
 37 24  1  0  0  0  0
 37 90  1  0  0  0  0
 37 91  1  0  0  0  0
 37 92  1  0  0  0  0
M  CHG  1   5   1
M  END
>  <DRUGBANK_ID>
DB09552

>  <COMMON_NAME>
Thonzonium

>  <CAS_NUMBER>
25466-36-8

>  <UNII>
Z05ZE98FV8

>  <SYNONYMS>
Tonzonium

$$$$
