
 OpenBabel10282417153D

 66 68  0  0  1  0  0  0  0  0999 V2000
    0.8272   -0.3737    0.1305 F   0  0  0  0  0  0  0  0  0  0  0  0
    2.6112    0.0841    1.2646 F   0  0  0  0  0  0  0  0  0  0  0  0
    2.7483   -1.2415   -0.4133 F   0  0  0  0  0  0  0  0  0  0  0  0
    1.8848    0.9867    3.1176 F   0  0  0  0  0  0  0  0  0  0  0  0
    4.0075    0.4222    2.8172 F   0  0  0  0  0  0  0  0  0  0  0  0
    3.1841    0.6307    4.8096 F   0  0  0  0  0  0  0  0  0  0  0  0
    3.9015    4.9989    6.9340 F   0  0  0  0  0  0  0  0  0  0  0  0
    5.9643    4.8085    6.2620 F   0  0  0  0  0  0  0  0  0  0  0  0
    4.8286    6.6179    5.8152 F   0  0  0  0  0  0  0  0  0  0  0  0
    3.6462    2.4014   -5.6771 O   0  0  0  0  0  0  0  0  0  0  0  0
    5.6598    4.1911   -0.6603 O   0  0  0  0  0  0  0  0  0  0  0  0
    3.9242    4.5987   -6.0508 O   0  0  0  0  0  0  0  0  0  0  0  0
    5.4141    5.3165    1.1778 O   0  0  0  0  0  0  0  0  0  0  0  0
    3.1752    4.1698   -3.8777 N   0  0  0  0  0  0  0  0  0  0  0  0
    3.3310    4.9736    0.0771 N   0  0  0  0  0  0  0  0  0  0  0  0
    3.4073    5.6793   -3.4446 C   0  0  1  0  0  0  0  0  0  0  0  0
    2.2834    4.9131   -1.0973 C   0  0  1  0  0  0  0  0  0  0  0  0
    2.3222    5.9333   -2.3447 C   0  0  0  0  0  0  0  0  0  0  0  0
    2.1387    3.5074   -1.5753 C   0  0  0  0  0  0  0  0  0  0  0  0
    2.5411    3.2645   -2.8611 C   0  0  0  0  0  0  0  0  0  0  0  0
    4.9201    6.3140   -3.0046 C   0  0  0  0  0  0  0  0  0  0  0  0
    1.9397    2.4174   -0.6175 C   0  0  0  0  0  0  0  0  0  0  0  0
    2.7886    5.5801    1.2826 C   0  0  0  0  0  0  0  0  0  0  0  0
    2.9983    1.9995   -2.8699 C   0  0  0  0  0  0  0  0  0  0  0  0
    4.8896    6.8808   -1.5940 C   0  0  0  0  0  0  0  0  0  0  0  0
    3.5817    3.7169   -5.2034 C   0  0  0  0  0  0  0  0  0  0  0  0
    2.3466    1.0909   -0.8554 C   0  0  0  0  0  0  0  0  0  0  0  0
    2.9695    0.8919   -2.0266 C   0  0  0  0  0  0  0  0  0  0  0  0
    4.8080    4.7912    0.2350 C   0  0  0  0  0  0  0  0  0  0  0  0
    3.2269    4.7891    2.4821 C   0  0  0  0  0  0  0  0  0  0  0  0
    2.1459   -0.0964    0.0252 C   0  0  0  0  0  0  0  0  0  0  0  0
    3.7944    5.4076    3.5802 C   0  0  0  0  0  0  0  0  0  0  0  0
    3.2184    3.3937    2.4375 C   0  0  0  0  0  0  0  0  0  0  0  0
    4.2322    4.6273    4.6504 C   0  0  0  0  0  0  0  0  0  0  0  0
    3.5198    2.6174    3.5386 C   0  0  0  0  0  0  0  0  0  0  0  0
    3.7460    1.0283   -5.0920 C   0  0  0  0  0  0  0  0  0  0  0  0
    4.0855    3.2368    4.6286 C   0  0  0  0  0  0  0  0  0  0  0  0
    5.1601    3.6214   -1.8102 C   0  0  0  0  0  0  0  0  0  0  0  0
    3.1612    1.1713    3.5640 C   0  0  0  0  0  0  0  0  0  0  0  0
    4.7403    5.2656    5.8961 C   0  0  0  0  0  0  0  0  0  0  0  0
    5.1153    0.8071   -4.2709 C   0  0  0  0  0  0  0  0  0  0  0  0
    3.2192    6.2669   -4.3562 H   0  0  0  0  0  0  0  0  0  0  0  0
    1.2998    5.0981   -0.6407 H   0  0  0  0  0  0  0  0  0  0  0  0
    2.3164    6.9719   -2.0103 H   0  0  0  0  0  0  0  0  0  0  0  0
    1.3680    5.8048   -2.8855 H   0  0  0  0  0  0  0  0  0  0  0  0
    5.7353    5.5843   -3.0704 H   0  0  0  0  0  0  0  0  0  0  0  0
    5.2918    7.1422   -3.6168 H   0  0  0  0  0  0  0  0  0  0  0  0
    1.5529    2.6387    0.3702 H   0  0  0  0  0  0  0  0  0  0  0  0
    3.0856    6.6355    1.3224 H   0  0  0  0  0  0  0  0  0  0  0  0
    1.6919    5.5527    1.2773 H   0  0  0  0  0  0  0  0  0  0  0  0
    3.8691    2.1244   -3.4366 H   0  0  0  0  0  0  0  0  0  0  0  0
    4.3153    6.1095   -1.2036 H   0  0  0  0  0  0  0  0  0  0  0  0
    5.8127    6.8537   -1.0046 H   0  0  0  0  0  0  0  0  0  0  0  0
    4.2274    7.6964   -1.2995 H   0  0  0  0  0  0  0  0  0  0  0  0
    3.5126   -0.0261   -2.2459 H   0  0  0  0  0  0  0  0  0  0  0  0
    3.9693    6.4827    3.5685 H   0  0  0  0  0  0  0  0  0  0  0  0
    3.0649    2.8847    1.5019 H   0  0  0  0  0  0  0  0  0  0  0  0
    2.7642    0.8672   -4.6106 H   0  0  0  0  0  0  0  0  0  0  0  0
    3.6564    0.2346   -5.8347 H   0  0  0  0  0  0  0  0  0  0  0  0
    4.3865    2.6286    5.4774 H   0  0  0  0  0  0  0  0  0  0  0  0
    4.8571    2.6231   -1.5670 H   0  0  0  0  0  0  0  0  0  0  0  0
    4.3421    4.2421   -2.0319 H   0  0  0  0  0  0  0  0  0  0  0  0
    5.7555    3.6525   -2.7305 H   0  0  0  0  0  0  0  0  0  0  0  0
    5.4501    1.6035   -3.5760 H   0  0  0  0  0  0  0  0  0  0  0  0
    5.0918   -0.0818   -3.6263 H   0  0  0  0  0  0  0  0  0  0  0  0
    5.9676    0.7929   -4.9352 H   0  0  0  0  0  0  0  0  0  0  0  0
  1 31  1  0  0  0  0
  2 31  1  0  0  0  0
  3 31  1  0  0  0  0
  4 39  1  0  0  0  0
  5 39  1  0  0  0  0
  6 39  1  0  0  0  0
  7 40  1  0  0  0  0
  8 40  1  0  0  0  0
  9 40  1  0  0  0  0
 10 26  1  0  0  0  0
 10 36  1  0  0  0  0
 11 29  1  0  0  0  0
 11 38  1  0  0  0  0
 12 26  2  0  0  0  0
 13 29  2  0  0  0  0
 14 16  1  0  0  0  0
 14 20  1  0  0  0  0
 14 26  1  0  0  0  0
 15 23  1  0  0  0  0
 15 29  1  0  0  0  0
 16 18  1  0  0  0  0
 16 42  1  6  0  0  0
 16 21  1  0  0  0  0
 17 15  1  0  0  0  0
 17 18  1  0  0  0  0
 17 19  1  0  0  0  0
 17 43  1  1  0  0  0
 18 44  1  0  0  0  0
 18 45  1  0  0  0  0
 19 20  2  0  0  0  0
 19 22  1  0  0  0  0
 20 24  1  0  0  0  0
 21 25  1  0  0  0  0
 21 46  1  0  0  0  0
 21 47  1  0  0  0  0
 22 27  2  0  0  0  0
 22 48  1  0  0  0  0
 23 30  1  0  0  0  0
 23 49  1  0  0  0  0
 23 50  1  0  0  0  0
 24 28  2  0  0  0  0
 24 51  1  0  0  0  0
 25 52  1  0  0  0  0
 25 53  1  0  0  0  0
 25 54  1  0  0  0  0
 27 28  1  0  0  0  0
 27 31  1  0  0  0  0
 28 55  1  0  0  0  0
 30 32  2  0  0  0  0
 30 33  1  0  0  0  0
 32 34  1  0  0  0  0
 32 56  1  0  0  0  0
 33 35  2  0  0  0  0
 33 57  1  0  0  0  0
 34 37  2  0  0  0  0
 34 40  1  0  0  0  0
 35 37  1  0  0  0  0
 35 39  1  0  0  0  0
 36 41  1  0  0  0  0
 36 58  1  0  0  0  0
 36 59  1  0  0  0  0
 37 60  1  0  0  0  0
 38 61  1  0  0  0  0
 38 62  1  0  0  0  0
 38 63  1  0  0  0  0
 41 64  1  0  0  0  0
 41 65  1  0  0  0  0
 41 66  1  0  0  0  0
M  END
>  <DRUGBANK_ID>
DB06281

>  <COMMON_NAME>
Torcetrapib

>  <CAS_NUMBER>
262352-17-0

>  <UNII>
4N4457MV2U

>  <SYNONYMS>
Torcetrapib

$$$$
