
 OpenBabel10282417133D

 31 32  0  0  0  0  0  0  0  0999 V2000
    1.2178    1.1630   -0.0172 C   0  0  0  0  0  0  0  0  0  0  0  0
    2.5207    1.9056   -0.0463 C   0  0  0  0  0  0  0  0  0  0  0  0
    1.2179   -0.2451   -0.0099 C   0  0  0  0  0  0  0  0  0  0  0  0
   -0.0260    1.8184    0.0006 C   0  0  0  0  0  0  0  0  0  0  0  0
    2.5236    3.3959   -0.0580 C   0  0  0  0  0  0  0  0  0  0  0  0
    3.5748    1.2682   -0.0566 O   0  0  0  0  0  0  0  0  0  0  0  0
    0.0208   -0.9666   -0.0062 C   0  0  0  0  0  0  0  0  0  0  0  0
    2.3636   -0.9996   -0.0023 O   0  0  0  0  0  0  0  0  0  0  0  0
   -1.2257    1.0965    0.0156 C   0  0  0  0  0  0  0  0  0  0  0  0
    3.6666    4.1000   -0.0823 C   0  0  0  0  0  0  0  0  0  0  0  0
   -1.1922   -0.2907    0.0047 C   0  0  0  0  0  0  0  0  0  0  0  0
    3.6691    5.5722   -0.0861 C   0  0  0  0  0  0  0  0  0  0  0  0
   -2.3396   -1.0258    0.0054 O   0  0  0  0  0  0  0  0  0  0  0  0
    2.8500    6.3119    0.7833 C   0  0  0  0  0  0  0  0  0  0  0  0
    4.5235    6.2631   -0.9530 C   0  0  0  0  0  0  0  0  0  0  0  0
    2.8692    7.7118    0.7752 C   0  0  0  0  0  0  0  0  0  0  0  0
    4.5425    7.6619   -0.9635 C   0  0  0  0  0  0  0  0  0  0  0  0
    3.7210    8.3756   -0.0992 C   0  0  0  0  0  0  0  0  0  0  0  0
    3.7910    9.7365   -0.1438 O   0  0  0  0  0  0  0  0  0  0  0  0
   -0.1147    2.8976    0.0025 H   0  0  0  0  0  0  0  0  0  0  0  0
    1.5844    3.9255   -0.0557 H   0  0  0  0  0  0  0  0  0  0  0  0
    0.0379   -2.0529   -0.0117 H   0  0  0  0  0  0  0  0  0  0  0  0
    3.1347   -0.3888   -0.0018 H   0  0  0  0  0  0  0  0  0  0  0  0
   -2.1679    1.6367    0.0334 H   0  0  0  0  0  0  0  0  0  0  0  0
    4.6347    3.6045   -0.1185 H   0  0  0  0  0  0  0  0  0  0  0  0
   -3.1047   -0.4272    0.0056 H   0  0  0  0  0  0  0  0  0  0  0  0
    2.1926    5.8032    1.4845 H   0  0  0  0  0  0  0  0  0  0  0  0
    5.1737    5.7240   -1.6381 H   0  0  0  0  0  0  0  0  0  0  0  0
    2.2200    8.2552    1.4545 H   0  0  0  0  0  0  0  0  0  0  0  0
    5.1987    8.1953   -1.6456 H   0  0  0  0  0  0  0  0  0  0  0  0
    3.2015   10.1106    0.5309 H   0  0  0  0  0  0  0  0  0  0  0  0
  1  2  1  0  0  0  0
  1  3  2  0  0  0  0
  1  4  1  0  0  0  0
  2  5  1  0  0  0  0
  2  6  2  0  0  0  0
  3  7  1  0  0  0  0
  3  8  1  0  0  0  0
  4  9  2  0  0  0  0
  4 20  1  0  0  0  0
  5 10  2  0  0  0  0
  5 21  1  0  0  0  0
  7 11  2  0  0  0  0
  7 22  1  0  0  0  0
  8 23  1  0  0  0  0
  9 11  1  0  0  0  0
  9 24  1  0  0  0  0
 10 12  1  0  0  0  0
 10 25  1  0  0  0  0
 11 13  1  0  0  0  0
 12 14  2  0  0  0  0
 12 15  1  0  0  0  0
 13 26  1  0  0  0  0
 14 16  1  0  0  0  0
 14 27  1  0  0  0  0
 15 17  2  0  0  0  0
 15 28  1  0  0  0  0
 16 18  2  0  0  0  0
 16 29  1  0  0  0  0
 17 18  1  0  0  0  0
 17 30  1  0  0  0  0
 18 19  1  0  0  0  0
 19 31  1  0  0  0  0
M  END
>  <DRUGBANK_ID>
DB03285

>  <SECONDARY_ACCESSION_NUMBERS>
EXPT01707

>  <COMMON_NAME>
Isoliquiritigenin

>  <CAS_NUMBER>
961-29-5

>  <UNII>
B9CTI9GB8F

>  <SYNONYMS>
(E)-1-(2,4-Dihydroxy-phenyl)-3-(4-hydroxy-phenyl)-propenone; (E)-1-(2,4-dihydroxyphenyl)-3-(4-hydroxyphenyl)-2-propene-1-one; 2',4,4'-Trihydroxychalcone; 4,2',4'-Trihydroxychalcone; trans-2',4,4'-trihydroxychalcone

$$$$
