TGN
 OpenBabel10282417173D

 45 47  0  0  0  0  0  0  0  0999 V2000
    0.4742   -0.9340    1.4856 C   0  0  2  0  0  0  0  0  0  0  0  0
   -0.1705    0.4488    1.1812 C   0  0  2  0  0  0  0  0  0  0  0  0
   -1.0012    0.5034   -0.0349 N   0  0  0  0  0  0  0  0  0  0  0  0
   -2.3881    0.0807   -0.1646 C   0  0  0  0  0  0  0  0  0  0  0  0
    0.9151    1.4572    0.7569 C   0  0  0  0  0  0  0  0  0  0  0  0
    0.9297    1.4580   -0.7802 C   0  0  0  0  0  0  0  0  0  0  0  0
   -0.1026    0.4195   -1.1794 C   0  0  1  0  0  0  0  0  0  0  0  0
    0.6323   -0.9158   -1.3050 C   0  0  0  0  0  0  0  0  0  0  0  0
    1.1976   -1.4393    0.1051 C   0  0  2  0  0  0  0  0  0  0  0  0
    1.2964   -2.8585    0.0425 O   0  0  0  0  0  0  0  0  0  0  0  0
   -0.2787   -3.5730    0.0805 P   0  0  1  0  0  0  0  0  0  0  0  0
   -0.0156   -4.1151    1.4646 O   0  0  0  0  0  0  0  0  0  0  0  0
   -1.0594   -2.2696   -0.2878 O   0  0  0  0  0  0  0  0  0  0  0  0
   -1.9448   -4.3288    0.1207 C   0  0  0  0  0  0  0  0  0  0  0  0
   -2.0254   -5.7401    0.2191 C   0  0  0  0  0  0  0  0  0  0  0  0
   -3.1417   -3.7934   -0.3612 C   0  0  0  0  0  0  0  0  0  0  0  0
   -3.2520   -6.4307    0.2834 C   0  0  0  0  0  0  0  0  0  0  0  0
   -4.4300   -5.7086    0.3213 C   0  0  0  0  0  0  0  0  0  0  0  0
   -4.3636   -4.3685    0.0074 C   0  0  0  0  0  0  0  0  0  0  0  0
   -0.5975   -1.7877    2.3944 C   0  0  0  0  0  0  0  0  0  0  0  0
   -0.3552   -2.5351    3.3016 O   0  0  0  0  0  0  0  0  0  0  0  0
   -1.8738   -1.5449    1.9395 O   0  0  0  0  0  0  0  0  0  0  0  0
   -2.9764   -2.4627    2.1133 C   0  0  0  0  0  0  0  0  0  0  0  0
    1.2971   -0.8336    2.2088 H   0  0  0  0  0  0  0  0  0  0  0  0
   -0.6982    0.8056    2.0716 H   0  0  0  0  0  0  0  0  0  0  0  0
   -0.6092    0.6777   -2.1161 H   0  0  0  0  0  0  0  0  0  0  0  0
    2.2308   -1.0651    0.1295 H   0  0  0  0  0  0  0  0  0  0  0  0
   -2.5516   -0.9546   -0.4324 H   0  0  0  0  0  0  0  0  0  0  0  0
   -2.9565    0.2227    0.7590 H   0  0  0  0  0  0  0  0  0  0  0  0
   -2.9137    0.5449   -0.9979 H   0  0  0  0  0  0  0  0  0  0  0  0
    0.6477    2.4590    1.1054 H   0  0  0  0  0  0  0  0  0  0  0  0
    1.9050    1.2137    1.1576 H   0  0  0  0  0  0  0  0  0  0  0  0
    1.9226    1.2154   -1.1760 H   0  0  0  0  0  0  0  0  0  0  0  0
    0.6448    2.4398   -1.1691 H   0  0  0  0  0  0  0  0  0  0  0  0
   -0.0218   -1.6182   -1.8443 H   0  0  0  0  0  0  0  0  0  0  0  0
    1.4458   -0.8718   -2.0432 H   0  0  0  0  0  0  0  0  0  0  0  0
   -1.0983   -1.5264    0.3147 H   0  0  0  0  0  0  0  0  0  0  0  0
   -1.1077   -6.3262    0.2048 H   0  0  0  0  0  0  0  0  0  0  0  0
   -3.1576   -2.8229   -0.8393 H   0  0  0  0  0  0  0  0  0  0  0  0
   -3.2790   -7.5133    0.3636 H   0  0  0  0  0  0  0  0  0  0  0  0
   -5.3849   -6.1657    0.5615 H   0  0  0  0  0  0  0  0  0  0  0  0
   -5.2297   -3.7295    0.1604 H   0  0  0  0  0  0  0  0  0  0  0  0
   -2.6683   -3.5100    2.1661 H   0  0  0  0  0  0  0  0  0  0  0  0
   -3.6458   -2.2532    2.9364 H   0  0  0  0  0  0  0  0  0  0  0  0
   -3.6137   -2.2704    1.2402 H   0  0  0  0  0  0  0  0  0  0  0  0
  1  2  1  0  0  0  0
  1  9  1  0  0  0  0
  1 20  1  0  0  0  0
  1 24  1  1  0  0  0
  2  3  1  0  0  0  0
  2  5  1  0  0  0  0
  2 25  1  1  0  0  0
  3  4  1  0  0  0  0
  3  7  1  0  0  0  0
  4 28  1  0  0  0  0
  4 29  1  0  0  0  0
  4 30  1  0  0  0  0
  5  6  1  0  0  0  0
  5 31  1  0  0  0  0
  5 32  1  0  0  0  0
  6  7  1  0  0  0  0
  6 33  1  0  0  0  0
  6 34  1  0  0  0  0
  7  8  1  0  0  0  0
  7 26  1  6  0  0  0
  8  9  1  0  0  0  0
  8 35  1  0  0  0  0
  8 36  1  0  0  0  0
  9 10  1  0  0  0  0
  9 27  1  1  0  0  0
 11 10  1  0  0  0  0
 11 12  2  1  0  0  0
 11 13  1  0  0  0  0
 11 14  1  0  0  0  0
 13 37  1  0  0  0  0
 14 15  1  0  0  0  0
 14 16  2  0  0  0  0
 15 17  2  0  0  0  0
 15 38  1  0  0  0  0
 16 19  1  0  0  0  0
 16 39  1  0  0  0  0
 17 18  1  0  0  0  0
 17 40  1  0  0  0  0
 18 19  2  0  0  0  0
 18 41  1  0  0  0  0
 19 42  1  0  0  0  0
 20 21  2  0  0  0  0
 20 22  1  0  0  0  0
 22 23  1  0  0  0  0
 23 43  1  0  0  0  0
 23 44  1  0  0  0  0
 23 45  1  0  0  0  0
M  END
>  <DRUGBANK_ID>
DB08618

>  <COMMON_NAME>
3-(HYDROXY-PHENYL-PHOSPHINOYLOXY)-8-METHYL-8-AZA-BICYCLO[3.2.1]OCTANE-2-CARBOXYLIC ACID METHYL ESTER

$$$$
