MSI
 OpenBabel10282417173D

 48 51  0  0  0  0  0  0  0  0999 V2000
    1.2410   -0.1924   -0.0911 S   0  0  0  0  0  0  0  0  0  0  0  0
    7.0914    0.5064   -0.0306 N   0  0  0  0  0  0  0  0  0  0  0  0
    0.8231    0.7504    1.2734 N   0  0  0  0  0  0  0  0  0  0  0  0
   -0.7308    2.9858   -0.3967 O   0  0  0  0  0  0  0  0  0  0  0  0
    8.1475    2.6403   -0.0327 O   0  0  0  0  0  0  0  0  0  0  0  0
    5.2948    3.5333   -0.0256 O   0  0  0  0  0  0  0  0  0  0  0  0
    0.8692    0.3999   -1.3510 O   0  0  0  0  0  0  0  0  0  0  0  0
    0.8863   -1.5654    0.2135 O   0  0  0  0  0  0  0  0  0  0  0  0
    7.1755    1.8991   -0.0479 C   0  0  0  0  0  0  0  0  0  0  0  0
    5.7326    2.3977   -0.1082 C   0  0  0  0  0  0  0  0  0  0  0  0
    3.5856    1.1437   -0.3199 C   0  0  0  0  0  0  0  0  0  0  0  0
    2.9895   -0.0918   -0.1334 C   0  0  0  0  0  0  0  0  0  0  0  0
    3.7529   -1.2536   -0.0369 C   0  0  0  0  0  0  0  0  0  0  0  0
    5.1561   -1.1723   -0.0405 C   0  0  0  0  0  0  0  0  0  0  0  0
    5.7484    0.0845   -0.0815 C   0  0  0  0  0  0  0  0  0  0  0  0
    4.9386    1.1972   -0.1991 C   0  0  0  0  0  0  0  0  0  0  0  0
    0.9502    2.2340    1.3485 C   0  0  1  0  0  0  0  0  0  0  0  0
    2.2269    2.3239    2.2001 C   0  0  0  0  0  0  0  0  0  0  0  0
    1.9947    1.2496    3.2785 C   0  0  0  0  0  0  0  0  0  0  0  0
    1.0392    0.2378    2.6400 C   0  0  0  0  0  0  0  0  0  0  0  0
    0.6924    2.9221   -0.0078 C   0  0  0  0  0  0  0  0  0  0  0  0
   -1.4282    1.8050   -0.5626 C   0  0  0  0  0  0  0  0  0  0  0  0
   -1.6759    0.9234    0.4889 C   0  0  0  0  0  0  0  0  0  0  0  0
   -2.0129   -0.4149    0.2445 C   0  0  0  0  0  0  0  0  0  0  0  0
   -2.4605   -0.7875   -1.0078 C   0  0  0  0  0  0  0  0  0  0  0  0
   -2.5440    0.1887   -1.9973 C   0  0  0  0  0  0  0  0  0  0  0  0
   -1.9489    1.4538   -1.8066 C   0  0  0  0  0  0  0  0  0  0  0  0
    8.2331   -0.3666   -0.0389 C   0  0  0  0  0  0  0  0  0  0  0  0
    0.1593    2.6445    1.9976 H   0  0  0  0  0  0  0  0  0  0  0  0
    3.0716    2.0835   -0.4291 H   0  0  0  0  0  0  0  0  0  0  0  0
    3.2341   -2.2107    0.0179 H   0  0  0  0  0  0  0  0  0  0  0  0
    5.7155   -2.0970    0.0081 H   0  0  0  0  0  0  0  0  0  0  0  0
    3.1240    1.9932    1.7002 H   0  0  0  0  0  0  0  0  0  0  0  0
    2.4684    3.3124    2.5932 H   0  0  0  0  0  0  0  0  0  0  0  0
    2.9255    0.7451    3.5601 H   0  0  0  0  0  0  0  0  0  0  0  0
    1.5656    1.6915    4.1841 H   0  0  0  0  0  0  0  0  0  0  0  0
    1.4148   -0.7854    2.6456 H   0  0  0  0  0  0  0  0  0  0  0  0
    0.0870    0.2398    3.1907 H   0  0  0  0  0  0  0  0  0  0  0  0
    1.0551    3.9575    0.0513 H   0  0  0  0  0  0  0  0  0  0  0  0
    1.2560    2.5174   -0.8452 H   0  0  0  0  0  0  0  0  0  0  0  0
   -1.4344    1.1981    1.5058 H   0  0  0  0  0  0  0  0  0  0  0  0
   -1.8365   -1.1693    1.0106 H   0  0  0  0  0  0  0  0  0  0  0  0
   -2.7353   -1.8214   -1.2012 H   0  0  0  0  0  0  0  0  0  0  0  0
   -3.0275   -0.0572   -2.9373 H   0  0  0  0  0  0  0  0  0  0  0  0
   -1.8639    2.1288   -2.6508 H   0  0  0  0  0  0  0  0  0  0  0  0
    8.2243   -0.9989    0.8520 H   0  0  0  0  0  0  0  0  0  0  0  0
    8.2124   -0.9889   -0.9382 H   0  0  0  0  0  0  0  0  0  0  0  0
    9.1568    0.2215   -0.0466 H   0  0  0  0  0  0  0  0  0  0  0  0
  1  3  1  0  0  0  0
  1  7  2  0  0  0  0
  1  8  2  0  0  0  0
  1 12  1  0  0  0  0
  2  9  1  0  0  0  0
  2 15  1  0  0  0  0
  2 28  1  0  0  0  0
  3 17  1  0  0  0  0
  3 20  1  0  0  0  0
  4 21  1  0  0  0  0
  4 22  1  0  0  0  0
  5  9  2  0  0  0  0
  6 10  2  0  0  0  0
  9 10  1  0  0  0  0
 10 16  1  0  0  0  0
 11 12  2  0  0  0  0
 11 16  1  0  0  0  0
 11 30  1  0  0  0  0
 12 13  1  0  0  0  0
 13 14  2  0  0  0  0
 13 31  1  0  0  0  0
 14 15  1  0  0  0  0
 14 32  1  0  0  0  0
 15 16  2  0  0  0  0
 17 18  1  0  0  0  0
 17 29  1  1  0  0  0
 17 21  1  0  0  0  0
 18 19  1  0  0  0  0
 18 33  1  0  0  0  0
 18 34  1  0  0  0  0
 19 20  1  0  0  0  0
 19 35  1  0  0  0  0
 19 36  1  0  0  0  0
 20 37  1  0  0  0  0
 20 38  1  0  0  0  0
 21 39  1  0  0  0  0
 21 40  1  0  0  0  0
 22 23  2  0  0  0  0
 22 27  1  0  0  0  0
 23 24  1  0  0  0  0
 23 41  1  0  0  0  0
 24 25  2  0  0  0  0
 24 42  1  0  0  0  0
 25 26  1  0  0  0  0
 25 43  1  0  0  0  0
 26 27  2  0  0  0  0
 26 44  1  0  0  0  0
 27 45  1  0  0  0  0
 28 46  1  0  0  0  0
 28 47  1  0  0  0  0
 28 48  1  0  0  0  0
M  END
>  <DRUGBANK_ID>
DB08213

>  <COMMON_NAME>
1-METHYL-5-(2-PHENOXYMETHYL-PYRROLIDINE-1-SULFONYL)-1H-INDOLE-2,3-DIONE

$$$$
