
 OpenBabel10282417143D

 85 88  0  0  0  0  0  0  0  0999 V2000
    0.7584   -0.0605    0.0704 O   0  0  0  0  0  0  0  0  0  0  0  0
    0.6039   -1.6754    1.7138 O   0  0  0  0  0  0  0  0  0  0  0  0
    0.0339    0.2770    3.6871 O   0  0  0  0  0  0  0  0  0  0  0  0
   -2.9311    0.7529    5.2667 O   0  0  0  0  0  0  0  0  0  0  0  0
   -0.7847    1.2336    9.7102 O   0  0  0  0  0  0  0  0  0  0  0  0
    2.0372    3.5660    6.5336 O   0  0  0  0  0  0  0  0  0  0  0  0
    1.5500    2.7780    9.1937 O   0  0  0  0  0  0  0  0  0  0  0  0
   -1.9243   -0.0439    2.5244 N   0  0  0  0  0  0  0  0  0  0  0  0
    6.5805    1.6681   -0.4550 N   0  0  0  0  0  0  0  0  0  0  0  0
    6.4929   -2.3292    2.7082 N   0  0  0  0  0  0  0  0  0  0  0  0
   -1.3409   -0.4037    1.1853 C   0  0  1  0  0  0  0  0  0  0  0  0
   -1.8415    0.5351    0.0778 C   0  0  0  0  0  0  0  0  0  0  0  0
   -3.3656    0.5801    0.0769 C   0  0  0  0  0  0  0  0  0  0  0  0
   -3.9069    0.8810    1.4724 C   0  0  0  0  0  0  0  0  0  0  0  0
   -3.3652   -0.0902    2.5130 C   0  0  0  0  0  0  0  0  0  0  0  0
    0.1162   -0.7848    1.0326 C   0  0  0  0  0  0  0  0  0  0  0  0
    2.2038   -0.1129   -0.0052 C   0  0  0  0  0  0  0  0  0  0  0  0
   -1.1664    0.3081    3.6580 C   0  0  0  0  0  0  0  0  0  0  0  0
    2.6011    0.4043   -1.4119 C   0  0  0  0  0  0  0  0  0  0  0  0
    2.7546    0.7470    1.1389 C   0  0  0  0  0  0  0  0  0  0  0  0
    2.2962    1.8878   -1.6756 C   0  0  0  0  0  0  0  0  0  0  0  0
    2.4750    0.3288    2.5402 C   0  0  0  0  0  0  0  0  0  0  0  0
   -1.7369    0.7413    5.0140 C   0  0  0  0  0  0  0  0  0  0  0  0
    2.9400    2.9499   -0.7679 C   0  0  0  0  0  0  0  0  0  0  0  0
    2.9863   -1.0490    2.8564 C   0  0  0  0  0  0  0  0  0  0  0  0
   -0.7770    1.2020    6.0808 C   0  0  0  0  0  0  0  0  0  0  0  0
    4.4466    2.8818   -0.6282 C   0  0  0  0  0  0  0  0  0  0  0  0
    4.4791   -1.0421    2.8673 C   0  0  0  0  0  0  0  0  0  0  0  0
    0.2675    2.0851    5.7802 C   0  0  0  0  0  0  0  0  0  0  0  0
   -1.0225    0.8758    7.4170 C   0  0  0  0  0  0  0  0  0  0  0  0
    5.1491    4.0737   -0.5490 C   0  0  0  0  0  0  0  0  0  0  0  0
    5.2358    0.1372    2.8939 C   0  0  0  0  0  0  0  0  0  0  0  0
    5.2381    1.7266   -0.5306 C   0  0  0  0  0  0  0  0  0  0  0  0
    5.1521   -2.2448    2.7602 C   0  0  0  0  0  0  0  0  0  0  0  0
   -0.2906    1.4946    8.4480 C   0  0  0  0  0  0  0  0  0  0  0  0
    1.0536    2.6525    6.7892 C   0  0  0  0  0  0  0  0  0  0  0  0
    0.8013    2.3365    8.1350 C   0  0  0  0  0  0  0  0  0  0  0  0
    6.5411    4.0523   -0.4864 C   0  0  0  0  0  0  0  0  0  0  0  0
    6.6017    0.0885    2.7811 C   0  0  0  0  0  0  0  0  0  0  0  0
    7.2072    2.8398   -0.4604 C   0  0  0  0  0  0  0  0  0  0  0  0
    7.1779   -1.1602    2.7253 C   0  0  0  0  0  0  0  0  0  0  0  0
   -0.2741    2.0265   10.7833 C   0  0  0  0  0  0  0  0  0  0  0  0
    2.2986    3.9427    5.1975 C   0  0  0  0  0  0  0  0  0  0  0  0
    2.6951    3.5856    9.0010 C   0  0  0  0  0  0  0  0  0  0  0  0
   -1.7937   -1.3826    0.9557 H   0  0  0  0  0  0  0  0  0  0  0  0
   -1.5025    0.1918   -0.9105 H   0  0  0  0  0  0  0  0  0  0  0  0
   -1.4320    1.5416    0.2228 H   0  0  0  0  0  0  0  0  0  0  0  0
   -3.7113    1.3367   -0.6343 H   0  0  0  0  0  0  0  0  0  0  0  0
   -3.7558   -0.3874   -0.2649 H   0  0  0  0  0  0  0  0  0  0  0  0
   -3.6219    1.9040    1.7477 H   0  0  0  0  0  0  0  0  0  0  0  0
   -4.9975    0.8226    1.4666 H   0  0  0  0  0  0  0  0  0  0  0  0
   -3.8038    0.1327    3.4739 H   0  0  0  0  0  0  0  0  0  0  0  0
   -3.6408   -1.1235    2.2742 H   0  0  0  0  0  0  0  0  0  0  0  0
    2.5559   -1.1480    0.0592 H   0  0  0  0  0  0  0  0  0  0  0  0
    3.6427    0.1913   -1.6601 H   0  0  0  0  0  0  0  0  0  0  0  0
    2.0849   -0.1956   -2.1707 H   0  0  0  0  0  0  0  0  0  0  0  0
    3.8090    0.9043    1.0689 H   0  0  0  0  0  0  0  0  0  0  0  0
    2.2396    1.6914    1.1633 H   0  0  0  0  0  0  0  0  0  0  0  0
    2.6130    2.1234   -2.6990 H   0  0  0  0  0  0  0  0  0  0  0  0
    1.2063    2.0081   -1.6542 H   0  0  0  0  0  0  0  0  0  0  0  0
    2.7940    1.0691    3.2837 H   0  0  0  0  0  0  0  0  0  0  0  0
    1.4271    0.4458    2.5248 H   0  0  0  0  0  0  0  0  0  0  0  0
    2.6453    3.9301   -1.1668 H   0  0  0  0  0  0  0  0  0  0  0  0
    2.4590    3.0458    0.2036 H   0  0  0  0  0  0  0  0  0  0  0  0
    2.5664   -1.4027    3.8012 H   0  0  0  0  0  0  0  0  0  0  0  0
    2.7007   -1.7665    2.0830 H   0  0  0  0  0  0  0  0  0  0  0  0
    0.4598    2.3417    4.7455 H   0  0  0  0  0  0  0  0  0  0  0  0
   -1.8047    0.1588    7.6600 H   0  0  0  0  0  0  0  0  0  0  0  0
    4.6169    5.0206   -0.5558 H   0  0  0  0  0  0  0  0  0  0  0  0
    4.7870    1.1261    2.9273 H   0  0  0  0  0  0  0  0  0  0  0  0
    4.8668    0.7171   -0.4497 H   0  0  0  0  0  0  0  0  0  0  0  0
    4.6079   -3.1845    2.6901 H   0  0  0  0  0  0  0  0  0  0  0  0
    7.1032    4.9733   -0.4722 H   0  0  0  0  0  0  0  0  0  0  0  0
    7.1709    1.0071    2.7302 H   0  0  0  0  0  0  0  0  0  0  0  0
    8.2858    2.7630   -0.4345 H   0  0  0  0  0  0  0  0  0  0  0  0
    8.2545   -1.2528    2.6984 H   0  0  0  0  0  0  0  0  0  0  0  0
    0.7504    1.7185   11.0162 H   0  0  0  0  0  0  0  0  0  0  0  0
   -0.3458    3.1034   10.5756 H   0  0  0  0  0  0  0  0  0  0  0  0
   -0.8627    1.8402   11.6844 H   0  0  0  0  0  0  0  0  0  0  0  0
    2.6583    3.0839    4.6268 H   0  0  0  0  0  0  0  0  0  0  0  0
    1.4163    4.3998    4.7402 H   0  0  0  0  0  0  0  0  0  0  0  0
    3.0927    4.6938    5.2202 H   0  0  0  0  0  0  0  0  0  0  0  0
    3.4435    3.0685    8.3928 H   0  0  0  0  0  0  0  0  0  0  0  0
    2.4122    4.5612    8.5952 H   0  0  0  0  0  0  0  0  0  0  0  0
    3.1439    3.7701    9.9806 H   0  0  0  0  0  0  0  0  0  0  0  0
  1 16  1  0  0  0  0
  1 17  1  0  0  0  0
  2 16  2  0  0  0  0
  3 18  2  0  0  0  0
  4 23  2  0  0  0  0
  5 35  1  0  0  0  0
  5 42  1  0  0  0  0
  6 36  1  0  0  0  0
  6 43  1  0  0  0  0
  7 37  1  0  0  0  0
  7 44  1  0  0  0  0
  8 11  1  0  0  0  0
  8 15  1  0  0  0  0
  8 18  1  0  0  0  0
  9 33  1  0  0  0  0
  9 40  2  0  0  0  0
 10 34  1  0  0  0  0
 10 41  2  0  0  0  0
 11 12  1  0  0  0  0
 11 16  1  0  0  0  0
 11 45  1  6  0  0  0
 12 13  1  0  0  0  0
 12 46  1  0  0  0  0
 12 47  1  0  0  0  0
 13 14  1  0  0  0  0
 13 48  1  0  0  0  0
 13 49  1  0  0  0  0
 14 15  1  0  0  0  0
 14 50  1  0  0  0  0
 14 51  1  0  0  0  0
 15 52  1  0  0  0  0
 15 53  1  0  0  0  0
 17 19  1  0  0  0  0
 17 20  1  0  0  0  0
 17 54  1  0  0  0  0
 18 23  1  0  0  0  0
 19 21  1  0  0  0  0
 19 55  1  0  0  0  0
 19 56  1  0  0  0  0
 20 22  1  0  0  0  0
 20 57  1  0  0  0  0
 20 58  1  0  0  0  0
 21 24  1  0  0  0  0
 21 59  1  0  0  0  0
 21 60  1  0  0  0  0
 22 25  1  0  0  0  0
 22 61  1  0  0  0  0
 22 62  1  0  0  0  0
 23 26  1  0  0  0  0
 24 27  1  0  0  0  0
 24 63  1  0  0  0  0
 24 64  1  0  0  0  0
 25 28  1  0  0  0  0
 25 65  1  0  0  0  0
 25 66  1  0  0  0  0
 26 29  2  0  0  0  0
 26 30  1  0  0  0  0
 27 31  1  0  0  0  0
 27 33  2  0  0  0  0
 28 32  1  0  0  0  0
 28 34  2  0  0  0  0
 29 36  1  0  0  0  0
 29 67  1  0  0  0  0
 30 35  2  0  0  0  0
 30 68  1  0  0  0  0
 31 38  2  0  0  0  0
 31 69  1  0  0  0  0
 32 39  2  0  0  0  0
 32 70  1  0  0  0  0
 33 71  1  0  0  0  0
 34 72  1  0  0  0  0
 35 37  1  0  0  0  0
 36 37  2  0  0  0  0
 38 40  1  0  0  0  0
 38 73  1  0  0  0  0
 39 41  1  0  0  0  0
 39 74  1  0  0  0  0
 40 75  1  0  0  0  0
 41 76  1  0  0  0  0
 42 77  1  0  0  0  0
 42 78  1  0  0  0  0
 42 79  1  0  0  0  0
 43 80  1  0  0  0  0
 43 81  1  0  0  0  0
 43 82  1  0  0  0  0
 44 83  1  0  0  0  0
 44 84  1  0  0  0  0
 44 85  1  0  0  0  0
M  END
>  <DRUGBANK_ID>
DB04851

>  <COMMON_NAME>
Biricodar

>  <CAS_NUMBER>
159997-94-1

>  <UNII>
3KG76X4KJK

>  <SYNONYMS>
Biricodar

$$$$
