
 OpenBabel10282417133D

 98 99  0  0  0  0  0  0  0  0999 V2000
    1.1630   -0.0811    0.3894 S   0  0  0  0  0  0  0  0  0  0  0  0
   -5.6555   10.4434   -7.8500 P   0  0  0  0  0  0  0  0  0  0  0  0
   -8.1891    4.9880    0.0361 P   0  0  0  0  0  0  0  0  0  0  0  0
   -3.6114    9.2591   -8.5039 F   0  0  0  0  0  0  0  0  0  0  0  0
   -5.4031    8.0944   -8.8341 F   0  0  0  0  0  0  0  0  0  0  0  0
   -8.8180    4.8111   -2.4418 F   0  0  0  0  0  0  0  0  0  0  0  0
   -7.1653    3.5689   -1.7555 F   0  0  0  0  0  0  0  0  0  0  0  0
   -3.9559    3.3120   -4.1540 O   0  0  0  0  0  0  0  0  0  0  0  0
   -2.7195    5.1281    1.2464 O   0  0  0  0  0  0  0  0  0  0  0  0
    4.8218    3.4073   -1.1483 O   0  0  0  0  0  0  0  0  0  0  0  0
   -0.9497    8.3201   -3.0927 O   0  0  0  0  0  0  0  0  0  0  0  0
   -5.1456    9.2824    1.2187 O   0  0  0  0  0  0  0  0  0  0  0  0
   -5.4001   10.9944   -6.3456 O   0  0  0  0  0  0  0  0  0  0  0  0
   -4.6640   11.3274   -8.7718 O   0  0  0  0  0  0  0  0  0  0  0  0
   -5.3630    7.0191    1.3167 O   0  0  0  0  0  0  0  0  0  0  0  0
   -7.1020   10.5613   -8.1967 O   0  0  0  0  0  0  0  0  0  0  0  0
    0.5991    5.6135   -0.6801 O   0  0  0  0  0  0  0  0  0  0  0  0
   -9.4001    6.0020   -0.4794 O   0  0  0  0  0  0  0  0  0  0  0  0
   -8.9755    3.5260   -0.1185 O   0  0  0  0  0  0  0  0  0  0  0  0
   -8.6333    5.1181    1.5136 O   0  0  0  0  0  0  0  0  0  0  0  0
   -3.5137    4.8826   -0.8131 N   0  0  0  0  0  0  0  0  0  0  0  0
   -1.8775    3.9146   -3.5516 N   0  0  0  0  0  0  0  0  0  0  0  0
   -1.6045    7.6043   -1.1564 N   0  0  0  0  0  0  0  0  0  0  0  0
    2.7379    2.8208   -0.5314 N   0  0  0  0  0  0  0  0  0  0  0  0
    0.7353    4.8929   -2.9812 N   0  0  0  0  0  0  0  0  0  0  0  0
   -3.5894    4.8835   -2.3422 C   0  0  1  0  0  0  0  0  0  0  0  0
   -2.9569    6.1946   -3.1366 C   0  0  0  0  0  0  0  0  0  0  0  0
   -0.7312    3.0958   -1.7866 C   0  0  0  0  0  0  0  0  0  0  0  0
    0.7423    2.5773   -2.8652 C   0  0  0  0  0  0  0  0  0  0  0  0
   -1.3088    4.2964   -2.3540 C   0  0  0  0  0  0  0  0  0  0  0  0
   -3.2339    3.8502   -3.4155 C   0  0  0  0  0  0  0  0  0  0  0  0
    2.2927    3.5031   -3.3890 C   0  0  0  0  0  0  0  0  0  0  0  0
   -3.0846    6.8156   -4.6676 C   0  0  0  0  0  0  0  0  0  0  0  0
   -2.4720    7.1613   -0.0461 C   0  0  3  0  0  0  0  0  0  0  0  0
   -2.8775    5.6545    0.1388 C   0  0  0  0  0  0  0  0  0  0  0  0
    3.0835    4.4503   -2.3355 C   0  0  0  0  0  0  0  0  0  0  0  0
   -3.7121    7.9783   -0.0699 C   0  0  0  0  0  0  0  0  0  0  0  0
   -3.9271    6.1616   -5.5767 C   0  0  0  0  0  0  0  0  0  0  0  0
   -2.7820    8.1672   -4.9953 C   0  0  0  0  0  0  0  0  0  0  0  0
   -4.4440    8.2152   -6.6498 C   0  0  0  0  0  0  0  0  0  0  0  0
   -4.6510    6.8646   -6.5078 C   0  0  0  0  0  0  0  0  0  0  0  0
   -3.5838    8.9009   -5.8282 C   0  0  0  0  0  0  0  0  0  0  0  0
    3.6147    3.5506   -1.2816 C   0  0  0  0  0  0  0  0  0  0  0  0
   -4.7940    8.8708   -7.9100 C   0  0  0  0  0  0  0  0  0  0  0  0
   -1.9109    8.3403   -2.2980 C   0  0  0  0  0  0  0  0  0  0  0  0
   -3.5953    8.9444   -2.6536 C   0  0  0  0  0  0  0  0  0  0  0  0
    1.2988    2.9220   -0.5543 C   0  0  3  0  0  0  0  0  0  0  0  0
   -4.7501    8.0115    0.9651 C   0  0  0  0  0  0  0  0  0  0  0  0
   -5.0549    8.0124   -2.7845 C   0  0  0  0  0  0  0  0  0  0  0  0
   -6.9550    6.0780   -1.9531 C   0  0  0  0  0  0  0  0  0  0  0  0
   -5.3209    6.7020   -3.2716 C   0  0  0  0  0  0  0  0  0  0  0  0
   -6.1811    8.4462   -2.1716 C   0  0  0  0  0  0  0  0  0  0  0  0
    0.5675    1.2239   -0.7051 C   0  0  0  0  0  0  0  0  0  0  0  0
   -6.1432    5.7093   -2.8846 C   0  0  0  0  0  0  0  0  0  0  0  0
   -7.0928    7.4651   -1.6883 C   0  0  0  0  0  0  0  0  0  0  0  0
   -7.6642    4.8342   -1.7103 C   0  0  0  0  0  0  0  0  0  0  0  0
    0.8697    4.6204   -1.3697 C   0  0  0  0  0  0  0  0  0  0  0  0
    2.4098   -0.0601   -0.0919 H   0  0  0  0  0  0  0  0  0  0  0  0
   -4.6598    9.9841    0.7354 H   0  0  0  0  0  0  0  0  0  0  0  0
   -5.8499   10.4180   -5.6884 H   0  0  0  0  0  0  0  0  0  0  0  0
   -4.0472   10.7181   -9.2517 H   0  0  0  0  0  0  0  0  0  0  0  0
   -9.3029    6.8686   -0.0444 H   0  0  0  0  0  0  0  0  0  0  0  0
   -8.6213    2.9508   -0.8284 H   0  0  0  0  0  0  0  0  0  0  0  0
   -3.8253    4.0015   -0.3994 H   0  0  0  0  0  0  0  0  0  0  0  0
   -1.4418    3.4631   -4.3353 H   0  0  0  0  0  0  0  0  0  0  0  0
   -0.6938    7.1179   -1.2316 H   0  0  0  0  0  0  0  0  0  0  0  0
    3.1524    2.0913    0.0317 H   0  0  0  0  0  0  0  0  0  0  0  0
    0.4457    4.1787   -3.6913 H   0  0  0  0  0  0  0  0  0  0  0  0
    0.3512    5.6715   -3.5335 H   0  0  0  0  0  0  0  0  0  0  0  0
   -4.5614    4.4790   -2.2854 H   0  0  0  0  0  0  0  0  0  0  0  0
   -3.3146    6.8445   -2.3705 H   0  0  0  0  0  0  0  0  0  0  0  0
   -1.9158    6.3190   -3.0693 H   0  0  0  0  0  0  0  0  0  0  0  0
   -1.5703    2.4147   -1.5589 H   0  0  0  0  0  0  0  0  0  0  0  0
   -0.6439    3.4339   -0.7054 H   0  0  0  0  0  0  0  0  0  0  0  0
    0.2186    2.1063   -3.6935 H   0  0  0  0  0  0  0  0  0  0  0  0
    1.4013    1.8292   -2.4803 H   0  0  0  0  0  0  0  0  0  0  0  0
   -1.7205    4.8149   -1.5075 H   0  0  0  0  0  0  0  0  0  0  0  0
   -0.9040    5.2766   -2.4843 H   0  0  0  0  0  0  0  0  0  0  0  0
    2.1351    4.2113   -4.2341 H   0  0  0  0  0  0  0  0  0  0  0  0
    2.9338    2.8029   -3.9150 H   0  0  0  0  0  0  0  0  0  0  0  0
   -1.8811    7.4377    0.8274 H   0  0  0  0  0  0  0  0  0  0  0  0
    2.6245    5.3312   -1.8334 H   0  0  0  0  0  0  0  0  0  0  0  0
    3.8091    5.0831   -2.8521 H   0  0  0  0  0  0  0  0  0  0  0  0
   -3.4320    9.0013   -0.2928 H   0  0  0  0  0  0  0  0  0  0  0  0
   -4.3190    7.5373   -0.8339 H   0  0  0  0  0  0  0  0  0  0  0  0
   -4.3306    5.1710   -5.3972 H   0  0  0  0  0  0  0  0  0  0  0  0
   -2.1185    8.8862   -4.5252 H   0  0  0  0  0  0  0  0  0  0  0  0
   -5.3718    6.3298   -7.1109 H   0  0  0  0  0  0  0  0  0  0  0  0
   -3.4614    9.9917   -5.8344 H   0  0  0  0  0  0  0  0  0  0  0  0
   -3.6858    9.7106   -1.8907 H   0  0  0  0  0  0  0  0  0  0  0  0
   -3.6663    9.6435   -3.4837 H   0  0  0  0  0  0  0  0  0  0  0  0
    0.9682    3.0758    0.4928 H   0  0  0  0  0  0  0  0  0  0  0  0
   -4.7728    6.0142   -3.8299 H   0  0  0  0  0  0  0  0  0  0  0  0
   -6.3058    9.5034   -2.0154 H   0  0  0  0  0  0  0  0  0  0  0  0
    0.7422    0.6565   -1.6422 H   0  0  0  0  0  0  0  0  0  0  0  0
   -0.5301    1.1751   -0.6910 H   0  0  0  0  0  0  0  0  0  0  0  0
   -6.0336    4.6304   -3.1311 H   0  0  0  0  0  0  0  0  0  0  0  0
   -7.9069    7.8407   -1.0942 H   0  0  0  0  0  0  0  0  0  0  0  0
  1 53  1  0  0  0  0
  1 58  1  0  0  0  0
  2 13  1  0  0  0  0
  2 14  1  0  0  0  0
  2 16  2  0  0  0  0
  2 44  1  0  0  0  0
  3 18  1  0  0  0  0
  3 19  1  0  0  0  0
  3 20  2  0  0  0  0
  3 56  1  0  0  0  0
  4 44  1  0  0  0  0
  5 44  1  0  0  0  0
  6 56  1  0  0  0  0
  7 56  1  0  0  0  0
  8 31  2  0  0  0  0
  9 35  2  0  0  0  0
 10 43  2  0  0  0  0
 11 45  2  0  0  0  0
 12 48  1  0  0  0  0
 12 59  1  0  0  0  0
 13 60  1  0  0  0  0
 14 61  1  0  0  0  0
 15 48  2  0  0  0  0
 17 57  2  0  0  0  0
 18 62  1  0  0  0  0
 19 63  1  0  0  0  0
 21 35  1  0  0  0  0
 21 64  1  0  0  0  0
 22 30  1  0  0  0  0
 22 31  1  0  0  0  0
 22 65  1  0  0  0  0
 23 34  1  0  0  0  0
 23 45  1  0  0  0  0
 23 66  1  0  0  0  0
 24 43  1  0  0  0  0
 24 47  1  0  0  0  0
 24 67  1  0  0  0  0
 25 57  1  0  0  0  0
 25 68  1  0  0  0  0
 25 69  1  0  0  0  0
 26 21  1  0  0  0  0
 26 27  1  0  0  0  0
 26 31  1  0  0  0  0
 26 70  1  6  0  0  0
 27 33  1  0  0  0  0
 27 71  1  0  0  0  0
 27 72  1  0  0  0  0
 28 29  1  0  0  0  0
 28 30  1  0  0  0  0
 28 73  1  0  0  0  0
 28 74  1  0  0  0  0
 29 32  1  0  0  0  0
 29 75  1  0  0  0  0
 29 76  1  0  0  0  0
 30 77  1  0  0  0  0
 30 78  1  0  0  0  0
 32 36  1  0  0  0  0
 32 79  1  0  0  0  0
 32 80  1  0  0  0  0
 33 38  2  0  0  0  0
 33 39  1  0  0  0  0
 34 35  1  0  0  0  0
 34 37  1  0  0  0  0
 34 81  1  0  0  0  0
 36 43  1  0  0  0  0
 36 82  1  0  0  0  0
 36 83  1  0  0  0  0
 37 48  1  0  0  0  0
 37 84  1  0  0  0  0
 37 85  1  0  0  0  0
 38 41  1  0  0  0  0
 38 86  1  0  0  0  0
 39 42  2  0  0  0  0
 39 87  1  0  0  0  0
 40 41  2  0  0  0  0
 40 42  1  0  0  0  0
 40 44  1  0  0  0  0
 41 88  1  0  0  0  0
 42 89  1  0  0  0  0
 45 46  1  0  0  0  0
 46 49  1  0  0  0  0
 46 90  1  0  0  0  0
 46 91  1  0  0  0  0
 47 53  1  0  0  0  0
 47 57  1  0  0  0  0
 47 92  1  0  0  0  0
 49 51  2  0  0  0  0
 49 52  1  0  0  0  0
 50 54  2  0  0  0  0
 50 55  1  0  0  0  0
 50 56  1  0  0  0  0
 51 54  1  0  0  0  0
 51 93  1  0  0  0  0
 52 55  2  0  0  0  0
 52 94  1  0  0  0  0
 53 95  1  0  0  0  0
 53 96  1  0  0  0  0
 54 97  1  0  0  0  0
 55 98  1  0  0  0  0
M  END
>  <DRUGBANK_ID>
DB03557

>  <SECONDARY_ACCESSION_NUMBERS>
EXPT02927

>  <COMMON_NAME>
4-[[(2S)-1-[[6-[(1-Amino-1-oxo-3-sulfanylpropan-2-yl)amino]-6-oxohexyl]amino]-3-[4-[difluoro(phosphono)methyl]phenyl]-1-oxopropan-2-yl]amino]-3-[[2-[4-[difluoro(phosphono)methyl]phenyl]acetyl]amino]-4-oxobutanoic acid

$$$$
