
 OpenBabel10282417173D

 28 30  0  0  0  0  0  0  0  0999 V2000
    3.6768    0.7386    0.0007 C   0  0  0  0  0  0  0  0  0  0  0  0
    1.2543    0.6742   -0.0002 C   0  0  0  0  0  0  0  0  0  0  0  0
    1.2725   -0.7304   -0.0012 C   0  0  0  0  0  0  0  0  0  0  0  0
   -0.0141   -1.4866   -0.0001 C   0  0  0  0  0  0  0  0  0  0  0  0
   -0.0791   -2.7140    0.0016 O   0  0  0  0  0  0  0  0  0  0  0  0
   -1.2917   -0.7511   -0.0002 C   0  0  0  0  0  0  0  0  0  0  0  0
   -1.2836    0.6398   -0.0000 C   0  0  0  0  0  0  0  0  0  0  0  0
   -0.0324    1.3941    0.0004 C   0  0  0  0  0  0  0  0  0  0  0  0
   -0.1100    2.6204    0.0012 O   0  0  0  0  0  0  0  0  0  0  0  0
   -3.6963    0.7100   -0.0000 C   0  0  0  0  0  0  0  0  0  0  0  0
    3.7054   -0.6574    0.0000 C   0  0  0  0  0  0  0  0  0  0  0  0
   -2.5257   -1.4157   -0.0002 C   0  0  0  0  0  0  0  0  0  0  0  0
   -2.6483   -2.7839   -0.0002 O   0  0  0  0  0  0  0  0  0  0  0  0
   -2.4784    1.3705    0.0000 C   0  0  0  0  0  0  0  0  0  0  0  0
    2.4564    1.4010    0.0000 C   0  0  0  0  0  0  0  0  0  0  0  0
    2.4356    2.7659   -0.0003 O   0  0  0  0  0  0  0  0  0  0  0  0
   -3.7119   -0.6764   -0.0001 C   0  0  0  0  0  0  0  0  0  0  0  0
   -4.9275   -1.2969   -0.0000 O   0  0  0  0  0  0  0  0  0  0  0  0
    2.5127   -1.3881   -0.0025 C   0  0  0  0  0  0  0  0  0  0  0  0
    2.5733   -2.7525   -0.0073 O   0  0  0  0  0  0  0  0  0  0  0  0
    4.6078    1.2980    0.0014 H   0  0  0  0  0  0  0  0  0  0  0  0
   -4.6199    1.2786    0.0001 H   0  0  0  0  0  0  0  0  0  0  0  0
    4.6686   -1.1599    0.0017 H   0  0  0  0  0  0  0  0  0  0  0  0
   -1.7358   -3.1624    0.0004 H   0  0  0  0  0  0  0  0  0  0  0  0
   -2.4544    2.4593    0.0003 H   0  0  0  0  0  0  0  0  0  0  0  0
    3.3198    3.1587    0.0001 H   0  0  0  0  0  0  0  0  0  0  0  0
   -4.7309   -2.2538    0.0000 H   0  0  0  0  0  0  0  0  0  0  0  0
    3.4890   -3.0720   -0.0133 H   0  0  0  0  0  0  0  0  0  0  0  0
  1 15  2  0  0  0  0
  1 11  1  0  0  0  0
  1 21  1  0  0  0  0
  2  3  2  0  0  0  0
  2  8  1  0  0  0  0
  3 19  1  0  0  0  0
  3  4  1  0  0  0  0
  4  5  2  0  0  0  0
  4  6  1  0  0  0  0
  6  7  2  0  0  0  0
  6 12  1  0  0  0  0
  7 14  1  0  0  0  0
  7  8  1  0  0  0  0
  8  9  2  0  0  0  0
 10 17  1  0  0  0  0
 10 22  1  0  0  0  0
 11 23  1  0  0  0  0
 12 13  1  0  0  0  0
 13 24  1  0  0  0  0
 14 10  2  0  0  0  0
 14 25  1  0  0  0  0
 15  2  1  0  0  0  0
 15 16  1  0  0  0  0
 16 26  1  0  0  0  0
 17 12  2  0  0  0  0
 17 18  1  0  0  0  0
 18 27  1  0  0  0  0
 19 11  2  0  0  0  0
 19 20  1  0  0  0  0
 20 28  1  0  0  0  0
M  END
>  <DRUGBANK_ID>
DB08660

>  <COMMON_NAME>
Quinalizarin

>  <CAS_NUMBER>
81-61-8

>  <UNII>
6D43C3LYSG

>  <SYNONYMS>
1,2,5,8-tetrahydroxyanthracene-9,10-dione; 1,4,5,6-tetrahydroxyanthraquinone; Alizarinbordeaux; Alizarine Bordeaux B

$$$$
