
 OpenBabel10282417123D

 21 20  0  0  0  0  0  0  0  0999 V2000
    1.0551   -0.0588    0.2707 C   0  0  0  0  0  0  0  0  0  0  0  0
    0.5595   -1.0686   -0.7508 N   0  3  0  0  0  0  0  0  0  0  0  0
    1.0912   -2.4394   -0.3003 C   0  0  0  0  0  0  0  0  0  0  0  0
   -0.9615   -1.1201   -0.7412 C   0  0  0  0  0  0  0  0  0  0  0  0
    1.1014   -0.7711   -2.1745 C   0  0  0  0  0  0  0  0  0  0  0  0
    0.6451    0.5546   -2.8243 C   0  0  0  0  0  0  0  0  0  0  0  0
    1.4413    2.0751   -2.2062 S   0  0  0  0  0  0  0  0  0  0  0  0
    0.8351   -0.4347    1.2740 H   0  0  0  0  0  0  0  0  0  0  0  0
    0.4961    0.8687    0.1357 H   0  0  0  0  0  0  0  0  0  0  0  0
    2.1280    0.0770    0.1368 H   0  0  0  0  0  0  0  0  0  0  0  0
    0.7303   -2.6283    0.7170 H   0  0  0  0  0  0  0  0  0  0  0  0
    0.7112   -3.2071   -0.9819 H   0  0  0  0  0  0  0  0  0  0  0  0
    2.1830   -2.4100   -0.3138 H   0  0  0  0  0  0  0  0  0  0  0  0
   -1.3503   -0.1507   -1.0627 H   0  0  0  0  0  0  0  0  0  0  0  0
   -1.2877   -1.9106   -1.4215 H   0  0  0  0  0  0  0  0  0  0  0  0
   -1.2942   -1.3251    0.2807 H   0  0  0  0  0  0  0  0  0  0  0  0
    2.1939   -0.8356   -2.1304 H   0  0  0  0  0  0  0  0  0  0  0  0
    0.7445   -1.6004   -2.8009 H   0  0  0  0  0  0  0  0  0  0  0  0
    0.9284    0.5088   -3.8817 H   0  0  0  0  0  0  0  0  0  0  0  0
   -0.4410    0.6713   -2.8062 H   0  0  0  0  0  0  0  0  0  0  0  0
    0.6382    2.3292   -1.1614 H   0  0  0  0  0  0  0  0  0  0  0  0
  1  2  1  0  0  0  0
  1  8  1  0  0  0  0
  1  9  1  0  0  0  0
  1 10  1  0  0  0  0
  2  3  1  0  0  0  0
  2  4  1  0  0  0  0
  2  5  1  0  0  0  0
  3 11  1  0  0  0  0
  3 12  1  0  0  0  0
  3 13  1  0  0  0  0
  4 14  1  0  0  0  0
  4 15  1  0  0  0  0
  4 16  1  0  0  0  0
  5  6  1  0  0  0  0
  5 17  1  0  0  0  0
  5 18  1  0  0  0  0
  6  7  1  0  0  0  0
  6 19  1  0  0  0  0
  6 20  1  0  0  0  0
  7 21  1  0  0  0  0
M  CHG  1   2   1
M  END
>  <DRUGBANK_ID>
DB01803

>  <SECONDARY_ACCESSION_NUMBERS>
EXPT01369

>  <COMMON_NAME>
2-(Trimethylammonium)Ethyl Thiol

$$$$
