
 OpenBabel10282417133D

 26 25  0  0  0  0  0  0  0  0999 V2000
    1.0240   -0.0910   -0.0337 P   0  0  0  0  0  0  0  0  0  0  0  0
    1.0680    1.4731   -0.4441 O   0  0  0  0  0  0  0  0  0  0  0  0
    1.0305   -1.0325   -1.3660 O   0  0  0  0  0  0  0  0  0  0  0  0
    4.1357    1.9361   -0.0829 O   0  0  0  0  0  0  0  0  0  0  0  0
    3.1756   -1.1685   -4.3104 O   0  0  0  0  0  0  0  0  0  0  0  0
   -0.5243   -0.0910   -0.0337 O   0  0  0  0  0  0  0  0  0  0  0  0
    3.5113    0.8979   -5.1451 O   0  0  0  0  0  0  0  0  0  0  0  0
    0.7239    2.6180   -5.4173 O   0  0  0  0  0  0  0  0  0  0  0  0
    1.9300    3.5322   -3.7447 O   0  0  0  0  0  0  0  0  0  0  0  0
    3.1994    1.4223   -2.0690 N   0  0  0  0  0  0  0  0  0  0  0  0
    2.3415    0.7135   -3.0269 C   0  0  1  0  0  0  0  0  0  0  0  0
    0.9954    1.3615   -3.3928 C   0  0  0  0  0  0  0  0  0  0  0  0
    2.8540   -0.0910   -0.0337 C   0  0  0  0  0  0  0  0  0  0  0  0
    3.4439    1.1507   -0.7370 C   0  0  0  0  0  0  0  0  0  0  0  0
    3.0583    0.1845   -4.2560 C   0  0  0  0  0  0  0  0  0  0  0  0
    1.2628    2.6048   -4.1821 C   0  0  0  0  0  0  0  0  0  0  0  0
    3.4809    2.3578   -2.3609 H   0  0  0  0  0  0  0  0  0  0  0  0
    0.8207    2.0499    0.3111 H   0  0  0  0  0  0  0  0  0  0  0  0
    1.6643   -1.7720   -1.3607 H   0  0  0  0  0  0  0  0  0  0  0  0
    2.7997   -1.6993   -3.5823 H   0  0  0  0  0  0  0  0  0  0  0  0
    0.2523    1.8109   -5.6944 H   0  0  0  0  0  0  0  0  0  0  0  0
    2.1455   -0.1993   -2.5443 H   0  0  0  0  0  0  0  0  0  0  0  0
    0.3607    0.6632   -3.9548 H   0  0  0  0  0  0  0  0  0  0  0  0
    0.3806    1.6642   -2.5391 H   0  0  0  0  0  0  0  0  0  0  0  0
    3.1876   -0.0847    1.0098 H   0  0  0  0  0  0  0  0  0  0  0  0
    3.2995   -0.9766   -0.4982 H   0  0  0  0  0  0  0  0  0  0  0  0
  1  2  1  0  0  0  0
  1  3  1  0  0  0  0
  1  6  2  0  0  0  0
  1 13  1  0  0  0  0
  2 18  1  0  0  0  0
  3 19  1  0  0  0  0
  4 14  2  0  0  0  0
  5 15  1  0  0  0  0
  5 20  1  0  0  0  0
  7 15  2  0  0  0  0
  8 16  1  0  0  0  0
  8 21  1  0  0  0  0
  9 16  2  0  0  0  0
 10 14  1  0  0  0  0
 10 17  1  0  0  0  0
 11 10  1  0  0  0  0
 11 12  1  0  0  0  0
 11 15  1  0  0  0  0
 11 22  1  1  0  0  0
 12 16  1  0  0  0  0
 12 23  1  0  0  0  0
 12 24  1  0  0  0  0
 13 14  1  0  0  0  0
 13 25  1  0  0  0  0
 13 26  1  0  0  0  0
M  END
>  <DRUGBANK_ID>
DB03459

>  <SECONDARY_ACCESSION_NUMBERS>
EXPT02494

>  <COMMON_NAME>
Sparfosic acid

>  <CAS_NUMBER>
51321-79-0

>  <UNII>
78QVZ7RG8L

>  <SYNONYMS>
ácido esparfósico; Acidum sparfosicum; N-(phosphonacetyl)-L-aspartic acid; N-(phosphonoacetyl)-L-aspartic acid; N-phosphonacetyl-L-aspartic acid; PALA; phosphonoacetyl-L-aspartic acid; Sparfosic acid

$$$$
