
 OpenBabel10282417163D

 33 33  0  0  0  0  0  0  0  0999 V2000
    0.8898   -0.1363    0.1655 C   0  0  0  0  0  0  0  0  0  0  0  0
    0.3893    0.9432    1.0878 C   0  0  0  0  0  0  0  0  0  0  0  0
    0.8658    2.3191    0.6356 C   0  0  0  0  0  0  0  0  0  0  0  0
    0.3888    2.8500   -0.6959 C   0  0  0  0  0  0  0  0  0  0  0  0
    0.4486    4.1388   -1.1909 C   0  0  0  0  0  0  0  0  0  0  0  0
   -0.0242    4.0976   -2.5491 C   0  0  0  0  0  0  0  0  0  0  0  0
   -0.3201    2.7617   -2.7956 C   0  0  0  0  0  0  0  0  0  0  0  0
   -0.1427    2.0303   -1.6481 O   0  0  0  0  0  0  0  0  0  0  0  0
   -0.7953    2.0185   -4.0118 C   0  0  0  0  0  0  0  0  0  0  0  0
    0.2153    1.0515   -4.6132 C   0  0  0  0  0  0  0  0  0  0  0  0
    0.3976   -0.1951   -3.8147 C   0  0  0  0  0  0  0  0  0  0  0  0
   -0.1210   -1.2785   -4.0231 O   0  0  0  0  0  0  0  0  0  0  0  0
    1.2440   -0.0341   -2.7935 O   0  0  0  0  0  0  0  0  0  0  0  0
   -0.1565    5.2083   -3.4744 C   0  0  0  0  0  0  0  0  0  0  0  0
    0.1013    6.3820   -3.2205 O   0  0  0  0  0  0  0  0  0  0  0  0
   -0.6160    4.8980   -4.7039 O   0  0  0  0  0  0  0  0  0  0  0  0
    0.9370    5.2967   -0.4073 C   0  0  0  0  0  0  0  0  0  0  0  0
    0.3837    0.0430   -0.7686 H   0  0  0  0  0  0  0  0  0  0  0  0
    0.5966   -1.1440    0.4614 H   0  0  0  0  0  0  0  0  0  0  0  0
    1.9755   -0.0943    0.0196 H   0  0  0  0  0  0  0  0  0  0  0  0
   -0.7043    0.9144    1.1157 H   0  0  0  0  0  0  0  0  0  0  0  0
    0.7535    0.7338    2.1015 H   0  0  0  0  0  0  0  0  0  0  0  0
    0.5590    3.0346    1.4091 H   0  0  0  0  0  0  0  0  0  0  0  0
    1.9653    2.3336    0.6339 H   0  0  0  0  0  0  0  0  0  0  0  0
   -1.7539    1.5305   -3.8067 H   0  0  0  0  0  0  0  0  0  0  0  0
   -1.0069    2.7306   -4.8124 H   0  0  0  0  0  0  0  0  0  0  0  0
   -0.1393    0.7278   -5.6002 H   0  0  0  0  0  0  0  0  0  0  0  0
    1.1926    1.5193   -4.7739 H   0  0  0  0  0  0  0  0  0  0  0  0
    1.0882   -0.8398   -2.2605 H   0  0  0  0  0  0  0  0  0  0  0  0
   -0.6606    5.7567   -5.1696 H   0  0  0  0  0  0  0  0  0  0  0  0
    0.3165    5.4150    0.4872 H   0  0  0  0  0  0  0  0  0  0  0  0
    1.9707    5.1248   -0.0889 H   0  0  0  0  0  0  0  0  0  0  0  0
    0.9031    6.2282   -0.9686 H   0  0  0  0  0  0  0  0  0  0  0  0
  1  2  1  0  0  0  0
  1 18  1  0  0  0  0
  1 19  1  0  0  0  0
  1 20  1  0  0  0  0
  2  3  1  0  0  0  0
  2 21  1  0  0  0  0
  2 22  1  0  0  0  0
  3  4  1  0  0  0  0
  3 23  1  0  0  0  0
  3 24  1  0  0  0  0
  4  5  2  0  0  0  0
  4  8  1  0  0  0  0
  5  6  1  0  0  0  0
  5 17  1  0  0  0  0
  6  7  2  0  0  0  0
  6 14  1  0  0  0  0
  7  8  1  0  0  0  0
  7  9  1  0  0  0  0
  9 10  1  0  0  0  0
  9 25  1  0  0  0  0
  9 26  1  0  0  0  0
 10 11  1  0  0  0  0
 10 27  1  0  0  0  0
 10 28  1  0  0  0  0
 11 12  2  0  0  0  0
 11 13  1  0  0  0  0
 13 29  1  0  0  0  0
 14 15  2  0  0  0  0
 14 16  1  0  0  0  0
 16 30  1  0  0  0  0
 17 31  1  0  0  0  0
 17 32  1  0  0  0  0
 17 33  1  0  0  0  0
M  END
>  <DRUGBANK_ID>
DB07517

>  <COMMON_NAME>
3-CARBOXY-4-METHYL-5-PROPYL-2-FURANPROPIONIC

>  <UNII>
JTU41879GF

$$$$
