545
 OpenBabel10282417103D

 26 26  0  0  0  0  0  0  0  0999 V2000
    1.0538   -0.0105    0.1335 O   0  0  0  0  0  0  0  0  0  0  0  0
    3.0473   -0.9219   -0.5005 O   0  0  0  0  0  0  0  0  0  0  0  0
    0.0191    3.3551    0.9208 N   0  3  0  0  0  0  0  0  0  0  0  0
    3.2140    0.9573    0.8128 N   0  0  0  0  0  0  0  0  0  0  0  0
    0.1679    1.0315    0.5113 C   0  0  0  0  0  0  0  0  0  0  0  0
    0.4578    2.3424    0.1307 C   0  0  0  0  0  0  0  0  0  0  0  0
   -0.9511    3.1363    1.8430 C   0  0  0  0  0  0  0  0  0  0  0  0
   -0.7968    0.7598    1.4734 C   0  0  0  0  0  0  0  0  0  0  0  0
   -1.4017    1.8407    2.1075 C   0  0  0  0  0  0  0  0  0  0  0  0
    0.7682    4.6339    0.9576 C   0  0  0  0  0  0  0  0  0  0  0  0
    2.4884   -0.0346    0.1267 C   0  0  0  0  0  0  0  0  0  0  0  0
    2.7427    1.9587    1.7334 C   0  0  0  0  0  0  0  0  0  0  0  0
    4.6639    0.9231    0.6996 C   0  0  0  0  0  0  0  0  0  0  0  0
    1.2453    2.5554   -0.5868 H   0  0  0  0  0  0  0  0  0  0  0  0
   -1.3117    3.9957    2.4012 H   0  0  0  0  0  0  0  0  0  0  0  0
   -1.0177   -0.2608    1.7856 H   0  0  0  0  0  0  0  0  0  0  0  0
   -2.1588    1.6735    2.8725 H   0  0  0  0  0  0  0  0  0  0  0  0
    0.1053    5.4390    0.6521 H   0  0  0  0  0  0  0  0  0  0  0  0
    1.1271    4.7819    1.9858 H   0  0  0  0  0  0  0  0  0  0  0  0
    1.6424    4.5781    0.3018 H   0  0  0  0  0  0  0  0  0  0  0  0
    3.3271    1.9904    2.6496 H   0  0  0  0  0  0  0  0  0  0  0  0
    2.8475    2.9193    1.2169 H   0  0  0  0  0  0  0  0  0  0  0  0
    1.7322    1.7745    2.0624 H   0  0  0  0  0  0  0  0  0  0  0  0
    5.0344    0.0163    1.1820 H   0  0  0  0  0  0  0  0  0  0  0  0
    4.9647    0.9521   -0.3499 H   0  0  0  0  0  0  0  0  0  0  0  0
    5.0909    1.7965    1.2081 H   0  0  0  0  0  0  0  0  0  0  0  0
  1  5  1  0  0  0  0
  1 11  1  0  0  0  0
  2 11  2  0  0  0  0
  3  6  1  0  0  0  0
  3  7  2  0  0  0  0
  3 10  1  0  0  0  0
  4 11  1  0  0  0  0
  4 12  1  0  0  0  0
  4 13  1  0  0  0  0
  5  6  2  0  0  0  0
  5  8  1  0  0  0  0
  6 14  1  0  0  0  0
  7  9  1  0  0  0  0
  7 15  1  0  0  0  0
  8  9  2  0  0  0  0
  8 16  1  0  0  0  0
  9 17  1  0  0  0  0
 10 18  1  0  0  0  0
 10 19  1  0  0  0  0
 10 20  1  0  0  0  0
 12 21  1  0  0  0  0
 12 22  1  0  0  0  0
 12 23  1  0  0  0  0
 13 24  1  0  0  0  0
 13 25  1  0  0  0  0
 13 26  1  0  0  0  0
M  CHG  1   3   1
M  END
>  <DRUGBANK_ID>
DB00545

>  <SECONDARY_ACCESSION_NUMBERS>
APRD00380

>  <COMMON_NAME>
Pyridostigmine

>  <CAS_NUMBER>
155-97-5

>  <UNII>
19QM69HH21

>  <SYNONYMS>
Piridostigmina; Pyridostigmine cation

$$$$
