
 OpenBabel10282417133D

 45 47  0  0  0  0  0  0  0  0999 V2000
    1.3638   -0.1854    0.1636 C   0  0  0  0  0  0  0  0  0  0  0  0
    0.6113   -0.5876    1.4067 C   0  0  0  0  0  0  0  0  0  0  0  0
    1.0604    0.3397    2.5430 C   0  0  0  0  0  0  0  0  0  0  0  0
   -0.8742   -0.6549    1.2805 N   0  0  0  0  0  0  0  0  0  0  0  0
   -1.6091   -1.8586    1.5555 C   0  0  0  0  0  0  0  0  0  0  0  0
   -2.8407   -1.9353    1.5131 O   0  0  0  0  0  0  0  0  0  0  0  0
   -0.9069   -3.1746    1.7662 C   0  0  0  0  0  0  0  0  0  0  0  0
    0.0775   -3.4187    2.7351 C   0  0  0  0  0  0  0  0  0  0  0  0
    0.3891   -2.3917    4.0831 Cl  0  0  0  0  0  0  0  0  0  0  0  0
    0.8148   -4.6060    2.7336 C   0  0  0  0  0  0  0  0  0  0  0  0
    0.4307   -5.6558    1.9161 C   0  0  0  0  0  0  0  0  0  0  0  0
    1.2545   -7.1586    2.0455 Cl  0  0  0  0  0  0  0  0  0  0  0  0
   -0.6551   -5.5077    1.0595 C   0  0  0  0  0  0  0  0  0  0  0  0
   -1.3035   -4.2642    0.9609 C   0  0  0  0  0  0  0  0  0  0  0  0
   -1.6361    0.5544    1.0714 C   0  0  0  0  0  0  0  0  0  0  0  0
   -1.4385    1.5401    0.0899 C   0  0  0  0  0  0  0  0  0  0  0  0
   -2.4381    2.9152    0.3651 S   0  0  0  0  0  0  0  0  0  0  0  0
   -3.3046    2.1494    1.6223 C   0  0  0  0  0  0  0  0  0  0  0  0
   -2.7509    0.9219    1.9181 C   0  0  0  0  0  0  0  0  0  0  0  0
   -4.4350    2.8359    2.2603 C   0  0  0  0  0  0  0  0  0  0  0  0
   -4.4201    3.1071    3.6358 C   0  0  0  0  0  0  0  0  0  0  0  0
   -5.4653    3.8199    4.2334 C   0  0  0  0  0  0  0  0  0  0  0  0
   -6.5324    4.2746    3.4612 C   0  0  0  0  0  0  0  0  0  0  0  0
   -6.5653    4.0012    2.0957 C   0  0  0  0  0  0  0  0  0  0  0  0
   -5.5435    3.2505    1.5070 C   0  0  0  0  0  0  0  0  0  0  0  0
   -0.6600    1.5039   -1.1531 C   0  0  0  0  0  0  0  0  0  0  0  0
   -0.1768    2.7194   -1.5588 O   0  0  0  0  0  0  0  0  0  0  0  0
   -0.4007    0.5159   -1.8025 O   0  0  0  0  0  0  0  0  0  0  0  0
    1.2572    0.8866    0.0094 H   0  0  0  0  0  0  0  0  0  0  0  0
    1.0187   -0.7878   -0.6769 H   0  0  0  0  0  0  0  0  0  0  0  0
    2.4392   -0.3483    0.2607 H   0  0  0  0  0  0  0  0  0  0  0  0
    0.9961   -1.5863    1.5812 H   0  0  0  0  0  0  0  0  0  0  0  0
    0.7666    1.3747    2.3497 H   0  0  0  0  0  0  0  0  0  0  0  0
    0.6325    0.0870    3.5131 H   0  0  0  0  0  0  0  0  0  0  0  0
    2.1517    0.3067    2.6330 H   0  0  0  0  0  0  0  0  0  0  0  0
    1.6552   -4.7209    3.4139 H   0  0  0  0  0  0  0  0  0  0  0  0
   -0.9976   -6.3545    0.4684 H   0  0  0  0  0  0  0  0  0  0  0  0
   -2.1399   -4.1646    0.2676 H   0  0  0  0  0  0  0  0  0  0  0  0
   -3.1297    0.3059    2.7265 H   0  0  0  0  0  0  0  0  0  0  0  0
   -3.5881    2.7766    4.2529 H   0  0  0  0  0  0  0  0  0  0  0  0
   -5.4382    4.0346    5.2990 H   0  0  0  0  0  0  0  0  0  0  0  0
   -7.3412    4.8356    3.9233 H   0  0  0  0  0  0  0  0  0  0  0  0
   -7.3829    4.3776    1.4861 H   0  0  0  0  0  0  0  0  0  0  0  0
   -5.6226    2.9877    0.4544 H   0  0  0  0  0  0  0  0  0  0  0  0
   -0.7212    3.4709   -1.2693 H   0  0  0  0  0  0  0  0  0  0  0  0
  1  2  1  0  0  0  0
  1 29  1  0  0  0  0
  1 30  1  0  0  0  0
  1 31  1  0  0  0  0
  2  3  1  0  0  0  0
  2  4  1  0  0  0  0
  2 32  1  0  0  0  0
  3 33  1  0  0  0  0
  3 34  1  0  0  0  0
  3 35  1  0  0  0  0
  4  5  1  0  0  0  0
  4 15  1  0  0  0  0
  5  6  2  0  0  0  0
  5  7  1  0  0  0  0
  7  8  2  0  0  0  0
  7 14  1  0  0  0  0
  8  9  1  0  0  0  0
  8 10  1  0  0  0  0
 10 11  2  0  0  0  0
 10 36  1  0  0  0  0
 11 12  1  0  0  0  0
 11 13  1  0  0  0  0
 13 14  2  0  0  0  0
 13 37  1  0  0  0  0
 14 38  1  0  0  0  0
 15 16  2  0  0  0  0
 15 19  1  0  0  0  0
 16 17  1  0  0  0  0
 16 26  1  0  0  0  0
 17 18  1  0  0  0  0
 18 19  2  0  0  0  0
 18 20  1  0  0  0  0
 19 39  1  0  0  0  0
 20 21  2  0  0  0  0
 20 25  1  0  0  0  0
 21 22  1  0  0  0  0
 21 40  1  0  0  0  0
 22 23  2  0  0  0  0
 22 41  1  0  0  0  0
 23 24  1  0  0  0  0
 23 42  1  0  0  0  0
 24 25  2  0  0  0  0
 24 43  1  0  0  0  0
 25 44  1  0  0  0  0
 26 27  1  0  0  0  0
 26 28  2  0  0  0  0
 27 45  1  0  0  0  0
M  END
>  <DRUGBANK_ID>
DB03388

>  <SECONDARY_ACCESSION_NUMBERS>
EXPT01957

>  <COMMON_NAME>
3-[(2,4-Dichlorobenzoyl)(Isopropyl)Amino]-5-Phenylthiophene-2-Carboxylic Acid

$$$$
