773
 OpenBabel10282417113D

 74 80  0  0  1  0  0  0  0  0999 V2000
   -2.6149    1.2244    0.6120 O   0  0  0  0  0  0  0  0  0  0  0  0
   -1.9251    4.6779    2.5459 O   0  0  0  0  0  0  0  0  0  0  0  0
   -0.5253    1.8328    1.6120 O   0  0  0  0  0  0  0  0  0  0  0  0
    2.7723    2.4603   -0.0641 O   0  0  0  0  0  0  0  0  0  0  0  0
   -0.2672    5.8708    1.6302 O   0  0  0  0  0  0  0  0  0  0  0  0
   -1.0624   -0.3393   -1.4088 O   0  0  0  0  0  0  0  0  0  0  0  0
    2.7196    3.5715    1.9922 O   0  0  0  0  0  0  0  0  0  0  0  0
    1.3377    1.1125   -2.1844 O   0  0  0  0  0  0  0  0  0  0  0  0
   -3.4681    0.4618   -4.6073 O   0  0  0  0  0  0  0  0  0  0  0  0
   -1.5036    1.6311   -5.3686 O   0  0  0  0  0  0  0  0  0  0  0  0
   -0.7214    9.1377   -0.5447 O   0  0  0  0  0  0  0  0  0  0  0  0
   -3.7517    7.3130   -3.8416 O   0  0  0  0  0  0  0  0  0  0  0  0
   -2.6647    9.4848   -2.4370 O   0  0  0  0  0  0  0  0  0  0  0  0
   -2.8326    3.7113    0.6120 C   0  0  1  0  0  0  0  0  0  0  0  0
   -1.4332    4.1474    0.2959 C   0  0  1  0  0  0  0  0  0  0  0  0
   -3.1707    2.3880   -0.0554 C   0  0  1  0  0  0  0  0  0  0  0  0
   -1.1131    4.3242   -1.1823 C   0  0  1  0  0  0  0  0  0  0  0  0
   -2.8812    2.4471   -1.5576 C   0  0  0  0  0  0  0  0  0  0  0  0
   -1.7981    3.2486   -2.0603 C   0  0  0  0  0  0  0  0  0  0  0  0
   -2.8787    3.7104    2.1267 C   0  0  0  0  0  0  0  0  0  0  0  0
   -1.1490    5.0627    1.4890 C   0  0  0  0  0  0  0  0  0  0  0  0
   -1.1846    0.9404    0.7051 C   0  0  2  0  0  0  0  0  0  0  0  0
   -1.4252    5.7031   -1.5753 C   0  0  0  0  0  0  0  0  0  0  0  0
   -0.5407    0.7690   -0.6841 C   0  0  1  0  0  0  0  0  0  0  0  0
    1.3790    2.1701   -0.0043 C   0  0  1  0  0  0  0  0  0  0  0  0
    0.9673    0.9422   -0.7997 C   0  0  2  0  0  0  0  0  0  0  0  0
    0.8901    2.0347    1.4496 C   0  0  1  0  0  0  0  0  0  0  0  0
   -3.5144    1.5232   -2.4116 C   0  0  0  0  0  0  0  0  0  0  0  0
   -1.2813    2.9915   -3.3585 C   0  0  0  0  0  0  0  0  0  0  0  0
    1.3260    3.3494    2.1164 C   0  0  0  0  0  0  0  0  0  0  0  0
   -3.0050    1.3488   -3.6844 C   0  0  0  0  0  0  0  0  0  0  0  0
   -1.8987    2.0313   -4.1302 C   0  0  0  0  0  0  0  0  0  0  0  0
   -2.3964    5.8971   -2.5249 C   0  0  0  0  0  0  0  0  0  0  0  0
   -0.7645    6.7673   -0.9840 C   0  0  0  0  0  0  0  0  0  0  0  0
    3.0389    3.6992    0.6048 C   0  0  1  0  0  0  0  0  0  0  0  0
   -1.2158    8.0411   -1.2040 C   0  0  0  0  0  0  0  0  0  0  0  0
   -2.8070    7.1475   -2.8675 C   0  0  0  0  0  0  0  0  0  0  0  0
   -2.4366    0.5563   -5.6118 C   0  0  0  0  0  0  0  0  0  0  0  0
   -2.2342    8.2173   -2.1679 C   0  0  0  0  0  0  0  0  0  0  0  0
    4.5101    3.9868    0.5017 C   0  0  0  0  0  0  0  0  0  0  0  0
    0.2570    8.8887    0.4816 C   0  0  0  0  0  0  0  0  0  0  0  0
   -4.2115    6.1028   -4.4755 C   0  0  0  0  0  0  0  0  0  0  0  0
   -3.4986    4.5007    0.2421 H   0  0  0  0  0  0  0  0  0  0  0  0
   -0.7877    3.3351    0.4587 H   0  0  0  0  0  0  0  0  0  0  0  0
    0.9379    3.0226   -0.5029 H   0  0  0  0  0  0  0  0  0  0  0  0
    1.3974    1.2032    1.9345 H   0  0  0  0  0  0  0  0  0  0  0  0
   -0.8765   -1.1474   -0.9120 H   0  0  0  0  0  0  0  0  0  0  0  0
    0.9016    1.8987   -2.5589 H   0  0  0  0  0  0  0  0  0  0  0  0
   -2.1381   10.0466   -1.8411 H   0  0  0  0  0  0  0  0  0  0  0  0
   -4.2612    2.2839    0.0454 H   0  0  0  0  0  0  0  0  0  0  0  0
   -0.0427    4.2493   -1.4012 H   0  0  0  0  0  0  0  0  0  0  0  0
   -2.6461    2.7570    2.6108 H   0  0  0  0  0  0  0  0  0  0  0  0
   -3.8496    4.0481    2.4889 H   0  0  0  0  0  0  0  0  0  0  0  0
   -1.1373   -0.0314    1.2006 H   0  0  0  0  0  0  0  0  0  0  0  0
   -0.8542    1.5851   -1.2653 H   0  0  0  0  0  0  0  0  0  0  0  0
    1.4764    0.0513   -0.4492 H   0  0  0  0  0  0  0  0  0  0  0  0
   -4.3131    0.8777   -2.0597 H   0  0  0  0  0  0  0  0  0  0  0  0
   -0.3931    3.4956   -3.7315 H   0  0  0  0  0  0  0  0  0  0  0  0
    0.9653    3.4817    3.1403 H   0  0  0  0  0  0  0  0  0  0  0  0
    0.9068    4.1597    1.5480 H   0  0  0  0  0  0  0  0  0  0  0  0
   -2.8259    5.0321   -3.0032 H   0  0  0  0  0  0  0  0  0  0  0  0
    0.0732    6.5693   -0.3283 H   0  0  0  0  0  0  0  0  0  0  0  0
    2.4867    4.5367    0.1366 H   0  0  0  0  0  0  0  0  0  0  0  0
   -2.9034    0.7118   -6.5911 H   0  0  0  0  0  0  0  0  0  0  0  0
   -1.8886   -0.3939   -5.6321 H   0  0  0  0  0  0  0  0  0  0  0  0
    4.8205    4.0471   -0.5446 H   0  0  0  0  0  0  0  0  0  0  0  0
    4.7598    4.9188    1.0180 H   0  0  0  0  0  0  0  0  0  0  0  0
    5.0568    3.1718    0.9813 H   0  0  0  0  0  0  0  0  0  0  0  0
   -0.1592    8.3108    1.3150 H   0  0  0  0  0  0  0  0  0  0  0  0
    1.1549    8.3996    0.0816 H   0  0  0  0  0  0  0  0  0  0  0  0
    0.5720    9.8533    0.8876 H   0  0  0  0  0  0  0  0  0  0  0  0
   -3.3935    5.5632   -4.9793 H   0  0  0  0  0  0  0  0  0  0  0  0
   -4.7138    5.4337   -3.7592 H   0  0  0  0  0  0  0  0  0  0  0  0
   -4.9425    6.3723   -5.2346 H   0  0  0  0  0  0  0  0  0  0  0  0
  2 20  1  0  0  0  0
  2 21  1  0  0  0  0
  3 22  1  0  0  0  0
  3 27  1  0  0  0  0
  4 25  1  0  0  0  0
  4 35  1  0  0  0  0
  5 21  2  0  0  0  0
  6 47  1  0  0  0  0
  7 30  1  0  0  0  0
  7 35  1  0  0  0  0
  8 48  1  0  0  0  0
  9 31  1  0  0  0  0
  9 38  1  0  0  0  0
 10 32  1  0  0  0  0
 10 38  1  0  0  0  0
 11 36  1  0  0  0  0
 11 41  1  0  0  0  0
 12 37  1  0  0  0  0
 12 42  1  0  0  0  0
 13 39  1  0  0  0  0
 13 49  1  0  0  0  0
 14 15  1  0  0  0  0
 14 16  1  0  0  0  0
 14 20  1  0  0  0  0
 14 43  1  6  0  0  0
 15 17  1  0  0  0  0
 15 21  1  0  0  0  0
 15 44  1  1  0  0  0
 16 18  1  0  0  0  0
 16 50  1  1  0  0  0
 16  1  1  0  0  0  0
 17 19  1  0  0  0  0
 17 23  1  0  0  0  0
 17 51  1  6  0  0  0
 18 19  1  0  0  0  0
 18 28  2  0  0  0  0
 19 29  2  0  0  0  0
 20 52  1  0  0  0  0
 20 53  1  0  0  0  0
 22 24  1  0  0  0  0
 22 54  1  1  0  0  0
 22  1  1  0  0  0  0
 23 33  2  0  0  0  0
 23 34  1  0  0  0  0
 24  6  1  0  0  0  0
 24 26  1  0  0  0  0
 24 55  1  6  0  0  0
 25 26  1  0  0  0  0
 25 27  1  0  0  0  0
 25 45  1  6  0  0  0
 26  8  1  0  0  0  0
 26 56  1  1  0  0  0
 27 30  1  0  0  0  0
 27 46  1  1  0  0  0
 28 31  1  0  0  0  0
 28 57  1  0  0  0  0
 29 32  1  0  0  0  0
 29 58  1  0  0  0  0
 30 59  1  0  0  0  0
 30 60  1  0  0  0  0
 31 32  2  0  0  0  0
 33 37  1  0  0  0  0
 33 61  1  0  0  0  0
 34 36  2  0  0  0  0
 34 62  1  0  0  0  0
 35 40  1  0  0  0  0
 35 63  1  6  0  0  0
 36 39  1  0  0  0  0
 37 39  2  0  0  0  0
 38 64  1  0  0  0  0
 38 65  1  0  0  0  0
 40 66  1  0  0  0  0
 40 67  1  0  0  0  0
 40 68  1  0  0  0  0
 41 69  1  0  0  0  0
 41 70  1  0  0  0  0
 41 71  1  0  0  0  0
 42 72  1  0  0  0  0
 42 73  1  0  0  0  0
 42 74  1  0  0  0  0
M  END
>  <DRUGBANK_ID>
DB00773

>  <SECONDARY_ACCESSION_NUMBERS>
APRD00239

>  <COMMON_NAME>
Etoposide

>  <CAS_NUMBER>
33419-42-0

>  <UNII>
6PLQ3CP4P3

>  <SYNONYMS>
(−)-etoposide; 4-demethylepipodophyllotoxin β-D-ethylideneglucoside; 4'-Demethylepipodophyllotoxin 9-(4,6-O-(R)-ethylidene-beta-D-glucopyranoside); 9-((4,6-O-Ethylidine-beta-D-glucopyranosyl)oxy)-5,8,8a,9-tetrahydro-5-(4-hydroxy-3,4-dimethyloxyphenyl)furo(3',4'':6,7)naptho-(2,3-d)-1,3-dioxol-6(5aH)-one; Etoposide; Etoposido; Etoposidum; trans-Etoposide

$$$$
