
 OpenBabel10282417193D

 31 32  0  0  0  0  0  0  0  0999 V2000
   -0.3002   -1.1443   -0.0143 N   0  0  0  0  0  0  0  0  0  0  0  0
    0.9754   -0.6378    0.0163 C   0  0  0  0  0  0  0  0  0  0  0  0
   -1.1476   -0.0572   -0.0026 C   0  0  0  0  0  0  0  0  0  0  0  0
   -0.7176   -2.5440   -0.0409 C   0  0  0  0  0  0  0  0  0  0  0  0
    0.9890    0.6821    0.0135 N   0  0  0  0  0  0  0  0  0  0  0  0
    2.1769   -1.4226    0.1101 N   0  3  0  0  0  0  0  0  0  0  0  0
   -0.3282    1.0505   -0.0006 C   0  0  0  0  0  0  0  0  0  0  0  0
   -0.2608   -3.2431   -1.3197 C   0  0  0  0  0  0  0  0  0  0  0  0
    3.2560   -0.8507   -0.0550 O   0  0  0  0  0  0  0  0  0  0  0  0
    2.0405   -2.6290    0.3760 O   0  5  0  0  0  0  0  0  0  0  0  0
    0.5254   -4.3689   -1.1687 N   0  0  0  0  0  0  0  0  0  0  0  0
   -0.5653   -2.7936   -2.4225 O   0  0  0  0  0  0  0  0  0  0  0  0
    1.1568   -5.0217   -2.3139 C   0  0  0  0  0  0  0  0  0  0  0  0
    2.6680   -4.9432   -2.2714 C   0  0  0  0  0  0  0  0  0  0  0  0
    3.3175   -3.7013   -2.2803 C   0  0  0  0  0  0  0  0  0  0  0  0
    3.4583   -6.1019   -2.2248 C   0  0  0  0  0  0  0  0  0  0  0  0
    4.7056   -3.6111   -2.1490 C   0  0  0  0  0  0  0  0  0  0  0  0
    4.8466   -6.0130   -2.0693 C   0  0  0  0  0  0  0  0  0  0  0  0
    5.4708   -4.7679   -2.0388 C   0  0  0  0  0  0  0  0  0  0  0  0
   -2.2265   -0.1439   -0.0118 H   0  0  0  0  0  0  0  0  0  0  0  0
   -0.3542   -3.0204    0.8746 H   0  0  0  0  0  0  0  0  0  0  0  0
   -1.8139   -2.5722   -0.0085 H   0  0  0  0  0  0  0  0  0  0  0  0
   -0.6147    2.0960   -0.0027 H   0  0  0  0  0  0  0  0  0  0  0  0
    0.9477   -4.5550   -0.2636 H   0  0  0  0  0  0  0  0  0  0  0  0
    0.8362   -6.0685   -2.2832 H   0  0  0  0  0  0  0  0  0  0  0  0
    0.8003   -4.5876   -3.2524 H   0  0  0  0  0  0  0  0  0  0  0  0
    2.7387   -2.7865   -2.3732 H   0  0  0  0  0  0  0  0  0  0  0  0
    3.0047   -7.0868   -2.3083 H   0  0  0  0  0  0  0  0  0  0  0  0
    5.1831   -2.6345   -2.1100 H   0  0  0  0  0  0  0  0  0  0  0  0
    5.4425   -6.9155   -1.9570 H   0  0  0  0  0  0  0  0  0  0  0  0
    6.5509   -4.6981   -1.9365 H   0  0  0  0  0  0  0  0  0  0  0  0
  1  2  1  0  0  0  0
  1  3  1  0  0  0  0
  1  4  1  0  0  0  0
  2  5  2  0  0  0  0
  2  6  1  0  0  0  0
  3  7  2  0  0  0  0
  3 20  1  0  0  0  0
  4  8  1  0  0  0  0
  4 21  1  0  0  0  0
  4 22  1  0  0  0  0
  5  7  1  0  0  0  0
  6  9  2  0  0  0  0
  6 10  1  0  0  0  0
  7 23  1  0  0  0  0
  8 11  1  0  0  0  0
  8 12  2  0  0  0  0
 11 13  1  0  0  0  0
 11 24  1  0  0  0  0
 13 14  1  0  0  0  0
 13 25  1  0  0  0  0
 13 26  1  0  0  0  0
 14 15  2  0  0  0  0
 14 16  1  0  0  0  0
 15 17  1  0  0  0  0
 15 27  1  0  0  0  0
 16 18  2  0  0  0  0
 16 28  1  0  0  0  0
 17 19  2  0  0  0  0
 17 29  1  0  0  0  0
 18 19  1  0  0  0  0
 18 30  1  0  0  0  0
 19 31  1  0  0  0  0
M  CHG  2   6   1  10  -1
M  END
>  <DRUGBANK_ID>
DB11989

>  <COMMON_NAME>
Benznidazole

>  <CAS_NUMBER>
22994-85-0

>  <UNII>
YC42NRJ1ZD

>  <SYNONYMS>
Benznidazol; Benznidazole; Benznidazolum

$$$$
