MGM
 OpenBabel10282417173D

 66 65  0  0  0  0  0  0  0  0999 V2000
    4.0262   -1.2351   10.9223 C   0  0  0  0  0  0  0  0  0  0  0  0
    5.1127   -3.2698    9.8346 C   0  0  0  0  0  0  0  0  0  0  0  0
    3.8746   -2.5646   10.2906 C   0  0  0  0  0  0  0  0  0  0  0  0
    2.6576   -3.0977   10.1221 C   0  0  0  0  0  0  0  0  0  0  0  0
    1.3129   -2.4209   10.3431 C   0  0  0  0  0  0  0  0  0  0  0  0
   -1.5748   -3.5601    8.1935 C   0  0  0  0  0  0  0  0  0  0  0  0
   -0.1492   -3.3575    8.4958 C   0  0  0  0  0  0  0  0  0  0  0  0
    0.4350   -2.0978    9.0880 C   0  0  0  0  0  0  0  0  0  0  0  0
    0.6989   -4.4117    8.3336 C   0  0  0  0  0  0  0  0  0  0  0  0
    0.5090   -5.8087    7.9186 C   0  0  0  0  0  0  0  0  0  0  0  0
    1.4816   -6.0139    6.7976 C   0  0  0  0  0  0  0  0  0  0  0  0
    3.1997   -5.9970    6.7739 C   0  0  0  0  0  0  0  0  0  0  0  0
    3.8988   -6.8897    5.7450 C   0  0  0  0  0  0  0  0  0  0  0  0
    3.9730   -4.9172    7.1801 C   0  0  0  0  0  0  0  0  0  0  0  0
    5.2748   -4.2349    6.5426 C   0  0  0  0  0  0  0  0  0  0  0  0
    5.3596   -2.7595    5.7990 C   0  0  0  0  0  0  0  0  0  0  0  0
    4.7620   -1.5129    6.3218 N   0  0  0  0  0  0  0  0  0  0  0  0
    5.2559   -0.2923    5.6753 C   0  0  0  0  0  0  0  0  0  0  0  0
    3.2982   -1.4214    6.2195 C   0  0  0  0  0  0  0  0  0  0  0  0
    2.6401   -1.6606    4.7594 C   0  0  0  0  0  0  0  0  0  0  0  0
    2.9128   -2.9121    4.0203 O   0  0  0  0  0  0  0  0  0  0  0  0
    2.9110   -4.2888    4.9386 P   0  0  2  0  0  0  0  0  0  0  0  0
    3.6270   -5.1628    3.6285 O   0  0  0  0  0  0  0  0  0  0  0  0
    1.3882   -5.0401    4.6076 O   0  0  0  0  0  0  0  0  0  0  0  0
    2.2702   -3.5065    6.1111 O   0  0  0  0  0  0  0  0  0  0  0  0
    1.5556   -6.1145    3.2621 P   0  0  0  0  0  0  0  0  0  0  0  0
    1.0631   -7.3423    4.2284 O   0  0  0  0  0  0  0  0  0  0  0  0
    0.0317   -5.6543    2.8534 O   0  0  0  0  0  0  0  0  0  0  0  0
    1.7055   -7.0762    2.0578 O   0  0  0  0  0  0  0  0  0  0  0  0
    5.0757   -0.9696   11.0457 H   0  0  0  0  0  0  0  0  0  0  0  0
    3.5730   -1.2910   11.9175 H   0  0  0  0  0  0  0  0  0  0  0  0
    3.5277   -0.4663   10.3275 H   0  0  0  0  0  0  0  0  0  0  0  0
    5.1245   -4.3318   10.1013 H   0  0  0  0  0  0  0  0  0  0  0  0
    5.1476   -3.1671    8.7569 H   0  0  0  0  0  0  0  0  0  0  0  0
    6.0359   -2.8041   10.1806 H   0  0  0  0  0  0  0  0  0  0  0  0
    2.6482   -4.1365    9.8015 H   0  0  0  0  0  0  0  0  0  0  0  0
    0.7350   -3.0843   10.9965 H   0  0  0  0  0  0  0  0  0  0  0  0
    1.4550   -1.4870   10.8876 H   0  0  0  0  0  0  0  0  0  0  0  0
   -1.7287   -3.5931    7.1065 H   0  0  0  0  0  0  0  0  0  0  0  0
   -1.8857   -4.5226    8.6111 H   0  0  0  0  0  0  0  0  0  0  0  0
   -2.2022   -2.7831    8.6277 H   0  0  0  0  0  0  0  0  0  0  0  0
   -0.3956   -1.4621    9.4229 H   0  0  0  0  0  0  0  0  0  0  0  0
    0.9940   -1.4994    8.3529 H   0  0  0  0  0  0  0  0  0  0  0  0
    1.7009   -4.0690    8.2477 H   0  0  0  0  0  0  0  0  0  0  0  0
    0.7312   -6.5777    8.6394 H   0  0  0  0  0  0  0  0  0  0  0  0
   -0.5136   -5.9275    7.5119 H   0  0  0  0  0  0  0  0  0  0  0  0
    1.0725   -6.8030    6.1795 H   0  0  0  0  0  0  0  0  0  0  0  0
    1.0491   -5.1256    6.3297 H   0  0  0  0  0  0  0  0  0  0  0  0
    4.6725   -6.3408    5.2037 H   0  0  0  0  0  0  0  0  0  0  0  0
    4.4454   -7.6968    6.2116 H   0  0  0  0  0  0  0  0  0  0  0  0
    3.2916   -7.2532    4.9261 H   0  0  0  0  0  0  0  0  0  0  0  0
    3.5227   -4.1795    7.8252 H   0  0  0  0  0  0  0  0  0  0  0  0
    6.0142   -4.2049    7.3384 H   0  0  0  0  0  0  0  0  0  0  0  0
    5.7136   -4.8994    5.7956 H   0  0  0  0  0  0  0  0  0  0  0  0
    6.4423   -2.5782    5.7639 H   0  0  0  0  0  0  0  0  0  0  0  0
    5.1186   -2.8629    4.7325 H   0  0  0  0  0  0  0  0  0  0  0  0
    4.9760   -0.2380    4.6176 H   0  0  0  0  0  0  0  0  0  0  0  0
    4.8154    0.5864    6.1718 H   0  0  0  0  0  0  0  0  0  0  0  0
    6.3364   -0.1907    5.7623 H   0  0  0  0  0  0  0  0  0  0  0  0
    2.9527   -2.0118    7.0720 H   0  0  0  0  0  0  0  0  0  0  0  0
    2.9264   -0.4457    6.5702 H   0  0  0  0  0  0  0  0  0  0  0  0
    1.5480   -1.5931    4.8545 H   0  0  0  0  0  0  0  0  0  0  0  0
    2.9393   -0.8386    4.1054 H   0  0  0  0  0  0  0  0  0  0  0  0
    4.6023   -5.1754    3.5480 H   0  0  0  0  0  0  0  0  0  0  0  0
    1.7371   -8.0418    4.2881 H   0  0  0  0  0  0  0  0  0  0  0  0
   -0.2311   -4.8648    3.3552 H   0  0  0  0  0  0  0  0  0  0  0  0
  1  3  1  0  0  0  0
  1 30  1  0  0  0  0
  1 31  1  0  0  0  0
  1 32  1  0  0  0  0
  2  3  1  0  0  0  0
  2 33  1  0  0  0  0
  2 34  1  0  0  0  0
  2 35  1  0  0  0  0
  3  4  2  0  0  0  0
  4  5  1  0  0  0  0
  4 36  1  0  0  0  0
  5  8  1  0  0  0  0
  5 37  1  0  0  0  0
  5 38  1  0  0  0  0
  6  7  1  0  0  0  0
  6 39  1  0  0  0  0
  6 40  1  0  0  0  0
  6 41  1  0  0  0  0
  7  8  1  0  0  0  0
  7  9  2  0  0  0  0
  8 42  1  0  0  0  0
  8 43  1  0  0  0  0
  9 10  1  0  0  0  0
  9 44  1  0  0  0  0
 10 11  1  0  0  0  0
 10 45  1  0  0  0  0
 10 46  1  0  0  0  0
 11 12  1  0  0  0  0
 11 47  1  0  0  0  0
 11 48  1  0  0  0  0
 12 13  1  0  0  0  0
 12 14  2  0  0  0  0
 13 49  1  0  0  0  0
 13 50  1  0  0  0  0
 13 51  1  0  0  0  0
 14 15  1  0  0  0  0
 14 52  1  0  0  0  0
 15 16  1  0  0  0  0
 15 53  1  0  0  0  0
 15 54  1  0  0  0  0
 16 17  1  0  0  0  0
 16 55  1  0  0  0  0
 16 56  1  0  0  0  0
 17 18  1  0  0  0  0
 17 19  1  0  0  0  0
 18 57  1  0  0  0  0
 18 58  1  0  0  0  0
 18 59  1  0  0  0  0
 19 20  1  0  0  0  0
 19 60  1  0  0  0  0
 19 61  1  0  0  0  0
 20 21  1  0  0  0  0
 20 62  1  0  0  0  0
 20 63  1  0  0  0  0
 22 24  1  0  0  0  0
 22 25  2  1  0  0  0
 22 23  1  0  0  0  0
 22 21  1  0  0  0  0
 23 64  1  0  0  0  0
 24 26  1  0  0  0  0
 26 27  1  0  0  0  0
 26 28  1  0  0  0  0
 26 29  2  0  0  0  0
 27 65  1  0  0  0  0
 28 66  1  0  0  0  0
M  END
>  <DRUGBANK_ID>
DB08180

>  <COMMON_NAME>
2-[METHYL-(5-GERANYL-4-METHYL-PENT-3-ENYL)-AMINO]-ETHYL-DIPHOSPHATE

$$$$
