817
 OpenBabel10282417113D

 36 38  0  0  0  0  0  0  0  0999 V2000
    0.9117   -0.0702   -0.0393 O   0  0  0  0  0  0  0  0  0  0  0  0
    0.7833    2.4456   -0.2507 O   0  0  0  0  0  0  0  0  0  0  0  0
    2.7036    3.6202   -0.3227 O   0  0  0  0  0  0  0  0  0  0  0  0
    4.9836    0.0842   -0.0360 N   0  0  0  0  0  0  0  0  0  0  0  0
    6.4651   -7.3015    0.1810 N   0  0  0  0  0  0  0  0  0  0  0  0
    4.3510   -1.1757   -0.0315 C   0  0  0  0  0  0  0  0  0  0  0  0
    2.9486   -1.2614   -0.0061 C   0  0  0  0  0  0  0  0  0  0  0  0
    6.4596    0.1413   -0.0577 C   0  0  0  0  0  0  0  0  0  0  0  0
    5.0472   -2.3847   -0.0589 C   0  0  0  0  0  0  0  0  0  0  0  0
    4.3966   -3.6144   -0.1599 C   0  0  0  0  0  0  0  0  0  0  0  0
    4.1906    1.2239   -0.1339 C   0  0  0  0  0  0  0  0  0  0  0  0
    2.1425   -0.0310   -0.0373 C   0  0  0  0  0  0  0  0  0  0  0  0
    2.8471    1.2583   -0.1362 C   0  0  0  0  0  0  0  0  0  0  0  0
    2.2785   -2.4844   -0.0621 C   0  0  0  0  0  0  0  0  0  0  0  0
    3.0069   -3.6431   -0.2697 C   0  0  0  0  0  0  0  0  0  0  0  0
    5.1695   -4.8439   -0.0764 C   0  0  0  0  0  0  0  0  0  0  0  0
    7.0704   -0.3603    1.2517 C   0  0  0  0  0  0  0  0  0  0  0  0
    2.1346    2.5493   -0.2453 C   0  0  0  0  0  0  0  0  0  0  0  0
    5.1946   -5.7377   -1.1403 C   0  0  0  0  0  0  0  0  0  0  0  0
    5.8674   -5.1627    1.0959 C   0  0  0  0  0  0  0  0  0  0  0  0
    5.7888   -6.9664   -0.9390 C   0  0  0  0  0  0  0  0  0  0  0  0
    6.5282   -6.3734    1.1573 C   0  0  0  0  0  0  0  0  0  0  0  0
    0.4429    1.5188   -0.1855 H   0  0  0  0  0  0  0  0  0  0  0  0
    6.8520   -0.4124   -0.9219 H   0  0  0  0  0  0  0  0  0  0  0  0
    6.7934    1.1768   -0.2001 H   0  0  0  0  0  0  0  0  0  0  0  0
    6.1300   -2.4253   -0.0357 H   0  0  0  0  0  0  0  0  0  0  0  0
    4.7622    2.1472   -0.2183 H   0  0  0  0  0  0  0  0  0  0  0  0
    1.1966   -2.5310    0.0281 H   0  0  0  0  0  0  0  0  0  0  0  0
    2.4858   -4.5692   -0.4953 H   0  0  0  0  0  0  0  0  0  0  0  0
    6.8515   -1.4059    1.4797 H   0  0  0  0  0  0  0  0  0  0  0  0
    8.1600   -0.2828    1.2145 H   0  0  0  0  0  0  0  0  0  0  0  0
    6.6878    0.2130    2.0989 H   0  0  0  0  0  0  0  0  0  0  0  0
    4.7435   -5.4848   -2.0934 H   0  0  0  0  0  0  0  0  0  0  0  0
    5.8904   -4.4868    1.9464 H   0  0  0  0  0  0  0  0  0  0  0  0
    5.7230   -7.7394   -1.6971 H   0  0  0  0  0  0  0  0  0  0  0  0
    7.1393   -6.6351    2.0158 H   0  0  0  0  0  0  0  0  0  0  0  0
  1 12  2  0  0  0  0
  2 18  1  0  0  0  0
  2 23  1  0  0  0  0
  3 18  2  0  0  0  0
  4  6  1  0  0  0  0
  4  8  1  0  0  0  0
  4 11  1  0  0  0  0
  5 21  2  0  0  0  0
  5 22  1  0  0  0  0
  6  7  2  0  0  0  0
  6  9  1  0  0  0  0
  7 12  1  0  0  0  0
  7 14  1  0  0  0  0
  8 17  1  0  0  0  0
  8 24  1  0  0  0  0
  8 25  1  0  0  0  0
  9 10  2  0  0  0  0
  9 26  1  0  0  0  0
 10 15  1  0  0  0  0
 10 16  1  0  0  0  0
 11 13  2  0  0  0  0
 11 27  1  0  0  0  0
 12 13  1  0  0  0  0
 13 18  1  0  0  0  0
 14 15  2  0  0  0  0
 14 28  1  0  0  0  0
 15 29  1  0  0  0  0
 16 19  2  0  0  0  0
 16 20  1  0  0  0  0
 17 30  1  0  0  0  0
 17 31  1  0  0  0  0
 17 32  1  0  0  0  0
 19 21  1  0  0  0  0
 19 33  1  0  0  0  0
 20 22  2  0  0  0  0
 20 34  1  0  0  0  0
 21 35  1  0  0  0  0
 22 36  1  0  0  0  0
M  END
>  <DRUGBANK_ID>
DB00817

>  <SECONDARY_ACCESSION_NUMBERS>
APRD00369

>  <COMMON_NAME>
Rosoxacin

>  <CAS_NUMBER>
40034-42-2

>  <UNII>
3Y1OT3J4NW

>  <SYNONYMS>
1-ethyl-1,4-dihydro-4-oxo-7-(4-pyridyl)-3-quinolinecarboxylic acid; Acrosoxacin; Rosoxacin; Rosoxacina; Rosoxacine; Rosoxacino; Rosoxacinum

$$$$
