
 OpenBabel10282417183D

 19 16  0  0  0  0  0  0  0  0999 V2000
    0.9025    0.1286   -0.6099 C   0  0  0  0  0  0  0  0  0  0  0  0
    0.9983   -2.5603    0.1152 C   0  0  0  0  0  0  0  0  0  0  0  0
    0.5415   -1.3825   -0.8022 C   0  0  3  0  0  0  0  0  0  0  0  0
   -0.0600    0.9364    0.0662 O   0  0  0  0  0  0  0  0  0  0  0  0
   -0.8953   -1.4203   -0.9454 O   0  0  0  0  0  0  0  0  0  0  0  0
    2.3284   -0.8606    1.2063 O   0  5  0  0  0  0  0  0  0  0  0  0
   -0.1890   -0.4046    1.9351 O   0  5  0  0  0  0  0  0  0  0  0  0
    1.7132    0.3107    2.8920 O   0  0  0  0  0  0  0  0  0  0  0  0
    0.6204   -2.4399    1.4821 O   0  0  0  0  0  0  0  0  0  0  0  0
    1.1971   -0.9884    2.2261 P   0  0  0  0  0  0  0  0  0  0  0  0
   -0.4191   -0.0114   -3.0495 Na  0  3  0  0  0  0  0  0  0  0  0  0
    1.6356    1.6676    1.6729 Na  0  3  0  0  0  0  0  0  0  0  0  0
    0.8818    0.6171   -1.5798 H   0  0  0  0  0  0  0  0  0  0  0  0
    1.9242    0.3741   -0.3218 H   0  0  0  0  0  0  0  0  0  0  0  0
    0.5378   -3.4899   -0.2401 H   0  0  0  0  0  0  0  0  0  0  0  0
    2.0799   -2.7373    0.0413 H   0  0  0  0  0  0  0  0  0  0  0  0
    0.9442   -1.6474   -1.7837 H   0  0  0  0  0  0  0  0  0  0  0  0
   -0.3234    0.3803    0.8926 H   0  0  0  0  0  0  0  0  0  0  0  0
   -1.1722   -1.4274    0.0149 H   0  0  0  0  0  0  0  0  0  0  0  0
  1 13  1  0  0  0  0
  1 14  1  0  0  0  0
  2 15  1  0  0  0  0
  2 16  1  0  0  0  0
  3  1  1  0  0  0  0
  3  2  1  0  0  0  0
  3 17  1  0  0  0  0
  4  1  1  0  0  0  0
  4 18  1  0  0  0  0
  5  3  1  0  0  0  0
  5 19  1  0  0  0  0
  9  2  1  0  0  0  0
 10  6  1  0  0  0  0
 10  7  1  0  0  0  0
 10  8  2  0  0  0  0
 10  9  1  0  0  0  0
M  CHG  4   6  -1   7  -1  11   1  12   1
M  END
>  <DRUGBANK_ID>
DB09561

>  <SECONDARY_ACCESSION_NUMBERS>
DBSALT001586

>  <COMMON_NAME>
Sodium glycerophosphate

>  <CAS_NUMBER>
1334-74-3

>  <UNII>
G43E72677U

>  <SYNONYMS>
Disodium glycerol phosphate; Sodium glycerophosphate anhydrous

$$$$
