
 OpenBabel10282417223D

102103  0  0  0  0  0  0  0  0999 V2000
    0.6628    0.3120    0.3078 C   0  0  0  0  0  0  0  0  0  0  0  0
   -1.1220   -1.3745   -0.4051 N   0  0  0  0  0  0  0  0  0  0  0  0
   -0.2133   -0.2594   -0.8416 C   0  0  1  0  0  0  0  0  0  0  0  0
   -0.9252    0.6056   -1.8720 C   0  0  0  0  0  0  0  0  0  0  0  0
    0.0814    1.5745   -2.5039 C   0  0  0  0  0  0  0  0  0  0  0  0
   -1.6011   -0.1853   -3.0330 C   0  0  0  0  0  0  0  0  0  0  0  0
    0.1900    0.8953    1.2769 O   0  0  0  0  0  0  0  0  0  0  0  0
    2.0292    0.1330    0.2681 O   0  0  0  0  0  0  0  0  0  0  0  0
    2.8245   -0.5151   -0.7570 C   0  0  0  0  0  0  0  0  0  0  0  0
    2.5933   -2.0457   -0.8516 C   0  0  0  0  0  0  0  0  0  0  0  0
    1.3314   -2.5422   -1.4770 C   0  0  1  0  0  0  0  0  0  0  0  0
    1.0765   -2.0738   -2.9391 C   0  0  0  0  0  0  0  0  0  0  0  0
    1.8356   -2.7629   -3.9481 O   0  0  0  0  0  0  0  0  0  0  0  0
    3.1456   -2.5233   -4.2300 C   0  0  0  0  0  0  0  0  0  0  0  0
    3.9505   -1.7700   -3.2094 C   0  0  0  0  0  0  0  0  0  0  0  0
    4.8065   -2.7089   -2.2555 C   0  0  0  0  0  0  0  0  0  0  0  0
    5.8482   -3.3217   -3.0954 C   0  0  0  0  0  0  0  0  0  0  0  0
    6.6564   -2.1473   -3.5958 C   0  0  0  0  0  0  0  0  0  0  0  0
    7.2923   -1.4236   -2.3944 C   0  0  0  0  0  0  0  0  0  0  0  0
    8.1327   -2.4399   -1.6193 C   0  0  0  0  0  0  0  0  0  0  0  0
    9.1203   -3.0756   -2.6021 C   0  0  0  0  0  0  0  0  0  0  0  0
    9.9826   -1.9668   -3.2133 C   0  0  0  0  0  0  0  0  0  0  0  0
   10.7350   -1.2533   -2.0885 C   0  0  0  0  0  0  0  0  0  0  0  0
   11.6071   -2.2720   -1.3506 C   0  0  0  0  0  0  0  0  0  0  0  0
   12.5970   -2.8968   -2.3381 C   0  0  0  0  0  0  0  0  0  0  0  0
   13.4787   -1.7983   -2.9385 C   0  0  0  0  0  0  0  0  0  0  0  0
   14.2453   -1.0870   -1.8199 C   0  0  0  0  0  0  0  0  0  0  0  0
   15.1301   -2.0906   -1.0721 C   0  0  0  0  0  0  0  0  0  0  0  0
   16.1563   -2.7173   -2.0225 C   0  0  0  0  0  0  0  0  0  0  0  0
   17.0486   -1.6483   -2.6543 C   0  0  0  0  0  0  0  0  0  0  0  0
   17.8071   -0.8907   -1.5768 C   0  0  0  0  0  0  0  0  0  0  0  0
    3.6560   -2.9817   -5.2433 O   0  0  0  0  0  0  0  0  0  0  0  0
    0.9357   -3.9714   -1.3099 C   0  0  0  0  0  0  0  0  0  0  0  0
    1.3428   -6.0359    1.5768 N   0  0  0  0  0  0  0  0  0  0  0  0
    1.0555   -5.7838    0.3206 C   0  0  0  0  0  0  0  0  0  0  0  0
    1.1253   -4.4465    0.0440 N   0  0  0  0  0  0  0  0  0  0  0  0
    1.3854   -3.7912    1.2366 C   0  0  0  0  0  0  0  0  0  0  0  0
    1.5512   -2.4549    1.4800 N   0  0  0  0  0  0  0  0  0  0  0  0
    2.0677   -2.1416    2.6390 C   0  0  0  0  0  0  0  0  0  0  0  0
    2.2550   -3.0777    3.6212 N   0  0  0  0  0  0  0  0  0  0  0  0
    1.9859   -4.4448    3.4866 C   0  0  0  0  0  0  0  0  0  0  0  0
    1.5755   -4.8018    2.1360 C   0  0  0  0  0  0  0  0  0  0  0  0
    2.0971   -5.2099    4.4100 O   0  0  0  0  0  0  0  0  0  0  0  0
    2.4740   -0.8752    2.9329 N   0  0  0  0  0  0  0  0  0  0  0  0
   -1.3268   -1.9926   -1.1960 H   0  0  0  0  0  0  0  0  0  0  0  0
   -0.6646   -1.9982    0.2784 H   0  0  0  0  0  0  0  0  0  0  0  0
    0.5796   -0.5536   -1.4769 H   0  0  0  0  0  0  0  0  0  0  0  0
   -1.6950    1.1433   -1.3244 H   0  0  0  0  0  0  0  0  0  0  0  0
    0.7835    1.0783   -3.1897 H   0  0  0  0  0  0  0  0  0  0  0  0
   -0.4556    2.3226   -3.0843 H   0  0  0  0  0  0  0  0  0  0  0  0
    0.6879    2.0687   -1.7413 H   0  0  0  0  0  0  0  0  0  0  0  0
   -2.1929   -1.0461   -2.7030 H   0  0  0  0  0  0  0  0  0  0  0  0
   -2.2778    0.4745   -3.5768 H   0  0  0  0  0  0  0  0  0  0  0  0
   -0.8970   -0.5527   -3.7902 H   0  0  0  0  0  0  0  0  0  0  0  0
    2.6629    0.0885   -1.6565 H   0  0  0  0  0  0  0  0  0  0  0  0
    3.8946   -0.3546   -0.5346 H   0  0  0  0  0  0  0  0  0  0  0  0
    3.0542   -2.6368   -1.5633 H   0  0  0  0  0  0  0  0  0  0  0  0
    3.0804   -2.5303   -0.0069 H   0  0  0  0  0  0  0  0  0  0  0  0
    0.7370   -2.1357   -0.7270 H   0  0  0  0  0  0  0  0  0  0  0  0
    0.0222   -2.2677   -3.1539 H   0  0  0  0  0  0  0  0  0  0  0  0
    1.2252   -1.0042   -3.1281 H   0  0  0  0  0  0  0  0  0  0  0  0
    4.4903   -0.8851   -3.5483 H   0  0  0  0  0  0  0  0  0  0  0  0
    3.1977   -1.1732   -2.7647 H   0  0  0  0  0  0  0  0  0  0  0  0
    5.1655   -2.1631   -1.3624 H   0  0  0  0  0  0  0  0  0  0  0  0
    4.3546   -3.6111   -1.8009 H   0  0  0  0  0  0  0  0  0  0  0  0
    6.3900   -4.0679   -2.5069 H   0  0  0  0  0  0  0  0  0  0  0  0
    5.3541   -3.9000   -3.8731 H   0  0  0  0  0  0  0  0  0  0  0  0
    7.3521   -2.5147   -4.3416 H   0  0  0  0  0  0  0  0  0  0  0  0
    6.0810   -1.4273   -4.1734 H   0  0  0  0  0  0  0  0  0  0  0  0
    7.8650   -0.5689   -2.7584 H   0  0  0  0  0  0  0  0  0  0  0  0
    6.5805   -0.9421   -1.7138 H   0  0  0  0  0  0  0  0  0  0  0  0
    8.6193   -1.9565   -0.7693 H   0  0  0  0  0  0  0  0  0  0  0  0
    7.5280   -3.2150   -1.1385 H   0  0  0  0  0  0  0  0  0  0  0  0
    9.7013   -3.8504   -2.1005 H   0  0  0  0  0  0  0  0  0  0  0  0
    8.6265   -3.6383   -3.3992 H   0  0  0  0  0  0  0  0  0  0  0  0
   10.6454   -2.3892   -3.9714 H   0  0  0  0  0  0  0  0  0  0  0  0
    9.4018   -1.2387   -3.7870 H   0  0  0  0  0  0  0  0  0  0  0  0
   11.3106   -0.4205   -2.4987 H   0  0  0  0  0  0  0  0  0  0  0  0
   10.0647   -0.7579   -1.3805 H   0  0  0  0  0  0  0  0  0  0  0  0
   12.1024   -1.7902   -0.5047 H   0  0  0  0  0  0  0  0  0  0  0  0
   11.0187   -3.0585   -0.8699 H   0  0  0  0  0  0  0  0  0  0  0  0
   13.1797   -3.6726   -1.8362 H   0  0  0  0  0  0  0  0  0  0  0  0
   12.0965   -3.4480   -3.1395 H   0  0  0  0  0  0  0  0  0  0  0  0
   14.1455   -2.2283   -3.6898 H   0  0  0  0  0  0  0  0  0  0  0  0
   12.8975   -1.0676   -3.5098 H   0  0  0  0  0  0  0  0  0  0  0  0
   14.8211   -0.2572   -2.2368 H   0  0  0  0  0  0  0  0  0  0  0  0
   13.5725   -0.5921   -1.1121 H   0  0  0  0  0  0  0  0  0  0  0  0
   15.6125   -1.5975   -0.2251 H   0  0  0  0  0  0  0  0  0  0  0  0
   14.5373   -2.8812   -0.6002 H   0  0  0  0  0  0  0  0  0  0  0  0
   16.7613   -3.4490   -1.4791 H   0  0  0  0  0  0  0  0  0  0  0  0
   15.6587   -3.2910   -2.8143 H   0  0  0  0  0  0  0  0  0  0  0  0
   17.7456   -2.1168   -3.3541 H   0  0  0  0  0  0  0  0  0  0  0  0
   16.4609   -0.9444   -3.2558 H   0  0  0  0  0  0  0  0  0  0  0  0
   18.4214   -1.5871   -0.9988 H   0  0  0  0  0  0  0  0  0  0  0  0
   18.4439   -0.1236   -2.0177 H   0  0  0  0  0  0  0  0  0  0  0  0
   17.1344   -0.3790   -0.8807 H   0  0  0  0  0  0  0  0  0  0  0  0
   -0.1425   -4.0561   -1.5167 H   0  0  0  0  0  0  0  0  0  0  0  0
    1.4659   -4.6070   -2.0244 H   0  0  0  0  0  0  0  0  0  0  0  0
    0.7977   -6.5023   -0.4482 H   0  0  0  0  0  0  0  0  0  0  0  0
    2.5549   -2.7894    4.5352 H   0  0  0  0  0  0  0  0  0  0  0  0
    2.2907   -0.1356    2.2553 H   0  0  0  0  0  0  0  0  0  0  0  0
    2.6568   -0.5496    3.8716 H   0  0  0  0  0  0  0  0  0  0  0  0
  1  3  1  0  0  0  0
  1  7  2  0  0  0  0
  1  8  1  0  0  0  0
  2 45  1  0  0  0  0
  2 46  1  0  0  0  0
  3  2  1  0  0  0  0
  3  4  1  0  0  0  0
  3 47  1  6  0  0  0
  4  5  1  0  0  0  0
  4  6  1  0  0  0  0
  4 48  1  0  0  0  0
  5 49  1  0  0  0  0
  5 50  1  0  0  0  0
  5 51  1  0  0  0  0
  6 52  1  0  0  0  0
  6 53  1  0  0  0  0
  6 54  1  0  0  0  0
  8  9  1  0  0  0  0
  9 10  1  0  0  0  0
  9 55  1  0  0  0  0
  9 56  1  0  0  0  0
 10 57  1  0  0  0  0
 10 58  1  0  0  0  0
 11 10  1  0  0  0  0
 11 12  1  0  0  0  0
 11 33  1  0  0  0  0
 11 59  1  1  0  0  0
 12 13  1  0  0  0  0
 12 60  1  0  0  0  0
 12 61  1  0  0  0  0
 13 14  1  0  0  0  0
 14 15  1  0  0  0  0
 14 32  2  0  0  0  0
 15 16  1  0  0  0  0
 15 62  1  0  0  0  0
 15 63  1  0  0  0  0
 16 17  1  0  0  0  0
 16 64  1  0  0  0  0
 16 65  1  0  0  0  0
 17 18  1  0  0  0  0
 17 66  1  0  0  0  0
 17 67  1  0  0  0  0
 18 19  1  0  0  0  0
 18 68  1  0  0  0  0
 18 69  1  0  0  0  0
 19 20  1  0  0  0  0
 19 70  1  0  0  0  0
 19 71  1  0  0  0  0
 20 21  1  0  0  0  0
 20 72  1  0  0  0  0
 20 73  1  0  0  0  0
 21 22  1  0  0  0  0
 21 74  1  0  0  0  0
 21 75  1  0  0  0  0
 22 23  1  0  0  0  0
 22 76  1  0  0  0  0
 22 77  1  0  0  0  0
 23 24  1  0  0  0  0
 23 78  1  0  0  0  0
 23 79  1  0  0  0  0
 24 25  1  0  0  0  0
 24 80  1  0  0  0  0
 24 81  1  0  0  0  0
 25 26  1  0  0  0  0
 25 82  1  0  0  0  0
 25 83  1  0  0  0  0
 26 27  1  0  0  0  0
 26 84  1  0  0  0  0
 26 85  1  0  0  0  0
 27 28  1  0  0  0  0
 27 86  1  0  0  0  0
 27 87  1  0  0  0  0
 28 29  1  0  0  0  0
 28 88  1  0  0  0  0
 28 89  1  0  0  0  0
 29 30  1  0  0  0  0
 29 90  1  0  0  0  0
 29 91  1  0  0  0  0
 30 31  1  0  0  0  0
 30 92  1  0  0  0  0
 30 93  1  0  0  0  0
 31 94  1  0  0  0  0
 31 95  1  0  0  0  0
 31 96  1  0  0  0  0
 33 36  1  0  0  0  0
 33 97  1  0  0  0  0
 33 98  1  0  0  0  0
 34 35  2  0  0  0  0
 34 42  1  0  0  0  0
 35 36  1  0  0  0  0
 35 99  1  0  0  0  0
 36 37  1  0  0  0  0
 37 38  1  0  0  0  0
 37 42  2  0  0  0  0
 38 39  2  0  0  0  0
 39 40  1  0  0  0  0
 39 44  1  0  0  0  0
 40 41  1  0  0  0  0
 40100  1  0  0  0  0
 41 42  1  0  0  0  0
 41 43  2  0  0  0  0
 44101  1  0  0  0  0
 44102  1  0  0  0  0
M  END
>  <DRUGBANK_ID>
DB15651

>  <COMMON_NAME>
Valomaciclovir stearate

>  <CAS_NUMBER>
195156-77-5

>  <UNII>
506LI1B3A3

>  <SYNONYMS>
Valomaciclovir stearate

$$$$
