
 OpenBabel10282417193D

 42 45  0  0  1  0  0  0  0  0999 V2000
    6.8438   -7.7379    4.1335 C   0  0  0  0  0  0  0  0  0  0  0  0
   10.3399   -6.6151    9.7425 C   0  0  0  0  0  0  0  0  0  0  0  0
   10.7584   -5.7903    8.6815 C   0  0  0  0  0  0  0  0  0  0  0  0
    9.1195   -7.2875    9.6467 C   0  0  0  0  0  0  0  0  0  0  0  0
    9.9826   -5.6906    7.5534 C   0  0  0  0  0  0  0  0  0  0  0  0
    6.8842   -7.6841    8.5668 C   0  0  0  0  0  0  0  0  0  0  0  0
    6.5637   -8.0690    7.1340 C   0  0  0  0  0  0  0  0  0  0  0  0
    6.2788   -4.6600    3.9819 C   0  0  0  0  0  0  0  0  0  0  0  0
    5.3377   -5.8015    4.4173 C   0  0  0  0  0  0  0  0  0  0  0  0
    6.5398   -2.4533    5.1497 C   0  0  0  0  0  0  0  0  0  0  0  0
    7.7217   -3.5824    7.3903 C   0  0  0  0  0  0  0  0  0  0  0  0
    8.2655   -7.0769    8.5827 C   0  0  0  0  0  0  0  0  0  0  0  0
    6.7373   -3.8445    5.1649 C   0  0  0  0  0  0  0  0  0  0  0  0
    8.6955   -6.2617    7.5016 C   0  0  0  0  0  0  0  0  0  0  0  0
    7.3985   -4.4124    6.2899 C   0  0  0  0  0  0  0  0  0  0  0  0
    6.9146   -1.6479    6.2349 C   0  0  0  0  0  0  0  0  0  0  0  0
    6.4522   -6.7520    6.3391 C   0  0  1  0  0  0  0  0  0  0  0  0
    7.5103   -2.2141    7.3481 C   0  0  0  0  0  0  0  0  0  0  0  0
    7.7650   -5.9115    6.3460 C   0  0  2  0  0  0  0  0  0  0  0  0
    6.6143    0.0478    6.1667 Cl  0  0  0  0  0  0  0  0  0  0  0  0
    5.9169   -7.0163    4.9977 N   0  0  0  0  0  0  0  0  0  0  0  0
    7.9116   -1.4572    8.4121 O   0  0  0  0  0  0  0  0  0  0  0  0
    5.6835   -6.1765    6.8785 H   0  0  0  0  0  0  0  0  0  0  0  0
    8.3608   -6.1290    5.4458 H   0  0  0  0  0  0  0  0  0  0  0  0
    6.3158   -8.5532    3.6323 H   0  0  0  0  0  0  0  0  0  0  0  0
    7.6549   -8.2112    4.6988 H   0  0  0  0  0  0  0  0  0  0  0  0
    7.3298   -7.1086    3.3838 H   0  0  0  0  0  0  0  0  0  0  0  0
   10.9581   -6.7233   10.6149 H   0  0  0  0  0  0  0  0  0  0  0  0
   11.6874   -5.2326    8.7703 H   0  0  0  0  0  0  0  0  0  0  0  0
    8.8423   -7.9865   10.4445 H   0  0  0  0  0  0  0  0  0  0  0  0
   10.3303   -5.0712    6.7141 H   0  0  0  0  0  0  0  0  0  0  0  0
    6.8284   -8.5550    9.2293 H   0  0  0  0  0  0  0  0  0  0  0  0
    6.1429   -6.9597    8.9327 H   0  0  0  0  0  0  0  0  0  0  0  0
    7.3501   -8.7324    6.7493 H   0  0  0  0  0  0  0  0  0  0  0  0
    5.6218   -8.6276    7.0845 H   0  0  0  0  0  0  0  0  0  0  0  0
    7.3370   -4.6023    3.6606 H   0  0  0  0  0  0  0  0  0  0  0  0
    6.3599   -4.9983    2.9341 H   0  0  0  0  0  0  0  0  0  0  0  0
    4.7201   -6.0832    3.5491 H   0  0  0  0  0  0  0  0  0  0  0  0
    4.5688   -5.4132    5.1070 H   0  0  0  0  0  0  0  0  0  0  0  0
    6.0929   -1.9869    4.2791 H   0  0  0  0  0  0  0  0  0  0  0  0
    8.1368   -3.9946    8.3059 H   0  0  0  0  0  0  0  0  0  0  0  0
    8.8498   -1.6631    8.5697 H   0  0  0  0  0  0  0  0  0  0  0  0
  1 25  1  0  0  0  0
  1 26  1  0  0  0  0
  1 27  1  0  0  0  0
  2 28  1  0  0  0  0
  3  2  2  0  0  0  0
  3 29  1  0  0  0  0
  4  2  1  0  0  0  0
  4 30  1  0  0  0  0
  5  3  1  0  0  0  0
  5 31  1  0  0  0  0
  6 32  1  0  0  0  0
  6 33  1  0  0  0  0
  7  6  1  0  0  0  0
  7 34  1  0  0  0  0
  7 35  1  0  0  0  0
  8 36  1  0  0  0  0
  8 37  1  0  0  0  0
  9  8  1  0  0  0  0
  9 38  1  0  0  0  0
  9 39  1  0  0  0  0
 10 40  1  0  0  0  0
 11 41  1  0  0  0  0
 12  4  2  0  0  0  0
 12  6  1  0  0  0  0
 13  8  1  0  0  0  0
 13 10  2  0  0  0  0
 14  5  2  0  0  0  0
 14 12  1  0  0  0  0
 15 11  2  0  0  0  0
 15 13  1  0  0  0  0
 16 10  1  0  0  0  0
 17  7  1  0  0  0  0
 17 23  1  1  0  0  0
 18 11  1  0  0  0  0
 18 16  2  0  0  0  0
 19 14  1  0  0  0  0
 19 15  1  0  0  0  0
 19 17  1  0  0  0  0
 19 24  1  6  0  0  0
 20 16  1  0  0  0  0
 21  9  1  0  0  0  0
 21 17  1  0  0  0  0
 21  1  1  0  0  0  0
 22 42  1  0  0  0  0
 22 18  1  0  0  0  0
M  END
>  <DRUGBANK_ID>
DB12273

>  <COMMON_NAME>
Ecopipam

>  <CAS_NUMBER>
112108-01-7

>  <UNII>
0X748O646K

>  <SYNONYMS>
Ecopipam

$$$$
