
 OpenBabel10282417213D

 82 86  0  0  0  0  0  0  0  0999 V2000
   -1.2129    0.2587    0.3046 O   0  0  0  0  0  0  0  0  0  0  0  0
    6.2340   -3.6489   -6.0751 O   0  0  0  0  0  0  0  0  0  0  0  0
    2.8271   -0.5334   -3.9240 C   0  0  2  0  0  0  0  0  0  0  0  0
    1.1509   -0.5669   -3.6359 C   0  0  1  0  0  0  0  0  0  0  0  0
    0.7342    0.5156   -2.3969 C   0  0  2  0  0  0  0  0  0  0  0  0
    3.8657   -1.7908   -4.5289 C   0  0  1  0  0  0  0  0  0  0  0  0
    0.8153    2.2350   -2.0025 C   0  0  1  0  0  0  0  0  0  0  0  0
    3.4433    0.7520   -3.3013 C   0  0  0  0  0  0  0  0  0  0  0  0
    2.5702    2.1452   -2.7390 C   0  0  0  0  0  0  0  0  0  0  0  0
   -0.2105    2.6730   -0.4358 C   0  0  0  0  0  0  0  0  0  0  0  0
    0.6502   -2.3092   -3.0162 C   0  0  0  0  0  0  0  0  0  0  0  0
    3.0973   -3.5284   -4.7384 C   0  0  0  0  0  0  0  0  0  0  0  0
   -0.8009    0.2889   -2.5799 C   0  0  0  0  0  0  0  0  0  0  0  0
    4.1168   -1.6382   -5.9490 C   0  0  0  0  0  0  0  0  0  0  0  0
    1.5893   -3.7268   -3.7656 C   0  0  0  0  0  0  0  0  0  0  0  0
    4.2155   -3.5063   -7.3819 C   0  0  1  0  0  0  0  0  0  0  0  0
    2.8351   -1.5818   -2.9488 C   0  0  0  0  0  0  0  0  0  0  0  0
    3.4324   -4.2575   -6.0027 C   0  0  0  0  0  0  0  0  0  0  0  0
   -0.9097    1.3509   -0.5404 C   0  0  2  0  0  0  0  0  0  0  0  0
    1.6170    0.1834   -1.0240 C   0  0  0  0  0  0  0  0  0  0  0  0
    5.0314   -2.8412   -6.3186 C   0  0  1  0  0  0  0  0  0  0  0  0
   -1.5802    1.3178   -1.8773 C   0  0  0  0  0  0  0  0  0  0  0  0
    5.2909   -1.7092   -3.7655 C   0  0  0  0  0  0  0  0  0  0  0  0
    2.8824   -5.5498   -6.6668 C   0  0  0  0  0  0  0  0  0  0  0  0
    2.9735   -2.9163   -8.1675 C   0  0  0  0  0  0  0  0  0  0  0  0
   -1.6796    3.6435   -0.0249 C   0  0  0  0  0  0  0  0  0  0  0  0
   -0.2576    2.5536    1.3723 C   0  0  0  0  0  0  0  0  0  0  0  0
    1.7007   -5.1542   -7.6324 C   0  0  0  0  0  0  0  0  0  0  0  0
    1.6944   -3.6191   -7.8052 C   0  0  0  0  0  0  0  0  0  0  0  0
    5.3688   -2.8588   -8.3590 C   0  0  0  0  0  0  0  0  0  0  0  0
    1.5914   -5.9742   -8.9525 C   0  0  0  0  0  0  0  0  0  0  0  0
    0.3632   -5.3643   -6.9027 C   0  0  0  0  0  0  0  0  0  0  0  0
    0.6495   -0.4250   -4.6076 H   0  0  0  0  0  0  0  0  0  0  0  0
    0.3693    2.7807   -2.8983 H   0  0  0  0  0  0  0  0  0  0  0  0
   -2.1352    0.0729    0.2895 H   0  0  0  0  0  0  0  0  0  0  0  0
    5.9411   -4.4690   -5.5821 H   0  0  0  0  0  0  0  0  0  0  0  0
    4.2680    1.0513   -3.9822 H   0  0  0  0  0  0  0  0  0  0  0  0
    3.9826    0.4238   -2.4059 H   0  0  0  0  0  0  0  0  0  0  0  0
    2.6740    2.7966   -3.6261 H   0  0  0  0  0  0  0  0  0  0  0  0
    3.2470    2.5290   -1.9793 H   0  0  0  0  0  0  0  0  0  0  0  0
   -0.4077   -2.5651   -2.9633 H   0  0  0  0  0  0  0  0  0  0  0  0
    0.8865   -2.2859   -1.9088 H   0  0  0  0  0  0  0  0  0  0  0  0
   -1.0691    0.3080   -3.6549 H   0  0  0  0  0  0  0  0  0  0  0  0
   -1.0618   -0.6968   -2.2277 H   0  0  0  0  0  0  0  0  0  0  0  0
    4.1783   -0.7267   -6.5246 H   0  0  0  0  0  0  0  0  0  0  0  0
    3.0502   -1.8282   -6.1677 H   0  0  0  0  0  0  0  0  0  0  0  0
    1.0585   -3.8934   -4.6737 H   0  0  0  0  0  0  0  0  0  0  0  0
    1.2073   -4.6421   -3.2706 H   0  0  0  0  0  0  0  0  0  0  0  0
    2.2587   -2.0542   -3.7321 H   0  0  0  0  0  0  0  0  0  0  0  0
    3.4465   -2.3207   -2.4705 H   0  0  0  0  0  0  0  0  0  0  0  0
    2.3142   -1.2500   -2.1533 H   0  0  0  0  0  0  0  0  0  0  0  0
    0.0889    1.1047   -0.4171 H   0  0  0  0  0  0  0  0  0  0  0  0
    2.5471   -0.3738   -0.9117 H   0  0  0  0  0  0  0  0  0  0  0  0
    2.0678    1.1164   -0.6369 H   0  0  0  0  0  0  0  0  0  0  0  0
    0.9978   -0.3545   -0.3269 H   0  0  0  0  0  0  0  0  0  0  0  0
    4.9966   -3.1635   -5.3057 H   0  0  0  0  0  0  0  0  0  0  0  0
   -1.3653    2.0043   -2.7187 H   0  0  0  0  0  0  0  0  0  0  0  0
   -2.2745    2.1508   -1.7856 H   0  0  0  0  0  0  0  0  0  0  0  0
    6.0769   -1.4551   -4.4814 H   0  0  0  0  0  0  0  0  0  0  0  0
    5.3478   -0.9156   -3.0198 H   0  0  0  0  0  0  0  0  0  0  0  0
    5.5602   -2.6374   -3.2455 H   0  0  0  0  0  0  0  0  0  0  0  0
    3.6749   -6.0867   -7.2371 H   0  0  0  0  0  0  0  0  0  0  0  0
    2.6012   -6.2624   -5.8895 H   0  0  0  0  0  0  0  0  0  0  0  0
    3.1047   -2.9387   -9.2563 H   0  0  0  0  0  0  0  0  0  0  0  0
    2.7781   -1.8502   -7.9786 H   0  0  0  0  0  0  0  0  0  0  0  0
   -1.3590    4.6384    0.3027 H   0  0  0  0  0  0  0  0  0  0  0  0
   -2.6390    3.5500   -0.5355 H   0  0  0  0  0  0  0  0  0  0  0  0
   -2.2083    3.3047    0.9483 H   0  0  0  0  0  0  0  0  0  0  0  0
    0.5517    2.3034    2.0349 H   0  0  0  0  0  0  0  0  0  0  0  0
   -0.6363    3.4842    1.8840 H   0  0  0  0  0  0  0  0  0  0  0  0
   -1.1246    1.8848    1.6485 H   0  0  0  0  0  0  0  0  0  0  0  0
    0.8614   -3.2529   -8.4033 H   0  0  0  0  0  0  0  0  0  0  0  0
    1.4726   -3.2262   -6.8035 H   0  0  0  0  0  0  0  0  0  0  0  0
    5.3493   -3.2355   -9.3816 H   0  0  0  0  0  0  0  0  0  0  0  0
    5.1945   -1.7592   -8.4465 H   0  0  0  0  0  0  0  0  0  0  0  0
    6.4253   -2.9125   -8.0513 H   0  0  0  0  0  0  0  0  0  0  0  0
    1.9359   -7.0083   -8.8196 H   0  0  0  0  0  0  0  0  0  0  0  0
    0.5381   -6.0673   -9.2630 H   0  0  0  0  0  0  0  0  0  0  0  0
    2.0971   -5.5439   -9.8236 H   0  0  0  0  0  0  0  0  0  0  0  0
    0.5253   -5.6126   -5.8576 H   0  0  0  0  0  0  0  0  0  0  0  0
   -0.2377   -4.4468   -6.9351 H   0  0  0  0  0  0  0  0  0  0  0  0
   -0.2616   -6.1256   -7.3657 H   0  0  0  0  0  0  0  0  0  0  0  0
  1 35  1  0  0  0  0
  2 36  1  0  0  0  0
  3  4  1  0  0  0  0
  3  6  1  0  0  0  0
  3  8  1  0  0  0  0
  3 17  1  6  0  0  0
  4  5  1  0  0  0  0
  4 11  1  0  0  0  0
  4 33  1  1  0  0  0
  5  7  1  0  0  0  0
  5 13  1  0  0  0  0
  5 20  1  6  0  0  0
  6 12  1  0  0  0  0
  6 14  1  0  0  0  0
  6 23  1  1  0  0  0
  7  9  1  0  0  0  0
  7 10  1  0  0  0  0
  7 34  1  1  0  0  0
  8  9  1  0  0  0  0
  8 37  1  0  0  0  0
  8 38  1  0  0  0  0
  9 39  1  0  0  0  0
  9 40  1  0  0  0  0
 10 19  1  0  0  0  0
 10 26  1  0  0  0  0
 10 27  1  0  0  0  0
 11 15  1  0  0  0  0
 11 41  1  0  0  0  0
 11 42  1  0  0  0  0
 12 15  1  0  0  0  0
 12 18  2  0  0  0  0
 13 22  1  0  0  0  0
 13 43  1  0  0  0  0
 13 44  1  0  0  0  0
 14 21  1  0  0  0  0
 14 45  1  0  0  0  0
 14 46  1  0  0  0  0
 15 47  1  0  0  0  0
 15 48  1  0  0  0  0
 16 18  1  0  0  0  0
 16 21  1  0  0  0  0
 16 25  1  0  0  0  0
 16 30  1  1  0  0  0
 17 49  1  0  0  0  0
 17 50  1  0  0  0  0
 17 51  1  0  0  0  0
 18 24  1  0  0  0  0
 19 22  1  0  0  0  0
 19 52  1  6  0  0  0
 19  1  1  0  0  0  0
 20 53  1  0  0  0  0
 20 54  1  0  0  0  0
 20 55  1  0  0  0  0
 21  2  1  0  0  0  0
 21 56  1  1  0  0  0
 22 57  1  0  0  0  0
 22 58  1  0  0  0  0
 23 59  1  0  0  0  0
 23 60  1  0  0  0  0
 23 61  1  0  0  0  0
 24 28  1  0  0  0  0
 24 62  1  0  0  0  0
 24 63  1  0  0  0  0
 25 29  1  0  0  0  0
 25 64  1  0  0  0  0
 25 65  1  0  0  0  0
 26 66  1  0  0  0  0
 26 67  1  0  0  0  0
 26 68  1  0  0  0  0
 27 69  1  0  0  0  0
 27 70  1  0  0  0  0
 27 71  1  0  0  0  0
 28 29  1  0  0  0  0
 28 31  1  0  0  0  0
 28 32  1  0  0  0  0
 29 72  1  0  0  0  0
 29 73  1  0  0  0  0
 30 74  1  0  0  0  0
 30 75  1  0  0  0  0
 30 76  1  0  0  0  0
 31 77  1  0  0  0  0
 31 78  1  0  0  0  0
 31 79  1  0  0  0  0
 32 80  1  0  0  0  0
 32 81  1  0  0  0  0
 32 82  1  0  0  0  0
M  END
>  <DRUGBANK_ID>
DB14555

>  <COMMON_NAME>
Ursadiol

>  <CAS_NUMBER>
37384-13-7

>  <UNII>
3D089V7L0K

>  <SYNONYMS>
Coflodiol

$$$$
