
 OpenBabel10282417143D

122121  0  0  1  0  0  0  0  0999 V2000
    0.0034   -0.4458   -0.5843 C   0  0  0  0  0  0  0  0  0  0  0  0
   -4.3372   20.2873   19.2162 C   0  0  0  0  0  0  0  0  0  0  0  0
   -0.4280    1.0119   -0.5910 C   0  0  0  0  0  0  0  0  0  0  0  0
   -4.1557   18.7799   19.1608 C   0  0  0  0  0  0  0  0  0  0  0  0
   -1.9282    1.1265   -0.3153 C   0  0  0  0  0  0  0  0  0  0  0  0
   -5.4989   18.0747   19.3602 C   0  0  0  0  0  0  0  0  0  0  0  0
   -2.2892    0.5402    1.0533 C   0  0  0  0  0  0  0  0  0  0  0  0
   -6.5123   18.4582   18.2731 C   0  0  0  0  0  0  0  0  0  0  0  0
   -1.5183    1.2550    2.1700 C   0  0  0  0  0  0  0  0  0  0  0  0
   -5.9897   18.1045   16.8829 C   0  0  0  0  0  0  0  0  0  0  0  0
   -1.8734    2.7465    2.2044 C   0  0  0  0  0  0  0  0  0  0  0  0
   -5.6642   16.6243   16.8006 C   0  0  0  0  0  0  0  0  0  0  0  0
   -3.3670    2.9284    2.4579 C   0  0  0  0  0  0  0  0  0  0  0  0
   -6.9305   15.8479   16.9489 C   0  0  0  0  0  0  0  0  0  0  0  0
   -3.7678    2.2260    3.7434 C   0  0  0  0  0  0  0  0  0  0  0  0
   -7.4461   15.1339   15.9554 C   0  0  0  0  0  0  0  0  0  0  0  0
   -3.0848    2.9008    4.8880 C   0  0  0  0  0  0  0  0  0  0  0  0
   -3.7490    3.5720    5.8220 C   0  0  0  0  0  0  0  0  0  0  0  0
   -6.7206   14.9192   14.6662 C   0  0  0  0  0  0  0  0  0  0  0  0
   -5.2399    3.5703    5.9006 C   0  0  0  0  0  0  0  0  0  0  0  0
   -5.6467    2.8518    7.1754 C   0  0  0  0  0  0  0  0  0  0  0  0
   -6.3570   13.4566   14.5704 C   0  0  0  0  0  0  0  0  0  0  0  0
   -5.1609    3.6452    8.3832 C   0  0  0  0  0  0  0  0  0  0  0  0
   -7.6304   12.6526   14.4929 C   0  0  0  0  0  0  0  0  0  0  0  0
   -5.7016    5.0748    8.2875 C   0  0  0  0  0  0  0  0  0  0  0  0
   -8.4922   13.1363   13.3084 C   0  0  0  0  0  0  0  0  0  0  0  0
   -7.2333    5.0145    8.2399 C   0  0  0  0  0  0  0  0  0  0  0  0
   -7.7580   13.2089   11.9432 C   0  0  0  0  0  0  0  0  0  0  0  0
   -7.7337    4.3382    9.5200 C   0  0  0  0  0  0  0  0  0  0  0  0
   -7.4768   11.8520   11.4151 C   0  0  0  0  0  0  0  0  0  0  0  0
   -7.1212    5.0492   10.7164 C   0  0  0  0  0  0  0  0  0  0  0  0
   -8.8416   11.2125   11.2540 C   0  0  0  0  0  0  0  0  0  0  0  0
   -5.7748    8.6403   14.6129 C   0  0  0  0  0  0  0  0  0  0  0  0
   -5.3997    8.1110   13.1830 C   0  0  0  0  0  0  0  0  0  0  0  0
   -7.9281    8.6140    9.3531 C   0  0  0  0  0  0  0  0  0  0  0  0
  -10.1353    8.4147   10.8252 C   0  0  0  0  0  0  0  0  0  0  0  0
   -9.4674    8.8914    9.5306 C   0  0  1  0  0  0  0  0  0  0  0  0
   -7.8474    6.3302   10.6167 C   0  0  0  0  0  0  0  0  0  0  0  0
   -9.7816   11.3982   10.1372 C   0  0  0  0  0  0  0  0  0  0  0  0
   -7.0859    8.4176   15.1408 O   0  0  0  0  0  0  0  0  0  0  0  0
   -8.9132    6.3010   11.1400 O   0  0  0  0  0  0  0  0  0  0  0  0
  -10.4275   12.4285   10.0212 O   0  0  0  0  0  0  0  0  0  0  0  0
   -7.7690    9.7584   13.3248 O   0  0  0  0  0  0  0  0  0  0  0  0
   -7.7450    7.4902   12.7842 O   0  0  0  0  0  0  0  0  0  0  0  0
   -7.3302    7.3153    9.7979 O   0  0  0  0  0  0  0  0  0  0  0  0
   -5.9716    8.8116   12.0191 O   0  0  0  0  0  0  0  0  0  0  0  0
   -9.4316    8.8116   12.0191 O   0  0  0  0  0  0  0  0  0  0  0  0
   -9.8734   10.3229    9.2829 O   0  0  0  0  0  0  0  0  0  0  0  0
   -7.7016    8.8116   12.0191 P   0  0  3  0  0  0  0  0  0  0  0  0
   -7.4886   15.8998   17.8818 H   0  0  0  0  0  0  0  0  0  0  0  0
   -8.4067   14.6479   16.1273 H   0  0  0  0  0  0  0  0  0  0  0  0
   -1.9977    2.8908    4.9448 H   0  0  0  0  0  0  0  0  0  0  0  0
   -3.1708    4.0909    6.5854 H   0  0  0  0  0  0  0  0  0  0  0  0
   -9.9436    8.3470    8.7087 H   0  0  0  0  0  0  0  0  0  0  0  0
   -0.1843   -0.9274    0.3810 H   0  0  0  0  0  0  0  0  0  0  0  0
    1.0731   -0.5340   -0.7763 H   0  0  0  0  0  0  0  0  0  0  0  0
   -0.5501   -0.9990   -1.3486 H   0  0  0  0  0  0  0  0  0  0  0  0
   -4.7696   20.5727   20.1796 H   0  0  0  0  0  0  0  0  0  0  0  0
   -3.3834   20.7985   19.0824 H   0  0  0  0  0  0  0  0  0  0  0  0
   -5.0045   20.6484   18.4270 H   0  0  0  0  0  0  0  0  0  0  0  0
    0.1553    1.5721    0.1494 H   0  0  0  0  0  0  0  0  0  0  0  0
   -0.1947    1.4736   -1.5541 H   0  0  0  0  0  0  0  0  0  0  0  0
   -3.4533   18.4544   19.9338 H   0  0  0  0  0  0  0  0  0  0  0  0
   -3.6941   18.4980   18.2064 H   0  0  0  0  0  0  0  0  0  0  0  0
   -2.2314    2.1788   -0.3787 H   0  0  0  0  0  0  0  0  0  0  0  0
   -2.4993    0.6158   -1.0965 H   0  0  0  0  0  0  0  0  0  0  0  0
   -5.9142   18.3152   20.3425 H   0  0  0  0  0  0  0  0  0  0  0  0
   -5.3363   16.9900   19.3820 H   0  0  0  0  0  0  0  0  0  0  0  0
   -3.3727    0.6015    1.2043 H   0  0  0  0  0  0  0  0  0  0  0  0
   -2.0846   -0.5331    1.0948 H   0  0  0  0  0  0  0  0  0  0  0  0
   -6.7538   19.5230   18.3067 H   0  0  0  0  0  0  0  0  0  0  0  0
   -7.4655   17.9558   18.4690 H   0  0  0  0  0  0  0  0  0  0  0  0
   -1.7227    0.7618    3.1256 H   0  0  0  0  0  0  0  0  0  0  0  0
   -0.4372    1.1410    2.0627 H   0  0  0  0  0  0  0  0  0  0  0  0
   -5.0876   18.6734   16.6341 H   0  0  0  0  0  0  0  0  0  0  0  0
   -6.7251   18.3856   16.1172 H   0  0  0  0  0  0  0  0  0  0  0  0
   -1.2783    3.2487    2.9734 H   0  0  0  0  0  0  0  0  0  0  0  0
   -1.5997    3.2552    1.2764 H   0  0  0  0  0  0  0  0  0  0  0  0
   -4.9438   16.2708   17.5393 H   0  0  0  0  0  0  0  0  0  0  0  0
   -5.1408   16.4816   15.8594 H   0  0  0  0  0  0  0  0  0  0  0  0
   -3.6215    3.9948    2.4945 H   0  0  0  0  0  0  0  0  0  0  0  0
   -3.9677    2.5228    1.6365 H   0  0  0  0  0  0  0  0  0  0  0  0
   -4.8531    2.2408    3.7722 H   0  0  0  0  0  0  0  0  0  0  0  0
   -3.5386    1.1596    3.7753 H   0  0  0  0  0  0  0  0  0  0  0  0
   -5.7938   15.4633   14.5350 H   0  0  0  0  0  0  0  0  0  0  0  0
   -7.3408   15.2916   13.8497 H   0  0  0  0  0  0  0  0  0  0  0  0
   -5.5968    4.5984    5.8106 H   0  0  0  0  0  0  0  0  0  0  0  0
   -5.7584    3.0701    5.0898 H   0  0  0  0  0  0  0  0  0  0  0  0
   -6.7363    2.7322    7.1754 H   0  0  0  0  0  0  0  0  0  0  0  0
   -5.2589    1.8287    7.2071 H   0  0  0  0  0  0  0  0  0  0  0  0
   -5.7497   13.1241   15.4213 H   0  0  0  0  0  0  0  0  0  0  0  0
   -5.7338   13.2797   13.6872 H   0  0  0  0  0  0  0  0  0  0  0  0
   -5.4756    3.1376    9.3002 H   0  0  0  0  0  0  0  0  0  0  0  0
   -4.0712    3.6634    8.4521 H   0  0  0  0  0  0  0  0  0  0  0  0
   -8.2310   12.7088   15.4085 H   0  0  0  0  0  0  0  0  0  0  0  0
   -7.3032   11.6206   14.4972 H   0  0  0  0  0  0  0  0  0  0  0  0
   -5.3085    5.6671    9.1180 H   0  0  0  0  0  0  0  0  0  0  0  0
   -5.3254    5.6304    7.4267 H   0  0  0  0  0  0  0  0  0  0  0  0
   -8.8885   14.1367   13.4937 H   0  0  0  0  0  0  0  0  0  0  0  0
   -9.4099   12.5443   13.2993 H   0  0  0  0  0  0  0  0  0  0  0  0
   -7.6428    6.0171    8.0963 H   0  0  0  0  0  0  0  0  0  0  0  0
   -7.6339    4.4948    7.3688 H   0  0  0  0  0  0  0  0  0  0  0  0
   -6.8206   13.7645   11.9790 H   0  0  0  0  0  0  0  0  0  0  0  0
   -8.3878   13.6963   11.1990 H   0  0  0  0  0  0  0  0  0  0  0  0
   -8.8318    4.3946    9.5448 H   0  0  0  0  0  0  0  0  0  0  0  0
   -7.5042    3.2728    9.5650 H   0  0  0  0  0  0  0  0  0  0  0  0
   -6.7724   11.3619   12.1125 H   0  0  0  0  0  0  0  0  0  0  0  0
   -6.9234   11.7845   10.4756 H   0  0  0  0  0  0  0  0  0  0  0  0
   -7.4455    4.5648   11.6466 H   0  0  0  0  0  0  0  0  0  0  0  0
   -6.0414    5.1424   10.8170 H   0  0  0  0  0  0  0  0  0  0  0  0
   -9.4316   11.0424   12.1641 H   0  0  0  0  0  0  0  0  0  0  0  0
   -8.4714   10.3094   10.9097 H   0  0  0  0  0  0  0  0  0  0  0  0
   -5.1498    8.1308   15.3439 H   0  0  0  0  0  0  0  0  0  0  0  0
   -5.5840    9.7156   14.6533 H   0  0  0  0  0  0  0  0  0  0  0  0
   -5.6145    7.0385   13.0887 H   0  0  0  0  0  0  0  0  0  0  0  0
   -4.3158    8.2026   13.0793 H   0  0  0  0  0  0  0  0  0  0  0  0
   -7.2982    9.3788    9.8219 H   0  0  0  0  0  0  0  0  0  0  0  0
   -7.6307    8.8140    8.3178 H   0  0  0  0  0  0  0  0  0  0  0  0
  -11.1667    8.7600   10.9225 H   0  0  0  0  0  0  0  0  0  0  0  0
  -10.3590    7.3552   10.7446 H   0  0  0  0  0  0  0  0  0  0  0  0
   -7.7233    8.6762   14.4382 H   0  0  0  0  0  0  0  0  0  0  0  0
   -8.0217   10.6774   13.2812 H   0  0  0  0  0  0  0  0  0  0  0  0
  1 55  1  0  0  0  0
  1 56  1  0  0  0  0
  1 57  1  0  0  0  0
  2 58  1  0  0  0  0
  2 59  1  0  0  0  0
  2 60  1  0  0  0  0
  3  1  1  0  0  0  0
  3 61  1  0  0  0  0
  3 62  1  0  0  0  0
  4  2  1  0  0  0  0
  4 63  1  0  0  0  0
  4 64  1  0  0  0  0
  5  3  1  0  0  0  0
  5 65  1  0  0  0  0
  5 66  1  0  0  0  0
  6  4  1  0  0  0  0
  6 67  1  0  0  0  0
  6 68  1  0  0  0  0
  7  5  1  0  0  0  0
  7 69  1  0  0  0  0
  7 70  1  0  0  0  0
  8  6  1  0  0  0  0
  8 71  1  0  0  0  0
  8 72  1  0  0  0  0
  9  7  1  0  0  0  0
  9 73  1  0  0  0  0
  9 74  1  0  0  0  0
 10  8  1  0  0  0  0
 10 75  1  0  0  0  0
 10 76  1  0  0  0  0
 11  9  1  0  0  0  0
 11 77  1  0  0  0  0
 11 78  1  0  0  0  0
 12 10  1  0  0  0  0
 12 79  1  0  0  0  0
 12 80  1  0  0  0  0
 13 11  1  0  0  0  0
 13 81  1  0  0  0  0
 13 82  1  0  0  0  0
 14 12  1  0  0  0  0
 15 13  1  0  0  0  0
 15 83  1  0  0  0  0
 15 84  1  0  0  0  0
 16 14  2  0  0  0  0
 17 15  1  0  0  0  0
 18 17  2  0  0  0  0
 19 16  1  0  0  0  0
 19 85  1  0  0  0  0
 19 86  1  0  0  0  0
 20 18  1  0  0  0  0
 20 87  1  0  0  0  0
 20 88  1  0  0  0  0
 21 20  1  0  0  0  0
 21 89  1  0  0  0  0
 21 90  1  0  0  0  0
 22 19  1  0  0  0  0
 22 91  1  0  0  0  0
 22 92  1  0  0  0  0
 23 21  1  0  0  0  0
 23 93  1  0  0  0  0
 23 94  1  0  0  0  0
 24 22  1  0  0  0  0
 24 95  1  0  0  0  0
 24 96  1  0  0  0  0
 25 23  1  0  0  0  0
 25 97  1  0  0  0  0
 25 98  1  0  0  0  0
 26 24  1  0  0  0  0
 26 99  1  0  0  0  0
 26100  1  0  0  0  0
 27 25  1  0  0  0  0
 27101  1  0  0  0  0
 27102  1  0  0  0  0
 28 26  1  0  0  0  0
 28103  1  0  0  0  0
 28104  1  0  0  0  0
 29 27  1  0  0  0  0
 29105  1  0  0  0  0
 29106  1  0  0  0  0
 30 28  1  0  0  0  0
 30107  1  0  0  0  0
 30108  1  0  0  0  0
 31 29  1  0  0  0  0
 31109  1  0  0  0  0
 31110  1  0  0  0  0
 32 30  1  0  0  0  0
 32111  1  0  0  0  0
 32112  1  0  0  0  0
 33113  1  0  0  0  0
 33114  1  0  0  0  0
 34 33  1  0  0  0  0
 34115  1  0  0  0  0
 34116  1  0  0  0  0
 35117  1  0  0  0  0
 35118  1  0  0  0  0
 36119  1  0  0  0  0
 36120  1  0  0  0  0
 37 35  1  0  0  0  0
 37 36  1  0  0  0  0
 37 48  1  0  0  0  0
 37 54  1  6  0  0  0
 38 31  1  0  0  0  0
 39 32  1  0  0  0  0
 40 33  1  0  0  0  0
 40121  1  0  0  0  0
 41 38  2  0  0  0  0
 42 39  2  0  0  0  0
 43122  1  0  0  0  0
 45 35  1  0  0  0  0
 45 38  1  0  0  0  0
 46 34  1  0  0  0  0
 47 36  1  0  0  0  0
 48 39  1  0  0  0  0
 49 43  1  0  0  0  0
 49 44  2  0  0  0  0
 49 46  1  0  0  0  0
 49 47  1  0  0  0  0
 50 14  1  0  0  0  0
 51 16  1  0  0  0  0
 52 17  1  0  0  0  0
 53 18  1  0  0  0  0
M  END
>  <DRUGBANK_ID>
DB04752

>  <COMMON_NAME>
Phosphatidyl ethanol

>  <SYNONYMS>
PEth

$$$$
