
 OpenBabel10282417183D

 40 40  0  0  0  0  0  0  0  0999 V2000
   -1.3377   -0.4366    0.1983 C   0  0  0  0  0  0  0  0  0  0  0  0
    0.4307    1.2475   -0.4871 C   0  0  0  0  0  0  0  0  0  0  0  0
   -0.9306    0.9050   -0.1414 C   0  0  0  0  0  0  0  0  0  0  0  0
   -0.3388   -1.4030    0.3037 C   0  0  0  0  0  0  0  0  0  0  0  0
    1.2588    0.1143   -0.7558 C   0  0  0  0  0  0  0  0  0  0  0  0
   -2.7689   -0.9053    0.3162 C   0  0  0  0  0  0  0  0  0  0  0  0
    0.8795   -1.1556   -0.2797 C   0  0  0  0  0  0  0  0  0  0  0  0
    0.7831    2.6507   -0.2986 N   0  0  0  0  0  0  0  0  0  0  0  0
   -2.4389   -2.8916   -1.3914 C   0  0  0  0  0  0  0  0  0  0  0  0
    1.9613    3.2819    0.0253 C   0  0  0  0  0  0  0  0  0  0  0  0
   -3.2691   -1.6837   -0.9369 C   0  0  3  0  0  0  0  0  0  0  0  0
   -2.9198   -4.1209   -1.0882 O   0  0  0  0  0  0  0  0  0  0  0  0
   -1.3944   -2.7737   -1.9968 O   0  0  0  0  0  0  0  0  0  0  0  0
    2.0343    4.5183    0.1045 O   0  0  0  0  0  0  0  0  0  0  0  0
   -2.3958    2.5189   -0.0182 I   0  0  0  0  0  0  0  0  0  0  0  0
   -0.4462   -3.3052    1.2645 I   0  0  0  0  0  0  0  0  0  0  0  0
    3.3496   -0.3059   -1.5747 I   0  0  0  0  0  0  0  0  0  0  0  0
    3.1567    2.4444    0.2689 C   0  0  0  0  0  0  0  0  0  0  0  0
   -4.7458   -2.0563   -0.7890 C   0  0  0  0  0  0  0  0  0  0  0  0
    3.1782    1.6339    1.5863 C   0  0  0  0  0  0  0  0  0  0  0  0
   -5.6412   -0.8352   -0.7697 C   0  0  0  0  0  0  0  0  0  0  0  0
    2.0003    0.7558    1.9890 C   0  0  0  0  0  0  0  0  0  0  0  0
   -2.9162   -1.4790    1.2389 H   0  0  0  0  0  0  0  0  0  0  0  0
   -3.4138   -0.0386    0.4562 H   0  0  0  0  0  0  0  0  0  0  0  0
    1.6246   -1.9441   -0.2290 H   0  0  0  0  0  0  0  0  0  0  0  0
    0.0101    3.2994   -0.1360 H   0  0  0  0  0  0  0  0  0  0  0  0
   -3.1894   -1.0040   -1.7977 H   0  0  0  0  0  0  0  0  0  0  0  0
   -3.7921   -4.1951   -0.6689 H   0  0  0  0  0  0  0  0  0  0  0  0
    3.1700    1.9273   -0.6678 H   0  0  0  0  0  0  0  0  0  0  0  0
    4.0866    3.0173    0.1823 H   0  0  0  0  0  0  0  0  0  0  0  0
   -5.0456   -2.6940   -1.6299 H   0  0  0  0  0  0  0  0  0  0  0  0
   -4.8975   -2.6368    0.1298 H   0  0  0  0  0  0  0  0  0  0  0  0
    4.0536    0.9735    1.5633 H   0  0  0  0  0  0  0  0  0  0  0  0
    3.3216    2.3418    2.4024 H   0  0  0  0  0  0  0  0  0  0  0  0
   -5.4850   -0.2384   -1.6731 H   0  0  0  0  0  0  0  0  0  0  0  0
   -6.6871   -1.1426   -0.7213 H   0  0  0  0  0  0  0  0  0  0  0  0
   -5.4446   -0.2046    0.1006 H   0  0  0  0  0  0  0  0  0  0  0  0
    2.0668   -0.1553    1.4122 H   0  0  0  0  0  0  0  0  0  0  0  0
    2.0100    0.3544    3.0032 H   0  0  0  0  0  0  0  0  0  0  0  0
    1.0420    1.2657    1.8864 H   0  0  0  0  0  0  0  0  0  0  0  0
  2  3  1  0  0  0  0
  3  1  2  0  0  0  0
  4  1  1  0  0  0  0
  5  7  1  0  0  0  0
  5  2  2  0  0  0  0
  6  1  1  0  0  0  0
  6 23  1  0  0  0  0
  6 24  1  0  0  0  0
  7  4  2  0  0  0  0
  7 25  1  0  0  0  0
  8  2  1  0  0  0  0
  8 26  1  0  0  0  0
  9 11  1  0  0  0  0
 10  8  1  0  0  0  0
 11  6  1  0  0  0  0
 11 27  1  0  0  0  0
 12  9  1  0  0  0  0
 12 28  1  0  0  0  0
 13  9  2  0  0  0  0
 14 10  2  0  0  0  0
 15  3  1  0  0  0  0
 16  4  1  0  0  0  0
 17  5  1  0  0  0  0
 18 10  1  0  0  0  0
 18 29  1  0  0  0  0
 18 30  1  0  0  0  0
 19 11  1  0  0  0  0
 19 31  1  0  0  0  0
 19 32  1  0  0  0  0
 20 18  1  0  0  0  0
 20 33  1  0  0  0  0
 20 34  1  0  0  0  0
 21 19  1  0  0  0  0
 21 35  1  0  0  0  0
 21 36  1  0  0  0  0
 21 37  1  0  0  0  0
 22 20  1  0  0  0  0
 22 38  1  0  0  0  0
 22 39  1  0  0  0  0
 22 40  1  0  0  0  0
M  END
>  <DRUGBANK_ID>
DB09340

>  <COMMON_NAME>
Tyropanoic acid

>  <CAS_NUMBER>
27293-82-9

>  <UNII>
4F05V145YR

$$$$
