
 OpenBabel10282417223D

177181  0  0  1  0  0  0  0  0999 V2000
    0.9943    0.0363   -0.1223 C   0  0  0  0  0  0  0  0  0  0  0  0
    0.5450   -0.8488    1.0287 C   0  0  0  0  0  0  0  0  0  0  0  0
    1.0438   -0.2828    2.3589 C   0  0  0  0  0  0  0  0  0  0  0  0
    0.4929    1.1266    2.6021 C   0  0  0  0  0  0  0  0  0  0  0  0
   -1.0397    1.1120    2.6153 C   0  0  0  0  0  0  0  0  0  0  0  0
   -1.5446    0.2083    3.7438 C   0  0  0  0  0  0  0  0  0  0  0  0
   -1.0365    0.7333    5.0896 C   0  0  0  0  0  0  0  0  0  0  0  0
   -1.5480    2.1603    5.3074 C   0  0  0  0  0  0  0  0  0  0  0  0
   -3.0793    2.1564    5.3017 C   0  0  0  0  0  0  0  0  0  0  0  0
   -3.5853    1.2455    6.4233 C   0  0  0  0  0  0  0  0  0  0  0  0
   -3.0647    1.7664    7.7653 C   0  0  0  0  0  0  0  0  0  0  0  0
   -3.5688    3.1969    7.9768 C   0  0  0  0  0  0  0  0  0  0  0  0
   -5.0986    3.1919    7.9781 C   0  0  0  0  0  0  0  0  0  0  0  0
   -5.5849    2.2680    9.0978 C   0  0  0  0  0  0  0  0  0  0  0  0
   -5.0334    2.7812   10.4349 C   0  0  0  0  0  0  0  0  0  0  0  0
   -5.5535    4.1914   10.6858 C   0  0  0  0  0  0  0  0  0  0  0  0
   -7.0496    4.2204   10.5066 C   0  0  0  0  0  0  0  0  0  0  0  0
   -7.6717    3.4581   11.5940 C   0  0  0  0  0  0  0  0  0  0  0  0
   -8.3298    4.1862   12.3174 O   0  0  0  0  0  0  0  0  0  0  0  0
   -7.3832    2.1322   11.7080 O   0  0  0  0  0  0  0  0  0  0  0  0
   -7.7517    1.2033   12.7977 C   0  0  0  0  0  0  0  0  0  0  0  0
   -7.4688    1.6868   14.2325 C   0  0  3  0  0  0  0  0  0  0  0  0
   -7.9059    3.1038   14.5767 C   0  0  0  0  0  0  0  0  0  0  0  0
   -9.8090    3.4772   14.4460 S   0  0  0  0  0  0  0  0  0  0  0  0
  -10.4461    2.6491   12.5571 S   0  0  0  0  0  0  0  0  0  0  0  0
  -12.1606    2.4197   12.6209 C   0  0  0  0  0  0  0  0  0  0  0  0
  -12.7757    1.1690   12.6113 C   0  0  0  0  0  0  0  0  0  0  0  0
  -14.1587    1.1094   12.7139 C   0  0  0  0  0  0  0  0  0  0  0  0
  -14.9029    2.2957   12.8397 C   0  0  0  0  0  0  0  0  0  0  0  0
  -16.3908    2.2441   13.0501 C   0  0  0  0  0  0  0  0  0  0  0  0
  -16.7982    2.6999   14.3650 O   0  0  0  0  0  0  0  0  0  0  0  0
  -16.3975    1.9094   15.4223 C   0  0  0  0  0  0  0  0  0  0  0  0
  -15.6833    0.9256   15.3171 O   0  0  0  0  0  0  0  0  0  0  0  0
  -16.8898    2.3158   16.6483 N   0  0  0  0  0  0  0  0  0  0  0  0
  -17.3183    1.4896   17.7150 C   0  0  1  0  0  0  0  0  0  0  0  0
  -18.4534    0.6024   18.0381 C   0  0  0  0  0  0  0  0  0  0  0  0
  -19.5354    1.6040   18.2309 N   0  0  0  0  0  0  0  0  0  0  0  0
  -20.8438    1.4299   17.7271 C   0  0  0  0  0  0  0  0  0  0  0  0
  -21.3676    2.6446   17.6880 C   0  0  0  0  0  0  0  0  0  0  0  0
  -20.4398    3.5797   18.3864 C   0  0  1  0  0  0  0  0  0  0  0  0
  -20.4992    3.6802   19.9263 C   0  0  0  0  0  0  0  0  0  0  0  0
  -21.3370    4.7844   20.3130 O   0  0  0  0  0  0  0  0  0  0  0  0
  -21.1497    6.0408   19.8144 C   0  0  0  0  0  0  0  0  0  0  0  0
  -19.9657    6.3256   19.1891 N   0  0  0  0  0  0  0  0  0  0  0  0
  -22.0275    6.8908   19.8901 O   0  0  0  0  0  0  0  0  0  0  0  0
  -18.9309    3.1470   18.0767 C   0  0  2  0  0  0  0  0  0  0  0  0
  -18.8859    4.4331   17.2929 O   0  0  0  0  0  0  0  0  0  0  0  0
  -17.6123    4.9736   16.8457 C   0  0  0  0  0  0  0  0  0  0  0  0
  -18.2157    2.4797   16.9373 C   0  0  1  0  0  0  0  0  0  0  0  0
  -21.8284    2.9786   16.3313 C   0  0  0  0  0  0  0  0  0  0  0  0
  -21.3966    3.9516   15.7227 O   0  0  0  0  0  0  0  0  0  0  0  0
  -22.7420    2.0114   15.6738 C   0  0  0  0  0  0  0  0  0  0  0  0
  -23.5884    2.5262   14.7126 N   0  0  0  0  0  0  0  0  0  0  0  0
  -22.5479    0.7125   15.9563 C   0  0  0  0  0  0  0  0  0  0  0  0
  -23.2871   -0.3432   15.1950 C   0  0  0  0  0  0  0  0  0  0  0  0
  -21.3655    0.3432   16.8144 C   0  0  0  0  0  0  0  0  0  0  0  0
  -20.8251   -0.7507   16.7078 O   0  0  0  0  0  0  0  0  0  0  0  0
  -14.2614    3.5364   12.7873 C   0  0  0  0  0  0  0  0  0  0  0  0
  -12.8982    3.5923   12.6125 C   0  0  0  0  0  0  0  0  0  0  0  0
   -7.9490    0.8503   15.3206 O   0  0  0  0  0  0  0  0  0  0  0  0
   -9.2629    0.4775   15.3531 C   0  0  0  0  0  0  0  0  0  0  0  0
  -10.0670    0.6028   14.4771 O   0  0  0  0  0  0  0  0  0  0  0  0
   -9.6364   -0.3259   16.5492 C   0  0  0  0  0  0  0  0  0  0  0  0
   -9.1197   -1.7245   16.2619 C   0  0  0  0  0  0  0  0  0  0  0  0
   -7.5884   -1.7456   16.2941 C   0  0  0  0  0  0  0  0  0  0  0  0
   -7.0928   -1.1970   17.6369 C   0  0  0  0  0  0  0  0  0  0  0  0
   -7.6170   -2.0920   18.7614 C   0  0  0  0  0  0  0  0  0  0  0  0
   -7.1079   -3.5183   18.5392 C   0  0  0  0  0  0  0  0  0  0  0  0
   -5.5762   -3.5103   18.5291 C   0  0  0  0  0  0  0  0  0  0  0  0
   -5.0683   -2.9817   19.8731 C   0  0  0  0  0  0  0  0  0  0  0  0
   -5.5841   -3.8859   20.9958 C   0  0  0  0  0  0  0  0  0  0  0  0
   -5.0779   -5.3130   20.7674 C   0  0  0  0  0  0  0  0  0  0  0  0
   -3.5464   -5.3133   20.7619 C   0  0  0  0  0  0  0  0  0  0  0  0
   -3.0305   -4.7938   22.1068 C   0  0  0  0  0  0  0  0  0  0  0  0
   -3.5393   -5.6947   23.2358 C   0  0  0  0  0  0  0  0  0  0  0  0
   -3.0402   -7.1288   23.0268 C   0  0  0  0  0  0  0  0  0  0  0  0
   -1.5082   -7.1744   23.0421 C   0  0  0  0  0  0  0  0  0  0  0  0
   -0.9533   -6.6477   24.3662 C   0  0  0  0  0  0  0  0  0  0  0  0
   -1.4601   -7.4926   25.5235 C   0  0  0  0  0  0  0  0  0  0  0  0
    0.6012    1.0548   -0.0376 H   0  0  0  0  0  0  0  0  0  0  0  0
    0.6404   -0.3575   -1.0751 H   0  0  0  0  0  0  0  0  0  0  0  0
    2.0862    0.0983   -0.1360 H   0  0  0  0  0  0  0  0  0  0  0  0
   -0.5479   -0.9390    1.0198 H   0  0  0  0  0  0  0  0  0  0  0  0
    0.9216   -1.8666    0.8972 H   0  0  0  0  0  0  0  0  0  0  0  0
    0.7593   -0.9611    3.1729 H   0  0  0  0  0  0  0  0  0  0  0  0
    2.1372   -0.2583    2.3787 H   0  0  0  0  0  0  0  0  0  0  0  0
    0.9027    1.5238    3.5367 H   0  0  0  0  0  0  0  0  0  0  0  0
    0.8485    1.8345    1.8498 H   0  0  0  0  0  0  0  0  0  0  0  0
   -1.4159    2.1357    2.7105 H   0  0  0  0  0  0  0  0  0  0  0  0
   -1.4588    0.7810    1.6619 H   0  0  0  0  0  0  0  0  0  0  0  0
   -2.6370    0.1501    3.7091 H   0  0  0  0  0  0  0  0  0  0  0  0
   -1.2352   -0.8315    3.6115 H   0  0  0  0  0  0  0  0  0  0  0  0
   -1.3424    0.0542    5.8905 H   0  0  0  0  0  0  0  0  0  0  0  0
    0.0539    0.7168    5.1582 H   0  0  0  0  0  0  0  0  0  0  0  0
   -1.1336    2.5637    6.2355 H   0  0  0  0  0  0  0  0  0  0  0  0
   -1.1775    2.8585    4.5528 H   0  0  0  0  0  0  0  0  0  0  0  0
   -3.4520    3.1803    5.3926 H   0  0  0  0  0  0  0  0  0  0  0  0
   -3.4953    1.8313    4.3450 H   0  0  0  0  0  0  0  0  0  0  0  0
   -4.6766    1.1876    6.3889 H   0  0  0  0  0  0  0  0  0  0  0  0
   -3.2829    0.2040    6.2884 H   0  0  0  0  0  0  0  0  0  0  0  0
   -3.3670    1.0874    8.5671 H   0  0  0  0  0  0  0  0  0  0  0  0
   -1.9745    1.7454    7.8331 H   0  0  0  0  0  0  0  0  0  0  0  0
   -3.1493    3.6047    8.8997 H   0  0  0  0  0  0  0  0  0  0  0  0
   -3.2006    3.8936    7.2205 H   0  0  0  0  0  0  0  0  0  0  0  0
   -5.4715    4.2151    8.0827 H   0  0  0  0  0  0  0  0  0  0  0  0
   -5.5217    2.8713    7.0221 H   0  0  0  0  0  0  0  0  0  0  0  0
   -6.6766    2.2042    9.0710 H   0  0  0  0  0  0  0  0  0  0  0  0
   -5.2916    1.2264    8.9524 H   0  0  0  0  0  0  0  0  0  0  0  0
   -5.2876    2.0916   11.2396 H   0  0  0  0  0  0  0  0  0  0  0  0
   -3.9434    2.7839   10.4812 H   0  0  0  0  0  0  0  0  0  0  0  0
   -5.2592    4.5315   11.6852 H   0  0  0  0  0  0  0  0  0  0  0  0
   -5.1229    4.9186    9.9902 H   0  0  0  0  0  0  0  0  0  0  0  0
   -7.3756    5.2612   10.6452 H   0  0  0  0  0  0  0  0  0  0  0  0
   -7.4815    3.9274    9.5510 H   0  0  0  0  0  0  0  0  0  0  0  0
   -8.7607    0.8408   12.6415 H   0  0  0  0  0  0  0  0  0  0  0  0
   -7.1919    0.2663   12.6276 H   0  0  0  0  0  0  0  0  0  0  0  0
   -6.3660    1.6487   14.3184 H   0  0  0  0  0  0  0  0  0  0  0  0
   -7.6154    3.3227   15.6102 H   0  0  0  0  0  0  0  0  0  0  0  0
   -7.2736    3.8066   14.0233 H   0  0  0  0  0  0  0  0  0  0  0  0
  -12.1925    0.2506   12.5563 H   0  0  0  0  0  0  0  0  0  0  0  0
  -14.6478    0.1383   12.7624 H   0  0  0  0  0  0  0  0  0  0  0  0
  -16.8390    2.8822   12.2708 H   0  0  0  0  0  0  0  0  0  0  0  0
  -16.7886    1.2406   12.8687 H   0  0  0  0  0  0  0  0  0  0  0  0
  -16.9398    1.8641   18.6780 H   0  0  0  0  0  0  0  0  0  0  0  0
  -18.3293    0.0071   18.9506 H   0  0  0  0  0  0  0  0  0  0  0  0
  -18.6367   -0.0652   17.1964 H   0  0  0  0  0  0  0  0  0  0  0  0
  -20.7847    4.5314   17.9771 H   0  0  0  0  0  0  0  0  0  0  0  0
  -20.8911    2.7678   20.4002 H   0  0  0  0  0  0  0  0  0  0  0  0
  -19.5098    3.8479   20.3750 H   0  0  0  0  0  0  0  0  0  0  0  0
  -19.9915    7.1639   18.6229 H   0  0  0  0  0  0  0  0  0  0  0  0
  -19.3484    5.6261   18.8039 H   0  0  0  0  0  0  0  0  0  0  0  0
  -16.7817    4.7394   17.5219 H   0  0  0  0  0  0  0  0  0  0  0  0
  -17.4115    4.6093   15.8326 H   0  0  0  0  0  0  0  0  0  0  0  0
  -17.6435    6.0633   16.7203 H   0  0  0  0  0  0  0  0  0  0  0  0
  -18.8699    2.1627   16.1276 H   0  0  0  0  0  0  0  0  0  0  0  0
  -23.6158    3.5473   14.7119 H   0  0  0  0  0  0  0  0  0  0  0  0
  -24.4900    2.0721   14.6306 H   0  0  0  0  0  0  0  0  0  0  0  0
  -24.3655   -0.2799   15.3874 H   0  0  0  0  0  0  0  0  0  0  0  0
  -23.1312   -0.1926   14.1194 H   0  0  0  0  0  0  0  0  0  0  0  0
  -22.9614   -1.3561   15.4365 H   0  0  0  0  0  0  0  0  0  0  0  0
  -14.8032    4.4665   12.9081 H   0  0  0  0  0  0  0  0  0  0  0  0
  -12.3855    4.5449   12.5025 H   0  0  0  0  0  0  0  0  0  0  0  0
   -9.3202    0.1396   17.4852 H   0  0  0  0  0  0  0  0  0  0  0  0
  -10.7297   -0.3333   16.5933 H   0  0  0  0  0  0  0  0  0  0  0  0
   -9.5511   -2.4212   16.9868 H   0  0  0  0  0  0  0  0  0  0  0  0
   -9.4659   -2.0718   15.2819 H   0  0  0  0  0  0  0  0  0  0  0  0
   -7.2326   -2.7581   16.0901 H   0  0  0  0  0  0  0  0  0  0  0  0
   -7.1425   -1.1844   15.4715 H   0  0  0  0  0  0  0  0  0  0  0  0
   -6.0019   -1.1240   17.6276 H   0  0  0  0  0  0  0  0  0  0  0  0
   -7.3962   -0.1630   17.8193 H   0  0  0  0  0  0  0  0  0  0  0  0
   -7.3164   -1.6846   19.7309 H   0  0  0  0  0  0  0  0  0  0  0  0
   -8.7088   -2.0923   18.8199 H   0  0  0  0  0  0  0  0  0  0  0  0
   -7.5225   -4.1828   19.3009 H   0  0  0  0  0  0  0  0  0  0  0  0
   -7.4814   -3.9579   17.6112 H   0  0  0  0  0  0  0  0  0  0  0  0
   -5.2030   -4.5119   18.3016 H   0  0  0  0  0  0  0  0  0  0  0  0
   -5.1616   -2.9093   17.7154 H   0  0  0  0  0  0  0  0  0  0  0  0
   -3.9776   -2.9138   19.8556 H   0  0  0  0  0  0  0  0  0  0  0  0
   -5.3729   -1.9486   20.0605 H   0  0  0  0  0  0  0  0  0  0  0  0
   -5.2802   -3.4825   21.9649 H   0  0  0  0  0  0  0  0  0  0  0  0
   -6.6753   -3.8873   21.0651 H   0  0  0  0  0  0  0  0  0  0  0  0
   -5.4946   -5.9790   21.5271 H   0  0  0  0  0  0  0  0  0  0  0  0
   -5.4508   -5.7453   19.8347 H   0  0  0  0  0  0  0  0  0  0  0  0
   -3.1776   -6.3163   20.5337 H   0  0  0  0  0  0  0  0  0  0  0  0
   -3.1326   -4.7096   19.9492 H   0  0  0  0  0  0  0  0  0  0  0  0
   -1.9395   -4.7323   22.0860 H   0  0  0  0  0  0  0  0  0  0  0  0
   -3.3354   -3.7595   22.2944 H   0  0  0  0  0  0  0  0  0  0  0  0
   -3.2316   -5.2860   24.2014 H   0  0  0  0  0  0  0  0  0  0  0  0
   -4.6321   -5.6922   23.3012 H   0  0  0  0  0  0  0  0  0  0  0  0
   -3.4712   -7.7839   23.7873 H   0  0  0  0  0  0  0  0  0  0  0  0
   -3.4098   -7.5540   22.0878 H   0  0  0  0  0  0  0  0  0  0  0  0
   -1.1695   -8.1994   22.8657 H   0  0  0  0  0  0  0  0  0  0  0  0
   -1.0900   -6.5896   22.2135 H   0  0  0  0  0  0  0  0  0  0  0  0
    0.1395   -6.6563   24.3369 H   0  0  0  0  0  0  0  0  0  0  0  0
   -1.2322   -5.5991   24.5251 H   0  0  0  0  0  0  0  0  0  0  0  0
   -1.1519   -8.5328   25.3841 H   0  0  0  0  0  0  0  0  0  0  0  0
   -1.0722   -7.1224   26.4726 H   0  0  0  0  0  0  0  0  0  0  0  0
   -2.5521   -7.4736   25.6013 H   0  0  0  0  0  0  0  0  0  0  0  0
  1  2  1  0  0  0  0
  1 80  1  0  0  0  0
  1 81  1  0  0  0  0
  1 82  1  0  0  0  0
  2  3  1  0  0  0  0
  2 83  1  0  0  0  0
  2 84  1  0  0  0  0
  3  4  1  0  0  0  0
  3 85  1  0  0  0  0
  3 86  1  0  0  0  0
  4  5  1  0  0  0  0
  4 87  1  0  0  0  0
  4 88  1  0  0  0  0
  5  6  1  0  0  0  0
  5 89  1  0  0  0  0
  5 90  1  0  0  0  0
  6  7  1  0  0  0  0
  6 91  1  0  0  0  0
  6 92  1  0  0  0  0
  7  8  1  0  0  0  0
  7 93  1  0  0  0  0
  7 94  1  0  0  0  0
  8  9  1  0  0  0  0
  8 95  1  0  0  0  0
  8 96  1  0  0  0  0
  9 10  1  0  0  0  0
  9 97  1  0  0  0  0
  9 98  1  0  0  0  0
 10 11  1  0  0  0  0
 10 99  1  0  0  0  0
 10100  1  0  0  0  0
 11 12  1  0  0  0  0
 11101  1  0  0  0  0
 11102  1  0  0  0  0
 12 13  1  0  0  0  0
 12103  1  0  0  0  0
 12104  1  0  0  0  0
 13 14  1  0  0  0  0
 13105  1  0  0  0  0
 13106  1  0  0  0  0
 14 15  1  0  0  0  0
 14107  1  0  0  0  0
 14108  1  0  0  0  0
 15 16  1  0  0  0  0
 15109  1  0  0  0  0
 15110  1  0  0  0  0
 16 17  1  0  0  0  0
 16111  1  0  0  0  0
 16112  1  0  0  0  0
 17 18  1  0  0  0  0
 17113  1  0  0  0  0
 17114  1  0  0  0  0
 18 19  2  0  0  0  0
 18 20  1  0  0  0  0
 20 21  1  0  0  0  0
 21 22  1  0  0  0  0
 21115  1  0  0  0  0
 21116  1  0  0  0  0
 22 23  1  0  0  0  0
 22 60  1  0  0  0  0
 22117  1  0  0  0  0
 23 24  1  0  0  0  0
 23118  1  0  0  0  0
 23119  1  0  0  0  0
 24 25  1  0  0  0  0
 25 26  1  0  0  0  0
 26 27  2  0  0  0  0
 26 59  1  0  0  0  0
 27 28  1  0  0  0  0
 27120  1  0  0  0  0
 28 29  2  0  0  0  0
 28121  1  0  0  0  0
 29 30  1  0  0  0  0
 29 58  1  0  0  0  0
 30 31  1  0  0  0  0
 30122  1  0  0  0  0
 30123  1  0  0  0  0
 31 32  1  0  0  0  0
 32 33  2  0  0  0  0
 32 34  1  0  0  0  0
 35 34  1  0  0  0  0
 35 36  1  0  0  0  0
 35124  1  6  0  0  0
 36 37  1  0  0  0  0
 36125  1  0  0  0  0
 36126  1  0  0  0  0
 37 38  1  0  0  0  0
 38 39  2  0  0  0  0
 38 56  1  0  0  0  0
 39 50  1  0  0  0  0
 40 39  1  0  0  0  0
 40 41  1  0  0  0  0
 40127  1  6  0  0  0
 41 42  1  0  0  0  0
 41128  1  0  0  0  0
 41129  1  0  0  0  0
 42 43  1  0  0  0  0
 43 44  1  0  0  0  0
 43 45  2  0  0  0  0
 44130  1  0  0  0  0
 44131  1  0  0  0  0
 46 40  1  0  0  0  0
 46 37  1  0  0  0  0
 46 49  1  0  0  0  0
 46 47  1  6  0  0  0
 47 48  1  0  0  0  0
 48132  1  0  0  0  0
 48133  1  0  0  0  0
 48134  1  0  0  0  0
 49 34  1  0  0  0  0
 49 35  1  0  0  0  0
 49135  1  6  0  0  0
 50 52  1  0  0  0  0
 50 51  2  0  0  0  0
 52 54  2  0  0  0  0
 52 53  1  0  0  0  0
 53136  1  0  0  0  0
 53137  1  0  0  0  0
 54 56  1  0  0  0  0
 54 55  1  0  0  0  0
 55138  1  0  0  0  0
 55139  1  0  0  0  0
 55140  1  0  0  0  0
 56 57  2  0  0  0  0
 58 59  2  0  0  0  0
 58141  1  0  0  0  0
 59142  1  0  0  0  0
 60 61  1  0  0  0  0
 61 62  2  0  0  0  0
 61 63  1  0  0  0  0
 63 64  1  0  0  0  0
 63143  1  0  0  0  0
 63144  1  0  0  0  0
 64 65  1  0  0  0  0
 64145  1  0  0  0  0
 64146  1  0  0  0  0
 65 66  1  0  0  0  0
 65147  1  0  0  0  0
 65148  1  0  0  0  0
 66 67  1  0  0  0  0
 66149  1  0  0  0  0
 66150  1  0  0  0  0
 67 68  1  0  0  0  0
 67151  1  0  0  0  0
 67152  1  0  0  0  0
 68 69  1  0  0  0  0
 68153  1  0  0  0  0
 68154  1  0  0  0  0
 69 70  1  0  0  0  0
 69155  1  0  0  0  0
 69156  1  0  0  0  0
 70 71  1  0  0  0  0
 70157  1  0  0  0  0
 70158  1  0  0  0  0
 71 72  1  0  0  0  0
 71159  1  0  0  0  0
 71160  1  0  0  0  0
 72 73  1  0  0  0  0
 72161  1  0  0  0  0
 72162  1  0  0  0  0
 73 74  1  0  0  0  0
 73163  1  0  0  0  0
 73164  1  0  0  0  0
 74 75  1  0  0  0  0
 74165  1  0  0  0  0
 74166  1  0  0  0  0
 75 76  1  0  0  0  0
 75167  1  0  0  0  0
 75168  1  0  0  0  0
 76 77  1  0  0  0  0
 76169  1  0  0  0  0
 76170  1  0  0  0  0
 77 78  1  0  0  0  0
 77171  1  0  0  0  0
 77172  1  0  0  0  0
 78 79  1  0  0  0  0
 78173  1  0  0  0  0
 78174  1  0  0  0  0
 79175  1  0  0  0  0
 79176  1  0  0  0  0
 79177  1  0  0  0  0
M  END
>  <DRUGBANK_ID>
DB15372

>  <COMMON_NAME>
JNJ-27548547

>  <CAS_NUMBER>
303983-00-8

>  <UNII>
3I8JKL1CHB

>  <SYNONYMS>
PROMITIL

$$$$
