
 OpenBabel10282417153D

 33 35  0  0  0  0  0  0  0  0999 V2000
   -1.4825    0.0214   -0.1908 C   0  0  0  0  0  0  0  0  0  0  0  0
   -0.7203    1.2836    0.2176 C   0  0  0  0  0  0  0  0  0  0  0  0
   -0.7335   -1.2452    0.2351 C   0  0  0  0  0  0  0  0  0  0  0  0
    2.2951    2.1094    2.3495 C   0  0  0  0  0  0  0  0  0  0  0  0
    2.8414    3.2959    2.8399 C   0  0  0  0  0  0  0  0  0  0  0  0
    5.9409    5.0606    2.8713 C   0  0  0  0  0  0  0  0  0  0  0  0
    6.7506    4.1941    2.1679 C   0  0  0  0  0  0  0  0  0  0  0  0
    0.7270    1.2335   -0.2686 C   0  0  0  0  0  0  0  0  0  0  0  0
    0.7314   -1.2125   -0.2117 C   0  0  0  0  0  0  0  0  0  0  0  0
    4.4325    1.5548    1.3795 C   0  0  0  0  0  0  0  0  0  0  0  0
    3.0803    1.2482    1.5854 C   0  0  0  0  0  0  0  0  0  0  0  0
    4.1687    3.6289    2.6137 C   0  0  0  0  0  0  0  0  0  0  0  0
    4.9905    2.7353    1.8774 C   0  0  0  0  0  0  0  0  0  0  0  0
    2.4993   -0.0196    1.0638 C   0  0  0  0  0  0  0  0  0  0  0  0
    4.6397    4.7921    3.1049 N   0  0  0  0  0  0  0  0  0  0  0  0
    6.2917    3.0268    1.6574 N   0  0  0  0  0  0  0  0  0  0  0  0
    1.3743    0.0257    0.2372 N   0  0  0  0  0  0  0  0  0  0  0  0
    3.0419   -1.0677    1.4152 O   0  0  0  0  0  0  0  0  0  0  0  0
   -2.4828    0.0309    0.2578 H   0  0  0  0  0  0  0  0  0  0  0  0
   -1.6211    0.0168   -1.2789 H   0  0  0  0  0  0  0  0  0  0  0  0
   -1.2191    2.1690   -0.1891 H   0  0  0  0  0  0  0  0  0  0  0  0
   -0.7423    1.3681    1.3110 H   0  0  0  0  0  0  0  0  0  0  0  0
   -0.7768   -1.3335    1.3275 H   0  0  0  0  0  0  0  0  0  0  0  0
   -1.2366   -2.1256   -0.1816 H   0  0  0  0  0  0  0  0  0  0  0  0
    1.2581    1.8681    2.5618 H   0  0  0  0  0  0  0  0  0  0  0  0
    2.2193    3.9755    3.4171 H   0  0  0  0  0  0  0  0  0  0  0  0
    6.3145    5.9977    3.2693 H   0  0  0  0  0  0  0  0  0  0  0  0
    7.7978    4.4166    1.9944 H   0  0  0  0  0  0  0  0  0  0  0  0
    0.7580    1.1854   -1.3636 H   0  0  0  0  0  0  0  0  0  0  0  0
    1.2611    2.1395    0.0158 H   0  0  0  0  0  0  0  0  0  0  0  0
    1.2586   -2.1000    0.1503 H   0  0  0  0  0  0  0  0  0  0  0  0
    0.7796   -1.2268   -1.3083 H   0  0  0  0  0  0  0  0  0  0  0  0
    5.0682    0.8696    0.8224 H   0  0  0  0  0  0  0  0  0  0  0  0
  1 19  1  0  0  0  0
  1 20  1  0  0  0  0
  2  1  1  0  0  0  0
  2 21  1  0  0  0  0
  2 22  1  0  0  0  0
  3  1  1  0  0  0  0
  3 23  1  0  0  0  0
  3 24  1  0  0  0  0
  4 25  1  0  0  0  0
  5  4  2  0  0  0  0
  5 26  1  0  0  0  0
  6 27  1  0  0  0  0
  7  6  1  0  0  0  0
  7 28  1  0  0  0  0
  8  2  1  0  0  0  0
  8 29  1  0  0  0  0
  8 30  1  0  0  0  0
  9  3  1  0  0  0  0
  9 31  1  0  0  0  0
  9 32  1  0  0  0  0
 10 33  1  0  0  0  0
 11  4  1  0  0  0  0
 11 10  2  0  0  0  0
 12  5  1  0  0  0  0
 13 10  1  0  0  0  0
 13 12  2  0  0  0  0
 14 11  1  0  0  0  0
 15  6  2  0  0  0  0
 15 12  1  0  0  0  0
 16  7  2  0  0  0  0
 16 13  1  0  0  0  0
 17  8  1  0  0  0  0
 17  9  1  0  0  0  0
 17 14  1  0  0  0  0
 18 14  2  0  0  0  0
M  END
>  <DRUGBANK_ID>
DB06247

>  <COMMON_NAME>
CX516

>  <CAS_NUMBER>
154235-83-3

>  <UNII>
Z5QU38B4V9

$$$$
