
 OpenBabel10282417183D

 85 87  0  0  0  0  0  0  0  0999 V2000
    4.9454    3.4288   -0.8667 C   0  0  0  0  0  0  0  0  0  0  0  0
    4.9464    4.7024   -0.4076 C   0  0  0  0  0  0  0  0  0  0  0  0
    5.6312    5.5946   -1.1322 C   0  0  0  0  0  0  0  0  0  0  0  0
    6.2759    5.1278   -2.2910 C   0  0  0  0  0  0  0  0  0  0  0  0
    6.3121    3.7728   -2.6743 C   0  0  0  0  0  0  0  0  0  0  0  0
    5.5446    2.8763   -1.9850 C   0  0  0  0  0  0  0  0  0  0  0  0
    5.3564    1.4774   -2.4925 C   0  0  0  0  0  0  0  0  0  0  0  0
    6.0493    1.0567   -3.4274 O   0  0  0  0  0  0  0  0  0  0  0  0
    4.3893    0.6248   -2.0431 N   0  0  0  0  0  0  0  0  0  0  0  0
    3.3488    0.7082   -1.0652 C   0  0  2  0  0  0  0  0  0  0  0  0
    2.4797    1.8905   -0.6681 C   0  0  0  0  0  0  0  0  0  0  0  0
    2.0632    1.7241    0.8497 C   0  0  0  0  0  0  0  0  0  0  0  0
    3.1444    1.8534    2.1264 C   0  0  0  0  0  0  0  0  0  0  0  0
    2.9188    2.8695    2.8085 O   0  0  0  0  0  0  0  0  0  0  0  0
    4.3811    0.9944    2.4673 N   0  0  0  0  0  0  0  0  0  0  0  0
    5.6666   -0.0904    1.9180 C   0  0  0  0  0  0  0  0  0  0  0  0
    6.8949    0.6617    1.1063 C   0  0  1  0  0  0  0  0  0  0  0  0
    7.7276    1.2275    2.2048 C   0  0  0  0  0  0  0  0  0  0  0  0
    8.8470    0.7736    2.4398 O   0  0  0  0  0  0  0  0  0  0  0  0
    7.2041    2.2201    3.0422 N   0  0  0  0  0  0  0  0  0  0  0  0
    5.9866    3.1868    3.2240 C   0  0  1  0  0  0  0  0  0  0  0  0
    5.0130    2.8176    4.4336 C   0  0  0  0  0  0  0  0  0  0  0  0
    5.3981    2.9604    5.8372 C   0  0  0  0  0  0  0  0  0  0  0  0
    4.8273    3.6907    6.5685 O   0  0  0  0  0  0  0  0  0  0  0  0
    6.5009    2.1945    6.1007 O   0  0  0  0  0  0  0  0  0  0  0  0
    6.2446    4.7324    3.1299 C   0  0  0  0  0  0  0  0  0  0  0  0
    5.7963    5.4202    2.2142 O   0  0  0  0  0  0  0  0  0  0  0  0
    6.9467    5.3912    4.0815 N   0  0  0  0  0  0  0  0  0  0  0  0
    7.5216    4.7750    5.2415 C   0  0  1  0  0  0  0  0  0  0  0  0
    9.0188    4.6581    5.2593 C   0  0  0  0  0  0  0  0  0  0  0  0
    9.7426    6.2984    5.3892 S   0  0  0  0  0  0  0  0  0  0  0  0
    6.9976    5.1896    6.6215 C   0  0  0  0  0  0  0  0  0  0  0  0
    6.9808    4.4476    7.5963 O   0  0  0  0  0  0  0  0  0  0  0  0
    6.6941    6.4905    6.7348 O   0  0  0  0  0  0  0  0  0  0  0  0
    7.3865   -0.2389    0.0456 N   0  0  0  0  0  0  0  0  0  0  0  0
    3.9983    0.3649    0.1413 C   0  0  0  0  0  0  0  0  0  0  0  0
    3.4686   -0.4482    0.9045 O   0  0  0  0  0  0  0  0  0  0  0  0
    4.8830    1.3610    0.3603 O   0  0  0  0  0  0  0  0  0  0  0  0
    5.5113    6.8716   -0.6830 N   0  0  0  0  0  0  0  0  0  0  0  0
    6.1849    7.9319   -1.3432 C   0  0  0  0  0  0  0  0  0  0  0  0
    5.1471    8.9495   -1.6852 C   0  0  0  0  0  0  0  0  0  0  0  0
    4.3588    9.4668   -0.7245 C   0  0  0  0  0  0  0  0  0  0  0  0
    3.4867   10.4743   -0.9954 N   0  0  0  0  0  0  0  0  0  0  0  0
    3.2346   10.8131   -2.2951 C   0  0  0  0  0  0  0  0  0  0  0  0
    2.3554   11.6865   -2.6538 N   0  0  0  0  0  0  0  0  0  0  0  0
    2.0886   11.8654   -3.9825 C   0  0  0  0  0  0  0  0  0  0  0  0
    2.6619   11.2988   -4.9899 N   0  0  0  0  0  0  0  0  0  0  0  0
    3.6719   10.4029   -4.7551 C   0  0  0  0  0  0  0  0  0  0  0  0
    4.2682    9.8246   -5.6551 O   0  0  0  0  0  0  0  0  0  0  0  0
    4.0482   10.0896   -3.3386 C   0  0  0  0  0  0  0  0  0  0  0  0
    5.0098    9.2641   -3.0271 N   0  0  0  0  0  0  0  0  0  0  0  0
    4.3237    2.9658   -0.1702 H   0  0  0  0  0  0  0  0  0  0  0  0
    4.3518    4.9326    0.4768 H   0  0  0  0  0  0  0  0  0  0  0  0
    6.7455    5.8159   -2.9740 H   0  0  0  0  0  0  0  0  0  0  0  0
    6.8887    3.4563   -3.5354 H   0  0  0  0  0  0  0  0  0  0  0  0
    4.6109   -0.3432   -2.2691 H   0  0  0  0  0  0  0  0  0  0  0  0
    2.7367   -0.1794   -1.1598 H   0  0  0  0  0  0  0  0  0  0  0  0
    2.7556    2.9387   -0.7973 H   0  0  0  0  0  0  0  0  0  0  0  0
    1.7087    1.8631   -1.4325 H   0  0  0  0  0  0  0  0  0  0  0  0
    1.2761    2.4838    0.9970 H   0  0  0  0  0  0  0  0  0  0  0  0
    1.5535    0.7711    0.9819 H   0  0  0  0  0  0  0  0  0  0  0  0
    4.9190    1.3082    3.2137 H   0  0  0  0  0  0  0  0  0  0  0  0
    6.0075   -0.6451    2.7959 H   0  0  0  0  0  0  0  0  0  0  0  0
    5.3282   -0.9026    1.2650 H   0  0  0  0  0  0  0  0  0  0  0  0
    6.8087    1.5781    0.4925 H   0  0  0  0  0  0  0  0  0  0  0  0
    7.8917    2.3200    3.7692 H   0  0  0  0  0  0  0  0  0  0  0  0
    5.3908    3.1237    2.3143 H   0  0  0  0  0  0  0  0  0  0  0  0
    4.1179    3.4267    4.3598 H   0  0  0  0  0  0  0  0  0  0  0  0
    4.6688    1.7852    4.5926 H   0  0  0  0  0  0  0  0  0  0  0  0
    6.9281    2.5771    6.9019 H   0  0  0  0  0  0  0  0  0  0  0  0
    6.9539    6.3985    3.9677 H   0  0  0  0  0  0  0  0  0  0  0  0
    7.2948    3.7502    5.0713 H   0  0  0  0  0  0  0  0  0  0  0  0
    9.2966    4.0052    6.0968 H   0  0  0  0  0  0  0  0  0  0  0  0
    9.3494    4.1688    4.3364 H   0  0  0  0  0  0  0  0  0  0  0  0
    8.9459    6.8474    4.4559 H   0  0  0  0  0  0  0  0  0  0  0  0
    6.4567    6.5814    7.6837 H   0  0  0  0  0  0  0  0  0  0  0  0
    8.1469    0.1204   -0.5279 H   0  0  0  0  0  0  0  0  0  0  0  0
    7.5221   -1.1983    0.3227 H   0  0  0  0  0  0  0  0  0  0  0  0
    5.0566    1.7297    1.2640 H   0  0  0  0  0  0  0  0  0  0  0  0
    5.1891    6.9949    0.2762 H   0  0  0  0  0  0  0  0  0  0  0  0
    6.9587    8.3382   -0.6914 H   0  0  0  0  0  0  0  0  0  0  0  0
    6.6835    7.6099   -2.2553 H   0  0  0  0  0  0  0  0  0  0  0  0
    4.3448    9.0961    0.2956 H   0  0  0  0  0  0  0  0  0  0  0  0
    3.2260   11.1013   -0.2461 H   0  0  0  0  0  0  0  0  0  0  0  0
    1.2666   12.5688   -4.1940 H   0  0  0  0  0  0  0  0  0  0  0  0
  1  2  1  0  0  0  0
  1  6  2  0  0  0  0
  1 52  1  0  0  0  0
  2  3  2  0  0  0  0
  2 53  1  0  0  0  0
  3  4  1  0  0  0  0
  3 39  1  0  0  0  0
  4  5  2  0  0  0  0
  4 54  1  0  0  0  0
  5  6  1  0  0  0  0
  5 55  1  0  0  0  0
  6  7  1  0  0  0  0
  7  8  2  0  0  0  0
  7  9  1  0  0  0  0
  9 56  1  0  0  0  0
 10 36  1  0  0  0  0
 10 57  1  6  0  0  0
 10 11  1  0  0  0  0
 10  9  1  0  0  0  0
 11 12  1  0  0  0  0
 11 58  1  0  0  0  0
 11 59  1  0  0  0  0
 12 13  1  0  0  0  0
 12 60  1  0  0  0  0
 12 61  1  0  0  0  0
 13 14  2  0  0  0  0
 13 15  1  0  0  0  0
 15 16  1  0  0  0  0
 15 62  1  0  0  0  0
 16 17  1  0  0  0  0
 16 63  1  0  0  0  0
 16 64  1  0  0  0  0
 17 18  1  0  0  0  0
 17 35  1  0  0  0  0
 17 65  1  6  0  0  0
 18 19  2  0  0  0  0
 18 20  1  0  0  0  0
 20 21  1  0  0  0  0
 20 66  1  0  0  0  0
 21 22  1  0  0  0  0
 21 26  1  0  0  0  0
 21 67  1  6  0  0  0
 22 23  1  0  0  0  0
 22 68  1  0  0  0  0
 22 69  1  0  0  0  0
 23 24  2  0  0  0  0
 23 25  1  0  0  0  0
 25 70  1  0  0  0  0
 26 27  2  0  0  0  0
 26 28  1  0  0  0  0
 28 29  1  0  0  0  0
 28 71  1  0  0  0  0
 29 30  1  0  0  0  0
 29 32  1  0  0  0  0
 29 72  1  6  0  0  0
 30 31  1  0  0  0  0
 30 73  1  0  0  0  0
 30 74  1  0  0  0  0
 31 75  1  0  0  0  0
 32 33  2  0  0  0  0
 32 34  1  0  0  0  0
 34 76  1  0  0  0  0
 35 77  1  0  0  0  0
 35 78  1  0  0  0  0
 36 37  2  0  0  0  0
 36 38  1  0  0  0  0
 38 79  1  0  0  0  0
 39 40  1  0  0  0  0
 39 80  1  0  0  0  0
 40 41  1  0  0  0  0
 40 81  1  0  0  0  0
 40 82  1  0  0  0  0
 41 42  2  0  0  0  0
 41 51  1  0  0  0  0
 42 43  1  0  0  0  0
 42 83  1  0  0  0  0
 43 44  1  0  0  0  0
 43 84  1  0  0  0  0
 44 45  2  0  0  0  0
 44 50  1  0  0  0  0
 45 46  1  0  0  0  0
 46 47  2  0  0  0  0
 46 85  1  0  0  0  0
 47 48  1  0  0  0  0
 48 49  2  0  0  0  0
 48 50  1  0  0  0  0
 50 51  2  0  0  0  0
M  END
>  <DRUGBANK_ID>
DB11810

>  <COMMON_NAME>
Etarfolatide

>  <CAS_NUMBER>
479578-27-3

>  <UNII>
40UB1H6Q6T

$$$$
