TPI
 OpenBabel10282417133D

 46 47  0  0  0  0  0  0  0  0999 V2000
   -2.1248    7.2392    4.6406 P   0  0  0  0  0  0  0  0  0  0  0  0
   -1.9523    7.6289    6.2396 O   0  0  0  0  0  0  0  0  0  0  0  0
   -3.7852    7.1240    4.5677 O   0  0  0  0  0  0  0  0  0  0  0  0
   -2.0045    5.7232    4.9313 O   0  0  0  0  0  0  0  0  0  0  0  0
   -2.2671    9.0310    4.2971 C   0  0  0  0  0  0  0  0  0  0  0  0
   -3.4434    9.1518    3.6068 F   0  0  0  0  0  0  0  0  0  0  0  0
   -2.4395    9.7042    5.4638 F   0  0  0  0  0  0  0  0  0  0  0  0
   -0.9493    9.0212    2.1911 C   0  0  0  0  0  0  0  0  0  0  0  0
   -1.0825    9.5020    3.4925 C   0  0  0  0  0  0  0  0  0  0  0  0
   -0.0506   10.2691    4.0479 C   0  0  0  0  0  0  0  0  0  0  0  0
    1.1201   10.5253    3.3213 C   0  0  0  0  0  0  0  0  0  0  0  0
    2.5030   10.1319    1.3082 C   0  0  0  0  0  0  0  0  0  0  0  0
    2.6854    9.4608    0.0948 C   0  0  0  0  0  0  0  0  0  0  0  0
    1.6732    8.5823   -0.2709 C   0  0  0  0  0  0  0  0  0  0  0  0
    0.4176    8.5591    0.3129 C   0  0  0  0  0  0  0  0  0  0  0  0
    0.2420    9.2172    1.5039 C   0  0  0  0  0  0  0  0  0  0  0  0
    1.3033    9.9767    2.0472 C   0  0  0  0  0  0  0  0  0  0  0  0
    3.9118    9.7184   -0.7472 C   0  0  0  0  0  0  0  0  0  0  0  0
    4.8371   10.3694   -0.2602 O   0  0  0  0  0  0  0  0  0  0  0  0
    4.0436    9.3222   -2.0720 N   0  0  0  0  0  0  0  0  0  0  0  0
    3.2484    8.3770   -2.8579 C   0  0  2  0  0  0  0  0  0  0  0  0
    3.9124    7.9669   -4.1852 C   0  0  0  0  0  0  0  0  0  0  0  0
    4.1233    8.9747   -5.0789 N   0  0  0  0  0  0  0  0  0  0  0  0
    4.1279    6.8016   -4.5026 O   0  0  0  0  0  0  0  0  0  0  0  0
    1.8461    8.9342   -3.2086 C   0  0  0  0  0  0  0  0  0  0  0  0
    0.8982    7.8705   -3.7758 C   0  0  0  0  0  0  0  0  0  0  0  0
    0.6789    6.6331   -2.9309 C   0  0  0  0  0  0  0  0  0  0  0  0
   -0.3875    6.2919   -2.4252 O   0  0  0  0  0  0  0  0  0  0  0  0
    1.7863    5.9054   -2.7304 O   0  0  0  0  0  0  0  0  0  0  0  0
    3.2561    7.4749   -2.2463 H   0  0  0  0  0  0  0  0  0  0  0  0
   -1.0458    7.4620    6.5546 H   0  0  0  0  0  0  0  0  0  0  0  0
   -4.2165    7.8318    4.0400 H   0  0  0  0  0  0  0  0  0  0  0  0
   -1.7432    8.4194    1.7441 H   0  0  0  0  0  0  0  0  0  0  0  0
   -0.1368   10.6566    5.0617 H   0  0  0  0  0  0  0  0  0  0  0  0
    1.9116   11.1177    3.7748 H   0  0  0  0  0  0  0  0  0  0  0  0
    3.3103   10.7448    1.7065 H   0  0  0  0  0  0  0  0  0  0  0  0
    1.8031    7.8697   -1.0527 H   0  0  0  0  0  0  0  0  0  0  0  0
   -0.3686    7.9649   -0.1506 H   0  0  0  0  0  0  0  0  0  0  0  0
    4.9916    9.4703   -2.4061 H   0  0  0  0  0  0  0  0  0  0  0  0
    4.4149    8.7150   -6.0123 H   0  0  0  0  0  0  0  0  0  0  0  0
    3.8470    9.9300   -4.8986 H   0  0  0  0  0  0  0  0  0  0  0  0
    1.3493    9.4444   -2.3811 H   0  0  0  0  0  0  0  0  0  0  0  0
    1.9426    9.7623   -3.9212 H   0  0  0  0  0  0  0  0  0  0  0  0
   -0.0832    8.3413   -3.9083 H   0  0  0  0  0  0  0  0  0  0  0  0
    1.2354    7.5575   -4.7668 H   0  0  0  0  0  0  0  0  0  0  0  0
    1.5597    5.1413   -2.1584 H   0  0  0  0  0  0  0  0  0  0  0  0
  1  2  1  0  0  0  0
  1  3  1  0  0  0  0
  1  4  2  0  0  0  0
  1  5  1  0  0  0  0
  2 31  1  0  0  0  0
  3 32  1  0  0  0  0
  5  6  1  0  0  0  0
  5  7  1  0  0  0  0
  5  9  1  0  0  0  0
  8  9  2  0  0  0  0
  8 16  1  0  0  0  0
  8 33  1  0  0  0  0
  9 10  1  0  0  0  0
 10 11  2  0  0  0  0
 10 34  1  0  0  0  0
 11 17  1  0  0  0  0
 11 35  1  0  0  0  0
 12 13  2  0  0  0  0
 12 17  1  0  0  0  0
 12 36  1  0  0  0  0
 13 14  1  0  0  0  0
 13 18  1  0  0  0  0
 14 15  2  0  0  0  0
 14 37  1  0  0  0  0
 15 16  1  0  0  0  0
 15 38  1  0  0  0  0
 16 17  2  0  0  0  0
 18 19  2  0  0  0  0
 18 20  1  0  0  0  0
 20 39  1  0  0  0  0
 21 25  1  0  0  0  0
 21 30  1  1  0  0  0
 21 22  1  0  0  0  0
 21 20  1  0  0  0  0
 22 23  1  0  0  0  0
 22 24  2  0  0  0  0
 23 40  1  0  0  0  0
 23 41  1  0  0  0  0
 25 26  1  0  0  0  0
 25 42  1  0  0  0  0
 25 43  1  0  0  0  0
 26 27  1  0  0  0  0
 26 44  1  0  0  0  0
 26 45  1  0  0  0  0
 27 28  2  0  0  0  0
 27 29  1  0  0  0  0
 29 46  1  0  0  0  0
M  END
>  <DRUGBANK_ID>
DB03714

>  <SECONDARY_ACCESSION_NUMBERS>
EXPT03090

>  <COMMON_NAME>
4-Carbamoyl-4-{[6-(Difluoro-Phosphono-Methyl)-Naphthalene-2-Carbonyl]-Amino}-Butyric Acid

$$$$
