
 OpenBabel10282417233D

 40 41  0  0  1  0  0  0  0  0999 V2000
    0.9796   -1.6394    2.0781 C   0  0  0  0  0  0  0  0  0  0  0  0
    0.4656   -1.3965    0.6760 C   0  0  2  0  0  0  0  0  0  0  0  0
    1.0602   -0.2407    0.0225 N   0  0  0  0  0  0  0  0  0  0  0  0
    1.5985   -0.1986   -1.2369 C   0  0  0  0  0  0  0  0  0  0  0  0
    2.3611    0.7250   -1.5337 O   0  0  0  0  0  0  0  0  0  0  0  0
    1.2997   -1.2801   -2.2100 C   0  0  0  0  0  0  0  0  0  0  0  0
    0.2930   -2.1810   -2.1545 C   0  0  0  0  0  0  0  0  0  0  0  0
   -0.0005   -3.3039   -3.0209 C   0  0  0  0  0  0  0  0  0  0  0  0
   -0.9217   -4.2322   -2.7053 C   0  0  0  0  0  0  0  0  0  0  0  0
   -1.2170   -5.3492   -3.5981 C   0  0  0  0  0  0  0  0  0  0  0  0
   -0.1901   -6.0470   -4.2236 C   0  0  0  0  0  0  0  0  0  0  0  0
   -0.5172   -7.0527   -5.1188 C   0  0  0  0  0  0  0  0  0  0  0  0
   -1.8565   -7.3454   -5.3419 C   0  0  0  0  0  0  0  0  0  0  0  0
   -2.8162   -6.6244   -4.6437 C   0  0  0  0  0  0  0  0  0  0  0  0
   -4.6451   -7.0382   -4.9317 Br  0  0  0  0  0  0  0  0  0  0  0  0
   -2.5239   -5.6390   -3.7665 N   0  0  0  0  0  0  0  0  0  0  0  0
    2.0289   -1.3510   -3.5418 C   0  0  0  0  0  0  0  0  0  0  0  0
    2.6338   -1.4097   -4.6466 N   0  0  0  0  0  0  0  0  0  0  0  0
   -1.0560   -1.3857    0.6609 C   0  0  0  0  0  0  0  0  0  0  0  0
   -1.7480   -2.6131    0.6844 C   0  0  0  0  0  0  0  0  0  0  0  0
   -3.1395   -2.6508    0.7141 C   0  0  0  0  0  0  0  0  0  0  0  0
   -3.8585   -1.4613    0.7690 C   0  0  0  0  0  0  0  0  0  0  0  0
   -3.1898   -0.2386    0.7344 C   0  0  0  0  0  0  0  0  0  0  0  0
   -1.7998   -0.1991    0.6213 C   0  0  0  0  0  0  0  0  0  0  0  0
    0.3611   -1.1473    2.8307 H   0  0  0  0  0  0  0  0  0  0  0  0
    2.0192   -1.3212    2.1798 H   0  0  0  0  0  0  0  0  0  0  0  0
    0.9399   -2.7203    2.2698 H   0  0  0  0  0  0  0  0  0  0  0  0
    0.8492   -2.2691    0.1411 H   0  0  0  0  0  0  0  0  0  0  0  0
    1.2583    0.5776    0.5868 H   0  0  0  0  0  0  0  0  0  0  0  0
   -0.4487   -2.1285   -1.3921 H   0  0  0  0  0  0  0  0  0  0  0  0
    0.5461   -3.3941   -3.9563 H   0  0  0  0  0  0  0  0  0  0  0  0
   -1.5180   -4.2005   -1.7981 H   0  0  0  0  0  0  0  0  0  0  0  0
    0.8496   -5.8033   -4.0305 H   0  0  0  0  0  0  0  0  0  0  0  0
    0.2680   -7.5925   -5.6383 H   0  0  0  0  0  0  0  0  0  0  0  0
   -2.1340   -8.1239   -6.0429 H   0  0  0  0  0  0  0  0  0  0  0  0
   -1.1986   -3.5522    0.6371 H   0  0  0  0  0  0  0  0  0  0  0  0
   -3.6589   -3.6058    0.7131 H   0  0  0  0  0  0  0  0  0  0  0  0
   -4.9429   -1.4856    0.8323 H   0  0  0  0  0  0  0  0  0  0  0  0
   -3.7518    0.6890    0.8071 H   0  0  0  0  0  0  0  0  0  0  0  0
   -1.3121    0.7661    0.5055 H   0  0  0  0  0  0  0  0  0  0  0  0
  1 25  1  0  0  0  0
  1 26  1  0  0  0  0
  1 27  1  0  0  0  0
  2 19  1  0  0  0  0
  2 28  1  6  0  0  0
  2  3  1  0  0  0  0
  2  1  1  0  0  0  0
  3  4  1  0  0  0  0
  3 29  1  0  0  0  0
  4  5  2  0  0  0  0
  4  6  1  0  0  0  0
  6  7  2  0  0  0  0
  6 17  1  0  0  0  0
  7  8  1  0  0  0  0
  7 30  1  0  0  0  0
  8  9  2  0  0  0  0
  8 31  1  0  0  0  0
  9 10  1  0  0  0  0
  9 32  1  0  0  0  0
 10 11  2  0  0  0  0
 10 16  1  0  0  0  0
 11 12  1  0  0  0  0
 11 33  1  0  0  0  0
 12 13  2  0  0  0  0
 12 34  1  0  0  0  0
 13 14  1  0  0  0  0
 13 35  1  0  0  0  0
 14 15  1  0  0  0  0
 14 16  2  0  0  0  0
 17 18  3  0  0  0  0
 19 20  2  0  0  0  0
 19 24  1  0  0  0  0
 20 21  1  0  0  0  0
 20 36  1  0  0  0  0
 21 22  2  0  0  0  0
 21 37  1  0  0  0  0
 22 23  1  0  0  0  0
 22 38  1  0  0  0  0
 23 24  2  0  0  0  0
 23 39  1  0  0  0  0
 24 40  1  0  0  0  0
M  END
>  <DRUGBANK_ID>
DB16051

>  <COMMON_NAME>
MOL-4239

>  <CAS_NUMBER>
1204306-34-2

>  <UNII>
PTN9LJL6PY

$$$$
