
 OpenBabel10282417213D

 80 86  0  0  0  0  0  0  0  0999 V2000
    0.9048   -0.2158   -0.0549 C   0  0  0  0  0  0  0  0  0  0  0  0
    0.3761   -1.0723   -1.2046 N   0  0  0  0  0  0  0  0  0  0  0  0
    0.1871   -0.4622   -2.3330 N   0  0  0  0  0  0  0  0  0  0  0  0
    0.4155   -1.5784   -3.1049 C   0  0  0  0  0  0  0  0  0  0  0  0
   -0.5135   -1.7261   -4.2384 C   0  0  0  0  0  0  0  0  0  0  0  0
   -2.3628   -0.6489   -3.6273 S   0  0  0  0  0  0  0  0  0  0  0  0
   -3.7247   -2.4382   -2.8094 C   0  0  0  0  0  0  0  0  0  0  0  0
   -3.5024   -4.2126   -3.5256 C   0  0  0  0  0  0  0  0  0  0  0  0
   -3.4389   -5.1793   -2.5928 N   0  0  0  0  0  0  0  0  0  0  0  0
   -3.3964   -6.3494   -3.2701 N   0  0  0  0  0  0  0  0  0  0  0  0
   -3.4753   -7.5846   -2.5078 C   0  0  0  0  0  0  0  0  0  0  0  0
   -3.2784   -6.2576   -4.6497 C   0  0  0  0  0  0  0  0  0  0  0  0
   -3.2223   -7.5271   -5.5049 C   0  0  0  0  0  0  0  0  0  0  0  0
   -3.2286   -4.8770   -4.9428 C   0  0  0  0  0  0  0  0  0  0  0  0
   -3.0560   -4.3141   -6.3861 C   0  0  0  0  0  0  0  0  0  0  0  0
   -2.0344   -3.4178   -6.8399 C   0  0  0  0  0  0  0  0  0  0  0  0
   -0.5001   -3.4861   -6.2228 Cl  0  0  0  0  0  0  0  0  0  0  0  0
   -2.0140   -2.5252   -7.9124 C   0  0  0  0  0  0  0  0  0  0  0  0
   -2.9805   -2.6480   -8.8321 C   0  0  0  0  0  0  0  0  0  0  0  0
   -3.9351   -3.6259   -8.5289 C   0  0  0  0  0  0  0  0  0  0  0  0
   -4.0650   -4.3152   -7.3249 C   0  0  0  0  0  0  0  0  0  0  0  0
   -5.2823   -4.9142   -7.2913 N   0  0  0  0  0  0  0  0  0  0  0  0
   -5.7788   -5.6761   -6.2364 C   0  0  0  0  0  0  0  0  0  0  0  0
   -5.9164   -4.8403   -8.4523 C   0  0  0  0  0  0  0  0  0  0  0  0
   -7.2769   -5.3211   -8.6888 C   0  0  0  0  0  0  0  0  0  0  0  0
   -7.9719   -6.2125   -8.0448 O   0  0  0  0  0  0  0  0  0  0  0  0
   -7.9721   -5.2703   -9.6578 O   0  0  0  0  0  0  0  0  0  0  0  0
   -4.9412   -4.1678   -9.2843 C   0  0  0  0  0  0  0  0  0  0  0  0
   -5.1568   -3.6086  -10.6225 C   0  0  0  0  0  0  0  0  0  0  0  0
   -5.5426   -4.4756  -11.7192 C   0  0  0  0  0  0  0  0  0  0  0  0
   -6.6917   -5.2803  -11.3497 C   0  0  0  0  0  0  0  0  0  0  0  0
   -7.7904   -4.0808  -11.2532 O   0  0  0  0  0  0  0  0  0  0  0  0
   -7.7802   -2.9273   -9.8854 C   0  0  0  0  0  0  0  0  0  0  0  0
   -6.3132   -2.2288   -8.8567 C   0  0  0  0  0  0  0  0  0  0  0  0
   -5.5099   -1.8919   -7.1517 C   0  0  0  0  0  0  0  0  0  0  0  0
   -3.8207   -2.1674   -5.1688 S   0  0  0  0  0  0  0  0  0  0  0  0
   -1.9895   -2.7840   -3.3379 C   0  0  0  0  0  0  0  0  0  0  0  0
   -0.4997   -2.3076   -1.9032 C   0  0  0  0  0  0  0  0  0  0  0  0
    0.7625   -2.7872   -2.3504 C   0  0  0  0  0  0  0  0  0  0  0  0
   -7.2959   -1.7973   -7.3508 C   0  0  0  0  0  0  0  0  0  0  0  0
   -8.8624   -2.3273   -8.2066 C   0  0  0  0  0  0  0  0  0  0  0  0
   -9.0465   -3.1759   -9.3160 C   0  0  0  0  0  0  0  0  0  0  0  0
  -10.2095   -4.2359   -9.3756 C   0  0  0  0  0  0  0  0  0  0  0  0
  -11.3514   -4.0504   -8.6401 C   0  0  0  0  0  0  0  0  0  0  0  0
  -11.4257   -2.8473   -7.9827 C   0  0  0  0  0  0  0  0  0  0  0  0
  -10.1987   -2.1422   -7.6774 C   0  0  0  0  0  0  0  0  0  0  0  0
    0.5871   -0.4409    0.9701 H   0  0  0  0  0  0  0  0  0  0  0  0
    0.6166    0.8481   -0.2473 H   0  0  0  0  0  0  0  0  0  0  0  0
    2.0315   -0.1472   -0.0224 H   0  0  0  0  0  0  0  0  0  0  0  0
   -0.0984   -1.2910   -5.0779 H   0  0  0  0  0  0  0  0  0  0  0  0
   -0.5415   -2.9200   -4.2459 H   0  0  0  0  0  0  0  0  0  0  0  0
   -3.2956   -2.4593   -1.8104 H   0  0  0  0  0  0  0  0  0  0  0  0
   -4.7136   -2.1455   -2.9240 H   0  0  0  0  0  0  0  0  0  0  0  0
   -4.3623   -8.1466   -2.8160 H   0  0  0  0  0  0  0  0  0  0  0  0
   -2.5816   -8.1851   -2.6981 H   0  0  0  0  0  0  0  0  0  0  0  0
   -3.5425   -7.3708   -1.4386 H   0  0  0  0  0  0  0  0  0  0  0  0
   -4.0189   -7.6384   -6.2374 H   0  0  0  0  0  0  0  0  0  0  0  0
   -2.3158   -7.5657   -6.1014 H   0  0  0  0  0  0  0  0  0  0  0  0
   -3.3065   -8.4660   -4.9402 H   0  0  0  0  0  0  0  0  0  0  0  0
   -1.1761   -1.8548   -8.0623 H   0  0  0  0  0  0  0  0  0  0  0  0
   -2.9171   -2.0768   -9.7502 H   0  0  0  0  0  0  0  0  0  0  0  0
   -5.1740   -6.5183   -6.1428 H   0  0  0  0  0  0  0  0  0  0  0  0
   -5.9865   -5.1131   -5.3628 H   0  0  0  0  0  0  0  0  0  0  0  0
   -6.6537   -6.1811   -6.4445 H   0  0  0  0  0  0  0  0  0  0  0  0
   -7.7841   -6.5246   -7.2069 H   0  0  0  0  0  0  0  0  0  0  0  0
   -6.0266   -3.5230  -10.0828 H   0  0  0  0  0  0  0  0  0  0  0  0
   -4.7343   -2.6341  -10.9405 H   0  0  0  0  0  0  0  0  0  0  0  0
   -5.8625   -3.9954  -12.6328 H   0  0  0  0  0  0  0  0  0  0  0  0
   -4.6560   -5.0446  -11.7684 H   0  0  0  0  0  0  0  0  0  0  0  0
   -6.8998   -6.1819  -11.9652 H   0  0  0  0  0  0  0  0  0  0  0  0
   -6.3697   -5.8543  -10.4535 H   0  0  0  0  0  0  0  0  0  0  0  0
   -6.2937   -1.9550  -10.2788 H   0  0  0  0  0  0  0  0  0  0  0  0
   -1.7579   -2.4888   -1.8452 H   0  0  0  0  0  0  0  0  0  0  0  0
   -1.4039   -3.6423   -2.2617 H   0  0  0  0  0  0  0  0  0  0  0  0
    0.6266   -3.8951   -2.5098 H   0  0  0  0  0  0  0  0  0  0  0  0
   -7.8398   -0.6500   -7.6964 H   0  0  0  0  0  0  0  0  0  0  0  0
  -10.1163   -5.2256   -9.8785 H   0  0  0  0  0  0  0  0  0  0  0  0
  -12.1467   -4.7877   -8.6335 H   0  0  0  0  0  0  0  0  0  0  0  0
  -12.4092   -2.4905   -7.6694 H   0  0  0  0  0  0  0  0  0  0  0  0
  -10.2327   -1.5563   -6.7580 H   0  0  0  0  0  0  0  0  0  0  0  0
  1  2  1  0  0  0  0
  1 47  1  0  0  0  0
  1 48  1  0  0  0  0
  1 49  1  0  0  0  0
  2  3  1  0  0  0  0
  2 38  1  0  0  0  0
  3  4  2  0  0  0  0
  4  5  1  0  0  0  0
  4 39  1  0  0  0  0
  5  6  1  0  0  0  0
  5 50  1  0  0  0  0
  5 51  1  0  0  0  0
  6  7  1  0  0  0  0
  7  8  1  0  0  0  0
  7 52  1  0  0  0  0
  7 53  1  0  0  0  0
  8  9  2  0  0  0  0
  8 14  1  0  0  0  0
  9 10  1  0  0  0  0
 10 11  1  0  0  0  0
 10 12  1  0  0  0  0
 11 54  1  0  0  0  0
 11 55  1  0  0  0  0
 11 56  1  0  0  0  0
 12 13  1  0  0  0  0
 12 14  2  0  0  0  0
 13 57  1  0  0  0  0
 13 58  1  0  0  0  0
 13 59  1  0  0  0  0
 14 15  1  0  0  0  0
 15 16  2  0  0  0  0
 15 21  1  0  0  0  0
 16 17  1  0  0  0  0
 16 18  1  0  0  0  0
 18 19  2  0  0  0  0
 18 60  1  0  0  0  0
 19 20  1  0  0  0  0
 19 61  1  0  0  0  0
 20 21  2  0  0  0  0
 20 28  1  0  0  0  0
 21 22  1  0  0  0  0
 22 23  1  0  0  0  0
 22 24  1  0  0  0  0
 23 62  1  0  0  0  0
 23 63  1  0  0  0  0
 23 64  1  0  0  0  0
 24 25  1  0  0  0  0
 24 28  2  0  0  0  0
 25 26  1  0  0  0  0
 25 27  2  0  0  0  0
 26 65  1  0  0  0  0
 28 29  1  0  0  0  0
 29 30  1  0  0  0  0
 29 66  1  0  0  0  0
 29 67  1  0  0  0  0
 30 31  1  0  0  0  0
 30 68  1  0  0  0  0
 30 69  1  0  0  0  0
 31 32  1  0  0  0  0
 31 70  1  0  0  0  0
 31 71  1  0  0  0  0
 32 33  1  0  0  0  0
 33 34  2  0  0  0  0
 33 42  1  0  0  0  0
 34 35  1  0  0  0  0
 34 72  1  0  0  0  0
 35 36  1  0  0  0  0
 35 40  2  0  0  0  0
 36 37  1  0  0  0  0
 37 38  1  0  0  0  0
 37 73  1  0  0  0  0
 37 74  1  0  0  0  0
 38 39  2  0  0  0  0
 39 75  1  0  0  0  0
 40 41  1  0  0  0  0
 40 76  1  0  0  0  0
 41 42  2  0  0  0  0
 41 46  1  0  0  0  0
 42 43  1  0  0  0  0
 43 44  2  0  0  0  0
 43 77  1  0  0  0  0
 44 45  1  0  0  0  0
 44 78  1  0  0  0  0
 45 46  2  0  0  0  0
 45 79  1  0  0  0  0
 46 80  1  0  0  0  0
M  END
>  <DRUGBANK_ID>
DB14792

>  <COMMON_NAME>
AZD-5991

>  <CAS_NUMBER>
2143010-83-5

>  <UNII>
E3T5XXY9HX

$$$$
