1538
 OpenBabel10282417113D

 50 54  0  0  1  0  0  0  0  0999 V2000
    1.6598   -0.8081    0.6405 O   0  0  0  0  0  0  0  0  0  0  0  0
    0.0599   -3.2538   -0.2656 O   0  0  0  0  0  0  0  0  0  0  0  0
    2.2663    2.3409    0.1264 O   0  0  0  0  0  0  0  0  0  0  0  0
   -0.5176   -1.1028   -0.8903 O   0  0  0  0  0  0  0  0  0  0  0  0
    5.1224   -2.1377   -2.2415 N   0  0  0  0  0  0  0  0  0  0  0  0
    3.3507   -2.2813   -0.0639 C   0  0  1  0  0  0  0  0  0  0  0  0
    4.3666   -3.3738   -0.1201 C   0  0  2  0  0  0  0  0  0  0  0  0
    2.1317   -2.2502    0.8474 C   0  0  2  0  0  0  0  0  0  0  0  0
    5.6162   -2.6748   -0.8647 C   0  0  1  0  0  0  0  0  0  0  0  0
    2.8688   -2.3467   -1.5178 C   0  0  0  0  0  0  0  0  0  0  0  0
    3.8857   -0.9532    0.3459 C   0  0  0  0  0  0  0  0  0  0  0  0
    3.7992   -4.6182    0.5800 C   0  0  0  0  0  0  0  0  0  0  0  0
    1.2663   -3.5292    0.5186 C   0  0  2  0  0  0  0  0  0  0  0  0
    6.2709   -1.5245   -0.1180 C   0  0  0  0  0  0  0  0  0  0  0  0
    2.2370   -4.8212    0.1251 C   0  0  0  0  0  0  0  0  0  0  0  0
    3.8555   -2.6642   -2.6234 C   0  0  0  0  0  0  0  0  0  0  0  0
    5.2246   -0.5830    0.3433 C   0  0  0  0  0  0  0  0  0  0  0  0
    2.8463   -0.0519    0.4835 C   0  0  0  0  0  0  0  0  0  0  0  0
    5.4319   -0.9676   -3.0491 C   0  0  0  0  0  0  0  0  0  0  0  0
    5.5713    0.7418    0.4165 C   0  0  0  0  0  0  0  0  0  0  0  0
    3.1791    1.3190    0.3224 C   0  0  0  0  0  0  0  0  0  0  0  0
    4.5625    1.6672    0.2966 C   0  0  0  0  0  0  0  0  0  0  0  0
   -0.0771   -2.1908   -1.1393 C   0  0  0  0  0  0  0  0  0  0  0  0
    0.1519   -2.6882   -2.5472 C   0  0  0  0  0  0  0  0  0  0  0  0
    2.8577    3.6664    0.0293 C   0  0  0  0  0  0  0  0  0  0  0  0
    4.2567   -4.0223   -0.9964 H   0  0  0  0  0  0  0  0  0  0  0  0
    2.3122   -2.3271    1.9322 H   0  0  0  0  0  0  0  0  0  0  0  0
    6.3733   -3.4547   -0.9574 H   0  0  0  0  0  0  0  0  0  0  0  0
    2.2825   -3.2556   -1.5794 H   0  0  0  0  0  0  0  0  0  0  0  0
    2.2638   -1.4709   -1.7344 H   0  0  0  0  0  0  0  0  0  0  0  0
    4.3833   -5.5159    0.3111 H   0  0  0  0  0  0  0  0  0  0  0  0
    3.8455   -4.5146    1.6630 H   0  0  0  0  0  0  0  0  0  0  0  0
    0.8087   -3.9465    1.4227 H   0  0  0  0  0  0  0  0  0  0  0  0
    6.9873   -1.8061    0.6599 H   0  0  0  0  0  0  0  0  0  0  0  0
    6.8587   -0.9712   -0.8594 H   0  0  0  0  0  0  0  0  0  0  0  0
    1.8954   -5.7519    0.6049 H   0  0  0  0  0  0  0  0  0  0  0  0
    2.1410   -5.0886   -0.9469 H   0  0  0  0  0  0  0  0  0  0  0  0
    4.1270   -3.7096   -2.7886 H   0  0  0  0  0  0  0  0  0  0  0  0
    3.3623   -2.4707   -3.5842 H   0  0  0  0  0  0  0  0  0  0  0  0
    6.3985   -1.1022   -3.5306 H   0  0  0  0  0  0  0  0  0  0  0  0
    4.7251   -0.9143   -3.9036 H   0  0  0  0  0  0  0  0  0  0  0  0
    5.3377    0.0411   -2.6234 H   0  0  0  0  0  0  0  0  0  0  0  0
    6.6084    1.0516    0.3278 H   0  0  0  0  0  0  0  0  0  0  0  0
    4.9381    2.6710    0.1245 H   0  0  0  0  0  0  0  0  0  0  0  0
    1.1716   -2.7020   -2.8963 H   0  0  0  0  0  0  0  0  0  0  0  0
   -0.2060   -3.7124   -2.5935 H   0  0  0  0  0  0  0  0  0  0  0  0
   -0.3347   -2.0191   -3.2489 H   0  0  0  0  0  0  0  0  0  0  0  0
    3.4586    3.8915    0.9240 H   0  0  0  0  0  0  0  0  0  0  0  0
    3.4798    3.7786   -0.8761 H   0  0  0  0  0  0  0  0  0  0  0  0
    2.0884    4.4390   -0.0251 H   0  0  0  0  0  0  0  0  0  0  0  0
  1  8  1  0  0  0  0
  1 18  1  0  0  0  0
  2 23  1  0  0  0  0
  3 25  1  0  0  0  0
  3 21  1  0  0  0  0
  4 23  2  0  0  0  0
  5  9  1  0  0  0  0
  5 16  1  0  0  0  0
  5 19  1  0  0  0  0
  6  7  1  0  0  0  0
  6  8  1  0  0  0  0
  6 10  1  0  0  0  0
  6 11  1  6  0  0  0
  7  9  1  0  0  0  0
  7 12  1  0  0  0  0
  7 26  1  1  0  0  0
  8 13  1  0  0  0  0
  8 27  1  1  0  0  0
  9 14  1  0  0  0  0
  9 28  1  1  0  0  0
 10 16  1  0  0  0  0
 10 29  1  0  0  0  0
 10 30  1  0  0  0  0
 11 17  2  0  0  0  0
 11 18  1  0  0  0  0
 12 15  1  0  0  0  0
 12 31  1  0  0  0  0
 12 32  1  0  0  0  0
 13 15  1  0  0  0  0
 13 33  1  1  0  0  0
 13  2  1  0  0  0  0
 14 17  1  0  0  0  0
 14 34  1  0  0  0  0
 14 35  1  0  0  0  0
 15 36  1  0  0  0  0
 15 37  1  0  0  0  0
 16 38  1  0  0  0  0
 16 39  1  0  0  0  0
 17 20  1  0  0  0  0
 18 21  2  0  0  0  0
 19 40  1  0  0  0  0
 19 41  1  0  0  0  0
 19 42  1  0  0  0  0
 20 22  2  0  0  0  0
 20 43  1  0  0  0  0
 21 22  1  0  0  0  0
 22 44  1  0  0  0  0
 23 24  1  0  0  0  0
 24 45  1  0  0  0  0
 24 46  1  0  0  0  0
 24 47  1  0  0  0  0
 25 48  1  0  0  0  0
 25 49  1  0  0  0  0
 25 50  1  0  0  0  0
M  END
>  <DRUGBANK_ID>
DB01538

>  <COMMON_NAME>
Acetyldihydrocodeine

>  <CAS_NUMBER>
3861-72-1

>  <UNII>
SGY1T84P34

$$$$
