IM9
 OpenBabel10282417173D

 61 64  0  0  0  0  0  0  0  0999 V2000
    1.1914    0.0748   -0.0940 C   0  0  0  0  0  0  0  0  0  0  0  0
    0.5479    1.3394    0.4912 C   0  0  0  0  0  0  0  0  0  0  0  0
    1.2198    2.4684   -0.2787 C   0  0  0  0  0  0  0  0  0  0  0  0
   -0.9280    1.3792    0.4605 N   0  0  0  0  0  0  0  0  0  0  0  0
   -1.7823    0.2746    0.5164 C   0  0  0  0  0  0  0  0  0  0  0  0
   -1.3744   -1.1561    0.5411 C   0  0  0  0  0  0  0  0  0  0  0  0
   -3.0453    0.6446    0.5441 N   0  0  0  0  0  0  0  0  0  0  0  0
   -3.0398    2.0015    0.5140 C   0  0  0  0  0  0  0  0  0  0  0  0
   -1.7575    2.5104    0.4921 C   0  0  0  0  0  0  0  0  0  0  0  0
   -1.3880    3.9213    0.5285 C   0  0  0  0  0  0  0  0  0  0  0  0
   -1.6539    4.7118    1.6157 C   0  0  0  0  0  0  0  0  0  0  0  0
   -1.1518    5.9881    1.5398 C   0  0  0  0  0  0  0  0  0  0  0  0
   -0.3962    6.4428    0.5134 N   0  0  0  0  0  0  0  0  0  0  0  0
   -0.2145    5.6062   -0.5217 C   0  0  0  0  0  0  0  0  0  0  0  0
    0.7003    5.9735   -1.5181 N   0  0  0  0  0  0  0  0  0  0  0  0
    1.1669    5.1796   -2.5786 C   0  0  0  0  0  0  0  0  0  0  0  0
    0.2680    4.5791   -3.4626 C   0  0  0  0  0  0  0  0  0  0  0  0
    0.7011    3.7153   -4.4847 C   0  0  0  0  0  0  0  0  0  0  0  0
    2.0498    3.3760   -4.6396 C   0  0  0  0  0  0  0  0  0  0  0  0
    2.9522    4.0004   -3.7673 C   0  0  0  0  0  0  0  0  0  0  0  0
    2.5220    4.8725   -2.7401 C   0  0  0  0  0  0  0  0  0  0  0  0
    2.4621    2.4552   -5.5800 N   0  0  0  0  0  0  0  0  0  0  0  0
    2.1602    2.6057   -7.0090 C   0  0  0  0  0  0  0  0  0  0  0  0
    1.4456    1.3500   -7.5518 C   0  0  0  0  0  0  0  0  0  0  0  0
    2.1974    0.1254   -7.2298 N   0  0  0  0  0  0  0  0  0  0  0  0
    2.4879   -0.0186   -5.7922 C   0  0  0  0  0  0  0  0  0  0  0  0
    3.2135    1.2345   -5.2290 C   0  0  0  0  0  0  0  0  0  0  0  0
    2.6219   -0.8264   -8.1413 C   0  0  0  0  0  0  0  0  0  0  0  0
    3.2644   -1.8295   -7.7975 O   0  0  0  0  0  0  0  0  0  0  0  0
    2.2867   -0.6206   -9.6286 C   0  0  0  0  0  0  0  0  0  0  0  0
    0.8971   -0.5721   -9.9063 O   0  0  0  0  0  0  0  0  0  0  0  0
   -0.7686    4.3837   -0.5676 N   0  0  0  0  0  0  0  0  0  0  0  0
    0.8099   -0.1122   -1.1047 H   0  0  0  0  0  0  0  0  0  0  0  0
    1.0316   -0.7996    0.5346 H   0  0  0  0  0  0  0  0  0  0  0  0
    2.2804    0.1638   -0.1608 H   0  0  0  0  0  0  0  0  0  0  0  0
    0.8207    1.4209    1.5519 H   0  0  0  0  0  0  0  0  0  0  0  0
    0.7966    2.5274   -1.2877 H   0  0  0  0  0  0  0  0  0  0  0  0
    1.1150    3.4040    0.2634 H   0  0  0  0  0  0  0  0  0  0  0  0
    2.3010    2.3428   -0.3773 H   0  0  0  0  0  0  0  0  0  0  0  0
   -0.8394   -1.4256   -0.3736 H   0  0  0  0  0  0  0  0  0  0  0  0
   -0.7636   -1.3710    1.4235 H   0  0  0  0  0  0  0  0  0  0  0  0
   -2.2423   -1.8194    0.5817 H   0  0  0  0  0  0  0  0  0  0  0  0
   -3.9640    2.5645    0.5216 H   0  0  0  0  0  0  0  0  0  0  0  0
   -2.2080    4.3522    2.4714 H   0  0  0  0  0  0  0  0  0  0  0  0
   -1.3320    6.6992    2.3419 H   0  0  0  0  0  0  0  0  0  0  0  0
    1.1872    6.8293   -1.3034 H   0  0  0  0  0  0  0  0  0  0  0  0
   -0.7959    4.7743   -3.3457 H   0  0  0  0  0  0  0  0  0  0  0  0
   -0.0541    3.2729   -5.1273 H   0  0  0  0  0  0  0  0  0  0  0  0
    4.0186    3.8299   -3.8968 H   0  0  0  0  0  0  0  0  0  0  0  0
    3.2608    5.2599   -2.0424 H   0  0  0  0  0  0  0  0  0  0  0  0
    1.5708    3.5027   -7.2214 H   0  0  0  0  0  0  0  0  0  0  0  0
    3.1179    2.7144   -7.5360 H   0  0  0  0  0  0  0  0  0  0  0  0
    0.4653    1.2464   -7.0721 H   0  0  0  0  0  0  0  0  0  0  0  0
    1.2872    1.4613   -8.6239 H   0  0  0  0  0  0  0  0  0  0  0  0
    1.5195   -0.1408   -5.2901 H   0  0  0  0  0  0  0  0  0  0  0  0
    3.0748   -0.9218   -5.5954 H   0  0  0  0  0  0  0  0  0  0  0  0
    4.2071    1.2974   -5.6894 H   0  0  0  0  0  0  0  0  0  0  0  0
    3.3490    1.1256   -4.1475 H   0  0  0  0  0  0  0  0  0  0  0  0
    2.7586    0.3027   -9.9807 H   0  0  0  0  0  0  0  0  0  0  0  0
    2.7182   -1.4419  -10.2132 H   0  0  0  0  0  0  0  0  0  0  0  0
    0.5295   -1.4224   -9.6049 H   0  0  0  0  0  0  0  0  0  0  0  0
  1  2  1  0  0  0  0
  1 33  1  0  0  0  0
  1 34  1  0  0  0  0
  1 35  1  0  0  0  0
  2  3  1  0  0  0  0
  2  4  1  0  0  0  0
  2 36  1  0  0  0  0
  3 37  1  0  0  0  0
  3 38  1  0  0  0  0
  3 39  1  0  0  0  0
  4  5  1  0  0  0  0
  4  9  1  0  0  0  0
  5  6  1  0  0  0  0
  5  7  2  0  0  0  0
  6 40  1  0  0  0  0
  6 41  1  0  0  0  0
  6 42  1  0  0  0  0
  7  8  1  0  0  0  0
  8  9  2  0  0  0  0
  8 43  1  0  0  0  0
  9 10  1  0  0  0  0
 10 11  1  0  0  0  0
 10 32  2  0  0  0  0
 11 12  2  0  0  0  0
 11 44  1  0  0  0  0
 12 13  1  0  0  0  0
 12 45  1  0  0  0  0
 13 14  2  0  0  0  0
 14 15  1  0  0  0  0
 14 32  1  0  0  0  0
 15 16  1  0  0  0  0
 15 46  1  0  0  0  0
 16 17  1  0  0  0  0
 16 21  2  0  0  0  0
 17 18  2  0  0  0  0
 17 47  1  0  0  0  0
 18 19  1  0  0  0  0
 18 48  1  0  0  0  0
 19 20  2  0  0  0  0
 19 22  1  0  0  0  0
 20 21  1  0  0  0  0
 20 49  1  0  0  0  0
 21 50  1  0  0  0  0
 22 23  1  0  0  0  0
 22 27  1  0  0  0  0
 23 24  1  0  0  0  0
 23 51  1  0  0  0  0
 23 52  1  0  0  0  0
 24 25  1  0  0  0  0
 24 53  1  0  0  0  0
 24 54  1  0  0  0  0
 25 26  1  0  0  0  0
 25 28  1  0  0  0  0
 26 27  1  0  0  0  0
 26 55  1  0  0  0  0
 26 56  1  0  0  0  0
 27 57  1  0  0  0  0
 27 58  1  0  0  0  0
 28 29  2  0  0  0  0
 28 30  1  0  0  0  0
 30 31  1  0  0  0  0
 30 59  1  0  0  0  0
 30 60  1  0  0  0  0
 31 61  1  0  0  0  0
M  END
>  <DRUGBANK_ID>
DB07982

>  <COMMON_NAME>
2-{4-[4-({4-[2-methyl-1-(1-methylethyl)-1H-imidazol-5-yl]pyrimidin-2-yl}amino)phenyl]piperazin-1-yl}-2-oxoethanol

$$$$
