HBC
 OpenBabel10282417163D

 43 46  0  0  0  0  0  0  0  0999 V2000
    5.8027   -1.1131    0.5739 C   0  0  0  0  0  0  0  0  0  0  0  0
    7.1537   -1.2703    0.2145 C   0  0  0  0  0  0  0  0  0  0  0  0
    7.8792   -2.3251    0.7613 C   0  0  0  0  0  0  0  0  0  0  0  0
    7.2503   -3.2002    1.6489 C   0  0  0  0  0  0  0  0  0  0  0  0
    5.8971   -3.0556    1.9576 C   0  0  0  0  0  0  0  0  0  0  0  0
    5.1578   -2.0421    1.3778 C   0  0  0  0  0  0  0  0  0  0  0  0
    2.8110    0.9966    1.4174 C   0  0  2  0  0  0  0  0  0  0  0  0
    1.3425    1.1339    0.8856 C   0  0  0  0  0  0  0  0  0  0  0  0
    1.4123    2.3763   -0.0014 C   0  0  0  0  0  0  0  0  0  0  0  0
    2.8423    2.8691    0.2201 C   0  0  1  0  0  0  0  0  0  0  0  0
    3.1206    2.4603    1.6757 C   0  0  0  0  0  0  0  0  0  0  0  0
    3.8250    1.9745   -0.6084 C   0  0  2  0  0  0  0  0  0  0  0  0
    3.7873    0.6092    0.2389 C   0  0  2  0  0  0  0  0  0  0  0  0
    3.1284   -0.5876   -0.3617 N   0  0  0  0  0  0  0  0  0  0  0  0
    5.2537    0.2546    0.6655 C   0  0  0  0  0  0  0  0  0  0  0  0
    6.0225    1.0362    1.1866 O   0  0  0  0  0  0  0  0  0  0  0  0
    6.2191    2.0339   -1.5136 C   0  0  0  0  0  0  0  0  0  0  0  0
    5.1958    2.6706   -0.7866 C   0  0  0  0  0  0  0  0  0  0  0  0
    5.5473    3.8340   -0.0667 C   0  0  0  0  0  0  0  0  0  0  0  0
    6.8640    4.2886    0.0057 C   0  0  0  0  0  0  0  0  0  0  0  0
    7.8758    3.5585   -0.5975 C   0  0  0  0  0  0  0  0  0  0  0  0
    7.5536    2.4458   -1.3722 C   0  0  0  0  0  0  0  0  0  0  0  0
    2.8932    0.3584    2.3031 H   0  0  0  0  0  0  0  0  0  0  0  0
    2.9088    3.9382    0.0142 H   0  0  0  0  0  0  0  0  0  0  0  0
    3.4268    1.7902   -1.6145 H   0  0  0  0  0  0  0  0  0  0  0  0
    7.6743   -0.5076   -0.3619 H   0  0  0  0  0  0  0  0  0  0  0  0
    8.9493   -2.4016    0.5816 H   0  0  0  0  0  0  0  0  0  0  0  0
    7.8244   -3.9781    2.1410 H   0  0  0  0  0  0  0  0  0  0  0  0
    5.4261   -3.6671    2.7191 H   0  0  0  0  0  0  0  0  0  0  0  0
    4.1295   -1.8903    1.6807 H   0  0  0  0  0  0  0  0  0  0  0  0
    0.6329    1.2804    1.7071 H   0  0  0  0  0  0  0  0  0  0  0  0
    0.9558    0.2896    0.3091 H   0  0  0  0  0  0  0  0  0  0  0  0
    1.2323    2.1507   -1.0576 H   0  0  0  0  0  0  0  0  0  0  0  0
    0.6789    3.1226    0.3189 H   0  0  0  0  0  0  0  0  0  0  0  0
    2.4311    2.9191    2.3941 H   0  0  0  0  0  0  0  0  0  0  0  0
    4.1426    2.6185    2.0299 H   0  0  0  0  0  0  0  0  0  0  0  0
    2.4090   -0.3103   -1.0255 H   0  0  0  0  0  0  0  0  0  0  0  0
    2.5939   -1.0525    0.3878 H   0  0  0  0  0  0  0  0  0  0  0  0
    6.0215    1.1111   -2.0543 H   0  0  0  0  0  0  0  0  0  0  0  0
    4.8383    4.3605    0.5641 H   0  0  0  0  0  0  0  0  0  0  0  0
    7.0960    5.1637    0.6063 H   0  0  0  0  0  0  0  0  0  0  0  0
    8.9125    3.8291   -0.4200 H   0  0  0  0  0  0  0  0  0  0  0  0
    8.3541    1.8452   -1.7958 H   0  0  0  0  0  0  0  0  0  0  0  0
  1  2  2  0  0  0  0
  1  6  1  0  0  0  0
  1 15  1  0  0  0  0
  2  3  1  0  0  0  0
  2 26  1  0  0  0  0
  3  4  2  0  0  0  0
  3 27  1  0  0  0  0
  4  5  1  0  0  0  0
  4 28  1  0  0  0  0
  5  6  2  0  0  0  0
  5 29  1  0  0  0  0
  6 30  1  0  0  0  0
  7  8  1  0  0  0  0
  7 11  1  0  0  0  0
  7 13  1  0  0  0  0
  7 23  1  1  0  0  0
  8  9  1  0  0  0  0
  8 31  1  0  0  0  0
  8 32  1  0  0  0  0
  9 10  1  0  0  0  0
  9 33  1  0  0  0  0
  9 34  1  0  0  0  0
 10 11  1  0  0  0  0
 10 12  1  0  0  0  0
 10 24  1  6  0  0  0
 11 35  1  0  0  0  0
 11 36  1  0  0  0  0
 12 13  1  0  0  0  0
 12 18  1  0  0  0  0
 12 25  1  6  0  0  0
 13 15  1  1  0  0  0
 13 14  1  0  0  0  0
 14 37  1  0  0  0  0
 14 38  1  0  0  0  0
 15 16  2  0  0  0  0
 17 18  2  0  0  0  0
 17 22  1  0  0  0  0
 17 39  1  0  0  0  0
 18 19  1  0  0  0  0
 19 20  2  0  0  0  0
 19 40  1  0  0  0  0
 20 21  1  0  0  0  0
 20 41  1  0  0  0  0
 21 22  2  0  0  0  0
 21 42  1  0  0  0  0
 22 43  1  0  0  0  0
M  END
>  <DRUGBANK_ID>
DB07883

>  <COMMON_NAME>
(2-AMINO-3-PHENYL-BICYCLO[2.2.1]HEPT-2-YL)-PHENYL-METHANONE

$$$$
