
 OpenBabel10282417183D

 33 33  0  0  0  0  0  0  0  0999 V2000
    1.4137   -0.2085   -0.0138 C   0  0  0  0  0  0  0  0  0  0  0  0
    0.5364   -1.2946    0.0129 C   0  0  0  0  0  0  0  0  0  0  0  0
   -0.4628    1.3077   -0.0622 C   0  0  0  0  0  0  0  0  0  0  0  0
    0.9146    1.0993   -0.0843 C   0  0  0  0  0  0  0  0  0  0  0  0
   -1.3137    0.2294   -0.1805 C   0  0  0  0  0  0  0  0  0  0  0  0
   -0.8420   -1.0805   -0.0620 C   0  0  0  0  0  0  0  0  0  0  0  0
    1.8191    2.2867   -0.3270 C   0  0  1  0  0  0  0  0  0  0  0  0
    1.4439    2.9876   -1.6323 C   0  0  0  0  0  0  0  0  0  0  0  0
    1.0791    4.1511   -1.7608 O   0  0  0  0  0  0  0  0  0  0  0  0
    1.5326    2.1916   -2.7190 O   0  0  0  0  0  0  0  0  0  0  0  0
    1.7393    3.2620    0.8455 C   0  0  0  0  0  0  0  0  0  0  0  0
   -1.8207   -2.2213    0.0425 C   0  0  0  0  0  0  0  0  0  0  0  0
   -3.5877   -0.9045    1.3968 C   0  0  0  0  0  0  0  0  0  0  0  0
   -2.6973   -2.1498    1.3180 C   0  0  0  0  0  0  0  0  0  0  0  0
   -3.6072   -3.3731    1.3780 C   0  0  0  0  0  0  0  0  0  0  0  0
    2.4844   -0.3934    0.0113 H   0  0  0  0  0  0  0  0  0  0  0  0
    0.9359   -2.3049    0.0636 H   0  0  0  0  0  0  0  0  0  0  0  0
   -0.8897    2.3063   -0.0083 H   0  0  0  0  0  0  0  0  0  0  0  0
   -2.3665    0.4420   -0.3321 H   0  0  0  0  0  0  0  0  0  0  0  0
    2.8580    1.9529   -0.4332 H   0  0  0  0  0  0  0  0  0  0  0  0
    1.2061    2.7416   -3.4614 H   0  0  0  0  0  0  0  0  0  0  0  0
    2.0148    2.7703    1.7840 H   0  0  0  0  0  0  0  0  0  0  0  0
    2.4098    4.1112    0.6847 H   0  0  0  0  0  0  0  0  0  0  0  0
    0.7287    3.6697    0.9689 H   0  0  0  0  0  0  0  0  0  0  0  0
   -2.4419   -2.2446   -0.8616 H   0  0  0  0  0  0  0  0  0  0  0  0
   -1.2641   -3.1693    0.0518 H   0  0  0  0  0  0  0  0  0  0  0  0
   -4.1753   -0.7932    0.4778 H   0  0  0  0  0  0  0  0  0  0  0  0
   -4.2732   -0.9439    2.2456 H   0  0  0  0  0  0  0  0  0  0  0  0
   -3.0026    0.0024    1.5637 H   0  0  0  0  0  0  0  0  0  0  0  0
   -2.0411   -2.1539    2.1988 H   0  0  0  0  0  0  0  0  0  0  0  0
   -3.0247   -4.2978    1.4062 H   0  0  0  0  0  0  0  0  0  0  0  0
   -4.2357   -3.3376    2.2739 H   0  0  0  0  0  0  0  0  0  0  0  0
   -4.2666   -3.4052    0.5036 H   0  0  0  0  0  0  0  0  0  0  0  0
  1  4  2  0  0  0  0
  1 16  1  0  0  0  0
  2  1  1  0  0  0  0
  2  6  2  0  0  0  0
  2 17  1  0  0  0  0
  3 18  1  0  0  0  0
  4  3  1  0  0  0  0
  5  3  2  0  0  0  0
  5 19  1  0  0  0  0
  6  5  1  0  0  0  0
  7  4  1  0  0  0  0
  7  8  1  0  0  0  0
  7 11  1  0  0  0  0
  7 20  1  6  0  0  0
  9  8  2  0  0  0  0
 10  8  1  0  0  0  0
 10 21  1  0  0  0  0
 11 22  1  0  0  0  0
 11 23  1  0  0  0  0
 11 24  1  0  0  0  0
 12  6  1  0  0  0  0
 12 14  1  0  0  0  0
 12 25  1  0  0  0  0
 12 26  1  0  0  0  0
 13 27  1  0  0  0  0
 13 28  1  0  0  0  0
 13 29  1  0  0  0  0
 14 13  1  0  0  0  0
 14 15  1  0  0  0  0
 14 30  1  0  0  0  0
 15 31  1  0  0  0  0
 15 32  1  0  0  0  0
 15 33  1  0  0  0  0
M  END
>  <DRUGBANK_ID>
DB09213

>  <COMMON_NAME>
Dexibuprofen

>  <CAS_NUMBER>
51146-56-6

>  <UNII>
671DKG7P5S

>  <SYNONYMS>
(+)-(S)-p-isobutylhydratropic acid; (2S)-2-(4-isobutylphenyl)propanoic acid; (S)-Î±-methyl-4-(2-methylpropyl)benzeneacetic acid; d-ibuproten; Dexibuprofen; Dexibuprofeno

$$$$
