
 OpenBabel10282417133D

 33 33  0  0  1  0  0  0  0  0999 V2000
   -0.7278    1.6886   -0.0227 C   0  0  0  0  0  0  0  0  0  0  0  0
    0.5445    1.2109   -0.7473 C   0  0  2  0  0  0  0  0  0  0  0  0
    2.1561    1.7509   -3.1551 C   0  0  2  0  0  0  0  0  0  0  0  0
    1.4018    2.4620   -0.8653 C   0  0  2  0  0  0  0  0  0  0  0  0
    2.5713    2.2949   -1.7857 C   0  0  2  0  0  0  0  0  0  0  0  0
    1.3112    0.4568   -2.9391 C   0  0  1  0  0  0  0  0  0  0  0  0
    3.3757    1.5206   -3.9780 N   0  0  0  0  0  0  0  0  0  0  0  0
    1.8344    2.9005    0.4209 O   0  0  0  0  0  0  0  0  0  0  0  0
    3.1485    3.6113   -1.8813 O   0  0  0  0  0  0  0  0  0  0  0  0
    2.1246   -0.6267   -2.5207 O   0  0  0  0  0  0  0  0  0  0  0  0
    5.1206    3.2087   -3.0487 O   0  0  0  0  0  0  0  0  0  0  0  0
    5.3187    2.3718   -5.3292 O   0  0  0  0  0  0  0  0  0  0  0  0
    3.4239    3.9351   -4.6889 O   0  0  0  0  0  0  0  0  0  0  0  0
   -0.8876    2.4313   -3.1355 O   0  0  0  0  0  0  0  0  0  0  0  0
   -2.9682    1.6817   -2.0121 O   0  0  0  0  0  0  0  0  0  0  0  0
   -2.4203    4.1278   -2.4166 O   0  0  0  0  0  0  0  0  0  0  0  0
   -1.2565    2.8645   -0.6423 O   0  0  0  0  0  0  0  0  0  0  0  0
    0.2397    0.6114   -2.0022 O   0  0  0  0  0  0  0  0  0  0  0  0
    4.3344    2.8402   -4.4012 S   0  0  0  0  0  0  0  0  0  0  0  0
   -2.0372    2.7831   -2.0650 S   0  0  0  0  0  0  0  0  0  0  0  0
    1.0293    0.4445   -0.1330 H   0  0  0  0  0  0  0  0  0  0  0  0
    1.5488    2.4891   -3.6919 H   0  0  0  0  0  0  0  0  0  0  0  0
    0.8352    3.3001   -1.2854 H   0  0  0  0  0  0  0  0  0  0  0  0
    3.3179    1.6335   -1.3324 H   0  0  0  0  0  0  0  0  0  0  0  0
    0.8545    0.1591   -3.8937 H   0  0  0  0  0  0  0  0  0  0  0  0
   -0.4328    1.9846    0.9955 H   0  0  0  0  0  0  0  0  0  0  0  0
   -1.4989    0.9248    0.0745 H   0  0  0  0  0  0  0  0  0  0  0  0
    3.9285    0.6947   -3.7433 H   0  0  0  0  0  0  0  0  0  0  0  0
    2.4295    2.2358    0.8060 H   0  0  0  0  0  0  0  0  0  0  0  0
    2.5286    4.1953   -2.3698 H   0  0  0  0  0  0  0  0  0  0  0  0
    2.4757   -0.4101   -1.6476 H   0  0  0  0  0  0  0  0  0  0  0  0
    4.5029    3.6619   -2.4195 H   0  0  0  0  0  0  0  0  0  0  0  0
   -0.2825    3.1905   -3.1887 H   0  0  0  0  0  0  0  0  0  0  0  0
  1 26  1  0  0  0  0
  1 27  1  0  0  0  0
  2 21  1  1  0  0  0
  2  1  1  0  0  0  0
  3  7  1  0  0  0  0
  3 22  1  6  0  0  0
  4  2  1  0  0  0  0
  4  8  1  0  0  0  0
  4 23  1  6  0  0  0
  5  3  1  0  0  0  0
  5  4  1  0  0  0  0
  5  9  1  0  0  0  0
  5 24  1  1  0  0  0
  6  3  1  0  0  0  0
  6 10  1  0  0  0  0
  6 25  1  6  0  0  0
  7 28  1  0  0  0  0
  8 29  1  0  0  0  0
  9 30  1  0  0  0  0
 10 31  1  0  0  0  0
 11 32  1  0  0  0  0
 14 33  1  0  0  0  0
 17  1  1  0  0  0  0
 18  2  1  0  0  0  0
 18  6  1  0  0  0  0
 19  7  1  0  0  0  0
 19 11  1  0  0  0  0
 19 12  2  0  0  0  0
 19 13  2  0  0  0  0
 20 14  1  0  0  0  0
 20 15  2  0  0  0  0
 20 16  2  0  0  0  0
 20 17  1  0  0  0  0
M  END
>  <DRUGBANK_ID>
DB03959

>  <SECONDARY_ACCESSION_NUMBERS>
EXPT02898

>  <COMMON_NAME>
N,O6-Disulfo-Glucosamine

$$$$
