
 OpenBabel10282417203D

 26 26  0  0  0  0  0  0  0  0999 V2000
    1.1807    0.1466    0.0038 N   0  0  0  0  0  0  0  0  0  0  0  0
    0.4873   -0.6366    0.8585 C   0  0  0  0  0  0  0  0  0  0  0  0
   -0.6197   -1.0052    0.5619 O   0  0  0  0  0  0  0  0  0  0  0  0
    1.1986   -0.8481    1.9994 O   0  0  0  0  0  0  0  0  0  0  0  0
    0.5595   -1.5643    3.0721 C   0  0  0  0  0  0  0  0  0  0  0  0
   -0.5098   -0.7299    3.8326 C   0  0  0  0  0  0  0  0  0  0  0  0
   -1.6951   -0.2036    2.9992 C   0  0  0  0  0  0  0  0  0  0  0  0
   -2.5819   -1.3184    2.4593 C   0  0  0  0  0  0  0  0  0  0  0  0
   -2.2180   -2.6715    2.5854 C   0  0  0  0  0  0  0  0  0  0  0  0
   -2.9041   -3.7197    2.0025 C   0  0  0  0  0  0  0  0  0  0  0  0
   -4.1244   -3.4544    1.4316 C   0  0  0  0  0  0  0  0  0  0  0  0
   -4.5800   -2.1333    1.3710 C   0  0  0  0  0  0  0  0  0  0  0  0
   -3.7765   -1.0593    1.7923 C   0  0  0  0  0  0  0  0  0  0  0  0
    0.6769    0.3942   -0.8353 H   0  0  0  0  0  0  0  0  0  0  0  0
    2.1831    0.1373    0.0324 H   0  0  0  0  0  0  0  0  0  0  0  0
    0.2767   -2.5392    2.6719 H   0  0  0  0  0  0  0  0  0  0  0  0
    1.3197   -1.8425    3.8153 H   0  0  0  0  0  0  0  0  0  0  0  0
   -0.9226   -1.3007    4.6786 H   0  0  0  0  0  0  0  0  0  0  0  0
    0.0045    0.1301    4.2766 H   0  0  0  0  0  0  0  0  0  0  0  0
   -2.3073    0.4686    3.6146 H   0  0  0  0  0  0  0  0  0  0  0  0
   -1.3061    0.4593    2.2154 H   0  0  0  0  0  0  0  0  0  0  0  0
   -1.3760   -2.9918    3.1689 H   0  0  0  0  0  0  0  0  0  0  0  0
   -2.4877   -4.7198    2.0714 H   0  0  0  0  0  0  0  0  0  0  0  0
   -4.7219   -4.2816    1.0676 H   0  0  0  0  0  0  0  0  0  0  0  0
   -5.5811   -1.9444    0.9999 H   0  0  0  0  0  0  0  0  0  0  0  0
   -4.1078   -0.0392    1.6141 H   0  0  0  0  0  0  0  0  0  0  0  0
  1  2  1  0  0  0  0
  1 14  1  0  0  0  0
  1 15  1  0  0  0  0
  2  3  2  0  0  0  0
  2  4  1  0  0  0  0
  4  5  1  0  0  0  0
  5  6  1  0  0  0  0
  5 16  1  0  0  0  0
  5 17  1  0  0  0  0
  6  7  1  0  0  0  0
  6 18  1  0  0  0  0
  6 19  1  0  0  0  0
  7  8  1  0  0  0  0
  7 20  1  0  0  0  0
  7 21  1  0  0  0  0
  8  9  2  0  0  0  0
  8 13  1  0  0  0  0
  9 10  1  0  0  0  0
  9 22  1  0  0  0  0
 10 11  2  0  0  0  0
 10 23  1  0  0  0  0
 11 12  1  0  0  0  0
 11 24  1  0  0  0  0
 12 13  2  0  0  0  0
 12 25  1  0  0  0  0
 13 26  1  0  0  0  0
M  END
>  <DRUGBANK_ID>
DB13354

>  <COMMON_NAME>
Phenprobamate

>  <CAS_NUMBER>
673-31-4

>  <UNII>
UJZ473TPS0

>  <SYNONYMS>
Phenprobamate

$$$$
