
 OpenBabel10282417143D

 43 46  0  0  1  0  0  0  0  0999 V2000
    1.5644   11.7570    4.1920 O   0  0  0  0  0  0  0  0  0  0  0  0
    3.3133    9.6213    6.4825 O   0  0  0  0  0  0  0  0  0  0  0  0
    2.1214   11.9087    7.1776 O   0  0  0  0  0  0  0  0  0  0  0  0
    3.3743    5.6056    1.3312 O   0  0  0  0  0  0  0  0  0  0  0  0
    4.2091   14.2519    4.6649 O   0  0  0  0  0  0  0  0  0  0  0  0
    2.3433    9.8062    3.3144 N   0  0  0  0  0  0  0  0  0  0  0  0
    3.5734    8.2806   -0.8694 N   0  0  0  0  0  0  0  0  0  0  0  0
    1.5276    9.0889    1.4185 N   0  0  0  0  0  0  0  0  0  0  0  0
    4.5743   10.5207    2.5743 N   0  0  0  0  0  0  0  0  0  0  0  0
    5.0085    9.7257    0.3125 N   0  0  0  0  0  0  0  0  0  0  0  0
    2.1071   10.4730    4.5494 C   0  0  1  0  0  0  0  0  0  0  0  0
    3.2869   10.6475    5.4852 C   0  0  1  0  0  0  0  0  0  0  0  0
    3.0037   12.0301    6.0452 C   0  0  1  0  0  0  0  0  0  0  0  0
    2.2923   12.7607    4.9010 C   0  0  1  0  0  0  0  0  0  0  0  0
    3.2086   13.5398    3.9503 C   0  0  0  0  0  0  0  0  0  0  0  0
    3.0515    6.8969   -0.7047 C   0  0  2  0  0  0  0  0  0  0  0  0
    3.3547    9.9708    2.4052 C   0  0  0  0  0  0  0  0  0  0  0  0
    1.7576    6.7848    0.0569 C   0  0  0  0  0  0  0  0  0  0  0  0
    2.8673    9.4043    1.2494 C   0  0  0  0  0  0  0  0  0  0  0  0
    1.3263    9.1360    2.7007 C   0  0  0  0  0  0  0  0  0  0  0  0
    3.9421    5.8922    0.0413 C   0  0  0  0  0  0  0  0  0  0  0  0
    3.7895    9.1282    0.2173 C   0  0  0  0  0  0  0  0  0  0  0  0
    2.2192    6.4263    1.4683 C   0  0  0  0  0  0  0  0  0  0  0  0
    5.3036   10.4061    1.4454 C   0  0  0  0  0  0  0  0  0  0  0  0
    2.6121    9.8139    7.1332 H   0  0  0  0  0  0  0  0  0  0  0  0
    1.2530   11.5884    6.8772 H   0  0  0  0  0  0  0  0  0  0  0  0
    3.7707   14.7791    5.3556 H   0  0  0  0  0  0  0  0  0  0  0  0
    4.4005    8.3236   -1.4600 H   0  0  0  0  0  0  0  0  0  0  0  0
    1.3015    9.9337    5.0685 H   0  0  0  0  0  0  0  0  0  0  0  0
    4.2491   10.6315    4.9738 H   0  0  0  0  0  0  0  0  0  0  0  0
    3.9104   12.5276    6.3911 H   0  0  0  0  0  0  0  0  0  0  0  0
    1.5340   13.4481    5.2873 H   0  0  0  0  0  0  0  0  0  0  0  0
    3.6950   12.8986    3.2115 H   0  0  0  0  0  0  0  0  0  0  0  0
    2.6194   14.2642    3.3740 H   0  0  0  0  0  0  0  0  0  0  0  0
    2.9067    6.5286   -1.7267 H   0  0  0  0  0  0  0  0  0  0  0  0
    1.1081    7.6504   -0.0882 H   0  0  0  0  0  0  0  0  0  0  0  0
    1.1670    5.9448   -0.3196 H   0  0  0  0  0  0  0  0  0  0  0  0
    0.4848    8.7017    3.2386 H   0  0  0  0  0  0  0  0  0  0  0  0
    3.9064    4.9220   -0.4613 H   0  0  0  0  0  0  0  0  0  0  0  0
    4.9852    6.2005    0.1421 H   0  0  0  0  0  0  0  0  0  0  0  0
    2.6146    7.2218    2.0844 H   0  0  0  0  0  0  0  0  0  0  0  0
    1.4340    5.9622    2.0692 H   0  0  0  0  0  0  0  0  0  0  0  0
    6.2589   10.9295    1.4494 H   0  0  0  0  0  0  0  0  0  0  0  0
  1 11  1  0  0  0  0
  1 14  1  0  0  0  0
  2 25  1  0  0  0  0
  3 26  1  0  0  0  0
  4 21  1  0  0  0  0
  4 23  1  0  0  0  0
  5 15  1  0  0  0  0
  5 27  1  0  0  0  0
  6 17  1  0  0  0  0
  6 20  1  0  0  0  0
  7 22  1  0  0  0  0
  7 28  1  0  0  0  0
  8 19  1  0  0  0  0
  8 20  2  0  0  0  0
  9 17  2  0  0  0  0
  9 24  1  0  0  0  0
 10 22  1  0  0  0  0
 10 24  2  0  0  0  0
 11 12  1  0  0  0  0
 11 29  1  1  0  0  0
 11  6  1  0  0  0  0
 12  2  1  0  0  0  0
 12 13  1  0  0  0  0
 12 30  1  6  0  0  0
 13  3  1  0  0  0  0
 13 14  1  0  0  0  0
 13 31  1  1  0  0  0
 14 32  1  1  0  0  0
 14 15  1  0  0  0  0
 15 33  1  0  0  0  0
 15 34  1  0  0  0  0
 16 18  1  0  0  0  0
 16 21  1  0  0  0  0
 16 35  1  6  0  0  0
 16  7  1  0  0  0  0
 17 19  1  0  0  0  0
 18 23  1  0  0  0  0
 18 36  1  0  0  0  0
 18 37  1  0  0  0  0
 19 22  2  0  0  0  0
 20 38  1  0  0  0  0
 21 39  1  0  0  0  0
 21 40  1  0  0  0  0
 23 41  1  0  0  0  0
 23 42  1  0  0  0  0
 24 43  1  0  0  0  0
M  END
>  <DRUGBANK_ID>
DB04954

>  <COMMON_NAME>
Tecadenoson

>  <CAS_NUMBER>
204512-90-3

>  <UNII>
GZ1X96601Z

>  <SYNONYMS>
Tecadenoson

$$$$
