MPX
 OpenBabel10282417173D

 40 41  0  0  0  0  0  0  0  0999 V2000
    1.7648   -0.7006   -0.1498 C   0  0  0  0  0  0  0  0  0  0  0  0
    0.7063   -1.7408   -0.3244 C   0  0  0  0  0  0  0  0  0  0  0  0
   -0.7143   -1.5289   -0.7905 C   0  0  0  0  0  0  0  0  0  0  0  0
   -1.0529   -0.2253   -1.1586 C   0  0  0  0  0  0  0  0  0  0  0  0
    0.3040    0.6223   -0.8661 C   0  0  0  0  0  0  0  0  0  0  0  0
    1.6017    0.5737   -0.5016 C   0  0  0  0  0  0  0  0  0  0  0  0
   -2.7080    0.3871   -0.9033 N   0  0  0  0  0  0  0  0  0  0  0  0
   -3.4868    1.7597   -0.4784 C   0  0  0  0  0  0  0  0  0  0  0  0
   -5.1584    1.8773   -0.4526 S   0  0  0  0  0  0  0  0  0  0  0  0
   -2.8544    2.9801    0.0549 N   0  0  0  0  0  0  0  0  0  0  0  0
   -1.5252    3.2472    0.2052 N   0  0  0  0  0  0  0  0  0  0  0  0
   -1.1737    2.1355   -0.4893 C   0  0  0  0  0  0  0  0  0  0  0  0
   -1.3555    0.8016    0.9308 C   0  0  0  0  0  0  0  0  0  0  0  0
   -0.5449    0.7844    2.1357 N   0  0  0  0  0  0  0  0  0  0  0  0
   -0.7520   -0.5552    2.8121 C   0  0  0  0  0  0  0  0  0  0  0  0
   -1.1178    1.9990    2.6476 C   0  0  0  0  0  0  0  0  0  0  0  0
   -0.8744    3.1898    1.5809 C   0  0  0  0  0  0  0  0  0  0  0  0
    3.4292   -0.8378    0.3335 S   0  0  0  0  0  0  0  0  0  0  0  0
    4.0969   -0.1128   -1.0522 N   0  0  0  0  0  0  0  0  0  0  0  0
    3.7314   -0.0218    1.4358 O   0  0  0  0  0  0  0  0  0  0  0  0
    3.7178   -2.2854    0.2440 O   0  0  0  0  0  0  0  0  0  0  0  0
    0.9806   -2.7283    0.0337 H   0  0  0  0  0  0  0  0  0  0  0  0
   -1.4827   -2.2252   -0.4175 H   0  0  0  0  0  0  0  0  0  0  0  0
    0.3230    1.3630    0.0258 H   0  0  0  0  0  0  0  0  0  0  0  0
    2.1370    1.4805   -0.1028 H   0  0  0  0  0  0  0  0  0  0  0  0
   -3.3555   -0.3797   -0.6990 H   0  0  0  0  0  0  0  0  0  0  0  0
   -3.3542    3.8596   -0.0894 H   0  0  0  0  0  0  0  0  0  0  0  0
   -0.2775    2.4644   -1.0893 H   0  0  0  0  0  0  0  0  0  0  0  0
   -1.6529    1.9323   -1.5165 H   0  0  0  0  0  0  0  0  0  0  0  0
   -0.9739   -0.1688    0.7407 H   0  0  0  0  0  0  0  0  0  0  0  0
   -2.4001    0.5172    1.1800 H   0  0  0  0  0  0  0  0  0  0  0  0
   -0.2750   -0.6275    3.7892 H   0  0  0  0  0  0  0  0  0  0  0  0
   -1.8051   -0.8729    2.8714 H   0  0  0  0  0  0  0  0  0  0  0  0
   -0.2789   -1.3913    2.2429 H   0  0  0  0  0  0  0  0  0  0  0  0
   -2.1999    1.8739    2.7679 H   0  0  0  0  0  0  0  0  0  0  0  0
   -0.6476    2.1756    3.6072 H   0  0  0  0  0  0  0  0  0  0  0  0
    0.2304    3.2669    1.4487 H   0  0  0  0  0  0  0  0  0  0  0  0
   -1.1916    4.1045    2.0535 H   0  0  0  0  0  0  0  0  0  0  0  0
    5.1061   -0.0648   -1.0329 H   0  0  0  0  0  0  0  0  0  0  0  0
    3.6591   -0.3955   -1.9282 H   0  0  0  0  0  0  0  0  0  0  0  0
  1  2  1  0  0  0  0
  1  6  2  0  0  0  0
  1 18  1  0  0  0  0
  2  3  2  0  0  0  0
  2 22  1  0  0  0  0
  3  4  1  0  0  0  0
  3 23  1  0  0  0  0
  4  5  2  0  0  0  0
  4  7  1  0  0  0  0
  5  6  1  0  0  0  0
  5 24  1  0  0  0  0
  6 25  1  0  0  0  0
  7  8  1  0  0  0  0
  7 26  1  0  0  0  0
  8  9  2  0  0  0  0
  8 10  1  0  0  0  0
 10 11  1  0  0  0  0
 10 27  1  0  0  0  0
 11 12  1  0  0  0  0
 11 17  1  0  0  0  0
 12 13  1  0  0  0  0
 12 28  1  0  0  0  0
 12 29  1  0  0  0  0
 13 14  1  0  0  0  0
 13 30  1  0  0  0  0
 13 31  1  0  0  0  0
 14 15  1  0  0  0  0
 14 16  1  0  0  0  0
 15 32  1  0  0  0  0
 15 33  1  0  0  0  0
 15 34  1  0  0  0  0
 16 17  1  0  0  0  0
 16 35  1  0  0  0  0
 16 36  1  0  0  0  0
 17 37  1  0  0  0  0
 17 38  1  0  0  0  0
 18 19  1  0  0  0  0
 18 20  2  0  0  0  0
 18 21  2  0  0  0  0
 19 39  1  0  0  0  0
 19 40  1  0  0  0  0
M  END
>  <DRUGBANK_ID>
DB08202

>  <COMMON_NAME>
4-({[(4-METHYLPIPERAZIN-1-YL)AMINO]CARBONOTHIOYL}AMINO)BENZENESULFONAMIDE

$$$$
