
 OpenBabel10282417183D

109113  0  0  0  0  0  0  0  0999 V2000
   -1.1474    0.8629    9.4290 C   0  0  2  0  0  0  0  0  0  0  0  0
   -2.3285    0.6141   10.2156 O   0  0  0  0  0  0  0  0  0  0  0  0
   -0.0518    0.0331    9.7965 O   0  0  0  0  0  0  0  0  0  0  0  0
   -0.6502    2.2566    9.7972 C   0  0  0  0  0  0  0  0  0  0  0  0
   -1.4092    0.6801    7.9301 C   0  0  0  0  0  0  0  0  0  0  0  0
   -2.9271    1.8703   10.6057 C   0  0  1  0  0  0  0  0  0  0  0  0
   -0.2200   -1.3475    9.5214 C   0  0  2  0  0  0  0  0  0  0  0  0
   -1.7993    2.8894   10.5152 C   0  0  0  0  0  0  0  0  0  0  0  0
   -1.6438   -0.7910    7.5640 C   0  0  1  0  0  0  0  0  0  0  0  0
   -4.3159    2.1372    9.7776 C   0  0  2  0  0  0  0  0  0  0  0  0
    0.9871   -2.0584   10.1589 C   0  0  2  0  0  0  0  0  0  0  0  0
   -0.4289   -1.6163    8.0056 C   0  0  1  0  0  0  0  0  0  0  0  0
   -2.8625   -1.3024    8.0936 O   0  0  0  0  0  0  0  0  0  0  0  0
   -4.2388    2.0366    8.3040 O   0  0  0  0  0  0  0  0  0  0  0  0
   -4.9780    3.4994   10.0278 C   0  0  0  0  0  0  0  0  0  0  0  0
    1.0132   -1.8828   11.7222 C   0  0  2  0  0  0  0  0  0  0  0  0
    2.2913   -1.4830    9.5632 C   0  0  0  0  0  0  0  0  0  0  0  0
    0.7127   -1.2780    7.0215 C   0  0  0  0  0  0  0  0  0  0  0  0
   -5.0953    3.0300    7.6252 C   0  0  1  0  0  0  0  0  0  0  0  0
   -5.8297    3.7357    8.7890 C   0  0  0  0  0  0  0  0  0  0  0  0
    2.0923   -2.7525   12.4969 C   0  0  1  0  0  0  0  0  0  0  0  0
   -0.3355   -1.8361   12.2110 O   0  0  0  0  0  0  0  0  0  0  0  0
   -4.3103    4.1192    6.6841 C   0  0  2  0  0  0  0  0  0  0  0  0
   -6.0748    2.2752    6.6983 C   0  0  0  0  0  0  0  0  0  0  0  0
    1.7063   -4.1143   13.0505 C   0  0  0  0  0  0  0  0  0  0  0  0
    3.3432   -3.0050   11.6629 C   0  0  0  0  0  0  0  0  0  0  0  0
   -0.7187   -2.8361   13.1179 C   0  0  0  0  0  0  0  0  0  0  0  0
   -3.5606    3.5924    5.5531 O   0  0  0  0  0  0  0  0  0  0  0  0
    1.6210   -5.1187   12.1649 O   0  0  0  0  0  0  0  0  0  0  0  0
    1.4416   -4.3178   14.2537 O   0  0  0  0  0  0  0  0  0  0  0  0
   -2.3308    4.3650    5.4059 C   0  0  2  0  0  0  0  0  0  0  0  0
   -2.3547    5.5259    6.3982 C   0  0  0  0  0  0  0  0  0  0  0  0
   -2.0801    4.9533    4.0372 C   0  0  1  0  0  0  0  0  0  0  0  0
   -3.1457    5.8932    3.7807 O   0  0  0  0  0  0  0  0  0  0  0  0
   -0.6978    5.6642    4.0350 C   0  0  2  0  0  0  0  0  0  0  0  0
   -3.0237    6.5965    2.5486 C   0  0  1  0  0  0  0  0  0  0  0  0
   -0.5220    6.3961    2.7263 C   0  0  0  0  0  0  0  0  0  0  0  0
    0.5067    4.7465    4.2538 C   0  0  0  0  0  0  0  0  0  0  0  0
   -1.6812    7.3550    2.5061 C   0  0  1  0  0  0  0  0  0  0  0  0
   -3.1757    5.6737    1.4792 O   0  0  0  0  0  0  0  0  0  0  0  0
   -1.4344    8.0662    1.1854 C   0  0  0  0  0  0  0  0  0  0  0  0
   -2.3518    4.1100    8.0976 C   0  0  0  0  0  0  0  0  0  0  0  0
   -1.1156   -1.6973   10.0482 H   0  0  0  0  0  0  0  0  0  0  0  0
   -5.0710    4.7688    6.2324 H   0  0  0  0  0  0  0  0  0  0  0  0
   -3.1955    1.8940   12.1090 C   0  0  0  0  0  0  0  0  0  0  0  0
   -5.0143    1.3401   10.0681 H   0  0  0  0  0  0  0  0  0  0  0  0
   -1.5206    3.6534    5.6231 H   0  0  0  0  0  0  0  0  0  0  0  0
   -2.1267    4.1429    3.3050 H   0  0  0  0  0  0  0  0  0  0  0  0
   -3.2926    4.9893    7.3975 C   0  0  2  0  0  0  0  0  0  0  0  0
   -6.8462    1.1697    7.4064 C   0  0  0  0  0  0  0  0  0  0  0  0
   -4.2012    7.5991    2.4470 C   0  0  0  0  0  0  0  0  0  0  0  0
   -4.1883    8.5740    3.4918 O   0  0  0  0  0  0  0  0  0  0  0  0
    0.2097    2.2226   10.4821 H   0  0  0  0  0  0  0  0  0  0  0  0
   -0.2787    2.8157    8.9333 H   0  0  0  0  0  0  0  0  0  0  0  0
   -0.5323    1.0564    7.3845 H   0  0  0  0  0  0  0  0  0  0  0  0
   -2.2575    1.2511    7.5746 H   0  0  0  0  0  0  0  0  0  0  0  0
   -2.2254    3.7579   10.1053 H   0  0  0  0  0  0  0  0  0  0  0  0
   -1.4742    3.4436   11.4027 H   0  0  0  0  0  0  0  0  0  0  0  0
   -1.7636   -0.8745    6.4789 H   0  0  0  0  0  0  0  0  0  0  0  0
    0.8728   -3.1294    9.9397 H   0  0  0  0  0  0  0  0  0  0  0  0
   -0.6593   -2.6849    7.9025 H   0  0  0  0  0  0  0  0  0  0  0  0
   -2.7039   -1.7382    8.9465 H   0  0  0  0  0  0  0  0  0  0  0  0
   -5.5521    3.5276   10.9569 H   0  0  0  0  0  0  0  0  0  0  0  0
   -4.2547    4.3150   10.1112 H   0  0  0  0  0  0  0  0  0  0  0  0
    1.3419   -0.8402   11.8610 H   0  0  0  0  0  0  0  0  0  0  0  0
    2.7953   -2.2328    8.9382 H   0  0  0  0  0  0  0  0  0  0  0  0
    2.1634   -0.5502    9.0230 H   0  0  0  0  0  0  0  0  0  0  0  0
    2.9780   -1.0974   10.3055 H   0  0  0  0  0  0  0  0  0  0  0  0
    0.4883   -0.4280    6.3721 H   0  0  0  0  0  0  0  0  0  0  0  0
    1.6632   -1.0031    7.4353 H   0  0  0  0  0  0  0  0  0  0  0  0
    0.9345   -2.1395    6.3902 H   0  0  0  0  0  0  0  0  0  0  0  0
   -6.0066    4.7968    8.5875 H   0  0  0  0  0  0  0  0  0  0  0  0
   -6.8146    3.3066    8.9853 H   0  0  0  0  0  0  0  0  0  0  0  0
    2.3994   -2.1626   13.3768 H   0  0  0  0  0  0  0  0  0  0  0  0
   -6.7817    2.9863    6.2499 H   0  0  0  0  0  0  0  0  0  0  0  0
   -5.5209    1.8144    5.8702 H   0  0  0  0  0  0  0  0  0  0  0  0
    3.9239   -2.0895   11.5485 H   0  0  0  0  0  0  0  0  0  0  0  0
    4.0104   -3.7690   12.0541 H   0  0  0  0  0  0  0  0  0  0  0  0
    3.0394   -3.3979   10.6898 H   0  0  0  0  0  0  0  0  0  0  0  0
   -0.5618   -3.8114   12.6540 H   0  0  0  0  0  0  0  0  0  0  0  0
   -0.1589   -2.6612   14.0371 H   0  0  0  0  0  0  0  0  0  0  0  0
   -1.7771   -2.7868   13.3681 H   0  0  0  0  0  0  0  0  0  0  0  0
    1.8824   -4.8961   11.2524 H   0  0  0  0  0  0  0  0  0  0  0  0
   -1.3430    5.7025    6.8059 H   0  0  0  0  0  0  0  0  0  0  0  0
   -2.7069    6.4834    6.0226 H   0  0  0  0  0  0  0  0  0  0  0  0
   -0.6718    6.4380    4.8169 H   0  0  0  0  0  0  0  0  0  0  0  0
   -0.4669    5.6637    1.9144 H   0  0  0  0  0  0  0  0  0  0  0  0
    0.4238    6.9489    2.7359 H   0  0  0  0  0  0  0  0  0  0  0  0
    0.9511    4.9287    5.2388 H   0  0  0  0  0  0  0  0  0  0  0  0
    0.2478    3.6881    4.1802 H   0  0  0  0  0  0  0  0  0  0  0  0
    1.2901    4.9450    3.5139 H   0  0  0  0  0  0  0  0  0  0  0  0
   -1.6595    8.0914    3.3250 H   0  0  0  0  0  0  0  0  0  0  0  0
   -2.4253    5.0638    1.5100 H   0  0  0  0  0  0  0  0  0  0  0  0
   -2.1860    8.8320    0.9892 H   0  0  0  0  0  0  0  0  0  0  0  0
   -0.4580    8.5602    1.2002 H   0  0  0  0  0  0  0  0  0  0  0  0
   -1.4391    7.3463    0.3615 H   0  0  0  0  0  0  0  0  0  0  0  0
   -1.6276    4.6918    8.6659 H   0  0  0  0  0  0  0  0  0  0  0  0
   -3.0350    3.5886    8.6885 H   0  0  0  0  0  0  0  0  0  0  0  0
   -1.8529    3.3206    7.5393 H   0  0  0  0  0  0  0  0  0  0  0  0
   -4.1014    1.3630   12.3876 H   0  0  0  0  0  0  0  0  0  0  0  0
   -2.3425    1.4560   12.6427 H   0  0  0  0  0  0  0  0  0  0  0  0
   -3.2987    2.9360   12.4476 H   0  0  0  0  0  0  0  0  0  0  0  0
   -3.7362    5.7199    8.0776 H   0  0  0  0  0  0  0  0  0  0  0  0
   -7.4569    1.5585    8.2240 H   0  0  0  0  0  0  0  0  0  0  0  0
   -7.5231    0.6679    6.7111 H   0  0  0  0  0  0  0  0  0  0  0  0
   -6.1614    0.4248    7.8205 H   0  0  0  0  0  0  0  0  0  0  0  0
   -4.1648    8.1264    1.4889 H   0  0  0  0  0  0  0  0  0  0  0  0
   -5.1646    7.0809    2.4770 H   0  0  0  0  0  0  0  0  0  0  0  0
   -4.2160    8.0634    4.3213 H   0  0  0  0  0  0  0  0  0  0  0  0
  1  2  1  1  0  0  0
  1  3  1  0  0  0  0
  1  4  1  0  0  0  0
  1  5  1  0  0  0  0
  4  8  1  0  0  0  0
  4 53  1  0  0  0  0
  4 54  1  0  0  0  0
  5  9  1  0  0  0  0
  5 55  1  0  0  0  0
  5 56  1  0  0  0  0
  6  8  1  0  0  0  0
  6  2  1  0  0  0  0
  6 10  1  0  0  0  0
  6 45  1  1  0  0  0
  7  3  1  0  0  0  0
  7 43  1  1  0  0  0
  7 11  1  0  0  0  0
  7 12  1  0  0  0  0
  8 57  1  0  0  0  0
  8 58  1  0  0  0  0
  9 12  1  0  0  0  0
  9 59  1  6  0  0  0
  9 13  1  0  0  0  0
 10 14  1  0  0  0  0
 10 15  1  0  0  0  0
 10 46  1  1  0  0  0
 11 60  1  6  0  0  0
 11 17  1  0  0  0  0
 11 16  1  0  0  0  0
 12 61  1  6  0  0  0
 12 18  1  0  0  0  0
 13 62  1  0  0  0  0
 15 20  1  0  0  0  0
 15 63  1  0  0  0  0
 15 64  1  0  0  0  0
 16 65  1  1  0  0  0
 16 22  1  0  0  0  0
 16 21  1  0  0  0  0
 17 66  1  0  0  0  0
 17 67  1  0  0  0  0
 17 68  1  0  0  0  0
 18 69  1  0  0  0  0
 18 70  1  0  0  0  0
 18 71  1  0  0  0  0
 19 14  1  0  0  0  0
 19 23  1  0  0  0  0
 19 24  1  6  0  0  0
 19 20  1  0  0  0  0
 20 72  1  0  0  0  0
 20 73  1  0  0  0  0
 21 25  1  0  0  0  0
 21 26  1  0  0  0  0
 21 74  1  1  0  0  0
 22 27  1  0  0  0  0
 23 28  1  0  0  0  0
 23 49  1  0  0  0  0
 23 44  1  6  0  0  0
 24 50  1  0  0  0  0
 24 75  1  0  0  0  0
 24 76  1  0  0  0  0
 25 29  1  0  0  0  0
 25 30  2  0  0  0  0
 26 77  1  0  0  0  0
 26 78  1  0  0  0  0
 26 79  1  0  0  0  0
 27 80  1  0  0  0  0
 27 81  1  0  0  0  0
 27 82  1  0  0  0  0
 28 31  1  0  0  0  0
 29 83  1  0  0  0  0
 31 32  1  0  0  0  0
 31 47  1  1  0  0  0
 32 84  1  0  0  0  0
 32 85  1  0  0  0  0
 33 34  1  0  0  0  0
 33 35  1  0  0  0  0
 33 31  1  0  0  0  0
 33 48  1  6  0  0  0
 34 36  1  0  0  0  0
 35 37  1  0  0  0  0
 35 86  1  1  0  0  0
 35 38  1  0  0  0  0
 36 39  1  0  0  0  0
 36 40  1  6  0  0  0
 36 51  1  0  0  0  0
 37 39  1  0  0  0  0
 37 87  1  0  0  0  0
 37 88  1  0  0  0  0
 38 89  1  0  0  0  0
 38 90  1  0  0  0  0
 38 91  1  0  0  0  0
 39 41  1  0  0  0  0
 39 92  1  1  0  0  0
 40 93  1  0  0  0  0
 41 94  1  0  0  0  0
 41 95  1  0  0  0  0
 41 96  1  0  0  0  0
 42 97  1  0  0  0  0
 42 98  1  0  0  0  0
 42 99  1  0  0  0  0
 45100  1  0  0  0  0
 45101  1  0  0  0  0
 45102  1  0  0  0  0
 49 32  1  0  0  0  0
 49103  1  1  0  0  0
 49 42  1  0  0  0  0
 50104  1  0  0  0  0
 50105  1  0  0  0  0
 50106  1  0  0  0  0
 51 52  1  0  0  0  0
 51107  1  0  0  0  0
 51108  1  0  0  0  0
 52109  1  0  0  0  0
M  END
>  <DRUGBANK_ID>
DB11430

>  <COMMON_NAME>
Monensin

>  <CAS_NUMBER>
17090-79-8

>  <UNII>
906O0YJ6ZP

>  <SYNONYMS>
Monensic acid; Monensin; Monensin A; Monensina; Monensinum

$$$$
