
 OpenBabel10282417143D

229234  0  0  1  0  0  0  0  0999 V2000
   -1.1020   -1.2147    0.2609 O   0  0  0  0  0  0  0  0  0  0  0  0
   -2.6596    0.4426   -1.2286 O   0  0  0  0  0  0  0  0  0  0  0  0
   -1.7864   -4.8192   -1.3559 O   0  0  0  0  0  0  0  0  0  0  0  0
    1.4993   -5.1469    0.6876 O   0  0  0  0  0  0  0  0  0  0  0  0
    1.4071    0.3172    2.8299 O   0  0  0  0  0  0  0  0  0  0  0  0
   -1.0534   -4.9746    4.1505 O   0  0  0  0  0  0  0  0  0  0  0  0
    4.3784   -4.1699    4.7795 O   0  0  0  0  0  0  0  0  0  0  0  0
    0.2722   -0.1043    7.3046 O   0  0  0  0  0  0  0  0  0  0  0  0
    2.6287   -5.7869    7.8028 O   0  0  0  0  0  0  0  0  0  0  0  0
    6.5572   -0.9169    8.5236 O   0  0  0  0  0  0  0  0  0  0  0  0
    0.3526   -2.8127   11.5849 O   0  0  0  0  0  0  0  0  0  0  0  0
    1.4845   -1.6363   13.9765 O   0  0  0  0  0  0  0  0  0  0  0  0
    3.4490   -6.5722   12.9255 O   0  0  0  0  0  0  0  0  0  0  0  0
    4.1390   -6.7024   10.7867 O   0  0  0  0  0  0  0  0  0  0  0  0
    6.3441   -4.3889   11.3075 O   0  0  0  0  0  0  0  0  0  0  0  0
    3.5450    0.4430   13.9741 O   0  0  0  0  0  0  0  0  0  0  0  0
    5.5713    0.2072   16.2325 O   0  0  0  0  0  0  0  0  0  0  0  0
    7.8933   -8.2518   15.1528 O   0  0  0  0  0  0  0  0  0  0  0  0
    2.9767   -4.9424   15.1193 O   0  0  0  0  0  0  0  0  0  0  0  0
   -3.1596   -1.5069    1.1866 N   0  0  0  0  0  0  0  0  0  0  0  0
   -2.7717   -1.6144   -2.1555 N   0  0  0  0  0  0  0  0  0  0  0  0
   -0.3549   -3.9353    1.1801 N   0  0  0  0  0  0  0  0  0  0  0  0
   -1.0234   -3.8783   -3.2617 N   0  0  0  0  0  0  0  0  0  0  0  0
   -1.2380   -1.8988    6.6291 N   0  0  0  0  0  0  0  0  0  0  0  0
    2.0905   -1.8539    2.1342 N   0  0  0  0  0  0  0  0  0  0  0  0
   -0.0213   -2.9825    4.5431 N   0  0  0  0  0  0  0  0  0  0  0  0
    2.2739   -4.8002    4.9387 N   0  0  0  0  0  0  0  0  0  0  0  0
    4.3204    0.9051    5.9414 N   0  0  0  0  0  0  0  0  0  0  0  0
    1.8819   -1.5106    6.7282 N   0  0  0  0  0  0  0  0  0  0  0  0
    1.5981   -3.7218    8.4928 N   0  0  0  0  0  0  0  0  0  0  0  0
    5.6070   -3.3179    8.7025 N   0  0  0  0  0  0  0  0  0  0  0  0
    0.4614   -6.1557    8.8833 N   0  0  0  0  0  0  0  0  0  0  0  0
    2.2019   -1.5053   10.9765 N   0  0  0  0  0  0  0  0  0  0  0  0
    1.7719    1.4789    8.9550 N   0  0  0  0  0  0  0  0  0  0  0  0
    4.2259   -4.1869   12.1906 N   0  0  0  0  0  0  0  0  0  0  0  0
    2.1254    2.0508   11.0761 N   0  0  0  0  0  0  0  0  0  0  0  0
    5.1593   -1.3454   13.5311 N   0  0  0  0  0  0  0  0  0  0  0  0
    1.3793   -7.4411   10.5202 N   0  0  0  0  0  0  0  0  0  0  0  0
   -0.6776   -6.3925   10.8169 N   0  0  0  0  0  0  0  0  0  0  0  0
    2.8972   -2.6902   15.6646 N   0  0  0  0  0  0  0  0  0  0  0  0
   -3.9150   -1.2175    0.0226 C   0  0  1  0  0  0  0  0  0  0  0  0
   -4.9211   -0.2286    0.5507 C   0  0  0  0  0  0  0  0  0  0  0  0
   -5.2817   -0.7740    1.9247 C   0  0  0  0  0  0  0  0  0  0  0  0
   -4.0082   -1.4409    2.3736 C   0  0  0  0  0  0  0  0  0  0  0  0
   -1.8738   -1.8821    0.9639 C   0  0  0  0  0  0  0  0  0  0  0  0
   -3.0992   -0.7058   -1.1743 C   0  0  0  0  0  0  0  0  0  0  0  0
   -1.3518   -2.9769    1.8029 C   0  0  2  0  0  0  0  0  0  0  0  0
   -0.6486   -1.9548    2.5520 C   0  0  0  0  0  0  0  0  0  0  0  0
   -3.1473   -3.0264   -2.2579 C   0  0  1  0  0  0  0  0  0  0  0  0
   -1.3842   -0.9855    3.6860 C   0  0  0  0  0  0  0  0  0  0  0  0
   -4.0777   -3.2526   -3.4642 C   0  0  0  0  0  0  0  0  0  0  0  0
   -2.4004   -1.6467    4.7648 C   0  0  0  0  0  0  0  0  0  0  0  0
   -1.9198   -3.9683   -2.2354 C   0  0  0  0  0  0  0  0  0  0  0  0
   -3.3728   -2.9624   -4.7822 C   0  0  0  0  0  0  0  0  0  0  0  0
   -4.6028   -4.6869   -3.4658 C   0  0  0  0  0  0  0  0  0  0  0  0
    1.0200   -4.1478    1.2359 C   0  0  0  0  0  0  0  0  0  0  0  0
   -2.1502   -2.6364    5.8761 C   0  0  0  0  0  0  0  0  0  0  0  0
    1.9813   -3.3698    2.1497 C   0  0  0  0  0  0  0  0  0  0  0  0
    0.8936   -1.5166    4.2727 C   0  0  2  0  0  0  0  0  0  0  0  0
    1.4754   -0.8966    2.9999 C   0  0  0  0  0  0  0  0  0  0  0  0
    2.2141   -1.8217    4.5472 C   0  0  0  0  0  0  0  0  0  0  0  0
    3.1451   -0.6635    4.8731 C   0  0  0  0  0  0  0  0  0  0  0  0
    0.8919   -4.9862    5.3866 C   0  0  2  0  0  0  0  0  0  0  0  0
   -0.0473   -4.3624    4.5107 C   0  0  0  0  0  0  0  0  0  0  0  0
    0.4737   -4.2494    6.5954 C   0  0  0  0  0  0  0  0  0  0  0  0
    4.4430   -0.8084    4.5217 C   0  0  0  0  0  0  0  0  0  0  0  0
    3.0631    0.4832    5.6710 C   0  0  0  0  0  0  0  0  0  0  0  0
    5.1606    0.0900    5.2711 C   0  0  0  0  0  0  0  0  0  0  0  0
   -0.6544   -4.3953    7.6859 C   0  0  0  0  0  0  0  0  0  0  0  0
    3.0663   -2.7247    6.4012 C   0  0  1  0  0  0  0  0  0  0  0  0
    3.2932   -3.9954    5.3404 C   0  0  0  0  0  0  0  0  0  0  0  0
    5.0034   -1.7534    3.7030 C   0  0  0  0  0  0  0  0  0  0  0  0
   -0.6886   -5.7762    8.1293 C   0  0  0  0  0  0  0  0  0  0  0  0
    4.3762   -2.4933    6.8938 C   0  0  0  0  0  0  0  0  0  0  0  0
    0.7241   -2.1348    8.6021 C   0  0  2  0  0  0  0  0  0  0  0  0
    6.5083    0.1562    5.2414 C   0  0  0  0  0  0  0  0  0  0  0  0
    4.1619   -4.5490    8.8874 C   0  0  1  0  0  0  0  0  0  0  0  0
    3.8273   -0.9378    9.9200 C   0  0  1  0  0  0  0  0  0  0  0  0
    0.8160   -1.1966    7.4793 C   0  0  0  0  0  0  0  0  0  0  0  0
    6.3242   -1.5922    3.4929 C   0  0  0  0  0  0  0  0  0  0  0  0
    5.7167   -1.5159   10.5710 C   0  0  0  0  0  0  0  0  0  0  0  0
    1.6419   -1.1489    8.9708 C   0  0  0  0  0  0  0  0  0  0  0  0
    7.0267   -0.6121    4.2046 C   0  0  0  0  0  0  0  0  0  0  0  0
    2.8560   -4.4757   10.2244 C   0  0  0  0  0  0  0  0  0  0  0  0
    2.8050   -4.6524    8.2811 C   0  0  0  0  0  0  0  0  0  0  0  0
    4.0676   -1.7262    8.1003 C   0  0  0  0  0  0  0  0  0  0  0  0
    5.6558   -1.5806    9.1033 C   0  0  0  0  0  0  0  0  0  0  0  0
    7.0495   -1.1146   11.1153 C   0  0  0  0  0  0  0  0  0  0  0  0
    1.4431    0.3346    9.6376 C   0  0  0  0  0  0  0  0  0  0  0  0
    2.2748   -5.3588   11.2206 C   0  0  0  0  0  0  0  0  0  0  0  0
    7.0572    0.2487   11.8028 C   0  0  0  0  0  0  0  0  0  0  0  0
    2.5576   -3.4412   12.6516 C   0  0  2  0  0  0  0  0  0  0  0  0
    1.5716   -2.6345   11.6795 C   0  0  0  0  0  0  0  0  0  0  0  0
    3.8973   -2.5845    9.7342 C   0  0  0  0  0  0  0  0  0  0  0  0
    4.4701    0.0171    8.2481 C   0  0  0  0  0  0  0  0  0  0  0  0
    0.3016   -6.7565   10.0710 C   0  0  0  0  0  0  0  0  0  0  0  0
    6.5246    0.6586   13.1980 C   0  0  0  0  0  0  0  0  0  0  0  0
    1.5860    0.8154   10.9915 C   0  0  0  0  0  0  0  0  0  0  0  0
    2.5887   -2.1493   13.3170 C   0  0  0  0  0  0  0  0  0  0  0  0
    5.9964   -2.7731   13.2201 C   0  0  2  0  0  0  0  0  0  0  0  0
    4.0066   -1.7584   11.3506 C   0  0  0  0  0  0  0  0  0  0  0  0
    4.8827    0.8334    9.8064 C   0  0  0  0  0  0  0  0  0  0  0  0
    3.3215   -6.3367   11.6194 C   0  0  0  0  0  0  0  0  0  0  0  0
    5.6059   -3.8112   12.1155 C   0  0  0  0  0  0  0  0  0  0  0  0
    5.4488   -3.6310   14.1677 C   0  0  0  0  0  0  0  0  0  0  0  0
    4.4614    0.0183   11.3851 C   0  0  0  0  0  0  0  0  0  0  0  0
    2.1773    2.4292    9.8395 C   0  0  0  0  0  0  0  0  0  0  0  0
    6.3183   -4.7150   14.4677 C   0  0  0  0  0  0  0  0  0  0  0  0
    4.1248   -0.6143   14.2795 C   0  0  0  0  0  0  0  0  0  0  0  0
    3.6905   -1.2726   15.5535 C   0  0  2  0  0  0  0  0  0  0  0  0
    7.0827   -4.7613   15.5904 C   0  0  0  0  0  0  0  0  0  0  0  0
    6.1353   -5.7821   13.6053 C   0  0  0  0  0  0  0  0  0  0  0  0
    5.1212   -1.1199   16.0730 C   0  0  0  0  0  0  0  0  0  0  0  0
    7.4663   -6.0135   15.9126 C   0  0  0  0  0  0  0  0  0  0  0  0
    6.7583   -6.9231   13.7555 C   0  0  0  0  0  0  0  0  0  0  0  0
    7.3632   -7.0383   14.9561 C   0  0  0  0  0  0  0  0  0  0  0  0
    3.3751   -3.9703   15.7708 C   0  0  0  0  0  0  0  0  0  0  0  0
    4.5993   -3.9988   16.5798 C   0  0  0  0  0  0  0  0  0  0  0  0
    1.3201   -0.8147   13.4525 H   0  0  0  0  0  0  0  0  0  0  0  0
    3.3514   -5.7909   13.5332 H   0  0  0  0  0  0  0  0  0  0  0  0
    5.8062    0.5355   15.3442 H   0  0  0  0  0  0  0  0  0  0  0  0
    8.3167   -8.1659   16.0092 H   0  0  0  0  0  0  0  0  0  0  0  0
   -2.1620   -1.2263   -2.8635 H   0  0  0  0  0  0  0  0  0  0  0  0
   -0.8100   -4.5534    0.5186 H   0  0  0  0  0  0  0  0  0  0  0  0
   -1.0723   -3.1939   -4.0021 H   0  0  0  0  0  0  0  0  0  0  0  0
   -0.2891   -4.5691   -3.3446 H   0  0  0  0  0  0  0  0  0  0  0  0
   -0.8077   -2.4786    7.3069 H   0  0  0  0  0  0  0  0  0  0  0  0
   -0.4264   -1.8259    6.0092 H   0  0  0  0  0  0  0  0  0  0  0  0
    2.3122   -1.4455    1.2522 H   0  0  0  0  0  0  0  0  0  0  0  0
   -0.9492   -2.8981    4.1936 H   0  0  0  0  0  0  0  0  0  0  0  0
    2.4773   -5.1947    4.0282 H   0  0  0  0  0  0  0  0  0  0  0  0
    4.6070    1.4405    6.7593 H   0  0  0  0  0  0  0  0  0  0  0  0
    1.7214   -0.7393    6.1436 H   0  0  0  0  0  0  0  0  0  0  0  0
    0.9370   -4.4421    8.7079 H   0  0  0  0  0  0  0  0  0  0  0  0
    6.1485   -3.3448    7.8376 H   0  0  0  0  0  0  0  0  0  0  0  0
    1.3465   -6.2761    8.3818 H   0  0  0  0  0  0  0  0  0  0  0  0
    1.2126   -1.2104   10.7402 H   0  0  0  0  0  0  0  0  0  0  0  0
    2.0497    1.5109    7.9962 H   0  0  0  0  0  0  0  0  0  0  0  0
    4.3769   -4.7696   11.3521 H   0  0  0  0  0  0  0  0  0  0  0  0
    5.4170   -0.8381   12.7427 H   0  0  0  0  0  0  0  0  0  0  0  0
    1.4808   -7.3638   11.5442 H   0  0  0  0  0  0  0  0  0  0  0  0
    2.2724   -7.1826   10.0580 H   0  0  0  0  0  0  0  0  0  0  0  0
   -0.5748   -6.7842   11.7444 H   0  0  0  0  0  0  0  0  0  0  0  0
    2.0322   -2.7306   15.0958 H   0  0  0  0  0  0  0  0  0  0  0  0
   -4.4379   -2.1428   -0.1963 H   0  0  0  0  0  0  0  0  0  0  0  0
   -4.4700    0.7655    0.6367 H   0  0  0  0  0  0  0  0  0  0  0  0
   -5.7841   -0.1825   -0.1052 H   0  0  0  0  0  0  0  0  0  0  0  0
   -5.6050    0.0099    2.6186 H   0  0  0  0  0  0  0  0  0  0  0  0
   -6.0713   -1.5252    1.8756 H   0  0  0  0  0  0  0  0  0  0  0  0
   -3.5945   -0.7738    3.1245 H   0  0  0  0  0  0  0  0  0  0  0  0
   -4.2003   -2.4384    2.7829 H   0  0  0  0  0  0  0  0  0  0  0  0
   -2.0299   -3.5030    2.4731 H   0  0  0  0  0  0  0  0  0  0  0  0
    0.0863   -2.6673    2.8210 H   0  0  0  0  0  0  0  0  0  0  0  0
    0.0139   -1.4286    1.8788 H   0  0  0  0  0  0  0  0  0  0  0  0
   -3.7182   -3.3200   -1.3774 H   0  0  0  0  0  0  0  0  0  0  0  0
   -0.8128   -0.2764    4.2974 H   0  0  0  0  0  0  0  0  0  0  0  0
   -1.7250   -0.1637    3.0644 H   0  0  0  0  0  0  0  0  0  0  0  0
   -4.9387   -2.5719   -3.3857 H   0  0  0  0  0  0  0  0  0  0  0  0
   -2.8313   -0.8115    5.3193 H   0  0  0  0  0  0  0  0  0  0  0  0
   -3.0194   -2.2957    4.1995 H   0  0  0  0  0  0  0  0  0  0  0  0
   -2.5850   -3.6918   -4.9626 H   0  0  0  0  0  0  0  0  0  0  0  0
   -4.0341   -3.0739   -5.6384 H   0  0  0  0  0  0  0  0  0  0  0  0
   -2.9459   -1.9542   -4.7820 H   0  0  0  0  0  0  0  0  0  0  0  0
   -5.1791   -4.8943   -2.5583 H   0  0  0  0  0  0  0  0  0  0  0  0
   -5.2469   -4.8596   -4.3321 H   0  0  0  0  0  0  0  0  0  0  0  0
   -3.7782   -5.4057   -3.5147 H   0  0  0  0  0  0  0  0  0  0  0  0
   -2.9598   -3.1070    6.4177 H   0  0  0  0  0  0  0  0  0  0  0  0
   -1.7310   -3.5772    5.5886 H   0  0  0  0  0  0  0  0  0  0  0  0
    1.5664   -3.7296    3.0760 H   0  0  0  0  0  0  0  0  0  0  0  0
    2.9843   -3.8195    2.2589 H   0  0  0  0  0  0  0  0  0  0  0  0
    0.5531   -0.7671    4.9940 H   0  0  0  0  0  0  0  0  0  0  0  0
    1.7465   -2.4886    5.2274 H   0  0  0  0  0  0  0  0  0  0  0  0
    2.6016   -2.6515    4.0361 H   0  0  0  0  0  0  0  0  0  0  0  0
    0.7447   -6.0306    5.5885 H   0  0  0  0  0  0  0  0  0  0  0  0
    1.3741   -4.6388    6.9162 H   0  0  0  0  0  0  0  0  0  0  0  0
    0.7329   -3.2270    6.5574 H   0  0  0  0  0  0  0  0  0  0  0  0
    2.2876    0.8225    6.3412 H   0  0  0  0  0  0  0  0  0  0  0  0
   -0.6186   -3.7504    8.6005 H   0  0  0  0  0  0  0  0  0  0  0  0
   -1.6501   -4.1125    7.4264 H   0  0  0  0  0  0  0  0  0  0  0  0
    2.6152   -3.2749    7.0842 H   0  0  0  0  0  0  0  0  0  0  0  0
    4.4161   -2.4911    3.1769 H   0  0  0  0  0  0  0  0  0  0  0  0
   -1.5850   -5.7804    8.7326 H   0  0  0  0  0  0  0  0  0  0  0  0
   -0.6913   -6.2854    7.1868 H   0  0  0  0  0  0  0  0  0  0  0  0
    4.6293   -3.5544    6.9942 H   0  0  0  0  0  0  0  0  0  0  0  0
    5.2200   -2.1243    6.3525 H   0  0  0  0  0  0  0  0  0  0  0  0
   -0.0594   -2.0673    9.3368 H   0  0  0  0  0  0  0  0  0  0  0  0
    7.0013    0.9309    5.8038 H   0  0  0  0  0  0  0  0  0  0  0  0
    4.6930   -5.4358    9.1375 H   0  0  0  0  0  0  0  0  0  0  0  0
    3.3514    0.0801    9.9616 H   0  0  0  0  0  0  0  0  0  0  0  0
    6.7325   -2.1980    2.7038 H   0  0  0  0  0  0  0  0  0  0  0  0
    5.6766   -1.8042   11.5714 H   0  0  0  0  0  0  0  0  0  0  0  0
    5.8607   -2.6181   10.5289 H   0  0  0  0  0  0  0  0  0  0  0  0
    2.0431   -1.9776    9.4493 H   0  0  0  0  0  0  0  0  0  0  0  0
    2.4298   -1.5248    8.4436 H   0  0  0  0  0  0  0  0  0  0  0  0
    8.0098   -0.3604    3.8677 H   0  0  0  0  0  0  0  0  0  0  0  0
    3.1406   -3.7612   10.8716 H   0  0  0  0  0  0  0  0  0  0  0  0
    2.0665   -3.7409   10.1373 H   0  0  0  0  0  0  0  0  0  0  0  0
    7.4165   -1.9264   11.7615 H   0  0  0  0  0  0  0  0  0  0  0  0
    7.6260   -1.4650   10.2676 H   0  0  0  0  0  0  0  0  0  0  0  0
    1.6501   -5.1055   12.0739 H   0  0  0  0  0  0  0  0  0  0  0  0
    1.3598   -5.2832   10.7031 H   0  0  0  0  0  0  0  0  0  0  0  0
    8.0902    0.4441   11.8221 H   0  0  0  0  0  0  0  0  0  0  0  0
    6.4913    0.9032   11.1744 H   0  0  0  0  0  0  0  0  0  0  0  0
    2.0682   -4.0932   13.3708 H   0  0  0  0  0  0  0  0  0  0  0  0
    4.5183   -3.4029   10.1061 H   0  0  0  0  0  0  0  0  0  0  0  0
    3.5051    0.4163    7.9340 H   0  0  0  0  0  0  0  0  0  0  0  0
    6.8137   -0.0969   13.9344 H   0  0  0  0  0  0  0  0  0  0  0  0
    6.3953    1.6564   13.6176 H   0  0  0  0  0  0  0  0  0  0  0  0
    5.4549    0.7271   13.1199 H   0  0  0  0  0  0  0  0  0  0  0  0
    1.7790    0.2455   11.8989 H   0  0  0  0  0  0  0  0  0  0  0  0
    3.4655   -2.4346   13.8107 H   0  0  0  0  0  0  0  0  0  0  0  0
    2.8908   -1.2545   12.8279 H   0  0  0  0  0  0  0  0  0  0  0  0
    7.0649   -2.6249   13.3779 H   0  0  0  0  0  0  0  0  0  0  0  0
    4.1407   -2.4222   12.1476 H   0  0  0  0  0  0  0  0  0  0  0  0
    4.5972    1.8702    9.8507 H   0  0  0  0  0  0  0  0  0  0  0  0
    5.1315   -2.8709   14.7706 H   0  0  0  0  0  0  0  0  0  0  0  0
    4.4790   -4.0212   13.9836 H   0  0  0  0  0  0  0  0  0  0  0  0
    3.9335    0.6242   12.0928 H   0  0  0  0  0  0  0  0  0  0  0  0
    2.6030    3.3446    9.4989 H   0  0  0  0  0  0  0  0  0  0  0  0
    2.9166   -0.5672   15.8613 H   0  0  0  0  0  0  0  0  0  0  0  0
    7.1114   -3.9847   16.3525 H   0  0  0  0  0  0  0  0  0  0  0  0
    5.5153   -5.8214   12.7355 H   0  0  0  0  0  0  0  0  0  0  0  0
    5.0484   -1.6027   17.0037 H   0  0  0  0  0  0  0  0  0  0  0  0
    5.9683   -1.5629   15.5033 H   0  0  0  0  0  0  0  0  0  0  0  0
    7.8059   -6.1330   16.9258 H   0  0  0  0  0  0  0  0  0  0  0  0
    6.6315   -7.6163   12.9445 H   0  0  0  0  0  0  0  0  0  0  0  0
    5.4028   -3.3894   16.2079 H   0  0  0  0  0  0  0  0  0  0  0  0
    4.5297   -3.4361   17.4738 H   0  0  0  0  0  0  0  0  0  0  0  0
    4.9456   -5.0158   16.5787 H   0  0  0  0  0  0  0  0  0  0  0  0
  1 45  2  0  0  0  0
  2 46  2  0  0  0  0
  3 53  2  0  0  0  0
  4 56  2  0  0  0  0
  5 60  2  0  0  0  0
  6 64  2  0  0  0  0
  7 71  2  0  0  0  0
  8 79  2  0  0  0  0
  9 85  2  0  0  0  0
 10 87  2  0  0  0  0
 11 93  2  0  0  0  0
 12 99  1  0  0  0  0
 12119  1  0  0  0  0
 13103  1  0  0  0  0
 13120  1  0  0  0  0
 14103  2  0  0  0  0
 15104  2  0  0  0  0
 16109  2  0  0  0  0
 17113  1  0  0  0  0
 17121  1  0  0  0  0
 18116  1  0  0  0  0
 18122  1  0  0  0  0
 19117  2  0  0  0  0
 20 41  1  0  0  0  0
 20 44  1  0  0  0  0
 20 45  1  0  0  0  0
 21 46  1  0  0  0  0
 21123  1  0  0  0  0
 22 56  1  0  0  0  0
 22124  1  0  0  0  0
 23 53  1  0  0  0  0
 23125  1  0  0  0  0
 23126  1  0  0  0  0
 24 57  1  0  0  0  0
 24127  1  0  0  0  0
 24128  1  0  0  0  0
 25 58  1  0  0  0  0
 25 60  1  0  0  0  0
 25129  1  0  0  0  0
 26 64  1  0  0  0  0
 26130  1  0  0  0  0
 27 71  1  0  0  0  0
 27131  1  0  0  0  0
 28 67  1  0  0  0  0
 28 68  1  0  0  0  0
 28132  1  0  0  0  0
 29 79  1  0  0  0  0
 29133  1  0  0  0  0
 30 85  1  0  0  0  0
 30134  1  0  0  0  0
 31 87  1  0  0  0  0
 31135  1  0  0  0  0
 32 73  1  0  0  0  0
 32 96  1  0  0  0  0
 32136  1  0  0  0  0
 33 93  1  0  0  0  0
 33137  1  0  0  0  0
 34 89  1  0  0  0  0
 34107  1  0  0  0  0
 34138  1  0  0  0  0
 35104  1  0  0  0  0
 35139  1  0  0  0  0
 36 98  1  0  0  0  0
 36107  2  0  0  0  0
 37109  1  0  0  0  0
 37140  1  0  0  0  0
 38 96  1  0  0  0  0
 38141  1  0  0  0  0
 38142  1  0  0  0  0
 39 96  2  0  0  0  0
 39143  1  0  0  0  0
 40117  1  0  0  0  0
 40144  1  0  0  0  0
 41 42  1  0  0  0  0
 41145  1  6  0  0  0
 41 46  1  0  0  0  0
 42 43  1  0  0  0  0
 42146  1  0  0  0  0
 42147  1  0  0  0  0
 43 44  1  0  0  0  0
 43148  1  0  0  0  0
 43149  1  0  0  0  0
 44150  1  0  0  0  0
 44151  1  0  0  0  0
 45 47  1  0  0  0  0
 47 22  1  0  0  0  0
 47 48  1  0  0  0  0
 47152  1  1  0  0  0
 48 50  1  0  0  0  0
 48153  1  0  0  0  0
 48154  1  0  0  0  0
 49 21  1  0  0  0  0
 49 51  1  0  0  0  0
 49 53  1  0  0  0  0
 49155  1  1  0  0  0
 50 52  1  0  0  0  0
 50156  1  0  0  0  0
 50157  1  0  0  0  0
 51 54  1  0  0  0  0
 51 55  1  0  0  0  0
 51158  1  0  0  0  0
 52 57  1  0  0  0  0
 52159  1  0  0  0  0
 52160  1  0  0  0  0
 54161  1  0  0  0  0
 54162  1  0  0  0  0
 54163  1  0  0  0  0
 55164  1  0  0  0  0
 55165  1  0  0  0  0
 55166  1  0  0  0  0
 56 58  1  0  0  0  0
 57167  1  0  0  0  0
 57168  1  0  0  0  0
 58169  1  0  0  0  0
 58170  1  0  0  0  0
 59 26  1  0  0  0  0
 59 60  1  0  0  0  0
 59 61  1  0  0  0  0
 59171  1  1  0  0  0
 61 62  1  0  0  0  0
 61172  1  0  0  0  0
 61173  1  0  0  0  0
 62 66  1  0  0  0  0
 62 67  2  0  0  0  0
 63 27  1  0  0  0  0
 63 64  1  0  0  0  0
 63 65  1  0  0  0  0
 63174  1  1  0  0  0
 65 69  1  0  0  0  0
 65175  1  0  0  0  0
 65176  1  0  0  0  0
 66 68  1  0  0  0  0
 66 72  2  0  0  0  0
 67177  1  0  0  0  0
 68 76  2  0  0  0  0
 69 73  1  0  0  0  0
 69178  1  0  0  0  0
 69179  1  0  0  0  0
 70 74  1  0  0  0  0
 70180  1  1  0  0  0
 70 71  1  0  0  0  0
 70 29  1  0  0  0  0
 72 80  1  0  0  0  0
 72181  1  0  0  0  0
 73182  1  0  0  0  0
 73183  1  0  0  0  0
 74 86  1  0  0  0  0
 74184  1  0  0  0  0
 74185  1  0  0  0  0
 75 30  1  0  0  0  0
 75 79  1  0  0  0  0
 75 82  1  0  0  0  0
 75186  1  1  0  0  0
 76 83  1  0  0  0  0
 76187  1  0  0  0  0
 77 31  1  0  0  0  0
 77 84  1  0  0  0  0
 77 85  1  0  0  0  0
 77188  1  1  0  0  0
 78 33  1  0  0  0  0
 78 81  1  0  0  0  0
 78 87  1  0  0  0  0
 78189  1  6  0  0  0
 80 83  2  0  0  0  0
 80190  1  0  0  0  0
 81 88  1  0  0  0  0
 81191  1  0  0  0  0
 81192  1  0  0  0  0
 82 89  1  0  0  0  0
 82193  1  0  0  0  0
 82194  1  0  0  0  0
 83195  1  0  0  0  0
 84 90  1  0  0  0  0
 84196  1  0  0  0  0
 84197  1  0  0  0  0
 86 94  2  0  0  0  0
 86 95  1  0  0  0  0
 88 91  1  0  0  0  0
 88198  1  0  0  0  0
 88199  1  0  0  0  0
 89 98  2  0  0  0  0
 90103  1  0  0  0  0
 90200  1  0  0  0  0
 90201  1  0  0  0  0
 91 97  1  0  0  0  0
 91202  1  0  0  0  0
 91203  1  0  0  0  0
 92 35  1  0  0  0  0
 92 93  1  0  0  0  0
 92 99  1  0  0  0  0
 92204  1  1  0  0  0
 94101  1  0  0  0  0
 94205  1  0  0  0  0
 95102  2  0  0  0  0
 95206  1  0  0  0  0
 97207  1  0  0  0  0
 97208  1  0  0  0  0
 97209  1  0  0  0  0
 98210  1  0  0  0  0
 99211  1  0  0  0  0
 99212  1  0  0  0  0
100 37  1  0  0  0  0
100104  1  0  0  0  0
100105  1  0  0  0  0
100213  1  1  0  0  0
101106  2  0  0  0  0
101214  1  0  0  0  0
102106  1  0  0  0  0
102215  1  0  0  0  0
105108  1  0  0  0  0
105216  1  0  0  0  0
105217  1  0  0  0  0
106218  1  0  0  0  0
107219  1  0  0  0  0
108111  2  0  0  0  0
108112  1  0  0  0  0
109110  1  0  0  0  0
110 40  1  0  0  0  0
110113  1  0  0  0  0
110220  1  1  0  0  0
111114  1  0  0  0  0
111221  1  0  0  0  0
112115  2  0  0  0  0
112222  1  0  0  0  0
113223  1  0  0  0  0
113224  1  0  0  0  0
114116  2  0  0  0  0
114225  1  0  0  0  0
115116  1  0  0  0  0
115226  1  0  0  0  0
117118  1  0  0  0  0
118227  1  0  0  0  0
118228  1  0  0  0  0
118229  1  0  0  0  0
M  END
>  <DRUGBANK_ID>
DB04931

>  <COMMON_NAME>
Afamelanotide

>  <CAS_NUMBER>
75921-69-6

>  <UNII>
QW68W3J66U

>  <SYNONYMS>
Afamelanotide; Melanotan 1; Melanotan I; Melanotan-1; MT-I

$$$$
