
 OpenBabel10282417233D

 38 40  0  0  0  0  0  0  0  0999 V2000
    0.9738   -0.0083    0.1131 C   0  0  0  0  0  0  0  0  0  0  0  0
    0.3875    0.0580    1.4046 O   0  0  0  0  0  0  0  0  0  0  0  0
    0.8637   -0.7955    2.3576 C   0  0  0  0  0  0  0  0  0  0  0  0
    2.1695   -1.2685    2.4634 C   0  0  0  0  0  0  0  0  0  0  0  0
    2.5521   -2.0590    3.5662 C   0  0  0  0  0  0  0  0  0  0  0  0
    1.6390   -2.3764    4.5866 C   0  0  0  0  0  0  0  0  0  0  0  0
    1.9834   -3.3048    5.6063 N   0  0  0  0  0  0  0  0  0  0  0  0
    1.1966   -3.5222    6.6882 C   0  0  0  0  0  0  0  0  0  0  0  0
    1.4322   -3.2694    7.9581 N   0  0  0  0  0  0  0  0  0  0  0  0
    0.2885   -3.6136    8.6528 N   0  0  0  0  0  0  0  0  0  0  0  0
   -0.5434   -4.1249    7.7704 C   0  0  0  0  0  0  0  0  0  0  0  0
   -0.0320   -4.1199    6.4975 O   0  0  0  0  0  0  0  0  0  0  0  0
   -1.8138   -4.7981    8.0040 C   0  0  0  0  0  0  0  0  0  0  0  0
   -1.9209   -6.1633    7.7456 C   0  0  0  0  0  0  0  0  0  0  0  0
   -3.0310   -6.8982    8.1879 C   0  0  0  0  0  0  0  0  0  0  0  0
   -4.1254   -6.2859    8.8056 C   0  0  0  0  0  0  0  0  0  0  0  0
   -4.0039   -4.9107    9.0850 C   0  0  0  0  0  0  0  0  0  0  0  0
   -2.8714   -4.1743    8.6769 C   0  0  0  0  0  0  0  0  0  0  0  0
   -5.4341   -6.9555    9.1542 C   0  0  0  0  0  0  0  0  0  0  0  0
   -6.3109   -6.2900    9.6964 O   0  0  0  0  0  0  0  0  0  0  0  0
   -5.7359   -8.2535    8.8332 N   0  0  0  0  0  0  0  0  0  0  0  0
   -4.9033   -9.2287    8.2905 O   0  0  0  0  0  0  0  0  0  0  0  0
    0.3472   -1.8495    4.4756 C   0  0  0  0  0  0  0  0  0  0  0  0
   -0.0475   -1.1104    3.3599 C   0  0  0  0  0  0  0  0  0  0  0  0
    0.5934    0.8413   -0.4643 H   0  0  0  0  0  0  0  0  0  0  0  0
    0.6571   -0.9269   -0.3887 H   0  0  0  0  0  0  0  0  0  0  0  0
    2.0630    0.0785    0.1239 H   0  0  0  0  0  0  0  0  0  0  0  0
    2.9187   -1.0264    1.7173 H   0  0  0  0  0  0  0  0  0  0  0  0
    3.5850   -2.3980    3.6174 H   0  0  0  0  0  0  0  0  0  0  0  0
    2.9804   -3.3032    5.7942 H   0  0  0  0  0  0  0  0  0  0  0  0
   -1.1066   -6.6971    7.2588 H   0  0  0  0  0  0  0  0  0  0  0  0
   -2.9310   -7.9668    8.0766 H   0  0  0  0  0  0  0  0  0  0  0  0
   -4.7792   -4.3990    9.6585 H   0  0  0  0  0  0  0  0  0  0  0  0
   -2.8199   -3.1116    8.9095 H   0  0  0  0  0  0  0  0  0  0  0  0
   -6.6749   -8.5664    9.0710 H   0  0  0  0  0  0  0  0  0  0  0  0
   -4.4536   -8.7745    7.5618 H   0  0  0  0  0  0  0  0  0  0  0  0
   -0.3833   -1.9907    5.2656 H   0  0  0  0  0  0  0  0  0  0  0  0
   -1.0817   -0.7866    3.2795 H   0  0  0  0  0  0  0  0  0  0  0  0
  1  2  1  0  0  0  0
  1 25  1  0  0  0  0
  1 26  1  0  0  0  0
  1 27  1  0  0  0  0
  2  3  1  0  0  0  0
  3  4  2  0  0  0  0
  3 24  1  0  0  0  0
  4  5  1  0  0  0  0
  4 28  1  0  0  0  0
  5  6  2  0  0  0  0
  5 29  1  0  0  0  0
  6  7  1  0  0  0  0
  6 23  1  0  0  0  0
  7  8  1  0  0  0  0
  7 30  1  0  0  0  0
  8  9  2  0  0  0  0
  8 12  1  0  0  0  0
  9 10  1  0  0  0  0
 10 11  2  0  0  0  0
 11 12  1  0  0  0  0
 11 13  1  0  0  0  0
 13 14  2  0  0  0  0
 13 18  1  0  0  0  0
 14 15  1  0  0  0  0
 14 31  1  0  0  0  0
 15 16  2  0  0  0  0
 15 32  1  0  0  0  0
 16 17  1  0  0  0  0
 16 19  1  0  0  0  0
 17 18  2  0  0  0  0
 17 33  1  0  0  0  0
 18 34  1  0  0  0  0
 19 20  2  0  0  0  0
 19 21  1  0  0  0  0
 21 22  1  0  0  0  0
 21 35  1  0  0  0  0
 22 36  1  0  0  0  0
 23 24  2  0  0  0  0
 23 37  1  0  0  0  0
 24 38  1  0  0  0  0
M  END
>  <DRUGBANK_ID>
DB17306

>  <COMMON_NAME>
Metavert

>  <CAS_NUMBER>
1841125-91-4

>  <UNII>
IZB8PZ86FH

>  <SYNONYMS>
Benzamide, n-hydroxy-4-(5-((4-methoxyphenyl)amino)-1,3,4-oxadiazol-2-yl)-; N-hydroxy-4-(5-((4-methoxyphenyl)amino)-1,3,4-oxadiazol-2-yl)benzamide

$$$$
