
 OpenBabel10282417143D

 39 39  0  0  1  0  0  0  0  0999 V2000
    1.0081   -0.0869    0.1068 O   0  0  0  0  0  0  0  0  0  0  0  0
    1.7615    2.1273    1.5758 O   0  0  0  0  0  0  0  0  0  0  0  0
   -2.9754    2.4206    0.8259 O   0  0  0  0  0  0  0  0  0  0  0  0
   -0.6800    3.6117    1.4781 O   0  0  0  0  0  0  0  0  0  0  0  0
    1.7219   -2.0303    2.1296 O   0  0  0  0  0  0  0  0  0  0  0  0
   -1.7453    2.8997   -1.6114 O   0  0  0  0  0  0  0  0  0  0  0  0
   -1.8455   -1.0870   -3.5066 O   0  0  0  0  0  0  0  0  0  0  0  0
   -1.6164    0.0416   -0.8093 N   0  0  0  0  0  0  0  0  0  0  0  0
    0.5280    0.0238    1.4636 C   0  0  2  0  0  0  0  0  0  0  0  0
   -1.9434    0.1590    0.6335 C   0  0  1  0  0  0  0  0  0  0  0  0
   -0.8843   -0.6280    1.4814 C   0  0  0  0  0  0  0  0  0  0  0  0
    0.4905    1.5167    1.8685 C   0  0  2  0  0  0  0  0  0  0  0  0
   -1.9380    1.5714    1.2744 C   0  0  1  0  0  0  0  0  0  0  0  0
   -0.5752    2.2461    1.0804 C   0  0  1  0  0  0  0  0  0  0  0  0
    1.5274   -0.6565    2.4211 C   0  0  0  0  0  0  0  0  0  0  0  0
   -2.5513    0.5741   -1.8321 C   0  0  0  0  0  0  0  0  0  0  0  0
   -2.8854    2.0783   -1.8506 C   0  0  0  0  0  0  0  0  0  0  0  0
   -1.9941    0.2999   -3.2541 C   0  0  0  0  0  0  0  0  0  0  0  0
    1.9754    0.0421    0.1367 H   0  0  0  0  0  0  0  0  0  0  0  0
    1.9719    2.7628    2.2824 H   0  0  0  0  0  0  0  0  0  0  0  0
   -2.5144    3.1085    0.2925 H   0  0  0  0  0  0  0  0  0  0  0  0
    0.2298    3.9333    1.6412 H   0  0  0  0  0  0  0  0  0  0  0  0
    0.8547   -2.4668    2.1325 H   0  0  0  0  0  0  0  0  0  0  0  0
   -0.9524    2.3546   -1.7619 H   0  0  0  0  0  0  0  0  0  0  0  0
   -1.3611   -1.4388   -2.7378 H   0  0  0  0  0  0  0  0  0  0  0  0
   -0.6282    0.2493   -0.9796 H   0  0  0  0  0  0  0  0  0  0  0  0
   -2.9221   -0.3152    0.7845 H   0  0  0  0  0  0  0  0  0  0  0  0
   -0.8404   -1.6638    1.1244 H   0  0  0  0  0  0  0  0  0  0  0  0
   -1.2364   -0.6716    2.5229 H   0  0  0  0  0  0  0  0  0  0  0  0
    0.3011    1.6420    2.9426 H   0  0  0  0  0  0  0  0  0  0  0  0
   -2.1419    1.4668    2.3475 H   0  0  0  0  0  0  0  0  0  0  0  0
   -0.2575    2.2437    0.0390 H   0  0  0  0  0  0  0  0  0  0  0  0
    2.5107   -0.1786    2.3378 H   0  0  0  0  0  0  0  0  0  0  0  0
    1.1973   -0.5566    3.4611 H   0  0  0  0  0  0  0  0  0  0  0  0
   -3.4877    0.0128   -1.7335 H   0  0  0  0  0  0  0  0  0  0  0  0
   -3.3080    2.4078   -2.8031 H   0  0  0  0  0  0  0  0  0  0  0  0
   -3.6811    2.2942   -1.1414 H   0  0  0  0  0  0  0  0  0  0  0  0
   -2.6775    0.7049   -4.0104 H   0  0  0  0  0  0  0  0  0  0  0  0
   -1.0222    0.7867   -3.3987 H   0  0  0  0  0  0  0  0  0  0  0  0
  1 19  1  0  0  0  0
  2 20  1  0  0  0  0
  3 21  1  0  0  0  0
  4 22  1  0  0  0  0
  5 15  1  0  0  0  0
  5 23  1  0  0  0  0
  6 17  1  0  0  0  0
  6 24  1  0  0  0  0
  7 18  1  0  0  0  0
  7 25  1  0  0  0  0
  8 16  1  0  0  0  0
  8 26  1  0  0  0  0
  9  1  1  6  0  0  0
  9 11  1  0  0  0  0
  9 12  1  0  0  0  0
  9 15  1  0  0  0  0
 10  8  1  0  0  0  0
 10 11  1  0  0  0  0
 10 13  1  0  0  0  0
 10 27  1  1  0  0  0
 11 28  1  0  0  0  0
 11 29  1  0  0  0  0
 12 14  1  0  0  0  0
 12 30  1  1  0  0  0
 12  2  1  0  0  0  0
 13  3  1  0  0  0  0
 13 14  1  0  0  0  0
 13 31  1  1  0  0  0
 14 32  1  6  0  0  0
 14  4  1  0  0  0  0
 15 33  1  0  0  0  0
 15 34  1  0  0  0  0
 16 17  1  0  0  0  0
 16 18  1  0  0  0  0
 16 35  1  0  0  0  0
 17 36  1  0  0  0  0
 17 37  1  0  0  0  0
 18 38  1  0  0  0  0
 18 39  1  0  0  0  0
M  END
>  <DRUGBANK_ID>
DB04878

>  <COMMON_NAME>
Voglibose

>  <CAS_NUMBER>
83480-29-9

>  <UNII>
S77P977AG8

>  <SYNONYMS>
Voglibosa; Voglibose; Voglibosum

$$$$
