
 OpenBabel10282417123D

 77 80  0  0  0  0  0  0  0  0999 V2000
   -0.1064   -1.0875    0.2217 C   0  0  0  0  0  0  0  0  0  0  0  0
    0.7808   -0.0508    0.1068 C   0  0  0  0  0  0  0  0  0  0  0  0
    0.1653   -2.4613    0.3717 C   0  0  0  0  0  0  0  0  0  0  0  0
   -1.3954   -0.5621    0.0888 N   0  0  0  0  0  0  0  0  0  0  0  0
   -0.0183    1.0673    0.3192 C   0  0  0  0  0  0  0  0  0  0  0  0
    2.2759    0.0209   -0.0415 C   0  0  0  0  0  0  0  0  0  0  0  0
   -0.7096   -3.4438    0.1730 C   0  0  0  0  0  0  0  0  0  0  0  0
   -1.3669    0.8300    0.1376 C   0  0  0  0  0  0  0  0  0  0  0  0
    0.5570    2.3587    0.4748 C   0  0  0  0  0  0  0  0  0  0  0  0
   -0.3964   -4.8564    0.0916 C   0  0  0  0  0  0  0  0  0  0  0  0
   -2.0565   -3.2556    0.0317 N   0  0  0  0  0  0  0  0  0  0  0  0
   -2.5207    1.7293   -0.0089 C   0  0  0  0  0  0  0  0  0  0  0  0
   -1.5531   -5.5463    0.0562 C   0  0  0  0  0  0  0  0  0  0  0  0
    1.0324   -5.3793    0.0516 C   0  0  0  0  0  0  0  0  0  0  0  0
   -2.5679   -4.4490   -0.0003 C   0  0  0  0  0  0  0  0  0  0  0  0
   -2.5199    3.1050   -0.0345 C   0  0  0  0  0  0  0  0  0  0  0  0
   -1.7558   -7.0121    0.0478 C   0  0  0  0  0  0  0  0  0  0  0  0
    1.8653   -5.0602   -1.2132 C   0  0  0  0  0  0  0  0  0  0  0  0
   -4.0351   -4.6729   -0.0836 C   0  0  0  0  0  0  0  0  0  0  0  0
   -3.6412    4.0856   -0.2195 C   0  0  0  0  0  0  0  0  0  0  0  0
   -1.4820    3.9778    0.1182 N   0  0  0  0  0  0  0  0  0  0  0  0
    2.0856   -3.6116   -1.5862 C   0  0  0  0  0  0  0  0  0  0  0  0
   -4.9575   -3.6902   -0.0582 C   0  0  0  0  0  0  0  0  0  0  0  0
   -3.1776    5.3535   -0.0265 C   0  0  0  0  0  0  0  0  0  0  0  0
   -4.9756    3.7898   -0.7068 C   0  0  0  0  0  0  0  0  0  0  0  0
   -1.7885    5.2455    0.3329 C   0  0  0  0  0  0  0  0  0  0  0  0
    3.2890   -3.0919   -1.2649 O   0  0  0  0  0  0  0  0  0  0  0  0
    1.2453   -2.9384   -2.1631 O   0  0  0  0  0  0  0  0  0  0  0  0
   -6.4042   -3.8020   -0.0356 C   0  0  0  0  0  0  0  0  0  0  0  0
   -4.7335   -2.3486    0.0442 N   0  0  0  0  0  0  0  0  0  0  0  0
   -3.5938    6.7578   -0.1886 C   0  0  0  0  0  0  0  0  0  0  0  0
   -5.9437    4.6628   -1.0173 C   0  0  0  0  0  0  0  0  0  0  0  0
   -0.9896    6.1153    0.6805 O   0  0  0  0  0  0  0  0  0  0  0  0
   -6.9860   -2.6216    0.2711 C   0  0  0  0  0  0  0  0  0  0  0  0
   -7.1434   -5.0354   -0.4140 C   0  0  0  0  0  0  0  0  0  0  0  0
   -5.8578   -1.6582    0.4382 C   0  0  0  0  0  0  0  0  0  0  0  0
   -8.3962   -2.3239    0.3282 C   0  0  0  0  0  0  0  0  0  0  0  0
   -5.9026   -0.5162    0.8569 O   0  0  0  0  0  0  0  0  0  0  0  0
   -8.9341   -1.1376    0.6350 C   0  0  0  0  0  0  0  0  0  0  0  0
    2.7919    0.6814   -1.3447 C   0  0  0  0  0  0  0  0  0  0  0  0
    2.5508    2.1557   -1.6026 C   0  0  0  0  0  0  0  0  0  0  0  0
    3.2449    3.0799   -1.2037 O   0  0  0  0  0  0  0  0  0  0  0  0
    1.4089    2.4244   -2.2654 O   0  0  0  0  0  0  0  0  0  0  0  0
    1.2026   -2.7023    0.5705 H   0  0  0  0  0  0  0  0  0  0  0  0
   -2.1906   -1.1720   -0.0115 H   0  0  0  0  0  0  0  0  0  0  0  0
    2.6753    0.5465    0.8363 H   0  0  0  0  0  0  0  0  0  0  0  0
    2.6973   -0.9855    0.0116 H   0  0  0  0  0  0  0  0  0  0  0  0
    0.2352    2.7338   -0.4975 H   0  0  0  0  0  0  0  0  0  0  0  0
    0.1586    2.8156    1.3787 H   0  0  0  0  0  0  0  0  0  0  0  0
    1.6210    2.4949    0.5011 H   0  0  0  0  0  0  0  0  0  0  0  0
   -3.4864    1.2291   -0.0930 H   0  0  0  0  0  0  0  0  0  0  0  0
    1.5704   -5.0682    0.9566 H   0  0  0  0  0  0  0  0  0  0  0  0
    1.0154   -6.4769    0.1147 H   0  0  0  0  0  0  0  0  0  0  0  0
   -2.3080   -7.3306    0.9365 H   0  0  0  0  0  0  0  0  0  0  0  0
   -2.2847   -7.3388   -0.8499 H   0  0  0  0  0  0  0  0  0  0  0  0
   -0.8034   -7.5557    0.0682 H   0  0  0  0  0  0  0  0  0  0  0  0
    2.8435   -5.5519   -1.1432 H   0  0  0  0  0  0  0  0  0  0  0  0
    1.3699   -5.5050   -2.0834 H   0  0  0  0  0  0  0  0  0  0  0  0
   -4.3467   -5.7067   -0.0686 H   0  0  0  0  0  0  0  0  0  0  0  0
   -0.5027    3.9393    0.1804 H   0  0  0  0  0  0  0  0  0  0  0  0
   -5.1989    2.7354   -0.8419 H   0  0  0  0  0  0  0  0  0  0  0  0
    3.9910   -3.7181   -1.0169 H   0  0  0  0  0  0  0  0  0  0  0  0
   -3.8268   -1.9203    0.0023 H   0  0  0  0  0  0  0  0  0  0  0  0
   -3.5099    7.2821    0.7659 H   0  0  0  0  0  0  0  0  0  0  0  0
   -2.9480    7.2454   -0.9307 H   0  0  0  0  0  0  0  0  0  0  0  0
   -4.5967    6.9006   -0.5413 H   0  0  0  0  0  0  0  0  0  0  0  0
   -6.9115    4.3407   -1.3713 H   0  0  0  0  0  0  0  0  0  0  0  0
   -5.8641    5.7321   -0.9522 H   0  0  0  0  0  0  0  0  0  0  0  0
   -7.7966   -5.3496    0.4046 H   0  0  0  0  0  0  0  0  0  0  0  0
   -7.7576   -4.8404   -1.3007 H   0  0  0  0  0  0  0  0  0  0  0  0
   -6.4829   -5.8686   -0.6603 H   0  0  0  0  0  0  0  0  0  0  0  0
   -9.0777   -3.1370    0.0859 H   0  0  0  0  0  0  0  0  0  0  0  0
  -10.0101   -0.9974    0.6462 H   0  0  0  0  0  0  0  0  0  0  0  0
   -8.3257   -0.2738    0.8845 H   0  0  0  0  0  0  0  0  0  0  0  0
    3.8854    0.6013   -1.3320 H   0  0  0  0  0  0  0  0  0  0  0  0
    2.4422    0.1311   -2.2215 H   0  0  0  0  0  0  0  0  0  0  0  0
    1.2299    3.3727   -2.0759 H   0  0  0  0  0  0  0  0  0  0  0  0
  1  2  2  0  0  0  0
  1  3  1  0  0  0  0
  1  4  1  0  0  0  0
  2  5  1  0  0  0  0
  2  6  1  0  0  0  0
  3  7  2  0  0  0  0
  3 44  1  0  0  0  0
  4  8  1  0  0  0  0
  4 45  1  0  0  0  0
  5  9  1  0  0  0  0
  5  8  2  0  0  0  0
  6 40  1  0  0  0  0
  6 46  1  0  0  0  0
  6 47  1  0  0  0  0
  7 10  1  0  0  0  0
  7 11  1  0  0  0  0
  8 12  1  0  0  0  0
  9 48  1  0  0  0  0
  9 49  1  0  0  0  0
  9 50  1  0  0  0  0
 10 13  2  0  0  0  0
 10 14  1  0  0  0  0
 11 15  2  0  0  0  0
 12 16  2  0  0  0  0
 12 51  1  0  0  0  0
 13 17  1  0  0  0  0
 13 15  1  0  0  0  0
 14 18  1  0  0  0  0
 14 52  1  0  0  0  0
 14 53  1  0  0  0  0
 15 19  1  0  0  0  0
 16 20  1  0  0  0  0
 16 21  1  0  0  0  0
 17 54  1  0  0  0  0
 17 55  1  0  0  0  0
 17 56  1  0  0  0  0
 18 22  1  0  0  0  0
 18 57  1  0  0  0  0
 18 58  1  0  0  0  0
 19 23  2  0  0  0  0
 19 59  1  0  0  0  0
 20 24  2  0  0  0  0
 20 25  1  0  0  0  0
 21 26  1  0  0  0  0
 21 60  1  0  0  0  0
 22 27  1  0  0  0  0
 22 28  2  0  0  0  0
 23 29  1  0  0  0  0
 23 30  1  0  0  0  0
 24 31  1  0  0  0  0
 24 26  1  0  0  0  0
 25 32  2  0  0  0  0
 25 61  1  0  0  0  0
 26 33  2  0  0  0  0
 27 62  1  0  0  0  0
 29 34  2  0  0  0  0
 29 35  1  0  0  0  0
 30 36  1  0  0  0  0
 30 63  1  0  0  0  0
 31 64  1  0  0  0  0
 31 65  1  0  0  0  0
 31 66  1  0  0  0  0
 32 67  1  0  0  0  0
 32 68  1  0  0  0  0
 34 37  1  0  0  0  0
 34 36  1  0  0  0  0
 35 69  1  0  0  0  0
 35 70  1  0  0  0  0
 35 71  1  0  0  0  0
 36 38  2  0  0  0  0
 37 39  2  0  0  0  0
 37 72  1  0  0  0  0
 39 73  1  0  0  0  0
 39 74  1  0  0  0  0
 40 41  1  0  0  0  0
 40 75  1  0  0  0  0
 40 76  1  0  0  0  0
 41 42  2  0  0  0  0
 41 43  1  0  0  0  0
 43 77  1  0  0  0  0
M  END
>  <DRUGBANK_ID>
DB02073

>  <SECONDARY_ACCESSION_NUMBERS>
EXPT00714

>  <COMMON_NAME>
Biliverdine IX Alpha

>  <CAS_NUMBER>
114-25-0

>  <UNII>
O9MIA842K9

$$$$
