
 OpenBabel10282417143D

 69 71  0  0  0  0  0  0  0  0999 V2000
   -1.9422    0.9249   -1.8003 C   0  0  1  0  0  0  0  0  0  0  0  0
   -2.0107    0.7783   -0.2288 C   0  0  1  0  0  0  0  0  0  0  0  0
   -3.5589    0.9987   -2.0886 C   0  0  2  0  0  0  0  0  0  0  0  0
   -0.7468    1.3498    0.4350 C   0  0  0  0  0  0  0  0  0  0  0  0
   -3.9397    1.1169   -4.9619 C   0  0  0  0  0  0  0  0  0  0  0  0
   -0.6781    2.4696    1.2055 C   0  0  0  0  0  0  0  0  0  0  0  0
   -3.1383    1.8049   -5.7264 C   0  0  0  0  0  0  0  0  0  0  0  0
    0.6710    4.2063    2.3738 C   0  0  0  0  0  0  0  0  0  0  0  0
   -3.3079    1.5425    0.2270 C   0  0  0  0  0  0  0  0  0  0  0  0
   -4.3547    1.1600   -0.7744 C   0  0  0  0  0  0  0  0  0  0  0  0
    0.5591    3.1215    1.5590 C   0  0  0  0  0  0  0  0  0  0  0  0
   -2.2040    2.6068   -6.6177 C   0  0  0  0  0  0  0  0  0  0  0  0
    0.9879    5.3901    4.9941 C   0  0  0  0  0  0  0  0  0  0  0  0
    2.1840    4.7143    4.3065 C   0  0  1  0  0  0  0  0  0  0  0  0
   -0.3241    4.7309    4.5613 C   0  0  1  0  0  0  0  0  0  0  0  0
    2.0233    4.7622    2.7730 C   0  0  0  0  0  0  0  0  0  0  0  0
   -0.5032    4.8514    3.0486 C   0  0  0  0  0  0  0  0  0  0  0  0
   -4.2880   -0.2602   -2.9073 C   0  0  1  0  0  0  0  0  0  0  0  0
   -0.4418    1.3409   -2.1757 C   0  0  0  0  0  0  0  0  0  0  0  0
   -1.7161    0.2267   -3.1365 C   0  0  0  0  0  0  0  0  0  0  0  0
   -4.9330    0.3493   -4.1636 C   0  0  0  0  0  0  0  0  0  0  0  0
   -2.6502    2.5207   -7.9655 O   0  0  0  0  0  0  0  0  0  0  0  0
    3.4247    5.2726    4.7269 O   0  0  0  0  0  0  0  0  0  0  0  0
   -0.3418    3.3570    4.9659 O   0  0  0  0  0  0  0  0  0  0  0  0
    0.4972    0.6464    0.0346 C   0  0  0  0  0  0  0  0  0  0  0  0
    0.7687    0.9447   -1.3834 C   0  0  0  0  0  0  0  0  0  0  0  0
   -2.2229    4.0711   -6.1869 C   0  0  0  0  0  0  0  0  0  0  0  0
   -0.7840    2.0515   -6.5259 C   0  0  0  0  0  0  0  0  0  0  0  0
   -3.4695   -1.5269   -3.3606 C   0  0  0  0  0  0  0  0  0  0  0  0
   -3.7468    1.9493   -2.6084 H   0  0  0  0  0  0  0  0  0  0  0  0
   -2.1487   -0.2693    0.0677 H   0  0  0  0  0  0  0  0  0  0  0  0
   -1.6028    2.9268    1.5135 H   0  0  0  0  0  0  0  0  0  0  0  0
   -3.2105    2.6360    0.1982 H   0  0  0  0  0  0  0  0  0  0  0  0
   -3.6388    1.2817    1.2436 H   0  0  0  0  0  0  0  0  0  0  0  0
   -5.1395    1.9291   -0.8676 H   0  0  0  0  0  0  0  0  0  0  0  0
   -4.8757    0.2505   -0.4501 H   0  0  0  0  0  0  0  0  0  0  0  0
    1.4865    2.7510    1.1479 H   0  0  0  0  0  0  0  0  0  0  0  0
    1.0982    5.3291    6.0812 H   0  0  0  0  0  0  0  0  0  0  0  0
    0.9623    6.4583    4.7380 H   0  0  0  0  0  0  0  0  0  0  0  0
    2.2264    3.6658    4.6202 H   0  0  0  0  0  0  0  0  0  0  0  0
   -1.1747    5.2079    5.0548 H   0  0  0  0  0  0  0  0  0  0  0  0
    2.8568    4.2216    2.3070 H   0  0  0  0  0  0  0  0  0  0  0  0
    2.1042    5.7970    2.4157 H   0  0  0  0  0  0  0  0  0  0  0  0
   -0.5537    5.9001    2.7315 H   0  0  0  0  0  0  0  0  0  0  0  0
   -1.4618    4.4055    2.7798 H   0  0  0  0  0  0  0  0  0  0  0  0
   -5.0698   -0.6927   -2.2752 H   0  0  0  0  0  0  0  0  0  0  0  0
   -0.4355    2.3446   -2.5842 H   0  0  0  0  0  0  0  0  0  0  0  0
    0.0731    0.7130   -2.9543 H   0  0  0  0  0  0  0  0  0  0  0  0
   -1.1517    0.7162   -3.9751 H   0  0  0  0  0  0  0  0  0  0  0  0
   -1.3413   -0.7787   -3.0285 H   0  0  0  0  0  0  0  0  0  0  0  0
   -2.4977    0.4443   -3.7962 H   0  0  0  0  0  0  0  0  0  0  0  0
   -5.3639   -0.4540   -4.7708 H   0  0  0  0  0  0  0  0  0  0  0  0
   -5.7543    1.0054   -3.8575 H   0  0  0  0  0  0  0  0  0  0  0  0
   -2.6659    1.5763   -8.1951 H   0  0  0  0  0  0  0  0  0  0  0  0
    3.4039    6.2375    4.6309 H   0  0  0  0  0  0  0  0  0  0  0  0
    0.2994    2.8606    4.4229 H   0  0  0  0  0  0  0  0  0  0  0  0
    0.3780   -0.4272    0.2042 H   0  0  0  0  0  0  0  0  0  0  0  0
    1.4148    0.9332    0.5391 H   0  0  0  0  0  0  0  0  0  0  0  0
    1.4626    1.7648   -1.5836 H   0  0  0  0  0  0  0  0  0  0  0  0
    1.2776    0.0426   -1.7849 H   0  0  0  0  0  0  0  0  0  0  0  0
   -1.8943    4.1878   -5.1475 H   0  0  0  0  0  0  0  0  0  0  0  0
   -1.5691    4.6752   -6.8259 H   0  0  0  0  0  0  0  0  0  0  0  0
   -3.2295    4.4958   -6.2737 H   0  0  0  0  0  0  0  0  0  0  0  0
   -0.3871    2.1275   -5.5085 H   0  0  0  0  0  0  0  0  0  0  0  0
   -0.7509    0.9984   -6.8283 H   0  0  0  0  0  0  0  0  0  0  0  0
   -0.1060    2.5948   -7.1932 H   0  0  0  0  0  0  0  0  0  0  0  0
   -2.8840   -1.9176   -2.5198 H   0  0  0  0  0  0  0  0  0  0  0  0
   -4.0702   -2.3335   -3.7689 H   0  0  0  0  0  0  0  0  0  0  0  0
   -2.8105   -1.3354   -4.2281 H   0  0  0  0  0  0  0  0  0  0  0  0
  1 20  1  6  0  0  0
  2  1  1  0  0  0  0
  2 31  1  1  0  0  0
  3  1  1  0  0  0  0
  3 30  1  6  0  0  0
  3 18  1  0  0  0  0
  4  2  1  0  0  0  0
  5 21  1  0  0  0  0
  6  4  2  0  0  0  0
  6 32  1  0  0  0  0
  7  5  3  0  0  0  0
  8 11  2  0  0  0  0
  9  2  1  0  0  0  0
  9 33  1  0  0  0  0
  9 34  1  0  0  0  0
 10  3  1  0  0  0  0
 10  9  1  0  0  0  0
 10 35  1  0  0  0  0
 10 36  1  0  0  0  0
 11  6  1  0  0  0  0
 11 37  1  0  0  0  0
 12  7  1  0  0  0  0
 13 15  1  0  0  0  0
 13 14  1  0  0  0  0
 13 38  1  0  0  0  0
 13 39  1  0  0  0  0
 14 16  1  0  0  0  0
 14 40  1  1  0  0  0
 14 23  1  0  0  0  0
 15 17  1  0  0  0  0
 15 24  1  0  0  0  0
 15 41  1  1  0  0  0
 16  8  1  0  0  0  0
 16 42  1  0  0  0  0
 16 43  1  0  0  0  0
 17  8  1  0  0  0  0
 17 44  1  0  0  0  0
 17 45  1  0  0  0  0
 18 29  1  0  0  0  0
 18 46  1  1  0  0  0
 19  1  1  0  0  0  0
 19 47  1  0  0  0  0
 19 48  1  0  0  0  0
 20 49  1  0  0  0  0
 20 50  1  0  0  0  0
 20 51  1  0  0  0  0
 21 18  1  0  0  0  0
 21 52  1  0  0  0  0
 21 53  1  0  0  0  0
 22 12  1  0  0  0  0
 22 54  1  0  0  0  0
 23 55  1  0  0  0  0
 24 56  1  0  0  0  0
 25 26  1  0  0  0  0
 25  4  1  0  0  0  0
 25 57  1  0  0  0  0
 25 58  1  0  0  0  0
 26 19  1  0  0  0  0
 26 59  1  0  0  0  0
 26 60  1  0  0  0  0
 27 12  1  0  0  0  0
 27 61  1  0  0  0  0
 27 62  1  0  0  0  0
 27 63  1  0  0  0  0
 28 12  1  0  0  0  0
 28 64  1  0  0  0  0
 28 65  1  0  0  0  0
 28 66  1  0  0  0  0
 29 67  1  0  0  0  0
 29 68  1  0  0  0  0
 29 69  1  0  0  0  0
M  END
>  <DRUGBANK_ID>
DB04796

>  <COMMON_NAME>
Inecalcitol

>  <CAS_NUMBER>
163217-09-2

>  <UNII>
05FZV98342

>  <SYNONYMS>
(7E)-19-Nor-9,10-seco-14beta-cholesta-5,7-dien-23-yne-1alpha,3beta,25-triol; Inecalcitol

$$$$
