
 OpenBabel10282417213D

 17 14  0  0  0  0  0  0  0  0999 V2000
    1.7036   -1.3324    0.4160 O   0  0  0  0  0  0  0  0  0  0  0  0
    1.3307   -1.7911   -1.1136 Si  0  0  0  0  0  0  0  0  0  0  0  0
    2.1164   -0.4594   -1.7290 O   0  0  0  0  0  0  0  0  0  0  0  0
    1.9057   -3.1283   -1.8209 O   0  0  0  0  0  0  0  0  0  0  0  0
   -0.2528   -1.5023   -1.2256 O   0  5  0  0  0  0  0  0  0  0  0  0
    0.1169    1.0683   -0.5105 O   0  0  0  0  0  0  0  0  0  0  0  0
   -0.5331    1.2951   -2.0826 Si  0  0  0  0  0  0  0  0  0  0  0  0
    0.4913    2.5966   -2.1358 O   0  0  0  0  0  0  0  0  0  0  0  0
   -0.1173    0.3317   -3.3196 O   0  0  0  0  0  0  0  0  0  0  0  0
   -2.0717    1.6838   -1.8819 O   0  5  0  0  0  0  0  0  0  0  0  0
    1.4711    2.3480    0.9344 Ca  0  2  0  0  0  0  0  0  0  0  0  0
    2.6428   -1.1010    0.4151 H   0  0  0  0  0  0  0  0  0  0  0  0
    1.8202    0.0722   -2.4883 H   0  0  0  0  0  0  0  0  0  0  0  0
    2.7418   -3.0004   -2.2341 H   0  0  0  0  0  0  0  0  0  0  0  0
    0.2308    0.1077   -0.3942 H   0  0  0  0  0  0  0  0  0  0  0  0
   -0.0200    3.3659   -1.8694 H   0  0  0  0  0  0  0  0  0  0  0  0
    0.4970   -0.4097   -3.4386 H   0  0  0  0  0  0  0  0  0  0  0  0
  1  2  1  0  0  0  0
  1 12  1  0  0  0  0
  2  3  1  0  0  0  0
  2  4  1  0  0  0  0
  2  5  1  0  0  0  0
  3 13  1  0  0  0  0
  4 14  1  0  0  0  0
  6  7  1  0  0  0  0
  6 15  1  0  0  0  0
  7  8  1  0  0  0  0
  7  9  1  0  0  0  0
  7 10  1  0  0  0  0
  8 16  1  0  0  0  0
  9 17  1  0  0  0  0
M  CHG  3   5  -1  10  -1  11   2
M  END
>  <DRUGBANK_ID>
DB13829

>  <COMMON_NAME>
Calcium silicate

>  <CAS_NUMBER>
1344-95-2

>  <UNII>
S4255P4G5M

$$$$
