U32
 OpenBabel10282417173D

 34 35  0  0  0  0  0  0  0  0999 V2000
    0.9709   -0.0723   -0.1097 O   0  0  0  0  0  0  0  0  0  0  0  0
    3.0777   -0.7760    1.0985 O   0  0  0  0  0  0  0  0  0  0  0  0
    7.9201    5.9649    0.0208 C   0  0  0  0  0  0  0  0  0  0  0  0
    7.9893    6.4449    1.3108 C   0  0  0  0  0  0  0  0  0  0  0  0
    9.2318    6.8790    2.0474 C   0  0  0  0  0  0  0  0  0  0  0  0
    9.1740    8.3521    2.4397 C   0  0  0  0  0  0  0  0  0  0  0  0
    9.5296    5.9999    3.2598 C   0  0  0  0  0  0  0  0  0  0  0  0
    6.3908    6.5148    1.9560 S   0  0  0  0  0  0  0  0  0  0  0  0
    5.7588    5.8522    0.4857 C   0  0  0  0  0  0  0  0  0  0  0  0
    6.6725    5.6153   -0.4283 N   0  0  0  0  0  0  0  0  0  0  0  0
    3.0223   -0.7193   -1.4023 N   0  0  0  0  0  0  0  0  0  0  0  0
    4.3698    1.8293    0.0476 C   0  0  0  0  0  0  0  0  0  0  0  0
    2.9971    1.5970    0.0047 C   0  0  0  0  0  0  0  0  0  0  0  0
    4.4417    5.5694    0.3009 N   0  0  0  0  0  0  0  0  0  0  0  0
    2.1052    2.6715   -0.0145 C   0  0  0  0  0  0  0  0  0  0  0  0
    2.5936    3.9876    0.0377 C   0  0  0  0  0  0  0  0  0  0  0  0
    3.9695    4.2410    0.1467 C   0  0  0  0  0  0  0  0  0  0  0  0
    4.8428    3.1426    0.0630 C   0  0  0  0  0  0  0  0  0  0  0  0
    2.4129   -0.0746    0.0310 S   0  0  0  0  0  0  0  0  0  0  0  0
    8.7635    5.8427   -0.6457 H   0  0  0  0  0  0  0  0  0  0  0  0
   10.0818    6.7647    1.3572 H   0  0  0  0  0  0  0  0  0  0  0  0
    8.3645    8.5439    3.1508 H   0  0  0  0  0  0  0  0  0  0  0  0
   10.1128    8.6666    2.9084 H   0  0  0  0  0  0  0  0  0  0  0  0
    9.0087    8.9836    1.5599 H   0  0  0  0  0  0  0  0  0  0  0  0
    9.6273    4.9478    2.9702 H   0  0  0  0  0  0  0  0  0  0  0  0
   10.4699    6.3030    3.7351 H   0  0  0  0  0  0  0  0  0  0  0  0
    8.7376    6.0719    4.0116 H   0  0  0  0  0  0  0  0  0  0  0  0
    4.0397   -0.7777   -1.3928 H   0  0  0  0  0  0  0  0  0  0  0  0
    2.6027   -1.6403   -1.5487 H   0  0  0  0  0  0  0  0  0  0  0  0
    5.0830    1.0114    0.0976 H   0  0  0  0  0  0  0  0  0  0  0  0
    3.7599    6.1987    0.7066 H   0  0  0  0  0  0  0  0  0  0  0  0
    1.0316    2.4970   -0.0428 H   0  0  0  0  0  0  0  0  0  0  0  0
    1.8821    4.8099    0.0088 H   0  0  0  0  0  0  0  0  0  0  0  0
    5.9195    3.2923    0.0444 H   0  0  0  0  0  0  0  0  0  0  0  0
  1 19  2  0  0  0  0
  2 19  2  0  0  0  0
  3  4  2  0  0  0  0
  3 10  1  0  0  0  0
  3 20  1  0  0  0  0
  4  5  1  0  0  0  0
  4  8  1  0  0  0  0
  5  6  1  0  0  0  0
  5  7  1  0  0  0  0
  5 21  1  0  0  0  0
  6 22  1  0  0  0  0
  6 23  1  0  0  0  0
  6 24  1  0  0  0  0
  7 25  1  0  0  0  0
  7 26  1  0  0  0  0
  7 27  1  0  0  0  0
  8  9  1  0  0  0  0
  9 10  2  0  0  0  0
  9 14  1  0  0  0  0
 11 19  1  0  0  0  0
 11 28  1  0  0  0  0
 11 29  1  0  0  0  0
 12 13  2  0  0  0  0
 12 18  1  0  0  0  0
 12 30  1  0  0  0  0
 13 15  1  0  0  0  0
 13 19  1  0  0  0  0
 14 17  1  0  0  0  0
 14 31  1  0  0  0  0
 15 16  2  0  0  0  0
 15 32  1  0  0  0  0
 16 17  1  0  0  0  0
 16 33  1  0  0  0  0
 17 18  2  0  0  0  0
 18 34  1  0  0  0  0
M  END
>  <DRUGBANK_ID>
DB08673

>  <COMMON_NAME>
4-[(5-ISOPROPYL-1,3-THIAZOL-2-YL)AMINO]BENZENESULFONAMIDE

$$$$
