
 OpenBabel10282417193D

 30 31  0  0  1  0  0  0  0  0999 V2000
    0.8380   -0.0004   -0.0440 C   0  0  0  0  0  0  0  0  0  0  0  0
    0.3685    1.2568   -0.7004 C   0  0  0  0  0  0  0  0  0  0  0  0
   -0.2723    1.3186   -1.8779 C   0  0  0  0  0  0  0  0  0  0  0  0
   -0.4629    2.5147   -2.5549 N   0  0  0  0  0  0  0  0  0  0  0  0
   -0.1092    3.7280   -1.9657 C   0  0  0  0  0  0  0  0  0  0  0  0
   -0.1006    4.8118   -2.5436 O   0  0  0  0  0  0  0  0  0  0  0  0
    0.2854    3.6591   -0.6527 N   0  0  0  0  0  0  0  0  0  0  0  0
    0.7002    2.5280   -0.0196 C   0  0  0  0  0  0  0  0  0  0  0  0
    1.3172    2.5578    1.0432 O   0  0  0  0  0  0  0  0  0  0  0  0
   -0.8419    2.5367   -3.9740 C   0  0  1  0  0  0  0  0  0  0  0  0
    0.0620    1.6729   -4.7931 C   0  0  0  0  0  0  0  0  0  0  0  0
   -0.6695    0.9501   -5.6446 C   0  0  0  0  0  0  0  0  0  0  0  0
   -2.1215    1.2688   -5.4673 C   0  0  2  0  0  0  0  0  0  0  0  0
   -2.1621    1.9716   -4.1916 O   0  0  0  0  0  0  0  0  0  0  0  0
   -3.0038   -0.0001   -5.4295 C   0  0  0  0  0  0  0  0  0  0  0  0
   -4.3893    0.2882   -5.2103 O   0  0  0  0  0  0  0  0  0  0  0  0
   -2.5974    2.1518   -6.6094 C   0  0  0  0  0  0  0  0  0  0  0  0
   -3.0056    2.9091   -7.5891 C   0  0  0  0  0  0  0  0  0  0  0  0
    0.5153   -0.8908   -0.5916 H   0  0  0  0  0  0  0  0  0  0  0  0
    0.4721   -0.0765    0.9841 H   0  0  0  0  0  0  0  0  0  0  0  0
    1.9352   -0.0137   -0.0176 H   0  0  0  0  0  0  0  0  0  0  0  0
   -0.5841    0.4163   -2.3946 H   0  0  0  0  0  0  0  0  0  0  0  0
    0.5392    4.5314   -0.2140 H   0  0  0  0  0  0  0  0  0  0  0  0
   -0.8312    3.5581   -4.3702 H   0  0  0  0  0  0  0  0  0  0  0  0
    1.1394    1.6619   -4.7195 H   0  0  0  0  0  0  0  0  0  0  0  0
   -0.2796    0.2472   -6.3664 H   0  0  0  0  0  0  0  0  0  0  0  0
   -2.9324   -0.5403   -6.3823 H   0  0  0  0  0  0  0  0  0  0  0  0
   -2.6920   -0.6764   -4.6285 H   0  0  0  0  0  0  0  0  0  0  0  0
   -4.4292    0.9033   -4.4554 H   0  0  0  0  0  0  0  0  0  0  0  0
   -3.3443    3.5287   -8.3873 H   0  0  0  0  0  0  0  0  0  0  0  0
  1  2  1  0  0  0  0
  1 19  1  0  0  0  0
  1 20  1  0  0  0  0
  1 21  1  0  0  0  0
  2  3  2  0  0  0  0
  2  8  1  0  0  0  0
  3  4  1  0  0  0  0
  3 22  1  0  0  0  0
  4  5  1  0  0  0  0
  5  6  2  0  0  0  0
  5  7  1  0  0  0  0
  7  8  1  0  0  0  0
  7 23  1  0  0  0  0
  8  9  2  0  0  0  0
 10  4  1  0  0  0  0
 10 11  1  0  0  0  0
 10 14  1  0  0  0  0
 10 24  1  6  0  0  0
 11 12  2  0  0  0  0
 11 25  1  0  0  0  0
 12 13  1  0  0  0  0
 12 26  1  0  0  0  0
 13 14  1  0  0  0  0
 13 15  1  0  0  0  0
 13 17  1  6  0  0  0
 15 16  1  0  0  0  0
 15 27  1  0  0  0  0
 15 28  1  0  0  0  0
 16 29  1  0  0  0  0
 17 18  3  0  0  0  0
 18 30  1  0  0  0  0
M  END
>  <DRUGBANK_ID>
DB12074

>  <COMMON_NAME>
Censavudine

>  <CAS_NUMBER>
634907-30-5

>  <UNII>
6IE83O6NGA

>  <SYNONYMS>
Censavudine

$$$$
