
 OpenBabel10282417223D

 46 48  0  0  1  0  0  0  0  0999 V2000
    0.9283    0.7531   -2.0311 C   0  0  0  0  0  0  0  0  0  0  0  0
    0.6426    2.2390   -1.7862 C   0  0  0  0  0  0  0  0  0  0  0  0
    0.9904    2.6721   -0.3694 C   0  0  1  0  0  0  0  0  0  0  0  0
    2.5282    3.0017   -0.1249 C   0  0  1  0  0  0  0  0  0  0  0  0
    3.5551    2.1634   -0.8846 C   0  0  0  0  0  0  0  0  0  0  0  0
    3.4974    0.7468   -0.6599 O   0  0  0  0  0  0  0  0  0  0  0  0
    3.6494    0.0769    0.5116 C   0  0  0  0  0  0  0  0  0  0  0  0
    3.1522    0.4273    1.8033 C   0  0  0  0  0  0  0  0  0  0  0  0
    2.2034    1.3891    2.1224 C   0  0  0  0  0  0  0  0  0  0  0  0
    1.9056    2.0456    3.3105 C   0  0  0  0  0  0  0  0  0  0  0  0
    1.2168    3.1893    3.0423 O   0  0  0  0  0  0  0  0  0  0  0  0
    0.7139    3.9905    4.0893 C   0  0  0  0  0  0  0  0  0  0  0  0
    2.3725    1.4161    4.4246 C   0  0  0  0  0  0  0  0  0  0  0  0
    3.1397    0.2279    4.2074 C   0  0  0  0  0  0  0  0  0  0  0  0
    3.5457   -0.2624    2.9214 C   0  0  0  0  0  0  0  0  0  0  0  0
    4.2940   -1.4213    2.7069 C   0  0  0  0  0  0  0  0  0  0  0  0
    4.6308   -1.7934    1.4117 C   0  0  0  0  0  0  0  0  0  0  0  0
    4.3416   -1.0612    0.3207 N   0  0  0  0  0  0  0  0  0  0  0  0
    2.0369    1.8794    5.8085 C   0  0  0  0  0  0  0  0  0  0  0  0
    2.4708    1.1250    6.8459 N   0  0  0  0  0  0  0  0  0  0  0  0
    1.4053    2.8436    6.1501 O   0  0  0  0  0  0  0  0  0  0  0  0
    2.5972    4.4216   -0.3126 N   0  0  0  0  0  0  0  0  0  0  0  0
    1.3396    5.0091   -0.2178 C   0  0  0  0  0  0  0  0  0  0  0  0
    1.1406    6.2030   -0.3549 O   0  0  0  0  0  0  0  0  0  0  0  0
    0.3186    3.9507    0.1201 C   0  0  1  0  0  0  0  0  0  0  0  0
   -0.9190    4.0929   -0.4108 F   0  0  0  0  0  0  0  0  0  0  0  0
    1.9767    0.5035   -1.9935 H   0  0  0  0  0  0  0  0  0  0  0  0
    0.6408    0.4672   -3.0407 H   0  0  0  0  0  0  0  0  0  0  0  0
    0.4279    0.1018   -1.3027 H   0  0  0  0  0  0  0  0  0  0  0  0
    1.1697    2.8731   -2.4968 H   0  0  0  0  0  0  0  0  0  0  0  0
   -0.4338    2.3716   -1.9331 H   0  0  0  0  0  0  0  0  0  0  0  0
    0.4788    1.8715    0.1789 H   0  0  0  0  0  0  0  0  0  0  0  0
    2.9137    2.9773    0.8914 H   0  0  0  0  0  0  0  0  0  0  0  0
    3.3685    2.3275   -1.9573 H   0  0  0  0  0  0  0  0  0  0  0  0
    4.5806    2.5205   -0.7376 H   0  0  0  0  0  0  0  0  0  0  0  0
    1.5675    1.6531    1.3471 H   0  0  0  0  0  0  0  0  0  0  0  0
   -0.0261    3.3979    4.6311 H   0  0  0  0  0  0  0  0  0  0  0  0
    1.5499    4.3955    4.6663 H   0  0  0  0  0  0  0  0  0  0  0  0
    0.1709    4.8628    3.7138 H   0  0  0  0  0  0  0  0  0  0  0  0
    3.4642   -0.3621    5.0503 H   0  0  0  0  0  0  0  0  0  0  0  0
    4.6006   -2.0354    3.5417 H   0  0  0  0  0  0  0  0  0  0  0  0
    5.1850   -2.7068    1.2171 H   0  0  0  0  0  0  0  0  0  0  0  0
    2.1513    1.5048    7.7262 H   0  0  0  0  0  0  0  0  0  0  0  0
    2.9635    0.2598    6.8001 H   0  0  0  0  0  0  0  0  0  0  0  0
    3.3861    4.9786    0.0106 H   0  0  0  0  0  0  0  0  0  0  0  0
    0.1825    3.9426    1.2048 H   0  0  0  0  0  0  0  0  0  0  0  0
  1  2  1  0  0  0  0
  1 27  1  0  0  0  0
  1 28  1  0  0  0  0
  1 29  1  0  0  0  0
  2 30  1  0  0  0  0
  2 31  1  0  0  0  0
  3  4  1  0  0  0  0
  3 25  1  0  0  0  0
  3 32  1  1  0  0  0
  3  2  1  0  0  0  0
  4 22  1  0  0  0  0
  4 33  1  1  0  0  0
  4  5  1  0  0  0  0
  5  6  1  0  0  0  0
  5 34  1  0  0  0  0
  5 35  1  0  0  0  0
  6  7  1  0  0  0  0
  7  8  2  0  0  0  0
  7 18  1  0  0  0  0
  8  9  1  0  0  0  0
  8 15  1  0  0  0  0
  9 10  2  0  0  0  0
  9 36  1  0  0  0  0
 10 11  1  0  0  0  0
 10 13  1  0  0  0  0
 11 12  1  0  0  0  0
 12 37  1  0  0  0  0
 12 38  1  0  0  0  0
 12 39  1  0  0  0  0
 13 14  2  0  0  0  0
 13 19  1  0  0  0  0
 14 15  1  0  0  0  0
 14 40  1  0  0  0  0
 15 16  2  0  0  0  0
 16 17  1  0  0  0  0
 16 41  1  0  0  0  0
 17 18  2  0  0  0  0
 17 42  1  0  0  0  0
 19 20  1  0  0  0  0
 19 21  2  0  0  0  0
 20 43  1  0  0  0  0
 20 44  1  0  0  0  0
 22 23  1  0  0  0  0
 22 45  1  0  0  0  0
 23 24  2  0  0  0  0
 25 23  1  0  0  0  0
 25 26  1  0  0  0  0
 25 46  1  1  0  0  0
M  END
>  <DRUGBANK_ID>
DB15143

>  <COMMON_NAME>
PF-06650833

>  <CAS_NUMBER>
1817626-54-2

>  <UNII>
S3F315JJXI

$$$$
