772
 OpenBabel10282417113D

 38 37  0  0  1  0  0  0  0  0999 V2000
    0.9692   -0.0792    0.0527 S   0  0  0  0  0  0  0  0  0  0  0  0
    0.5384    1.6676    2.1226 S   0  0  0  0  0  0  0  0  0  0  0  0
    0.2625    1.9188    0.1084 P   0  0  0  0  0  0  0  0  0  0  0  0
    4.4243    1.4711   -0.8478 O   0  0  0  0  0  0  0  0  0  0  0  0
    3.7784   -2.7173   -2.1604 O   0  0  0  0  0  0  0  0  0  0  0  0
    1.0963    2.6932   -1.0455 O   0  0  0  0  0  0  0  0  0  0  0  0
   -0.3141    3.5492    0.1539 O   0  0  0  0  0  0  0  0  0  0  0  0
    3.4746    0.0043   -2.2227 O   0  0  0  0  0  0  0  0  0  0  0  0
    1.6466   -2.6106   -1.5091 O   0  0  0  0  0  0  0  0  0  0  0  0
    2.8749   -0.2838    0.1008 C   0  0  3  0  0  0  0  0  0  0  0  0
    3.2427   -1.7677    0.0573 C   0  0  0  0  0  0  0  0  0  0  0  0
    3.6497    0.3619   -1.0539 C   0  0  0  0  0  0  0  0  0  0  0  0
    2.8127   -2.4174   -1.2509 C   0  0  0  0  0  0  0  0  0  0  0  0
    4.6582    2.2065    0.3755 C   0  0  0  0  0  0  0  0  0  0  0  0
    5.2072   -2.6745   -1.9626 C   0  0  0  0  0  0  0  0  0  0  0  0
    3.4446    2.7639    1.0708 C   0  0  0  0  0  0  0  0  0  0  0  0
    5.8186   -1.2859   -1.9544 C   0  0  0  0  0  0  0  0  0  0  0  0
    1.7737    1.9691   -1.9703 C   0  0  0  0  0  0  0  0  0  0  0  0
   -0.5673    4.1833    1.4053 C   0  0  0  0  0  0  0  0  0  0  0  0
    3.2534    0.0824    1.0519 H   0  0  0  0  0  0  0  0  0  0  0  0
    4.3147   -1.8729    0.2287 H   0  0  0  0  0  0  0  0  0  0  0  0
    2.7835   -2.3024    0.8930 H   0  0  0  0  0  0  0  0  0  0  0  0
    5.2027    1.5322    1.0310 H   0  0  0  0  0  0  0  0  0  0  0  0
    5.2905    3.0609    0.1201 H   0  0  0  0  0  0  0  0  0  0  0  0
    5.4559   -3.2216   -1.0514 H   0  0  0  0  0  0  0  0  0  0  0  0
    5.6334   -3.2116   -2.8120 H   0  0  0  0  0  0  0  0  0  0  0  0
    2.7851    1.9389    1.2185 H   0  0  0  0  0  0  0  0  0  0  0  0
    3.6655    3.1528    2.0668 H   0  0  0  0  0  0  0  0  0  0  0  0
    2.8872    3.5161    0.5052 H   0  0  0  0  0  0  0  0  0  0  0  0
    5.5354   -0.7604   -1.0478 H   0  0  0  0  0  0  0  0  0  0  0  0
    6.9042   -1.2829   -1.9076 H   0  0  0  0  0  0  0  0  0  0  0  0
    5.5116   -0.7090   -2.8341 H   0  0  0  0  0  0  0  0  0  0  0  0
    2.4078    1.7305   -1.1787 H   0  0  0  0  0  0  0  0  0  0  0  0
    1.2721    1.0742   -2.3464 H   0  0  0  0  0  0  0  0  0  0  0  0
    2.4619    2.4542   -2.6544 H   0  0  0  0  0  0  0  0  0  0  0  0
   -1.3109    3.6084    1.9705 H   0  0  0  0  0  0  0  0  0  0  0  0
    0.3711    4.2876    1.9644 H   0  0  0  0  0  0  0  0  0  0  0  0
   -0.9625    5.1873    1.2697 H   0  0  0  0  0  0  0  0  0  0  0  0
  1  3  1  0  0  0  0
  1 10  1  0  0  0  0
  2  3  2  0  0  0  0
  3  6  1  0  0  0  0
  3  7  1  0  0  0  0
  4 12  1  0  0  0  0
  4 14  1  0  0  0  0
  5 13  1  0  0  0  0
  5 15  1  0  0  0  0
  6 18  1  0  0  0  0
  7 19  1  0  0  0  0
  8 12  2  0  0  0  0
  9 13  2  0  0  0  0
 10 11  1  0  0  0  0
 10 12  1  0  0  0  0
 10 20  1  0  0  0  0
 11 13  1  0  0  0  0
 11 21  1  0  0  0  0
 11 22  1  0  0  0  0
 14 16  1  0  0  0  0
 14 23  1  0  0  0  0
 14 24  1  0  0  0  0
 15 17  1  0  0  0  0
 15 25  1  0  0  0  0
 15 26  1  0  0  0  0
 16 27  1  0  0  0  0
 16 28  1  0  0  0  0
 16 29  1  0  0  0  0
 17 30  1  0  0  0  0
 17 31  1  0  0  0  0
 17 32  1  0  0  0  0
 18 33  1  0  0  0  0
 18 34  1  0  0  0  0
 18 35  1  0  0  0  0
 19 36  1  0  0  0  0
 19 37  1  0  0  0  0
 19 38  1  0  0  0  0
M  END
>  <DRUGBANK_ID>
DB00772

>  <SECONDARY_ACCESSION_NUMBERS>
APRD01081

>  <COMMON_NAME>
Malathion

>  <CAS_NUMBER>
121-75-5

>  <UNII>
U5N7SU872W

>  <SYNONYMS>
[(dimethoxyphosphinothioyl)thio]butanedioic acid diethyl ester; Carbophos; diethyl (dimethoxyphosphinothioylthio)succinate; Karbofos; Malathion; Maldison; Mercaptothion; O,O-dimethyl S-(1,2-bis(ethoxycarbonyl)ethyl); O,O-dimethyl S-(1,2-dicarbethoxyethyl) dithiophosphate; O,O-dimethyl S-(1,2-dicarbethoxyethyl)phosphorodithioate; O,O-dimethyl S-1,2-di(ethoxycarbamyl)ethyl; O,O-dimethyldithiophosphate diethylmercaptosuccinate

$$$$
