
 OpenBabel10282417173D

 44 46  0  0  0  0  0  0  0  0999 V2000
    1.3572   -0.2234    0.0164 C   0  0  0  0  0  0  0  0  0  0  0  0
   -1.8022    2.9665   -4.7413 C   0  0  0  0  0  0  0  0  0  0  0  0
    0.4672   -1.2987    0.0300 C   0  0  0  0  0  0  0  0  0  0  0  0
    0.8723    1.0821    0.0171 C   0  0  0  0  0  0  0  0  0  0  0  0
   -1.4823    1.6471   -4.4320 C   0  0  0  0  0  0  0  0  0  0  0  0
   -2.5915    3.7145   -3.8683 C   0  0  0  0  0  0  0  0  0  0  0  0
   -0.9136   -1.0699    0.0254 C   0  0  0  0  0  0  0  0  0  0  0  0
   -0.5015    1.3129    0.0514 C   0  0  0  0  0  0  0  0  0  0  0  0
   -1.9930    1.0634   -3.2696 C   0  0  0  0  0  0  0  0  0  0  0  0
   -3.0723    3.1414   -2.6895 C   0  0  0  0  0  0  0  0  0  0  0  0
   -7.4047    0.7505    0.0415 C   0  0  0  0  0  0  0  0  0  0  0  0
   -6.2230   -0.4565    1.9365 C   0  0  0  0  0  0  0  0  0  0  0  0
   -8.3965   -0.3700   -0.3455 C   0  0  0  0  0  0  0  0  0  0  0  0
   -5.8456   -1.9566    1.8112 C   0  0  0  0  0  0  0  0  0  0  0  0
   -1.4031    0.2420    0.0157 C   0  0  0  0  0  0  0  0  0  0  0  0
   -2.8287    1.7962   -2.4095 C   0  0  0  0  0  0  0  0  0  0  0  0
   -2.8135    0.5154   -0.1475 C   0  0  0  0  0  0  0  0  0  0  0  0
   -3.3722    1.1932   -1.2045 C   0  0  0  0  0  0  0  0  0  0  0  0
   -4.9181    0.5480    0.1748 C   0  0  0  0  0  0  0  0  0  0  0  0
   -3.7967    0.1305    0.7156 N   0  0  0  0  0  0  0  0  0  0  0  0
   -6.1651    0.2286    0.6289 N   0  0  0  0  0  0  0  0  0  0  0  0
   -8.9673   -1.0301    0.7843 O   0  0  0  0  0  0  0  0  0  0  0  0
   -4.4865   -2.2234    1.4907 O   0  0  0  0  0  0  0  0  0  0  0  0
   -4.7415    1.2286   -1.0077 O   0  0  0  0  0  0  0  0  0  0  0  0
    2.4297   -0.4010    0.0096 H   0  0  0  0  0  0  0  0  0  0  0  0
   -1.4272    3.4167   -5.6570 H   0  0  0  0  0  0  0  0  0  0  0  0
    0.8524   -2.3157    0.0265 H   0  0  0  0  0  0  0  0  0  0  0  0
    1.5586    1.9233   -0.0228 H   0  0  0  0  0  0  0  0  0  0  0  0
   -0.8451    1.0699   -5.0980 H   0  0  0  0  0  0  0  0  0  0  0  0
   -2.8380    4.7455   -4.1050 H   0  0  0  0  0  0  0  0  0  0  0  0
   -1.5941   -1.9190    0.0035 H   0  0  0  0  0  0  0  0  0  0  0  0
   -0.8697    2.3356    0.0808 H   0  0  0  0  0  0  0  0  0  0  0  0
   -1.7241    0.0331   -3.0426 H   0  0  0  0  0  0  0  0  0  0  0  0
   -3.6217    3.7537   -1.9786 H   0  0  0  0  0  0  0  0  0  0  0  0
   -7.8920    1.4262    0.7571 H   0  0  0  0  0  0  0  0  0  0  0  0
   -7.2021    1.3337   -0.8643 H   0  0  0  0  0  0  0  0  0  0  0  0
   -5.5838    0.0520    2.6685 H   0  0  0  0  0  0  0  0  0  0  0  0
   -7.2351   -0.3884    2.3550 H   0  0  0  0  0  0  0  0  0  0  0  0
   -9.2429    0.0610   -0.8891 H   0  0  0  0  0  0  0  0  0  0  0  0
   -7.9231   -1.1175   -0.9899 H   0  0  0  0  0  0  0  0  0  0  0  0
   -6.0402   -2.4615    2.7601 H   0  0  0  0  0  0  0  0  0  0  0  0
   -6.4400   -2.4433    1.0343 H   0  0  0  0  0  0  0  0  0  0  0  0
   -8.3154   -1.6759    1.0964 H   0  0  0  0  0  0  0  0  0  0  0  0
   -4.2041   -1.5217    0.8689 H   0  0  0  0  0  0  0  0  0  0  0  0
  1 25  1  0  0  0  0
  2 26  1  0  0  0  0
  3  1  2  0  0  0  0
  3 27  1  0  0  0  0
  4  1  1  0  0  0  0
  4 28  1  0  0  0  0
  5  2  2  0  0  0  0
  5 29  1  0  0  0  0
  6  2  1  0  0  0  0
  6 30  1  0  0  0  0
  7  3  1  0  0  0  0
  7 31  1  0  0  0  0
  8  4  2  0  0  0  0
  8 32  1  0  0  0  0
  9  5  1  0  0  0  0
  9 33  1  0  0  0  0
 10  6  2  0  0  0  0
 10 34  1  0  0  0  0
 11 35  1  0  0  0  0
 11 36  1  0  0  0  0
 12 37  1  0  0  0  0
 12 38  1  0  0  0  0
 13 11  1  0  0  0  0
 13 39  1  0  0  0  0
 13 40  1  0  0  0  0
 14 12  1  0  0  0  0
 14 41  1  0  0  0  0
 14 42  1  0  0  0  0
 15  7  2  0  0  0  0
 15  8  1  0  0  0  0
 16  9  2  0  0  0  0
 16 10  1  0  0  0  0
 17 15  1  0  0  0  0
 18 16  1  0  0  0  0
 18 17  2  0  0  0  0
 20 17  1  0  0  0  0
 20 19  2  0  0  0  0
 21 11  1  0  0  0  0
 21 12  1  0  0  0  0
 21 19  1  0  0  0  0
 22 13  1  0  0  0  0
 22 43  1  0  0  0  0
 23 14  1  0  0  0  0
 23 44  1  0  0  0  0
 24 18  1  0  0  0  0
 24 19  1  0  0  0  0
M  END
>  <DRUGBANK_ID>
DB08994

>  <COMMON_NAME>
Ditazole

>  <CAS_NUMBER>
18471-20-0

>  <UNII>
H2BQI5Z8FT

>  <SYNONYMS>
2,2'-(4,5-Diphenyloxazol-2-ylazanediyl)diethanol; Ditazole

$$$$
