
 OpenBabel10282417233D

 17 17  0  0  0  0  0  0  0  0999 V2000
    1.3680   -0.2287    0.0246 C   0  0  0  0  0  0  0  0  0  0  0  0
    0.4771   -1.3094    0.0109 C   0  0  0  0  0  0  0  0  0  0  0  0
    0.8621    1.0782   -0.0015 C   0  0  0  0  0  0  0  0  0  0  0  0
    2.8563   -0.4772    0.0909 C   0  0  0  0  0  0  0  0  0  0  0  0
   -0.8982   -1.0874   -0.0151 C   0  0  0  0  0  0  0  0  0  0  0  0
   -0.5147    1.2969    0.0297 C   0  0  0  0  0  0  0  0  0  0  0  0
    3.6188    0.0618   -1.0453 N   0  0  0  0  0  0  0  0  0  0  0  0
   -1.3932    0.2151   -0.0052 C   0  0  0  0  0  0  0  0  0  0  0  0
    3.3356   -0.3736   -2.1018 C   0  0  0  0  0  0  0  0  0  0  0  0
    2.9711   -0.9267   -3.5469 S   0  0  0  0  0  0  0  0  0  0  0  0
    0.8504   -2.3310    0.0160 H   0  0  0  0  0  0  0  0  0  0  0  0
    1.5394    1.9291   -0.0445 H   0  0  0  0  0  0  0  0  0  0  0  0
    3.2267   -0.0005    1.0084 H   0  0  0  0  0  0  0  0  0  0  0  0
    3.0639   -1.5488    0.2196 H   0  0  0  0  0  0  0  0  0  0  0  0
   -1.5822   -1.9316   -0.0290 H   0  0  0  0  0  0  0  0  0  0  0  0
   -0.9029    2.3104    0.0876 H   0  0  0  0  0  0  0  0  0  0  0  0
   -2.4656    0.3880   -0.0296 H   0  0  0  0  0  0  0  0  0  0  0  0
  1  2  1  0  0  0  0
  1  3  2  0  0  0  0
  1  4  1  0  0  0  0
  2  5  2  0  0  0  0
  2 11  1  0  0  0  0
  3  6  1  0  0  0  0
  3 12  1  0  0  0  0
  4  7  1  0  0  0  0
  4 13  1  0  0  0  0
  4 14  1  0  0  0  0
  5  8  1  0  0  0  0
  5 15  1  0  0  0  0
  6  8  2  0  0  0  0
  6 16  1  0  0  0  0
  7  9  2  0  0  0  0
  8 17  1  0  0  0  0
  9 10  2  0  0  0  0
M  END
>  <DRUGBANK_ID>
DB16860

>  <COMMON_NAME>
Benzyl isothiocyanate

>  <CAS_NUMBER>
622-78-6

>  <UNII>
871J6YOR8Q

>  <SYNONYMS>
Benzyl mustard oil

$$$$
