
 OpenBabel10282417183D

 36 37  0  0  0  0  0  0  0  0999 V2000
    0.9177    1.5132    0.0273 C   0  0  0  0  0  0  0  0  0  0  0  0
    2.1124    0.8568   -0.0302 C   0  0  0  0  0  0  0  0  0  0  0  0
   -0.1887   -0.7130   -0.1177 C   0  0  0  0  0  0  0  0  0  0  0  0
   -0.2041    0.7002   -0.1008 C   0  0  0  0  0  0  0  0  0  0  0  0
    2.1536   -0.5447   -0.0909 C   0  0  0  0  0  0  0  0  0  0  0  0
   -1.5424   -1.1293   -0.2967 C   0  0  0  0  0  0  0  0  0  0  0  0
   -2.1825    0.0174   -0.7816 C   0  0  0  0  0  0  0  0  0  0  0  0
   -1.4928    1.0702   -0.2540 N   0  0  0  0  0  0  0  0  0  0  0  0
   -2.9794   -2.7917    1.1823 C   0  0  0  0  0  0  0  0  0  0  0  0
   -4.2471   -2.0268    1.3241 N   0  0  0  0  0  0  0  0  0  0  0  0
   -3.9742   -0.6274    1.5939 C   0  0  0  0  0  0  0  0  0  0  0  0
   -2.1223   -2.5217   -0.1133 C   0  0  0  0  0  0  0  0  0  0  0  0
   -5.0735   -2.4497    2.4498 C   0  0  0  0  0  0  0  0  0  0  0  0
    1.0212   -1.4049   -0.0113 C   0  0  0  0  0  0  0  0  0  0  0  0
    1.0209   -2.8165    0.0485 O   0  0  0  0  0  0  0  0  0  0  0  0
    3.4250   -2.5919    0.8695 O   0  0  0  0  0  0  0  0  0  0  0  0
    2.0678   -4.7124    1.0202 O   0  0  0  0  0  0  0  0  0  0  0  0
    2.5346   -3.6536    0.0220 P   0  0  0  0  0  0  0  0  0  0  0  0
    4.0484   -4.4908   -0.0045 O   0  0  0  0  0  0  0  0  0  0  0  0
    0.8527    2.5982    0.0412 H   0  0  0  0  0  0  0  0  0  0  0  0
    3.0448    1.4216   -0.0563 H   0  0  0  0  0  0  0  0  0  0  0  0
    3.1606   -0.8786   -0.2210 H   0  0  0  0  0  0  0  0  0  0  0  0
   -3.1965    0.1699   -1.1208 H   0  0  0  0  0  0  0  0  0  0  0  0
   -1.8451    2.0302   -0.1308 H   0  0  0  0  0  0  0  0  0  0  0  0
   -3.2367   -3.8625    1.1488 H   0  0  0  0  0  0  0  0  0  0  0  0
   -2.3510   -2.6644    2.0747 H   0  0  0  0  0  0  0  0  0  0  0  0
   -3.4228   -0.4242    2.5155 H   0  0  0  0  0  0  0  0  0  0  0  0
   -3.3383   -0.2940    0.8399 H   0  0  0  0  0  0  0  0  0  0  0  0
   -4.8382    0.0253    1.4554 H   0  0  0  0  0  0  0  0  0  0  0  0
   -2.6984   -2.7898   -1.0047 H   0  0  0  0  0  0  0  0  0  0  0  0
   -1.2980   -3.2445   -0.0742 H   0  0  0  0  0  0  0  0  0  0  0  0
   -4.5632   -2.2845    3.4062 H   0  0  0  0  0  0  0  0  0  0  0  0
   -5.9860   -1.8362    2.4526 H   0  0  0  0  0  0  0  0  0  0  0  0
   -5.3878   -3.4907    2.3741 H   0  0  0  0  0  0  0  0  0  0  0  0
    4.1665   -2.3599    0.2703 H   0  0  0  0  0  0  0  0  0  0  0  0
    3.8440   -5.3075    0.5024 H   0  0  0  0  0  0  0  0  0  0  0  0
  1  2  2  0  0  0  0
  1 20  1  0  0  0  0
  2 21  1  0  0  0  0
  3  6  1  0  0  0  0
  3  4  2  0  0  0  0
  3 14  1  0  0  0  0
  4  1  1  0  0  0  0
  4  8  1  0  0  0  0
  5  2  1  0  0  0  0
  5 22  1  0  0  0  0
  6  7  2  0  0  0  0
  6 12  1  0  0  0  0
  7  8  1  0  0  0  0
  7 23  1  0  0  0  0
  8 24  1  0  0  0  0
  9 10  1  0  0  0  0
  9 25  1  0  0  0  0
  9 26  1  0  0  0  0
 10 13  1  0  0  0  0
 10 11  1  0  0  0  0
 11 27  1  0  0  0  0
 11 28  1  0  0  0  0
 11 29  1  0  0  0  0
 12  9  1  0  0  0  0
 12 30  1  0  0  0  0
 12 31  1  0  0  0  0
 13 32  1  0  0  0  0
 13 33  1  0  0  0  0
 13 34  1  0  0  0  0
 14  5  2  0  0  0  0
 14 15  1  0  0  0  0
 15 18  1  0  0  0  0
 16 35  1  0  0  0  0
 18 16  1  0  0  0  0
 18 17  2  0  0  0  0
 18 19  1  0  0  0  0
 19 36  1  0  0  0  0
M  END
>  <DRUGBANK_ID>
DB11664

>  <COMMON_NAME>
Psilocybin

>  <CAS_NUMBER>
520-52-5

>  <UNII>
2RV7212BP0

>  <SYNONYMS>
Psilocibina; Psilocybin; Psilocybine; Psilocybinum

$$$$
