
 OpenBabel10282417163D

 52 57  0  0  0  0  0  0  0  0999 V2000
    0.7008    0.1151   -4.7470 O   0  0  0  0  0  0  0  0  0  0  0  0
    4.5906    0.7746   -7.5166 O   0  0  0  0  0  0  0  0  0  0  0  0
    2.5984   -0.6481   -8.8641 O   0  0  0  0  0  0  0  0  0  0  0  0
    7.2618    1.6865   -7.7023 O   0  0  0  0  0  0  0  0  0  0  0  0
    1.4878    1.6463   -2.2475 N   0  3  2  0  0  0  0  0  0  0  0  0
    3.4526    1.0613   -4.9153 C   0  0  2  0  0  0  0  0  0  0  0  0
    1.6536    1.1926   -5.2413 C   0  0  1  0  0  0  0  0  0  0  0  0
    1.9593    1.9367   -3.8085 C   0  0  1  0  0  0  0  0  0  0  0  0
    3.9510    1.4557   -3.0048 C   0  0  0  0  0  0  0  0  0  0  0  0
    2.6834    2.3790   -1.8821 C   0  0  0  0  0  0  0  0  0  0  0  0
    3.5204    0.3154   -6.7029 C   0  0  2  0  0  0  0  0  0  0  0  0
    4.2286    2.0901   -5.6974 C   0  0  0  0  0  0  0  0  0  0  0  0
    0.9163    0.4409   -2.7709 C   0  0  0  0  0  0  0  0  0  0  0  0
    3.1105    3.3196   -4.0747 C   0  0  0  0  0  0  0  0  0  0  0  0
    0.7129    0.2880   -6.4215 C   0  0  0  0  0  0  0  0  0  0  0  0
    1.8488   -0.9760   -3.1313 C   0  0  0  0  0  0  0  0  0  0  0  0
    4.3953    3.1182   -4.8832 C   0  0  0  0  0  0  0  0  0  0  0  0
    0.3327    1.9157   -1.3330 C   0  0  0  0  0  0  0  0  0  0  0  0
    0.9478    0.5457   -7.8250 C   0  0  0  0  0  0  0  0  0  0  0  0
    2.3590    0.0954   -7.8963 C   0  0  0  0  0  0  0  0  0  0  0  0
    5.1116    1.6817   -6.6941 C   0  0  0  0  0  0  0  0  0  0  0  0
    3.4247   -1.3636   -3.1770 C   0  0  0  0  0  0  0  0  0  0  0  0
    2.6571   -1.3594   -4.4248 C   0  0  0  0  0  0  0  0  0  0  0  0
    5.7670    3.2745   -4.6817 C   0  0  0  0  0  0  0  0  0  0  0  0
    6.3998    2.0907   -6.7393 C   0  0  0  0  0  0  0  0  0  0  0  0
    6.7611    2.8115   -5.6268 C   0  0  0  0  0  0  0  0  0  0  0  0
   -0.2416    0.4507   -4.7413 H   0  0  0  0  0  0  0  0  0  0  0  0
    8.1307    2.0973   -7.5590 H   0  0  0  0  0  0  0  0  0  0  0  0
    2.4754    0.9723   -3.5592 H   0  0  0  0  0  0  0  0  0  0  0  0
    4.8392    1.6557   -2.2016 H   0  0  0  0  0  0  0  0  0  0  0  0
    3.7589    0.6031   -2.2961 H   0  0  0  0  0  0  0  0  0  0  0  0
    2.8287    2.5761   -0.7977 H   0  0  0  0  0  0  0  0  0  0  0  0
    2.2739    3.4176   -2.1217 H   0  0  0  0  0  0  0  0  0  0  0  0
    3.7648   -0.7306   -6.6375 H   0  0  0  0  0  0  0  0  0  0  0  0
   -0.1367    0.1512   -2.6508 H   0  0  0  0  0  0  0  0  0  0  0  0
    0.3136    1.2527   -3.4782 H   0  0  0  0  0  0  0  0  0  0  0  0
    3.5057    3.8873   -3.2233 H   0  0  0  0  0  0  0  0  0  0  0  0
    2.3132    3.8761   -4.5378 H   0  0  0  0  0  0  0  0  0  0  0  0
    0.3930   -0.8377   -6.3354 H   0  0  0  0  0  0  0  0  0  0  0  0
   -0.3112    0.6927   -6.3768 H   0  0  0  0  0  0  0  0  0  0  0  0
    1.1219   -1.7532   -2.9677 H   0  0  0  0  0  0  0  0  0  0  0  0
   -0.3767    2.4965   -1.9068 H   0  0  0  0  0  0  0  0  0  0  0  0
   -0.0975    0.9314   -1.0229 H   0  0  0  0  0  0  0  0  0  0  0  0
    0.6387    2.3277   -0.3790 H   0  0  0  0  0  0  0  0  0  0  0  0
    0.2982   -0.0893   -8.4843 H   0  0  0  0  0  0  0  0  0  0  0  0
    0.5613    1.5531   -7.9409 H   0  0  0  0  0  0  0  0  0  0  0  0
    4.3052   -0.6961   -3.2235 H   0  0  0  0  0  0  0  0  0  0  0  0
    3.8927   -2.3140   -2.9663 H   0  0  0  0  0  0  0  0  0  0  0  0
    2.4408   -2.0149   -5.2719 H   0  0  0  0  0  0  0  0  0  0  0  0
    3.3405   -0.8605   -5.0437 H   0  0  0  0  0  0  0  0  0  0  0  0
    6.1353    3.6331   -3.7291 H   0  0  0  0  0  0  0  0  0  0  0  0
    7.8119    3.0073   -5.4599 H   0  0  0  0  0  0  0  0  0  0  0  0
  1 27  1  0  0  0  0
  2 21  1  0  0  0  0
  3 20  2  0  0  0  0
  4 28  1  0  0  0  0
  4 25  1  0  0  0  0
  5  8  1  0  0  0  0
  5 10  1  0  0  0  0
  5 18  1  1  0  0  0
  5 13  1  0  0  0  0
  6  7  1  0  0  0  0
  6  9  1  0  0  0  0
  6 11  1  0  0  0  0
  6 12  1  1  0  0  0
  7  8  1  0  0  0  0
  7 15  1  0  0  0  0
  7  1  1  6  0  0  0
  8 14  1  0  0  0  0
  8 29  1  1  0  0  0
  9 10  1  0  0  0  0
  9 30  1  0  0  0  0
  9 31  1  0  0  0  0
 10 32  1  0  0  0  0
 10 33  1  0  0  0  0
 11  2  1  0  0  0  0
 11 20  1  0  0  0  0
 11 34  1  6  0  0  0
 12 17  2  0  0  0  0
 12 21  1  0  0  0  0
 13 16  1  0  0  0  0
 13 35  1  0  0  0  0
 13 36  1  0  0  0  0
 14 17  1  0  0  0  0
 14 37  1  0  0  0  0
 14 38  1  0  0  0  0
 15 19  1  0  0  0  0
 15 39  1  0  0  0  0
 15 40  1  0  0  0  0
 16 22  1  0  0  0  0
 16 23  1  0  0  0  0
 16 41  1  0  0  0  0
 17 24  1  0  0  0  0
 18 42  1  0  0  0  0
 18 43  1  0  0  0  0
 18 44  1  0  0  0  0
 19 20  1  0  0  0  0
 19 45  1  0  0  0  0
 19 46  1  0  0  0  0
 21 25  2  0  0  0  0
 22 23  1  0  0  0  0
 22 47  1  0  0  0  0
 22 48  1  0  0  0  0
 23 49  1  0  0  0  0
 23 50  1  0  0  0  0
 24 26  2  0  0  0  0
 24 51  1  0  0  0  0
 25 26  1  0  0  0  0
 26 52  1  0  0  0  0
M  CHG  1   5   1
M  END
>  <DRUGBANK_ID>
DB06800

>  <COMMON_NAME>
Methylnaltrexone

>  <CAS_NUMBER>
916055-93-1

>  <UNII>
0RK7M7IABE

>  <SYNONYMS>
MNTX

$$$$
