
 OpenBabel10282417203D

 60 62  0  0  0  0  0  0  0  0999 V2000
    0.7942   -0.0365    0.3706 C   0  0  0  0  0  0  0  0  0  0  0  0
    4.5771    3.1135   -0.0847 C   0  0  0  0  0  0  0  0  0  0  0  0
    5.4663   -1.7831   -1.4205 C   0  0  0  0  0  0  0  0  0  0  0  0
    7.6540    0.8439   -4.0807 C   0  0  0  0  0  0  0  0  0  0  0  0
    4.6902   -2.8534   -1.8567 C   0  0  0  0  0  0  0  0  0  0  0  0
    4.8144   -0.6831   -0.9269 C   0  0  0  0  0  0  0  0  0  0  0  0
    6.5919   -0.0476   -3.9397 C   0  0  0  0  0  0  0  0  0  0  0  0
    7.4726    2.1974   -3.7880 C   0  0  0  0  0  0  0  0  0  0  0  0
    3.2622   -2.8153   -1.8414 C   0  0  0  0  0  0  0  0  0  0  0  0
    3.4120   -0.6478   -0.9756 C   0  0  0  0  0  0  0  0  0  0  0  0
    5.4017    0.4702   -3.5329 C   0  0  0  0  0  0  0  0  0  0  0  0
    6.3979    2.6334   -3.1022 C   0  0  0  0  0  0  0  0  0  0  0  0
    0.4628    2.6332   -4.4059 C   0  0  0  0  0  0  0  0  0  0  0  0
    2.1644    1.0297   -4.5134 C   0  0  0  0  0  0  0  0  0  0  0  0
    0.0624    2.2459   -2.9451 C   0  0  0  0  0  0  0  0  0  0  0  0
    1.8380    0.8069   -3.0528 C   0  0  0  0  0  0  0  0  0  0  0  0
    2.9111    3.3329   -4.4038 C   0  0  0  0  0  0  0  0  0  0  0  0
    0.0787   -0.4385   -2.6582 C   0  0  0  0  0  0  0  0  0  0  0  0
    2.5630   -1.6634   -1.4651 C   0  0  0  0  0  0  0  0  0  0  0  0
    5.3146    1.7901   -2.9843 C   0  0  0  0  0  0  0  0  0  0  0  0
    3.2778    3.5219   -2.9071 C   0  0  3  0  0  0  0  0  0  0  0  0
    0.9718   -1.4558   -1.5975 C   0  0  3  0  0  0  0  0  0  0  0  0
    4.1133    2.3531   -2.3115 C   0  0  3  0  0  0  0  0  0  0  0  0
    1.8569    2.3920   -4.8634 N   0  0  0  0  0  0  0  0  0  0  0  0
    0.5271    0.9197   -2.5358 N   0  0  0  0  0  0  0  0  0  0  0  0
    3.9097    4.7915   -2.6941 O   0  0  0  0  0  0  0  0  0  0  0  0
    0.4380   -1.2631   -0.2682 O   0  0  0  0  0  0  0  0  0  0  0  0
    3.9001    2.2185   -0.9078 O   0  0  0  0  0  0  0  0  0  0  0  0
    0.2981    0.0152    1.3351 H   0  0  0  0  0  0  0  0  0  0  0  0
    0.5251    0.8589   -0.1922 H   0  0  0  0  0  0  0  0  0  0  0  0
    1.8459   -0.0027    0.6421 H   0  0  0  0  0  0  0  0  0  0  0  0
    5.6410    2.9561   -0.2364 H   0  0  0  0  0  0  0  0  0  0  0  0
    4.2629    4.1326   -0.2969 H   0  0  0  0  0  0  0  0  0  0  0  0
    4.3209    2.8746    0.9518 H   0  0  0  0  0  0  0  0  0  0  0  0
    6.5454   -1.7379   -1.5622 H   0  0  0  0  0  0  0  0  0  0  0  0
    8.6146    0.4779   -4.3751 H   0  0  0  0  0  0  0  0  0  0  0  0
    5.2153   -3.7160   -2.2558 H   0  0  0  0  0  0  0  0  0  0  0  0
    5.3750    0.2278   -0.7065 H   0  0  0  0  0  0  0  0  0  0  0  0
    6.7172   -1.1169   -4.0992 H   0  0  0  0  0  0  0  0  0  0  0  0
    8.2314    2.9378   -4.0352 H   0  0  0  0  0  0  0  0  0  0  0  0
    2.7274   -3.7056   -2.1498 H   0  0  0  0  0  0  0  0  0  0  0  0
    2.9786    0.3120   -0.7532 H   0  0  0  0  0  0  0  0  0  0  0  0
    4.5543   -0.2386   -3.5146 H   0  0  0  0  0  0  0  0  0  0  0  0
    6.3494    3.6019   -2.6352 H   0  0  0  0  0  0  0  0  0  0  0  0
    0.1977    3.6633   -4.6408 H   0  0  0  0  0  0  0  0  0  0  0  0
   -0.1665    1.9782   -5.0198 H   0  0  0  0  0  0  0  0  0  0  0  0
    1.6102    0.2956   -5.1105 H   0  0  0  0  0  0  0  0  0  0  0  0
    3.2036    0.7870   -4.7436 H   0  0  0  0  0  0  0  0  0  0  0  0
    0.5791    2.9711   -2.2887 H   0  0  0  0  0  0  0  0  0  0  0  0
   -0.9776    2.4642   -2.6990 H   0  0  0  0  0  0  0  0  0  0  0  0
    2.1479    1.4940   -2.2935 H   0  0  0  0  0  0  0  0  0  0  0  0
    2.3353   -0.1235   -2.9125 H   0  0  0  0  0  0  0  0  0  0  0  0
    3.8465    3.0521   -4.9128 H   0  0  0  0  0  0  0  0  0  0  0  0
    2.6775    4.3128   -4.8260 H   0  0  0  0  0  0  0  0  0  0  0  0
    0.2199   -0.7801   -3.6949 H   0  0  0  0  0  0  0  0  0  0  0  0
   -0.9868   -0.4900   -2.4307 H   0  0  0  0  0  0  0  0  0  0  0  0
    2.3673    3.6453   -2.3240 H   0  0  0  0  0  0  0  0  0  0  0  0
    0.6251   -2.4352   -1.9507 H   0  0  0  0  0  0  0  0  0  0  0  0
    3.6612    1.4616   -2.6119 H   0  0  0  0  0  0  0  0  0  0  0  0
    4.8543    4.6826   -2.8545 H   0  0  0  0  0  0  0  0  0  0  0  0
  1 29  1  0  0  0  0
  1 30  1  0  0  0  0
  1 31  1  0  0  0  0
  2 32  1  0  0  0  0
  2 33  1  0  0  0  0
  2 34  1  0  0  0  0
  3 35  1  0  0  0  0
  4 36  1  0  0  0  0
  5  3  2  0  0  0  0
  5 37  1  0  0  0  0
  6  3  1  0  0  0  0
  6 38  1  0  0  0  0
  7  4  2  0  0  0  0
  7 39  1  0  0  0  0
  8  4  1  0  0  0  0
  8 40  1  0  0  0  0
  9  5  1  0  0  0  0
  9 41  1  0  0  0  0
 10  6  2  0  0  0  0
 10 42  1  0  0  0  0
 11  7  1  0  0  0  0
 11 43  1  0  0  0  0
 12  8  2  0  0  0  0
 12 44  1  0  0  0  0
 13 45  1  0  0  0  0
 13 46  1  0  0  0  0
 14 47  1  0  0  0  0
 14 48  1  0  0  0  0
 15 13  1  0  0  0  0
 15 49  1  0  0  0  0
 15 50  1  0  0  0  0
 16 14  1  0  0  0  0
 16 51  1  0  0  0  0
 16 52  1  0  0  0  0
 17 53  1  0  0  0  0
 17 54  1  0  0  0  0
 18 55  1  0  0  0  0
 18 56  1  0  0  0  0
 19  9  2  0  0  0  0
 19 10  1  0  0  0  0
 20 11  2  0  0  0  0
 20 12  1  0  0  0  0
 21 17  1  0  0  0  0
 21 57  1  0  0  0  0
 22 18  1  0  0  0  0
 22 19  1  0  0  0  0
 22 58  1  0  0  0  0
 23 20  1  0  0  0  0
 23 21  1  0  0  0  0
 23 59  1  0  0  0  0
 24 13  1  0  0  0  0
 24 14  1  0  0  0  0
 24 17  1  0  0  0  0
 25 15  1  0  0  0  0
 25 16  1  0  0  0  0
 25 18  1  0  0  0  0
 26 21  1  0  0  0  0
 26 60  1  0  0  0  0
 27  1  1  0  0  0  0
 27 22  1  0  0  0  0
 28  2  1  0  0  0  0
 28 23  1  0  0  0  0
M  END
>  <DRUGBANK_ID>
DB13564

>  <COMMON_NAME>
Zipeprol

>  <CAS_NUMBER>
34758-83-3

>  <UNII>
G5MUV8139H

>  <SYNONYMS>
Zipeprol

$$$$
