
 OpenBabel10282417163D

 54 57  0  0  1  0  0  0  0  0999 V2000
    3.1240   -0.7581    2.9403 C   0  0  0  0  0  0  0  0  0  0  0  0
    0.3720    1.9939   10.8235 C   0  0  0  0  0  0  0  0  0  0  0  0
    2.5120    0.5696    2.5684 C   0  0  0  0  0  0  0  0  0  0  0  0
    1.0095    0.5363    2.4442 C   0  0  0  0  0  0  0  0  0  0  0  0
    0.1467    1.3190    3.1282 C   0  0  0  0  0  0  0  0  0  0  0  0
    1.7573    5.4208    6.9001 C   0  0  0  0  0  0  0  0  0  0  0  0
    0.9071    5.5885    8.1514 C   0  0  0  0  0  0  0  0  0  0  0  0
    0.3681    5.0005   11.2106 C   0  0  0  0  0  0  0  0  0  0  0  0
   -0.4841    4.5302   12.4060 C   0  0  0  0  0  0  0  0  0  0  0  0
   -1.0942    2.2385    8.1442 C   0  0  0  0  0  0  0  0  0  0  0  0
   -1.7503    2.3889    9.5252 C   0  0  0  0  0  0  0  0  0  0  0  0
   -0.0853    2.4405    5.3306 C   0  0  0  0  0  0  0  0  0  0  0  0
    1.9386    4.2524    4.7329 C   0  0  0  0  0  0  0  0  0  0  0  0
    1.2965    4.3306    5.9695 C   0  0  0  0  0  0  0  0  0  0  0  0
    0.5482    2.3729    4.0780 C   0  0  0  0  0  0  0  0  0  0  0  0
   -0.4564    3.5481    7.6214 C   0  0  1  0  0  0  0  0  0  0  0  0
    0.4609    4.2263    8.6895 C   0  0  2  0  0  0  0  0  0  0  0  0
    0.2765    3.4125    6.2907 C   0  0  0  0  0  0  0  0  0  0  0  0
   -0.3113    4.3591   10.0022 C   0  0  1  0  0  0  0  0  0  0  0  0
    1.5276    3.3325    3.7866 C   0  0  0  0  0  0  0  0  0  0  0  0
   -1.4397    3.4525   11.8578 C   0  0  1  0  0  0  0  0  0  0  0  0
   -0.7787    2.9935   10.5438 C   0  0  2  0  0  0  0  0  0  0  0  0
    2.1498    3.4496    2.5716 O   0  0  0  0  0  0  0  0  0  0  0  0
   -1.6705    2.4098   12.7859 O   0  0  0  0  0  0  0  0  0  0  0  0
    0.5998   -0.1700    1.7242 H   0  0  0  0  0  0  0  0  0  0  0  0
   -0.9245    1.1850    2.9925 H   0  0  0  0  0  0  0  0  0  0  0  0
   -1.2927    4.2360    7.4206 H   0  0  0  0  0  0  0  0  0  0  0  0
    1.3598    3.6159    8.8497 H   0  0  0  0  0  0  0  0  0  0  0  0
   -1.1977    4.9792    9.7878 H   0  0  0  0  0  0  0  0  0  0  0  0
   -2.4133    3.9139   11.6509 H   0  0  0  0  0  0  0  0  0  0  0  0
    2.7001   -1.1239    3.8802 H   0  0  0  0  0  0  0  0  0  0  0  0
    4.2006   -0.6182    3.0872 H   0  0  0  0  0  0  0  0  0  0  0  0
    2.9705   -1.5008    2.1557 H   0  0  0  0  0  0  0  0  0  0  0  0
    1.1284    2.4079   11.4970 H   0  0  0  0  0  0  0  0  0  0  0  0
   -0.0126    1.0790   11.2873 H   0  0  0  0  0  0  0  0  0  0  0  0
    0.8977    1.6857    9.9163 H   0  0  0  0  0  0  0  0  0  0  0  0
    2.8385    1.2503    3.3563 H   0  0  0  0  0  0  0  0  0  0  0  0
    2.9405    0.9349    1.6275 H   0  0  0  0  0  0  0  0  0  0  0  0
    2.7920    5.2035    7.1925 H   0  0  0  0  0  0  0  0  0  0  0  0
    1.7632    6.3729    6.3538 H   0  0  0  0  0  0  0  0  0  0  0  0
    1.4852    6.1466    8.8960 H   0  0  0  0  0  0  0  0  0  0  0  0
    0.0263    6.1997    7.9142 H   0  0  0  0  0  0  0  0  0  0  0  0
    1.4034    4.6585   11.3206 H   0  0  0  0  0  0  0  0  0  0  0  0
    0.3900    6.0928   11.1428 H   0  0  0  0  0  0  0  0  0  0  0  0
    0.1486    4.1552   13.2176 H   0  0  0  0  0  0  0  0  0  0  0  0
   -1.0658    5.3652   12.8128 H   0  0  0  0  0  0  0  0  0  0  0  0
   -1.8728    1.8979    7.4521 H   0  0  0  0  0  0  0  0  0  0  0  0
   -0.3411    1.4424    8.1688 H   0  0  0  0  0  0  0  0  0  0  0  0
   -2.6314    3.0360    9.4177 H   0  0  0  0  0  0  0  0  0  0  0  0
   -2.1199    1.4161    9.8682 H   0  0  0  0  0  0  0  0  0  0  0  0
   -0.8717    1.7217    5.5501 H   0  0  0  0  0  0  0  0  0  0  0  0
    2.7536    4.9275    4.4863 H   0  0  0  0  0  0  0  0  0  0  0  0
    1.7278    2.8204    1.9650 H   0  0  0  0  0  0  0  0  0  0  0  0
   -0.8149    2.0490   13.0717 H   0  0  0  0  0  0  0  0  0  0  0  0
  1 31  1  0  0  0  0
  1 32  1  0  0  0  0
  1 33  1  0  0  0  0
  2 34  1  0  0  0  0
  2 35  1  0  0  0  0
  2 36  1  0  0  0  0
  3  1  1  0  0  0  0
  3 37  1  0  0  0  0
  3 38  1  0  0  0  0
  4  3  1  0  0  0  0
  5  4  2  0  0  0  0
  6 39  1  0  0  0  0
  6 40  1  0  0  0  0
  7  6  1  0  0  0  0
  7 41  1  0  0  0  0
  7 42  1  0  0  0  0
  8 43  1  0  0  0  0
  8 44  1  0  0  0  0
  9  8  1  0  0  0  0
  9 45  1  0  0  0  0
  9 46  1  0  0  0  0
 10 47  1  0  0  0  0
 10 48  1  0  0  0  0
 11 10  1  0  0  0  0
 11 49  1  0  0  0  0
 11 50  1  0  0  0  0
 12 51  1  0  0  0  0
 13 52  1  0  0  0  0
 14  6  1  0  0  0  0
 14 13  2  0  0  0  0
 15  5  1  0  0  0  0
 15 12  1  0  0  0  0
 16 10  1  0  0  0  0
 16 27  1  6  0  0  0
 17  7  1  0  0  0  0
 17 16  1  0  0  0  0
 17 28  1  1  0  0  0
 18 12  2  0  0  0  0
 18 14  1  0  0  0  0
 18 16  1  0  0  0  0
 19  8  1  0  0  0  0
 19 17  1  0  0  0  0
 19 29  1  6  0  0  0
 20 13  1  0  0  0  0
 20 15  2  0  0  0  0
 21  9  1  0  0  0  0
 21 24  1  0  0  0  0
 21 30  1  6  0  0  0
 22  2  1  1  0  0  0
 22 11  1  0  0  0  0
 22 19  1  0  0  0  0
 22 21  1  0  0  0  0
 23 20  1  0  0  0  0
 23 53  1  0  0  0  0
 24 54  1  0  0  0  0
 25  4  1  0  0  0  0
 26  5  1  0  0  0  0
M  END
>  <DRUGBANK_ID>
DB07678

>  <COMMON_NAME>
(9ALPHA,13BETA,17BETA)-2-[(1Z)-BUT-1-EN-1-YL]ESTRA-1,3,5(10)-TRIENE-3,17-DIOL

$$$$
