
 OpenBabel10282417213D

 90 94  0  0  0  0  0  0  0  0999 V2000
    0.7769   -0.0198   -0.0651 C   0  0  0  0  0  0  0  0  0  0  0  0
    0.4333   -1.1045    0.9450 C   0  0  0  0  0  0  0  0  0  0  0  0
    0.8481   -0.8435    2.2970 O   0  0  0  0  0  0  0  0  0  0  0  0
    2.1942   -0.8443    2.5148 C   0  0  0  0  0  0  0  0  0  0  0  0
    3.0634   -0.0432    1.7597 C   0  0  0  0  0  0  0  0  0  0  0  0
    4.4178   -0.1294    1.8892 C   0  0  0  0  0  0  0  0  0  0  0  0
    4.8743   -0.9294    2.8981 C   0  0  0  0  0  0  0  0  0  0  0  0
    6.2208   -1.2729    3.0808 N   0  0  0  0  0  0  0  0  0  0  0  0
    6.2386   -1.5832    4.4387 C   0  0  0  0  0  0  0  0  0  0  0  0
    7.1695   -1.2166    5.0304 O   0  0  0  0  0  0  0  0  0  0  0  0
    4.7900   -2.2451    4.9740 C   0  0  2  0  0  0  0  0  0  0  0  0
    4.3667   -1.7446    6.4662 C   0  0  0  0  0  0  0  0  0  0  0  0
    4.8403   -2.5621    7.7395 C   0  0  0  0  0  0  0  0  0  0  0  0
    4.9858   -4.1725    7.5544 C   0  0  1  0  0  0  0  0  0  0  0  0
    5.1996   -4.6751    6.0656 C   0  0  0  0  0  0  0  0  0  0  0  0
    4.6355   -3.8391    4.8891 C   0  0  0  0  0  0  0  0  0  0  0  0
    5.8898   -4.9001    8.5551 O   0  0  0  0  0  0  0  0  0  0  0  0
    7.3777   -4.7365    8.6827 C   0  0  0  0  0  0  0  0  0  0  0  0
    8.2485   -5.0311    7.3812 C   0  0  0  0  0  0  0  0  0  0  0  0
    7.8938   -4.1413    6.3143 N   0  0  0  0  0  0  0  0  0  0  0  0
    8.7142   -3.6837    5.2762 C   0  0  0  0  0  0  0  0  0  0  0  0
    9.4693   -2.5304    6.0128 C   0  0  0  0  0  0  0  0  0  0  0  0
    8.9618   -1.3779    6.6805 O   0  0  0  0  0  0  0  0  0  0  0  0
    7.9593   -1.7912    7.5038 C   0  0  0  0  0  0  0  0  0  0  0  0
    7.3033   -2.9446    6.8143 C   0  0  0  0  0  0  0  0  0  0  0  0
    4.0189   -1.5844    3.8297 C   0  0  0  0  0  0  0  0  0  0  0  0
    2.6652   -1.5781    3.6065 C   0  0  0  0  0  0  0  0  0  0  0  0
    7.4651   -0.4475    2.3007 S   0  0  0  0  0  0  0  0  0  0  0  0
    7.6981   -1.1000    1.0280 O   0  0  0  0  0  0  0  0  0  0  0  0
    7.0247    0.9310    2.2453 O   0  0  0  0  0  0  0  0  0  0  0  0
    9.0449   -0.6514    3.1665 C   0  0  0  0  0  0  0  0  0  0  0  0
    9.7611   -1.9358    3.1073 C   0  0  0  0  0  0  0  0  0  0  0  0
   11.0253   -2.2627    3.8618 C   0  0  0  0  0  0  0  0  0  0  0  0
   11.6413   -1.2566    4.5795 C   0  0  0  0  0  0  0  0  0  0  0  0
   10.9821   -0.0510    4.2468 C   0  0  0  0  0  0  0  0  0  0  0  0
    9.7170    0.3490    3.7915 C   0  0  0  0  0  0  0  0  0  0  0  0
    9.6237    1.6949    4.0215 O   0  0  0  0  0  0  0  0  0  0  0  0
    8.5534    2.3725    3.4362 C   0  0  0  0  0  0  0  0  0  0  0  0
   12.5498   -1.5082    5.9148 C   0  0  0  0  0  0  0  0  0  0  0  0
   12.6669   -2.6698    6.3332 O   0  0  0  0  0  0  0  0  0  0  0  0
   13.2331   -0.5276    6.6962 N   0  0  0  0  0  0  0  0  0  0  0  0
   13.2865    0.9561    6.6134 C   0  0  0  0  0  0  0  0  0  0  0  0
   12.8533    1.7143    7.8496 C   0  0  0  0  0  0  0  0  0  0  0  0
   14.5342    1.4650    5.8832 C   0  0  0  0  0  0  0  0  0  0  0  0
   12.2117    1.3676    5.7263 C   0  0  0  0  0  0  0  0  0  0  0  0
    0.5642    0.9731    0.3482 H   0  0  0  0  0  0  0  0  0  0  0  0
    0.2622   -0.1541   -1.0144 H   0  0  0  0  0  0  0  0  0  0  0  0
    1.8290   -0.0744   -0.3515 H   0  0  0  0  0  0  0  0  0  0  0  0
   -0.6584   -1.1633    0.9945 H   0  0  0  0  0  0  0  0  0  0  0  0
    0.7930   -2.0846    0.6090 H   0  0  0  0  0  0  0  0  0  0  0  0
    2.7464    0.6951    1.0435 H   0  0  0  0  0  0  0  0  0  0  0  0
    5.0529    0.4540    1.2301 H   0  0  0  0  0  0  0  0  0  0  0  0
    3.2805   -1.7079    6.5559 H   0  0  0  0  0  0  0  0  0  0  0  0
    4.7209   -0.7040    6.5929 H   0  0  0  0  0  0  0  0  0  0  0  0
    4.4776   -2.2945    8.7471 H   0  0  0  0  0  0  0  0  0  0  0  0
    5.7533   -2.0427    7.9942 H   0  0  0  0  0  0  0  0  0  0  0  0
    3.9876   -4.5280    7.8284 H   0  0  0  0  0  0  0  0  0  0  0  0
    6.1798   -4.6405    5.6600 H   0  0  0  0  0  0  0  0  0  0  0  0
    5.2512   -5.7781    6.0627 H   0  0  0  0  0  0  0  0  0  0  0  0
    3.5998   -4.1583    4.7631 H   0  0  0  0  0  0  0  0  0  0  0  0
    5.1675   -4.1739    3.9768 H   0  0  0  0  0  0  0  0  0  0  0  0
    7.5572   -3.7250    9.0837 H   0  0  0  0  0  0  0  0  0  0  0  0
    7.7898   -5.3252    9.5033 H   0  0  0  0  0  0  0  0  0  0  0  0
    9.3222   -4.9303    7.5520 H   0  0  0  0  0  0  0  0  0  0  0  0
    8.0216   -6.0498    7.0568 H   0  0  0  0  0  0  0  0  0  0  0  0
    9.3129   -4.4552    4.7785 H   0  0  0  0  0  0  0  0  0  0  0  0
    8.0275   -3.3834    4.4521 H   0  0  0  0  0  0  0  0  0  0  0  0
   10.2318   -2.9450    6.6466 H   0  0  0  0  0  0  0  0  0  0  0  0
    9.6716   -1.8971    5.2377 H   0  0  0  0  0  0  0  0  0  0  0  0
    8.4179   -2.1148    8.4228 H   0  0  0  0  0  0  0  0  0  0  0  0
    7.2763   -0.9560    7.7066 H   0  0  0  0  0  0  0  0  0  0  0  0
    6.5472   -2.6844    6.1347 H   0  0  0  0  0  0  0  0  0  0  0  0
    6.7339   -3.3072    7.5620 H   0  0  0  0  0  0  0  0  0  0  0  0
    2.0025   -2.1381    4.2541 H   0  0  0  0  0  0  0  0  0  0  0  0
    9.2033   -2.7818    2.7155 H   0  0  0  0  0  0  0  0  0  0  0  0
   11.2017   -3.2895    4.2228 H   0  0  0  0  0  0  0  0  0  0  0  0
   11.6093    0.6782    3.7244 H   0  0  0  0  0  0  0  0  0  0  0  0
    8.6538    2.2051    2.3615 H   0  0  0  0  0  0  0  0  0  0  0  0
    7.6580    2.0306    3.9622 H   0  0  0  0  0  0  0  0  0  0  0  0
    8.5638    3.4586    3.5438 H   0  0  0  0  0  0  0  0  0  0  0  0
   13.8594   -0.9344    7.3904 H   0  0  0  0  0  0  0  0  0  0  0  0
   13.6069    1.7028    8.6235 H   0  0  0  0  0  0  0  0  0  0  0  0
   12.6356    2.7586    7.5650 H   0  0  0  0  0  0  0  0  0  0  0  0
   11.9055    1.3075    8.2355 H   0  0  0  0  0  0  0  0  0  0  0  0
   14.7327    0.8718    4.9732 H   0  0  0  0  0  0  0  0  0  0  0  0
   14.3561    2.4920    5.5282 H   0  0  0  0  0  0  0  0  0  0  0  0
   15.4151    1.4389    6.5112 H   0  0  0  0  0  0  0  0  0  0  0  0
   12.6877    0.8967    4.8742 H   0  0  0  0  0  0  0  0  0  0  0  0
   11.2740    0.9627    6.1444 H   0  0  0  0  0  0  0  0  0  0  0  0
   12.0388    2.3848    5.3962 H   0  0  0  0  0  0  0  0  0  0  0  0
  1  2  1  0  0  0  0
  1 46  1  0  0  0  0
  1 47  1  0  0  0  0
  1 48  1  0  0  0  0
  2  3  1  0  0  0  0
  2 49  1  0  0  0  0
  2 50  1  0  0  0  0
  3  4  1  0  0  0  0
  4  5  2  0  0  0  0
  4 27  1  0  0  0  0
  5  6  1  0  0  0  0
  5 51  1  0  0  0  0
  6  7  2  0  0  0  0
  6 52  1  0  0  0  0
  7  8  1  0  0  0  0
  7 26  1  0  0  0  0
  8  9  1  0  0  0  0
  8 28  1  0  0  0  0
  9 10  2  0  0  0  0
 11  9  1  6  0  0  0
 11 12  1  0  0  0  0
 11 16  1  0  0  0  0
 11 26  1  0  0  0  0
 12 13  1  0  0  0  0
 12 53  1  0  0  0  0
 12 54  1  0  0  0  0
 13 55  1  0  0  0  0
 13 56  1  0  0  0  0
 14 13  1  0  0  0  0
 14 15  1  0  0  0  0
 14 17  1  0  0  0  0
 14 57  1  1  0  0  0
 15 16  1  0  0  0  0
 15 58  1  0  0  0  0
 15 59  1  0  0  0  0
 16 60  1  0  0  0  0
 16 61  1  0  0  0  0
 17 18  1  0  0  0  0
 18 19  1  0  0  0  0
 18 62  1  0  0  0  0
 18 63  1  0  0  0  0
 19 20  1  0  0  0  0
 19 64  1  0  0  0  0
 19 65  1  0  0  0  0
 20 21  1  0  0  0  0
 20 25  1  0  0  0  0
 21 22  1  0  0  0  0
 21 66  1  0  0  0  0
 21 67  1  0  0  0  0
 22 23  1  0  0  0  0
 22 68  1  0  0  0  0
 22 69  1  0  0  0  0
 23 24  1  0  0  0  0
 24 25  1  0  0  0  0
 24 70  1  0  0  0  0
 24 71  1  0  0  0  0
 25 72  1  0  0  0  0
 25 73  1  0  0  0  0
 26 27  2  0  0  0  0
 27 74  1  0  0  0  0
 28 29  2  0  0  0  0
 28 30  2  0  0  0  0
 28 31  1  0  0  0  0
 31 32  2  0  0  0  0
 31 36  1  0  0  0  0
 32 33  1  0  0  0  0
 32 75  1  0  0  0  0
 33 34  2  0  0  0  0
 33 76  1  0  0  0  0
 34 35  1  0  0  0  0
 34 39  1  0  0  0  0
 35 36  2  0  0  0  0
 35 77  1  0  0  0  0
 36 37  1  0  0  0  0
 37 38  1  0  0  0  0
 38 78  1  0  0  0  0
 38 79  1  0  0  0  0
 38 80  1  0  0  0  0
 39 40  2  0  0  0  0
 39 41  1  0  0  0  0
 41 42  1  0  0  0  0
 41 81  1  0  0  0  0
 42 43  1  0  0  0  0
 42 44  1  0  0  0  0
 42 45  1  0  0  0  0
 43 82  1  0  0  0  0
 43 83  1  0  0  0  0
 43 84  1  0  0  0  0
 44 85  1  0  0  0  0
 44 86  1  0  0  0  0
 44 87  1  0  0  0  0
 45 88  1  0  0  0  0
 45 89  1  0  0  0  0
 45 90  1  0  0  0  0
M  END
>  <DRUGBANK_ID>
DB14923

>  <COMMON_NAME>
Satavaptan

>  <CAS_NUMBER>
185913-78-4

>  <UNII>
AJS8S3P31H

>  <SYNONYMS>
Satavaptan

$$$$
