
 OpenBabel10282417243D

 62 66  0  0  0  0  0  0  0  0999 V2000
   -2.2462   -0.0902   -0.0289 C   0  0  0  0  0  0  0  0  0  0  0  0
   -0.7844    0.1097    0.0163 C   0  0  0  0  0  0  0  0  0  0  0  0
   -0.0732    1.2232   -0.0354 N   0  0  0  0  0  0  0  0  0  0  0  0
    1.2186    0.8189    0.2647 C   0  0  0  0  0  0  0  0  0  0  0  0
    1.2603   -0.4804    0.6332 N   0  0  0  0  0  0  0  0  0  0  0  0
    0.0654   -0.9353    0.2054 N   0  0  0  0  0  0  0  0  0  0  0  0
    2.4244    1.7015    0.1627 C   0  0  0  0  0  0  0  0  0  0  0  0
    2.6900    2.6885    1.1904 C   0  0  0  0  0  0  0  0  0  0  0  0
    3.8446    3.5587    1.1585 C   0  0  0  0  0  0  0  0  0  0  0  0
    4.0827    4.9786    1.7759 C   0  0  0  0  0  0  0  0  0  0  0  0
    3.9502    5.9230    0.9960 O   0  0  0  0  0  0  0  0  0  0  0  0
    4.6978    5.3087    2.9934 N   0  0  0  0  0  0  0  0  0  0  0  0
    6.3600    6.1634    3.3236 C   0  0  0  0  0  0  0  0  0  0  0  0
    6.6007    6.3042    4.9146 C   0  0  0  0  0  0  0  0  0  0  0  0
    5.6171    5.2568    5.0213 C   0  0  0  0  0  0  0  0  0  0  0  0
    4.2350    5.2340    5.5308 C   0  0  0  0  0  0  0  0  0  0  0  0
    3.5071    5.4526    4.1769 C   0  0  0  0  0  0  0  0  0  0  0  0
    6.1775    3.8073    4.1298 C   0  0  0  0  0  0  0  0  0  0  0  0
    5.5424    2.6311    4.4515 C   0  0  0  0  0  0  0  0  0  0  0  0
    5.9905    1.4155    3.9131 C   0  0  0  0  0  0  0  0  0  0  0  0
    7.0410    1.3207    2.9851 C   0  0  0  0  0  0  0  0  0  0  0  0
    7.5991    2.4490    2.4620 C   0  0  0  0  0  0  0  0  0  0  0  0
    7.1181    3.6468    2.9708 C   0  0  0  0  0  0  0  0  0  0  0  0
    7.5353    0.0370    2.5475 C   0  0  0  0  0  0  0  0  0  0  0  0
    7.9584   -0.9588    2.2146 N   0  0  0  0  0  0  0  0  0  0  0  0
    4.7058    3.3903    0.0591 C   0  0  0  0  0  0  0  0  0  0  0  0
    5.9045    4.2776   -0.1491 C   0  0  0  0  0  0  0  0  0  0  0  0
    4.4273    2.4637   -0.9595 C   0  0  0  0  0  0  0  0  0  0  0  0
    3.3058    1.6052   -0.9599 C   0  0  0  0  0  0  0  0  0  0  0  0
    3.1528    0.6500   -2.2241 C   0  0  0  0  0  0  0  0  0  0  0  0
    1.8861    0.7921   -3.1064 C   0  0  0  0  0  0  0  0  0  0  0  0
    1.8528   -0.7491   -3.2110 C   0  0  0  0  0  0  0  0  0  0  0  0
    2.7748   -0.8193   -1.9970 C   0  0  0  0  0  0  0  0  0  0  0  0
   -2.5513   -0.6558   -0.9146 H   0  0  0  0  0  0  0  0  0  0  0  0
   -2.5683   -0.6518    0.8577 H   0  0  0  0  0  0  0  0  0  0  0  0
   -2.7589    0.8734   -0.0216 H   0  0  0  0  0  0  0  0  0  0  0  0
   -0.1160   -1.9340    0.1149 H   0  0  0  0  0  0  0  0  0  0  0  0
    1.9196    2.7532    1.9566 H   0  0  0  0  0  0  0  0  0  0  0  0
    6.5643    7.1201    2.8747 H   0  0  0  0  0  0  0  0  0  0  0  0
    7.3251    5.6565    3.2238 H   0  0  0  0  0  0  0  0  0  0  0  0
    6.3090    7.3101    5.2740 H   0  0  0  0  0  0  0  0  0  0  0  0
    7.3606    5.8726    5.5786 H   0  0  0  0  0  0  0  0  0  0  0  0
    5.1067    6.2405    4.5763 H   0  0  0  0  0  0  0  0  0  0  0  0
    4.1143    6.0445    6.2675 H   0  0  0  0  0  0  0  0  0  0  0  0
    4.0725    4.2722    5.9861 H   0  0  0  0  0  0  0  0  0  0  0  0
    3.1437    6.4868    4.0324 H   0  0  0  0  0  0  0  0  0  0  0  0
    2.5887    4.8462    4.2144 H   0  0  0  0  0  0  0  0  0  0  0  0
    4.6550    2.6312    5.0616 H   0  0  0  0  0  0  0  0  0  0  0  0
    5.4939    0.5180    4.2581 H   0  0  0  0  0  0  0  0  0  0  0  0
    8.3623    2.4525    1.6755 H   0  0  0  0  0  0  0  0  0  0  0  0
    7.4779    4.4015    2.2540 H   0  0  0  0  0  0  0  0  0  0  0  0
    6.7976    3.6585   -0.2153 H   0  0  0  0  0  0  0  0  0  0  0  0
    5.7698    4.8983   -1.0374 H   0  0  0  0  0  0  0  0  0  0  0  0
    6.0952    4.9656    0.6725 H   0  0  0  0  0  0  0  0  0  0  0  0
    5.1054    2.4426   -1.8176 H   0  0  0  0  0  0  0  0  0  0  0  0
    4.0579    0.6911   -2.8575 H   0  0  0  0  0  0  0  0  0  0  0  0
    1.0324    1.2580   -2.6000 H   0  0  0  0  0  0  0  0  0  0  0  0
    2.0241    1.3142   -4.0584 H   0  0  0  0  0  0  0  0  0  0  0  0
    0.8673   -1.2038   -3.0687 H   0  0  0  0  0  0  0  0  0  0  0  0
    2.3254   -1.1576   -4.1045 H   0  0  0  0  0  0  0  0  0  0  0  0
    3.5660   -1.5660   -1.9178 H   0  0  0  0  0  0  0  0  0  0  0  0
    2.2035   -1.0021   -1.1170 H   0  0  0  0  0  0  0  0  0  0  0  0
  1  2  1  0  0  0  0
  1 34  1  0  0  0  0
  1 35  1  0  0  0  0
  1 36  1  0  0  0  0
  2  3  2  0  0  0  0
  2  6  1  0  0  0  0
  3  4  1  0  0  0  0
  4  5  2  0  0  0  0
  4  7  1  0  0  0  0
  5  6  1  0  0  0  0
  6 37  1  0  0  0  0
  7  8  2  0  0  0  0
  7 29  1  0  0  0  0
  8  9  1  0  0  0  0
  8 38  1  0  0  0  0
  9 10  1  0  0  0  0
  9 26  2  0  0  0  0
 10 11  2  0  0  0  0
 10 12  1  0  0  0  0
 12 13  1  0  0  0  0
 12 17  1  0  0  0  0
 13 14  1  0  0  0  0
 13 39  1  0  0  0  0
 13 40  1  0  0  0  0
 14 15  1  0  0  0  0
 14 41  1  0  0  0  0
 14 42  1  0  0  0  0
 15 16  1  0  0  0  0
 15 18  1  0  0  0  0
 15 43  1  0  0  0  0
 16 17  1  0  0  0  0
 16 44  1  0  0  0  0
 16 45  1  0  0  0  0
 17 46  1  0  0  0  0
 17 47  1  0  0  0  0
 18 19  2  0  0  0  0
 18 23  1  0  0  0  0
 19 20  1  0  0  0  0
 19 48  1  0  0  0  0
 20 21  2  0  0  0  0
 20 49  1  0  0  0  0
 21 22  1  0  0  0  0
 21 24  1  0  0  0  0
 22 23  2  0  0  0  0
 22 50  1  0  0  0  0
 23 51  1  0  0  0  0
 24 25  3  0  0  0  0
 26 27  1  0  0  0  0
 26 28  1  0  0  0  0
 27 52  1  0  0  0  0
 27 53  1  0  0  0  0
 27 54  1  0  0  0  0
 28 29  2  0  0  0  0
 28 55  1  0  0  0  0
 29 30  1  0  0  0  0
 30 31  1  0  0  0  0
 30 33  1  0  0  0  0
 30 56  1  0  0  0  0
 31 32  1  0  0  0  0
 31 57  1  0  0  0  0
 31 58  1  0  0  0  0
 32 33  1  0  0  0  0
 32 59  1  0  0  0  0
 32 60  1  0  0  0  0
 33 61  1  0  0  0  0
 33 62  1  0  0  0  0
M  END
>  <DRUGBANK_ID>
DB17576

>  <COMMON_NAME>
Denifanstat

>  <CAS_NUMBER>
1399177-37-7

>  <UNII>
4GF95B2LZA

>  <SYNONYMS>
Benzonitrile, 4-(1-(4-cyclobutyl-2-methyl-5-(3-methyl-1h-1,2,4-triazol-5-yl)benzoyl)-4-piperidinyl)-

$$$$
