
 OpenBabel10282417143D

 60 62  0  0  0  0  0  0  0  0999 V2000
    1.0845   -0.1886   -0.0189 C   0  0  0  0  0  0  0  0  0  0  0  0
    0.5946    0.5600   -1.2109 N   0  3  0  0  0  0  0  0  0  0  0  0
    1.0289   -0.1204   -2.4740 C   0  0  0  0  0  0  0  0  0  0  0  0
   -0.9328    0.6820   -1.1961 C   0  0  0  0  0  0  0  0  0  0  0  0
   -1.5250    1.3634    0.0482 C   0  0  0  0  0  0  0  0  0  0  0  0
   -1.0416    2.7305    0.2454 N   0  0  0  0  0  0  0  0  0  0  0  0
   -1.9490    3.7964    0.0961 C   0  0  0  0  0  0  0  0  0  0  0  0
   -3.0832    3.7974    0.8987 C   0  0  0  0  0  0  0  0  0  0  0  0
   -3.9619    4.8737    0.8805 C   0  0  0  0  0  0  0  0  0  0  0  0
   -3.7655    6.0061    0.0568 C   0  0  0  0  0  0  0  0  0  0  0  0
   -2.6047    6.0318   -0.7982 C   0  0  0  0  0  0  0  0  0  0  0  0
   -1.7376    4.9164   -0.7642 C   0  0  0  0  0  0  0  0  0  0  0  0
   -0.5536    4.8974   -1.6457 C   0  0  0  0  0  0  0  0  0  0  0  0
    0.1895    3.9580   -1.5937 O   0  0  0  0  0  0  0  0  0  0  0  0
   -0.2504    5.9638   -2.6017 C   0  0  0  0  0  0  0  0  0  0  0  0
    0.8691    5.9220   -3.4311 C   0  0  0  0  0  0  0  0  0  0  0  0
    1.1544    6.9715   -4.3069 C   0  0  0  0  0  0  0  0  0  0  0  0
    0.3151    8.0728   -4.3862 C   0  0  0  0  0  0  0  0  0  0  0  0
   -0.8001    8.1114   -3.5857 C   0  0  0  0  0  0  0  0  0  0  0  0
   -1.0701    7.0539   -2.6801 C   0  0  0  0  0  0  0  0  0  0  0  0
   -2.1593    7.1658   -1.7464 C   0  0  0  0  0  0  0  0  0  0  0  0
   -2.5648    8.3211   -1.8422 O   0  0  0  0  0  0  0  0  0  0  0  0
   -1.5763    9.2377   -3.7435 O   0  0  0  0  0  0  0  0  0  0  0  0
    1.6961    4.8434   -3.3925 O   0  0  0  0  0  0  0  0  0  0  0  0
   -4.6865    7.0378    0.3296 N   0  0  0  0  0  0  0  0  0  0  0  0
   -4.7587    8.1752   -0.5392 C   0  0  0  0  0  0  0  0  0  0  0  0
   -5.8497    8.2935   -1.5614 C   0  0  0  0  0  0  0  0  0  0  0  0
   -7.1244    8.5449   -0.8712 N   0  3  0  0  0  0  0  0  0  0  0  0
   -6.9916    9.8241   -0.0850 C   0  0  0  0  0  0  0  0  0  0  0  0
   -8.2059    8.6638   -1.8891 C   0  0  0  0  0  0  0  0  0  0  0  0
   -7.4040    7.4829   -0.0440 O   0  5  0  0  0  0  0  0  0  0  0  0
    1.2306    1.7533   -1.1751 O   0  5  0  0  0  0  0  0  0  0  0  0
    0.6592   -1.1904   -0.0454 H   0  0  0  0  0  0  0  0  0  0  0  0
    0.7814    0.3663    0.8723 H   0  0  0  0  0  0  0  0  0  0  0  0
    2.1762   -0.1922   -0.0714 H   0  0  0  0  0  0  0  0  0  0  0  0
    0.6341   -1.1372   -2.4709 H   0  0  0  0  0  0  0  0  0  0  0  0
    0.6428    0.4597   -3.3190 H   0  0  0  0  0  0  0  0  0  0  0  0
    2.1229   -0.1116   -2.4847 H   0  0  0  0  0  0  0  0  0  0  0  0
   -1.2204    1.2080   -2.1155 H   0  0  0  0  0  0  0  0  0  0  0  0
   -1.3023   -0.3501   -1.2582 H   0  0  0  0  0  0  0  0  0  0  0  0
   -2.6178    1.3127   -0.0177 H   0  0  0  0  0  0  0  0  0  0  0  0
   -1.2569    0.7909    0.9404 H   0  0  0  0  0  0  0  0  0  0  0  0
   -0.1533    2.8754   -0.2974 H   0  0  0  0  0  0  0  0  0  0  0  0
   -3.2523    2.9817    1.5972 H   0  0  0  0  0  0  0  0  0  0  0  0
   -4.8055    4.8451    1.5702 H   0  0  0  0  0  0  0  0  0  0  0  0
    2.0307    6.9397   -4.9383 H   0  0  0  0  0  0  0  0  0  0  0  0
    0.5111    8.9067   -5.0506 H   0  0  0  0  0  0  0  0  0  0  0  0
   -2.2807    9.1927   -3.0560 H   0  0  0  0  0  0  0  0  0  0  0  0
    2.4674    4.9374   -3.9621 H   0  0  0  0  0  0  0  0  0  0  0  0
   -5.6298    6.7591    0.6373 H   0  0  0  0  0  0  0  0  0  0  0  0
   -4.4052    9.1020   -0.0752 H   0  0  0  0  0  0  0  0  0  0  0  0
   -4.1149    7.8942   -1.2777 H   0  0  0  0  0  0  0  0  0  0  0  0
   -5.6412    9.1312   -2.2497 H   0  0  0  0  0  0  0  0  0  0  0  0
   -5.9362    7.3850   -2.1788 H   0  0  0  0  0  0  0  0  0  0  0  0
   -6.7593   10.6299   -0.7886 H   0  0  0  0  0  0  0  0  0  0  0  0
   -7.9238    9.9662    0.4504 H   0  0  0  0  0  0  0  0  0  0  0  0
   -6.1849    9.7165    0.6453 H   0  0  0  0  0  0  0  0  0  0  0  0
   -8.2262    7.7288   -2.4584 H   0  0  0  0  0  0  0  0  0  0  0  0
   -9.1256    8.8007   -1.3225 H   0  0  0  0  0  0  0  0  0  0  0  0
   -7.9807    9.5170   -2.5336 H   0  0  0  0  0  0  0  0  0  0  0  0
  1  2  1  0  0  0  0
  1 33  1  0  0  0  0
  1 34  1  0  0  0  0
  1 35  1  0  0  0  0
  2  3  1  0  0  0  0
  2  4  1  0  0  0  0
  2 32  1  0  0  0  0
  3 36  1  0  0  0  0
  3 37  1  0  0  0  0
  3 38  1  0  0  0  0
  4  5  1  0  0  0  0
  4 39  1  0  0  0  0
  4 40  1  0  0  0  0
  5  6  1  0  0  0  0
  5 41  1  0  0  0  0
  5 42  1  0  0  0  0
  6  7  1  0  0  0  0
  6 43  1  0  0  0  0
  7  8  2  0  0  0  0
  7 12  1  0  0  0  0
  8  9  1  0  0  0  0
  8 44  1  0  0  0  0
  9 10  2  0  0  0  0
  9 45  1  0  0  0  0
 10 11  1  0  0  0  0
 10 25  1  0  0  0  0
 11 12  2  0  0  0  0
 11 21  1  0  0  0  0
 12 13  1  0  0  0  0
 13 14  2  0  0  0  0
 13 15  1  0  0  0  0
 15 16  2  0  0  0  0
 15 20  1  0  0  0  0
 16 17  1  0  0  0  0
 16 24  1  0  0  0  0
 17 18  2  0  0  0  0
 17 46  1  0  0  0  0
 18 19  1  0  0  0  0
 18 47  1  0  0  0  0
 19 20  2  0  0  0  0
 19 23  1  0  0  0  0
 20 21  1  0  0  0  0
 21 22  2  0  0  0  0
 23 48  1  0  0  0  0
 24 49  1  0  0  0  0
 25 26  1  0  0  0  0
 25 50  1  0  0  0  0
 26 27  1  0  0  0  0
 26 51  1  0  0  0  0
 26 52  1  0  0  0  0
 27 28  1  0  0  0  0
 27 53  1  0  0  0  0
 27 54  1  0  0  0  0
 28 29  1  0  0  0  0
 28 30  1  0  0  0  0
 28 31  1  0  0  0  0
 29 55  1  0  0  0  0
 29 56  1  0  0  0  0
 29 57  1  0  0  0  0
 30 58  1  0  0  0  0
 30 59  1  0  0  0  0
 30 60  1  0  0  0  0
M  CHG  4   2   1  28   1  31  -1  32  -1
M  END
>  <DRUGBANK_ID>
DB04975

>  <COMMON_NAME>
Banoxantrone

>  <CAS_NUMBER>
136470-65-0

>  <UNII>
W5H7E45YT3

>  <SYNONYMS>
Banoxantrone

$$$$
