
 OpenBabel10282417163D

 59 62  0  0  0  0  0  0  0  0999 V2000
   -3.7171   -1.3363   -0.0955 C   0  0  0  0  0  0  0  0  0  0  0  0
   -4.1539    0.0206    0.3915 C   0  0  0  0  0  0  0  0  0  0  0  0
   -3.1978    1.1418    0.2507 C   0  0  0  0  0  0  0  0  0  0  0  0
   -1.9489    0.9376   -0.2027 C   0  0  0  0  0  0  0  0  0  0  0  0
   -1.3359   -0.4532   -0.4234 C   0  0  2  0  0  0  0  0  0  0  0  0
   -2.2403   -1.5435    0.2121 C   0  0  0  0  0  0  0  0  0  0  0  0
   -1.0892    2.1268   -0.5542 C   0  0  0  0  0  0  0  0  0  0  0  0
    0.3181    2.0347    0.0076 C   0  0  0  0  0  0  0  0  0  0  0  0
    0.9635    0.6737   -0.2682 C   0  0  2  0  0  0  0  0  0  0  0  0
    0.0723   -0.4765    0.2721 C   0  0  2  0  0  0  0  0  0  0  0  0
    2.3225    0.5890    0.3944 C   0  0  1  0  0  0  0  0  0  0  0  0
    3.0495   -0.7421    0.0916 C   0  0  2  0  0  0  0  0  0  0  0  0
    2.2313   -1.8459    0.7659 C   0  0  0  0  0  0  0  0  0  0  0  0
    0.7809   -1.8622    0.2529 C   0  0  0  0  0  0  0  0  0  0  0  0
    3.3171    1.6662    0.0345 C   0  0  0  0  0  0  0  0  0  0  0  0
    4.6335    1.0364    0.4377 C   0  0  0  0  0  0  0  0  0  0  0  0
    4.3968   -0.4509    0.7759 C   0  0  2  0  0  0  0  0  0  0  0  0
    5.5978   -1.3283    0.4162 C   0  0  0  0  0  0  0  0  0  0  0  0
    5.5927   -2.1971   -0.4552 O   0  0  0  0  0  0  0  0  0  0  0  0
    6.8633   -1.1138    1.2293 C   0  0  0  0  0  0  0  0  0  0  0  0
    7.3060    0.2411    1.2927 O   0  0  0  0  0  0  0  0  0  0  0  0
    7.5547    0.9951    0.1949 C   0  0  0  0  0  0  0  0  0  0  0  0
    7.5755    0.3546   -1.1683 C   0  0  0  0  0  0  0  0  0  0  0  0
    7.6881    2.2162    0.3134 O   0  0  0  0  0  0  0  0  0  0  0  0
   -5.2924    0.2432    0.7941 O   0  0  0  0  0  0  0  0  0  0  0  0
    3.2140   -1.0228   -1.4243 C   0  0  0  0  0  0  0  0  0  0  0  0
    1.0953    0.5802   -1.3511 H   0  0  0  0  0  0  0  0  0  0  0  0
   -1.2251   -0.7161   -1.9435 C   0  0  0  0  0  0  0  0  0  0  0  0
   -0.0912   -0.2582    1.3409 H   0  0  0  0  0  0  0  0  0  0  0  0
    2.1685    0.6712    1.4829 H   0  0  0  0  0  0  0  0  0  0  0  0
   -4.3091   -2.1017    0.4152 H   0  0  0  0  0  0  0  0  0  0  0  0
   -3.9247   -1.4046   -1.1683 H   0  0  0  0  0  0  0  0  0  0  0  0
   -3.6013    2.1293    0.4441 H   0  0  0  0  0  0  0  0  0  0  0  0
   -2.1134   -1.5361    1.3039 H   0  0  0  0  0  0  0  0  0  0  0  0
   -1.9414   -2.5407   -0.1327 H   0  0  0  0  0  0  0  0  0  0  0  0
   -1.0363    2.2027   -1.6469 H   0  0  0  0  0  0  0  0  0  0  0  0
   -1.5401    3.0621   -0.2021 H   0  0  0  0  0  0  0  0  0  0  0  0
    0.9208    2.8335   -0.4419 H   0  0  0  0  0  0  0  0  0  0  0  0
    0.2983    2.2227    1.0881 H   0  0  0  0  0  0  0  0  0  0  0  0
    2.2140   -1.6858    1.8530 H   0  0  0  0  0  0  0  0  0  0  0  0
    2.6978   -2.8249    0.6075 H   0  0  0  0  0  0  0  0  0  0  0  0
    0.2201   -2.5641    0.8808 H   0  0  0  0  0  0  0  0  0  0  0  0
    0.7761   -2.2817   -0.7560 H   0  0  0  0  0  0  0  0  0  0  0  0
    3.3180    1.8957   -1.0382 H   0  0  0  0  0  0  0  0  0  0  0  0
    3.1511    2.6051    0.5713 H   0  0  0  0  0  0  0  0  0  0  0  0
    5.2750    1.1518   -0.4275 H   0  0  0  0  0  0  0  0  0  0  0  0
    5.0692    1.5649    1.2910 H   0  0  0  0  0  0  0  0  0  0  0  0
    4.2765   -0.5526    1.8638 H   0  0  0  0  0  0  0  0  0  0  0  0
    6.6356   -1.4582    2.2453 H   0  0  0  0  0  0  0  0  0  0  0  0
    7.6792   -1.7363    0.8504 H   0  0  0  0  0  0  0  0  0  0  0  0
    6.7949    0.7938   -1.8014 H   0  0  0  0  0  0  0  0  0  0  0  0
    8.5485    0.5320   -1.6222 H   0  0  0  0  0  0  0  0  0  0  0  0
    7.4181   -0.7192   -1.1633 H   0  0  0  0  0  0  0  0  0  0  0  0
    3.7607   -0.2237   -1.9347 H   0  0  0  0  0  0  0  0  0  0  0  0
    3.7491   -1.9564   -1.6105 H   0  0  0  0  0  0  0  0  0  0  0  0
    2.2616   -1.1509   -1.9417 H   0  0  0  0  0  0  0  0  0  0  0  0
   -0.6162    0.0325   -2.4590 H   0  0  0  0  0  0  0  0  0  0  0  0
   -0.7806   -1.6938   -2.1521 H   0  0  0  0  0  0  0  0  0  0  0  0
   -2.2055   -0.6952   -2.4289 H   0  0  0  0  0  0  0  0  0  0  0  0
  1  2  1  0  0  0  0
  1  6  1  0  0  0  0
  1 31  1  0  0  0  0
  1 32  1  0  0  0  0
  2  3  1  0  0  0  0
  2 25  2  0  0  0  0
  3  4  2  0  0  0  0
  3 33  1  0  0  0  0
  4  5  1  0  0  0  0
  4  7  1  0  0  0  0
  5  6  1  0  0  0  0
  5 10  1  0  0  0  0
  5 28  1  6  0  0  0
  6 34  1  0  0  0  0
  6 35  1  0  0  0  0
  7  8  1  0  0  0  0
  7 36  1  0  0  0  0
  7 37  1  0  0  0  0
  8  9  1  0  0  0  0
  8 38  1  0  0  0  0
  8 39  1  0  0  0  0
  9 10  1  0  0  0  0
  9 11  1  0  0  0  0
  9 27  1  6  0  0  0
 10 14  1  0  0  0  0
 10 29  1  1  0  0  0
 11 12  1  0  0  0  0
 11 15  1  0  0  0  0
 11 30  1  1  0  0  0
 12 13  1  0  0  0  0
 12 17  1  0  0  0  0
 12 26  1  6  0  0  0
 13 14  1  0  0  0  0
 13 40  1  0  0  0  0
 13 41  1  0  0  0  0
 14 42  1  0  0  0  0
 14 43  1  0  0  0  0
 15 16  1  0  0  0  0
 15 44  1  0  0  0  0
 15 45  1  0  0  0  0
 16 17  1  0  0  0  0
 16 46  1  0  0  0  0
 16 47  1  0  0  0  0
 17 48  1  1  0  0  0
 17 18  1  0  0  0  0
 18 19  2  0  0  0  0
 18 20  1  0  0  0  0
 20 21  1  0  0  0  0
 20 49  1  0  0  0  0
 20 50  1  0  0  0  0
 21 22  1  0  0  0  0
 22 23  1  0  0  0  0
 22 24  2  0  0  0  0
 23 51  1  0  0  0  0
 23 52  1  0  0  0  0
 23 53  1  0  0  0  0
 26 54  1  0  0  0  0
 26 55  1  0  0  0  0
 26 56  1  0  0  0  0
 28 57  1  0  0  0  0
 28 58  1  0  0  0  0
 28 59  1  0  0  0  0
M  END
>  <DRUGBANK_ID>
DB06780

>  <COMMON_NAME>
Desoxycorticosterone acetate

>  <CAS_NUMBER>
56-47-3

>  <UNII>
6E0A168OB8

>  <SYNONYMS>
11-deoxycorticosterone acetate; Deoxycorticosterone acetate; Desoxycorticosterone acetate; Desoxycorticosterone-21-acetate; Desoxycortone acetate; DOCA

$$$$
