
 OpenBabel10282417163D

 36 35  0  0  0  0  0  0  0  0999 V2000
    1.1086   -0.2091    0.1192 C   0  0  0  0  0  0  0  0  0  0  0  0
    0.6096    0.3762   -1.2381 C   0  0  0  0  0  0  0  0  0  0  0  0
    1.0923   -0.3831   -2.4793 C   0  0  0  0  0  0  0  0  0  0  0  0
    0.5602   -1.7811   -2.3762 C   0  0  0  0  0  0  0  0  0  0  0  0
   -0.9610   -1.8569   -2.2513 C   0  0  0  0  0  0  0  0  0  0  0  0
   -1.5331   -1.4422   -3.5853 C   0  0  0  0  0  0  0  0  0  0  0  0
   -1.0190   -2.4116   -4.6483 C   0  0  0  0  0  0  0  0  0  0  0  0
   -1.5066   -3.8380   -4.3618 C   0  0  0  0  0  0  0  0  0  0  0  0
   -3.0328   -3.8874   -4.3219 C   0  0  0  0  0  0  0  0  0  0  0  0
   -3.5971   -3.3930   -5.6435 C   0  0  0  0  0  0  0  0  0  0  0  0
    0.4831   -1.8132    0.8858 S   0  0  0  0  0  0  0  0  0  0  0  0
    1.0007   -1.9154    2.2206 O   0  0  0  0  0  0  0  0  0  0  0  0
   -0.9414   -1.9787    0.6391 O   0  0  0  0  0  0  0  0  0  0  0  0
    1.2104   -3.0366    0.0973 O   0  0  0  0  0  0  0  0  0  0  0  0
    0.7767    0.5241    0.8677 H   0  0  0  0  0  0  0  0  0  0  0  0
    2.2009   -0.2246    0.1438 H   0  0  0  0  0  0  0  0  0  0  0  0
   -0.4792    0.5014   -1.2383 H   0  0  0  0  0  0  0  0  0  0  0  0
    0.9818    1.4050   -1.3526 H   0  0  0  0  0  0  0  0  0  0  0  0
    0.7994    0.0898   -3.4231 H   0  0  0  0  0  0  0  0  0  0  0  0
    2.1871   -0.4233   -2.4792 H   0  0  0  0  0  0  0  0  0  0  0  0
    0.9928   -2.5133   -3.0582 H   0  0  0  0  0  0  0  0  0  0  0  0
    1.0429   -2.0837   -1.4985 H   0  0  0  0  0  0  0  0  0  0  0  0
   -1.2766   -2.8564   -1.9284 H   0  0  0  0  0  0  0  0  0  0  0  0
   -1.3978   -1.2008   -1.4970 H   0  0  0  0  0  0  0  0  0  0  0  0
   -2.6240   -1.3966   -3.5263 H   0  0  0  0  0  0  0  0  0  0  0  0
   -1.2308   -0.4170   -3.8169 H   0  0  0  0  0  0  0  0  0  0  0  0
   -1.3152   -2.0556   -5.6339 H   0  0  0  0  0  0  0  0  0  0  0  0
    0.0725   -2.4134   -4.7119 H   0  0  0  0  0  0  0  0  0  0  0  0
   -1.1162   -4.5137   -5.1278 H   0  0  0  0  0  0  0  0  0  0  0  0
   -1.1050   -4.2239   -3.4151 H   0  0  0  0  0  0  0  0  0  0  0  0
   -3.3660   -4.9076   -4.1165 H   0  0  0  0  0  0  0  0  0  0  0  0
   -3.4286   -3.2802   -3.4983 H   0  0  0  0  0  0  0  0  0  0  0  0
   -3.2196   -4.0164   -6.4592 H   0  0  0  0  0  0  0  0  0  0  0  0
   -4.6857   -3.4160   -5.6347 H   0  0  0  0  0  0  0  0  0  0  0  0
   -3.3100   -2.3574   -5.8549 H   0  0  0  0  0  0  0  0  0  0  0  0
    0.5407   -3.6129   -0.3462 H   0  0  0  0  0  0  0  0  0  0  0  0
  1  2  1  0  0  0  0
  1 11  1  0  0  0  0
  1 15  1  0  0  0  0
  1 16  1  0  0  0  0
  2  3  1  0  0  0  0
  2 17  1  0  0  0  0
  2 18  1  0  0  0  0
  3  4  1  0  0  0  0
  3 19  1  0  0  0  0
  3 20  1  0  0  0  0
  4  5  1  0  0  0  0
  4 21  1  0  0  0  0
  4 22  1  0  0  0  0
  5  6  1  0  0  0  0
  5 23  1  0  0  0  0
  5 24  1  0  0  0  0
  6  7  1  0  0  0  0
  6 25  1  0  0  0  0
  6 26  1  0  0  0  0
  7  8  1  0  0  0  0
  7 27  1  0  0  0  0
  7 28  1  0  0  0  0
  8  9  1  0  0  0  0
  8 29  1  0  0  0  0
  8 30  1  0  0  0  0
  9 10  1  0  0  0  0
  9 31  1  0  0  0  0
  9 32  1  0  0  0  0
 10 33  1  0  0  0  0
 10 34  1  0  0  0  0
 10 35  1  0  0  0  0
 11 12  2  0  0  0  0
 11 13  2  0  0  0  0
 11 14  1  0  0  0  0
 14 36  1  0  0  0  0
M  END
>  <DRUGBANK_ID>
DB06893

>  <COMMON_NAME>
Decylsulfonic acid

>  <CAS_NUMBER>
20283-21-0

>  <UNII>
VUY16B7Z2D

>  <SYNONYMS>
Decane-1-sulfonic acid

$$$$
