BAI
 OpenBabel10282417123D

 36 39  0  0  0  0  0  0  0  0999 V2000
    2.1601    0.7582   -0.0150 C   0  0  0  0  0  0  0  0  0  0  0  0
    2.1923   -0.6477   -0.0007 C   0  0  0  0  0  0  0  0  0  0  0  0
    1.0198   -1.4170    0.0088 C   0  0  0  0  0  0  0  0  0  0  0  0
   -0.1820   -0.7115   -0.0098 C   0  0  0  0  0  0  0  0  0  0  0  0
   -0.2487    0.6752   -0.0214 C   0  0  0  0  0  0  0  0  0  0  0  0
    0.9303    1.4304   -0.0109 C   0  0  0  0  0  0  0  0  0  0  0  0
    3.4503    1.5203   -0.0544 C   0  0  0  0  0  0  0  0  0  0  0  0
   -2.2833    0.0102   -0.0352 C   0  0  0  0  0  0  0  0  0  0  0  0
   -3.7739   -0.0474    0.0172 C   0  0  0  0  0  0  0  0  0  0  0  0
    3.4702    2.8815   -0.0773 N   0  0  0  0  0  0  0  0  0  0  0  0
    4.5659    0.8676   -0.0745 N   0  0  0  0  0  0  0  0  0  0  0  0
   -1.4931   -1.1132   -0.0198 N   0  0  0  0  0  0  0  0  0  0  0  0
   -1.5494    1.1075   -0.0513 N   0  0  0  0  0  0  0  0  0  0  0  0
   -5.5591    2.1244    5.2961 C   0  0  0  0  0  0  0  0  0  0  0  0
   -4.9724    3.3044    4.8303 C   0  0  0  0  0  0  0  0  0  0  0  0
   -4.4037    3.3796    3.5543 C   0  0  0  0  0  0  0  0  0  0  0  0
   -4.4619    2.2218    2.7775 C   0  0  0  0  0  0  0  0  0  0  0  0
   -5.0267    1.0295    3.2165 C   0  0  0  0  0  0  0  0  0  0  0  0
   -5.5872    0.9721    4.4997 C   0  0  0  0  0  0  0  0  0  0  0  0
   -4.2725    0.6098    1.2581 C   0  0  0  0  0  0  0  0  0  0  0  0
   -4.0194    1.9376    1.5145 N   0  0  0  0  0  0  0  0  0  0  0  0
   -4.9167    0.0471    2.2607 N   0  0  0  0  0  0  0  0  0  0  0  0
    3.1528   -1.1622   -0.0008 H   0  0  0  0  0  0  0  0  0  0  0  0
    1.0580   -2.5007    0.0201 H   0  0  0  0  0  0  0  0  0  0  0  0
    0.8416    2.5058   -0.0114 H   0  0  0  0  0  0  0  0  0  0  0  0
   -4.1828    0.4623   -0.8630 H   0  0  0  0  0  0  0  0  0  0  0  0
   -4.1244   -1.0850   -0.0174 H   0  0  0  0  0  0  0  0  0  0  0  0
    4.3385    3.3948   -0.1099 H   0  0  0  0  0  0  0  0  0  0  0  0
    2.6289    3.4386   -0.0686 H   0  0  0  0  0  0  0  0  0  0  0  0
    5.3513    1.5188   -0.1062 H   0  0  0  0  0  0  0  0  0  0  0  0
   -1.8208   -2.0687   -0.0027 H   0  0  0  0  0  0  0  0  0  0  0  0
   -5.9974    2.0959    6.2905 H   0  0  0  0  0  0  0  0  0  0  0  0
   -4.9562    4.1827    5.4722 H   0  0  0  0  0  0  0  0  0  0  0  0
   -3.9410    4.2913    3.1932 H   0  0  0  0  0  0  0  0  0  0  0  0
   -6.0256    0.0487    4.8596 H   0  0  0  0  0  0  0  0  0  0  0  0
   -3.4976    2.5539    0.9055 H   0  0  0  0  0  0  0  0  0  0  0  0
  1  2  1  0  0  0  0
  1  6  2  0  0  0  0
  1  7  1  0  0  0  0
  2  3  2  0  0  0  0
  2 23  1  0  0  0  0
  3  4  1  0  0  0  0
  3 24  1  0  0  0  0
  4  5  2  0  0  0  0
  4 12  1  0  0  0  0
  5  6  1  0  0  0  0
  5 13  1  0  0  0  0
  6 25  1  0  0  0  0
  7 10  1  0  0  0  0
  7 11  2  0  0  0  0
  8  9  1  0  0  0  0
  8 12  1  0  0  0  0
  8 13  2  0  0  0  0
  9 20  1  0  0  0  0
  9 26  1  0  0  0  0
  9 27  1  0  0  0  0
 10 28  1  0  0  0  0
 10 29  1  0  0  0  0
 11 30  1  0  0  0  0
 12 31  1  0  0  0  0
 14 15  1  0  0  0  0
 14 19  2  0  0  0  0
 14 32  1  0  0  0  0
 15 16  2  0  0  0  0
 15 33  1  0  0  0  0
 16 17  1  0  0  0  0
 16 34  1  0  0  0  0
 17 18  2  0  0  0  0
 17 21  1  0  0  0  0
 18 19  1  0  0  0  0
 18 22  1  0  0  0  0
 19 35  1  0  0  0  0
 20 21  1  0  0  0  0
 20 22  2  0  0  0  0
 21 36  1  0  0  0  0
M  END
>  <DRUGBANK_ID>
DB01767

>  <SECONDARY_ACCESSION_NUMBERS>
EXPT00622

>  <COMMON_NAME>
Hemi-Babim

$$$$
