SNB
 OpenBabel10282417173D

 33 35  0  0  0  0  0  0  0  0999 V2000
    1.0181   -0.2838    0.0163 Cl  0  0  0  0  0  0  0  0  0  0  0  0
    2.7232    0.0236    0.0308 C   0  0  0  0  0  0  0  0  0  0  0  0
    3.3679    1.2672    0.0193 C   0  0  0  0  0  0  0  0  0  0  0  0
    2.8231    2.5247    0.0064 O   0  0  0  0  0  0  0  0  0  0  0  0
    1.4075    2.6285   -0.0042 C   0  0  0  0  0  0  0  0  0  0  0  0
    3.4768   -1.1478    0.0586 C   0  0  0  0  0  0  0  0  0  0  0  0
    4.8695   -1.1260    0.0442 C   0  0  0  0  0  0  0  0  0  0  0  0
    5.5328    0.0948    0.0335 C   0  0  0  0  0  0  0  0  0  0  0  0
    4.7780    1.2844    0.0261 C   0  0  0  0  0  0  0  0  0  0  0  0
    5.6529   -2.3808    0.0786 C   0  0  0  0  0  0  0  0  0  0  0  0
    6.9430   -2.4090    0.1087 N   0  0  0  0  0  0  0  0  0  0  0  0
    7.7522   -1.1991    0.0443 C   0  0  0  0  0  0  0  0  0  0  0  0
    7.0289    0.1468    0.0343 C   0  0  0  0  0  0  0  0  0  0  0  0
    4.9620   -3.7015    0.0650 C   0  0  0  0  0  0  0  0  0  0  0  0
    5.2272   -4.6268    1.0771 C   0  0  0  0  0  0  0  0  0  0  0  0
    4.7093   -5.9159    0.9665 C   0  0  0  0  0  0  0  0  0  0  0  0
    5.2225   -7.2452    2.2095 Br  0  0  0  0  0  0  0  0  0  0  0  0
    3.8431   -6.2510   -0.0762 C   0  0  0  0  0  0  0  0  0  0  0  0
    3.4981   -5.2922   -1.0272 C   0  0  0  0  0  0  0  0  0  0  0  0
    4.1100   -4.0407   -0.9964 C   0  0  0  0  0  0  0  0  0  0  0  0
    0.9985    2.1842   -0.9175 H   0  0  0  0  0  0  0  0  0  0  0  0
    0.9842    2.1958    0.9081 H   0  0  0  0  0  0  0  0  0  0  0  0
    1.1229    3.6828   -0.0128 H   0  0  0  0  0  0  0  0  0  0  0  0
    2.9346   -2.0854    0.0946 H   0  0  0  0  0  0  0  0  0  0  0  0
    5.2982    2.2440    0.0264 H   0  0  0  0  0  0  0  0  0  0  0  0
    8.3744   -1.2640   -0.8572 H   0  0  0  0  0  0  0  0  0  0  0  0
    8.4537   -1.2171    0.8867 H   0  0  0  0  0  0  0  0  0  0  0  0
    7.3566    0.7045   -0.8530 H   0  0  0  0  0  0  0  0  0  0  0  0
    7.3646    0.7277    0.9032 H   0  0  0  0  0  0  0  0  0  0  0  0
    5.8524   -4.3469    1.9206 H   0  0  0  0  0  0  0  0  0  0  0  0
    3.4453   -7.2587   -0.1653 H   0  0  0  0  0  0  0  0  0  0  0  0
    2.7789   -5.5290   -1.8071 H   0  0  0  0  0  0  0  0  0  0  0  0
    3.9167   -3.3337   -1.7994 H   0  0  0  0  0  0  0  0  0  0  0  0
  1  2  1  0  0  0  0
  2  3  1  0  0  0  0
  2  6  2  0  0  0  0
  3  4  1  0  0  0  0
  3  9  2  0  0  0  0
  4  5  1  0  0  0  0
  5 21  1  0  0  0  0
  5 22  1  0  0  0  0
  5 23  1  0  0  0  0
  6  7  1  0  0  0  0
  6 24  1  0  0  0  0
  7  8  2  0  0  0  0
  7 10  1  0  0  0  0
  8  9  1  0  0  0  0
  8 13  1  0  0  0  0
  9 25  1  0  0  0  0
 10 11  2  0  0  0  0
 10 14  1  0  0  0  0
 11 12  1  0  0  0  0
 12 13  1  0  0  0  0
 12 26  1  0  0  0  0
 12 27  1  0  0  0  0
 13 28  1  0  0  0  0
 13 29  1  0  0  0  0
 14 15  1  0  0  0  0
 14 20  2  0  0  0  0
 15 16  2  0  0  0  0
 15 30  1  0  0  0  0
 16 17  1  0  0  0  0
 16 18  1  0  0  0  0
 18 19  2  0  0  0  0
 18 31  1  0  0  0  0
 19 20  1  0  0  0  0
 19 32  1  0  0  0  0
 20 33  1  0  0  0  0
M  END
>  <DRUGBANK_ID>
DB08555

>  <COMMON_NAME>
1-(3-bromophenyl)-7-chloro-6-methoxy-3,4-dihydroisoquinoline

$$$$
