
 OpenBabel10282417143D

 42 45  0  0  1  0  0  0  0  0999 V2000
    0.8073   -0.1976    0.0170 N   0  0  0  0  0  0  0  0  0  0  0  0
    0.1121   -1.1050    0.7643 C   0  0  0  0  0  0  0  0  0  0  0  0
    0.6657   -1.8248    1.6882 N   0  0  0  0  0  0  0  0  0  0  0  0
   -0.0701   -2.8775    2.2719 C   0  0  0  0  0  0  0  0  0  0  0  0
    0.2235   -3.3781    3.3395 O   0  0  0  0  0  0  0  0  0  0  0  0
   -1.1976   -3.3592    1.4502 C   0  0  0  0  0  0  0  0  0  0  0  0
   -1.6591   -2.5627    0.4393 C   0  0  0  0  0  0  0  0  0  0  0  0
   -1.1486   -1.3235    0.2453 N   0  0  0  0  0  0  0  0  0  0  0  0
   -2.4931   -3.3501   -0.3121 N   0  0  0  0  0  0  0  0  0  0  0  0
   -2.7465   -4.4603    0.4633 C   0  0  0  0  0  0  0  0  0  0  0  0
   -1.9465   -4.5140    1.5119 N   0  0  0  0  0  0  0  0  0  0  0  0
   -3.0783   -3.1208   -1.6263 C   0  0  2  0  0  0  0  0  0  0  0  0
   -2.0967   -3.3279   -2.6667 O   0  0  0  0  0  0  0  0  0  0  0  0
   -1.5444   -2.0451   -3.0493 C   0  0  2  0  0  0  0  0  0  0  0  0
   -0.1573   -1.9537   -2.4173 C   0  0  0  0  0  0  0  0  0  0  0  0
    0.7366   -2.9079   -2.9677 O   0  0  0  0  0  0  0  0  0  0  0  0
   -2.5863   -0.9992   -2.6341 C   0  0  1  0  0  0  0  0  0  0  0  0
   -3.2772   -0.5710   -3.8089 O   0  0  0  0  0  0  0  0  0  0  0  0
   -4.5464   -1.2052   -3.8078 C   0  0  1  0  0  0  0  0  0  0  0  0
   -4.6141   -2.3716   -4.8033 C   0  0  0  0  0  0  0  0  0  0  0  0
   -6.2624   -3.1661   -4.8301 P   0  0  0  0  0  0  0  0  0  0  0  0
   -6.8191   -2.0445   -3.7785 O   0  0  0  0  0  0  0  0  0  0  0  0
   -6.5549   -2.2992   -6.2029 O   0  0  0  0  0  0  0  0  0  0  0  0
   -7.6570   -3.8383   -4.8529 O   0  0  0  0  0  0  0  0  0  0  0  0
   -4.8207   -1.6976   -2.4900 O   0  0  0  0  0  0  0  0  0  0  0  0
   -3.6028   -1.7097   -1.7727 C   0  0  1  0  0  0  0  0  0  0  0  0
    0.3796    0.6635   -0.2985 H   0  0  0  0  0  0  0  0  0  0  0  0
    1.7937   -0.0917    0.2428 H   0  0  0  0  0  0  0  0  0  0  0  0
   -1.3188   -0.7667   -0.5692 H   0  0  0  0  0  0  0  0  0  0  0  0
   -3.5063   -5.1950    0.2160 H   0  0  0  0  0  0  0  0  0  0  0  0
   -3.8607   -3.8762   -1.7844 H   0  0  0  0  0  0  0  0  0  0  0  0
   -1.4002   -2.0267   -4.1352 H   0  0  0  0  0  0  0  0  0  0  0  0
    0.2645   -0.9463   -2.4598 H   0  0  0  0  0  0  0  0  0  0  0  0
   -0.1797   -2.2960   -1.4045 H   0  0  0  0  0  0  0  0  0  0  0  0
    0.4985   -3.7500   -2.5268 H   0  0  0  0  0  0  0  0  0  0  0  0
   -2.1832   -0.1016   -2.1596 H   0  0  0  0  0  0  0  0  0  0  0  0
   -5.2825   -0.4373   -4.0743 H   0  0  0  0  0  0  0  0  0  0  0  0
   -4.2487   -2.0307   -5.7777 H   0  0  0  0  0  0  0  0  0  0  0  0
   -3.9150   -3.1588   -4.5044 H   0  0  0  0  0  0  0  0  0  0  0  0
   -6.8207   -2.3918   -2.8638 H   0  0  0  0  0  0  0  0  0  0  0  0
   -5.8407   -2.1442   -6.8446 H   0  0  0  0  0  0  0  0  0  0  0  0
   -3.8090   -1.2550   -0.7990 H   0  0  0  0  0  0  0  0  0  0  0  0
  1  2  1  0  0  0  0
  1 27  1  0  0  0  0
  1 28  1  0  0  0  0
  2  3  2  0  0  0  0
  2  8  1  0  0  0  0
  3  4  1  0  0  0  0
  4  5  2  0  0  0  0
  4  6  1  0  0  0  0
  6  7  2  0  0  0  0
  6 11  1  0  0  0  0
  7  8  1  0  0  0  0
  7  9  1  0  0  0  0
  8 29  1  0  0  0  0
  9 10  1  0  0  0  0
 10 11  2  0  0  0  0
 10 30  1  0  0  0  0
 12  9  1  0  0  0  0
 12 13  1  0  0  0  0
 12 26  1  0  0  0  0
 12 31  1  6  0  0  0
 13 14  1  0  0  0  0
 14 15  1  0  0  0  0
 14 17  1  0  0  0  0
 14 32  1  6  0  0  0
 15 16  1  0  0  0  0
 15 33  1  0  0  0  0
 15 34  1  0  0  0  0
 16 35  1  0  0  0  0
 17 18  1  0  0  0  0
 17 26  1  0  0  0  0
 17 36  1  1  0  0  0
 18 19  1  0  0  0  0
 19 20  1  0  0  0  0
 19 25  1  0  0  0  0
 19 37  1  6  0  0  0
 20 21  1  0  0  0  0
 20 38  1  0  0  0  0
 20 39  1  0  0  0  0
 21 22  1  0  0  0  0
 21 23  1  0  0  0  0
 21 24  2  0  0  0  0
 22 40  1  0  0  0  0
 23 41  1  0  0  0  0
 26 25  1  0  0  0  0
 26 42  1  1  0  0  0
M  END
>  <DRUGBANK_ID>
DB04754

>  <COMMON_NAME>
GUANOSINE-2',3'-O-ETHYLIDENEPHOSPHONATE

$$$$
