
 OpenBabel10282417143D

116119  0  0  1  0  0  0  0  0999 V2000
    1.7825    3.5988    0.0348 N   0  0  0  0  0  0  0  0  0  0  0  0
    2.3269    2.6545   -0.8175 C   0  0  0  0  0  0  0  0  0  0  0  0
    3.5468    2.7193   -0.6752 O   0  0  0  0  0  0  0  0  0  0  0  0
    1.6550    1.3968   -1.7822 C   0  0  2  0  0  0  0  0  0  0  0  0
    0.8684    0.5440   -0.9431 C   0  0  0  0  0  0  0  0  0  0  0  0
   -0.0978    1.5380   -0.3701 C   0  0  0  0  0  0  0  0  0  0  0  0
   -1.9757    2.5260   -1.0333 C   0  0  0  0  0  0  0  0  0  0  0  0
   -3.3630    1.8279   -1.2118 C   0  0  0  0  0  0  0  0  0  0  0  0
   -3.6706    0.6924    0.1029 N   0  0  0  0  0  0  0  0  0  0  0  0
   -2.8448   -0.1861    0.8223 C   0  0  0  0  0  0  0  0  0  0  0  0
   -1.3847   -0.9332    0.7607 N   0  0  0  0  0  0  0  0  0  0  0  0
   -3.3851   -1.0440    1.6524 N   0  0  0  0  0  0  0  0  0  0  0  0
    2.0415    0.4495   -2.8077 N   0  0  0  0  0  0  0  0  0  0  0  0
    1.7105    0.4161   -4.1487 C   0  0  0  0  0  0  0  0  0  0  0  0
    2.4060   -0.2416   -4.9226 O   0  0  0  0  0  0  0  0  0  0  0  0
    0.5799    1.2294   -4.7593 C   0  0  1  0  0  0  0  0  0  0  0  0
   -0.8477    1.0723   -4.4103 C   0  0  0  0  0  0  0  0  0  0  0  0
   -0.9727    1.4463   -2.9990 C   0  0  0  0  0  0  0  0  0  0  0  0
   -0.4665    2.7813   -2.3126 C   0  0  0  0  0  0  0  0  0  0  0  0
   -0.4639    3.3068   -0.6108 C   0  0  0  0  0  0  0  0  0  0  0  0
   -1.4075    2.1207    0.5140 C   0  0  0  0  0  0  0  0  0  0  0  0
   -1.4089    2.2693    1.8465 O   0  0  0  0  0  0  0  0  0  0  0  0
   -1.6687    0.6857   -0.7443 C   0  0  0  0  0  0  0  0  0  0  0  0
   -1.4612    0.4026   -2.2505 C   0  0  0  0  0  0  0  0  0  0  0  0
    0.9305    2.5136   -4.4755 N   0  0  0  0  0  0  0  0  0  0  0  0
    0.7003    3.4793   -5.2346 C   0  0  0  0  0  0  0  0  0  0  0  0
    0.9922    4.4108   -4.4334 O   0  0  0  0  0  0  0  0  0  0  0  0
    0.7931    2.9809   -7.1981 C   0  0  2  0  0  0  0  0  0  0  0  0
   -0.3349    2.2007   -7.6894 C   0  0  0  0  0  0  0  0  0  0  0  0
    0.7795    1.4283   -8.4896 C   0  0  0  0  0  0  0  0  0  0  0  0
    1.7943    1.9174   -7.5539 N   0  0  0  0  0  0  0  0  0  0  0  0
    3.1528    1.5987   -7.1998 C   0  0  0  0  0  0  0  0  0  0  0  0
    3.6994    0.5549   -7.5806 O   0  0  0  0  0  0  0  0  0  0  0  0
    4.0896    2.5486   -6.2363 C   0  0  1  0  0  0  0  0  0  0  0  0
    4.4104    4.0036   -6.7626 C   0  0  0  0  0  0  0  0  0  0  0  0
    3.2238    4.9259   -7.1753 C   0  0  0  0  0  0  0  0  0  0  0  0
    3.0552    6.2624   -6.4812 C   0  0  0  0  0  0  0  0  0  0  0  0
    1.6202    6.9179   -6.5937 C   0  0  0  0  0  0  0  0  0  0  0  0
    0.4069    6.3400   -5.9044 C   0  0  0  0  0  0  0  0  0  0  0  0
    0.3642    5.0710   -6.5975 C   0  0  0  0  0  0  0  0  0  0  0  0
    2.1550    4.4352   -6.3992 C   0  0  0  0  0  0  0  0  0  0  0  0
    3.6190    2.5651   -4.8829 N   0  0  0  0  0  0  0  0  0  0  0  0
    4.1779    2.3085   -3.7469 C   0  0  0  0  0  0  0  0  0  0  0  0
    3.4055    2.5743   -2.8601 O   0  0  0  0  0  0  0  0  0  0  0  0
    5.4869    1.7097   -3.6269 C   0  0  2  0  0  0  0  0  0  0  0  0
    5.3213    0.3051   -3.1931 C   0  0  0  0  0  0  0  0  0  0  0  0
    6.7582   -0.3100   -3.0935 C   0  0  0  0  0  0  0  0  0  0  0  0
    7.5740    0.4308   -2.0327 C   0  0  1  0  0  0  0  0  0  0  0  0
    7.6611    1.8854   -2.4846 C   0  0  0  0  0  0  0  0  0  0  0  0
    6.2920    2.5147   -2.6396 C   0  0  0  0  0  0  0  0  0  0  0  0
    6.9539    0.3042   -0.6145 C   0  0  0  0  0  0  0  0  0  0  0  0
    6.9090   -1.1114   -0.1802 N   0  0  0  0  0  0  0  0  0  0  0  0
    6.1015   -1.9960   -0.6443 C   0  0  0  0  0  0  0  0  0  0  0  0
    5.0805   -1.8358   -1.5078 N   0  0  0  0  0  0  0  0  0  0  0  0
    6.1292   -3.2777   -0.3023 N   0  0  0  0  0  0  0  0  0  0  0  0
    2.3758    4.3278    0.3592 H   0  0  0  0  0  0  0  0  0  0  0  0
    0.9042    3.7416    0.5314 H   0  0  0  0  0  0  0  0  0  0  0  0
    1.1476    1.8931   -2.5242 H   0  0  0  0  0  0  0  0  0  0  0  0
    0.3589   -0.2657   -1.4245 H   0  0  0  0  0  0  0  0  0  0  0  0
    1.4330    0.0049   -0.1902 H   0  0  0  0  0  0  0  0  0  0  0  0
   -0.1510    0.8484    0.8270 H   0  0  0  0  0  0  0  0  0  0  0  0
    0.5719    2.0510    0.5685 H   0  0  0  0  0  0  0  0  0  0  0  0
   -2.4128    3.4256   -0.0995 H   0  0  0  0  0  0  0  0  0  0  0  0
   -2.0126    3.6934   -1.5238 H   0  0  0  0  0  0  0  0  0  0  0  0
   -4.0357    2.4784   -1.7860 H   0  0  0  0  0  0  0  0  0  0  0  0
   -3.1989    1.3094   -2.1495 H   0  0  0  0  0  0  0  0  0  0  0  0
   -0.6632   -1.0294    1.4709 H   0  0  0  0  0  0  0  0  0  0  0  0
   -0.6942   -0.5636    0.1055 H   0  0  0  0  0  0  0  0  0  0  0  0
   -4.3705   -0.9654    1.7177 H   0  0  0  0  0  0  0  0  0  0  0  0
   -2.7242   -1.6293    2.1318 H   0  0  0  0  0  0  0  0  0  0  0  0
    2.7974   -0.0749   -2.4522 H   0  0  0  0  0  0  0  0  0  0  0  0
    0.6443    1.1314   -5.8223 H   0  0  0  0  0  0  0  0  0  0  0  0
   -1.5868    1.7282   -4.8866 H   0  0  0  0  0  0  0  0  0  0  0  0
   -1.0788    0.0232   -4.5916 H   0  0  0  0  0  0  0  0  0  0  0  0
    0.0281    3.5575   -2.8163 H   0  0  0  0  0  0  0  0  0  0  0  0
    0.0534    4.2237   -0.8005 H   0  0  0  0  0  0  0  0  0  0  0  0
   -0.6269    2.8455    1.9079 H   0  0  0  0  0  0  0  0  0  0  0  0
   -2.1628   -0.2979   -0.8233 H   0  0  0  0  0  0  0  0  0  0  0  0
   -1.9479   -0.5056   -2.6390 H   0  0  0  0  0  0  0  0  0  0  0  0
    1.2903    3.0629   -3.6879 H   0  0  0  0  0  0  0  0  0  0  0  0
    1.0688    3.7415   -8.0247 H   0  0  0  0  0  0  0  0  0  0  0  0
   -0.8562    1.8550   -6.8073 H   0  0  0  0  0  0  0  0  0  0  0  0
   -1.0434    2.8761   -8.1840 H   0  0  0  0  0  0  0  0  0  0  0  0
    0.6524    0.3637   -8.4856 H   0  0  0  0  0  0  0  0  0  0  0  0
    0.8852    1.8891   -9.4776 H   0  0  0  0  0  0  0  0  0  0  0  0
    5.0594    2.0756   -6.1266 H   0  0  0  0  0  0  0  0  0  0  0  0
    4.9971    4.5455   -6.0040 H   0  0  0  0  0  0  0  0  0  0  0  0
    4.9913    3.8569   -7.6642 H   0  0  0  0  0  0  0  0  0  0  0  0
    2.9434    4.7960   -8.2128 H   0  0  0  0  0  0  0  0  0  0  0  0
    3.3038    6.1717   -5.3996 H   0  0  0  0  0  0  0  0  0  0  0  0
    3.7831    6.8660   -6.9736 H   0  0  0  0  0  0  0  0  0  0  0  0
    1.6952    7.8922   -6.1612 H   0  0  0  0  0  0  0  0  0  0  0  0
    1.3747    6.9085   -7.6591 H   0  0  0  0  0  0  0  0  0  0  0  0
    0.5166    6.3144   -4.8141 H   0  0  0  0  0  0  0  0  0  0  0  0
   -0.6061    6.7101   -6.0523 H   0  0  0  0  0  0  0  0  0  0  0  0
   -0.5507    4.4804   -6.1416 H   0  0  0  0  0  0  0  0  0  0  0  0
   -0.0822    5.0346   -7.6048 H   0  0  0  0  0  0  0  0  0  0  0  0
    2.2829    3.3702   -6.3224 H   0  0  0  0  0  0  0  0  0  0  0  0
    2.6154    4.4624   -5.4028 H   0  0  0  0  0  0  0  0  0  0  0  0
    2.6892    2.8154   -4.5862 H   0  0  0  0  0  0  0  0  0  0  0  0
    5.9482    1.6592   -4.5924 H   0  0  0  0  0  0  0  0  0  0  0  0
    4.7369    0.4302   -2.2517 H   0  0  0  0  0  0  0  0  0  0  0  0
    4.6852   -0.3199   -3.8309 H   0  0  0  0  0  0  0  0  0  0  0  0
    6.8374   -1.3688   -2.8457 H   0  0  0  0  0  0  0  0  0  0  0  0
    7.2133   -0.3224   -4.0853 H   0  0  0  0  0  0  0  0  0  0  0  0
    8.5814   -0.0027   -2.0042 H   0  0  0  0  0  0  0  0  0  0  0  0
    8.2469    2.4681   -1.7777 H   0  0  0  0  0  0  0  0  0  0  0  0
    8.1552    1.9089   -3.4639 H   0  0  0  0  0  0  0  0  0  0  0  0
    6.3724    3.5316   -3.0223 H   0  0  0  0  0  0  0  0  0  0  0  0
    5.7965    2.5807   -1.6620 H   0  0  0  0  0  0  0  0  0  0  0  0
    7.5847    0.8951    0.0728 H   0  0  0  0  0  0  0  0  0  0  0  0
    5.9682    0.7759   -0.5481 H   0  0  0  0  0  0  0  0  0  0  0  0
    4.9853   -2.3580   -2.3813 H   0  0  0  0  0  0  0  0  0  0  0  0
    5.3245   -0.9366   -1.7988 H   0  0  0  0  0  0  0  0  0  0  0  0
    6.6435   -3.5375    0.5179 H   0  0  0  0  0  0  0  0  0  0  0  0
    5.5419   -3.9341   -0.7873 H   0  0  0  0  0  0  0  0  0  0  0  0
  1  2  1  0  0  0  0
  1 56  1  0  0  0  0
  1 57  1  0  0  0  0
  2  3  2  0  0  0  0
  4 13  1  0  0  0  0
  4 58  1  6  0  0  0
  4  5  1  0  0  0  0
  4  2  1  0  0  0  0
  5  6  1  0  0  0  0
  5 59  1  0  0  0  0
  5 60  1  0  0  0  0
  6  7  1  0  0  0  0
  6 61  1  0  0  0  0
  6 62  1  0  0  0  0
  7  8  1  0  0  0  0
  7 63  1  0  0  0  0
  7 64  1  0  0  0  0
  8  9  1  0  0  0  0
  8 65  1  0  0  0  0
  8 66  1  0  0  0  0
  9 10  2  0  0  0  0
 10 11  1  0  0  0  0
 10 12  1  0  0  0  0
 11 67  1  0  0  0  0
 11 68  1  0  0  0  0
 12 69  1  0  0  0  0
 12 70  1  0  0  0  0
 13 14  1  0  0  0  0
 13 71  1  0  0  0  0
 14 15  2  0  0  0  0
 14 16  1  0  0  0  0
 16 17  1  0  0  0  0
 16 25  1  0  0  0  0
 16 72  1  6  0  0  0
 17 18  1  0  0  0  0
 17 73  1  0  0  0  0
 17 74  1  0  0  0  0
 18 19  2  0  0  0  0
 18 24  1  0  0  0  0
 19 20  1  0  0  0  0
 19 75  1  0  0  0  0
 20 21  2  0  0  0  0
 20 76  1  0  0  0  0
 21 22  1  0  0  0  0
 21 23  1  0  0  0  0
 22 77  1  0  0  0  0
 23 24  2  0  0  0  0
 23 78  1  0  0  0  0
 24 79  1  0  0  0  0
 25 26  1  0  0  0  0
 25 80  1  0  0  0  0
 26 27  2  0  0  0  0
 28 26  1  0  0  0  0
 28 29  1  0  0  0  0
 28 31  1  0  0  0  0
 28 81  1  6  0  0  0
 29 30  1  0  0  0  0
 29 82  1  0  0  0  0
 29 83  1  0  0  0  0
 30 31  1  0  0  0  0
 30 84  1  0  0  0  0
 30 85  1  0  0  0  0
 31 32  1  0  0  0  0
 32 33  2  0  0  0  0
 32 34  1  0  0  0  0
 34 35  1  0  0  0  0
 34 42  1  0  0  0  0
 34 86  1  1  0  0  0
 35 36  1  0  0  0  0
 35 87  1  0  0  0  0
 35 88  1  0  0  0  0
 36 37  1  0  0  0  0
 36 41  1  0  0  0  0
 36 89  1  0  0  0  0
 37 38  1  0  0  0  0
 37 90  1  0  0  0  0
 37 91  1  0  0  0  0
 38 39  1  0  0  0  0
 38 92  1  0  0  0  0
 38 93  1  0  0  0  0
 39 40  1  0  0  0  0
 39 94  1  0  0  0  0
 39 95  1  0  0  0  0
 40 41  1  0  0  0  0
 40 96  1  0  0  0  0
 40 97  1  0  0  0  0
 41 98  1  0  0  0  0
 41 99  1  0  0  0  0
 42 43  1  0  0  0  0
 42100  1  0  0  0  0
 43 44  2  0  0  0  0
 45 43  1  0  0  0  0
 45 46  1  0  0  0  0
 45 50  1  0  0  0  0
 45101  1  6  0  0  0
 46 47  1  0  0  0  0
 46102  1  0  0  0  0
 46103  1  0  0  0  0
 47 48  1  0  0  0  0
 47104  1  0  0  0  0
 47105  1  0  0  0  0
 48 49  1  0  0  0  0
 48 51  1  0  0  0  0
 48106  1  1  0  0  0
 49 50  1  0  0  0  0
 49107  1  0  0  0  0
 49108  1  0  0  0  0
 50109  1  0  0  0  0
 50110  1  0  0  0  0
 51 52  1  0  0  0  0
 51111  1  0  0  0  0
 51112  1  0  0  0  0
 52 53  2  0  0  0  0
 53 54  1  0  0  0  0
 53 55  1  0  0  0  0
 54113  1  0  0  0  0
 54114  1  0  0  0  0
 55115  1  0  0  0  0
 55116  1  0  0  0  0
M  END
>  <DRUGBANK_ID>
DB04697

>  <COMMON_NAME>
TRANS-4-(GUANIDINOMETHYL)-CYCLOHEXANE-L-YL-D-3-CYCLOHEXYLALANYL-L-AZETIDINE-2-YL-D-TYROSINYL-L-HOMOARGININAMIDE

$$$$
