
 OpenBabel10282417183D

 26 23  0  0  0  0  0  0  0  0999 V2000
    1.1746    0.2229   -1.0739 N   0  0  0  0  0  0  0  0  0  0  0  0
    0.4887   -1.5478   -1.3696 Fe  0  1  0  0  0  0  0  0  0  0  0  0
    1.3450   -0.3119    1.3284 O   0  0  0  0  0  0  0  0  0  0  0  0
    0.4797   -1.3566    1.3727 C   0  0  0  0  0  0  0  0  0  0  0  0
    0.8282   -2.3349    0.8098 O   0  0  0  0  0  0  0  0  0  0  0  0
   -1.0130   -1.0159    1.2686 C   0  0  0  0  0  0  0  0  0  0  0  0
   -1.5874    0.3721    1.5388 C   0  0  0  0  0  0  0  0  0  0  0  0
   -0.9850    1.1144    0.4395 O   0  0  0  0  0  0  0  0  0  0  0  0
   -3.1390    0.3839    1.4082 C   0  0  0  0  0  0  0  0  0  0  0  0
   -3.8029   -0.6666    2.2808 C   0  0  0  0  0  0  0  0  0  0  0  0
   -4.3740   -0.4836    3.3117 O   0  0  0  0  0  0  0  0  0  0  0  0
   -3.5771   -1.9218    1.8124 O   0  0  0  0  0  0  0  0  0  0  0  0
   -1.1417    0.7363    2.9551 C   0  0  0  0  0  0  0  0  0  0  0  0
   -0.4436   -0.0018    3.6343 O   0  0  0  0  0  0  0  0  0  0  0  0
   -1.4854    1.9607    3.3414 O   0  0  0  0  0  0  0  0  0  0  0  0
    1.2314    0.8778   -1.9149 H   0  0  0  0  0  0  0  0  0  0  0  0
    0.6137    0.6964   -0.2547 H   0  0  0  0  0  0  0  0  0  0  0  0
    1.9300    0.9171   -0.6704 H   0  0  0  0  0  0  0  0  0  0  0  0
    2.2865   -0.6338    1.4040 H   0  0  0  0  0  0  0  0  0  0  0  0
   -1.2511   -1.2116    0.2116 H   0  0  0  0  0  0  0  0  0  0  0  0
   -1.4622   -1.7998    1.8598 H   0  0  0  0  0  0  0  0  0  0  0  0
   -0.7690    2.0062    0.8148 H   0  0  0  0  0  0  0  0  0  0  0  0
   -3.5673    1.3557    1.6883 H   0  0  0  0  0  0  0  0  0  0  0  0
   -3.4718    0.2261    0.3720 H   0  0  0  0  0  0  0  0  0  0  0  0
   -3.9574   -2.4941    2.5288 H   0  0  0  0  0  0  0  0  0  0  0  0
   -1.2244    2.0359    4.2943 H   0  0  0  0  0  0  0  0  0  0  0  0
  1 16  1  0  0  0  0
  1 17  1  0  0  0  0
  1 18  1  0  0  0  0
  3  4  1  0  0  0  0
  3 19  1  0  0  0  0
  4  5  2  0  0  0  0
  4  6  1  0  0  0  0
  6  7  1  0  0  0  0
  6 20  1  0  0  0  0
  6 21  1  0  0  0  0
  7  8  1  0  0  0  0
  7  9  1  0  0  0  0
  7 13  1  0  0  0  0
  8 22  1  0  0  0  0
  9 10  1  0  0  0  0
  9 23  1  0  0  0  0
  9 24  1  0  0  0  0
 10 11  2  0  0  0  0
 10 12  1  0  0  0  0
 12 25  1  0  0  0  0
 13 14  2  0  0  0  0
 13 15  1  0  0  0  0
 15 26  1  0  0  0  0
M  CHG  1   2   3
M  END
>  <DRUGBANK_ID>
DB09501

>  <COMMON_NAME>
Ferric ammonium citrate

>  <CAS_NUMBER>
1185-57-5

>  <UNII>
UVP74NG1C5

>  <SYNONYMS>
Ferric ammonium citrate; Ferric ammonium citrate, green

$$$$
