
 OpenBabel10282417153D

 46 48  0  0  1  0  0  0  0  0999 V2000
    0.3419    1.2988   -0.0371 C   0  0  0  0  0  0  0  0  0  0  0  0
    1.7223    1.2974   -0.0117 C   0  0  0  0  0  0  0  0  0  0  0  0
    2.3868    0.0910    0.0847 C   0  0  0  0  0  0  0  0  0  0  0  0
    1.6689   -1.1030    0.0990 C   0  0  0  0  0  0  0  0  0  0  0  0
    0.2669   -1.1489   -0.0008 C   0  0  0  0  0  0  0  0  0  0  0  0
   -0.3850    0.0992    0.0327 C   0  0  0  0  0  0  0  0  0  0  0  0
    1.1517   -3.7931   -1.5126 C   0  0  0  0  0  0  0  0  0  0  0  0
   -0.1181   -3.2071   -1.3974 N   0  0  0  0  0  0  0  0  0  0  0  0
   -0.4065   -2.5174   -0.1218 C   0  0  0  0  0  0  0  0  0  0  0  0
    1.5415   -4.1998   -2.7700 N   0  0  0  0  0  0  0  0  0  0  0  0
    0.6571   -4.3503   -3.8059 C   0  0  0  0  0  0  0  0  0  0  0  0
   -0.7335   -3.9482   -3.5366 C   0  0  0  0  0  0  0  0  0  0  0  0
   -1.1066   -3.3773   -2.3769 C   0  0  0  0  0  0  0  0  0  0  0  0
   -1.7624    0.3459    0.2974 C   0  0  0  0  0  0  0  0  0  0  0  0
   -2.8230    0.7460    0.5587 N   0  0  0  0  0  0  0  0  0  0  0  0
    1.9015   -3.9476   -0.5454 O   0  0  0  0  0  0  0  0  0  0  0  0
    2.9198   -4.6164   -2.9818 C   0  0  0  0  0  0  0  0  0  0  0  0
    0.9527   -4.8163   -4.9043 O   0  0  0  0  0  0  0  0  0  0  0  0
   -2.4582   -3.0240   -2.1795 N   0  0  0  0  0  0  0  0  0  0  0  0
   -2.9199   -1.6500   -1.9532 C   0  0  0  0  0  0  0  0  0  0  0  0
   -3.8086   -1.6026   -0.7036 C   0  0  0  0  0  0  0  0  0  0  0  0
   -4.9560   -2.5645   -0.7522 C   0  0  0  0  0  0  0  0  0  0  0  0
   -4.4509   -3.9693   -1.0480 C   0  0  2  0  0  0  0  0  0  0  0  0
   -3.5938   -3.9643   -2.3463 C   0  0  0  0  0  0  0  0  0  0  0  0
   -5.6566   -4.7956   -1.1232 N   0  0  0  0  0  0  0  0  0  0  0  0
   -0.1934    2.2486   -0.0521 H   0  0  0  0  0  0  0  0  0  0  0  0
    2.2633    2.2357   -0.0075 H   0  0  0  0  0  0  0  0  0  0  0  0
    3.4689    0.0585    0.1576 H   0  0  0  0  0  0  0  0  0  0  0  0
    2.2551   -2.0055    0.2253 H   0  0  0  0  0  0  0  0  0  0  0  0
   -0.1096   -3.1591    0.7173 H   0  0  0  0  0  0  0  0  0  0  0  0
   -1.4725   -2.4222   -0.0029 H   0  0  0  0  0  0  0  0  0  0  0  0
   -1.4203   -4.1024   -4.3587 H   0  0  0  0  0  0  0  0  0  0  0  0
    2.9417   -5.6834   -3.2233 H   0  0  0  0  0  0  0  0  0  0  0  0
    3.3353   -4.0597   -3.8288 H   0  0  0  0  0  0  0  0  0  0  0  0
    3.5566   -4.4366   -2.1096 H   0  0  0  0  0  0  0  0  0  0  0  0
   -2.0667   -0.9732   -1.8852 H   0  0  0  0  0  0  0  0  0  0  0  0
   -3.4994   -1.2942   -2.8123 H   0  0  0  0  0  0  0  0  0  0  0  0
   -3.2609   -1.8395    0.2149 H   0  0  0  0  0  0  0  0  0  0  0  0
   -4.2557   -0.6159   -0.5954 H   0  0  0  0  0  0  0  0  0  0  0  0
   -5.4745   -2.5299    0.2161 H   0  0  0  0  0  0  0  0  0  0  0  0
   -5.6605   -2.2215   -1.5173 H   0  0  0  0  0  0  0  0  0  0  0  0
   -3.8199   -4.3016   -0.2098 H   0  0  0  0  0  0  0  0  0  0  0  0
   -4.2140   -3.6310   -3.1895 H   0  0  0  0  0  0  0  0  0  0  0  0
   -3.2473   -4.9788   -2.5666 H   0  0  0  0  0  0  0  0  0  0  0  0
   -6.3573   -4.4119   -0.4841 H   0  0  0  0  0  0  0  0  0  0  0  0
   -5.4552   -5.7284   -0.7711 H   0  0  0  0  0  0  0  0  0  0  0  0
  1  2  2  0  0  0  0
  1  6  1  0  0  0  0
  1 26  1  0  0  0  0
  2  3  1  0  0  0  0
  2 27  1  0  0  0  0
  3  4  2  0  0  0  0
  3 28  1  0  0  0  0
  4  5  1  0  0  0  0
  4 29  1  0  0  0  0
  5  6  2  0  0  0  0
  5  9  1  0  0  0  0
  6 14  1  0  0  0  0
  7  8  1  0  0  0  0
  7 10  1  0  0  0  0
  7 16  2  0  0  0  0
  8  9  1  0  0  0  0
  8 13  1  0  0  0  0
  9 30  1  0  0  0  0
  9 31  1  0  0  0  0
 10 11  1  0  0  0  0
 10 17  1  0  0  0  0
 11 12  1  0  0  0  0
 11 18  2  0  0  0  0
 12 13  2  0  0  0  0
 12 32  1  0  0  0  0
 13 19  1  0  0  0  0
 14 15  3  0  0  0  0
 17 33  1  0  0  0  0
 17 34  1  0  0  0  0
 17 35  1  0  0  0  0
 19 20  1  0  0  0  0
 19 24  1  0  0  0  0
 20 21  1  0  0  0  0
 20 36  1  0  0  0  0
 20 37  1  0  0  0  0
 21 22  1  0  0  0  0
 21 38  1  0  0  0  0
 21 39  1  0  0  0  0
 22 23  1  0  0  0  0
 22 40  1  0  0  0  0
 22 41  1  0  0  0  0
 23 24  1  0  0  0  0
 23 42  1  1  0  0  0
 23 25  1  0  0  0  0
 24 43  1  0  0  0  0
 24 44  1  0  0  0  0
 25 45  1  0  0  0  0
 25 46  1  0  0  0  0
M  END
>  <DRUGBANK_ID>
DB06203

>  <COMMON_NAME>
Alogliptin

>  <CAS_NUMBER>
850649-61-5

>  <UNII>
JHC049LO86

>  <SYNONYMS>
Alogliptin; Alogliptina; Alogliptine; Alogliptinum

$$$$
