
 OpenBabel10282417143D

 52 54  0  0  1  0  0  0  0  0999 V2000
    1.6256    1.9486    0.6493 O   0  0  0  0  0  0  0  0  0  0  0  0
    5.2576    5.5282   -3.4402 O   0  0  0  0  0  0  0  0  0  0  0  0
    2.3283    2.7458   -2.2822 N   0  0  0  0  0  0  0  0  0  0  0  0
    2.4279    1.2923   -2.0068 C   0  0  1  0  0  0  0  0  0  0  0  0
    2.4875    3.3059   -3.5662 C   0  0  2  0  0  0  0  0  0  0  0  0
    3.0515    0.4313   -3.0804 C   0  0  0  0  0  0  0  0  0  0  0  0
    3.1097    2.3948   -4.5952 C   0  0  0  0  0  0  0  0  0  0  0  0
    2.6234    0.9684   -4.4072 C   0  0  0  0  0  0  0  0  0  0  0  0
    3.0802    0.6374   -0.7824 C   0  0  0  0  0  0  0  0  0  0  0  0
    3.0670    4.7229   -3.6170 C   0  0  0  0  0  0  0  0  0  0  0  0
    1.5454    3.7530   -1.3970 C   0  0  0  0  0  0  0  0  0  0  0  0
    3.1335    1.5914    0.2752 C   0  0  1  0  0  0  0  0  0  0  0  0
    4.2400    5.2157   -2.8074 C   0  0  0  0  0  0  0  0  0  0  0  0
    4.7618    2.8645    0.1949 C   0  0  0  0  0  0  0  0  0  0  0  0
    4.0427    5.3960   -1.1786 C   0  0  0  0  0  0  0  0  0  0  0  0
    5.4643    2.5720   -1.1079 C   0  0  0  0  0  0  0  0  0  0  0  0
    3.9542    4.5051    1.1432 C   0  0  0  0  0  0  0  0  0  0  0  0
    3.3195    3.7960   -0.2607 C   0  0  0  0  0  0  0  0  0  0  0  0
    5.3901    6.5120   -0.2953 C   0  0  0  0  0  0  0  0  0  0  0  0
    6.1762    3.6461   -1.3813 C   0  0  0  0  0  0  0  0  0  0  0  0
    4.4461    5.4060    0.6956 C   0  0  0  0  0  0  0  0  0  0  0  0
    5.8603    4.6380   -0.4241 C   0  0  0  0  0  0  0  0  0  0  0  0
    3.7587    2.9575    1.5969 C   0  0  0  0  0  0  0  0  0  0  0  0
    6.1501    5.5877    1.3300 C   0  0  0  0  0  0  0  0  0  0  0  0
    5.4183    3.9166    2.1100 C   0  0  0  0  0  0  0  0  0  0  0  0
    1.1016    2.1897   -0.1353 H   0  0  0  0  0  0  0  0  0  0  0  0
    1.3650    1.1517   -1.9109 H   0  0  0  0  0  0  0  0  0  0  0  0
    1.4135    3.3661   -3.7076 H   0  0  0  0  0  0  0  0  0  0  0  0
    4.1540    0.4007   -3.0057 H   0  0  0  0  0  0  0  0  0  0  0  0
    2.6934   -0.5938   -2.9140 H   0  0  0  0  0  0  0  0  0  0  0  0
    4.2074    2.4293   -4.5640 H   0  0  0  0  0  0  0  0  0  0  0  0
    2.7654    2.7713   -5.5595 H   0  0  0  0  0  0  0  0  0  0  0  0
    3.0259    0.3322   -5.1855 H   0  0  0  0  0  0  0  0  0  0  0  0
    1.5289    0.9566   -4.4248 H   0  0  0  0  0  0  0  0  0  0  0  0
    4.1345    0.3521   -0.7590 H   0  0  0  0  0  0  0  0  0  0  0  0
    2.4453   -0.1726   -0.3923 H   0  0  0  0  0  0  0  0  0  0  0  0
    3.3305    4.9340   -4.6588 H   0  0  0  0  0  0  0  0  0  0  0  0
    2.3058    5.4306   -3.3036 H   0  0  0  0  0  0  0  0  0  0  0  0
    1.9263    4.8096   -1.4262 H   0  0  0  0  0  0  0  0  0  0  0  0
    0.5158    3.6453   -1.3459 H   0  0  0  0  0  0  0  0  0  0  0  0
    1.6201    3.6411   -0.2822 H   0  0  0  0  0  0  0  0  0  0  0  0
    3.0962    0.9334    1.2061 H   0  0  0  0  0  0  0  0  0  0  0  0
    4.8447    2.2640   -1.9947 H   0  0  0  0  0  0  0  0  0  0  0  0
    3.3038    4.5951    2.1260 H   0  0  0  0  0  0  0  0  0  0  0  0
    3.4933    3.1017   -1.0833 H   0  0  0  0  0  0  0  0  0  0  0  0
    5.6970    7.2807   -0.9796 H   0  0  0  0  0  0  0  0  0  0  0  0
    6.2446    4.0885   -2.3844 H   0  0  0  0  0  0  0  0  0  0  0  0
    4.3358    6.2586    1.3976 H   0  0  0  0  0  0  0  0  0  0  0  0
    6.7590    5.4262   -0.6949 H   0  0  0  0  0  0  0  0  0  0  0  0
    4.1490    1.9234    1.8383 H   0  0  0  0  0  0  0  0  0  0  0  0
    6.5389    6.2014    2.1133 H   0  0  0  0  0  0  0  0  0  0  0  0
    5.1550    3.9654    3.1775 H   0  0  0  0  0  0  0  0  0  0  0  0
  1 26  1  0  0  0  0
  2 13  2  0  0  0  0
  3  4  1  0  0  0  0
  3  5  1  0  0  0  0
  3 11  1  0  0  0  0
  4  6  1  0  0  0  0
  4 27  1  1  0  0  0
  4  9  1  0  0  0  0
  5  7  1  0  0  0  0
  5 28  1  6  0  0  0
  5 10  1  0  0  0  0
  6  8  1  0  0  0  0
  6 29  1  0  0  0  0
  6 30  1  0  0  0  0
  7  8  1  0  0  0  0
  7 31  1  0  0  0  0
  7 32  1  0  0  0  0
  8 33  1  0  0  0  0
  8 34  1  0  0  0  0
  9 12  1  0  0  0  0
  9 35  1  0  0  0  0
  9 36  1  0  0  0  0
 10 13  1  0  0  0  0
 10 37  1  0  0  0  0
 10 38  1  0  0  0  0
 11 39  1  0  0  0  0
 11 40  1  0  0  0  0
 11 41  1  0  0  0  0
 12  1  1  0  0  0  0
 12 14  1  0  0  0  0
 12 42  1  1  0  0  0
 13 15  1  0  0  0  0
 14 16  2  0  0  0  0
 14 17  1  0  0  0  0
 15 18  2  0  0  0  0
 15 19  1  0  0  0  0
 16 20  1  0  0  0  0
 16 43  1  0  0  0  0
 17 21  2  0  0  0  0
 17 44  1  0  0  0  0
 18 23  1  0  0  0  0
 18 45  1  0  0  0  0
 19 24  2  0  0  0  0
 19 46  1  0  0  0  0
 20 22  2  0  0  0  0
 20 47  1  0  0  0  0
 21 22  1  0  0  0  0
 21 48  1  0  0  0  0
 22 49  1  0  0  0  0
 23 25  2  0  0  0  0
 23 50  1  0  0  0  0
 24 25  1  0  0  0  0
 24 51  1  0  0  0  0
 25 52  1  0  0  0  0
M  END
>  <DRUGBANK_ID>
DB05137

>  <COMMON_NAME>
Lobeline

>  <CAS_NUMBER>
90-69-7

>  <UNII>
D0P25S3P81

>  <SYNONYMS>
Lobelina; Lobeline

$$$$
