
 OpenBabel10282417133D

 81 88  0  0  1  0  0  0  0  0999 V2000
    4.0538    9.5911    8.1283 C   0  0  0  0  0  0  0  0  0  0  0  0
    2.1973   12.9537   -0.4493 C   0  0  0  0  0  0  0  0  0  0  0  0
    2.4831   10.4829    0.2194 C   0  0  0  0  0  0  0  0  0  0  0  0
   -4.1318    6.9543    2.5166 C   0  0  0  0  0  0  0  0  0  0  0  0
    3.8527    7.0370    6.3986 C   0  0  0  0  0  0  0  0  0  0  0  0
    5.1761   13.9481   -0.3469 C   0  0  0  0  0  0  0  0  0  0  0  0
    3.1024    5.7815    6.8125 C   0  0  0  0  0  0  0  0  0  0  0  0
    5.6142   15.3590    0.0107 C   0  0  0  0  0  0  0  0  0  0  0  0
   -3.5311    7.5435    5.7102 C   0  0  0  0  0  0  0  0  0  0  0  0
    6.5172   13.6160    2.2423 C   0  0  0  0  0  0  0  0  0  0  0  0
    1.6509   11.5326    2.9850 C   0  0  0  0  0  0  0  0  0  0  0  0
   -1.2752    7.6746    2.2174 C   0  0  0  0  0  0  0  0  0  0  0  0
    3.0171    8.6830    1.7328 C   0  0  0  0  0  0  0  0  0  0  0  0
   -2.5395    5.3247    3.5013 C   0  0  0  0  0  0  0  0  0  0  0  0
    3.0087    9.3390    7.0537 C   0  0  0  0  0  0  0  0  0  0  0  0
    3.1390   12.8971    0.7424 C   0  0  0  0  0  0  0  0  0  0  0  0
    2.8753    8.1949    6.2787 C   0  0  0  0  0  0  0  0  0  0  0  0
    4.4561   13.3255    0.8382 C   0  0  0  0  0  0  0  0  0  0  0  0
    1.6330   10.3251    6.4905 C   0  0  0  0  0  0  0  0  0  0  0  0
    2.8401   12.2630    2.3828 C   0  0  0  0  0  0  0  0  0  0  0  0
    1.8223    8.1554    5.3997 C   0  0  0  0  0  0  0  0  0  0  0  0
    5.0794   13.1620    2.0497 C   0  0  0  0  0  0  0  0  0  0  0  0
   -2.4064    8.5490    5.5246 C   0  0  0  0  0  0  0  0  0  0  0  0
   -0.2221    8.5693    1.9636 C   0  0  0  0  0  0  0  0  0  0  0  0
    1.2511   10.3402    2.4662 C   0  0  0  0  0  0  0  0  0  0  0  0
   -1.9239    7.7245    3.3491 C   0  0  0  0  0  0  0  0  0  0  0  0
    2.0513    5.4510    5.7654 C   0  0  0  0  0  0  0  0  0  0  0  0
    6.5528   15.3106    1.2054 C   0  0  0  0  0  0  0  0  0  0  0  0
    2.5377    7.7832    2.8601 C   0  0  0  0  0  0  0  0  0  0  0  0
   -1.4735    5.1187    4.5651 C   0  0  0  0  0  0  0  0  0  0  0  0
   -3.6684    6.9901    4.9548 C   0  0  0  0  0  0  0  0  0  0  0  0
    0.6805    8.7404    0.7649 C   0  0  0  0  0  0  0  0  0  0  0  0
    1.8747    9.5759    1.2766 C   0  0  1  0  0  0  0  0  0  0  0  0
   -3.0659    6.7484    3.5804 C   0  0  1  0  0  0  0  0  0  0  0  0
   -0.6411    9.4644    4.1270 Fe  0  0  3  0  0  0  0  0  0  0  0  0
    0.9820    9.2223    5.3219 N   0  0  0  0  0  0  0  0  0  0  0  0
    4.3953   12.5890    3.0763 N   0  0  0  0  0  0  0  0  0  0  0  0
   -1.6346    8.5658    4.2736 N   0  0  0  0  0  0  0  0  0  0  0  0
    0.1018    9.4765    2.9279 N   0  3  0  0  0  0  0  0  0  0  0  0
    2.0984    4.2084    5.0797 O   0  0  0  0  0  0  0  0  0  0  0  0
    1.1303    6.2868    5.5037 O   0  0  0  0  0  0  0  0  0  0  0  0
    7.8774   15.8085    1.0882 O   0  0  0  0  0  0  0  0  0  0  0  0
    6.1519   14.8245    2.3091 O   0  0  0  0  0  0  0  0  0  0  0  0
    2.5811    6.3719    2.7094 O   0  0  0  0  0  0  0  0  0  0  0  0
    2.0981    8.2939    3.9376 O   0  0  0  0  0  0  0  0  0  0  0  0
   -1.6507    4.1260    5.5649 O   0  0  0  0  0  0  0  0  0  0  0  0
   -0.4237    5.8350    4.5598 O   0  0  0  0  0  0  0  0  0  0  0  0
   -4.7575    6.1963    5.4022 O   0  5  0  0  0  0  0  0  0  0  0  0
    0.4971    8.2936   -0.4106 O   0  0  0  0  0  0  0  0  0  0  0  0
    3.6773   10.3043    8.8315 H   0  0  0  0  0  0  0  0  0  0  0  0
    4.9454    9.9724    7.6762 H   0  0  0  0  0  0  0  0  0  0  0  0
    4.2741    8.6741    8.6336 H   0  0  0  0  0  0  0  0  0  0  0  0
    1.8888   11.9622   -0.7076 H   0  0  0  0  0  0  0  0  0  0  0  0
    1.3385   13.5403   -0.1977 H   0  0  0  0  0  0  0  0  0  0  0  0
    2.7016   13.3985   -1.2817 H   0  0  0  0  0  0  0  0  0  0  0  0
    3.2798   11.0509    0.6524 H   0  0  0  0  0  0  0  0  0  0  0  0
    2.8648    9.8881   -0.5840 H   0  0  0  0  0  0  0  0  0  0  0  0
    1.7330   11.1481   -0.1544 H   0  0  0  0  0  0  0  0  0  0  0  0
   -3.7077    6.7842    1.5491 H   0  0  0  0  0  0  0  0  0  0  0  0
   -4.9357    6.2672    2.6795 H   0  0  0  0  0  0  0  0  0  0  0  0
   -4.5024    7.9566    2.5723 H   0  0  0  0  0  0  0  0  0  0  0  0
    4.3289    6.8730    5.4545 H   0  0  0  0  0  0  0  0  0  0  0  0
    4.5926    7.2696    7.1357 H   0  0  0  0  0  0  0  0  0  0  0  0
    6.0351   13.3592   -0.5919 H   0  0  0  0  0  0  0  0  0  0  0  0
    4.5154   13.9822   -1.1878 H   0  0  0  0  0  0  0  0  0  0  0  0
    3.7904    4.9664    6.8969 H   0  0  0  0  0  0  0  0  0  0  0  0
    2.6262    5.9455    7.7565 H   0  0  0  0  0  0  0  0  0  0  0  0
    6.1210   15.7973   -0.8235 H   0  0  0  0  0  0  0  0  0  0  0  0
    4.7551   15.9479    0.2557 H   0  0  0  0  0  0  0  0  0  0  0  0
   -4.0929    7.5313    6.6208 H   0  0  0  0  0  0  0  0  0  0  0  0
    7.0495   14.0660    1.4304 H   0  0  0  0  0  0  0  0  0  0  0  0
    1.1281   11.9563    3.8169 H   0  0  0  0  0  0  0  0  0  0  0  0
   -1.5468    6.9488    1.4796 H   0  0  0  0  0  0  0  0  0  0  0  0
    3.3489    8.0813    0.9126 H   0  0  0  0  0  0  0  0  0  0  0  0
    3.8270    9.2897    2.0806 H   0  0  0  0  0  0  0  0  0  0  0  0
   -3.3434    4.6376    3.6641 H   0  0  0  0  0  0  0  0  0  0  0  0
   -2.1153    5.1545    2.5338 H   0  0  0  0  0  0  0  0  0  0  0  0
    2.8230    3.5508    5.2857 H   0  0  0  0  0  0  0  0  0  0  0  0
    8.1928   16.1909    0.2197 H   0  0  0  0  0  0  0  0  0  0  0  0
    2.9271    5.9700    1.8615 H   0  0  0  0  0  0  0  0  0  0  0  0
   -2.4767    3.5624    5.5690 H   0  0  0  0  0  0  0  0  0  0  0  0
  1 50  1  0  0  0  0
  1 51  1  0  0  0  0
  1 52  1  0  0  0  0
  2 53  1  0  0  0  0
  2 54  1  0  0  0  0
  2 55  1  0  0  0  0
  3 56  1  0  0  0  0
  3 57  1  0  0  0  0
  3 58  1  0  0  0  0
  4 59  1  0  0  0  0
  4 60  1  0  0  0  0
  4 61  1  0  0  0  0
  5 62  1  0  0  0  0
  5 63  1  0  0  0  0
  6 64  1  0  0  0  0
  6 65  1  0  0  0  0
  7  5  1  0  0  0  0
  7 66  1  0  0  0  0
  7 67  1  0  0  0  0
  8  6  1  0  0  0  0
  8 68  1  0  0  0  0
  8 69  1  0  0  0  0
  9 70  1  0  0  0  0
 10 71  1  0  0  0  0
 11 72  1  0  0  0  0
 12 73  1  0  0  0  0
 13 74  1  0  0  0  0
 13 75  1  0  0  0  0
 14 76  1  0  0  0  0
 14 77  1  0  0  0  0
 15  1  1  0  0  0  0
 16  2  1  0  0  0  0
 17  5  1  0  0  0  0
 17 15  2  0  0  0  0
 18  6  1  0  0  0  0
 18 16  1  0  0  0  0
 19  9  2  0  0  0  0
 19 15  1  0  0  0  0
 20 11  1  0  0  0  0
 20 16  2  0  0  0  0
 21 10  2  0  0  0  0
 21 17  1  0  0  0  0
 22 10  1  0  0  0  0
 22 18  2  0  0  0  0
 23  9  1  0  0  0  0
 24 12  1  0  0  0  0
 25 11  2  0  0  0  0
 26 12  2  0  0  0  0
 27  7  1  0  0  0  0
 28  8  1  0  0  0  0
 29 13  1  0  0  0  0
 30 14  1  0  0  0  0
 31 23  2  0  0  0  0
 32 24  1  0  0  0  0
 33  3  1  6  0  0  0
 33 13  1  0  0  0  0
 33 25  1  0  0  0  0
 33 32  1  0  0  0  0
 34  4  1  6  0  0  0
 34 14  1  0  0  0  0
 34 26  1  0  0  0  0
 34 31  1  0  0  0  0
 36 19  1  0  0  0  0
 36 21  1  0  0  0  0
 36 35  1  0  0  0  0
 37 20  1  0  0  0  0
 37 22  1  0  0  0  0
 37 35  1  0  0  0  0
 38 23  1  0  0  0  0
 38 26  1  0  0  0  0
 38 35  1  0  0  0  0
 39 24  2  0  0  0  0
 39 25  1  0  0  0  0
 39 35  1  0  0  0  0
 40 27  1  0  0  0  0
 40 78  1  0  0  0  0
 41 27  2  0  0  0  0
 42 28  1  0  0  0  0
 42 79  1  0  0  0  0
 43 28  2  0  0  0  0
 44 29  1  0  0  0  0
 44 80  1  0  0  0  0
 45 29  2  0  0  0  0
 46 30  1  0  0  0  0
 46 81  1  0  0  0  0
 47 30  2  0  0  0  0
 48 31  1  0  0  0  0
 49 32  2  0  0  0  0
M  CHG  2  39   1  48  -1
M  END
>  <DRUGBANK_ID>
DB03469

>  <SECONDARY_ACCESSION_NUMBERS>
EXPT01189

>  <COMMON_NAME>
Heme D

$$$$
