
 OpenBabel10282417133D

 25 25  0  0  1  0  0  0  0  0999 V2000
    1.1363    0.1306   -0.1753 C   0  0  0  0  0  0  0  0  0  0  0  0
    0.2886   -1.1392   -0.4519 C   0  0  2  0  0  0  0  0  0  0  0  0
   -0.3851   -1.7088    0.8049 C   0  0  2  0  0  0  0  0  0  0  0  0
    0.6120   -2.3958    1.7657 C   0  0  1  0  0  0  0  0  0  0  0  0
    1.2550   -3.6495    1.1556 C   0  0  1  0  0  0  0  0  0  0  0  0
    2.0869   -3.3360   -0.1112 C   0  0  1  0  0  0  0  0  0  0  0  0
    2.6358   -4.5542   -0.6974 N   0  0  0  0  0  0  0  0  0  0  0  0
    0.8694    0.7492    1.0857 O   0  0  0  0  0  0  0  0  0  0  0  0
   -1.4888   -2.5637    0.4681 O   0  0  0  0  0  0  0  0  0  0  0  0
    1.6288   -1.4818    2.2255 O   0  0  0  0  0  0  0  0  0  0  0  0
    2.0924   -4.2813    2.1394 O   0  0  0  0  0  0  0  0  0  0  0  0
    1.1761   -2.4553   -1.4118 S   0  0  0  0  0  0  0  0  0  0  0  0
   -0.4941   -0.8374   -1.1583 H   0  0  0  0  0  0  0  0  0  0  0  0
   -0.8530   -0.8731    1.3321 H   0  0  0  0  0  0  0  0  0  0  0  0
    0.0663   -2.6951    2.6669 H   0  0  0  0  0  0  0  0  0  0  0  0
    0.4735   -4.3828    0.9240 H   0  0  0  0  0  0  0  0  0  0  0  0
    2.9530   -2.7243    0.1563 H   0  0  0  0  0  0  0  0  0  0  0  0
    0.8873    0.8909   -0.9227 H   0  0  0  0  0  0  0  0  0  0  0  0
    2.2147   -0.0433   -0.2386 H   0  0  0  0  0  0  0  0  0  0  0  0
    2.2179   -4.6816   -1.6176 H   0  0  0  0  0  0  0  0  0  0  0  0
    2.3608   -5.3625   -0.1352 H   0  0  0  0  0  0  0  0  0  0  0  0
    1.0783    0.1308    1.8184 H   0  0  0  0  0  0  0  0  0  0  0  0
   -1.1837   -3.4010    0.1075 H   0  0  0  0  0  0  0  0  0  0  0  0
    2.3392   -1.3928    1.5659 H   0  0  0  0  0  0  0  0  0  0  0  0
    2.8207   -3.6692    2.3520 H   0  0  0  0  0  0  0  0  0  0  0  0
  1 18  1  0  0  0  0
  1 19  1  0  0  0  0
  2  1  1  0  0  0  0
  2 13  1  6  0  0  0
  3  2  1  0  0  0  0
  3 14  1  1  0  0  0
  3  9  1  0  0  0  0
  4  3  1  0  0  0  0
  4 10  1  0  0  0  0
  4 15  1  1  0  0  0
  5  4  1  0  0  0  0
  5 11  1  0  0  0  0
  5 16  1  6  0  0  0
  6  5  1  0  0  0  0
  6 17  1  1  0  0  0
  6  7  1  0  0  0  0
  7 20  1  0  0  0  0
  7 21  1  0  0  0  0
  8  1  1  0  0  0  0
  8 22  1  0  0  0  0
  9 23  1  0  0  0  0
 10 24  1  0  0  0  0
 11 25  1  0  0  0  0
 12  2  1  0  0  0  0
 12  6  1  0  0  0  0
M  END
>  <DRUGBANK_ID>
DB03414

>  <SECONDARY_ACCESSION_NUMBERS>
EXPT02038

>  <COMMON_NAME>
5-Thio-a/B-D-Mannopyranosylamine

$$$$
