
 OpenBabel10282417243D

 15 15  0  0  0  0  0  0  0  0999 V2000
    0.9157   -0.0712    0.0726 O   0  0  0  0  0  0  0  0  0  0  0  0
    2.3568   -0.0288    0.1721 S   0  0  0  0  0  0  0  0  0  0  0  0
    3.0149    0.2164    1.4351 O   0  0  0  0  0  0  0  0  0  0  0  0
    3.0012    1.0646   -1.0631 C   0  0  0  0  0  0  0  0  0  0  0  0
    2.5500    0.5462   -2.4087 C   0  0  0  0  0  0  0  0  0  0  0  0
    3.0668   -0.7651   -2.6424 O   0  0  0  0  0  0  0  0  0  0  0  0
    2.5021   -1.7494   -1.7861 C   0  0  0  0  0  0  0  0  0  0  0  0
    2.9282   -1.4900   -0.4199 N   0  0  0  0  0  0  0  0  0  0  0  0
    2.6227    2.0675   -0.8557 H   0  0  0  0  0  0  0  0  0  0  0  0
    4.0918    1.0502   -0.9708 H   0  0  0  0  0  0  0  0  0  0  0  0
    1.4582    0.5398   -2.5118 H   0  0  0  0  0  0  0  0  0  0  0  0
    2.9435    1.1981   -3.1958 H   0  0  0  0  0  0  0  0  0  0  0  0
    1.4118   -1.7877   -1.8761 H   0  0  0  0  0  0  0  0  0  0  0  0
    2.8903   -2.7249   -2.0943 H   0  0  0  0  0  0  0  0  0  0  0  0
    2.6918   -2.2416    0.2268 H   0  0  0  0  0  0  0  0  0  0  0  0
  1  2  2  0  0  0  0
  2  3  2  0  0  0  0
  2  4  1  0  0  0  0
  2  8  1  0  0  0  0
  4  5  1  0  0  0  0
  4  9  1  0  0  0  0
  4 10  1  0  0  0  0
  5  6  1  0  0  0  0
  5 11  1  0  0  0  0
  5 12  1  0  0  0  0
  6  7  1  0  0  0  0
  7  8  1  0  0  0  0
  7 13  1  0  0  0  0
  7 14  1  0  0  0  0
  8 15  1  0  0  0  0
M  END
>  <DRUGBANK_ID>
DB18098

>  <COMMON_NAME>
Misetionamide

>  <CAS_NUMBER>
856785-75-6

>  <UNII>
489TQ24FC1

>  <SYNONYMS>
1,4Lambda6, 3-Oxathiazinane-4,4-dione

$$$$
