870
 OpenBabel10282417113D

 30 31  0  0  1  0  0  0  0  0999 V2000
   -1.0438    0.0613   -0.0155 S   0  0  0  0  0  0  0  0  0  0  0  0
    6.1291    6.2780    0.9809 O   0  0  0  0  0  0  0  0  0  0  0  0
    4.3781    6.8112    2.2766 O   0  0  0  0  0  0  0  0  0  0  0  0
   -1.3408    3.1130    0.0491 O   0  0  0  0  0  0  0  0  0  0  0  0
    4.0046    6.7068   -0.1334 C   0  0  3  0  0  0  0  0  0  0  0  0
    2.8759    5.6847   -0.1410 C   0  0  0  0  0  0  0  0  0  0  0  0
    2.7994    4.7152   -1.1502 C   0  0  0  0  0  0  0  0  0  0  0  0
    1.9151    5.6679    0.8863 C   0  0  0  0  0  0  0  0  0  0  0  0
    0.8976    3.6917   -0.0455 C   0  0  0  0  0  0  0  0  0  0  0  0
    3.4568    8.1268   -0.2838 C   0  0  0  0  0  0  0  0  0  0  0  0
    1.8092    3.7289   -1.1087 C   0  0  0  0  0  0  0  0  0  0  0  0
    0.9631    4.6524    0.9633 C   0  0  0  0  0  0  0  0  0  0  0  0
    4.8292    6.6074    1.1530 C   0  0  0  0  0  0  0  0  0  0  0  0
   -0.1876    2.6781   -0.0011 C   0  0  0  0  0  0  0  0  0  0  0  0
    0.1778    1.2688   -0.0064 C   0  0  0  0  0  0  0  0  0  0  0  0
    1.4353    0.6931    0.0193 C   0  0  0  0  0  0  0  0  0  0  0  0
    1.3964   -0.7278    0.0048 C   0  0  0  0  0  0  0  0  0  0  0  0
    0.1070   -1.2057   -0.0091 C   0  0  0  0  0  0  0  0  0  0  0  0
    6.4235    6.1267    0.0647 H   0  0  0  0  0  0  0  0  0  0  0  0
    4.6670    6.5156   -0.9883 H   0  0  0  0  0  0  0  0  0  0  0  0
    3.5021    4.7214   -1.9808 H   0  0  0  0  0  0  0  0  0  0  0  0
    1.9141    6.4396    1.6564 H   0  0  0  0  0  0  0  0  0  0  0  0
    2.8074    8.4008    0.5552 H   0  0  0  0  0  0  0  0  0  0  0  0
    4.2706    8.8588   -0.3146 H   0  0  0  0  0  0  0  0  0  0  0  0
    2.8686    8.2270   -1.2030 H   0  0  0  0  0  0  0  0  0  0  0  0
    1.7614    2.9889   -1.9037 H   0  0  0  0  0  0  0  0  0  0  0  0
    0.2897    4.6111    1.8168 H   0  0  0  0  0  0  0  0  0  0  0  0
    2.3549    1.2625    0.0471 H   0  0  0  0  0  0  0  0  0  0  0  0
    2.2738   -1.3618    0.0132 H   0  0  0  0  0  0  0  0  0  0  0  0
   -0.2118   -2.2396   -0.0125 H   0  0  0  0  0  0  0  0  0  0  0  0
  1 15  1  0  0  0  0
  1 18  1  0  0  0  0
  2 13  1  0  0  0  0
  2 19  1  0  0  0  0
  3 13  2  0  0  0  0
  4 14  2  0  0  0  0
  5  6  1  0  0  0  0
  5 10  1  0  0  0  0
  5 13  1  0  0  0  0
  5 20  1  0  0  0  0
  6  7  2  0  0  0  0
  6  8  1  0  0  0  0
  7 11  1  0  0  0  0
  7 21  1  0  0  0  0
  8 12  2  0  0  0  0
  8 22  1  0  0  0  0
  9 11  2  0  0  0  0
  9 12  1  0  0  0  0
  9 14  1  0  0  0  0
 10 23  1  0  0  0  0
 10 24  1  0  0  0  0
 10 25  1  0  0  0  0
 11 26  1  0  0  0  0
 12 27  1  0  0  0  0
 14 15  1  0  0  0  0
 15 16  2  0  0  0  0
 16 17  1  0  0  0  0
 16 28  1  0  0  0  0
 17 18  2  0  0  0  0
 17 29  1  0  0  0  0
 18 30  1  0  0  0  0
M  END
>  <DRUGBANK_ID>
DB00870

>  <SECONDARY_ACCESSION_NUMBERS>
APRD00230

>  <COMMON_NAME>
Suprofen

>  <CAS_NUMBER>
40828-46-4

>  <UNII>
988GU2F9PE

>  <SYNONYMS>
(±)-2-(p-(2-thenoyl)phenyl)propionic acid; 2-(4-(2-Thenoyl)phenyl)propionsäure; 2-[4-(Thiophene-2-carbonyl)-phenyl]-propionic acid; 4-(2-Thenoyl)hydratropsäure; p-2-thenoylhydratropic acid; Suprofen; Suprofene; Suprofeno; Suprofenum; Sutoprofen; α-methyl-4-(2-thienylcarbonyl)benzeneacetic acid

$$$$
