Indole-3-acetic acid.mol
 OpenBabel10282417173D

 21 21  0  0  0  0  0  0  0  0999 V2000
    1.1898   -0.1915    0.0504 N   0  0  0  0  0  0  0  0  0  0  0  0
    0.5659    0.3331    1.2721 C   0  0  0  0  0  0  0  0  0  0  0  0
    0.9595    1.7839    1.6092 C   0  0  0  0  0  0  0  0  0  0  0  0
    0.4944    2.8611    0.6487 C   0  0  0  0  0  0  0  0  0  0  0  0
    0.8431    4.1968    0.8983 C   0  0  0  0  0  0  0  0  0  0  0  0
    0.5624    5.1963   -0.0415 C   0  0  0  0  0  0  0  0  0  0  0  0
   -0.0409    4.8509   -1.2477 C   0  0  0  0  0  0  0  0  0  0  0  0
   -0.2767    5.7666   -2.2284 O   0  0  0  0  0  0  0  0  0  0  0  0
   -0.4392    3.5510   -1.4894 C   0  0  0  0  0  0  0  0  0  0  0  0
   -0.2261    2.5761   -0.5208 C   0  0  0  0  0  0  0  0  0  0  0  0
    0.9196    0.3728   -0.7545 H   0  0  0  0  0  0  0  0  0  0  0  0
    2.1991   -0.0629    0.1045 H   0  0  0  0  0  0  0  0  0  0  0  0
   -0.5248    0.2484    1.1999 H   0  0  0  0  0  0  0  0  0  0  0  0
    0.8759   -0.3185    2.0956 H   0  0  0  0  0  0  0  0  0  0  0  0
    0.5804    2.0214    2.6118 H   0  0  0  0  0  0  0  0  0  0  0  0
    2.0566    1.8340    1.6678 H   0  0  0  0  0  0  0  0  0  0  0  0
    1.3469    4.4681    1.8253 H   0  0  0  0  0  0  0  0  0  0  0  0
    0.8366    6.2221    0.1753 H   0  0  0  0  0  0  0  0  0  0  0  0
    0.0256    6.6345   -1.9218 H   0  0  0  0  0  0  0  0  0  0  0  0
   -0.9150    3.2831   -2.4290 H   0  0  0  0  0  0  0  0  0  0  0  0
   -0.6245    1.5886   -0.7239 H   0  0  0  0  0  0  0  0  0  0  0  0
  1  2  1  0  0  0  0
  1 11  1  0  0  0  0
  1 12  1  0  0  0  0
  2  3  1  0  0  0  0
  2 13  1  0  0  0  0
  2 14  1  0  0  0  0
  3  4  1  0  0  0  0
  3 15  1  0  0  0  0
  3 16  1  0  0  0  0
  4  5  2  0  0  0  0
  4 10  1  0  0  0  0
  5  6  1  0  0  0  0
  5 17  1  0  0  0  0
  6  7  2  0  0  0  0
  6 18  1  0  0  0  0
  7  8  1  0  0  0  0
  7  9  1  0  0  0  0
  8 19  1  0  0  0  0
  9 10  2  0  0  0  0
  9 20  1  0  0  0  0
 10 21  1  0  0  0  0
M  END
>  <DRUGBANK_ID>
DB08841

>  <COMMON_NAME>
Tyramine

>  <CAS_NUMBER>
51-67-2

>  <UNII>
X8ZC7V0OX3

$$$$
