
 OpenBabel10282417103D

 42 45  0  0  0  0  0  0  0  0999 V2000
   -1.4678   -1.8889    0.7433 C   0  0  0  0  0  0  0  0  0  0  0  0
   -2.3242   -0.8272    0.0812 C   0  0  0  0  0  0  0  0  0  0  0  0
   -2.1810    0.5150    0.4759 C   0  0  0  0  0  0  0  0  0  0  0  0
   -1.0975    0.9272    1.2720 N   0  0  0  0  0  0  0  0  0  0  0  0
   -0.1835   -1.7949    0.9242 N   0  0  0  0  0  0  0  0  0  0  0  0
    0.2263    0.6449    0.8810 C   0  0  0  0  0  0  0  0  0  0  0  0
    0.6007   -0.6757    0.5616 C   0  0  0  0  0  0  0  0  0  0  0  0
   -3.0294    1.4863   -0.0920 C   0  0  0  0  0  0  0  0  0  0  0  0
   -4.0183    1.1312   -1.0137 C   0  0  0  0  0  0  0  0  0  0  0  0
   -4.1596   -0.1951   -1.3935 C   0  0  0  0  0  0  0  0  0  0  0  0
   -3.3144   -1.1602   -0.8509 C   0  0  0  0  0  0  0  0  0  0  0  0
    1.8744   -0.9180    0.0407 C   0  0  0  0  0  0  0  0  0  0  0  0
    2.7675    0.1334   -0.1667 C   0  0  0  0  0  0  0  0  0  0  0  0
    2.4032    1.4418    0.1394 C   0  0  0  0  0  0  0  0  0  0  0  0
    1.1279    1.7001    0.6479 C   0  0  0  0  0  0  0  0  0  0  0  0
   -2.0792   -3.0367    1.2593 N   0  0  0  0  0  0  0  0  0  0  0  0
   -2.0120   -3.3291    2.7031 C   0  0  0  0  0  0  0  0  0  0  0  0
   -1.7484   -4.8327    2.9527 C   0  0  0  0  0  0  0  0  0  0  0  0
   -2.7598   -5.6781    2.2749 N   0  0  0  0  0  0  0  0  0  0  0  0
   -2.6668   -5.4066    0.8304 C   0  0  0  0  0  0  0  0  0  0  0  0
   -2.9482   -3.9319    0.5051 C   0  0  0  0  0  0  0  0  0  0  0  0
    4.3414   -0.1894   -0.7862 Cl  0  0  0  0  0  0  0  0  0  0  0  0
   -2.5369   -7.0944    2.5376 C   0  0  0  0  0  0  0  0  0  0  0  0
   -1.2422    1.6836    1.9211 H   0  0  0  0  0  0  0  0  0  0  0  0
   -2.8899    2.5390    0.1402 H   0  0  0  0  0  0  0  0  0  0  0  0
   -4.6571    1.8886   -1.4605 H   0  0  0  0  0  0  0  0  0  0  0  0
   -4.9100   -0.4892   -2.1227 H   0  0  0  0  0  0  0  0  0  0  0  0
   -3.4426   -2.1681   -1.2109 H   0  0  0  0  0  0  0  0  0  0  0  0
    2.1685   -1.9403   -0.1779 H   0  0  0  0  0  0  0  0  0  0  0  0
    3.1005    2.2605   -0.0244 H   0  0  0  0  0  0  0  0  0  0  0  0
    0.8318    2.7291    0.8323 H   0  0  0  0  0  0  0  0  0  0  0  0
   -2.9691   -3.0506    3.1651 H   0  0  0  0  0  0  0  0  0  0  0  0
   -1.2349   -2.7390    3.2022 H   0  0  0  0  0  0  0  0  0  0  0  0
   -1.7711   -5.0225    4.0321 H   0  0  0  0  0  0  0  0  0  0  0  0
   -0.7405   -5.0836    2.5946 H   0  0  0  0  0  0  0  0  0  0  0  0
   -1.6655   -5.6638    0.4565 H   0  0  0  0  0  0  0  0  0  0  0  0
   -3.3877   -6.0203    0.2778 H   0  0  0  0  0  0  0  0  0  0  0  0
   -3.9978   -3.6886    0.7099 H   0  0  0  0  0  0  0  0  0  0  0  0
   -2.7546   -3.8412   -0.5650 H   0  0  0  0  0  0  0  0  0  0  0  0
   -3.2988   -7.6961    2.0280 H   0  0  0  0  0  0  0  0  0  0  0  0
   -1.5507   -7.4309    2.2009 H   0  0  0  0  0  0  0  0  0  0  0  0
   -2.6352   -7.3041    3.6073 H   0  0  0  0  0  0  0  0  0  0  0  0
  1  5  2  0  0  0  0
  1  2  1  0  0  0  0
  1 16  1  0  0  0  0
  2  3  1  0  0  0  0
  2 11  2  0  0  0  0
  3  4  1  0  0  0  0
  3  8  2  0  0  0  0
  4  6  1  0  0  0  0
  4 24  1  0  0  0  0
  5  7  1  0  0  0  0
  6  7  1  0  0  0  0
  6 15  2  0  0  0  0
  7 12  2  0  0  0  0
  8  9  1  0  0  0  0
  8 25  1  0  0  0  0
  9 10  2  0  0  0  0
  9 26  1  0  0  0  0
 10 11  1  0  0  0  0
 10 27  1  0  0  0  0
 11 28  1  0  0  0  0
 12 13  1  0  0  0  0
 12 29  1  0  0  0  0
 13 14  2  0  0  0  0
 13 22  1  0  0  0  0
 14 15  1  0  0  0  0
 14 30  1  0  0  0  0
 15 31  1  0  0  0  0
 16 17  1  0  0  0  0
 16 21  1  0  0  0  0
 17 18  1  0  0  0  0
 17 32  1  0  0  0  0
 17 33  1  0  0  0  0
 18 19  1  0  0  0  0
 18 34  1  0  0  0  0
 18 35  1  0  0  0  0
 19 20  1  0  0  0  0
 19 23  1  0  0  0  0
 20 21  1  0  0  0  0
 20 36  1  0  0  0  0
 20 37  1  0  0  0  0
 21 38  1  0  0  0  0
 21 39  1  0  0  0  0
 23 40  1  0  0  0  0
 23 41  1  0  0  0  0
 23 42  1  0  0  0  0
M  END
>  <DRUGBANK_ID>
DB00363

>  <SECONDARY_ACCESSION_NUMBERS>
APRD00470

>  <COMMON_NAME>
Clozapine

>  <CAS_NUMBER>
5786-21-0

>  <UNII>
J60AR2IKIC

>  <SYNONYMS>
Clozapin; Clozapina; Clozapine; Clozapinum

$$$$
