344
 OpenBabel10282417103D

 41 43  0  0  0  0  0  0  0  0999 V2000
    1.9597    0.0142    0.2275 N   0  0  0  0  0  0  0  0  0  0  0  0
   -1.1303   -0.7038    2.5739 C   0  0  3  0  0  0  0  0  0  0  0  0
    0.4455   -0.7949    3.0176 C   0  0  0  0  0  0  0  0  0  0  0  0
   -1.6890   -1.9415    1.8774 C   0  0  0  0  0  0  0  0  0  0  0  0
   -1.7227    0.5759    1.9462 C   0  0  0  0  0  0  0  0  0  0  0  0
    1.4191   -1.6789    2.1825 C   0  0  0  0  0  0  0  0  0  0  0  0
   -1.5640   -2.2161    0.4878 C   0  0  0  0  0  0  0  0  0  0  0  0
   -1.6353    0.9103    0.5734 C   0  0  0  0  0  0  0  0  0  0  0  0
    1.4391   -1.2387    0.7416 C   0  0  0  0  0  0  0  0  0  0  0  0
   -2.3150   -2.8914    2.6954 C   0  0  0  0  0  0  0  0  0  0  0  0
   -2.3855    1.4965    2.7845 C   0  0  0  0  0  0  0  0  0  0  0  0
   -1.1460   -1.2712   -0.5775 C   0  0  0  0  0  0  0  0  0  0  0  0
   -1.1369    0.0491   -0.5106 C   0  0  0  0  0  0  0  0  0  0  0  0
   -1.7033   -3.5301    0.0569 C   0  0  0  0  0  0  0  0  0  0  0  0
   -1.8511    2.2346    0.1732 C   0  0  0  0  0  0  0  0  0  0  0  0
   -2.6743   -4.1255    2.1754 C   0  0  0  0  0  0  0  0  0  0  0  0
   -2.8099    2.7382    2.3007 C   0  0  0  0  0  0  0  0  0  0  0  0
   -2.2931   -4.4723    0.8841 C   0  0  0  0  0  0  0  0  0  0  0  0
   -2.4637    3.1404    1.0194 C   0  0  0  0  0  0  0  0  0  0  0  0
    1.5210    1.2153    0.9107 C   0  0  0  0  0  0  0  0  0  0  0  0
    2.9469   -0.0085    0.0290 H   0  0  0  0  0  0  0  0  0  0  0  0
   -1.5756   -0.6995    3.5842 H   0  0  0  0  0  0  0  0  0  0  0  0
    0.5087   -1.1969    4.0405 H   0  0  0  0  0  0  0  0  0  0  0  0
    0.8652    0.2087    3.1248 H   0  0  0  0  0  0  0  0  0  0  0  0
    1.0394   -2.7130    2.2348 H   0  0  0  0  0  0  0  0  0  0  0  0
    2.4464   -1.7155    2.5543 H   0  0  0  0  0  0  0  0  0  0  0  0
    0.4176   -1.0301    0.6993 H   0  0  0  0  0  0  0  0  0  0  0  0
    1.5711   -2.0749    0.0428 H   0  0  0  0  0  0  0  0  0  0  0  0
   -2.5257   -2.6664    3.7390 H   0  0  0  0  0  0  0  0  0  0  0  0
   -2.5800    1.2562    3.8277 H   0  0  0  0  0  0  0  0  0  0  0  0
   -0.5391   -1.7096   -1.3822 H   0  0  0  0  0  0  0  0  0  0  0  0
   -0.5311    0.5757   -1.2600 H   0  0  0  0  0  0  0  0  0  0  0  0
   -1.3603   -3.8211   -0.9347 H   0  0  0  0  0  0  0  0  0  0  0  0
   -1.5058    2.5716   -0.8038 H   0  0  0  0  0  0  0  0  0  0  0  0
   -3.2160   -4.8315    2.7935 H   0  0  0  0  0  0  0  0  0  0  0  0
   -3.3704    3.4137    2.9390 H   0  0  0  0  0  0  0  0  0  0  0  0
   -2.4811   -5.4661    0.4988 H   0  0  0  0  0  0  0  0  0  0  0  0
   -2.6733    4.1421    0.6617 H   0  0  0  0  0  0  0  0  0  0  0  0
    2.0800    1.4261    1.8192 H   0  0  0  0  0  0  0  0  0  0  0  0
    1.5048    2.0833    0.2473 H   0  0  0  0  0  0  0  0  0  0  0  0
    0.5034    1.1407    1.2468 H   0  0  0  0  0  0  0  0  0  0  0  0
  1  9  1  0  0  0  0
  1 20  1  0  0  0  0
  1 21  1  0  0  0  0
  2  3  1  0  0  0  0
  2  4  1  0  0  0  0
  2  5  1  0  0  0  0
  2 22  1  0  0  0  0
  3  6  1  0  0  0  0
  3 23  1  0  0  0  0
  3 24  1  0  0  0  0
  4  7  1  0  0  0  0
  4 10  2  0  0  0  0
  5  8  1  0  0  0  0
  5 11  2  0  0  0  0
  6  9  1  0  0  0  0
  6 25  1  0  0  0  0
  6 26  1  0  0  0  0
  7 12  1  0  0  0  0
  7 14  2  0  0  0  0
  8 13  1  0  0  0  0
  8 15  2  0  0  0  0
  9 27  1  0  0  0  0
  9 28  1  0  0  0  0
 10 16  1  0  0  0  0
 10 29  1  0  0  0  0
 11 17  1  0  0  0  0
 11 30  1  0  0  0  0
 12 13  2  0  0  0  0
 12 31  1  0  0  0  0
 13 32  1  0  0  0  0
 14 18  1  0  0  0  0
 14 33  1  0  0  0  0
 15 19  1  0  0  0  0
 15 34  1  0  0  0  0
 16 18  2  0  0  0  0
 16 35  1  0  0  0  0
 17 19  2  0  0  0  0
 17 36  1  0  0  0  0
 18 37  1  0  0  0  0
 19 38  1  0  0  0  0
 20 39  1  0  0  0  0
 20 40  1  0  0  0  0
 20 41  1  0  0  0  0
M  END
>  <DRUGBANK_ID>
DB00344

>  <SECONDARY_ACCESSION_NUMBERS>
APRD00441

>  <COMMON_NAME>
Protriptyline

>  <CAS_NUMBER>
438-60-8

>  <UNII>
4NDU154T12

>  <SYNONYMS>
3-(5H-dibenzo[a,d][7]annulen-5-yl)-N-methylpropan-1-amine; 3-(5H-dibenzo[a,d]cyclohepten-5-yl)-N-methyl-1-propanamine; 5-(3-methylaminopropyl)-5H-dibenzo[a,d]cycloheptene; 7-(3-methylaminopropyl)-1,2:5,6-dibenzocycloheptatriene; Amimetilina; N-methyl-5H-dibenzo[a,d]cycloheptene-5-propanamine; N-methyl-5H-dibenzo[a,d]cycloheptene-5-propylamine; Protriptilina; Protriptylin; Protriptyline; Protriptylinum

$$$$
