
 OpenBabel10282417133D

142145  0  0  1  0  0  0  0  0999 V2000
  -15.3020   -7.5720    9.9481 C   0  0  0  0  0  0  0  0  0  0  0  0
    1.5646   -4.8078    9.1955 C   0  0  0  0  0  0  0  0  0  0  0  0
   -3.4711  -11.6356    5.6906 C   0  0  0  0  0  0  0  0  0  0  0  0
   -2.6188   -7.4502    6.1012 C   0  0  0  0  0  0  0  0  0  0  0  0
  -17.4171   -9.1887    7.8658 C   0  0  0  0  0  0  0  0  0  0  0  0
   -2.2883   -4.5844   13.0386 C   0  0  0  0  0  0  0  0  0  0  0  0
    0.4164  -12.8381    2.5242 C   0  0  0  0  0  0  0  0  0  0  0  0
   -1.1816   -6.5020   14.0423 C   0  0  0  0  0  0  0  0  0  0  0  0
    2.6421   -5.8221   11.3886 C   0  0  0  0  0  0  0  0  0  0  0  0
   -0.1800  -10.8298    6.3231 C   0  0  0  0  0  0  0  0  0  0  0  0
  -16.9226   -5.4849    6.8220 C   0  0  0  0  0  0  0  0  0  0  0  0
   -5.0877   -6.4825   12.5097 C   0  0  0  0  0  0  0  0  0  0  0  0
   -3.7939   -6.9109   13.1311 C   0  0  0  0  0  0  0  0  0  0  0  0
   -6.0909   -7.3457   12.3020 C   0  0  0  0  0  0  0  0  0  0  0  0
    1.2988   -7.1656    8.4560 C   0  0  0  0  0  0  0  0  0  0  0  0
    0.3545   -8.3520    8.4570 C   0  0  0  0  0  0  0  0  0  0  0  0
   -1.8036  -10.4000    4.3501 C   0  0  0  0  0  0  0  0  0  0  0  0
   -1.2600  -11.5614    3.8628 C   0  0  0  0  0  0  0  0  0  0  0  0
  -10.5608   -4.9065   10.1723 C   0  0  0  0  0  0  0  0  0  0  0  0
  -15.6777   -6.2186   10.0745 C   0  0  0  0  0  0  0  0  0  0  0  0
   -5.3246   -3.7555    9.8401 C   0  0  0  0  0  0  0  0  0  0  0  0
   -0.0803   -5.3616   11.4974 C   0  0  0  0  0  0  0  0  0  0  0  0
  -14.1947   -8.7779    6.3718 C   0  0  0  0  0  0  0  0  0  0  0  0
   -8.7870   -5.9317   10.8412 C   0  0  0  0  0  0  0  0  0  0  0  0
  -12.7079   -8.3330   10.7371 C   0  0  0  0  0  0  0  0  0  0  0  0
    0.3759  -10.3332    2.4593 C   0  0  0  0  0  0  0  0  0  0  0  0
  -13.1521   -5.9847   10.0659 C   0  0  1  0  0  0  0  0  0  0  0  0
    0.7256   -6.0360    9.2777 C   0  0  1  0  0  0  0  0  0  0  0  0
   -2.8241  -10.2976    5.4694 C   0  0  2  0  0  0  0  0  0  0  0  0
   -1.5692   -8.4331    6.5915 C   0  0  1  0  0  0  0  0  0  0  0  0
  -17.5134   -7.7749    7.6035 C   0  0  1  0  0  0  0  0  0  0  0  0
   -2.5058   -5.3394   11.8394 C   0  0  2  0  0  0  0  0  0  0  0  0
   -7.8057   -4.1484   10.2802 C   0  0  1  0  0  0  0  0  0  0  0  0
  -15.1451   -8.0711    6.9986 C   0  0  0  0  0  0  0  0  0  0  0  0
   -9.3583   -7.0767   10.9112 C   0  0  0  0  0  0  0  0  0  0  0  0
  -12.4803   -7.9837    9.4314 C   0  0  0  0  0  0  0  0  0  0  0  0
   -0.9961   -7.9295    7.8855 C   0  0  0  0  0  0  0  0  0  0  0  0
  -17.1213   -6.7613    8.7486 C   0  0  1  0  0  0  0  0  0  0  0  0
   -2.6215   -6.7126   12.2021 C   0  0  1  0  0  0  0  0  0  0  0  0
    0.5219   -6.4901   10.7147 C   0  0  1  0  0  0  0  0  0  0  0  0
   -1.3888   -4.9610   10.8883 C   0  0  1  0  0  0  0  0  0  0  0  0
   -7.3310   -6.9654   11.7003 C   0  0  0  0  0  0  0  0  0  0  0  0
   -3.0856   -2.9986    9.8506 C   0  0  0  0  0  0  0  0  0  0  0  0
   -2.2116   -9.7932    6.7846 C   0  0  2  0  0  0  0  0  0  0  0  0
  -16.5094   -7.6932    6.5207 C   0  0  2  0  0  0  0  0  0  0  0  0
  -10.7296   -7.4829   10.5572 C   0  0  0  0  0  0  0  0  0  0  0  0
  -13.4006   -8.1490    8.2741 C   0  0  0  0  0  0  0  0  0  0  0  0
   -3.8423   -3.0348   11.9168 C   0  0  2  0  0  0  0  0  0  0  0  0
   -3.2597   -2.9441   13.6101 N   0  0  0  0  0  0  0  0  0  0  0  0
   -8.3742   -7.7617   11.4758 N   0  0  0  0  0  0  0  0  0  0  0  0
  -14.6031   -7.7007    8.1562 N   0  0  0  0  0  0  0  0  0  0  0  0
  -11.2577   -7.3862    9.3547 N   0  0  0  0  0  0  0  0  0  0  0  0
   -0.1641  -11.5836    3.0004 N   0  0  0  0  0  0  0  0  0  0  0  0
   -0.6590   -9.5950    1.8182 O   0  0  0  0  0  0  0  0  0  0  0  0
   -1.6534   -7.0464    8.4445 O   0  0  0  0  0  0  0  0  0  0  0  0
  -17.4503   -5.4220    8.7372 O   0  0  0  0  0  0  0  0  0  0  0  0
   -2.4242   -1.7483    9.5918 O   0  0  0  0  0  0  0  0  0  0  0  0
   -2.7878   -1.8517   11.6116 O   0  0  0  0  0  0  0  0  0  0  0  0
   -1.4225   -7.1303   12.8123 O   0  0  0  0  0  0  0  0  0  0  0  0
    1.7627   -6.8926   11.2825 O   0  0  0  0  0  0  0  0  0  0  0  0
   -1.2357  -10.7252    7.2460 O   0  0  0  0  0  0  0  0  0  0  0  0
  -16.4934   -6.4074    5.9482 O   0  0  0  0  0  0  0  0  0  0  0  0
   -7.6044   -5.7430   11.3035 O   0  0  0  0  0  0  0  0  0  0  0  0
  -13.0834   -8.8143    7.1481 O   0  0  0  0  0  0  0  0  0  0  0  0
  -11.5911   -8.0459   11.4523 O   0  0  0  0  0  0  0  0  0  0  0  0
   -5.8987   -3.4222   11.3147 O   0  0  0  0  0  0  0  0  0  0  0  0
   -1.4249   -3.5740   10.4992 O   0  0  0  0  0  0  0  0  0  0  0  0
   -5.2051   -5.4450   12.2097 H   0  0  0  0  0  0  0  0  0  0  0  0
   -5.9535   -8.3807   12.6122 H   0  0  0  0  0  0  0  0  0  0  0  0
   -1.3569   -9.4632    4.0411 H   0  0  0  0  0  0  0  0  0  0  0  0
   -1.5775  -12.5129    4.3451 H   0  0  0  0  0  0  0  0  0  0  0  0
  -14.5088   -6.9210   10.5260 H   0  0  0  0  0  0  0  0  0  0  0  0
   -0.2175   -5.7329    8.8519 H   0  0  0  0  0  0  0  0  0  0  0  0
   -3.5772   -9.5998    5.1303 H   0  0  0  0  0  0  0  0  0  0  0  0
   -0.7978   -8.4922    5.8353 H   0  0  0  0  0  0  0  0  0  0  0  0
  -18.5353   -7.5779    7.2878 H   0  0  0  0  0  0  0  0  0  0  0  0
   -3.4885   -5.0204   11.4297 H   0  0  0  0  0  0  0  0  0  0  0  0
   -6.1239   -3.9753   10.1497 H   0  0  0  0  0  0  0  0  0  0  0  0
  -16.1612   -6.9085    8.7301 H   0  0  0  0  0  0  0  0  0  0  0  0
   -2.7745   -7.2377   11.2787 H   0  0  0  0  0  0  0  0  0  0  0  0
   -0.1533   -7.3457   10.7375 H   0  0  0  0  0  0  0  0  0  0  0  0
   -1.5692   -5.4909    9.9887 H   0  0  0  0  0  0  0  0  0  0  0  0
   -2.9980   -9.7174    7.5375 H   0  0  0  0  0  0  0  0  0  0  0  0
  -16.8036   -8.3802    5.7240 H   0  0  0  0  0  0  0  0  0  0  0  0
   -2.9192   -3.6976   11.5033 H   0  0  0  0  0  0  0  0  0  0  0  0
  -17.0431   -8.1039    9.6537 H   0  0  0  0  0  0  0  0  0  0  0  0
  -16.8327   -8.5797   10.0965 H   0  0  0  0  0  0  0  0  0  0  0  0
  -16.5032   -8.9055    9.6547 H   0  0  0  0  0  0  0  0  0  0  0  0
    2.5699   -4.9493    9.3598 H   0  0  0  0  0  0  0  0  0  0  0  0
    1.7705   -4.4902    8.2165 H   0  0  0  0  0  0  0  0  0  0  0  0
    1.2280   -4.0195    9.8386 H   0  0  0  0  0  0  0  0  0  0  0  0
   -2.7006  -12.3571    5.9455 H   0  0  0  0  0  0  0  0  0  0  0  0
   -4.2027  -11.6231    6.4876 H   0  0  0  0  0  0  0  0  0  0  0  0
   -3.9520  -11.9448    4.7693 H   0  0  0  0  0  0  0  0  0  0  0  0
   -3.4707   -8.0088    5.7621 H   0  0  0  0  0  0  0  0  0  0  0  0
   -2.9686   -6.7789    6.8769 H   0  0  0  0  0  0  0  0  0  0  0  0
   -2.2424   -6.8578    5.2761 H   0  0  0  0  0  0  0  0  0  0  0  0
  -16.4621   -9.5075    8.3512 H   0  0  0  0  0  0  0  0  0  0  0  0
  -18.2317   -9.3115    8.4886 H   0  0  0  0  0  0  0  0  0  0  0  0
  -17.7779   -9.9673    7.2928 H   0  0  0  0  0  0  0  0  0  0  0  0
   -1.4230   -4.3797   13.5403 H   0  0  0  0  0  0  0  0  0  0  0  0
   -1.9320   -3.5364   12.6292 H   0  0  0  0  0  0  0  0  0  0  0  0
   -3.1072   -4.6698   13.8181 H   0  0  0  0  0  0  0  0  0  0  0  0
    0.2796  -12.9383    1.4494 H   0  0  0  0  0  0  0  0  0  0  0  0
    1.4807  -12.8936    2.7441 H   0  0  0  0  0  0  0  0  0  0  0  0
   -0.0751  -13.6800    3.0094 H   0  0  0  0  0  0  0  0  0  0  0  0
   -0.9265   -5.5457   13.8926 H   0  0  0  0  0  0  0  0  0  0  0  0
   -1.9975   -6.5146   14.7021 H   0  0  0  0  0  0  0  0  0  0  0  0
   -0.2384   -6.6785   14.4600 H   0  0  0  0  0  0  0  0  0  0  0  0
    2.9571   -5.5965   10.4670 H   0  0  0  0  0  0  0  0  0  0  0  0
    2.2409   -4.9550   11.8565 H   0  0  0  0  0  0  0  0  0  0  0  0
    3.6131   -6.0674   11.7028 H   0  0  0  0  0  0  0  0  0  0  0  0
   -0.5406  -11.2069    5.4537 H   0  0  0  0  0  0  0  0  0  0  0  0
    0.2670   -9.8809    6.1001 H   0  0  0  0  0  0  0  0  0  0  0  0
    0.5423  -11.5460    6.6032 H   0  0  0  0  0  0  0  0  0  0  0  0
  -18.0154   -5.8507    7.0097 H   0  0  0  0  0  0  0  0  0  0  0  0
  -16.1277   -5.5283    7.6795 H   0  0  0  0  0  0  0  0  0  0  0  0
  -16.9901   -4.4496    6.6408 H   0  0  0  0  0  0  0  0  0  0  0  0
   -3.6371   -6.3572   14.0578 H   0  0  0  0  0  0  0  0  0  0  0  0
   -3.8184   -7.9595   13.3942 H   0  0  0  0  0  0  0  0  0  0  0  0
    1.4514   -6.8283    7.4365 H   0  0  0  0  0  0  0  0  0  0  0  0
    2.2636   -7.4529    8.8710 H   0  0  0  0  0  0  0  0  0  0  0  0
    0.7940   -9.1568    7.8931 H   0  0  0  0  0  0  0  0  0  0  0  0
    0.2227   -8.7035    9.4814 H   0  0  0  0  0  0  0  0  0  0  0  0
   -9.3958   -3.5900   10.3046 H   0  0  0  0  0  0  0  0  0  0  0  0
   -9.1906   -3.8000   10.0883 H   0  0  0  0  0  0  0  0  0  0  0  0
  -17.4232   -6.5989    9.8536 H   0  0  0  0  0  0  0  0  0  0  0  0
  -17.3128   -6.2933   10.6826 H   0  0  0  0  0  0  0  0  0  0  0  0
   -4.1257   -3.6615    8.6771 H   0  0  0  0  0  0  0  0  0  0  0  0
   -3.8758   -4.6305    9.9178 H   0  0  0  0  0  0  0  0  0  0  0  0
    0.5683   -4.5136   11.5412 H   0  0  0  0  0  0  0  0  0  0  0  0
   -0.1534   -5.6788   12.5011 H   0  0  0  0  0  0  0  0  0  0  0  0
  -14.2526   -9.2308    5.4081 H   0  0  0  0  0  0  0  0  0  0  0  0
   -9.1053   -5.2292   10.2848 H   0  0  0  0  0  0  0  0  0  0  0  0
  -13.5872   -8.7654   11.1751 H   0  0  0  0  0  0  0  0  0  0  0  0
    0.7875   -9.7237    3.2737 H   0  0  0  0  0  0  0  0  0  0  0  0
    1.1703  -10.5112    1.7447 H   0  0  0  0  0  0  0  0  0  0  0  0
   -3.3901   -2.1120   13.9790 H   0  0  0  0  0  0  0  0  0  0  0  0
   -2.0525   -3.0516   13.8949 H   0  0  0  0  0  0  0  0  0  0  0  0
   -1.0248  -10.1424    1.1021 H   0  0  0  0  0  0  0  0  0  0  0  0
  -18.1662   -5.1765    8.1944 H   0  0  0  0  0  0  0  0  0  0  0  0
   -2.2441   -1.5488   12.3425 H   0  0  0  0  0  0  0  0  0  0  0  0
  1 86  1  0  0  0  0
  1 87  1  0  0  0  0
  1 88  1  0  0  0  0
  2 89  1  0  0  0  0
  2 90  1  0  0  0  0
  2 91  1  0  0  0  0
  3 92  1  0  0  0  0
  3 93  1  0  0  0  0
  3 94  1  0  0  0  0
  4 95  1  0  0  0  0
  4 96  1  0  0  0  0
  4 97  1  0  0  0  0
  5 98  1  0  0  0  0
  5 99  1  0  0  0  0
  5100  1  0  0  0  0
  6101  1  0  0  0  0
  6102  1  0  0  0  0
  6103  1  0  0  0  0
  7104  1  0  0  0  0
  7105  1  0  0  0  0
  7106  1  0  0  0  0
  8107  1  0  0  0  0
  8108  1  0  0  0  0
  8109  1  0  0  0  0
  9110  1  0  0  0  0
  9111  1  0  0  0  0
  9112  1  0  0  0  0
 10113  1  0  0  0  0
 10114  1  0  0  0  0
 10115  1  0  0  0  0
 11116  1  0  0  0  0
 11117  1  0  0  0  0
 11118  1  0  0  0  0
 13 12  1  0  0  0  0
 13119  1  0  0  0  0
 13120  1  0  0  0  0
 14 12  2  0  0  0  0
 15121  1  0  0  0  0
 15122  1  0  0  0  0
 16 15  1  0  0  0  0
 16123  1  0  0  0  0
 16124  1  0  0  0  0
 18 17  2  0  0  0  0
 19125  1  0  0  0  0
 19126  1  0  0  0  0
 20127  1  0  0  0  0
 20128  1  0  0  0  0
 21129  1  0  0  0  0
 21130  1  0  0  0  0
 22131  1  0  0  0  0
 22132  1  0  0  0  0
 23133  1  0  0  0  0
 24134  1  0  0  0  0
 25135  1  0  0  0  0
 26136  1  0  0  0  0
 26137  1  0  0  0  0
 27 19  1  0  0  0  0
 27 20  1  0  0  0  0
 27 72  1  1  0  0  0
 27  1  1  0  0  0  0
 28  2  1  0  0  0  0
 28 15  1  0  0  0  0
 28 73  1  6  0  0  0
 29 74  1  6  0  0  0
 29 17  1  0  0  0  0
 29  3  1  0  0  0  0
 30 75  1  6  0  0  0
 30 37  1  0  0  0  0
 30  4  1  0  0  0  0
 31 76  1  6  0  0  0
 31  5  1  0  0  0  0
 32  6  1  0  0  0  0
 32 77  1  6  0  0  0
 33 19  1  0  0  0  0
 33 21  1  0  0  0  0
 33 78  1  1  0  0  0
 33 66  1  0  0  0  0
 34 23  2  0  0  0  0
 35 24  2  0  0  0  0
 36 25  2  0  0  0  0
 37 16  1  0  0  0  0
 38 20  1  0  0  0  0
 38 31  1  0  0  0  0
 38 56  1  0  0  0  0
 38 79  1  6  0  0  0
 39 13  1  0  0  0  0
 39 32  1  0  0  0  0
 39 59  1  0  0  0  0
 39 80  1  6  0  0  0
 40 22  1  0  0  0  0
 40 28  1  0  0  0  0
 40 60  1  0  0  0  0
 40 81  1  1  0  0  0
 41 32  1  0  0  0  0
 41 82  1  6  0  0  0
 41 22  1  0  0  0  0
 42 14  1  0  0  0  0
 43 21  1  0  0  0  0
 44 29  1  0  0  0  0
 44 30  1  0  0  0  0
 44 61  1  0  0  0  0
 44 83  1  1  0  0  0
 45 31  1  0  0  0  0
 45 34  1  0  0  0  0
 45 84  1  6  0  0  0
 45 62  1  0  0  0  0
 46 35  1  0  0  0  0
 47 36  1  0  0  0  0
 48 85  1  6  0  0  0
 48 58  1  0  0  0  0
 48 49  1  0  0  0  0
 49138  1  0  0  0  0
 49139  1  0  0  0  0
 50 35  1  0  0  0  0
 50 42  2  0  0  0  0
 51 34  1  0  0  0  0
 51 47  2  0  0  0  0
 52 36  1  0  0  0  0
 52 46  2  0  0  0  0
 53  7  1  0  0  0  0
 53 18  1  0  0  0  0
 53 26  1  0  0  0  0
 54 26  1  0  0  0  0
 54140  1  0  0  0  0
 55 37  2  0  0  0  0
 56141  1  0  0  0  0
 57 43  2  0  0  0  0
 58142  1  0  0  0  0
 59  8  1  0  0  0  0
 60  9  1  0  0  0  0
 61 10  1  0  0  0  0
 62 11  1  0  0  0  0
 63 24  1  0  0  0  0
 63 42  1  0  0  0  0
 64 23  1  0  0  0  0
 64 47  1  0  0  0  0
 65 25  1  0  0  0  0
 65 46  1  0  0  0  0
 66 48  1  0  0  0  0
 67 41  1  0  0  0  0
 67 43  1  0  0  0  0
 68 12  1  0  0  0  0
 69 14  1  0  0  0  0
 70 17  1  0  0  0  0
 71 18  1  0  0  0  0
M  END
>  <DRUGBANK_ID>
DB03616

>  <SECONDARY_ACCESSION_NUMBERS>
EXPT01959

>  <COMMON_NAME>
Kabiramide C

$$$$
