
 OpenBabel10282417153D

 35 36  0  0  0  0  0  0  0  0999 V2000
    0.8998    0.0929   -0.0415 C   0  0  0  0  0  0  0  0  0  0  0  0
   -4.7583   -0.7637   -5.2239 C   0  0  0  0  0  0  0  0  0  0  0  0
   -3.5932   -0.7448   -7.3609 C   0  0  0  0  0  0  0  0  0  0  0  0
   -5.9118   -0.3256   -5.8793 C   0  0  0  0  0  0  0  0  0  0  0  0
   -4.7393   -0.3080   -8.0047 C   0  0  0  0  0  0  0  0  0  0  0  0
   -1.4138   -1.1074   -1.6404 C   0  0  0  0  0  0  0  0  0  0  0  0
   -0.0526   -0.4295   -3.5622 C   0  0  0  0  0  0  0  0  0  0  0  0
   -1.3361   -2.5717   -2.1108 C   0  0  0  0  0  0  0  0  0  0  0  0
    0.0563   -1.9231   -3.9589 C   0  0  0  0  0  0  0  0  0  0  0  0
    0.4661    0.5579   -1.4018 C   0  0  0  0  0  0  0  0  0  0  0  0
   -3.6088   -1.0051   -5.9811 C   0  0  0  0  0  0  0  0  0  0  0  0
   -5.8939   -0.1179   -7.2599 C   0  0  0  0  0  0  0  0  0  0  0  0
   -2.3259   -1.4333   -5.4056 C   0  0  0  0  0  0  0  0  0  0  0  0
   -7.0098    0.2801   -7.8816 F   0  0  0  0  0  0  0  0  0  0  0  0
   -2.3561   -2.2592   -4.2813 N   0  0  0  0  0  0  0  0  0  0  0  0
   -0.2554   -0.3551   -2.1266 N   0  0  0  0  0  0  0  0  0  0  0  0
   -1.1661   -2.6993   -3.5878 N   0  0  0  0  0  0  0  0  0  0  0  0
    0.8813    1.6161   -1.8733 O   0  0  0  0  0  0  0  0  0  0  0  0
   -1.3289   -1.0045   -5.9824 O   0  0  0  0  0  0  0  0  0  0  0  0
    0.5850   -0.9326    0.1659 H   0  0  0  0  0  0  0  0  0  0  0  0
    0.5223    0.7663    0.7271 H   0  0  0  0  0  0  0  0  0  0  0  0
    1.9956    0.0928   -0.0371 H   0  0  0  0  0  0  0  0  0  0  0  0
   -4.7616   -0.8684   -4.1424 H   0  0  0  0  0  0  0  0  0  0  0  0
   -2.6713   -0.8729   -7.9283 H   0  0  0  0  0  0  0  0  0  0  0  0
   -6.8266   -0.1316   -5.3279 H   0  0  0  0  0  0  0  0  0  0  0  0
   -4.7254   -0.1161   -9.0716 H   0  0  0  0  0  0  0  0  0  0  0  0
   -1.5152   -1.0278   -0.5553 H   0  0  0  0  0  0  0  0  0  0  0  0
   -2.3083   -0.6354   -2.0712 H   0  0  0  0  0  0  0  0  0  0  0  0
   -0.9042    0.0980   -4.0007 H   0  0  0  0  0  0  0  0  0  0  0  0
    0.8482    0.1080   -3.8709 H   0  0  0  0  0  0  0  0  0  0  0  0
   -0.4694   -3.0419   -1.6239 H   0  0  0  0  0  0  0  0  0  0  0  0
   -2.2135   -3.1360   -1.7747 H   0  0  0  0  0  0  0  0  0  0  0  0
    0.9126   -2.3661   -3.4312 H   0  0  0  0  0  0  0  0  0  0  0  0
    0.3060   -2.0736   -5.0135 H   0  0  0  0  0  0  0  0  0  0  0  0
   -3.2152   -2.7635   -4.0752 H   0  0  0  0  0  0  0  0  0  0  0  0
  1 20  1  0  0  0  0
  1 21  1  0  0  0  0
  1 22  1  0  0  0  0
  2 23  1  0  0  0  0
  3 24  1  0  0  0  0
  4  2  1  0  0  0  0
  4 25  1  0  0  0  0
  5  3  2  0  0  0  0
  5 26  1  0  0  0  0
  6 27  1  0  0  0  0
  6 28  1  0  0  0  0
  7 29  1  0  0  0  0
  7 30  1  0  0  0  0
  8  6  1  0  0  0  0
  8 31  1  0  0  0  0
  8 32  1  0  0  0  0
  9  7  1  0  0  0  0
  9 33  1  0  0  0  0
  9 34  1  0  0  0  0
 10  1  1  0  0  0  0
 11  2  2  0  0  0  0
 11  3  1  0  0  0  0
 12  4  2  0  0  0  0
 12  5  1  0  0  0  0
 13 11  1  0  0  0  0
 14 12  1  0  0  0  0
 15 13  1  0  0  0  0
 15 35  1  0  0  0  0
 16  6  1  0  0  0  0
 16  7  1  0  0  0  0
 16 10  1  0  0  0  0
 17  8  1  0  0  0  0
 17  9  1  0  0  0  0
 17 15  1  0  0  0  0
 18 10  2  0  0  0  0
 19 13  2  0  0  0  0
M  END
>  <DRUGBANK_ID>
DB06465

>  <COMMON_NAME>
FK-960

>  <CAS_NUMBER>
133920-70-4

>  <UNII>
60MMJ100ZX

>  <SYNONYMS>
N-(4-Acetyl-1-piperazinyl)-4-fluorobenzamide

$$$$
