SDZ
 OpenBabel10282417173D

 62 65  0  0  0  0  0  0  0  0999 V2000
   -4.8447   -8.3321    1.4571 N   0  0  0  0  0  0  0  0  0  0  0  0
   -5.5410   -9.3803    1.9972 C   0  0  0  0  0  0  0  0  0  0  0  0
   -6.4958  -10.1036    1.3854 C   0  0  0  0  0  0  0  0  0  0  0  0
   -7.0103   -9.4996    0.2562 C   0  0  0  0  0  0  0  0  0  0  0  0
   -6.4061   -8.3415   -0.2284 C   0  0  0  0  0  0  0  0  0  0  0  0
   -5.2234   -7.8443    0.2729 C   0  0  0  0  0  0  0  0  0  0  0  0
   -4.7402   -6.6716   -0.2876 N   0  0  0  0  0  0  0  0  0  0  0  0
   -5.5214   -5.5988    0.3144 C   0  0  0  0  0  0  0  0  0  0  0  0
   -5.5792   -4.3878   -0.6118 C   0  0  0  0  0  0  0  0  0  0  0  0
   -4.2675   -3.8092   -0.9243 N   0  0  0  0  0  0  0  0  0  0  0  0
   -3.3524   -6.3179   -0.6787 C   0  0  0  0  0  0  0  0  0  0  0  0
   -3.4030   -4.9308   -1.4618 C   0  0  0  0  0  0  0  0  0  0  0  0
   -3.7420   -2.9619    0.2062 C   0  0  0  0  0  0  0  0  0  0  0  0
   -3.4030   -3.5460    1.6184 C   0  0  2  0  0  0  0  0  0  0  0  0
   -2.8187   -4.7427    1.2518 O   0  0  0  0  0  0  0  0  0  0  0  0
   -4.5283   -3.7902    2.6825 C   0  0  0  0  0  0  0  0  0  0  0  0
   -4.3657   -4.7885    3.7768 O   0  0  0  0  0  0  0  0  0  0  0  0
   -3.9157   -6.0896    3.6456 C   0  0  0  0  0  0  0  0  0  0  0  0
   -2.7271   -6.4426    3.0291 C   0  0  0  0  0  0  0  0  0  0  0  0
   -2.3330   -7.7550    2.6824 C   0  0  0  0  0  0  0  0  0  0  0  0
   -2.9066   -8.8323    3.3238 C   0  0  0  0  0  0  0  0  0  0  0  0
   -3.8843   -8.4699    4.3023 C   0  0  0  0  0  0  0  0  0  0  0  0
   -4.4706   -7.1466    4.3600 C   0  0  0  0  0  0  0  0  0  0  0  0
   -2.6648  -10.2913    2.8186 C   0  0  0  0  0  0  0  0  0  0  0  0
   -1.1937  -10.7223    2.9084 C   0  0  0  0  0  0  0  0  0  0  0  0
   -1.0414  -12.2124    2.5397 C   0  0  0  0  0  0  0  0  0  0  0  0
   -1.5633  -12.5622    1.1448 C   0  0  0  0  0  0  0  0  0  0  0  0
   -3.0011  -12.1515    1.0286 C   0  0  0  0  0  0  0  0  0  0  0  0
   -3.0731  -10.6653    1.3321 C   0  0  0  0  0  0  0  0  0  0  0  0
   -2.6043   -2.9741    2.1011 H   0  0  0  0  0  0  0  0  0  0  0  0
   -5.1341   -9.8350    2.9029 H   0  0  0  0  0  0  0  0  0  0  0  0
   -6.7672  -11.0804    1.7504 H   0  0  0  0  0  0  0  0  0  0  0  0
   -7.8630   -9.9270   -0.2247 H   0  0  0  0  0  0  0  0  0  0  0  0
   -6.8930   -7.7640   -1.0112 H   0  0  0  0  0  0  0  0  0  0  0  0
   -6.5555   -5.8757    0.5508 H   0  0  0  0  0  0  0  0  0  0  0  0
   -5.0908   -5.4124    1.2766 H   0  0  0  0  0  0  0  0  0  0  0  0
   -6.0381   -4.7257   -1.5519 H   0  0  0  0  0  0  0  0  0  0  0  0
   -6.2515   -3.6196   -0.2167 H   0  0  0  0  0  0  0  0  0  0  0  0
   -2.5562   -6.2441    0.0628 H   0  0  0  0  0  0  0  0  0  0  0  0
   -2.9125   -7.1283   -1.2723 H   0  0  0  0  0  0  0  0  0  0  0  0
   -3.8169   -5.1939   -2.4506 H   0  0  0  0  0  0  0  0  0  0  0  0
   -2.3995   -4.5441   -1.6796 H   0  0  0  0  0  0  0  0  0  0  0  0
   -2.7985   -2.5461   -0.1807 H   0  0  0  0  0  0  0  0  0  0  0  0
   -4.3967   -2.0920    0.3341 H   0  0  0  0  0  0  0  0  0  0  0  0
   -1.8578   -4.6896    1.2378 H   0  0  0  0  0  0  0  0  0  0  0  0
   -4.6598   -2.8238    3.1934 H   0  0  0  0  0  0  0  0  0  0  0  0
   -5.5279   -3.9015    2.2402 H   0  0  0  0  0  0  0  0  0  0  0  0
   -2.0234   -5.6660    2.8170 H   0  0  0  0  0  0  0  0  0  0  0  0
   -1.6591   -7.8949    1.8417 H   0  0  0  0  0  0  0  0  0  0  0  0
   -4.3423   -9.2447    4.9146 H   0  0  0  0  0  0  0  0  0  0  0  0
   -5.3675   -6.9879    4.9558 H   0  0  0  0  0  0  0  0  0  0  0  0
   -3.2309  -10.9401    3.5026 H   0  0  0  0  0  0  0  0  0  0  0  0
   -0.5880  -10.1152    2.2223 H   0  0  0  0  0  0  0  0  0  0  0  0
   -0.8120  -10.5490    3.9187 H   0  0  0  0  0  0  0  0  0  0  0  0
    0.0094  -12.4988    2.6015 H   0  0  0  0  0  0  0  0  0  0  0  0
   -1.5990  -12.8072    3.2745 H   0  0  0  0  0  0  0  0  0  0  0  0
   -0.9922  -12.0267    0.3766 H   0  0  0  0  0  0  0  0  0  0  0  0
   -1.4764  -13.6327    0.9389 H   0  0  0  0  0  0  0  0  0  0  0  0
   -3.3890  -12.3467    0.0182 H   0  0  0  0  0  0  0  0  0  0  0  0
   -3.6509  -12.7139    1.7146 H   0  0  0  0  0  0  0  0  0  0  0  0
   -4.0863  -10.5096    1.0386 H   0  0  0  0  0  0  0  0  0  0  0  0
   -2.5025  -10.0726    0.6072 H   0  0  0  0  0  0  0  0  0  0  0  0
  1  2  2  0  0  0  0
  1  6  1  0  0  0  0
  2  3  1  0  0  0  0
  2 31  1  0  0  0  0
  3  4  2  0  0  0  0
  3 32  1  0  0  0  0
  4  5  1  0  0  0  0
  4 33  1  0  0  0  0
  5  6  2  0  0  0  0
  5 34  1  0  0  0  0
  6  7  1  0  0  0  0
  7  8  1  0  0  0  0
  7 11  1  0  0  0  0
  8  9  1  0  0  0  0
  8 35  1  0  0  0  0
  8 36  1  0  0  0  0
  9 10  1  0  0  0  0
  9 37  1  0  0  0  0
  9 38  1  0  0  0  0
 10 12  1  0  0  0  0
 10 13  1  0  0  0  0
 11 12  1  0  0  0  0
 11 39  1  0  0  0  0
 11 40  1  0  0  0  0
 12 41  1  0  0  0  0
 12 42  1  0  0  0  0
 13 43  1  0  0  0  0
 13 44  1  0  0  0  0
 14 16  1  0  0  0  0
 14 30  1  1  0  0  0
 14 15  1  0  0  0  0
 14 13  1  0  0  0  0
 15 45  1  0  0  0  0
 16 17  1  0  0  0  0
 16 46  1  0  0  0  0
 16 47  1  0  0  0  0
 17 18  1  0  0  0  0
 18 19  2  0  0  0  0
 18 23  1  0  0  0  0
 19 20  1  0  0  0  0
 19 48  1  0  0  0  0
 20 21  2  0  0  0  0
 20 49  1  0  0  0  0
 21 22  1  0  0  0  0
 21 24  1  0  0  0  0
 22 23  2  0  0  0  0
 22 50  1  0  0  0  0
 23 51  1  0  0  0  0
 24 25  1  0  0  0  0
 24 29  1  0  0  0  0
 24 52  1  0  0  0  0
 25 26  1  0  0  0  0
 25 53  1  0  0  0  0
 25 54  1  0  0  0  0
 26 27  1  0  0  0  0
 26 55  1  0  0  0  0
 26 56  1  0  0  0  0
 27 28  1  0  0  0  0
 27 57  1  0  0  0  0
 27 58  1  0  0  0  0
 28 29  1  0  0  0  0
 28 59  1  0  0  0  0
 28 60  1  0  0  0  0
 29 61  1  0  0  0  0
 29 62  1  0  0  0  0
M  END
>  <DRUGBANK_ID>
DB08543

>  <COMMON_NAME>
1-[2-HYDROXY-3-(4-CYCLOHEXYL-PHENOXY)-PROPYL]-4-(2-PYRIDYL)-PIPERAZINE

$$$$
