
 OpenBabel10282417123D

 29 29  0  0  0  0  0  0  0  0999 V2000
    2.7154    0.8959    0.0351 C   0  0  0  0  0  0  0  0  0  0  0  0
    1.2377    0.6322    0.0259 C   0  0  0  0  0  0  0  0  0  0  0  0
    0.2650    1.5618    0.0590 C   0  0  0  0  0  0  0  0  0  0  0  0
    0.5440    3.0457    0.0445 C   0  0  0  0  0  0  0  0  0  0  0  0
    0.0451    3.7712   -1.2221 C   0  0  0  0  0  0  0  0  0  0  0  0
   -1.4784    3.7361   -1.3592 C   0  0  0  0  0  0  0  0  0  0  0  0
   -2.1275    4.2330   -0.1936 O   0  0  0  0  0  0  0  0  0  0  0  0
    0.5120    5.2320   -1.2071 C   0  0  0  0  0  0  0  0  0  0  0  0
    1.9316    5.3206   -1.2417 O   0  0  0  0  0  0  0  0  0  0  0  0
   -1.0518    1.1681    0.1272 N   0  0  0  0  0  0  0  0  0  0  0  0
   -1.4871   -0.1202    0.0508 C   0  0  0  0  0  0  0  0  0  0  0  0
   -2.6801   -0.3915    0.0488 O   0  0  0  0  0  0  0  0  0  0  0  0
   -0.5118   -1.0625   -0.0209 N   0  0  0  0  0  0  0  0  0  0  0  0
    0.8272   -0.8031   -0.0006 C   0  0  0  0  0  0  0  0  0  0  0  0
    1.6588   -1.7085   -0.0075 O   0  0  0  0  0  0  0  0  0  0  0  0
    3.1610    0.4761    0.9417 H   0  0  0  0  0  0  0  0  0  0  0  0
    3.1944    0.4663   -0.8479 H   0  0  0  0  0  0  0  0  0  0  0  0
    2.9877    1.9525    0.0361 H   0  0  0  0  0  0  0  0  0  0  0  0
    0.1553    3.5023    0.9606 H   0  0  0  0  0  0  0  0  0  0  0  0
    1.6138    3.2273    0.1170 H   0  0  0  0  0  0  0  0  0  0  0  0
    0.4937    3.2817   -2.0994 H   0  0  0  0  0  0  0  0  0  0  0  0
   -1.8135    4.3364   -2.2081 H   0  0  0  0  0  0  0  0  0  0  0  0
   -1.8404    2.7267   -1.5693 H   0  0  0  0  0  0  0  0  0  0  0  0
   -1.7460    3.8503    0.6130 H   0  0  0  0  0  0  0  0  0  0  0  0
    0.1389    5.7534   -2.0941 H   0  0  0  0  0  0  0  0  0  0  0  0
    0.1424    5.7602   -0.3220 H   0  0  0  0  0  0  0  0  0  0  0  0
    2.2856    5.0293   -0.3854 H   0  0  0  0  0  0  0  0  0  0  0  0
   -1.8160    1.8302    0.1891 H   0  0  0  0  0  0  0  0  0  0  0  0
   -0.8085   -2.0246   -0.0431 H   0  0  0  0  0  0  0  0  0  0  0  0
  1  2  1  0  0  0  0
  1 16  1  0  0  0  0
  1 17  1  0  0  0  0
  1 18  1  0  0  0  0
  2  3  2  0  0  0  0
  2 14  1  0  0  0  0
  3  4  1  0  0  0  0
  3 10  1  0  0  0  0
  4  5  1  0  0  0  0
  4 19  1  0  0  0  0
  4 20  1  0  0  0  0
  5  6  1  0  0  0  0
  5  8  1  0  0  0  0
  5 21  1  0  0  0  0
  6  7  1  0  0  0  0
  6 22  1  0  0  0  0
  6 23  1  0  0  0  0
  7 24  1  0  0  0  0
  8  9  1  0  0  0  0
  8 25  1  0  0  0  0
  8 26  1  0  0  0  0
  9 27  1  0  0  0  0
 10 11  1  0  0  0  0
 10 28  1  0  0  0  0
 11 12  2  0  0  0  0
 11 13  1  0  0  0  0
 13 14  1  0  0  0  0
 13 29  1  0  0  0  0
 14 15  2  0  0  0  0
M  END
>  <DRUGBANK_ID>
DB02500

>  <SECONDARY_ACCESSION_NUMBERS>
EXPT00866

>  <COMMON_NAME>
6-(Dihydroxy-Isobutyl)-Thymine

>  <SYNONYMS>
6-(1,3-dihydroxyisobutyl)thymine; 6-(Dihydroxyisobutyl)-Thymine

$$$$
