LZC
 OpenBabel10282417173D

 46 48  0  0  0  0  0  0  0  0999 V2000
    0.9027   -0.0545    0.0045 C   0  0  0  0  0  0  0  0  0  0  0  0
    0.4130   -1.4725    0.2840 C   0  0  0  0  0  0  0  0  0  0  0  0
    0.9039   -1.9353    1.6478 C   0  0  0  0  0  0  0  0  0  0  0  0
   -1.0439   -1.4974    0.2356 N   0  0  0  0  0  0  0  0  0  0  0  0
   -1.8188   -2.2519   -0.6459 C   0  0  0  0  0  0  0  0  0  0  0  0
   -2.9338   -1.7609   -1.2205 C   0  0  0  0  0  0  0  0  0  0  0  0
   -3.7656   -2.6694   -2.0852 C   0  0  0  0  0  0  0  0  0  0  0  0
   -4.9475   -2.1849   -2.6133 N   0  0  0  0  0  0  0  0  0  0  0  0
   -6.2312   -2.8269   -2.3418 C   0  0  1  0  0  0  0  0  0  0  0  0
   -6.4631   -2.8229   -0.8222 C   0  0  0  0  0  0  0  0  0  0  0  0
   -7.8002   -3.4393   -0.4373 C   0  0  0  0  0  0  0  0  0  0  0  0
   -8.9610   -2.7427   -1.1448 C   0  0  2  0  0  0  0  0  0  0  0  0
  -10.2067   -3.4163   -0.7877 N   0  0  0  0  0  0  0  0  0  0  0  0
   -8.7483   -2.7598   -2.6623 C   0  0  0  0  0  0  0  0  0  0  0  0
   -7.4029   -2.1278   -3.0539 C   0  0  0  0  0  0  0  0  0  0  0  0
   -3.4475   -3.9224   -2.2982 N   0  0  0  0  0  0  0  0  0  0  0  0
   -2.2875   -4.3933   -1.7470 C   0  0  0  0  0  0  0  0  0  0  0  0
   -1.6765   -5.6265   -1.8053 C   0  0  0  0  0  0  0  0  0  0  0  0
   -2.1343   -6.7758   -2.5076 C   0  0  0  0  0  0  0  0  0  0  0  0
   -2.4666   -7.7389   -3.0578 N   0  0  0  0  0  0  0  0  0  0  0  0
   -0.5250   -5.5216   -1.0202 C   0  0  0  0  0  0  0  0  0  0  0  0
   -0.3878   -4.3150   -0.4773 N   0  0  0  0  0  0  0  0  0  0  0  0
   -1.4673   -3.5998   -0.9322 N   0  0  0  0  0  0  0  0  0  0  0  0
   -6.1900   -3.8609   -2.7042 H   0  0  0  0  0  0  0  0  0  0  0  0
   -9.0224   -1.7028   -0.7994 H   0  0  0  0  0  0  0  0  0  0  0  0
    0.5482    0.6500    0.7648 H   0  0  0  0  0  0  0  0  0  0  0  0
    0.5483    0.2969   -0.9702 H   0  0  0  0  0  0  0  0  0  0  0  0
    1.9977   -0.0255   -0.0022 H   0  0  0  0  0  0  0  0  0  0  0  0
    0.8379   -2.1161   -0.4926 H   0  0  0  0  0  0  0  0  0  0  0  0
    0.5509   -1.2722    2.4451 H   0  0  0  0  0  0  0  0  0  0  0  0
    0.5528   -2.9464    1.8743 H   0  0  0  0  0  0  0  0  0  0  0  0
    1.9991   -1.9422    1.6731 H   0  0  0  0  0  0  0  0  0  0  0  0
   -1.5385   -0.8309    0.8210 H   0  0  0  0  0  0  0  0  0  0  0  0
   -3.2772   -0.7499   -1.0571 H   0  0  0  0  0  0  0  0  0  0  0  0
   -4.9307   -1.3439   -3.1773 H   0  0  0  0  0  0  0  0  0  0  0  0
   -5.6664   -3.3845   -0.3220 H   0  0  0  0  0  0  0  0  0  0  0  0
   -6.4103   -1.7945   -0.4390 H   0  0  0  0  0  0  0  0  0  0  0  0
   -7.7829   -4.5054   -0.6987 H   0  0  0  0  0  0  0  0  0  0  0  0
   -7.9240   -3.3768    0.6504 H   0  0  0  0  0  0  0  0  0  0  0  0
  -10.9918   -2.9821   -1.2706 H   0  0  0  0  0  0  0  0  0  0  0  0
  -10.1813   -4.3853   -1.1060 H   0  0  0  0  0  0  0  0  0  0  0  0
   -8.7737   -3.7958   -3.0264 H   0  0  0  0  0  0  0  0  0  0  0  0
   -9.5686   -2.2288   -3.1608 H   0  0  0  0  0  0  0  0  0  0  0  0
   -7.4264   -1.0576   -2.8092 H   0  0  0  0  0  0  0  0  0  0  0  0
   -7.2813   -2.1984   -4.1414 H   0  0  0  0  0  0  0  0  0  0  0  0
    0.2246   -6.2750   -0.8085 H   0  0  0  0  0  0  0  0  0  0  0  0
  1  2  1  0  0  0  0
  1 26  1  0  0  0  0
  1 27  1  0  0  0  0
  1 28  1  0  0  0  0
  2  3  1  0  0  0  0
  2  4  1  0  0  0  0
  2 29  1  0  0  0  0
  3 30  1  0  0  0  0
  3 31  1  0  0  0  0
  3 32  1  0  0  0  0
  4  5  1  0  0  0  0
  4 33  1  0  0  0  0
  5  6  2  0  0  0  0
  5 23  1  0  0  0  0
  6  7  1  0  0  0  0
  6 34  1  0  0  0  0
  7  8  1  0  0  0  0
  7 16  2  0  0  0  0
  8 35  1  0  0  0  0
  9  8  1  0  0  0  0
  9 10  1  0  0  0  0
  9 15  1  0  0  0  0
  9 24  1  6  0  0  0
 10 11  1  0  0  0  0
 10 36  1  0  0  0  0
 10 37  1  0  0  0  0
 11 12  1  0  0  0  0
 11 38  1  0  0  0  0
 11 39  1  0  0  0  0
 12 13  1  0  0  0  0
 12 14  1  0  0  0  0
 12 25  1  1  0  0  0
 13 40  1  0  0  0  0
 13 41  1  0  0  0  0
 14 15  1  0  0  0  0
 14 42  1  0  0  0  0
 14 43  1  0  0  0  0
 15 44  1  0  0  0  0
 15 45  1  0  0  0  0
 16 17  1  0  0  0  0
 17 18  2  0  0  0  0
 17 23  1  0  0  0  0
 18 19  1  0  0  0  0
 18 21  1  0  0  0  0
 19 20  3  0  0  0  0
 21 22  2  0  0  0  0
 21 46  1  0  0  0  0
 22 23  1  0  0  0  0
M  END
>  <DRUGBANK_ID>
DB08140

>  <COMMON_NAME>
5-[(4-AMINOCYCLOHEXYL)AMINO]-7-(PROPAN-2-YLAMINO)PYRAZOLO[1,5-A]PYRIMIDINE-3-CARBONITRILE

$$$$
