
 OpenBabel10282417203D

 65 67  0  0  0  0  0  0  0  0999 V2000
   -6.1451    0.5252   -2.8441 N   0  0  0  0  0  0  0  0  0  0  0  0
   -5.3880    0.5345   -1.6457 C   0  0  0  0  0  0  0  0  0  0  0  0
   -6.3668   -0.6684   -3.7540 C   0  0  0  0  0  0  0  0  0  0  0  0
   -3.5136   -0.7956   -0.8164 N   0  0  0  0  0  0  0  0  0  0  0  0
   -4.9683   -0.7629   -0.9774 C   0  0  1  0  0  0  0  0  0  0  0  0
   -1.4826   -2.0853   -0.4189 C   0  0  0  0  0  0  0  0  0  0  0  0
   -7.6516   -0.6381   -4.6600 C   0  0  0  0  0  0  0  0  0  0  0  0
   -6.5238   -2.0070   -3.0199 C   0  0  0  0  0  0  0  0  0  0  0  0
   -2.9976   -2.1000   -0.3607 C   0  0  2  0  0  0  0  0  0  0  0  0
   -8.0301   -2.0955   -4.7921 C   0  0  0  0  0  0  0  0  0  0  0  0
   -7.3893   -2.8549   -3.8320 C   0  0  0  0  0  0  0  0  0  0  0  0
   -6.3984    1.8587   -3.4472 C   0  0  0  0  0  0  0  0  0  0  0  0
   -6.1869    3.1124   -2.5886 C   0  0  0  0  0  0  0  0  0  0  0  0
   -5.0756    1.5665   -1.0417 O   0  0  0  0  0  0  0  0  0  0  0  0
   -0.8429   -1.4211   -1.2139 O   0  0  0  0  0  0  0  0  0  0  0  0
   -5.3406    3.9666   -2.7715 O   0  0  0  0  0  0  0  0  0  0  0  0
   -3.5842   -3.3411   -1.1021 C   0  0  0  0  0  0  0  0  0  0  0  0
   -0.9744   -2.9113    0.5455 O   0  0  0  0  0  0  0  0  0  0  0  0
   -7.0061    3.1402   -1.5074 O   0  0  0  0  0  0  0  0  0  0  0  0
   -3.2117   -4.7090   -0.5338 C   0  0  0  0  0  0  0  0  0  0  0  0
   -3.7248   -4.9692    0.8666 C   0  0  0  0  0  0  0  0  0  0  0  0
   -5.8892   -1.0504    0.2105 C   0  0  0  0  0  0  0  0  0  0  0  0
   -8.8924   -2.7443   -5.6438 C   0  0  0  0  0  0  0  0  0  0  0  0
   -7.5426   -4.2192   -3.6463 C   0  0  0  0  0  0  0  0  0  0  0  0
    0.4516   -2.9643    0.6170 C   0  0  0  0  0  0  0  0  0  0  0  0
   -3.7332   -6.2599    1.3740 C   0  0  0  0  0  0  0  0  0  0  0  0
   -4.1285   -3.9590    1.7463 C   0  0  0  0  0  0  0  0  0  0  0  0
    1.0332   -3.5672   -0.6489 C   0  0  0  0  0  0  0  0  0  0  0  0
   -9.0539   -4.1392   -5.5088 C   0  0  0  0  0  0  0  0  0  0  0  0
   -8.3832   -4.8745   -4.5172 C   0  0  0  0  0  0  0  0  0  0  0  0
   -4.0585   -6.4770    2.7192 C   0  0  0  0  0  0  0  0  0  0  0  0
   -4.2881   -4.1289    3.1061 C   0  0  0  0  0  0  0  0  0  0  0  0
   -4.2984   -5.4113    3.5911 C   0  0  0  0  0  0  0  0  0  0  0  0
   -5.4842   -0.7252   -4.4134 H   0  0  0  0  0  0  0  0  0  0  0  0
   -3.0655   -0.5826   -1.7120 H   0  0  0  0  0  0  0  0  0  0  0  0
   -5.0861   -1.5450   -1.6620 H   0  0  0  0  0  0  0  0  0  0  0  0
   -8.4597   -0.0901   -4.1664 H   0  0  0  0  0  0  0  0  0  0  0  0
   -7.4369   -0.1920   -5.6359 H   0  0  0  0  0  0  0  0  0  0  0  0
   -5.5748   -2.5482   -2.9975 H   0  0  0  0  0  0  0  0  0  0  0  0
   -7.0235   -1.8767   -2.0586 H   0  0  0  0  0  0  0  0  0  0  0  0
   -3.1711   -2.0336    0.7013 H   0  0  0  0  0  0  0  0  0  0  0  0
   -5.7893    1.9605   -4.3533 H   0  0  0  0  0  0  0  0  0  0  0  0
   -7.4482    1.8881   -3.7537 H   0  0  0  0  0  0  0  0  0  0  0  0
   -4.6806   -3.3515   -1.0969 H   0  0  0  0  0  0  0  0  0  0  0  0
   -3.2865   -3.2999   -2.1600 H   0  0  0  0  0  0  0  0  0  0  0  0
   -6.4455    3.5788   -0.8290 H   0  0  0  0  0  0  0  0  0  0  0  0
   -3.6088   -5.4794   -1.2120 H   0  0  0  0  0  0  0  0  0  0  0  0
   -2.1232   -4.8275   -0.5589 H   0  0  0  0  0  0  0  0  0  0  0  0
   -6.9473   -0.9518   -0.0632 H   0  0  0  0  0  0  0  0  0  0  0  0
   -5.8050   -2.0806    0.5486 H   0  0  0  0  0  0  0  0  0  0  0  0
   -5.7007   -0.3788    1.0501 H   0  0  0  0  0  0  0  0  0  0  0  0
   -9.4308   -2.2017   -6.4108 H   0  0  0  0  0  0  0  0  0  0  0  0
   -7.0080   -4.7428   -2.8569 H   0  0  0  0  0  0  0  0  0  0  0  0
    0.8395   -1.9620    0.8246 H   0  0  0  0  0  0  0  0  0  0  0  0
    0.7144   -3.5983    1.4727 H   0  0  0  0  0  0  0  0  0  0  0  0
   -3.5069   -7.1018    0.7254 H   0  0  0  0  0  0  0  0  0  0  0  0
   -4.3835   -2.9722    1.4312 H   0  0  0  0  0  0  0  0  0  0  0  0
    0.7573   -2.9982   -1.5398 H   0  0  0  0  0  0  0  0  0  0  0  0
    2.1222   -3.5926   -0.6019 H   0  0  0  0  0  0  0  0  0  0  0  0
    0.6418   -4.5773   -0.8031 H   0  0  0  0  0  0  0  0  0  0  0  0
   -9.7139   -4.6710   -6.1868 H   0  0  0  0  0  0  0  0  0  0  0  0
   -8.5122   -5.9491   -4.4270 H   0  0  0  0  0  0  0  0  0  0  0  0
   -4.1043   -7.4898    3.1000 H   0  0  0  0  0  0  0  0  0  0  0  0
   -4.4382   -3.2545    3.7344 H   0  0  0  0  0  0  0  0  0  0  0  0
   -4.5341   -5.5701    4.6357 H   0  0  0  0  0  0  0  0  0  0  0  0
  2  1  1  0  0  0  0
  3  1  1  0  0  0  0
  3 34  1  0  0  0  0
  4  5  1  0  0  0  0
  4 35  1  0  0  0  0
  5  2  1  0  0  0  0
  5 22  1  0  0  0  0
  5 36  1  6  0  0  0
  7  3  1  0  0  0  0
  7 37  1  0  0  0  0
  7 38  1  0  0  0  0
  8  3  1  0  0  0  0
  8 39  1  0  0  0  0
  8 40  1  0  0  0  0
  9 41  1  1  0  0  0
  9  4  1  0  0  0  0
  9  6  1  0  0  0  0
 10  7  1  0  0  0  0
 11  8  1  0  0  0  0
 11 10  2  0  0  0  0
 12  1  1  0  0  0  0
 12 42  1  0  0  0  0
 12 43  1  0  0  0  0
 13 12  1  0  0  0  0
 14  2  2  0  0  0  0
 15  6  2  0  0  0  0
 16 13  2  0  0  0  0
 17  9  1  0  0  0  0
 17 44  1  0  0  0  0
 17 45  1  0  0  0  0
 18  6  1  0  0  0  0
 19 13  1  0  0  0  0
 19 46  1  0  0  0  0
 20 17  1  0  0  0  0
 20 47  1  0  0  0  0
 20 48  1  0  0  0  0
 21 20  1  0  0  0  0
 22 49  1  0  0  0  0
 22 50  1  0  0  0  0
 22 51  1  0  0  0  0
 23 10  1  0  0  0  0
 23 52  1  0  0  0  0
 24 11  1  0  0  0  0
 24 53  1  0  0  0  0
 25 18  1  0  0  0  0
 25 54  1  0  0  0  0
 25 55  1  0  0  0  0
 26 21  2  0  0  0  0
 26 56  1  0  0  0  0
 27 21  1  0  0  0  0
 27 57  1  0  0  0  0
 28 25  1  0  0  0  0
 28 58  1  0  0  0  0
 28 59  1  0  0  0  0
 28 60  1  0  0  0  0
 29 23  2  0  0  0  0
 29 61  1  0  0  0  0
 30 24  2  0  0  0  0
 30 29  1  0  0  0  0
 30 62  1  0  0  0  0
 31 26  1  0  0  0  0
 31 63  1  0  0  0  0
 32 27  2  0  0  0  0
 32 33  1  0  0  0  0
 32 64  1  0  0  0  0
 33 31  2  0  0  0  0
 33 65  1  0  0  0  0
M  END
>  <DRUGBANK_ID>
DB13312

>  <COMMON_NAME>
Delapril

>  <CAS_NUMBER>
83435-66-9

>  <UNII>
W77UAL9THI

>  <SYNONYMS>
Delapril

$$$$
