
 OpenBabel10282417203D

 77 79  0  0  0  0  0  0  0  0999 V2000
    0.6578    0.8636   -0.6544 C   0  0  0  0  0  0  0  0  0  0  0  0
   -0.7676    1.7815   -1.9625 C   0  0  0  0  0  0  0  0  0  0  0  0
   -2.3142    1.6110   -3.4669 C   0  0  0  0  0  0  0  0  0  0  0  0
   -3.6987    1.3062   -5.7282 C   0  0  0  0  0  0  0  0  0  0  0  0
   -4.8687    1.3570   -7.4886 C   0  0  0  0  0  0  0  0  0  0  0  0
   -6.1313    2.2978   -8.7673 N   0  0  0  0  0  0  0  0  0  0  0  0
   -5.8184    3.4430  -10.0686 C   0  0  0  0  0  0  0  0  0  0  0  0
   -5.1537    4.7974   -9.4680 C   0  0  0  0  0  0  0  0  0  0  0  0
   -4.4839    4.8865   -8.2991 C   0  0  0  0  0  0  0  0  0  0  0  0
   -4.0341    3.7698   -7.6786 C   0  0  0  0  0  0  0  0  0  0  0  0
   -3.1647    4.2514   -6.9021 C   0  0  0  0  0  0  0  0  0  0  0  0
   -3.2808    5.5624   -6.5456 C   0  0  0  0  0  0  0  0  0  0  0  0
   -4.0346    5.9466   -7.5761 N   0  5  0  0  0  0  0  0  0  0  0  0
   -2.6568    6.1952   -5.5363 C   0  0  0  0  0  0  0  0  0  0  0  0
   -1.8624    5.6608   -4.4052 C   0  0  0  0  0  0  0  0  0  0  0  0
   -1.2635    6.3670   -3.4666 N   0  0  0  0  0  0  0  0  0  0  0  0
   -0.7268    5.5542   -2.5925 C   0  0  0  0  0  0  0  0  0  0  0  0
   -0.3071    5.4483   -1.3607 C   0  0  0  0  0  0  0  0  0  0  0  0
   -0.3158    3.8637   -0.9858 C   0  0  0  0  0  0  0  0  0  0  0  0
    0.2967    2.7104   -0.8626 C   0  0  0  0  0  0  0  0  0  0  0  0
    0.2218    1.4015   -2.4169 C   0  0  0  0  0  0  0  0  0  0  0  0
    1.1466    1.3366   -3.5147 C   0  0  0  0  0  0  0  0  0  0  0  0
    1.7558    0.3619   -2.7669 C   0  0  0  0  0  0  0  0  0  0  0  0
    1.3851   -0.7733   -2.9373 O   0  0  0  0  0  0  0  0  0  0  0  0
    2.5833    0.6283   -1.7562 O   0  0  0  0  0  0  0  0  0  0  0  0
   -1.1606    2.3614   -1.8923 N   0  5  0  0  0  0  0  0  0  0  0  0
   -0.6857    4.5505   -3.3944 C   0  0  0  0  0  0  0  0  0  0  0  0
   -1.6443    4.3131   -4.1638 C   0  0  0  0  0  0  0  0  0  0  0  0
   -2.0422    3.0467   -4.6916 C   0  0  0  0  0  0  0  0  0  0  0  0
   -1.1508    3.4361   -3.0524 C   0  0  0  0  0  0  0  0  0  0  0  0
    1.0105    3.4569   -2.6477 C   0  0  0  0  0  0  0  0  0  0  0  0
    2.0204    4.0830   -1.7897 C   0  0  0  0  0  0  0  0  0  0  0  0
    2.4793    3.7264   -0.7157 O   0  0  0  0  0  0  0  0  0  0  0  0
    1.7176    5.2828   -2.2128 O   0  0  0  0  0  0  0  0  0  0  0  0
   -2.4934    3.1927   -6.4592 C   0  0  0  0  0  0  0  0  0  0  0  0
   -3.5461    2.5716   -8.1195 C   0  0  0  0  0  0  0  0  0  0  0  0
   -3.8175    2.0421   -9.2279 C   0  0  0  0  0  0  0  0  0  0  0  0
   -5.2302    2.6385  -11.0870 C   0  0  0  0  0  0  0  0  0  0  0  0
   -5.4695    1.3521   -9.8072 C   0  0  0  0  0  0  0  0  0  0  0  0
   -5.3525    0.7594  -11.8371 C   0  0  0  0  0  0  0  0  0  0  0  0
   -5.8596   -0.4713  -12.4820 C   0  0  0  0  0  0  0  0  0  0  0  0
   -4.3206    3.5794  -12.2930 C   0  0  0  0  0  0  0  0  0  0  0  0
    1.5790    0.9989    1.2668 O   0  5  0  0  0  0  0  0  0  0  0  0
    0.5342   -1.3538    0.0402 Fe  0  1  0  0  0  0  0  0  0  0  0  0
    2.2323    0.9093   -0.2521 H   0  0  0  0  0  0  0  0  0  0  0  0
    0.6325   -0.0058   -1.2398 H   0  0  0  0  0  0  0  0  0  0  0  0
    0.1802    0.3232    0.4266 H   0  0  0  0  0  0  0  0  0  0  0  0
   -4.8734    0.8886   -6.5659 H   0  0  0  0  0  0  0  0  0  0  0  0
   -5.7805    3.9305   -9.4176 H   0  0  0  0  0  0  0  0  0  0  0  0
   -2.7431    7.2649   -5.5839 H   0  0  0  0  0  0  0  0  0  0  0  0
    0.0505    6.4220   -1.0187 H   0  0  0  0  0  0  0  0  0  0  0  0
   -1.2770    0.6071   -2.3608 H   0  0  0  0  0  0  0  0  0  0  0  0
    0.1303    2.5630   -3.3226 H   0  0  0  0  0  0  0  0  0  0  0  0
    0.4736    1.2939   -4.3260 H   0  0  0  0  0  0  0  0  0  0  0  0
    1.9825    1.9690   -3.6900 H   0  0  0  0  0  0  0  0  0  0  0  0
    2.7736   -0.0739   -1.0820 H   0  0  0  0  0  0  0  0  0  0  0  0
   -1.1817    2.3059   -5.1959 H   0  0  0  0  0  0  0  0  0  0  0  0
   -2.9608    2.4905   -4.4753 H   0  0  0  0  0  0  0  0  0  0  0  0
   -3.2755    3.8272   -4.9967 H   0  0  0  0  0  0  0  0  0  0  0  0
   -2.3620    2.8982   -1.8789 H   0  0  0  0  0  0  0  0  0  0  0  0
   -0.8397    1.9908   -3.6916 H   0  0  0  0  0  0  0  0  0  0  0  0
    1.7318    2.2969   -2.0430 H   0  0  0  0  0  0  0  0  0  0  0  0
    1.3866    3.3577   -3.6447 H   0  0  0  0  0  0  0  0  0  0  0  0
    1.6930    5.9584   -1.5265 H   0  0  0  0  0  0  0  0  0  0  0  0
   -3.4484    2.7735   -5.6882 H   0  0  0  0  0  0  0  0  0  0  0  0
   -1.6781    2.5083   -6.5655 H   0  0  0  0  0  0  0  0  0  0  0  0
   -2.1012    4.0852   -5.8352 H   0  0  0  0  0  0  0  0  0  0  0  0
   -3.3231    1.6131   -7.5621 H   0  0  0  0  0  0  0  0  0  0  0  0
   -4.3044    0.6697   -9.1928 H   0  0  0  0  0  0  0  0  0  0  0  0
   -4.6341    2.6697   -9.3608 H   0  0  0  0  0  0  0  0  0  0  0  0
   -4.8296    1.0913  -13.2537 H   0  0  0  0  0  0  0  0  0  0  0  0
   -5.7375   -1.1419  -13.4225 H   0  0  0  0  0  0  0  0  0  0  0  0
   -6.4577   -0.9070  -11.7324 H   0  0  0  0  0  0  0  0  0  0  0  0
   -3.3684    3.1081  -12.5274 H   0  0  0  0  0  0  0  0  0  0  0  0
   -4.8639    3.7199  -13.2538 H   0  0  0  0  0  0  0  0  0  0  0  0
   -4.0788    4.6174  -11.9628 H   0  0  0  0  0  0  0  0  0  0  0  0
    1.7303    0.0951    0.6806 H   0  0  0  0  0  0  0  0  0  0  0  0
  1  2  1  0  0  0  0
  1 45  1  0  0  0  0
  1 46  1  0  0  0  0
  1 47  1  0  0  0  0
  2  3  2  0  0  0  0
  2 20  1  0  0  0  0
  3  4  1  0  0  0  0
  3 26  1  0  0  0  0
  4  5  2  0  0  0  0
  4 48  1  0  0  0  0
  5  6  1  0  0  0  0
  5 39  1  0  0  0  0
  6  7  2  0  0  0  0
  7  8  1  0  0  0  0
  7 38  1  0  0  0  0
  8  9  2  0  0  0  0
  8 49  1  0  0  0  0
  9 10  1  0  0  0  0
  9 13  1  0  0  0  0
 10 11  2  0  0  0  0
 10 36  1  0  0  0  0
 11 12  1  0  0  0  0
 11 35  1  0  0  0  0
 12 13  1  0  0  0  0
 12 14  2  0  0  0  0
 14 15  1  0  0  0  0
 14 50  1  0  0  0  0
 15 16  2  0  0  0  0
 15 28  1  0  0  0  0
 16 17  1  0  0  0  0
 17 18  2  0  0  0  0
 17 27  1  0  0  0  0
 18 19  1  0  0  0  0
 18 51  1  0  0  0  0
 19 20  2  0  0  0  0
 19 26  1  0  0  0  0
 20 21  1  0  0  0  0
 21 22  1  0  0  0  0
 21 52  1  0  0  0  0
 21 53  1  0  0  0  0
 22 23  1  0  0  0  0
 22 54  1  0  0  0  0
 22 55  1  0  0  0  0
 23 24  2  0  0  0  0
 23 25  1  0  0  0  0
 25 56  1  0  0  0  0
 27 28  2  0  0  0  0
 27 30  1  0  0  0  0
 28 29  1  0  0  0  0
 29 57  1  0  0  0  0
 29 58  1  0  0  0  0
 29 59  1  0  0  0  0
 30 31  1  0  0  0  0
 30 60  1  0  0  0  0
 30 61  1  0  0  0  0
 31 32  1  0  0  0  0
 31 62  1  0  0  0  0
 31 63  1  0  0  0  0
 32 33  2  0  0  0  0
 32 34  1  0  0  0  0
 34 64  1  0  0  0  0
 35 65  1  0  0  0  0
 35 66  1  0  0  0  0
 35 67  1  0  0  0  0
 36 37  2  0  0  0  0
 36 68  1  0  0  0  0
 37 69  1  0  0  0  0
 37 70  1  0  0  0  0
 38 39  2  0  0  0  0
 38 42  1  0  0  0  0
 39 40  1  0  0  0  0
 40 41  2  0  0  0  0
 40 71  1  0  0  0  0
 41 72  1  0  0  0  0
 41 73  1  0  0  0  0
 42 74  1  0  0  0  0
 42 75  1  0  0  0  0
 42 76  1  0  0  0  0
 43 77  1  0  0  0  0
M  CHG  4  13  -1  26  -1  43  -1  44   3
M  END
>  <DRUGBANK_ID>
DB13387

>  <COMMON_NAME>
Hematin

>  <CAS_NUMBER>
15489-90-4

>  <UNII>
0WP180G15G

$$$$
