
 OpenBabel10282417173D

 92 92  0  0  0  0  0  0  0  0999 V2000
   -6.0677   10.2446   -2.0396 C   0  0  0  0  0  0  0  0  0  0  0  0
   -6.0194    9.0268   -3.2470 C   0  0  0  0  0  0  0  0  0  0  0  0
   -5.6257    7.7075   -3.0621 C   0  0  0  0  0  0  0  0  0  0  0  0
   -5.2228    7.6155   -1.7440 C   0  0  0  0  0  0  0  0  0  0  0  0
   -5.1701    9.2253   -0.9058 C   0  0  0  0  0  0  0  0  0  0  0  0
   -5.5104   10.4480   -0.8836 C   0  0  0  0  0  0  0  0  0  0  0  0
   -6.8366   11.3608   -1.8807 O   0  0  0  0  0  0  0  0  0  0  0  0
   -6.3541   12.6411   -1.4283 C   0  0  0  0  0  0  0  0  0  0  0  0
   -6.5226    8.9938   -4.5400 O   0  0  0  0  0  0  0  0  0  0  0  0
   -6.4756   10.1117   -5.3795 C   0  0  0  0  0  0  0  0  0  0  0  0
   -7.6367   11.0270   -5.1176 C   0  0  0  0  0  0  0  0  0  0  0  0
   -7.4881   11.4998   -3.7801 C   0  0  0  0  0  0  0  0  0  0  0  0
   -6.0010   12.1386   -3.8159 O   0  0  0  0  0  0  0  0  0  0  0  0
   -4.6532   11.4969   -3.5973 C   0  0  0  0  0  0  0  0  0  0  0  0
   -4.9942    6.0712   -0.3587 C   0  0  0  0  0  0  0  0  0  0  0  0
   -6.5782    4.6267   -0.4030 C   0  0  1  0  0  0  0  0  0  0  0  0
   -7.6026    4.5437   -2.0015 C   0  0  0  0  0  0  0  0  0  0  0  0
   -6.5670    3.4763    0.4693 C   0  0  0  0  0  0  0  0  0  0  0  0
   -7.9534    2.8401    0.3512 C   0  0  0  0  0  0  0  0  0  0  0  0
   -6.1832    3.9084    1.8332 C   0  0  0  0  0  0  0  0  0  0  0  0
   -6.7628    3.8448   -3.0517 C   0  0  1  0  0  0  0  0  0  0  0  0
   -6.1484    2.6055   -2.4757 C   0  0  1  0  0  0  0  0  0  0  0  0
   -7.1379    3.9766   -4.4240 N   0  0  0  0  0  0  0  0  0  0  0  0
   -7.1722    1.6789   -2.4327 O   0  0  0  0  0  0  0  0  0  0  0  0
   -4.8182    2.3023   -3.0729 C   0  0  0  0  0  0  0  0  0  0  0  0
   -3.9581    3.6288   -2.9715 C   0  0  2  0  0  0  0  0  0  0  0  0
   -4.4165    4.3908   -1.7048 C   0  0  0  0  0  0  0  0  0  0  0  0
   -4.0032    4.4886   -4.2403 C   0  0  0  0  0  0  0  0  0  0  0  0
   -3.3319    5.8139   -4.0801 C   0  0  0  0  0  0  0  0  0  0  0  0
   -3.6132    3.6824   -5.4351 C   0  0  0  0  0  0  0  0  0  0  0  0
   -5.7517    5.5238   -1.8295 N   0  0  0  0  0  0  0  0  0  0  0  0
   -3.8682    3.9861   -0.6481 O   0  0  0  0  0  0  0  0  0  0  0  0
   -6.7953    6.5406   -0.4220 C   0  0  0  0  0  0  0  0  0  0  0  0
   -7.6102    8.0751   -1.3106 C   0  0  0  0  0  0  0  0  0  0  0  0
   -8.5597    9.0085   -1.1585 N   0  0  0  0  0  0  0  0  0  0  0  0
   -7.9466    7.5127   -2.3744 O   0  0  0  0  0  0  0  0  0  0  0  0
   -6.1170    7.8056   -0.0563 C   0  0  0  0  0  0  0  0  0  0  0  0
   -6.7338    8.4401    1.1769 C   0  0  0  0  0  0  0  0  0  0  0  0
   -4.0160    7.8338   -0.3005 C   0  0  0  0  0  0  0  0  0  0  0  0
   -6.0811    6.9675   -3.7369 H   0  0  0  0  0  0  0  0  0  0  0  0
   -4.8628    9.2662    0.2430 H   0  0  0  0  0  0  0  0  0  0  0  0
   -5.5806   11.0783   -0.0251 H   0  0  0  0  0  0  0  0  0  0  0  0
   -7.0414   12.7074   -0.6053 H   0  0  0  0  0  0  0  0  0  0  0  0
   -5.2703   12.6991   -1.2200 H   0  0  0  0  0  0  0  0  0  0  0  0
   -6.5844   13.4104   -2.1615 H   0  0  0  0  0  0  0  0  0  0  0  0
   -5.4801   10.5184   -5.4253 H   0  0  0  0  0  0  0  0  0  0  0  0
   -6.5671    9.7945   -6.4042 H   0  0  0  0  0  0  0  0  0  0  0  0
   -7.5621   11.9677   -5.6279 H   0  0  0  0  0  0  0  0  0  0  0  0
   -8.5829   10.4847   -5.1454 H   0  0  0  0  0  0  0  0  0  0  0  0
   -8.2163   12.1836   -3.2506 H   0  0  0  0  0  0  0  0  0  0  0  0
   -7.7809   10.5540   -3.2307 H   0  0  0  0  0  0  0  0  0  0  0  0
   -4.4645   10.5000   -3.1743 H   0  0  0  0  0  0  0  0  0  0  0  0
   -4.2071   11.3222   -4.5510 H   0  0  0  0  0  0  0  0  0  0  0  0
   -3.9588   12.0867   -2.9801 H   0  0  0  0  0  0  0  0  0  0  0  0
   -3.9521    5.8278   -0.5665 H   0  0  0  0  0  0  0  0  0  0  0  0
   -4.8330    6.3829    0.7408 H   0  0  0  0  0  0  0  0  0  0  0  0
   -7.6432    4.9159   -0.0347 H   0  0  0  0  0  0  0  0  0  0  0  0
   -8.6292    4.1942   -1.9467 H   0  0  0  0  0  0  0  0  0  0  0  0
   -7.8443    5.5617   -2.3329 H   0  0  0  0  0  0  0  0  0  0  0  0
   -5.7266    2.9102    0.1508 H   0  0  0  0  0  0  0  0  0  0  0  0
   -8.4185    2.8666   -0.6324 H   0  0  0  0  0  0  0  0  0  0  0  0
   -7.8549    1.8023    0.6089 H   0  0  0  0  0  0  0  0  0  0  0  0
   -8.7156    3.3988    0.9091 H   0  0  0  0  0  0  0  0  0  0  0  0
   -6.9720    4.4975    2.3045 H   0  0  0  0  0  0  0  0  0  0  0  0
   -5.9635    2.9758    2.3327 H   0  0  0  0  0  0  0  0  0  0  0  0
   -5.2663    4.5055    1.7860 H   0  0  0  0  0  0  0  0  0  0  0  0
   -5.9017    4.3778   -3.2671 H   0  0  0  0  0  0  0  0  0  0  0  0
   -5.8000    2.6876   -1.4772 H   0  0  0  0  0  0  0  0  0  0  0  0
   -6.3464    3.5994   -4.9569 H   0  0  0  0  0  0  0  0  0  0  0  0
   -7.9045    3.3507   -4.5199 H   0  0  0  0  0  0  0  0  0  0  0  0
   -7.9148    2.2587   -2.1742 H   0  0  0  0  0  0  0  0  0  0  0  0
   -4.4090    1.4429   -2.5212 H   0  0  0  0  0  0  0  0  0  0  0  0
   -5.0398    1.9727   -4.0731 H   0  0  0  0  0  0  0  0  0  0  0  0
   -2.8997    3.3541   -2.7759 H   0  0  0  0  0  0  0  0  0  0  0  0
   -4.9654    4.8662   -4.5531 H   0  0  0  0  0  0  0  0  0  0  0  0
   -2.2718    5.7201   -3.9069 H   0  0  0  0  0  0  0  0  0  0  0  0
   -3.5975    6.4480   -4.9321 H   0  0  0  0  0  0  0  0  0  0  0  0
   -3.7505    6.2965   -3.2119 H   0  0  0  0  0  0  0  0  0  0  0  0
   -4.2074    2.7700   -5.5254 H   0  0  0  0  0  0  0  0  0  0  0  0
   -3.8477    4.2664   -6.3233 H   0  0  0  0  0  0  0  0  0  0  0  0
   -2.5644    3.4274   -5.3453 H   0  0  0  0  0  0  0  0  0  0  0  0
   -6.0405    5.8044   -2.7245 H   0  0  0  0  0  0  0  0  0  0  0  0
   -7.6961    6.4056    0.2827 H   0  0  0  0  0  0  0  0  0  0  0  0
   -6.4785    6.1181    0.6667 H   0  0  0  0  0  0  0  0  0  0  0  0
   -8.8955    9.2027   -2.1195 H   0  0  0  0  0  0  0  0  0  0  0  0
   -8.2421    9.7882   -0.6376 H   0  0  0  0  0  0  0  0  0  0  0  0
   -6.0737    8.1150    1.9604 H   0  0  0  0  0  0  0  0  0  0  0  0
   -6.7828    9.5202    1.0683 H   0  0  0  0  0  0  0  0  0  0  0  0
   -7.7834    8.1490    1.2758 H   0  0  0  0  0  0  0  0  0  0  0  0
   -3.2836    7.6314    0.4746 H   0  0  0  0  0  0  0  0  0  0  0  0
   -3.4843    7.2780   -1.3056 H   0  0  0  0  0  0  0  0  0  0  0  0
   -3.4661    8.7050   -1.0333 H   0  0  0  0  0  0  0  0  0  0  0  0
  1  2  2  0  0  0  0
  1  7  1  0  0  0  0
  2  3  1  0  0  0  0
  2  9  1  0  0  0  0
  3  4  2  0  0  0  0
  3 40  1  0  0  0  0
  4  5  1  0  0  0  0
  4 15  1  0  0  0  0
  5  6  2  0  0  0  0
  5 41  1  0  0  0  0
  6  1  1  0  0  0  0
  6 42  1  0  0  0  0
  7  8  1  0  0  0  0
  8 43  1  0  0  0  0
  8 44  1  0  0  0  0
  8 45  1  0  0  0  0
  9 10  1  0  0  0  0
 10 11  1  0  0  0  0
 10 46  1  0  0  0  0
 10 47  1  0  0  0  0
 11 12  1  0  0  0  0
 11 48  1  0  0  0  0
 11 49  1  0  0  0  0
 12 13  1  0  0  0  0
 12 50  1  0  0  0  0
 12 51  1  0  0  0  0
 13 14  1  0  0  0  0
 14 52  1  0  0  0  0
 14 53  1  0  0  0  0
 14 54  1  0  0  0  0
 15 16  1  0  0  0  0
 15 55  1  0  0  0  0
 15 56  1  0  0  0  0
 16 17  1  0  0  0  0
 16 18  1  0  0  0  0
 16 57  1  1  0  0  0
 17 21  1  0  0  0  0
 17 58  1  0  0  0  0
 17 59  1  0  0  0  0
 18 20  1  0  0  0  0
 18 19  1  0  0  0  0
 18 60  1  0  0  0  0
 19 61  1  0  0  0  0
 19 62  1  0  0  0  0
 19 63  1  0  0  0  0
 20 64  1  0  0  0  0
 20 65  1  0  0  0  0
 20 66  1  0  0  0  0
 21 22  1  0  0  0  0
 21 23  1  0  0  0  0
 21 67  1  1  0  0  0
 22 24  1  0  0  0  0
 22 25  1  0  0  0  0
 22 68  1  1  0  0  0
 23 69  1  0  0  0  0
 23 70  1  0  0  0  0
 24 71  1  0  0  0  0
 25 72  1  0  0  0  0
 25 73  1  0  0  0  0
 26 28  1  0  0  0  0
 26 74  1  1  0  0  0
 26 27  1  0  0  0  0
 26 25  1  0  0  0  0
 27 31  1  0  0  0  0
 27 32  2  0  0  0  0
 28 29  1  0  0  0  0
 28 30  1  0  0  0  0
 28 75  1  0  0  0  0
 29 76  1  0  0  0  0
 29 77  1  0  0  0  0
 29 78  1  0  0  0  0
 30 79  1  0  0  0  0
 30 80  1  0  0  0  0
 30 81  1  0  0  0  0
 31 33  1  0  0  0  0
 31 82  1  0  0  0  0
 33 37  1  0  0  0  0
 33 83  1  0  0  0  0
 33 84  1  0  0  0  0
 34 35  1  0  0  0  0
 34 36  2  0  0  0  0
 35 85  1  0  0  0  0
 35 86  1  0  0  0  0
 37 34  1  0  0  0  0
 37 38  1  0  0  0  0
 38 87  1  0  0  0  0
 38 88  1  0  0  0  0
 38 89  1  0  0  0  0
 39 37  1  0  0  0  0
 39 90  1  0  0  0  0
 39 91  1  0  0  0  0
 39 92  1  0  0  0  0
M  END
>  <DRUGBANK_ID>
DB09026

>  <SECONDARY_ACCESSION_NUMBERS>
DB01258

>  <COMMON_NAME>
Aliskiren

>  <CAS_NUMBER>
173334-57-1

>  <UNII>
502FWN4Q32

>  <SYNONYMS>
Aliskiren; Aliskireno

$$$$
