
 OpenBabel10282417223D

 27 27  0  0  1  0  0  0  0  0999 V2000
    0.9463   -2.5418    0.1533 N   0  0  0  0  0  0  0  0  0  0  0  0
    0.4257   -1.3264   -0.5155 C   0  0  2  0  0  0  0  0  0  0  0  0
    0.9907    0.0275   -0.0210 C   0  0  0  0  0  0  0  0  0  0  0  0
    1.7065   -0.0216    1.3080 C   0  0  0  0  0  0  0  0  0  0  0  0
    3.0152    0.4546    1.3998 C   0  0  0  0  0  0  0  0  0  0  0  0
    3.7187    0.3432    2.5969 C   0  0  0  0  0  0  0  0  0  0  0  0
    3.1411   -0.2822    3.7034 C   0  0  0  0  0  0  0  0  0  0  0  0
    3.7641   -0.5311    4.8936 O   0  0  0  0  0  0  0  0  0  0  0  0
    5.0980   -0.0581    5.0154 C   0  0  0  0  0  0  0  0  0  0  0  0
    5.8795   -0.6826    4.0948 F   0  0  0  0  0  0  0  0  0  0  0  0
    1.8227   -0.7251    3.6279 C   0  0  0  0  0  0  0  0  0  0  0  0
    1.1004   -0.5688    2.4485 C   0  0  0  0  0  0  0  0  0  0  0  0
   -1.1091   -1.2836   -0.4219 C   0  0  0  0  0  0  0  0  0  0  0  0
   -1.7428   -1.5418   -1.5912 O   0  0  0  0  0  0  0  0  0  0  0  0
   -1.7255   -1.0339    0.6022 O   0  0  0  0  0  0  0  0  0  0  0  0
    0.5260   -2.5924    1.0881 H   0  0  0  0  0  0  0  0  0  0  0  0
    1.9381   -2.3919    0.3658 H   0  0  0  0  0  0  0  0  0  0  0  0
    0.7012   -1.4265   -1.5710 H   0  0  0  0  0  0  0  0  0  0  0  0
    1.6988    0.3767   -0.7864 H   0  0  0  0  0  0  0  0  0  0  0  0
    0.2179    0.8043    0.0403 H   0  0  0  0  0  0  0  0  0  0  0  0
    3.5102    0.8946    0.5366 H   0  0  0  0  0  0  0  0  0  0  0  0
    4.7302    0.7336    2.6189 H   0  0  0  0  0  0  0  0  0  0  0  0
    5.1553    1.0281    4.8862 H   0  0  0  0  0  0  0  0  0  0  0  0
    5.4741   -0.3228    6.0052 H   0  0  0  0  0  0  0  0  0  0  0  0
    1.3515   -1.2039    4.4830 H   0  0  0  0  0  0  0  0  0  0  0  0
    0.0769   -0.9385    2.4185 H   0  0  0  0  0  0  0  0  0  0  0  0
   -1.1512   -1.8040   -2.3210 H   0  0  0  0  0  0  0  0  0  0  0  0
  1 16  1  0  0  0  0
  1 17  1  0  0  0  0
  2 13  1  0  0  0  0
  2 18  1  6  0  0  0
  2  3  1  0  0  0  0
  2  1  1  0  0  0  0
  3  4  1  0  0  0  0
  3 19  1  0  0  0  0
  3 20  1  0  0  0  0
  4  5  2  0  0  0  0
  4 12  1  0  0  0  0
  5  6  1  0  0  0  0
  5 21  1  0  0  0  0
  6  7  2  0  0  0  0
  6 22  1  0  0  0  0
  7  8  1  0  0  0  0
  7 11  1  0  0  0  0
  8  9  1  0  0  0  0
  9 10  1  0  0  0  0
  9 23  1  0  0  0  0
  9 24  1  0  0  0  0
 11 12  2  0  0  0  0
 11 25  1  0  0  0  0
 12 26  1  0  0  0  0
 13 14  1  0  0  0  0
 13 15  2  0  0  0  0
 14 27  1  0  0  0  0
M  ISO  1  10  18
M  END
>  <DRUGBANK_ID>
DB15296

>  <COMMON_NAME>
D-fluoromethyltyrosine F-18

>  <CAS_NUMBER>
870452-26-9

>  <UNII>
58HVN5SR99

$$$$
