
 OpenBabel10282417113D

 59 59  0  0  0  0  0  0  0  0999 V2000
    1.4164   -7.9897   -2.3126 C   0  0  2  0  0  0  0  0  0  0  0  0
    0.3278   -7.1763   -1.5317 C   0  0  2  0  0  0  0  0  0  0  0  0
    0.6729   -9.2677   -2.5930 C   0  0  0  0  0  0  0  0  0  0  0  0
    2.7642   -8.2505   -1.6193 C   0  0  0  0  0  0  0  0  0  0  0  0
   -1.0159   -7.8436   -1.8738 C   0  0  1  0  0  0  0  0  0  0  0  0
    0.1512   -5.7123   -1.8921 C   0  0  0  0  0  0  0  0  0  0  0  0
   -0.7662   -8.9773   -2.8491 C   0  0  0  0  0  0  0  0  0  0  0  0
    1.1747  -10.3742   -2.7028 O   0  0  0  0  0  0  0  0  0  0  0  0
    3.9397   -7.7855   -2.5082 C   0  0  0  0  0  0  0  0  0  0  0  0
   -1.6304   -8.3069   -0.6763 O   0  0  0  0  0  0  0  0  0  0  0  0
    1.1755   -5.0143   -2.3554 C   0  0  0  0  0  0  0  0  0  0  0  0
    4.0112   -6.2735   -2.6740 C   0  0  0  0  0  0  0  0  0  0  0  0
    1.4207   -3.6295   -2.7651 C   0  0  2  0  0  0  0  0  0  0  0  0
    4.0516   -5.5721   -1.2784 C   0  0  0  0  0  0  0  0  0  0  0  0
    0.8350   -2.7655   -1.6695 C   0  0  0  0  0  0  0  0  0  0  0  0
    0.8595   -3.4629   -4.0528 O   0  0  0  0  0  0  0  0  0  0  0  0
    5.3966   -5.8024   -0.6198 C   0  0  0  0  0  0  0  0  0  0  0  0
    1.4294   -1.3728   -1.7200 C   0  0  0  0  0  0  0  0  0  0  0  0
    6.5131   -5.2688   -1.5081 C   0  0  0  0  0  0  0  0  0  0  0  0
    1.1135   -0.6778   -3.0427 C   0  0  0  0  0  0  0  0  0  0  0  0
    6.3698   -3.7704   -1.7391 C   0  0  0  0  0  0  0  0  0  0  0  0
   -0.3933   -0.5992   -3.3085 C   0  0  0  0  0  0  0  0  0  0  0  0
    7.4317   -3.0620   -1.3015 O   0  0  0  0  0  0  0  0  0  0  0  0
    5.4196   -3.2289   -2.2605 O   0  0  0  0  0  0  0  0  0  0  0  0
   -1.0937    0.1735   -2.2038 C   0  0  0  0  0  0  0  0  0  0  0  0
    1.5785   -7.5498   -3.3050 H   0  0  0  0  0  0  0  0  0  0  0  0
    0.5355   -7.2235   -0.4537 H   0  0  0  0  0  0  0  0  0  0  0  0
    2.7952   -7.7949   -0.6254 H   0  0  0  0  0  0  0  0  0  0  0  0
    2.9222   -9.3165   -1.4222 H   0  0  0  0  0  0  0  0  0  0  0  0
   -1.7253   -7.1426   -2.3277 H   0  0  0  0  0  0  0  0  0  0  0  0
   -0.8039   -5.2160   -1.7662 H   0  0  0  0  0  0  0  0  0  0  0  0
   -1.3942   -9.8477   -2.6738 H   0  0  0  0  0  0  0  0  0  0  0  0
   -0.8377   -8.6272   -3.8850 H   0  0  0  0  0  0  0  0  0  0  0  0
    4.8879   -8.1433   -2.0988 H   0  0  0  0  0  0  0  0  0  0  0  0
    3.8404   -8.2351   -3.5020 H   0  0  0  0  0  0  0  0  0  0  0  0
   -1.0424   -8.9555   -0.2517 H   0  0  0  0  0  0  0  0  0  0  0  0
    2.0673   -5.5246   -2.1899 H   0  0  0  0  0  0  0  0  0  0  0  0
    4.8379   -5.9530   -3.3053 H   0  0  0  0  0  0  0  0  0  0  0  0
    3.2092   -5.9879   -3.3608 H   0  0  0  0  0  0  0  0  0  0  0  0
    2.4990   -3.4359   -2.8611 H   0  0  0  0  0  0  0  0  0  0  0  0
    3.8382   -4.5020   -1.3500 H   0  0  0  0  0  0  0  0  0  0  0  0
    3.2734   -5.9084   -0.5812 H   0  0  0  0  0  0  0  0  0  0  0  0
   -0.2567   -2.7512   -1.7554 H   0  0  0  0  0  0  0  0  0  0  0  0
    1.0592   -3.1904   -0.6815 H   0  0  0  0  0  0  0  0  0  0  0  0
   -0.0527   -3.7860   -4.0183 H   0  0  0  0  0  0  0  0  0  0  0  0
    5.4135   -5.3305    0.3683 H   0  0  0  0  0  0  0  0  0  0  0  0
    5.5219   -6.8779   -0.4447 H   0  0  0  0  0  0  0  0  0  0  0  0
    1.0490   -0.8036   -0.8668 H   0  0  0  0  0  0  0  0  0  0  0  0
    2.5148   -1.4326   -1.5751 H   0  0  0  0  0  0  0  0  0  0  0  0
    7.4750   -5.5280   -1.0672 H   0  0  0  0  0  0  0  0  0  0  0  0
    6.5304   -5.7526   -2.4886 H   0  0  0  0  0  0  0  0  0  0  0  0
    1.5494    0.3247   -3.0309 H   0  0  0  0  0  0  0  0  0  0  0  0
    1.6061   -1.1988   -3.8721 H   0  0  0  0  0  0  0  0  0  0  0  0
   -0.5673   -0.1226   -4.2773 H   0  0  0  0  0  0  0  0  0  0  0  0
   -0.8442   -1.5953   -3.3899 H   0  0  0  0  0  0  0  0  0  0  0  0
    8.1535   -3.6054   -0.9441 H   0  0  0  0  0  0  0  0  0  0  0  0
   -0.6777    1.1824   -2.1372 H   0  0  0  0  0  0  0  0  0  0  0  0
   -2.1658    0.2356   -2.3955 H   0  0  0  0  0  0  0  0  0  0  0  0
   -0.9732   -0.3080   -1.2277 H   0  0  0  0  0  0  0  0  0  0  0  0
  1  2  1  0  0  0  0
  1  3  1  0  0  0  0
  1 26  1  6  0  0  0
  1  4  1  0  0  0  0
  2  5  1  0  0  0  0
  2 27  1  1  0  0  0
  2  6  1  0  0  0  0
  3  7  1  0  0  0  0
  3  8  2  0  0  0  0
  4  9  1  0  0  0  0
  4 28  1  0  0  0  0
  4 29  1  0  0  0  0
  5 10  1  0  0  0  0
  5  7  1  0  0  0  0
  5 30  1  6  0  0  0
  6 11  2  0  0  0  0
  6 31  1  0  0  0  0
  7 32  1  0  0  0  0
  7 33  1  0  0  0  0
  9 12  1  0  0  0  0
  9 34  1  0  0  0  0
  9 35  1  0  0  0  0
 10 36  1  0  0  0  0
 11 37  1  0  0  0  0
 12 14  1  0  0  0  0
 12 38  1  0  0  0  0
 12 39  1  0  0  0  0
 13 16  1  0  0  0  0
 13 40  1  6  0  0  0
 13 15  1  0  0  0  0
 13 11  1  0  0  0  0
 14 17  1  0  0  0  0
 14 41  1  0  0  0  0
 14 42  1  0  0  0  0
 15 18  1  0  0  0  0
 15 43  1  0  0  0  0
 15 44  1  0  0  0  0
 16 45  1  0  0  0  0
 17 19  1  0  0  0  0
 17 46  1  0  0  0  0
 17 47  1  0  0  0  0
 18 20  1  0  0  0  0
 18 48  1  0  0  0  0
 18 49  1  0  0  0  0
 19 21  1  0  0  0  0
 19 50  1  0  0  0  0
 19 51  1  0  0  0  0
 20 22  1  0  0  0  0
 20 52  1  0  0  0  0
 20 53  1  0  0  0  0
 21 23  1  0  0  0  0
 21 24  2  0  0  0  0
 22 25  1  0  0  0  0
 22 54  1  0  0  0  0
 22 55  1  0  0  0  0
 23 56  1  0  0  0  0
 25 57  1  0  0  0  0
 25 58  1  0  0  0  0
 25 59  1  0  0  0  0
M  END
>  <DRUGBANK_ID>
DB00770

>  <SECONDARY_ACCESSION_NUMBERS>
APRD00785

>  <COMMON_NAME>
Alprostadil

>  <CAS_NUMBER>
745-65-3

>  <UNII>
F5TD010360

>  <SYNONYMS>
(11α,13E,15S)-11,15-dihydroxy-9-oxoprost-13-en-1-oic acid; (13E)-(15S)-11alpha,15-Dihydroxy-9-oxoprost-13-enoate; 11α,15α-dihydroxy-9-oxo-13-trans-prostenoic acid; Alprostadil; Alprostadilum; PGE-1; PGE1; Prostaglandin E1

$$$$
