
 OpenBabel10282417233D

 35 36  0  0  0  0  0  0  0  0999 V2000
   -0.0006    0.6740   -0.0135 C   0  0  0  0  0  0  0  0  0  0  0  0
   -0.0365   -0.7373   -0.0039 C   0  0  0  0  0  0  0  0  0  0  0  0
   -1.1918    1.3932   -0.0650 C   0  0  0  0  0  0  0  0  0  0  0  0
    1.1816    1.3785    0.1003 N   0  0  0  0  0  0  0  0  0  0  0  0
   -1.2745   -1.3894   -0.0136 C   0  0  0  0  0  0  0  0  0  0  0  0
    1.2393   -1.4813    0.0244 C   0  0  0  0  0  0  0  0  0  0  0  0
   -2.4055    0.7298   -0.1440 C   0  0  0  0  0  0  0  0  0  0  0  0
    2.4694    0.7222   -0.0081 C   0  0  0  0  0  0  0  0  0  0  0  0
   -2.4613   -0.6588   -0.0581 C   0  0  0  0  0  0  0  0  0  0  0  0
    2.3716   -0.7764    0.0292 C   0  0  0  0  0  0  0  0  0  0  0  0
    1.2759   -2.9765    0.0107 C   0  0  0  0  0  0  0  0  0  0  0  0
    3.0867    1.0880   -1.3597 C   0  0  0  0  0  0  0  0  0  0  0  0
    3.2745    1.1648    1.2128 C   0  0  0  0  0  0  0  0  0  0  0  0
   -3.6087   -1.3976    0.0300 O   0  0  0  0  0  0  0  0  0  0  0  0
   -4.8452   -0.6825    0.0547 C   0  0  0  0  0  0  0  0  0  0  0  0
   -5.0518    0.1160    1.3397 C   0  0  0  0  0  0  0  0  0  0  0  0
   -1.1875    2.4791   -0.0433 H   0  0  0  0  0  0  0  0  0  0  0  0
    1.1569    2.3799   -0.0447 H   0  0  0  0  0  0  0  0  0  0  0  0
   -1.3311   -2.4735    0.0220 H   0  0  0  0  0  0  0  0  0  0  0  0
   -3.2916    1.3448   -0.2338 H   0  0  0  0  0  0  0  0  0  0  0  0
    3.3267   -1.3008    0.0287 H   0  0  0  0  0  0  0  0  0  0  0  0
    0.7891   -3.3841    0.9004 H   0  0  0  0  0  0  0  0  0  0  0  0
    0.7919   -3.3674   -0.8891 H   0  0  0  0  0  0  0  0  0  0  0  0
    2.3082   -3.3469    0.0058 H   0  0  0  0  0  0  0  0  0  0  0  0
    3.2048    2.1684   -1.4817 H   0  0  0  0  0  0  0  0  0  0  0  0
    4.0620    0.6094   -1.5025 H   0  0  0  0  0  0  0  0  0  0  0  0
    2.4377    0.7436   -2.1793 H   0  0  0  0  0  0  0  0  0  0  0  0
    2.7819    0.8125    2.1320 H   0  0  0  0  0  0  0  0  0  0  0  0
    4.2886    0.7554    1.2071 H   0  0  0  0  0  0  0  0  0  0  0  0
    3.3317    2.2555    1.2879 H   0  0  0  0  0  0  0  0  0  0  0  0
   -4.9464   -0.0692   -0.8489 H   0  0  0  0  0  0  0  0  0  0  0  0
   -5.6370   -1.4376   -0.0019 H   0  0  0  0  0  0  0  0  0  0  0  0
   -4.2914    0.8823    1.5090 H   0  0  0  0  0  0  0  0  0  0  0  0
   -6.0161    0.6284    1.3176 H   0  0  0  0  0  0  0  0  0  0  0  0
   -4.9962   -0.5401    2.2118 H   0  0  0  0  0  0  0  0  0  0  0  0
  1  2  2  0  0  0  0
  1  3  1  0  0  0  0
  1  4  1  0  0  0  0
  2  5  1  0  0  0  0
  2  6  1  0  0  0  0
  3  7  2  0  0  0  0
  3 17  1  0  0  0  0
  4  8  1  0  0  0  0
  4 18  1  0  0  0  0
  5  9  2  0  0  0  0
  5 19  1  0  0  0  0
  6 10  2  0  0  0  0
  6 11  1  0  0  0  0
  7  9  1  0  0  0  0
  7 20  1  0  0  0  0
  8 12  1  0  0  0  0
  8 13  1  0  0  0  0
  8 10  1  0  0  0  0
  9 14  1  0  0  0  0
 10 21  1  0  0  0  0
 11 22  1  0  0  0  0
 11 23  1  0  0  0  0
 11 24  1  0  0  0  0
 12 25  1  0  0  0  0
 12 26  1  0  0  0  0
 12 27  1  0  0  0  0
 13 28  1  0  0  0  0
 13 29  1  0  0  0  0
 13 30  1  0  0  0  0
 14 15  1  0  0  0  0
 15 16  1  0  0  0  0
 15 31  1  0  0  0  0
 15 32  1  0  0  0  0
 16 33  1  0  0  0  0
 16 34  1  0  0  0  0
 16 35  1  0  0  0  0
M  END
>  <DRUGBANK_ID>
DB16866

>  <COMMON_NAME>
Ethoxyquin

>  <CAS_NUMBER>
91-53-2

>  <UNII>
9T1410R4OR

>  <SYNONYMS>
6-Ethoxy-2,2,4-trimethyl-1,2-dihydroquinoline

$$$$
