MO9
 OpenBabel10282417173D

 52 53  0  0  0  0  0  0  0  0999 V2000
    1.4503   -0.2455    0.0149 C   0  0  0  0  0  0  0  0  0  0  0  0
    0.5343   -1.2899   -0.1028 C   0  0  0  0  0  0  0  0  0  0  0  0
   -0.8540   -0.9677   -0.1788 C   0  0  0  0  0  0  0  0  0  0  0  0
   -1.3445    0.3209   -0.0576 C   0  0  0  0  0  0  0  0  0  0  0  0
   -0.4362    1.3501    0.0373 C   0  0  0  0  0  0  0  0  0  0  0  0
    0.9388    1.0689    0.0156 C   0  0  0  0  0  0  0  0  0  0  0  0
    0.9022   -2.7363   -0.1625 C   0  0  0  0  0  0  0  0  0  0  0  0
   -1.1847   -3.6654    1.0865 C   0  0  0  0  0  0  0  0  0  0  0  0
   -1.8671   -4.4160    0.0003 C   0  0  1  0  0  0  0  0  0  0  0  0
   -1.3207   -5.8387   -0.2328 C   0  0  0  0  0  0  0  0  0  0  0  0
    0.5035   -3.5040    1.3494 S   0  0  0  0  0  0  0  0  0  0  0  0
   -3.2721   -4.3387    0.3608 O   0  0  0  0  0  0  0  0  0  0  0  0
    1.1300   -4.8226    1.3849 O   0  0  0  0  0  0  0  0  0  0  0  0
    0.6455   -2.6441    2.4995 O   0  0  0  0  0  0  0  0  0  0  0  0
   -2.1893   -6.8895   -0.0924 N   0  0  0  0  0  0  0  0  0  0  0  0
   -0.1425   -6.0207   -0.5269 O   0  0  0  0  0  0  0  0  0  0  0  0
   -1.6907   -8.2528   -0.0374 C   0  0  0  0  0  0  0  0  0  0  0  0
   -2.1796   -9.0292    1.1745 C   0  0  0  0  0  0  0  0  0  0  0  0
   -3.9234   -4.9722    1.3958 C   0  0  0  0  0  0  0  0  0  0  0  0
   -3.2497   -5.4959    2.5016 N   0  0  0  0  0  0  0  0  0  0  0  0
   -5.1196   -5.2179    1.2012 O   0  0  0  0  0  0  0  0  0  0  0  0
   -2.1976   -4.9649    3.4285 C   0  0  0  0  0  0  0  0  0  0  0  0
   -0.9082   -5.8500    3.3287 C   0  0  0  0  0  0  0  0  0  0  0  0
   -1.2815   -7.0024    4.0682 O   0  0  0  0  0  0  0  0  0  0  0  0
   -2.4013   -7.5463    3.3897 C   0  0  0  0  0  0  0  0  0  0  0  0
   -3.6825   -6.7755    3.0343 C   0  0  0  0  0  0  0  0  0  0  0  0
    2.8152   -0.2881    0.1166 O   0  0  0  0  0  0  0  0  0  0  0  0
    3.5423   -1.5008    0.2557 C   0  0  0  0  0  0  0  0  0  0  0  0
    3.0513   -2.2259    1.2869 F   0  0  0  0  0  0  0  0  0  0  0  0
    3.4473   -2.2072   -0.9003 F   0  0  0  0  0  0  0  0  0  0  0  0
   -2.5853   -9.6733    2.1798 N   0  0  0  0  0  0  0  0  0  0  0  0
   -1.7465   -3.8961   -0.9581 H   0  0  0  0  0  0  0  0  0  0  0  0
   -1.6174   -1.7234   -0.3242 H   0  0  0  0  0  0  0  0  0  0  0  0
   -2.4177    0.5012   -0.0700 H   0  0  0  0  0  0  0  0  0  0  0  0
   -0.7975    2.3711    0.1151 H   0  0  0  0  0  0  0  0  0  0  0  0
    1.6283    1.9090   -0.0052 H   0  0  0  0  0  0  0  0  0  0  0  0
    0.4265   -3.2381   -1.0024 H   0  0  0  0  0  0  0  0  0  0  0  0
    1.9209   -3.0413   -0.2475 H   0  0  0  0  0  0  0  0  0  0  0  0
   -1.2836   -4.3788    1.8203 H   0  0  0  0  0  0  0  0  0  0  0  0
   -1.7221   -2.7813    1.4515 H   0  0  0  0  0  0  0  0  0  0  0  0
   -3.1915   -6.7319   -0.0760 H   0  0  0  0  0  0  0  0  0  0  0  0
   -2.0412   -8.7599   -0.9424 H   0  0  0  0  0  0  0  0  0  0  0  0
   -0.5964   -8.2763   -0.0424 H   0  0  0  0  0  0  0  0  0  0  0  0
   -2.5866   -5.1146    4.4378 H   0  0  0  0  0  0  0  0  0  0  0  0
   -2.0681   -3.8915    3.3389 H   0  0  0  0  0  0  0  0  0  0  0  0
   -0.6289   -6.1631    2.2991 H   0  0  0  0  0  0  0  0  0  0  0  0
   -0.0032   -5.4303    3.7627 H   0  0  0  0  0  0  0  0  0  0  0  0
   -2.6378   -8.4782    3.8816 H   0  0  0  0  0  0  0  0  0  0  0  0
   -1.9567   -7.5746    2.4155 H   0  0  0  0  0  0  0  0  0  0  0  0
   -4.2663   -6.6275    3.9377 H   0  0  0  0  0  0  0  0  0  0  0  0
   -4.2923   -7.3201    2.2929 H   0  0  0  0  0  0  0  0  0  0  0  0
    4.6009   -1.3489    0.4435 H   0  0  0  0  0  0  0  0  0  0  0  0
  1  2  2  0  0  0  0
  1  6  1  0  0  0  0
  1 27  1  0  0  0  0
  2  3  1  0  0  0  0
  2  7  1  0  0  0  0
  3  4  2  0  0  0  0
  3 33  1  0  0  0  0
  4  5  1  0  0  0  0
  4 34  1  0  0  0  0
  5  6  2  0  0  0  0
  5 35  1  0  0  0  0
  6 36  1  0  0  0  0
  7 11  1  0  0  0  0
  7 37  1  0  0  0  0
  7 38  1  0  0  0  0
  8  9  1  0  0  0  0
  8 11  1  0  0  0  0
  8 39  1  0  0  0  0
  8 40  1  0  0  0  0
  9 10  1  0  0  0  0
  9 12  1  0  0  0  0
  9 32  1  6  0  0  0
 10 15  1  0  0  0  0
 10 16  2  0  0  0  0
 11 13  2  0  0  0  0
 11 14  2  0  0  0  0
 12 19  1  0  0  0  0
 15 17  1  0  0  0  0
 15 41  1  0  0  0  0
 17 18  1  0  0  0  0
 17 42  1  0  0  0  0
 17 43  1  0  0  0  0
 18 31  3  0  0  0  0
 19 20  1  0  0  0  0
 19 21  2  0  0  0  0
 20 22  1  0  0  0  0
 20 26  1  0  0  0  0
 22 23  1  0  0  0  0
 22 44  1  0  0  0  0
 22 45  1  0  0  0  0
 23 24  1  0  0  0  0
 23 46  1  0  0  0  0
 23 47  1  0  0  0  0
 24 25  1  0  0  0  0
 25 26  1  0  0  0  0
 25 48  1  0  0  0  0
 25 49  1  0  0  0  0
 26 50  1  0  0  0  0
 26 51  1  0  0  0  0
 27 28  1  0  0  0  0
 28 29  1  0  0  0  0
 28 30  1  0  0  0  0
 28 52  1  0  0  0  0
M  END
>  <DRUGBANK_ID>
DB08195

>  <COMMON_NAME>
(1R)-2-[(CYANOMETHYL)AMINO]-1-({[2-(DIFLUOROMETHOXY)BENZYL]SULFONYL}METHYL)-2-OXOETHYL MORPHOLINE-4-CARBOXYLATE

$$$$
