
 OpenBabel10282417193D

 15 15  0  0  0  0  0  0  0  0999 V2000
   -0.6559    1.2916    0.0006 N   0  0  0  0  0  0  0  0  0  0  0  0
   -1.2782    0.0795   -0.0005 C   0  0  0  0  0  0  0  0  0  0  0  0
   -0.5889   -1.1269   -0.0000 C   0  0  0  0  0  0  0  0  0  0  0  0
    0.7578   -1.1893   -0.0011 N   0  0  0  0  0  0  0  0  0  0  0  0
    1.4019    0.0148   -0.0019 C   0  0  0  0  0  0  0  0  0  0  0  0
    0.6936    1.2203    0.0003 C   0  0  0  0  0  0  0  0  0  0  0  0
    1.3091    2.4387    0.0027 O   0  0  0  0  0  0  0  0  0  0  0  0
    2.9019   -0.0287   -0.0082 C   0  0  0  0  0  0  0  0  0  0  0  0
    3.5881    1.1595   -0.0122 N   0  0  0  0  0  0  0  0  0  0  0  0
    3.5287   -1.0862   -0.0110 O   0  0  0  0  0  0  0  0  0  0  0  0
   -1.2794   -2.2759    0.0014 F   0  0  0  0  0  0  0  0  0  0  0  0
   -2.3632    0.0875   -0.0021 H   0  0  0  0  0  0  0  0  0  0  0  0
    0.5640    3.0653    0.0060 H   0  0  0  0  0  0  0  0  0  0  0  0
    4.5982    1.1432   -0.0170 H   0  0  0  0  0  0  0  0  0  0  0  0
    3.1124    2.0577   -0.0097 H   0  0  0  0  0  0  0  0  0  0  0  0
  1  2  1  0  0  0  0
  1  6  2  0  0  0  0
  2  3  2  0  0  0  0
  2 12  1  0  0  0  0
  3  4  1  0  0  0  0
  3 11  1  0  0  0  0
  4  5  2  0  0  0  0
  5  6  1  0  0  0  0
  5  8  1  0  0  0  0
  6  7  1  0  0  0  0
  7 13  1  0  0  0  0
  8  9  1  0  0  0  0
  8 10  2  0  0  0  0
  9 14  1  0  0  0  0
  9 15  1  0  0  0  0
M  END
>  <DRUGBANK_ID>
DB12466

>  <SECONDARY_ACCESSION_NUMBERS>
DB06046; DB15625

>  <COMMON_NAME>
Favipiravir

>  <CAS_NUMBER>
259793-96-9

>  <UNII>
EW5GL2X7E0

>  <SYNONYMS>
Fapilavir; Favilavir; Favipiravir

$$$$
