DPK
 OpenBabel10282417143D

 33 33  0  0  0  0  0  0  0  0999 V2000
    1.0223   -0.1960   -2.6453 C   0  0  0  0  0  0  0  0  0  0  0  0
    0.3373   -0.5020   -1.5510 C   0  0  0  0  0  0  0  0  0  0  0  0
   -1.1498   -0.7274   -1.4018 C   0  0  0  0  0  0  0  0  0  0  0  0
   -1.6102   -2.1177   -1.1662 N   0  0  0  0  0  0  0  0  0  0  0  0
   -3.0865   -2.1739   -1.2455 C   0  0  0  0  0  0  0  0  0  0  0  0
   -1.1741   -2.7247    0.1226 C   0  0  2  0  0  0  0  0  0  0  0  0
   -1.7342   -1.9567    1.3436 C   0  0  0  0  0  0  0  0  0  0  0  0
    0.3614   -2.9236    0.1777 C   0  0  0  0  0  0  0  0  0  0  0  0
    0.8686   -3.5129    1.4517 C   0  0  0  0  0  0  0  0  0  0  0  0
    1.2484   -2.6388    2.4894 C   0  0  0  0  0  0  0  0  0  0  0  0
    1.4508   -3.1262    3.7641 C   0  0  0  0  0  0  0  0  0  0  0  0
    1.3182   -4.4927    3.9848 C   0  0  0  0  0  0  0  0  0  0  0  0
    1.0147   -5.3662    2.9326 C   0  0  0  0  0  0  0  0  0  0  0  0
    0.8300   -4.8828    1.6478 C   0  0  0  0  0  0  0  0  0  0  0  0
   -1.5974   -3.7433    0.1628 H   0  0  0  0  0  0  0  0  0  0  0  0
    0.5388   -0.0256   -3.5986 H   0  0  0  0  0  0  0  0  0  0  0  0
    2.1078   -0.1102   -2.5811 H   0  0  0  0  0  0  0  0  0  0  0  0
    0.9471   -0.4897   -0.6542 H   0  0  0  0  0  0  0  0  0  0  0  0
   -1.4995   -0.0625   -0.6065 H   0  0  0  0  0  0  0  0  0  0  0  0
   -1.6169   -0.3700   -2.3256 H   0  0  0  0  0  0  0  0  0  0  0  0
   -3.4506   -1.7990   -2.2067 H   0  0  0  0  0  0  0  0  0  0  0  0
   -3.4492   -3.2056   -1.1506 H   0  0  0  0  0  0  0  0  0  0  0  0
   -3.5793   -1.5842   -0.4633 H   0  0  0  0  0  0  0  0  0  0  0  0
   -2.2442   -1.0284    1.0776 H   0  0  0  0  0  0  0  0  0  0  0  0
   -2.4669   -2.5711    1.8762 H   0  0  0  0  0  0  0  0  0  0  0  0
   -0.9697   -1.6423    2.0481 H   0  0  0  0  0  0  0  0  0  0  0  0
    0.7450   -3.4517   -0.7042 H   0  0  0  0  0  0  0  0  0  0  0  0
    0.8463   -1.9696    0.2065 H   0  0  0  0  0  0  0  0  0  0  0  0
    1.2943   -1.5623    2.3181 H   0  0  0  0  0  0  0  0  0  0  0  0
    1.6569   -2.4361    4.5765 H   0  0  0  0  0  0  0  0  0  0  0  0
    1.4454   -4.8821    4.9879 H   0  0  0  0  0  0  0  0  0  0  0  0
    0.8782   -6.4250    3.1210 H   0  0  0  0  0  0  0  0  0  0  0  0
    0.6045   -5.5470    0.8175 H   0  0  0  0  0  0  0  0  0  0  0  0
  1  2  2  0  0  0  0
  1 16  1  0  0  0  0
  1 17  1  0  0  0  0
  2  3  1  0  0  0  0
  2 18  1  0  0  0  0
  3  4  1  0  0  0  0
  3 19  1  0  0  0  0
  3 20  1  0  0  0  0
  4  5  1  0  0  0  0
  5 21  1  0  0  0  0
  5 22  1  0  0  0  0
  5 23  1  0  0  0  0
  6  8  1  0  0  0  0
  6 15  1  1  0  0  0
  6  7  1  0  0  0  0
  6  4  1  0  0  0  0
  7 24  1  0  0  0  0
  7 25  1  0  0  0  0
  7 26  1  0  0  0  0
  8  9  1  0  0  0  0
  8 27  1  0  0  0  0
  8 28  1  0  0  0  0
  9 10  2  0  0  0  0
  9 14  1  0  0  0  0
 10 11  1  0  0  0  0
 10 29  1  0  0  0  0
 11 12  2  0  0  0  0
 11 30  1  0  0  0  0
 12 13  1  0  0  0  0
 12 31  1  0  0  0  0
 13 14  2  0  0  0  0
 13 32  1  0  0  0  0
 14 33  1  0  0  0  0
M  END
>  <DRUGBANK_ID>
DB04677

>  <COMMON_NAME>
N-METHYL-N-[(1R)-1-METHYL-2-PHENYLETHYL]PROP-2-EN-1-AMINE

$$$$
