
 OpenBabel10282417153D

 96 97  0  0  0  0  0  0  0  0999 V2000
    1.1715    0.0661   -0.1232 C   0  0  0  0  0  0  0  0  0  0  0  0
    2.6398    0.1035   -0.0652 C   0  0  0  0  0  0  0  0  0  0  0  0
    3.3150   -0.7849    0.7072 C   0  0  0  0  0  0  0  0  0  0  0  0
    3.3042    1.1519   -0.9233 C   0  0  0  0  0  0  0  0  0  0  0  0
    4.7640   -0.8655    0.7953 C   0  0  0  0  0  0  0  0  0  0  0  0
    5.5128   -1.7191    1.5174 C   0  0  0  0  0  0  0  0  0  0  0  0
    6.9934   -1.7069    1.5052 C   0  0  0  0  0  0  0  0  0  0  0  0
    7.7056   -2.5840    2.2469 C   0  0  0  0  0  0  0  0  0  0  0  0
    7.6639   -0.6703    0.6247 C   0  0  0  0  0  0  0  0  0  0  0  0
    9.1618   -2.6439    2.2967 C   0  0  0  0  0  0  0  0  0  0  0  0
    9.8628   -3.5137    3.0339 C   0  0  0  0  0  0  0  0  0  0  0  0
   11.3244   -3.5517    3.0664 C   0  0  0  0  0  0  0  0  0  0  0  0
   12.0380   -4.4282    3.8102 C   0  0  0  0  0  0  0  0  0  0  0  0
   13.5121   -4.4172    3.8022 C   0  0  0  0  0  0  0  0  0  0  0  0
   11.2910   -5.4323    4.6606 C   0  0  0  0  0  0  0  0  0  0  0  0
   14.2801   -5.2567    4.5164 C   0  0  0  0  0  0  0  0  0  0  0  0
   15.7300   -5.3268    4.5683 C   0  0  0  0  0  0  0  0  0  0  0  0
   16.4022   -6.2288    5.3292 C   0  0  0  0  0  0  0  0  0  0  0  0
   17.8639   -6.2692    5.2924 C   0  0  0  0  0  0  0  0  0  0  0  0
   15.6642   -7.2298    6.1877 C   0  0  0  0  0  0  0  0  0  0  0  0
   20.1525   -7.1031    5.9719 C   0  0  0  0  0  0  0  0  0  0  0  0
   20.7102   -8.3397    5.8955 C   0  0  0  0  0  0  0  0  0  0  0  0
   18.6864   -7.0153    6.0500 C   0  0  0  0  0  0  0  0  0  0  0  0
   22.4647   -6.0770    5.6768 C   0  0  0  0  0  0  0  0  0  0  0  0
   22.2059   -8.5222    5.9179 C   0  0  0  0  0  0  0  0  0  0  0  0
   19.9690   -9.6467    5.7551 C   0  0  0  0  0  0  0  0  0  0  0  0
   23.0623   -7.3155    6.2983 C   0  0  1  0  0  0  0  0  0  0  0  0
   22.6985   -9.6123    5.6500 O   0  0  0  0  0  0  0  0  0  0  0  0
   24.4100   -7.4167    5.8428 O   0  0  0  0  0  0  0  0  0  0  0  0
   20.8507   -5.1667    7.4553 C   0  0  0  0  0  0  0  0  0  0  0  0
   20.9888   -5.8035    6.0523 C   0  0  0  0  0  0  0  0  0  0  0  0
   20.5739   -4.7322    5.0249 C   0  0  0  0  0  0  0  0  0  0  0  0
   -3.2691    1.2867   -2.0335 C   0  0  0  0  0  0  0  0  0  0  0  0
   -4.0260    1.4709   -0.7196 C   0  0  2  0  0  0  0  0  0  0  0  0
   -1.1324    0.9081   -0.7821 C   0  0  0  0  0  0  0  0  0  0  0  0
   -1.7679    1.1254   -1.9647 C   0  0  0  0  0  0  0  0  0  0  0  0
    0.3466    0.9265   -0.7507 C   0  0  0  0  0  0  0  0  0  0  0  0
   -3.4190    0.5580    0.3143 C   0  0  0  0  0  0  0  0  0  0  0  0
   -1.9019    0.7545    0.5561 C   0  0  0  0  0  0  0  0  0  0  0  0
   -1.1232    1.2138   -3.3246 C   0  0  0  0  0  0  0  0  0  0  0  0
   -3.8430    1.2890   -3.1181 O   0  0  0  0  0  0  0  0  0  0  0  0
   -5.4134    1.1524   -0.8124 O   0  0  0  0  0  0  0  0  0  0  0  0
   -1.6078    1.9704    1.4647 C   0  0  0  0  0  0  0  0  0  0  0  0
   -1.5399   -0.5167    1.3499 C   0  0  0  0  0  0  0  0  0  0  0  0
    0.7556   -0.7933    0.3843 H   0  0  0  0  0  0  0  0  0  0  0  0
    2.7660   -1.5078    1.3114 H   0  0  0  0  0  0  0  0  0  0  0  0
    3.0228    1.0102   -1.9714 H   0  0  0  0  0  0  0  0  0  0  0  0
    3.0144    2.1550   -0.5947 H   0  0  0  0  0  0  0  0  0  0  0  0
    4.3930    1.1325   -0.9019 H   0  0  0  0  0  0  0  0  0  0  0  0
    5.2952   -0.1486    0.1878 H   0  0  0  0  0  0  0  0  0  0  0  0
    5.0201   -2.4623    2.1421 H   0  0  0  0  0  0  0  0  0  0  0  0
    7.1763   -3.3114    2.8631 H   0  0  0  0  0  0  0  0  0  0  0  0
    7.3872   -0.8205   -0.4239 H   0  0  0  0  0  0  0  0  0  0  0  0
    7.3879    0.3399    0.9438 H   0  0  0  0  0  0  0  0  0  0  0  0
    8.7525   -0.6917    0.6423 H   0  0  0  0  0  0  0  0  0  0  0  0
    9.7336   -1.9431    1.7027 H   0  0  0  0  0  0  0  0  0  0  0  0
    9.3144   -4.2282    3.6397 H   0  0  0  0  0  0  0  0  0  0  0  0
   11.8415   -2.8196    2.4459 H   0  0  0  0  0  0  0  0  0  0  0  0
   13.9958   -3.6737    3.1693 H   0  0  0  0  0  0  0  0  0  0  0  0
   10.6611   -4.9067    5.3873 H   0  0  0  0  0  0  0  0  0  0  0  0
   10.6613   -6.0629    4.0227 H   0  0  0  0  0  0  0  0  0  0  0  0
   11.9049   -6.1165    5.2402 H   0  0  0  0  0  0  0  0  0  0  0  0
   13.7957   -5.9931    5.1397 H   0  0  0  0  0  0  0  0  0  0  0  0
   16.2686   -4.6096    3.9507 H   0  0  0  0  0  0  0  0  0  0  0  0
   18.2845   -5.6345    4.5213 H   0  0  0  0  0  0  0  0  0  0  0  0
   15.0385   -6.7091    6.9208 H   0  0  0  0  0  0  0  0  0  0  0  0
   15.0345   -7.8664    5.5559 H   0  0  0  0  0  0  0  0  0  0  0  0
   16.2986   -7.9088    6.7554 H   0  0  0  0  0  0  0  0  0  0  0  0
   18.2664   -7.6996    6.7838 H   0  0  0  0  0  0  0  0  0  0  0  0
   23.0981   -5.2069    5.8928 H   0  0  0  0  0  0  0  0  0  0  0  0
   22.5301   -6.2063    4.5842 H   0  0  0  0  0  0  0  0  0  0  0  0
   20.2255  -10.1233    4.8029 H   0  0  0  0  0  0  0  0  0  0  0  0
   20.2357  -10.3246    6.5728 H   0  0  0  0  0  0  0  0  0  0  0  0
   18.8814   -9.5434    5.7676 H   0  0  0  0  0  0  0  0  0  0  0  0
   23.0955   -7.2512    7.3892 H   0  0  0  0  0  0  0  0  0  0  0  0
   24.3871   -7.5402    4.8760 H   0  0  0  0  0  0  0  0  0  0  0  0
   19.8107   -4.8694    7.6487 H   0  0  0  0  0  0  0  0  0  0  0  0
   21.1509   -5.8400    8.2647 H   0  0  0  0  0  0  0  0  0  0  0  0
   21.4520   -4.2529    7.5379 H   0  0  0  0  0  0  0  0  0  0  0  0
   20.5882   -5.1506    4.0113 H   0  0  0  0  0  0  0  0  0  0  0  0
   19.5911   -4.3091    5.2330 H   0  0  0  0  0  0  0  0  0  0  0  0
   21.2636   -3.8814    5.0477 H   0  0  0  0  0  0  0  0  0  0  0  0
   -3.9580    2.5225   -0.4287 H   0  0  0  0  0  0  0  0  0  0  0  0
    0.7833    1.7459   -1.3234 H   0  0  0  0  0  0  0  0  0  0  0  0
   -3.9834    0.6283    1.2535 H   0  0  0  0  0  0  0  0  0  0  0  0
   -3.5890   -0.4734   -0.0360 H   0  0  0  0  0  0  0  0  0  0  0  0
   -1.4935    0.4075   -3.9681 H   0  0  0  0  0  0  0  0  0  0  0  0
   -1.3595    2.1730   -3.7975 H   0  0  0  0  0  0  0  0  0  0  0  0
   -0.0355    1.1201   -3.3009 H   0  0  0  0  0  0  0  0  0  0  0  0
   -5.4875    0.2334   -1.1293 H   0  0  0  0  0  0  0  0  0  0  0  0
   -0.5401    2.0180    1.7191 H   0  0  0  0  0  0  0  0  0  0  0  0
   -1.8708    2.9257    0.9981 H   0  0  0  0  0  0  0  0  0  0  0  0
   -2.1476    1.8982    2.4160 H   0  0  0  0  0  0  0  0  0  0  0  0
   -1.6500   -1.4063    0.7179 H   0  0  0  0  0  0  0  0  0  0  0  0
   -0.5373   -0.4862    1.7714 H   0  0  0  0  0  0  0  0  0  0  0  0
   -2.1995   -0.6339    2.2170 H   0  0  0  0  0  0  0  0  0  0  0  0
  1  2  1  0  0  0  0
  1 45  1  0  0  0  0
  2  3  2  0  0  0  0
  2  4  1  0  0  0  0
  3  5  1  0  0  0  0
  3 46  1  0  0  0  0
  4 47  1  0  0  0  0
  4 48  1  0  0  0  0
  4 49  1  0  0  0  0
  5  6  2  0  0  0  0
  5 50  1  0  0  0  0
  6  7  1  0  0  0  0
  6 51  1  0  0  0  0
  7  8  2  0  0  0  0
  7  9  1  0  0  0  0
  8 10  1  0  0  0  0
  8 52  1  0  0  0  0
  9 53  1  0  0  0  0
  9 54  1  0  0  0  0
  9 55  1  0  0  0  0
 10 11  2  0  0  0  0
 10 56  1  0  0  0  0
 11 12  1  0  0  0  0
 11 57  1  0  0  0  0
 12 13  2  0  0  0  0
 12 58  1  0  0  0  0
 13 14  1  0  0  0  0
 13 15  1  0  0  0  0
 14 16  2  0  0  0  0
 14 59  1  0  0  0  0
 15 60  1  0  0  0  0
 15 61  1  0  0  0  0
 15 62  1  0  0  0  0
 16 17  1  0  0  0  0
 16 63  1  0  0  0  0
 17 18  2  0  0  0  0
 17 64  1  0  0  0  0
 18 19  1  0  0  0  0
 18 20  1  0  0  0  0
 19 23  2  0  0  0  0
 19 65  1  0  0  0  0
 20 66  1  0  0  0  0
 20 67  1  0  0  0  0
 20 68  1  0  0  0  0
 21 22  2  0  0  0  0
 21 23  1  0  0  0  0
 21 31  1  0  0  0  0
 22 26  1  0  0  0  0
 22 25  1  0  0  0  0
 23 69  1  0  0  0  0
 24 27  1  0  0  0  0
 24 70  1  0  0  0  0
 24 71  1  0  0  0  0
 25 28  2  0  0  0  0
 25 27  1  0  0  0  0
 26 72  1  0  0  0  0
 26 73  1  0  0  0  0
 26 74  1  0  0  0  0
 27 29  1  0  0  0  0
 27 75  1  1  0  0  0
 29 76  1  0  0  0  0
 30 77  1  0  0  0  0
 30 78  1  0  0  0  0
 30 79  1  0  0  0  0
 31 30  1  0  0  0  0
 31 32  1  0  0  0  0
 31 24  1  0  0  0  0
 32 80  1  0  0  0  0
 32 81  1  0  0  0  0
 32 82  1  0  0  0  0
 33 41  2  0  0  0  0
 33 34  1  0  0  0  0
 34 42  1  0  0  0  0
 34 83  1  1  0  0  0
 35 36  2  0  0  0  0
 35 37  1  0  0  0  0
 35 39  1  0  0  0  0
 36 33  1  0  0  0  0
 36 40  1  0  0  0  0
 37  1  2  0  0  0  0
 37 84  1  0  0  0  0
 38 34  1  0  0  0  0
 38 85  1  0  0  0  0
 38 86  1  0  0  0  0
 39 38  1  0  0  0  0
 39 43  1  0  0  0  0
 39 44  1  0  0  0  0
 40 87  1  0  0  0  0
 40 88  1  0  0  0  0
 40 89  1  0  0  0  0
 42 90  1  0  0  0  0
 43 91  1  0  0  0  0
 43 92  1  0  0  0  0
 43 93  1  0  0  0  0
 44 94  1  0  0  0  0
 44 95  1  0  0  0  0
 44 96  1  0  0  0  0
M  END
>  <DRUGBANK_ID>
DB06543

>  <COMMON_NAME>
Astaxanthin

>  <CAS_NUMBER>
472-61-7

>  <UNII>
8XPW32PR7I

$$$$
