1235
 OpenBabel10282417113D

 25 25  0  0  1  0  0  0  0  0999 V2000
   -4.4329    4.7935    3.6331 O   0  0  0  0  0  0  0  0  0  0  0  0
   -5.7085   -2.6652    2.1772 O   0  0  0  0  0  0  0  0  0  0  0  0
   -4.5341    3.4944    6.0343 O   0  0  0  0  0  0  0  0  0  0  0  0
   -6.2333   -1.7613    0.1845 O   0  0  0  0  0  0  0  0  0  0  0  0
   -3.2931   -1.4086    0.0433 N   0  0  0  0  0  0  0  0  0  0  0  0
   -4.5521    0.4464    1.2415 C   0  0  0  0  0  0  0  0  0  0  0  0
   -4.1303   -1.0546    1.2146 C   0  0  1  0  0  0  0  0  0  0  0  0
   -4.3642    1.2556    2.5157 C   0  0  0  0  0  0  0  0  0  0  0  0
   -4.3590    2.6706    2.4574 C   0  0  0  0  0  0  0  0  0  0  0  0
   -4.3983    0.6430    3.7760 C   0  0  0  0  0  0  0  0  0  0  0  0
   -4.4048    3.4249    3.6352 C   0  0  0  0  0  0  0  0  0  0  0  0
   -5.4434   -1.8645    1.1223 C   0  0  0  0  0  0  0  0  0  0  0  0
   -4.4388    1.4037    4.9458 C   0  0  0  0  0  0  0  0  0  0  0  0
   -4.4530    2.7859    4.8696 C   0  0  0  0  0  0  0  0  0  0  0  0
   -4.3989    5.1099    2.7143 H   0  0  0  0  0  0  0  0  0  0  0  0
   -5.0053   -2.7301    2.8480 H   0  0  0  0  0  0  0  0  0  0  0  0
   -4.5556    4.4334    5.7679 H   0  0  0  0  0  0  0  0  0  0  0  0
   -2.3420   -1.0619    0.1501 H   0  0  0  0  0  0  0  0  0  0  0  0
   -3.6785   -0.9603   -0.7914 H   0  0  0  0  0  0  0  0  0  0  0  0
   -5.6356    0.4999    1.0732 H   0  0  0  0  0  0  0  0  0  0  0  0
   -4.1000    0.9832    0.3977 H   0  0  0  0  0  0  0  0  0  0  0  0
   -3.5598   -1.3654    2.0952 H   0  0  0  0  0  0  0  0  0  0  0  0
   -4.3632    3.1713    1.4916 H   0  0  0  0  0  0  0  0  0  0  0  0
   -4.4434   -0.4346    3.8805 H   0  0  0  0  0  0  0  0  0  0  0  0
   -4.4913    0.9168    5.9141 H   0  0  0  0  0  0  0  0  0  0  0  0
  1 11  1  0  0  0  0
  1 15  1  0  0  0  0
  2 12  1  0  0  0  0
  2 16  1  0  0  0  0
  3 14  1  0  0  0  0
  3 17  1  0  0  0  0
  4 12  2  0  0  0  0
  5 18  1  0  0  0  0
  5 19  1  0  0  0  0
  6  8  1  0  0  0  0
  6 20  1  0  0  0  0
  6 21  1  0  0  0  0
  7 12  1  0  0  0  0
  7 22  1  1  0  0  0
  7  6  1  0  0  0  0
  7  5  1  0  0  0  0
  8  9  2  0  0  0  0
  8 10  1  0  0  0  0
  9 11  1  0  0  0  0
  9 23  1  0  0  0  0
 10 13  2  0  0  0  0
 10 24  1  0  0  0  0
 11 14  2  0  0  0  0
 13 14  1  0  0  0  0
 13 25  1  0  0  0  0
M  END
>  <DRUGBANK_ID>
DB01235

>  <SECONDARY_ACCESSION_NUMBERS>
APRD00309; EXPT01107

>  <COMMON_NAME>
Levodopa

>  <CAS_NUMBER>
59-92-7

>  <UNII>
46627O600J

>  <SYNONYMS>
(−)-3-(3,4-dihydroxyphenyl)-L-alanine; (−)-dopa; 3-Hydroxy-L-tyrosine; 3,4-Dihydroxy-L-phenylalanine; Dihydroxy-L-phenylalanine; L-3,4-dihydroxyphenylalanine; L-beta-(3,4-Dihydroxyphenyl)alanine; L-DOPA; Levodopa; Levodopum; β-(3,4-dihydroxyphenyl)-L-alanine; β-(3,4-dihydroxyphenyl)alanine

$$$$
