
 OpenBabel10282417233D

 45 47  0  0  0  0  0  0  0  0999 V2000
    0.8501   -0.0478    0.0818 C   0  0  3  0  0  0  0  0  0  0  0  0
    0.2925   -0.4870    1.4927 C   0  0  0  0  0  0  0  0  0  0  0  0
    0.5377    1.3685   -0.2951 N   0  0  0  0  0  0  0  0  0  0  0  0
    0.4451   -1.0839   -1.0022 C   0  0  0  0  0  0  0  0  0  0  0  0
   -0.3171    0.3894    2.4027 C   0  0  0  0  0  0  0  0  0  0  0  0
    0.4451   -1.8095    1.9679 C   0  0  0  0  0  0  0  0  0  0  0  0
    1.0140    1.7710   -1.6539 C   0  0  0  0  0  0  0  0  0  0  0  0
    1.0763    2.3733    0.6441 C   0  0  0  0  0  0  0  0  0  0  0  0
    1.0835   -2.3390   -1.0249 C   0  0  0  0  0  0  0  0  0  0  0  0
   -0.5619   -0.8618   -1.9577 C   0  0  0  0  0  0  0  0  0  0  0  0
   -0.5232    0.0696    3.7493 C   0  0  0  0  0  0  0  0  0  0  0  0
    0.0953   -2.1858    3.2698 C   0  0  0  0  0  0  0  0  0  0  0  0
    0.0468    2.8359   -2.2385 C   0  0  0  0  0  0  0  0  0  0  0  0
    0.3262    3.6967    0.4778 C   0  0  0  0  0  0  0  0  0  0  0  0
    0.6378   -3.3678   -1.8518 C   0  0  0  0  0  0  0  0  0  0  0  0
   -0.9203   -1.8503   -2.8767 C   0  0  0  0  0  0  0  0  0  0  0  0
   -0.3328   -1.2378    4.1729 C   0  0  0  0  0  0  0  0  0  0  0  0
    0.4166    4.2425   -1.9806 N   0  0  0  0  0  0  0  0  0  0  0  0
    0.9808    4.4842   -0.6499 C   0  0  0  0  0  0  0  0  0  0  0  0
   -0.3446   -3.1145   -2.7993 C   0  0  0  0  0  0  0  0  0  0  0  0
   -0.7026   -1.6774    5.7893 Cl  0  0  0  0  0  0  0  0  0  0  0  0
   -0.7434    5.1098   -2.1859 C   0  0  0  0  0  0  0  0  0  0  0  0
    1.9484   -0.0943    0.1543 H   0  0  0  0  0  0  0  0  0  0  0  0
   -0.6551    1.3785    2.1041 H   0  0  0  0  0  0  0  0  0  0  0  0
    0.8017   -2.6134    1.3463 H   0  0  0  0  0  0  0  0  0  0  0  0
    2.0537    2.1225   -1.6432 H   0  0  0  0  0  0  0  0  0  0  0  0
    1.0438    0.9488   -2.3718 H   0  0  0  0  0  0  0  0  0  0  0  0
    1.0124    2.1295    1.6991 H   0  0  0  0  0  0  0  0  0  0  0  0
    2.1584    2.4873    0.5169 H   0  0  0  0  0  0  0  0  0  0  0  0
    1.9045   -2.5494   -0.3431 H   0  0  0  0  0  0  0  0  0  0  0  0
   -1.0535    0.1049   -2.0347 H   0  0  0  0  0  0  0  0  0  0  0  0
   -0.8550    0.8366    4.4375 H   0  0  0  0  0  0  0  0  0  0  0  0
    0.1729   -3.2345    3.5527 H   0  0  0  0  0  0  0  0  0  0  0  0
   -0.0072    2.6938   -3.3259 H   0  0  0  0  0  0  0  0  0  0  0  0
   -0.9709    2.6236   -1.8749 H   0  0  0  0  0  0  0  0  0  0  0  0
    0.3754    4.2699    1.4101 H   0  0  0  0  0  0  0  0  0  0  0  0
   -0.7509    3.5356    0.3093 H   0  0  0  0  0  0  0  0  0  0  0  0
    1.0578   -4.3644   -1.7457 H   0  0  0  0  0  0  0  0  0  0  0  0
   -1.6663   -1.6354   -3.6364 H   0  0  0  0  0  0  0  0  0  0  0  0
    2.0499    4.2387   -0.6897 H   0  0  0  0  0  0  0  0  0  0  0  0
    0.9690    5.5521   -0.4061 H   0  0  0  0  0  0  0  0  0  0  0  0
   -0.6572   -3.8991   -3.4809 H   0  0  0  0  0  0  0  0  0  0  0  0
   -1.5432    4.9057   -1.4644 H   0  0  0  0  0  0  0  0  0  0  0  0
   -0.4495    6.1597   -2.0786 H   0  0  0  0  0  0  0  0  0  0  0  0
   -1.1455    4.9905   -3.1958 H   0  0  0  0  0  0  0  0  0  0  0  0
  1  2  1  0  0  0  0
  1  3  1  0  0  0  0
  1  4  1  0  0  0  0
  1 23  1  0  0  0  0
  2  5  2  0  0  0  0
  2  6  1  0  0  0  0
  3  7  1  0  0  0  0
  3  8  1  0  0  0  0
  4  9  2  0  0  0  0
  4 10  1  0  0  0  0
  5 11  1  0  0  0  0
  5 24  1  0  0  0  0
  6 12  2  0  0  0  0
  6 25  1  0  0  0  0
  7 13  1  0  0  0  0
  7 26  1  0  0  0  0
  7 27  1  0  0  0  0
  8 14  1  0  0  0  0
  8 28  1  0  0  0  0
  8 29  1  0  0  0  0
  9 15  1  0  0  0  0
  9 30  1  0  0  0  0
 10 16  2  0  0  0  0
 10 31  1  0  0  0  0
 11 17  2  0  0  0  0
 11 32  1  0  0  0  0
 12 17  1  0  0  0  0
 12 33  1  0  0  0  0
 13 18  1  0  0  0  0
 13 34  1  0  0  0  0
 13 35  1  0  0  0  0
 14 19  1  0  0  0  0
 14 36  1  0  0  0  0
 14 37  1  0  0  0  0
 15 20  2  0  0  0  0
 15 38  1  0  0  0  0
 16 20  1  0  0  0  0
 16 39  1  0  0  0  0
 17 21  1  0  0  0  0
 18 22  1  0  0  0  0
 18 19  1  0  0  0  0
 19 40  1  0  0  0  0
 19 41  1  0  0  0  0
 20 42  1  0  0  0  0
 22 43  1  0  0  0  0
 22 44  1  0  0  0  0
 22 45  1  0  0  0  0
M  END
>  <DRUGBANK_ID>
DB15979

>  <COMMON_NAME>
Homochlorcyclizine

>  <CAS_NUMBER>
848-53-3

>  <UNII>
N5MVC31W2N

>  <SYNONYMS>
Homochlorcyclizine; Homochlorcyclizinum; Homoclorociclizina

$$$$
