370
 OpenBabel10282417103D

 39 42  0  0  1  0  0  0  0  0999 V2000
    0.9642    1.9129   -0.6292 N   0  0  0  0  0  0  0  0  0  0  0  0
   -0.3906    2.1758    1.6503 N   0  0  0  0  0  0  0  0  0  0  0  0
    3.0774    1.1598   -0.1212 N   0  0  0  0  0  0  0  0  0  0  0  0
   -0.5283    1.6767   -0.8234 C   0  0  3  0  0  0  0  0  0  0  0  0
   -0.9705    2.6384    0.2240 C   0  0  0  0  0  0  0  0  0  0  0  0
    1.3278    3.1836    0.4739 C   0  0  0  0  0  0  0  0  0  0  0  0
    0.7667    3.0224    1.9487 C   0  0  0  0  0  0  0  0  0  0  0  0
   -1.4748    0.5195   -0.3733 C   0  0  0  0  0  0  0  0  0  0  0  0
    1.8537    0.8462   -0.6453 C   0  0  0  0  0  0  0  0  0  0  0  0
   -1.1074   -0.7800   -0.4663 C   0  0  0  0  0  0  0  0  0  0  0  0
    0.1344   -1.0955   -1.2726 C   0  0  0  0  0  0  0  0  0  0  0  0
    1.4838   -0.5255   -0.8283 C   0  0  0  0  0  0  0  0  0  0  0  0
    0.3636    0.8639    1.9425 C   0  0  0  0  0  0  0  0  0  0  0  0
   -2.8013    0.8232    0.1691 C   0  0  0  0  0  0  0  0  0  0  0  0
   -1.9924   -1.7681    0.0865 C   0  0  0  0  0  0  0  0  0  0  0  0
    2.4205   -1.5041   -0.4438 C   0  0  0  0  0  0  0  0  0  0  0  0
   -3.6371   -0.1336    0.7458 C   0  0  0  0  0  0  0  0  0  0  0  0
   -3.2273   -1.4094    0.7038 C   0  0  0  0  0  0  0  0  0  0  0  0
    3.6137   -1.1597    0.1747 C   0  0  0  0  0  0  0  0  0  0  0  0
    3.8766    0.1845    0.3365 C   0  0  0  0  0  0  0  0  0  0  0  0
   -0.7322    1.8428   -1.8918 H   0  0  0  0  0  0  0  0  0  0  0  0
   -0.6838    3.6061   -0.2142 H   0  0  0  0  0  0  0  0  0  0  0  0
   -2.0045    2.9614    0.2361 H   0  0  0  0  0  0  0  0  0  0  0  0
    2.3850    3.4441    0.4532 H   0  0  0  0  0  0  0  0  0  0  0  0
    0.8851    4.1361    0.1278 H   0  0  0  0  0  0  0  0  0  0  0  0
    0.9138    4.0815    2.2403 H   0  0  0  0  0  0  0  0  0  0  0  0
    0.0628    3.2350    2.7867 H   0  0  0  0  0  0  0  0  0  0  0  0
   -0.0488   -0.7729   -2.3037 H   0  0  0  0  0  0  0  0  0  0  0  0
    0.1954   -2.1891   -1.3216 H   0  0  0  0  0  0  0  0  0  0  0  0
   -0.1750   -0.0716    2.0894 H   0  0  0  0  0  0  0  0  0  0  0  0
    1.1353    0.6298    1.2505 H   0  0  0  0  0  0  0  0  0  0  0  0
    1.0677    0.9571    2.8023 H   0  0  0  0  0  0  0  0  0  0  0  0
   -3.2359    1.8019    0.2534 H   0  0  0  0  0  0  0  0  0  0  0  0
   -1.7546   -2.8134    0.0442 H   0  0  0  0  0  0  0  0  0  0  0  0
    2.1845   -2.5626   -0.5479 H   0  0  0  0  0  0  0  0  0  0  0  0
   -4.5703    0.2121    1.2094 H   0  0  0  0  0  0  0  0  0  0  0  0
   -3.8863   -2.1751    1.1352 H   0  0  0  0  0  0  0  0  0  0  0  0
    4.2910   -1.9114    0.5460 H   0  0  0  0  0  0  0  0  0  0  0  0
    4.7375    0.5160    0.9105 H   0  0  0  0  0  0  0  0  0  0  0  0
  1  4  1  0  0  0  0
  1  6  1  0  0  0  0
  1  9  1  0  0  0  0
  2  5  1  0  0  0  0
  2  7  1  0  0  0  0
  2 13  1  0  0  0  0
  3  9  1  0  0  0  0
  3 20  2  0  0  0  0
  4  5  1  0  0  0  0
  4  8  1  0  0  0  0
  4 21  1  0  0  0  0
  5 22  1  0  0  0  0
  5 23  1  0  0  0  0
  6  7  1  0  0  0  0
  6 24  1  0  0  0  0
  6 25  1  0  0  0  0
  7 26  1  0  0  0  0
  7 27  1  0  0  0  0
  8 10  1  0  0  0  0
  8 14  2  0  0  0  0
  9 12  2  0  0  0  0
 10 11  1  0  0  0  0
 10 15  2  0  0  0  0
 11 12  1  0  0  0  0
 11 28  1  0  0  0  0
 11 29  1  0  0  0  0
 12 16  1  0  0  0  0
 13 30  1  0  0  0  0
 13 31  1  0  0  0  0
 13 32  1  0  0  0  0
 14 17  1  0  0  0  0
 14 33  1  0  0  0  0
 15 18  1  0  0  0  0
 15 34  1  0  0  0  0
 16 19  2  0  0  0  0
 16 35  1  0  0  0  0
 17 18  2  0  0  0  0
 17 36  1  0  0  0  0
 18 37  1  0  0  0  0
 19 20  1  0  0  0  0
 19 38  1  0  0  0  0
 20 39  1  0  0  0  0
M  END
>  <DRUGBANK_ID>
DB00370

>  <SECONDARY_ACCESSION_NUMBERS>
APRD00685

>  <COMMON_NAME>
Mirtazapine

>  <CAS_NUMBER>
85650-52-8

>  <UNII>
A051Q2099Q

>  <SYNONYMS>
1,2,3,4,10,14b-Hexahydro-2-methylpyrazino(2,1-a)pyrido(2,3-c)benzazepine; 6-Azamianserin; Mepirzapine; Mirtazapin; Mirtazapina; Mirtazapine; Mirtazapinum

$$$$
