679
 OpenBabel10282417123D

 35 37  0  0  0  0  0  0  0  0999 V2000
    2.4232   -0.0139    0.0269 C   0  0  0  0  0  0  0  0  0  0  0  0
    1.7214    1.1963    0.0052 C   0  0  0  0  0  0  0  0  0  0  0  0
    0.3273    1.1966   -0.0127 C   0  0  0  0  0  0  0  0  0  0  0  0
   -0.3597   -0.0141   -0.0111 C   0  0  0  0  0  0  0  0  0  0  0  0
    0.3345   -1.2251   -0.0091 C   0  0  0  0  0  0  0  0  0  0  0  0
    1.7368   -1.2363    0.0093 C   0  0  0  0  0  0  0  0  0  0  0  0
   -2.0803   -0.0195   -0.0154 Cl  0  0  0  0  0  0  0  0  0  0  0  0
    2.4626   -2.5073   -0.0098 C   0  0  0  0  0  0  0  0  0  0  0  0
    2.4105   -3.4479   -0.9725 C   0  0  0  0  0  0  0  0  0  0  0  0
    3.3489   -4.5351   -0.5293 C   0  0  0  0  0  0  0  0  0  0  0  0
    3.4221   -2.9539    1.0272 C   0  0  0  0  0  0  0  0  0  0  0  0
    3.7331   -2.3495    2.0323 O   0  0  0  0  0  0  0  0  0  0  0  0
    3.6048   -5.5817   -1.0963 O   0  0  0  0  0  0  0  0  0  0  0  0
    3.8878   -4.1585    0.6459 N   0  0  0  0  0  0  0  0  0  0  0  0
    1.7251   -3.4443   -2.1747 N   0  0  0  0  0  0  0  0  0  0  0  0
    1.6514   -4.4886   -3.1102 C   0  0  0  0  0  0  0  0  0  0  0  0
    1.2444   -5.7614   -2.7136 C   0  0  0  0  0  0  0  0  0  0  0  0
    1.2723   -6.8282   -3.6063 C   0  0  0  0  0  0  0  0  0  0  0  0
    1.6827   -6.6483   -4.9308 C   0  0  0  0  0  0  0  0  0  0  0  0
    2.0456   -5.3691   -5.3816 C   0  0  0  0  0  0  0  0  0  0  0  0
    2.0178   -4.2924   -4.4547 C   0  0  0  0  0  0  0  0  0  0  0  0
    1.6934   -8.0969   -5.8773 Cl  0  0  0  0  0  0  0  0  0  0  0  0
    2.4707   -5.0510   -6.7798 C   0  0  0  0  0  0  0  0  0  0  0  0
    2.7841   -3.9420   -7.1788 O   0  0  0  0  0  0  0  0  0  0  0  0
    2.4706   -6.0997   -7.6169 O   0  0  0  0  0  0  0  0  0  0  0  0
    3.5118    0.0124    0.0506 H   0  0  0  0  0  0  0  0  0  0  0  0
    2.2624    2.1403    0.0049 H   0  0  0  0  0  0  0  0  0  0  0  0
   -0.2149    2.1390   -0.0236 H   0  0  0  0  0  0  0  0  0  0  0  0
   -0.2237   -2.1587   -0.0139 H   0  0  0  0  0  0  0  0  0  0  0  0
    4.5568   -4.7094    1.1566 H   0  0  0  0  0  0  0  0  0  0  0  0
    1.1894   -2.6101   -2.3946 H   0  0  0  0  0  0  0  0  0  0  0  0
    0.9389   -5.9460   -1.6866 H   0  0  0  0  0  0  0  0  0  0  0  0
    0.9914   -7.8158   -3.2495 H   0  0  0  0  0  0  0  0  0  0  0  0
    2.3316   -3.2989   -4.7768 H   0  0  0  0  0  0  0  0  0  0  0  0
    2.7528   -5.7898   -8.5005 H   0  0  0  0  0  0  0  0  0  0  0  0
  1  2  2  0  0  0  0
  1  6  1  0  0  0  0
  1 26  1  0  0  0  0
  2  3  1  0  0  0  0
  2 27  1  0  0  0  0
  3  4  2  0  0  0  0
  3 28  1  0  0  0  0
  4  5  1  0  0  0  0
  4  7  1  0  0  0  0
  5  6  2  0  0  0  0
  5 29  1  0  0  0  0
  6  8  1  0  0  0  0
  8  9  2  0  0  0  0
  8 11  1  0  0  0  0
  9 10  1  0  0  0  0
  9 15  1  0  0  0  0
 10 13  2  0  0  0  0
 10 14  1  0  0  0  0
 11 12  2  0  0  0  0
 11 14  1  0  0  0  0
 14 30  1  0  0  0  0
 15 16  1  0  0  0  0
 15 31  1  0  0  0  0
 16 17  2  0  0  0  0
 16 21  1  0  0  0  0
 17 18  1  0  0  0  0
 17 32  1  0  0  0  0
 18 19  2  0  0  0  0
 18 33  1  0  0  0  0
 19 20  1  0  0  0  0
 19 22  1  0  0  0  0
 20 21  2  0  0  0  0
 20 23  1  0  0  0  0
 21 34  1  0  0  0  0
 23 24  2  0  0  0  0
 23 25  1  0  0  0  0
 25 35  1  0  0  0  0
M  END
>  <DRUGBANK_ID>
DB01793

>  <SECONDARY_ACCESSION_NUMBERS>
EXPT00277

>  <COMMON_NAME>
SB-409513

>  <SYNONYMS>
I-5

$$$$
