
 OpenBabel10282417123D

 28 27  0  0  1  0  0  0  0  0999 V2000
    0.9103   -0.0364   -0.0251 N   0  0  0  0  0  0  0  0  0  0  0  0
    0.4203   -1.2139    0.7059 C   0  0  1  0  0  0  0  0  0  0  0  0
    0.9270   -1.1681    2.1382 C   0  0  0  0  0  0  0  0  0  0  0  0
    0.4203    0.0952    2.8147 C   0  0  0  0  0  0  0  0  0  0  0  0
   -1.0997    0.0952    2.8147 C   0  0  0  0  0  0  0  0  0  0  0  0
   -1.6063   -1.1223    3.5705 C   0  0  0  0  0  0  0  0  0  0  0  0
   -1.0730   -1.0741    5.0783 B   0  5  0  0  0  0  0  0  0  0  0  0
   -1.5730    0.1727    5.7459 O   0  0  0  0  0  0  0  0  0  0  0  0
   -1.5730   -2.2756    5.8242 O   0  0  0  0  0  0  0  0  0  0  0  0
    0.4270   -1.0741    5.0783 O   0  0  0  0  0  0  0  0  0  0  0  0
   -1.0997   -1.2139    0.7059 C   0  0  0  0  0  0  0  0  0  0  0  0
   -1.8097   -2.2980    0.1253 O   0  0  0  0  0  0  0  0  0  0  0  0
   -1.7351   -0.2436    1.2254 O   0  0  0  0  0  0  0  0  0  0  0  0
    0.5703    0.8113    0.4288 H   0  0  0  0  0  0  0  0  0  0  0  0
    1.9303   -0.0364   -0.0251 H   0  0  0  0  0  0  0  0  0  0  0  0
    0.7770   -2.1033    0.2296 H   0  0  0  0  0  0  0  0  0  0  0  0
    0.5703   -2.0252    2.6703 H   0  0  0  0  0  0  0  0  0  0  0  0
    1.9970   -1.1681    2.1382 H   0  0  0  0  0  0  0  0  0  0  0  0
    0.7770    0.1275    3.8230 H   0  0  0  0  0  0  0  0  0  0  0  0
    0.7770    0.9523    2.2826 H   0  0  0  0  0  0  0  0  0  0  0  0
   -1.4563    0.9846    3.2909 H   0  0  0  0  0  0  0  0  0  0  0  0
   -1.4563    0.0630    1.8064 H   0  0  0  0  0  0  0  0  0  0  0  0
   -2.6763   -1.1223    3.5705 H   0  0  0  0  0  0  0  0  0  0  0  0
   -1.2497   -2.0116    3.0943 H   0  0  0  0  0  0  0  0  0  0  0  0
   -1.2397    0.9737    5.2486 H   0  0  0  0  0  0  0  0  0  0  0  0
   -2.5730   -2.2756    5.8242 H   0  0  0  0  0  0  0  0  0  0  0  0
    0.7603   -1.0439    6.0206 H   0  0  0  0  0  0  0  0  0  0  0  0
   -1.3097   -3.0615   -0.2835 H   0  0  0  0  0  0  0  0  0  0  0  0
  1 14  1  0  0  0  0
  1 15  1  0  0  0  0
  2  1  1  0  0  0  0
  2  3  1  0  0  0  0
  2 11  1  0  0  0  0
  2 16  1  6  0  0  0
  3  4  1  0  0  0  0
  3 17  1  0  0  0  0
  3 18  1  0  0  0  0
  4  5  1  0  0  0  0
  4 19  1  0  0  0  0
  4 20  1  0  0  0  0
  5  6  1  0  0  0  0
  5 21  1  0  0  0  0
  5 22  1  0  0  0  0
  6  7  1  0  0  0  0
  6 23  1  0  0  0  0
  6 24  1  0  0  0  0
  7  8  1  0  0  0  0
  7  9  1  0  0  0  0
  7 10  1  0  0  0  0
  8 25  1  0  0  0  0
  9 26  1  0  0  0  0
 10 27  1  0  0  0  0
 11 12  1  0  0  0  0
 11 13  2  0  0  0  0
 12 28  1  0  0  0  0
M  CHG  1   7  -1
M  END
>  <DRUGBANK_ID>
DB01983

>  <SECONDARY_ACCESSION_NUMBERS>
EXPT00396

>  <COMMON_NAME>
2(S)-Amino-6-Boronohexanoic Acid

>  <UNII>
4X6P7ZQE7D

$$$$
