
 OpenBabel10282417223D

 56 59  0  0  0  0  0  0  0  0999 V2000
    1.0915   -0.2545    0.2860 C   0  0  0  0  0  0  0  0  0  0  0  0
    0.3373   -0.9093   -0.7722 N   0  0  0  0  0  0  0  0  0  0  0  0
   -1.1446   -1.0267   -0.5568 C   0  0  0  0  0  0  0  0  0  0  0  0
   -2.0831    0.2402   -0.5334 C   0  0  0  0  0  0  0  0  0  0  0  0
   -3.1880    0.3447   -1.4042 C   0  0  0  0  0  0  0  0  0  0  0  0
   -3.6575    1.6343   -1.8232 C   0  0  0  0  0  0  0  0  0  0  0  0
   -3.0852    2.8587   -1.3566 C   0  0  0  0  0  0  0  0  0  0  0  0
   -3.1661    4.1092   -2.2130 C   0  0  0  0  0  0  0  0  0  0  0  0
   -2.4638    5.2720   -2.2083 C   0  0  0  0  0  0  0  0  0  0  0  0
   -2.5588    6.5184   -3.0519 C   0  0  0  0  0  0  0  0  0  0  0  0
   -1.7027    7.4188   -2.8556 O   0  0  0  0  0  0  0  0  0  0  0  0
   -3.5477    6.7756   -3.9207 N   0  0  0  0  0  0  0  0  0  0  0  0
   -4.5791    5.9407   -4.3490 O   0  0  0  0  0  0  0  0  0  0  0  0
   -2.1538    2.7561   -0.3420 C   0  0  0  0  0  0  0  0  0  0  0  0
   -1.6158    1.4852   -0.0407 C   0  0  0  0  0  0  0  0  0  0  0  0
    0.9114   -0.8472   -2.1507 C   0  0  0  0  0  0  0  0  0  0  0  0
    0.7336    0.4636   -2.9797 C   0  0  3  0  0  0  0  0  0  0  0  0
   -0.7287    0.7855   -3.0231 C   0  0  0  0  0  0  0  0  0  0  0  0
   -1.0776    2.1455   -3.5398 C   0  0  3  0  0  0  0  0  0  0  0  0
   -0.2358    3.2019   -2.7999 C   0  0  0  0  0  0  0  0  0  0  0  0
    1.2366    2.9369   -2.9513 C   0  0  3  0  0  0  0  0  0  0  0  0
    1.4781    2.9437   -4.4448 C   0  0  0  0  0  0  0  0  0  0  0  0
    0.6669    1.8259   -5.1493 C   0  0  3  0  0  0  0  0  0  0  0  0
   -0.8265    2.1398   -5.0030 C   0  0  0  0  0  0  0  0  0  0  0  0
    1.0232    0.4350   -4.4913 C   0  0  0  0  0  0  0  0  0  0  0  0
    1.5745    1.5911   -2.3410 C   0  0  0  0  0  0  0  0  0  0  0  0
    0.7595   -0.5735    1.2780 H   0  0  0  0  0  0  0  0  0  0  0  0
    1.0073    0.8238    0.3106 H   0  0  0  0  0  0  0  0  0  0  0  0
    2.1702   -0.4152    0.2027 H   0  0  0  0  0  0  0  0  0  0  0  0
   -1.5130   -1.7463   -1.3050 H   0  0  0  0  0  0  0  0  0  0  0  0
   -1.2969   -1.5237    0.4077 H   0  0  0  0  0  0  0  0  0  0  0  0
   -3.4658   -0.5136   -2.0245 H   0  0  0  0  0  0  0  0  0  0  0  0
   -4.2652    1.6527   -2.7332 H   0  0  0  0  0  0  0  0  0  0  0  0
   -3.7858    3.8843   -3.0606 H   0  0  0  0  0  0  0  0  0  0  0  0
   -1.6148    5.3960   -1.5305 H   0  0  0  0  0  0  0  0  0  0  0  0
   -3.5976    7.7208   -4.2931 H   0  0  0  0  0  0  0  0  0  0  0  0
   -4.2581    5.0526   -4.1741 H   0  0  0  0  0  0  0  0  0  0  0  0
   -1.5363    3.6170   -0.0783 H   0  0  0  0  0  0  0  0  0  0  0  0
   -0.5515    1.5794    0.1153 H   0  0  0  0  0  0  0  0  0  0  0  0
    1.9937   -1.0405   -2.0837 H   0  0  0  0  0  0  0  0  0  0  0  0
    0.5292   -1.6998   -2.7273 H   0  0  0  0  0  0  0  0  0  0  0  0
   -1.3494   -0.0271   -3.4313 H   0  0  0  0  0  0  0  0  0  0  0  0
   -0.9109    0.9054   -2.0132 H   0  0  0  0  0  0  0  0  0  0  0  0
   -2.1384    2.3087   -3.4712 H   0  0  0  0  0  0  0  0  0  0  0  0
   -0.4569    4.1933   -3.1884 H   0  0  0  0  0  0  0  0  0  0  0  0
   -0.3813    3.2308   -1.7280 H   0  0  0  0  0  0  0  0  0  0  0  0
    1.7845    3.7208   -2.4136 H   0  0  0  0  0  0  0  0  0  0  0  0
    2.5424    2.8160   -4.6205 H   0  0  0  0  0  0  0  0  0  0  0  0
    1.1652    3.9288   -4.8146 H   0  0  0  0  0  0  0  0  0  0  0  0
    0.8789    1.8132   -6.2151 H   0  0  0  0  0  0  0  0  0  0  0  0
   -1.1428    3.1160   -5.3916 H   0  0  0  0  0  0  0  0  0  0  0  0
   -1.4828    1.3848   -5.4607 H   0  0  0  0  0  0  0  0  0  0  0  0
    2.0704    0.1936   -4.6607 H   0  0  0  0  0  0  0  0  0  0  0  0
    0.4035   -0.3467   -4.9528 H   0  0  0  0  0  0  0  0  0  0  0  0
    1.4119    1.7027   -1.2718 H   0  0  0  0  0  0  0  0  0  0  0  0
    2.6405    1.3664   -2.4452 H   0  0  0  0  0  0  0  0  0  0  0  0
  1  2  1  0  0  0  0
  1 27  1  0  0  0  0
  1 28  1  0  0  0  0
  1 29  1  0  0  0  0
  2  3  1  0  0  0  0
  2 16  1  0  0  0  0
  3  4  1  0  0  0  0
  3 30  1  0  0  0  0
  3 31  1  0  0  0  0
  4  5  2  0  0  0  0
  4 15  1  0  0  0  0
  5  6  1  0  0  0  0
  5 32  1  0  0  0  0
  6  7  2  0  0  0  0
  6 33  1  0  0  0  0
  7  8  1  0  0  0  0
  7 14  1  0  0  0  0
  8  9  2  0  0  0  0
  8 34  1  0  0  0  0
  9 10  1  0  0  0  0
  9 35  1  0  0  0  0
 10 11  2  0  0  0  0
 10 12  1  0  0  0  0
 12 13  1  0  0  0  0
 12 36  1  0  0  0  0
 13 37  1  0  0  0  0
 14 15  2  0  0  0  0
 14 38  1  0  0  0  0
 15 39  1  0  0  0  0
 16 17  1  0  0  0  0
 16 40  1  0  0  0  0
 16 41  1  0  0  0  0
 17 18  1  0  0  0  0
 17 25  1  0  0  0  0
 17 26  1  0  0  0  0
 18 19  1  0  0  0  0
 18 42  1  0  0  0  0
 18 43  1  0  0  0  0
 19 24  1  0  0  0  0
 19 20  1  0  0  0  0
 19 44  1  0  0  0  0
 20 21  1  0  0  0  0
 20 45  1  0  0  0  0
 20 46  1  0  0  0  0
 21 26  1  0  0  0  0
 21 22  1  0  0  0  0
 21 47  1  0  0  0  0
 22 23  1  0  0  0  0
 22 48  1  0  0  0  0
 22 49  1  0  0  0  0
 23 24  1  0  0  0  0
 23 25  1  0  0  0  0
 23 50  1  0  0  0  0
 24 51  1  0  0  0  0
 24 52  1  0  0  0  0
 25 53  1  0  0  0  0
 25 54  1  0  0  0  0
 26 55  1  0  0  0  0
 26 56  1  0  0  0  0
M  END
>  <DRUGBANK_ID>
DB14979

>  <COMMON_NAME>
Martinostat

>  <CAS_NUMBER>
1629052-58-9

>  <UNII>
8JJC99KHGL

$$$$
