3BK
 OpenBabel10282417163D

 47 50  0  0  0  0  0  0  0  0999 V2000
   -1.3533    1.3703   -0.0859 C   0  0  0  0  0  0  0  0  0  0  0  0
   -0.1284    0.6940   -0.0357 C   0  0  0  0  0  0  0  0  0  0  0  0
    1.3145    1.6451   -0.0098 Cl  0  0  0  0  0  0  0  0  0  0  0  0
   -0.1063   -0.7033    0.0027 C   0  0  0  0  0  0  0  0  0  0  0  0
    1.3646   -1.6079    0.0174 Cl  0  0  0  0  0  0  0  0  0  0  0  0
   -1.3083   -1.4153    0.0265 C   0  0  0  0  0  0  0  0  0  0  0  0
   -2.5286   -0.7393   -0.0134 C   0  0  0  0  0  0  0  0  0  0  0  0
   -2.5639    0.6576   -0.0973 C   0  0  0  0  0  0  0  0  0  0  0  0
   -3.8844    1.3809   -0.0941 C   0  0  0  0  0  0  0  0  0  0  0  0
   -4.7290    1.0526   -1.2416 N   0  0  0  0  0  0  0  0  0  0  0  0
   -5.8906    0.3687   -1.1024 C   0  0  0  0  0  0  0  0  0  0  0  0
   -6.2563   -0.6883   -1.8061 N   0  0  0  0  0  0  0  0  0  0  0  0
   -7.5375   -0.9977   -1.3817 C   0  0  0  0  0  0  0  0  0  0  0  0
   -8.4501   -2.0128   -1.7301 C   0  0  0  0  0  0  0  0  0  0  0  0
   -8.1697   -3.0032   -2.6432 N   0  0  0  0  0  0  0  0  0  0  0  0
   -9.6676   -2.0239   -1.1376 N   0  0  0  0  0  0  0  0  0  0  0  0
   -9.9528   -1.0638   -0.2347 C   0  0  0  0  0  0  0  0  0  0  0  0
   -9.1593   -0.0590    0.1886 N   0  0  0  0  0  0  0  0  0  0  0  0
   -7.9652   -0.0898   -0.4272 C   0  0  0  0  0  0  0  0  0  0  0  0
   -6.9144    0.7763   -0.2730 N   0  0  0  0  0  0  0  0  0  0  0  0
   -6.9216    1.9582    0.5505 C   0  0  2  0  0  0  0  0  0  0  0  0
   -7.0169    1.5651    1.9280 O   0  0  0  0  0  0  0  0  0  0  0  0
   -7.9013    2.4870    2.6005 C   0  0  2  0  0  0  0  0  0  0  0  0
   -9.1865    1.7620    3.0127 C   0  0  0  0  0  0  0  0  0  0  0  0
   -8.9064    0.5436    3.6931 O   0  0  0  0  0  0  0  0  0  0  0  0
   -8.1869    3.6313    1.6186 C   0  0  1  0  0  0  0  0  0  0  0  0
   -7.2529    4.7113    1.7782 O   0  0  0  0  0  0  0  0  0  0  0  0
   -7.9994    2.9876    0.2491 C   0  0  1  0  0  0  0  0  0  0  0  0
   -7.5792    3.9192   -0.7504 O   0  0  0  0  0  0  0  0  0  0  0  0
   -5.9671    2.4701    0.4431 H   0  0  0  0  0  0  0  0  0  0  0  0
   -7.3654    2.8265    3.4941 H   0  0  0  0  0  0  0  0  0  0  0  0
   -9.1883    4.0529    1.7413 H   0  0  0  0  0  0  0  0  0  0  0  0
   -8.9288    2.5268   -0.0919 H   0  0  0  0  0  0  0  0  0  0  0  0
   -1.3584    2.4591   -0.1039 H   0  0  0  0  0  0  0  0  0  0  0  0
   -1.3046   -2.5013    0.0771 H   0  0  0  0  0  0  0  0  0  0  0  0
   -3.4578   -1.3071    0.0277 H   0  0  0  0  0  0  0  0  0  0  0  0
   -4.3628    1.1563    0.8668 H   0  0  0  0  0  0  0  0  0  0  0  0
   -3.7095    2.4636   -0.1164 H   0  0  0  0  0  0  0  0  0  0  0  0
   -4.1943    0.8274   -2.0789 H   0  0  0  0  0  0  0  0  0  0  0  0
   -7.2725   -3.0096   -3.1036 H   0  0  0  0  0  0  0  0  0  0  0  0
   -8.8811   -3.6903   -2.8383 H   0  0  0  0  0  0  0  0  0  0  0  0
  -10.9460   -1.1072    0.2048 H   0  0  0  0  0  0  0  0  0  0  0  0
   -9.7631    2.3999    3.6889 H   0  0  0  0  0  0  0  0  0  0  0  0
   -9.8171    1.5301    2.1514 H   0  0  0  0  0  0  0  0  0  0  0  0
   -8.4845   -0.0443    3.0368 H   0  0  0  0  0  0  0  0  0  0  0  0
   -6.3469    4.3645    1.8308 H   0  0  0  0  0  0  0  0  0  0  0  0
   -6.9134    4.5126   -0.3539 H   0  0  0  0  0  0  0  0  0  0  0  0
  1  2  2  0  0  0  0
  1  8  1  0  0  0  0
  1 34  1  0  0  0  0
  2  3  1  0  0  0  0
  2  4  1  0  0  0  0
  4  5  1  0  0  0  0
  4  6  2  0  0  0  0
  6  7  1  0  0  0  0
  6 35  1  0  0  0  0
  7  8  2  0  0  0  0
  7 36  1  0  0  0  0
  8  9  1  0  0  0  0
  9 10  1  0  0  0  0
  9 37  1  0  0  0  0
  9 38  1  0  0  0  0
 10 11  1  0  0  0  0
 10 39  1  0  0  0  0
 11 12  2  0  0  0  0
 11 20  1  0  0  0  0
 12 13  1  0  0  0  0
 13 14  2  0  0  0  0
 13 19  1  0  0  0  0
 14 15  1  0  0  0  0
 14 16  1  0  0  0  0
 15 40  1  0  0  0  0
 15 41  1  0  0  0  0
 16 17  2  0  0  0  0
 17 18  1  0  0  0  0
 17 42  1  0  0  0  0
 18 19  2  0  0  0  0
 19 20  1  0  0  0  0
 21 20  1  0  0  0  0
 21 22  1  0  0  0  0
 21 28  1  0  0  0  0
 21 30  1  6  0  0  0
 22 23  1  0  0  0  0
 23 26  1  0  0  0  0
 23 31  1  1  0  0  0
 23 24  1  0  0  0  0
 24 25  1  0  0  0  0
 24 43  1  0  0  0  0
 24 44  1  0  0  0  0
 25 45  1  0  0  0  0
 26 27  1  0  0  0  0
 26 28  1  0  0  0  0
 26 32  1  1  0  0  0
 27 46  1  0  0  0  0
 28 29  1  0  0  0  0
 28 33  1  6  0  0  0
 29 47  1  0  0  0  0
M  END
>  <DRUGBANK_ID>
DB07045

>  <COMMON_NAME>
(2R,3R,4S,5R)-2-[6-amino-8-[(3,4-dichlorophenyl)methylamino]purin-9-yl]-5-(hydroxymethyl)oxolane-3,4-diol

$$$$
