
 OpenBabel10282417103D

117125  0  0  0  0  0  0  0  0999 V2000
   15.8319   -3.3561    6.3220 C   0  0  2  0  0  0  0  0  0  0  0  0
   15.9050   -3.2506    7.8125 C   0  0  2  0  0  0  0  0  0  0  0  0
   16.8272   -5.0526    6.7047 C   0  0  2  0  0  0  0  0  0  0  0  0
   14.1179   -2.7253    5.7999 C   0  0  0  0  0  0  0  0  0  0  0  0
   16.3037   -2.4014    5.2395 C   0  0  0  0  0  0  0  0  0  0  0  0
   16.8852   -4.9108    8.6277 C   0  0  2  0  0  0  0  0  0  0  0  0
   16.3639   -1.5589    7.4197 N   0  0  3  0  0  0  0  0  0  0  0  0
   18.5148   -5.6871    8.0179 C   0  0  2  0  0  0  0  0  0  0  0  0
   14.7787   -5.1613    6.3492 N   0  0  0  0  0  0  0  0  0  0  0  0
   13.6126   -3.9626    5.6011 C   0  0  0  0  0  0  0  0  0  0  0  0
   13.3101   -1.2052    5.2880 C   0  0  0  0  0  0  0  0  0  0  0  0
   16.7340   -1.2392    6.0186 C   0  0  0  0  0  0  0  0  0  0  0  0
   18.5040   -5.1421    9.4582 C   0  0  2  0  0  0  0  0  0  0  0  0
   17.6530   -3.6210    9.0120 C   0  0  0  0  0  0  0  0  0  0  0  0
   17.1538   -6.7107    7.5457 C   0  0  0  0  0  0  0  0  0  0  0  0
   17.5023   -1.4444    8.2645 C   0  0  0  0  0  0  0  0  0  0  0  0
   20.2127   -6.9310    8.5332 C   0  0  0  0  0  0  0  0  0  0  0  0
   18.7815   -7.4726    8.6766 O   0  0  0  0  0  0  0  0  0  0  0  0
   13.8851   -6.1839    5.6516 C   0  0  0  0  0  0  0  0  0  0  0  0
   12.0679   -3.8178    4.9660 C   0  0  0  0  0  0  0  0  0  0  0  0
   12.0131   -0.7765    4.6762 C   0  0  0  0  0  0  0  0  0  0  0  0
   18.7714   -5.8963   10.9550 O   0  0  0  0  0  0  0  0  0  0  0  0
   18.1224   -2.7824    8.0812 C   0  0  0  0  0  0  0  0  0  0  0  0
   18.8862   -6.7555    6.4573 C   0  0  0  0  0  0  0  0  0  0  0  0
   21.4999   -6.7666    9.2129 O   0  0  0  0  0  0  0  0  0  0  0  0
   20.4870   -8.2634    8.5138 O   0  0  0  0  0  0  0  0  0  0  0  0
   11.2955   -2.3824    4.5986 C   0  0  0  0  0  0  0  0  0  0  0  0
   11.5266    1.0423    3.9061 C   0  0  2  0  0  0  0  0  0  0  0  0
   19.5993   -6.8035   11.7685 C   0  0  0  0  0  0  0  0  0  0  0  0
   21.9252   -5.6166    9.8270 C   0  0  0  0  0  0  0  0  0  0  0  0
    9.8574   -2.8738    3.7913 O   0  0  0  0  0  0  0  0  0  0  0  0
   12.4185    2.7425    2.7370 C   0  0  0  0  0  0  0  0  0  0  0  0
   10.5767    1.4400    4.9947 C   0  0  0  0  0  0  0  0  0  0  0  0
   10.4424   -0.4436    3.6360 C   0  0  0  0  0  0  0  0  0  0  0  0
   20.2606   -7.9684   11.1604 C   0  0  0  0  0  0  0  0  0  0  0  0
   19.7818   -6.7243   12.9847 O   0  0  0  0  0  0  0  0  0  0  0  0
    9.4793   -2.4776    2.2665 C   0  0  0  0  0  0  0  0  0  0  0  0
   13.7296    2.8905    1.7807 C   0  0  0  0  0  0  0  0  0  0  0  0
   12.8632    3.9724    1.3473 N   0  0  0  0  0  0  0  0  0  0  0  0
   11.1568    2.6684    4.7084 C   0  0  1  0  0  0  0  0  0  0  0  0
    9.1930   -0.7836    4.2253 O   0  0  0  0  0  0  0  0  0  0  0  0
   11.0040   -1.2367    2.8475 O   0  0  0  0  0  0  0  0  0  0  0  0
   12.3918    2.8088    0.6191 C   0  0  0  0  0  0  0  0  0  0  0  0
   14.9329    2.1519    2.4945 C   0  0  0  0  0  0  0  0  0  0  0  0
   11.9818    4.0261    0.1999 C   0  0  0  0  0  0  0  0  0  0  0  0
   12.8610    2.2520    4.8677 C   0  0  0  0  0  0  0  0  0  0  0  0
   10.4055    2.7588    3.3806 C   0  0  0  0  0  0  0  0  0  0  0  0
    8.2747   -0.2883    5.2486 C   0  0  0  0  0  0  0  0  0  0  0  0
   11.1466    2.2130    0.7557 C   0  0  0  0  0  0  0  0  0  0  0  0
   14.6618    0.8338    3.1942 C   0  0  0  0  0  0  0  0  0  0  0  0
   10.6176    4.3322    0.0204 C   0  0  0  0  0  0  0  0  0  0  0  0
   13.4190    1.1488    3.6572 N   0  0  3  0  0  0  0  0  0  0  0  0
   10.4012    0.9693    2.3213 C   0  0  2  0  0  0  0  0  0  0  0  0
    9.9384    2.7155    1.1876 C   0  0  0  0  0  0  0  0  0  0  0  0
    9.6619    3.9051    0.8551 C   0  0  0  0  0  0  0  0  0  0  0  0
   12.4851    0.8641    2.2231 C   0  0  0  0  0  0  0  0  0  0  0  0
   10.9656   -0.2011    0.7825 C   0  0  0  0  0  0  0  0  0  0  0  0
    8.7123    0.9622    1.6454 O   0  0  0  0  0  0  0  0  0  0  0  0
   12.5277   -0.9562    1.2571 C   0  0  0  0  0  0  0  0  0  0  0  0
   14.9151   -2.7308    8.1924 H   0  0  0  0  0  0  0  0  0  0  0  0
   16.8559   -5.2896    5.6371 H   0  0  0  0  0  0  0  0  0  0  0  0
   10.7685    3.4514    5.3102 H   0  0  0  0  0  0  0  0  0  0  0  0
   15.6264   -2.2294    4.3445 H   0  0  0  0  0  0  0  0  0  0  0  0
   17.1994   -2.5774    4.7052 H   0  0  0  0  0  0  0  0  0  0  0  0
   13.7413   -0.2325    5.4514 H   0  0  0  0  0  0  0  0  0  0  0  0
   16.5883   -0.3390    5.3696 H   0  0  0  0  0  0  0  0  0  0  0  0
   17.8195   -1.2447    6.0586 H   0  0  0  0  0  0  0  0  0  0  0  0
   19.5519   -4.6937    9.3265 H   0  0  0  0  0  0  0  0  0  0  0  0
   17.2585   -3.3473    9.9849 H   0  0  0  0  0  0  0  0  0  0  0  0
   17.2383   -7.3916    8.3835 H   0  0  0  0  0  0  0  0  0  0  0  0
   16.5039   -7.5479    7.3103 H   0  0  0  0  0  0  0  0  0  0  0  0
   16.9845   -1.0457    9.1357 H   0  0  0  0  0  0  0  0  0  0  0  0
   18.4264   -0.9108    8.1628 H   0  0  0  0  0  0  0  0  0  0  0  0
   19.2599   -8.3689    8.2353 H   0  0  0  0  0  0  0  0  0  0  0  0
   14.2810   -6.5699    4.7139 H   0  0  0  0  0  0  0  0  0  0  0  0
   13.7451   -6.8536    6.4684 H   0  0  0  0  0  0  0  0  0  0  0  0
   12.7519   -6.0756    5.3765 H   0  0  0  0  0  0  0  0  0  0  0  0
   11.3942   -4.6327    4.5610 H   0  0  0  0  0  0  0  0  0  0  0  0
   18.2475   -3.1329    7.0274 H   0  0  0  0  0  0  0  0  0  0  0  0
   19.9397   -6.1643    6.8914 H   0  0  0  0  0  0  0  0  0  0  0  0
   19.4072   -7.7205    6.3270 H   0  0  0  0  0  0  0  0  0  0  0  0
   18.8562   -5.9656    5.7211 H   0  0  0  0  0  0  0  0  0  0  0  0
   21.7796   -5.1083    8.9128 H   0  0  0  0  0  0  0  0  0  0  0  0
   21.2592   -5.4116   10.6476 H   0  0  0  0  0  0  0  0  0  0  0  0
   22.9663   -5.5313   10.1853 H   0  0  0  0  0  0  0  0  0  0  0  0
   10.7371    1.1395    6.0032 H   0  0  0  0  0  0  0  0  0  0  0  0
    9.5251    1.3532    4.7522 H   0  0  0  0  0  0  0  0  0  0  0  0
   21.3591   -8.0370   11.1160 H   0  0  0  0  0  0  0  0  0  0  0  0
   19.8214   -8.9572   11.0833 H   0  0  0  0  0  0  0  0  0  0  0  0
   19.8995   -7.4953   10.3279 H   0  0  0  0  0  0  0  0  0  0  0  0
    9.4548   -1.3913    2.0901 H   0  0  0  0  0  0  0  0  0  0  0  0
   10.2652   -2.8898    1.6233 H   0  0  0  0  0  0  0  0  0  0  0  0
    8.4349   -2.4351    1.9309 H   0  0  0  0  0  0  0  0  0  0  0  0
   13.8115    4.2235    0.5811 H   0  0  0  0  0  0  0  0  0  0  0  0
   15.9743    2.4303    2.6629 H   0  0  0  0  0  0  0  0  0  0  0  0
   14.7352    2.9236    3.2666 H   0  0  0  0  0  0  0  0  0  0  0  0
   13.8319    2.6608    4.9317 H   0  0  0  0  0  0  0  0  0  0  0  0
   12.7565    3.3456    4.8082 H   0  0  0  0  0  0  0  0  0  0  0  0
   10.7555    3.7636    2.9592 H   0  0  0  0  0  0  0  0  0  0  0  0
    9.3638    3.1926    3.5443 H   0  0  0  0  0  0  0  0  0  0  0  0
    8.8443   -0.1897    6.1709 H   0  0  0  0  0  0  0  0  0  0  0  0
    7.9146    0.5921    4.7437 H   0  0  0  0  0  0  0  0  0  0  0  0
    7.3078   -0.7786    5.5232 H   0  0  0  0  0  0  0  0  0  0  0  0
   11.3663    1.3345    1.1238 H   0  0  0  0  0  0  0  0  0  0  0  0
   15.4499    0.2566    3.6130 H   0  0  0  0  0  0  0  0  0  0  0  0
   14.2009   -0.1246    2.9371 H   0  0  0  0  0  0  0  0  0  0  0  0
   10.2972    4.9921   -0.7181 H   0  0  0  0  0  0  0  0  0  0  0  0
    9.3351    2.3781    2.1935 H   0  0  0  0  0  0  0  0  0  0  0  0
    8.6682    4.0957    1.1531 H   0  0  0  0  0  0  0  0  0  0  0  0
   13.4174    1.1286    1.4085 H   0  0  0  0  0  0  0  0  0  0  0  0
   12.7351    0.9231    0.9158 H   0  0  0  0  0  0  0  0  0  0  0  0
   10.0503   -0.7322    0.6446 H   0  0  0  0  0  0  0  0  0  0  0  0
   11.1500    0.4171   -0.2082 H   0  0  0  0  0  0  0  0  0  0  0  0
    8.1484    1.8859    1.7335 H   0  0  0  0  0  0  0  0  0  0  0  0
   12.6325   -0.9814    2.3543 H   0  0  0  0  0  0  0  0  0  0  0  0
   12.9192   -1.6778    0.6444 H   0  0  0  0  0  0  0  0  0  0  0  0
   13.5413   -0.4417    1.2576 H   0  0  0  0  0  0  0  0  0  0  0  0
  1  2  1  0  0  0  0
  1  3  1  0  0  0  0
  1  4  1  1  0  0  0
  1  5  1  0  0  0  0
  2  6  1  0  0  0  0
  2  7  1  0  0  0  0
  2 60  1  6  0  0  0
  3  8  1  0  0  0  0
  3  9  1  0  0  0  0
  3 61  1  1  0  0  0
  4 10  1  0  0  0  0
  4 11  2  0  0  0  0
  5 12  1  0  0  0  0
  5 63  1  0  0  0  0
  5 64  1  0  0  0  0
  6 13  1  0  0  0  0
  6 14  1  0  0  0  0
  6 15  1  6  0  0  0
  7 16  1  0  0  0  0
  7 12  1  0  0  0  0
  8 13  1  0  0  0  0
  8 18  1  1  0  0  0
  8 17  1  0  0  0  0
  9 10  1  0  0  0  0
  9 19  1  0  0  0  0
 10 20  2  0  0  0  0
 11 21  1  0  0  0  0
 11 65  1  0  0  0  0
 12 66  1  0  0  0  0
 12 67  1  0  0  0  0
 13 22  1  0  0  0  0
 13 68  1  1  0  0  0
 14 23  2  0  0  0  0
 14 69  1  0  0  0  0
 15 24  1  0  0  0  0
 15 70  1  0  0  0  0
 15 71  1  0  0  0  0
 16 23  1  0  0  0  0
 16 72  1  0  0  0  0
 16 73  1  0  0  0  0
 17 25  1  0  0  0  0
 17 26  2  0  0  0  0
 18 74  1  0  0  0  0
 19 75  1  0  0  0  0
 19 76  1  0  0  0  0
 19 77  1  0  0  0  0
 20 27  1  0  0  0  0
 20 78  1  0  0  0  0
 21 27  2  0  0  0  0
 22 29  1  0  0  0  0
 23 79  1  0  0  0  0
 24 80  1  0  0  0  0
 24 81  1  0  0  0  0
 24 82  1  0  0  0  0
 25 30  1  0  0  0  0
 27 31  1  0  0  0  0
 28 32  1  0  0  0  0
 28 33  1  0  0  0  0
 28 21  1  0  0  0  0
 28 34  1  6  0  0  0
 29 35  1  0  0  0  0
 29 36  2  0  0  0  0
 30 83  1  0  0  0  0
 30 84  1  0  0  0  0
 30 85  1  0  0  0  0
 31 37  1  0  0  0  0
 32 38  2  0  0  0  0
 32 39  1  0  0  0  0
 33 40  1  0  0  0  0
 33 86  1  0  0  0  0
 33 87  1  0  0  0  0
 34 41  1  0  0  0  0
 34 42  2  0  0  0  0
 35 88  1  0  0  0  0
 35 89  1  0  0  0  0
 35 90  1  0  0  0  0
 37 91  1  0  0  0  0
 37 92  1  0  0  0  0
 37 93  1  0  0  0  0
 38 43  1  0  0  0  0
 38 44  1  0  0  0  0
 39 45  1  0  0  0  0
 39 94  1  0  0  0  0
 40 46  1  0  0  0  0
 40 47  1  0  0  0  0
 40 62  1  1  0  0  0
 41 48  1  0  0  0  0
 43 49  1  0  0  0  0
 43 45  2  0  0  0  0
 44 50  1  0  0  0  0
 44 95  1  0  0  0  0
 44 96  1  0  0  0  0
 45 51  1  0  0  0  0
 46 52  1  0  0  0  0
 46 97  1  0  0  0  0
 46 98  1  0  0  0  0
 47 53  1  0  0  0  0
 47 99  1  0  0  0  0
 47100  1  0  0  0  0
 48101  1  0  0  0  0
 48102  1  0  0  0  0
 48103  1  0  0  0  0
 49 54  2  0  0  0  0
 49104  1  0  0  0  0
 50 52  1  0  0  0  0
 50105  1  0  0  0  0
 50106  1  0  0  0  0
 51 55  2  0  0  0  0
 51107  1  0  0  0  0
 52 56  1  0  0  0  0
 53 56  1  0  0  0  0
 53 57  1  0  0  0  0
 53 58  1  1  0  0  0
 54 55  1  0  0  0  0
 54108  1  0  0  0  0
 55109  1  0  0  0  0
 56110  1  0  0  0  0
 56111  1  0  0  0  0
 57 59  1  0  0  0  0
 57112  1  0  0  0  0
 57113  1  0  0  0  0
 58114  1  0  0  0  0
 59115  1  0  0  0  0
 59116  1  0  0  0  0
 59117  1  0  0  0  0
M  END
>  <DRUGBANK_ID>
DB00570

>  <SECONDARY_ACCESSION_NUMBERS>
APRD00708

>  <COMMON_NAME>
Vinblastine

>  <CAS_NUMBER>
865-21-4

>  <UNII>
5V9KLZ54CY

>  <SYNONYMS>
Vinblastin; Vinblastina; Vinblastine; Vinblastinum; Vincaleukoblastine

$$$$
