
 OpenBabel10282417143D

 18 17  0  0  0  0  0  0  0  0999 V2000
    1.0249    0.0521    0.0711 O   0  0  0  0  0  0  0  0  0  0  0  0
    0.5685   -0.8694   -0.9113 C   0  0  0  0  0  0  0  0  0  0  0  0
    1.1187   -0.4960   -2.2847 C   0  0  0  0  0  0  0  0  0  0  0  0
    2.6505   -0.5960   -2.3640 C   0  0  0  0  0  0  0  0  0  0  0  0
    3.1955   -1.9871   -2.0242 C   0  0  0  0  0  0  0  0  0  0  0  0
    2.6680   -3.0502   -2.9645 C   0  0  0  0  0  0  0  0  0  0  0  0
    3.6134   -3.7045   -3.6646 O   0  0  0  0  0  0  0  0  0  0  0  0
    1.4803   -3.3230   -3.0875 O   0  0  0  0  0  0  0  0  0  0  0  0
    1.9948    0.0170    0.0953 H   0  0  0  0  0  0  0  0  0  0  0  0
    0.8595   -1.8790   -0.6059 H   0  0  0  0  0  0  0  0  0  0  0  0
   -0.5240   -0.8424   -0.9194 H   0  0  0  0  0  0  0  0  0  0  0  0
    0.6593   -1.1306   -3.0490 H   0  0  0  0  0  0  0  0  0  0  0  0
    0.8202    0.5291   -2.5328 H   0  0  0  0  0  0  0  0  0  0  0  0
    2.9778   -0.3067   -3.3697 H   0  0  0  0  0  0  0  0  0  0  0  0
    3.0945    0.1401   -1.6812 H   0  0  0  0  0  0  0  0  0  0  0  0
    4.2901   -1.9628   -2.0436 H   0  0  0  0  0  0  0  0  0  0  0  0
    2.9314   -2.2817   -1.0025 H   0  0  0  0  0  0  0  0  0  0  0  0
    4.5328   -3.4492   -3.4702 H   0  0  0  0  0  0  0  0  0  0  0  0
  1  2  1  0  0  0  0
  1  9  1  0  0  0  0
  2  3  1  0  0  0  0
  2 10  1  0  0  0  0
  2 11  1  0  0  0  0
  3  4  1  0  0  0  0
  3 12  1  0  0  0  0
  3 13  1  0  0  0  0
  4  5  1  0  0  0  0
  4 14  1  0  0  0  0
  4 15  1  0  0  0  0
  5  6  1  0  0  0  0
  5 16  1  0  0  0  0
  5 17  1  0  0  0  0
  6  7  1  0  0  0  0
  6  8  2  0  0  0  0
  7 18  1  0  0  0  0
M  END
>  <DRUGBANK_ID>
DB04781

>  <COMMON_NAME>
5-hydroxyvaleric acid

>  <CAS_NUMBER>
13392-69-3

>  <UNII>
H5EVV4LP59

>  <SYNONYMS>
4-oxy-butan-carbonsäure; 5-hydroxy-pentansäure; 5-hydroxypentanoic acid; delta-hydroxypentanoic acid; delta-hydroxyvaleric acid

$$$$
