
 OpenBabel10282417213D

 33 34  0  0  0  0  0  0  0  0999 V2000
    0.9018   -0.0068    0.0179 P   0  0  0  0  0  0  0  0  0  0  0  0
    1.9444    7.1289   -1.7046 P   0  0  0  0  0  0  0  0  0  0  0  0
    0.8510    1.8262   -1.8892 C   0  0  0  0  0  0  0  0  0  0  0  0
    0.7598    4.6969   -2.3520 C   0  0  0  0  0  0  0  0  0  0  0  0
    0.0090    2.3964   -2.8912 C   0  0  0  0  0  0  0  0  0  0  0  0
   -0.0134    3.8254   -3.1478 C   0  0  0  0  0  0  0  0  0  0  0  0
    0.7780    0.4794   -1.5814 O   0  0  0  0  0  0  0  0  0  0  0  0
    0.8790    6.1080   -2.6077 O   0  0  0  0  0  0  0  0  0  0  0  0
    1.6566    2.6838   -1.1607 C   0  0  0  0  0  0  0  0  0  0  0  0
    1.3965    4.0322   -1.3005 C   0  0  0  0  0  0  0  0  0  0  0  0
    0.8037   -1.6272   -0.1394 O   0  0  0  0  0  0  0  0  0  0  0  0
   -0.8282   -0.0068    0.0179 O   0  0  0  0  0  0  0  0  0  0  0  0
    0.6340    7.5392   -0.8265 O   0  0  0  0  0  0  0  0  0  0  0  0
    2.6644    5.9591   -0.8935 O   0  0  0  0  0  0  0  0  0  0  0  0
    2.4502   -0.0068    0.0179 O   0  0  0  0  0  0  0  0  0  0  0  0
    2.8979    8.0427   -0.8963 O   0  0  0  0  0  0  0  0  0  0  0  0
   -0.8437    1.5639   -3.6525 C   0  0  0  0  0  0  0  0  0  0  0  0
    2.7512    2.3826   -0.1702 C   0  0  0  0  0  0  0  0  0  0  0  0
   -0.8727    4.3366   -4.1320 C   0  0  0  0  0  0  0  0  0  0  0  0
   -1.7004    2.1111   -4.6086 C   0  0  0  0  0  0  0  0  0  0  0  0
   -1.7196    3.4776   -4.8446 C   0  0  0  0  0  0  0  0  0  0  0  0
    1.7161    4.5147   -0.3860 H   0  0  0  0  0  0  0  0  0  0  0  0
    1.6808   -1.9637    0.1378 H   0  0  0  0  0  0  0  0  0  0  0  0
   -1.1006   -0.1161   -0.9125 H   0  0  0  0  0  0  0  0  0  0  0  0
    0.3433    8.4221   -1.1314 H   0  0  0  0  0  0  0  0  0  0  0  0
    3.3405    5.5245   -1.4354 H   0  0  0  0  0  0  0  0  0  0  0  0
   -0.8432    0.4908   -3.5066 H   0  0  0  0  0  0  0  0  0  0  0  0
    2.3251    2.0287    0.7742 H   0  0  0  0  0  0  0  0  0  0  0  0
    3.5026    1.7226   -0.6215 H   0  0  0  0  0  0  0  0  0  0  0  0
    3.3415    3.2558    0.1244 H   0  0  0  0  0  0  0  0  0  0  0  0
   -0.9273    5.4016   -4.3212 H   0  0  0  0  0  0  0  0  0  0  0  0
   -2.3592    1.4505   -5.1724 H   0  0  0  0  0  0  0  0  0  0  0  0
   -2.4027    3.8923   -5.5819 H   0  0  0  0  0  0  0  0  0  0  0  0
  2  8  1  0  0  0  0
  3  7  1  0  0  0  0
  4  6  1  0  0  0  0
  5  3  1  0  0  0  0
  6  5  1  0  0  0  0
  7  1  1  0  0  0  0
  8  4  1  0  0  0  0
  9  3  2  0  0  0  0
 10  9  1  0  0  0  0
 10  4  2  0  0  0  0
 10 22  1  0  0  0  0
 11  1  1  0  0  0  0
 11 23  1  0  0  0  0
 12  1  1  0  0  0  0
 12 24  1  0  0  0  0
 13  2  1  0  0  0  0
 13 25  1  0  0  0  0
 14  2  1  0  0  0  0
 14 26  1  0  0  0  0
 15  1  2  0  0  0  0
 16  2  2  0  0  0  0
 17  5  2  0  0  0  0
 17 27  1  0  0  0  0
 18  9  1  0  0  0  0
 18 28  1  0  0  0  0
 18 29  1  0  0  0  0
 18 30  1  0  0  0  0
 19  6  2  0  0  0  0
 19 31  1  0  0  0  0
 20 17  1  0  0  0  0
 20 32  1  0  0  0  0
 21 19  1  0  0  0  0
 21 20  2  0  0  0  0
 21 33  1  0  0  0  0
M  END
>  <DRUGBANK_ID>
DB14650

>  <SECONDARY_ACCESSION_NUMBERS>
DBSALT000878

>  <COMMON_NAME>
Menadiol diphosphate

>  <CAS_NUMBER>
84-98-0

>  <UNII>
GRL65FEU3T

>  <SYNONYMS>
2-methyl-1,4-naphthalenediol diphosphate; Menadiol bis(dihydrogen phosphate); Menadiol phosphate

$$$$
