
 OpenBabel10282417233D

 19 19  0  0  0  0  0  0  0  0999 V2000
   -1.3900   -0.1120   -0.0540 C   0  0  0  0  0  0  0  0  0  0  0  0
   -3.4558   -0.2009   -0.2799 Hg  0  0  0  0  0  0  0  0  0  0  0  0
   -0.7320    1.1400    0.1000 C   0  0  0  0  0  0  0  0  0  0  0  0
   -0.6590   -1.2280   -0.0510 C   0  0  0  0  0  0  0  0  0  0  0  0
   -5.4223   -0.2855   -0.4949 O   0  0  0  0  0  0  0  0  0  0  0  0
    0.6630    1.2080   -0.0480 C   0  0  0  0  0  0  0  0  0  0  0  0
    0.7450   -1.1270    0.1040 C   0  0  0  0  0  0  0  0  0  0  0  0
   -6.0104   -1.3427   -1.2384 C   0  0  0  0  0  0  0  0  0  0  0  0
    1.3710    0.1170   -0.0510 C   0  0  0  0  0  0  0  0  0  0  0  0
   -5.1302   -2.4095   -1.8692 C   0  0  0  0  0  0  0  0  0  0  0  0
   -7.2726   -1.3971   -1.3764 O   0  0  0  0  0  0  0  0  0  0  0  0
   -1.2946    2.0215    0.3264 H   0  0  0  0  0  0  0  0  0  0  0  0
   -1.1260   -2.1840   -0.1639 H   0  0  0  0  0  0  0  0  0  0  0  0
    1.1435    2.1577   -0.1583 H   0  0  0  0  0  0  0  0  0  0  0  0
    1.3244   -1.9955    0.3381 H   0  0  0  0  0  0  0  0  0  0  0  0
    2.4328    0.1694   -0.1720 H   0  0  0  0  0  0  0  0  0  0  0  0
   -5.3926   -3.3683   -1.4732 H   0  0  0  0  0  0  0  0  0  0  0  0
   -5.2746   -2.4099   -2.9294 H   0  0  0  0  0  0  0  0  0  0  0  0
   -4.1041   -2.2013   -1.6490 H   0  0  0  0  0  0  0  0  0  0  0  0
  1  2  1  0  0  0  0
  1  3  1  0  0  0  0
  1  4  2  0  0  0  0
  2  5  1  0  0  0  0
  3  6  2  0  0  0  0
  3 12  1  0  0  0  0
  4  7  1  0  0  0  0
  4 13  1  0  0  0  0
  5  8  1  0  0  0  0
  6  9  1  0  0  0  0
  6 14  1  0  0  0  0
  7  9  2  0  0  0  0
  7 15  1  0  0  0  0
  8 10  1  0  0  0  0
  8 11  2  0  0  0  0
  9 16  1  0  0  0  0
 10 17  1  0  0  0  0
 10 18  1  0  0  0  0
 10 19  1  0  0  0  0
M  END
>  <DRUGBANK_ID>
DB17044

>  <COMMON_NAME>
Phenylmercuric acetate

>  <CAS_NUMBER>
62-38-4

>  <UNII>
OSX88361UX

>  <SYNONYMS>
(acetato)phenylmercury; Mercury, (acetato-o)phenyl-; Phenyl mercuric acetate; Phenylmercury acetate

$$$$
