
 OpenBabel10282417193D

 42 44  0  0  0  0  0  0  0  0999 V2000
    0.9953   -0.1145   -0.0734 C   0  0  0  0  0  0  0  0  0  0  0  0
    0.5350    0.0890   -1.4272 N   0  0  0  0  0  0  0  0  0  0  0  0
    0.1612   -0.8995   -2.2921 C   0  0  0  0  0  0  0  0  0  0  0  0
   -0.2185   -0.4039   -3.4481 N   0  0  0  0  0  0  0  0  0  0  0  0
   -0.2987    0.9635   -3.2556 C   0  0  0  0  0  0  0  0  0  0  0  0
    0.2038    1.3005   -1.9993 C   0  0  0  0  0  0  0  0  0  0  0  0
    0.3127    2.6213   -1.5217 C   0  0  0  0  0  0  0  0  0  0  0  0
   -0.2893    3.6762   -2.2782 C   0  0  0  0  0  0  0  0  0  0  0  0
   -0.9307    3.3234   -3.6466 C   0  0  0  0  0  0  0  0  0  0  0  0
   -0.7875    1.9706   -4.1212 C   0  0  0  0  0  0  0  0  0  0  0  0
   -0.9067    1.6557   -5.4265 F   0  0  0  0  0  0  0  0  0  0  0  0
   -1.3318    4.4183   -4.7245 N   0  0  0  0  0  0  0  0  0  0  0  0
   -1.2813    4.2477   -6.1690 C   0  0  0  0  0  0  0  0  0  0  0  0
   -0.2732    4.6231   -7.1420 C   0  0  0  0  0  0  0  0  0  0  0  0
   -0.3998    4.1775   -8.4634 C   0  0  0  0  0  0  0  0  0  0  0  0
   -1.6451    3.6805   -8.8443 C   0  0  0  0  0  0  0  0  0  0  0  0
   -2.6449    3.4131   -7.9143 C   0  0  0  0  0  0  0  0  0  0  0  0
   -2.3977    3.5837   -6.5909 C   0  0  0  0  0  0  0  0  0  0  0  0
   -3.2793    3.1881   -5.6657 F   0  0  0  0  0  0  0  0  0  0  0  0
   -2.0931    3.4537  -10.6574 Br  0  0  0  0  0  0  0  0  0  0  0  0
    0.3625    5.1507   -1.7179 C   0  0  0  0  0  0  0  0  0  0  0  0
    0.8734    5.2214   -0.6404 O   0  0  0  0  0  0  0  0  0  0  0  0
    0.5028    6.3292   -2.5728 N   0  0  0  0  0  0  0  0  0  0  0  0
    1.1198    6.2540   -3.8910 O   0  0  0  0  0  0  0  0  0  0  0  0
    1.1104    4.9377   -4.3207 C   0  0  0  0  0  0  0  0  0  0  0  0
    2.1785    3.9418   -4.1841 C   0  0  0  0  0  0  0  0  0  0  0  0
    2.8469    4.1257   -2.9742 O   0  0  0  0  0  0  0  0  0  0  0  0
    0.6251   -1.0735    0.2995 H   0  0  0  0  0  0  0  0  0  0  0  0
    0.6078    0.6842    0.5647 H   0  0  0  0  0  0  0  0  0  0  0  0
    2.0878   -0.1016   -0.0710 H   0  0  0  0  0  0  0  0  0  0  0  0
    0.1606   -1.9506   -2.0273 H   0  0  0  0  0  0  0  0  0  0  0  0
    0.9414    2.8077   -0.6461 H   0  0  0  0  0  0  0  0  0  0  0  0
   -1.0801    5.3972   -4.5408 H   0  0  0  0  0  0  0  0  0  0  0  0
    0.6370    5.2151   -6.9548 H   0  0  0  0  0  0  0  0  0  0  0  0
    0.4265    4.2424   -9.1794 H   0  0  0  0  0  0  0  0  0  0  0  0
   -3.6421    3.0830   -8.1434 H   0  0  0  0  0  0  0  0  0  0  0  0
    0.9133    7.1372   -2.0969 H   0  0  0  0  0  0  0  0  0  0  0  0
    0.3122    4.7439   -3.7343 H   0  0  0  0  0  0  0  0  0  0  0  0
    0.7261    4.6544   -5.2544 H   0  0  0  0  0  0  0  0  0  0  0  0
    1.8059    2.9071   -4.2924 H   0  0  0  0  0  0  0  0  0  0  0  0
    2.7599    4.1806   -5.0637 H   0  0  0  0  0  0  0  0  0  0  0  0
    2.5974    5.0205   -2.6718 H   0  0  0  0  0  0  0  0  0  0  0  0
  1  2  1  0  0  0  0
  1 28  1  0  0  0  0
  1 29  1  0  0  0  0
  1 30  1  0  0  0  0
  2  3  1  0  0  0  0
  2  6  1  0  0  0  0
  3  4  2  0  0  0  0
  3 31  1  0  0  0  0
  4  5  1  0  0  0  0
  5  6  1  0  0  0  0
  5 10  2  0  0  0  0
  6  7  2  0  0  0  0
  7  8  1  0  0  0  0
  7 32  1  0  0  0  0
  8  9  2  0  0  0  0
  8 21  1  0  0  0  0
  9 10  1  0  0  0  0
  9 12  1  0  0  0  0
 10 11  1  0  0  0  0
 12 13  1  0  0  0  0
 12 33  1  0  0  0  0
 13 14  2  0  0  0  0
 13 18  1  0  0  0  0
 14 15  1  0  0  0  0
 14 34  1  0  0  0  0
 15 16  2  0  0  0  0
 15 35  1  0  0  0  0
 16 17  1  0  0  0  0
 16 20  1  0  0  0  0
 17 18  2  0  0  0  0
 17 36  1  0  0  0  0
 18 19  1  0  0  0  0
 21 22  2  0  0  0  0
 21 23  1  0  0  0  0
 23 24  1  0  0  0  0
 23 37  1  0  0  0  0
 24 25  1  0  0  0  0
 25 26  1  0  0  0  0
 25 38  1  0  0  0  0
 25 39  1  0  0  0  0
 26 27  1  0  0  0  0
 26 40  1  0  0  0  0
 26 41  1  0  0  0  0
 27 42  1  0  0  0  0
M  END
>  <DRUGBANK_ID>
DB11967

>  <SECONDARY_ACCESSION_NUMBERS>
DB05985

>  <COMMON_NAME>
Binimetinib

>  <CAS_NUMBER>
606143-89-9

>  <UNII>
181R97MR71

>  <SYNONYMS>
Binimetinib

$$$$
