DSY
 OpenBabel10282417163D

 30 31  0  0  0  0  0  0  0  0999 V2000
    1.2600   -1.4565   -0.0005 C   0  0  0  0  0  0  0  0  0  0  0  0
    2.4951   -0.7975   -0.0345 C   0  0  0  0  0  0  0  0  0  0  0  0
    2.5419    0.5702   -0.0178 C   0  0  0  0  0  0  0  0  0  0  0  0
    1.3534    1.2721    0.0300 C   0  0  0  0  0  0  0  0  0  0  0  0
    0.0532    0.7061    0.0094 C   0  0  0  0  0  0  0  0  0  0  0  0
   -1.1935    1.4576   -0.0092 C   0  0  0  0  0  0  0  0  0  0  0  0
   -2.3784    0.6841   -0.0120 C   0  0  0  0  0  0  0  0  0  0  0  0
   -2.3826   -0.7109   -0.0028 C   0  0  0  0  0  0  0  0  0  0  0  0
   -1.1830   -1.4066    0.0112 C   0  0  0  0  0  0  0  0  0  0  0  0
    0.0423   -0.7238    0.0073 C   0  0  0  0  0  0  0  0  0  0  0  0
   -1.2813    2.8574   -0.0399 N   0  0  0  0  0  0  0  0  0  0  0  0
   -2.5328    3.6071   -0.0758 C   0  0  0  0  0  0  0  0  0  0  0  0
   -0.1225    3.7401   -0.0507 C   0  0  0  0  0  0  0  0  0  0  0  0
    4.0382   -1.6560   -0.0654 S   0  0  0  0  0  0  0  0  0  0  0  0
    4.0081   -2.6123    1.0131 O   0  0  0  0  0  0  0  0  0  0  0  0
    3.9792   -2.4815   -1.4502 O   0  0  0  0  0  0  0  0  0  0  0  0
    5.1001   -0.6751   -0.1945 O   0  0  0  0  0  0  0  0  0  0  0  0
    1.2368   -2.5433    0.0288 H   0  0  0  0  0  0  0  0  0  0  0  0
    3.4733    1.1312   -0.0290 H   0  0  0  0  0  0  0  0  0  0  0  0
    1.5493    2.3217    0.0933 H   0  0  0  0  0  0  0  0  0  0  0  0
   -3.3628    1.1377   -0.0234 H   0  0  0  0  0  0  0  0  0  0  0  0
   -3.3328   -1.2422   -0.0116 H   0  0  0  0  0  0  0  0  0  0  0  0
   -1.2245   -2.4939    0.0215 H   0  0  0  0  0  0  0  0  0  0  0  0
   -2.5782    4.2696    0.7961 H   0  0  0  0  0  0  0  0  0  0  0  0
   -2.5530    4.2292   -0.9782 H   0  0  0  0  0  0  0  0  0  0  0  0
   -3.4499    3.0247   -0.0767 H   0  0  0  0  0  0  0  0  0  0  0  0
    0.4340    3.6385    0.8887 H   0  0  0  0  0  0  0  0  0  0  0  0
    0.4866    3.5592   -0.9448 H   0  0  0  0  0  0  0  0  0  0  0  0
   -0.3836    4.8010   -0.1022 H   0  0  0  0  0  0  0  0  0  0  0  0
    3.3469   -3.2200   -1.3627 H   0  0  0  0  0  0  0  0  0  0  0  0
  1  2  2  0  0  0  0
  1 10  1  0  0  0  0
  1 18  1  0  0  0  0
  2  3  1  0  0  0  0
  2 14  1  0  0  0  0
  3  4  2  0  0  0  0
  3 19  1  0  0  0  0
  4  5  1  0  0  0  0
  4 20  1  0  0  0  0
  5  6  2  0  0  0  0
  5 10  1  0  0  0  0
  6  7  1  0  0  0  0
  6 11  1  0  0  0  0
  7  8  2  0  0  0  0
  7 21  1  0  0  0  0
  8  9  1  0  0  0  0
  8 22  1  0  0  0  0
  9 10  2  0  0  0  0
  9 23  1  0  0  0  0
 11 12  1  0  0  0  0
 11 13  1  0  0  0  0
 12 24  1  0  0  0  0
 12 25  1  0  0  0  0
 12 26  1  0  0  0  0
 13 27  1  0  0  0  0
 13 28  1  0  0  0  0
 13 29  1  0  0  0  0
 14 15  2  0  0  0  0
 14 16  1  0  0  0  0
 14 17  2  0  0  0  0
 16 30  1  0  0  0  0
M  END
>  <DRUGBANK_ID>
DB07684

>  <COMMON_NAME>
5-(DIMETHYLAMINO)-2-NAPHTHALENESULFONIC ACID

$$$$
