
 OpenBabel10282417183D

 53 55  0  0  0  0  0  0  0  0999 V2000
    2.0902    0.6444    0.3910 C   0  0  0  0  0  0  0  0  0  0  0  0
    1.2364    1.0890    1.4407 O   0  0  0  0  0  0  0  0  0  0  0  0
    1.1981    0.1229    2.4854 C   0  0  0  0  0  0  0  0  0  0  0  0
    0.3943   -1.1982    2.2549 C   0  0  0  0  0  0  0  0  0  0  0  0
    0.5625   -2.0272    1.0973 O   0  0  0  0  0  0  0  0  0  0  0  0
    0.0302   -1.6978   -0.1258 C   0  0  0  0  0  0  0  0  0  0  0  0
   -0.2517   -0.4001   -0.5511 C   0  0  0  0  0  0  0  0  0  0  0  0
   -0.0427   -0.0450   -1.8695 C   0  0  0  0  0  0  0  0  0  0  0  0
   -0.0891   -1.0311   -2.8155 C   0  0  0  0  0  0  0  0  0  0  0  0
   -0.0529   -2.3763   -2.4196 C   0  0  0  0  0  0  0  0  0  0  0  0
    0.0671   -2.7103   -1.0767 C   0  0  0  0  0  0  0  0  0  0  0  0
   -0.4185   -0.6066   -4.0743 N   0  0  0  0  0  0  0  0  0  0  0  0
   -1.0444   -1.3824   -5.0169 C   0  0  0  0  0  0  0  0  0  0  0  0
   -2.0355   -2.2137   -4.6925 N   0  0  0  0  0  0  0  0  0  0  0  0
   -2.4920   -2.9918   -5.6867 C   0  0  0  0  0  0  0  0  0  0  0  0
   -1.9447   -2.9683   -6.9414 C   0  0  0  0  0  0  0  0  0  0  0  0
   -0.9007   -2.0924   -7.1473 C   0  0  0  0  0  0  0  0  0  0  0  0
   -0.4906   -1.2669   -6.1866 N   0  0  0  0  0  0  0  0  0  0  0  0
   -0.2603   -1.8615   -8.3472 N   0  0  0  0  0  0  0  0  0  0  0  0
    0.9210   -1.0866   -8.4389 C   0  0  0  0  0  0  0  0  0  0  0  0
    2.1515   -1.4751   -7.9307 C   0  0  0  0  0  0  0  0  0  0  0  0
    3.2922   -0.7397   -8.2769 C   0  0  0  0  0  0  0  0  0  0  0  0
    3.2264    0.2162   -9.3052 C   0  0  0  0  0  0  0  0  0  0  0  0
    1.9922    0.5136   -9.8721 C   0  0  0  0  0  0  0  0  0  0  0  0
    0.8832    0.0893   -9.1754 C   0  0  0  0  0  0  0  0  0  0  0  0
    1.8852    1.1234  -11.1459 N   0  0  0  0  0  0  0  0  0  0  0  0
    0.8482    1.1919  -12.0593 C   0  0  0  0  0  0  0  0  0  0  0  0
    1.0173    1.8191  -13.1091 O   0  0  0  0  0  0  0  0  0  0  0  0
   -0.5132    0.6175  -11.8277 C   0  0  0  0  0  0  0  0  0  0  0  0
   -0.8030   -0.5406  -11.2247 C   0  0  0  0  0  0  0  0  0  0  0  0
   -2.4309   -3.7528   -7.9150 F   0  0  0  0  0  0  0  0  0  0  0  0
    1.8448    1.1978   -0.5189 H   0  0  0  0  0  0  0  0  0  0  0  0
    1.9417   -0.4127    0.2265 H   0  0  0  0  0  0  0  0  0  0  0  0
    3.1473    0.6957    0.6151 H   0  0  0  0  0  0  0  0  0  0  0  0
    2.2398   -0.0802    2.7483 H   0  0  0  0  0  0  0  0  0  0  0  0
    0.7545    0.6238    3.3582 H   0  0  0  0  0  0  0  0  0  0  0  0
    0.7407   -1.8402    3.0804 H   0  0  0  0  0  0  0  0  0  0  0  0
   -0.6765   -1.0670    2.4172 H   0  0  0  0  0  0  0  0  0  0  0  0
   -0.4097    0.4318    0.1158 H   0  0  0  0  0  0  0  0  0  0  0  0
    0.0849    0.9906   -2.1774 H   0  0  0  0  0  0  0  0  0  0  0  0
   -0.1243   -3.1706   -3.1592 H   0  0  0  0  0  0  0  0  0  0  0  0
    0.1543   -3.7498   -0.7772 H   0  0  0  0  0  0  0  0  0  0  0  0
   -0.2296    0.3256   -4.3953 H   0  0  0  0  0  0  0  0  0  0  0  0
   -3.3242   -3.6286   -5.4156 H   0  0  0  0  0  0  0  0  0  0  0  0
   -0.4090   -2.5631   -9.0614 H   0  0  0  0  0  0  0  0  0  0  0  0
    2.2100   -2.2879   -7.2124 H   0  0  0  0  0  0  0  0  0  0  0  0
    4.2360   -0.9556   -7.7840 H   0  0  0  0  0  0  0  0  0  0  0  0
    4.1365    0.7023   -9.6441 H   0  0  0  0  0  0  0  0  0  0  0  0
   -0.0665    0.5889   -9.3110 H   0  0  0  0  0  0  0  0  0  0  0  0
    2.7466    1.4683  -11.5548 H   0  0  0  0  0  0  0  0  0  0  0  0
   -1.3333    1.2131  -12.2146 H   0  0  0  0  0  0  0  0  0  0  0  0
   -1.7922   -0.7074  -10.8038 H   0  0  0  0  0  0  0  0  0  0  0  0
   -0.0143   -1.2216  -10.9286 H   0  0  0  0  0  0  0  0  0  0  0  0
  1  2  1  0  0  0  0
  1 32  1  0  0  0  0
  1 33  1  0  0  0  0
  1 34  1  0  0  0  0
  2  3  1  0  0  0  0
  3  4  1  0  0  0  0
  3 35  1  0  0  0  0
  3 36  1  0  0  0  0
  4  5  1  0  0  0  0
  4 37  1  0  0  0  0
  4 38  1  0  0  0  0
  5  6  1  0  0  0  0
  6  7  2  0  0  0  0
  6 11  1  0  0  0  0
  7  8  1  0  0  0  0
  7 39  1  0  0  0  0
  8  9  2  0  0  0  0
  8 40  1  0  0  0  0
  9 10  1  0  0  0  0
  9 12  1  0  0  0  0
 10 11  2  0  0  0  0
 10 41  1  0  0  0  0
 11 42  1  0  0  0  0
 12 13  1  0  0  0  0
 12 43  1  0  0  0  0
 13 14  2  0  0  0  0
 13 18  1  0  0  0  0
 14 15  1  0  0  0  0
 15 16  2  0  0  0  0
 15 44  1  0  0  0  0
 16 17  1  0  0  0  0
 16 31  1  0  0  0  0
 17 18  2  0  0  0  0
 17 19  1  0  0  0  0
 19 20  1  0  0  0  0
 19 45  1  0  0  0  0
 20 21  2  0  0  0  0
 20 25  1  0  0  0  0
 21 22  1  0  0  0  0
 21 46  1  0  0  0  0
 22 23  2  0  0  0  0
 22 47  1  0  0  0  0
 23 24  1  0  0  0  0
 23 48  1  0  0  0  0
 24 25  2  0  0  0  0
 24 26  1  0  0  0  0
 25 49  1  0  0  0  0
 26 27  1  0  0  0  0
 26 50  1  0  0  0  0
 27 28  2  0  0  0  0
 27 29  1  0  0  0  0
 29 30  2  0  0  0  0
 29 51  1  0  0  0  0
 30 52  1  0  0  0  0
 30 53  1  0  0  0  0
M  END
>  <DRUGBANK_ID>
DB11764

>  <COMMON_NAME>
Spebrutinib

>  <CAS_NUMBER>
1202757-89-8

>  <UNII>
DRU6NG543J

>  <SYNONYMS>
3-(5-FLUORO-2-(4-(2-METHOXYETHOXY)PHENYLAMINO)PYRIMIDIN-4-YLAMINO)PHENYL)ACRYLAMIDE; BTK inhibitor CC-292; N-(3-(5-fluoro-2-(4-(2-methoxyethoxy)phenylamino)pyrimidin-4-ylamino)phenyl)acrylamide; Spebrutinib

$$$$
