
 OpenBabel10282417193D

 61 65  0  0  0  0  0  0  0  0999 V2000
    0.9183    0.0022   -0.0873 C   0  0  0  0  0  0  0  0  0  0  0  0
   -0.5839   11.1660    2.9126 C   0  0  0  0  0  0  0  0  0  0  0  0
    0.5184    7.9593    5.5781 C   0  0  0  0  0  0  0  0  0  0  0  0
    1.1197    6.7694    5.2153 C   0  0  0  0  0  0  0  0  0  0  0  0
   -0.5010    8.4787    4.7875 C   0  0  0  0  0  0  0  0  0  0  0  0
    0.7005    6.1079    4.0641 C   0  0  0  0  0  0  0  0  0  0  0  0
    3.6667   -2.0877    2.4019 C   0  0  0  0  0  0  0  0  0  0  0  0
    2.9246   -0.9736    2.0313 C   0  0  0  0  0  0  0  0  0  0  0  0
   -3.9483    9.8955    3.2439 C   0  0  0  0  0  0  0  0  0  0  0  0
   -0.2331    3.1548   -0.1692 C   0  0  0  0  0  0  0  0  0  0  0  0
   -1.1629    2.3965    2.0453 C   0  0  0  0  0  0  0  0  0  0  0  0
   -4.0250   11.2873    3.4113 C   0  0  0  0  0  0  0  0  0  0  0  0
    0.3682    4.3912    0.5142 C   0  0  0  0  0  0  0  0  0  0  0  0
   -0.3795    3.5410    2.6865 C   0  0  0  0  0  0  0  0  0  0  0  0
    2.1017   -2.5290    4.1889 C   0  0  0  0  0  0  0  0  0  0  0  0
    3.2555   -2.8505    3.4828 C   0  0  0  0  0  0  0  0  0  0  0  0
   -0.4649    1.9230    0.7673 C   0  0  0  0  0  0  0  0  0  0  0  0
   -0.9494    7.8193    3.6136 C   0  0  0  0  0  0  0  0  0  0  0  0
   -0.3586    6.5827    3.2544 C   0  0  0  0  0  0  0  0  0  0  0  0
    1.7218   -0.6687    2.6798 C   0  0  0  0  0  0  0  0  0  0  0  0
    1.3015   -1.4347    3.7955 C   0  0  0  0  0  0  0  0  0  0  0  0
   -2.6146    9.6212    2.9921 C   0  0  0  0  0  0  0  0  0  0  0  0
   -1.9553    8.3294    2.7820 C   0  0  0  0  0  0  0  0  0  0  0  0
   -0.8255    5.8915    2.1090 C   0  0  0  0  0  0  0  0  0  0  0  0
    1.0651    0.6019    2.3302 C   0  0  0  0  0  0  0  0  0  0  0  0
    0.0628   -1.1617    4.6275 C   0  0  0  0  0  0  0  0  0  0  0  0
    3.9960   -3.8970    3.8650 F   0  0  0  0  0  0  0  0  0  0  0  0
   -0.7298   -2.2765    4.6858 F   0  0  0  0  0  0  0  0  0  0  0  0
    0.3625   -0.8776    5.9282 F   0  0  0  0  0  0  0  0  0  0  0  0
   -0.7755   -0.1836    4.2060 F   0  0  0  0  0  0  0  0  0  0  0  0
   -2.8365   11.8760    3.2835 N   0  0  0  0  0  0  0  0  0  0  0  0
   -2.3932    7.6496    1.7033 N   0  0  0  0  0  0  0  0  0  0  0  0
   -1.8165    6.4340    1.3659 N   0  0  0  0  0  0  0  0  0  0  0  0
    0.6591    0.9386    1.0091 N   0  0  0  0  0  0  0  0  0  0  0  0
   -1.9923   10.8535    3.0205 N   0  0  0  0  0  0  0  0  0  0  0  0
   -0.3580    4.6448    1.7491 N   0  0  0  0  0  0  0  0  0  0  0  0
    0.9429    1.3069    3.3381 O   0  0  0  0  0  0  0  0  0  0  0  0
    0.4782    0.3471   -1.0252 H   0  0  0  0  0  0  0  0  0  0  0  0
    0.5236   -0.9879    0.1656 H   0  0  0  0  0  0  0  0  0  0  0  0
    1.9937   -0.0709   -0.2548 H   0  0  0  0  0  0  0  0  0  0  0  0
   -0.4436   11.9179    2.1337 H   0  0  0  0  0  0  0  0  0  0  0  0
   -0.2533   11.5584    3.8802 H   0  0  0  0  0  0  0  0  0  0  0  0
   -0.0092   10.2753    2.6605 H   0  0  0  0  0  0  0  0  0  0  0  0
    0.8378    8.4860    6.4721 H   0  0  0  0  0  0  0  0  0  0  0  0
    1.9109    6.3406    5.8228 H   0  0  0  0  0  0  0  0  0  0  0  0
   -0.9499    9.4171    5.1066 H   0  0  0  0  0  0  0  0  0  0  0  0
    1.2240    5.1937    3.8016 H   0  0  0  0  0  0  0  0  0  0  0  0
    4.5798   -2.3361    1.8724 H   0  0  0  0  0  0  0  0  0  0  0  0
    3.3193   -0.3142    1.2655 H   0  0  0  0  0  0  0  0  0  0  0  0
   -4.7508    9.1758    3.3219 H   0  0  0  0  0  0  0  0  0  0  0  0
    0.3186    2.9027   -1.0802 H   0  0  0  0  0  0  0  0  0  0  0  0
   -1.2348    3.4749   -0.5026 H   0  0  0  0  0  0  0  0  0  0  0  0
   -2.1714    2.7466    1.7965 H   0  0  0  0  0  0  0  0  0  0  0  0
   -1.3097    1.5615    2.7330 H   0  0  0  0  0  0  0  0  0  0  0  0
   -4.8936   11.8947    3.6341 H   0  0  0  0  0  0  0  0  0  0  0  0
    1.4247    4.1914    0.7358 H   0  0  0  0  0  0  0  0  0  0  0  0
    0.3424    5.2585   -0.1573 H   0  0  0  0  0  0  0  0  0  0  0  0
   -0.8203    3.7819    3.6573 H   0  0  0  0  0  0  0  0  0  0  0  0
    0.6715    3.3023    2.8617 H   0  0  0  0  0  0  0  0  0  0  0  0
    1.8360   -3.1306    5.0575 H   0  0  0  0  0  0  0  0  0  0  0  0
   -1.2011    1.3135    0.2213 H   0  0  0  0  0  0  0  0  0  0  0  0
  1 38  1  0  0  0  0
  1 39  1  0  0  0  0
  1 40  1  0  0  0  0
  2 41  1  0  0  0  0
  2 42  1  0  0  0  0
  2 43  1  0  0  0  0
  3 44  1  0  0  0  0
  4  3  2  0  0  0  0
  4 45  1  0  0  0  0
  5  3  1  0  0  0  0
  5 46  1  0  0  0  0
  6  4  1  0  0  0  0
  6 47  1  0  0  0  0
  7 48  1  0  0  0  0
  8  7  2  0  0  0  0
  8 49  1  0  0  0  0
  9 50  1  0  0  0  0
 10 51  1  0  0  0  0
 10 52  1  0  0  0  0
 11 53  1  0  0  0  0
 11 54  1  0  0  0  0
 12  9  1  0  0  0  0
 12 55  1  0  0  0  0
 13 10  1  0  0  0  0
 13 56  1  0  0  0  0
 13 57  1  0  0  0  0
 14 11  1  0  0  0  0
 14 58  1  0  0  0  0
 14 59  1  0  0  0  0
 15 60  1  0  0  0  0
 16  7  1  0  0  0  0
 16 15  2  0  0  0  0
 17 10  1  0  0  0  0
 17 11  1  0  0  0  0
 17 61  1  0  0  0  0
 18  5  2  0  0  0  0
 19  6  2  0  0  0  0
 19 18  1  0  0  0  0
 20  8  1  0  0  0  0
 21 15  1  0  0  0  0
 21 20  2  0  0  0  0
 22  9  2  0  0  0  0
 23 18  1  0  0  0  0
 23 22  1  0  0  0  0
 24 19  1  0  0  0  0
 25 20  1  0  0  0  0
 26 21  1  0  0  0  0
 27 16  1  0  0  0  0
 28 26  1  0  0  0  0
 29 26  1  0  0  0  0
 30 26  1  0  0  0  0
 31 12  2  0  0  0  0
 32 23  2  0  0  0  0
 33 24  2  0  0  0  0
 33 32  1  0  0  0  0
 34  1  1  0  0  0  0
 34 17  1  0  0  0  0
 34 25  1  0  0  0  0
 35  2  1  0  0  0  0
 35 22  1  0  0  0  0
 35 31  1  0  0  0  0
 36 13  1  0  0  0  0
 36 14  1  0  0  0  0
 36 24  1  0  0  0  0
 37 25  2  0  0  0  0
M  END
>  <DRUGBANK_ID>
DB12550

>  <COMMON_NAME>
Taladegib

>  <CAS_NUMBER>
1258861-20-9

>  <UNII>
QY8BWX1LJ5

>  <SYNONYMS>
Taladegib

$$$$
