
 OpenBabel10282417233D

 55 58  0  0  1  0  0  0  0  0999 V2000
   -4.0044    3.6120   14.1451 C   0  0  0  0  0  0  0  0  0  0  0  0
   -4.9975    2.5782   13.7964 C   0  0  0  0  0  0  0  0  0  0  0  0
   -6.3474    2.7176   14.1416 C   0  0  0  0  0  0  0  0  0  0  0  0
   -7.3012    1.8380   13.6185 C   0  0  0  0  0  0  0  0  0  0  0  0
   -6.9090    0.7821   12.7876 C   0  0  0  0  0  0  0  0  0  0  0  0
   -5.5371    0.6194   12.5211 C   0  0  0  0  0  0  0  0  0  0  0  0
   -4.5895    1.5188   12.9919 C   0  0  0  0  0  0  0  0  0  0  0  0
   -7.9488   -0.1425   12.1695 C   0  0  0  0  0  0  0  0  0  0  0  0
   -8.0897   -0.0687   10.7005 N   0  0  0  0  0  0  0  0  0  0  0  0
   -8.5174    1.2697   10.2821 C   0  0  0  0  0  0  0  0  0  0  0  0
   -8.6913    1.3377    8.7719 C   0  0  0  0  0  0  0  0  0  0  0  0
   -7.4182    0.9237    8.0258 C   0  0  0  0  0  0  0  0  0  0  0  0
   -6.9493   -0.4563    8.5120 C   0  0  0  0  0  0  0  0  0  0  0  0
   -6.8499   -0.4472   10.0185 C   0  0  0  0  0  0  0  0  0  0  0  0
   -7.6439    0.8518    6.5207 C   0  0  0  0  0  0  0  0  0  0  0  0
   -8.1286    2.1040    5.9311 N   0  0  0  0  0  0  0  0  0  0  0  0
   -8.1911    1.9606    4.4700 C   0  0  1  0  0  0  0  0  0  0  0  0
   -9.4496    1.4569    3.7927 C   0  0  1  0  0  0  0  0  0  0  0  0
   -8.9801    2.8721    3.5839 C   0  0  0  0  0  0  0  0  0  0  0  0
   -9.3739    0.3445    2.7690 C   0  0  0  0  0  0  0  0  0  0  0  0
   -9.1159   -0.9684    3.2071 C   0  0  0  0  0  0  0  0  0  0  0  0
   -9.2704   -2.0756    2.3688 C   0  0  0  0  0  0  0  0  0  0  0  0
   -9.6951   -1.8955    1.0587 C   0  0  0  0  0  0  0  0  0  0  0  0
   -9.9512   -0.6083    0.5922 C   0  0  0  0  0  0  0  0  0  0  0  0
   -9.7472    0.5029    1.4244 C   0  0  0  0  0  0  0  0  0  0  0  0
   -3.1519    3.9885   13.3484 O   0  0  0  0  0  0  0  0  0  0  0  0
   -4.1167    4.0947   15.3954 O   0  0  0  0  0  0  0  0  0  0  0  0
   -6.6787    3.5414   14.7651 H   0  0  0  0  0  0  0  0  0  0  0  0
   -8.3549    2.0035   13.8360 H   0  0  0  0  0  0  0  0  0  0  0  0
   -5.1754   -0.1795   11.8803 H   0  0  0  0  0  0  0  0  0  0  0  0
   -3.5486    1.3914   12.7000 H   0  0  0  0  0  0  0  0  0  0  0  0
   -7.7148   -1.1723   12.4663 H   0  0  0  0  0  0  0  0  0  0  0  0
   -8.9341    0.0558   12.6162 H   0  0  0  0  0  0  0  0  0  0  0  0
   -7.7868    2.0308   10.5818 H   0  0  0  0  0  0  0  0  0  0  0  0
   -9.4734    1.5290   10.7528 H   0  0  0  0  0  0  0  0  0  0  0  0
   -8.9613    2.3666    8.5127 H   0  0  0  0  0  0  0  0  0  0  0  0
   -9.5203    0.6884    8.4662 H   0  0  0  0  0  0  0  0  0  0  0  0
   -6.6261    1.6571    8.2442 H   0  0  0  0  0  0  0  0  0  0  0  0
   -7.6171   -1.2577    8.1793 H   0  0  0  0  0  0  0  0  0  0  0  0
   -5.9502   -0.6737    8.1085 H   0  0  0  0  0  0  0  0  0  0  0  0
   -6.4977   -1.4233   10.3722 H   0  0  0  0  0  0  0  0  0  0  0  0
   -6.0807    0.3027   10.2029 H   0  0  0  0  0  0  0  0  0  0  0  0
   -6.6928    0.5702    6.0507 H   0  0  0  0  0  0  0  0  0  0  0  0
   -8.3621    0.0496    6.3153 H   0  0  0  0  0  0  0  0  0  0  0  0
   -9.0211    2.3684    6.3478 H   0  0  0  0  0  0  0  0  0  0  0  0
   -7.2322    1.6670    4.0481 H   0  0  0  0  0  0  0  0  0  0  0  0
  -10.3447    1.3772    4.4083 H   0  0  0  0  0  0  0  0  0  0  0  0
   -9.6137    3.6495    3.9964 H   0  0  0  0  0  0  0  0  0  0  0  0
   -8.4830    3.1676    2.6675 H   0  0  0  0  0  0  0  0  0  0  0  0
   -8.8425   -1.1354    4.2462 H   0  0  0  0  0  0  0  0  0  0  0  0
   -9.1047   -3.0768    2.7575 H   0  0  0  0  0  0  0  0  0  0  0  0
   -9.8384   -2.7549    0.4086 H   0  0  0  0  0  0  0  0  0  0  0  0
  -10.3503   -0.4730   -0.4105 H   0  0  0  0  0  0  0  0  0  0  0  0
   -9.9382    1.4961    1.0248 H   0  0  0  0  0  0  0  0  0  0  0  0
   -4.7649    3.6380   15.9629 H   0  0  0  0  0  0  0  0  0  0  0  0
  1  2  1  0  0  0  0
  1 26  2  0  0  0  0
  1 27  1  0  0  0  0
  2  3  1  0  0  0  0
  2  7  2  0  0  0  0
  3  4  2  0  0  0  0
  3 28  1  0  0  0  0
  4  5  1  0  0  0  0
  4 29  1  0  0  0  0
  5  6  2  0  0  0  0
  5  8  1  0  0  0  0
  6  7  1  0  0  0  0
  6 30  1  0  0  0  0
  7 31  1  0  0  0  0
  8  9  1  0  0  0  0
  8 32  1  0  0  0  0
  8 33  1  0  0  0  0
  9 10  1  0  0  0  0
  9 14  1  0  0  0  0
 10 11  1  0  0  0  0
 10 34  1  0  0  0  0
 10 35  1  0  0  0  0
 11 12  1  0  0  0  0
 11 36  1  0  0  0  0
 11 37  1  0  0  0  0
 12 13  1  0  0  0  0
 12 15  1  0  0  0  0
 12 38  1  0  0  0  0
 13 14  1  0  0  0  0
 13 39  1  0  0  0  0
 13 40  1  0  0  0  0
 14 41  1  0  0  0  0
 14 42  1  0  0  0  0
 15 16  1  0  0  0  0
 15 43  1  0  0  0  0
 15 44  1  0  0  0  0
 16 45  1  0  0  0  0
 17 18  1  0  0  0  0
 17 19  1  0  0  0  0
 17 46  1  6  0  0  0
 17 16  1  0  0  0  0
 18 19  1  0  0  0  0
 18 20  1  0  0  0  0
 18 47  1  1  0  0  0
 19 48  1  0  0  0  0
 19 49  1  0  0  0  0
 20 21  1  0  0  0  0
 20 25  2  0  0  0  0
 21 22  2  0  0  0  0
 21 50  1  0  0  0  0
 22 23  1  0  0  0  0
 22 51  1  0  0  0  0
 23 24  2  0  0  0  0
 23 52  1  0  0  0  0
 24 25  1  0  0  0  0
 24 53  1  0  0  0  0
 25 54  1  0  0  0  0
 27 55  1  0  0  0  0
M  END
>  <DRUGBANK_ID>
DB16895

>  <COMMON_NAME>
GSK-2879552

>  <CAS_NUMBER>
1401966-69-5

>  <UNII>
GT77Z6Y09Z

>  <SYNONYMS>
GSK2879552

$$$$
