60714
 OpenBabel10282417103D

 58 57  0  0  1  0  0  0  0  0999 V2000
    0.9496   -0.0572   -0.0648 Gd  0  1  0  0  0  0  0  0  0  0  0  0
    0.9541    0.0720    0.0520 O   0  0  0  0  0  0  0  0  0  0  0  0
    3.3486    7.5271    2.0852 O   0  5  0  0  0  0  0  0  0  0  0  0
    2.2693    2.8410    0.9967 O   0  5  0  0  0  0  0  0  0  0  0  0
    1.9395    6.7790    0.3850 O   0  0  0  0  0  0  0  0  0  0  0  0
    4.2917    2.4744    2.0976 O   0  0  0  0  0  0  0  0  0  0  0  0
    8.8849    1.9698    3.0560 O   0  5  0  0  0  0  0  0  0  0  0  0
    7.7615    4.0129    3.0569 O   0  0  0  0  0  0  0  0  0  0  0  0
    2.4574    2.3167   -0.8001 N   0  0  0  0  0  0  0  0  0  0  0  0
    4.3555    0.0271    0.4815 N   0  0  0  0  0  0  0  0  0  0  0  0
    4.1930    5.0170   -0.2647 N   0  0  0  0  0  0  0  0  0  0  0  0
    6.0918    2.7273    1.0161 N   0  0  0  0  0  0  0  0  0  0  0  0
    2.9433    3.3960   -1.6719 C   0  0  0  0  0  0  0  0  0  0  0  0
    2.9423    1.0195   -1.2839 C   0  0  0  0  0  0  0  0  0  0  0  0
    4.3534    0.7222   -0.8134 C   0  0  0  0  0  0  0  0  0  0  0  0
    2.9829    4.7665   -1.0382 C   0  0  0  0  0  0  0  0  0  0  0  0
    5.5663    0.2775    1.2542 C   0  0  0  0  0  0  0  0  0  0  0  0
    4.1958    4.3218    1.0295 C   0  0  0  0  0  0  0  0  0  0  0  0
    5.6059    1.6481    1.8880 C   0  0  0  0  0  0  0  0  0  0  0  0
    5.6069    4.0245    1.4999 C   0  0  0  0  0  0  0  0  0  0  0  0
    0.9874    2.3167   -0.8001 C   0  0  0  0  0  0  0  0  0  0  0  0
    0.4807    0.8979   -1.0017 C   0  0  3  0  0  0  0  0  0  0  0  0
    3.1969    0.4842    1.2622 C   0  0  0  0  0  0  0  0  0  0  0  0
    4.3042    6.4625   -0.0216 C   0  0  0  0  0  0  0  0  0  0  0  0
    7.5618    2.7273    1.0161 C   0  0  0  0  0  0  0  0  0  0  0  0
    0.9874    0.3632   -2.3313 C   0  0  0  0  0  0  0  0  0  0  0  0
    3.1252    6.9272    0.8177 C   0  0  0  0  0  0  0  0  0  0  0  0
    3.2938    1.9852    1.4811 C   0  0  0  0  0  0  0  0  0  0  0  0
    8.0685    2.9498    2.4318 C   0  0  0  0  0  0  0  0  0  0  0  0
    1.9541    0.0720    0.0520 H   0  0  0  0  0  0  0  0  0  0  0  0
    3.9569    3.1504   -1.9114 H   0  0  0  0  0  0  0  0  0  0  0  0
    2.3018    3.4451   -2.5268 H   0  0  0  0  0  0  0  0  0  0  0  0
    2.2986    0.2610   -0.8898 H   0  0  0  0  0  0  0  0  0  0  0  0
    2.9299    1.0245   -2.3538 H   0  0  0  0  0  0  0  0  0  0  0  0
    4.8702    1.6517   -0.6957 H   0  0  0  0  0  0  0  0  0  0  0  0
    4.8390    0.1049   -1.5400 H   0  0  0  0  0  0  0  0  0  0  0  0
    2.9657    5.4811   -1.8344 H   0  0  0  0  0  0  0  0  0  0  0  0
    2.1392    4.8626   -0.3870 H   0  0  0  0  0  0  0  0  0  0  0  0
    6.3902    0.2224    0.5737 H   0  0  0  0  0  0  0  0  0  0  0  0
    5.6302   -0.4562    2.0304 H   0  0  0  0  0  0  0  0  0  0  0  0
    3.7289    4.9578    1.7523 H   0  0  0  0  0  0  0  0  0  0  0  0
    3.6615    3.4002    0.9299 H   0  0  0  0  0  0  0  0  0  0  0  0
    6.3046    1.5816    2.6956 H   0  0  0  0  0  0  0  0  0  0  0  0
    4.6133    1.8968    2.2007 H   0  0  0  0  0  0  0  0  0  0  0  0
    6.2506    4.7830    1.1059 H   0  0  0  0  0  0  0  0  0  0  0  0
    5.6193    4.0196    2.5699 H   0  0  0  0  0  0  0  0  0  0  0  0
    0.6307    2.9391   -1.5940 H   0  0  0  0  0  0  0  0  0  0  0  0
    0.6307    2.6932    0.1359 H   0  0  0  0  0  0  0  0  0  0  0  0
   -0.5893    0.8979   -1.0017 H   0  0  0  0  0  0  0  0  0  0  0  0
    2.2966    0.2588    0.7296 H   0  0  0  0  0  0  0  0  0  0  0  0
    3.1855   -0.0143    2.2089 H   0  0  0  0  0  0  0  0  0  0  0  0
    5.2159    6.6674    0.4997 H   0  0  0  0  0  0  0  0  0  0  0  0
    4.3034    6.9825   -0.9567 H   0  0  0  0  0  0  0  0  0  0  0  0
    7.9185    1.7860    0.6535 H   0  0  0  0  0  0  0  0  0  0  0  0
    7.9185    3.5121    0.3822 H   0  0  0  0  0  0  0  0  0  0  0  0
    0.6307   -0.6356   -2.4733 H   0  0  0  0  0  0  0  0  0  0  0  0
    0.6307    0.9855   -3.1253 H   0  0  0  0  0  0  0  0  0  0  0  0
    2.0574    0.3632   -2.3313 H   0  0  0  0  0  0  0  0  0  0  0  0
  2 22  1  0  0  0  0
  2 30  1  0  0  0  0
  3 27  1  0  0  0  0
  4 28  1  0  0  0  0
  5 27  2  0  0  0  0
  6 28  2  0  0  0  0
  7 29  1  0  0  0  0
  8 29  2  0  0  0  0
  9 13  1  0  0  0  0
  9 14  1  0  0  0  0
  9 21  1  0  0  0  0
 10 15  1  0  0  0  0
 10 17  1  0  0  0  0
 10 23  1  0  0  0  0
 11 16  1  0  0  0  0
 11 18  1  0  0  0  0
 11 24  1  0  0  0  0
 12 19  1  0  0  0  0
 12 20  1  0  0  0  0
 12 25  1  0  0  0  0
 13 16  1  0  0  0  0
 13 31  1  0  0  0  0
 13 32  1  0  0  0  0
 14 15  1  0  0  0  0
 14 33  1  0  0  0  0
 14 34  1  0  0  0  0
 15 35  1  0  0  0  0
 15 36  1  0  0  0  0
 16 37  1  0  0  0  0
 16 38  1  0  0  0  0
 17 19  1  0  0  0  0
 17 39  1  0  0  0  0
 17 40  1  0  0  0  0
 18 20  1  0  0  0  0
 18 41  1  0  0  0  0
 18 42  1  0  0  0  0
 19 43  1  0  0  0  0
 19 44  1  0  0  0  0
 20 45  1  0  0  0  0
 20 46  1  0  0  0  0
 21 22  1  0  0  0  0
 21 47  1  0  0  0  0
 21 48  1  0  0  0  0
 22 26  1  0  0  0  0
 22 49  1  0  0  0  0
 23 28  1  0  0  0  0
 23 50  1  0  0  0  0
 23 51  1  0  0  0  0
 24 27  1  0  0  0  0
 24 52  1  0  0  0  0
 24 53  1  0  0  0  0
 25 29  1  0  0  0  0
 25 54  1  0  0  0  0
 25 55  1  0  0  0  0
 26 56  1  0  0  0  0
 26 57  1  0  0  0  0
 26 58  1  0  0  0  0
M  CHG  4   1   3   3  -1   4  -1   7  -1
M  END
>  <DRUGBANK_ID>
DB00597

>  <SECONDARY_ACCESSION_NUMBERS>
APRD00992

>  <COMMON_NAME>
Gadoteridol

>  <CAS_NUMBER>
120066-54-8

>  <UNII>
0199MV609F

>  <SYNONYMS>
gadolinium 2,2',2''-[10-(2-hydroxypropyl)-1,4,7,10-tetraazacyclododecane-1,4,7-triyl]triacetate; gadolinium-HP-DO3A; Gadoteridol; Gadoteridolum; GD-HP-DO 3A; Gd-HPDO3A

$$$$
