
 OpenBabel10282417183D

 69 69  0  0  0  0  0  0  0  0999 V2000
    1.1319   -3.0452   -0.5876 C   0  0  1  0  0  0  0  0  0  0  0  0
    2.1820   -3.1011   -1.5985 C   0  0  1  0  0  0  0  0  0  0  0  0
    3.2156   -1.8436   -1.2712 C   0  0  0  0  0  0  0  0  0  0  0  0
    3.9729   -1.7857    0.0050 O   0  0  0  0  0  0  0  0  0  0  0  0
    2.7576   -4.3487   -1.9216 O   0  0  0  0  0  0  0  0  0  0  0  0
    2.1689   -3.2682    0.3711 O   0  0  0  0  0  0  0  0  0  0  0  0
    2.9423   -4.3635    0.8444 C   0  0  0  0  0  0  0  0  0  0  0  0
    0.3213   -1.4600   -0.9247 C   0  0  1  0  0  0  0  0  0  0  0  0
    0.1755   -1.1607   -2.4609 C   0  0  2  0  0  0  0  0  0  0  0  0
    1.4250   -1.3512   -3.2764 N   0  0  0  0  0  0  0  0  0  0  0  0
    1.5695   -2.4143   -4.1873 C   0  0  0  0  0  0  0  0  0  0  0  0
    3.0066   -2.7361   -4.5621 C   0  0  0  0  0  0  0  0  0  0  0  0
    0.6290   -3.1444   -4.4747 O   0  0  0  0  0  0  0  0  0  0  0  0
   -0.2296    0.3206   -2.6324 C   0  0  1  0  0  0  0  0  0  0  0  0
   -0.6897    0.5593   -4.0023 N   0  0  0  0  0  0  0  0  0  0  0  0
    0.0039    0.2926   -5.1495 C   0  0  0  0  0  0  0  0  0  0  0  0
   -0.5355    0.0131   -6.2791 N   0  0  0  0  0  0  0  0  0  0  0  0
    1.3491    0.3302   -5.1450 N   0  0  0  0  0  0  0  0  0  0  0  0
   -1.2555    0.7560   -1.6282 C   0  0  0  0  0  0  0  0  0  0  0  0
   -1.5855    0.0360   -0.5302 C   0  0  0  0  0  0  0  0  0  0  0  0
   -0.9610   -1.2210   -0.2442 O   0  0  0  0  0  0  0  0  0  0  0  0
   -2.6167    0.5619    0.4610 C   0  0  0  0  0  0  0  0  0  0  0  0
   -3.2514    1.7159    0.1645 O   0  0  0  0  0  0  0  0  0  0  0  0
   -2.8737   -0.0229    1.5190 O   0  0  0  0  0  0  0  0  0  0  0  0
    0.8967   -0.5843   -0.6115 H   0  0  0  0  0  0  0  0  0  0  0  0
    3.5515   -1.5288    1.3158 C   0  0  0  0  0  0  0  0  0  0  0  0
    2.0109   -1.3943    1.6255 C   0  0  0  0  0  0  0  0  0  0  0  0
    4.3688   -1.4791    2.1919 O   0  0  0  0  0  0  0  0  0  0  0  0
    1.0793   -2.6387    2.1498 C   0  0  0  0  0  0  0  0  0  0  0  0
    1.6997   -3.1433    3.4134 C   0  0  0  0  0  0  0  0  0  0  0  0
    1.4761   -1.9898    4.3359 C   0  0  0  0  0  0  0  0  0  0  0  0
   -0.0379   -1.7526    4.4373 C   0  0  0  0  0  0  0  0  0  0  0  0
   -0.7217   -3.0321    4.9213 C   0  0  0  0  0  0  0  0  0  0  0  0
   -0.0859   -3.4199    6.2428 C   0  0  0  0  0  0  0  0  0  0  0  0
    0.3536   -3.8064   -0.5106 H   0  0  0  0  0  0  0  0  0  0  0  0
    1.4518   -3.1246   -2.3546 H   0  0  0  0  0  0  0  0  0  0  0  0
    3.9645   -1.7981   -2.0628 H   0  0  0  0  0  0  0  0  0  0  0  0
    2.7300   -0.8637   -1.2579 H   0  0  0  0  0  0  0  0  0  0  0  0
    3.5263   -4.4850   -1.3711 H   0  0  0  0  0  0  0  0  0  0  0  0
    2.3329   -5.1581    1.2535 H   0  0  0  0  0  0  0  0  0  0  0  0
    3.7818   -4.6786    0.2363 H   0  0  0  0  0  0  0  0  0  0  0  0
    3.5322   -3.9523    1.6714 H   0  0  0  0  0  0  0  0  0  0  0  0
   -0.6150   -1.8255   -2.8157 H   0  0  0  0  0  0  0  0  0  0  0  0
    2.2532   -0.8386   -2.9974 H   0  0  0  0  0  0  0  0  0  0  0  0
    3.2846   -3.7243   -4.1732 H   0  0  0  0  0  0  0  0  0  0  0  0
    3.0858   -2.7552   -5.6434 H   0  0  0  0  0  0  0  0  0  0  0  0
    3.7296   -2.0225   -4.1577 H   0  0  0  0  0  0  0  0  0  0  0  0
    0.6400    0.9722   -2.4532 H   0  0  0  0  0  0  0  0  0  0  0  0
   -1.6834    0.3960   -4.1068 H   0  0  0  0  0  0  0  0  0  0  0  0
   -1.5470    0.0652   -6.2077 H   0  0  0  0  0  0  0  0  0  0  0  0
    1.7172    0.0193   -4.2743 H   0  0  0  0  0  0  0  0  0  0  0  0
    1.6918   -0.2982   -5.8733 H   0  0  0  0  0  0  0  0  0  0  0  0
   -1.6622    1.7405   -1.8269 H   0  0  0  0  0  0  0  0  0  0  0  0
   -3.0718    2.1762   -0.6716 H   0  0  0  0  0  0  0  0  0  0  0  0
    1.7942   -0.4829    2.1855 H   0  0  0  0  0  0  0  0  0  0  0  0
    1.6557   -1.0460    0.7090 H   0  0  0  0  0  0  0  0  0  0  0  0
    0.0216   -2.3639    2.0864 H   0  0  0  0  0  0  0  0  0  0  0  0
    0.8675   -3.5986    1.6456 H   0  0  0  0  0  0  0  0  0  0  0  0
    1.2774   -4.1168    3.7038 H   0  0  0  0  0  0  0  0  0  0  0  0
    2.7632   -3.3566    3.3169 H   0  0  0  0  0  0  0  0  0  0  0  0
    1.9860   -2.1814    5.2726 H   0  0  0  0  0  0  0  0  0  0  0  0
    1.9788   -1.0984    3.9628 H   0  0  0  0  0  0  0  0  0  0  0  0
   -0.2145   -0.8984    5.0833 H   0  0  0  0  0  0  0  0  0  0  0  0
   -0.5089   -1.4371    3.4970 H   0  0  0  0  0  0  0  0  0  0  0  0
   -1.7951   -2.8647    5.0145 H   0  0  0  0  0  0  0  0  0  0  0  0
   -0.6321   -3.8647    4.2066 H   0  0  0  0  0  0  0  0  0  0  0  0
   -0.1557   -2.5688    6.9257 H   0  0  0  0  0  0  0  0  0  0  0  0
   -0.5628   -4.2963    6.6703 H   0  0  0  0  0  0  0  0  0  0  0  0
    0.9764   -3.6712    6.1373 H   0  0  0  0  0  0  0  0  0  0  0  0
  1 35  1  6  0  0  0
  1  6  1  0  0  0  0
  1  2  1  0  0  0  0
  2  3  1  0  0  0  0
  2  5  1  0  0  0  0
  2 36  1  6  0  0  0
  3  4  1  0  0  0  0
  3 37  1  0  0  0  0
  3 38  1  0  0  0  0
  4 26  1  0  0  0  0
  5 39  1  0  0  0  0
  6  7  1  0  0  0  0
  7 40  1  0  0  0  0
  7 41  1  0  0  0  0
  7 42  1  0  0  0  0
  8 21  1  0  0  0  0
  8 25  1  1  0  0  0
  8  1  1  0  0  0  0
  9  8  1  0  0  0  0
  9 10  1  0  0  0  0
  9 43  1  6  0  0  0
 10 11  1  0  0  0  0
 10 44  1  0  0  0  0
 11 12  1  0  0  0  0
 11 13  2  0  0  0  0
 12 45  1  0  0  0  0
 12 46  1  0  0  0  0
 12 47  1  0  0  0  0
 14  9  1  0  0  0  0
 14 19  1  0  0  0  0
 14 48  1  1  0  0  0
 14 15  1  0  0  0  0
 15 16  1  0  0  0  0
 15 49  1  0  0  0  0
 16 17  2  0  0  0  0
 16 18  1  0  0  0  0
 17 50  1  0  0  0  0
 18 51  1  0  0  0  0
 18 52  1  0  0  0  0
 19 53  1  0  0  0  0
 20 19  2  0  0  0  0
 20 22  1  0  0  0  0
 21 20  1  0  0  0  0
 22 23  1  0  0  0  0
 22 24  2  0  0  0  0
 23 54  1  0  0  0  0
 26 27  1  0  0  0  0
 26 28  2  0  0  0  0
 27 29  1  0  0  0  0
 27 55  1  0  0  0  0
 27 56  1  0  0  0  0
 29 30  1  0  0  0  0
 29 57  1  0  0  0  0
 29 58  1  0  0  0  0
 30 31  1  0  0  0  0
 30 59  1  0  0  0  0
 30 60  1  0  0  0  0
 31 32  1  0  0  0  0
 31 61  1  0  0  0  0
 31 62  1  0  0  0  0
 32 33  1  0  0  0  0
 32 63  1  0  0  0  0
 32 64  1  0  0  0  0
 33 34  1  0  0  0  0
 33 65  1  0  0  0  0
 33 66  1  0  0  0  0
 34 67  1  0  0  0  0
 34 68  1  0  0  0  0
 34 69  1  0  0  0  0
M  END
>  <DRUGBANK_ID>
DB11888

>  <COMMON_NAME>
Laninamivir octanoate

>  <CAS_NUMBER>
203120-46-1

>  <UNII>
E026V904RL

$$$$
