BP4
 OpenBabel10282417163D

 28 29  0  0  0  0  0  0  0  0999 V2000
    1.0279    0.0721    0.0209 C   0  0  0  0  0  0  0  0  0  0  0  0
    0.5314    0.2321   -1.3996 C   0  0  0  0  0  0  0  0  0  0  0  0
   -0.1679   -0.5360   -2.0476 O   0  0  0  0  0  0  0  0  0  0  0  0
   -0.2778   -3.7915    1.4635 C   0  0  0  0  0  0  0  0  0  0  0  0
   -1.0320   -2.6473    1.7475 C   0  0  0  0  0  0  0  0  0  0  0  0
   -0.5983   -1.3849    1.3265 C   0  0  0  0  0  0  0  0  0  0  0  0
    0.6043   -1.2481    0.6189 C   0  0  0  0  0  0  0  0  0  0  0  0
    1.3685   -2.3869    0.3482 C   0  0  0  0  0  0  0  0  0  0  0  0
    0.9059   -3.6454    0.7210 C   0  0  0  0  0  0  0  0  0  0  0  0
   -1.1163   -7.6572    3.0834 C   0  0  0  0  0  0  0  0  0  0  0  0
   -1.8298   -5.7600    1.7531 C   0  0  0  0  0  0  0  0  0  0  0  0
   -0.6241   -5.1009    2.0256 C   0  0  0  0  0  0  0  0  0  0  0  0
   -2.0760   -7.0299    2.2877 C   0  0  0  0  0  0  0  0  0  0  0  0
    0.3045   -5.7296    2.8731 C   0  0  0  0  0  0  0  0  0  0  0  0
    0.0833   -7.0126    3.3636 C   0  0  0  0  0  0  0  0  0  0  0  0
    0.9526    1.3808   -1.9664 O   0  0  0  0  0  0  0  0  0  0  0  0
    0.6579    0.9033    0.6306 H   0  0  0  0  0  0  0  0  0  0  0  0
    2.1241    0.1258    0.0112 H   0  0  0  0  0  0  0  0  0  0  0  0
   -1.9543   -2.7350    2.3174 H   0  0  0  0  0  0  0  0  0  0  0  0
   -1.2102   -0.5161    1.5579 H   0  0  0  0  0  0  0  0  0  0  0  0
    2.3203   -2.3038   -0.1709 H   0  0  0  0  0  0  0  0  0  0  0  0
    1.4840   -4.5223    0.4349 H   0  0  0  0  0  0  0  0  0  0  0  0
   -1.3058   -8.6451    3.4937 H   0  0  0  0  0  0  0  0  0  0  0  0
   -2.5815   -5.2959    1.1183 H   0  0  0  0  0  0  0  0  0  0  0  0
   -3.0126   -7.5381    2.0733 H   0  0  0  0  0  0  0  0  0  0  0  0
    1.2135   -5.2016    3.1571 H   0  0  0  0  0  0  0  0  0  0  0  0
    0.8494   -7.4993    3.9597 H   0  0  0  0  0  0  0  0  0  0  0  0
    0.5662    1.3455   -2.8683 H   0  0  0  0  0  0  0  0  0  0  0  0
  1  2  1  0  0  0  0
  1  7  1  0  0  0  0
  1 17  1  0  0  0  0
  1 18  1  0  0  0  0
  2  3  2  0  0  0  0
  2 16  1  0  0  0  0
  4  5  2  0  0  0  0
  4  9  1  0  0  0  0
  4 12  1  0  0  0  0
  5  6  1  0  0  0  0
  5 19  1  0  0  0  0
  6  7  2  0  0  0  0
  6 20  1  0  0  0  0
  7  8  1  0  0  0  0
  8  9  2  0  0  0  0
  8 21  1  0  0  0  0
  9 22  1  0  0  0  0
 10 13  2  0  0  0  0
 10 15  1  0  0  0  0
 10 23  1  0  0  0  0
 11 12  2  0  0  0  0
 11 13  1  0  0  0  0
 11 24  1  0  0  0  0
 12 14  1  0  0  0  0
 13 25  1  0  0  0  0
 14 15  2  0  0  0  0
 14 26  1  0  0  0  0
 15 27  1  0  0  0  0
 16 28  1  0  0  0  0
M  END
>  <DRUGBANK_ID>
DB07477

>  <COMMON_NAME>
Felbinac

>  <CAS_NUMBER>
5728-52-9

>  <UNII>
94WNJ5U8L7

>  <SYNONYMS>
Felbinac

$$$$
