
 OpenBabel10282417123D

 12 12  0  0  0  0  0  0  0  0999 V2000
    1.0474    0.1271    0.0246 N   0  0  0  0  0  0  0  0  0  0  0  0
    0.4189    0.9854    0.8417 C   0  0  0  0  0  0  0  0  0  0  0  0
    0.7553    2.2156    1.0344 N   0  0  0  0  0  0  0  0  0  0  0  0
   -0.1160    2.8327    2.0520 C   0  0  0  0  0  0  0  0  0  0  0  0
   -1.3686    2.0011    2.2869 C   0  0  0  0  0  0  0  0  0  0  0  0
   -0.9226    0.3503    1.7400 S   0  0  0  0  0  0  0  0  0  0  0  0
    0.5385   -0.6280   -0.4127 H   0  0  0  0  0  0  0  0  0  0  0  0
    2.0051    0.3031   -0.2415 H   0  0  0  0  0  0  0  0  0  0  0  0
   -0.4021    3.8427    1.7343 H   0  0  0  0  0  0  0  0  0  0  0  0
    0.4609    2.9428    2.9775 H   0  0  0  0  0  0  0  0  0  0  0  0
   -1.6786    2.0204    3.3359 H   0  0  0  0  0  0  0  0  0  0  0  0
   -2.1989    2.3509    1.6677 H   0  0  0  0  0  0  0  0  0  0  0  0
  1  2  1  0  0  0  0
  1  7  1  0  0  0  0
  1  8  1  0  0  0  0
  2  3  2  0  0  0  0
  2  6  1  0  0  0  0
  3  4  1  0  0  0  0
  4  5  1  0  0  0  0
  4  9  1  0  0  0  0
  4 10  1  0  0  0  0
  5  6  1  0  0  0  0
  5 11  1  0  0  0  0
  5 12  1  0  0  0  0
M  END
>  <DRUGBANK_ID>
DB02335

>  <SECONDARY_ACCESSION_NUMBERS>
EXPT00587

>  <COMMON_NAME>
2-Aminothiazoline

>  <CAS_NUMBER>
1779-81-3

>  <UNII>
5JC2YZG56Q

$$$$
