POT
 OpenBabel10282417173D

 32 32  0  0  0  0  0  0  0  0999 V2000
    0.9538    0.3613   -0.1614 P   0  0  1  0  0  0  0  0  0  0  0  0
    1.1562    1.1672   -1.7343 C   0  0  0  0  0  0  0  0  0  0  0  0
   -0.1441    0.9423    0.6883 O   0  0  0  0  0  0  0  0  0  0  0  0
    0.8819   -1.2485   -0.1314 O   0  0  0  0  0  0  0  0  0  0  0  0
    1.0438   -2.2685   -1.1205 C   0  0  1  0  0  0  0  0  0  0  0  0
   -0.2418   -2.3444   -1.9765 C   0  0  0  0  0  0  0  0  0  0  0  0
   -0.5883   -1.0157   -2.5710 C   0  0  0  0  0  0  0  0  0  0  0  0
    2.4381   -2.1422   -1.7531 C   0  0  0  0  0  0  0  0  0  0  0  0
    3.5377   -2.6707   -0.9373 O   0  0  0  0  0  0  0  0  0  0  0  0
    2.9767   -1.4771    2.5187 C   0  0  0  0  0  0  0  0  0  0  0  0
    4.1682   -0.7893    2.7600 C   0  0  0  0  0  0  0  0  0  0  0  0
    5.1746   -0.8261    1.7989 C   0  0  0  0  0  0  0  0  0  0  0  0
    4.9804   -1.4791    0.5665 C   0  0  0  0  0  0  0  0  0  0  0  0
    3.7592   -2.1216    0.3028 C   0  0  0  0  0  0  0  0  0  0  0  0
    2.8426   -2.2186    1.3441 C   0  0  0  0  0  0  0  0  0  0  0  0
    2.6998    1.0117    0.5689 Cl  0  0  0  0  0  0  0  0  0  0  0  0
    1.0486   -3.2506   -0.6175 H   0  0  0  0  0  0  0  0  0  0  0  0
    0.4553    1.0388   -2.5496 H   0  0  0  0  0  0  0  0  0  0  0  0
    1.0432    2.2298   -1.5090 H   0  0  0  0  0  0  0  0  0  0  0  0
    2.1584    1.0165   -2.1469 H   0  0  0  0  0  0  0  0  0  0  0  0
   -0.1830   -3.0957   -2.7696 H   0  0  0  0  0  0  0  0  0  0  0  0
   -1.0811   -2.6229   -1.3218 H   0  0  0  0  0  0  0  0  0  0  0  0
    0.2689   -0.7279   -3.1832 H   0  0  0  0  0  0  0  0  0  0  0  0
   -1.4793   -0.9635   -3.1916 H   0  0  0  0  0  0  0  0  0  0  0  0
   -0.8018   -0.3268   -1.7510 H   0  0  0  0  0  0  0  0  0  0  0  0
    2.4683   -2.7120   -2.6911 H   0  0  0  0  0  0  0  0  0  0  0  0
    2.6630   -1.1059   -2.0062 H   0  0  0  0  0  0  0  0  0  0  0  0
    2.1298   -1.3631    3.1866 H   0  0  0  0  0  0  0  0  0  0  0  0
    4.2678   -0.1955    3.6633 H   0  0  0  0  0  0  0  0  0  0  0  0
    6.0962   -0.2696    1.9817 H   0  0  0  0  0  0  0  0  0  0  0  0
    5.7610   -1.4471   -0.1816 H   0  0  0  0  0  0  0  0  0  0  0  0
    1.9269   -2.7967    1.2365 H   0  0  0  0  0  0  0  0  0  0  0  0
  1  3  2  1  0  0  0
  1 16  1  0  0  0  0
  1  2  1  0  0  0  0
  1  4  1  0  0  0  0
  2 18  1  0  0  0  0
  2 19  1  0  0  0  0
  2 20  1  0  0  0  0
  5  4  1  0  0  0  0
  5  6  1  0  0  0  0
  5  8  1  0  0  0  0
  5 17  1  1  0  0  0
  6  7  1  0  0  0  0
  6 21  1  0  0  0  0
  6 22  1  0  0  0  0
  7 23  1  0  0  0  0
  7 24  1  0  0  0  0
  7 25  1  0  0  0  0
  8  9  1  0  0  0  0
  8 26  1  0  0  0  0
  8 27  1  0  0  0  0
  9 14  1  0  0  0  0
 10 15  1  0  0  0  0
 10 11  2  0  0  0  0
 10 28  1  0  0  0  0
 11 12  1  0  0  0  0
 11 29  1  0  0  0  0
 12 13  2  0  0  0  0
 12 30  1  0  0  0  0
 13 14  1  0  0  0  0
 13 31  1  0  0  0  0
 14 15  2  0  0  0  0
 15 32  1  0  0  0  0
M  END
>  <DRUGBANK_ID>
DB08419

>  <COMMON_NAME>
(1S)-1-(PHENOXYMETHYL)PROPYL METHYLPHOSPHONOCHLORIDOATE

$$$$
