
 OpenBabel10282417243D

 64 70  0  0  1  0  0  0  0  0999 V2000
    2.2563    0.0203    0.0321 F   0  0  0  0  0  0  0  0  0  0  0  0
    0.9181   -0.0220    0.0236 C   0  0  0  0  0  0  0  0  0  0  0  0
    0.2053    1.1825   -0.0197 C   0  0  0  0  0  0  0  0  0  0  0  0
   -1.1800    1.1443   -0.0604 C   0  0  0  0  0  0  0  0  0  0  0  0
   -1.7873   -0.1474   -0.0283 C   0  0  0  0  0  0  0  0  0  0  0  0
   -1.1017   -1.3321   -0.0001 C   0  0  0  0  0  0  0  0  0  0  0  0
    0.2659   -1.2581    0.0262 C   0  0  0  0  0  0  0  0  0  0  0  0
    0.9582   -2.5228   -0.0291 C   0  0  0  0  0  0  0  0  0  0  0  0
    0.7775   -3.4114   -0.9442 N   0  0  0  0  0  0  0  0  0  0  0  0
    1.6389   -4.4862   -0.5738 O   0  0  0  0  0  0  0  0  0  0  0  0
    2.2341   -4.1011    0.5981 C   0  0  0  0  0  0  0  0  0  0  0  0
    3.0399   -4.7818    1.2392 O   0  0  0  0  0  0  0  0  0  0  0  0
    1.8034   -2.8853    0.9373 N   0  0  0  0  0  0  0  0  0  0  0  0
   -1.9673    2.3052   -0.0553 N   0  0  0  0  0  0  0  0  0  0  0  0
   -1.8108    3.4224   -1.0433 C   0  0  1  0  0  0  0  0  0  0  0  0
   -2.5678    2.8746   -2.2778 C   0  0  0  0  0  0  0  0  0  0  0  0
   -3.5619    1.8322   -1.7237 C   0  0  0  0  0  0  0  0  0  0  0  0
   -3.3672    1.9362   -0.2264 C   0  0  2  0  0  0  0  0  0  0  0  0
   -4.1318    3.0199    0.3873 C   0  0  0  0  0  0  0  0  0  0  0  0
   -3.9923    4.3606   -0.2323 C   0  0  1  0  0  0  0  0  0  0  0  0
   -2.5516    4.6781   -0.5106 C   0  0  0  0  0  0  0  0  0  0  0  0
   -4.8174    4.3631   -1.3468 O   0  0  0  0  0  0  0  0  0  0  0  0
   -6.0868    4.8916   -1.0026 C   0  0  0  0  0  0  0  0  0  0  0  0
   -6.9046    4.3128    0.1370 C   0  0  0  0  0  0  0  0  0  0  0  0
   -8.2589    4.0425   -0.0350 C   0  0  0  0  0  0  0  0  0  0  0  0
   -8.7533    3.5407    1.1271 O   0  0  0  0  0  0  0  0  0  0  0  0
   -7.7959    3.4735    2.1032 N   0  0  0  0  0  0  0  0  0  0  0  0
   -6.6657    3.9979    1.6071 C   0  0  0  0  0  0  0  0  0  0  0  0
   -5.4582    4.0733    2.5659 C   0  0  0  0  0  0  0  0  0  0  0  0
   -4.6926    5.2588    2.7025 C   0  0  0  0  0  0  0  0  0  0  0  0
   -5.2321    6.7883    2.0738 Cl  0  0  0  0  0  0  0  0  0  0  0  0
   -3.3738    5.2498    3.2356 C   0  0  0  0  0  0  0  0  0  0  0  0
   -2.7978    4.0877    3.7435 C   0  0  0  0  0  0  0  0  0  0  0  0
   -3.5479    2.9158    3.7306 C   0  0  0  0  0  0  0  0  0  0  0  0
   -4.8687    2.8991    3.1758 C   0  0  0  0  0  0  0  0  0  0  0  0
   -5.5109    1.2897    2.9595 Cl  0  0  0  0  0  0  0  0  0  0  0  0
   -9.1903    4.3004   -1.2500 C   0  0  0  0  0  0  0  0  0  0  0  0
   -8.9312    3.6335   -2.5899 C   0  0  0  0  0  0  0  0  0  0  0  0
   -8.8105    5.1226   -2.4704 C   0  0  0  0  0  0  0  0  0  0  0  0
    0.7389    2.1269   -0.0148 H   0  0  0  0  0  0  0  0  0  0  0  0
   -2.8552   -0.3280   -0.0790 H   0  0  0  0  0  0  0  0  0  0  0  0
   -1.6622   -2.2625   -0.0215 H   0  0  0  0  0  0  0  0  0  0  0  0
    2.0597   -2.3956    1.7773 H   0  0  0  0  0  0  0  0  0  0  0  0
   -0.7786    3.7195   -1.2369 H   0  0  0  0  0  0  0  0  0  0  0  0
   -3.0826    3.6549   -2.8477 H   0  0  0  0  0  0  0  0  0  0  0  0
   -1.8588    2.3893   -2.9471 H   0  0  0  0  0  0  0  0  0  0  0  0
   -4.6069    1.9934   -2.0016 H   0  0  0  0  0  0  0  0  0  0  0  0
   -3.2864    0.8375   -2.0828 H   0  0  0  0  0  0  0  0  0  0  0  0
   -3.7168    1.1040    0.3893 H   0  0  0  0  0  0  0  0  0  0  0  0
   -3.6505    3.1103    1.3399 H   0  0  0  0  0  0  0  0  0  0  0  0
   -5.1451    2.6221    0.4213 H   0  0  0  0  0  0  0  0  0  0  0  0
   -4.3424    5.1559    0.3937 H   0  0  0  0  0  0  0  0  0  0  0  0
   -2.5240    5.5227   -1.2084 H   0  0  0  0  0  0  0  0  0  0  0  0
   -2.1143    5.0156    0.4396 H   0  0  0  0  0  0  0  0  0  0  0  0
   -6.0110    5.9803   -0.9270 H   0  0  0  0  0  0  0  0  0  0  0  0
   -6.5547    4.6504   -1.9431 H   0  0  0  0  0  0  0  0  0  0  0  0
   -2.7564    6.1481    3.1905 H   0  0  0  0  0  0  0  0  0  0  0  0
   -1.7664    4.0884    4.1013 H   0  0  0  0  0  0  0  0  0  0  0  0
   -3.0415    1.9890    4.0181 H   0  0  0  0  0  0  0  0  0  0  0  0
  -10.2351    4.3108   -0.9544 H   0  0  0  0  0  0  0  0  0  0  0  0
   -8.0685    2.9858   -2.6989 H   0  0  0  0  0  0  0  0  0  0  0  0
   -9.7883    3.2655   -3.1523 H   0  0  0  0  0  0  0  0  0  0  0  0
   -9.5446    5.7346   -2.9817 H   0  0  0  0  0  0  0  0  0  0  0  0
   -7.8669    5.6321   -2.5819 H   0  0  0  0  0  0  0  0  0  0  0  0
  1  2  1  0  0  0  0
  2  3  2  0  0  0  0
  2  7  1  0  0  0  0
  3  4  1  0  0  0  0
  3 40  1  0  0  0  0
  4  5  2  0  0  0  0
  4 14  1  0  0  0  0
  5  6  1  0  0  0  0
  5 41  1  0  0  0  0
  6  7  2  0  0  0  0
  6 42  1  0  0  0  0
  7  8  1  0  0  0  0
  8  9  2  0  0  0  0
  8 13  1  0  0  0  0
  9 10  1  0  0  0  0
 10 11  1  0  0  0  0
 11 12  2  0  0  0  0
 11 13  1  0  0  0  0
 13 43  1  0  0  0  0
 15 14  1  0  0  0  0
 15 16  1  0  0  0  0
 15 21  1  0  0  0  0
 15 44  1  6  0  0  0
 16 17  1  0  0  0  0
 16 45  1  0  0  0  0
 16 46  1  0  0  0  0
 17 47  1  0  0  0  0
 17 48  1  0  0  0  0
 18 17  1  0  0  0  0
 18 14  1  0  0  0  0
 18 19  1  0  0  0  0
 18 49  1  1  0  0  0
 19 50  1  0  0  0  0
 19 51  1  0  0  0  0
 20 19  1  0  0  0  0
 20 21  1  0  0  0  0
 20 52  1  1  0  0  0
 20 22  1  0  0  0  0
 21 53  1  0  0  0  0
 21 54  1  0  0  0  0
 22 23  1  0  0  0  0
 23 24  1  0  0  0  0
 23 55  1  0  0  0  0
 23 56  1  0  0  0  0
 24 25  2  0  0  0  0
 24 28  1  0  0  0  0
 25 26  1  0  0  0  0
 25 37  1  0  0  0  0
 26 27  1  0  0  0  0
 27 28  2  0  0  0  0
 28 29  1  0  0  0  0
 29 30  2  0  0  0  0
 29 35  1  0  0  0  0
 30 31  1  0  0  0  0
 30 32  1  0  0  0  0
 32 33  2  0  0  0  0
 32 57  1  0  0  0  0
 33 34  1  0  0  0  0
 33 58  1  0  0  0  0
 34 35  2  0  0  0  0
 34 59  1  0  0  0  0
 35 36  1  0  0  0  0
 37 38  1  0  0  0  0
 37 39  1  0  0  0  0
 37 60  1  0  0  0  0
 38 39  1  0  0  0  0
 38 61  1  0  0  0  0
 38 62  1  0  0  0  0
 39 63  1  0  0  0  0
 39 64  1  0  0  0  0
M  END
>  <DRUGBANK_ID>
DB18031

>  <COMMON_NAME>
Linafexor

>  <CAS_NUMBER>
2499656-04-9

>  <UNII>
US5Q3KD5RD

>  <SYNONYMS>
1,2,4-OXADIAZOL-5(2H)-ONE, 3-(4-(3-((5-CYCLOPROPYL-3-(2,6-DICHLOROPHENYL)-4-ISOXAZOLYL)METHOXY)-8-AZABICYCLO(3.2.1)OCT-8-YL)-2-FLUOROPHENYL)-; 3-(4-((3-endo)-3-((5-cyclopropyl-3-(2,6-dichlorophenyl)isoxazol-4- yl)methoxy)-8-azabicyclo[3.2.1]octan-8-yl)-2-fluorophenyl)-1,2,4-oxadiazol-5(4H)-one

$$$$
