452
 OpenBabel10282417163D

 39 40  0  0  0  0  0  0  0  0999 V2000
    1.0471    0.0996   -0.0760 C   0  0  0  0  0  0  0  0  0  0  0  0
    0.5860   -1.3126   -0.2363 C   0  0  0  0  0  0  0  0  0  0  0  0
    0.7864   -1.9412   -1.2729 O   0  0  0  0  0  0  0  0  0  0  0  0
   -0.0813   -1.9513    0.9322 C   0  0  0  0  0  0  0  0  0  0  0  0
   -1.2183   -1.3093    1.4674 C   0  0  0  0  0  0  0  0  0  0  0  0
   -1.9864   -1.9590    2.4292 C   0  0  0  0  0  0  0  0  0  0  0  0
   -1.6439   -3.2351    2.8549 C   0  0  0  0  0  0  0  0  0  0  0  0
   -0.5196   -3.8728    2.3190 C   0  0  0  0  0  0  0  0  0  0  0  0
    0.2819   -3.2667    1.3306 C   0  0  0  0  0  0  0  0  0  0  0  0
    1.3498   -3.9407    0.7174 N   0  0  0  0  0  0  0  0  0  0  0  0
    1.5381   -5.3986    0.8068 C   0  0  0  0  0  0  0  0  0  0  0  0
    1.3443   -6.2337   -0.4801 C   0  0  0  0  0  0  0  0  0  0  0  0
    2.3002   -6.8744   -0.9390 O   0  0  0  0  0  0  0  0  0  0  0  0
    0.1014   -6.4699   -1.0262 N   0  0  0  0  0  0  0  0  0  0  0  0
   -1.1409   -5.8860   -0.7235 C   0  0  0  0  0  0  0  0  0  0  0  0
   -1.2159   -4.5093   -0.7533 C   0  0  0  0  0  0  0  0  0  0  0  0
   -2.3648   -3.8131   -0.3834 C   0  0  0  0  0  0  0  0  0  0  0  0
   -3.5204   -4.4881   -0.0779 C   0  0  0  0  0  0  0  0  0  0  0  0
   -3.5379   -5.8600   -0.2871 C   0  0  0  0  0  0  0  0  0  0  0  0
   -2.3472   -6.5790   -0.5673 C   0  0  0  0  0  0  0  0  0  0  0  0
   -2.4585   -8.0514   -0.5957 C   0  0  0  0  0  0  0  0  0  0  0  0
   -1.2857   -8.6822   -0.7584 O   0  0  0  0  0  0  0  0  0  0  0  0
   -3.5024   -8.6798   -0.4537 O   0  0  0  0  0  0  0  0  0  0  0  0
   -2.6513   -4.1008    3.9520 Cl  0  0  0  0  0  0  0  0  0  0  0  0
   -3.1116   -1.3733    2.8644 F   0  0  0  0  0  0  0  0  0  0  0  0
    0.7181    0.5071    0.8806 H   0  0  0  0  0  0  0  0  0  0  0  0
    0.6451    0.7149   -0.8846 H   0  0  0  0  0  0  0  0  0  0  0  0
    2.1389    0.0956   -0.0996 H   0  0  0  0  0  0  0  0  0  0  0  0
   -1.5883   -0.3694    1.0640 H   0  0  0  0  0  0  0  0  0  0  0  0
   -0.3755   -4.9087    2.6022 H   0  0  0  0  0  0  0  0  0  0  0  0
    1.6278   -3.5536   -0.1932 H   0  0  0  0  0  0  0  0  0  0  0  0
    2.5827   -5.5394    1.1134 H   0  0  0  0  0  0  0  0  0  0  0  0
    0.9504   -5.8822    1.5866 H   0  0  0  0  0  0  0  0  0  0  0  0
    0.0796   -7.2917   -1.6241 H   0  0  0  0  0  0  0  0  0  0  0  0
   -0.3388   -3.9568   -1.0576 H   0  0  0  0  0  0  0  0  0  0  0  0
   -2.3433   -2.7340   -0.3181 H   0  0  0  0  0  0  0  0  0  0  0  0
   -4.3914   -3.9349    0.2630 H   0  0  0  0  0  0  0  0  0  0  0  0
   -4.4992   -6.3652   -0.2414 H   0  0  0  0  0  0  0  0  0  0  0  0
   -1.4926   -9.6389   -0.7002 H   0  0  0  0  0  0  0  0  0  0  0  0
  1  2  1  0  0  0  0
  1 26  1  0  0  0  0
  1 27  1  0  0  0  0
  1 28  1  0  0  0  0
  2  4  1  0  0  0  0
  2  3  2  0  0  0  0
  4  5  2  0  0  0  0
  4  9  1  0  0  0  0
  5  6  1  0  0  0  0
  5 29  1  0  0  0  0
  6 25  1  0  0  0  0
  6  7  2  0  0  0  0
  7 24  1  0  0  0  0
  7  8  1  0  0  0  0
  8  9  2  0  0  0  0
  8 30  1  0  0  0  0
  9 10  1  0  0  0  0
 10 11  1  0  0  0  0
 10 31  1  0  0  0  0
 11 12  1  0  0  0  0
 11 32  1  0  0  0  0
 11 33  1  0  0  0  0
 12 13  2  0  0  0  0
 12 14  1  0  0  0  0
 14 15  1  0  0  0  0
 14 34  1  0  0  0  0
 15 16  2  0  0  0  0
 15 20  1  0  0  0  0
 16 17  1  0  0  0  0
 16 35  1  0  0  0  0
 17 18  2  0  0  0  0
 17 36  1  0  0  0  0
 18 19  1  0  0  0  0
 18 37  1  0  0  0  0
 19 20  2  0  0  0  0
 19 38  1  0  0  0  0
 20 21  1  0  0  0  0
 21 23  2  0  0  0  0
 21 22  1  0  0  0  0
 22 39  1  0  0  0  0
M  END
>  <DRUGBANK_ID>
DB07085

>  <COMMON_NAME>
2-{[N-(2-ACETYL-5-CHLORO-4-FLUOROPHENYL)GLYCYL]AMINO}BENZOIC ACID

$$$$
