940
 OpenBabel10282417113D

 51 53  0  0  0  0  0  0  0  0999 V2000
    1.3003    0.7414    0.3132 O   0  0  0  0  0  0  0  0  0  0  0  0
    3.6960   -0.7771    4.3909 O   0  0  0  0  0  0  0  0  0  0  0  0
    3.1675    0.7399   -0.9157 O   0  0  0  0  0  0  0  0  0  0  0  0
    1.1623   -1.9141    1.5933 N   0  3  0  0  0  0  0  0  0  0  0  0
   -0.1468   -1.4280    1.2351 C   0  0  0  0  0  0  0  0  0  0  0  0
    1.3901   -1.0379    2.8313 C   0  0  0  0  0  0  0  0  0  0  0  0
    1.3014   -3.3046    2.0268 C   0  0  0  0  0  0  0  0  0  0  0  0
    1.9723   -1.8598    0.2354 C   0  0  0  0  0  0  0  0  0  0  0  0
   -0.0218    0.1255    0.9321 C   0  0  0  0  0  0  0  0  0  0  0  0
    0.8474   -1.3683    4.2243 C   0  0  0  0  0  0  0  0  0  0  0  0
    1.1012   -4.3636    0.9932 C   0  0  0  0  0  0  0  0  0  0  0  0
    3.8469    0.0928    1.5005 C   0  0  0  0  0  0  0  0  0  0  0  0
    2.7261    0.5712    0.1844 C   0  0  0  0  0  0  0  0  0  0  0  0
    4.3018   -1.5519    2.0647 C   0  0  0  0  0  0  0  0  0  0  0  0
    3.4910    1.0435    2.6661 C   0  0  0  0  0  0  0  0  0  0  0  0
    4.0693   -1.8499    3.4587 C   0  0  0  0  0  0  0  0  0  0  0  0
    3.3225    0.5665    3.9769 C   0  0  0  0  0  0  0  0  0  0  0  0
    4.5316   -2.7688    1.2187 C   0  0  0  0  0  0  0  0  0  0  0  0
    3.0013    2.3583    2.3232 C   0  0  0  0  0  0  0  0  0  0  0  0
    3.7433   -3.2884    3.8457 C   0  0  0  0  0  0  0  0  0  0  0  0
    2.4217    1.3526    4.8051 C   0  0  0  0  0  0  0  0  0  0  0  0
    4.2809   -4.1531    1.6359 C   0  0  0  0  0  0  0  0  0  0  0  0
    2.2684    3.1556    3.2039 C   0  0  0  0  0  0  0  0  0  0  0  0
    3.8513   -4.4249    2.9449 C   0  0  0  0  0  0  0  0  0  0  0  0
    1.9106    2.6228    4.4247 C   0  0  0  0  0  0  0  0  0  0  0  0
   -0.7760   -1.6431    2.1051 H   0  0  0  0  0  0  0  0  0  0  0  0
   -0.4580   -2.0608    0.4074 H   0  0  0  0  0  0  0  0  0  0  0  0
    2.4016   -1.0387    2.8170 H   0  0  0  0  0  0  0  0  0  0  0  0
    1.2128    0.0132    2.6642 H   0  0  0  0  0  0  0  0  0  0  0  0
    2.3271   -3.2633    2.1855 H   0  0  0  0  0  0  0  0  0  0  0  0
    0.8446   -3.5105    2.9891 H   0  0  0  0  0  0  0  0  0  0  0  0
    1.6713   -2.5343   -0.5541 H   0  0  0  0  0  0  0  0  0  0  0  0
    1.5842   -1.0354   -0.2693 H   0  0  0  0  0  0  0  0  0  0  0  0
    3.0316   -1.6660    0.2158 H   0  0  0  0  0  0  0  0  0  0  0  0
   -0.1690    0.7512    1.8139 H   0  0  0  0  0  0  0  0  0  0  0  0
   -0.9015    0.3306    0.3166 H   0  0  0  0  0  0  0  0  0  0  0  0
    1.0134   -2.3791    4.5834 H   0  0  0  0  0  0  0  0  0  0  0  0
    1.3438   -0.7981    5.0146 H   0  0  0  0  0  0  0  0  0  0  0  0
   -0.1880   -1.0497    4.2963 H   0  0  0  0  0  0  0  0  0  0  0  0
    1.6597   -4.1965    0.0712 H   0  0  0  0  0  0  0  0  0  0  0  0
    1.4939   -5.3152    1.3511 H   0  0  0  0  0  0  0  0  0  0  0  0
    0.0428   -4.4151    0.7856 H   0  0  0  0  0  0  0  0  0  0  0  0
    4.7996    0.4337    1.0801 H   0  0  0  0  0  0  0  0  0  0  0  0
    4.6568   -2.7110    0.1287 H   0  0  0  0  0  0  0  0  0  0  0  0
    3.0894    2.7563    1.3071 H   0  0  0  0  0  0  0  0  0  0  0  0
    3.0594   -3.5038    4.6918 H   0  0  0  0  0  0  0  0  0  0  0  0
    1.9518    0.9742    5.7187 H   0  0  0  0  0  0  0  0  0  0  0  0
    4.1108   -4.9323    0.8613 H   0  0  0  0  0  0  0  0  0  0  0  0
    1.9425    4.1573    2.9137 H   0  0  0  0  0  0  0  0  0  0  0  0
    3.2839   -5.3727    3.1171 H   0  0  0  0  0  0  0  0  0  0  0  0
    1.2346    3.1937    5.0715 H   0  0  0  0  0  0  0  0  0  0  0  0
  1  9  1  0  0  0  0
  1 13  1  0  0  0  0
  2 16  1  0  0  0  0
  2 17  1  0  0  0  0
  3 13  2  0  0  0  0
  4  5  1  0  0  0  0
  4  6  1  0  0  0  0
  4  7  1  0  0  0  0
  4  8  1  0  0  0  0
  5  9  1  0  0  0  0
  5 26  1  0  0  0  0
  5 27  1  0  0  0  0
  6 10  1  0  0  0  0
  6 28  1  0  0  0  0
  6 29  1  0  0  0  0
  7 11  1  0  0  0  0
  7 30  1  0  0  0  0
  7 31  1  0  0  0  0
  8 32  1  0  0  0  0
  8 33  1  0  0  0  0
  8 34  1  0  0  0  0
  9 35  1  0  0  0  0
  9 36  1  0  0  0  0
 10 37  1  0  0  0  0
 10 38  1  0  0  0  0
 10 39  1  0  0  0  0
 11 40  1  0  0  0  0
 11 41  1  0  0  0  0
 11 42  1  0  0  0  0
 12 13  1  0  0  0  0
 12 14  1  0  0  0  0
 12 15  1  0  0  0  0
 12 43  1  0  0  0  0
 14 16  1  0  0  0  0
 14 18  2  0  0  0  0
 15 17  1  0  0  0  0
 15 19  2  0  0  0  0
 16 20  2  0  0  0  0
 17 21  2  0  0  0  0
 18 22  1  0  0  0  0
 18 44  1  0  0  0  0
 19 23  1  0  0  0  0
 19 45  1  0  0  0  0
 20 24  1  0  0  0  0
 20 46  1  0  0  0  0
 21 25  1  0  0  0  0
 21 47  1  0  0  0  0
 22 24  2  0  0  0  0
 22 48  1  0  0  0  0
 23 25  2  0  0  0  0
 23 49  1  0  0  0  0
 24 50  1  0  0  0  0
 25 51  1  0  0  0  0
M  CHG  1   4   1
M  END
>  <DRUGBANK_ID>
DB00940

>  <SECONDARY_ACCESSION_NUMBERS>
APRD00751

>  <COMMON_NAME>
Methantheline

>  <CAS_NUMBER>
5818-17-7

>  <UNII>
36EI79TX7I

>  <SYNONYMS>
Methantheline; Methantheline cation; Methantheline ion; Methanthelinium; Methanthelinum

$$$$
