
 OpenBabel10282417133D

 10  9  0  0  0  0  0  0  0  0999 V2000
    0.9507    0.0901   -0.0459 C   0  0  0  0  0  0  0  0  0  0  0  0
    0.4612    0.7446    1.2299 C   0  0  0  0  0  0  0  0  0  0  0  0
    0.9394    2.0913    1.3218 N   0  3  0  0  0  0  0  0  0  0  0  0
    1.3081    3.1408    1.4001 C   0  0  0  0  0  0  0  0  0  0  0  0
    0.5995    0.6399   -0.9250 H   0  0  0  0  0  0  0  0  0  0  0  0
    0.5844   -0.9388   -0.1143 H   0  0  0  0  0  0  0  0  0  0  0  0
    2.0448    0.0689   -0.0775 H   0  0  0  0  0  0  0  0  0  0  0  0
   -0.6333    0.7540    1.2517 H   0  0  0  0  0  0  0  0  0  0  0  0
    0.8139    0.1822    2.1004 H   0  0  0  0  0  0  0  0  0  0  0  0
    1.6618    4.1442    1.4730 H   0  0  0  0  0  0  0  0  0  0  0  0
  1  2  1  0  0  0  0
  1  5  1  0  0  0  0
  1  6  1  0  0  0  0
  1  7  1  0  0  0  0
  2  3  1  0  0  0  0
  2  8  1  0  0  0  0
  2  9  1  0  0  0  0
  3  4  3  0  0  0  0
  4 10  1  0  0  0  0
M  CHG  1   3   1
M  END
>  <DRUGBANK_ID>
DB03399

>  <SECONDARY_ACCESSION_NUMBERS>
EXPT01344

>  <COMMON_NAME>
Ethyl Isocyanide

$$$$
