
 OpenBabel10282417123D

 86 89  0  0  0  0  0  0  0  0999 V2000
    1.3440   -0.2250    0.0360 C   0  0  0  0  0  0  0  0  0  0  0  0
    0.5020   -1.2510   -0.0040 C   0  0  0  0  0  0  0  0  0  0  0  0
   -0.9222   -1.0381   -0.0900 C   0  0  0  0  0  0  0  0  0  0  0  0
   -1.4771    0.1704   -0.4705 C   0  0  0  0  0  0  0  0  0  0  0  0
   -0.5573    1.1515   -0.7877 C   0  0  0  0  0  0  0  0  0  0  0  0
    0.8213    0.9485   -0.5505 C   0  0  0  0  0  0  0  0  0  0  0  0
   -2.9650    0.4438   -0.3639 C   0  0  0  0  0  0  0  0  0  0  0  0
   -3.5585    1.0887    0.8973 C   0  0  1  0  0  0  0  0  0  0  0  0
   -3.0981    2.4816    1.1115 C   0  0  0  0  0  0  0  0  0  0  0  0
   -3.5626    3.5225    0.7223 O   0  0  0  0  0  0  0  0  0  0  0  0
   -1.9567    2.5230    1.7948 N   0  0  0  0  0  0  0  0  0  0  0  0
    0.2774    1.3024    3.1083 C   0  0  0  0  0  0  0  0  0  0  0  0
    1.2575    2.4507    3.4692 C   0  0  0  0  0  0  0  0  0  0  0  0
    1.0792    4.1739    2.7082 C   0  0  0  0  0  0  0  0  0  0  0  0
   -0.5179    4.8563    2.6981 C   0  0  0  0  0  0  0  0  0  0  0  0
   -0.6203    3.5788    3.3353 C   0  0  0  0  0  0  0  0  0  0  0  0
   -0.0395    2.5702    1.7536 C   0  0  0  0  0  0  0  0  0  0  0  0
   -0.9110    1.5102    2.1081 C   0  0  2  0  0  0  0  0  0  0  0  0
    1.5413    2.3376    4.7644 C   0  0  0  0  0  0  0  0  0  0  0  0
    1.5943    1.0869    5.3983 C   0  0  0  0  0  0  0  0  0  0  0  0
    1.1009   -0.0898    4.7901 C   0  0  0  0  0  0  0  0  0  0  0  0
    0.4383    0.0115    3.5910 C   0  0  0  0  0  0  0  0  0  0  0  0
    2.1617    1.0172    6.6464 O   0  0  0  0  0  0  0  0  0  0  0  0
    2.5655    2.2833    7.1732 C   0  0  0  0  0  0  0  0  0  0  0  0
    3.5928    3.0590    6.3016 C   0  0  0  0  0  0  0  0  0  0  0  0
    4.9871    2.4973    6.3984 C   0  0  0  0  0  0  0  0  0  0  0  0
    5.9126    3.3184    5.5031 C   0  0  0  0  0  0  0  0  0  0  0  0
    5.8322    4.8067    5.8423 C   0  0  0  0  0  0  0  0  0  0  0  0
    4.4150    5.3517    5.7087 C   0  0  0  0  0  0  0  0  0  0  0  0
    3.4585    4.5547    6.5784 C   0  0  0  0  0  0  0  0  0  0  0  0
    0.9959   -1.4149    5.4568 C   0  0  0  0  0  0  0  0  0  0  0  0
    0.5996   -2.4058    4.8883 O   0  0  0  0  0  0  0  0  0  0  0  0
    1.3002   -1.4077    6.7876 N   0  0  0  0  0  0  0  0  0  0  0  0
   -4.9791    1.2623    0.8071 N   0  0  0  0  0  0  0  0  0  0  0  0
   -5.8592    0.9441    1.7945 C   0  0  0  0  0  0  0  0  0  0  0  0
   -7.0399    1.2384    1.6663 O   0  0  0  0  0  0  0  0  0  0  0  0
   -5.3259    0.1863    2.9865 C   0  0  0  0  0  0  0  0  0  0  0  0
    3.1355   -0.5411    0.2349 P   0  0  0  0  0  0  0  0  0  0  0  0
    3.3440    1.0858    0.1524 O   0  0  0  0  0  0  0  0  0  0  0  0
    2.8865   -0.6858    1.8470 O   0  0  0  0  0  0  0  0  0  0  0  0
    4.6512   -0.8086    0.4033 O   0  0  0  0  0  0  0  0  0  0  0  0
    1.1562   -2.9588   -0.0690 P   0  0  0  0  0  0  0  0  0  0  0  0
    1.4350   -2.7222    1.5292 O   0  0  0  0  0  0  0  0  0  0  0  0
   -0.3810   -3.5395   -0.0296 O   0  0  0  0  0  0  0  0  0  0  0  0
    1.7097   -4.4038   -0.1241 O   0  0  0  0  0  0  0  0  0  0  0  0
   -1.6156   -1.8156    0.2368 H   0  0  0  0  0  0  0  0  0  0  0  0
   -0.9041    2.1671   -0.9620 H   0  0  0  0  0  0  0  0  0  0  0  0
    1.4722    1.8089   -0.7065 H   0  0  0  0  0  0  0  0  0  0  0  0
   -3.2302    1.0486   -1.2332 H   0  0  0  0  0  0  0  0  0  0  0  0
   -3.4888   -0.5129   -0.4519 H   0  0  0  0  0  0  0  0  0  0  0  0
   -3.2807    0.5414    1.8013 H   0  0  0  0  0  0  0  0  0  0  0  0
   -1.6781    3.4381    1.4083 H   0  0  0  0  0  0  0  0  0  0  0  0
    1.8945    4.8094    3.0280 H   0  0  0  0  0  0  0  0  0  0  0  0
    1.2430    4.1798    1.6145 H   0  0  0  0  0  0  0  0  0  0  0  0
   -0.4280    5.8503    3.1194 H   0  0  0  0  0  0  0  0  0  0  0  0
   -1.6212    4.7710    2.9525 H   0  0  0  0  0  0  0  0  0  0  0  0
   -0.0827    4.1236    4.1933 H   0  0  0  0  0  0  0  0  0  0  0  0
   -0.9148    2.9805    4.2435 H   0  0  0  0  0  0  0  0  0  0  0  0
    1.0158    2.1892    1.5136 H   0  0  0  0  0  0  0  0  0  0  0  0
   -0.1230    3.1198    0.8047 H   0  0  0  0  0  0  0  0  0  0  0  0
   -1.0762    0.5707    1.6372 H   0  0  0  0  0  0  0  0  0  0  0  0
    1.5743    3.2816    5.2740 H   0  0  0  0  0  0  0  0  0  0  0  0
    0.0356   -0.8609    3.0722 H   0  0  0  0  0  0  0  0  0  0  0  0
    1.6528    2.8704    7.3657 H   0  0  0  0  0  0  0  0  0  0  0  0
    2.9999    2.0727    8.1492 H   0  0  0  0  0  0  0  0  0  0  0  0
    3.4662    2.9612    5.2205 H   0  0  0  0  0  0  0  0  0  0  0  0
    5.3076    2.5249    7.4387 H   0  0  0  0  0  0  0  0  0  0  0  0
    4.9804    1.4532    6.0568 H   0  0  0  0  0  0  0  0  0  0  0  0
    6.9338    2.9529    5.6242 H   0  0  0  0  0  0  0  0  0  0  0  0
    5.6402    3.1772    4.4459 H   0  0  0  0  0  0  0  0  0  0  0  0
    6.1695    4.9526    6.8744 H   0  0  0  0  0  0  0  0  0  0  0  0
    6.5012    5.3719    5.1881 H   0  0  0  0  0  0  0  0  0  0  0  0
    4.3768    6.4039    6.0074 H   0  0  0  0  0  0  0  0  0  0  0  0
    4.0948    5.3056    4.6581 H   0  0  0  0  0  0  0  0  0  0  0  0
    2.4353    4.9030    6.3724 H   0  0  0  0  0  0  0  0  0  0  0  0
    3.6491    4.7332    7.6382 H   0  0  0  0  0  0  0  0  0  0  0  0
    1.6327   -0.5541    7.2186 H   0  0  0  0  0  0  0  0  0  0  0  0
    1.2632   -2.2599    7.3169 H   0  0  0  0  0  0  0  0  0  0  0  0
   -5.3160    1.9649    0.1513 H   0  0  0  0  0  0  0  0  0  0  0  0
   -4.7972   -0.7139    2.6566 H   0  0  0  0  0  0  0  0  0  0  0  0
   -4.6505    0.8177    3.5756 H   0  0  0  0  0  0  0  0  0  0  0  0
   -6.1580   -0.1179    3.6213 H   0  0  0  0  0  0  0  0  0  0  0  0
    3.8536    1.3101   -0.6473 H   0  0  0  0  0  0  0  0  0  0  0  0
    2.0099   -1.0315    2.1134 H   0  0  0  0  0  0  0  0  0  0  0  0
    2.3285   -3.0399    1.7864 H   0  0  0  0  0  0  0  0  0  0  0  0
   -0.8974   -3.3161   -0.8290 H   0  0  0  0  0  0  0  0  0  0  0  0
  1  2  1  0  0  0  0
  1  6  2  0  0  0  0
  1 38  1  0  0  0  0
  2  3  2  0  0  0  0
  2 42  1  0  0  0  0
  3  4  1  0  0  0  0
  3 46  1  0  0  0  0
  4  5  2  0  0  0  0
  4  7  1  0  0  0  0
  5  6  1  0  0  0  0
  5 47  1  0  0  0  0
  6 48  1  0  0  0  0
  7 49  1  0  0  0  0
  7 50  1  0  0  0  0
  8  7  1  0  0  0  0
  8  9  1  0  0  0  0
  8 34  1  0  0  0  0
  8 51  1  1  0  0  0
  9 10  2  0  0  0  0
  9 11  1  0  0  0  0
 11 52  1  0  0  0  0
 12 13  1  0  0  0  0
 12 18  1  0  0  0  0
 13 14  1  0  0  0  0
 14 15  1  0  0  0  0
 14 53  1  0  0  0  0
 14 54  1  0  0  0  0
 15 16  1  0  0  0  0
 15 55  1  0  0  0  0
 15 56  1  0  0  0  0
 16 17  1  0  0  0  0
 16 57  1  0  0  0  0
 16 58  1  0  0  0  0
 17 18  1  0  0  0  0
 17 59  1  0  0  0  0
 17 60  1  0  0  0  0
 18 11  1  0  0  0  0
 18 61  1  6  0  0  0
 19 20  1  0  0  0  0
 19 13  2  0  0  0  0
 19 62  1  0  0  0  0
 20 21  2  0  0  0  0
 20 23  1  0  0  0  0
 21 22  1  0  0  0  0
 21 31  1  0  0  0  0
 22 12  2  0  0  0  0
 22 63  1  0  0  0  0
 23 24  1  0  0  0  0
 24 25  1  0  0  0  0
 24 64  1  0  0  0  0
 24 65  1  0  0  0  0
 25 26  1  0  0  0  0
 25 30  1  0  0  0  0
 25 66  1  0  0  0  0
 26 27  1  0  0  0  0
 26 67  1  0  0  0  0
 26 68  1  0  0  0  0
 27 28  1  0  0  0  0
 27 69  1  0  0  0  0
 27 70  1  0  0  0  0
 28 29  1  0  0  0  0
 28 71  1  0  0  0  0
 28 72  1  0  0  0  0
 29 30  1  0  0  0  0
 29 73  1  0  0  0  0
 29 74  1  0  0  0  0
 30 75  1  0  0  0  0
 30 76  1  0  0  0  0
 31 32  2  0  0  0  0
 31 33  1  0  0  0  0
 33 77  1  0  0  0  0
 33 78  1  0  0  0  0
 34 35  1  0  0  0  0
 34 79  1  0  0  0  0
 35 36  2  0  0  0  0
 35 37  1  0  0  0  0
 37 80  1  0  0  0  0
 37 81  1  0  0  0  0
 37 82  1  0  0  0  0
 38 39  1  0  0  0  0
 38 40  1  0  0  0  0
 38 41  2  0  0  0  0
 39 83  1  0  0  0  0
 40 84  1  0  0  0  0
 42 43  1  0  0  0  0
 42 44  1  0  0  0  0
 42 45  2  0  0  0  0
 43 85  1  0  0  0  0
 44 86  1  0  0  0  0
M  END
>  <DRUGBANK_ID>
DB01830

>  <SECONDARY_ACCESSION_NUMBERS>
EXPT00856

>  <COMMON_NAME>
AP-22408

>  <CAS_NUMBER>
268741-43-1

>  <UNII>
3U3L5QR4KV

$$$$
