
 OpenBabel10282417123D

123126  0  0  1  0  0  0  0  0999 V2000
   -0.0802    1.8791    1.9625 C   0  0  0  0  0  0  0  0  0  0  0  0
   -0.3222    0.4244    1.5569 C   0  0  1  0  0  0  0  0  0  0  0  0
    0.4569   -0.6340    2.3438 C   0  0  0  0  0  0  0  0  0  0  0  0
    1.8941   -0.2606    2.4845 C   0  0  0  0  0  0  0  0  0  0  0  0
    2.2269    1.1804    2.8907 C   0  0  2  0  0  0  0  0  0  0  0  0
    1.3933    2.1970    2.0539 C   0  0  0  0  0  0  0  0  0  0  0  0
    2.8115   -1.2103    2.2478 C   0  0  0  0  0  0  0  0  0  0  0  0
    4.2767   -0.9987    2.3387 C   0  0  0  0  0  0  0  0  0  0  0  0
    4.6529    0.3128    3.0243 C   0  0  2  0  0  0  0  0  0  0  0  0
    3.7253    1.4726    2.5728 C   0  0  2  0  0  0  0  0  0  0  0  0
    6.0940    0.6782    2.6759 C   0  0  1  0  0  0  0  0  0  0  0  0
    6.5433    1.9817    3.3543 C   0  0  2  0  0  0  0  0  0  0  0  0
    5.6632    3.1126    2.7778 C   0  0  0  0  0  0  0  0  0  0  0  0
    4.1901    2.8538    3.0774 C   0  0  0  0  0  0  0  0  0  0  0  0
    7.1871   -0.3159    3.0324 C   0  0  0  0  0  0  0  0  0  0  0  0
    8.4752    0.5057    2.9093 C   0  0  0  0  0  0  0  0  0  0  0  0
    8.0582    2.0010    2.9486 C   0  0  2  0  0  0  0  0  0  0  0  0
   -1.7252    0.1240    1.5324 O   0  0  0  0  0  0  0  0  0  0  0  0
    6.3458    1.9284    4.8833 C   0  0  0  0  0  0  0  0  0  0  0  0
    9.0432    2.9229    3.7564 C   0  0  2  0  0  0  0  0  0  0  0  0
    9.1917    2.5683    5.2427 C   0  0  0  0  0  0  0  0  0  0  0  0
    8.5335    4.3620    3.5754 C   0  0  0  0  0  0  0  0  0  0  0  0
    9.1652    5.5696    4.2533 C   0  0  0  0  0  0  0  0  0  0  0  0
   10.3352    6.2128    3.5190 C   0  0  0  0  0  0  0  0  0  0  0  0
   10.0362    6.5579    2.0467 C   0  0  0  0  0  0  0  0  0  0  0  0
    8.8556    7.5244    1.9069 C   0  0  0  0  0  0  0  0  0  0  0  0
   11.2729    7.1486    1.3791 C   0  0  0  0  0  0  0  0  0  0  0  0
    3.8197    1.5180    1.4764 H   0  0  0  0  0  0  0  0  0  0  0  0
    1.9327    1.3608    4.4037 C   0  0  0  0  0  0  0  0  0  0  0  0
    4.5445    0.1531    4.1035 H   0  0  0  0  0  0  0  0  0  0  0  0
    6.1352    0.8159    1.5824 H   0  0  0  0  0  0  0  0  0  0  0  0
   -2.4911    0.0293    2.6316 C   0  0  0  0  0  0  0  0  0  0  0  0
   -1.9128    0.4303    3.9701 C   0  0  0  0  0  0  0  0  0  0  0  0
   -3.6540   -0.3730    2.5213 O   0  0  0  0  0  0  0  0  0  0  0  0
   -2.5633    1.6828    4.5246 C   0  0  0  0  0  0  0  0  0  0  0  0
   -4.0122    1.3919    4.8566 C   0  0  0  0  0  0  0  0  0  0  0  0
   -4.0938    0.1990    5.8178 C   0  0  0  0  0  0  0  0  0  0  0  0
   -3.3779    0.5195    7.1371 C   0  0  0  0  0  0  0  0  0  0  0  0
   -4.0248    1.7339    7.7909 C   0  0  0  0  0  0  0  0  0  0  0  0
   -5.5150    1.4921    7.9609 C   0  0  0  0  0  0  0  0  0  0  0  0
   -5.7327    0.3542    8.9133 C   0  0  0  0  0  0  0  0  0  0  0  0
   -6.3401    0.5059   10.0868 C   0  0  0  0  0  0  0  0  0  0  0  0
   -6.8984    1.8101   10.5074 C   0  0  0  0  0  0  0  0  0  0  0  0
   -8.3474    1.6702   10.7751 C   0  0  0  0  0  0  0  0  0  0  0  0
   -8.8754    1.9674   11.9609 C   0  0  0  0  0  0  0  0  0  0  0  0
   -8.0656    2.5049   13.1042 C   0  0  0  0  0  0  0  0  0  0  0  0
   -8.5300    3.9057   13.4698 C   0  0  0  0  0  0  0  0  0  0  0  0
   -9.9560    3.8893   14.0135 C   0  0  0  0  0  0  0  0  0  0  0  0
  -10.1018    2.9401   15.2064 C   0  0  0  0  0  0  0  0  0  0  0  0
    8.1050    2.3424    1.8987 H   0  0  0  0  0  0  0  0  0  0  0  0
   -9.1938    3.3571   16.3531 C   0  0  0  0  0  0  0  0  0  0  0  0
   -0.5155    2.1563    2.9177 H   0  0  0  0  0  0  0  0  0  0  0  0
   -0.5926    2.5479    1.2611 H   0  0  0  0  0  0  0  0  0  0  0  0
   -0.0017    0.3349    0.5100 H   0  0  0  0  0  0  0  0  0  0  0  0
    0.0857   -0.8287    3.3503 H   0  0  0  0  0  0  0  0  0  0  0  0
    0.3146   -1.6063    1.8543 H   0  0  0  0  0  0  0  0  0  0  0  0
    1.4808    3.2035    2.4819 H   0  0  0  0  0  0  0  0  0  0  0  0
    1.7803    2.2549    1.0297 H   0  0  0  0  0  0  0  0  0  0  0  0
    2.4975   -2.2122    1.9621 H   0  0  0  0  0  0  0  0  0  0  0  0
    4.6750   -1.0253    1.3190 H   0  0  0  0  0  0  0  0  0  0  0  0
    4.7229   -1.8346    2.8893 H   0  0  0  0  0  0  0  0  0  0  0  0
    5.8860    4.0884    3.2091 H   0  0  0  0  0  0  0  0  0  0  0  0
    5.8097    3.2161    1.6961 H   0  0  0  0  0  0  0  0  0  0  0  0
    3.6033    3.6576    2.6219 H   0  0  0  0  0  0  0  0  0  0  0  0
    4.0354    2.9533    4.1564 H   0  0  0  0  0  0  0  0  0  0  0  0
    7.1929   -1.1837    2.3656 H   0  0  0  0  0  0  0  0  0  0  0  0
    7.0722   -0.6870    4.0565 H   0  0  0  0  0  0  0  0  0  0  0  0
    8.9709    0.2817    1.9553 H   0  0  0  0  0  0  0  0  0  0  0  0
    9.1770    0.2301    3.6974 H   0  0  0  0  0  0  0  0  0  0  0  0
    6.4866    2.9243    5.3092 H   0  0  0  0  0  0  0  0  0  0  0  0
    5.3475    1.6406    5.2105 H   0  0  0  0  0  0  0  0  0  0  0  0
    7.0220    1.2115    5.3533 H   0  0  0  0  0  0  0  0  0  0  0  0
   10.0369    2.8079    3.3013 H   0  0  0  0  0  0  0  0  0  0  0  0
    9.2583    1.4897    5.4109 H   0  0  0  0  0  0  0  0  0  0  0  0
   10.0787    3.0303    5.6779 H   0  0  0  0  0  0  0  0  0  0  0  0
    8.3663    2.9493    5.8458 H   0  0  0  0  0  0  0  0  0  0  0  0
    8.3885    4.5444    2.5062 H   0  0  0  0  0  0  0  0  0  0  0  0
    7.5462    4.3705    4.0209 H   0  0  0  0  0  0  0  0  0  0  0  0
    8.3683    6.3252    4.3120 H   0  0  0  0  0  0  0  0  0  0  0  0
    9.4201    5.3621    5.2964 H   0  0  0  0  0  0  0  0  0  0  0  0
   10.5987    7.1368    4.0528 H   0  0  0  0  0  0  0  0  0  0  0  0
   11.2065    5.5526    3.5859 H   0  0  0  0  0  0  0  0  0  0  0  0
    9.8009    5.6387    1.5000 H   0  0  0  0  0  0  0  0  0  0  0  0
    9.0657    8.4748    2.4090 H   0  0  0  0  0  0  0  0  0  0  0  0
    8.6473    7.7325    0.8527 H   0  0  0  0  0  0  0  0  0  0  0  0
    7.9352    7.1144    2.3340 H   0  0  0  0  0  0  0  0  0  0  0  0
   12.1155    6.4531    1.4473 H   0  0  0  0  0  0  0  0  0  0  0  0
   11.0776    7.3359    0.3181 H   0  0  0  0  0  0  0  0  0  0  0  0
   11.5639    8.0932    1.8482 H   0  0  0  0  0  0  0  0  0  0  0  0
    0.8929    1.1678    4.6620 H   0  0  0  0  0  0  0  0  0  0  0  0
    2.5313    0.6827    5.0211 H   0  0  0  0  0  0  0  0  0  0  0  0
    2.1228    2.3834    4.7448 H   0  0  0  0  0  0  0  0  0  0  0  0
   -1.9355   -0.4426    4.6275 H   0  0  0  0  0  0  0  0  0  0  0  0
   -0.8638    0.6468    3.9661 H   0  0  0  0  0  0  0  0  0  0  0  0
   -2.0060    2.0108    5.4132 H   0  0  0  0  0  0  0  0  0  0  0  0
   -2.4944    2.5209    3.8243 H   0  0  0  0  0  0  0  0  0  0  0  0
   -4.4795    2.2945    5.2596 H   0  0  0  0  0  0  0  0  0  0  0  0
   -4.5824    1.1853    3.9494 H   0  0  0  0  0  0  0  0  0  0  0  0
   -5.1413   -0.0742    5.9591 H   0  0  0  0  0  0  0  0  0  0  0  0
   -3.6755   -0.7182    5.3982 H   0  0  0  0  0  0  0  0  0  0  0  0
   -3.4153   -0.3524    7.7966 H   0  0  0  0  0  0  0  0  0  0  0  0
   -2.3089    0.7077    6.9993 H   0  0  0  0  0  0  0  0  0  0  0  0
   -3.5450    1.9589    8.7503 H   0  0  0  0  0  0  0  0  0  0  0  0
   -3.8819    2.6377    7.1868 H   0  0  0  0  0  0  0  0  0  0  0  0
   -5.9393    2.4477    8.2534 H   0  0  0  0  0  0  0  0  0  0  0  0
   -6.0505    1.2728    7.0349 H   0  0  0  0  0  0  0  0  0  0  0  0
   -5.3474   -0.6323    8.6658 H   0  0  0  0  0  0  0  0  0  0  0  0
   -6.4187   -0.3342   10.7745 H   0  0  0  0  0  0  0  0  0  0  0  0
   -6.2680    2.1321   11.3312 H   0  0  0  0  0  0  0  0  0  0  0  0
   -6.8244    2.6326    9.8015 H   0  0  0  0  0  0  0  0  0  0  0  0
   -8.9850    1.3347    9.9578 H   0  0  0  0  0  0  0  0  0  0  0  0
   -9.9478    1.8408   12.0837 H   0  0  0  0  0  0  0  0  0  0  0  0
   -8.1123    1.7901   13.9279 H   0  0  0  0  0  0  0  0  0  0  0  0
   -6.9977    2.5888   12.9147 H   0  0  0  0  0  0  0  0  0  0  0  0
   -7.8364    4.3228   14.2084 H   0  0  0  0  0  0  0  0  0  0  0  0
   -8.4604    4.5736   12.6009 H   0  0  0  0  0  0  0  0  0  0  0  0
  -10.2432    4.9055   14.2992 H   0  0  0  0  0  0  0  0  0  0  0  0
  -10.6535    3.5892   13.2225 H   0  0  0  0  0  0  0  0  0  0  0  0
  -11.1443    2.9281   15.5339 H   0  0  0  0  0  0  0  0  0  0  0  0
   -9.8776    1.9053   14.9213 H   0  0  0  0  0  0  0  0  0  0  0  0
   -9.4432    4.3720   16.6751 H   0  0  0  0  0  0  0  0  0  0  0  0
   -9.3039    2.6755   17.1984 H   0  0  0  0  0  0  0  0  0  0  0  0
   -8.1358    3.3434   16.0699 H   0  0  0  0  0  0  0  0  0  0  0  0
  1  2  1  0  0  0  0
  1 52  1  0  0  0  0
  1 53  1  0  0  0  0
  2  3  1  0  0  0  0
  2 18  1  0  0  0  0
  2 54  1  6  0  0  0
  3  4  1  0  0  0  0
  3 55  1  0  0  0  0
  3 56  1  0  0  0  0
  4  5  1  0  0  0  0
  4  7  2  0  0  0  0
  5  6  1  0  0  0  0
  5 29  1  1  0  0  0
  6  1  1  0  0  0  0
  6 57  1  0  0  0  0
  6 58  1  0  0  0  0
  7  8  1  0  0  0  0
  7 59  1  0  0  0  0
  8  9  1  0  0  0  0
  8 60  1  0  0  0  0
  8 61  1  0  0  0  0
  9 10  1  0  0  0  0
  9 11  1  0  0  0  0
  9 30  1  1  0  0  0
 10  5  1  0  0  0  0
 10 28  1  6  0  0  0
 11 12  1  0  0  0  0
 11 15  1  0  0  0  0
 11 31  1  6  0  0  0
 12 13  1  0  0  0  0
 12 19  1  1  0  0  0
 13 14  1  0  0  0  0
 13 62  1  0  0  0  0
 13 63  1  0  0  0  0
 14 10  1  0  0  0  0
 14 64  1  0  0  0  0
 14 65  1  0  0  0  0
 15 16  1  0  0  0  0
 15 66  1  0  0  0  0
 15 67  1  0  0  0  0
 16 17  1  0  0  0  0
 16 68  1  0  0  0  0
 16 69  1  0  0  0  0
 17 12  1  0  0  0  0
 17 50  1  6  0  0  0
 17 20  1  0  0  0  0
 19 70  1  0  0  0  0
 19 71  1  0  0  0  0
 19 72  1  0  0  0  0
 20 73  1  6  0  0  0
 20 22  1  0  0  0  0
 20 21  1  0  0  0  0
 21 74  1  0  0  0  0
 21 75  1  0  0  0  0
 21 76  1  0  0  0  0
 22 23  1  0  0  0  0
 22 77  1  0  0  0  0
 22 78  1  0  0  0  0
 23 24  1  0  0  0  0
 23 79  1  0  0  0  0
 23 80  1  0  0  0  0
 24 25  1  0  0  0  0
 24 81  1  0  0  0  0
 24 82  1  0  0  0  0
 25 26  1  0  0  0  0
 25 27  1  0  0  0  0
 25 83  1  0  0  0  0
 26 84  1  0  0  0  0
 26 85  1  0  0  0  0
 26 86  1  0  0  0  0
 27 87  1  0  0  0  0
 27 88  1  0  0  0  0
 27 89  1  0  0  0  0
 29 90  1  0  0  0  0
 29 91  1  0  0  0  0
 29 92  1  0  0  0  0
 32 18  1  0  0  0  0
 33 32  1  0  0  0  0
 33 93  1  0  0  0  0
 33 94  1  0  0  0  0
 34 32  2  0  0  0  0
 35 33  1  0  0  0  0
 35 95  1  0  0  0  0
 35 96  1  0  0  0  0
 36 35  1  0  0  0  0
 36 97  1  0  0  0  0
 36 98  1  0  0  0  0
 37 36  1  0  0  0  0
 37 99  1  0  0  0  0
 37100  1  0  0  0  0
 38 37  1  0  0  0  0
 38101  1  0  0  0  0
 38102  1  0  0  0  0
 39 38  1  0  0  0  0
 39103  1  0  0  0  0
 39104  1  0  0  0  0
 40 39  1  0  0  0  0
 40105  1  0  0  0  0
 40106  1  0  0  0  0
 41 40  1  0  0  0  0
 41107  1  0  0  0  0
 42 41  2  0  0  0  0
 42108  1  0  0  0  0
 43 42  1  0  0  0  0
 43109  1  0  0  0  0
 43110  1  0  0  0  0
 44 43  1  0  0  0  0
 44111  1  0  0  0  0
 45 44  2  0  0  0  0
 45112  1  0  0  0  0
 46 45  1  0  0  0  0
 46113  1  0  0  0  0
 46114  1  0  0  0  0
 47 46  1  0  0  0  0
 47115  1  0  0  0  0
 47116  1  0  0  0  0
 48 47  1  0  0  0  0
 48117  1  0  0  0  0
 48118  1  0  0  0  0
 49 48  1  0  0  0  0
 49119  1  0  0  0  0
 49120  1  0  0  0  0
 51 49  1  0  0  0  0
 51121  1  0  0  0  0
 51122  1  0  0  0  0
 51123  1  0  0  0  0
M  END
>  <DRUGBANK_ID>
DB02092

>  <SECONDARY_ACCESSION_NUMBERS>
EXPT00941

>  <COMMON_NAME>
Cholesteryl Linoleate

>  <CAS_NUMBER>
604-33-1

>  <UNII>
75427237HI

>  <SYNONYMS>
(3β)-cholest-5-en-3-ol, (9Z,12Z)-9,12-octadecadienoate; (3β)-cholest-5-en-3-ol, (Z,Z)-9,12-octadecadienoate; (Z,Z)-(3beta)-Cholest-5-en-3-ol 9,12-octadecadienoate; 18:2 Cholesteryl ester; CE(18:2(9Z,12Z)); CE(18:2); cholest-5-en-3β-yl (Z,Z)-octadeca-9,12-dienoate; cholesteryl (9Z,12Z-octadecadienoate)

$$$$
