
 OpenBabel10282417143D

 38 38  0  0  1  0  0  0  0  0999 V2000
   -1.5205   -1.7524    0.0059 C   0  0  0  0  0  0  0  0  0  0  0  0
   -0.9046    5.4571    1.2199 C   0  0  0  0  0  0  0  0  0  0  0  0
    1.9043   -0.4339   -0.3394 C   0  0  0  0  0  0  0  0  0  0  0  0
    0.2299    3.0053   -0.1491 C   0  0  0  0  0  0  0  0  0  0  0  0
    3.0595    1.7868   -0.0414 C   0  0  0  0  0  0  0  0  0  0  0  0
   -0.3861   -0.7677   -0.1116 C   0  0  0  0  0  0  0  0  0  0  0  0
    0.5534    5.0509    1.2061 C   0  0  1  0  0  0  0  0  0  0  0  0
    1.7879    0.9625   -0.3407 C   0  0  0  0  0  0  0  0  0  0  0  0
    0.4598    1.5101   -0.2565 C   0  0  0  0  0  0  0  0  0  0  0  0
   -0.6272    0.6106   -0.1422 C   0  0  0  0  0  0  0  0  0  0  0  0
    1.2547    5.6019    2.4621 C   0  0  0  0  0  0  0  0  0  0  0  0
    0.8650   -1.2954   -0.2014 N   0  0  0  0  0  0  0  0  0  0  0  0
    0.6318    3.5932    1.1051 N   0  0  0  0  0  0  0  0  0  0  0  0
   -1.9364    1.0024   -0.0258 O   0  0  0  0  0  0  0  0  0  0  0  0
    2.2166    6.3697    2.4754 O   0  0  0  0  0  0  0  0  0  0  0  0
    0.7225    5.1854    3.6291 O   0  0  0  0  0  0  0  0  0  0  0  0
    2.7993    3.3457    2.1781 O   0  0  0  0  0  0  0  0  0  0  0  0
    1.5564    0.9805    2.0257 O   0  0  0  0  0  0  0  0  0  0  0  0
    1.8856    2.0631    3.8928 O   0  0  0  0  0  0  0  0  0  0  0  0
    3.7437    1.5233    1.2464 O   0  0  0  0  0  0  0  0  0  0  0  0
    2.7632    1.8082    2.6429 P   0  0  0  0  0  0  0  0  0  0  0  0
    1.0844    5.4918    0.3535 H   0  0  0  0  0  0  0  0  0  0  0  0
   -1.5090   -2.4105   -0.8672 H   0  0  0  0  0  0  0  0  0  0  0  0
   -1.4218   -2.3572    0.9133 H   0  0  0  0  0  0  0  0  0  0  0  0
   -2.5058   -1.2751    0.0386 H   0  0  0  0  0  0  0  0  0  0  0  0
   -1.4207    5.0044    2.0745 H   0  0  0  0  0  0  0  0  0  0  0  0
   -1.0064    6.5410    1.2840 H   0  0  0  0  0  0  0  0  0  0  0  0
   -1.4117    5.1291    0.3093 H   0  0  0  0  0  0  0  0  0  0  0  0
    2.8796   -0.9145   -0.2886 H   0  0  0  0  0  0  0  0  0  0  0  0
    0.7611    3.4772   -0.9790 H   0  0  0  0  0  0  0  0  0  0  0  0
   -0.8201    3.2305   -0.3064 H   0  0  0  0  0  0  0  0  0  0  0  0
    3.7878    1.5763   -0.8309 H   0  0  0  0  0  0  0  0  0  0  0  0
    2.8607    2.8579   -0.1144 H   0  0  0  0  0  0  0  0  0  0  0  0
    0.3396    3.1038    1.9549 H   0  0  0  0  0  0  0  0  0  0  0  0
   -2.0290    1.9598    0.0569 H   0  0  0  0  0  0  0  0  0  0  0  0
    1.2857    5.5710    4.3312 H   0  0  0  0  0  0  0  0  0  0  0  0
    3.3876    3.8985    2.7179 H   0  0  0  0  0  0  0  0  0  0  0  0
    1.7192    0.0192    2.0366 H   0  0  0  0  0  0  0  0  0  0  0  0
  1 23  1  0  0  0  0
  1 24  1  0  0  0  0
  1 25  1  0  0  0  0
  2 26  1  0  0  0  0
  2 27  1  0  0  0  0
  2 28  1  0  0  0  0
  3 29  1  0  0  0  0
  4 30  1  0  0  0  0
  4 31  1  0  0  0  0
  5 32  1  0  0  0  0
  5 33  1  0  0  0  0
  6  1  1  0  0  0  0
  7  2  1  0  0  0  0
  7 22  1  6  0  0  0
  8  3  1  0  0  0  0
  8  5  1  0  0  0  0
  9  4  1  0  0  0  0
  9  8  2  0  0  0  0
 10  6  2  0  0  0  0
 10  9  1  0  0  0  0
 11  7  1  0  0  0  0
 12  3  2  0  0  0  0
 12  6  1  0  0  0  0
 13  4  1  0  0  0  0
 13  7  1  0  0  0  0
 13 34  1  0  0  0  0
 14 10  1  0  0  0  0
 14 35  1  0  0  0  0
 15 11  2  0  0  0  0
 16 11  1  0  0  0  0
 16 36  1  0  0  0  0
 17 37  1  0  0  0  0
 18 38  1  0  0  0  0
 20  5  1  0  0  0  0
 21 17  1  0  0  0  0
 21 18  1  0  0  0  0
 21 19  2  0  0  0  0
 21 20  1  0  0  0  0
M  END
>  <DRUGBANK_ID>
DB04467

>  <SECONDARY_ACCESSION_NUMBERS>
EXPT02532; EXPT02529; EXPT02635

>  <COMMON_NAME>
N-(5'-phosphopyridoxyl)-L-alanine

$$$$
