16P
 OpenBabel10282417163D

 50 49  0  0  0  0  0  0  0  0999 V2000
    0.8487    0.2558   -0.3504 C   0  0  0  0  0  0  0  0  0  0  0  0
    0.3166    0.6363    1.0135 C   0  0  0  0  0  0  0  0  0  0  0  0
    1.0438    1.4257    1.9236 O   0  0  0  0  0  0  0  0  0  0  0  0
    2.4452    1.0245    1.9165 C   0  0  0  0  0  0  0  0  0  0  0  0
    2.9120   -0.5280    1.9518 C   0  0  0  0  0  0  0  0  0  0  0  0
    2.2832   -1.6145    1.2203 O   0  0  0  0  0  0  0  0  0  0  0  0
    0.9063   -1.9718    1.6687 C   0  0  0  0  0  0  0  0  0  0  0  0
    0.3990   -1.2134    3.0305 C   0  0  0  0  0  0  0  0  0  0  0  0
    0.9578   -0.3846    4.1680 O   0  0  0  0  0  0  0  0  0  0  0  0
    2.3710   -0.4184    4.6382 C   0  0  0  0  0  0  0  0  0  0  0  0
    3.2222   -1.8635    4.5762 C   0  0  0  0  0  0  0  0  0  0  0  0
    2.5156   -3.1081    4.1625 O   0  0  0  0  0  0  0  0  0  0  0  0
    1.0659   -3.4264    4.4625 C   0  0  0  0  0  0  0  0  0  0  0  0
   -0.0997   -3.0439    5.5496 C   0  0  0  0  0  0  0  0  0  0  0  0
    0.3819   -2.3397    6.7730 O   0  0  0  0  0  0  0  0  0  0  0  0
    1.8255   -2.2427    6.9058 C   0  0  0  0  0  0  0  0  0  0  0  0
    2.8325   -3.4867    7.1663 C   0  0  0  0  0  0  0  0  0  0  0  0
    2.6747   -4.7783    6.5091 O   0  0  0  0  0  0  0  0  0  0  0  0
    1.3252   -5.1749    6.5534 C   0  0  0  0  0  0  0  0  0  0  0  0
    0.4546   -4.9877    7.7762 C   0  0  0  0  0  0  0  0  0  0  0  0
    0.6246    1.0617   -1.0136 H   0  0  0  0  0  0  0  0  0  0  0  0
    0.4344   -0.7069   -0.6944 H   0  0  0  0  0  0  0  0  0  0  0  0
    1.9322    0.0680   -0.3359 H   0  0  0  0  0  0  0  0  0  0  0  0
   -0.7178    0.3377    1.2806 H   0  0  0  0  0  0  0  0  0  0  0  0
    0.7814   -0.1547    1.4194 H   0  0  0  0  0  0  0  0  0  0  0  0
    2.8375    1.4071    0.9873 H   0  0  0  0  0  0  0  0  0  0  0  0
    2.8843    1.6268    2.7241 H   0  0  0  0  0  0  0  0  0  0  0  0
    3.9790   -0.6330    2.2098 H   0  0  0  0  0  0  0  0  0  0  0  0
    2.5395   -0.9350    2.8596 H   0  0  0  0  0  0  0  0  0  0  0  0
    0.1246   -1.6864    0.9789 H   0  0  0  0  0  0  0  0  0  0  0  0
    0.7233   -3.0437    1.5066 H   0  0  0  0  0  0  0  0  0  0  0  0
   -0.6618   -1.4746    3.2849 H   0  0  0  0  0  0  0  0  0  0  0  0
    1.0522   -1.9513    3.1731 H   0  0  0  0  0  0  0  0  0  0  0  0
    2.9399    0.2977    4.0605 H   0  0  0  0  0  0  0  0  0  0  0  0
    2.5126    0.1897    5.5572 H   0  0  0  0  0  0  0  0  0  0  0  0
    4.2434   -1.8077    4.1420 H   0  0  0  0  0  0  0  0  0  0  0  0
    3.6359   -2.0183    5.5637 H   0  0  0  0  0  0  0  0  0  0  0  0
    0.8012   -2.4666    4.4818 H   0  0  0  0  0  0  0  0  0  0  0  0
    0.6549   -4.0057    3.5942 H   0  0  0  0  0  0  0  0  0  0  0  0
   -1.0671   -2.6290    5.2322 H   0  0  0  0  0  0  0  0  0  0  0  0
   -0.5263   -4.0195    5.7354 H   0  0  0  0  0  0  0  0  0  0  0  0
    1.8963   -2.0082    5.8721 H   0  0  0  0  0  0  0  0  0  0  0  0
    2.2447   -1.2890    7.2675 H   0  0  0  0  0  0  0  0  0  0  0  0
    3.8864   -3.2364    6.9812 H   0  0  0  0  0  0  0  0  0  0  0  0
    2.7380   -3.6993    8.2197 H   0  0  0  0  0  0  0  0  0  0  0  0
    1.1035   -4.2449    6.2490 H   0  0  0  0  0  0  0  0  0  0  0  0
    0.9016   -5.7089    5.6783 H   0  0  0  0  0  0  0  0  0  0  0  0
    0.6808   -4.0520    8.3078 H   0  0  0  0  0  0  0  0  0  0  0  0
   -0.6078   -4.8683    7.5044 H   0  0  0  0  0  0  0  0  0  0  0  0
    0.6249   -5.8244    8.4168 H   0  0  0  0  0  0  0  0  0  0  0  0
  1  2  1  0  0  0  0
  1 21  1  0  0  0  0
  1 22  1  0  0  0  0
  1 23  1  0  0  0  0
  2  3  1  0  0  0  0
  2 24  1  0  0  0  0
  2 25  1  0  0  0  0
  3  4  1  0  0  0  0
  4  5  1  0  0  0  0
  4 26  1  0  0  0  0
  4 27  1  0  0  0  0
  5  6  1  0  0  0  0
  5 28  1  0  0  0  0
  5 29  1  0  0  0  0
  6  7  1  0  0  0  0
  7  8  1  0  0  0  0
  7 30  1  0  0  0  0
  7 31  1  0  0  0  0
  8  9  1  0  0  0  0
  8 32  1  0  0  0  0
  8 33  1  0  0  0  0
  9 10  1  0  0  0  0
 10 11  1  0  0  0  0
 10 34  1  0  0  0  0
 10 35  1  0  0  0  0
 11 12  1  0  0  0  0
 11 36  1  0  0  0  0
 11 37  1  0  0  0  0
 12 13  1  0  0  0  0
 13 14  1  0  0  0  0
 13 38  1  0  0  0  0
 13 39  1  0  0  0  0
 14 15  1  0  0  0  0
 14 40  1  0  0  0  0
 14 41  1  0  0  0  0
 15 16  1  0  0  0  0
 16 17  1  0  0  0  0
 16 42  1  0  0  0  0
 16 43  1  0  0  0  0
 17 18  1  0  0  0  0
 17 44  1  0  0  0  0
 17 45  1  0  0  0  0
 18 19  1  0  0  0  0
 19 20  1  0  0  0  0
 19 46  1  0  0  0  0
 19 47  1  0  0  0  0
 20 48  1  0  0  0  0
 20 49  1  0  0  0  0
 20 50  1  0  0  0  0
M  END
>  <DRUGBANK_ID>
DB06867

>  <COMMON_NAME>
3,6,9,12,15,18-HEXAOXAICOSANE

>  <UNII>
72DU7F2YXZ

$$$$
