
 OpenBabel10282417133D

 22 21  0  0  1  0  0  0  0  0999 V2000
    1.0778    1.4547   -2.1953 C   0  0  0  0  0  0  0  0  0  0  0  0
    0.6067    1.3404   -0.7536 C   0  0  2  0  0  0  0  0  0  0  0  0
    1.1906    0.1637   -0.2090 O   0  0  0  0  0  0  0  0  0  0  0  0
   -0.9324    1.3341   -0.6616 C   0  0  0  0  0  0  0  0  0  0  0  0
   -1.5021    1.2831    0.7728 C   0  0  0  0  0  0  0  0  0  0  0  0
   -1.0076    2.4663    1.6099 C   0  0  0  0  0  0  0  0  0  0  0  0
   -3.0341    1.2857    0.7373 C   0  0  0  0  0  0  0  0  0  0  0  0
   -1.1143    0.0523    1.3787 O   0  0  0  0  0  0  0  0  0  0  0  0
    0.4936    0.8029   -2.8529 H   0  0  0  0  0  0  0  0  0  0  0  0
    2.1247    1.1449   -2.2825 H   0  0  0  0  0  0  0  0  0  0  0  0
    0.9817    2.4836   -2.5528 H   0  0  0  0  0  0  0  0  0  0  0  0
    1.0205    2.1873   -0.1990 H   0  0  0  0  0  0  0  0  0  0  0  0
    0.7685   -0.6036   -0.6325 H   0  0  0  0  0  0  0  0  0  0  0  0
   -1.3203    2.2272   -1.1700 H   0  0  0  0  0  0  0  0  0  0  0  0
   -1.3075    0.4593   -1.2102 H   0  0  0  0  0  0  0  0  0  0  0  0
   -1.3102    3.4186    1.1604 H   0  0  0  0  0  0  0  0  0  0  0  0
   -1.4033    2.4228    2.6299 H   0  0  0  0  0  0  0  0  0  0  0  0
    0.0815    2.4636    1.7148 H   0  0  0  0  0  0  0  0  0  0  0  0
   -3.4137    0.4171    0.1870 H   0  0  0  0  0  0  0  0  0  0  0  0
   -3.4431    1.2074    1.7521 H   0  0  0  0  0  0  0  0  0  0  0  0
   -3.4301    2.1945    0.2743 H   0  0  0  0  0  0  0  0  0  0  0  0
   -1.3425    0.0891    2.3264 H   0  0  0  0  0  0  0  0  0  0  0  0
  1  9  1  0  0  0  0
  1 10  1  0  0  0  0
  1 11  1  0  0  0  0
  2  4  1  0  0  0  0
  2 12  1  1  0  0  0
  2  3  1  0  0  0  0
  2  1  1  0  0  0  0
  3 13  1  0  0  0  0
  4  5  1  0  0  0  0
  4 14  1  0  0  0  0
  4 15  1  0  0  0  0
  5  6  1  0  0  0  0
  5  7  1  0  0  0  0
  5  8  1  0  0  0  0
  6 16  1  0  0  0  0
  6 17  1  0  0  0  0
  6 18  1  0  0  0  0
  7 19  1  0  0  0  0
  7 20  1  0  0  0  0
  7 21  1  0  0  0  0
  8 22  1  0  0  0  0
M  END
>  <DRUGBANK_ID>
DB03564

>  <SECONDARY_ACCESSION_NUMBERS>
EXPT02231

>  <COMMON_NAME>
(4r)-2-Methylpentane-2,4-Diol

$$$$
