
 OpenBabel10282417123D

  8  7  0  0  0  0  0  0  0  0999 V2000
    0.8893   -0.0765    0.0495 O   0  0  0  0  0  0  0  0  0  0  0  0
    0.3204   -0.7298   -0.9842 C   0  0  0  0  0  0  0  0  0  0  0  0
    1.0168   -1.2329   -1.8536 O   0  0  0  0  0  0  0  0  0  0  0  0
   -1.1783   -0.6955   -0.9784 C   0  0  0  0  0  0  0  0  0  0  0  0
   -1.8292   -1.6020    0.6072 Br  0  0  0  0  0  0  0  0  0  0  0  0
    1.8558   -0.1742   -0.0841 H   0  0  0  0  0  0  0  0  0  0  0  0
   -1.5478    0.3317   -0.9844 H   0  0  0  0  0  0  0  0  0  0  0  0
   -1.5712   -1.2404   -1.8397 H   0  0  0  0  0  0  0  0  0  0  0  0
  1  2  1  0  0  0  0
  1  6  1  0  0  0  0
  2  3  2  0  0  0  0
  2  4  1  0  0  0  0
  4  5  1  0  0  0  0
  4  7  1  0  0  0  0
  4  8  1  0  0  0  0
M  END
>  <DRUGBANK_ID>
DB02198

>  <SECONDARY_ACCESSION_NUMBERS>
EXPT00753

>  <COMMON_NAME>
2-Bromoacetyl Group

>  <CAS_NUMBER>
79-08-3

>  <UNII>
2B3HS32431

$$$$
