
 OpenBabel10282417213D

 53 57  0  0  0  0  0  0  0  0999 V2000
   -2.3224   -1.4910   -7.6282 C   0  0  0  0  0  0  0  0  0  0  0  0
   -1.6919   -0.4700   -6.8159 N   0  0  0  0  0  0  0  0  0  0  0  0
   -0.6178    0.1642   -7.6058 C   0  0  0  0  0  0  0  0  0  0  0  0
    0.1270    1.1862   -6.8569 C   0  0  0  0  0  0  0  0  0  0  0  0
    1.4285    1.3241   -6.7112 N   0  0  0  0  0  0  0  0  0  0  0  0
    1.6486    2.5257   -6.1007 N   0  0  0  0  0  0  0  0  0  0  0  0
    0.4882    3.1480   -5.9577 C   0  0  0  0  0  0  0  0  0  0  0  0
    0.3657    4.5002   -5.2891 C   0  0  1  0  0  0  0  0  0  0  0  0
    1.4678    5.4593   -5.7694 C   0  0  0  0  0  0  0  0  0  0  0  0
    1.1191    6.2053   -7.0510 C   0  0  0  0  0  0  0  0  0  0  0  0
   -0.2067    7.0086   -6.9954 C   0  0  1  0  0  0  0  0  0  0  0  0
   -1.3168    6.0974   -6.5878 C   0  0  0  0  0  0  0  0  0  0  0  0
   -1.0161    5.1583   -5.3638 C   0  0  0  0  0  0  0  0  0  0  0  0
   -0.3778    8.2579   -6.3100 O   0  0  0  0  0  0  0  0  0  0  0  0
   -0.4542    8.1502   -4.9476 C   0  0  0  0  0  0  0  0  0  0  0  0
    0.7311    7.9812   -4.3575 N   0  0  0  0  0  0  0  0  0  0  0  0
    0.7434    7.5786   -3.0723 C   0  0  0  0  0  0  0  0  0  0  0  0
   -0.3906    7.4162   -2.3053 C   0  0  0  0  0  0  0  0  0  0  0  0
   -1.6150    7.7268   -2.8903 C   0  0  0  0  0  0  0  0  0  0  0  0
   -1.6591    8.1071   -4.2421 C   0  0  0  0  0  0  0  0  0  0  0  0
   -0.5246    2.3058   -6.4155 N   0  0  0  0  0  0  0  0  0  0  0  0
   -1.9009    2.5487   -6.7208 C   0  0  0  0  0  0  0  0  0  0  0  0
   -2.1606    3.6967   -7.4257 C   0  0  0  0  0  0  0  0  0  0  0  0
   -3.4444    4.2662   -7.4991 C   0  0  0  0  0  0  0  0  0  0  0  0
   -4.5238    3.5071   -7.2047 C   0  0  0  0  0  0  0  0  0  0  0  0
   -6.1042    4.1557   -7.3821 Cl  0  0  0  0  0  0  0  0  0  0  0  0
   -4.2906    2.1756   -6.8444 C   0  0  0  0  0  0  0  0  0  0  0  0
   -2.9545    1.7110   -6.6062 C   0  0  0  0  0  0  0  0  0  0  0  0
   -2.7019    0.3294   -6.1104 C   0  0  0  0  0  0  0  0  0  0  0  0
   -3.3119   -1.7595   -7.2512 H   0  0  0  0  0  0  0  0  0  0  0  0
   -1.7068   -2.3898   -7.5759 H   0  0  0  0  0  0  0  0  0  0  0  0
   -2.4392   -1.1675   -8.6668 H   0  0  0  0  0  0  0  0  0  0  0  0
    0.1021   -0.5929   -7.9429 H   0  0  0  0  0  0  0  0  0  0  0  0
   -1.0059    0.6282   -8.5292 H   0  0  0  0  0  0  0  0  0  0  0  0
    0.5706    4.3052   -4.2197 H   0  0  0  0  0  0  0  0  0  0  0  0
    1.6548    6.1886   -5.0005 H   0  0  0  0  0  0  0  0  0  0  0  0
    2.4414    4.9646   -5.8524 H   0  0  0  0  0  0  0  0  0  0  0  0
    1.9322    6.8708   -7.3422 H   0  0  0  0  0  0  0  0  0  0  0  0
    1.0574    5.4287   -7.8381 H   0  0  0  0  0  0  0  0  0  0  0  0
   -0.3858    7.2610   -8.0596 H   0  0  0  0  0  0  0  0  0  0  0  0
   -2.2780    6.5961   -6.4421 H   0  0  0  0  0  0  0  0  0  0  0  0
   -1.4493    5.6944   -7.5801 H   0  0  0  0  0  0  0  0  0  0  0  0
   -1.7989    4.4270   -5.1351 H   0  0  0  0  0  0  0  0  0  0  0  0
   -1.1163    5.7532   -4.4676 H   0  0  0  0  0  0  0  0  0  0  0  0
    1.7315    7.3323   -2.6986 H   0  0  0  0  0  0  0  0  0  0  0  0
   -0.3101    7.0543   -1.2867 H   0  0  0  0  0  0  0  0  0  0  0  0
   -2.5258    7.6165   -2.3069 H   0  0  0  0  0  0  0  0  0  0  0  0
   -2.6191    8.2517   -4.7283 H   0  0  0  0  0  0  0  0  0  0  0  0
   -1.2448    4.0983   -7.8008 H   0  0  0  0  0  0  0  0  0  0  0  0
   -3.5779    5.3178   -7.7783 H   0  0  0  0  0  0  0  0  0  0  0  0
   -5.1439    1.5272   -6.7336 H   0  0  0  0  0  0  0  0  0  0  0  0
   -2.4238    0.4314   -5.0566 H   0  0  0  0  0  0  0  0  0  0  0  0
   -3.6757   -0.1659   -6.1129 H   0  0  0  0  0  0  0  0  0  0  0  0
  1  2  1  0  0  0  0
  1 30  1  0  0  0  0
  1 31  1  0  0  0  0
  1 32  1  0  0  0  0
  2  3  1  0  0  0  0
  2 29  1  0  0  0  0
  3  4  1  0  0  0  0
  3 33  1  0  0  0  0
  3 34  1  0  0  0  0
  4  5  2  0  0  0  0
  4 21  1  0  0  0  0
  5  6  1  0  0  0  0
  6  7  2  0  0  0  0
  7 21  1  0  0  0  0
  8  9  1  0  0  0  0
  8 13  1  0  0  0  0
  8 35  1  1  0  0  0
  8  7  1  0  0  0  0
  9 10  1  0  0  0  0
  9 36  1  0  0  0  0
  9 37  1  0  0  0  0
 10 38  1  0  0  0  0
 10 39  1  0  0  0  0
 11 10  1  0  0  0  0
 11 12  1  0  0  0  0
 11 14  1  0  0  0  0
 11 40  1  6  0  0  0
 12 13  1  0  0  0  0
 12 41  1  0  0  0  0
 12 42  1  0  0  0  0
 13 43  1  0  0  0  0
 13 44  1  0  0  0  0
 14 15  1  0  0  0  0
 15 16  2  0  0  0  0
 15 20  1  0  0  0  0
 16 17  1  0  0  0  0
 17 18  2  0  0  0  0
 17 45  1  0  0  0  0
 18 19  1  0  0  0  0
 18 46  1  0  0  0  0
 19 20  2  0  0  0  0
 19 47  1  0  0  0  0
 20 48  1  0  0  0  0
 21 22  1  0  0  0  0
 22 23  2  0  0  0  0
 22 28  1  0  0  0  0
 23 24  1  0  0  0  0
 23 49  1  0  0  0  0
 24 25  2  0  0  0  0
 24 50  1  0  0  0  0
 25 26  1  0  0  0  0
 25 27  1  0  0  0  0
 27 28  2  0  0  0  0
 27 51  1  0  0  0  0
 28 29  1  0  0  0  0
 29 52  1  0  0  0  0
 29 53  1  0  0  0  0
M  END
>  <DRUGBANK_ID>
DB14823

>  <COMMON_NAME>
Balovaptan

>  <CAS_NUMBER>
1228088-30-9

>  <UNII>
RAX5D5AGV6

>  <SYNONYMS>
Balovaptan

$$$$
