
 OpenBabel10282417243D

 44 48  0  0  1  0  0  0  0  0999 V2000
    1.1254   -0.1866    0.0394 H   0  0  0  0  0  0  0  0  0  0  0  0
    2.1942    0.0240    0.0335 C   0  0  1  0  0  0  0  0  0  0  0  0
    2.6859   -0.3414   -1.3717 C   0  0  0  0  0  0  0  0  0  0  0  0
    2.8860   -1.8149   -1.2356 C   0  0  0  0  0  0  0  0  0  0  0  0
    2.9220   -2.1902    0.0497 C   0  0  0  0  0  0  0  0  0  0  0  0
    2.7843   -1.0216    0.9919 C   0  0  1  0  0  0  0  0  0  0  0  0
    2.0601   -1.2340    1.7891 H   0  0  0  0  0  0  0  0  0  0  0  0
    4.0932   -0.6134    1.6130 C   0  0  0  0  0  0  0  0  0  0  0  0
    4.8224   -1.5358    2.3857 C   0  0  0  0  0  0  0  0  0  0  0  0
    6.0704   -1.1959    2.9192 C   0  0  0  0  0  0  0  0  0  0  0  0
    6.5726    0.0847    2.6833 C   0  0  0  0  0  0  0  0  0  0  0  0
    5.8386    1.0079    1.9383 C   0  0  0  0  0  0  0  0  0  0  0  0
    4.5995    0.6725    1.3956 C   0  0  0  0  0  0  0  0  0  0  0  0
    3.8849    1.6322    0.7046 N   0  0  0  0  0  0  0  0  0  0  0  0
    2.4540    1.4717    0.4600 C   0  0  1  0  0  0  0  0  0  0  0  0
    1.8672    2.5129   -0.5077 C   0  0  0  0  0  0  0  0  0  0  0  0
    2.6803    3.5135   -1.0993 C   0  0  0  0  0  0  0  0  0  0  0  0
    2.1033    4.4620   -1.9202 C   0  0  0  0  0  0  0  0  0  0  0  0
    2.7491    5.4995   -2.5176 O   0  0  0  0  0  0  0  0  0  0  0  0
    1.6764    6.0640   -3.3022 C   0  0  0  0  0  0  0  0  0  0  0  0
    0.3940    5.4698   -3.0226 O   0  0  0  0  0  0  0  0  0  0  0  0
    0.7666    4.4499   -2.2088 C   0  0  0  0  0  0  0  0  0  0  0  0
   -0.0707    3.5010   -1.6864 C   0  0  0  0  0  0  0  0  0  0  0  0
    0.4704    2.5484   -0.8135 C   0  0  0  0  0  0  0  0  0  0  0  0
   -0.8548    1.4128   -0.0418 Br  0  0  0  0  0  0  0  0  0  0  0  0
    6.8102   -2.2219    3.7116 C   0  0  0  0  0  0  0  0  0  0  0  0
    8.1559   -1.9035    4.3110 C   0  0  0  0  0  0  0  0  0  0  0  0
    6.3107   -3.3389    3.8763 O   0  0  0  0  0  0  0  0  0  0  0  0
    3.6161    0.1595   -1.6563 H   0  0  0  0  0  0  0  0  0  0  0  0
    1.9171   -0.1125   -2.1170 H   0  0  0  0  0  0  0  0  0  0  0  0
    3.0035   -2.4813   -2.0774 H   0  0  0  0  0  0  0  0  0  0  0  0
    3.0594   -3.2082    0.3864 H   0  0  0  0  0  0  0  0  0  0  0  0
    4.4150   -2.5333    2.5510 H   0  0  0  0  0  0  0  0  0  0  0  0
    7.5292    0.4193    3.0612 H   0  0  0  0  0  0  0  0  0  0  0  0
    6.2462    2.0050    1.7937 H   0  0  0  0  0  0  0  0  0  0  0  0
    4.3967    2.4354    0.3792 H   0  0  0  0  0  0  0  0  0  0  0  0
    1.9593    1.6578    1.4238 H   0  0  0  0  0  0  0  0  0  0  0  0
    3.7480    3.5959   -0.9399 H   0  0  0  0  0  0  0  0  0  0  0  0
    1.9030    5.9021   -4.3619 H   0  0  0  0  0  0  0  0  0  0  0  0
    1.6165    7.1410   -3.1106 H   0  0  0  0  0  0  0  0  0  0  0  0
   -1.1274    3.5154   -1.9279 H   0  0  0  0  0  0  0  0  0  0  0  0
    8.0924   -2.0137    5.3965 H   0  0  0  0  0  0  0  0  0  0  0  0
    8.8969   -2.5954    3.9026 H   0  0  0  0  0  0  0  0  0  0  0  0
    8.5097   -0.8958    4.1094 H   0  0  0  0  0  0  0  0  0  0  0  0
  2  1  1  1  0  0  0
  2  3  1  0  0  0  0
  2  6  1  0  0  0  0
  2 15  1  0  0  0  0
  3  4  1  0  0  0  0
  3 29  1  0  0  0  0
  3 30  1  0  0  0  0
  4  5  2  0  0  0  0
  4 31  1  0  0  0  0
  5 32  1  0  0  0  0
  6  5  1  0  0  0  0
  6  7  1  1  0  0  0
  6  8  1  0  0  0  0
  8  9  2  0  0  0  0
  8 13  1  0  0  0  0
  9 10  1  0  0  0  0
  9 33  1  0  0  0  0
 10 11  2  0  0  0  0
 10 26  1  0  0  0  0
 11 12  1  0  0  0  0
 11 34  1  0  0  0  0
 12 13  2  0  0  0  0
 12 35  1  0  0  0  0
 13 14  1  0  0  0  0
 14 36  1  0  0  0  0
 15 14  1  0  0  0  0
 15 16  1  0  0  0  0
 15 37  1  1  0  0  0
 16 17  2  0  0  0  0
 16 24  1  0  0  0  0
 17 18  1  0  0  0  0
 17 38  1  0  0  0  0
 18 19  1  0  0  0  0
 18 22  2  0  0  0  0
 19 20  1  0  0  0  0
 20 21  1  0  0  0  0
 20 39  1  0  0  0  0
 20 40  1  0  0  0  0
 21 22  1  0  0  0  0
 22 23  1  0  0  0  0
 23 24  2  0  0  0  0
 23 41  1  0  0  0  0
 24 25  1  0  0  0  0
 26 27  1  0  0  0  0
 26 28  2  0  0  0  0
 27 42  1  0  0  0  0
 27 43  1  0  0  0  0
 27 44  1  0  0  0  0
M  END
>  <DRUGBANK_ID>
DB18091

>  <COMMON_NAME>
LNS-8801

>  <CAS_NUMBER>
881639-98-1

>  <UNII>
Y3V5BV7OKM

>  <SYNONYMS>
Ethanone, 1-((3ar,4s,9bs)-4-(6-bromo-1,3-benzodioxol-5-yl)-3a,4,5,9b-tetrahydro-3h-cyclopenta(c)quinolin-8-yl)-, rel-; G 1 (anti-tumor agent); G 1 (g protein-coupled estrogen receptor agonist); G 1 (gper agonist)

$$$$
