
 OpenBabel10282417153D

 87 88  0  0  1  0  0  0  0  0999 V2000
   -3.4290   -0.8307    2.0731 C   0  0  0  0  0  0  0  0  0  0  0  0
   -5.5770   -1.6360    3.6880 C   0  0  2  0  0  0  0  0  0  0  0  0
   -8.3954   -2.2045    5.2643 C   0  0  0  0  0  0  0  0  0  0  0  0
  -10.8661   -2.7911    6.5778 C   0  0  0  0  0  0  0  0  0  0  0  0
  -13.2594   -3.4809    7.2566 C   0  0  0  0  0  0  0  0  0  0  0  0
  -14.2589   -4.7028    6.8685 C   0  0  0  0  0  0  0  0  0  0  0  0
  -12.9666   -4.7819    7.0399 C   0  0  0  0  0  0  0  0  0  0  0  0
  -12.2250   -4.7054    8.2901 C   0  0  0  0  0  0  0  0  0  0  0  0
  -12.2221   -3.4375    8.3854 C   0  0  0  0  0  0  0  0  0  0  0  0
  -12.5032   -3.7847   10.4298 O   0  0  0  0  0  0  0  0  0  0  0  0
  -10.8998   -4.5561    8.4967 N   0  0  0  0  0  0  0  0  0  0  0  0
   -9.9281   -4.1615    7.5181 C   0  0  0  0  0  0  0  0  0  0  0  0
  -10.1373   -4.1010    6.1636 O   0  0  0  0  0  0  0  0  0  0  0  0
   -8.5310   -4.0667    7.8064 C   0  0  0  0  0  0  0  0  0  0  0  0
   -7.5973   -3.3294    6.9729 C   0  0  0  0  0  0  0  0  0  0  0  0
   -6.1743   -3.6188    7.1175 C   0  0  0  0  0  0  0  0  0  0  0  0
   -5.2454   -3.2230    6.2451 C   0  0  0  0  0  0  0  0  0  0  0  0
   -3.7725   -3.4036    6.4230 C   0  0  1  0  0  0  0  0  0  0  0  0
   -3.1712   -4.2579    5.3230 C   0  0  2  0  0  0  0  0  0  0  0  0
   -3.5517   -3.7664    4.0272 C   0  0  0  0  0  0  0  0  0  0  0  0
   -2.7064   -3.5576    3.1503 C   0  0  0  0  0  0  0  0  0  0  0  0
   -2.8386   -3.0581    1.7271 C   0  0  1  0  0  0  0  0  0  0  0  0
   -1.9822   -1.1535    2.4425 C   0  0  2  0  0  0  0  0  0  0  0  0
   -0.6706   -1.2745    2.3909 C   0  0  2  0  0  0  0  0  0  0  0  0
   -2.9950   -1.7429    2.7672 C   0  0  0  0  0  0  0  0  0  0  0  0
   -0.0929   -1.7745    3.4763 O   0  0  0  0  0  0  0  0  0  0  0  0
   -0.3553   -3.0624    3.3510 C   0  0  0  0  0  0  0  0  0  0  0  0
   -2.4399   -0.0354    3.2611 O   0  0  0  0  0  0  0  0  0  0  0  0
   -1.9759   -3.3643    0.6724 C   0  0  0  0  0  0  0  0  0  0  0  0
   -4.7393   -3.5969    3.4436 C   0  0  0  0  0  0  0  0  0  0  0  0
   -3.7425   -5.5668    5.2796 O   0  0  0  0  0  0  0  0  0  0  0  0
   -5.1207   -5.7058    5.0656 C   0  0  0  0  0  0  0  0  0  0  0  0
   -5.9240   -4.8159    4.9382 O   0  0  0  0  0  0  0  0  0  0  0  0
   -5.6978   -6.9829    5.0314 N   0  0  0  0  0  0  0  0  0  0  0  0
   -3.1724   -2.1179    6.4704 O   0  0  0  0  0  0  0  0  0  0  0  0
   -2.8564   -1.6352    5.2362 C   0  0  0  0  0  0  0  0  0  0  0  0
   -8.0210   -4.7663    9.0266 C   0  0  0  0  0  0  0  0  0  0  0  0
  -14.7340   -4.9873    5.6380 O   0  0  0  0  0  0  0  0  0  0  0  0
  -15.5247   -4.1177    7.7073 N   0  0  0  0  0  0  0  0  0  0  0  0
  -17.2029   -4.6755    6.6129 C   0  0  0  0  0  0  0  0  0  0  0  0
  -18.0875   -5.9211    6.6712 C   0  0  0  0  0  0  0  0  0  0  0  0
  -19.3997   -5.8500    6.3682 C   0  0  0  0  0  0  0  0  0  0  0  0
   -1.5591   -0.6166    1.2227 H   0  0  0  0  0  0  0  0  0  0  0  0
   -1.6448   -0.1231    1.3496 H   0  0  0  0  0  0  0  0  0  0  0  0
   -1.7318   -0.4267    0.8466 H   0  0  0  0  0  0  0  0  0  0  0  0
   -4.4280   -1.4972    2.4239 H   0  0  0  0  0  0  0  0  0  0  0  0
   -9.7557   -2.3163    6.5426 H   0  0  0  0  0  0  0  0  0  0  0  0
   -9.8964   -2.4014    6.3557 H   0  0  0  0  0  0  0  0  0  0  0  0
  -12.2900   -4.9107    6.2360 H   0  0  0  0  0  0  0  0  0  0  0  0
  -13.1407   -3.5939   11.3105 H   0  0  0  0  0  0  0  0  0  0  0  0
  -10.6308   -4.9386    9.3708 H   0  0  0  0  0  0  0  0  0  0  0  0
   -7.8566   -3.3545    5.9802 H   0  0  0  0  0  0  0  0  0  0  0  0
   -7.0888   -4.2547    6.9085 H   0  0  0  0  0  0  0  0  0  0  0  0
   -5.6240   -2.7874    5.3429 H   0  0  0  0  0  0  0  0  0  0  0  0
   -3.5944   -3.9026    7.3681 H   0  0  0  0  0  0  0  0  0  0  0  0
   -2.0811   -4.3279    5.4862 H   0  0  0  0  0  0  0  0  0  0  0  0
   -1.8045   -3.6982    3.8349 H   0  0  0  0  0  0  0  0  0  0  0  0
   -3.7353   -2.5627    1.5835 H   0  0  0  0  0  0  0  0  0  0  0  0
   -2.7079   -0.4710    0.9481 H   0  0  0  0  0  0  0  0  0  0  0  0
   -0.0018   -0.2094    2.2154 H   0  0  0  0  0  0  0  0  0  0  0  0
   -1.4003   -2.3988    1.7796 H   0  0  0  0  0  0  0  0  0  0  0  0
   -1.1434   -1.9801    1.9415 H   0  0  0  0  0  0  0  0  0  0  0  0
   -1.2942   -2.7887    3.0458 H   0  0  0  0  0  0  0  0  0  0  0  0
   -0.2971   -3.7463    2.5596 H   0  0  0  0  0  0  0  0  0  0  0  0
   -0.4928   -3.6077    4.3473 H   0  0  0  0  0  0  0  0  0  0  0  0
   -2.3348   -0.6947    3.8772 H   0  0  0  0  0  0  0  0  0  0  0  0
   -2.7765   -3.5579    0.1165 H   0  0  0  0  0  0  0  0  0  0  0  0
   -1.2542   -2.7063    0.1288 H   0  0  0  0  0  0  0  0  0  0  0  0
   -1.4451   -4.1742    1.1210 H   0  0  0  0  0  0  0  0  0  0  0  0
   -4.7698   -2.7460    3.7289 H   0  0  0  0  0  0  0  0  0  0  0  0
   -4.9619   -3.8001    2.5051 H   0  0  0  0  0  0  0  0  0  0  0  0
   -5.4807   -3.6144    4.0967 H   0  0  0  0  0  0  0  0  0  0  0  0
   -5.1465   -7.8211    5.1624 H   0  0  0  0  0  0  0  0  0  0  0  0
   -6.7167   -7.0951    4.8744 H   0  0  0  0  0  0  0  0  0  0  0  0
   -2.7552   -2.3782    4.5864 H   0  0  0  0  0  0  0  0  0  0  0  0
   -3.6032   -0.9773    4.8237 H   0  0  0  0  0  0  0  0  0  0  0  0
   -1.8720   -1.2090    5.1858 H   0  0  0  0  0  0  0  0  0  0  0  0
   -7.4160   -5.6336    8.7770 H   0  0  0  0  0  0  0  0  0  0  0  0
   -7.4147   -4.0731    9.5937 H   0  0  0  0  0  0  0  0  0  0  0  0
   -8.8434   -5.0900    9.6399 H   0  0  0  0  0  0  0  0  0  0  0  0
  -15.6066   -5.0566    5.3591 H   0  0  0  0  0  0  0  0  0  0  0  0
  -17.0172   -4.1625    8.5725 H   0  0  0  0  0  0  0  0  0  0  0  0
  -17.7834   -3.8580    6.2002 H   0  0  0  0  0  0  0  0  0  0  0  0
  -16.6643   -4.8784    5.8764 H   0  0  0  0  0  0  0  0  0  0  0  0
  -17.6661   -6.8679    6.9801 H   0  0  0  0  0  0  0  0  0  0  0  0
  -20.0420   -6.7137    6.4564 H   0  0  0  0  0  0  0  0  0  0  0  0
  -19.8340   -4.9134    6.0407 H   0  0  0  0  0  0  0  0  0  0  0  0
  1 43  1  0  0  0  0
  1 44  1  0  0  0  0
  1 45  1  0  0  0  0
  2  1  1  0  0  0  0
  2  3  1  0  0  0  0
  2 25  1  0  0  0  0
  2 46  1  6  0  0  0
  3  4  1  0  0  0  0
  3 47  1  0  0  0  0
  3 48  1  0  0  0  0
  4  5  2  0  0  0  0
  4  9  1  0  0  0  0
  5  6  1  0  0  0  0
  5 39  1  0  0  0  0
  6  7  2  0  0  0  0
  6 38  1  0  0  0  0
  7  8  1  0  0  0  0
  7 49  1  0  0  0  0
  8  9  2  0  0  0  0
  8 11  1  0  0  0  0
  9 10  1  0  0  0  0
 10 50  1  0  0  0  0
 11 12  1  0  0  0  0
 11 51  1  0  0  0  0
 12 13  2  0  0  0  0
 12 14  1  0  0  0  0
 14 15  2  0  0  0  0
 14 37  1  0  0  0  0
 15 16  1  0  0  0  0
 15 52  1  0  0  0  0
 16 17  2  0  0  0  0
 16 53  1  0  0  0  0
 17 18  1  0  0  0  0
 17 54  1  0  0  0  0
 18 19  1  0  0  0  0
 18 55  1  1  0  0  0
 18 35  1  0  0  0  0
 19 20  1  0  0  0  0
 19 31  1  0  0  0  0
 19 56  1  1  0  0  0
 20 21  2  0  0  0  0
 20 30  1  0  0  0  0
 21 22  1  0  0  0  0
 21 57  1  0  0  0  0
 22 23  1  0  0  0  0
 22 58  1  6  0  0  0
 22 29  1  0  0  0  0
 23 24  1  0  0  0  0
 23 28  1  0  0  0  0
 23 59  1  6  0  0  0
 24 25  1  0  0  0  0
 24 26  1  0  0  0  0
 24 60  1  6  0  0  0
 25 61  1  0  0  0  0
 25 62  1  0  0  0  0
 26 27  1  0  0  0  0
 27 63  1  0  0  0  0
 27 64  1  0  0  0  0
 27 65  1  0  0  0  0
 28 66  1  0  0  0  0
 29 67  1  0  0  0  0
 29 68  1  0  0  0  0
 29 69  1  0  0  0  0
 30 70  1  0  0  0  0
 30 71  1  0  0  0  0
 30 72  1  0  0  0  0
 31 32  1  0  0  0  0
 32 33  2  0  0  0  0
 32 34  1  0  0  0  0
 34 73  1  0  0  0  0
 34 74  1  0  0  0  0
 35 36  1  0  0  0  0
 36 75  1  0  0  0  0
 36 76  1  0  0  0  0
 36 77  1  0  0  0  0
 37 78  1  0  0  0  0
 37 79  1  0  0  0  0
 37 80  1  0  0  0  0
 38 81  1  0  0  0  0
 39 40  1  0  0  0  0
 39 82  1  0  0  0  0
 40 41  1  0  0  0  0
 40 83  1  0  0  0  0
 40 84  1  0  0  0  0
 41 42  2  0  0  0  0
 41 85  1  0  0  0  0
 42 86  1  0  0  0  0
 42 87  1  0  0  0  0
M  END
>  <DRUGBANK_ID>
DB05626

>  <COMMON_NAME>
Retaspimycin

>  <CAS_NUMBER>
857402-23-4

>  <UNII>
BZF2ZM0I5Z

>  <SYNONYMS>
Retaspimycin

$$$$
