
 OpenBabel10282417123D

 56 58  0  0  0  0  0  0  0  0999 V2000
    0.9499   -0.0307    0.3405 S   0  0  0  0  0  0  0  0  0  0  0  0
    4.0095   -1.7477   -4.5469 S   0  0  0  0  0  0  0  0  0  0  0  0
    1.6317    3.2129   -0.5477 O   0  0  0  0  0  0  0  0  0  0  0  0
    0.2651    5.9746   -2.3370 O   0  0  0  0  0  0  0  0  0  0  0  0
   -1.4177    4.2362   -1.4499 O   0  0  0  0  0  0  0  0  0  0  0  0
    0.3427    0.3531   -1.1204 O   0  0  0  0  0  0  0  0  0  0  0  0
    0.3915   -1.2830    0.7276 O   0  0  0  0  0  0  0  0  0  0  0  0
    0.7522    1.1120    1.2267 O   0  0  0  0  0  0  0  0  0  0  0  0
    4.5492   -1.0021   -0.5414 O   0  0  0  0  0  0  0  0  0  0  0  0
    3.5236    4.6872   -1.1694 N   0  0  0  0  0  0  0  0  0  0  0  0
    4.4189    6.7539   -1.7369 N   0  0  0  0  0  0  0  0  0  0  0  0
    4.9542    3.3746   -3.1719 N   0  0  0  0  0  0  0  0  0  0  0  0
    3.8472    4.7507   -4.7040 N   0  0  0  0  0  0  0  0  0  0  0  0
    2.6449    6.6540   -3.8419 N   0  0  0  0  0  0  0  0  0  0  0  0
    2.5808   -0.1181    0.1079 N   0  0  0  0  0  0  0  0  0  0  0  0
    1.7920   -3.0228   -0.5850 N   0  0  0  0  0  0  0  0  0  0  0  0
    1.9714    4.4649   -1.1523 C   0  0  1  0  0  0  0  0  0  0  0  0
    0.8901    4.6772   -2.2941 C   0  0  1  0  0  0  0  0  0  0  0  0
   -0.2356    3.6629   -2.0459 C   0  0  1  0  0  0  0  0  0  0  0  0
    0.4269    2.6752   -1.1346 C   0  0  1  0  0  0  0  0  0  0  0  0
    4.6701    4.4586   -2.1966 C   0  0  3  0  0  0  0  0  0  0  0  0
    0.8664    1.4392   -1.8666 C   0  0  0  0  0  0  0  0  0  0  0  0
    3.8200    6.0217   -0.8441 C   0  0  0  0  0  0  0  0  0  0  0  0
    4.5667    5.8516   -2.7818 C   0  0  0  0  0  0  0  0  0  0  0  0
    3.7528    5.8303   -3.8644 C   0  0  0  0  0  0  0  0  0  0  0  0
    4.5999    3.6645   -4.3775 C   0  0  0  0  0  0  0  0  0  0  0  0
    2.6149   -2.1578   -1.4154 C   0  0  2  0  0  0  0  0  0  0  0  0
    3.3233   -1.0790   -0.5796 C   0  0  0  0  0  0  0  0  0  0  0  0
    1.9377   -1.6184   -2.6691 C   0  0  0  0  0  0  0  0  0  0  0  0
    2.8516   -0.7563   -3.5398 C   0  0  0  0  0  0  0  0  0  0  0  0
    5.1328   -2.4924   -3.3175 C   0  0  0  0  0  0  0  0  0  0  0  0
   -0.6062    5.9120   -1.8718 H   0  0  0  0  0  0  0  0  0  0  0  0
   -1.3182    4.3133   -0.4832 H   0  0  0  0  0  0  0  0  0  0  0  0
    3.2328    4.7312   -5.5040 H   0  0  0  0  0  0  0  0  0  0  0  0
    2.5222    6.9618   -2.8629 H   0  0  0  0  0  0  0  0  0  0  0  0
    1.7886    6.1666   -4.0875 H   0  0  0  0  0  0  0  0  0  0  0  0
    3.1102    0.5918    0.6068 H   0  0  0  0  0  0  0  0  0  0  0  0
    1.3380   -3.7426   -1.1381 H   0  0  0  0  0  0  0  0  0  0  0  0
    2.3815   -3.4919    0.1048 H   0  0  0  0  0  0  0  0  0  0  0  0
    1.6286    5.1890   -0.3938 H   0  0  0  0  0  0  0  0  0  0  0  0
    1.2938    4.4293   -3.2721 H   0  0  0  0  0  0  0  0  0  0  0  0
   -0.6101    3.2046   -2.9732 H   0  0  0  0  0  0  0  0  0  0  0  0
   -0.2864    2.4184   -0.3457 H   0  0  0  0  0  0  0  0  0  0  0  0
    5.6340    4.5003   -1.6313 H   0  0  0  0  0  0  0  0  0  0  0  0
    1.9580    1.3861   -1.9499 H   0  0  0  0  0  0  0  0  0  0  0  0
    0.4794    1.3719   -2.8922 H   0  0  0  0  0  0  0  0  0  0  0  0
    3.4610    6.3958    0.1237 H   0  0  0  0  0  0  0  0  0  0  0  0
    4.8432    3.0196   -5.2484 H   0  0  0  0  0  0  0  0  0  0  0  0
    3.3591   -2.8575   -1.7303 H   0  0  0  0  0  0  0  0  0  0  0  0
    1.4682   -2.4117   -3.2592 H   0  0  0  0  0  0  0  0  0  0  0  0
    1.0814   -1.0270   -2.3959 H   0  0  0  0  0  0  0  0  0  0  0  0
    2.2113   -0.2005   -4.2417 H   0  0  0  0  0  0  0  0  0  0  0  0
    3.3873    0.0196   -2.9798 H   0  0  0  0  0  0  0  0  0  0  0  0
    5.5762   -1.7423   -2.6597 H   0  0  0  0  0  0  0  0  0  0  0  0
    4.6909   -3.3035   -2.7401 H   0  0  0  0  0  0  0  0  0  0  0  0
    5.9277   -3.0084   -3.8526 H   0  0  0  0  0  0  0  0  0  0  0  0
  1  6  1  0  0  0  0
  1  7  2  0  0  0  0
  1  8  2  0  0  0  0
  1 15  1  0  0  0  0
  2 30  1  0  0  0  0
  2 31  1  0  0  0  0
  3 17  1  0  0  0  0
  3 20  1  0  0  0  0
  4 32  1  0  0  0  0
  5 33  1  0  0  0  0
  6 22  1  0  0  0  0
  9 28  2  0  0  0  0
 10 21  1  0  0  0  0
 10 23  1  0  0  0  0
 11 23  2  0  0  0  0
 11 24  1  0  0  0  0
 12 21  1  0  0  0  0
 12 26  2  0  0  0  0
 13 25  1  0  0  0  0
 13 26  1  0  0  0  0
 13 34  1  0  0  0  0
 14 25  1  0  0  0  0
 14 35  1  0  0  0  0
 14 36  1  0  0  0  0
 15 28  1  0  0  0  0
 15 37  1  0  0  0  0
 16 38  1  0  0  0  0
 16 39  1  0  0  0  0
 17 18  1  0  0  0  0
 17 40  1  1  0  0  0
 17 10  1  0  0  0  0
 18  4  1  0  0  0  0
 18 19  1  0  0  0  0
 18 41  1  6  0  0  0
 19  5  1  0  0  0  0
 19 20  1  0  0  0  0
 19 42  1  6  0  0  0
 20 22  1  0  0  0  0
 20 43  1  1  0  0  0
 21 24  1  0  0  0  0
 21 44  1  0  0  0  0
 22 45  1  0  0  0  0
 22 46  1  0  0  0  0
 23 47  1  0  0  0  0
 24 25  2  0  0  0  0
 26 48  1  0  0  0  0
 27 16  1  0  0  0  0
 27 28  1  0  0  0  0
 27 29  1  0  0  0  0
 27 49  1  6  0  0  0
 29 30  1  0  0  0  0
 29 50  1  0  0  0  0
 29 51  1  0  0  0  0
 30 52  1  0  0  0  0
 30 53  1  0  0  0  0
 31 54  1  0  0  0  0
 31 55  1  0  0  0  0
 31 56  1  0  0  0  0
M  END
>  <DRUGBANK_ID>
DB02229

>  <SECONDARY_ACCESSION_NUMBERS>
EXPT02239

>  <COMMON_NAME>
5'-O-[(L-methionyl)-sulphamoyl]adenosine

$$$$
