
 OpenBabel10282417183D

 30 29  0  0  0  0  0  0  0  0999 V2000
    0.4428   -0.6559    2.3056 C   0  0  1  0  0  0  0  0  0  0  0  0
    0.0467    0.8596    2.3324 C   0  0  1  0  0  0  0  0  0  0  0  0
    0.3642   -1.3556    0.9186 C   0  0  1  0  0  0  0  0  0  0  0  0
   -0.6397    1.3206    1.0328 C   0  0  2  0  0  0  0  0  0  0  0  0
    1.7792   -0.8025    2.8240 O   0  0  0  0  0  0  0  0  0  0  0  0
   -0.7693    1.1402    3.4784 O   0  0  0  0  0  0  0  0  0  0  0  0
   -0.1238   -3.5718    1.9100 N   0  0  0  0  0  0  0  0  0  0  0  0
    0.3507    1.7744    0.0897 O   0  0  0  0  0  0  0  0  0  0  0  0
    1.2810   -0.7487   -0.0032 O   0  0  0  0  0  0  0  0  0  0  0  0
    0.6913   -2.8481    0.9334 C   0  0  0  0  0  0  0  0  0  0  0  0
   -2.2988    2.5006   -0.2041 O   0  0  0  0  0  0  0  0  0  0  0  0
   -1.7863    2.3108    1.1206 C   0  0  0  0  0  0  0  0  0  0  0  0
    0.1970   -4.9879    1.8455 C   0  0  0  0  0  0  0  0  0  0  0  0
   -0.2052   -1.1744    3.0210 H   0  0  0  0  0  0  0  0  0  0  0  0
    0.9632    1.4429    2.4965 H   0  0  0  0  0  0  0  0  0  0  0  0
   -0.6545   -1.3055    0.5191 H   0  0  0  0  0  0  0  0  0  0  0  0
   -1.1128    0.4785    0.5403 H   0  0  0  0  0  0  0  0  0  0  0  0
    2.3825   -0.5447    2.0995 H   0  0  0  0  0  0  0  0  0  0  0  0
   -1.6496    0.7325    3.3559 H   0  0  0  0  0  0  0  0  0  0  0  0
    0.1262   -3.2399    2.8438 H   0  0  0  0  0  0  0  0  0  0  0  0
    0.4989    2.7278    0.2455 H   0  0  0  0  0  0  0  0  0  0  0  0
    0.9820    0.1628   -0.2059 H   0  0  0  0  0  0  0  0  0  0  0  0
    0.4872   -3.2312   -0.0774 H   0  0  0  0  0  0  0  0  0  0  0  0
    1.7633   -2.9922    1.1076 H   0  0  0  0  0  0  0  0  0  0  0  0
   -1.5444    2.4354   -0.8223 H   0  0  0  0  0  0  0  0  0  0  0  0
   -2.5984    1.8977    1.7259 H   0  0  0  0  0  0  0  0  0  0  0  0
   -1.4772    3.2806    1.5086 H   0  0  0  0  0  0  0  0  0  0  0  0
    1.2607   -5.1524    2.0432 H   0  0  0  0  0  0  0  0  0  0  0  0
   -0.3815   -5.5203    2.6038 H   0  0  0  0  0  0  0  0  0  0  0  0
   -0.0600   -5.4003    0.8655 H   0  0  0  0  0  0  0  0  0  0  0  0
  1  5  1  0  0  0  0
  1 14  1  1  0  0  0
  1  3  1  0  0  0  0
  1  2  1  0  0  0  0
  2  6  1  0  0  0  0
  2 15  1  1  0  0  0
  3  9  1  0  0  0  0
  3 16  1  6  0  0  0
  4 17  1  6  0  0  0
  4  8  1  0  0  0  0
  4  2  1  0  0  0  0
  5 18  1  0  0  0  0
  6 19  1  0  0  0  0
  7 10  1  0  0  0  0
  7 20  1  0  0  0  0
  8 21  1  0  0  0  0
  9 22  1  0  0  0  0
 10  3  1  0  0  0  0
 10 23  1  0  0  0  0
 10 24  1  0  0  0  0
 11 12  1  0  0  0  0
 11 25  1  0  0  0  0
 12  4  1  0  0  0  0
 12 26  1  0  0  0  0
 12 27  1  0  0  0  0
 13  7  1  0  0  0  0
 13 28  1  0  0  0  0
 13 29  1  0  0  0  0
 13 30  1  0  0  0  0
M  END
>  <DRUGBANK_ID>
DB09415

>  <COMMON_NAME>
Meglumine

>  <CAS_NUMBER>
6284-40-8

>  <UNII>
6HG8UB2MUY

>  <SYNONYMS>
1-deoxy-1-methylaminosorbitol; Iosulamide; Meglumina; MÃ©glumine; Meglumine; Megluminum; N-methyl-D-glucamine

$$$$
