
 OpenBabel10282417193D

 46 48  0  0  0  0  0  0  0  0999 V2000
    0.9086   -0.0575    0.0495 C   0  0  0  0  0  0  0  0  0  0  0  0
    0.2999    1.0777    0.6366 O   0  0  0  0  0  0  0  0  0  0  0  0
    0.7179    1.3412    1.9149 C   0  0  0  0  0  0  0  0  0  0  0  0
    2.0657    1.1695    2.2754 C   0  0  0  0  0  0  0  0  0  0  0  0
    2.4957    1.7294    3.4340 C   0  0  0  0  0  0  0  0  0  0  0  0
    1.5889    2.5462    4.0818 C   0  0  0  0  0  0  0  0  0  0  0  0
    0.2260    2.6006    3.9116 C   0  0  0  0  0  0  0  0  0  0  0  0
   -0.2399    1.9454    2.7880 C   0  0  0  0  0  0  0  0  0  0  0  0
   -1.6676    1.8303    2.5353 C   0  0  0  0  0  0  0  0  0  0  0  0
   -2.4744    0.7227    2.3571 C   0  0  0  0  0  0  0  0  0  0  0  0
   -3.7768    1.2279    2.1156 C   0  0  0  0  0  0  0  0  0  0  0  0
   -3.7863    2.5631    2.2147 N   0  0  0  0  0  0  0  0  0  0  0  0
   -2.5182    2.8948    2.5049 N   0  0  0  0  0  0  0  0  0  0  0  0
   -4.8535    0.4436    1.8241 N   0  0  0  0  0  0  0  0  0  0  0  0
   -6.1662    0.9332    1.6308 C   0  0  0  0  0  0  0  0  0  0  0  0
   -6.3960    1.9164    0.6616 C   0  0  0  0  0  0  0  0  0  0  0  0
   -7.5640    2.5960    0.4978 N   0  0  0  0  0  0  0  0  0  0  0  0
   -8.5490    2.2362    1.3457 C   0  0  0  0  0  0  0  0  0  0  0  0
   -8.3927    1.1671    2.2169 C   0  0  0  0  0  0  0  0  0  0  0  0
   -7.2087    0.4898    2.3774 N   0  0  0  0  0  0  0  0  0  0  0  0
   -9.7564    3.0292    1.3151 C   0  0  0  0  0  0  0  0  0  0  0  0
  -10.7210    3.6566    1.3267 N   0  0  0  0  0  0  0  0  0  0  0  0
   -0.5800    3.2346    4.8293 O   0  0  0  0  0  0  0  0  0  0  0  0
    0.0053    3.8239    6.0330 C   0  0  0  0  0  0  0  0  0  0  0  0
    0.4122    2.8200    7.1471 C   0  0  0  0  0  0  0  0  0  0  0  0
    1.6094    1.9047    6.8509 C   0  0  0  0  0  0  0  0  0  0  0  0
    2.8862    2.6384    6.7044 N   0  0  0  0  0  0  0  0  0  0  0  0
    0.5552   -0.1042   -0.9793 H   0  0  0  0  0  0  0  0  0  0  0  0
    0.5885   -0.9498    0.5924 H   0  0  0  0  0  0  0  0  0  0  0  0
    2.0007   -0.0036    0.0011 H   0  0  0  0  0  0  0  0  0  0  0  0
    2.8196    0.6917    1.6626 H   0  0  0  0  0  0  0  0  0  0  0  0
    3.5121    1.6198    3.8016 H   0  0  0  0  0  0  0  0  0  0  0  0
    1.9538    3.1503    4.8535 H   0  0  0  0  0  0  0  0  0  0  0  0
   -2.1288   -0.3008    2.3798 H   0  0  0  0  0  0  0  0  0  0  0  0
   -2.2832    3.8713    2.6513 H   0  0  0  0  0  0  0  0  0  0  0  0
   -4.8409   -0.5346    2.0779 H   0  0  0  0  0  0  0  0  0  0  0  0
   -5.6197    2.1380   -0.0636 H   0  0  0  0  0  0  0  0  0  0  0  0
   -9.2274    0.8098    2.8144 H   0  0  0  0  0  0  0  0  0  0  0  0
    0.8149    4.5271    5.7907 H   0  0  0  0  0  0  0  0  0  0  0  0
   -0.7753    4.4715    6.4585 H   0  0  0  0  0  0  0  0  0  0  0  0
    0.6473    3.3683    8.0681 H   0  0  0  0  0  0  0  0  0  0  0  0
   -0.4602    2.1897    7.3564 H   0  0  0  0  0  0  0  0  0  0  0  0
    1.7851    1.1595    7.6266 H   0  0  0  0  0  0  0  0  0  0  0  0
    1.3277    1.2723    6.0003 H   0  0  0  0  0  0  0  0  0  0  0  0
    3.4918    2.1254    6.0589 H   0  0  0  0  0  0  0  0  0  0  0  0
    2.7844    3.5620    6.2734 H   0  0  0  0  0  0  0  0  0  0  0  0
  1  2  1  0  0  0  0
  1 28  1  0  0  0  0
  1 29  1  0  0  0  0
  1 30  1  0  0  0  0
  2  3  1  0  0  0  0
  3  4  2  0  0  0  0
  3  8  1  0  0  0  0
  4  5  1  0  0  0  0
  4 31  1  0  0  0  0
  5  6  2  0  0  0  0
  5 32  1  0  0  0  0
  6  7  1  0  0  0  0
  6 33  1  0  0  0  0
  7  8  2  0  0  0  0
  7 23  1  0  0  0  0
  8  9  1  0  0  0  0
  9 10  2  0  0  0  0
  9 13  1  0  0  0  0
 10 11  1  0  0  0  0
 10 34  1  0  0  0  0
 11 12  2  0  0  0  0
 11 14  1  0  0  0  0
 12 13  1  0  0  0  0
 13 35  1  0  0  0  0
 14 15  1  0  0  0  0
 14 36  1  0  0  0  0
 15 16  2  0  0  0  0
 15 20  1  0  0  0  0
 16 17  1  0  0  0  0
 16 37  1  0  0  0  0
 17 18  2  0  0  0  0
 18 19  1  0  0  0  0
 18 21  1  0  0  0  0
 19 20  2  0  0  0  0
 19 38  1  0  0  0  0
 21 22  3  0  0  0  0
 23 24  1  0  0  0  0
 24 25  1  0  0  0  0
 24 39  1  0  0  0  0
 24 40  1  0  0  0  0
 25 26  1  0  0  0  0
 25 41  1  0  0  0  0
 25 42  1  0  0  0  0
 26 27  1  0  0  0  0
 26 43  1  0  0  0  0
 26 44  1  0  0  0  0
 27 45  1  0  0  0  0
 27 46  1  0  0  0  0
M  END
>  <DRUGBANK_ID>
DB12008

>  <COMMON_NAME>
Prexasertib

>  <CAS_NUMBER>
1234015-52-1

>  <UNII>
820NH671E6

>  <SYNONYMS>
Prexasertib

$$$$
