
 OpenBabel10282417243D

 66 70  0  0  0  0  0  0  0  0999 V2000
    3.2358    0.4175    0.0016 Cl  0  0  0  0  0  0  0  0  0  0  0  0
    1.5848   -0.0661   -0.0060 C   0  0  0  0  0  0  0  0  0  0  0  0
    1.2641   -1.4116    0.0007 C   0  0  0  0  0  0  0  0  0  0  0  0
   -0.0775   -1.7939   -0.0030 C   0  0  0  0  0  0  0  0  0  0  0  0
   -1.1138   -0.8196    0.0008 C   0  0  0  0  0  0  0  0  0  0  0  0
   -2.5009   -1.1411    0.0176 C   0  0  0  0  0  0  0  0  0  0  0  0
   -2.9356   -2.4489   -0.0539 N   0  0  0  0  0  0  0  0  0  0  0  0
   -4.3230   -2.8579    0.0087 C   0  0  0  0  0  0  0  0  0  0  0  0
   -4.6659   -3.6199   -1.2640 C   0  0  0  0  0  0  0  0  0  0  0  0
   -3.9658   -4.9566   -1.3155 C   0  0  0  0  0  0  0  0  0  0  0  0
   -4.2735   -5.7996   -0.1651 N   0  0  0  0  0  0  0  0  0  0  0  0
   -5.6668   -5.8114    0.3164 C   0  0  0  0  0  0  0  0  0  0  0  0
   -5.8011   -6.5859    1.6348 C   0  0  0  0  0  0  0  0  0  0  0  0
   -5.3138   -8.0228    1.4410 C   0  0  0  0  0  0  0  0  0  0  0  0
   -3.9748   -7.9560    0.7230 C   0  0  0  0  0  0  0  0  0  0  0  0
   -3.8596   -7.1452   -0.5178 C   0  0  0  0  0  0  0  0  0  0  0  0
   -5.2773   -8.7120    2.7407 N   0  0  0  0  0  0  0  0  0  0  0  0
   -4.6651  -10.0763    2.7789 C   0  0  0  0  0  0  0  0  0  0  0  0
   -3.1554  -10.1718    2.4479 C   0  0  0  0  0  0  0  0  0  0  0  0
   -2.3188   -9.0714    2.6076 C   0  0  0  0  0  0  0  0  0  0  0  0
   -1.1805   -8.9972    1.8094 C   0  0  0  0  0  0  0  0  0  0  0  0
   -0.7029  -10.1488    1.2144 C   0  0  0  0  0  0  0  0  0  0  0  0
   -1.4461  -11.3020    1.3694 C   0  0  0  0  0  0  0  0  0  0  0  0
   -2.6984  -11.3174    1.8740 N   0  0  0  0  0  0  0  0  0  0  0  0
   -4.8545  -10.7619    4.1338 C   0  0  0  0  0  0  0  0  0  0  0  0
   -4.5490  -12.1243    4.2275 C   0  0  0  0  0  0  0  0  0  0  0  0
   -4.5259  -12.7286    5.4722 C   0  0  0  0  0  0  0  0  0  0  0  0
   -4.8527  -11.9733    6.5884 C   0  0  0  0  0  0  0  0  0  0  0  0
   -5.1687  -10.6343    6.4152 C   0  0  0  0  0  0  0  0  0  0  0  0
   -5.1590  -10.0054    5.2226 N   0  0  0  0  0  0  0  0  0  0  0  0
   -3.4094   -0.0796    0.0132 C   0  0  0  0  0  0  0  0  0  0  0  0
   -2.9522    1.2129    0.0125 C   0  0  0  0  0  0  0  0  0  0  0  0
   -1.6522    1.5452   -0.0000 N   0  0  0  0  0  0  0  0  0  0  0  0
   -0.7579    0.5420   -0.0054 C   0  0  0  0  0  0  0  0  0  0  0  0
    0.5827    0.9019   -0.0145 C   0  0  0  0  0  0  0  0  0  0  0  0
    2.0418   -2.1712    0.0118 H   0  0  0  0  0  0  0  0  0  0  0  0
   -0.2984   -2.8542   -0.0005 H   0  0  0  0  0  0  0  0  0  0  0  0
   -2.2720   -3.1950    0.1236 H   0  0  0  0  0  0  0  0  0  0  0  0
   -4.4589   -3.4383    0.9271 H   0  0  0  0  0  0  0  0  0  0  0  0
   -5.0425   -2.0450    0.0875 H   0  0  0  0  0  0  0  0  0  0  0  0
   -5.7475   -3.7803   -1.3278 H   0  0  0  0  0  0  0  0  0  0  0  0
   -4.3903   -3.0417   -2.1516 H   0  0  0  0  0  0  0  0  0  0  0  0
   -4.2223   -5.4605   -2.2542 H   0  0  0  0  0  0  0  0  0  0  0  0
   -2.8751   -4.8047   -1.3436 H   0  0  0  0  0  0  0  0  0  0  0  0
   -6.3216   -6.2430   -0.4461 H   0  0  0  0  0  0  0  0  0  0  0  0
   -6.0360   -4.8084    0.5390 H   0  0  0  0  0  0  0  0  0  0  0  0
   -6.8471   -6.5724    1.9644 H   0  0  0  0  0  0  0  0  0  0  0  0
   -5.2218   -6.0764    2.4215 H   0  0  0  0  0  0  0  0  0  0  0  0
   -6.0340   -8.5406    0.7985 H   0  0  0  0  0  0  0  0  0  0  0  0
   -3.2862   -7.4300    1.3874 H   0  0  0  0  0  0  0  0  0  0  0  0
   -3.6469   -8.9518    0.4346 H   0  0  0  0  0  0  0  0  0  0  0  0
   -2.7978   -7.1533   -0.8102 H   0  0  0  0  0  0  0  0  0  0  0  0
   -4.4406   -7.5795   -1.3356 H   0  0  0  0  0  0  0  0  0  0  0  0
   -4.8613   -8.1596    3.4893 H   0  0  0  0  0  0  0  0  0  0  0  0
   -5.2331  -10.6658    2.0434 H   0  0  0  0  0  0  0  0  0  0  0  0
   -2.6822   -8.1795    3.1100 H   0  0  0  0  0  0  0  0  0  0  0  0
   -0.7281   -8.0301    1.6008 H   0  0  0  0  0  0  0  0  0  0  0  0
    0.2271  -10.1444    0.6614 H   0  0  0  0  0  0  0  0  0  0  0  0
   -1.0554  -12.2659    1.0628 H   0  0  0  0  0  0  0  0  0  0  0  0
   -4.2607  -12.6881    3.3434 H   0  0  0  0  0  0  0  0  0  0  0  0
   -4.2347  -13.7701    5.5601 H   0  0  0  0  0  0  0  0  0  0  0  0
   -4.8530  -12.4179    7.5752 H   0  0  0  0  0  0  0  0  0  0  0  0
   -5.4325  -10.0078    7.2611 H   0  0  0  0  0  0  0  0  0  0  0  0
   -4.4803   -0.2247    0.0110 H   0  0  0  0  0  0  0  0  0  0  0  0
   -3.6566    2.0402    0.0193 H   0  0  0  0  0  0  0  0  0  0  0  0
    0.8389    1.9543   -0.0227 H   0  0  0  0  0  0  0  0  0  0  0  0
  1  2  1  0  0  0  0
  2  3  1  0  0  0  0
  2 35  2  0  0  0  0
  3  4  2  0  0  0  0
  3 36  1  0  0  0  0
  4  5  1  0  0  0  0
  4 37  1  0  0  0  0
  5  6  2  0  0  0  0
  5 34  1  0  0  0  0
  6  7  1  0  0  0  0
  6 31  1  0  0  0  0
  7  8  1  0  0  0  0
  7 38  1  0  0  0  0
  8  9  1  0  0  0  0
  8 39  1  0  0  0  0
  8 40  1  0  0  0  0
  9 10  1  0  0  0  0
  9 41  1  0  0  0  0
  9 42  1  0  0  0  0
 10 11  1  0  0  0  0
 10 43  1  0  0  0  0
 10 44  1  0  0  0  0
 11 12  1  0  0  0  0
 11 16  1  0  0  0  0
 12 13  1  0  0  0  0
 12 45  1  0  0  0  0
 12 46  1  0  0  0  0
 13 14  1  0  0  0  0
 13 47  1  0  0  0  0
 13 48  1  0  0  0  0
 14 15  1  0  0  0  0
 14 17  1  0  0  0  0
 14 49  1  0  0  0  0
 15 16  1  0  0  0  0
 15 50  1  0  0  0  0
 15 51  1  0  0  0  0
 16 52  1  0  0  0  0
 16 53  1  0  0  0  0
 17 18  1  0  0  0  0
 17 54  1  0  0  0  0
 18 19  1  0  0  0  0
 18 25  1  0  0  0  0
 18 55  1  0  0  0  0
 19 20  2  0  0  0  0
 19 24  1  0  0  0  0
 20 21  1  0  0  0  0
 20 56  1  0  0  0  0
 21 22  2  0  0  0  0
 21 57  1  0  0  0  0
 22 23  1  0  0  0  0
 22 58  1  0  0  0  0
 23 24  2  0  0  0  0
 23 59  1  0  0  0  0
 25 26  2  0  0  0  0
 25 30  1  0  0  0  0
 26 27  1  0  0  0  0
 26 60  1  0  0  0  0
 27 28  2  0  0  0  0
 27 61  1  0  0  0  0
 28 29  1  0  0  0  0
 28 62  1  0  0  0  0
 29 30  2  0  0  0  0
 29 63  1  0  0  0  0
 31 32  2  0  0  0  0
 31 64  1  0  0  0  0
 32 33  1  0  0  0  0
 32 65  1  0  0  0  0
 33 34  2  0  0  0  0
 34 35  1  0  0  0  0
 35 66  1  0  0  0  0
M  END
>  <DRUGBANK_ID>
DB18600

>  <COMMON_NAME>
DM-1157

>  <CAS_NUMBER>
1239953-66-2

>  <UNII>
6X58GJ0RMS

>  <SYNONYMS>
4-quinolinamine, 7-chloro-n-(3-(4-((di-2-pyridinylmethyl)amino)-1-piperidinyl)propyl)-

$$$$
