
 OpenBabel10282417223D

 26 27  0  0  0  0  0  0  0  0999 V2000
    0.0082   -0.6961    0.0307 C   0  0  0  0  0  0  0  0  0  0  0  0
    1.3029   -1.2762   -0.0074 C   0  0  0  0  0  0  0  0  0  0  0  0
   -0.0540    0.7317    0.0353 C   0  0  0  0  0  0  0  0  0  0  0  0
   -1.2235   -1.3977    0.0260 C   0  0  0  0  0  0  0  0  0  0  0  0
    1.4754   -2.7109    0.0181 O   0  0  0  0  0  0  0  0  0  0  0  0
    2.4126   -0.4428   -0.1027 C   0  0  0  0  0  0  0  0  0  0  0  0
    1.1023    1.5173    0.0515 C   0  0  0  0  0  0  0  0  0  0  0  0
   -1.2761    1.3986    0.0092 C   0  0  0  0  0  0  0  0  0  0  0  0
   -2.4447   -0.7058    0.0007 C   0  0  0  0  0  0  0  0  0  0  0  0
    2.5977   -3.6069    0.0232 C   0  0  0  0  0  0  0  0  0  0  0  0
    2.3363    0.9267   -0.0145 C   0  0  0  0  0  0  0  0  0  0  0  0
   -2.4674    0.6869   -0.0102 C   0  0  0  0  0  0  0  0  0  0  0  0
    3.8421   -3.0428    0.0198 N   0  0  0  0  0  0  0  0  0  0  0  0
    2.4224   -4.8287    0.0333 O   0  0  0  0  0  0  0  0  0  0  0  0
    5.1142   -3.6959   -0.0174 C   0  0  0  0  0  0  0  0  0  0  0  0
   -1.2431   -2.4864    0.0222 H   0  0  0  0  0  0  0  0  0  0  0  0
    3.4067   -0.7460   -0.3266 H   0  0  0  0  0  0  0  0  0  0  0  0
    1.0668    2.6015    0.0746 H   0  0  0  0  0  0  0  0  0  0  0  0
   -1.3027    2.4863   -0.0110 H   0  0  0  0  0  0  0  0  0  0  0  0
   -3.3853   -1.2514   -0.0186 H   0  0  0  0  0  0  0  0  0  0  0  0
    3.2587    1.4953   -0.0493 H   0  0  0  0  0  0  0  0  0  0  0  0
   -3.4084    1.2289   -0.0338 H   0  0  0  0  0  0  0  0  0  0  0  0
    3.9566   -2.0906    0.2527 H   0  0  0  0  0  0  0  0  0  0  0  0
    5.6257   -3.3472   -0.9202 H   0  0  0  0  0  0  0  0  0  0  0  0
    5.6759   -3.3239    0.8460 H   0  0  0  0  0  0  0  0  0  0  0  0
    5.0177   -4.7766    0.0037 H   0  0  0  0  0  0  0  0  0  0  0  0
  1  2  2  0  0  0  0
  1  3  1  0  0  0  0
  1  4  1  0  0  0  0
  2  5  1  0  0  0  0
  2  6  1  0  0  0  0
  3  7  2  0  0  0  0
  3  8  1  0  0  0  0
  4  9  2  0  0  0  0
  4 16  1  0  0  0  0
  5 10  1  0  0  0  0
  6 11  2  0  0  0  0
  6 17  1  0  0  0  0
  7 11  1  0  0  0  0
  7 18  1  0  0  0  0
  8 12  2  0  0  0  0
  8 19  1  0  0  0  0
  9 12  1  0  0  0  0
  9 20  1  0  0  0  0
 10 13  1  0  0  0  0
 10 14  2  0  0  0  0
 11 21  1  0  0  0  0
 12 22  1  0  0  0  0
 13 15  1  0  0  0  0
 13 23  1  0  0  0  0
 15 24  1  0  0  0  0
 15 25  1  0  0  0  0
 15 26  1  0  0  0  0
M  END
>  <DRUGBANK_ID>
DB15930

>  <COMMON_NAME>
Carbaryl

>  <CAS_NUMBER>
63-25-2

>  <UNII>
R890C8J3N1

>  <SYNONYMS>
Carbaril; Carbarilo; Carbarilum; Karbaryl

$$$$
