
 OpenBabel10282417143D

 17 16  0  0  0  0  0  0  0  0999 V2000
    1.0625    0.0651    0.1390 C   0  0  0  0  0  0  0  0  0  0  0  0
    0.5217   -0.7040    0.9232 O   0  0  0  0  0  0  0  0  0  0  0  0
    0.3261    0.9951   -0.8285 C   0  0  1  0  0  0  0  0  0  0  0  0
    0.6829    2.4052   -0.5810 N   0  0  0  0  0  0  0  0  0  0  0  0
    0.6154    0.6020   -2.2812 C   0  0  0  0  0  0  0  0  0  0  0  0
    2.4053    0.1114    0.0372 O   0  0  0  0  0  0  0  0  0  0  0  0
    0.2232   -0.8438   -2.5984 C   0  0  0  0  0  0  0  0  0  0  0  0
   -1.5703   -1.1456   -2.4653 S   0  0  0  0  0  0  0  0  0  0  0  0
   -0.7438    0.9095   -0.6186 H   0  0  0  0  0  0  0  0  0  0  0  0
    0.1329    2.9964   -1.2039 H   0  0  0  0  0  0  0  0  0  0  0  0
    0.3906    2.6497    0.3659 H   0  0  0  0  0  0  0  0  0  0  0  0
    0.0991    1.2826   -2.9712 H   0  0  0  0  0  0  0  0  0  0  0  0
    1.6886    0.7194   -2.4893 H   0  0  0  0  0  0  0  0  0  0  0  0
    2.7419   -0.5193    0.7055 H   0  0  0  0  0  0  0  0  0  0  0  0
    0.5178   -1.0805   -3.6252 H   0  0  0  0  0  0  0  0  0  0  0  0
    0.7530   -1.5444   -1.9447 H   0  0  0  0  0  0  0  0  0  0  0  0
   -1.7189   -0.8538   -1.1617 H   0  0  0  0  0  0  0  0  0  0  0  0
  1  2  2  0  0  0  0
  1  3  1  0  0  0  0
  3  4  1  0  0  0  0
  3  5  1  0  0  0  0
  3  9  1  1  0  0  0
  4 10  1  0  0  0  0
  4 11  1  0  0  0  0
  5 12  1  0  0  0  0
  5 13  1  0  0  0  0
  6  1  1  0  0  0  0
  6 14  1  0  0  0  0
  7  5  1  0  0  0  0
  7 15  1  0  0  0  0
  7 16  1  0  0  0  0
  8  7  1  0  0  0  0
  8 17  1  0  0  0  0
M  END
>  <DRUGBANK_ID>
DB04422

>  <SECONDARY_ACCESSION_NUMBERS>
EXPT01710

>  <COMMON_NAME>
Homocysteine

>  <CAS_NUMBER>
6027-13-0

>  <UNII>
0LVT1QZ0BA

>  <SYNONYMS>
L-2-amino-4-mercaptobutyric acid; L-Homocysteine

$$$$
