
 OpenBabel10282417133D

 53 56  0  0  0  0  0  0  0  0999 V2000
    1.6801    0.4426    0.2431 O   0  0  0  0  0  0  0  0  0  0  0  0
   -1.9049    0.8703    0.0858 O   0  0  0  0  0  0  0  0  0  0  0  0
   -0.7808   -1.4971    0.7004 O   0  0  0  0  0  0  0  0  0  0  0  0
    0.0820   -1.7437   -6.9800 O   0  0  0  0  0  0  0  0  0  0  0  0
    3.4252    0.3720   -6.4206 O   0  0  0  0  0  0  0  0  0  0  0  0
    3.6071    2.9831   -6.9724 O   0  0  0  0  0  0  0  0  0  0  0  0
   -0.8614    4.4719   -8.4174 O   0  5  0  0  0  0  0  0  0  0  0  0
   -2.1727    2.7271   -8.2022 O   0  0  0  0  0  0  0  0  0  0  0  0
    0.8756    2.6237   -0.0314 N   0  0  0  0  0  0  0  0  0  0  0  0
    1.6882    4.6727    0.3008 N   0  0  0  0  0  0  0  0  0  0  0  0
    1.0418    2.5003   -2.4654 N   0  0  0  0  0  0  0  0  0  0  0  0
    1.3479   -1.3939   -5.1350 N   0  0  0  0  0  0  0  0  0  0  0  0
    2.1350    4.4702   -3.3731 N   0  0  0  0  0  0  0  0  0  0  0  0
    2.8869    6.2531   -2.0507 N   0  0  0  0  0  0  0  0  0  0  0  0
   -1.0730    3.2886   -8.1167 N   0  3  0  0  0  0  0  0  0  0  0  0
   -0.6155    0.6290   -0.4742 C   0  0  1  0  0  0  0  0  0  0  0  0
    0.5058    1.2756    0.3349 C   0  0  1  0  0  0  0  0  0  0  0  0
   -0.2196   -0.8439   -0.4446 C   0  0  1  0  0  0  0  0  0  0  0  0
    1.3157   -0.8005   -0.3798 C   0  0  1  0  0  0  0  0  0  0  0  0
    2.0030   -0.8777   -1.7074 C   0  0  0  0  0  0  0  0  0  0  0  0
    1.1880    3.1033   -1.2744 C   0  0  0  0  0  0  0  0  0  0  0  0
    1.1408    3.6223    0.8717 C   0  0  0  0  0  0  0  0  0  0  0  0
    1.7417    4.3519   -1.0397 C   0  0  0  0  0  0  0  0  0  0  0  0
    1.3983   -0.6191   -2.8755 C   0  0  0  0  0  0  0  0  0  0  0  0
    2.0885   -0.6096   -4.1679 C   0  0  0  0  0  0  0  0  0  0  0  0
    2.2548    5.0366   -2.1532 C   0  0  0  0  0  0  0  0  0  0  0  0
    1.5328    3.2688   -3.4572 C   0  0  0  0  0  0  0  0  0  0  0  0
    0.7751   -0.9726   -6.3116 C   0  0  0  0  0  0  0  0  0  0  0  0
    0.9964    0.4132   -6.7915 C   0  0  0  0  0  0  0  0  0  0  0  0
    2.2645    1.0131   -6.7779 C   0  0  0  0  0  0  0  0  0  0  0  0
   -0.1100    1.1487   -7.2564 C   0  0  0  0  0  0  0  0  0  0  0  0
    0.0627    2.4962   -7.6243 C   0  0  0  0  0  0  0  0  0  0  0  0
    2.3993    2.3606   -7.0994 C   0  0  0  0  0  0  0  0  0  0  0  0
    1.3148    3.1122   -7.5191 C   0  0  0  0  0  0  0  0  0  0  0  0
    1.1305   -2.3572   -4.8930 H   0  0  0  0  0  0  0  0  0  0  0  0
    2.9717    6.6788   -1.1390 H   0  0  0  0  0  0  0  0  0  0  0  0
    3.2273    6.6937   -2.8894 H   0  0  0  0  0  0  0  0  0  0  0  0
   -2.0156    0.2798    0.8532 H   0  0  0  0  0  0  0  0  0  0  0  0
   -0.3970   -1.1177    1.5067 H   0  0  0  0  0  0  0  0  0  0  0  0
    3.2320   -0.5742   -6.2743 H   0  0  0  0  0  0  0  0  0  0  0  0
    4.2304    2.3113   -6.6310 H   0  0  0  0  0  0  0  0  0  0  0  0
   -0.6445    0.9998   -1.4993 H   0  0  0  0  0  0  0  0  0  0  0  0
    0.2192    1.2987    1.3940 H   0  0  0  0  0  0  0  0  0  0  0  0
   -0.5893   -1.3979   -1.3139 H   0  0  0  0  0  0  0  0  0  0  0  0
    1.7123   -1.6031    0.2511 H   0  0  0  0  0  0  0  0  0  0  0  0
    3.0551   -1.1627   -1.6968 H   0  0  0  0  0  0  0  0  0  0  0  0
    0.9473    3.5176    1.9318 H   0  0  0  0  0  0  0  0  0  0  0  0
    0.3804   -0.2468   -2.9233 H   0  0  0  0  0  0  0  0  0  0  0  0
    2.1261    0.4382   -4.4464 H   0  0  0  0  0  0  0  0  0  0  0  0
    3.0977   -1.0223   -4.1057 H   0  0  0  0  0  0  0  0  0  0  0  0
    1.4371    2.8626   -4.4562 H   0  0  0  0  0  0  0  0  0  0  0  0
   -1.0892    0.6723   -7.3203 H   0  0  0  0  0  0  0  0  0  0  0  0
    1.4649    4.1610   -7.7622 H   0  0  0  0  0  0  0  0  0  0  0  0
  1 17  1  0  0  0  0
  1 19  1  0  0  0  0
  2 38  1  0  0  0  0
  3 39  1  0  0  0  0
  4 28  2  0  0  0  0
  5 30  1  0  0  0  0
  5 40  1  0  0  0  0
  6 33  1  0  0  0  0
  6 41  1  0  0  0  0
  7 15  1  0  0  0  0
  8 15  2  0  0  0  0
  9 21  1  0  0  0  0
  9 22  1  0  0  0  0
 10 22  2  0  0  0  0
 10 23  1  0  0  0  0
 11 21  2  0  0  0  0
 11 27  1  0  0  0  0
 12 25  1  0  0  0  0
 12 28  1  0  0  0  0
 12 35  1  0  0  0  0
 13 26  1  0  0  0  0
 13 27  2  0  0  0  0
 14 26  1  0  0  0  0
 14 36  1  0  0  0  0
 14 37  1  0  0  0  0
 15 32  1  0  0  0  0
 16  2  1  0  0  0  0
 16 17  1  0  0  0  0
 16 18  1  0  0  0  0
 16 42  1  6  0  0  0
 17 43  1  1  0  0  0
 17  9  1  0  0  0  0
 18  3  1  0  0  0  0
 18 19  1  0  0  0  0
 18 44  1  6  0  0  0
 19 45  1  1  0  0  0
 19 20  1  0  0  0  0
 20 24  2  0  0  0  0
 20 46  1  0  0  0  0
 21 23  1  0  0  0  0
 22 47  1  0  0  0  0
 23 26  2  0  0  0  0
 24 25  1  0  0  0  0
 24 48  1  0  0  0  0
 25 49  1  0  0  0  0
 25 50  1  0  0  0  0
 27 51  1  0  0  0  0
 28 29  1  0  0  0  0
 29 30  2  0  0  0  0
 29 31  1  0  0  0  0
 30 33  1  0  0  0  0
 31 32  2  0  0  0  0
 31 52  1  0  0  0  0
 32 34  1  0  0  0  0
 33 34  2  0  0  0  0
 34 53  1  0  0  0  0
M  CHG  2   7  -1  15   1
M  END
>  <DRUGBANK_ID>
DB03907

>  <SECONDARY_ACCESSION_NUMBERS>
EXPT00934

>  <COMMON_NAME>
N-[(E)-3-[(2R,3S,4R,5R)-5-(6-Aminopurin-9-yl)-3,4-dihydroxyoxolan-2-yl]prop-2-enyl]-2,3-dihydroxy-5-nitrobenzamide

$$$$
