
 OpenBabel10282417133D

 93 97  0  0  1  0  0  0  0  0999 V2000
   -2.2890    4.1452   -0.8988 C   0  0  0  0  0  0  0  0  0  0  0  0
   -2.2527    0.4465    4.9103 C   0  0  0  0  0  0  0  0  0  0  0  0
   -1.7451    1.4511    0.0470 C   0  0  0  0  0  0  0  0  0  0  0  0
   -3.9363    7.0572    4.2484 C   0  0  0  0  0  0  0  0  0  0  0  0
  -10.3695    0.6416    4.8140 C   0  0  0  0  0  0  0  0  0  0  0  0
   -1.0549    3.8940   -0.0355 C   0  0  0  0  0  0  0  0  0  0  0  0
   -2.5345    6.2134    5.8195 C   0  0  0  0  0  0  0  0  0  0  0  0
   -7.2776    5.4401    1.3228 C   0  0  0  0  0  0  0  0  0  0  0  0
   -2.8651    4.9569    6.1280 C   0  0  0  0  0  0  0  0  0  0  0  0
   -6.1347    1.8104    3.2013 C   0  0  0  0  0  0  0  0  0  0  0  0
   -2.7159    6.8845    1.3402 C   0  0  0  0  0  0  0  0  0  0  0  0
   -8.1157    4.6341    2.0523 C   0  0  0  0  0  0  0  0  0  0  0  0
   -1.6901    6.1270    2.0800 C   0  0  0  0  0  0  0  0  0  0  0  0
   -6.9808    1.0496    3.9738 C   0  0  0  0  0  0  0  0  0  0  0  0
   -3.2262    2.6590    5.5191 C   0  0  0  0  0  0  0  0  0  0  0  0
   -3.1362    1.8084    3.1119 C   0  0  0  0  0  0  0  0  0  0  0  0
   -5.5483    3.9625    1.7987 C   0  0  0  0  0  0  0  0  0  0  0  0
   -3.3838    9.5656    2.2238 C   0  0  0  0  0  0  0  0  0  0  0  0
   -5.8318    9.7483    1.9660 C   0  0  0  0  0  0  0  0  0  0  0  0
   -5.0901    6.1972    0.4783 C   0  0  0  0  0  0  0  0  0  0  0  0
  -10.1174    3.0120    3.2336 C   0  0  0  0  0  0  0  0  0  0  0  0
   -3.3097    1.4884    4.5982 C   0  0  1  0  0  0  0  0  0  0  0  0
   -0.6677    2.4805    0.3438 C   0  0  1  0  0  0  0  0  0  0  0  0
   -2.4632    6.6491    4.4077 C   0  0  1  0  0  0  0  0  0  0  0  0
   -5.9482    5.1966    1.2419 C   0  0  0  0  0  0  0  0  0  0  0  0
   -6.4134    3.0671    2.5737 C   0  0  0  0  0  0  0  0  0  0  0  0
   -2.9648    3.9113    5.1280 C   0  0  0  0  0  0  0  0  0  0  0  0
   -3.4054    8.1849    1.4991 C   0  0  1  0  0  0  0  0  0  0  0  0
   -4.6938    9.9387    2.9133 C   0  0  2  0  0  0  0  0  0  0  0  0
   -1.9026    5.5535    3.4953 C   0  0  1  0  0  0  0  0  0  0  0  0
   -7.7353    3.4442    2.6902 C   0  0  0  0  0  0  0  0  0  0  0  0
   -8.6834    2.5970    3.3519 C   0  0  0  0  0  0  0  0  0  0  0  0
   -8.2881    1.4118    4.0174 C   0  0  0  0  0  0  0  0  0  0  0  0
   -2.3357    3.0393    2.7992 C   0  0  1  0  0  0  0  0  0  0  0  0
   -5.9447    8.4205    1.3405 C   0  0  0  0  0  0  0  0  0  0  0  0
   -2.7756    4.2672    3.6593 C   0  0  1  0  0  0  0  0  0  0  0  0
   -0.1572    2.4161    1.8203 C   0  0  0  0  0  0  0  0  0  0  0  0
   -4.8519    7.6293    1.1782 N   0  0  0  0  0  0  0  0  0  0  0  0
  -10.8270    2.1624    2.3490 O   0  0  0  0  0  0  0  0  0  0  0  0
   -4.6185   11.3208    3.2700 O   0  0  0  0  0  0  0  0  0  0  0  0
   -7.0783    8.1354    0.8678 O   0  0  0  0  0  0  0  0  0  0  0  0
    1.0319    2.1502    2.0523 O   0  0  0  0  0  0  0  0  0  0  0  0
   -8.9850    0.4611    4.6961 O   0  0  0  0  0  0  0  0  0  0  0  0
   -0.9495    2.7224    2.8760 O   0  0  0  0  0  0  0  0  0  0  0  0
   -4.2621    0.9980    4.8245 H   0  0  0  0  0  0  0  0  0  0  0  0
    0.2036    2.2769   -0.2831 H   0  0  0  0  0  0  0  0  0  0  0  0
   -1.7857    7.5031    4.3011 H   0  0  0  0  0  0  0  0  0  0  0  0
   -2.8670    8.0021    2.4251 H   0  0  0  0  0  0  0  0  0  0  0  0
   -4.8975    9.4191    3.8531 H   0  0  0  0  0  0  0  0  0  0  0  0
   -0.8997    5.2335    3.8073 H   0  0  0  0  0  0  0  0  0  0  0  0
   -2.6101    3.2601    1.7739 H   0  0  0  0  0  0  0  0  0  0  0  0
   -3.7860    4.5445    3.3462 H   0  0  0  0  0  0  0  0  0  0  0  0
   -2.1126    3.7567   -1.9002 H   0  0  0  0  0  0  0  0  0  0  0  0
   -2.5183    5.2060   -1.0155 H   0  0  0  0  0  0  0  0  0  0  0  0
   -3.2120    3.7045   -0.5006 H   0  0  0  0  0  0  0  0  0  0  0  0
   -2.2940    0.1452    5.9560 H   0  0  0  0  0  0  0  0  0  0  0  0
   -2.4310   -0.4411    4.2895 H   0  0  0  0  0  0  0  0  0  0  0  0
   -1.2576    0.8319    4.6749 H   0  0  0  0  0  0  0  0  0  0  0  0
   -1.3527    0.6937   -0.6260 H   0  0  0  0  0  0  0  0  0  0  0  0
   -2.0736    0.9394    0.9372 H   0  0  0  0  0  0  0  0  0  0  0  0
   -2.6507    1.8387   -0.4224 H   0  0  0  0  0  0  0  0  0  0  0  0
   -4.1101    7.9402    4.8610 H   0  0  0  0  0  0  0  0  0  0  0  0
   -4.2575    7.3370    3.2818 H   0  0  0  0  0  0  0  0  0  0  0  0
   -4.6865    6.2907    4.4505 H   0  0  0  0  0  0  0  0  0  0  0  0
  -10.5717    1.5739    5.3394 H   0  0  0  0  0  0  0  0  0  0  0  0
  -10.8321    0.5556    3.8339 H   0  0  0  0  0  0  0  0  0  0  0  0
  -10.7862   -0.1583    5.4194 H   0  0  0  0  0  0  0  0  0  0  0  0
   -0.2512    4.5908   -0.2889 H   0  0  0  0  0  0  0  0  0  0  0  0
   -1.1829    4.1791    0.9607 H   0  0  0  0  0  0  0  0  0  0  0  0
   -2.5478    7.0074    6.5568 H   0  0  0  0  0  0  0  0  0  0  0  0
   -7.7374    6.2488    0.7849 H   0  0  0  0  0  0  0  0  0  0  0  0
   -3.1108    4.7315    7.1585 H   0  0  0  0  0  0  0  0  0  0  0  0
   -5.2544    1.2226    3.1054 H   0  0  0  0  0  0  0  0  0  0  0  0
   -2.6116    6.7309    0.2696 H   0  0  0  0  0  0  0  0  0  0  0  0
   -3.4762    6.2264    1.8069 H   0  0  0  0  0  0  0  0  0  0  0  0
   -9.1177    5.0252    2.0390 H   0  0  0  0  0  0  0  0  0  0  0  0
   -0.6837    6.4304    1.8069 H   0  0  0  0  0  0  0  0  0  0  0  0
   -1.9930    5.2832    1.5256 H   0  0  0  0  0  0  0  0  0  0  0  0
   -6.6066    0.1382    4.4445 H   0  0  0  0  0  0  0  0  0  0  0  0
   -3.3989    2.4548    6.5730 H   0  0  0  0  0  0  0  0  0  0  0  0
   -2.8752    0.8824    2.5988 H   0  0  0  0  0  0  0  0  0  0  0  0
   -4.0057    2.0780    2.5530 H   0  0  0  0  0  0  0  0  0  0  0  0
   -4.5306    3.6783    1.5984 H   0  0  0  0  0  0  0  0  0  0  0  0
   -3.1024   10.3336    1.5080 H   0  0  0  0  0  0  0  0  0  0  0  0
   -2.5961    9.6579    3.0081 H   0  0  0  0  0  0  0  0  0  0  0  0
   -6.7706    9.9426    2.4975 H   0  0  0  0  0  0  0  0  0  0  0  0
   -5.7425   10.4500    1.1363 H   0  0  0  0  0  0  0  0  0  0  0  0
   -5.4077    6.3694   -0.5536 H   0  0  0  0  0  0  0  0  0  0  0  0
   -4.1880    5.6061    0.3129 H   0  0  0  0  0  0  0  0  0  0  0  0
  -10.5483    3.1173    4.2241 H   0  0  0  0  0  0  0  0  0  0  0  0
  -10.2826    3.9978    2.8303 H   0  0  0  0  0  0  0  0  0  0  0  0
  -10.1797    1.7810    1.7272 H   0  0  0  0  0  0  0  0  0  0  0  0
   -4.5228   11.8197    2.4411 H   0  0  0  0  0  0  0  0  0  0  0  0
  1 53  1  0  0  0  0
  1 54  1  0  0  0  0
  1 55  1  0  0  0  0
  2 56  1  0  0  0  0
  2 57  1  0  0  0  0
  2 58  1  0  0  0  0
  3 59  1  0  0  0  0
  3 60  1  0  0  0  0
  3 61  1  0  0  0  0
  4 62  1  0  0  0  0
  4 63  1  0  0  0  0
  4 64  1  0  0  0  0
  5 65  1  0  0  0  0
  5 66  1  0  0  0  0
  5 67  1  0  0  0  0
  6  1  1  0  0  0  0
  6 68  1  0  0  0  0
  6 69  1  0  0  0  0
  7 70  1  0  0  0  0
  8 71  1  0  0  0  0
  9  7  2  0  0  0  0
  9 72  1  0  0  0  0
 10 73  1  0  0  0  0
 11 74  1  0  0  0  0
 11 75  1  0  0  0  0
 12  8  2  0  0  0  0
 12 76  1  0  0  0  0
 13 11  1  0  0  0  0
 13 77  1  0  0  0  0
 13 78  1  0  0  0  0
 14 10  2  0  0  0  0
 14 79  1  0  0  0  0
 15 80  1  0  0  0  0
 16 81  1  0  0  0  0
 16 82  1  0  0  0  0
 17 83  1  0  0  0  0
 18 84  1  0  0  0  0
 18 85  1  0  0  0  0
 19 86  1  0  0  0  0
 19 87  1  0  0  0  0
 20 88  1  0  0  0  0
 20 89  1  0  0  0  0
 21 90  1  0  0  0  0
 21 91  1  0  0  0  0
 22  2  1  0  0  0  0
 22 15  1  0  0  0  0
 22 16  1  0  0  0  0
 22 45  1  1  0  0  0
 23 46  1  6  0  0  0
 23  6  1  0  0  0  0
 23  3  1  0  0  0  0
 24  4  1  0  0  0  0
 24  7  1  0  0  0  0
 24 47  1  6  0  0  0
 25  8  1  0  0  0  0
 25 17  2  0  0  0  0
 25 20  1  0  0  0  0
 26 10  1  0  0  0  0
 26 17  1  0  0  0  0
 27  9  1  0  0  0  0
 27 15  2  0  0  0  0
 28 18  1  0  0  0  0
 28 48  1  1  0  0  0
 28 11  1  0  0  0  0
 29 18  1  0  0  0  0
 29 19  1  0  0  0  0
 29 40  1  0  0  0  0
 29 49  1  1  0  0  0
 30 24  1  0  0  0  0
 30 50  1  1  0  0  0
 30 13  1  0  0  0  0
 31 12  1  0  0  0  0
 31 26  2  0  0  0  0
 32 21  1  0  0  0  0
 32 31  1  0  0  0  0
 33 14  1  0  0  0  0
 33 32  2  0  0  0  0
 34 16  1  0  0  0  0
 34 51  1  6  0  0  0
 34 44  1  0  0  0  0
 35 19  1  0  0  0  0
 36 27  1  0  0  0  0
 36 30  1  0  0  0  0
 36 34  1  0  0  0  0
 36 52  1  6  0  0  0
 37 23  1  0  0  0  0
 38 20  1  0  0  0  0
 38 28  1  0  0  0  0
 38 35  1  0  0  0  0
 39 21  1  0  0  0  0
 39 92  1  0  0  0  0
 40 93  1  0  0  0  0
 41 35  2  0  0  0  0
 42 37  2  0  0  0  0
 43  5  1  0  0  0  0
 43 33  1  0  0  0  0
 44 37  1  0  0  0  0
M  END
>  <DRUGBANK_ID>
DB03932

>  <SECONDARY_ACCESSION_NUMBERS>
EXPT00387

>  <COMMON_NAME>
LFA703

>  <UNII>
ZT4887FB5E

$$$$
