
 OpenBabel10282417223D

 50 52  0  0  0  0  0  0  0  0999 V2000
    0.5521    0.1342    0.2339 C   0  0  0  0  0  0  0  0  0  0  0  0
    0.1325    1.2530    1.1924 C   0  0  0  0  0  0  0  0  0  0  0  0
   -0.0648    0.3374   -1.2172 C   0  0  0  0  0  0  0  0  0  0  0  0
    0.3384   -1.3704    0.6712 C   0  0  0  0  0  0  0  0  0  0  0  0
    1.9332    0.2589    0.5742 O   0  0  0  0  0  0  0  0  0  0  0  0
   -0.0813    0.9435    2.5235 C   0  0  0  0  0  0  0  0  0  0  0  0
    0.4028    2.6238    0.8898 C   0  0  0  0  0  0  0  0  0  0  0  0
   -0.4211   -0.7575   -2.0354 C   0  0  0  0  0  0  0  0  0  0  0  0
   -0.2587    1.5947   -1.8607 C   0  0  0  0  0  0  0  0  0  0  0  0
    1.4065   -2.2450    0.7620 O   0  0  0  0  0  0  0  0  0  0  0  0
   -0.7781   -1.8236    0.8555 O   0  0  0  0  0  0  0  0  0  0  0  0
   -0.1051    1.9657    3.4649 C   0  0  0  0  0  0  0  0  0  0  0  0
    0.4425    3.6311    1.8211 C   0  0  0  0  0  0  0  0  0  0  0  0
   -0.8850   -0.5836   -3.3653 C   0  0  0  0  0  0  0  0  0  0  0  0
   -0.7389    1.7901   -3.1645 C   0  0  0  0  0  0  0  0  0  0  0  0
    2.8597   -2.0316    0.6842 C   0  0  0  0  0  0  0  0  0  0  0  0
    0.1364    3.2994    3.1137 C   0  0  0  0  0  0  0  0  0  0  0  0
   -1.0243    0.6860   -3.9336 C   0  0  0  0  0  0  0  0  0  0  0  0
    3.4128   -1.7895   -0.7529 C   0  0  0  0  0  0  0  0  0  0  0  0
    3.0462   -0.5411   -1.4375 N   0  0  0  0  0  0  0  0  0  0  0  0
    3.8773    0.6276   -1.1077 C   0  0  0  0  0  0  0  0  0  0  0  0
    2.8639   -0.6702   -2.8733 C   0  0  0  0  0  0  0  0  0  0  0  0
    3.1285    1.9127   -1.4821 C   0  0  0  0  0  0  0  0  0  0  0  0
    2.2876    0.6067   -3.4689 C   0  0  0  0  0  0  0  0  0  0  0  0
    2.7971    1.9501   -2.9612 C   0  0  0  0  0  0  0  0  0  0  0  0
    2.2137    1.1646    0.7414 H   0  0  0  0  0  0  0  0  0  0  0  0
   -0.1259   -0.0944    2.8447 H   0  0  0  0  0  0  0  0  0  0  0  0
    0.7443    2.9997   -0.0548 H   0  0  0  0  0  0  0  0  0  0  0  0
   -0.2030   -1.7795   -1.7293 H   0  0  0  0  0  0  0  0  0  0  0  0
    0.2125    2.5014   -1.5452 H   0  0  0  0  0  0  0  0  0  0  0  0
   -0.2767    1.7018    4.4990 H   0  0  0  0  0  0  0  0  0  0  0  0
    0.7444    4.6271    1.5049 H   0  0  0  0  0  0  0  0  0  0  0  0
   -0.9990   -1.4552   -4.0029 H   0  0  0  0  0  0  0  0  0  0  0  0
   -0.6465    2.7830   -3.6065 H   0  0  0  0  0  0  0  0  0  0  0  0
    3.2023   -1.3173    1.4433 H   0  0  0  0  0  0  0  0  0  0  0  0
    3.2963   -2.9828    1.0286 H   0  0  0  0  0  0  0  0  0  0  0  0
    0.1048    4.0877    3.8507 H   0  0  0  0  0  0  0  0  0  0  0  0
   -1.1755    0.8152   -5.0006 H   0  0  0  0  0  0  0  0  0  0  0  0
    4.5050   -1.8545   -0.7250 H   0  0  0  0  0  0  0  0  0  0  0  0
    3.0491   -2.6397   -1.3410 H   0  0  0  0  0  0  0  0  0  0  0  0
    4.8236    0.5906   -1.6449 H   0  0  0  0  0  0  0  0  0  0  0  0
    4.1234    0.6630   -0.0385 H   0  0  0  0  0  0  0  0  0  0  0  0
    2.1402   -1.4788   -3.0578 H   0  0  0  0  0  0  0  0  0  0  0  0
    3.7954   -0.9249   -3.3687 H   0  0  0  0  0  0  0  0  0  0  0  0
    3.6453    2.8181   -1.1493 H   0  0  0  0  0  0  0  0  0  0  0  0
    2.1922    1.9652   -0.9476 H   0  0  0  0  0  0  0  0  0  0  0  0
    1.2884    0.5604   -3.1368 H   0  0  0  0  0  0  0  0  0  0  0  0
    2.1548    0.5767   -4.5519 H   0  0  0  0  0  0  0  0  0  0  0  0
    2.0392    2.7310   -3.1327 H   0  0  0  0  0  0  0  0  0  0  0  0
    3.6812    2.2355   -3.5214 H   0  0  0  0  0  0  0  0  0  0  0  0
  1  2  1  0  0  0  0
  1  3  1  0  0  0  0
  1  4  1  0  0  0  0
  1  5  1  0  0  0  0
  2  6  1  0  0  0  0
  2  7  2  0  0  0  0
  3  8  2  0  0  0  0
  3  9  1  0  0  0  0
  4 10  1  0  0  0  0
  4 11  2  0  0  0  0
  5 26  1  0  0  0  0
  6 12  2  0  0  0  0
  6 27  1  0  0  0  0
  7 13  1  0  0  0  0
  7 28  1  0  0  0  0
  8 14  1  0  0  0  0
  8 29  1  0  0  0  0
  9 15  2  0  0  0  0
  9 30  1  0  0  0  0
 10 16  1  0  0  0  0
 12 17  1  0  0  0  0
 12 31  1  0  0  0  0
 13 17  2  0  0  0  0
 13 32  1  0  0  0  0
 14 18  2  0  0  0  0
 14 33  1  0  0  0  0
 15 18  1  0  0  0  0
 15 34  1  0  0  0  0
 16 19  1  0  0  0  0
 16 35  1  0  0  0  0
 16 36  1  0  0  0  0
 17 37  1  0  0  0  0
 18 38  1  0  0  0  0
 19 20  1  0  0  0  0
 19 39  1  0  0  0  0
 19 40  1  0  0  0  0
 20 21  1  0  0  0  0
 20 22  1  0  0  0  0
 21 23  1  0  0  0  0
 21 41  1  0  0  0  0
 21 42  1  0  0  0  0
 22 24  1  0  0  0  0
 22 43  1  0  0  0  0
 22 44  1  0  0  0  0
 23 25  1  0  0  0  0
 23 45  1  0  0  0  0
 23 46  1  0  0  0  0
 24 25  1  0  0  0  0
 24 47  1  0  0  0  0
 24 48  1  0  0  0  0
 25 49  1  0  0  0  0
 25 50  1  0  0  0  0
M  END
>  <DRUGBANK_ID>
DB15888

>  <COMMON_NAME>
Pipethanate

>  <CAS_NUMBER>
4546-39-8

>  <UNII>
P32MG14U83

>  <SYNONYMS>
Piperilate; Pipetanato; Pipethanate; Pipethanatum

$$$$
