
 OpenBabel10282417133D

 41 43  0  0  1  0  0  0  0  0999 V2000
    0.9766   -0.0837   -0.1293 C   0  0  0  0  0  0  0  0  0  0  0  0
    3.4647    0.6648   -4.4846 C   0  0  0  0  0  0  0  0  0  0  0  0
    3.4120   -3.6284   -3.7073 C   0  0  0  0  0  0  0  0  0  0  0  0
    0.3922   -1.2980   -0.9205 C   0  0  2  0  0  0  0  0  0  0  0  0
    4.2499   -1.8848   -4.5953 C   0  0  0  0  0  0  0  0  0  0  0  0
    0.7079   -2.6861   -0.4233 C   0  0  2  0  0  0  0  0  0  0  0  0
    1.7651   -3.3073   -1.2802 C   0  0  2  0  0  0  0  0  0  0  0  0
    4.9712   -0.9097   -5.2889 C   0  0  0  0  0  0  0  0  0  0  0  0
    3.1459   -1.4410   -3.8968 C   0  0  0  0  0  0  0  0  0  0  0  0
    1.4103   -2.6593   -2.5733 C   0  0  2  0  0  0  0  0  0  0  0  0
    6.0826   -1.2226   -6.0318 N   0  0  0  0  0  0  0  0  0  0  0  0
    4.5538    0.3768   -5.2272 N   0  0  0  0  0  0  0  0  0  0  0  0
    2.7074   -0.1812   -3.7742 N   0  0  0  0  0  0  0  0  0  0  0  0
    4.4195   -3.2475   -4.4588 N   0  0  0  0  0  0  0  0  0  0  0  0
    2.5965   -2.5698   -3.3850 N   0  0  0  0  0  0  0  0  0  0  0  0
   -0.4485   -3.4742   -0.2642 O   0  0  0  0  0  0  0  0  0  0  0  0
    1.7076   -4.7280   -1.3805 O   0  0  0  0  0  0  0  0  0  0  0  0
    2.6876   -0.9005    1.9589 O   0  0  0  0  0  0  0  0  0  0  0  0
    0.5849   -0.8449    3.4279 O   0  0  0  0  0  0  0  0  0  0  0  0
   -0.1357   -4.2589    2.1119 O   0  0  0  0  0  0  0  0  0  0  0  0
    2.2014   -4.3831    1.1975 O   0  0  0  0  0  0  0  0  0  0  0  0
    1.6304   -5.2188    3.4663 O   0  0  0  0  0  0  0  0  0  0  0  0
    0.5653   -0.0216    1.2683 O   0  0  0  0  0  0  0  0  0  0  0  0
    0.8376   -1.3557   -2.2792 O   0  0  0  0  0  0  0  0  0  0  0  0
    1.7186   -2.7984    2.9801 O   0  0  0  0  0  0  0  0  0  0  0  0
    1.1419   -1.4100    2.1242 P   0  0  3  0  0  0  0  0  0  0  0  0
    1.4378   -4.2528    2.4212 S   0  0  0  0  0  0  0  0  0  0  0  0
    0.6456    0.8467   -0.6034 H   0  0  0  0  0  0  0  0  0  0  0  0
    2.0720   -0.0503   -0.1925 H   0  0  0  0  0  0  0  0  0  0  0  0
    3.1555    1.7046   -4.4571 H   0  0  0  0  0  0  0  0  0  0  0  0
    3.2364   -4.6427   -3.3599 H   0  0  0  0  0  0  0  0  0  0  0  0
   -0.6923   -1.1588   -0.8981 H   0  0  0  0  0  0  0  0  0  0  0  0
    1.1788   -2.6377    0.5081 H   0  0  0  0  0  0  0  0  0  0  0  0
    2.7665   -3.0132   -0.9138 H   0  0  0  0  0  0  0  0  0  0  0  0
    0.6740   -3.2738   -3.0984 H   0  0  0  0  0  0  0  0  0  0  0  0
    6.3750   -2.1891   -6.0758 H   0  0  0  0  0  0  0  0  0  0  0  0
    6.5528   -0.4867   -6.5291 H   0  0  0  0  0  0  0  0  0  0  0  0
   -0.8473   -3.6759   -1.1240 H   0  0  0  0  0  0  0  0  0  0  0  0
    0.8784   -5.0425   -0.9763 H   0  0  0  0  0  0  0  0  0  0  0  0
    3.1798   -1.2772    1.2079 H   0  0  0  0  0  0  0  0  0  0  0  0
   -0.6357   -4.4124    2.9413 H   0  0  0  0  0  0  0  0  0  0  0  0
  1 23  1  0  0  0  0
  1 28  1  0  0  0  0
  1 29  1  0  0  0  0
  2 13  2  0  0  0  0
  2 12  1  0  0  0  0
  2 30  1  0  0  0  0
  3 15  1  0  0  0  0
  3 14  2  0  0  0  0
  3 31  1  0  0  0  0
  4  1  1  0  0  0  0
  4  6  1  0  0  0  0
  4 24  1  0  0  0  0
  4 32  1  6  0  0  0
  5  8  1  0  0  0  0
  5  9  2  0  0  0  0
  5 14  1  0  0  0  0
  6  7  1  0  0  0  0
  6 16  1  0  0  0  0
  6 33  1  1  0  0  0
  7 10  1  0  0  0  0
  7 17  1  0  0  0  0
  7 34  1  1  0  0  0
  8 11  1  0  0  0  0
  8 12  2  0  0  0  0
  9 13  1  0  0  0  0
  9 15  1  0  0  0  0
 10 24  1  0  0  0  0
 10 35  1  6  0  0  0
 10 15  1  0  0  0  0
 11 36  1  0  0  0  0
 11 37  1  0  0  0  0
 16 38  1  0  0  0  0
 17 39  1  0  0  0  0
 18 26  1  0  0  0  0
 18 40  1  0  0  0  0
 19 26  2  0  0  0  0
 20 27  1  0  0  0  0
 20 41  1  0  0  0  0
 21 27  2  0  0  0  0
 22 27  2  0  0  0  0
 23 26  1  0  0  0  0
 25 26  1  0  0  0  0
 25 27  1  0  0  0  0
M  END
>  <DRUGBANK_ID>
DB03708

>  <SECONDARY_ACCESSION_NUMBERS>
EXPT00441

>  <COMMON_NAME>
Adenosine 5'-phosphosulfate

>  <CAS_NUMBER>
485-84-7

>  <UNII>
U98POO8KQU

>  <SYNONYMS>
5'-adenylyl sulfate; adenosine phosphosulfate; Adenosine-5'-phosphosulfate; Adenylylsulfate; APS

$$$$
