
 OpenBabel10282417163D

 52 51  0  0  0  0  0  0  0  0999 V2000
    0.7055    0.1969    0.1677 C   0  0  0  0  0  0  0  0  0  0  0  0
    0.1118   -1.0093   -0.6195 C   0  0  0  0  0  0  0  0  0  0  0  0
    5.6834   -0.0300   -0.3848 O   0  0  0  0  0  0  0  0  0  0  0  0
    8.0607   -0.5670   -0.1703 O   0  0  0  0  0  0  0  0  0  0  0  0
    7.4437   -1.1180    1.0500 C   0  0  0  0  0  0  0  0  0  0  0  0
    5.3864   -2.3651    0.6532 O   0  0  0  0  0  0  0  0  0  0  0  0
    6.1151   -0.3612    1.8506 C   0  0  0  0  0  0  0  0  0  0  0  0
    4.7039   -0.5740    2.0226 C   0  0  0  0  0  0  0  0  0  0  0  0
    3.7987    0.6763    2.1647 C   0  0  0  0  0  0  0  0  0  0  0  0
    3.0177    1.2546    0.9263 C   0  0  0  0  0  0  0  0  0  0  0  0
    1.9859    0.3465    0.2856 C   0  0  0  0  0  0  0  0  0  0  0  0
    0.3870   -1.1182   -2.1624 C   0  0  0  0  0  0  0  0  0  0  0  0
    1.7942   -1.4005   -2.6385 C   0  0  0  0  0  0  0  0  0  0  0  0
    2.3502   -2.5057   -3.1860 C   0  0  0  0  0  0  0  0  0  0  0  0
    1.4609   -3.6090   -3.6249 C   0  0  0  0  0  0  0  0  0  0  0  0
    7.0661    0.1058   -1.4157 P   0  0  3  0  0  0  0  0  0  0  0  0
    4.9367   -1.5724   -0.6217 P   0  0  0  0  0  0  0  0  0  0  0  0
    7.6713    1.4914   -1.1894 O   0  0  0  0  0  0  0  0  0  0  0  0
    3.7967   -0.8812   -1.1899 O   0  0  0  0  0  0  0  0  0  0  0  0
    3.6007   -1.8332    1.8482 C   0  0  0  0  0  0  0  0  0  0  0  0
   -0.1750    1.1759    0.8462 C   0  0  0  0  0  0  0  0  0  0  0  0
    3.8310   -2.7406   -3.4722 C   0  0  0  0  0  0  0  0  0  0  0  0
    6.0715    0.7785   -2.6611 O   0  0  0  0  0  0  0  0  0  0  0  0
    4.1900   -3.1149   -0.8585 O   0  0  0  0  0  0  0  0  0  0  0  0
    0.4334   -1.9495   -0.1383 H   0  0  0  0  0  0  0  0  0  0  0  0
   -0.9758   -0.9870   -0.4959 H   0  0  0  0  0  0  0  0  0  0  0  0
    8.2081   -1.3642    1.7904 H   0  0  0  0  0  0  0  0  0  0  0  0
    7.2977   -2.0795    0.5918 H   0  0  0  0  0  0  0  0  0  0  0  0
    6.0255   -3.0430    0.9223 H   0  0  0  0  0  0  0  0  0  0  0  0
    6.4707    0.6593    2.0431 H   0  0  0  0  0  0  0  0  0  0  0  0
    4.3858    1.4995    2.5796 H   0  0  0  0  0  0  0  0  0  0  0  0
    3.0504    0.3979    2.9111 H   0  0  0  0  0  0  0  0  0  0  0  0
    3.7153    1.5950    0.1476 H   0  0  0  0  0  0  0  0  0  0  0  0
    2.5073    2.1594    1.2601 H   0  0  0  0  0  0  0  0  0  0  0  0
    2.3914   -0.4340   -0.2860 H   0  0  0  0  0  0  0  0  0  0  0  0
   -0.2791   -1.8864   -2.5677 H   0  0  0  0  0  0  0  0  0  0  0  0
    0.1000   -0.1678   -2.6195 H   0  0  0  0  0  0  0  0  0  0  0  0
    2.4025   -0.5097   -2.5340 H   0  0  0  0  0  0  0  0  0  0  0  0
    0.8890   -4.0178   -2.7895 H   0  0  0  0  0  0  0  0  0  0  0  0
    0.7860   -3.1843   -4.3738 H   0  0  0  0  0  0  0  0  0  0  0  0
    2.0271   -4.4118   -4.1016 H   0  0  0  0  0  0  0  0  0  0  0  0
    2.9474   -2.0065    2.6901 H   0  0  0  0  0  0  0  0  0  0  0  0
    2.9519   -1.6883    0.9762 H   0  0  0  0  0  0  0  0  0  0  0  0
    3.9336   -2.8660    1.6767 H   0  0  0  0  0  0  0  0  0  0  0  0
   -0.7802    1.6740    0.0953 H   0  0  0  0  0  0  0  0  0  0  0  0
   -0.7645    0.6825    1.6144 H   0  0  0  0  0  0  0  0  0  0  0  0
    0.4328    1.9407    1.3407 H   0  0  0  0  0  0  0  0  0  0  0  0
    4.1595   -3.6964   -3.0305 H   0  0  0  0  0  0  0  0  0  0  0  0
    4.0495   -2.8044   -4.5350 H   0  0  0  0  0  0  0  0  0  0  0  0
    4.5040   -1.9709   -3.0885 H   0  0  0  0  0  0  0  0  0  0  0  0
    5.5519    1.4885   -2.2320 H   0  0  0  0  0  0  0  0  0  0  0  0
    3.4458   -3.3190   -0.2711 H   0  0  0  0  0  0  0  0  0  0  0  0
  1 21  1  0  0  0  0
  1  2  1  0  0  0  0
  2 12  1  0  0  0  0
  2 25  1  0  0  0  0
  2 26  1  0  0  0  0
  3 17  1  0  0  0  0
  4  5  1  0  0  0  0
  5  7  1  0  0  0  0
  5 27  1  0  0  0  0
  5 28  1  0  0  0  0
  6 29  1  0  0  0  0
  7  8  2  0  0  0  0
  7 30  1  0  0  0  0
  8 20  1  0  0  0  0
  8  9  1  0  0  0  0
  9 10  1  0  0  0  0
  9 31  1  0  0  0  0
  9 32  1  0  0  0  0
 10 11  1  0  0  0  0
 10 33  1  0  0  0  0
 10 34  1  0  0  0  0
 11  1  2  0  0  0  0
 11 35  1  0  0  0  0
 12 13  1  0  0  0  0
 12 36  1  0  0  0  0
 12 37  1  0  0  0  0
 13 14  2  0  0  0  0
 13 38  1  0  0  0  0
 14 22  1  0  0  0  0
 14 15  1  0  0  0  0
 15 39  1  0  0  0  0
 15 40  1  0  0  0  0
 15 41  1  0  0  0  0
 16  4  1  0  0  0  0
 16  3  1  0  0  0  0
 16 18  2  0  0  0  0
 16 23  1  0  0  0  0
 17  6  1  0  0  0  0
 17 19  2  0  0  0  0
 17 24  1  0  0  0  0
 20 42  1  0  0  0  0
 20 43  1  0  0  0  0
 20 44  1  0  0  0  0
 21 45  1  0  0  0  0
 21 46  1  0  0  0  0
 21 47  1  0  0  0  0
 22 48  1  0  0  0  0
 22 49  1  0  0  0  0
 22 50  1  0  0  0  0
 23 51  1  0  0  0  0
 24 52  1  0  0  0  0
M  END
>  <DRUGBANK_ID>
DB07780

>  <COMMON_NAME>
Farnesyl diphosphate

>  <CAS_NUMBER>
13058-04-3

>  <UNII>
79W6B01D07

>  <SYNONYMS>
(2E,6E)-farnesol diphosphate; (2E,6E)-farnesyl diphosphate; (2E,6E)-farnesyl pyrophosphate; (all-E)-farnesyl diphosphate; (E,E)-farnesyl pyrophosphate; 2-trans,6-trans-farnesyl diphosphate; all-trans-farnesyl pyrophosphate; Farnesyl pyrophosphate

$$$$
