
 OpenBabel10282417123D

 25 24  0  0  0  0  0  0  0  0999 V2000
    1.2813    4.2118   -5.1127 C   0  0  0  0  0  0  0  0  0  0  0  0
    0.8432    3.8978   -3.7133 C   0  0  0  0  0  0  0  0  0  0  0  0
   -0.3259    3.1692   -3.6134 N   0  0  0  0  0  0  0  0  0  0  0  0
   -0.7584    2.7175   -2.2993 C   0  0  2  0  0  0  0  0  0  0  0  0
   -0.1564    1.3391   -1.9689 C   0  0  0  0  0  0  0  0  0  0  0  0
    0.3188    1.1608   -0.7196 O   0  0  0  0  0  0  0  0  0  0  0  0
   -0.1295    0.4107   -2.7768 O   0  0  0  0  0  0  0  0  0  0  0  0
   -2.2717    2.7623   -2.1372 C   0  0  0  0  0  0  0  0  0  0  0  0
   -2.7228    2.5432   -0.6892 C   0  0  0  0  0  0  0  0  0  0  0  0
   -2.3546    3.9288    0.4882 S   0  0  0  0  0  0  0  0  0  0  0  0
   -0.5477    3.9532    0.7534 C   0  0  0  0  0  0  0  0  0  0  0  0
    1.4777    4.2863   -2.7350 O   0  0  0  0  0  0  0  0  0  0  0  0
    0.6177    3.7598   -5.8526 H   0  0  0  0  0  0  0  0  0  0  0  0
    2.2936    3.8264   -5.2606 H   0  0  0  0  0  0  0  0  0  0  0  0
    1.2785    5.2968   -5.2487 H   0  0  0  0  0  0  0  0  0  0  0  0
   -0.6995    2.6990   -4.4285 H   0  0  0  0  0  0  0  0  0  0  0  0
   -0.3486    3.4581   -1.6485 H   0  0  0  0  0  0  0  0  0  0  0  0
    0.3588    1.9430   -0.1484 H   0  0  0  0  0  0  0  0  0  0  0  0
   -2.6623    3.7286   -2.4867 H   0  0  0  0  0  0  0  0  0  0  0  0
   -2.7356    2.0072   -2.7871 H   0  0  0  0  0  0  0  0  0  0  0  0
   -3.8217    2.4905   -0.7091 H   0  0  0  0  0  0  0  0  0  0  0  0
   -2.3980    1.5730   -0.2987 H   0  0  0  0  0  0  0  0  0  0  0  0
   -0.2111    3.0344    1.2345 H   0  0  0  0  0  0  0  0  0  0  0  0
    0.0585    4.1755   -0.1227 H   0  0  0  0  0  0  0  0  0  0  0  0
   -0.2899    4.7733    1.4249 H   0  0  0  0  0  0  0  0  0  0  0  0
  1  2  1  0  0  0  0
  1 13  1  0  0  0  0
  1 14  1  0  0  0  0
  1 15  1  0  0  0  0
  2  3  1  0  0  0  0
  2 12  2  0  0  0  0
  3 16  1  0  0  0  0
  4  8  1  0  0  0  0
  4 17  1  1  0  0  0
  4  5  1  0  0  0  0
  4  3  1  0  0  0  0
  5  6  1  0  0  0  0
  5  7  2  0  0  0  0
  6 18  1  0  0  0  0
  8  9  1  0  0  0  0
  8 19  1  0  0  0  0
  8 20  1  0  0  0  0
  9 10  1  0  0  0  0
  9 21  1  0  0  0  0
  9 22  1  0  0  0  0
 10 11  1  0  0  0  0
 11 23  1  0  0  0  0
 11 24  1  0  0  0  0
 11 25  1  0  0  0  0
M  END
>  <DRUGBANK_ID>
DB01646

>  <SECONDARY_ACCESSION_NUMBERS>
EXPT00506

>  <COMMON_NAME>
N-Acetylmethionine

>  <CAS_NUMBER>
65-82-7

>  <UNII>
9J12WX5B6A

>  <SYNONYMS>
(2S)-2-acetamido-4-(methylsulfanyl)butanoic acid; Acetyl-L-methionine; Acetylmethionine; AcMet; L-(N-Acetyl)methionine; Methionamine; Methionin; N-Ac-Met; N-acetyl-L-methionine; NÎ±-acetyl-L-methionine; Thiomedon

$$$$
