
 OpenBabel10282417173D

 59 61  0  0  0  0  0  0  0  0999 V2000
    2.2202   -0.3839    0.0338 F   0  0  0  0  0  0  0  0  0  0  0  0
    3.2253    1.4521    0.0169 O   0  0  0  0  0  0  0  0  0  0  0  0
    2.8783    4.4847   -1.2587 O   0  0  0  0  0  0  0  0  0  0  0  0
   -1.0413    5.5313    2.8728 O   0  0  0  0  0  0  0  0  0  0  0  0
   -2.3198    5.2976   -0.4164 N   0  0  0  0  0  0  0  0  0  0  0  0
    1.0594    2.3411   -0.1864 N   0  0  0  0  0  0  0  0  0  0  0  0
   -1.8817    3.0773    1.0899 N   0  0  0  0  0  0  0  0  0  0  0  0
   -1.2321    1.3108    1.6978 N   0  0  0  0  0  0  0  0  0  0  0  0
   -0.1581    3.1957    3.4775 N   0  0  0  0  0  0  0  0  0  0  0  0
   -0.2825    1.4591    3.0087 N   0  0  0  0  0  0  0  0  0  0  0  0
    0.3043    3.6072   -0.1606 C   0  0  2  0  0  0  0  0  0  0  0  0
   -0.3560    3.8375    1.2681 C   0  0  1  0  0  0  0  0  0  0  0  0
   -0.4438    3.9015   -1.4683 C   0  0  0  0  0  0  0  0  0  0  0  0
   -1.4470    5.3723    0.7237 C   0  0  0  0  0  0  0  0  0  0  0  0
   -1.3742    5.1226   -1.4877 C   0  0  0  0  0  0  0  0  0  0  0  0
   -1.7216    2.7163    2.6589 C   0  0  0  0  0  0  0  0  0  0  0  0
   -3.3967    4.3136   -0.2462 C   0  0  0  0  0  0  0  0  0  0  0  0
   -2.8336    3.0031   -0.1147 C   0  0  0  0  0  0  0  0  0  0  0  0
    0.3693    1.0281   -0.2844 C   0  0  0  0  0  0  0  0  0  0  0  0
    2.4510    2.4035   -0.0286 C   0  0  0  0  0  0  0  0  0  0  0  0
    3.1579    3.7497   -0.0733 C   0  0  0  0  0  0  0  0  0  0  0  0
    0.9193   -0.1887   -0.0687 C   0  0  0  0  0  0  0  0  0  0  0  0
   -1.0037    0.8105   -0.4666 C   0  0  0  0  0  0  0  0  0  0  0  0
   -1.3505    4.3459    2.5961 C   0  0  0  0  0  0  0  0  0  0  0  0
    0.1473   -1.3655   -0.0008 C   0  0  0  0  0  0  0  0  0  0  0  0
   -1.8797   -0.2649   -0.2280 C   0  0  0  0  0  0  0  0  0  0  0  0
   -1.2428   -1.4193   -0.0372 C   0  0  0  0  0  0  0  0  0  0  0  0
    0.6798    3.7329    4.4895 C   0  0  0  0  0  0  0  0  0  0  0  0
    3.1718    3.6970   -2.4098 C   0  0  0  0  0  0  0  0  0  0  0  0
    1.8160    4.5864    3.9432 C   0  0  0  0  0  0  0  0  0  0  0  0
    0.9898    4.4878   -0.1511 H   0  0  0  0  0  0  0  0  0  0  0  0
    0.5894    4.1696    1.7931 H   0  0  0  0  0  0  0  0  0  0  0  0
    0.2432    3.9680   -2.3090 H   0  0  0  0  0  0  0  0  0  0  0  0
   -0.9333    3.0077   -1.7936 H   0  0  0  0  0  0  0  0  0  0  0  0
   -2.2982    5.5926    1.4404 H   0  0  0  0  0  0  0  0  0  0  0  0
   -0.7961    6.2555    0.7408 H   0  0  0  0  0  0  0  0  0  0  0  0
   -0.7274    6.0096   -1.4481 H   0  0  0  0  0  0  0  0  0  0  0  0
   -1.9695    5.1577   -2.3907 H   0  0  0  0  0  0  0  0  0  0  0  0
   -0.4353    2.6426    1.8705 H   0  0  0  0  0  0  0  0  0  0  0  0
   -2.6988    3.3301    2.8498 H   0  0  0  0  0  0  0  0  0  0  0  0
   -2.7934    2.0985    2.1206 H   0  0  0  0  0  0  0  0  0  0  0  0
   -3.9609    4.3618    0.6943 H   0  0  0  0  0  0  0  0  0  0  0  0
   -4.0445    4.2544   -1.1116 H   0  0  0  0  0  0  0  0  0  0  0  0
   -3.4875    2.1318   -0.0179 H   0  0  0  0  0  0  0  0  0  0  0  0
   -2.4265    2.7500   -1.1097 H   0  0  0  0  0  0  0  0  0  0  0  0
    2.9251    4.3296    0.8236 H   0  0  0  0  0  0  0  0  0  0  0  0
    4.2345    3.5369   -0.0468 H   0  0  0  0  0  0  0  0  0  0  0  0
   -1.5970    1.6134   -0.3118 H   0  0  0  0  0  0  0  0  0  0  0  0
    0.7192   -2.2672    0.0495 H   0  0  0  0  0  0  0  0  0  0  0  0
   -2.9565   -0.1029   -0.0640 H   0  0  0  0  0  0  0  0  0  0  0  0
   -1.8218   -2.3168    0.0326 H   0  0  0  0  0  0  0  0  0  0  0  0
    0.0306    4.3649    5.1013 H   0  0  0  0  0  0  0  0  0  0  0  0
    1.0668    2.9025    5.0685 H   0  0  0  0  0  0  0  0  0  0  0  0
    4.2376    3.4644   -2.4226 H   0  0  0  0  0  0  0  0  0  0  0  0
    2.5900    2.7684   -2.4242 H   0  0  0  0  0  0  0  0  0  0  0  0
    2.8989    4.2699   -3.2950 H   0  0  0  0  0  0  0  0  0  0  0  0
    1.4577    5.4420    3.3576 H   0  0  0  0  0  0  0  0  0  0  0  0
    2.4077    4.9864    4.7692 H   0  0  0  0  0  0  0  0  0  0  0  0
    2.4714    3.9965    3.2944 H   0  0  0  0  0  0  0  0  0  0  0  0
  1 22  1  0  0  0  0
  2 20  2  0  0  0  0
  3 21  1  0  0  0  0
  3 29  1  0  0  0  0
  4 24  2  0  0  0  0
  5 14  1  0  0  0  0
  5 15  1  0  0  0  0
  5 17  1  0  0  0  0
  6 19  1  0  0  0  0
  6 20  1  0  0  0  0
  7  8  1  0  0  0  0
  7 18  1  0  0  0  0
  7 24  1  0  0  0  0
  8 10  2  0  0  0  0
  9 10  1  0  0  0  0
  9 24  1  0  0  0  0
  9 28  1  0  0  0  0
 11  6  1  0  0  0  0
 11 12  1  0  0  0  0
 11 13  1  0  0  0  0
 11 31  1  6  0  0  0
 12 14  1  0  0  0  0
 12 16  1  0  0  0  0
 12 32  1  1  0  0  0
 13 15  1  0  0  0  0
 13 33  1  0  0  0  0
 13 34  1  0  0  0  0
 14 35  1  0  0  0  0
 14 36  1  0  0  0  0
 15 37  1  0  0  0  0
 15 38  1  0  0  0  0
 16 39  1  0  0  0  0
 16 40  1  0  0  0  0
 16 41  1  0  0  0  0
 17 18  1  0  0  0  0
 17 42  1  0  0  0  0
 17 43  1  0  0  0  0
 18 44  1  0  0  0  0
 18 45  1  0  0  0  0
 19 22  1  0  0  0  0
 19 23  2  0  0  0  0
 20 21  1  0  0  0  0
 21 46  1  0  0  0  0
 21 47  1  0  0  0  0
 22 25  2  0  0  0  0
 23 26  1  0  0  0  0
 23 48  1  0  0  0  0
 25 27  1  0  0  0  0
 25 49  1  0  0  0  0
 26 27  2  0  0  0  0
 26 50  1  0  0  0  0
 27 51  1  0  0  0  0
 28 30  1  0  0  0  0
 28 52  1  0  0  0  0
 28 53  1  0  0  0  0
 29 54  1  0  0  0  0
 29 55  1  0  0  0  0
 29 56  1  0  0  0  0
 30 57  1  0  0  0  0
 30 58  1  0  0  0  0
 30 59  1  0  0  0  0
M  END
>  <DRUGBANK_ID>
DB09172

>  <COMMON_NAME>
Brifentanil

>  <CAS_NUMBER>
101345-71-5

>  <UNII>
6GDT77PQBW

>  <SYNONYMS>
Brifentanil

$$$$
