815
 OpenBabel10282417163D

 50 54  0  0  0  0  0  0  0  0999 V2000
    2.4007    0.7771   -0.0149 C   0  0  0  0  0  0  0  0  0  0  0  0
    1.1759    1.4460    0.0801 C   0  0  0  0  0  0  0  0  0  0  0  0
   -0.0352    0.7290    0.1062 C   0  0  0  0  0  0  0  0  0  0  0  0
   -0.0190   -0.6738    0.0447 C   0  0  0  0  0  0  0  0  0  0  0  0
    1.2153   -1.3027   -0.0893 C   0  0  0  0  0  0  0  0  0  0  0  0
    2.4321   -0.6148   -0.0776 C   0  0  0  0  0  0  0  0  0  0  0  0
   -1.2663    1.3680    0.1008 C   0  0  0  0  0  0  0  0  0  0  0  0
   -2.3852    0.5863   -0.1272 C   0  0  0  0  0  0  0  0  0  0  0  0
   -2.4050   -0.7678   -0.0748 N   0  0  0  0  0  0  0  0  0  0  0  0
   -1.2275   -1.3930    0.0858 C   0  0  0  0  0  0  0  0  0  0  0  0
    1.0904   -9.5322    2.9184 C   0  0  0  0  0  0  0  0  0  0  0  0
    1.2706  -10.6078    2.0446 C   0  0  0  0  0  0  0  0  0  0  0  0
    1.2543  -11.8828    2.5673 C   0  0  0  0  0  0  0  0  0  0  0  0
    0.7463  -12.0203    3.8409 C   0  0  0  0  0  0  0  0  0  0  0  0
    0.6268  -11.0029    4.7576 N   0  0  0  0  0  0  0  0  0  0  0  0
    0.9405   -9.7376    4.2845 C   0  0  0  0  0  0  0  0  0  0  0  0
    1.3210   -8.4827    4.9748 C   0  0  0  0  0  0  0  0  0  0  0  0
    1.4764   -7.3902    4.0970 C   0  0  0  0  0  0  0  0  0  0  0  0
    1.0918   -7.8801    2.5045 S   0  0  0  0  0  0  0  0  0  0  0  0
    3.8790   -2.2806    1.0108 N   0  0  0  0  0  0  0  0  0  0  0  0
    3.0744   -3.3915    1.3095 C   0  0  0  0  0  0  0  0  0  0  0  0
    3.3179   -3.7504    2.7694 C   0  0  2  0  0  0  0  0  0  0  0  0
    4.7712   -3.2893    2.9078 C   0  0  0  0  0  0  0  0  0  0  0  0
    4.8412   -2.0248    2.0499 C   0  0  0  0  0  0  0  0  0  0  0  0
    3.1137   -5.2104    3.0283 N   0  0  0  0  0  0  0  0  0  0  0  0
    1.8846   -5.6021    4.1508 S   0  0  0  0  0  0  0  0  0  0  0  0
    2.4845   -5.3605    5.4550 O   0  0  0  0  0  0  0  0  0  0  0  0
    0.6871   -4.9203    3.7403 O   0  0  0  0  0  0  0  0  0  0  0  0
    2.3092   -3.9669    0.5684 O   0  0  0  0  0  0  0  0  0  0  0  0
   -1.2418   -2.7898    0.1368 N   0  0  0  0  0  0  0  0  0  0  0  0
    3.7157   -1.4044   -0.1497 C   0  0  0  0  0  0  0  0  0  0  0  0
    2.6606   -3.1218    3.3827 H   0  0  0  0  0  0  0  0  0  0  0  0
    3.3193    1.3540   -0.0731 H   0  0  0  0  0  0  0  0  0  0  0  0
    1.1682    2.5336    0.0831 H   0  0  0  0  0  0  0  0  0  0  0  0
    1.2079   -2.3691   -0.2663 H   0  0  0  0  0  0  0  0  0  0  0  0
   -1.3476    2.4453    0.1818 H   0  0  0  0  0  0  0  0  0  0  0  0
   -3.3221    1.0524   -0.4174 H   0  0  0  0  0  0  0  0  0  0  0  0
    1.4974  -10.4264    1.0033 H   0  0  0  0  0  0  0  0  0  0  0  0
    1.5888  -12.7282    1.9724 H   0  0  0  0  0  0  0  0  0  0  0  0
    0.4204  -13.0244    4.1353 H   0  0  0  0  0  0  0  0  0  0  0  0
    1.5134   -8.4048    6.0431 H   0  0  0  0  0  0  0  0  0  0  0  0
    5.0656   -3.1023    3.9429 H   0  0  0  0  0  0  0  0  0  0  0  0
    5.4526   -4.0426    2.4914 H   0  0  0  0  0  0  0  0  0  0  0  0
    4.5654   -1.1188    2.5987 H   0  0  0  0  0  0  0  0  0  0  0  0
    5.8357   -1.8933    1.6068 H   0  0  0  0  0  0  0  0  0  0  0  0
    3.9736   -5.7304    3.1722 H   0  0  0  0  0  0  0  0  0  0  0  0
   -0.4779   -3.2310    0.6421 H   0  0  0  0  0  0  0  0  0  0  0  0
   -2.1555   -3.1575    0.3734 H   0  0  0  0  0  0  0  0  0  0  0  0
    3.7145   -2.0140   -1.0596 H   0  0  0  0  0  0  0  0  0  0  0  0
    4.5710   -0.7193   -0.2038 H   0  0  0  0  0  0  0  0  0  0  0  0
  1  2  2  0  0  0  0
  1  6  1  0  0  0  0
  1 33  1  0  0  0  0
  2  3  1  0  0  0  0
  2 34  1  0  0  0  0
  3  4  2  0  0  0  0
  3  7  1  0  0  0  0
  4  5  1  0  0  0  0
  4 10  1  0  0  0  0
  5  6  2  0  0  0  0
  5 35  1  0  0  0  0
  6 31  1  0  0  0  0
  7  8  2  0  0  0  0
  7 36  1  0  0  0  0
  8  9  1  0  0  0  0
  8 37  1  0  0  0  0
  9 10  2  0  0  0  0
 10 30  1  0  0  0  0
 11 12  1  0  0  0  0
 11 16  2  0  0  0  0
 11 19  1  0  0  0  0
 12 13  2  0  0  0  0
 12 38  1  0  0  0  0
 13 14  1  0  0  0  0
 13 39  1  0  0  0  0
 14 15  2  0  0  0  0
 14 40  1  0  0  0  0
 15 16  1  0  0  0  0
 16 17  1  0  0  0  0
 17 18  2  0  0  0  0
 17 41  1  0  0  0  0
 18 19  1  0  0  0  0
 18 26  1  0  0  0  0
 20 21  1  0  0  0  0
 20 24  1  0  0  0  0
 20 31  1  0  0  0  0
 21 22  1  0  0  0  0
 21 29  2  0  0  0  0
 22 23  1  0  0  0  0
 22 32  1  1  0  0  0
 22 25  1  0  0  0  0
 23 24  1  0  0  0  0
 23 42  1  0  0  0  0
 23 43  1  0  0  0  0
 24 44  1  0  0  0  0
 24 45  1  0  0  0  0
 25 26  1  0  0  0  0
 25 46  1  0  0  0  0
 26 27  2  0  0  0  0
 26 28  2  0  0  0  0
 30 47  1  0  0  0  0
 30 48  1  0  0  0  0
 31 49  1  0  0  0  0
 31 50  1  0  0  0  0
M  END
>  <DRUGBANK_ID>
DB07261

>  <COMMON_NAME>
THIENO[3,2-B]PYRIDINE-2-SULFONIC ACID [1-(1-AMINO-ISOQUINOLIN-7-YLMETHYL)-2-OXO-PYRROLDIN-3-YL]-AMIDE

$$$$
