
 OpenBabel10282417123D

 13 12  0  0  1  0  0  0  0  0999 V2000
    0.9003   -2.5281    0.3533 C   0  0  0  0  0  0  0  0  0  0  0  0
    0.4213   -1.3719   -0.5190 C   0  0  2  0  0  0  0  0  0  0  0  0
    1.0220   -0.0572    0.0020 C   0  0  0  0  0  0  0  0  0  0  0  0
    2.2026    0.1174    0.2776 O   0  0  0  0  0  0  0  0  0  0  0  0
    0.1450    0.9549    0.1591 O   0  0  0  0  0  0  0  0  0  0  0  0
   -1.0566   -1.3570   -0.5450 N   0  0  0  0  0  0  0  0  0  0  0  0
    0.9425   -2.2448    1.4111 H   0  0  0  0  0  0  0  0  0  0  0  0
    1.9072   -2.8369    0.0516 H   0  0  0  0  0  0  0  0  0  0  0  0
    0.2524   -3.4068    0.2625 H   0  0  0  0  0  0  0  0  0  0  0  0
    0.7661   -1.5016   -1.5506 H   0  0  0  0  0  0  0  0  0  0  0  0
    0.6850    1.7095    0.4698 H   0  0  0  0  0  0  0  0  0  0  0  0
   -1.3968   -2.2614   -0.8671 H   0  0  0  0  0  0  0  0  0  0  0  0
   -1.4046   -1.2370    0.4057 H   0  0  0  0  0  0  0  0  0  0  0  0
  1  7  1  0  0  0  0
  1  8  1  0  0  0  0
  1  9  1  0  0  0  0
  2  6  1  0  0  0  0
  2 10  1  6  0  0  0
  2  3  1  0  0  0  0
  2  1  1  0  0  0  0
  3  4  2  0  0  0  0
  3  5  1  0  0  0  0
  5 11  1  0  0  0  0
  6 12  1  0  0  0  0
  6 13  1  0  0  0  0
M  END
>  <DRUGBANK_ID>
DB01786

>  <SECONDARY_ACCESSION_NUMBERS>
EXPT01109

>  <COMMON_NAME>
D-Alanine

>  <CAS_NUMBER>
338-69-2

>  <UNII>
E3UDS4613U

>  <SYNONYMS>
(2R)-2-aminopropanoic acid; (R)-2-aminopropanoic acid; (R)-alanine; D-2-Aminopropionic acid; D-Ala; D-Alanin; D-α-alanine; D-α-aminopropionic acid; DAL

$$$$
