
 OpenBabel10282417143D

 45 49  0  0  1  0  0  0  0  0999 V2000
    1.2045   -0.0603   -0.1799 O   0  0  0  0  0  0  0  0  0  0  0  0
    4.7629    2.6127    0.8675 N   0  0  0  0  0  0  0  0  0  0  0  0
    4.7466   -2.4832   -1.8398 N   0  0  0  0  0  0  0  0  0  0  0  0
    5.2660   -4.6283   -2.0679 N   0  0  0  0  0  0  0  0  0  0  0  0
    4.4570    1.2575    0.6790 C   0  0  0  0  0  0  0  0  0  0  0  0
    3.2787   -1.2502   -0.2215 C   0  0  1  0  0  0  0  0  0  0  0  0
    3.1481    1.2197    0.1898 C   0  0  0  0  0  0  0  0  0  0  0  0
    5.2595   -0.0167    0.8778 C   0  0  0  0  0  0  0  0  0  0  0  0
    3.7525    3.3541    0.2531 C   0  0  0  0  0  0  0  0  0  0  0  0
    4.2880   -1.2435    0.9397 C   0  0  0  0  0  0  0  0  0  0  0  0
    2.6766    2.5278    0.0213 C   0  0  0  0  0  0  0  0  0  0  0  0
    5.3880    3.3581    1.9828 C   0  0  0  0  0  0  0  0  0  0  0  0
    2.4196   -0.0122   -0.0749 C   0  0  0  0  0  0  0  0  0  0  0  0
    3.6890    4.7438    0.1617 C   0  0  0  0  0  0  0  0  0  0  0  0
    5.3937    4.9481    1.8645 C   0  0  0  0  0  0  0  0  0  0  0  0
    4.9121    5.5118    0.5212 C   0  0  0  0  0  0  0  0  0  0  0  0
    3.9334   -1.2928   -1.6175 C   0  0  0  0  0  0  0  0  0  0  0  0
    1.4422    3.0983   -0.3090 C   0  0  0  0  0  0  0  0  0  0  0  0
    2.4428    5.3027   -0.1189 C   0  0  0  0  0  0  0  0  0  0  0  0
    1.3325    4.4895   -0.3450 C   0  0  0  0  0  0  0  0  0  0  0  0
    4.2773   -3.7773   -1.8886 C   0  0  0  0  0  0  0  0  0  0  0  0
    6.1051   -2.5374   -2.0311 C   0  0  0  0  0  0  0  0  0  0  0  0
    6.3997   -3.8751   -2.1663 C   0  0  0  0  0  0  0  0  0  0  0  0
    2.8576   -4.1723   -1.7341 C   0  0  0  0  0  0  0  0  0  0  0  0
    2.5939   -2.0937   -0.0796 H   0  0  0  0  0  0  0  0  0  0  0  0
    5.9107   -0.1687    0.0062 H   0  0  0  0  0  0  0  0  0  0  0  0
    5.8911   -0.0112    1.7661 H   0  0  0  0  0  0  0  0  0  0  0  0
    4.8299   -2.1969    0.9419 H   0  0  0  0  0  0  0  0  0  0  0  0
    3.7202   -1.2108    1.8810 H   0  0  0  0  0  0  0  0  0  0  0  0
    6.3469    2.9405    2.2993 H   0  0  0  0  0  0  0  0  0  0  0  0
    4.6819    3.1619    2.8001 H   0  0  0  0  0  0  0  0  0  0  0  0
    6.3613    5.3985    2.1227 H   0  0  0  0  0  0  0  0  0  0  0  0
    4.7032    5.3261    2.6369 H   0  0  0  0  0  0  0  0  0  0  0  0
    5.6800    5.3687   -0.2486 H   0  0  0  0  0  0  0  0  0  0  0  0
    4.7013    6.5873    0.5759 H   0  0  0  0  0  0  0  0  0  0  0  0
    3.1763   -1.2782   -2.4129 H   0  0  0  0  0  0  0  0  0  0  0  0
    4.5626   -0.4138   -1.8012 H   0  0  0  0  0  0  0  0  0  0  0  0
    0.5767    2.4634   -0.4694 H   0  0  0  0  0  0  0  0  0  0  0  0
    2.3192    6.3814   -0.1096 H   0  0  0  0  0  0  0  0  0  0  0  0
    0.3607    4.9333   -0.5348 H   0  0  0  0  0  0  0  0  0  0  0  0
    6.7490   -1.6687   -2.0563 H   0  0  0  0  0  0  0  0  0  0  0  0
    7.3613   -4.3468   -2.3291 H   0  0  0  0  0  0  0  0  0  0  0  0
    2.5432   -4.7589   -2.5992 H   0  0  0  0  0  0  0  0  0  0  0  0
    2.7518   -4.7810   -0.8310 H   0  0  0  0  0  0  0  0  0  0  0  0
    2.1712   -3.3279   -1.6621 H   0  0  0  0  0  0  0  0  0  0  0  0
  1 13  2  0  0  0  0
  2  5  1  0  0  0  0
  2  9  1  0  0  0  0
  2 12  1  0  0  0  0
  3 17  1  0  0  0  0
  3 21  1  0  0  0  0
  3 22  1  0  0  0  0
  4 21  2  0  0  0  0
  4 23  1  0  0  0  0
  5  7  2  0  0  0  0
  5  8  1  0  0  0  0
  6 10  1  0  0  0  0
  6 13  1  0  0  0  0
  6 17  1  0  0  0  0
  6 25  1  1  0  0  0
  7 11  1  0  0  0  0
  7 13  1  0  0  0  0
  8 10  1  0  0  0  0
  8 26  1  0  0  0  0
  8 27  1  0  0  0  0
  9 11  1  0  0  0  0
  9 14  2  0  0  0  0
 10 28  1  0  0  0  0
 10 29  1  0  0  0  0
 11 18  2  0  0  0  0
 12 15  1  0  0  0  0
 12 30  1  0  0  0  0
 12 31  1  0  0  0  0
 14 16  1  0  0  0  0
 14 19  1  0  0  0  0
 15 16  1  0  0  0  0
 15 32  1  0  0  0  0
 15 33  1  0  0  0  0
 16 34  1  0  0  0  0
 16 35  1  0  0  0  0
 17 36  1  0  0  0  0
 17 37  1  0  0  0  0
 18 20  1  0  0  0  0
 18 38  1  0  0  0  0
 19 20  2  0  0  0  0
 19 39  1  0  0  0  0
 20 40  1  0  0  0  0
 21 24  1  0  0  0  0
 22 23  2  0  0  0  0
 22 41  1  0  0  0  0
 23 42  1  0  0  0  0
 24 43  1  0  0  0  0
 24 44  1  0  0  0  0
 24 45  1  0  0  0  0
M  END
>  <DRUGBANK_ID>
DB04885

>  <COMMON_NAME>
Cilansetron

>  <CAS_NUMBER>
120635-74-7

>  <UNII>
2J6DQ1U5B5

>  <SYNONYMS>
Cilansetron

$$$$
