
 OpenBabel10282417193D

 34 34  0  0  0  0  0  0  0  0999 V2000
    1.4974    0.0304   -0.0018 C   0  0  0  0  0  0  0  0  0  0  0  0
    0.7355   -1.1259   -0.0751 C   0  0  0  0  0  0  0  0  0  0  0  0
   -0.6519   -1.1343   -0.1033 C   0  0  0  0  0  0  0  0  0  0  0  0
   -1.2202    0.1222   -0.2463 C   0  0  0  0  0  0  0  0  0  0  0  0
   -0.5202    1.3100   -0.0062 C   0  0  0  0  0  0  0  0  0  0  0  0
    0.8721    1.2541    0.0349 C   0  0  0  0  0  0  0  0  0  0  0  0
   -1.1520    2.6293    0.2898 C   0  0  0  0  0  0  0  0  0  0  0  0
   -0.4387    3.6130    0.4125 O   0  0  0  0  0  0  0  0  0  0  0  0
   -2.5029    2.7735    0.5243 N   0  0  0  0  0  0  0  0  0  0  0  0
   -3.6040    1.8217    0.5221 C   0  0  0  0  0  0  0  0  0  0  0  0
   -4.3382    1.6431    1.8327 C   0  0  0  0  0  0  0  0  0  0  0  0
   -5.3201    3.0924    2.2407 S   0  0  0  0  0  0  0  0  0  0  0  0
   -1.6260   -2.2942   -0.0182 C   0  0  0  0  0  0  0  0  0  0  0  0
   -2.8333   -2.0723    0.0114 O   0  0  0  0  0  0  0  0  0  0  0  0
   -1.2299   -3.6083    0.0815 N   0  0  0  0  0  0  0  0  0  0  0  0
    0.0926   -4.1781    0.1218 C   0  0  0  0  0  0  0  0  0  0  0  0
    0.5135   -4.7863    1.4400 C   0  0  0  0  0  0  0  0  0  0  0  0
   -0.2627   -6.3946    1.6316 S   0  0  0  0  0  0  0  0  0  0  0  0
    2.5774   -0.0711    0.0182 H   0  0  0  0  0  0  0  0  0  0  0  0
    1.3839   -1.9579   -0.2263 H   0  0  0  0  0  0  0  0  0  0  0  0
   -2.2108    0.1279   -0.6746 H   0  0  0  0  0  0  0  0  0  0  0  0
    1.4836    2.1507    0.0484 H   0  0  0  0  0  0  0  0  0  0  0  0
   -2.7344    3.7462    0.6926 H   0  0  0  0  0  0  0  0  0  0  0  0
   -4.2361    2.0276   -0.3474 H   0  0  0  0  0  0  0  0  0  0  0  0
   -3.2512    0.8219    0.4194 H   0  0  0  0  0  0  0  0  0  0  0  0
   -4.9900    0.7654    1.7350 H   0  0  0  0  0  0  0  0  0  0  0  0
   -3.6152    1.4215    2.6267 H   0  0  0  0  0  0  0  0  0  0  0  0
   -4.2897    3.9466    2.2371 H   0  0  0  0  0  0  0  0  0  0  0  0
   -2.0170   -4.2505    0.0894 H   0  0  0  0  0  0  0  0  0  0  0  0
    0.2739   -4.7631   -0.7821 H   0  0  0  0  0  0  0  0  0  0  0  0
    0.7983   -3.4050    0.0565 H   0  0  0  0  0  0  0  0  0  0  0  0
    1.6065   -4.8858    1.4412 H   0  0  0  0  0  0  0  0  0  0  0  0
    0.2519   -4.1184    2.2705 H   0  0  0  0  0  0  0  0  0  0  0  0
   -1.5146   -5.9368    1.4999 H   0  0  0  0  0  0  0  0  0  0  0  0
  1  2  2  0  0  0  0
  1  6  1  0  0  0  0
  1 19  1  0  0  0  0
  2  3  1  0  0  0  0
  2 20  1  0  0  0  0
  3  4  2  0  0  0  0
  3 13  1  0  0  0  0
  4  5  1  0  0  0  0
  4 21  1  0  0  0  0
  5  6  2  0  0  0  0
  5  7  1  0  0  0  0
  6 22  1  0  0  0  0
  7  8  2  0  0  0  0
  7  9  1  0  0  0  0
  9 10  1  0  0  0  0
  9 23  1  0  0  0  0
 10 11  1  0  0  0  0
 10 24  1  0  0  0  0
 10 25  1  0  0  0  0
 11 12  1  0  0  0  0
 11 26  1  0  0  0  0
 11 27  1  0  0  0  0
 12 28  1  0  0  0  0
 13 14  2  0  0  0  0
 13 15  1  0  0  0  0
 15 16  1  0  0  0  0
 15 29  1  0  0  0  0
 16 17  1  0  0  0  0
 16 30  1  0  0  0  0
 16 31  1  0  0  0  0
 17 18  1  0  0  0  0
 17 32  1  0  0  0  0
 17 33  1  0  0  0  0
 18 34  1  0  0  0  0
M  END
>  <DRUGBANK_ID>
DB12192

>  <COMMON_NAME>
Emeramide

>  <CAS_NUMBER>
351994-94-0

>  <UNII>
4U7K5X4ANS

>  <SYNONYMS>
Emeramide

$$$$
