
 OpenBabel10282417203D

 66 68  0  0  0  0  0  0  0  0999 V2000
    0.9184   -0.0055    0.0576 C   0  0  0  0  0  0  0  0  0  0  0  0
    0.4117   -0.5695    1.3750 C   0  0  0  0  0  0  0  0  0  0  0  0
    0.9017    0.2612    2.4844 N   0  3  0  0  0  0  0  0  0  0  0  0
    0.4117    1.6373    2.3197 C   0  0  0  0  0  0  0  0  0  0  0  0
    0.4117   -0.2843    3.7585 C   0  0  0  0  0  0  0  0  0  0  0  0
    0.9184   -1.7072    3.9287 C   0  0  0  0  0  0  0  0  0  0  0  0
    2.3717    0.2612    2.4844 C   0  0  0  0  0  0  0  0  0  0  0  0
    2.8784   -1.1617    2.6547 C   0  0  0  0  0  0  0  0  0  0  0  0
    2.2751   -2.1845    1.2886 S   0  0  0  0  0  0  0  0  0  0  0  0
    0.4651   -2.1845    1.2886 C   0  0  0  0  0  0  0  0  0  0  0  0
   -0.1777   -3.1176    0.6720 N   0  0  0  0  0  0  0  0  0  0  0  0
   -1.5839   -3.1015    0.5885 C   0  0  0  0  0  0  0  0  0  0  0  0
   -2.2223   -4.3546    0.6476 C   0  0  0  0  0  0  0  0  0  0  0  0
   -3.5836   -4.4659    0.5339 C   0  0  0  0  0  0  0  0  0  0  0  0
   -4.3484   -3.3477    0.2611 C   0  0  0  0  0  0  0  0  0  0  0  0
   -3.7413   -2.1251    0.1299 C   0  0  0  0  0  0  0  0  0  0  0  0
   -2.3654   -1.9668    0.3390 C   0  0  0  0  0  0  0  0  0  0  0  0
   -1.8809   -0.6456    0.2041 N   0  0  0  0  0  0  0  0  0  0  0  0
   -0.9427   -0.2361    0.9663 C   0  0  0  0  0  0  0  0  0  0  0  0
   -0.2885   -1.0904    2.0117 C   0  0  0  0  0  0  0  0  0  0  0  0
   -0.4613    1.1967    0.8059 C   0  0  0  0  0  0  0  0  0  0  0  0
    0.8076    1.4271    0.4895 C   0  0  0  0  0  0  0  0  0  0  0  0
    1.2334    2.6980    0.1873 C   0  0  0  0  0  0  0  0  0  0  0  0
    0.3873    3.7668    0.2929 C   0  0  0  0  0  0  0  0  0  0  0  0
   -0.8808    3.4902    0.5366 C   0  0  0  0  0  0  0  0  0  0  0  0
   -1.3557    2.2377    0.9925 C   0  0  0  0  0  0  0  0  0  0  0  0
    0.9737    5.4692    0.1086 S   0  0  0  0  0  0  0  0  0  0  0  0
    2.7544    5.4622   -0.2156 C   0  0  0  0  0  0  0  0  0  0  0  0
    3.2182    4.8369   -1.2913 C   0  0  0  0  0  0  0  0  0  0  0  0
    4.5411    4.9440   -1.6467 C   0  0  0  0  0  0  0  0  0  0  0  0
    5.4292    5.6186   -0.8557 C   0  0  0  0  0  0  0  0  0  0  0  0
    4.9189    6.2875    0.1622 C   0  0  0  0  0  0  0  0  0  0  0  0
    3.6076    6.1091    0.6630 C   0  0  0  0  0  0  0  0  0  0  0  0
    1.0647   -0.0620    0.0444 I   0  5  0  0  0  0  0  0  0  0  0  0
    0.5617    0.9962   -0.0623 H   0  0  0  0  0  0  0  0  0  0  0  0
    0.5617   -0.6101   -0.7500 H   0  0  0  0  0  0  0  0  0  0  0  0
    1.9884   -0.0055    0.0576 H   0  0  0  0  0  0  0  0  0  0  0  0
   -0.6583   -0.5695    1.3750 H   0  0  0  0  0  0  0  0  0  0  0  0
    0.7684   -1.5711    1.4948 H   0  0  0  0  0  0  0  0  0  0  0  0
   -0.6583    1.6373    2.3197 H   0  0  0  0  0  0  0  0  0  0  0  0
    0.7684    2.2419    3.1273 H   0  0  0  0  0  0  0  0  0  0  0  0
    0.7684    2.0343    1.3923 H   0  0  0  0  0  0  0  0  0  0  0  0
    0.7684    0.3204    4.5660 H   0  0  0  0  0  0  0  0  0  0  0  0
   -0.6583   -0.2843    3.7585 H   0  0  0  0  0  0  0  0  0  0  0  0
    1.9884   -1.7072    3.9288 H   0  0  0  0  0  0  0  0  0  0  0  0
    0.5617   -2.1042    4.8561 H   0  0  0  0  0  0  0  0  0  0  0  0
    0.5617   -2.3118    3.1212 H   0  0  0  0  0  0  0  0  0  0  0  0
    2.7284    0.6582    1.5570 H   0  0  0  0  0  0  0  0  0  0  0  0
    2.7284    0.8658    3.2919 H   0  0  0  0  0  0  0  0  0  0  0  0
    3.9484   -1.1617    2.6547 H   0  0  0  0  0  0  0  0  0  0  0  0
    2.5217   -1.5588    3.5821 H   0  0  0  0  0  0  0  0  0  0  0  0
   -1.6333   -5.2375    0.7839 H   0  0  0  0  0  0  0  0  0  0  0  0
   -4.0544   -5.4189    0.6563 H   0  0  0  0  0  0  0  0  0  0  0  0
   -5.4093   -3.4354    0.1528 H   0  0  0  0  0  0  0  0  0  0  0  0
   -4.3314   -1.2737   -0.1379 H   0  0  0  0  0  0  0  0  0  0  0  0
    0.3749   -0.5086    2.6169 H   0  0  0  0  0  0  0  0  0  0  0  0
   -1.0310   -1.5185    2.6524 H   0  0  0  0  0  0  0  0  0  0  0  0
    1.5048    0.6156    0.4698 H   0  0  0  0  0  0  0  0  0  0  0  0
    2.2417    2.8535   -0.1354 H   0  0  0  0  0  0  0  0  0  0  0  0
   -1.5991    4.2672    0.3782 H   0  0  0  0  0  0  0  0  0  0  0  0
   -2.3184    2.1067    1.4408 H   0  0  0  0  0  0  0  0  0  0  0  0
    2.5556    4.2442   -1.8868 H   0  0  0  0  0  0  0  0  0  0  0  0
    4.8812    4.4931   -2.5555 H   0  0  0  0  0  0  0  0  0  0  0  0
    6.4812    5.6052   -1.0510 H   0  0  0  0  0  0  0  0  0  0  0  0
    5.5402    7.0149    0.6415 H   0  0  0  0  0  0  0  0  0  0  0  0
    3.3028    6.4437    1.6326 H   0  0  0  0  0  0  0  0  0  0  0  0
  1  2  1  0  0  0  0
  1 35  1  0  0  0  0
  1 36  1  0  0  0  0
  1 37  1  0  0  0  0
  2  3  1  0  0  0  0
  2 38  1  0  0  0  0
  2 39  1  0  0  0  0
  3  4  1  0  0  0  0
  3  5  1  0  0  0  0
  3  7  1  0  0  0  0
  4 40  1  0  0  0  0
  4 41  1  0  0  0  0
  4 42  1  0  0  0  0
  5  6  1  0  0  0  0
  5 43  1  0  0  0  0
  5 44  1  0  0  0  0
  6 45  1  0  0  0  0
  6 46  1  0  0  0  0
  6 47  1  0  0  0  0
  7  8  1  0  0  0  0
  7 48  1  0  0  0  0
  7 49  1  0  0  0  0
  8  9  1  0  0  0  0
  8 50  1  0  0  0  0
  8 51  1  0  0  0  0
  9 10  1  0  0  0  0
 10 11  2  0  0  0  0
 10 20  1  0  0  0  0
 11 12  1  0  0  0  0
 12 13  2  0  0  0  0
 12 17  1  0  0  0  0
 13 14  1  0  0  0  0
 13 52  1  0  0  0  0
 14 15  2  0  0  0  0
 14 53  1  0  0  0  0
 15 16  1  0  0  0  0
 15 54  1  0  0  0  0
 16 17  2  0  0  0  0
 16 55  1  0  0  0  0
 17 18  1  0  0  0  0
 18 19  2  0  0  0  0
 19 20  1  0  0  0  0
 19 21  1  0  0  0  0
 20 56  1  0  0  0  0
 20 57  1  0  0  0  0
 21 22  2  0  0  0  0
 21 26  1  0  0  0  0
 22 23  1  0  0  0  0
 22 58  1  0  0  0  0
 23 24  2  0  0  0  0
 23 59  1  0  0  0  0
 24 25  1  0  0  0  0
 24 27  1  0  0  0  0
 25 26  2  0  0  0  0
 25 60  1  0  0  0  0
 26 61  1  0  0  0  0
 27 28  1  0  0  0  0
 28 29  2  0  0  0  0
 28 33  1  0  0  0  0
 29 30  1  0  0  0  0
 29 62  1  0  0  0  0
 30 31  2  0  0  0  0
 30 63  1  0  0  0  0
 31 32  1  0  0  0  0
 31 64  1  0  0  0  0
 32 33  2  0  0  0  0
 32 65  1  0  0  0  0
 33 66  1  0  0  0  0
M  CHG  2   3   1  34  -1
M  END
>  <DRUGBANK_ID>
DB13702

>  <COMMON_NAME>
Tibezonium iodide

>  <CAS_NUMBER>
54663-47-7

>  <UNII>
E9P274AJEW

>  <SYNONYMS>
Tibezonium iodide

$$$$
