
 OpenBabel10282417213D

 51 55  0  0  0  0  0  0  0  0999 V2000
    1.7933   -0.0734   -0.9087 C   0  0  0  0  0  0  0  0  0  0  0  0
    1.0820   -1.5303   -0.8837 C   0  0  0  0  0  0  0  0  0  0  0  0
    0.8664    1.3670   -0.4951 C   0  0  0  0  0  0  0  0  0  0  0  0
    0.5019   -0.3048    0.7187 C   0  0  0  0  0  0  0  0  0  0  0  0
    0.8770   -1.8760    1.6642 C   0  0  0  0  0  0  0  0  0  0  0  0
   -0.3304   -1.6951    0.0899 C   0  0  0  0  0  0  0  0  0  0  0  0
   -0.7382    1.3649    0.3605 C   0  0  0  0  0  0  0  0  0  0  0  0
   -0.7224   -0.3177   -0.9200 C   0  0  0  0  0  0  0  0  0  0  0  0
   -0.2834   -3.2571    1.3264 C   0  0  0  0  0  0  0  0  0  0  0  0
   -6.2158   -1.7374    0.7857 C   0  0  0  0  0  0  0  0  0  0  0  0
   -6.1075   -4.1274    0.6290 C   0  0  0  0  0  0  0  0  0  0  0  0
   -2.3274   -2.7385   -3.8993 C   0  0  0  0  0  0  0  0  0  0  0  0
   -3.2558   -0.6999   -3.0757 C   0  0  0  0  0  0  0  0  0  0  0  0
   -7.5368   -1.7780    0.4690 C   0  0  0  0  0  0  0  0  0  0  0  0
   -7.4586   -4.0750    0.4425 C   0  0  0  0  0  0  0  0  0  0  0  0
   -1.8435   -1.9680   -4.9345 C   0  0  0  0  0  0  0  0  0  0  0  0
   -2.6671   -0.0062   -4.0861 C   0  0  0  0  0  0  0  0  0  0  0  0
   -4.0380   -2.9263    0.8295 C   0  0  0  0  0  0  0  0  0  0  0  0
   -3.7657   -2.8598   -1.8455 C   0  0  0  0  0  0  0  0  0  0  0  0
   -5.4915   -2.9231    0.7915 C   0  0  0  0  0  0  0  0  0  0  0  0
   -3.1694   -2.1047   -3.0120 C   0  0  0  0  0  0  0  0  0  0  0  0
   -1.4183   -0.2703    0.8186 C   0  0  0  0  0  0  0  0  0  0  0  0
   -1.8874   -1.8201   -0.9984 C   0  0  0  0  0  0  0  0  0  0  0  0
   -1.8358   -2.8088    0.4084 C   0  0  0  0  0  0  0  0  0  0  0  0
   -3.7085   -0.8126   -0.1256 C   0  0  0  0  0  0  0  0  0  0  0  0
   -3.4824   -2.1126   -0.6248 C   0  0  0  0  0  0  0  0  0  0  0  0
   -8.1880   -2.9378    0.3253 N   0  0  0  0  0  0  0  0  0  0  0  0
   -2.0089   -0.6263   -5.0644 N   0  0  0  0  0  0  0  0  0  0  0  0
   -2.5699   -1.1289    0.8752 N   0  0  0  0  0  0  0  0  0  0  0  0
   -4.5480   -0.0173   -0.4866 O   0  0  0  0  0  0  0  0  0  0  0  0
    2.6130   -0.2249   -0.0827 H   0  0  0  0  0  0  0  0  0  0  0  0
    1.5010   -2.5062   -0.8331 H   0  0  0  0  0  0  0  0  0  0  0  0
    1.5762    2.1716   -0.2466 H   0  0  0  0  0  0  0  0  0  0  0  0
    0.8496    0.4953    1.4357 H   0  0  0  0  0  0  0  0  0  0  0  0
    1.9139   -2.1330    1.3384 H   0  0  0  0  0  0  0  0  0  0  0  0
   -0.7767   -1.5933    1.2567 H   0  0  0  0  0  0  0  0  0  0  0  0
   -1.1026    2.3909    0.3970 H   0  0  0  0  0  0  0  0  0  0  0  0
   -1.5154    0.4567   -1.2917 H   0  0  0  0  0  0  0  0  0  0  0  0
    0.3585   -4.0457    0.7127 H   0  0  0  0  0  0  0  0  0  0  0  0
   -5.7820   -0.7660    0.9673 H   0  0  0  0  0  0  0  0  0  0  0  0
   -5.5430   -5.0503    0.6548 H   0  0  0  0  0  0  0  0  0  0  0  0
   -2.0741   -3.7863   -3.7979 H   0  0  0  0  0  0  0  0  0  0  0  0
   -3.6794   -0.0783   -2.3096 H   0  0  0  0  0  0  0  0  0  0  0  0
   -8.0807   -0.8488    0.3508 H   0  0  0  0  0  0  0  0  0  0  0  0
   -8.0060   -4.9992    0.3798 H   0  0  0  0  0  0  0  0  0  0  0  0
   -1.3205   -2.4458   -5.7491 H   0  0  0  0  0  0  0  0  0  0  0  0
   -2.7738    1.0716   -4.1034 H   0  0  0  0  0  0  0  0  0  0  0  0
   -3.5930   -3.9286    0.9213 H   0  0  0  0  0  0  0  0  0  0  0  0
   -3.7430   -2.4373    1.8040 H   0  0  0  0  0  0  0  0  0  0  0  0
   -3.2820   -3.8508   -1.6893 H   0  0  0  0  0  0  0  0  0  0  0  0
   -4.8313   -2.9292   -1.9138 H   0  0  0  0  0  0  0  0  0  0  0  0
  1 31  1  0  0  0  0
  2  1  2  0  0  0  0
  2 32  1  0  0  0  0
  3  1  1  0  0  0  0
  3 33  1  0  0  0  0
  4 34  1  0  0  0  0
  5  4  2  0  0  0  0
  5 35  1  0  0  0  0
  6  2  1  0  0  0  0
  6 36  1  0  0  0  0
  7  3  2  0  0  0  0
  7 37  1  0  0  0  0
  8  4  1  0  0  0  0
  8 38  1  0  0  0  0
  9  5  1  0  0  0  0
  9 39  1  0  0  0  0
 10 40  1  0  0  0  0
 11 41  1  0  0  0  0
 12 42  1  0  0  0  0
 13 43  1  0  0  0  0
 14 10  1  0  0  0  0
 14 44  1  0  0  0  0
 15 11  2  0  0  0  0
 15 45  1  0  0  0  0
 16 12  1  0  0  0  0
 16 46  1  0  0  0  0
 17 13  2  0  0  0  0
 17 47  1  0  0  0  0
 18 48  1  0  0  0  0
 18 49  1  0  0  0  0
 19 50  1  0  0  0  0
 19 51  1  0  0  0  0
 20 10  2  0  0  0  0
 20 11  1  0  0  0  0
 20 18  1  0  0  0  0
 21 12  2  0  0  0  0
 21 13  1  0  0  0  0
 21 19  1  0  0  0  0
 22  6  2  0  0  0  0
 22  7  1  0  0  0  0
 23  8  2  0  0  0  0
 24  9  2  0  0  0  0
 24 23  1  0  0  0  0
 26 18  1  0  0  0  0
 26 19  1  0  0  0  0
 26 23  1  0  0  0  0
 26 25  1  0  0  0  0
 27 14  2  0  0  0  0
 27 15  1  0  0  0  0
 28 16  2  0  0  0  0
 28 17  1  0  0  0  0
 29 22  1  0  0  0  0
 29 24  1  0  0  0  0
 29 25  1  0  0  0  0
 30 25  2  0  0  0  0
M  END
>  <DRUGBANK_ID>
DB13806

>  <COMMON_NAME>
Linopirdine

>  <CAS_NUMBER>
105431-72-9

>  <UNII>
I5TB3NZ94T

>  <SYNONYMS>
Linopirdine

$$$$
