
 OpenBabel10282417113D

 71 75  0  0  0  0  0  0  0  0999 V2000
   -0.2957   10.7447   -0.1875 N   0  0  0  0  0  0  0  0  0  0  0  0
   -0.8038    2.1473   -1.2233 N   0  0  0  0  0  0  0  0  0  0  0  0
    0.2830    9.6287    0.3567 C   0  0  0  0  0  0  0  0  0  0  0  0
   -0.7521    8.7268   -0.3635 C   0  0  2  0  0  0  0  0  0  0  0  0
   -1.4769   10.0654   -0.7043 C   0  0  1  0  0  0  0  0  0  0  0  0
   -1.5489    1.9651   -2.4009 C   0  0  0  0  0  0  0  0  0  0  0  0
   -0.7926    3.3516   -0.5093 C   0  0  0  0  0  0  0  0  0  0  0  0
   -1.2442   13.7695    3.7140 C   0  0  0  0  0  0  0  0  0  0  0  0
   -0.1376   12.0916    0.0548 C   0  0  0  0  0  0  0  0  0  0  0  0
   -1.7551   12.5109    3.7998 N   0  0  0  0  0  0  0  0  0  0  0  0
   -1.2400   14.2443    4.9435 N   0  0  0  0  0  0  0  0  0  0  0  0
   -1.1443    0.7708   -3.3313 C   0  0  0  0  0  0  0  0  0  0  0  0
   -1.8556   13.3027    5.7358 N   0  0  0  0  0  0  0  0  0  0  0  0
   -2.2061   12.2485    5.0262 N   0  0  0  0  0  0  0  0  0  0  0  0
   -1.3723    7.5910    0.4148 N   0  0  0  0  0  0  0  0  0  0  0  0
   -2.9611   10.5621    0.1522 S   0  0  0  0  0  0  0  0  0  0  0  0
   -1.2433   12.8911    0.1619 C   0  0  0  0  0  0  0  0  0  0  0  0
   -2.0239    3.8944   -0.2198 N   0  0  0  0  0  0  0  0  0  0  0  0
   -1.4897    6.3380   -0.2050 C   0  0  0  0  0  0  0  0  0  0  0  0
   -0.3229   -0.2243   -2.7894 N   0  0  0  0  0  0  0  0  0  0  0  0
   -2.1902    5.1516    0.5695 C   0  0  1  0  0  0  0  0  0  0  0  0
    1.2900   12.5667    0.3316 C   0  0  0  0  0  0  0  0  0  0  0  0
    0.3591    1.2919   -1.0172 C   0  0  0  0  0  0  0  0  0  0  0  0
   -0.4936   14.5928    2.3959 S   0  0  0  0  0  0  0  0  0  0  0  0
   -2.6872   12.3772   -0.0531 C   0  0  0  0  0  0  0  0  0  0  0  0
    1.1539    9.4522    1.1606 O   0  0  0  0  0  0  0  0  0  0  0  0
   -1.2212   14.3214    0.7368 C   0  0  0  0  0  0  0  0  0  0  0  0
   -2.5406    2.6265   -2.6940 O   0  0  0  0  0  0  0  0  0  0  0  0
    0.2511    3.8478   -0.0873 O   0  0  0  0  0  0  0  0  0  0  0  0
    0.0477   -0.1512   -1.3897 C   0  0  0  0  0  0  0  0  0  0  0  0
   -1.5529    0.7428   -4.4862 O   0  0  0  0  0  0  0  0  0  0  0  0
   -3.6808    5.4479    0.8537 C   0  0  0  0  0  0  0  0  0  0  0  0
   -1.0882    6.2026   -1.3645 O   0  0  0  0  0  0  0  0  0  0  0  0
    2.2873   11.8724    0.3911 O   0  0  0  0  0  0  0  0  0  0  0  0
   -4.6111    4.4149    1.0556 C   0  0  0  0  0  0  0  0  0  0  0  0
   -4.1832    6.7626    0.9593 C   0  0  0  0  0  0  0  0  0  0  0  0
   -1.9719   11.5306    2.8156 C   0  0  0  0  0  0  0  0  0  0  0  0
    1.4128   13.8991    0.4588 O   0  0  0  0  0  0  0  0  0  0  0  0
   -6.4165    6.0104    1.3370 C   0  0  0  0  0  0  0  0  0  0  0  0
   -5.9693    4.6975    1.2723 C   0  0  0  0  0  0  0  0  0  0  0  0
   -5.5251    7.0525    1.2013 C   0  0  0  0  0  0  0  0  0  0  0  0
    0.1457   -1.3418   -3.6135 C   0  0  0  0  0  0  0  0  0  0  0  0
   -7.7437    6.2385    1.5320 O   0  0  0  0  0  0  0  0  0  0  0  0
   -0.9783   -2.2123   -4.1555 C   0  0  0  0  0  0  0  0  0  0  0  0
   -1.6148   10.1946   -1.7773 H   0  0  0  0  0  0  0  0  0  0  0  0
   -0.3146    8.3275   -1.2838 H   0  0  0  0  0  0  0  0  0  0  0  0
   -1.6411    7.6967    1.3900 H   0  0  0  0  0  0  0  0  0  0  0  0
   -2.8290    3.4814   -0.6752 H   0  0  0  0  0  0  0  0  0  0  0  0
   -1.6710    4.9981    1.5263 H   0  0  0  0  0  0  0  0  0  0  0  0
    1.1964    1.6712   -1.6179 H   0  0  0  0  0  0  0  0  0  0  0  0
    0.6486    1.3392    0.0383 H   0  0  0  0  0  0  0  0  0  0  0  0
   -3.0686   12.6666   -1.0326 H   0  0  0  0  0  0  0  0  0  0  0  0
   -3.3395   12.8462    0.6986 H   0  0  0  0  0  0  0  0  0  0  0  0
   -0.6649   14.9485    0.0227 H   0  0  0  0  0  0  0  0  0  0  0  0
   -2.2192   14.7664    0.7536 H   0  0  0  0  0  0  0  0  0  0  0  0
    0.9182   -0.7861   -1.1944 H   0  0  0  0  0  0  0  0  0  0  0  0
   -0.7984   -0.5304   -0.8051 H   0  0  0  0  0  0  0  0  0  0  0  0
   -4.3084    3.3707    1.0271 H   0  0  0  0  0  0  0  0  0  0  0  0
   -3.5710    7.6393    0.8285 H   0  0  0  0  0  0  0  0  0  0  0  0
   -1.5500   10.5524    3.0287 H   0  0  0  0  0  0  0  0  0  0  0  0
   -3.0423   11.5087    2.6060 H   0  0  0  0  0  0  0  0  0  0  0  0
   -1.4008   11.8759    1.9990 H   0  0  0  0  0  0  0  0  0  0  0  0
    2.2920   14.0771    0.8589 H   0  0  0  0  0  0  0  0  0  0  0  0
   -6.6838    3.8875    1.3833 H   0  0  0  0  0  0  0  0  0  0  0  0
   -5.8313    8.0930    1.2583 H   0  0  0  0  0  0  0  0  0  0  0  0
    0.7217   -0.9222   -4.4465 H   0  0  0  0  0  0  0  0  0  0  0  0
    0.8310   -1.9670   -3.0281 H   0  0  0  0  0  0  0  0  0  0  0  0
   -7.9004    7.1976    1.5228 H   0  0  0  0  0  0  0  0  0  0  0  0
   -1.6548   -1.6475   -4.8024 H   0  0  0  0  0  0  0  0  0  0  0  0
   -0.5722   -3.0333   -4.7552 H   0  0  0  0  0  0  0  0  0  0  0  0
   -1.5716   -2.6338   -3.3392 H   0  0  0  0  0  0  0  0  0  0  0  0
  2  7  1  0  0  0  0
  3  1  1  0  0  0  0
  4  5  1  0  0  0  0
  4 15  1  0  0  0  0
  4 46  1  6  0  0  0
  4  3  1  0  0  0  0
  5  1  1  0  0  0  0
  5 45  1  6  0  0  0
  6  2  1  0  0  0  0
  7 18  1  0  0  0  0
  8 24  1  0  0  0  0
  9  1  1  0  0  0  0
 10  8  1  0  0  0  0
 11  8  2  0  0  0  0
 12  6  1  0  0  0  0
 13 11  1  0  0  0  0
 14 10  1  0  0  0  0
 14 13  2  0  0  0  0
 15 47  1  0  0  0  0
 16  5  1  0  0  0  0
 17  9  2  0  0  0  0
 18 48  1  0  0  0  0
 19 15  1  0  0  0  0
 20 30  1  0  0  0  0
 20 12  1  0  0  0  0
 21 32  1  0  0  0  0
 21 49  1  1  0  0  0
 21 19  1  0  0  0  0
 21 18  1  0  0  0  0
 22  9  1  0  0  0  0
 23  2  1  0  0  0  0
 23 50  1  0  0  0  0
 23 51  1  0  0  0  0
 24 27  1  0  0  0  0
 25 17  1  0  0  0  0
 25 16  1  0  0  0  0
 25 52  1  0  0  0  0
 25 53  1  0  0  0  0
 26  3  2  0  0  0  0
 27 17  1  0  0  0  0
 27 54  1  0  0  0  0
 27 55  1  0  0  0  0
 28  6  2  0  0  0  0
 29  7  2  0  0  0  0
 30 23  1  0  0  0  0
 30 56  1  0  0  0  0
 30 57  1  0  0  0  0
 31 12  2  0  0  0  0
 33 19  2  0  0  0  0
 34 22  2  0  0  0  0
 35 32  2  0  0  0  0
 35 58  1  0  0  0  0
 36 32  1  0  0  0  0
 36 59  1  0  0  0  0
 37 10  1  0  0  0  0
 37 60  1  0  0  0  0
 37 61  1  0  0  0  0
 37 62  1  0  0  0  0
 38 22  1  0  0  0  0
 38 63  1  0  0  0  0
 39 41  1  0  0  0  0
 40 35  1  0  0  0  0
 40 39  2  0  0  0  0
 40 64  1  0  0  0  0
 41 36  2  0  0  0  0
 41 65  1  0  0  0  0
 42 20  1  0  0  0  0
 42 66  1  0  0  0  0
 42 67  1  0  0  0  0
 43 39  1  0  0  0  0
 43 68  1  0  0  0  0
 44 42  1  0  0  0  0
 44 69  1  0  0  0  0
 44 70  1  0  0  0  0
 44 71  1  0  0  0  0
M  END
>  <DRUGBANK_ID>
DB01329

>  <COMMON_NAME>
Cefoperazone

>  <CAS_NUMBER>
62893-19-0

>  <UNII>
7U75I1278D

>  <SYNONYMS>
(6R,7R)-7-((R)-2-(4-Ethyl-2,3-dioxo-1-piperazinylcarboxamido)-2-(4-hydroxyphenyl)acetamido)-3-((1-methyl-1H-tetrazol-5-yl)thiomethyl)-8-oxo-5-thia-1-azabicyclo(4.2.0)oct-2-en-2-carbonsaeure; (6R,7R)-7-[[2-[(4-ethyl-2,3-dioxopiperazine-1-carbonyl)amino]-2-(4-hydroxyphenyl)acetyl]amino]-3-[(1-methyltetrazol-5-yl)sulfanylmethyl]-8-oxo-5-thia-1-azabicyclo[4.2.0]oct-2-ene-2-carboxylic acid; Cefoperazone; Cefoperazono; Cefoperazonum

$$$$
