
 OpenBabel10282417143D

 65 68  0  0  0  0  0  0  0  0999 V2000
  -12.7309    2.7724   -5.6988 N   0  0  0  0  0  0  0  0  0  0  0  0
  -12.9592    4.1982   -5.8319 C   0  0  1  0  0  0  0  0  0  0  0  0
  -11.6081    2.1311   -5.1915 C   0  0  0  0  0  0  0  0  0  0  0  0
  -13.6096    1.8153   -6.1539 C   0  0  0  0  0  0  0  0  0  0  0  0
  -13.1360    4.6621   -7.2806 C   0  0  1  0  0  0  0  0  0  0  0  0
  -14.1785    4.5619   -5.1435 O   0  0  0  0  0  0  0  0  0  0  0  0
  -11.9026    0.7871   -5.3855 C   0  0  0  0  0  0  0  0  0  0  0  0
  -10.4659    2.6350   -4.6339 N   0  0  0  0  0  0  0  0  0  0  0  0
  -13.1403    0.6038   -5.9806 N   0  0  0  0  0  0  0  0  0  0  0  0
  -13.9614    5.9307   -7.1143 C   0  0  1  0  0  0  0  0  0  0  0  0
  -14.8384    5.6044   -5.8935 C   0  0  1  0  0  0  0  0  0  0  0  0
  -10.9418   -0.1468   -4.9687 C   0  0  0  0  0  0  0  0  0  0  0  0
   -9.5938    1.6418   -4.2561 C   0  0  0  0  0  0  0  0  0  0  0  0
  -16.2739    5.2449   -6.3361 C   0  0  0  0  0  0  0  0  0  0  0  0
   -9.7867    0.3038   -4.4003 N   0  0  0  0  0  0  0  0  0  0  0  0
  -11.1624   -1.5000   -5.1292 N   0  0  0  0  0  0  0  0  0  0  0  0
  -11.8965    4.8675   -7.9448 O   0  0  0  0  0  0  0  0  0  0  0  0
  -13.0946    7.0546   -6.8874 O   0  0  0  0  0  0  0  0  0  0  0  0
  -16.8027    4.0861   -5.8055 N   0  0  0  0  0  0  0  0  0  0  0  0
  -16.9017    5.9625   -7.1120 O   0  0  0  0  0  0  0  0  0  0  0  0
  -18.1522    3.6467   -6.1316 C   0  0  0  0  0  0  0  0  0  0  0  0
  -18.1475    2.2852   -6.8014 C   0  0  0  0  0  0  0  0  0  0  0  0
   -8.2948    2.0312   -3.6241 C   0  0  0  0  0  0  0  0  0  0  0  0
   -7.1620    2.3694   -3.0742 C   0  0  0  0  0  0  0  0  0  0  0  0
   -5.8413    2.7637   -2.4333 C   0  0  0  0  0  0  0  0  0  0  0  0
   -6.1406    3.6047   -1.1836 C   0  0  1  0  0  0  0  0  0  0  0  0
   -5.0741    4.6960   -1.0284 C   0  0  0  0  0  0  0  0  0  0  0  0
   -5.1977    5.7707   -2.1140 C   0  0  0  0  0  0  0  0  0  0  0  0
   -6.6172    6.3504   -2.2098 C   0  0  1  0  0  0  0  0  0  0  0  0
   -7.6705    5.2545   -2.3609 C   0  0  0  0  0  0  0  0  0  0  0  0
   -7.5593    4.2219   -1.2304 C   0  0  0  0  0  0  0  0  0  0  0  0
   -6.9417    7.1953   -0.9812 C   0  0  0  0  0  0  0  0  0  0  0  0
   -7.2429    8.4950   -1.1406 O   0  0  0  0  0  0  0  0  0  0  0  0
   -6.9539    6.7274    0.1632 O   0  0  0  0  0  0  0  0  0  0  0  0
   -7.2343    9.1241   -2.4183 C   0  0  0  0  0  0  0  0  0  0  0  0
  -12.1232    4.7112   -5.3459 H   0  0  0  0  0  0  0  0  0  0  0  0
  -14.5632    2.0551   -6.6167 H   0  0  0  0  0  0  0  0  0  0  0  0
  -13.7185    3.9439   -7.8695 H   0  0  0  0  0  0  0  0  0  0  0  0
  -14.5370    6.1645   -8.0166 H   0  0  0  0  0  0  0  0  0  0  0  0
  -14.9286    6.4805   -5.2380 H   0  0  0  0  0  0  0  0  0  0  0  0
  -12.0280   -1.8029   -5.5615 H   0  0  0  0  0  0  0  0  0  0  0  0
  -10.4681   -2.1581   -4.8206 H   0  0  0  0  0  0  0  0  0  0  0  0
  -11.4535    5.6372   -7.5434 H   0  0  0  0  0  0  0  0  0  0  0  0
  -12.5673    6.9233   -6.0837 H   0  0  0  0  0  0  0  0  0  0  0  0
  -16.2792    3.5877   -5.0915 H   0  0  0  0  0  0  0  0  0  0  0  0
  -18.7328    3.6113   -5.2038 H   0  0  0  0  0  0  0  0  0  0  0  0
  -18.6363    4.3697   -6.7965 H   0  0  0  0  0  0  0  0  0  0  0  0
  -17.7548    1.5175   -6.1273 H   0  0  0  0  0  0  0  0  0  0  0  0
  -19.1639    1.9982   -7.0913 H   0  0  0  0  0  0  0  0  0  0  0  0
  -17.5251    2.2948   -7.7020 H   0  0  0  0  0  0  0  0  0  0  0  0
   -5.2830    1.8612   -2.1596 H   0  0  0  0  0  0  0  0  0  0  0  0
   -5.2444    3.2822   -3.1875 H   0  0  0  0  0  0  0  0  0  0  0  0
   -6.0907    2.9411   -0.3096 H   0  0  0  0  0  0  0  0  0  0  0  0
   -5.1761    5.1578   -0.0415 H   0  0  0  0  0  0  0  0  0  0  0  0
   -4.0691    4.2586   -1.0466 H   0  0  0  0  0  0  0  0  0  0  0  0
   -4.4701    6.5680   -1.9319 H   0  0  0  0  0  0  0  0  0  0  0  0
   -4.9249    5.3402   -3.0873 H   0  0  0  0  0  0  0  0  0  0  0  0
   -6.6491    6.9392   -3.1289 H   0  0  0  0  0  0  0  0  0  0  0  0
   -8.6844    5.6657   -2.3920 H   0  0  0  0  0  0  0  0  0  0  0  0
   -7.5190    4.7916   -3.3456 H   0  0  0  0  0  0  0  0  0  0  0  0
   -8.3312    3.4507   -1.3412 H   0  0  0  0  0  0  0  0  0  0  0  0
   -7.8101    4.6605   -0.2639 H   0  0  0  0  0  0  0  0  0  0  0  0
   -6.2356    9.0695   -2.8592 H   0  0  0  0  0  0  0  0  0  0  0  0
   -7.9935    8.6744   -3.0636 H   0  0  0  0  0  0  0  0  0  0  0  0
   -7.4887   10.1729   -2.2588 H   0  0  0  0  0  0  0  0  0  0  0  0
  1  3  1  0  0  0  0
  1  4  1  0  0  0  0
  2  1  1  0  0  0  0
  2  6  1  0  0  0  0
  2 36  1  1  0  0  0
  3  7  2  0  0  0  0
  3  8  1  0  0  0  0
  4  9  2  0  0  0  0
  4 37  1  0  0  0  0
  5 17  1  0  0  0  0
  5  2  1  0  0  0  0
  5 10  1  0  0  0  0
  5 38  1  6  0  0  0
  6 11  1  0  0  0  0
  7 12  1  0  0  0  0
  7  9  1  0  0  0  0
  8 13  2  0  0  0  0
 10 18  1  0  0  0  0
 10 11  1  0  0  0  0
 10 39  1  6  0  0  0
 11 40  1  1  0  0  0
 11 14  1  0  0  0  0
 12 15  2  0  0  0  0
 12 16  1  0  0  0  0
 13 23  1  0  0  0  0
 13 15  1  0  0  0  0
 14 19  1  0  0  0  0
 14 20  2  0  0  0  0
 16 41  1  0  0  0  0
 16 42  1  0  0  0  0
 17 43  1  0  0  0  0
 18 44  1  0  0  0  0
 19 21  1  0  0  0  0
 19 45  1  0  0  0  0
 21 22  1  0  0  0  0
 21 46  1  0  0  0  0
 21 47  1  0  0  0  0
 22 48  1  0  0  0  0
 22 49  1  0  0  0  0
 22 50  1  0  0  0  0
 23 24  3  0  0  0  0
 24 25  1  0  0  0  0
 25 51  1  0  0  0  0
 25 52  1  0  0  0  0
 26 27  1  0  0  0  0
 26 31  1  0  0  0  0
 26 53  1  1  0  0  0
 26 25  1  0  0  0  0
 27 28  1  0  0  0  0
 27 54  1  0  0  0  0
 27 55  1  0  0  0  0
 28 29  1  0  0  0  0
 28 56  1  0  0  0  0
 28 57  1  0  0  0  0
 29 30  1  0  0  0  0
 29 32  1  0  0  0  0
 29 58  1  6  0  0  0
 30 31  1  0  0  0  0
 30 59  1  0  0  0  0
 30 60  1  0  0  0  0
 31 61  1  0  0  0  0
 31 62  1  0  0  0  0
 32 33  1  0  0  0  0
 32 34  2  0  0  0  0
 33 35  1  0  0  0  0
 35 63  1  0  0  0  0
 35 64  1  0  0  0  0
 35 65  1  0  0  0  0
M  END
>  <DRUGBANK_ID>
DB05009

>  <COMMON_NAME>
Apadenoson

>  <CAS_NUMBER>
250386-15-3

>  <UNII>
BTS1Y6777M

>  <SYNONYMS>
Apadenoson

$$$$
