
 OpenBabel10282417213D

 40 41  0  0  0  0  0  0  0  0999 V2000
    0.9170    0.0430    0.0066 C   0  0  0  0  0  0  0  0  0  0  0  0
    5.5525   -0.1445    1.3357 C   0  0  0  0  0  0  0  0  0  0  0  0
    0.5905   -1.4390   -0.0999 C   0  0  0  0  0  0  0  0  0  0  0  0
    3.1871   -3.6643    1.1865 C   0  0  0  0  0  0  0  0  0  0  0  0
    4.5413   -3.7811    1.5723 C   0  0  0  0  0  0  0  0  0  0  0  0
    0.1220   -2.9137    1.8834 C   0  0  0  0  0  0  0  0  0  0  0  0
    0.1036   -4.4487    1.9035 C   0  0  0  0  0  0  0  0  0  0  0  0
    3.3657   -1.3385    1.2916 C   0  0  0  0  0  0  0  0  0  0  0  0
   10.8622   -2.9573    1.8682 C   0  0  0  0  0  0  0  0  0  0  0  0
    4.7739   -1.4240    1.4492 C   0  0  0  0  0  0  0  0  0  0  0  0
    2.5171   -2.4385    1.1394 C   0  0  0  0  0  0  0  0  0  0  0  0
    5.3801   -2.6691    1.6688 C   0  0  0  0  0  0  0  0  0  0  0  0
   11.1514   -1.9208    2.7192 C   0  0  0  0  0  0  0  0  0  0  0  0
    8.8111   -2.1332    2.1222 C   0  0  0  0  0  0  0  0  0  0  0  0
    9.5293   -3.0683    1.5222 N   0  0  0  0  0  0  0  0  0  0  0  0
    6.7576   -2.9331    1.9017 N   0  0  0  0  0  0  0  0  0  0  0  0
    7.4691   -1.9195    2.0475 N   0  0  0  0  0  0  0  0  0  0  0  0
    1.1399   -2.3045    0.9709 N   0  0  0  0  0  0  0  0  0  0  0  0
   12.4373   -1.6032    3.2539 N   0  0  0  0  0  0  0  0  0  0  0  0
    1.1860   -4.9587    2.6755 O   0  0  0  0  0  0  0  0  0  0  0  0
   12.5306   -0.6269    4.0160 O   0  0  0  0  0  0  0  0  0  0  0  0
   13.3688   -2.3378    2.9155 O   0  0  0  0  0  0  0  0  0  0  0  0
    9.7574   -1.0275    3.0813 S   0  0  0  0  0  0  0  0  0  0  0  0
    0.6787    0.4419    0.9988 H   0  0  0  0  0  0  0  0  0  0  0  0
    0.3630    0.6185   -0.7403 H   0  0  0  0  0  0  0  0  0  0  0  0
    1.9651    0.2398   -0.2256 H   0  0  0  0  0  0  0  0  0  0  0  0
    6.0559    0.0812    2.2782 H   0  0  0  0  0  0  0  0  0  0  0  0
    6.2750   -0.2331    0.5160 H   0  0  0  0  0  0  0  0  0  0  0  0
    4.9115    0.7087    1.0942 H   0  0  0  0  0  0  0  0  0  0  0  0
   -0.5059   -1.5065   -0.1050 H   0  0  0  0  0  0  0  0  0  0  0  0
    0.9116   -1.8262   -1.0713 H   0  0  0  0  0  0  0  0  0  0  0  0
    2.6753   -4.5954    0.9537 H   0  0  0  0  0  0  0  0  0  0  0  0
    4.9435   -4.7730    1.7742 H   0  0  0  0  0  0  0  0  0  0  0  0
    0.2705   -2.5274    2.8986 H   0  0  0  0  0  0  0  0  0  0  0  0
   -0.8890   -2.5986    1.5873 H   0  0  0  0  0  0  0  0  0  0  0  0
   -0.7957   -4.8241    2.4017 H   0  0  0  0  0  0  0  0  0  0  0  0
    0.1292   -4.8628    0.8893 H   0  0  0  0  0  0  0  0  0  0  0  0
    2.9529   -0.3399    1.3201 H   0  0  0  0  0  0  0  0  0  0  0  0
   11.5747   -3.6710    1.4726 H   0  0  0  0  0  0  0  0  0  0  0  0
    1.7783   -4.1968    2.8214 H   0  0  0  0  0  0  0  0  0  0  0  0
  1 24  1  0  0  0  0
  1 25  1  0  0  0  0
  1 26  1  0  0  0  0
  2 27  1  0  0  0  0
  2 28  1  0  0  0  0
  2 29  1  0  0  0  0
  3  1  1  0  0  0  0
  3 30  1  0  0  0  0
  3 31  1  0  0  0  0
  4 32  1  0  0  0  0
  5  4  1  0  0  0  0
  5 33  1  0  0  0  0
  6 34  1  0  0  0  0
  6 35  1  0  0  0  0
  7  6  1  0  0  0  0
  7 36  1  0  0  0  0
  7 37  1  0  0  0  0
  8 38  1  0  0  0  0
  9 39  1  0  0  0  0
 10  2  1  0  0  0  0
 10  8  2  0  0  0  0
 11  4  2  0  0  0  0
 11  8  1  0  0  0  0
 12  5  2  0  0  0  0
 12 10  1  0  0  0  0
 13  9  2  0  0  0  0
 15  9  1  0  0  0  0
 15 14  2  0  0  0  0
 16 12  1  0  0  0  0
 17 14  1  0  0  0  0
 17 16  2  0  0  0  0
 18  3  1  0  0  0  0
 18  6  1  0  0  0  0
 18 11  1  0  0  0  0
 19 13  1  0  0  0  0
 20  7  1  0  0  0  0
 20 40  1  0  0  0  0
 21 19  2  0  0  0  0
 22 19  2  0  0  0  0
 23 13  1  0  0  0  0
 23 14  1  0  0  0  0
M  END
>  <DRUGBANK_ID>
DB14203

>  <COMMON_NAME>
Disperse Blue 106

>  <CAS_NUMBER>
68516-81-4

>  <UNII>
C48O4QYD6N

>  <SYNONYMS>
5-Nitro-2-(2-methyl-4-(N-ethyl-N-(2-hydroxyethyl)amino)phenylazo)thiazole; C.I. Disperse Blue 106; C.I. Disperse Blue 357; Disperse Blue 357

$$$$
