BPM
 OpenBabel10282417163D

 37 38  0  0  0  0  0  0  0  0999 V2000
    0.9719    0.1752   -0.0393 C   0  0  0  0  0  0  0  0  0  0  0  0
    0.6166   -0.6163   -1.2868 C   0  0  0  0  0  0  0  0  0  0  0  0
    1.1620   -1.8830   -1.3989 C   0  0  0  0  0  0  0  0  0  0  0  0
    0.6583   -2.8049   -2.2779 C   0  0  0  0  0  0  0  0  0  0  0  0
   -0.5893   -1.1036   -3.3640 C   0  0  0  0  0  0  0  0  0  0  0  0
   -0.2446   -0.2077   -2.3117 C   0  0  0  0  0  0  0  0  0  0  0  0
   -0.1079   -2.4196   -3.3512 C   0  0  0  0  0  0  0  0  0  0  0  0
   -0.2256   -3.2944   -4.4078 O   0  0  0  0  0  0  0  0  0  0  0  0
   -0.0396   -4.8936   -4.2451 P   0  0  0  0  0  0  0  0  0  0  0  0
    0.9409   -5.4607   -3.2487 O   0  0  0  0  0  0  0  0  0  0  0  0
   -1.5347   -5.3804   -4.0217 O   0  0  0  0  0  0  0  0  0  0  0  0
    0.3442   -5.5123   -5.6644 O   0  0  0  0  0  0  0  0  0  0  0  0
    0.5759   -0.4592    1.3023 C   0  0  0  0  0  0  0  0  0  0  0  0
    0.7075   -1.8321    1.5133 C   0  0  0  0  0  0  0  0  0  0  0  0
    0.7022   -2.4057    2.7637 C   0  0  0  0  0  0  0  0  0  0  0  0
    0.0809   -0.3111    3.6967 C   0  0  0  0  0  0  0  0  0  0  0  0
    0.2645    0.3043    2.4346 C   0  0  0  0  0  0  0  0  0  0  0  0
    0.2436   -1.6891    3.8440 C   0  0  0  0  0  0  0  0  0  0  0  0
   -0.2085   -2.3200    4.9824 O   0  0  0  0  0  0  0  0  0  0  0  0
   -0.2258   -4.0442    5.1229 P   0  0  0  0  0  0  0  0  0  0  0  0
   -1.4214   -3.9736    6.0682 O   0  0  0  0  0  0  0  0  0  0  0  0
   -0.8032   -4.2583    3.6115 O   0  0  0  0  0  0  0  0  0  0  0  0
   -0.2431   -5.7684    5.2633 O   0  0  0  0  0  0  0  0  0  0  0  0
    0.5956    1.1998   -0.1116 H   0  0  0  0  0  0  0  0  0  0  0  0
    2.0704    0.2505   -0.0140 H   0  0  0  0  0  0  0  0  0  0  0  0
    1.9314   -2.2422   -0.7234 H   0  0  0  0  0  0  0  0  0  0  0  0
    0.9430   -3.8165   -2.0584 H   0  0  0  0  0  0  0  0  0  0  0  0
   -1.2515   -0.7479   -4.1519 H   0  0  0  0  0  0  0  0  0  0  0  0
   -0.6197    0.8142   -2.3213 H   0  0  0  0  0  0  0  0  0  0  0  0
   -2.1301   -4.7935   -4.5289 H   0  0  0  0  0  0  0  0  0  0  0  0
    1.0381   -6.1873   -5.4834 H   0  0  0  0  0  0  0  0  0  0  0  0
    0.7937   -2.5684    0.7323 H   0  0  0  0  0  0  0  0  0  0  0  0
    0.9455   -3.4620    2.7810 H   0  0  0  0  0  0  0  0  0  0  0  0
   -0.1878    0.2960    4.5568 H   0  0  0  0  0  0  0  0  0  0  0  0
    0.1300    1.3798    2.3454 H   0  0  0  0  0  0  0  0  0  0  0  0
   -1.6079   -3.7303    3.4663 H   0  0  0  0  0  0  0  0  0  0  0  0
    0.6594   -6.1206    5.3191 H   0  0  0  0  0  0  0  0  0  0  0  0
  1  2  1  0  0  0  0
  1 13  1  0  0  0  0
  1 24  1  0  0  0  0
  1 25  1  0  0  0  0
  2  3  2  0  0  0  0
  2  6  1  0  0  0  0
  3  4  1  0  0  0  0
  3 26  1  0  0  0  0
  4  7  2  0  0  0  0
  4 27  1  0  0  0  0
  5  6  2  0  0  0  0
  5  7  1  0  0  0  0
  5 28  1  0  0  0  0
  6 29  1  0  0  0  0
  7  8  1  0  0  0  0
  8  9  1  0  0  0  0
  9 10  2  0  0  0  0
  9 11  1  0  0  0  0
  9 12  1  0  0  0  0
 11 30  1  0  0  0  0
 12 31  1  0  0  0  0
 13 14  2  0  0  0  0
 13 17  1  0  0  0  0
 14 15  1  0  0  0  0
 14 32  1  0  0  0  0
 15 18  2  0  0  0  0
 15 33  1  0  0  0  0
 16 17  2  0  0  0  0
 16 18  1  0  0  0  0
 16 34  1  0  0  0  0
 17 35  1  0  0  0  0
 18 19  1  0  0  0  0
 19 20  1  0  0  0  0
 20 21  2  0  0  0  0
 20 22  1  0  0  0  0
 20 23  1  0  0  0  0
 22 36  1  0  0  0  0
 23 37  1  0  0  0  0
M  END
>  <DRUGBANK_ID>
DB07480

>  <COMMON_NAME>
4-PHOSPHONOOXY-PHENYL-METHYL-[4-PHOSPHONOOXY]BENZEN

$$$$
