27A
 OpenBabel10282417163D

 38 39  0  0  0  0  0  0  0  0999 V2000
   -8.1756    2.6375    1.9520 C   0  0  0  0  0  0  0  0  0  0  0  0
   -7.2690    3.5032    2.5714 C   0  0  0  0  0  0  0  0  0  0  0  0
   -5.9074    3.5752    2.2030 C   0  0  0  0  0  0  0  0  0  0  0  0
   -5.4712    2.6792    1.1655 C   0  0  0  0  0  0  0  0  0  0  0  0
   -6.4015    1.7707    0.5980 C   0  0  0  0  0  0  0  0  0  0  0  0
   -7.7448    1.7816    0.9520 C   0  0  0  0  0  0  0  0  0  0  0  0
   -5.0134    4.2087    4.4961 C   0  0  0  0  0  0  0  0  0  0  0  0
   -4.8105    5.4843    5.2768 C   0  0  0  0  0  0  0  0  0  0  0  0
   -3.8454    6.5055    3.3247 C   0  0  0  0  0  0  0  0  0  0  0  0
   -4.0067    5.2397    2.4534 C   0  0  0  0  0  0  0  0  0  0  0  0
   -3.3820    7.3644    5.5499 C   0  0  0  0  0  0  0  0  0  0  0  0
   -4.0397    2.4760    0.6583 C   0  0  0  0  0  0  0  0  0  0  0  0
   -3.4596    0.9168    3.1822 C   0  0  0  0  0  0  0  0  0  0  0  0
   -3.7651    2.1649    3.4106 N   0  0  0  0  0  0  0  0  0  0  0  0
   -3.5571    0.0220    4.5955 S   0  0  0  0  0  0  0  0  0  0  0  0
   -3.1326    0.5195    1.9129 N   0  0  0  0  0  0  0  0  0  0  0  0
   -3.4386    1.1266    0.8533 N   0  0  0  0  0  0  0  0  0  0  0  0
   -5.1003    4.4099    2.9920 N   0  0  0  0  0  0  0  0  0  0  0  0
   -3.6186    6.1784    4.7510 N   0  0  0  0  0  0  0  0  0  0  0  0
   -9.2122    2.6134    2.2768 H   0  0  0  0  0  0  0  0  0  0  0  0
   -7.6389    4.1355    3.3769 H   0  0  0  0  0  0  0  0  0  0  0  0
   -6.0576    1.0013   -0.0961 H   0  0  0  0  0  0  0  0  0  0  0  0
   -8.4427    1.1056    0.4649 H   0  0  0  0  0  0  0  0  0  0  0  0
   -4.0856    3.6913    4.7726 H   0  0  0  0  0  0  0  0  0  0  0  0
   -5.8336    3.6050    4.8993 H   0  0  0  0  0  0  0  0  0  0  0  0
   -4.6344    5.2022    6.3261 H   0  0  0  0  0  0  0  0  0  0  0  0
   -5.7146    6.0931    5.2251 H   0  0  0  0  0  0  0  0  0  0  0  0
   -4.7531    7.1104    3.2262 H   0  0  0  0  0  0  0  0  0  0  0  0
   -2.9986    7.0786    2.9335 H   0  0  0  0  0  0  0  0  0  0  0  0
   -3.0496    4.7036    2.4805 H   0  0  0  0  0  0  0  0  0  0  0  0
   -4.2017    5.5218    1.4129 H   0  0  0  0  0  0  0  0  0  0  0  0
   -2.5148    7.9139    5.1766 H   0  0  0  0  0  0  0  0  0  0  0  0
   -4.2602    8.0152    5.5433 H   0  0  0  0  0  0  0  0  0  0  0  0
   -3.1641    7.0760    6.5849 H   0  0  0  0  0  0  0  0  0  0  0  0
   -4.0739    2.6296   -0.4322 H   0  0  0  0  0  0  0  0  0  0  0  0
   -3.3315    3.2507    0.9557 H   0  0  0  0  0  0  0  0  0  0  0  0
   -4.7272    2.1880    3.7399 H   0  0  0  0  0  0  0  0  0  0  0  0
   -3.6980    2.8951    2.7158 H   0  0  0  0  0  0  0  0  0  0  0  0
  1  2  2  0  0  0  0
  1  6  1  0  0  0  0
  1 20  1  0  0  0  0
  2  3  1  0  0  0  0
  2 21  1  0  0  0  0
  3  4  2  0  0  0  0
  3 18  1  0  0  0  0
  4  5  1  0  0  0  0
  4 12  1  0  0  0  0
  5  6  2  0  0  0  0
  5 22  1  0  0  0  0
  6 23  1  0  0  0  0
  7  8  1  0  0  0  0
  7 18  1  0  0  0  0
  7 24  1  0  0  0  0
  7 25  1  0  0  0  0
  8 19  1  0  0  0  0
  8 26  1  0  0  0  0
  8 27  1  0  0  0  0
  9 10  1  0  0  0  0
  9 19  1  0  0  0  0
  9 28  1  0  0  0  0
  9 29  1  0  0  0  0
 10 18  1  0  0  0  0
 10 30  1  0  0  0  0
 10 31  1  0  0  0  0
 11 19  1  0  0  0  0
 11 32  1  0  0  0  0
 11 33  1  0  0  0  0
 11 34  1  0  0  0  0
 12 17  1  0  0  0  0
 12 35  1  0  0  0  0
 12 36  1  0  0  0  0
 13 14  1  0  0  0  0
 13 15  2  0  0  0  0
 13 16  1  0  0  0  0
 14 37  1  0  0  0  0
 14 38  1  0  0  0  0
 16 17  2  0  0  0  0
M  END
>  <DRUGBANK_ID>
DB06941

>  <COMMON_NAME>
(Z)-2-[2-(4-methylpiperazin-1-yl)benzyl]diazenecarbothioamide

$$$$
