
 OpenBabel10282417133D

 89 88  0  0  0  0  0  0  0  0999 V2000
    1.1398   -1.9351   -0.4593 S   0  0  0  0  0  0  0  0  0  0  0  0
    2.9834    1.3576   -0.5932 P   0  0  3  0  0  0  0  0  0  0  0  0
    1.7509    4.3985    2.0523 O   0  0  0  0  0  0  0  0  0  0  0  0
    1.7310    0.5121   -0.1220 O   0  0  0  0  0  0  0  0  0  0  0  0
    2.4068    1.5517   -2.2126 O   0  0  0  0  0  0  0  0  0  0  0  0
   -2.1547    2.5698    3.4439 O   0  0  0  0  0  0  0  0  0  0  0  0
    4.0937    0.4253   -1.3268 O   0  0  0  0  0  0  0  0  0  0  0  0
    3.4995    1.1839    0.8563 O   0  0  0  0  0  0  0  0  0  0  0  0
   -0.1414    2.4491    2.5540 N   0  0  0  0  0  0  0  0  0  0  0  0
   -3.5993    1.6449   -3.6931 C   0  0  0  0  0  0  0  0  0  0  0  0
   -2.3952    1.0506   -3.0516 C   0  0  0  0  0  0  0  0  0  0  0  0
   -3.2955    1.7482   -5.1997 C   0  0  0  0  0  0  0  0  0  0  0  0
   -1.2947    1.9969   -3.4387 C   0  0  0  0  0  0  0  0  0  0  0  0
   -2.9791    0.3516   -5.7608 C   0  0  0  0  0  0  0  0  0  0  0  0
   -1.4146    3.4353   -2.9331 C   0  0  0  0  0  0  0  0  0  0  0  0
   -4.1637   -0.5624   -5.4494 C   0  0  0  0  0  0  0  0  0  0  0  0
   -1.7135    3.5546   -1.4522 C   0  0  0  0  0  0  0  0  0  0  0  0
   -5.4291    0.0611   -6.0462 C   0  0  0  0  0  0  0  0  0  0  0  0
   -0.5014    3.1224   -0.7460 C   0  0  0  0  0  0  0  0  0  0  0  0
   -5.2548    0.2083   -7.5605 C   0  0  0  0  0  0  0  0  0  0  0  0
    0.8429    3.8564   -1.0654 C   0  0  0  0  0  0  0  0  0  0  0  0
   -5.0233   -1.1694   -8.1882 C   0  0  0  0  0  0  0  0  0  0  0  0
    1.0045    5.1533   -0.3133 C   0  0  0  0  0  0  0  0  0  0  0  0
   -6.2234   -2.0851   -7.9250 C   0  0  0  0  0  0  0  0  0  0  0  0
    0.8232    5.0575    1.2007 C   0  0  0  0  0  0  0  0  0  0  0  0
   -7.5091   -1.4866   -8.4968 C   0  0  0  0  0  0  0  0  0  0  0  0
    2.1341    3.0554    1.8116 C   0  0  0  0  0  0  0  0  0  0  0  0
    1.1066    1.8864    2.0343 C   0  0  2  0  0  0  0  0  0  0  0  0
   -7.3795   -1.2992   -9.9995 C   0  0  0  0  0  0  0  0  0  0  0  0
    0.8135    1.0894    0.7582 C   0  0  0  0  0  0  0  0  0  0  0  0
   -1.1725    1.9106    3.2406 C   0  0  0  0  0  0  0  0  0  0  0  0
   -0.9789    0.4939    3.6503 C   0  0  0  0  0  0  0  0  0  0  0  0
    1.2864    0.8348   -2.5116 C   0  0  0  0  0  0  0  0  0  0  0  0
    0.7507   -0.5572   -1.9321 C   0  0  0  0  0  0  0  0  0  0  0  0
    2.9436   -1.7030    0.1924 C   0  0  0  0  0  0  0  0  0  0  0  0
   -0.4698    3.3351    2.2313 H   0  0  0  0  0  0  0  0  0  0  0  0
    4.2307    0.7263   -2.2459 H   0  0  0  0  0  0  0  0  0  0  0  0
   -4.4668    1.0412   -3.4350 H   0  0  0  0  0  0  0  0  0  0  0  0
   -3.7994    2.6292   -3.2675 H   0  0  0  0  0  0  0  0  0  0  0  0
   -2.1462    0.0321   -3.3894 H   0  0  0  0  0  0  0  0  0  0  0  0
   -2.4794    0.9259   -1.9672 H   0  0  0  0  0  0  0  0  0  0  0  0
   -4.1266    2.2493   -5.6900 H   0  0  0  0  0  0  0  0  0  0  0  0
   -2.4661    2.4180   -5.4478 H   0  0  0  0  0  0  0  0  0  0  0  0
   -0.9194    1.9811   -4.4689 H   0  0  0  0  0  0  0  0  0  0  0  0
   -0.5765    1.4066   -2.9933 H   0  0  0  0  0  0  0  0  0  0  0  0
   -2.7623    0.4250   -6.8296 H   0  0  0  0  0  0  0  0  0  0  0  0
   -2.0559   -0.0878   -5.3647 H   0  0  0  0  0  0  0  0  0  0  0  0
   -2.1855    3.9781   -3.4672 H   0  0  0  0  0  0  0  0  0  0  0  0
   -0.4881    3.9465   -3.1925 H   0  0  0  0  0  0  0  0  0  0  0  0
   -3.9697   -1.5708   -5.8199 H   0  0  0  0  0  0  0  0  0  0  0  0
   -4.2958   -0.7187   -4.3744 H   0  0  0  0  0  0  0  0  0  0  0  0
   -2.5125    2.8727   -1.1262 H   0  0  0  0  0  0  0  0  0  0  0  0
   -1.9599    4.5470   -1.0897 H   0  0  0  0  0  0  0  0  0  0  0  0
   -6.3010   -0.5366   -5.7760 H   0  0  0  0  0  0  0  0  0  0  0  0
   -5.6613    1.0373   -5.6084 H   0  0  0  0  0  0  0  0  0  0  0  0
   -0.5284    2.0548   -0.9830 H   0  0  0  0  0  0  0  0  0  0  0  0
   -0.7335    3.1172    0.3100 H   0  0  0  0  0  0  0  0  0  0  0  0
   -6.1216    0.7210   -7.9833 H   0  0  0  0  0  0  0  0  0  0  0  0
   -4.4244    0.8735   -7.8208 H   0  0  0  0  0  0  0  0  0  0  0  0
    1.0356    4.0091   -2.1295 H   0  0  0  0  0  0  0  0  0  0  0  0
    1.7207    3.2866   -0.8220 H   0  0  0  0  0  0  0  0  0  0  0  0
   -4.8226   -1.0595   -9.2560 H   0  0  0  0  0  0  0  0  0  0  0  0
   -4.1116   -1.6417   -7.8073 H   0  0  0  0  0  0  0  0  0  0  0  0
    0.2037    5.7885   -0.7005 H   0  0  0  0  0  0  0  0  0  0  0  0
    1.9665    5.6049   -0.5710 H   0  0  0  0  0  0  0  0  0  0  0  0
   -6.0336   -3.0718   -8.3565 H   0  0  0  0  0  0  0  0  0  0  0  0
   -6.3523   -2.2652   -6.8503 H   0  0  0  0  0  0  0  0  0  0  0  0
   -0.1754    4.6855    1.3533 H   0  0  0  0  0  0  0  0  0  0  0  0
    0.7632    6.0663    1.6031 H   0  0  0  0  0  0  0  0  0  0  0  0
   -8.3540   -2.1398   -8.2644 H   0  0  0  0  0  0  0  0  0  0  0  0
   -7.7457   -0.5255   -8.0243 H   0  0  0  0  0  0  0  0  0  0  0  0
    3.0057    2.8249    2.4351 H   0  0  0  0  0  0  0  0  0  0  0  0
    2.5453    3.1125    0.8186 H   0  0  0  0  0  0  0  0  0  0  0  0
    1.5053    1.1550    2.7377 H   0  0  0  0  0  0  0  0  0  0  0  0
   -7.1782   -2.2631  -10.4755 H   0  0  0  0  0  0  0  0  0  0  0  0
   -8.2909   -0.8708  -10.4166 H   0  0  0  0  0  0  0  0  0  0  0  0
   -6.5631   -0.6182  -10.2618 H   0  0  0  0  0  0  0  0  0  0  0  0
    0.7216    1.9189    0.1584 H   0  0  0  0  0  0  0  0  0  0  0  0
   -0.1468    0.5627    0.7156 H   0  0  0  0  0  0  0  0  0  0  0  0
   -1.0408   -0.1328    2.7588 H   0  0  0  0  0  0  0  0  0  0  0  0
   -0.0020    0.3910    4.1250 H   0  0  0  0  0  0  0  0  0  0  0  0
   -1.7633    0.2423    4.3582 H   0  0  0  0  0  0  0  0  0  0  0  0
    1.1603    0.9117   -3.5986 H   0  0  0  0  0  0  0  0  0  0  0  0
    0.7010    1.6282   -2.1113 H   0  0  0  0  0  0  0  0  0  0  0  0
    0.7693   -1.2099   -2.7929 H   0  0  0  0  0  0  0  0  0  0  0  0
   -0.3207   -0.3589   -1.7173 H   0  0  0  0  0  0  0  0  0  0  0  0
    2.6511   -1.1480    1.1060 H   0  0  0  0  0  0  0  0  0  0  0  0
    3.1052   -1.4460   -0.8470 H   0  0  0  0  0  0  0  0  0  0  0  0
    3.8693   -1.0700    0.2666 H   0  0  0  0  0  0  0  0  0  0  0  0
  1 34  1  0  0  0  0
  1 35  1  0  0  0  0
  2  4  1  0  0  0  0
  2  5  1  0  0  0  0
  2  7  1  0  0  0  0
  2  8  2  0  0  0  0
  3 25  1  0  0  0  0
  3 27  1  0  0  0  0
  4 30  1  0  0  0  0
  5 33  1  0  0  0  0
  6 31  2  0  0  0  0
  7 37  1  0  0  0  0
  9 31  1  0  0  0  0
  9 36  1  0  0  0  0
 10 11  1  0  0  0  0
 10 12  1  0  0  0  0
 10 38  1  0  0  0  0
 10 39  1  0  0  0  0
 11 13  1  0  0  0  0
 11 40  1  0  0  0  0
 11 41  1  0  0  0  0
 12 14  1  0  0  0  0
 12 42  1  0  0  0  0
 12 43  1  0  0  0  0
 13 15  1  0  0  0  0
 13 44  1  0  0  0  0
 13 45  1  0  0  0  0
 14 16  1  0  0  0  0
 14 46  1  0  0  0  0
 14 47  1  0  0  0  0
 15 17  1  0  0  0  0
 15 48  1  0  0  0  0
 15 49  1  0  0  0  0
 16 18  1  0  0  0  0
 16 50  1  0  0  0  0
 16 51  1  0  0  0  0
 17 19  1  0  0  0  0
 17 52  1  0  0  0  0
 17 53  1  0  0  0  0
 18 20  1  0  0  0  0
 18 54  1  0  0  0  0
 18 55  1  0  0  0  0
 19 21  1  0  0  0  0
 19 56  1  0  0  0  0
 19 57  1  0  0  0  0
 20 22  1  0  0  0  0
 20 58  1  0  0  0  0
 20 59  1  0  0  0  0
 21 23  1  0  0  0  0
 21 60  1  0  0  0  0
 21 61  1  0  0  0  0
 22 24  1  0  0  0  0
 22 62  1  0  0  0  0
 22 63  1  0  0  0  0
 23 25  1  0  0  0  0
 23 64  1  0  0  0  0
 23 65  1  0  0  0  0
 24 26  1  0  0  0  0
 24 66  1  0  0  0  0
 24 67  1  0  0  0  0
 25 68  1  0  0  0  0
 25 69  1  0  0  0  0
 26 29  1  0  0  0  0
 26 70  1  0  0  0  0
 26 71  1  0  0  0  0
 27 72  1  0  0  0  0
 27 73  1  0  0  0  0
 28 30  1  0  0  0  0
 28 74  1  1  0  0  0
 28 27  1  0  0  0  0
 28  9  1  0  0  0  0
 29 75  1  0  0  0  0
 29 76  1  0  0  0  0
 29 77  1  0  0  0  0
 30 78  1  0  0  0  0
 30 79  1  0  0  0  0
 31 32  1  0  0  0  0
 32 80  1  0  0  0  0
 32 81  1  0  0  0  0
 32 82  1  0  0  0  0
 33 34  1  0  0  0  0
 33 83  1  0  0  0  0
 33 84  1  0  0  0  0
 34 85  1  0  0  0  0
 34 86  1  0  0  0  0
 35 87  1  0  0  0  0
 35 88  1  0  0  0  0
 35 89  1  0  0  0  0
M  END
>  <DRUGBANK_ID>
DB04112

>  <SECONDARY_ACCESSION_NUMBERS>
EXPT01881

>  <COMMON_NAME>
(2R)-2-Acetamido-3-(octadecyloxy)propyl 2-(methylsulfanyl)ethyl hydrogen phosphate

>  <SYNONYMS>
1-Octadecyl-2-acetamido-2-deoxy-SN-glycerol-3-phosphoethylmethyl sulfide

$$$$
