1400
 OpenBabel10282417113D

 35 35  0  0  0  0  0  0  0  0999 V2000
    1.2904    0.0093    0.1663 C   0  0  0  0  0  0  0  0  0  0  0  0
    0.3327   -0.9755    0.0020 C   0  0  0  0  0  0  0  0  0  0  0  0
    0.8561    1.3087    0.1096 C   0  0  0  0  0  0  0  0  0  0  0  0
    2.6373   -0.5171    0.1852 O   0  0  0  0  0  0  0  0  0  0  0  0
   -1.0422   -0.9617    0.1287 C   0  0  0  0  0  0  0  0  0  0  0  0
   -0.5503    1.4729    0.0843 C   0  0  0  0  0  0  0  0  0  0  0  0
    3.3083   -1.8623    0.3062 C   0  0  0  0  0  0  0  0  0  0  0  0
   -1.4777    0.3593    0.1193 C   0  0  0  0  0  0  0  0  0  0  0  0
   -1.9420   -2.3170    0.3053 N   0  3  0  0  0  0  0  0  0  0  0  0
    2.5911   -3.0959    0.2766 N   0  0  0  0  0  0  0  0  0  0  0  0
    4.5186   -1.8730    0.4337 O   0  0  0  0  0  0  0  0  0  0  0  0
   -1.9557   -2.8056    1.7771 C   0  0  0  0  0  0  0  0  0  0  0  0
   -3.3907   -2.0283   -0.0575 C   0  0  0  0  0  0  0  0  0  0  0  0
   -1.5154   -3.6168   -0.4393 C   0  0  0  0  0  0  0  0  0  0  0  0
    3.2268   -4.3786    0.4267 C   0  0  0  0  0  0  0  0  0  0  0  0
    1.2284   -3.3801    0.1087 C   0  0  0  0  0  0  0  0  0  0  0  0
    0.7607   -1.5441   -0.7953 H   0  0  0  0  0  0  0  0  0  0  0  0
    1.5248    2.1664    0.0150 H   0  0  0  0  0  0  0  0  0  0  0  0
   -0.9631    2.4842    0.0537 H   0  0  0  0  0  0  0  0  0  0  0  0
   -2.5231    0.6307    0.0675 H   0  0  0  0  0  0  0  0  0  0  0  0
   -2.4413   -2.0724    2.4131 H   0  0  0  0  0  0  0  0  0  0  0  0
   -2.5492   -3.7387    1.7772 H   0  0  0  0  0  0  0  0  0  0  0  0
   -0.9523   -3.0730    2.1161 H   0  0  0  0  0  0  0  0  0  0  0  0
   -3.6334   -2.5114   -1.0056 H   0  0  0  0  0  0  0  0  0  0  0  0
   -4.0275   -2.4320    0.7360 H   0  0  0  0  0  0  0  0  0  0  0  0
   -3.5806   -0.9660   -0.1118 H   0  0  0  0  0  0  0  0  0  0  0  0
   -1.0156   -3.4311   -1.3883 H   0  0  0  0  0  0  0  0  0  0  0  0
   -0.9147   -4.2295    0.2444 H   0  0  0  0  0  0  0  0  0  0  0  0
   -2.3851   -4.2725   -0.5768 H   0  0  0  0  0  0  0  0  0  0  0  0
    2.7291   -4.8662    1.2830 H   0  0  0  0  0  0  0  0  0  0  0  0
    2.9518   -4.9627   -0.4679 H   0  0  0  0  0  0  0  0  0  0  0  0
    4.2930   -4.3490    0.5570 H   0  0  0  0  0  0  0  0  0  0  0  0
    0.7079   -2.9517    0.9618 H   0  0  0  0  0  0  0  0  0  0  0  0
    0.9502   -3.1579   -0.9217 H   0  0  0  0  0  0  0  0  0  0  0  0
    0.9963   -4.4467    0.1187 H   0  0  0  0  0  0  0  0  0  0  0  0
  1  2  2  0  0  0  0
  1  3  1  0  0  0  0
  1  4  1  0  0  0  0
  2  5  1  0  0  0  0
  2 17  1  0  0  0  0
  3  6  2  0  0  0  0
  3 18  1  0  0  0  0
  4  7  1  0  0  0  0
  5  8  2  0  0  0  0
  5  9  1  0  0  0  0
  6  8  1  0  0  0  0
  6 19  1  0  0  0  0
  7 10  1  0  0  0  0
  7 11  2  0  0  0  0
  8 20  1  0  0  0  0
  9 12  1  0  0  0  0
  9 13  1  0  0  0  0
  9 14  1  0  0  0  0
 10 15  1  0  0  0  0
 10 16  1  0  0  0  0
 12 21  1  0  0  0  0
 12 22  1  0  0  0  0
 12 23  1  0  0  0  0
 13 24  1  0  0  0  0
 13 25  1  0  0  0  0
 13 26  1  0  0  0  0
 14 27  1  0  0  0  0
 14 28  1  0  0  0  0
 14 29  1  0  0  0  0
 15 30  1  0  0  0  0
 15 31  1  0  0  0  0
 15 32  1  0  0  0  0
 16 33  1  0  0  0  0
 16 34  1  0  0  0  0
 16 35  1  0  0  0  0
M  CHG  1   9   1
M  END
>  <DRUGBANK_ID>
DB01400

>  <COMMON_NAME>
Neostigmine

>  <CAS_NUMBER>
59-99-4

>  <UNII>
3982TWQ96G

>  <SYNONYMS>
(m-Hydroxyphenyl)trimethylammonium dimethylcarbamate; 3-Trimethylammoniumphenyl N,N-dimethylcarbamate; Eustigmin; Eustigmine; m-Trimethylammoniumphenyldimethylcarbamate; Neostigmina

$$$$
