
 OpenBabel10282417243D

 16 17  0  0  0  0  0  0  0  0999 V2000
    0.9112    0.4498    0.0788 S   0  0  0  0  0  0  0  0  0  0  0  0
    2.5272    0.1009    0.0780 C   0  0  0  0  0  0  0  0  0  0  0  0
    3.5276    1.0307    0.0785 N   0  0  0  0  0  0  0  0  0  0  0  0
    4.7710    0.4545    0.0785 C   0  0  0  0  0  0  0  0  0  0  0  0
    6.1886    1.3052    0.0790 S   0  0  0  0  0  0  0  0  0  0  0  0
    4.5578   -0.9968    0.0781 C   0  0  0  0  0  0  0  0  0  0  0  0
    5.4369   -2.0685    0.0789 C   0  0  0  0  0  0  0  0  0  0  0  0
    4.8893   -3.3601    0.0798 C   0  0  0  0  0  0  0  0  0  0  0  0
    3.4956   -3.5580    0.0777 C   0  0  0  0  0  0  0  0  0  0  0  0
    2.6244   -2.4701    0.0764 C   0  0  0  0  0  0  0  0  0  0  0  0
    3.1795   -1.2034    0.0773 C   0  0  0  0  0  0  0  0  0  0  0  0
    3.3607    2.0261    0.0793 H   0  0  0  0  0  0  0  0  0  0  0  0
    6.5141   -1.9313    0.0792 H   0  0  0  0  0  0  0  0  0  0  0  0
    5.5451   -4.2294    0.0824 H   0  0  0  0  0  0  0  0  0  0  0  0
    3.0887   -4.5675    0.0771 H   0  0  0  0  0  0  0  0  0  0  0  0
    1.5496   -2.6153    0.0751 H   0  0  0  0  0  0  0  0  0  0  0  0
  1  2  2  0  0  0  0
  2  3  1  0  0  0  0
  2 11  1  0  0  0  0
  3  4  1  0  0  0  0
  3 12  1  0  0  0  0
  4  5  2  0  0  0  0
  4  6  1  0  0  0  0
  6  7  2  0  0  0  0
  6 11  1  0  0  0  0
  7  8  1  0  0  0  0
  7 13  1  0  0  0  0
  8  9  2  0  0  0  0
  8 14  1  0  0  0  0
  9 10  1  0  0  0  0
  9 15  1  0  0  0  0
 10 11  2  0  0  0  0
 10 16  1  0  0  0  0
M  END
>  <DRUGBANK_ID>
DB17936

>  <COMMON_NAME>
Isoindolin-1,3-Dithione

>  <CAS_NUMBER>
18138-19-7

>  <UNII>
7R978066MK

>  <SYNONYMS>
1h-isoindole-1,3(2h)-dithione; Dithiophthalimide; Phthalimide, dithio-

$$$$
