
 OpenBabel10282417133D

 34 33  0  0  0  0  0  0  0  0999 V2000
    1.3927    0.2205    0.0570 O   0  0  0  0  0  0  0  0  0  0  0  0
    1.2200   -1.9865   -0.1487 O   0  0  0  0  0  0  0  0  0  0  0  0
   -1.4039   -0.3142    1.1655 N   0  3  0  0  0  0  0  0  0  0  0  0
   -3.2260   -2.1284   -2.9056 N   0  0  0  0  0  0  0  0  0  0  0  0
   -5.2909   -2.0897   -1.9033 N   0  0  0  0  0  0  0  0  0  0  0  0
   -1.3747    0.0132   -1.4734 C   0  0  0  0  0  0  0  0  0  0  0  0
   -0.7961   -0.6545   -0.1914 C   0  0  1  0  0  0  0  0  0  0  0  0
   -1.0970   -0.7356   -2.8203 C   0  0  0  0  0  0  0  0  0  0  0  0
   -1.7956   -2.0694   -3.1782 C   0  0  0  0  0  0  0  0  0  0  0  0
    0.6955   -0.9071   -0.1400 C   0  0  0  0  0  0  0  0  0  0  0  0
   -3.4485   -2.0479   -0.4209 C   0  0  0  0  0  0  0  0  0  0  0  0
   -3.9340   -2.1270   -1.8387 C   0  0  0  0  0  0  0  0  0  0  0  0
   -2.5741   -3.1949    0.1119 C   0  0  0  0  0  0  0  0  0  0  0  0
   -1.4707   -3.7692   -0.7870 C   0  0  0  0  0  0  0  0  0  0  0  0
    2.3246   -0.0952    0.0086 H   0  0  0  0  0  0  0  0  0  0  0  0
   -1.1603    0.6176    1.5056 H   0  0  0  0  0  0  0  0  0  0  0  0
   -2.4260   -0.4212    1.2319 H   0  0  0  0  0  0  0  0  0  0  0  0
   -1.0551   -1.0020    1.8587 H   0  0  0  0  0  0  0  0  0  0  0  0
   -5.8547   -1.7554   -1.1297 H   0  0  0  0  0  0  0  0  0  0  0  0
   -5.7568   -2.2245   -2.7893 H   0  0  0  0  0  0  0  0  0  0  0  0
   -2.4559    0.1899   -1.4860 H   0  0  0  0  0  0  0  0  0  0  0  0
   -0.9781    1.0277   -1.5211 H   0  0  0  0  0  0  0  0  0  0  0  0
   -1.1117   -1.6486   -0.2374 H   0  0  0  0  0  0  0  0  0  0  0  0
   -1.3871   -0.0508   -3.6255 H   0  0  0  0  0  0  0  0  0  0  0  0
   -0.0138   -0.8830   -2.9135 H   0  0  0  0  0  0  0  0  0  0  0  0
   -1.6878   -2.2380   -4.2631 H   0  0  0  0  0  0  0  0  0  0  0  0
   -1.1958   -2.9289   -2.8945 H   0  0  0  0  0  0  0  0  0  0  0  0
   -3.0346   -1.0659   -0.3627 H   0  0  0  0  0  0  0  0  0  0  0  0
   -4.2722   -1.8588    0.2834 H   0  0  0  0  0  0  0  0  0  0  0  0
   -2.1109   -2.8735    1.0559 H   0  0  0  0  0  0  0  0  0  0  0  0
   -3.2367   -4.0128    0.3788 H   0  0  0  0  0  0  0  0  0  0  0  0
   -0.7503   -3.0485   -1.1755 H   0  0  0  0  0  0  0  0  0  0  0  0
   -0.7956   -4.4475   -0.2694 H   0  0  0  0  0  0  0  0  0  0  0  0
   -1.9243   -4.2754   -1.6381 H   0  0  0  0  0  0  0  0  0  0  0  0
  1 10  1  0  0  0  0
  1 15  1  0  0  0  0
  2 10  2  0  0  0  0
  3 16  1  0  0  0  0
  3 17  1  0  0  0  0
  3 18  1  0  0  0  0
  4  9  1  0  0  0  0
  4 12  2  0  0  0  0
  5 12  1  0  0  0  0
  5 19  1  0  0  0  0
  5 20  1  0  0  0  0
  6  7  1  0  0  0  0
  6  8  1  0  0  0  0
  6 21  1  0  0  0  0
  6 22  1  0  0  0  0
  7  3  1  0  0  0  0
  7 10  1  0  0  0  0
  7 23  1  6  0  0  0
  8  9  1  0  0  0  0
  8 24  1  0  0  0  0
  8 25  1  0  0  0  0
  9 26  1  0  0  0  0
  9 27  1  0  0  0  0
 11 12  1  0  0  0  0
 11 13  1  0  0  0  0
 11 28  1  0  0  0  0
 11 29  1  0  0  0  0
 13 14  1  0  0  0  0
 13 30  1  0  0  0  0
 13 31  1  0  0  0  0
 14 32  1  0  0  0  0
 14 33  1  0  0  0  0
 14 34  1  0  0  0  0
M  CHG  1   3   1
M  END
>  <DRUGBANK_ID>
DB03710

>  <SECONDARY_ACCESSION_NUMBERS>
EXPT03224

>  <COMMON_NAME>
[(1S)-4-(1-Aminobutylideneamino)-1-carboxybutyl]azanium

$$$$
