
 OpenBabel10282417203D

 31 32  0  0  0  0  0  0  0  0999 V2000
    1.0482   -0.1063   -0.0560 C   0  0  0  0  0  0  0  0  0  0  0  0
    0.5224    1.1232    0.6730 C   0  0  3  0  0  0  0  0  0  0  0  0
    0.9614    2.4442    0.0846 C   0  0  0  0  0  0  0  0  0  0  0  0
    0.5233    3.6091    0.5750 C   0  0  0  0  0  0  0  0  0  0  0  0
    0.8814    4.8384   -0.0998 C   0  0  0  0  0  0  0  0  0  0  0  0
    0.3628    6.0556    0.3548 C   0  0  0  0  0  0  0  0  0  0  0  0
    0.6831    7.2448   -0.2995 C   0  0  0  0  0  0  0  0  0  0  0  0
    1.5224    7.2077   -1.4135 C   0  0  0  0  0  0  0  0  0  0  0  0
    2.0340    5.9954   -1.8723 C   0  0  0  0  0  0  0  0  0  0  0  0
    1.7145    4.8024   -1.2193 C   0  0  0  0  0  0  0  0  0  0  0  0
    2.2365    3.5066   -1.7010 C   0  0  0  0  0  0  0  0  0  0  0  0
    2.9914    3.4686   -2.6708 O   0  0  0  0  0  0  0  0  0  0  0  0
    1.8349    2.3843   -1.0324 O   0  0  0  0  0  0  0  0  0  0  0  0
    2.8425    6.0684   -2.9754 O   0  0  0  0  0  0  0  0  0  0  0  0
    0.1216    8.3725    0.2339 O   0  0  0  0  0  0  0  0  0  0  0  0
    0.4506    9.5953   -0.4180 C   0  0  0  0  0  0  0  0  0  0  0  0
   -0.9993    1.0828    0.7198 C   0  0  0  0  0  0  0  0  0  0  0  0
   -1.6793    1.0807    1.7374 O   0  0  0  0  0  0  0  0  0  0  0  0
   -1.5878    1.1312   -0.4929 O   0  0  0  0  0  0  0  0  0  0  0  0
    0.7150   -0.1282   -1.0992 H   0  0  0  0  0  0  0  0  0  0  0  0
    0.6858   -1.0205    0.4261 H   0  0  0  0  0  0  0  0  0  0  0  0
    2.1429   -0.1282   -0.0448 H   0  0  0  0  0  0  0  0  0  0  0  0
    0.8831    1.0773    1.7095 H   0  0  0  0  0  0  0  0  0  0  0  0
   -0.1393    3.6507    1.4342 H   0  0  0  0  0  0  0  0  0  0  0  0
   -0.2997    6.0829    1.2185 H   0  0  0  0  0  0  0  0  0  0  0  0
    1.7993    8.1067   -1.9523 H   0  0  0  0  0  0  0  0  0  0  0  0
    3.1459    5.1628   -3.2085 H   0  0  0  0  0  0  0  0  0  0  0  0
    1.5287    9.7846   -0.3727 H   0  0  0  0  0  0  0  0  0  0  0  0
    0.0931    9.5938   -1.4535 H   0  0  0  0  0  0  0  0  0  0  0  0
   -0.0536   10.4100    0.1081 H   0  0  0  0  0  0  0  0  0  0  0  0
   -2.5512    1.1641   -0.3157 H   0  0  0  0  0  0  0  0  0  0  0  0
  1  2  1  0  0  0  0
  1 20  1  0  0  0  0
  1 21  1  0  0  0  0
  1 22  1  0  0  0  0
  2  3  1  0  0  0  0
  2 17  1  0  0  0  0
  2 23  1  0  0  0  0
  3  4  2  0  0  0  0
  3 13  1  0  0  0  0
  4  5  1  0  0  0  0
  4 24  1  0  0  0  0
  5  6  2  0  0  0  0
  5 10  1  0  0  0  0
  6  7  1  0  0  0  0
  6 25  1  0  0  0  0
  7  8  2  0  0  0  0
  7 15  1  0  0  0  0
  8  9  1  0  0  0  0
  8 26  1  0  0  0  0
  9 10  2  0  0  0  0
  9 14  1  0  0  0  0
 10 11  1  0  0  0  0
 11 12  2  0  0  0  0
 11 13  1  0  0  0  0
 14 27  1  0  0  0  0
 15 16  1  0  0  0  0
 16 28  1  0  0  0  0
 16 29  1  0  0  0  0
 16 30  1  0  0  0  0
 17 18  2  0  0  0  0
 17 19  1  0  0  0  0
 19 31  1  0  0  0  0
M  END
>  <DRUGBANK_ID>
DB12818

>  <COMMON_NAME>
NM-3

>  <CAS_NUMBER>
181427-78-1

>  <UNII>
5797K23F95

$$$$
