
 OpenBabel10282417233D

227228  0  0  1  0  0  0  0  0999 V2000
    2.5296    0.1326    4.5553 C   0  0  0  0  0  0  0  0  0  0  0  0
    1.1497    0.0782    4.0154 C   0  0  0  0  0  0  0  0  0  0  0  0
    0.7492   -1.2009    3.3773 C   0  0  2  0  0  0  0  0  0  0  0  0
    1.7443   -1.3411    2.2328 C   0  0  0  0  0  0  0  0  0  0  0  0
   -0.7375   -1.1740    3.0271 C   0  0  2  0  0  0  0  0  0  0  0  0
   -1.2083    0.1870    2.3050 N   0  0  0  0  0  0  0  0  0  0  0  0
   -1.1800    1.0355    1.2171 C   0  0  0  0  0  0  0  0  0  0  0  0
   -1.5439    2.1969    1.4820 O   0  0  0  0  0  0  0  0  0  0  0  0
   -0.7787    0.7598   -0.2791 C   0  0  2  0  0  0  0  0  0  0  0  0
    0.6613    1.1699   -0.5788 C   0  0  0  0  0  0  0  0  0  0  0  0
    0.9813    1.2275   -2.0686 C   0  0  0  0  0  0  0  0  0  0  0  0
    0.2160    2.3209   -2.7933 C   0  0  0  0  0  0  0  0  0  0  0  0
    0.4905    3.6109   -2.1912 N   0  0  0  0  0  0  0  0  0  0  0  0
    0.9174    4.6316   -2.9518 C   0  0  0  0  0  0  0  0  0  0  0  0
    1.1481    5.7808   -2.3062 N   0  0  0  0  0  0  0  0  0  0  0  0
    1.1107    4.4851   -4.2123 N   0  0  0  0  0  0  0  0  0  0  0  0
   -1.8581    1.0697   -1.2118 N   0  0  0  0  0  0  0  0  0  0  0  0
   -2.4614    0.2089   -2.1210 C   0  0  0  0  0  0  0  0  0  0  0  0
   -3.2160    0.6912   -2.9700 O   0  0  0  0  0  0  0  0  0  0  0  0
   -2.3404   -1.3536   -2.0096 C   0  0  1  0  0  0  0  0  0  0  0  0
   -0.8638   -1.8382   -2.1595 N   0  0  0  0  0  0  0  0  0  0  0  0
    0.1001   -2.3375   -1.2988 C   0  0  0  0  0  0  0  0  0  0  0  0
    1.3108   -2.4835   -1.6878 O   0  0  0  0  0  0  0  0  0  0  0  0
   -0.2554   -2.7510    0.1181 C   0  0  1  0  0  0  0  0  0  0  0  0
   -0.9756   -1.6597    0.6327 N   0  0  0  0  0  0  0  0  0  0  0  0
   -1.1285   -3.9060    0.2246 C   0  0  0  0  0  0  0  0  0  0  0  0
   -0.9315   -5.2352   -0.4020 C   0  0  0  0  0  0  0  0  0  0  0  0
    0.1761   -6.1233    0.6876 S   0  0  0  0  0  0  0  0  0  0  0  0
    1.5370   -4.9273    0.8063 C   0  0  0  0  0  0  0  0  0  0  0  0
   -3.2345   -1.8133   -0.8156 C   0  0  0  0  0  0  0  0  0  0  0  0
   -4.5509   -1.2534   -0.3914 C   0  0  0  0  0  0  0  0  0  0  0  0
   -3.5133   -3.3281   -0.7170 C   0  0  0  0  0  0  0  0  0  0  0  0
   -1.8707   -1.6530    3.9442 C   0  0  0  0  0  0  0  0  0  0  0  0
   -2.5741   -2.6261    3.6618 O   0  0  0  0  0  0  0  0  0  0  0  0
   -2.1922   -0.9341    5.0296 N   0  0  0  0  0  0  0  0  0  0  0  0
   -1.5189    0.2421    5.4971 C   0  0  1  0  0  0  0  0  0  0  0  0
   -2.3905    1.5072    5.3759 C   0  0  0  0  0  0  0  0  0  0  0  0
   -3.4380    1.5529    6.4423 C   0  0  0  0  0  0  0  0  0  0  0  0
   -2.7115    1.7677    7.7291 C   0  0  0  0  0  0  0  0  0  0  0  0
   -1.6803    2.8306    7.9414 C   0  0  0  0  0  0  0  0  0  0  0  0
   -2.4974    3.9843    8.0254 N   0  0  0  0  0  0  0  0  0  0  0  0
   -0.5122   -0.0707    6.7620 C   0  0  0  0  0  0  0  0  0  0  0  0
    0.5944    0.4900    6.8374 O   0  0  0  0  0  0  0  0  0  0  0  0
   -0.9685   -0.6956    7.9309 N   0  0  0  0  0  0  0  0  0  0  0  0
   -2.2290   -1.4002    8.1578 C   0  0  0  0  0  0  0  0  0  0  0  0
   -2.9861   -0.6870    9.2707 C   0  0  0  0  0  0  0  0  0  0  0  0
   -1.8673   -0.0098   10.0654 C   0  0  0  0  0  0  0  0  0  0  0  0
   -0.6267    0.0711    9.1338 C   0  0  1  0  0  0  0  0  0  0  0  0
    0.7233   -0.2608    9.7374 C   0  0  0  0  0  0  0  0  0  0  0  0
    0.9258   -1.3663   10.2265 O   0  0  0  0  0  0  0  0  0  0  0  0
    1.7245    0.6933    9.7297 N   0  0  0  0  0  0  0  0  0  0  0  0
    1.7767    2.1102    9.2925 C   0  0  0  0  0  0  0  0  0  0  0  0
    2.1112    3.0574   10.4516 C   0  0  0  0  0  0  0  0  0  0  0  0
    3.0347    3.8684   10.3919 O   0  0  0  0  0  0  0  0  0  0  0  0
    1.3111    3.0739   11.5585 N   0  0  0  0  0  0  0  0  0  0  0  0
    0.0836    2.3118   11.7933 C   0  0  1  0  0  0  0  0  0  0  0  0
    0.2503    1.1784   12.8192 C   0  0  0  0  0  0  0  0  0  0  0  0
    0.5679    1.5702   14.1322 O   0  0  0  0  0  0  0  0  0  0  0  0
   -1.1602    3.1927   11.9840 C   0  0  0  0  0  0  0  0  0  0  0  0
   -2.1095    3.1626   11.1997 O   0  0  0  0  0  0  0  0  0  0  0  0
   -1.2484    4.0543   13.0225 N   0  0  0  0  0  0  0  0  0  0  0  0
   -0.2884    4.2175   14.1017 C   0  0  1  0  0  0  0  0  0  0  0  0
    0.3613    5.5796   14.1401 C   0  0  0  0  0  0  0  0  0  0  0  0
   -0.8226    3.7434   15.4631 C   0  0  0  0  0  0  0  0  0  0  0  0
   -0.2911    2.8786   16.1555 O   0  0  0  0  0  0  0  0  0  0  0  0
   -1.9104    4.3681   15.9773 N   0  0  0  0  0  0  0  0  0  0  0  0
   -2.5956    5.5409   15.4517 C   0  0  1  0  0  0  0  0  0  0  0  0
   -4.0109    5.2940   14.9637 C   0  0  0  0  0  0  0  0  0  0  0  0
   -5.0304    4.9380   15.9808 C   0  0  0  0  0  0  0  0  0  0  0  0
   -5.9756    5.9119   16.1837 N   0  0  0  0  0  0  0  0  0  0  0  0
   -4.9689    3.8923   16.6099 O   0  0  0  0  0  0  0  0  0  0  0  0
   -2.3268    6.7947   16.3041 C   0  0  0  0  0  0  0  0  0  0  0  0
   -1.6922    7.7530   15.8571 O   0  0  0  0  0  0  0  0  0  0  0  0
   -2.7695    6.8798   17.5835 N   0  0  0  0  0  0  0  0  0  0  0  0
   -3.5360    5.8963   18.3136 C   0  0  1  0  0  0  0  0  0  0  0  0
   -2.7818    5.1633   19.4383 C   0  0  0  0  0  0  0  0  0  0  0  0
   -2.6388    6.0268   20.6665 C   0  0  0  0  0  0  0  0  0  0  0  0
   -3.9891    6.2231   21.2979 C   0  0  0  0  0  0  0  0  0  0  0  0
   -4.9624    5.1148   21.5730 C   0  0  0  0  0  0  0  0  0  0  0  0
   -4.3911    4.5573   22.7489 N   0  0  0  0  0  0  0  0  0  0  0  0
   -5.0512    6.2691   18.6337 C   0  0  0  0  0  0  0  0  0  0  0  0
   -5.8800    5.3488   18.7026 O   0  0  0  0  0  0  0  0  0  0  0  0
   -5.4929    7.5330   19.0829 N   0  0  0  0  0  0  0  0  0  0  0  0
   -4.6743    8.7152   19.3632 C   0  0  0  0  0  0  0  0  0  0  0  0
   -4.7948    9.0214   20.8612 C   0  0  0  0  0  0  0  0  0  0  0  0
   -6.1707    8.4575   21.2353 C   0  0  0  0  0  0  0  0  0  0  0  0
   -6.5447    7.4552   20.1222 C   0  0  1  0  0  0  0  0  0  0  0  0
   -7.9497    7.5200   19.5942 C   0  0  0  0  0  0  0  0  0  0  0  0
   -8.3824    8.5372   19.0615 O   0  0  0  0  0  0  0  0  0  0  0  0
   -8.7424    6.3997   19.6589 N   0  0  0  0  0  0  0  0  0  0  0  0
   -8.5072    5.0017   20.1654 C   0  0  1  0  0  0  0  0  0  0  0  0
   -9.3775    4.6622   21.3946 C   0  0  0  0  0  0  0  0  0  0  0  0
  -10.7748    4.7371   21.2286 O   0  0  0  0  0  0  0  0  0  0  0  0
   -8.5617    3.9159   19.0649 C   0  0  0  0  0  0  0  0  0  0  0  0
   -7.6418    3.1166   18.8844 O   0  0  0  0  0  0  0  0  0  0  0  0
   -9.6743    3.7681   18.2885 N   0  0  0  0  0  0  0  0  0  0  0  0
  -10.9649    4.4256   18.4490 C   0  0  1  0  0  0  0  0  0  0  0  0
  -11.3009    5.4848   17.4245 C   0  0  0  0  0  0  0  0  0  0  0  0
  -11.5595    4.9595   16.0866 C   0  0  0  0  0  0  0  0  0  0  0  0
  -12.8531    4.9817   15.7139 O   0  0  0  0  0  0  0  0  0  0  0  0
  -10.7347    4.4106   15.3868 O   0  0  0  0  0  0  0  0  0  0  0  0
  -12.1447    3.5085   18.9013 C   0  0  0  0  0  0  0  0  0  0  0  0
  -12.7644    3.6961   19.9475 O   0  0  0  0  0  0  0  0  0  0  0  0
  -12.5937    2.5298   18.0651 N   0  0  0  0  0  0  0  0  0  0  0  0
  -12.0923    2.1796   16.7391 C   0  0  1  0  0  0  0  0  0  0  0  0
  -11.4238    0.8330   16.6482 C   0  0  0  0  0  0  0  0  0  0  0  0
  -12.4817   -0.1945   16.8639 C   0  0  0  0  0  0  0  0  0  0  0  0
  -12.7087   -0.9881   15.8028 O   0  0  0  0  0  0  0  0  0  0  0  0
  -13.1264   -0.2576   17.8994 O   0  0  0  0  0  0  0  0  0  0  0  0
  -13.1458    2.3008   15.5927 C   0  0  0  0  0  0  0  0  0  0  0  0
  -12.7576    2.8868   14.4347 O   0  0  0  0  0  0  0  0  0  0  0  0
  -14.2606    1.8218   15.6717 O   0  0  0  0  0  0  0  0  0  0  0  0
    2.6577   -0.7348    5.2107 H   0  0  0  0  0  0  0  0  0  0  0  0
    2.6086    1.0472    5.1431 H   0  0  0  0  0  0  0  0  0  0  0  0
    3.2582    0.1235    3.7547 H   0  0  0  0  0  0  0  0  0  0  0  0
    0.6229    0.0127    4.9102 H   0  0  0  0  0  0  0  0  0  0  0  0
    0.8474    0.9715    3.4572 H   0  0  0  0  0  0  0  0  0  0  0  0
    0.8696   -2.0464    4.0750 H   0  0  0  0  0  0  0  0  0  0  0  0
    2.4744   -2.1154    2.4655 H   0  0  0  0  0  0  0  0  0  0  0  0
    1.3716   -1.5532    1.2615 H   0  0  0  0  0  0  0  0  0  0  0  0
    2.2253   -0.3913    2.0022 H   0  0  0  0  0  0  0  0  0  0  0  0
   -0.7187   -2.1344    2.5152 H   0  0  0  0  0  0  0  0  0  0  0  0
   -1.6991    0.7527    2.9805 H   0  0  0  0  0  0  0  0  0  0  0  0
   -0.6608   -0.2324   -0.5709 H   0  0  0  0  0  0  0  0  0  0  0  0
    0.9247    2.0936   -0.0636 H   0  0  0  0  0  0  0  0  0  0  0  0
    1.3221    0.4063   -0.1359 H   0  0  0  0  0  0  0  0  0  0  0  0
    2.0589    1.3864   -2.1920 H   0  0  0  0  0  0  0  0  0  0  0  0
    0.7711    0.2629   -2.5447 H   0  0  0  0  0  0  0  0  0  0  0  0
    0.4778    2.2651   -3.8526 H   0  0  0  0  0  0  0  0  0  0  0  0
   -0.8565    2.1763   -2.8223 H   0  0  0  0  0  0  0  0  0  0  0  0
    0.2538    3.7525   -1.2191 H   0  0  0  0  0  0  0  0  0  0  0  0
    1.4986    6.5759   -2.8179 H   0  0  0  0  0  0  0  0  0  0  0  0
    1.0029    5.9014   -1.3161 H   0  0  0  0  0  0  0  0  0  0  0  0
    1.4478    5.3446   -4.6287 H   0  0  0  0  0  0  0  0  0  0  0  0
   -2.1058    2.0467   -1.3180 H   0  0  0  0  0  0  0  0  0  0  0  0
   -2.8158   -1.7881   -2.8943 H   0  0  0  0  0  0  0  0  0  0  0  0
   -0.4515   -1.5934   -3.0545 H   0  0  0  0  0  0  0  0  0  0  0  0
    0.4877   -2.8914    0.8354 H   0  0  0  0  0  0  0  0  0  0  0  0
   -1.7823   -1.8023    1.2414 H   0  0  0  0  0  0  0  0  0  0  0  0
   -0.3480   -0.9743    1.0314 H   0  0  0  0  0  0  0  0  0  0  0  0
   -1.7117   -3.9328    1.1540 H   0  0  0  0  0  0  0  0  0  0  0  0
   -1.6166   -3.4523   -0.5640 H   0  0  0  0  0  0  0  0  0  0  0  0
   -1.9222   -5.7210   -0.4756 H   0  0  0  0  0  0  0  0  0  0  0  0
   -0.5866   -5.1365   -1.4389 H   0  0  0  0  0  0  0  0  0  0  0  0
    1.8189   -4.5361   -0.1796 H   0  0  0  0  0  0  0  0  0  0  0  0
    1.3494   -4.1222    1.5150 H   0  0  0  0  0  0  0  0  0  0  0  0
    2.3718   -5.3969    1.2979 H   0  0  0  0  0  0  0  0  0  0  0  0
   -2.7586   -1.2788   -0.0179 H   0  0  0  0  0  0  0  0  0  0  0  0
   -5.3050   -1.7411   -0.9924 H   0  0  0  0  0  0  0  0  0  0  0  0
   -4.6739   -1.5401    0.6750 H   0  0  0  0  0  0  0  0  0  0  0  0
   -4.5762   -0.1690   -0.4311 H   0  0  0  0  0  0  0  0  0  0  0  0
   -2.8562   -3.8524   -1.4176 H   0  0  0  0  0  0  0  0  0  0  0  0
   -3.4784   -3.6073    0.3539 H   0  0  0  0  0  0  0  0  0  0  0  0
   -4.3874   -3.8355   -1.0952 H   0  0  0  0  0  0  0  0  0  0  0  0
   -2.9703   -1.3370    5.5251 H   0  0  0  0  0  0  0  0  0  0  0  0
   -0.9070    0.5602    4.6796 H   0  0  0  0  0  0  0  0  0  0  0  0
   -1.7381    2.3900    5.4037 H   0  0  0  0  0  0  0  0  0  0  0  0
   -2.8842    1.5603    4.3981 H   0  0  0  0  0  0  0  0  0  0  0  0
   -4.1902    2.3196    6.3126 H   0  0  0  0  0  0  0  0  0  0  0  0
   -3.9445    0.5745    6.4414 H   0  0  0  0  0  0  0  0  0  0  0  0
   -3.3480    1.7390    8.6010 H   0  0  0  0  0  0  0  0  0  0  0  0
   -2.1792    0.8785    7.7147 H   0  0  0  0  0  0  0  0  0  0  0  0
   -1.2084    2.7322    8.9172 H   0  0  0  0  0  0  0  0  0  0  0  0
   -0.8618    2.8289    7.2054 H   0  0  0  0  0  0  0  0  0  0  0  0
   -1.9357    4.7872    8.2444 H   0  0  0  0  0  0  0  0  0  0  0  0
   -3.0508    4.0739    7.1858 H   0  0  0  0  0  0  0  0  0  0  0  0
   -1.9674   -2.3992    8.4878 H   0  0  0  0  0  0  0  0  0  0  0  0
   -2.8462   -1.4362    7.2770 H   0  0  0  0  0  0  0  0  0  0  0  0
   -3.7566   -0.0254    8.8512 H   0  0  0  0  0  0  0  0  0  0  0  0
   -3.6133   -1.3312    9.8837 H   0  0  0  0  0  0  0  0  0  0  0  0
   -2.2045    0.9702   10.4229 H   0  0  0  0  0  0  0  0  0  0  0  0
   -1.6462   -0.5966   10.9512 H   0  0  0  0  0  0  0  0  0  0  0  0
   -0.4763    1.0844    8.8187 H   0  0  0  0  0  0  0  0  0  0  0  0
    2.5959    0.3287   10.0899 H   0  0  0  0  0  0  0  0  0  0  0  0
    2.5463    2.2102    8.5198 H   0  0  0  0  0  0  0  0  0  0  0  0
    0.8549    2.4848    8.8560 H   0  0  0  0  0  0  0  0  0  0  0  0
    1.5937    3.7844   12.2183 H   0  0  0  0  0  0  0  0  0  0  0  0
   -0.1393    1.8176   10.8621 H   0  0  0  0  0  0  0  0  0  0  0  0
   -0.6717    0.5967   12.8864 H   0  0  0  0  0  0  0  0  0  0  0  0
    1.0731    0.5247   12.5323 H   0  0  0  0  0  0  0  0  0  0  0  0
    1.4155    2.0451   14.1442 H   0  0  0  0  0  0  0  0  0  0  0  0
   -2.1641    4.4823   13.0569 H   0  0  0  0  0  0  0  0  0  0  0  0
    0.5669    3.6272   13.8551 H   0  0  0  0  0  0  0  0  0  0  0  0
   -0.3031    6.3857   14.4179 H   0  0  0  0  0  0  0  0  0  0  0  0
    1.1717    5.5559   14.8738 H   0  0  0  0  0  0  0  0  0  0  0  0
    0.7679    5.8252   13.1562 H   0  0  0  0  0  0  0  0  0  0  0  0
   -2.1593    3.9641   16.8746 H   0  0  0  0  0  0  0  0  0  0  0  0
   -2.1173    5.8027   14.5136 H   0  0  0  0  0  0  0  0  0  0  0  0
   -4.3511    6.1845   14.4332 H   0  0  0  0  0  0  0  0  0  0  0  0
   -4.0206    4.4413   14.2796 H   0  0  0  0  0  0  0  0  0  0  0  0
   -6.5277    5.7905   17.0367 H   0  0  0  0  0  0  0  0  0  0  0  0
   -5.8578    6.8731   15.8886 H   0  0  0  0  0  0  0  0  0  0  0  0
   -2.4806    7.7382   18.0249 H   0  0  0  0  0  0  0  0  0  0  0  0
   -3.5594    5.0671   17.6387 H   0  0  0  0  0  0  0  0  0  0  0  0
   -3.3369    4.2449   19.6754 H   0  0  0  0  0  0  0  0  0  0  0  0
   -1.7972    4.8254   19.0967 H   0  0  0  0  0  0  0  0  0  0  0  0
   -1.9609    5.6388   21.4152 H   0  0  0  0  0  0  0  0  0  0  0  0
   -2.2460    6.9967   20.3202 H   0  0  0  0  0  0  0  0  0  0  0  0
   -4.0089    6.9007   22.1422 H   0  0  0  0  0  0  0  0  0  0  0  0
   -4.3894    6.7885   20.5339 H   0  0  0  0  0  0  0  0  0  0  0  0
   -5.9407    5.4822   21.8883 H   0  0  0  0  0  0  0  0  0  0  0  0
   -5.1331    4.4156   20.7440 H   0  0  0  0  0  0  0  0  0  0  0  0
   -4.9541    3.7675   23.0201 H   0  0  0  0  0  0  0  0  0  0  0  0
   -3.4492    4.2701   22.5077 H   0  0  0  0  0  0  0  0  0  0  0  0
   -5.0934    9.5383   18.7923 H   0  0  0  0  0  0  0  0  0  0  0  0
   -3.6361    8.5594   19.1172 H   0  0  0  0  0  0  0  0  0  0  0  0
   -3.9432    8.6005   21.4125 H   0  0  0  0  0  0  0  0  0  0  0  0
   -4.6810   10.0725   21.1179 H   0  0  0  0  0  0  0  0  0  0  0  0
   -6.1696    7.9806   22.2316 H   0  0  0  0  0  0  0  0  0  0  0  0
   -6.8888    9.2711   21.2816 H   0  0  0  0  0  0  0  0  0  0  0  0
   -6.5230    6.4831   20.5564 H   0  0  0  0  0  0  0  0  0  0  0  0
   -9.5899    6.5798   19.1531 H   0  0  0  0  0  0  0  0  0  0  0  0
   -7.4970    4.9028   20.5516 H   0  0  0  0  0  0  0  0  0  0  0  0
   -9.1631    3.6465   21.7385 H   0  0  0  0  0  0  0  0  0  0  0  0
   -9.1689    5.3707   22.1948 H   0  0  0  0  0  0  0  0  0  0  0  0
  -11.0334    5.6385   20.9773 H   0  0  0  0  0  0  0  0  0  0  0  0
   -9.5519    2.9932   17.6462 H   0  0  0  0  0  0  0  0  0  0  0  0
  -10.8186    5.1112   19.2514 H   0  0  0  0  0  0  0  0  0  0  0  0
  -12.1743    6.0531   17.7508 H   0  0  0  0  0  0  0  0  0  0  0  0
  -10.4664    6.1750   17.2721 H   0  0  0  0  0  0  0  0  0  0  0  0
  -13.5737    5.2061   16.3421 H   0  0  0  0  0  0  0  0  0  0  0  0
  -13.3351    1.9462   18.4669 H   0  0  0  0  0  0  0  0  0  0  0  0
  -11.2417    2.8078   16.6098 H   0  0  0  0  0  0  0  0  0  0  0  0
  -10.9472    0.7559   15.6637 H   0  0  0  0  0  0  0  0  0  0  0  0
  -10.6354    0.7222   17.4020 H   0  0  0  0  0  0  0  0  0  0  0  0
  -12.2070   -0.7862   14.9903 H   0  0  0  0  0  0  0  0  0  0  0  0
  -12.2003    3.6961   14.5244 H   0  0  0  0  0  0  0  0  0  0  0  0
  1  2  1  0  0  0  0
  1113  1  0  0  0  0
  1114  1  0  0  0  0
  1115  1  0  0  0  0
  2116  1  0  0  0  0
  2117  1  0  0  0  0
  3118  1  1  0  0  0
  3  4  1  0  0  0  0
  3  2  1  0  0  0  0
  4119  1  0  0  0  0
  4120  1  0  0  0  0
  4121  1  0  0  0  0
  5 33  1  0  0  0  0
  5122  1  6  0  0  0
  5  6  1  0  0  0  0
  5  3  1  0  0  0  0
  6  7  1  0  0  0  0
  6123  1  0  0  0  0
  7  8  2  0  0  0  0
  9 17  1  0  0  0  0
  9124  1  6  0  0  0
  9 10  1  0  0  0  0
  9  7  1  0  0  0  0
 10 11  1  0  0  0  0
 10125  1  0  0  0  0
 10126  1  0  0  0  0
 11 12  1  0  0  0  0
 11127  1  0  0  0  0
 11128  1  0  0  0  0
 12 13  1  0  0  0  0
 12129  1  0  0  0  0
 12130  1  0  0  0  0
 13 14  1  0  0  0  0
 13131  1  0  0  0  0
 14 15  1  0  0  0  0
 14 16  2  0  0  0  0
 15132  1  0  0  0  0
 15133  1  0  0  0  0
 16134  1  0  0  0  0
 17 18  1  0  0  0  0
 17135  1  0  0  0  0
 18 19  2  0  0  0  0
 20 18  1  0  0  0  0
 20 21  1  0  0  0  0
 20 30  1  0  0  0  0
 20136  1  6  0  0  0
 21 22  1  0  0  0  0
 21137  1  0  0  0  0
 22 23  2  0  0  0  0
 24 22  1  0  0  0  0
 24 25  1  0  0  0  0
 24 26  1  0  0  0  0
 24138  1  1  0  0  0
 25139  1  0  0  0  0
 25140  1  0  0  0  0
 26 27  1  0  0  0  0
 26141  1  0  0  0  0
 26142  1  0  0  0  0
 27 28  1  0  0  0  0
 27143  1  0  0  0  0
 27144  1  0  0  0  0
 28 29  1  0  0  0  0
 29145  1  0  0  0  0
 29146  1  0  0  0  0
 29147  1  0  0  0  0
 30 31  1  0  0  0  0
 30 32  1  0  0  0  0
 30148  1  0  0  0  0
 31149  1  0  0  0  0
 31150  1  0  0  0  0
 31151  1  0  0  0  0
 32152  1  0  0  0  0
 32153  1  0  0  0  0
 32154  1  0  0  0  0
 33 34  2  0  0  0  0
 33 35  1  0  0  0  0
 35155  1  0  0  0  0
 36 35  1  0  0  0  0
 36 37  1  0  0  0  0
 36 42  1  0  0  0  0
 36156  1  6  0  0  0
 37 38  1  0  0  0  0
 37157  1  0  0  0  0
 37158  1  0  0  0  0
 38 39  1  0  0  0  0
 38159  1  0  0  0  0
 38160  1  0  0  0  0
 39 40  1  0  0  0  0
 39161  1  0  0  0  0
 39162  1  0  0  0  0
 40 41  1  0  0  0  0
 40163  1  0  0  0  0
 40164  1  0  0  0  0
 41165  1  0  0  0  0
 41166  1  0  0  0  0
 42 43  2  0  0  0  0
 42 44  1  0  0  0  0
 44 45  1  0  0  0  0
 45 46  1  0  0  0  0
 45167  1  0  0  0  0
 45168  1  0  0  0  0
 46 47  1  0  0  0  0
 46169  1  0  0  0  0
 46170  1  0  0  0  0
 47171  1  0  0  0  0
 47172  1  0  0  0  0
 48 47  1  0  0  0  0
 48 44  1  0  0  0  0
 48173  1  6  0  0  0
 48 49  1  0  0  0  0
 49 50  2  0  0  0  0
 49 51  1  0  0  0  0
 51 52  1  0  0  0  0
 51174  1  0  0  0  0
 52 53  1  0  0  0  0
 52175  1  0  0  0  0
 52176  1  0  0  0  0
 53 54  2  0  0  0  0
 53 55  1  0  0  0  0
 55177  1  0  0  0  0
 56 55  1  0  0  0  0
 56 57  1  0  0  0  0
 56 59  1  0  0  0  0
 56178  1  6  0  0  0
 57 58  1  0  0  0  0
 57179  1  0  0  0  0
 57180  1  0  0  0  0
 58181  1  0  0  0  0
 59 60  2  0  0  0  0
 59 61  1  0  0  0  0
 61182  1  0  0  0  0
 62 61  1  0  0  0  0
 62 63  1  0  0  0  0
 62 64  1  0  0  0  0
 62183  1  6  0  0  0
 63184  1  0  0  0  0
 63185  1  0  0  0  0
 63186  1  0  0  0  0
 64 65  2  0  0  0  0
 64 66  1  0  0  0  0
 66187  1  0  0  0  0
 67 66  1  0  0  0  0
 67 68  1  0  0  0  0
 67 72  1  0  0  0  0
 67188  1  6  0  0  0
 68 69  1  0  0  0  0
 68189  1  0  0  0  0
 68190  1  0  0  0  0
 69 70  1  0  0  0  0
 69 71  2  0  0  0  0
 70191  1  0  0  0  0
 70192  1  0  0  0  0
 72 73  2  0  0  0  0
 72 74  1  0  0  0  0
 74193  1  0  0  0  0
 75 74  1  0  0  0  0
 75 76  1  0  0  0  0
 75 81  1  0  0  0  0
 75194  1  6  0  0  0
 76 77  1  0  0  0  0
 76195  1  0  0  0  0
 76196  1  0  0  0  0
 77 78  1  0  0  0  0
 77197  1  0  0  0  0
 77198  1  0  0  0  0
 78 79  1  0  0  0  0
 78199  1  0  0  0  0
 78200  1  0  0  0  0
 79 80  1  0  0  0  0
 79201  1  0  0  0  0
 79202  1  0  0  0  0
 80203  1  0  0  0  0
 80204  1  0  0  0  0
 81 82  2  0  0  0  0
 81 83  1  0  0  0  0
 83 84  1  0  0  0  0
 84 85  1  0  0  0  0
 84205  1  0  0  0  0
 84206  1  0  0  0  0
 85 86  1  0  0  0  0
 85207  1  0  0  0  0
 85208  1  0  0  0  0
 86209  1  0  0  0  0
 86210  1  0  0  0  0
 87 86  1  0  0  0  0
 87 83  1  0  0  0  0
 87211  1  1  0  0  0
 87 88  1  0  0  0  0
 88 89  2  0  0  0  0
 88 90  1  0  0  0  0
 90212  1  0  0  0  0
 91 90  1  0  0  0  0
 91 92  1  0  0  0  0
 91 94  1  0  0  0  0
 91213  1  1  0  0  0
 92 93  1  0  0  0  0
 92214  1  0  0  0  0
 92215  1  0  0  0  0
 93216  1  0  0  0  0
 94 95  2  0  0  0  0
 94 96  1  0  0  0  0
 96217  1  0  0  0  0
 97 96  1  0  0  0  0
 97 98  1  0  0  0  0
 97102  1  0  0  0  0
 97218  1  1  0  0  0
 98 99  1  0  0  0  0
 98219  1  0  0  0  0
 98220  1  0  0  0  0
 99100  1  0  0  0  0
 99101  2  0  0  0  0
100221  1  0  0  0  0
102103  2  0  0  0  0
102104  1  0  0  0  0
104222  1  0  0  0  0
105104  1  0  0  0  0
105106  1  0  0  0  0
105110  1  0  0  0  0
105223  1  6  0  0  0
106107  1  0  0  0  0
106224  1  0  0  0  0
106225  1  0  0  0  0
107108  1  0  0  0  0
107109  2  0  0  0  0
108226  1  0  0  0  0
110111  1  0  0  0  0
110112  2  0  0  0  0
111227  1  0  0  0  0
M  END
>  <DRUGBANK_ID>
DB16301

>  <COMMON_NAME>
Preimplantation factor

>  <CAS_NUMBER>
485818-40-4

>  <UNII>
3K6A6FJ98O

>  <SYNONYMS>
Synthetic PreImplantation Factor

$$$$
