
 OpenBabel10282417233D

 43 44  0  0  0  0  0  0  0  0999 V2000
    1.0558   -0.0417    0.0258 C   0  0  0  0  0  0  0  0  0  0  0  0
    0.6662    1.3757   -0.3920 C   0  0  0  0  0  0  0  0  0  0  0  0
    1.1531    1.7967   -1.6962 O   0  0  0  0  0  0  0  0  0  0  0  0
    2.5033    1.7867   -1.9075 C   0  0  0  0  0  0  0  0  0  0  0  0
    3.3237    1.4635   -1.0521 O   0  0  0  0  0  0  0  0  0  0  0  0
    2.8544    2.0583   -3.2172 N   0  0  0  0  0  0  0  0  0  0  0  0
    2.3025    3.1667   -3.9987 C   0  0  0  0  0  0  0  0  0  0  0  0
    1.9427    2.7028   -5.4214 C   0  0  0  0  0  0  0  0  0  0  0  0
    3.0708    2.0254   -6.0486 N   0  0  0  0  0  0  0  0  0  0  0  0
    3.6661    0.9344   -5.2604 C   0  0  0  0  0  0  0  0  0  0  0  0
    4.0287    1.4230   -3.8320 C   0  0  0  0  0  0  0  0  0  0  0  0
    3.5736    2.4148   -7.3115 N   0  3  0  0  0  0  0  0  0  0  0  0
    4.5760    1.7641   -7.7513 O   0  5  0  0  0  0  0  0  0  0  0  0
    3.0155    3.4089   -7.9186 N   0  0  0  0  0  0  0  0  0  0  0  0
    3.6735    3.6406   -9.1508 O   0  0  0  0  0  0  0  0  0  0  0  0
    3.0364    4.6206   -9.8932 C   0  0  0  0  0  0  0  0  0  0  0  0
    2.7686    5.8873   -9.3460 C   0  0  0  0  0  0  0  0  0  0  0  0
    2.2298    6.9221  -10.1387 C   0  0  0  0  0  0  0  0  0  0  0  0
    1.9929    6.7105  -11.5035 C   0  0  0  0  0  0  0  0  0  0  0  0
    2.3178    5.4810  -12.0835 C   0  0  0  0  0  0  0  0  0  0  0  0
    2.7823    4.4241  -11.2655 C   0  0  0  0  0  0  0  0  0  0  0  0
    2.8613    3.0854  -11.8722 N   0  3  0  0  0  0  0  0  0  0  0  0
    2.5549    2.9889  -13.0694 O   0  5  0  0  0  0  0  0  0  0  0  0
    3.1647    2.1251  -11.1578 O   0  0  0  0  0  0  0  0  0  0  0  0
    1.3211    7.7442  -12.3147 N   0  3  0  0  0  0  0  0  0  0  0  0
    1.1002    7.4855  -13.5059 O   0  5  0  0  0  0  0  0  0  0  0  0
    0.9883    8.7940  -11.7485 O   0  0  0  0  0  0  0  0  0  0  0  0
    0.6953   -0.7803   -0.6961 H   0  0  0  0  0  0  0  0  0  0  0  0
    0.6400   -0.2877    1.0104 H   0  0  0  0  0  0  0  0  0  0  0  0
    2.1378   -0.1670    0.1005 H   0  0  0  0  0  0  0  0  0  0  0  0
   -0.4312    1.4143   -0.4336 H   0  0  0  0  0  0  0  0  0  0  0  0
    0.9762    2.1068    0.3618 H   0  0  0  0  0  0  0  0  0  0  0  0
    1.4572    3.6362   -3.4915 H   0  0  0  0  0  0  0  0  0  0  0  0
    3.1037    3.9190   -4.0666 H   0  0  0  0  0  0  0  0  0  0  0  0
    1.1345    1.9661   -5.3606 H   0  0  0  0  0  0  0  0  0  0  0  0
    1.5971    3.5448   -6.0234 H   0  0  0  0  0  0  0  0  0  0  0  0
    2.8896    0.1609   -5.1744 H   0  0  0  0  0  0  0  0  0  0  0  0
    4.5298    0.4772   -5.7497 H   0  0  0  0  0  0  0  0  0  0  0  0
    4.8265    2.1728   -3.8885 H   0  0  0  0  0  0  0  0  0  0  0  0
    4.3787    0.5910   -3.2117 H   0  0  0  0  0  0  0  0  0  0  0  0
    2.9750    6.0869   -8.2965 H   0  0  0  0  0  0  0  0  0  0  0  0
    2.0090    7.8871   -9.6813 H   0  0  0  0  0  0  0  0  0  0  0  0
    2.1857    5.3371  -13.1569 H   0  0  0  0  0  0  0  0  0  0  0  0
  1  2  1  0  0  0  0
  1 28  1  0  0  0  0
  1 29  1  0  0  0  0
  1 30  1  0  0  0  0
  2  3  1  0  0  0  0
  2 31  1  0  0  0  0
  2 32  1  0  0  0  0
  3  4  1  0  0  0  0
  4  5  2  0  0  0  0
  4  6  1  0  0  0  0
  6  7  1  0  0  0  0
  6 11  1  0  0  0  0
  7  8  1  0  0  0  0
  7 33  1  0  0  0  0
  7 34  1  0  0  0  0
  8  9  1  0  0  0  0
  8 35  1  0  0  0  0
  8 36  1  0  0  0  0
  9 10  1  0  0  0  0
  9 12  1  0  0  0  0
 10 11  1  0  0  0  0
 10 37  1  0  0  0  0
 10 38  1  0  0  0  0
 11 39  1  0  0  0  0
 11 40  1  0  0  0  0
 12 13  1  0  0  0  0
 12 14  2  0  0  0  0
 14 15  1  0  0  0  0
 15 16  1  0  0  0  0
 16 17  2  0  0  0  0
 16 21  1  0  0  0  0
 17 18  1  0  0  0  0
 17 41  1  0  0  0  0
 18 19  2  0  0  0  0
 18 42  1  0  0  0  0
 19 20  1  0  0  0  0
 19 25  1  0  0  0  0
 20 21  2  0  0  0  0
 20 43  1  0  0  0  0
 21 22  1  0  0  0  0
 22 23  1  0  0  0  0
 22 24  2  0  0  0  0
 25 26  1  0  0  0  0
 25 27  2  0  0  0  0
M  CHG  6  12   1  13  -1  22   1  23  -1  25   1  26  -1
M  END
>  <DRUGBANK_ID>
DB17257

>  <COMMON_NAME>
JS-K

>  <CAS_NUMBER>
205432-12-8

>  <UNII>
80P1Q21652

>  <SYNONYMS>
1-piperazinecarboxylic acid, 4-((2,4-dinitrophenoxy)-nno-azoxy)-, ethyl ester; 1-piperazinecarboxylic acid, 4-(2-(2,4-dinitrophenoxy)-1-oxidodiazenyl)-, ethyl ester; O2-(2,4-dinitrophenyl) 1-((4-ethoxycarbonyl)piperazin-1-yl)diazen-1-ium-1,2-diolate; O2-(2,4-dinitrophenyl) 1-((4-ethoxycarbonyl)piperazin-1yl)diazen-1-ium-1,2-diolate

$$$$
