
 OpenBabel10282417133D

 38 37  0  0  1  0  0  0  0  0999 V2000
    0.7305    0.4758   -0.2326 C   0  0  0  0  0  0  0  0  0  0  0  0
    0.0773    0.5918    1.1369 C   0  0  0  0  0  0  0  0  0  0  0  0
    0.8970    1.1386    2.1848 O   0  0  0  0  0  0  0  0  0  0  0  0
    2.6270    1.1386    2.1848 P   0  0  0  0  0  0  0  0  0  0  0  0
    2.6481    1.5046    3.6784 O   0  0  0  0  0  0  0  0  0  0  0  0
    2.7531   -0.5314    2.0797 O   0  0  0  0  0  0  0  0  0  0  0  0
    1.7003   -1.4728    2.1269 C   0  0  0  0  0  0  0  0  0  0  0  0
    0.8091   -1.3014    3.3579 C   0  0  0  0  0  0  0  0  0  0  0  0
    4.4570    1.1386    2.1848 C   0  0  1  0  0  0  0  0  0  0  0  0
    4.9874    2.5848    2.2701 C   0  0  0  0  0  0  0  0  0  0  0  0
    5.1108    0.3229    3.1524 N   0  0  0  0  0  0  0  0  0  0  0  0
    5.8426   -0.8105    3.0911 C   0  0  0  0  0  0  0  0  0  0  0  0
    6.1424   -1.2772    4.1784 O   0  0  0  0  0  0  0  0  0  0  0  0
    6.2157   -1.3648    1.8730 N   0  0  0  0  0  0  0  0  0  0  0  0
    5.9148   -0.9529    0.4945 C   0  0  0  0  0  0  0  0  0  0  0  0
    7.0015   -0.1570   -0.2213 C   0  0  0  0  0  0  0  0  0  0  0  0
    8.1825   -1.1814   -1.0515 Cl  0  0  0  0  0  0  0  0  0  0  0  0
    6.9532   -2.5511    2.0237 N   0  0  0  0  0  0  0  0  0  0  0  0
    7.1170   -3.1753    0.9703 O   0  0  0  0  0  0  0  0  0  0  0  0
    0.4907    1.3427   -0.8449 H   0  0  0  0  0  0  0  0  0  0  0  0
    0.3666   -0.4226   -0.7523 H   0  0  0  0  0  0  0  0  0  0  0  0
    1.8188    0.3835   -0.1863 H   0  0  0  0  0  0  0  0  0  0  0  0
   -0.9013    1.0806    1.1205 H   0  0  0  0  0  0  0  0  0  0  0  0
   -0.2708   -0.4030    1.4256 H   0  0  0  0  0  0  0  0  0  0  0  0
    1.2233   -1.4346    1.1494 H   0  0  0  0  0  0  0  0  0  0  0  0
    2.0594   -2.5055    2.0729 H   0  0  0  0  0  0  0  0  0  0  0  0
    0.7278   -0.2794    3.7363 H   0  0  0  0  0  0  0  0  0  0  0  0
   -0.2158   -1.6420    3.1745 H   0  0  0  0  0  0  0  0  0  0  0  0
    1.2339   -1.8474    4.1953 H   0  0  0  0  0  0  0  0  0  0  0  0
    4.5979    1.0026    1.1388 H   0  0  0  0  0  0  0  0  0  0  0  0
    4.6465    3.1027    3.1690 H   0  0  0  0  0  0  0  0  0  0  0  0
    6.0814    2.6065    2.2303 H   0  0  0  0  0  0  0  0  0  0  0  0
    4.6160    3.1569    1.4084 H   0  0  0  0  0  0  0  0  0  0  0  0
    4.8072    0.5213    4.1058 H   0  0  0  0  0  0  0  0  0  0  0  0
    5.4518   -1.7687   -0.0678 H   0  0  0  0  0  0  0  0  0  0  0  0
    5.0725   -0.3139    0.4727 H   0  0  0  0  0  0  0  0  0  0  0  0
    6.5370    0.4538   -1.0047 H   0  0  0  0  0  0  0  0  0  0  0  0
    7.5259    0.5302    0.4514 H   0  0  0  0  0  0  0  0  0  0  0  0
  1  2  1  0  0  0  0
  1 20  1  0  0  0  0
  1 21  1  0  0  0  0
  1 22  1  0  0  0  0
  2  3  1  0  0  0  0
  2 23  1  0  0  0  0
  2 24  1  0  0  0  0
  3  4  1  0  0  0  0
  4  5  2  0  0  0  0
  4  6  1  0  0  0  0
  4  9  1  0  0  0  0
  6  7  1  0  0  0  0
  7  8  1  0  0  0  0
  7 25  1  0  0  0  0
  7 26  1  0  0  0  0
  8 27  1  0  0  0  0
  8 28  1  0  0  0  0
  8 29  1  0  0  0  0
  9 10  1  0  0  0  0
  9 11  1  0  0  0  0
  9 30  1  6  0  0  0
 10 31  1  0  0  0  0
 10 32  1  0  0  0  0
 10 33  1  0  0  0  0
 11 12  1  0  0  0  0
 11 34  1  0  0  0  0
 12 13  2  0  0  0  0
 12 14  1  0  0  0  0
 14 15  1  0  0  0  0
 14 18  1  0  0  0  0
 15 16  1  0  0  0  0
 15 35  1  0  0  0  0
 15 36  1  0  0  0  0
 16 17  1  0  0  0  0
 16 37  1  0  0  0  0
 16 38  1  0  0  0  0
 18 19  2  0  0  0  0
M  END
>  <DRUGBANK_ID>
DB04106

>  <SECONDARY_ACCESSION_NUMBERS>
EXPT03300

>  <COMMON_NAME>
Fotemustine

>  <CAS_NUMBER>
92118-27-9

>  <UNII>
GQ7JL9P5I2

>  <SYNONYMS>
(+-)-Diethyl (1-(3-(2-chloroethyl)-3-nitrosoureido)ethyl)phosphonate; Diethyl-1-(3-(2-chloroethyl)-3-nitrosoureido)ethylphosphonate; Fotemustina; Fotemustine; Fotemustinum; Mustoforan

$$$$
