IDI
 OpenBabel10282417133D

 21 22  0  0  0  0  0  0  0  0999 V2000
    1.0297    0.0032    0.0896 I   0  0  0  0  0  0  0  0  0  0  0  0
    5.1949   -1.2061    0.1470 C   0  0  0  0  0  0  0  0  0  0  0  0
    3.8000   -1.2053    0.1472 C   0  0  0  0  0  0  0  0  0  0  0  0
    3.1090    0.0036    0.0975 C   0  0  0  0  0  0  0  0  0  0  0  0
    3.8007    1.2154    0.0565 C   0  0  0  0  0  0  0  0  0  0  0  0
    5.2037    1.2251    0.0713 C   0  0  0  0  0  0  0  0  0  0  0  0
    5.9012    0.0023    0.0900 C   0  0  0  0  0  0  0  0  0  0  0  0
    5.9460    2.5416    0.0022 C   0  0  0  0  0  0  0  0  0  0  0  0
    7.9923    1.3402   -0.3434 C   0  0  0  0  0  0  0  0  0  0  0  0
    7.4104   -0.0032    0.1084 C   0  0  0  0  0  0  0  0  0  0  0  0
    7.3591    2.4399    0.3877 N   0  0  0  0  0  0  0  0  0  0  0  0
    5.7305   -2.1511    0.1931 H   0  0  0  0  0  0  0  0  0  0  0  0
    3.2700   -2.1532    0.1874 H   0  0  0  0  0  0  0  0  0  0  0  0
    3.2581    2.1565    0.0165 H   0  0  0  0  0  0  0  0  0  0  0  0
    5.4654    3.2631    0.6726 H   0  0  0  0  0  0  0  0  0  0  0  0
    5.8707    2.9337   -1.0198 H   0  0  0  0  0  0  0  0  0  0  0  0
    7.8559    1.4757   -1.4245 H   0  0  0  0  0  0  0  0  0  0  0  0
    9.0713    1.3474   -0.1555 H   0  0  0  0  0  0  0  0  0  0  0  0
    7.7879   -0.7942   -0.5501 H   0  0  0  0  0  0  0  0  0  0  0  0
    7.7432   -0.2259    1.1301 H   0  0  0  0  0  0  0  0  0  0  0  0
    7.8258    3.3173    0.1688 H   0  0  0  0  0  0  0  0  0  0  0  0
  1  4  1  0  0  0  0
  2  3  2  0  0  0  0
  2  7  1  0  0  0  0
  2 12  1  0  0  0  0
  3  4  1  0  0  0  0
  3 13  1  0  0  0  0
  4  5  2  0  0  0  0
  5  6  1  0  0  0  0
  5 14  1  0  0  0  0
  6  7  2  0  0  0  0
  6  8  1  0  0  0  0
  7 10  1  0  0  0  0
  8 11  1  0  0  0  0
  8 15  1  0  0  0  0
  8 16  1  0  0  0  0
  9 10  1  0  0  0  0
  9 11  1  0  0  0  0
  9 17  1  0  0  0  0
  9 18  1  0  0  0  0
 10 19  1  0  0  0  0
 10 20  1  0  0  0  0
 11 21  1  0  0  0  0
M  END
>  <DRUGBANK_ID>
DB03824

>  <SECONDARY_ACCESSION_NUMBERS>
EXPT01840

>  <COMMON_NAME>
7-Iodo-1,2,3,4-Tetrahydro-Isoquinoline

>  <UNII>
AA4AFP7MFA

$$$$
