PXX
 OpenBabel10282417173D

 29 31  0  0  0  0  0  0  0  0999 V2000
    0.7789    0.0359    0.0253 C   0  0  0  0  0  0  0  0  0  0  0  0
    0.4907    0.3675    1.4786 C   0  0  0  0  0  0  0  0  0  0  0  0
   -0.1856    1.3614    1.7701 O   0  0  0  0  0  0  0  0  0  0  0  0
    0.8982   -0.4773    2.4867 N   0  0  0  0  0  0  0  0  0  0  0  0
    1.7723   -1.5841    2.4009 C   0  0  0  0  0  0  0  0  0  0  0  0
    2.9878   -1.5318    1.6885 C   0  0  0  0  0  0  0  0  0  0  0  0
    3.5291   -0.3210    1.2105 C   0  0  0  0  0  0  0  0  0  0  0  0
    4.6023   -0.3050    0.3412 C   0  0  0  0  0  0  0  0  0  0  0  0
    5.2317   -1.4990    0.1108 C   0  0  0  0  0  0  0  0  0  0  0  0
    4.8403   -2.6629    0.6671 N   0  0  0  0  0  0  0  0  0  0  0  0
    3.7300   -2.7077    1.4498 C   0  0  0  0  0  0  0  0  0  0  0  0
    3.3103   -3.9169    2.0238 C   0  0  0  0  0  0  0  0  0  0  0  0
    4.0172   -5.0532    1.8064 N   0  0  0  0  0  0  0  0  0  0  0  0
    3.6070   -6.2144    2.3491 C   0  0  0  0  0  0  0  0  0  0  0  0
    2.4830   -6.3260    3.1348 C   0  0  0  0  0  0  0  0  0  0  0  0
    1.7521   -5.1703    3.3897 C   0  0  0  0  0  0  0  0  0  0  0  0
    2.1497   -3.9395    2.8345 C   0  0  0  0  0  0  0  0  0  0  0  0
    1.4009   -2.7668    3.0404 C   0  0  0  0  0  0  0  0  0  0  0  0
    0.2749    0.7608   -0.6193 H   0  0  0  0  0  0  0  0  0  0  0  0
    0.4309   -0.9708   -0.2133 H   0  0  0  0  0  0  0  0  0  0  0  0
    1.8224    0.1260   -0.2549 H   0  0  0  0  0  0  0  0  0  0  0  0
    0.4230   -0.3086    3.3675 H   0  0  0  0  0  0  0  0  0  0  0  0
    3.0611    0.6321    1.4491 H   0  0  0  0  0  0  0  0  0  0  0  0
    4.9102    0.6120   -0.1455 H   0  0  0  0  0  0  0  0  0  0  0  0
    6.1023   -1.5580   -0.5330 H   0  0  0  0  0  0  0  0  0  0  0  0
    4.2326   -7.0727    2.1210 H   0  0  0  0  0  0  0  0  0  0  0  0
    2.1848   -7.2889    3.5337 H   0  0  0  0  0  0  0  0  0  0  0  0
    0.8640   -5.2430    4.0132 H   0  0  0  0  0  0  0  0  0  0  0  0
    0.4903   -2.8073    3.6363 H   0  0  0  0  0  0  0  0  0  0  0  0
  1  2  1  0  0  0  0
  1 19  1  0  0  0  0
  1 20  1  0  0  0  0
  1 21  1  0  0  0  0
  2  3  2  0  0  0  0
  2  4  1  0  0  0  0
  4  5  1  0  0  0  0
  4 22  1  0  0  0  0
  5  6  2  0  0  0  0
  5 18  1  0  0  0  0
  6  7  1  0  0  0  0
  6 11  1  0  0  0  0
  7  8  2  0  0  0  0
  7 23  1  0  0  0  0
  8  9  1  0  0  0  0
  8 24  1  0  0  0  0
  9 10  2  0  0  0  0
  9 25  1  0  0  0  0
 10 11  1  0  0  0  0
 11 12  2  0  0  0  0
 12 13  1  0  0  0  0
 12 17  1  0  0  0  0
 13 14  2  0  0  0  0
 14 15  1  0  0  0  0
 14 26  1  0  0  0  0
 15 16  2  0  0  0  0
 15 27  1  0  0  0  0
 16 17  1  0  0  0  0
 16 28  1  0  0  0  0
 17 18  2  0  0  0  0
 18 29  1  0  0  0  0
M  END
>  <DRUGBANK_ID>
DB08440

>  <COMMON_NAME>
N-1,10-phenanthrolin-5-ylacetamide

$$$$
