
 OpenBabel10282417143D

 50 52  0  0  0  0  0  0  0  0999 V2000
    1.0806    0.0517    0.0288 P   0  0  0  0  0  0  0  0  0  0  0  0
   -0.5492    1.1409    1.6135 O   0  0  0  0  0  0  0  0  0  0  0  0
   -0.1757   -0.3075    4.5301 O   0  0  0  0  0  0  0  0  0  0  0  0
   -0.1115    2.3729    4.3044 O   0  0  0  0  0  0  0  0  0  0  0  0
    1.0067    1.6421   -0.3455 O   0  0  0  0  0  0  0  0  0  0  0  0
   -2.6394   -2.2465    1.6058 O   0  0  0  0  0  0  0  0  0  0  0  0
    0.9541   -0.5921   -1.4652 O   0  0  0  0  0  0  0  0  0  0  0  0
   -0.6494    0.0517    0.0288 O   0  0  0  0  0  0  0  0  0  0  0  0
   -0.0223   -4.9462   -0.8450 O   0  0  0  0  0  0  0  0  0  0  0  0
    2.6290    0.0517    0.0288 O   0  0  0  0  0  0  0  0  0  0  0  0
   -0.3392   -1.6894    1.5409 N   0  0  0  0  0  0  0  0  0  0  0  0
   -1.3312   -3.4074    0.2049 N   0  0  0  0  0  0  0  0  0  0  0  0
   -2.9373    1.2687    2.7707 N   0  0  0  0  0  0  0  0  0  0  0  0
   -3.1659    1.5698    0.5325 N   0  0  0  0  0  0  0  0  0  0  0  0
    0.4623    0.1588    3.3479 C   0  0  2  0  0  0  0  0  0  0  0  0
    0.7070    1.7231    3.3238 C   0  0  1  0  0  0  0  0  0  0  0  0
   -0.4366   -0.1982    2.2370 C   0  0  1  0  0  0  0  0  0  0  0  0
    0.3135    2.1973    1.9510 C   0  0  1  0  0  0  0  0  0  0  0  0
    1.2891    2.4628    0.7891 C   0  0  0  0  0  0  0  0  0  0  0  0
   -1.5989   -0.6603    4.4070 C   0  0  0  0  0  0  0  0  0  0  0  0
    0.8857   -2.2277    1.1599 C   0  0  0  0  0  0  0  0  0  0  0  0
   -1.5109   -2.3996    1.1318 C   0  0  0  0  0  0  0  0  0  0  0  0
   -2.7298    0.5086    4.0531 C   0  0  0  0  0  0  0  0  0  0  0  0
    1.0382   -3.1085    0.1645 C   0  0  0  0  0  0  0  0  0  0  0  0
   -0.1340   -3.9049   -0.2535 C   0  0  0  0  0  0  0  0  0  0  0  0
    2.3460   -3.2428   -0.5561 C   0  0  0  0  0  0  0  0  0  0  0  0
   -2.6509    2.6005    2.4732 C   0  0  0  0  0  0  0  0  0  0  0  0
   -3.3453    0.7482    1.5485 C   0  0  0  0  0  0  0  0  0  0  0  0
   -2.6407    2.6935    1.0845 C   0  0  0  0  0  0  0  0  0  0  0  0
   -1.0186    2.0879    4.1402 H   0  0  0  0  0  0  0  0  0  0  0  0
    1.8571   -0.8497   -1.7355 H   0  0  0  0  0  0  0  0  0  0  0  0
   -0.9485    0.3006   -0.8663 H   0  0  0  0  0  0  0  0  0  0  0  0
   -2.1366   -3.9863    0.0089 H   0  0  0  0  0  0  0  0  0  0  0  0
    1.4378   -0.2838    3.1180 H   0  0  0  0  0  0  0  0  0  0  0  0
    1.7209    2.0373    3.5438 H   0  0  0  0  0  0  0  0  0  0  0  0
   -1.4720   -0.3195    2.3910 H   0  0  0  0  0  0  0  0  0  0  0  0
   -0.2371    3.1483    1.9999 H   0  0  0  0  0  0  0  0  0  0  0  0
    2.3255    2.3548    1.1089 H   0  0  0  0  0  0  0  0  0  0  0  0
    1.1866    3.4939    0.4179 H   0  0  0  0  0  0  0  0  0  0  0  0
   -1.7103   -1.5554    3.7699 H   0  0  0  0  0  0  0  0  0  0  0  0
   -1.8223   -1.0799    5.3881 H   0  0  0  0  0  0  0  0  0  0  0  0
    1.7687   -1.7191    1.5191 H   0  0  0  0  0  0  0  0  0  0  0  0
   -3.6906    0.0096    4.1937 H   0  0  0  0  0  0  0  0  0  0  0  0
   -2.6042    1.2602    4.8331 H   0  0  0  0  0  0  0  0  0  0  0  0
    2.9259   -4.0416   -0.1045 H   0  0  0  0  0  0  0  0  0  0  0  0
    2.2454   -3.3949   -1.6389 H   0  0  0  0  0  0  0  0  0  0  0  0
    2.9431   -2.3256   -0.4611 H   0  0  0  0  0  0  0  0  0  0  0  0
   -2.2221    3.3020    3.1736 H   0  0  0  0  0  0  0  0  0  0  0  0
   -3.5975   -0.2879    1.4131 H   0  0  0  0  0  0  0  0  0  0  0  0
   -2.1385    3.4366    0.4635 H   0  0  0  0  0  0  0  0  0  0  0  0
  1  5  1  0  0  0  0
  1  7  1  0  0  0  0
  1  8  1  0  0  0  0
  1 10  2  0  0  0  0
  2 17  1  0  0  0  0
  2 18  1  0  0  0  0
  3 20  1  0  0  0  0
  4 30  1  0  0  0  0
  5 19  1  0  0  0  0
  6 22  2  0  0  0  0
  7 31  1  0  0  0  0
  8 32  1  0  0  0  0
  9 25  2  0  0  0  0
 11 21  1  0  0  0  0
 11 22  1  0  0  0  0
 12 22  1  0  0  0  0
 12 25  1  0  0  0  0
 12 33  1  0  0  0  0
 13 23  1  0  0  0  0
 13 27  1  0  0  0  0
 13 28  1  0  0  0  0
 14 28  2  0  0  0  0
 14 29  1  0  0  0  0
 15 16  1  0  0  0  0
 15 17  1  0  0  0  0
 15 34  1  6  0  0  0
 15  3  1  0  0  0  0
 16  4  1  0  0  0  0
 16 18  1  0  0  0  0
 16 35  1  1  0  0  0
 17 36  1  1  0  0  0
 17 11  1  0  0  0  0
 18 19  1  0  0  0  0
 18 37  1  1  0  0  0
 19 38  1  0  0  0  0
 19 39  1  0  0  0  0
 20 23  1  0  0  0  0
 20 40  1  0  0  0  0
 20 41  1  0  0  0  0
 21 24  2  0  0  0  0
 21 42  1  0  0  0  0
 23 43  1  0  0  0  0
 23 44  1  0  0  0  0
 24 25  1  0  0  0  0
 24 26  1  0  0  0  0
 26 45  1  0  0  0  0
 26 46  1  0  0  0  0
 26 47  1  0  0  0  0
 27 29  2  0  0  0  0
 27 48  1  0  0  0  0
 28 49  1  0  0  0  0
 29 50  1  0  0  0  0
M  END
>  <DRUGBANK_ID>
DB04691

>  <COMMON_NAME>
2'-O-[1-ethyl-1H-imidazol)] thymidine-5'-monophosphate

$$$$
