
 OpenBabel10282417203D

 38 39  0  0  1  0  0  0  0  0999 V2000
   -2.2065    0.0333   -0.0496 Cl  0  0  0  0  0  0  0  0  0  0  0  0
    4.1728   -2.2252    1.6454 C   0  0  0  0  0  0  0  0  0  0  0  0
    4.5354    1.5058   -2.5450 N   0  0  0  0  0  0  0  0  0  0  0  0
    3.8352   -0.1753    0.1801 C   0  0  1  0  0  0  0  0  0  0  0  0
    2.3103   -0.1146    0.1476 C   0  0  0  0  0  0  0  0  0  0  0  0
    4.4379   -0.8853    1.3732 C   0  0  0  0  0  0  0  0  0  0  0  0
    1.6228    1.1096    0.2410 C   0  0  0  0  0  0  0  0  0  0  0  0
    1.5541   -1.2749   -0.0459 C   0  0  0  0  0  0  0  0  0  0  0  0
    4.4568   -0.6628   -1.1471 C   0  0  0  0  0  0  0  0  0  0  0  0
    5.2826   -0.1499    2.1420 N   0  0  0  0  0  0  0  0  0  0  0  0
   -0.4906   -0.0103   -0.0024 C   0  0  0  0  0  0  0  0  0  0  0  0
    0.2350    1.1707    0.1010 C   0  0  0  0  0  0  0  0  0  0  0  0
    0.1648   -1.2321   -0.0585 C   0  0  0  0  0  0  0  0  0  0  0  0
    4.0284    0.1214   -2.4036 C   0  0  0  0  0  0  0  0  0  0  0  0
    4.7395   -2.8024    2.7646 C   0  0  0  0  0  0  0  0  0  0  0  0
    5.8504   -0.7447    3.2046 C   0  0  0  0  0  0  0  0  0  0  0  0
    5.5981   -2.0629    3.5592 C   0  0  0  0  0  0  0  0  0  0  0  0
    4.0440    2.0733   -3.8052 C   0  0  0  0  0  0  0  0  0  0  0  0
    4.0857    2.4316   -1.5111 C   0  0  0  0  0  0  0  0  0  0  0  0
    3.5429   -2.8198    1.0061 H   0  0  0  0  0  0  0  0  0  0  0  0
    4.1719    0.8337    0.3758 H   0  0  0  0  0  0  0  0  0  0  0  0
    2.1568    2.0461    0.3945 H   0  0  0  0  0  0  0  0  0  0  0  0
    2.0322   -2.2348   -0.1898 H   0  0  0  0  0  0  0  0  0  0  0  0
    5.5537   -0.6644   -1.0824 H   0  0  0  0  0  0  0  0  0  0  0  0
    4.1829   -1.7177   -1.3046 H   0  0  0  0  0  0  0  0  0  0  0  0
   -0.2673    2.1337    0.0877 H   0  0  0  0  0  0  0  0  0  0  0  0
   -0.3876   -2.1639   -0.1250 H   0  0  0  0  0  0  0  0  0  0  0  0
    4.4128   -0.4563   -3.2587 H   0  0  0  0  0  0  0  0  0  0  0  0
    2.9357    0.0834   -2.5043 H   0  0  0  0  0  0  0  0  0  0  0  0
    4.5069   -3.8390    3.0000 H   0  0  0  0  0  0  0  0  0  0  0  0
    6.5299   -0.1255    3.7773 H   0  0  0  0  0  0  0  0  0  0  0  0
    6.0703   -2.4983    4.4268 H   0  0  0  0  0  0  0  0  0  0  0  0
    2.9469    2.0811   -3.8373 H   0  0  0  0  0  0  0  0  0  0  0  0
    4.3886    3.1100   -3.8984 H   0  0  0  0  0  0  0  0  0  0  0  0
    4.4288    1.5252   -4.6662 H   0  0  0  0  0  0  0  0  0  0  0  0
    2.9978    2.4131   -1.4414 H   0  0  0  0  0  0  0  0  0  0  0  0
    4.5700    2.2643   -0.5551 H   0  0  0  0  0  0  0  0  0  0  0  0
    4.3659    3.4661   -1.7246 H   0  0  0  0  0  0  0  0  0  0  0  0
  1 11  1  0  0  0  0
  2  6  1  0  0  0  0
  2 15  2  0  0  0  0
  2 20  1  0  0  0  0
  3 14  1  0  0  0  0
  3 18  1  0  0  0  0
  3 19  1  0  0  0  0
  4  5  1  0  0  0  0
  4  6  1  0  0  0  0
  4  9  1  0  0  0  0
  4 21  1  1  0  0  0
  5  7  2  0  0  0  0
  5  8  1  0  0  0  0
  6 10  2  0  0  0  0
  7 12  1  0  0  0  0
  7 22  1  0  0  0  0
  8 13  2  0  0  0  0
  8 23  1  0  0  0  0
  9 14  1  0  0  0  0
  9 24  1  0  0  0  0
  9 25  1  0  0  0  0
 10 16  1  0  0  0  0
 11 12  2  0  0  0  0
 11 13  1  0  0  0  0
 12 26  1  0  0  0  0
 13 27  1  0  0  0  0
 14 28  1  0  0  0  0
 14 29  1  0  0  0  0
 15 17  1  0  0  0  0
 15 30  1  0  0  0  0
 16 17  2  0  0  0  0
 16 31  1  0  0  0  0
 17 32  1  0  0  0  0
 18 33  1  0  0  0  0
 18 34  1  0  0  0  0
 18 35  1  0  0  0  0
 19 36  1  0  0  0  0
 19 37  1  0  0  0  0
 19 38  1  0  0  0  0
M  END
>  <DRUGBANK_ID>
DB13679

>  <COMMON_NAME>
Dexchlorpheniramine

>  <CAS_NUMBER>
25523-97-1

>  <UNII>
3Q9Q0B929N

>  <SYNONYMS>
Dexchlorpheniramine; dexclorfeniramina

$$$$
