
 OpenBabel10282417123D

 18 18  0  0  0  0  0  0  0  0999 V2000
    1.0798    0.0356   -0.0895 C   0  0  0  0  0  0  0  0  0  0  0  0
    0.6160    1.0701    0.8839 C   0  0  0  0  0  0  0  0  0  0  0  0
    0.9025    2.4036    0.6458 C   0  0  0  0  0  0  0  0  0  0  0  0
    0.5923    3.4027    1.4903 N   0  0  0  0  0  0  0  0  0  0  0  0
   -0.0437    3.0426    2.6127 C   0  0  0  0  0  0  0  0  0  0  0  0
   -0.3416    4.1191    3.6128 C   0  0  0  0  0  0  0  0  0  0  0  0
   -0.4080    1.7781    2.9216 N   0  0  0  0  0  0  0  0  0  0  0  0
   -0.0677    0.8083    2.0532 C   0  0  0  0  0  0  0  0  0  0  0  0
   -0.3041   -0.4952    2.4862 N   0  0  0  0  0  0  0  0  0  0  0  0
    0.7009    0.2593   -1.0921 H   0  0  0  0  0  0  0  0  0  0  0  0
    0.7418   -0.9726    0.1623 H   0  0  0  0  0  0  0  0  0  0  0  0
    2.1734    0.0180   -0.1142 H   0  0  0  0  0  0  0  0  0  0  0  0
    1.4255    2.7151   -0.2526 H   0  0  0  0  0  0  0  0  0  0  0  0
   -1.4194    4.1857    3.7816 H   0  0  0  0  0  0  0  0  0  0  0  0
    0.1561    3.9010    4.5628 H   0  0  0  0  0  0  0  0  0  0  0  0
    0.0134    5.0940    3.2602 H   0  0  0  0  0  0  0  0  0  0  0  0
   -0.9389   -0.5059    3.2756 H   0  0  0  0  0  0  0  0  0  0  0  0
   -0.4963   -1.1896    1.7799 H   0  0  0  0  0  0  0  0  0  0  0  0
  1  2  1  0  0  0  0
  1 10  1  0  0  0  0
  1 11  1  0  0  0  0
  1 12  1  0  0  0  0
  2  3  2  0  0  0  0
  2  8  1  0  0  0  0
  3  4  1  0  0  0  0
  3 13  1  0  0  0  0
  4  5  2  0  0  0  0
  5  6  1  0  0  0  0
  5  7  1  0  0  0  0
  6 14  1  0  0  0  0
  6 15  1  0  0  0  0
  6 16  1  0  0  0  0
  7  8  2  0  0  0  0
  8  9  1  0  0  0  0
  9 17  1  0  0  0  0
  9 18  1  0  0  0  0
M  END
>  <DRUGBANK_ID>
DB02372

>  <SECONDARY_ACCESSION_NUMBERS>
EXPT03272

>  <COMMON_NAME>
2,5-Dimethylpyrimidin-4-Amine

>  <UNII>
J1SE9T8ANX

$$$$
