
 OpenBabel10282417133D

 20 19  0  0  1  0  0  0  0  0999 V2000
    1.3131    0.1256   -0.0075 C   0  0  2  0  0  0  0  0  0  0  0  0
    0.7644    1.5120   -0.3484 C   0  0  0  0  0  0  0  0  0  0  0  0
    0.6141   -0.8705   -1.0575 C   0  0  1  0  0  0  0  0  0  0  0  0
    1.2673   -0.1492    1.4764 N   0  0  0  0  0  0  0  0  0  0  0  0
   -0.0159    1.7794   -1.2685 O   0  0  0  0  0  0  0  0  0  0  0  0
    1.0931    2.4841    0.5165 O   0  0  0  0  0  0  0  0  0  0  0  0
    1.2624   -2.1562   -1.1513 O   0  0  0  0  0  0  0  0  0  0  0  0
   -0.1323   -2.3259    0.8192 O   0  0  0  0  0  0  0  0  0  0  0  0
   -1.0851    0.1325    1.0416 O   0  0  0  0  0  0  0  0  0  0  0  0
   -1.9434   -1.7674    2.0144 O   0  0  0  0  0  0  0  0  0  0  0  0
   -0.8506   -0.9645   -0.9704 O   0  0  0  0  0  0  0  0  0  0  0  0
   -1.4273   -1.3882    0.6047 P   0  0  0  0  0  0  0  0  0  0  0  0
    2.3834    0.1235   -0.2096 H   0  0  0  0  0  0  0  0  0  0  0  0
    0.8065   -0.4714   -2.0553 H   0  0  0  0  0  0  0  0  0  0  0  0
    1.3153    0.7326    1.9932 H   0  0  0  0  0  0  0  0  0  0  0  0
    0.2950   -0.4109    1.7260 H   0  0  0  0  0  0  0  0  0  0  0  0
    0.6070    3.2745    0.1936 H   0  0  0  0  0  0  0  0  0  0  0  0
    1.9242   -2.1858   -0.4327 H   0  0  0  0  0  0  0  0  0  0  0  0
   -0.3560   -3.2353    0.5363 H   0  0  0  0  0  0  0  0  0  0  0  0
   -1.3467    0.7661    0.3463 H   0  0  0  0  0  0  0  0  0  0  0  0
  1  4  1  0  0  0  0
  1 13  1  6  0  0  0
  2  1  1  0  0  0  0
  3  1  1  0  0  0  0
  3  7  1  0  0  0  0
  3 14  1  6  0  0  0
  4 15  1  0  0  0  0
  4 16  1  0  0  0  0
  5  2  2  0  0  0  0
  6  2  1  0  0  0  0
  6 17  1  0  0  0  0
  7 18  1  0  0  0  0
  8 19  1  0  0  0  0
  9 20  1  0  0  0  0
 11  3  1  0  0  0  0
 12  8  1  0  0  0  0
 12  9  1  0  0  0  0
 12 10  2  0  0  0  0
 12 11  1  0  0  0  0
M  END
>  <DRUGBANK_ID>
DB03821

>  <SECONDARY_ACCESSION_NUMBERS>
EXPT01431

>  <COMMON_NAME>
2-Amino-3-Hydroxy-3-Phosphonooxy-Propionic Acid

$$$$
