
 OpenBabel10282417243D

132131  0  0  1  0  0  0  0  0999 V2000
    7.2750    3.9966   15.1740 C   0  0  0  0  0  0  0  0  0  0  0  0
    6.4223    3.0286   15.9771 C   0  0  0  0  0  0  0  0  0  0  0  0
    4.9568    3.4595   15.9295 C   0  0  0  0  0  0  0  0  0  0  0  0
    4.4478    3.4785   14.4862 C   0  0  0  0  0  0  0  0  0  0  0  0
    4.6064    2.0872   13.8630 C   0  0  0  0  0  0  0  0  0  0  0  0
    3.7784    1.0795   14.6660 C   0  0  0  0  0  0  0  0  0  0  0  0
    2.3247    1.5358   14.6247 C   0  0  0  0  0  0  0  0  0  0  0  0
    1.9561    1.6724   13.1376 C   0  0  0  0  0  0  0  0  0  0  0  0
    2.1675    0.3007   12.4555 C   0  0  0  0  0  0  0  0  0  0  0  0
    1.3091   -0.6632   13.1992 C   0  0  0  0  0  0  0  0  0  0  0  0
   -0.0139    0.0407   13.0774 C   0  0  0  0  0  0  0  0  0  0  0  0
   -0.5156   -0.0913   11.5420 C   0  0  0  0  0  0  0  0  0  0  0  0
   -0.3856   -1.6898   10.7265 C   0  0  0  0  0  0  0  0  0  0  0  0
   -1.0441   -3.1846   11.2055 C   0  0  0  0  0  0  0  0  0  0  0  0
   -2.5125   -3.1872   11.4381 C   0  0  0  0  0  0  0  0  0  0  0  0
   -3.1397   -2.6097   10.2352 C   0  0  0  0  0  0  0  0  0  0  0  0
   -3.4375   -3.9210    9.5589 C   0  0  0  0  0  0  0  0  0  0  0  0
   -4.2291   -4.9288   10.4674 C   0  0  0  0  0  0  0  0  0  0  0  0
   -5.4578   -4.3859   10.9130 O   0  0  0  0  0  0  0  0  0  0  0  0
   -5.3700   -3.1522   11.6175 C   0  0  0  0  0  0  0  0  0  0  0  0
   -5.2397   -2.8620   13.0847 C   0  0  2  0  0  0  0  0  0  0  0  0
   -6.2016   -1.7661   13.4542 C   0  0  0  0  0  0  0  0  0  0  0  0
   -7.3992   -1.5880   12.7503 O   0  0  0  0  0  0  0  0  0  0  0  0
   -8.1273   -1.8502   11.3337 P   0  0  3  0  0  0  0  0  0  0  0  0
   -8.2924   -3.4559   11.1997 O   0  0  0  0  0  0  0  0  0  0  0  0
   -9.4624   -1.1860   11.4226 O   0  0  0  0  0  0  0  0  0  0  0  0
   -7.4508   -1.4170    9.9420 O   0  0  0  0  0  0  0  0  0  0  0  0
   -6.2219   -1.2843    9.2549 C   0  0  0  0  0  0  0  0  0  0  0  0
   -5.5285    0.0273    9.6647 C   0  0  0  0  0  0  0  0  0  0  0  0
   -5.7553    0.4648   11.0335 N   0  0  0  0  0  0  0  0  0  0  0  0
   -4.0256   -2.2557   13.6032 O   0  0  0  0  0  0  0  0  0  0  0  0
   -3.3770   -1.1893   13.1070 C   0  0  0  0  0  0  0  0  0  0  0  0
   -3.8095   -0.3362   12.2624 O   0  0  0  0  0  0  0  0  0  0  0  0
   -1.9333   -1.3493   13.2654 C   0  0  0  0  0  0  0  0  0  0  0  0
   -1.3814   -2.1980   14.3680 C   0  0  0  0  0  0  0  0  0  0  0  0
   -1.8153   -3.6045   14.6234 C   0  0  0  0  0  0  0  0  0  0  0  0
   -1.2030   -4.7578   13.8525 C   0  0  0  0  0  0  0  0  0  0  0  0
   -0.2317   -5.5286   14.3222 C   0  0  0  0  0  0  0  0  0  0  0  0
    0.1900   -5.3267   15.7071 C   0  0  0  0  0  0  0  0  0  0  0  0
   -0.3396   -6.4631   16.4944 C   0  0  0  0  0  0  0  0  0  0  0  0
    0.4950   -7.2322   17.1801 C   0  0  0  0  0  0  0  0  0  0  0  0
    1.9474   -6.9437   17.1488 C   0  0  0  0  0  0  0  0  0  0  0  0
    2.4515   -6.6748   18.5118 C   0  0  0  0  0  0  0  0  0  0  0  0
    3.4359   -7.4066   19.0251 C   0  0  0  0  0  0  0  0  0  0  0  0
    4.0391   -8.5294   18.2628 C   0  0  0  0  0  0  0  0  0  0  0  0
    5.5012   -8.3465   18.1335 C   0  0  0  0  0  0  0  0  0  0  0  0
    6.3577   -9.2506   18.6053 C   0  0  0  0  0  0  0  0  0  0  0  0
    5.9171  -10.5260   19.2647 C   0  0  0  0  0  0  0  0  0  0  0  0
    6.3913  -11.7310   18.4691 C   0  0  0  0  0  0  0  0  0  0  0  0
    7.9145  -11.8150   18.4696 C   0  0  0  0  0  0  0  0  0  0  0  0
    8.4748  -11.8543   19.8939 C   0  0  0  0  0  0  0  0  0  0  0  0
    7.9560  -13.0701   20.6456 C   0  0  0  0  0  0  0  0  0  0  0  0
    6.9813    4.0315   14.1195 H   0  0  0  0  0  0  0  0  0  0  0  0
    8.3227    3.6990   15.1953 H   0  0  0  0  0  0  0  0  0  0  0  0
    7.1700    5.0051   15.5840 H   0  0  0  0  0  0  0  0  0  0  0  0
    6.5534    2.0117   15.5873 H   0  0  0  0  0  0  0  0  0  0  0  0
    6.7604    2.9853   17.0146 H   0  0  0  0  0  0  0  0  0  0  0  0
    4.3567    2.7838   16.5522 H   0  0  0  0  0  0  0  0  0  0  0  0
    4.8274    4.4472   16.3786 H   0  0  0  0  0  0  0  0  0  0  0  0
    3.4098    3.8298   14.4681 H   0  0  0  0  0  0  0  0  0  0  0  0
    4.9668    4.2176   13.8742 H   0  0  0  0  0  0  0  0  0  0  0  0
    4.3197    2.1267   12.8069 H   0  0  0  0  0  0  0  0  0  0  0  0
    5.6412    1.7538   13.8046 H   0  0  0  0  0  0  0  0  0  0  0  0
    3.9102    0.0735   14.2542 H   0  0  0  0  0  0  0  0  0  0  0  0
    4.1115    0.9673   15.6977 H   0  0  0  0  0  0  0  0  0  0  0  0
    1.6989    0.8398   15.1990 H   0  0  0  0  0  0  0  0  0  0  0  0
    2.1395    2.4789   15.1424 H   0  0  0  0  0  0  0  0  0  0  0  0
    0.9588    2.1095   13.0696 H   0  0  0  0  0  0  0  0  0  0  0  0
    2.4765    2.4372   12.5742 H   0  0  0  0  0  0  0  0  0  0  0  0
    1.8701    0.3285   11.4081 H   0  0  0  0  0  0  0  0  0  0  0  0
    3.1886   -0.0684   12.4288 H   0  0  0  0  0  0  0  0  0  0  0  0
    1.3175   -1.6701   12.7719 H   0  0  0  0  0  0  0  0  0  0  0  0
    1.5849   -0.8521   14.2488 H   0  0  0  0  0  0  0  0  0  0  0  0
   -0.4949   -0.2932   13.9864 H   0  0  0  0  0  0  0  0  0  0  0  0
   -0.2535    1.0374   13.4719 H   0  0  0  0  0  0  0  0  0  0  0  0
   -1.5287    0.3538   11.5184 H   0  0  0  0  0  0  0  0  0  0  0  0
    0.0022    0.6518   10.9188 H   0  0  0  0  0  0  0  0  0  0  0  0
   -0.7082   -1.5059    9.6954 H   0  0  0  0  0  0  0  0  0  0  0  0
    0.6761   -1.9188   10.7057 H   0  0  0  0  0  0  0  0  0  0  0  0
   -0.8831   -4.1008   10.6229 H   0  0  0  0  0  0  0  0  0  0  0  0
   -0.5814   -3.4428   12.1411 H   0  0  0  0  0  0  0  0  0  0  0  0
   -3.0330   -4.0055   11.9105 H   0  0  0  0  0  0  0  0  0  0  0  0
   -2.6450   -2.9082   12.4224 H   0  0  0  0  0  0  0  0  0  0  0  0
   -3.9193   -1.8801   10.2968 H   0  0  0  0  0  0  0  0  0  0  0  0
   -2.5121   -1.9112    9.6991 H   0  0  0  0  0  0  0  0  0  0  0  0
   -3.9347   -3.7208    8.6191 H   0  0  0  0  0  0  0  0  0  0  0  0
   -2.4572   -4.3510    9.3298 H   0  0  0  0  0  0  0  0  0  0  0  0
   -4.3228   -5.8770    9.9436 H   0  0  0  0  0  0  0  0  0  0  0  0
   -3.7823   -5.3225   11.3922 H   0  0  0  0  0  0  0  0  0  0  0  0
   -5.2193   -2.2640   11.0699 H   0  0  0  0  0  0  0  0  0  0  0  0
   -6.3820   -3.0177   11.5561 H   0  0  0  0  0  0  0  0  0  0  0  0
   -5.4199   -3.8087   13.6010 H   0  0  0  0  0  0  0  0  0  0  0  0
   -6.3103   -1.8732   14.5469 H   0  0  0  0  0  0  0  0  0  0  0  0
   -5.7053   -0.7959   13.4073 H   0  0  0  0  0  0  0  0  0  0  0  0
   -7.5257   -4.0262   10.9615 H   0  0  0  0  0  0  0  0  0  0  0  0
   -5.6184   -2.1983    9.2265 H   0  0  0  0  0  0  0  0  0  0  0  0
   -6.4104   -1.1787    8.1722 H   0  0  0  0  0  0  0  0  0  0  0  0
   -4.4608    0.0251    9.4000 H   0  0  0  0  0  0  0  0  0  0  0  0
   -5.9769    0.8316    9.0865 H   0  0  0  0  0  0  0  0  0  0  0  0
   -4.8468    0.5240   11.5139 H   0  0  0  0  0  0  0  0  0  0  0  0
   -6.2616   -0.2272   11.5699 H   0  0  0  0  0  0  0  0  0  0  0  0
   -1.0584   -1.7815   12.7729 H   0  0  0  0  0  0  0  0  0  0  0  0
   -1.9778   -1.3049   12.1691 H   0  0  0  0  0  0  0  0  0  0  0  0
   -0.2680   -2.2484   14.3518 H   0  0  0  0  0  0  0  0  0  0  0  0
   -1.6342   -1.5535   15.1985 H   0  0  0  0  0  0  0  0  0  0  0  0
   -1.5508   -3.6090   15.6711 H   0  0  0  0  0  0  0  0  0  0  0  0
   -2.8817   -3.7129   14.6263 H   0  0  0  0  0  0  0  0  0  0  0  0
   -1.5264   -5.0721   12.8681 H   0  0  0  0  0  0  0  0  0  0  0  0
    0.1900   -6.3481   13.7351 H   0  0  0  0  0  0  0  0  0  0  0  0
    1.2493   -5.1128   15.6377 H   0  0  0  0  0  0  0  0  0  0  0  0
   -0.1540   -4.4453   16.2312 H   0  0  0  0  0  0  0  0  0  0  0  0
   -1.4098   -6.6648   16.4789 H   0  0  0  0  0  0  0  0  0  0  0  0
    0.1231   -8.0912   17.7277 H   0  0  0  0  0  0  0  0  0  0  0  0
    2.3663   -7.7647   16.5766 H   0  0  0  0  0  0  0  0  0  0  0  0
    2.3049   -6.0896   16.5818 H   0  0  0  0  0  0  0  0  0  0  0  0
    2.0231   -5.8477   19.0722 H   0  0  0  0  0  0  0  0  0  0  0  0
    3.7887   -7.2105   20.0326 H   0  0  0  0  0  0  0  0  0  0  0  0
    3.6902   -9.4213   18.7729 H   0  0  0  0  0  0  0  0  0  0  0  0
    3.7006   -8.6962   17.2437 H   0  0  0  0  0  0  0  0  0  0  0  0
    5.8659   -7.4653   17.6073 H   0  0  0  0  0  0  0  0  0  0  0  0
    7.4199   -9.0595   18.4760 H   0  0  0  0  0  0  0  0  0  0  0  0
    6.2565  -10.5144   20.3020 H   0  0  0  0  0  0  0  0  0  0  0  0
    4.8420  -10.6498   19.3657 H   0  0  0  0  0  0  0  0  0  0  0  0
    5.9490  -12.6337   18.9053 H   0  0  0  0  0  0  0  0  0  0  0  0
    6.0073  -11.6936   17.4415 H   0  0  0  0  0  0  0  0  0  0  0  0
    8.2283  -12.7019   17.9118 H   0  0  0  0  0  0  0  0  0  0  0  0
    8.3364  -10.9564   17.9345 H   0  0  0  0  0  0  0  0  0  0  0  0
    9.5666  -11.8670   19.8552 H   0  0  0  0  0  0  0  0  0  0  0  0
    8.2177  -10.9448   20.4498 H   0  0  0  0  0  0  0  0  0  0  0  0
    8.2481  -13.9829   20.1190 H   0  0  0  0  0  0  0  0  0  0  0  0
    8.3543  -13.0947   21.6608 H   0  0  0  0  0  0  0  0  0  0  0  0
    6.8644  -13.0676   20.7352 H   0  0  0  0  0  0  0  0  0  0  0  0
  1  2  1  0  0  0  0
  1 53  1  0  0  0  0
  1 54  1  0  0  0  0
  1 55  1  0  0  0  0
  2  3  1  0  0  0  0
  2 56  1  0  0  0  0
  2 57  1  0  0  0  0
  3  4  1  0  0  0  0
  3 58  1  0  0  0  0
  3 59  1  0  0  0  0
  4  5  1  0  0  0  0
  4 60  1  0  0  0  0
  4 61  1  0  0  0  0
  5  6  1  0  0  0  0
  5 62  1  0  0  0  0
  5 63  1  0  0  0  0
  6  7  1  0  0  0  0
  6 64  1  0  0  0  0
  6 65  1  0  0  0  0
  7  8  1  0  0  0  0
  7 66  1  0  0  0  0
  7 67  1  0  0  0  0
  8  9  1  0  0  0  0
  8 68  1  0  0  0  0
  8 69  1  0  0  0  0
  9 10  1  0  0  0  0
  9 70  1  0  0  0  0
  9 71  1  0  0  0  0
 10 11  1  0  0  0  0
 10 72  1  0  0  0  0
 10 73  1  0  0  0  0
 11 12  1  0  0  0  0
 11 74  1  0  0  0  0
 11 75  1  0  0  0  0
 12 13  1  0  0  0  0
 12 76  1  0  0  0  0
 12 77  1  0  0  0  0
 13 14  1  0  0  0  0
 13 78  1  0  0  0  0
 13 79  1  0  0  0  0
 14 15  1  0  0  0  0
 14 80  1  0  0  0  0
 14 81  1  0  0  0  0
 15 16  1  0  0  0  0
 15 82  1  0  0  0  0
 15 83  1  0  0  0  0
 16 17  1  0  0  0  0
 16 84  1  0  0  0  0
 16 85  1  0  0  0  0
 17 18  1  0  0  0  0
 17 86  1  0  0  0  0
 17 87  1  0  0  0  0
 18 19  1  0  0  0  0
 18 88  1  0  0  0  0
 18 89  1  0  0  0  0
 19 20  1  0  0  0  0
 20 90  1  0  0  0  0
 20 91  1  0  0  0  0
 21 31  1  0  0  0  0
 21 92  1  1  0  0  0
 21 22  1  0  0  0  0
 21 20  1  0  0  0  0
 22 23  1  0  0  0  0
 22 93  1  0  0  0  0
 22 94  1  0  0  0  0
 23 24  1  0  0  0  0
 24 25  1  0  0  0  0
 24 26  2  0  0  0  0
 24 27  1  0  0  0  0
 25 95  1  0  0  0  0
 27 28  1  0  0  0  0
 28 29  1  0  0  0  0
 28 96  1  0  0  0  0
 28 97  1  0  0  0  0
 29 30  1  0  0  0  0
 29 98  1  0  0  0  0
 29 99  1  0  0  0  0
 30100  1  0  0  0  0
 30101  1  0  0  0  0
 31 32  1  0  0  0  0
 32 33  2  0  0  0  0
 32 34  1  0  0  0  0
 34 35  1  0  0  0  0
 34102  1  0  0  0  0
 34103  1  0  0  0  0
 35 36  1  0  0  0  0
 35104  1  0  0  0  0
 35105  1  0  0  0  0
 36 37  1  0  0  0  0
 36106  1  0  0  0  0
 36107  1  0  0  0  0
 37 38  2  0  0  0  0
 37108  1  0  0  0  0
 38 39  1  0  0  0  0
 38109  1  0  0  0  0
 39 40  1  0  0  0  0
 39110  1  0  0  0  0
 39111  1  0  0  0  0
 40 41  2  0  0  0  0
 40112  1  0  0  0  0
 41 42  1  0  0  0  0
 41113  1  0  0  0  0
 42 43  1  0  0  0  0
 42114  1  0  0  0  0
 42115  1  0  0  0  0
 43 44  2  0  0  0  0
 43116  1  0  0  0  0
 44 45  1  0  0  0  0
 44117  1  0  0  0  0
 45 46  1  0  0  0  0
 45118  1  0  0  0  0
 45119  1  0  0  0  0
 46 47  2  0  0  0  0
 46120  1  0  0  0  0
 47 48  1  0  0  0  0
 47121  1  0  0  0  0
 48 49  1  0  0  0  0
 48122  1  0  0  0  0
 48123  1  0  0  0  0
 49 50  1  0  0  0  0
 49124  1  0  0  0  0
 49125  1  0  0  0  0
 50 51  1  0  0  0  0
 50126  1  0  0  0  0
 50127  1  0  0  0  0
 51 52  1  0  0  0  0
 51128  1  0  0  0  0
 51129  1  0  0  0  0
 52130  1  0  0  0  0
 52131  1  0  0  0  0
 52132  1  0  0  0  0
M  END
>  <DRUGBANK_ID>
DB18093

>  <COMMON_NAME>
KIT-13

>  <CAS_NUMBER>
103628-72-4

>  <UNII>
6B7M56U62N

>  <SYNONYMS>
1-o-octadecyl-2-arachidonoyl-sn-glycerol-3-phosphoethanolamine

$$$$
