
 OpenBabel10282417163D

 32 31  0  0  0  0  0  0  0  0999 V2000
    0.8985   -0.1965   -0.0929 O   0  0  0  0  0  0  0  0  0  0  0  0
    0.3157   -1.3436    0.3015 C   0  0  0  0  0  0  0  0  0  0  0  0
   -5.4208    4.4786   -0.9123 C   0  0  0  0  0  0  0  0  0  0  0  0
   -3.9171    4.4431   -0.8370 C   0  0  0  0  0  0  0  0  0  0  0  0
   -3.4234    3.9789    0.5335 C   0  0  0  0  0  0  0  0  0  0  0  0
   -3.8420    2.5366    0.8361 C   0  0  0  0  0  0  0  0  0  0  0  0
   -3.3175    1.5796   -0.2412 C   0  0  0  0  0  0  0  0  0  0  0  0
   -1.7876    1.5820   -0.2417 C   0  0  0  0  0  0  0  0  0  0  0  0
   -1.2631    1.1352    1.1282 C   0  0  0  0  0  0  0  0  0  0  0  0
   -1.6817   -0.3078    1.4271 C   0  0  0  0  0  0  0  0  0  0  0  0
   -1.1880   -1.2810    0.3563 C   0  0  0  0  0  0  0  0  0  0  0  0
   -6.0035    3.2694   -0.8155 O   0  0  0  0  0  0  0  0  0  0  0  0
   -6.1025    5.4868   -1.0365 O   0  0  0  0  0  0  0  0  0  0  0  0
    0.9974   -2.3175    0.5905 O   0  0  0  0  0  0  0  0  0  0  0  0
    1.8585   -0.2977    0.0679 H   0  0  0  0  0  0  0  0  0  0  0  0
   -3.5338    5.4494   -1.0310 H   0  0  0  0  0  0  0  0  0  0  0  0
   -3.5298    3.8295   -1.6577 H   0  0  0  0  0  0  0  0  0  0  0  0
   -3.7900    4.6406    1.3238 H   0  0  0  0  0  0  0  0  0  0  0  0
   -2.3292    4.0701    0.5703 H   0  0  0  0  0  0  0  0  0  0  0  0
   -4.9239    2.4427    0.9321 H   0  0  0  0  0  0  0  0  0  0  0  0
   -3.4988    2.2534    1.8350 H   0  0  0  0  0  0  0  0  0  0  0  0
   -3.6829    1.8364   -1.2400 H   0  0  0  0  0  0  0  0  0  0  0  0
   -3.7212    0.5764   -0.0726 H   0  0  0  0  0  0  0  0  0  0  0  0
   -1.3838    2.5690   -0.4879 H   0  0  0  0  0  0  0  0  0  0  0  0
   -1.4221    0.9475   -1.0547 H   0  0  0  0  0  0  0  0  0  0  0  0
   -1.6063    1.7940    1.9308 H   0  0  0  0  0  0  0  0  0  0  0  0
   -0.1812    1.2597    1.1787 H   0  0  0  0  0  0  0  0  0  0  0  0
   -2.7758   -0.3768    1.4973 H   0  0  0  0  0  0  0  0  0  0  0  0
   -1.3151   -0.5987    2.4160 H   0  0  0  0  0  0  0  0  0  0  0  0
   -1.5753   -1.0464   -0.6413 H   0  0  0  0  0  0  0  0  0  0  0  0
   -1.5713   -2.2810    0.5806 H   0  0  0  0  0  0  0  0  0  0  0  0
   -6.9636    3.4265   -0.7085 H   0  0  0  0  0  0  0  0  0  0  0  0
  1  2  1  0  0  0  0
  1 15  1  0  0  0  0
  3 13  2  0  0  0  0
  3  4  1  0  0  0  0
  3 12  1  0  0  0  0
  4  5  1  0  0  0  0
  4 16  1  0  0  0  0
  4 17  1  0  0  0  0
  5  6  1  0  0  0  0
  5 18  1  0  0  0  0
  5 19  1  0  0  0  0
  6  7  1  0  0  0  0
  6 20  1  0  0  0  0
  6 21  1  0  0  0  0
  7  8  1  0  0  0  0
  7 22  1  0  0  0  0
  7 23  1  0  0  0  0
  8  9  1  0  0  0  0
  8 24  1  0  0  0  0
  8 25  1  0  0  0  0
  9 10  1  0  0  0  0
  9 26  1  0  0  0  0
  9 27  1  0  0  0  0
 10 11  1  0  0  0  0
 10 28  1  0  0  0  0
 10 29  1  0  0  0  0
 11  2  1  0  0  0  0
 11 30  1  0  0  0  0
 11 31  1  0  0  0  0
 12 32  1  0  0  0  0
 14  2  2  0  0  0  0
M  END
>  <DRUGBANK_ID>
DB07645

>  <COMMON_NAME>
Sebacic acid

>  <CAS_NUMBER>
111-20-6

>  <UNII>
97AN39ICTC

>  <SYNONYMS>
1,10-decanedioic acid; 1,8-dicarboxyoctane; Decanedioic acid; Sebacins√§ure

$$$$
