
 OpenBabel10282417143D

 76 78  0  0  1  0  0  0  0  0999 V2000
    3.5569   -2.0095    0.2288 O   0  0  0  0  0  0  0  0  0  0  0  0
    2.4700   -1.7289    1.1106 C   0  0  0  0  0  0  0  0  0  0  0  0
    1.2426   -2.6131    0.8158 C   0  0  1  0  0  0  0  0  0  0  0  0
    1.3140   -3.0997   -0.5371 O   0  0  0  0  0  0  0  0  0  0  0  0
    0.1199   -3.7392   -0.9452 C   0  0  2  0  0  0  0  0  0  0  0  0
   -0.9918   -2.8760   -0.8162 O   0  0  0  0  0  0  0  0  0  0  0  0
   -0.9433   -1.7332   -1.6747 C   0  0  1  0  0  0  0  0  0  0  0  0
    0.0024   -0.6137   -1.1988 C   0  0  2  0  0  0  0  0  0  0  0  0
   -0.3618   -0.1506    0.1240 O   0  0  0  0  0  0  0  0  0  0  0  0
    0.1913    0.5702   -2.1206 C   0  0  1  0  0  0  0  0  0  0  0  0
    1.4118    1.2764   -1.7927 O   0  0  0  0  0  0  0  0  0  0  0  0
    0.1358    0.1902   -3.6129 C   0  0  2  0  0  0  0  0  0  0  0  0
   -0.2276    1.3308   -4.4256 O   0  0  0  0  0  0  0  0  0  0  0  0
   -1.3824    2.1190   -4.1068 C   0  0  0  0  0  0  0  0  0  0  0  0
   -2.7172    1.4354   -4.3597 C   0  0  0  0  0  0  0  0  0  0  0  0
   -3.0557    0.3691   -3.3635 C   0  0  0  0  0  0  0  0  0  0  0  0
   -3.0106    0.7453   -1.8907 C   0  0  0  0  0  0  0  0  0  0  0  0
   -4.2676    1.3626   -1.4405 C   0  0  0  0  0  0  0  0  0  0  0  0
   -5.3346    0.3110   -1.6448 C   0  0  0  0  0  0  0  0  0  0  0  0
   -6.6168    1.0770   -1.7697 C   0  0  0  0  0  0  0  0  0  0  0  0
   -7.7414    0.0991   -1.9789 C   0  0  0  0  0  0  0  0  0  0  0  0
   -7.7554   -0.9401   -0.8606 C   0  0  0  0  0  0  0  0  0  0  0  0
   -6.4645   -1.7497   -0.7929 C   0  0  0  0  0  0  0  0  0  0  0  0
   -5.2785   -0.8223   -0.6090 C   0  0  0  0  0  0  0  0  0  0  0  0
   -0.6198   -0.9545   -4.0371 O   0  0  0  0  0  0  0  0  0  0  0  0
   -0.8422   -2.0783   -3.1669 C   0  0  2  0  0  0  0  0  0  0  0  0
   -2.1910   -2.8318   -3.5245 C   0  0  0  0  0  0  0  0  0  0  0  0
   -2.3505   -3.0235   -4.9204 O   0  0  0  0  0  0  0  0  0  0  0  0
   -0.1501   -4.9862   -0.1221 C   0  0  2  0  0  0  0  0  0  0  0  0
   -1.3800   -5.6024   -0.5310 O   0  0  0  0  0  0  0  0  0  0  0  0
   -0.1684   -4.6202    1.3656 C   0  0  1  0  0  0  0  0  0  0  0  0
   -0.1967   -5.8212    2.1413 O   0  0  0  0  0  0  0  0  0  0  0  0
    1.0689   -3.7845    1.7644 C   0  0  2  0  0  0  0  0  0  0  0  0
    0.9436   -3.3091    3.1046 O   0  0  0  0  0  0  0  0  0  0  0  0
    3.5332   -2.9649    0.0512 H   0  0  0  0  0  0  0  0  0  0  0  0
    2.8162   -1.8451    2.1393 H   0  0  0  0  0  0  0  0  0  0  0  0
    2.2228   -0.6685    0.9756 H   0  0  0  0  0  0  0  0  0  0  0  0
    0.3644   -1.9886    0.9890 H   0  0  0  0  0  0  0  0  0  0  0  0
    0.2118   -4.0670   -1.9811 H   0  0  0  0  0  0  0  0  0  0  0  0
   -1.9527   -1.4248   -1.5076 H   0  0  0  0  0  0  0  0  0  0  0  0
    1.0011   -1.0138   -1.0977 H   0  0  0  0  0  0  0  0  0  0  0  0
   -1.1988    0.3427    0.1049 H   0  0  0  0  0  0  0  0  0  0  0  0
   -0.5005    1.3456   -1.8547 H   0  0  0  0  0  0  0  0  0  0  0  0
    2.1693    0.6829   -1.9257 H   0  0  0  0  0  0  0  0  0  0  0  0
    1.1653   -0.0340   -3.9065 H   0  0  0  0  0  0  0  0  0  0  0  0
   -1.3324    2.5572   -3.1069 H   0  0  0  0  0  0  0  0  0  0  0  0
   -1.3488    2.9889   -4.7677 H   0  0  0  0  0  0  0  0  0  0  0  0
   -3.5396    2.1616   -4.3390 H   0  0  0  0  0  0  0  0  0  0  0  0
   -2.7016    0.9799   -5.3560 H   0  0  0  0  0  0  0  0  0  0  0  0
   -3.9218   -0.1755   -3.7304 H   0  0  0  0  0  0  0  0  0  0  0  0
   -2.3402   -0.4085   -3.4703 H   0  0  0  0  0  0  0  0  0  0  0  0
   -2.9048   -0.0924   -1.2229 H   0  0  0  0  0  0  0  0  0  0  0  0
   -2.2250    1.4223   -1.6122 H   0  0  0  0  0  0  0  0  0  0  0  0
   -4.1703    1.6337   -0.3826 H   0  0  0  0  0  0  0  0  0  0  0  0
   -4.4060    2.2791   -2.0163 H   0  0  0  0  0  0  0  0  0  0  0  0
   -5.2579   -0.2154   -2.5955 H   0  0  0  0  0  0  0  0  0  0  0  0
   -6.7560    1.7006   -0.8830 H   0  0  0  0  0  0  0  0  0  0  0  0
   -6.5348    1.7457   -2.6398 H   0  0  0  0  0  0  0  0  0  0  0  0
   -8.6750    0.6612   -2.0125 H   0  0  0  0  0  0  0  0  0  0  0  0
   -7.6123   -0.3972   -2.9507 H   0  0  0  0  0  0  0  0  0  0  0  0
   -7.8860   -0.4236    0.0974 H   0  0  0  0  0  0  0  0  0  0  0  0
   -8.5998   -1.6142   -1.0064 H   0  0  0  0  0  0  0  0  0  0  0  0
   -6.4955   -2.4654    0.0354 H   0  0  0  0  0  0  0  0  0  0  0  0
   -6.3317   -2.3349   -1.7135 H   0  0  0  0  0  0  0  0  0  0  0  0
   -4.3711   -1.4350   -0.7195 H   0  0  0  0  0  0  0  0  0  0  0  0
   -5.2524   -0.4107    0.4045 H   0  0  0  0  0  0  0  0  0  0  0  0
   -0.0328   -2.7679   -3.3948 H   0  0  0  0  0  0  0  0  0  0  0  0
   -2.2412   -3.8079   -3.0282 H   0  0  0  0  0  0  0  0  0  0  0  0
   -3.0902   -2.3046   -3.1738 H   0  0  0  0  0  0  0  0  0  0  0  0
   -2.3349   -2.1337   -5.3205 H   0  0  0  0  0  0  0  0  0  0  0  0
    0.6478   -5.7081   -0.3191 H   0  0  0  0  0  0  0  0  0  0  0  0
   -2.1011   -4.9762   -0.3297 H   0  0  0  0  0  0  0  0  0  0  0  0
   -1.0934   -4.0808    1.6120 H   0  0  0  0  0  0  0  0  0  0  0  0
    0.5901   -6.3387    1.8955 H   0  0  0  0  0  0  0  0  0  0  0  0
    1.9612   -4.4135    1.7093 H   0  0  0  0  0  0  0  0  0  0  0  0
    0.1160   -2.7979    3.1744 H   0  0  0  0  0  0  0  0  0  0  0  0
  1  2  1  0  0  0  0
  1 35  1  0  0  0  0
  2 36  1  0  0  0  0
  2 37  1  0  0  0  0
  3  4  1  0  0  0  0
  3 33  1  0  0  0  0
  3 38  1  1  0  0  0
  3  2  1  0  0  0  0
  4  5  1  0  0  0  0
  5 29  1  0  0  0  0
  5 39  1  6  0  0  0
  5  6  1  0  0  0  0
  7  6  1  0  0  0  0
  7  8  1  0  0  0  0
  7 26  1  0  0  0  0
  7 40  1  1  0  0  0
  8  9  1  0  0  0  0
  8 10  1  0  0  0  0
  8 41  1  1  0  0  0
  9 42  1  0  0  0  0
 10 11  1  0  0  0  0
 10 12  1  0  0  0  0
 10 43  1  1  0  0  0
 11 44  1  0  0  0  0
 12 13  1  0  0  0  0
 12 25  1  0  0  0  0
 12 45  1  6  0  0  0
 13 14  1  0  0  0  0
 14 15  1  0  0  0  0
 14 46  1  0  0  0  0
 14 47  1  0  0  0  0
 15 16  1  0  0  0  0
 15 48  1  0  0  0  0
 15 49  1  0  0  0  0
 16 17  1  0  0  0  0
 16 50  1  0  0  0  0
 16 51  1  0  0  0  0
 17 18  1  0  0  0  0
 17 52  1  0  0  0  0
 17 53  1  0  0  0  0
 18 19  1  0  0  0  0
 18 54  1  0  0  0  0
 18 55  1  0  0  0  0
 19 20  1  0  0  0  0
 19 24  1  0  0  0  0
 19 56  1  0  0  0  0
 20 21  1  0  0  0  0
 20 57  1  0  0  0  0
 20 58  1  0  0  0  0
 21 22  1  0  0  0  0
 21 59  1  0  0  0  0
 21 60  1  0  0  0  0
 22 23  1  0  0  0  0
 22 61  1  0  0  0  0
 22 62  1  0  0  0  0
 23 24  1  0  0  0  0
 23 63  1  0  0  0  0
 23 64  1  0  0  0  0
 24 65  1  0  0  0  0
 24 66  1  0  0  0  0
 25 26  1  0  0  0  0
 26 27  1  0  0  0  0
 26 67  1  6  0  0  0
 27 28  1  0  0  0  0
 27 68  1  0  0  0  0
 27 69  1  0  0  0  0
 28 70  1  0  0  0  0
 29 30  1  0  0  0  0
 29 31  1  0  0  0  0
 29 71  1  6  0  0  0
 30 72  1  0  0  0  0
 31 32  1  0  0  0  0
 31 33  1  0  0  0  0
 31 73  1  1  0  0  0
 32 74  1  0  0  0  0
 33 34  1  0  0  0  0
 33 75  1  6  0  0  0
 34 76  1  0  0  0  0
M  END
>  <DRUGBANK_ID>
DB04664

>  <COMMON_NAME>
Cyclohexyl-pentyl-maltoside

>  <CAS_NUMBER>
250692-65-0

>  <SYNONYMS>
5-cyclohexyl-1-pentyl-beta-D-maltoside; CYMAL-5; CYMAL(R)-5

$$$$
