
 OpenBabel10282417183D

 30 29  0  0  0  0  0  0  0  0999 V2000
    1.0519    0.0012    0.0649 C   0  0  0  0  0  0  0  0  0  0  0  0
    0.6190    1.4294    0.3583 C   0  0  0  0  0  0  0  0  0  0  0  0
    1.0944    2.3906   -0.7332 C   0  0  0  0  0  0  0  0  0  0  0  0
    0.5285    2.0368   -2.1133 C   0  0  0  0  0  0  0  0  0  0  0  0
   -1.0054    2.0676   -2.1397 C   0  0  0  0  0  0  0  0  0  0  0  0
   -1.5677    3.4692   -1.8560 C   0  0  0  0  0  0  0  0  0  0  0  0
   -1.0748    4.5108   -2.8826 C   0  0  3  0  0  0  0  0  0  0  0  0
   -1.5380    4.1137   -4.2899 C   0  0  0  0  0  0  0  0  0  0  0  0
   -1.5671    5.8477   -2.4933 N   0  0  0  0  0  0  0  0  0  0  0  0
   -1.0347    6.8310   -3.4153 N   0  0  0  0  0  0  0  0  0  0  0  0
    0.6371   -0.3666   -0.8789 H   0  0  0  0  0  0  0  0  0  0  0  0
    0.7072   -0.6749    0.8497 H   0  0  0  0  0  0  0  0  0  0  0  0
    2.1427   -0.0563    0.0005 H   0  0  0  0  0  0  0  0  0  0  0  0
   -0.4709    1.4698    0.4652 H   0  0  0  0  0  0  0  0  0  0  0  0
    1.0246    1.7474    1.3240 H   0  0  0  0  0  0  0  0  0  0  0  0
    0.8171    3.4157   -0.4590 H   0  0  0  0  0  0  0  0  0  0  0  0
    2.1893    2.3843   -0.7797 H   0  0  0  0  0  0  0  0  0  0  0  0
    0.9489    2.7173   -2.8610 H   0  0  0  0  0  0  0  0  0  0  0  0
    0.8763    1.0489   -2.4311 H   0  0  0  0  0  0  0  0  0  0  0  0
   -1.3580    1.6989   -3.1080 H   0  0  0  0  0  0  0  0  0  0  0  0
   -1.4225    1.3571   -1.4181 H   0  0  0  0  0  0  0  0  0  0  0  0
   -2.6636    3.4179   -1.8583 H   0  0  0  0  0  0  0  0  0  0  0  0
   -1.2921    3.7794   -0.8397 H   0  0  0  0  0  0  0  0  0  0  0  0
    0.0185    4.5518   -2.8538 H   0  0  0  0  0  0  0  0  0  0  0  0
   -2.6299    4.0518   -4.3361 H   0  0  0  0  0  0  0  0  0  0  0  0
   -1.1945    4.8227   -5.0474 H   0  0  0  0  0  0  0  0  0  0  0  0
   -1.1307    3.1428   -4.5877 H   0  0  0  0  0  0  0  0  0  0  0  0
   -2.5884    5.8347   -2.5014 H   0  0  0  0  0  0  0  0  0  0  0  0
   -1.3164    7.7802   -3.1451 H   0  0  0  0  0  0  0  0  0  0  0  0
   -0.0138    6.8397   -3.3991 H   0  0  0  0  0  0  0  0  0  0  0  0
  1  2  1  0  0  0  0
  1 11  1  0  0  0  0
  1 12  1  0  0  0  0
  1 13  1  0  0  0  0
  2  3  1  0  0  0  0
  2 14  1  0  0  0  0
  2 15  1  0  0  0  0
  3  4  1  0  0  0  0
  3 16  1  0  0  0  0
  3 17  1  0  0  0  0
  4  5  1  0  0  0  0
  4 18  1  0  0  0  0
  4 19  1  0  0  0  0
  5  6  1  0  0  0  0
  5 20  1  0  0  0  0
  5 21  1  0  0  0  0
  6  7  1  0  0  0  0
  6 22  1  0  0  0  0
  6 23  1  0  0  0  0
  7  8  1  0  0  0  0
  7  9  1  0  0  0  0
  7 24  1  0  0  0  0
  8 25  1  0  0  0  0
  8 26  1  0  0  0  0
  8 27  1  0  0  0  0
  9 10  1  0  0  0  0
  9 28  1  0  0  0  0
 10 29  1  0  0  0  0
 10 30  1  0  0  0  0
M  END
>  <DRUGBANK_ID>
DB09249

>  <COMMON_NAME>
Octamoxin

>  <CAS_NUMBER>
4684-87-1

>  <UNII>
0HXY3M6S54

>  <SYNONYMS>
2-octylhydrazine; Octamoxin

$$$$
