
 OpenBabel10282417243D

 30 32  0  0  0  0  0  0  0  0999 V2000
    0.9239   -0.0892    0.0237 C   0  0  0  0  0  0  0  0  0  0  0  0
    0.3645    1.3090   -0.2249 C   0  0  0  0  0  0  0  0  0  0  0  0
    0.9090    1.8649   -1.5394 C   0  0  0  0  0  0  0  0  0  0  0  0
   -1.1403    1.2882   -0.2362 C   0  0  0  0  0  0  0  0  0  0  0  0
   -1.9417    0.3991   -0.8094 N   0  0  0  0  0  0  0  0  0  0  0  0
   -3.2179    0.8180   -0.5344 C   0  0  0  0  0  0  0  0  0  0  0  0
   -3.1947    1.9724    0.2046 C   0  0  0  0  0  0  0  0  0  0  0  0
   -1.8753    2.2661    0.3925 N   0  0  0  0  0  0  0  0  0  0  0  0
   -4.3182    2.7090    0.6751 C   0  0  0  0  0  0  0  0  0  0  0  0
   -4.2388    3.7381    1.3316 O   0  0  0  0  0  0  0  0  0  0  0  0
   -5.6667    2.0980    0.2844 C   0  0  0  0  0  0  0  0  0  0  0  0
   -6.7089    2.6396    0.6315 O   0  0  0  0  0  0  0  0  0  0  0  0
   -5.6818    0.8424   -0.5187 C   0  0  0  0  0  0  0  0  0  0  0  0
   -6.9253    0.2975   -0.8684 C   0  0  0  0  0  0  0  0  0  0  0  0
   -6.9835   -0.8732   -1.6182 C   0  0  0  0  0  0  0  0  0  0  0  0
   -5.8017   -1.5001   -2.0168 C   0  0  0  0  0  0  0  0  0  0  0  0
   -4.5535   -0.9615   -1.6685 C   0  0  0  0  0  0  0  0  0  0  0  0
   -4.4812    0.2169   -0.9174 C   0  0  0  0  0  0  0  0  0  0  0  0
    0.6050   -0.7853   -0.7597 H   0  0  0  0  0  0  0  0  0  0  0  0
    0.5787   -0.4836    0.9854 H   0  0  0  0  0  0  0  0  0  0  0  0
    2.0193   -0.0767    0.0369 H   0  0  0  0  0  0  0  0  0  0  0  0
    0.7131    1.9606    0.5893 H   0  0  0  0  0  0  0  0  0  0  0  0
    0.5836    1.2558   -2.3897 H   0  0  0  0  0  0  0  0  0  0  0  0
    0.5639    2.8906   -1.7093 H   0  0  0  0  0  0  0  0  0  0  0  0
    2.0050    1.8779   -1.5337 H   0  0  0  0  0  0  0  0  0  0  0  0
   -1.5168    3.0641    0.9032 H   0  0  0  0  0  0  0  0  0  0  0  0
   -7.8483    0.7848   -0.5573 H   0  0  0  0  0  0  0  0  0  0  0  0
   -7.9501   -1.2934   -1.8891 H   0  0  0  0  0  0  0  0  0  0  0  0
   -5.8565   -2.4153   -2.6035 H   0  0  0  0  0  0  0  0  0  0  0  0
   -3.6456   -1.4700   -1.9888 H   0  0  0  0  0  0  0  0  0  0  0  0
  1  2  1  0  0  0  0
  1 19  1  0  0  0  0
  1 20  1  0  0  0  0
  1 21  1  0  0  0  0
  2  3  1  0  0  0  0
  2  4  1  0  0  0  0
  2 22  1  0  0  0  0
  3 23  1  0  0  0  0
  3 24  1  0  0  0  0
  3 25  1  0  0  0  0
  4  5  2  0  0  0  0
  4  8  1  0  0  0  0
  5  6  1  0  0  0  0
  6  7  2  0  0  0  0
  6 18  1  0  0  0  0
  7  8  1  0  0  0  0
  7  9  1  0  0  0  0
  8 26  1  0  0  0  0
  9 10  2  0  0  0  0
  9 11  1  0  0  0  0
 11 12  2  0  0  0  0
 11 13  1  0  0  0  0
 13 14  2  0  0  0  0
 13 18  1  0  0  0  0
 14 15  1  0  0  0  0
 14 27  1  0  0  0  0
 15 16  2  0  0  0  0
 15 28  1  0  0  0  0
 16 17  1  0  0  0  0
 16 29  1  0  0  0  0
 17 18  2  0  0  0  0
 17 30  1  0  0  0  0
M  END
>  <DRUGBANK_ID>
DB17622

>  <COMMON_NAME>
KL1333

>  <CAS_NUMBER>
1800405-30-4

>  <UNII>
NA2ZOL5UGM

>  <SYNONYMS>
2-(1-methylethyl)-3h-naphth(1,2-d)imidazole-4,5-dione; 2-isopropyl-3h-naphtho(1,2-d)imidazole-4,5-dione; 2-isopropyl-3H-naphtho[1,2-d]imidazole-4,5-dione; 3h-naphth(1,2-d)imidazole-4,5-dione, 2-(1-methylethyl)-

$$$$
