
 OpenBabel10282417223D

 48 51  0  0  1  0  0  0  0  0999 V2000
    0.8927    0.6639    2.4214 C   0  0  0  0  0  0  0  0  0  0  0  0
    0.5151   -0.3214    1.3115 C   0  0  2  0  0  0  0  0  0  0  0  0
    1.0937   -0.0636   -0.0311 N   0  0  0  0  0  0  0  0  0  0  0  0
    1.9008    1.0102   -0.3693 C   0  0  0  0  0  0  0  0  0  0  0  0
    3.0357    1.3466    0.3683 C   0  0  0  0  0  0  0  0  0  0  0  0
    3.7533    2.5147    0.1193 C   0  0  0  0  0  0  0  0  0  0  0  0
    3.4140    3.3509   -0.9488 C   0  0  0  0  0  0  0  0  0  0  0  0
    4.2543    4.5206   -1.1577 C   0  0  0  0  0  0  0  0  0  0  0  0
    5.5637    4.5955   -0.9832 N   0  0  0  0  0  0  0  0  0  0  0  0
    5.8922    5.9031   -1.1715 C   0  0  0  0  0  0  0  0  0  0  0  0
    4.7869    6.6385   -1.5296 C   0  0  0  0  0  0  0  0  0  0  0  0
    3.7595    5.7418   -1.5296 N   0  0  0  0  0  0  0  0  0  0  0  0
    2.3847    5.9630   -1.9217 C   0  0  0  0  0  0  0  0  0  0  0  0
    2.0212    5.0541   -3.0867 C   0  0  0  0  0  0  0  0  0  0  0  0
    1.8417    3.6590   -2.8452 O   0  0  0  0  0  0  0  0  0  0  0  0
    2.3065    3.0153   -1.7362 C   0  0  0  0  0  0  0  0  0  0  0  0
    1.5639    1.8531   -1.4335 C   0  0  0  0  0  0  0  0  0  0  0  0
    7.1836    6.3589   -1.0960 N   0  0  0  0  0  0  0  0  0  0  0  0
    8.3183    5.8144   -1.7835 C   0  0  1  0  0  0  0  0  0  0  0  0
    9.3546    6.9061   -1.5742 C   0  0  0  0  0  0  0  0  0  0  0  0
    8.8726    7.6928   -0.4764 O   0  0  0  0  0  0  0  0  0  0  0  0
    7.5469    7.4093   -0.2922 C   0  0  0  0  0  0  0  0  0  0  0  0
    6.8538    8.0177    0.5175 O   0  0  0  0  0  0  0  0  0  0  0  0
    8.8372    4.4727   -1.2895 C   0  0  0  0  0  0  0  0  0  0  0  0
    7.9558    3.4800   -1.5524 F   0  0  0  0  0  0  0  0  0  0  0  0
    9.9555    4.1543   -2.0043 F   0  0  0  0  0  0  0  0  0  0  0  0
   -1.0398   -0.3541    1.2570 C   0  0  0  0  0  0  0  0  0  0  0  0
   -1.6562   -1.5158    1.6395 N   0  0  0  0  0  0  0  0  0  0  0  0
   -1.7367    0.6060    0.9334 O   0  0  0  0  0  0  0  0  0  0  0  0
    1.7054    1.3418    2.2009 H   0  0  0  0  0  0  0  0  0  0  0  0
    1.2138    0.1146    3.3117 H   0  0  0  0  0  0  0  0  0  0  0  0
    0.0685    1.3269    2.6977 H   0  0  0  0  0  0  0  0  0  0  0  0
    0.8594   -1.3250    1.5934 H   0  0  0  0  0  0  0  0  0  0  0  0
    0.5937   -0.4936   -0.8044 H   0  0  0  0  0  0  0  0  0  0  0  0
    3.3681    0.7143    1.1875 H   0  0  0  0  0  0  0  0  0  0  0  0
    4.5830    2.7736    0.7758 H   0  0  0  0  0  0  0  0  0  0  0  0
    4.6761    7.6690   -1.8318 H   0  0  0  0  0  0  0  0  0  0  0  0
    2.2919    7.0105   -2.2286 H   0  0  0  0  0  0  0  0  0  0  0  0
    1.7468    5.7959   -1.0474 H   0  0  0  0  0  0  0  0  0  0  0  0
    2.7344    5.1772   -3.9106 H   0  0  0  0  0  0  0  0  0  0  0  0
    1.0486    5.3863   -3.4685 H   0  0  0  0  0  0  0  0  0  0  0  0
    0.6889    1.6271   -2.0404 H   0  0  0  0  0  0  0  0  0  0  0  0
    8.0890    5.7326   -2.8528 H   0  0  0  0  0  0  0  0  0  0  0  0
   10.3589    6.5411   -1.3372 H   0  0  0  0  0  0  0  0  0  0  0  0
    9.4311    7.5685   -2.4447 H   0  0  0  0  0  0  0  0  0  0  0  0
    9.0902    4.4626   -0.2263 H   0  0  0  0  0  0  0  0  0  0  0  0
   -2.6702   -1.5175    1.6447 H   0  0  0  0  0  0  0  0  0  0  0  0
   -1.1764   -2.3607    1.9142 H   0  0  0  0  0  0  0  0  0  0  0  0
  1 30  1  0  0  0  0
  1 31  1  0  0  0  0
  1 32  1  0  0  0  0
  2 27  1  0  0  0  0
  2 33  1  1  0  0  0
  2  3  1  0  0  0  0
  2  1  1  0  0  0  0
  3  4  1  0  0  0  0
  3 34  1  0  0  0  0
  4  5  2  0  0  0  0
  4 17  1  0  0  0  0
  5  6  1  0  0  0  0
  5 35  1  0  0  0  0
  6  7  2  0  0  0  0
  6 36  1  0  0  0  0
  7  8  1  0  0  0  0
  7 16  1  0  0  0  0
  8  9  2  0  0  0  0
  8 12  1  0  0  0  0
  9 10  1  0  0  0  0
 10 11  2  0  0  0  0
 10 18  1  0  0  0  0
 11 12  1  0  0  0  0
 11 37  1  0  0  0  0
 12 13  1  0  0  0  0
 13 14  1  0  0  0  0
 13 38  1  0  0  0  0
 13 39  1  0  0  0  0
 14 15  1  0  0  0  0
 14 40  1  0  0  0  0
 14 41  1  0  0  0  0
 15 16  1  0  0  0  0
 16 17  2  0  0  0  0
 17 42  1  0  0  0  0
 18 22  1  0  0  0  0
 19 18  1  0  0  0  0
 19 20  1  0  0  0  0
 19 24  1  0  0  0  0
 19 43  1  6  0  0  0
 20 21  1  0  0  0  0
 20 44  1  0  0  0  0
 20 45  1  0  0  0  0
 21 22  1  0  0  0  0
 22 23  2  0  0  0  0
 24 25  1  0  0  0  0
 24 26  1  0  0  0  0
 24 46  1  0  0  0  0
 27 28  1  0  0  0  0
 27 29  2  0  0  0  0
 28 47  1  0  0  0  0
 28 48  1  0  0  0  0
M  END
>  <DRUGBANK_ID>
DB15275

>  <COMMON_NAME>
Inavolisib

>  <CAS_NUMBER>
2060571-02-8

>  <UNII>
L4C1UY2NYH

>  <SYNONYMS>
(2S)-2-((2-((4S)-4-(difluoromethyl)-2-oxo-3-oxazolidinyl)-5,6-dihydroimidazo(1,2-D)(1,4)benzoxazepin-9-yl)amino)propanamide; propanamide, 2-((2-((4S)-4-(difluoromethyl)-2-oxo-3-oxazolidinyl)-5,6-dihydroimidazo(1,2-D)(1,4)benzoxazepin-9-yl)amino)-, (2S)-

$$$$
