
 OpenBabel10282417103D

 94 97  0  0  0  0  0  0  0  0999 V2000
    5.5784   -4.3962    3.7419 S   0  0  0  0  0  0  0  0  0  0  0  0
    5.4548   -5.6153    2.9569 O   0  0  0  0  0  0  0  0  0  0  0  0
    6.7975   -4.1600    4.5038 O   0  0  0  0  0  0  0  0  0  0  0  0
    9.2379   -6.6192   -2.3425 O   0  0  0  0  0  0  0  0  0  0  0  0
   10.6924   -4.1573   -5.2155 O   0  0  0  0  0  0  0  0  0  0  0  0
    4.4041   -3.1853   -0.0192 O   0  0  0  0  0  0  0  0  0  0  0  0
    7.6092   -0.6533   -2.0681 O   0  0  0  0  0  0  0  0  0  0  0  0
    6.2994   -3.2924   -1.1667 N   0  0  0  0  0  0  0  0  0  0  0  0
    9.2337   -1.8672   -3.0542 N   0  0  0  0  0  0  0  0  0  0  0  0
   12.1060   -3.3561   -2.5726 N   0  0  0  0  0  0  0  0  0  0  0  0
   12.8431   -3.9495    0.0934 N   0  0  0  0  0  0  0  0  0  0  0  0
    4.2885   -4.4120    4.9426 C   0  0  0  0  0  0  0  0  0  0  0  0
    6.2892   -2.8298    1.4661 C   0  0  2  0  0  0  0  0  0  0  0  0
    5.2740   -2.9506    2.6156 C   0  0  0  0  0  0  0  0  0  0  0  0
    9.6326   -7.0042   -4.3459 C   0  0  0  0  0  0  0  0  0  0  0  0
    9.9089   -5.9718   -3.4594 C   0  0  1  0  0  0  0  0  0  0  0  0
    9.8879   -4.3363   -4.0310 C   0  0  1  0  0  0  0  0  0  0  0  0
   10.2174   -2.9151   -2.8499 C   0  0  2  0  0  0  0  0  0  0  0  0
    5.6373   -3.1259    0.0497 C   0  0  0  0  0  0  0  0  0  0  0  0
    7.6650   -3.0150   -1.5468 C   0  0  2  0  0  0  0  0  0  0  0  0
    8.0757   -1.7608   -2.3183 C   0  0  0  0  0  0  0  0  0  0  0  0
   10.7526   -8.1111   -4.3398 C   0  0  0  0  0  0  0  0  0  0  0  0
   10.3133   -7.3457   -5.5767 C   0  0  0  0  0  0  0  0  0  0  0  0
    7.3316   -3.7674    1.9296 C   0  0  0  0  0  0  0  0  0  0  0  0
   11.3449   -3.2315   -1.0270 C   0  0  0  0  0  0  0  0  0  0  0  0
    8.6537   -4.3626   -2.0435 C   0  0  0  0  0  0  0  0  0  0  0  0
    8.6084   -3.6357    1.3588 C   0  0  0  0  0  0  0  0  0  0  0  0
    4.3112   -3.1231    5.7524 C   0  0  0  0  0  0  0  0  0  0  0  0
    2.9472   -4.5807    4.2554 C   0  0  0  0  0  0  0  0  0  0  0  0
    4.5454   -5.5991    5.8734 C   0  0  0  0  0  0  0  0  0  0  0  0
   10.6834   -4.6224   -1.9039 C   0  0  0  0  0  0  0  0  0  0  0  0
   12.8402   -4.7932   -1.6701 C   0  0  0  0  0  0  0  0  0  0  0  0
    9.1216   -2.0690    1.2401 C   0  0  0  0  0  0  0  0  0  0  0  0
    8.8209   -4.8223    0.8354 C   0  0  0  0  0  0  0  0  0  0  0  0
   11.4641   -5.1376   -0.3244 C   0  0  0  0  0  0  0  0  0  0  0  0
   14.3233   -4.2983   -1.9328 C   0  0  0  0  0  0  0  0  0  0  0  0
   12.4900   -5.5363   -2.9295 C   0  0  0  0  0  0  0  0  0  0  0  0
   13.1501   -2.8854   -1.0629 C   0  0  0  0  0  0  0  0  0  0  0  0
    9.7590   -1.4098    0.2992 C   0  0  0  0  0  0  0  0  0  0  0  0
    9.3564   -4.1053   -0.0655 C   0  0  0  0  0  0  0  0  0  0  0  0
   15.1913   -5.3850   -2.1804 C   0  0  0  0  0  0  0  0  0  0  0  0
   13.3930   -6.5372   -3.3930 C   0  0  0  0  0  0  0  0  0  0  0  0
    9.6429   -2.3978   -0.4950 C   0  0  0  0  0  0  0  0  0  0  0  0
   14.7146   -5.9146   -3.4813 C   0  0  0  0  0  0  0  0  0  0  0  0
    9.2302   -6.4407   -1.3969 H   0  0  0  0  0  0  0  0  0  0  0  0
   10.6832   -3.2160   -5.4549 H   0  0  0  0  0  0  0  0  0  0  0  0
    5.7482   -3.4422   -1.9832 H   0  0  0  0  0  0  0  0  0  0  0  0
    9.6490   -1.0102   -3.3916 H   0  0  0  0  0  0  0  0  0  0  0  0
   11.8787   -2.3731   -2.6414 H   0  0  0  0  0  0  0  0  0  0  0  0
    6.6431   -1.7942    1.4548 H   0  0  0  0  0  0  0  0  0  0  0  0
    4.2790   -3.0731    2.2135 H   0  0  0  0  0  0  0  0  0  0  0  0
    5.3237   -2.0442    3.2207 H   0  0  0  0  0  0  0  0  0  0  0  0
    8.5841   -7.0623   -4.1535 H   0  0  0  0  0  0  0  0  0  0  0  0
   10.8959   -6.2535   -3.5977 H   0  0  0  0  0  0  0  0  0  0  0  0
    8.8829   -4.1061   -4.3609 H   0  0  0  0  0  0  0  0  0  0  0  0
   10.8784   -2.4657   -3.7318 H   0  0  0  0  0  0  0  0  0  0  0  0
    7.7642   -2.6769   -0.5343 H   0  0  0  0  0  0  0  0  0  0  0  0
   11.7731   -7.9907   -3.9675 H   0  0  0  0  0  0  0  0  0  0  0  0
   10.5213   -9.0090   -3.7959 H   0  0  0  0  0  0  0  0  0  0  0  0
    9.6079   -7.8048   -6.2279 H   0  0  0  0  0  0  0  0  0  0  0  0
   10.8924   -6.5257   -5.9971 H   0  0  0  0  0  0  0  0  0  0  0  0
    7.8034   -3.5728    2.8786 H   0  0  0  0  0  0  0  0  0  0  0  0
    6.9984   -4.7973    1.7628 H   0  0  0  0  0  0  0  0  0  0  0  0
   11.6694   -2.2406   -0.4509 H   0  0  0  0  0  0  0  0  0  0  0  0
   11.0847   -3.4097    0.1037 H   0  0  0  0  0  0  0  0  0  0  0  0
    8.0331   -5.0998   -1.4337 H   0  0  0  0  0  0  0  0  0  0  0  0
    8.1395   -4.7133   -2.9404 H   0  0  0  0  0  0  0  0  0  0  0  0
    4.1349   -2.2539    5.1129 H   0  0  0  0  0  0  0  0  0  0  0  0
    3.5315   -3.1454    6.5167 H   0  0  0  0  0  0  0  0  0  0  0  0
    5.2759   -2.9824    6.2529 H   0  0  0  0  0  0  0  0  0  0  0  0
    2.9224   -5.5011    3.6629 H   0  0  0  0  0  0  0  0  0  0  0  0
    2.1481   -4.6253    4.9971 H   0  0  0  0  0  0  0  0  0  0  0  0
    2.7424   -3.7418    3.5855 H   0  0  0  0  0  0  0  0  0  0  0  0
    4.5535   -6.5410    5.3130 H   0  0  0  0  0  0  0  0  0  0  0  0
    5.5167   -5.5066    6.3742 H   0  0  0  0  0  0  0  0  0  0  0  0
    3.7697   -5.6592    6.6386 H   0  0  0  0  0  0  0  0  0  0  0  0
   12.9647   -5.7752   -1.0858 H   0  0  0  0  0  0  0  0  0  0  0  0
    8.4705   -1.3497    1.6449 H   0  0  0  0  0  0  0  0  0  0  0  0
    8.3455   -5.8028    0.5894 H   0  0  0  0  0  0  0  0  0  0  0  0
   11.1110   -5.8186    0.4725 H   0  0  0  0  0  0  0  0  0  0  0  0
   14.2947   -3.5655   -2.7675 H   0  0  0  0  0  0  0  0  0  0  0  0
   14.7717   -3.8890   -0.9970 H   0  0  0  0  0  0  0  0  0  0  0  0
   11.7776   -6.1875   -2.3855 H   0  0  0  0  0  0  0  0  0  0  0  0
   12.2304   -4.9004   -3.8037 H   0  0  0  0  0  0  0  0  0  0  0  0
   13.6834   -2.0418   -1.4321 H   0  0  0  0  0  0  0  0  0  0  0  0
   10.2000   -0.5176   -0.1149 H   0  0  0  0  0  0  0  0  0  0  0  0
    9.6116   -5.0970   -0.5386 H   0  0  0  0  0  0  0  0  0  0  0  0
   16.0959   -4.7922   -2.2233 H   0  0  0  0  0  0  0  0  0  0  0  0
   15.0204   -5.9887   -1.2809 H   0  0  0  0  0  0  0  0  0  0  0  0
   13.0440   -6.7897   -4.3888 H   0  0  0  0  0  0  0  0  0  0  0  0
   13.2549   -7.3046   -2.6289 H   0  0  0  0  0  0  0  0  0  0  0  0
   10.3112   -1.8167   -1.3303 H   0  0  0  0  0  0  0  0  0  0  0  0
   14.6105   -5.1109   -4.2355 H   0  0  0  0  0  0  0  0  0  0  0  0
   15.3613   -6.7108   -3.7457 H   0  0  0  0  0  0  0  0  0  0  0  0
  1  2  2  0  0  0  0
  1  3  2  0  0  0  0
  1 12  1  0  0  0  0
  1 14  1  0  0  0  0
  4 45  1  0  0  0  0
  5 46  1  0  0  0  0
  6 19  2  0  0  0  0
  7 21  2  0  0  0  0
  8 19  1  0  0  0  0
  8 47  1  0  0  0  0
  9 21  1  0  0  0  0
  9 48  1  0  0  0  0
 10 31  1  0  0  0  0
 10 38  1  0  0  0  0
 10 49  1  0  0  0  0
 11 35  1  0  0  0  0
 11 38  2  0  0  0  0
 12 28  1  0  0  0  0
 12 29  1  0  0  0  0
 12 30  1  0  0  0  0
 13 24  1  0  0  0  0
 13 50  1  6  0  0  0
 13 19  1  0  0  0  0
 13 14  1  0  0  0  0
 14 51  1  0  0  0  0
 14 52  1  0  0  0  0
 15 16  1  0  0  0  0
 15 22  1  0  0  0  0
 15 23  1  0  0  0  0
 15 53  1  0  0  0  0
 16  4  1  0  0  0  0
 16 17  1  0  0  0  0
 16 54  1  1  0  0  0
 17  5  1  0  0  0  0
 17 55  1  6  0  0  0
 18 25  1  0  0  0  0
 18 56  1  6  0  0  0
 18 17  1  0  0  0  0
 18  9  1  0  0  0  0
 20 26  1  0  0  0  0
 20 57  1  1  0  0  0
 20 21  1  0  0  0  0
 20  8  1  0  0  0  0
 22 23  1  0  0  0  0
 22 58  1  0  0  0  0
 22 59  1  0  0  0  0
 23 60  1  0  0  0  0
 23 61  1  0  0  0  0
 24 27  1  0  0  0  0
 24 62  1  0  0  0  0
 24 63  1  0  0  0  0
 25 32  1  0  0  0  0
 25 64  1  0  0  0  0
 25 65  1  0  0  0  0
 26 31  1  0  0  0  0
 26 66  1  0  0  0  0
 26 67  1  0  0  0  0
 27 33  2  0  0  0  0
 27 34  1  0  0  0  0
 28 68  1  0  0  0  0
 28 69  1  0  0  0  0
 28 70  1  0  0  0  0
 29 71  1  0  0  0  0
 29 72  1  0  0  0  0
 29 73  1  0  0  0  0
 30 74  1  0  0  0  0
 30 75  1  0  0  0  0
 30 76  1  0  0  0  0
 31 35  2  0  0  0  0
 32 36  1  0  0  0  0
 32 37  1  0  0  0  0
 32 77  1  0  0  0  0
 33 39  1  0  0  0  0
 33 78  1  0  0  0  0
 34 40  2  0  0  0  0
 34 79  1  0  0  0  0
 35 80  1  0  0  0  0
 36 41  1  0  0  0  0
 36 81  1  0  0  0  0
 36 82  1  0  0  0  0
 37 42  1  0  0  0  0
 37 83  1  0  0  0  0
 37 84  1  0  0  0  0
 38 85  1  0  0  0  0
 39 43  2  0  0  0  0
 39 86  1  0  0  0  0
 40 43  1  0  0  0  0
 40 87  1  0  0  0  0
 41 44  1  0  0  0  0
 41 88  1  0  0  0  0
 41 89  1  0  0  0  0
 42 44  1  0  0  0  0
 42 90  1  0  0  0  0
 42 91  1  0  0  0  0
 43 92  1  0  0  0  0
 44 93  1  0  0  0  0
 44 94  1  0  0  0  0
M  END
>  <DRUGBANK_ID>
DB00212

>  <SECONDARY_ACCESSION_NUMBERS>
APRD00163

>  <COMMON_NAME>
Remikiren

>  <CAS_NUMBER>
126222-34-2

>  <UNII>
LC7FBL96A4

>  <SYNONYMS>
Remikiren

$$$$
