756
 OpenBabel10282417113D

 27 28  0  0  0  0  0  0  0  0999 V2000
   -2.6955    1.3152    0.0541 Cl  0  0  0  0  0  0  0  0  0  0  0  0
    2.9929    4.1814    0.4201 Cl  0  0  0  0  0  0  0  0  0  0  0  0
    3.1015   -1.0416   -0.0461 Cl  0  0  0  0  0  0  0  0  0  0  0  0
   -0.9768    5.1863    4.9266 Cl  0  0  0  0  0  0  0  0  0  0  0  0
   -2.1734   -1.8387    0.0222 Cl  0  0  0  0  0  0  0  0  0  0  0  0
    3.9972    3.9451    3.4338 Cl  0  0  0  0  0  0  0  0  0  0  0  0
    2.3596    1.7536   -0.4500 O   0  0  0  0  0  0  0  0  0  0  0  0
   -1.7386    4.2647    2.2033 O   0  0  0  0  0  0  0  0  0  0  0  0
   -0.0881    3.1216    0.1488 C   0  0  0  0  0  0  0  0  0  0  0  0
    0.0329    1.5890    0.0400 C   0  0  0  0  0  0  0  0  0  0  0  0
    0.4714    3.7351    1.4423 C   0  0  0  0  0  0  0  0  0  0  0  0
    1.2922    0.9806   -0.1052 C   0  0  0  0  0  0  0  0  0  0  0  0
   -0.3950    4.1700    2.4641 C   0  0  0  0  0  0  0  0  0  0  0  0
   -1.0706    0.7033    0.0675 C   0  0  0  0  0  0  0  0  0  0  0  0
    1.8547    3.8796    1.7048 C   0  0  0  0  0  0  0  0  0  0  0  0
    1.5014   -0.3964   -0.0275 C   0  0  0  0  0  0  0  0  0  0  0  0
    0.0917    4.5685    3.7216 C   0  0  0  0  0  0  0  0  0  0  0  0
   -0.8661   -0.7003    0.0480 C   0  0  0  0  0  0  0  0  0  0  0  0
    2.3245    4.1024    3.0123 C   0  0  0  0  0  0  0  0  0  0  0  0
    0.4167   -1.2498    0.0414 C   0  0  0  0  0  0  0  0  0  0  0  0
    1.4423    4.4656    4.0193 C   0  0  0  0  0  0  0  0  0  0  0  0
    3.1778    1.3178   -0.1542 H   0  0  0  0  0  0  0  0  0  0  0  0
   -2.1647    4.6956    2.9707 H   0  0  0  0  0  0  0  0  0  0  0  0
    0.3632    3.5950   -0.7305 H   0  0  0  0  0  0  0  0  0  0  0  0
   -1.1422    3.4072    0.0660 H   0  0  0  0  0  0  0  0  0  0  0  0
    0.5733   -2.3224    0.0431 H   0  0  0  0  0  0  0  0  0  0  0  0
    1.8181    4.7222    5.0054 H   0  0  0  0  0  0  0  0  0  0  0  0
  1 14  1  0  0  0  0
  2 15  1  0  0  0  0
  3 16  1  0  0  0  0
  4 17  1  0  0  0  0
  5 18  1  0  0  0  0
  6 19  1  0  0  0  0
  7 12  1  0  0  0  0
  7 22  1  0  0  0  0
  8 13  1  0  0  0  0
  8 23  1  0  0  0  0
  9 10  1  0  0  0  0
  9 11  1  0  0  0  0
  9 24  1  0  0  0  0
  9 25  1  0  0  0  0
 10 12  2  0  0  0  0
 10 14  1  0  0  0  0
 11 13  2  0  0  0  0
 11 15  1  0  0  0  0
 12 16  1  0  0  0  0
 13 17  1  0  0  0  0
 14 18  2  0  0  0  0
 15 19  2  0  0  0  0
 16 20  2  0  0  0  0
 17 21  2  0  0  0  0
 18 20  1  0  0  0  0
 19 21  1  0  0  0  0
 20 26  1  0  0  0  0
 21 27  1  0  0  0  0
M  END
>  <DRUGBANK_ID>
DB00756

>  <SECONDARY_ACCESSION_NUMBERS>
APRD00722

>  <COMMON_NAME>
Hexachlorophene

>  <CAS_NUMBER>
70-30-4

>  <UNII>
IWW5FV6NK2

>  <SYNONYMS>
2,2'-dihydroxy-3,3',5,5',6,6'-hexachlorodiphenylmethane; 2,2'-dihydroxy-3,5,6,3',5',6'-hexachlorodiphenylmethane; 2,2'-methanediylbis(3,4,6-trichlorophenol); 2,2'-methylenebis(3,4,6-trichlorophenol); 2,2',3,3',5,5'-hexachloro-6,6'-dihydroxydiphenylmethane; bis(2-hydroxy-3,5,6-trichlorophenyl)methane; bis(3,5,6-trichloro-2-hydroxyphenyl)methane; hexachloroph√®ne; Hexachlorophene; Hexachlorophenum; Hexaclorofeno

$$$$
