
 OpenBabel10282417133D

 68 69  0  0  1  0  0  0  0  0999 V2000
    0.9279   -0.0207    0.1330 C   0  0  0  0  0  0  0  0  0  0  0  0
    0.4780    1.4252    0.2707 C   0  0  0  0  0  0  0  0  0  0  0  0
    0.9661    2.2511   -0.9198 C   0  0  0  0  0  0  0  0  0  0  0  0
    0.4130    1.6993   -2.2371 C   0  0  0  0  0  0  0  0  0  0  0  0
   -1.1221    1.7004   -2.2215 C   0  0  0  0  0  0  0  0  0  0  0  0
   -1.6643    3.1298   -2.1484 C   0  0  0  0  0  0  0  0  0  0  0  0
   -1.1338    3.9871   -3.2932 C   0  0  0  0  0  0  0  0  0  0  0  0
   -6.9512    6.5298   -9.3857 C   0  0  0  0  0  0  0  0  0  0  0  0
   -1.7167    1.5382   -6.0937 C   0  0  0  0  0  0  0  0  0  0  0  0
   -6.2017    2.8568   -7.1941 C   0  0  0  0  0  0  0  0  0  0  0  0
   -5.8765    5.5391   -8.9300 C   0  0  2  0  0  0  0  0  0  0  0  0
   -3.2642    1.4164   -6.1419 C   0  0  2  0  0  0  0  0  0  0  0  0
   -1.6378    3.4638   -4.6020 C   0  0  0  0  0  0  0  0  0  0  0  0
   -4.7973    6.2510   -8.0344 C   0  0  2  0  0  0  0  0  0  0  0  0
   -3.7717    0.2076   -6.9178 C   0  0  2  0  0  0  0  0  0  0  0  0
   -3.5798    5.3742   -7.6380 C   0  0  1  0  0  0  0  0  0  0  0  0
   -3.1179    4.5162   -8.8261 C   0  0  2  0  0  0  0  0  0  0  0  0
   -5.1541    0.6556   -7.3862 C   0  0  1  0  0  0  0  0  0  0  0  0
   -4.2947    3.7788   -9.5243 C   0  0  2  0  0  0  0  0  0  0  0  0
   -4.9385    2.1559   -7.6702 C   0  0  2  0  0  0  0  0  0  0  0  0
   -7.9712    5.8328  -10.1124 O   0  0  0  0  0  0  0  0  0  0  0  0
   -5.8951    4.1946   -6.8963 O   0  0  0  0  0  0  0  0  0  0  0  0
   -2.4925    4.0876   -5.2383 O   0  0  0  0  0  0  0  0  0  0  0  0
   -5.3810    6.8887   -6.8790 O   0  0  0  0  0  0  0  0  0  0  0  0
   -3.8124   -0.9538   -6.1002 O   0  0  0  0  0  0  0  0  0  0  0  0
   -2.5237    6.1749   -7.0684 O   0  0  0  0  0  0  0  0  0  0  0  0
   -2.1112    3.5700   -8.4833 O   0  0  0  0  0  0  0  0  0  0  0  0
   -5.6568   -0.0819   -8.4885 O   0  0  0  0  0  0  0  0  0  0  0  0
   -1.1801    2.2408   -4.9404 O   0  0  0  0  0  0  0  0  0  0  0  0
   -5.3416    4.6872   -9.9534 O   0  0  0  0  0  0  0  0  0  0  0  0
   -3.8231    2.5272   -6.8514 O   0  0  0  0  0  0  0  0  0  0  0  0
   -4.6551    2.4349   -9.0530 O   0  0  0  0  0  0  0  0  0  0  0  0
   -6.6085    4.9046   -8.4564 H   0  0  0  0  0  0  0  0  0  0  0  0
   -3.6652    1.4468   -5.1201 H   0  0  0  0  0  0  0  0  0  0  0  0
   -4.3766    7.0777   -8.6088 H   0  0  0  0  0  0  0  0  0  0  0  0
   -3.1456   -0.0005   -7.7901 H   0  0  0  0  0  0  0  0  0  0  0  0
   -3.8102    4.7484   -6.7933 H   0  0  0  0  0  0  0  0  0  0  0  0
   -2.6357    5.1953   -9.5324 H   0  0  0  0  0  0  0  0  0  0  0  0
   -5.8682    0.5171   -6.5607 H   0  0  0  0  0  0  0  0  0  0  0  0
   -3.8558    3.4986  -10.4916 H   0  0  0  0  0  0  0  0  0  0  0  0
    0.5349   -0.4926   -0.7737 H   0  0  0  0  0  0  0  0  0  0  0  0
    0.5742   -0.6178    0.9736 H   0  0  0  0  0  0  0  0  0  0  0  0
    2.0199   -0.0653    0.0872 H   0  0  0  0  0  0  0  0  0  0  0  0
   -0.6139    1.4649    0.3581 H   0  0  0  0  0  0  0  0  0  0  0  0
    0.8577    1.8569    1.2001 H   0  0  0  0  0  0  0  0  0  0  0  0
    0.6715    3.2993   -0.7843 H   0  0  0  0  0  0  0  0  0  0  0  0
    2.0604    2.2584   -0.9544 H   0  0  0  0  0  0  0  0  0  0  0  0
    0.8206    2.2793   -3.0717 H   0  0  0  0  0  0  0  0  0  0  0  0
    0.7783    0.6881   -2.4343 H   0  0  0  0  0  0  0  0  0  0  0  0
   -1.5083    1.1696   -3.0929 H   0  0  0  0  0  0  0  0  0  0  0  0
   -1.5287    1.1065   -1.3996 H   0  0  0  0  0  0  0  0  0  0  0  0
   -2.7598    3.1094   -2.1595 H   0  0  0  0  0  0  0  0  0  0  0  0
   -1.3902    3.5936   -1.1929 H   0  0  0  0  0  0  0  0  0  0  0  0
   -1.5065    5.0107   -3.1652 H   0  0  0  0  0  0  0  0  0  0  0  0
   -0.0450    4.0878   -3.3148 H   0  0  0  0  0  0  0  0  0  0  0  0
   -7.4386    6.9523   -8.4942 H   0  0  0  0  0  0  0  0  0  0  0  0
   -6.5521    7.3257  -10.0067 H   0  0  0  0  0  0  0  0  0  0  0  0
   -1.2785    2.0332   -6.9580 H   0  0  0  0  0  0  0  0  0  0  0  0
   -1.2803    0.5355   -6.0769 H   0  0  0  0  0  0  0  0  0  0  0  0
   -6.9775    2.7981   -7.9692 H   0  0  0  0  0  0  0  0  0  0  0  0
   -6.6010    2.5254   -6.2410 H   0  0  0  0  0  0  0  0  0  0  0  0
   -7.5023    5.1924  -10.6795 H   0  0  0  0  0  0  0  0  0  0  0  0
   -5.5038    4.2743   -6.0199 H   0  0  0  0  0  0  0  0  0  0  0  0
   -5.7051    6.2005   -6.2710 H   0  0  0  0  0  0  0  0  0  0  0  0
   -4.4328   -0.8040   -5.3643 H   0  0  0  0  0  0  0  0  0  0  0  0
   -2.0780    6.6767   -7.7611 H   0  0  0  0  0  0  0  0  0  0  0  0
   -2.5849    3.0228   -7.8293 H   0  0  0  0  0  0  0  0  0  0  0  0
   -5.1163    0.1679   -9.2618 H   0  0  0  0  0  0  0  0  0  0  0  0
  1 41  1  0  0  0  0
  1 42  1  0  0  0  0
  1 43  1  0  0  0  0
  2  1  1  0  0  0  0
  2 44  1  0  0  0  0
  2 45  1  0  0  0  0
  3  2  1  0  0  0  0
  3 46  1  0  0  0  0
  3 47  1  0  0  0  0
  4  3  1  0  0  0  0
  4 48  1  0  0  0  0
  4 49  1  0  0  0  0
  5  4  1  0  0  0  0
  5 50  1  0  0  0  0
  5 51  1  0  0  0  0
  6  5  1  0  0  0  0
  6 52  1  0  0  0  0
  6 53  1  0  0  0  0
  7  6  1  0  0  0  0
  7 54  1  0  0  0  0
  7 55  1  0  0  0  0
  8 56  1  0  0  0  0
  8 57  1  0  0  0  0
  9 58  1  0  0  0  0
  9 59  1  0  0  0  0
 10 60  1  0  0  0  0
 10 61  1  0  0  0  0
 11  8  1  0  0  0  0
 11 33  1  1  0  0  0
 12  9  1  0  0  0  0
 12 34  1  1  0  0  0
 13  7  1  0  0  0  0
 14 11  1  0  0  0  0
 14 24  1  0  0  0  0
 14 35  1  6  0  0  0
 15 12  1  0  0  0  0
 15 25  1  0  0  0  0
 15 36  1  6  0  0  0
 16 14  1  0  0  0  0
 16 26  1  0  0  0  0
 16 37  1  1  0  0  0
 17 16  1  0  0  0  0
 17 27  1  0  0  0  0
 17 38  1  6  0  0  0
 18 15  1  0  0  0  0
 18 28  1  0  0  0  0
 18 39  1  1  0  0  0
 19 17  1  0  0  0  0
 19 32  1  0  0  0  0
 19 40  1  6  0  0  0
 20 10  1  0  0  0  0
 20 18  1  0  0  0  0
 20 32  1  6  0  0  0
 21  8  1  0  0  0  0
 21 62  1  0  0  0  0
 22 10  1  0  0  0  0
 22 63  1  0  0  0  0
 23 13  2  0  0  0  0
 24 64  1  0  0  0  0
 25 65  1  0  0  0  0
 26 66  1  0  0  0  0
 27 67  1  0  0  0  0
 28 68  1  0  0  0  0
 29  9  1  0  0  0  0
 29 13  1  0  0  0  0
 30 11  1  0  0  0  0
 30 19  1  0  0  0  0
 31 12  1  0  0  0  0
 31 20  1  0  0  0  0
M  END
>  <DRUGBANK_ID>
DB03190

>  <SECONDARY_ACCESSION_NUMBERS>
EXPT02451

>  <COMMON_NAME>
6-o-Capryloylsucrose

>  <CAS_NUMBER>
136152-82-4

>  <UNII>
NA2JF794IZ

>  <SYNONYMS>
alpha-D-Glucopyranoside, 6-O-(1-oxooctyl)-beta-D-fructofuranosyl

$$$$
