
 OpenBabel10282417193D

 43 46  0  0  1  0  0  0  0  0999 V2000
   -1.2965    1.3476   -0.1596 C   0  0  0  0  0  0  0  0  0  0  0  0
    0.1222    1.4473   -0.2807 C   0  0  0  0  0  0  0  0  0  0  0  0
    0.9438    0.3183   -0.4249 C   0  0  0  0  0  0  0  0  0  0  0  0
    0.3674   -0.9164   -0.4728 C   0  0  0  0  0  0  0  0  0  0  0  0
   -1.0894   -0.9363   -0.5642 C   0  0  0  0  0  0  0  0  0  0  0  0
   -1.9288    0.1152   -0.2737 C   0  0  0  0  0  0  0  0  0  0  0  0
   -3.3267   -0.0704   -0.0538 N   0  0  0  0  0  0  0  0  0  0  0  0
   -4.1122   -1.2280    0.0226 C   0  0  0  0  0  0  0  0  0  0  0  0
   -5.3719   -1.0899   -0.0014 O   0  0  0  0  0  0  0  0  0  0  0  0
   -3.5711   -2.6195    0.1790 C   0  0  0  0  0  0  0  0  0  0  0  0
   -2.6202   -2.8889    1.1645 C   0  0  0  0  0  0  0  0  0  0  0  0
   -1.8840   -4.0768    1.0793 C   0  0  0  0  0  0  0  0  0  0  0  0
   -2.1913   -4.9996    0.0941 C   0  0  0  0  0  0  0  0  0  0  0  0
   -3.2127   -4.7022   -0.7913 C   0  0  0  0  0  0  0  0  0  0  0  0
   -3.9004   -3.5268   -0.7870 N   0  0  0  0  0  0  0  0  0  0  0  0
   -1.4653   -6.1172   -0.0339 F   0  0  0  0  0  0  0  0  0  0  0  0
    1.0061   -2.2290    0.0831 C   0  0  2  0  0  0  0  0  0  0  0  0
    0.5164   -3.0558   -1.1729 C   0  0  0  0  0  0  0  0  0  0  0  0
    1.0184   -4.3650   -1.2885 O   0  0  0  0  0  0  0  0  0  0  0  0
    1.8112   -4.6390   -0.1572 C   0  0  0  0  0  0  0  0  0  0  0  0
    1.9490   -3.3446    0.6987 C   0  0  1  0  0  0  0  0  0  0  0  0
    2.5033   -3.1785    2.1429 C   0  0  0  0  0  0  0  0  0  0  0  0
    2.4213   -1.5314    2.8752 S   0  0  0  0  0  0  0  0  0  0  0  0
    0.8979   -1.0963    2.2078 C   0  0  0  0  0  0  0  0  0  0  0  0
    0.2667   -1.9051    1.4027 N   0  0  0  0  0  0  0  0  0  0  0  0
    0.4680    0.0959    2.7406 N   0  0  0  0  0  0  0  0  0  0  0  0
    2.2654    0.4082   -0.2693 F   0  0  0  0  0  0  0  0  0  0  0  0
   -1.8639    2.2440    0.0741 H   0  0  0  0  0  0  0  0  0  0  0  0
    0.6177    2.3992   -0.1190 H   0  0  0  0  0  0  0  0  0  0  0  0
   -1.5789   -1.8802   -0.7021 H   0  0  0  0  0  0  0  0  0  0  0  0
   -3.8939    0.7680    0.0085 H   0  0  0  0  0  0  0  0  0  0  0  0
   -2.3197   -2.1160    1.8649 H   0  0  0  0  0  0  0  0  0  0  0  0
   -1.0034   -4.2223    1.6988 H   0  0  0  0  0  0  0  0  0  0  0  0
   -3.4765   -5.4097   -1.5723 H   0  0  0  0  0  0  0  0  0  0  0  0
   -0.5446   -3.2247   -1.2145 H   0  0  0  0  0  0  0  0  0  0  0  0
    0.7913   -2.5527   -2.1238 H   0  0  0  0  0  0  0  0  0  0  0  0
    1.4603   -5.5677    0.2923 H   0  0  0  0  0  0  0  0  0  0  0  0
    2.7815   -4.8558   -0.6364 H   0  0  0  0  0  0  0  0  0  0  0  0
    2.9627   -3.3462    0.3692 H   0  0  0  0  0  0  0  0  0  0  0  0
    3.5970   -3.2005    2.0570 H   0  0  0  0  0  0  0  0  0  0  0  0
    2.2160   -3.9405    2.8693 H   0  0  0  0  0  0  0  0  0  0  0  0
   -0.0000    0.7109    2.0834 H   0  0  0  0  0  0  0  0  0  0  0  0
    1.2054    0.6153    3.2203 H   0  0  0  0  0  0  0  0  0  0  0  0
  1  2  2  0  0  0  0
  1  6  1  0  0  0  0
  1 28  1  0  0  0  0
  2  3  1  0  0  0  0
  2 29  1  0  0  0  0
  3  4  2  0  0  0  0
  3 27  1  0  0  0  0
  4  5  1  0  0  0  0
  5  6  2  0  0  0  0
  5 30  1  0  0  0  0
  6  7  1  0  0  0  0
  7  8  1  0  0  0  0
  7 31  1  0  0  0  0
  8  9  2  0  0  0  0
  8 10  1  0  0  0  0
 10 11  2  0  0  0  0
 10 15  1  0  0  0  0
 11 12  1  0  0  0  0
 11 32  1  0  0  0  0
 12 13  2  0  0  0  0
 12 33  1  0  0  0  0
 13 14  1  0  0  0  0
 13 16  1  0  0  0  0
 14 15  2  0  0  0  0
 14 34  1  0  0  0  0
 17  4  1  1  0  0  0
 17 18  1  0  0  0  0
 17 21  1  0  0  0  0
 17 25  1  0  0  0  0
 18 19  1  0  0  0  0
 18 35  1  0  0  0  0
 18 36  1  0  0  0  0
 19 20  1  0  0  0  0
 20 37  1  0  0  0  0
 20 38  1  0  0  0  0
 21 20  1  0  0  0  0
 21 22  1  0  0  0  0
 21 39  1  1  0  0  0
 22 23  1  0  0  0  0
 22 40  1  0  0  0  0
 22 41  1  0  0  0  0
 23 24  1  0  0  0  0
 24 25  2  0  0  0  0
 24 26  1  0  0  0  0
 26 42  1  0  0  0  0
 26 43  1  0  0  0  0
M  END
>  <DRUGBANK_ID>
DB12547

>  <COMMON_NAME>
LY-2886721

>  <CAS_NUMBER>
1262036-50-9

>  <UNII>
2CQ62IWB67

$$$$
