
 OpenBabel10282417223D

 48 51  0  0  1  0  0  0  0  0999 V2000
   -1.1693   -0.1039   -1.1777 C   0  0  0  0  0  0  0  0  0  0  0  0
    0.3184    0.2078   -1.2394 C   0  0  1  0  0  0  0  0  0  0  0  0
    1.0904   -0.5968   -2.0966 O   0  0  0  0  0  0  0  0  0  0  0  0
    1.7858    0.2159   -3.0127 C   0  0  0  0  0  0  0  0  0  0  0  0
    1.6041    1.7732   -2.7892 C   0  0  2  0  0  0  0  0  0  0  0  0
    0.7279    2.7900   -3.5239 N   0  0  0  0  0  0  0  0  0  0  0  0
    0.9323    4.0174   -3.1243 C   0  0  0  0  0  0  0  0  0  0  0  0
    1.3592    5.1150   -3.8356 N   0  0  0  0  0  0  0  0  0  0  0  0
    0.4988    4.4893   -1.5193 S   0  0  0  0  0  0  0  0  0  0  0  0
   -0.0828    2.8725   -0.9796 C   0  0  0  0  0  0  0  0  0  0  0  0
    0.7850    1.6750   -1.4365 C   0  0  2  0  0  0  0  0  0  0  0  0
    2.7647    2.0969   -3.7736 C   0  0  0  0  0  0  0  0  0  0  0  0
    2.4537    1.7445   -5.1518 C   0  0  0  0  0  0  0  0  0  0  0  0
    2.8872    2.3646   -6.2957 C   0  0  0  0  0  0  0  0  0  0  0  0
    2.3500    2.0534   -7.5814 N   0  0  0  0  0  0  0  0  0  0  0  0
    1.3277    1.1905   -7.9817 C   0  0  0  0  0  0  0  0  0  0  0  0
    1.2362    0.8980   -9.2133 O   0  0  0  0  0  0  0  0  0  0  0  0
    0.3725    0.4975   -7.0871 C   0  0  0  0  0  0  0  0  0  0  0  0
   -0.3166    1.2077   -6.1493 N   0  0  0  0  0  0  0  0  0  0  0  0
   -0.8692    0.4672   -5.1432 C   0  0  0  0  0  0  0  0  0  0  0  0
   -0.8390   -0.9273   -5.1323 C   0  0  0  0  0  0  0  0  0  0  0  0
   -0.2208   -1.6234   -6.1238 N   0  0  0  0  0  0  0  0  0  0  0  0
    0.3850   -0.8883   -7.0831 C   0  0  0  0  0  0  0  0  0  0  0  0
   -1.3971   -1.7316   -4.0019 C   0  0  0  0  0  0  0  0  0  0  0  0
   -0.5076   -1.9384   -3.0065 F   0  0  0  0  0  0  0  0  0  0  0  0
   -2.5110   -1.1759   -3.4513 F   0  0  0  0  0  0  0  0  0  0  0  0
    3.8538    3.3359   -6.0773 C   0  0  0  0  0  0  0  0  0  0  0  0
    4.2854    3.6470   -4.7486 C   0  0  0  0  0  0  0  0  0  0  0  0
    3.7462    3.0258   -3.6075 C   0  0  0  0  0  0  0  0  0  0  0  0
    3.9963    3.5003   -2.3851 F   0  0  0  0  0  0  0  0  0  0  0  0
   -1.7387    0.5983   -1.7853 H   0  0  0  0  0  0  0  0  0  0  0  0
   -1.4913   -0.0103   -0.1387 H   0  0  0  0  0  0  0  0  0  0  0  0
   -1.4794   -1.1195   -1.4445 H   0  0  0  0  0  0  0  0  0  0  0  0
    0.6934   -0.1453   -0.2736 H   0  0  0  0  0  0  0  0  0  0  0  0
    1.4585   -0.1606   -3.9684 H   0  0  0  0  0  0  0  0  0  0  0  0
    2.8544   -0.0948   -2.9407 H   0  0  0  0  0  0  0  0  0  0  0  0
    2.1207    4.9542   -4.4862 H   0  0  0  0  0  0  0  0  0  0  0  0
    1.5441    5.9420   -3.2674 H   0  0  0  0  0  0  0  0  0  0  0  0
    0.1254    2.9830    0.0839 H   0  0  0  0  0  0  0  0  0  0  0  0
   -1.1722    2.8006   -1.0886 H   0  0  0  0  0  0  0  0  0  0  0  0
    1.4040    1.6456   -0.5610 H   0  0  0  0  0  0  0  0  0  0  0  0
    1.6678    1.0392   -5.2901 H   0  0  0  0  0  0  0  0  0  0  0  0
    2.8243    2.4643   -8.3763 H   0  0  0  0  0  0  0  0  0  0  0  0
   -1.2243    1.0476   -4.2909 H   0  0  0  0  0  0  0  0  0  0  0  0
    0.9388   -1.4645   -7.8140 H   0  0  0  0  0  0  0  0  0  0  0  0
   -1.6507   -2.7381   -4.3233 H   0  0  0  0  0  0  0  0  0  0  0  0
    4.2593    3.9081   -6.9064 H   0  0  0  0  0  0  0  0  0  0  0  0
    4.9702    4.4728   -4.5833 H   0  0  0  0  0  0  0  0  0  0  0  0
  1 31  1  0  0  0  0
  1 32  1  0  0  0  0
  1 33  1  0  0  0  0
  2  3  1  0  0  0  0
  2 34  1  1  0  0  0
  2  1  1  0  0  0  0
  3  4  1  0  0  0  0
  4 35  1  0  0  0  0
  4 36  1  0  0  0  0
  5  4  1  0  0  0  0
  5  6  1  0  0  0  0
  5 12  1  6  0  0  0
  6  7  2  0  0  0  0
  7  8  1  0  0  0  0
  7  9  1  0  0  0  0
  8 37  1  0  0  0  0
  8 38  1  0  0  0  0
  9 10  1  0  0  0  0
 10 39  1  0  0  0  0
 10 40  1  0  0  0  0
 11 10  1  0  0  0  0
 11  2  1  0  0  0  0
 11  5  1  0  0  0  0
 11 41  1  6  0  0  0
 12 13  2  0  0  0  0
 12 29  1  0  0  0  0
 13 14  1  0  0  0  0
 13 42  1  0  0  0  0
 14 15  1  0  0  0  0
 14 27  2  0  0  0  0
 15 16  1  0  0  0  0
 15 43  1  0  0  0  0
 16 17  2  0  0  0  0
 16 18  1  0  0  0  0
 18 19  2  0  0  0  0
 18 23  1  0  0  0  0
 19 20  1  0  0  0  0
 20 21  2  0  0  0  0
 20 44  1  0  0  0  0
 21 22  1  0  0  0  0
 21 24  1  0  0  0  0
 22 23  2  0  0  0  0
 23 45  1  0  0  0  0
 24 25  1  0  0  0  0
 24 26  1  0  0  0  0
 24 46  1  0  0  0  0
 27 28  1  0  0  0  0
 27 47  1  0  0  0  0
 28 29  2  0  0  0  0
 28 48  1  0  0  0  0
 29 30  1  0  0  0  0
M  END
>  <DRUGBANK_ID>
DB15391

>  <COMMON_NAME>
Elenbecestat

>  <CAS_NUMBER>
1388651-30-6

>  <UNII>
RXJ96XL94H

>  <SYNONYMS>
Elenbecestat

$$$$
