
 OpenBabel10282417153D

 66 68  0  0  1  0  0  0  0  0999 V2000
    0.3945    2.0610   -2.3492 O   0  0  0  0  0  0  0  0  0  0  0  0
   -3.9255    2.4685   -0.0070 O   0  0  0  0  0  0  0  0  0  0  0  0
   -0.7414    1.6273    1.7897 O   0  0  0  0  0  0  0  0  0  0  0  0
   -2.4819    4.4996   -0.9802 O   0  0  0  0  0  0  0  0  0  0  0  0
   -3.2668    6.3446   -2.2205 O   0  0  0  0  0  0  0  0  0  0  0  0
   -1.1897    6.0529    2.9594 O   0  0  0  0  0  0  0  0  0  0  0  0
   -3.5164    6.5760    0.0444 N   0  0  0  0  0  0  0  0  0  0  0  0
   -1.6977    8.0405    2.1934 N   0  0  0  0  0  0  0  0  0  0  0  0
   -1.3131    2.2300   -0.3165 C   0  0  1  0  0  0  0  0  0  0  0  0
   -2.7654    2.4847    0.8240 C   0  0  2  0  0  0  0  0  0  0  0  0
   -0.5882    1.4327   -1.5435 C   0  0  2  0  0  0  0  0  0  0  0  0
    1.2380    1.1687   -1.6500 C   0  0  1  0  0  0  0  0  0  0  0  0
   -0.3252    2.8115    0.5742 C   0  0  1  0  0  0  0  0  0  0  0  0
   -4.5911    2.4846    1.1780 C   0  0  0  0  0  0  0  0  0  0  0  0
   -2.2810    3.7584    1.7516 C   0  0  0  0  0  0  0  0  0  0  0  0
   -1.0958    4.1501   -0.3425 C   0  0  1  0  0  0  0  0  0  0  0  0
   -1.2382    4.8692    0.8613 C   0  0  0  0  0  0  0  0  0  0  0  0
   -1.3114    0.2497   -1.9910 C   0  0  0  0  0  0  0  0  0  0  0  0
    1.9782    0.0404   -2.4817 C   0  0  0  0  0  0  0  0  0  0  0  0
    3.3469    0.3157   -3.1821 C   0  0  0  0  0  0  0  0  0  0  0  0
   -0.8502    0.2244    1.2952 C   0  0  0  0  0  0  0  0  0  0  0  0
   -3.0567    5.8183   -1.0798 C   0  0  0  0  0  0  0  0  0  0  0  0
    4.5582   -0.2597   -2.9308 C   0  0  0  0  0  0  0  0  0  0  0  0
    5.8312    0.0843   -3.6981 C   0  0  0  0  0  0  0  0  0  0  0  0
    4.7649   -1.2846   -1.8437 C   0  0  0  0  0  0  0  0  0  0  0  0
   -3.3420    6.1994    1.4654 C   0  0  2  0  0  0  0  0  0  0  0  0
   -4.4269    6.0469    2.5431 C   0  0  0  0  0  0  0  0  0  0  0  0
   -1.9482    6.7155    2.2430 C   0  0  0  0  0  0  0  0  0  0  0  0
   -3.8696    6.3550    3.9447 C   0  0  0  0  0  0  0  0  0  0  0  0
   -5.5990    6.8164    2.0551 C   0  0  0  0  0  0  0  0  0  0  0  0
   -0.6372    1.5088   -0.0038 H   0  0  0  0  0  0  0  0  0  0  0  0
   -4.0298    7.4152   -0.1827 H   0  0  0  0  0  0  0  0  0  0  0  0
   -2.5266    8.6054    2.2505 H   0  0  0  0  0  0  0  0  0  0  0  0
   -0.9265    8.2901    2.8082 H   0  0  0  0  0  0  0  0  0  0  0  0
    1.9643    1.6185   -0.9716 H   0  0  0  0  0  0  0  0  0  0  0  0
   -0.1502    3.3484    1.5239 H   0  0  0  0  0  0  0  0  0  0  0  0
   -5.2949    3.3316    1.3071 H   0  0  0  0  0  0  0  0  0  0  0  0
   -4.9165    1.7485    1.9278 H   0  0  0  0  0  0  0  0  0  0  0  0
   -3.0497    4.1542    2.4219 H   0  0  0  0  0  0  0  0  0  0  0  0
   -1.7669    3.3293    2.6159 H   0  0  0  0  0  0  0  0  0  0  0  0
   -0.3780    4.3684   -1.1305 H   0  0  0  0  0  0  0  0  0  0  0  0
   -1.4916    5.8382    0.4447 H   0  0  0  0  0  0  0  0  0  0  0  0
   -0.2373    5.0795    1.2410 H   0  0  0  0  0  0  0  0  0  0  0  0
   -1.2925    0.1973   -3.0727 H   0  0  0  0  0  0  0  0  0  0  0  0
   -0.8407   -0.6348   -1.5463 H   0  0  0  0  0  0  0  0  0  0  0  0
   -2.3237    0.3398   -1.6027 H   0  0  0  0  0  0  0  0  0  0  0  0
    2.1790   -0.7770   -1.7742 H   0  0  0  0  0  0  0  0  0  0  0  0
    1.3110   -0.3985   -3.2328 H   0  0  0  0  0  0  0  0  0  0  0  0
    3.2992    0.9882   -4.0405 H   0  0  0  0  0  0  0  0  0  0  0  0
   -1.8288    0.0832    0.7970 H   0  0  0  0  0  0  0  0  0  0  0  0
   -0.0347    0.0280    0.5805 H   0  0  0  0  0  0  0  0  0  0  0  0
   -0.7329   -0.5214    2.0628 H   0  0  0  0  0  0  0  0  0  0  0  0
    6.5790    0.5214   -3.0223 H   0  0  0  0  0  0  0  0  0  0  0  0
    6.2913   -0.8040   -4.1534 H   0  0  0  0  0  0  0  0  0  0  0  0
    5.6581    0.8079   -4.5003 H   0  0  0  0  0  0  0  0  0  0  0  0
    4.4583   -0.8700   -0.8800 H   0  0  0  0  0  0  0  0  0  0  0  0
    4.1876   -2.1910   -2.0531 H   0  0  0  0  0  0  0  0  0  0  0  0
    5.8147   -1.5905   -1.7443 H   0  0  0  0  0  0  0  0  0  0  0  0
   -3.4431    5.1939    1.1158 H   0  0  0  0  0  0  0  0  0  0  0  0
   -4.7794    5.0051    2.6308 H   0  0  0  0  0  0  0  0  0  0  0  0
   -3.4609    7.3674    3.9856 H   0  0  0  0  0  0  0  0  0  0  0  0
   -4.6043    6.2509    4.7346 H   0  0  0  0  0  0  0  0  0  0  0  0
   -3.0547    5.6580    4.2138 H   0  0  0  0  0  0  0  0  0  0  0  0
   -5.9434    6.3377    1.1265 H   0  0  0  0  0  0  0  0  0  0  0  0
   -6.4002    6.7873    2.7844 H   0  0  0  0  0  0  0  0  0  0  0  0
   -5.2748    7.8327    1.8342 H   0  0  0  0  0  0  0  0  0  0  0  0
  1 11  1  0  0  0  0
  1 12  1  0  0  0  0
  2 14  1  0  0  0  0
  3 21  1  0  0  0  0
  4 22  1  0  0  0  0
  5 22  2  0  0  0  0
  6 28  2  0  0  0  0
  7 22  1  0  0  0  0
  7 32  1  0  0  0  0
  8 28  1  0  0  0  0
  8 33  1  0  0  0  0
  8 34  1  0  0  0  0
  9 10  1  0  0  0  0
  9 13  1  0  0  0  0
  9 11  1  0  0  0  0
  9 31  1  1  0  0  0
 10  2  1  6  0  0  0
 10 14  1  0  0  0  0
 10 15  1  0  0  0  0
 11 12  1  0  0  0  0
 11 18  1  6  0  0  0
 12 19  1  0  0  0  0
 12 35  1  1  0  0  0
 13 16  1  0  0  0  0
 13 36  1  6  0  0  0
 13  3  1  0  0  0  0
 14 37  1  0  0  0  0
 14 38  1  0  0  0  0
 15 17  1  0  0  0  0
 15 39  1  0  0  0  0
 15 40  1  0  0  0  0
 16 17  1  0  0  0  0
 16  4  1  0  0  0  0
 16 41  1  1  0  0  0
 17 42  1  0  0  0  0
 17 43  1  0  0  0  0
 18 44  1  0  0  0  0
 18 45  1  0  0  0  0
 18 46  1  0  0  0  0
 19 20  1  0  0  0  0
 19 47  1  0  0  0  0
 19 48  1  0  0  0  0
 20 23  2  0  0  0  0
 20 49  1  0  0  0  0
 21 50  1  0  0  0  0
 21 51  1  0  0  0  0
 21 52  1  0  0  0  0
 23 24  1  0  0  0  0
 23 25  1  0  0  0  0
 24 53  1  0  0  0  0
 24 54  1  0  0  0  0
 24 55  1  0  0  0  0
 25 56  1  0  0  0  0
 25 57  1  0  0  0  0
 25 58  1  0  0  0  0
 26 28  1  0  0  0  0
 26 59  1  6  0  0  0
 26 27  1  0  0  0  0
 26  7  1  0  0  0  0
 27 29  1  0  0  0  0
 27 30  1  0  0  0  0
 27 60  1  0  0  0  0
 29 61  1  0  0  0  0
 29 62  1  0  0  0  0
 29 63  1  0  0  0  0
 30 64  1  0  0  0  0
 30 65  1  0  0  0  0
 30 66  1  0  0  0  0
M  END
>  <DRUGBANK_ID>
DB05864

>  <COMMON_NAME>
PPI-2458

>  <UNII>
NA0Y2SRR29

$$$$
