979
 OpenBabel10282417113D

 46 47  0  0  1  0  0  0  0  0999 V2000
   -1.4993    0.1336    0.9113 O   0  0  0  0  0  0  0  0  0  0  0  0
   -1.8504   -0.4799   -4.1366 O   0  0  0  0  0  0  0  0  0  0  0  0
   -0.6226    1.3660   -3.6654 O   0  0  0  0  0  0  0  0  0  0  0  0
   -1.4794   -2.2496   -1.5953 N   0  0  0  0  0  0  0  0  0  0  0  0
   -0.6967    0.2250   -0.2857 C   0  0  0  0  0  0  0  0  0  0  0  0
    0.5495   -0.8979   -0.0852 C   0  0  0  0  0  0  0  0  0  0  0  0
    0.2626    1.4030   -0.1972 C   0  0  0  0  0  0  0  0  0  0  0  0
    1.5568   -0.4625    0.8950 C   0  0  0  0  0  0  0  0  0  0  0  0
    1.4332    1.0240    0.7443 C   0  0  0  0  0  0  0  0  0  0  0  0
   -1.8494    0.4222   -1.6623 C   0  0  3  0  0  0  0  0  0  0  0  0
   -2.7348    1.6393   -1.4791 C   0  0  0  0  0  0  0  0  0  0  0  0
   -1.3915    0.5362   -3.2603 C   0  0  0  0  0  0  0  0  0  0  0  0
   -2.1295    2.8897   -1.5733 C   0  0  0  0  0  0  0  0  0  0  0  0
   -4.1325    1.5253   -1.4253 C   0  0  0  0  0  0  0  0  0  0  0  0
   -2.4946   -1.8425   -3.8674 C   0  0  0  0  0  0  0  0  0  0  0  0
   -2.8866    4.0353   -1.5521 C   0  0  0  0  0  0  0  0  0  0  0  0
   -4.9002    2.6781   -1.5035 C   0  0  0  0  0  0  0  0  0  0  0  0
   -4.2726    3.9276   -1.5229 C   0  0  0  0  0  0  0  0  0  0  0  0
   -1.9735   -2.9255   -2.7738 C   0  0  0  0  0  0  0  0  0  0  0  0
   -1.4583   -3.0192   -0.3450 C   0  0  0  0  0  0  0  0  0  0  0  0
   -0.2455   -1.7025   -2.1708 C   0  0  0  0  0  0  0  0  0  0  0  0
   -2.2299   -0.4844    0.7204 H   0  0  0  0  0  0  0  0  0  0  0  0
    0.3156   -1.9005    0.2333 H   0  0  0  0  0  0  0  0  0  0  0  0
    1.2568   -0.9846   -0.9272 H   0  0  0  0  0  0  0  0  0  0  0  0
    0.6555    1.5684   -1.2079 H   0  0  0  0  0  0  0  0  0  0  0  0
   -0.1976    2.3161    0.1761 H   0  0  0  0  0  0  0  0  0  0  0  0
    1.3193   -0.9008    1.8652 H   0  0  0  0  0  0  0  0  0  0  0  0
    2.5324   -0.8734    0.5734 H   0  0  0  0  0  0  0  0  0  0  0  0
    1.2603    1.4232    1.7383 H   0  0  0  0  0  0  0  0  0  0  0  0
    2.3593    1.4159    0.3183 H   0  0  0  0  0  0  0  0  0  0  0  0
   -2.6015   -0.3711   -1.6104 H   0  0  0  0  0  0  0  0  0  0  0  0
   -1.0576    2.9691   -1.7265 H   0  0  0  0  0  0  0  0  0  0  0  0
   -4.6242    0.5540   -1.3761 H   0  0  0  0  0  0  0  0  0  0  0  0
   -3.5154   -1.5697   -3.6429 H   0  0  0  0  0  0  0  0  0  0  0  0
   -2.4143   -2.3798   -4.8228 H   0  0  0  0  0  0  0  0  0  0  0  0
   -2.3734    4.9883   -1.6047 H   0  0  0  0  0  0  0  0  0  0  0  0
   -5.9821    2.6042   -1.5717 H   0  0  0  0  0  0  0  0  0  0  0  0
   -4.8661    4.8325   -1.5332 H   0  0  0  0  0  0  0  0  0  0  0  0
   -2.7434   -3.6596   -2.5419 H   0  0  0  0  0  0  0  0  0  0  0  0
   -1.1128   -3.5104   -3.1502 H   0  0  0  0  0  0  0  0  0  0  0  0
   -0.5947   -3.6843   -0.2968 H   0  0  0  0  0  0  0  0  0  0  0  0
   -1.4421   -2.3779    0.5568 H   0  0  0  0  0  0  0  0  0  0  0  0
   -2.3719   -3.5906   -0.1496 H   0  0  0  0  0  0  0  0  0  0  0  0
    0.5438   -2.2870   -2.6118 H   0  0  0  0  0  0  0  0  0  0  0  0
   -0.6156   -1.3418   -3.0635 H   0  0  0  0  0  0  0  0  0  0  0  0
    0.0756   -0.6661   -2.0397 H   0  0  0  0  0  0  0  0  0  0  0  0
  1  5  1  0  0  0  0
  1 22  1  0  0  0  0
  2 12  1  0  0  0  0
  2 15  1  0  0  0  0
  3 12  2  0  0  0  0
  4 19  1  0  0  0  0
  4 20  1  0  0  0  0
  4 21  1  0  0  0  0
  5  6  1  0  0  0  0
  5  7  1  0  0  0  0
  5 10  1  0  0  0  0
  6  8  1  0  0  0  0
  6 23  1  0  0  0  0
  6 24  1  0  0  0  0
  7  9  1  0  0  0  0
  7 25  1  0  0  0  0
  7 26  1  0  0  0  0
  8  9  1  0  0  0  0
  8 27  1  0  0  0  0
  8 28  1  0  0  0  0
  9 29  1  0  0  0  0
  9 30  1  0  0  0  0
 10 11  1  0  0  0  0
 10 12  1  0  0  0  0
 10 31  1  0  0  0  0
 11 13  2  0  0  0  0
 11 14  1  0  0  0  0
 13 16  1  0  0  0  0
 13 32  1  0  0  0  0
 14 17  2  0  0  0  0
 14 33  1  0  0  0  0
 15 19  1  0  0  0  0
 15 34  1  0  0  0  0
 15 35  1  0  0  0  0
 16 18  2  0  0  0  0
 16 36  1  0  0  0  0
 17 18  1  0  0  0  0
 17 37  1  0  0  0  0
 18 38  1  0  0  0  0
 19 39  1  0  0  0  0
 19 40  1  0  0  0  0
 20 41  1  0  0  0  0
 20 42  1  0  0  0  0
 20 43  1  0  0  0  0
 21 44  1  0  0  0  0
 21 45  1  0  0  0  0
 21 46  1  0  0  0  0
M  END
>  <DRUGBANK_ID>
DB00979

>  <SECONDARY_ACCESSION_NUMBERS>
APRD00893

>  <COMMON_NAME>
Cyclopentolate

>  <CAS_NUMBER>
512-15-2

>  <UNII>
I76F4SHP7J

>  <SYNONYMS>
(±)-cyclopentolate; 1-hydroxy-α-phenylcyclopentaneacetic acid 2-(dimethylamino)ethyl ester; 2-(dimethylamino)ethyl 1-hydroxy-α-phenylcyclopentaneacetate; 2-(dimethylamino)ethyl 2-(1-hydroxycyclopentyl)-2-phenylacetate; 2-phenyl-2-(1-hydroxycyclopentyl)ethanoic acid β-(dimethylamino)ethyl ester; Ciclopentolato; Cyclopentolate; Cyclopentolatum; α-(1-hydroxycyclopentyl)benzeneacetic acid 2-(dimethylamino)ethyl ester; β-(dimethylamino)ethyl (1-hydroxycyclopentyl)phenylacetate; β-dimethylaminoethyl (1-hydroxycyclopentyl)phenylacetate

$$$$
