Structure #1
 OpenBabel10282417183D

 18 19  0  0  0  0  0  0  0  0999 V2000
   -1.9294   -1.6081    0.0005 C   0  0  0  0  0  0  0  0  0  0  0  0
    2.7314   -0.2652    0.0093 C   0  0  0  0  0  0  0  0  0  0  0  0
   -0.5784   -1.9507   -0.0094 C   0  0  0  0  0  0  0  0  0  0  0  0
    1.7777   -1.2755    0.0039 C   0  0  0  0  0  0  0  0  0  0  0  0
   -2.3015   -0.2673    0.0135 C   0  0  0  0  0  0  0  0  0  0  0  0
    2.2889    1.0417    0.0027 C   0  0  0  0  0  0  0  0  0  0  0  0
    0.4129   -0.9520   -0.0034 C   0  0  0  0  0  0  0  0  0  0  0  0
   -1.3141    0.7219    0.0060 C   0  0  0  0  0  0  0  0  0  0  0  0
    0.0522    0.4152   -0.0014 C   0  0  0  0  0  0  0  0  0  0  0  0
    0.9878    1.3904   -0.0027 N   0  0  0  0  0  0  0  0  0  0  0  0
   -1.6910    2.0461    0.0084 O   0  0  0  0  0  0  0  0  0  0  0  0
   -2.6889   -2.3860   -0.0004 H   0  0  0  0  0  0  0  0  0  0  0  0
    3.7914   -0.4885    0.0187 H   0  0  0  0  0  0  0  0  0  0  0  0
   -0.3009   -3.0034   -0.0195 H   0  0  0  0  0  0  0  0  0  0  0  0
    2.1042   -2.3127    0.0097 H   0  0  0  0  0  0  0  0  0  0  0  0
   -3.3550   -0.0071    0.0300 H   0  0  0  0  0  0  0  0  0  0  0  0
    2.9842    1.8753    0.0037 H   0  0  0  0  0  0  0  0  0  0  0  0
   -2.6563    2.1133   -0.0020 H   0  0  0  0  0  0  0  0  0  0  0  0
  1  3  2  0  0  0  0
  1  5  1  0  0  0  0
  1 12  1  0  0  0  0
  2  4  2  0  0  0  0
  2  6  1  0  0  0  0
  2 13  1  0  0  0  0
  3  7  1  0  0  0  0
  3 14  1  0  0  0  0
  4  7  1  0  0  0  0
  4 15  1  0  0  0  0
  5  8  2  0  0  0  0
  5 16  1  0  0  0  0
  6 10  2  0  0  0  0
  6 17  1  0  0  0  0
  7  9  2  0  0  0  0
  8  9  1  0  0  0  0
  8 11  1  0  0  0  0
  9 10  1  0  0  0  0
 11 18  1  0  0  0  0
M  END
>  <DRUGBANK_ID>
DB11145

>  <COMMON_NAME>
Oxyquinoline

>  <CAS_NUMBER>
148-24-3

>  <UNII>
5UTX5635HP

>  <SYNONYMS>
8-Hydroxyquinoline; hydroxybenzopyridine; Hydroxyquinoline; oxine; Oxyquinoline; Phenopyridine

$$$$
