
 OpenBabel10282417233D

 72 73  0  0  0  0  0  0  0  0999 V2000
    4.8881   -6.6904    2.6907 C   0  0  0  0  0  0  0  0  0  0  0  0
    3.6040   -6.9087    3.1509 C   0  0  0  0  0  0  0  0  0  0  0  0
    2.3991   -6.3950    2.3918 C   0  0  0  0  0  0  0  0  0  0  0  0
    2.2543   -4.9717    2.3332 N   0  0  0  0  0  0  0  0  0  0  0  0
    2.2937   -4.2662    1.0707 C   0  0  0  0  0  0  0  0  0  0  0  0
    2.3858   -2.7510    1.2227 C   0  0  0  0  0  0  0  0  0  0  0  0
    2.1765   -4.7631   -0.2412 C   0  0  0  0  0  0  0  0  0  0  0  0
    2.4149   -3.8879   -1.4921 C   0  0  0  0  0  0  0  0  0  0  0  0
    3.7426   -4.1512   -2.2293 C   0  0  0  0  0  0  0  0  0  0  0  0
    4.0348   -5.4784   -2.6226 O   0  0  0  0  0  0  0  0  0  0  0  0
    1.0795   -6.2244   -0.7104 S   0  0  0  0  0  0  0  0  0  0  0  0
    1.8100   -7.1702   -2.5361 S   0  0  0  0  0  0  0  0  0  0  0  0
    2.0896   -9.0516   -2.5667 C   0  0  0  0  0  0  0  0  0  0  0  0
    2.1122   -9.9768   -1.5547 C   0  0  0  0  0  0  0  0  0  0  0  0
    2.0632   -9.6161   -0.2405 N   0  0  0  0  0  0  0  0  0  0  0  0
    2.1539  -10.4626    0.9274 C   0  0  0  0  0  0  0  0  0  0  0  0
    3.4802  -10.3170    1.5873 C   0  0  0  0  0  0  0  0  0  0  0  0
    4.7198  -10.2890    0.9738 C   0  0  0  0  0  0  0  0  0  0  0  0
    5.8326  -10.0852    1.6008 N   0  0  0  0  0  0  0  0  0  0  0  0
    5.7135  -10.1793    2.8900 C   0  0  0  0  0  0  0  0  0  0  0  0
    4.5778  -10.2790    3.6249 N   0  0  0  0  0  0  0  0  0  0  0  0
    3.4623  -10.2288    2.9401 C   0  0  0  0  0  0  0  0  0  0  0  0
    6.9326   -9.7824    3.5411 C   0  0  0  0  0  0  0  0  0  0  0  0
    5.0405  -10.7115   -0.2710 N   0  0  0  0  0  0  0  0  0  0  0  0
    2.5919   -8.4251    0.1138 C   0  0  0  0  0  0  0  0  0  0  0  0
    3.5182   -7.7907   -0.4248 O   0  0  0  0  0  0  0  0  0  0  0  0
    2.2436  -11.4771   -1.7751 C   0  0  0  0  0  0  0  0  0  0  0  0
    2.2500   -9.5990   -4.0103 C   0  0  0  0  0  0  0  0  0  0  0  0
    1.0024   -9.2831   -4.8247 C   0  0  0  0  0  0  0  0  0  0  0  0
    0.8886   -7.9057   -5.1411 O   0  0  0  0  0  0  0  0  0  0  0  0
    2.2337   -4.4479    3.6391 C   0  0  0  0  0  0  0  0  0  0  0  0
    2.1343   -5.0953    4.6791 O   0  0  0  0  0  0  0  0  0  0  0  0
    3.5560   -7.5720    4.3700 C   0  0  0  0  0  0  0  0  0  0  0  0
    2.3350   -8.1124    4.8211 N   0  0  0  0  0  0  0  0  0  0  0  0
    4.6664   -7.8104    5.1465 N   0  0  0  0  0  0  0  0  0  0  0  0
    5.8939   -7.4530    4.6867 C   0  0  0  0  0  0  0  0  0  0  0  0
    7.2010   -8.0238    5.4709 C   0  0  0  0  0  0  0  0  0  0  0  0
    6.0282   -6.9247    3.4273 N   0  0  0  0  0  0  0  0  0  0  0  0
    5.0226   -6.3144    1.6682 H   0  0  0  0  0  0  0  0  0  0  0  0
    2.5887   -6.5996    1.3701 H   0  0  0  0  0  0  0  0  0  0  0  0
    1.4370   -6.8510    2.6754 H   0  0  0  0  0  0  0  0  0  0  0  0
    3.2857   -2.3405    0.7624 H   0  0  0  0  0  0  0  0  0  0  0  0
    1.4865   -2.3158    0.7728 H   0  0  0  0  0  0  0  0  0  0  0  0
    2.3733   -2.3678    2.2411 H   0  0  0  0  0  0  0  0  0  0  0  0
    1.5661   -4.0332   -2.1696 H   0  0  0  0  0  0  0  0  0  0  0  0
    2.3754   -2.8100   -1.2757 H   0  0  0  0  0  0  0  0  0  0  0  0
    3.7327   -3.5710   -3.1585 H   0  0  0  0  0  0  0  0  0  0  0  0
    4.5817   -3.8274   -1.6143 H   0  0  0  0  0  0  0  0  0  0  0  0
    3.6837   -6.1114   -1.9625 H   0  0  0  0  0  0  0  0  0  0  0  0
    1.3681  -10.0952    1.6080 H   0  0  0  0  0  0  0  0  0  0  0  0
    2.0006  -11.5296    0.8400 H   0  0  0  0  0  0  0  0  0  0  0  0
    2.5335  -10.0979    3.4807 H   0  0  0  0  0  0  0  0  0  0  0  0
    7.7550  -10.4566    3.7041 H   0  0  0  0  0  0  0  0  0  0  0  0
    7.3039   -8.8482    3.0928 H   0  0  0  0  0  0  0  0  0  0  0  0
    6.4094   -9.6862    4.4644 H   0  0  0  0  0  0  0  0  0  0  0  0
    6.0257  -10.4789   -0.4205 H   0  0  0  0  0  0  0  0  0  0  0  0
    4.3927  -10.5444   -1.0048 H   0  0  0  0  0  0  0  0  0  0  0  0
    2.1381   -8.1831    1.0634 H   0  0  0  0  0  0  0  0  0  0  0  0
    1.3622  -11.8471   -2.2949 H   0  0  0  0  0  0  0  0  0  0  0  0
    3.1724  -11.7391   -2.2923 H   0  0  0  0  0  0  0  0  0  0  0  0
    2.2986  -12.0664   -0.8609 H   0  0  0  0  0  0  0  0  0  0  0  0
    3.1770   -9.2488   -4.4852 H   0  0  0  0  0  0  0  0  0  0  0  0
    2.3380  -10.6951   -4.0198 H   0  0  0  0  0  0  0  0  0  0  0  0
    1.0218   -9.8184   -5.7735 H   0  0  0  0  0  0  0  0  0  0  0  0
    0.1142   -9.5875   -4.2608 H   0  0  0  0  0  0  0  0  0  0  0  0
    0.9505   -7.4222   -4.2937 H   0  0  0  0  0  0  0  0  0  0  0  0
    2.3196   -3.3726    3.7319 H   0  0  0  0  0  0  0  0  0  0  0  0
    2.5179   -8.9480    5.3706 H   0  0  0  0  0  0  0  0  0  0  0  0
    1.5657   -8.1934    4.1743 H   0  0  0  0  0  0  0  0  0  0  0  0
    7.2909   -7.7147    6.5043 H   0  0  0  0  0  0  0  0  0  0  0  0
    7.2291   -9.1133    5.7125 H   0  0  0  0  0  0  0  0  0  0  0  0
    8.1366   -7.9236    4.8838 H   0  0  0  0  0  0  0  0  0  0  0  0
  1 38  2  0  0  0  0
  1 39  1  0  0  0  0
  2  1  1  0  0  0  0
  3  2  1  0  0  0  0
  3 40  1  0  0  0  0
  3 41  1  0  0  0  0
  4  3  1  0  0  0  0
  4 31  1  0  0  0  0
  5  4  1  0  0  0  0
  5  6  1  0  0  0  0
  6 42  1  0  0  0  0
  6 43  1  0  0  0  0
  6 44  1  0  0  0  0
  7  5  2  0  0  0  0
  7  8  1  0  0  0  0
  8  9  1  0  0  0  0
  8 45  1  0  0  0  0
  8 46  1  0  0  0  0
  9 10  1  0  0  0  0
  9 47  1  0  0  0  0
  9 48  1  0  0  0  0
 10 49  1  0  0  0  0
 11  7  1  0  0  0  0
 12 11  1  0  0  0  0
 12 13  1  0  0  0  0
 13 14  2  0  0  0  0
 13 28  1  0  0  0  0
 14 15  1  0  0  0  0
 14 27  1  0  0  0  0
 15 16  1  0  0  0  0
 15 25  1  0  0  0  0
 16 17  1  0  0  0  0
 16 50  1  0  0  0  0
 16 51  1  0  0  0  0
 17 22  1  0  0  0  0
 18 17  2  0  0  0  0
 18 24  1  0  0  0  0
 19 18  1  0  0  0  0
 20 19  2  0  0  0  0
 20 23  1  0  0  0  0
 21 20  1  0  0  0  0
 22 21  2  0  0  0  0
 22 52  1  0  0  0  0
 23 53  1  0  0  0  0
 23 54  1  0  0  0  0
 23 55  1  0  0  0  0
 24 56  1  0  0  0  0
 24 57  1  0  0  0  0
 25 26  2  0  0  0  0
 25 58  1  0  0  0  0
 27 59  1  0  0  0  0
 27 60  1  0  0  0  0
 27 61  1  0  0  0  0
 28 29  1  0  0  0  0
 28 62  1  0  0  0  0
 28 63  1  0  0  0  0
 29 30  1  0  0  0  0
 29 64  1  0  0  0  0
 29 65  1  0  0  0  0
 30 66  1  0  0  0  0
 31 32  2  0  0  0  0
 31 67  1  0  0  0  0
 33  2  2  0  0  0  0
 33 34  1  0  0  0  0
 34 68  1  0  0  0  0
 34 69  1  0  0  0  0
 35 33  1  0  0  0  0
 36 35  2  0  0  0  0
 36 37  1  0  0  0  0
 37 70  1  0  0  0  0
 37 71  1  0  0  0  0
 37 72  1  0  0  0  0
 38 36  1  0  0  0  0
M  END
>  <DRUGBANK_ID>
DB15958

>  <COMMON_NAME>
Thiamine disulfide

>  <CAS_NUMBER>
67-16-3

>  <UNII>
UJV8K21YKL

>  <SYNONYMS>
Thiamine disulfide; Vitamin B1 disulfide

$$$$
