
 OpenBabel10282417153D

 56 59  0  0  0  0  0  0  0  0999 V2000
    0.0216   -0.7202   -0.3926 C   0  0  1  0  0  0  0  0  0  0  0  0
    0.0516    0.8179   -0.0509 C   0  0  2  0  0  0  0  0  0  0  0  0
   -1.2978   -1.4237    0.0722 C   0  0  2  0  0  0  0  0  0  0  0  0
    1.2636   -1.4994    0.1342 C   0  0  0  0  0  0  0  0  0  0  0  0
    1.4470    1.5108   -0.3285 C   0  0  1  0  0  0  0  0  0  0  0  0
   -1.2654    1.5282   -0.4676 C   0  0  0  0  0  0  0  0  0  0  0  0
   -2.5278   -0.6227   -0.4683 C   0  0  1  0  0  0  0  0  0  0  0  0
   -1.3186   -2.8475   -0.5434 C   0  0  0  0  0  0  0  0  0  0  0  0
    2.5128   -0.8084   -0.3371 C   0  0  0  0  0  0  0  0  0  0  0  0
    2.5817    0.5674    0.3414 C   0  0  2  0  0  0  0  0  0  0  0  0
    2.0983    1.9762   -1.6912 C   0  0  0  0  0  0  0  0  0  0  0  0
   -2.5283    0.7968    0.1442 C   0  0  0  0  0  0  0  0  0  0  0  0
   -3.8279   -1.4231   -0.8346 C   0  0  0  0  0  0  0  0  0  0  0  0
   -2.5248   -3.4823    0.0258 C   0  0  0  0  0  0  0  0  0  0  0  0
    3.8930    1.4148   -0.0541 C   0  0  1  0  0  0  0  0  0  0  0  0
    3.5646    1.5671   -1.5617 C   0  0  0  0  0  0  0  0  0  0  0  0
   -3.8036   -2.9425   -0.5429 C   0  0  0  0  0  0  0  0  0  0  0  0
   -2.4968   -4.2462    1.1210 C   0  0  0  0  0  0  0  0  0  0  0  0
    3.9926    2.1399    1.2738 C   0  0  0  0  0  0  0  0  0  0  0  0
    5.2995    1.2355   -0.1541 O   0  0  0  0  0  0  0  0  0  0  0  0
   -4.7087   -3.6767   -0.8208 O   0  0  0  0  0  0  0  0  0  0  0  0
   -1.3438   -4.6076    1.7834 O   0  0  0  0  0  0  0  0  0  0  0  0
    2.2482    0.3620    1.9417 C   0  0  0  0  0  0  0  0  0  0  0  0
   -0.0220    0.8895    1.0409 H   0  0  0  0  0  0  0  0  0  0  0  0
   -1.3055   -1.5087    1.6553 C   0  0  0  0  0  0  0  0  0  0  0  0
   -2.2318   -0.3879   -1.4956 H   0  0  0  0  0  0  0  0  0  0  0  0
    0.0490   -0.7726   -1.4899 H   0  0  0  0  0  0  0  0  0  0  0  0
    1.3636    2.4751    0.1956 H   0  0  0  0  0  0  0  0  0  0  0  0
    1.3318   -2.5454   -0.1599 H   0  0  0  0  0  0  0  0  0  0  0  0
    1.2435   -1.5886    1.2163 H   0  0  0  0  0  0  0  0  0  0  0  0
   -1.2789    2.5805   -0.1634 H   0  0  0  0  0  0  0  0  0  0  0  0
   -1.3208    1.5080   -1.5602 H   0  0  0  0  0  0  0  0  0  0  0  0
   -1.3317   -2.9641   -1.6375 H   0  0  0  0  0  0  0  0  0  0  0  0
   -0.3973   -3.3530   -0.2739 H   0  0  0  0  0  0  0  0  0  0  0  0
    3.4204   -1.3809   -0.1344 H   0  0  0  0  0  0  0  0  0  0  0  0
    2.4033   -0.7760   -1.4288 H   0  0  0  0  0  0  0  0  0  0  0  0
    2.1828    3.0700   -1.7964 H   0  0  0  0  0  0  0  0  0  0  0  0
    1.6089    1.6345   -2.6126 H   0  0  0  0  0  0  0  0  0  0  0  0
   -3.4626    1.3321   -0.0581 H   0  0  0  0  0  0  0  0  0  0  0  0
   -2.4403    0.8062    1.2425 H   0  0  0  0  0  0  0  0  0  0  0  0
   -4.8203   -1.0240   -0.5751 H   0  0  0  0  0  0  0  0  0  0  0  0
   -3.8561   -1.3576   -1.9354 H   0  0  0  0  0  0  0  0  0  0  0  0
    4.2970    2.1189   -2.1685 H   0  0  0  0  0  0  0  0  0  0  0  0
    3.6753    0.5704   -2.0411 H   0  0  0  0  0  0  0  0  0  0  0  0
   -3.3705   -4.5313    1.6909 H   0  0  0  0  0  0  0  0  0  0  0  0
    3.0567    2.5919    1.5770 H   0  0  0  0  0  0  0  0  0  0  0  0
    4.2932    1.2865    1.9364 H   0  0  0  0  0  0  0  0  0  0  0  0
    4.7909    2.8149    1.5632 H   0  0  0  0  0  0  0  0  0  0  0  0
    5.6363    2.1760   -0.1274 H   0  0  0  0  0  0  0  0  0  0  0  0
   -0.5634   -4.2638    1.3140 H   0  0  0  0  0  0  0  0  0  0  0  0
    3.0014   -0.2858    2.4034 H   0  0  0  0  0  0  0  0  0  0  0  0
    2.1569    1.2807    2.5331 H   0  0  0  0  0  0  0  0  0  0  0  0
    1.2798   -0.0763    2.1956 H   0  0  0  0  0  0  0  0  0  0  0  0
   -1.1630   -0.5501    2.1562 H   0  0  0  0  0  0  0  0  0  0  0  0
   -2.2327   -1.9128    2.0740 H   0  0  0  0  0  0  0  0  0  0  0  0
   -0.5007   -2.1549    2.0246 H   0  0  0  0  0  0  0  0  0  0  0  0
  1  2  1  0  0  0  0
  1  3  1  0  0  0  0
  1  4  1  0  0  0  0
  1 27  1  1  0  0  0
  2  5  1  0  0  0  0
  2  6  1  0  0  0  0
  2 24  1  6  0  0  0
  3  7  1  0  0  0  0
  3  8  1  0  0  0  0
  3 25  1  6  0  0  0
  4  9  1  0  0  0  0
  4 29  1  0  0  0  0
  4 30  1  0  0  0  0
  5 10  1  0  0  0  0
  5 11  1  0  0  0  0
  5 28  1  1  0  0  0
  6 12  1  0  0  0  0
  6 31  1  0  0  0  0
  6 32  1  0  0  0  0
  7 13  1  0  0  0  0
  7 12  1  0  0  0  0
  7 26  1  1  0  0  0
  8 14  1  0  0  0  0
  8 33  1  0  0  0  0
  8 34  1  0  0  0  0
  9 10  1  0  0  0  0
  9 35  1  0  0  0  0
  9 36  1  0  0  0  0
 10 15  1  0  0  0  0
 10 23  1  6  0  0  0
 11 16  1  0  0  0  0
 11 37  1  0  0  0  0
 11 38  1  0  0  0  0
 12 39  1  0  0  0  0
 12 40  1  0  0  0  0
 13 17  1  0  0  0  0
 13 41  1  0  0  0  0
 13 42  1  0  0  0  0
 14 17  1  0  0  0  0
 14 18  2  0  0  0  0
 15 16  1  0  0  0  0
 15 20  1  1  0  0  0
 15 19  1  0  0  0  0
 16 43  1  0  0  0  0
 16 44  1  0  0  0  0
 17 21  2  0  0  0  0
 18 22  1  0  0  0  0
 18 45  1  0  0  0  0
 19 46  1  0  0  0  0
 19 47  1  0  0  0  0
 19 48  1  0  0  0  0
 20 49  1  0  0  0  0
 22 50  1  0  0  0  0
 23 51  1  0  0  0  0
 23 52  1  0  0  0  0
 23 53  1  0  0  0  0
 25 54  1  0  0  0  0
 25 55  1  0  0  0  0
 25 56  1  0  0  0  0
M  END
>  <DRUGBANK_ID>
DB06412

>  <COMMON_NAME>
Oxymetholone

>  <CAS_NUMBER>
434-07-1

>  <UNII>
L76T0ZCA8K

>  <SYNONYMS>
17β-Hydroxy-2-hydroxymethylidene-17α-methyl-3-androstanone; Oximetolona; Oxymetholon; Oxymétholone; Oxymetholone; Oxymetholonum

$$$$
