
 OpenBabel10282417133D

 94 96  0  0  1  0  0  0  0  0999 V2000
   -1.4135    2.8364   -1.2292 C   0  0  2  0  0  0  0  0  0  0  0  0
    0.0028    3.0338   -1.4483 O   0  0  0  0  0  0  0  0  0  0  0  0
   -1.6202    1.4654   -0.5052 C   0  0  1  0  0  0  0  0  0  0  0  0
    0.7219    1.9092   -0.9652 C   0  0  1  0  0  0  0  0  0  0  0  0
   -0.2465    0.7493   -0.7413 C   0  0  1  0  0  0  0  0  0  0  0  0
   -2.1126    1.5792    0.8236 O   0  0  0  0  0  0  0  0  0  0  0  0
   -3.7624    4.8162    6.4190 C   0  0  0  0  0  0  0  0  0  0  0  0
   -5.2322    4.4446    6.1859 C   0  0  0  0  0  0  0  0  0  0  0  0
   -2.8918    3.6817    6.5527 N   0  0  0  0  0  0  0  0  0  0  0  0
   -2.0780    3.2651    5.5445 C   0  0  0  0  0  0  0  0  0  0  0  0
   -1.9241    3.9067    4.5041 O   0  0  0  0  0  0  0  0  0  0  0  0
   -2.2084    0.9783    4.6261 C   0  0  0  0  0  0  0  0  0  0  0  0
   -1.5439    1.8633    5.6823 C   0  0  0  0  0  0  0  0  0  0  0  0
   -1.6546    1.4549    3.3770 N   0  0  0  0  0  0  0  0  0  0  0  0
   -0.0260    0.1612    4.0266 O   0  0  0  0  0  0  0  0  0  0  0  0
   -0.3272    1.0375    3.2959 C   0  0  0  0  0  0  0  0  0  0  0  0
    2.5311    3.3020    1.8017 C   0  0  0  0  0  0  0  0  0  0  0  0
   -0.2040    3.9150    1.4014 C   0  0  0  0  0  0  0  0  0  0  0  0
    1.0005    3.1392    2.2520 C   0  0  0  0  0  0  0  0  0  0  0  0
    1.0846    3.3128    3.7496 C   0  0  0  0  0  0  0  0  0  0  0  0
    0.6335    1.7021    2.1386 C   0  0  1  0  0  0  0  0  0  0  0  0
    1.7803    1.1720    1.4848 O   0  0  0  0  0  0  0  0  0  0  0  0
    2.9992    4.6019    1.7921 O   0  0  0  0  0  0  0  0  0  0  0  0
    2.9520    5.3368   -0.5235 O   0  0  0  0  0  0  0  0  0  0  0  0
    2.9195    2.9580   -1.0945 O   0  0  0  0  0  0  0  0  0  0  0  0
    2.2749    6.9141    1.0496 O   0  0  0  0  0  0  0  0  0  0  0  0
    0.9620    5.5249    2.3007 O   0  0  0  0  0  0  0  0  0  0  0  0
    2.9829    4.2660   -3.0025 O   0  0  0  0  0  0  0  0  0  0  0  0
    1.3977    5.7978   -2.3559 O   0  0  0  0  0  0  0  0  0  0  0  0
    1.9570    5.4308    0.8886 P   0  0  3  0  0  0  0  0  0  0  0  0
    2.1586    4.3779   -1.7252 P   0  0  3  0  0  0  0  0  0  0  0  0
    2.1390    1.7674   -1.5109 C   0  0  0  0  0  0  0  0  0  0  0  0
    0.3420   -0.3065   -0.0101 O   0  0  0  0  0  0  0  0  0  0  0  0
   -0.9728   -1.4684    1.8188 O   0  0  0  0  0  0  0  0  0  0  0  0
    1.5091   -2.0978    1.0107 O   0  0  0  0  0  0  0  0  0  0  0  0
    0.4844   -0.9780    1.4313 P   0  0  0  0  0  0  0  0  0  0  0  0
    1.4105   -0.5834    2.5482 O   0  0  0  0  0  0  0  0  0  0  0  0
   -1.9177    2.9536   -2.5516 N   0  0  0  0  0  0  0  0  0  0  0  0
   -3.1913    2.7404   -2.9276 C   0  0  0  0  0  0  0  0  0  0  0  0
   -1.1726    3.2962   -3.6493 C   0  0  0  0  0  0  0  0  0  0  0  0
   -3.1377    2.8934   -4.2943 C   0  0  0  0  0  0  0  0  0  0  0  0
   -4.2384    2.4139   -2.1603 N   0  0  0  0  0  0  0  0  0  0  0  0
   -1.8857    3.2408   -4.7388 N   0  0  0  0  0  0  0  0  0  0  0  0
   -4.3178    2.6734   -4.9837 C   0  0  0  0  0  0  0  0  0  0  0  0
   -5.3259    2.2241   -2.9366 C   0  0  0  0  0  0  0  0  0  0  0  0
   -5.4223    2.3323   -4.2833 N   0  0  0  0  0  0  0  0  0  0  0  0
   -4.3378    2.7980   -6.3476 N   0  0  0  0  0  0  0  0  0  0  0  0
   -6.0838    3.6232    7.5588 S   0  0  0  0  0  0  0  0  0  0  0  0
   -4.5149    1.3010    6.9349 C   0  0  0  0  0  0  0  0  0  0  0  0
   -2.6373   -0.3882    7.7248 C   0  0  0  0  0  0  0  0  0  0  0  0
   -5.5611    1.9565    7.7677 C   0  0  0  0  0  0  0  0  0  0  0  0
   -6.0378    1.3066    8.6945 O   0  0  0  0  0  0  0  0  0  0  0  0
   -3.3342    0.9585    7.8490 C   0  0  0  0  0  0  0  0  0  0  0  0
   -2.8329    1.8481    8.5520 O   0  0  0  0  0  0  0  0  0  0  0  0
   -1.8213    3.6963   -0.6677 H   0  0  0  0  0  0  0  0  0  0  0  0
   -2.4369    0.9060   -0.9493 H   0  0  0  0  0  0  0  0  0  0  0  0
    0.9899    2.3019   -0.0305 H   0  0  0  0  0  0  0  0  0  0  0  0
   -0.3886    0.3164   -1.7331 H   0  0  0  0  0  0  0  0  0  0  0  0
   -1.7295    2.3098    1.3131 H   0  0  0  0  0  0  0  0  0  0  0  0
   -3.6383    5.4022    7.3299 H   0  0  0  0  0  0  0  0  0  0  0  0
   -3.4158    5.4199    5.5724 H   0  0  0  0  0  0  0  0  0  0  0  0
   -5.7566    5.4037    6.0594 H   0  0  0  0  0  0  0  0  0  0  0  0
   -5.3913    3.8961    5.2516 H   0  0  0  0  0  0  0  0  0  0  0  0
   -2.8691    3.2162    7.4623 H   0  0  0  0  0  0  0  0  0  0  0  0
   -3.2979    0.9704    4.5451 H   0  0  0  0  0  0  0  0  0  0  0  0
   -1.9631   -0.0774    4.8231 H   0  0  0  0  0  0  0  0  0  0  0  0
   -1.7109    1.4646    6.6424 H   0  0  0  0  0  0  0  0  0  0  0  0
   -0.4496    1.8489    5.6683 H   0  0  0  0  0  0  0  0  0  0  0  0
   -1.8612    2.4403    3.2383 H   0  0  0  0  0  0  0  0  0  0  0  0
    2.6360    2.9812    0.7945 H   0  0  0  0  0  0  0  0  0  0  0  0
    3.2415    2.6662    2.3397 H   0  0  0  0  0  0  0  0  0  0  0  0
   -0.0597    3.6909    0.3856 H   0  0  0  0  0  0  0  0  0  0  0  0
   -1.1893    3.8214    1.8289 H   0  0  0  0  0  0  0  0  0  0  0  0
   -0.3134    4.9773    1.1090 H   0  0  0  0  0  0  0  0  0  0  0  0
    1.6558    2.4807    4.1744 H   0  0  0  0  0  0  0  0  0  0  0  0
    1.5649    4.2259    4.0792 H   0  0  0  0  0  0  0  0  0  0  0  0
    0.0841    3.2899    4.1248 H   0  0  0  0  0  0  0  0  0  0  0  0
   -0.0622    1.6258    1.3452 H   0  0  0  0  0  0  0  0  0  0  0  0
    2.3300    0.7544    2.1849 H   0  0  0  0  0  0  0  0  0  0  0  0
    0.3713    5.1013    2.9326 H   0  0  0  0  0  0  0  0  0  0  0  0
    0.4853    5.9418   -2.0629 H   0  0  0  0  0  0  0  0  0  0  0  0
    2.6254    0.8991   -1.0612 H   0  0  0  0  0  0  0  0  0  0  0  0
    2.1280    1.6923   -2.5989 H   0  0  0  0  0  0  0  0  0  0  0  0
   -1.5588   -0.7323    2.1202 H   0  0  0  0  0  0  0  0  0  0  0  0
    2.2953   -1.5461    1.3105 H   0  0  0  0  0  0  0  0  0  0  0  0
   -0.1176    3.5498   -3.6125 H   0  0  0  0  0  0  0  0  0  0  0  0
   -6.2361    1.9458   -2.4142 H   0  0  0  0  0  0  0  0  0  0  0  0
   -3.4756    3.0727   -6.8063 H   0  0  0  0  0  0  0  0  0  0  0  0
   -5.1994    2.6635   -6.8412 H   0  0  0  0  0  0  0  0  0  0  0  0
   -4.8948    0.3901    6.4685 H   0  0  0  0  0  0  0  0  0  0  0  0
   -4.2626    1.9265    6.0832 H   0  0  0  0  0  0  0  0  0  0  0  0
   -1.5937   -0.2962    7.3886 H   0  0  0  0  0  0  0  0  0  0  0  0
   -2.6023   -0.8617    8.7034 H   0  0  0  0  0  0  0  0  0  0  0  0
   -3.1466   -1.0066    6.9871 H   0  0  0  0  0  0  0  0  0  0  0  0
  1 38  1  0  0  0  0
  1 55  1  1  0  0  0
  2  1  1  0  0  0  0
  3  1  1  0  0  0  0
  3  6  1  0  0  0  0
  3 56  1  6  0  0  0
  4  2  1  0  0  0  0
  4 32  1  0  0  0  0
  4 57  1  1  0  0  0
  5  3  1  0  0  0  0
  5  4  1  0  0  0  0
  5 33  1  0  0  0  0
  5 58  1  6  0  0  0
  6 59  1  0  0  0  0
  7  8  1  0  0  0  0
  7 60  1  0  0  0  0
  7 61  1  0  0  0  0
  8 48  1  0  0  0  0
  8 62  1  0  0  0  0
  8 63  1  0  0  0  0
  9  7  1  0  0  0  0
  9 64  1  0  0  0  0
 10  9  1  0  0  0  0
 10 11  2  0  0  0  0
 12 14  1  0  0  0  0
 12 65  1  0  0  0  0
 12 66  1  0  0  0  0
 13 10  1  0  0  0  0
 13 12  1  0  0  0  0
 13 67  1  0  0  0  0
 13 68  1  0  0  0  0
 14 69  1  0  0  0  0
 16 14  1  0  0  0  0
 16 15  2  0  0  0  0
 17 23  1  0  0  0  0
 17 70  1  0  0  0  0
 17 71  1  0  0  0  0
 18 72  1  0  0  0  0
 18 73  1  0  0  0  0
 18 74  1  0  0  0  0
 19 17  1  0  0  0  0
 19 18  1  0  0  0  0
 19 20  1  0  0  0  0
 20 75  1  0  0  0  0
 20 76  1  0  0  0  0
 20 77  1  0  0  0  0
 21 22  1  0  0  0  0
 21 78  1  6  0  0  0
 21 19  1  0  0  0  0
 21 16  1  0  0  0  0
 22 79  1  0  0  0  0
 23 30  1  0  0  0  0
 24 31  1  0  0  0  0
 27 80  1  0  0  0  0
 29 81  1  0  0  0  0
 30 24  1  0  0  0  0
 30 26  2  0  0  0  0
 30 27  1  0  0  0  0
 31 25  1  0  0  0  0
 31 28  2  0  0  0  0
 31 29  1  0  0  0  0
 32 25  1  0  0  0  0
 32 82  1  0  0  0  0
 32 83  1  0  0  0  0
 33 36  1  0  0  0  0
 34 84  1  0  0  0  0
 35 85  1  0  0  0  0
 36 34  1  0  0  0  0
 36 35  1  0  0  0  0
 36 37  2  0  0  0  0
 39 38  1  0  0  0  0
 40 38  1  0  0  0  0
 40 86  1  0  0  0  0
 41 39  2  0  0  0  0
 42 39  1  0  0  0  0
 43 40  2  0  0  0  0
 43 41  1  0  0  0  0
 44 41  1  0  0  0  0
 45 42  2  0  0  0  0
 45 87  1  0  0  0  0
 46 44  2  0  0  0  0
 46 45  1  0  0  0  0
 47 44  1  0  0  0  0
 47 88  1  0  0  0  0
 47 89  1  0  0  0  0
 48 51  1  0  0  0  0
 49 53  1  0  0  0  0
 49 90  1  0  0  0  0
 49 91  1  0  0  0  0
 50 92  1  0  0  0  0
 50 93  1  0  0  0  0
 50 94  1  0  0  0  0
 51 49  1  0  0  0  0
 51 52  2  0  0  0  0
 53 50  1  0  0  0  0
 53 54  2  0  0  0  0
M  END
>  <DRUGBANK_ID>
DB03059

>  <SECONDARY_ACCESSION_NUMBERS>
EXPT00820

>  <COMMON_NAME>
Acetoacetyl-CoA

>  <CAS_NUMBER>
1420-36-6

>  <SYNONYMS>
3-Acetoacetyl-CoA; Acetoacetyl coenzyme A; Acetoacetyl-Coenzyme A; S-acetoacetyl-CoA; S-Acetoacetyl-coenzym A; S-acetoacetyl-coenzyme A

$$$$
