
 OpenBabel10282417183D

123126  0  0  0  0  0  0  0  0999 V2000
   -0.5611    2.6574   -1.8564 C   0  0  2  0  0  0  0  0  0  0  0  0
   -2.1974    1.9992   -1.4688 C   0  0  2  0  0  0  0  0  0  0  0  0
   -2.5803    0.3479   -2.4391 C   0  0  1  0  0  0  0  0  0  0  0  0
   -2.4187    0.6373   -3.8079 C   0  0  2  0  0  0  0  0  0  0  0  0
   -1.0698    1.1215   -3.3329 C   0  0  2  0  0  0  0  0  0  0  0  0
   -0.9572    0.5697   -1.5150 O   0  0  0  0  0  0  0  0  0  0  0  0
   -1.7474   -0.7664   -0.5965 C   0  0  1  0  0  0  0  0  0  0  0  0
   -3.6833   -1.2351    0.0764 C   0  0  2  0  0  0  0  0  0  0  0  0
   -5.1096   -2.5219    0.1332 C   0  0  0  0  0  0  0  0  0  0  0  0
   -5.7555   -2.9870   -1.1321 C   0  0  2  0  0  0  0  0  0  0  0  0
   -4.4203   -3.0997   -1.6842 C   0  0  0  0  0  0  0  0  0  0  0  0
   -3.7296   -4.4179   -1.8405 C   0  0  0  0  0  0  0  0  0  0  0  0
   -2.3956   -4.4728   -1.7009 C   0  0  0  0  0  0  0  0  0  0  0  0
   -1.5058   -5.1336   -2.6995 C   0  0  0  0  0  0  0  0  0  0  0  0
   -0.2140   -4.9717   -3.0349 C   0  0  0  0  0  0  0  0  0  0  0  0
    0.8281   -5.5096   -3.9758 C   0  0  2  0  0  0  0  0  0  0  0  0
    2.0010   -5.9370   -3.0219 C   0  0  0  0  0  0  0  0  0  0  0  0
    1.4232   -6.6479   -1.8605 N   0  0  0  0  0  0  0  0  0  0  0  0
    2.3251   -6.9871   -0.7604 C   0  0  0  0  0  0  0  0  0  0  0  0
    3.3272   -8.0509   -1.1925 C   0  0  0  0  0  0  0  0  0  0  0  0
    2.6023   -9.2601   -1.7871 C   0  0  0  0  0  0  0  0  0  0  0  0
    1.6927   -8.8243   -2.9053 C   0  0  0  0  0  0  0  0  0  0  0  0
    0.7115   -7.8295   -2.3431 C   0  0  0  0  0  0  0  0  0  0  0  0
    1.3675   -4.6164   -5.1173 C   0  0  1  0  0  0  0  0  0  0  0  0
    0.2617   -4.1081   -6.0634 C   0  0  0  0  0  0  0  0  0  0  0  0
    0.8498   -3.3810   -7.2442 C   0  0  0  0  0  0  0  0  0  0  0  0
    2.3152   -3.5933   -4.7136 O   0  0  0  0  0  0  0  0  0  0  0  0
    2.0490   -2.5489   -3.9149 C   0  0  0  0  0  0  0  0  0  0  0  0
    0.6836   -2.4884   -3.3774 C   0  0  0  0  0  0  0  0  0  0  0  0
    0.3629   -2.6610   -1.5166 C   0  0  1  0  0  0  0  0  0  0  0  0
    1.2469   -3.5902   -0.8973 O   0  0  0  0  0  0  0  0  0  0  0  0
   -0.0975   -1.6346   -0.4552 C   0  0  2  0  0  0  0  0  0  0  0  0
    0.5664   -1.3066    0.8325 C   0  0  0  0  0  0  0  0  0  0  0  0
    2.8636   -1.6557   -3.7287 O   0  0  0  0  0  0  0  0  0  0  0  0
   -2.1656   -6.1011   -3.5389 C   0  0  0  0  0  0  0  0  0  0  0  0
   -3.9936   -2.0777   -1.8892 O   0  0  0  0  0  0  0  0  0  0  0  0
   -6.5875   -1.7976   -1.5379 C   0  0  0  0  0  0  0  0  0  0  0  0
   -3.1020   -1.2872    1.3887 C   0  0  0  0  0  0  0  0  0  0  0  0
   -3.3007   -0.7527    2.7295 C   0  0  0  0  0  0  0  0  0  0  0  0
   -3.7487   -1.6266    3.7882 N   0  0  0  0  0  0  0  0  0  0  0  0
   -3.5885   -3.0736    3.5827 C   0  0  0  0  0  0  0  0  0  0  0  0
   -4.7033   -3.6836    2.7765 C   0  0  0  0  0  0  0  0  0  0  0  0
   -6.1125   -3.2327    3.1246 C   0  0  0  0  0  0  0  0  0  0  0  0
   -6.2122   -1.7206    3.3086 C   0  0  0  0  0  0  0  0  0  0  0  0
   -5.0968   -1.2681    4.2355 C   0  0  0  0  0  0  0  0  0  0  0  0
   -0.6372    2.4721   -3.2831 O   0  0  0  0  0  0  0  0  0  0  0  0
   -0.4847    0.7157   -4.2599 H   0  0  0  0  0  0  0  0  0  0  0  0
   -3.2386    1.4842   -4.4910 O   0  0  0  0  0  0  0  0  0  0  0  0
   -1.2091   -0.9262   -2.7203 N   0  0  0  0  0  0  0  0  0  0  0  0
   -1.7250   -2.1078   -3.2405 C   0  0  0  0  0  0  0  0  0  0  0  0
    0.4834   -0.4024   -2.5952 C   0  0  0  0  0  0  0  0  0  0  0  0
   -3.0731    3.0005   -1.8795 O   0  0  0  0  0  0  0  0  0  0  0  0
    0.7846    2.0108   -1.2571 C   0  0  0  0  0  0  0  0  0  0  0  0
   -0.4649    3.7008   -1.6172 H   0  0  0  0  0  0  0  0  0  0  0  0
   -2.1581    1.8560   -0.3718 H   0  0  0  0  0  0  0  0  0  0  0  0
   -3.5202   -0.0530   -2.0619 H   0  0  0  0  0  0  0  0  0  0  0  0
   -2.4205   -0.3068   -4.3784 H   0  0  0  0  0  0  0  0  0  0  0  0
   -1.5769    0.0045    0.1713 H   0  0  0  0  0  0  0  0  0  0  0  0
   -4.5145   -0.5755    0.4830 H   0  0  0  0  0  0  0  0  0  0  0  0
   -6.0392   -2.1979    0.6966 H   0  0  0  0  0  0  0  0  0  0  0  0
   -5.0040   -3.5445    0.5116 H   0  0  0  0  0  0  0  0  0  0  0  0
   -6.2635   -3.9501   -1.1501 H   0  0  0  0  0  0  0  0  0  0  0  0
   -4.3480   -4.9984   -2.4785 H   0  0  0  0  0  0  0  0  0  0  0  0
   -2.0233   -3.7365   -1.0024 H   0  0  0  0  0  0  0  0  0  0  0  0
    0.4233   -4.3331   -2.5237 H   0  0  0  0  0  0  0  0  0  0  0  0
    0.3399   -6.3320   -4.4857 H   0  0  0  0  0  0  0  0  0  0  0  0
    2.6989   -6.5238   -3.6106 H   0  0  0  0  0  0  0  0  0  0  0  0
    2.5996   -5.0811   -2.6803 H   0  0  0  0  0  0  0  0  0  0  0  0
    2.8349   -6.1067   -0.3476 H   0  0  0  0  0  0  0  0  0  0  0  0
    1.7248   -7.3817    0.0750 H   0  0  0  0  0  0  0  0  0  0  0  0
    4.0027   -7.6123   -1.9366 H   0  0  0  0  0  0  0  0  0  0  0  0
    3.9356   -8.3739   -0.3443 H   0  0  0  0  0  0  0  0  0  0  0  0
    3.3130   -9.9827   -2.1828 H   0  0  0  0  0  0  0  0  0  0  0  0
    1.9869   -9.7404   -1.0173 H   0  0  0  0  0  0  0  0  0  0  0  0
    2.2960   -8.3889   -3.7100 H   0  0  0  0  0  0  0  0  0  0  0  0
    1.1468   -9.6476   -3.3604 H   0  0  0  0  0  0  0  0  0  0  0  0
    0.0568   -8.2370   -1.5681 H   0  0  0  0  0  0  0  0  0  0  0  0
    0.0420   -7.6112   -3.1620 H   0  0  0  0  0  0  0  0  0  0  0  0
    2.0022   -5.2852   -5.7110 H   0  0  0  0  0  0  0  0  0  0  0  0
   -0.3750   -4.9447   -6.3660 H   0  0  0  0  0  0  0  0  0  0  0  0
   -0.4334   -3.3887   -5.6338 H   0  0  0  0  0  0  0  0  0  0  0  0
    1.4459   -4.0713   -7.8407 H   0  0  0  0  0  0  0  0  0  0  0  0
    0.0370   -2.9711   -7.8479 H   0  0  0  0  0  0  0  0  0  0  0  0
    1.4783   -2.5460   -6.9163 H   0  0  0  0  0  0  0  0  0  0  0  0
    0.0559   -3.1440   -3.9465 H   0  0  0  0  0  0  0  0  0  0  0  0
    0.2563   -1.6899   -4.0612 H   0  0  0  0  0  0  0  0  0  0  0  0
   -0.5823   -3.0575   -1.2872 H   0  0  0  0  0  0  0  0  0  0  0  0
    1.9905   -3.6972   -1.4987 H   0  0  0  0  0  0  0  0  0  0  0  0
    0.9057   -1.2880   -0.7799 H   0  0  0  0  0  0  0  0  0  0  0  0
    1.2323   -2.1367    1.0666 H   0  0  0  0  0  0  0  0  0  0  0  0
    1.1823   -0.3804    0.7337 H   0  0  0  0  0  0  0  0  0  0  0  0
   -0.2904   -1.1272    1.4454 H   0  0  0  0  0  0  0  0  0  0  0  0
   -1.9731   -5.8903   -4.5907 H   0  0  0  0  0  0  0  0  0  0  0  0
   -1.7593   -7.0189   -3.1501 H   0  0  0  0  0  0  0  0  0  0  0  0
   -3.2217   -6.1134   -3.3737 H   0  0  0  0  0  0  0  0  0  0  0  0
   -6.4869   -1.6217   -2.6000 H   0  0  0  0  0  0  0  0  0  0  0  0
   -7.6209   -1.9786   -1.2271 H   0  0  0  0  0  0  0  0  0  0  0  0
   -6.2968   -0.8710   -1.0074 H   0  0  0  0  0  0  0  0  0  0  0  0
   -2.8234   -2.3189    1.2422 H   0  0  0  0  0  0  0  0  0  0  0  0
   -2.9773   -0.2385    1.0702 H   0  0  0  0  0  0  0  0  0  0  0  0
   -2.2518   -0.4484    2.8654 H   0  0  0  0  0  0  0  0  0  0  0  0
   -3.8910    0.1812    2.6791 H   0  0  0  0  0  0  0  0  0  0  0  0
   -2.6332   -3.2887    3.0734 H   0  0  0  0  0  0  0  0  0  0  0  0
   -3.5755   -3.6016    4.5257 H   0  0  0  0  0  0  0  0  0  0  0  0
   -4.3842   -3.2469    1.8850 H   0  0  0  0  0  0  0  0  0  0  0  0
   -4.6386   -4.7529    2.5483 H   0  0  0  0  0  0  0  0  0  0  0  0
   -6.8649   -3.5556    2.3935 H   0  0  0  0  0  0  0  0  0  0  0  0
   -6.3530   -3.7266    4.0669 H   0  0  0  0  0  0  0  0  0  0  0  0
   -6.1675   -1.1484    2.3732 H   0  0  0  0  0  0  0  0  0  0  0  0
   -7.1919   -1.4800    3.7362 H   0  0  0  0  0  0  0  0  0  0  0  0
   -5.2485   -1.7453    5.2049 H   0  0  0  0  0  0  0  0  0  0  0  0
   -5.1922   -0.1880    4.3973 H   0  0  0  0  0  0  0  0  0  0  0  0
   -2.8536    1.3390   -5.3708 H   0  0  0  0  0  0  0  0  0  0  0  0
   -1.8667   -2.2230   -4.2845 H   0  0  0  0  0  0  0  0  0  0  0  0
   -1.2946   -2.9533   -2.8156 H   0  0  0  0  0  0  0  0  0  0  0  0
   -2.5850   -2.1640   -2.7434 H   0  0  0  0  0  0  0  0  0  0  0  0
    0.7425    0.0004   -3.5291 H   0  0  0  0  0  0  0  0  0  0  0  0
    0.6858    0.0057   -1.6205 H   0  0  0  0  0  0  0  0  0  0  0  0
    1.5504   -0.7224   -2.4560 H   0  0  0  0  0  0  0  0  0  0  0  0
   -2.6236    3.2680   -2.7044 H   0  0  0  0  0  0  0  0  0  0  0  0
    1.3418    1.5794   -2.1070 H   0  0  0  0  0  0  0  0  0  0  0  0
    1.6227    2.4743   -0.7411 H   0  0  0  0  0  0  0  0  0  0  0  0
    0.4924    1.3530   -0.4185 H   0  0  0  0  0  0  0  0  0  0  0  0
  1  2  1  0  0  0  0
  1 46  1  0  0  0  0
  1 54  1  1  0  0  0
  1 53  1  0  0  0  0
  2  3  1  0  0  0  0
  2 55  1  1  0  0  0
  2 52  1  0  0  0  0
  3  4  1  0  0  0  0
  3 49  1  0  0  0  0
  3 56  1  1  0  0  0
  4  5  1  0  0  0  0
  4 57  1  6  0  0  0
  4 48  1  0  0  0  0
  5  6  1  0  0  0  0
  5 46  1  0  0  0  0
  5 47  1  6  0  0  0
  7 58  1  1  0  0  0
  7  6  1  0  0  0  0
  8  7  1  0  0  0  0
  8 59  1  1  0  0  0
  8 38  1  0  0  0  0
  9  8  1  0  0  0  0
  9 60  1  0  0  0  0
  9 61  1  0  0  0  0
 10  9  1  0  0  0  0
 10 37  1  0  0  0  0
 10 62  1  1  0  0  0
 11 10  1  0  0  0  0
 11 36  2  0  0  0  0
 12 11  1  0  0  0  0
 12 63  1  0  0  0  0
 13 12  2  0  0  0  0
 13 64  1  0  0  0  0
 14 13  1  0  0  0  0
 14 35  1  0  0  0  0
 15 14  2  0  0  0  0
 15 65  1  0  0  0  0
 16 15  1  0  0  0  0
 16 24  1  0  0  0  0
 16 66  1  6  0  0  0
 16 17  1  0  0  0  0
 17 67  1  0  0  0  0
 17 68  1  0  0  0  0
 18 17  1  0  0  0  0
 18 23  1  0  0  0  0
 19 18  1  0  0  0  0
 19 20  1  0  0  0  0
 19 69  1  0  0  0  0
 19 70  1  0  0  0  0
 20 71  1  0  0  0  0
 20 72  1  0  0  0  0
 21 20  1  0  0  0  0
 21 73  1  0  0  0  0
 21 74  1  0  0  0  0
 22 21  1  0  0  0  0
 22 75  1  0  0  0  0
 22 76  1  0  0  0  0
 23 22  1  0  0  0  0
 23 77  1  0  0  0  0
 23 78  1  0  0  0  0
 24 25  1  0  0  0  0
 24 79  1  6  0  0  0
 25 26  1  0  0  0  0
 25 80  1  0  0  0  0
 25 81  1  0  0  0  0
 26 82  1  0  0  0  0
 26 83  1  0  0  0  0
 26 84  1  0  0  0  0
 27 24  1  0  0  0  0
 28 27  1  0  0  0  0
 28 34  2  0  0  0  0
 29 28  1  0  0  0  0
 29 85  1  0  0  0  0
 29 86  1  0  0  0  0
 30 29  1  0  0  0  0
 30 31  1  0  0  0  0
 30 32  1  0  0  0  0
 30 87  1  6  0  0  0
 31 88  1  0  0  0  0
 32  7  1  0  0  0  0
 32 89  1  6  0  0  0
 32 33  1  0  0  0  0
 33 90  1  0  0  0  0
 33 91  1  0  0  0  0
 33 92  1  0  0  0  0
 35 93  1  0  0  0  0
 35 94  1  0  0  0  0
 35 95  1  0  0  0  0
 37 96  1  0  0  0  0
 37 97  1  0  0  0  0
 37 98  1  0  0  0  0
 38 39  1  0  0  0  0
 38 99  1  0  0  0  0
 38100  1  0  0  0  0
 39 40  1  0  0  0  0
 39101  1  0  0  0  0
 39102  1  0  0  0  0
 40 45  1  0  0  0  0
 41 40  1  0  0  0  0
 41103  1  0  0  0  0
 41104  1  0  0  0  0
 42 41  1  0  0  0  0
 42105  1  0  0  0  0
 42106  1  0  0  0  0
 43 42  1  0  0  0  0
 43 44  1  0  0  0  0
 43107  1  0  0  0  0
 43108  1  0  0  0  0
 44109  1  0  0  0  0
 44110  1  0  0  0  0
 45 44  1  0  0  0  0
 45111  1  0  0  0  0
 45112  1  0  0  0  0
 48113  1  0  0  0  0
 49 50  1  0  0  0  0
 49 51  1  0  0  0  0
 50114  1  0  0  0  0
 50115  1  0  0  0  0
 50116  1  0  0  0  0
 51117  1  0  0  0  0
 51118  1  0  0  0  0
 51119  1  0  0  0  0
 52120  1  0  0  0  0
 53121  1  0  0  0  0
 53122  1  0  0  0  0
 53123  1  0  0  0  0
M  END
>  <DRUGBANK_ID>
DB11470

>  <COMMON_NAME>
Tildipirosin

>  <CAS_NUMBER>
328898-40-4

>  <UNII>
S795AT66JB

>  <SYNONYMS>
Tildipirosin; Tildipirosina; Tildipirosine; Tildipirosinum

$$$$
