
 OpenBabel10282417233D

 34 36  0  0  1  0  0  0  0  0999 V2000
    1.0771    0.0521    0.0800 C   0  0  0  0  0  0  0  0  0  0  0  0
    0.4888    1.2528    0.6487 N   0  0  0  0  0  0  0  0  0  0  0  0
   -0.9738    1.2784    0.6296 C   0  0  2  0  0  0  0  0  0  0  0  0
   -1.6713    0.3722   -0.4174 C   0  0  0  0  0  0  0  0  0  0  0  0
   -3.0170    1.0247   -0.7695 C   0  0  2  0  0  0  0  0  0  0  0  0
   -2.6886    2.4758   -0.5471 C   0  0  0  0  0  0  0  0  0  0  0  0
   -3.3741    3.5752   -1.0455 C   0  0  0  0  0  0  0  0  0  0  0  0
   -2.9142    4.8480   -0.7078 C   0  0  0  0  0  0  0  0  0  0  0  0
   -1.8047    5.0045    0.1347 C   0  0  0  0  0  0  0  0  0  0  0  0
   -1.1173    3.8909    0.6305 C   0  0  0  0  0  0  0  0  0  0  0  0
   -1.5458    2.6250    0.2551 C   0  0  0  0  0  0  0  0  0  0  0  0
   -4.1517    0.4817    0.0723 C   0  0  0  0  0  0  0  0  0  0  0  0
   -4.1999    0.6560    1.4613 C   0  0  0  0  0  0  0  0  0  0  0  0
   -5.2323    0.1094    2.2211 C   0  0  0  0  0  0  0  0  0  0  0  0
   -6.2497   -0.6113    1.5949 C   0  0  0  0  0  0  0  0  0  0  0  0
   -7.5204   -1.2215    2.5912 Cl  0  0  0  0  0  0  0  0  0  0  0  0
   -6.2159   -0.8028    0.2121 C   0  0  0  0  0  0  0  0  0  0  0  0
   -7.4278   -1.7034   -0.6280 Cl  0  0  0  0  0  0  0  0  0  0  0  0
   -5.1698   -0.2622   -0.5459 C   0  0  0  0  0  0  0  0  0  0  0  0
    0.8941   -0.0066   -0.9971 H   0  0  0  0  0  0  0  0  0  0  0  0
    0.7012   -0.8543    0.5650 H   0  0  0  0  0  0  0  0  0  0  0  0
    2.1632    0.0799    0.1961 H   0  0  0  0  0  0  0  0  0  0  0  0
    0.7998    1.3575    1.6145 H   0  0  0  0  0  0  0  0  0  0  0  0
   -1.3284    1.0122    1.6328 H   0  0  0  0  0  0  0  0  0  0  0  0
   -1.0947    0.3465   -1.3502 H   0  0  0  0  0  0  0  0  0  0  0  0
   -1.7632   -0.6619   -0.0638 H   0  0  0  0  0  0  0  0  0  0  0  0
   -3.2182    0.8571   -1.8353 H   0  0  0  0  0  0  0  0  0  0  0  0
   -4.2375    3.4525   -1.6903 H   0  0  0  0  0  0  0  0  0  0  0  0
   -3.4224    5.7260   -1.1005 H   0  0  0  0  0  0  0  0  0  0  0  0
   -1.4686    6.0053    0.3970 H   0  0  0  0  0  0  0  0  0  0  0  0
   -0.2584    4.0201    1.2793 H   0  0  0  0  0  0  0  0  0  0  0  0
   -3.4386    1.2303    1.9837 H   0  0  0  0  0  0  0  0  0  0  0  0
   -5.2340    0.2595    3.2962 H   0  0  0  0  0  0  0  0  0  0  0  0
   -5.1488   -0.4228   -1.6212 H   0  0  0  0  0  0  0  0  0  0  0  0
  1  2  1  0  0  0  0
  1 20  1  0  0  0  0
  1 21  1  0  0  0  0
  1 22  1  0  0  0  0
  2 23  1  0  0  0  0
  3  2  1  0  0  0  0
  3  4  1  0  0  0  0
  3 11  1  0  0  0  0
  3 24  1  1  0  0  0
  4 25  1  0  0  0  0
  4 26  1  0  0  0  0
  5  4  1  0  0  0  0
  5  6  1  0  0  0  0
  5 27  1  6  0  0  0
  5 12  1  0  0  0  0
  6  7  2  0  0  0  0
  6 11  1  0  0  0  0
  7  8  1  0  0  0  0
  7 28  1  0  0  0  0
  8  9  2  0  0  0  0
  8 29  1  0  0  0  0
  9 10  1  0  0  0  0
  9 30  1  0  0  0  0
 10 11  2  0  0  0  0
 10 31  1  0  0  0  0
 12 13  2  0  0  0  0
 12 19  1  0  0  0  0
 13 14  1  0  0  0  0
 13 32  1  0  0  0  0
 14 15  2  0  0  0  0
 14 33  1  0  0  0  0
 15 16  1  0  0  0  0
 15 17  1  0  0  0  0
 17 18  1  0  0  0  0
 17 19  2  0  0  0  0
 19 34  1  0  0  0  0
M  END
>  <DRUGBANK_ID>
DB17032

>  <COMMON_NAME>
Indatraline

>  <CAS_NUMBER>
86939-10-8

>  <UNII>
4U40Y96J1Z

>  <SYNONYMS>
(+/-)-trans-3-(3,4-dichlorophenyl)-n-methyl-1-indanamine

$$$$
