
 OpenBabel10282417203D

 33 33  0  0  0  0  0  0  0  0999 V2000
    1.0043   -0.1118   -0.3978 C   0  0  0  0  0  0  0  0  0  0  0  0
    0.6592    1.2028   -0.2086 C   0  0  0  0  0  0  0  0  0  0  0  0
   -0.6885    1.4169   -0.0129 C   0  0  0  0  0  0  0  0  0  0  0  0
   -1.5818    0.3129   -0.0083 C   0  0  0  0  0  0  0  0  0  0  0  0
   -1.1189   -1.0191   -0.0336 C   0  0  0  0  0  0  0  0  0  0  0  0
    0.2209   -1.2246   -0.1841 C   0  0  0  0  0  0  0  0  0  0  0  0
   -1.9812   -2.2349    0.0935 C   0  0  0  0  0  0  0  0  0  0  0  0
   -2.7616   -2.1962    1.3835 C   0  0  0  0  0  0  0  0  0  0  0  0
   -4.1178   -2.1209    1.1823 N   0  0  0  0  0  0  0  0  0  0  0  0
   -2.2588   -2.1945    2.4912 O   0  0  0  0  0  0  0  0  0  0  0  0
   -4.9133   -1.9901    2.3361 O   0  0  0  0  0  0  0  0  0  0  0  0
    1.5793    2.2173   -0.1703 O   0  0  0  0  0  0  0  0  0  0  0  0
    2.9994    1.9446   -0.3662 C   0  0  0  0  0  0  0  0  0  0  0  0
    3.7639    1.3665    0.8559 C   0  0  0  0  0  0  0  0  0  0  0  0
    3.4305   -0.0828    1.2193 C   0  0  0  0  0  0  0  0  0  0  0  0
    3.8087   -1.0774    0.0909 C   0  0  0  0  0  0  0  0  0  0  0  0
    1.9906   -0.3095   -0.6661 H   0  0  0  0  0  0  0  0  0  0  0  0
   -1.0605    2.4245    0.1387 H   0  0  0  0  0  0  0  0  0  0  0  0
   -2.6474    0.5067    0.0545 H   0  0  0  0  0  0  0  0  0  0  0  0
    0.6843   -2.2090   -0.1459 H   0  0  0  0  0  0  0  0  0  0  0  0
   -2.6179   -2.3108   -0.7931 H   0  0  0  0  0  0  0  0  0  0  0  0
   -1.3840   -3.1599    0.1161 H   0  0  0  0  0  0  0  0  0  0  0  0
   -4.5716   -2.0681    0.2797 H   0  0  0  0  0  0  0  0  0  0  0  0
   -4.2405   -1.9814    3.0531 H   0  0  0  0  0  0  0  0  0  0  0  0
    3.1811    1.3704   -1.2840 H   0  0  0  0  0  0  0  0  0  0  0  0
    3.4614    2.9204   -0.5742 H   0  0  0  0  0  0  0  0  0  0  0  0
    4.8457    1.4038    0.6722 H   0  0  0  0  0  0  0  0  0  0  0  0
    3.5624    2.0073    1.7227 H   0  0  0  0  0  0  0  0  0  0  0  0
    3.9256   -0.4089    2.1382 H   0  0  0  0  0  0  0  0  0  0  0  0
    2.3751   -0.0973    1.5188 H   0  0  0  0  0  0  0  0  0  0  0  0
    4.8743   -1.2781    0.0600 H   0  0  0  0  0  0  0  0  0  0  0  0
    3.2447   -2.0120    0.2062 H   0  0  0  0  0  0  0  0  0  0  0  0
    3.6263   -0.7259   -0.9363 H   0  0  0  0  0  0  0  0  0  0  0  0
  1  2  1  0  0  0  0
  1 17  1  0  0  0  0
  2  3  2  0  0  0  0
  2 12  1  0  0  0  0
  3  4  1  0  0  0  0
  3 18  1  0  0  0  0
  4  5  2  0  0  0  0
  4 19  1  0  0  0  0
  5  6  1  0  0  0  0
  5  7  1  0  0  0  0
  6  1  2  0  0  0  0
  6 20  1  0  0  0  0
  7  8  1  0  0  0  0
  7 21  1  0  0  0  0
  7 22  1  0  0  0  0
  8  9  1  0  0  0  0
  8 10  2  0  0  0  0
  9 11  1  0  0  0  0
  9 23  1  0  0  0  0
 11 24  1  0  0  0  0
 12 13  1  0  0  0  0
 13 14  1  0  0  0  0
 13 25  1  0  0  0  0
 13 26  1  0  0  0  0
 14 15  1  0  0  0  0
 14 27  1  0  0  0  0
 14 28  1  0  0  0  0
 15 16  1  0  0  0  0
 15 29  1  0  0  0  0
 15 30  1  0  0  0  0
 16 31  1  0  0  0  0
 16 32  1  0  0  0  0
 16 33  1  0  0  0  0
M  END
>  <DRUGBANK_ID>
DB13346

>  <COMMON_NAME>
Bufexamac

>  <CAS_NUMBER>
2438-72-4

>  <UNII>
4T3C38J78L

>  <SYNONYMS>
2-(p-Butoxyphenyl)-acetohydroxamic acid; 4-Butoxy-N-hydroxybenzeneacetamide; 4-Butoxyphenylacetohydroxamic acid; Acide p-butoxyphenylacethydroxamique; Bufexamac; bufexamaco; bufexamacum; Bufexamic acid; p-Butoxyphenylacetohydroxamic acid

$$$$
