
 OpenBabel10282417173D

 42 44  0  0  0  0  0  0  0  0999 V2000
   -0.0287   -0.9880   -0.9099 C   0  0  0  0  0  0  0  0  0  0  0  0
    1.2876   -0.5217   -0.3527 C   0  0  0  0  0  0  0  0  0  0  0  0
   -1.3249   -0.5998   -0.3478 C   0  0  0  0  0  0  0  0  0  0  0  0
    0.4786    2.2389    0.1494 S   0  0  0  0  0  0  0  0  0  0  0  0
    1.5428    0.7896    0.1231 C   0  0  0  0  0  0  0  0  0  0  0  0
   -0.0601   -1.7854   -1.9886 C   0  0  0  0  0  0  0  0  0  0  0  0
   -1.7217    0.7374   -0.3646 C   0  0  0  0  0  0  0  0  0  0  0  0
   -0.8396    1.7788   -0.9829 C   0  0  0  0  0  0  0  0  0  0  0  0
   -0.1841   -2.1393   -5.2000 N   0  0  0  0  0  0  0  0  0  0  0  0
   -1.2210   -2.2633   -2.8441 C   0  0  0  0  0  0  0  0  0  0  0  0
   -2.1449   -1.5886    0.2145 C   0  0  0  0  0  0  0  0  0  0  0  0
    2.3317   -1.4704   -0.2485 C   0  0  0  0  0  0  0  0  0  0  0  0
   -1.2620   -1.6972   -4.2866 C   0  0  0  0  0  0  0  0  0  0  0  0
    2.7990    1.0905    0.6829 C   0  0  0  0  0  0  0  0  0  0  0  0
   -2.9199    1.0878    0.2585 C   0  0  0  0  0  0  0  0  0  0  0  0
   -0.4041   -1.6023   -6.5439 C   0  0  0  0  0  0  0  0  0  0  0  0
    1.1427   -1.7074   -4.7682 C   0  0  0  0  0  0  0  0  0  0  0  0
   -3.3629   -1.2368    0.7767 C   0  0  0  0  0  0  0  0  0  0  0  0
    3.5708   -1.1461    0.3076 C   0  0  0  0  0  0  0  0  0  0  0  0
    3.8012    0.1345    0.7803 C   0  0  0  0  0  0  0  0  0  0  0  0
   -3.7376    0.1038    0.8161 C   0  0  0  0  0  0  0  0  0  0  0  0
    0.8950   -2.1762   -2.2986 H   0  0  0  0  0  0  0  0  0  0  0  0
   -0.4286    1.4579   -1.9476 H   0  0  0  0  0  0  0  0  0  0  0  0
   -1.4189    2.6830   -1.1929 H   0  0  0  0  0  0  0  0  0  0  0  0
   -1.2012   -3.3582   -2.8833 H   0  0  0  0  0  0  0  0  0  0  0  0
   -2.1811   -1.9998   -2.3882 H   0  0  0  0  0  0  0  0  0  0  0  0
   -1.8390   -2.6333    0.1897 H   0  0  0  0  0  0  0  0  0  0  0  0
    2.1878   -2.4962   -0.5824 H   0  0  0  0  0  0  0  0  0  0  0  0
   -2.2191   -2.0352   -4.7145 H   0  0  0  0  0  0  0  0  0  0  0  0
   -1.3239   -0.6005   -4.2480 H   0  0  0  0  0  0  0  0  0  0  0  0
    3.0011    2.0919    1.0610 H   0  0  0  0  0  0  0  0  0  0  0  0
   -3.2100    2.1327    0.3201 H   0  0  0  0  0  0  0  0  0  0  0  0
   -0.4070   -0.5062   -6.5478 H   0  0  0  0  0  0  0  0  0  0  0  0
    0.3963   -1.9434   -7.2114 H   0  0  0  0  0  0  0  0  0  0  0  0
   -1.3436   -1.9658   -6.9692 H   0  0  0  0  0  0  0  0  0  0  0  0
    1.1581   -0.6524   -4.4691 H   0  0  0  0  0  0  0  0  0  0  0  0
    1.5037   -2.3479   -3.9704 H   0  0  0  0  0  0  0  0  0  0  0  0
    1.9007   -1.8644   -5.5398 H   0  0  0  0  0  0  0  0  0  0  0  0
   -4.0057   -2.0065    1.1914 H   0  0  0  0  0  0  0  0  0  0  0  0
    4.3453   -1.9033    0.3869 H   0  0  0  0  0  0  0  0  0  0  0  0
    4.7497    0.3990    1.2365 H   0  0  0  0  0  0  0  0  0  0  0  0
   -4.6724    0.3893    1.2869 H   0  0  0  0  0  0  0  0  0  0  0  0
  2  1  1  0  0  0  0
  3  1  1  0  0  0  0
  4  5  1  0  0  0  0
  4  8  1  0  0  0  0
  5  2  1  0  0  0  0
  6  1  2  0  0  0  0
  6 22  1  0  0  0  0
  7  3  1  0  0  0  0
  8  7  1  0  0  0  0
  8 23  1  0  0  0  0
  8 24  1  0  0  0  0
  9 13  1  0  0  0  0
 10  6  1  0  0  0  0
 10 25  1  0  0  0  0
 10 26  1  0  0  0  0
 11  3  2  0  0  0  0
 11 27  1  0  0  0  0
 12  2  2  0  0  0  0
 12 28  1  0  0  0  0
 13 10  1  0  0  0  0
 13 29  1  0  0  0  0
 13 30  1  0  0  0  0
 14  5  2  0  0  0  0
 14 31  1  0  0  0  0
 15  7  2  0  0  0  0
 15 32  1  0  0  0  0
 16  9  1  0  0  0  0
 16 33  1  0  0  0  0
 16 34  1  0  0  0  0
 16 35  1  0  0  0  0
 17  9  1  0  0  0  0
 17 36  1  0  0  0  0
 17 37  1  0  0  0  0
 17 38  1  0  0  0  0
 18 11  1  0  0  0  0
 18 39  1  0  0  0  0
 19 12  1  0  0  0  0
 19 40  1  0  0  0  0
 20 19  2  0  0  0  0
 20 14  1  0  0  0  0
 20 41  1  0  0  0  0
 21 18  2  0  0  0  0
 21 15  1  0  0  0  0
 21 42  1  0  0  0  0
M  END
>  <DRUGBANK_ID>
DB09167

>  <COMMON_NAME>
Dosulepin

>  <CAS_NUMBER>
113-53-1

>  <UNII>
W13O82Z7HL

>  <SYNONYMS>
(3E)-3-dibenzo[b,e]thiepin-11(6H)-ylidene-N,N-dimethylpropan-1-amine; 11-(3-Dimethylaminopropylidene)-6,11-dihydrodibenzo(b,e)thiepin; Dosulepin; Dosulepina; Dosul√©pine; Dosulepinum; Dothiepin; trans-dothiepin

$$$$
