PU1
 OpenBabel10282417123D

 51 53  0  0  0  0  0  0  0  0999 V2000
   -2.1931   -0.2908    0.0119 Cl  0  0  0  0  0  0  0  0  0  0  0  0
   -0.4598   -0.0923   -0.0562 C   0  0  0  0  0  0  0  0  0  0  0  0
    0.1834    1.1772   -0.0225 C   0  0  0  0  0  0  0  0  0  0  0  0
   -0.4467    2.3947   -0.0207 O   0  0  0  0  0  0  0  0  0  0  0  0
   -1.8491    2.5107   -0.0549 C   0  0  0  0  0  0  0  0  0  0  0  0
    1.6063    1.2590   -0.0029 C   0  0  0  0  0  0  0  0  0  0  0  0
    2.3300    2.4292   -0.0020 O   0  0  0  0  0  0  0  0  0  0  0  0
    1.7035    3.6982   -0.0280 C   0  0  0  0  0  0  0  0  0  0  0  0
    2.3681    0.0715    0.0162 C   0  0  0  0  0  0  0  0  0  0  0  0
    3.7484   -0.0300    0.0563 O   0  0  0  0  0  0  0  0  0  0  0  0
    4.5276    1.1713    0.0690 C   0  0  0  0  0  0  0  0  0  0  0  0
    1.6962   -1.1765   -0.0268 C   0  0  0  0  0  0  0  0  0  0  0  0
    0.2805   -1.2851   -0.1184 C   0  0  0  0  0  0  0  0  0  0  0  0
   -0.4485   -2.6533   -0.2538 C   0  0  0  0  0  0  0  0  0  0  0  0
   -0.0333   -3.4609   -1.4633 C   0  0  0  0  0  0  0  0  0  0  0  0
    1.2530   -3.6978   -1.5738 N   0  0  0  0  0  0  0  0  0  0  0  0
    1.4249   -4.5152   -2.6254 C   0  0  0  0  0  0  0  0  0  0  0  0
    2.6266   -5.0366   -3.1170 C   0  0  0  0  0  0  0  0  0  0  0  0
    3.8200   -4.7321   -2.5012 N   0  0  0  0  0  0  0  0  0  0  0  0
    0.2263   -4.8571   -3.2164 C   0  0  0  0  0  0  0  0  0  0  0  0
    0.1585   -5.7156   -4.2637 N   0  0  0  0  0  0  0  0  0  0  0  0
    1.3903   -6.1232   -4.7023 C   0  0  0  0  0  0  0  0  0  0  0  0
    2.6011   -5.8339   -4.1881 N   0  0  0  0  0  0  0  0  0  0  0  0
   -0.7546   -4.1122   -2.5026 N   0  0  0  0  0  0  0  0  0  0  0  0
   -2.2118   -4.0643   -2.7563 C   0  0  0  0  0  0  0  0  0  0  0  0
   -2.7024   -3.5265   -4.1316 C   0  0  0  0  0  0  0  0  0  0  0  0
   -2.2480   -4.3900   -5.3022 C   0  0  0  0  0  0  0  0  0  0  0  0
   -2.7710   -5.7612   -5.1994 C   0  0  0  0  0  0  0  0  0  0  0  0
   -3.1902   -6.8885   -5.0780 C   0  0  0  0  0  0  0  0  0  0  0  0
    1.4237   -6.9040   -5.7985 F   0  0  0  0  0  0  0  0  0  0  0  0
   -2.2432    2.0637   -0.9719 H   0  0  0  0  0  0  0  0  0  0  0  0
   -2.2720    2.1046    0.8676 H   0  0  0  0  0  0  0  0  0  0  0  0
   -2.1216    3.5664   -0.0819 H   0  0  0  0  0  0  0  0  0  0  0  0
    1.1275    3.8251   -0.9495 H   0  0  0  0  0  0  0  0  0  0  0  0
    1.1102    3.8485    0.8786 H   0  0  0  0  0  0  0  0  0  0  0  0
    2.4772    4.4719   -0.0303 H   0  0  0  0  0  0  0  0  0  0  0  0
    4.3753    1.7533   -0.8483 H   0  0  0  0  0  0  0  0  0  0  0  0
    4.3280    1.7612    0.9717 H   0  0  0  0  0  0  0  0  0  0  0  0
    5.5935    0.9210    0.0966 H   0  0  0  0  0  0  0  0  0  0  0  0
    2.3058   -2.0820   -0.0072 H   0  0  0  0  0  0  0  0  0  0  0  0
   -0.1732   -3.2108    0.6544 H   0  0  0  0  0  0  0  0  0  0  0  0
   -1.5328   -2.5879   -0.1990 H   0  0  0  0  0  0  0  0  0  0  0  0
    3.7847   -4.1198   -1.6949 H   0  0  0  0  0  0  0  0  0  0  0  0
    4.6823   -5.1167   -2.8442 H   0  0  0  0  0  0  0  0  0  0  0  0
   -2.6261   -5.0677   -2.5881 H   0  0  0  0  0  0  0  0  0  0  0  0
   -2.6758   -3.4292   -1.9885 H   0  0  0  0  0  0  0  0  0  0  0  0
   -3.8049   -3.4718   -4.1637 H   0  0  0  0  0  0  0  0  0  0  0  0
   -2.3518   -2.4971   -4.2714 H   0  0  0  0  0  0  0  0  0  0  0  0
   -2.5350   -3.9518   -6.2611 H   0  0  0  0  0  0  0  0  0  0  0  0
   -1.1649   -4.3519   -5.3303 H   0  0  0  0  0  0  0  0  0  0  0  0
   -3.5541   -7.8814   -4.9686 H   0  0  0  0  0  0  0  0  0  0  0  0
  1  2  1  0  0  0  0
  2  3  2  0  0  0  0
  2 13  1  0  0  0  0
  3  4  1  0  0  0  0
  3  6  1  0  0  0  0
  4  5  1  0  0  0  0
  5 31  1  0  0  0  0
  5 32  1  0  0  0  0
  5 33  1  0  0  0  0
  6  7  1  0  0  0  0
  6  9  2  0  0  0  0
  7  8  1  0  0  0  0
  8 34  1  0  0  0  0
  8 35  1  0  0  0  0
  8 36  1  0  0  0  0
  9 10  1  0  0  0  0
  9 12  1  0  0  0  0
 10 11  1  0  0  0  0
 11 37  1  0  0  0  0
 11 38  1  0  0  0  0
 11 39  1  0  0  0  0
 12 13  2  0  0  0  0
 12 40  1  0  0  0  0
 13 14  1  0  0  0  0
 14 15  1  0  0  0  0
 14 41  1  0  0  0  0
 14 42  1  0  0  0  0
 15 16  2  0  0  0  0
 15 24  1  0  0  0  0
 16 17  1  0  0  0  0
 17 18  2  0  0  0  0
 17 20  1  0  0  0  0
 18 19  1  0  0  0  0
 18 23  1  0  0  0  0
 19 43  1  0  0  0  0
 19 44  1  0  0  0  0
 20 21  2  0  0  0  0
 20 24  1  0  0  0  0
 21 22  1  0  0  0  0
 22 23  2  0  0  0  0
 22 30  1  0  0  0  0
 24 25  1  0  0  0  0
 25 26  1  0  0  0  0
 25 45  1  0  0  0  0
 25 46  1  0  0  0  0
 26 27  1  0  0  0  0
 26 47  1  0  0  0  0
 26 48  1  0  0  0  0
 27 28  1  0  0  0  0
 27 49  1  0  0  0  0
 27 50  1  0  0  0  0
 28 29  3  0  0  0  0
 29 51  1  0  0  0  0
M  END
>  <DRUGBANK_ID>
DB02550

>  <SECONDARY_ACCESSION_NUMBERS>
EXPT02692

>  <COMMON_NAME>
8-(2-Chloro-3,4,5-Trimethoxy-Benzyl)-2-Fluoro-9-Pent-4-Ylnyl-9h-Purin-6-Ylamine

$$$$
