
 OpenBabel10282417193D

 52 56  0  0  0  0  0  0  0  0999 V2000
   -1.9322   -0.2693    2.8467 C   0  0  0  0  0  0  0  0  0  0  0  0
   -2.2584    0.9721    2.2175 O   0  0  0  0  0  0  0  0  0  0  0  0
   -3.4118    1.5397    2.6971 C   0  0  0  0  0  0  0  0  0  0  0  0
   -4.3800    2.0270    1.8041 C   0  0  0  0  0  0  0  0  0  0  0  0
   -4.4399    2.0029    0.4231 N   0  0  0  0  0  0  0  0  0  0  0  0
   -5.6139    2.5668    0.0009 C   0  0  0  0  0  0  0  0  0  0  0  0
   -6.3283    2.9617    1.1053 C   0  0  0  0  0  0  0  0  0  0  0  0
   -5.5598    2.6343    2.2457 C   0  0  0  0  0  0  0  0  0  0  0  0
   -5.7899    2.7851    3.6217 C   0  0  0  0  0  0  0  0  0  0  0  0
   -4.8415    2.3061    4.5228 C   0  0  0  0  0  0  0  0  0  0  0  0
   -3.6695    1.7031    4.0668 C   0  0  0  0  0  0  0  0  0  0  0  0
   -6.0444    2.7265   -1.3966 C   0  0  0  0  0  0  0  0  0  0  0  0
   -6.0962    1.6880   -2.2809 N   0  0  0  0  0  0  0  0  0  0  0  0
   -6.5902    2.2023   -3.3995 C   0  0  0  0  0  0  0  0  0  0  0  0
   -6.7328    3.5799   -3.2694 N   0  0  0  0  0  0  0  0  0  0  0  0
   -6.4319    3.9016   -1.9864 C   0  0  0  0  0  0  0  0  0  0  0  0
   -6.5001    5.2672   -1.5975 C   0  0  0  0  0  0  0  0  0  0  0  0
   -6.8880    6.1422   -2.4758 N   0  0  0  0  0  0  0  0  0  0  0  0
   -7.1907    5.7132   -3.7404 C   0  0  0  0  0  0  0  0  0  0  0  0
   -7.1009    4.5012   -4.1851 N   0  0  0  0  0  0  0  0  0  0  0  0
   -6.1730    5.7153   -0.3590 N   0  0  0  0  0  0  0  0  0  0  0  0
   -6.9152    1.3722   -4.6238 C   0  0  1  0  0  0  0  0  0  0  0  0
   -7.8937    0.2261   -4.2678 C   0  0  0  0  0  0  0  0  0  0  0  0
   -9.3232    0.7318   -4.0622 C   0  0  0  0  0  0  0  0  0  0  0  0
   -9.8353    1.5307   -5.2663 C   0  0  1  0  0  0  0  0  0  0  0  0
   -8.8804    2.6654   -5.6175 C   0  0  0  0  0  0  0  0  0  0  0  0
   -7.4325    2.1874   -5.8164 C   0  0  0  0  0  0  0  0  0  0  0  0
  -10.1174    0.6693   -6.4781 C   0  0  0  0  0  0  0  0  0  0  0  0
  -11.2094    0.5405   -7.0218 O   0  0  0  0  0  0  0  0  0  0  0  0
   -9.0379    0.0385   -6.9690 O   0  0  0  0  0  0  0  0  0  0  0  0
   -1.0089   -0.6448    2.3940 H   0  0  0  0  0  0  0  0  0  0  0  0
   -2.7208   -1.0088    2.6727 H   0  0  0  0  0  0  0  0  0  0  0  0
   -1.7371   -0.1623    3.9187 H   0  0  0  0  0  0  0  0  0  0  0  0
   -3.7046    1.6650   -0.1839 H   0  0  0  0  0  0  0  0  0  0  0  0
   -7.3116    3.4152    1.0984 H   0  0  0  0  0  0  0  0  0  0  0  0
   -6.7050    3.2498    3.9758 H   0  0  0  0  0  0  0  0  0  0  0  0
   -5.0267    2.3992    5.5894 H   0  0  0  0  0  0  0  0  0  0  0  0
   -2.9527    1.3658    4.8089 H   0  0  0  0  0  0  0  0  0  0  0  0
   -7.5404    6.4903   -4.4434 H   0  0  0  0  0  0  0  0  0  0  0  0
   -5.6986    5.1099    0.2964 H   0  0  0  0  0  0  0  0  0  0  0  0
   -6.1329    6.7088   -0.1907 H   0  0  0  0  0  0  0  0  0  0  0  0
   -5.9708    0.8995   -4.9274 H   0  0  0  0  0  0  0  0  0  0  0  0
   -7.8878   -0.5226   -5.0683 H   0  0  0  0  0  0  0  0  0  0  0  0
   -7.5657   -0.3256   -3.3790 H   0  0  0  0  0  0  0  0  0  0  0  0
   -9.9965   -0.1061   -3.8497 H   0  0  0  0  0  0  0  0  0  0  0  0
   -9.3357    1.3723   -3.1686 H   0  0  0  0  0  0  0  0  0  0  0  0
  -10.7936    1.9854   -4.9776 H   0  0  0  0  0  0  0  0  0  0  0  0
   -9.2117    3.2203   -6.5010 H   0  0  0  0  0  0  0  0  0  0  0  0
   -8.9557    3.3693   -4.7853 H   0  0  0  0  0  0  0  0  0  0  0  0
   -6.7628    3.0255   -6.0356 H   0  0  0  0  0  0  0  0  0  0  0  0
   -7.3719    1.5792   -6.7242 H   0  0  0  0  0  0  0  0  0  0  0  0
   -9.3190   -0.4712   -7.7530 H   0  0  0  0  0  0  0  0  0  0  0  0
  1  2  1  0  0  0  0
  1 31  1  0  0  0  0
  1 32  1  0  0  0  0
  1 33  1  0  0  0  0
  2  3  1  0  0  0  0
  3  4  2  0  0  0  0
  3 11  1  0  0  0  0
  4  5  1  0  0  0  0
  4  8  1  0  0  0  0
  5  6  1  0  0  0  0
  5 34  1  0  0  0  0
  6  7  2  0  0  0  0
  6 12  1  0  0  0  0
  7  8  1  0  0  0  0
  7 35  1  0  0  0  0
  8  9  2  0  0  0  0
  9 10  1  0  0  0  0
  9 36  1  0  0  0  0
 10 11  2  0  0  0  0
 10 37  1  0  0  0  0
 11 38  1  0  0  0  0
 12 13  1  0  0  0  0
 12 16  2  0  0  0  0
 13 14  2  0  0  0  0
 14 15  1  0  0  0  0
 15 16  1  0  0  0  0
 15 20  1  0  0  0  0
 16 17  1  0  0  0  0
 17 18  2  0  0  0  0
 17 21  1  0  0  0  0
 18 19  1  0  0  0  0
 19 20  2  0  0  0  0
 19 39  1  0  0  0  0
 21 40  1  0  0  0  0
 21 41  1  0  0  0  0
 22 23  1  0  0  0  0
 22 27  1  0  0  0  0
 22 42  1  6  0  0  0
 22 14  1  0  0  0  0
 23 24  1  0  0  0  0
 23 43  1  0  0  0  0
 23 44  1  0  0  0  0
 24 25  1  0  0  0  0
 24 45  1  0  0  0  0
 24 46  1  0  0  0  0
 25 26  1  0  0  0  0
 25 28  1  0  0  0  0
 25 47  1  1  0  0  0
 26 27  1  0  0  0  0
 26 48  1  0  0  0  0
 26 49  1  0  0  0  0
 27 50  1  0  0  0  0
 27 51  1  0  0  0  0
 28 29  2  0  0  0  0
 28 30  1  0  0  0  0
 30 52  1  0  0  0  0
M  END
>  <DRUGBANK_ID>
DB12387

>  <COMMON_NAME>
OSI-027

>  <CAS_NUMBER>
936890-98-1

>  <UNII>
25MKH1SZ0M

>  <SYNONYMS>
CYCLOHEXANECARBOXYLIC ACID, 4-(4-AMINO-5-(7-METHOXY-1H-INDOL-2-YL)IMIDAZO(5,1-F)(1,2,4)TRIAZIN-7-YL)-, TRANS-

$$$$
