
 OpenBabel10282417133D

 11 10  0  0  0  0  0  0  0  0999 V2000
    0.9798   -0.0557    0.0579 C   0  0  0  0  0  0  0  0  0  0  0  0
    0.1926   -0.1459    1.3805 C   0  0  0  0  0  0  0  0  0  0  0  0
    0.4028    0.0177   -1.0176 O   0  0  0  0  0  0  0  0  0  0  0  0
   -1.0334   -0.1450    1.3671 O   0  0  0  0  0  0  0  0  0  0  0  0
    2.3503   -0.0598    0.1179 N   0  0  0  0  0  0  0  0  0  0  0  0
    0.9711   -0.2333    2.6612 C   0  0  0  0  0  0  0  0  0  0  0  0
    2.9011   -0.1173    0.9609 H   0  0  0  0  0  0  0  0  0  0  0  0
    2.8393    0.0006   -0.7678 H   0  0  0  0  0  0  0  0  0  0  0  0
    1.5862   -1.1362    2.6694 H   0  0  0  0  0  0  0  0  0  0  0  0
    1.5862    0.6601    2.7919 H   0  0  0  0  0  0  0  0  0  0  0  0
    0.2710   -0.2906    3.5011 H   0  0  0  0  0  0  0  0  0  0  0  0
  2  1  1  0  0  0  0
  3  1  2  0  0  0  0
  4  2  2  0  0  0  0
  5  1  1  0  0  0  0
  5  7  1  0  0  0  0
  5  8  1  0  0  0  0
  6  2  1  0  0  0  0
  6  9  1  0  0  0  0
  6 10  1  0  0  0  0
  6 11  1  0  0  0  0
M  END
>  <DRUGBANK_ID>
DB03578

>  <SECONDARY_ACCESSION_NUMBERS>
EXPT02721

>  <COMMON_NAME>
Pyruvamide

>  <CAS_NUMBER>
631-66-3

>  <UNII>
P4O9E1R444

$$$$
