
 OpenBabel10282417133D

 18 18  0  0  0  0  0  0  0  0999 V2000
    1.0632    0.0033    0.0931 N   0  3  0  0  0  0  0  0  0  0  0  0
    0.5746    0.4149   -1.2422 C   0  0  0  0  0  0  0  0  0  0  0  0
    1.0044   -0.5375   -2.3224 C   0  0  0  0  0  0  0  0  0  0  0  0
    1.6308   -0.0665   -3.4889 C   0  0  0  0  0  0  0  0  0  0  0  0
    1.9468   -0.9516   -4.5254 C   0  0  0  0  0  0  0  0  0  0  0  0
    1.6519   -2.3016   -4.3918 C   0  0  0  0  0  0  0  0  0  0  0  0
    1.9337   -3.1442   -5.3940 F   0  0  0  0  0  0  0  0  0  0  0  0
    1.0547   -2.7912   -3.2404 C   0  0  0  0  0  0  0  0  0  0  0  0
    0.7222   -1.9113   -2.2098 C   0  0  0  0  0  0  0  0  0  0  0  0
    0.7309   -0.9357    0.3387 H   0  0  0  0  0  0  0  0  0  0  0  0
    0.7450    0.6469    0.8262 H   0  0  0  0  0  0  0  0  0  0  0  0
    2.0903   -0.0229    0.1063 H   0  0  0  0  0  0  0  0  0  0  0  0
   -0.5183    0.4550   -1.1899 H   0  0  0  0  0  0  0  0  0  0  0  0
    0.9572    1.4269   -1.4094 H   0  0  0  0  0  0  0  0  0  0  0  0
    1.8635    0.9890   -3.6263 H   0  0  0  0  0  0  0  0  0  0  0  0
    2.4065   -0.5968   -5.4443 H   0  0  0  0  0  0  0  0  0  0  0  0
    0.8306   -3.8512   -3.1615 H   0  0  0  0  0  0  0  0  0  0  0  0
    0.2163   -2.3232   -1.3405 H   0  0  0  0  0  0  0  0  0  0  0  0
  1  2  1  0  0  0  0
  1 10  1  0  0  0  0
  1 11  1  0  0  0  0
  1 12  1  0  0  0  0
  2  3  1  0  0  0  0
  2 13  1  0  0  0  0
  2 14  1  0  0  0  0
  3  4  2  0  0  0  0
  3  9  1  0  0  0  0
  4  5  1  0  0  0  0
  4 15  1  0  0  0  0
  5  6  2  0  0  0  0
  5 16  1  0  0  0  0
  6  7  1  0  0  0  0
  6  8  1  0  0  0  0
  8  9  2  0  0  0  0
  8 17  1  0  0  0  0
  9 18  1  0  0  0  0
M  CHG  1   1   1
M  END
>  <DRUGBANK_ID>
DB03243

>  <SECONDARY_ACCESSION_NUMBERS>
EXPT01394

>  <COMMON_NAME>
4-Fluorobenzylamine

$$$$
