
 OpenBabel10282417183D

 33 32  0  0  0  0  0  0  0  0999 V2000
    0.9286    0.1321   -0.0625 C   0  0  0  0  0  0  0  0  0  0  0  0
    0.2008    0.6098    0.9645 O   0  0  0  0  0  0  0  0  0  0  0  0
    0.3731   -0.3120   -1.0649 O   0  0  0  0  0  0  0  0  0  0  0  0
    6.6163   -3.8164    4.4063 C   0  0  0  0  0  0  0  0  0  0  0  0
    7.3238   -4.5373    5.2777 C   0  0  0  0  0  0  0  0  0  0  0  0
    2.4363    0.1855    0.0512 C   0  0  0  0  0  0  0  0  0  0  0  0
    5.1188   -3.7477    4.4365 C   0  0  0  0  0  0  0  0  0  0  0  0
    2.9677    0.5768    1.4243 C   0  0  0  0  0  0  0  0  0  0  0  0
    4.6610   -2.3095    4.6846 C   0  0  0  0  0  0  0  0  0  0  0  0
    5.1358   -1.3678    3.5696 C   0  0  0  0  0  0  0  0  0  0  0  0
    3.0849   -1.8332    2.1978 C   0  0  0  0  0  0  0  0  0  0  0  0
    2.5463   -0.4373    2.4989 C   0  0  0  0  0  0  0  0  0  0  0  0
    4.6104   -1.8236    2.2029 C   0  0  0  0  0  0  0  0  0  0  0  0
    0.6750    0.9673    1.7369 H   0  0  0  0  0  0  0  0  0  0  0  0
    7.1483   -3.2269    3.6609 H   0  0  0  0  0  0  0  0  0  0  0  0
    8.4068   -4.5251    5.2517 H   0  0  0  0  0  0  0  0  0  0  0  0
    6.8246   -5.1390    6.0280 H   0  0  0  0  0  0  0  0  0  0  0  0
    2.8281   -0.7989   -0.2364 H   0  0  0  0  0  0  0  0  0  0  0  0
    2.8152    0.8865   -0.6985 H   0  0  0  0  0  0  0  0  0  0  0  0
    4.7014   -4.3967    5.2122 H   0  0  0  0  0  0  0  0  0  0  0  0
    4.7236   -4.1377    3.4915 H   0  0  0  0  0  0  0  0  0  0  0  0
    4.0616    0.6596    1.3782 H   0  0  0  0  0  0  0  0  0  0  0  0
    2.6306    1.5837    1.6902 H   0  0  0  0  0  0  0  0  0  0  0  0
    5.0257   -1.9473    5.6516 H   0  0  0  0  0  0  0  0  0  0  0  0
    3.5671   -2.2918    4.7714 H   0  0  0  0  0  0  0  0  0  0  0  0
    6.2261   -1.3027    3.5380 H   0  0  0  0  0  0  0  0  0  0  0  0
    4.8227   -0.3442    3.8010 H   0  0  0  0  0  0  0  0  0  0  0  0
    2.6786   -2.5388    2.9299 H   0  0  0  0  0  0  0  0  0  0  0  0
    2.7116   -2.2127    1.2422 H   0  0  0  0  0  0  0  0  0  0  0  0
    2.8638   -0.0671    3.4789 H   0  0  0  0  0  0  0  0  0  0  0  0
    1.4658   -0.5365    2.6040 H   0  0  0  0  0  0  0  0  0  0  0  0
    4.9800   -2.8168    1.9332 H   0  0  0  0  0  0  0  0  0  0  0  0
    5.0089   -1.1732    1.4186 H   0  0  0  0  0  0  0  0  0  0  0  0
  2  1  1  0  0  0  0
  2 14  1  0  0  0  0
  3  1  2  0  0  0  0
  4  7  1  0  0  0  0
  4 15  1  0  0  0  0
  5  4  2  0  0  0  0
  5 16  1  0  0  0  0
  5 17  1  0  0  0  0
  6  1  1  0  0  0  0
  6 18  1  0  0  0  0
  6 19  1  0  0  0  0
  7  9  1  0  0  0  0
  7 20  1  0  0  0  0
  7 21  1  0  0  0  0
  8  6  1  0  0  0  0
  8 22  1  0  0  0  0
  8 23  1  0  0  0  0
  9 10  1  0  0  0  0
  9 24  1  0  0  0  0
  9 25  1  0  0  0  0
 10 13  1  0  0  0  0
 10 26  1  0  0  0  0
 10 27  1  0  0  0  0
 11 12  1  0  0  0  0
 11 28  1  0  0  0  0
 11 29  1  0  0  0  0
 12  8  1  0  0  0  0
 12 30  1  0  0  0  0
 12 31  1  0  0  0  0
 13 11  1  0  0  0  0
 13 32  1  0  0  0  0
 13 33  1  0  0  0  0
M  END
>  <DRUGBANK_ID>
DB11117

>  <SECONDARY_ACCESSION_NUMBERS>
DBSALT001514

>  <COMMON_NAME>
Undecylenic acid

>  <CAS_NUMBER>
112-38-9

>  <UNII>
K3D86KJ24N

>  <SYNONYMS>
10-undecenoic acid; Ã¡cido 10-undecenoico; Undecenoic acid; Undecylenate; Undecylenic acid

$$$$
