
 OpenBabel10282417123D

 16 16  0  0  0  0  0  0  0  0999 V2000
    1.5407   -0.0037    0.2062 C   0  0  0  0  0  0  0  0  0  0  0  0
    0.7768   -1.2560   -0.2111 C   0  0  0  0  0  0  0  0  0  0  0  0
   -0.6724   -1.1845    0.2532 C   0  0  0  0  0  0  0  0  0  0  0  0
   -1.3016    0.0051   -0.2237 O   0  0  0  0  0  0  0  0  0  0  0  0
   -0.6627    1.1850    0.2642 C   0  0  0  0  0  0  0  0  0  0  0  0
    0.7818    1.2505   -0.2138 C   0  0  0  0  0  0  0  0  0  0  0  0
    1.6695   -0.0026    1.2954 H   0  0  0  0  0  0  0  0  0  0  0  0
    2.5423   -0.0062   -0.2375 H   0  0  0  0  0  0  0  0  0  0  0  0
    0.8000   -1.3314   -1.3052 H   0  0  0  0  0  0  0  0  0  0  0  0
    1.2626   -2.1505    0.1927 H   0  0  0  0  0  0  0  0  0  0  0  0
   -1.2321   -2.0387   -0.1414 H   0  0  0  0  0  0  0  0  0  0  0  0
   -0.7422   -1.2198    1.3466 H   0  0  0  0  0  0  0  0  0  0  0  0
   -0.7215    1.2059    1.3587 H   0  0  0  0  0  0  0  0  0  0  0  0
   -1.2205    2.0478   -0.1137 H   0  0  0  0  0  0  0  0  0  0  0  0
    1.2750    2.1447    0.1812 H   0  0  0  0  0  0  0  0  0  0  0  0
    0.7958    1.3188   -1.3085 H   0  0  0  0  0  0  0  0  0  0  0  0
  1  2  1  0  0  0  0
  1  6  1  0  0  0  0
  1  7  1  0  0  0  0
  1  8  1  0  0  0  0
  2  3  1  0  0  0  0
  2  9  1  0  0  0  0
  2 10  1  0  0  0  0
  3  4  1  0  0  0  0
  3 11  1  0  0  0  0
  3 12  1  0  0  0  0
  4  5  1  0  0  0  0
  5  6  1  0  0  0  0
  5 13  1  0  0  0  0
  5 14  1  0  0  0  0
  6 15  1  0  0  0  0
  6 16  1  0  0  0  0
M  END
>  <DRUGBANK_ID>
DB02412

>  <SECONDARY_ACCESSION_NUMBERS>
EXPT02719

>  <COMMON_NAME>
Tetrahydropyran

>  <CAS_NUMBER>
142-68-7

>  <UNII>
V06I3ILG6B

$$$$
