
 OpenBabel10282417183D

 24 25  0  0  0  0  0  0  0  0999 V2000
    0.9596   -0.0452   -0.0596 S   0  0  0  0  0  0  0  0  0  0  0  0
    0.2962   -1.9874   -0.0619 S   0  0  0  0  0  0  0  0  0  0  0  0
    2.7697   -0.1107   -0.0989 C   0  0  0  0  0  0  0  0  0  0  0  0
   -1.4753   -1.9049   -0.0894 C   0  0  0  0  0  0  0  0  0  0  0  0
    3.5415   -1.2808   -0.0979 N   0  3  0  0  0  0  0  0  0  0  0  0
    3.4419    1.1380   -0.1101 C   0  0  0  0  0  0  0  0  0  0  0  0
   -2.1810   -1.4016   -1.1837 N   0  3  0  0  0  0  0  0  0  0  0  0
   -2.1752   -2.4771    0.9917 C   0  0  0  0  0  0  0  0  0  0  0  0
    3.0808   -2.4651   -0.0648 O   0  5  0  0  0  0  0  0  0  0  0  0
    4.9302   -1.1733   -0.1144 C   0  0  0  0  0  0  0  0  0  0  0  0
    4.8379    1.2096   -0.1205 C   0  0  0  0  0  0  0  0  0  0  0  0
   -1.6159   -0.9105   -2.2161 O   0  5  0  0  0  0  0  0  0  0  0  0
   -3.5711   -1.4531   -1.1540 C   0  0  0  0  0  0  0  0  0  0  0  0
   -3.5664   -2.5195    0.9947 C   0  0  0  0  0  0  0  0  0  0  0  0
    5.5883    0.0483   -0.1246 C   0  0  0  0  0  0  0  0  0  0  0  0
   -4.2703   -2.0018   -0.0800 C   0  0  0  0  0  0  0  0  0  0  0  0
    2.8769    2.0692   -0.1078 H   0  0  0  0  0  0  0  0  0  0  0  0
   -1.6275   -2.9085    1.8277 H   0  0  0  0  0  0  0  0  0  0  0  0
    5.4180   -2.1362   -0.1106 H   0  0  0  0  0  0  0  0  0  0  0  0
    5.3400    2.1762   -0.1253 H   0  0  0  0  0  0  0  0  0  0  0  0
   -4.0271   -1.0418   -2.0406 H   0  0  0  0  0  0  0  0  0  0  0  0
   -4.0942   -2.9678    1.8348 H   0  0  0  0  0  0  0  0  0  0  0  0
    6.6739    0.0737   -0.1337 H   0  0  0  0  0  0  0  0  0  0  0  0
   -5.3563   -2.0301   -0.0965 H   0  0  0  0  0  0  0  0  0  0  0  0
  1  2  1  0  0  0  0
  1  3  1  0  0  0  0
  2  4  1  0  0  0  0
  3  5  1  0  0  0  0
  3  6  2  0  0  0  0
  4  7  1  0  0  0  0
  4  8  2  0  0  0  0
  5  9  1  0  0  0  0
  5 10  2  0  0  0  0
  6 11  1  0  0  0  0
  6 17  1  0  0  0  0
  7 12  1  0  0  0  0
  7 13  2  0  0  0  0
  8 14  1  0  0  0  0
  8 18  1  0  0  0  0
 10 15  1  0  0  0  0
 10 19  1  0  0  0  0
 11 15  2  0  0  0  0
 11 20  1  0  0  0  0
 13 16  1  0  0  0  0
 13 21  1  0  0  0  0
 14 16  2  0  0  0  0
 14 22  1  0  0  0  0
 15 23  1  0  0  0  0
 16 24  1  0  0  0  0
M  CHG  4   5   1   7   1   9  -1  12  -1
M  END
>  <DRUGBANK_ID>
DB11327

>  <COMMON_NAME>
Dipyrithione

>  <CAS_NUMBER>
3696-28-4

>  <UNII>
9L87N86R9A

>  <SYNONYMS>
Bispyrithione; Dipiritiona; Dipyrithione; Dipyrithionum; Omadine disulfide; OMDS; Pyrithione disulfide; Pyrithione disulphide

$$$$
