
 OpenBabel10282417123D

 64 63  0  0  1  0  0  0  0  0999 V2000
   -5.9191   -4.4356   -6.7266 C   0  0  0  0  0  0  0  0  0  0  0  0
   -6.9430   -3.7297   -5.8856 C   0  0  0  0  0  0  0  0  0  0  0  0
   -7.0206   -4.7621   -4.7872 C   0  0  0  0  0  0  0  0  0  0  0  0
   -5.4339   -5.0476   -4.3742 C   0  0  0  0  0  0  0  0  0  0  0  0
   -3.5889   -4.1384   -4.0312 C   0  0  0  0  0  0  0  0  0  0  0  0
   -2.8674   -4.1154   -2.9908 O   0  0  0  0  0  0  0  0  0  0  0  0
   -3.0026   -2.9804   -4.5754 O   0  0  0  0  0  0  0  0  0  0  0  0
   -2.4144   -1.5019   -3.7708 C   0  0  0  0  0  0  0  0  0  0  0  0
   -3.3696   -0.1581   -2.8220 C   0  0  2  0  0  0  0  0  0  0  0  0
   -3.0024   -0.8137   -1.0504 C   0  0  0  0  0  0  0  0  0  0  0  0
   -3.6530   -2.3911   -0.7663 O   0  0  0  0  0  0  0  0  0  0  0  0
   -5.3822   -2.4132   -0.8137 P   0  0  1  0  0  0  0  0  0  0  0  0
   -5.9728   -4.3317   -0.0169 S   0  5  0  0  0  0  0  0  0  0  0  0
   -5.1644   -2.8016    1.2244 S   0  0  0  0  0  0  0  0  0  0  0  0
   -7.1114   -2.4353   -0.8611 O   0  0  0  0  0  0  0  0  0  0  0  0
   -7.8637   -3.4637   -1.9155 C   0  0  0  0  0  0  0  0  0  0  0  0
   -7.3110   -3.0557   -3.3735 C   0  0  0  0  0  0  0  0  0  0  0  0
   -5.3621   -3.1995   -3.3181 N   0  3  0  0  0  0  0  0  0  0  0  0
   -4.6964   -4.9072   -2.4077 C   0  0  0  0  0  0  0  0  0  0  0  0
   -4.9538   -2.2593   -4.9479 C   0  0  0  0  0  0  0  0  0  0  0  0
   -4.4739   -1.9443   -2.8342 C   0  0  0  0  0  0  0  0  0  0  0  0
   -5.1739    0.1937   -3.2573 O   0  0  0  0  0  0  0  0  0  0  0  0
   -6.4603   -0.5347   -3.0002 C   0  0  0  0  0  0  0  0  0  0  0  0
   -6.3506   -1.6854   -2.5250 O   0  0  0  0  0  0  0  0  0  0  0  0
   -7.9482   -0.7470   -2.4044 C   0  0  0  0  0  0  0  0  0  0  0  0
   -8.1277   -0.2370   -1.0416 C   0  0  0  0  0  0  0  0  0  0  0  0
   -7.4987    1.0178   -1.5017 C   0  0  0  0  0  0  0  0  0  0  0  0
   -7.9535    1.3119   -3.0357 C   0  0  0  0  0  0  0  0  0  0  0  0
   -4.9954   -4.7867   -6.2201 H   0  0  0  0  0  0  0  0  0  0  0  0
   -5.4845   -3.7867   -7.4598 H   0  0  0  0  0  0  0  0  0  0  0  0
   -6.4343   -5.3432   -6.9881 H   0  0  0  0  0  0  0  0  0  0  0  0
   -6.6394   -2.7433   -5.5987 H   0  0  0  0  0  0  0  0  0  0  0  0
   -7.8309   -3.2939   -6.3350 H   0  0  0  0  0  0  0  0  0  0  0  0
   -7.6735   -4.7716   -3.8544 H   0  0  0  0  0  0  0  0  0  0  0  0
   -7.7472   -5.5391   -5.0513 H   0  0  0  0  0  0  0  0  0  0  0  0
   -6.0752   -5.4373   -3.3853 H   0  0  0  0  0  0  0  0  0  0  0  0
   -5.3046   -6.0797   -4.6919 H   0  0  0  0  0  0  0  0  0  0  0  0
   -1.6809   -1.9368   -3.0612 H   0  0  0  0  0  0  0  0  0  0  0  0
   -2.2107   -0.9934   -4.6841 H   0  0  0  0  0  0  0  0  0  0  0  0
   -2.9382    0.8448   -2.9133 H   0  0  0  0  0  0  0  0  0  0  0  0
   -1.9326   -1.0071   -0.9305 H   0  0  0  0  0  0  0  0  0  0  0  0
   -3.5019   -0.2192   -0.2805 H   0  0  0  0  0  0  0  0  0  0  0  0
   -7.8864   -4.5456   -1.6400 H   0  0  0  0  0  0  0  0  0  0  0  0
   -8.9859   -3.3132   -1.8228 H   0  0  0  0  0  0  0  0  0  0  0  0
   -8.1241   -3.1688   -4.2076 H   0  0  0  0  0  0  0  0  0  0  0  0
   -7.3768   -2.0799   -3.9842 H   0  0  0  0  0  0  0  0  0  0  0  0
   -4.4276   -5.7851   -3.1516 H   0  0  0  0  0  0  0  0  0  0  0  0
   -3.6786   -5.3568   -2.2575 H   0  0  0  0  0  0  0  0  0  0  0  0
   -4.9646   -5.2791   -1.4862 H   0  0  0  0  0  0  0  0  0  0  0  0
   -5.5434   -1.3457   -5.0196 H   0  0  0  0  0  0  0  0  0  0  0  0
   -4.0055   -1.7594   -5.2689 H   0  0  0  0  0  0  0  0  0  0  0  0
   -4.8473   -2.9960   -5.7008 H   0  0  0  0  0  0  0  0  0  0  0  0
   -4.9544   -0.9830   -2.0989 H   0  0  0  0  0  0  0  0  0  0  0  0
   -4.4326   -1.3590   -1.8825 H   0  0  0  0  0  0  0  0  0  0  0  0
   -3.5823   -2.3892   -2.5382 H   0  0  0  0  0  0  0  0  0  0  0  0
   -8.6722   -0.8269   -3.2125 H   0  0  0  0  0  0  0  0  0  0  0  0
   -8.4003   -1.6871   -2.1606 H   0  0  0  0  0  0  0  0  0  0  0  0
   -9.1860   -0.4607   -0.8853 H   0  0  0  0  0  0  0  0  0  0  0  0
   -7.6181   -0.6532   -0.1399 H   0  0  0  0  0  0  0  0  0  0  0  0
   -7.8040    1.7362   -0.7892 H   0  0  0  0  0  0  0  0  0  0  0  0
   -6.3961    0.8796   -1.4164 H   0  0  0  0  0  0  0  0  0  0  0  0
   -9.0278    1.1011   -3.0972 H   0  0  0  0  0  0  0  0  0  0  0  0
   -7.5029    2.1919   -3.3925 H   0  0  0  0  0  0  0  0  0  0  0  0
   -7.6100    0.6261   -3.8793 H   0  0  0  0  0  0  0  0  0  0  0  0
  1  2  1  0  0  0  0
  1 29  1  0  0  0  0
  1 30  1  0  0  0  0
  1 31  1  0  0  0  0
  2  3  1  0  0  0  0
  2 32  1  0  0  0  0
  2 33  1  0  0  0  0
  3  4  1  0  0  0  0
  3 34  1  0  0  0  0
  3 35  1  0  0  0  0
  4  5  1  0  0  0  0
  4 36  1  0  0  0  0
  4 37  1  0  0  0  0
  5  6  2  0  0  0  0
  5  7  1  0  0  0  0
  7  8  1  0  0  0  0
  8 38  1  0  0  0  0
  8 39  1  0  0  0  0
  9 22  1  0  0  0  0
  9 40  1  6  0  0  0
  9 10  1  0  0  0  0
  9  8  1  0  0  0  0
 10 11  1  0  0  0  0
 10 41  1  0  0  0  0
 10 42  1  0  0  0  0
 12 11  1  0  0  0  0
 12 13  1  6  0  0  0
 12 14  2  0  0  0  0
 12 15  1  0  0  0  0
 15 16  1  0  0  0  0
 16 17  1  0  0  0  0
 16 43  1  0  0  0  0
 16 44  1  0  0  0  0
 17 18  1  0  0  0  0
 17 45  1  0  0  0  0
 17 46  1  0  0  0  0
 18 19  1  0  0  0  0
 18 20  1  0  0  0  0
 18 21  1  0  0  0  0
 19 47  1  0  0  0  0
 19 48  1  0  0  0  0
 19 49  1  0  0  0  0
 20 50  1  0  0  0  0
 20 51  1  0  0  0  0
 20 52  1  0  0  0  0
 21 53  1  0  0  0  0
 21 54  1  0  0  0  0
 21 55  1  0  0  0  0
 22 23  1  0  0  0  0
 23 24  2  0  0  0  0
 23 25  1  0  0  0  0
 25 26  1  0  0  0  0
 25 56  1  0  0  0  0
 25 57  1  0  0  0  0
 26 27  1  0  0  0  0
 26 58  1  0  0  0  0
 26 59  1  0  0  0  0
 27 28  1  0  0  0  0
 27 60  1  0  0  0  0
 27 61  1  0  0  0  0
 28 62  1  0  0  0  0
 28 63  1  0  0  0  0
 28 64  1  0  0  0  0
M  CHG  2  13  -1  18   1
M  END
>  <DRUGBANK_ID>
DB02225

>  <SECONDARY_ACCESSION_NUMBERS>
EXPT02514

>  <COMMON_NAME>
1,2-Di-N-Pentanoyl-Sn-Glycero-3-Dithiophosphocholine

$$$$
