PFE
 OpenBabel10282417123D

 52 55  0  0  0  0  0  0  0  0999 V2000
    0.9505    0.0605    0.0619 O   0  0  0  0  0  0  0  0  0  0  0  0
    0.4560   -1.2686    0.1834 C   0  0  0  0  0  0  0  0  0  0  0  0
    0.8870   -2.1286   -0.9612 C   0  0  0  0  0  0  0  0  0  0  0  0
    1.5949   -1.4859   -2.3954 S   0  0  0  0  0  0  0  0  0  0  0  0
    1.6123   -3.0515   -3.0717 C   0  0  0  0  0  0  0  0  0  0  0  0
    0.7029   -3.4331   -0.9543 N   0  0  0  0  0  0  0  0  0  0  0  0
    1.1001   -3.9514   -2.1564 C   0  0  0  0  0  0  0  0  0  0  0  0
    0.9049   -5.3330   -2.5050 C   0  0  0  0  0  0  0  0  0  0  0  0
   -0.3790   -5.9123   -2.4343 C   0  0  0  0  0  0  0  0  0  0  0  0
    1.9909   -6.0260   -3.0430 C   0  0  0  0  0  0  0  0  0  0  0  0
    1.7462   -7.1648   -3.7669 C   0  0  0  0  0  0  0  0  0  0  0  0
    0.4570   -7.6812   -3.7878 C   0  0  0  0  0  0  0  0  0  0  0  0
   -0.6025   -7.1517   -3.0285 C   0  0  0  0  0  0  0  0  0  0  0  0
   -1.7893   -7.9117   -2.7670 N   0  0  0  0  0  0  0  0  0  0  0  0
   -2.1338   -9.0574   -3.5430 C   0  0  0  0  0  0  0  0  0  0  0  0
   -3.1441   -8.8663   -4.4074 N   0  0  0  0  0  0  0  0  0  0  0  0
   -3.1763   -9.7122   -5.4382 C   0  0  0  0  0  0  0  0  0  0  0  0
   -1.2622  -10.1749   -3.6133 C   0  0  0  0  0  0  0  0  0  0  0  0
   -0.2186  -10.4236   -2.6726 C   0  0  0  0  0  0  0  0  0  0  0  0
    0.8758  -11.2244   -2.9944 C   0  0  0  0  0  0  0  0  0  0  0  0
    1.9930  -11.3059   -2.2137 O   0  0  0  0  0  0  0  0  0  0  0  0
    2.2651  -10.4387   -1.1123 C   0  0  0  0  0  0  0  0  0  0  0  0
    2.4793   -8.9918   -1.4808 C   0  0  0  0  0  0  0  0  0  0  0  0
   -1.3467  -10.9323   -4.7691 C   0  0  0  0  0  0  0  0  0  0  0  0
   -2.3204  -10.7225   -5.6798 N   0  0  0  0  0  0  0  0  0  0  0  0
   -0.3093  -11.8401   -5.0265 C   0  0  0  0  0  0  0  0  0  0  0  0
    0.8459  -11.9218   -4.2089 C   0  0  0  0  0  0  0  0  0  0  0  0
    1.8685  -12.6542   -4.7739 O   0  0  0  0  0  0  0  0  0  0  0  0
    3.1628  -12.6634   -4.1554 C   0  0  0  0  0  0  0  0  0  0  0  0
    3.9048  -11.3309   -4.2733 C   0  0  0  0  0  0  0  0  0  0  0  0
    1.9203   -0.0033    0.0383 H   0  0  0  0  0  0  0  0  0  0  0  0
    0.8185   -1.6940    1.1239 H   0  0  0  0  0  0  0  0  0  0  0  0
   -0.6369   -1.2365    0.2110 H   0  0  0  0  0  0  0  0  0  0  0  0
    1.9448   -3.2420   -4.0848 H   0  0  0  0  0  0  0  0  0  0  0  0
   -1.1848   -5.3680   -1.9461 H   0  0  0  0  0  0  0  0  0  0  0  0
    3.0113   -5.6750   -2.9190 H   0  0  0  0  0  0  0  0  0  0  0  0
    2.5511   -7.7477   -4.2048 H   0  0  0  0  0  0  0  0  0  0  0  0
    0.3691   -8.6100   -4.3287 H   0  0  0  0  0  0  0  0  0  0  0  0
   -2.5993   -7.2933   -2.7687 H   0  0  0  0  0  0  0  0  0  0  0  0
   -3.9449   -9.5292   -6.1855 H   0  0  0  0  0  0  0  0  0  0  0  0
   -0.2171   -9.8389   -1.7623 H   0  0  0  0  0  0  0  0  0  0  0  0
    1.4827  -10.5396   -0.3600 H   0  0  0  0  0  0  0  0  0  0  0  0
    3.2069  -10.7865   -0.6767 H   0  0  0  0  0  0  0  0  0  0  0  0
    1.5457   -8.6336   -1.8783 H   0  0  0  0  0  0  0  0  0  0  0  0
    2.6933   -8.3465   -0.6260 H   0  0  0  0  0  0  0  0  0  0  0  0
    3.2643   -8.8590   -2.2327 H   0  0  0  0  0  0  0  0  0  0  0  0
   -0.3574  -12.4380   -5.9337 H   0  0  0  0  0  0  0  0  0  0  0  0
    3.0966  -13.0429   -3.1295 H   0  0  0  0  0  0  0  0  0  0  0  0
    3.7647  -13.4147   -4.6814 H   0  0  0  0  0  0  0  0  0  0  0  0
    3.3240  -10.4749   -3.9257 H   0  0  0  0  0  0  0  0  0  0  0  0
    4.8359  -11.3563   -3.6979 H   0  0  0  0  0  0  0  0  0  0  0  0
    4.1319  -11.1045   -5.3176 H   0  0  0  0  0  0  0  0  0  0  0  0
  1  2  1  0  0  0  0
  1 31  1  0  0  0  0
  2  3  1  0  0  0  0
  2 32  1  0  0  0  0
  2 33  1  0  0  0  0
  3  4  1  0  0  0  0
  3  6  2  0  0  0  0
  4  5  1  0  0  0  0
  5  7  2  0  0  0  0
  5 34  1  0  0  0  0
  6  7  1  0  0  0  0
  7  8  1  0  0  0  0
  8  9  2  0  0  0  0
  8 10  1  0  0  0  0
  9 13  1  0  0  0  0
  9 35  1  0  0  0  0
 10 11  2  0  0  0  0
 10 36  1  0  0  0  0
 11 12  1  0  0  0  0
 11 37  1  0  0  0  0
 12 13  2  0  0  0  0
 12 38  1  0  0  0  0
 13 14  1  0  0  0  0
 14 15  1  0  0  0  0
 14 39  1  0  0  0  0
 15 16  2  0  0  0  0
 15 18  1  0  0  0  0
 16 17  1  0  0  0  0
 17 25  2  0  0  0  0
 17 40  1  0  0  0  0
 18 19  2  0  0  0  0
 18 24  1  0  0  0  0
 19 20  1  0  0  0  0
 19 41  1  0  0  0  0
 20 21  1  0  0  0  0
 20 27  2  0  0  0  0
 21 22  1  0  0  0  0
 22 23  1  0  0  0  0
 22 42  1  0  0  0  0
 22 43  1  0  0  0  0
 23 44  1  0  0  0  0
 23 45  1  0  0  0  0
 23 46  1  0  0  0  0
 24 25  1  0  0  0  0
 24 26  2  0  0  0  0
 26 27  1  0  0  0  0
 26 47  1  0  0  0  0
 27 28  1  0  0  0  0
 28 29  1  0  0  0  0
 29 30  1  0  0  0  0
 29 48  1  0  0  0  0
 29 49  1  0  0  0  0
 30 50  1  0  0  0  0
 30 51  1  0  0  0  0
 30 52  1  0  0  0  0
M  END
>  <DRUGBANK_ID>
DB02848

>  <SECONDARY_ACCESSION_NUMBERS>
EXPT02557

>  <COMMON_NAME>
{4-[3-(6,7-Diethoxy-Quinazolin-4-Ylamino)-Phenyl]-Thiazol-2-Yl}-Methanol

$$$$
