
 OpenBabel10282417203D

 37 38  0  0  0  0  0  0  0  0999 V2000
    1.4548   -0.2117    0.1355 C   0  0  0  0  0  0  0  0  0  0  0  0
    0.6590   -1.4091    0.6826 C   0  0  0  0  0  0  0  0  0  0  0  0
    1.0677   -1.5789    2.1433 C   0  0  0  0  0  0  0  0  0  0  0  0
   -0.8269   -1.3985    0.6187 N   0  0  0  0  0  0  0  0  0  0  0  0
   -1.3546   -2.2755   -0.4536 C   0  0  0  0  0  0  0  0  0  0  0  0
   -1.0436   -1.7239   -1.8497 C   0  0  0  0  0  0  0  0  0  0  0  0
   -1.6633   -0.4369   -2.0189 O   0  0  0  0  0  0  0  0  0  0  0  0
   -1.1987    0.4882   -1.0138 C   0  0  3  0  0  0  0  0  0  0  0  0
   -1.4327   -0.0651    0.4127 C   0  0  0  0  0  0  0  0  0  0  0  0
   -1.7002    1.8929   -1.1878 C   0  0  0  0  0  0  0  0  0  0  0  0
   -1.2359    2.9223   -0.3432 C   0  0  0  0  0  0  0  0  0  0  0  0
   -1.5452    4.2455   -0.6077 C   0  0  0  0  0  0  0  0  0  0  0  0
   -2.2652    4.5635   -1.7581 C   0  0  0  0  0  0  0  0  0  0  0  0
   -2.6578    3.5509   -2.6498 C   0  0  0  0  0  0  0  0  0  0  0  0
   -2.4289    2.2206   -2.3254 C   0  0  0  0  0  0  0  0  0  0  0  0
   -3.1985    3.8584   -4.0163 C   0  0  0  0  0  0  0  0  0  0  0  0
   -2.3666    3.4051   -4.9987 F   0  0  0  0  0  0  0  0  0  0  0  0
   -4.4046    3.2758   -4.2509 F   0  0  0  0  0  0  0  0  0  0  0  0
   -3.3588    5.1873   -4.2498 F   0  0  0  0  0  0  0  0  0  0  0  0
    1.0832    0.7420    0.5293 H   0  0  0  0  0  0  0  0  0  0  0  0
    1.4497   -0.2059   -0.9572 H   0  0  0  0  0  0  0  0  0  0  0  0
    2.5126   -0.2589    0.4007 H   0  0  0  0  0  0  0  0  0  0  0  0
    1.0290   -2.2963    0.1538 H   0  0  0  0  0  0  0  0  0  0  0  0
    0.7137   -0.7446    2.7578 H   0  0  0  0  0  0  0  0  0  0  0  0
    0.6816   -2.5153    2.5549 H   0  0  0  0  0  0  0  0  0  0  0  0
    2.1609   -1.6111    2.2183 H   0  0  0  0  0  0  0  0  0  0  0  0
   -2.4476   -2.3372   -0.3451 H   0  0  0  0  0  0  0  0  0  0  0  0
   -0.9801   -3.2971   -0.3327 H   0  0  0  0  0  0  0  0  0  0  0  0
    0.0377   -1.6542   -2.0219 H   0  0  0  0  0  0  0  0  0  0  0  0
   -1.4413   -2.3918   -2.6188 H   0  0  0  0  0  0  0  0  0  0  0  0
   -0.1568    0.6438   -1.2586 H   0  0  0  0  0  0  0  0  0  0  0  0
   -2.5191   -0.1471    0.5722 H   0  0  0  0  0  0  0  0  0  0  0  0
   -1.0903    0.6158    1.1994 H   0  0  0  0  0  0  0  0  0  0  0  0
   -0.5803    2.6988    0.4996 H   0  0  0  0  0  0  0  0  0  0  0  0
   -1.1779    5.0345    0.0466 H   0  0  0  0  0  0  0  0  0  0  0  0
   -2.4770    5.6024   -1.9832 H   0  0  0  0  0  0  0  0  0  0  0  0
   -2.7322    1.4297   -3.0144 H   0  0  0  0  0  0  0  0  0  0  0  0
  1  2  1  0  0  0  0
  1 20  1  0  0  0  0
  1 21  1  0  0  0  0
  1 22  1  0  0  0  0
  2  3  1  0  0  0  0
  2  4  1  0  0  0  0
  2 23  1  0  0  0  0
  3 24  1  0  0  0  0
  3 25  1  0  0  0  0
  3 26  1  0  0  0  0
  4  5  1  0  0  0  0
  4  9  1  0  0  0  0
  5  6  1  0  0  0  0
  5 27  1  0  0  0  0
  5 28  1  0  0  0  0
  6  7  1  0  0  0  0
  6 29  1  0  0  0  0
  6 30  1  0  0  0  0
  7  8  1  0  0  0  0
  8  9  1  0  0  0  0
  8 10  1  0  0  0  0
  8 31  1  0  0  0  0
  9 32  1  0  0  0  0
  9 33  1  0  0  0  0
 10 11  2  0  0  0  0
 10 15  1  0  0  0  0
 11 12  1  0  0  0  0
 11 34  1  0  0  0  0
 12 13  2  0  0  0  0
 12 35  1  0  0  0  0
 13 14  1  0  0  0  0
 13 36  1  0  0  0  0
 14 15  2  0  0  0  0
 14 16  1  0  0  0  0
 15 37  1  0  0  0  0
 16 17  1  0  0  0  0
 16 18  1  0  0  0  0
 16 19  1  0  0  0  0
M  END
>  <DRUGBANK_ID>
DB13457

>  <COMMON_NAME>
Oxaflozane

>  <CAS_NUMBER>
26629-87-8

>  <UNII>
V4WLW77V5Q

>  <SYNONYMS>
Oxaflozane

$$$$
