H24
 OpenBabel10282417163D

 45 47  0  0  0  0  0  0  0  0999 V2000
    0.9347    0.1233    0.0137 C   0  0  0  0  0  0  0  0  0  0  0  0
    0.3745    0.9889   -0.9658 O   0  0  0  0  0  0  0  0  0  0  0  0
    0.8184    2.2822   -0.9285 C   0  0  0  0  0  0  0  0  0  0  0  0
    2.1413    2.6602   -0.7006 C   0  0  0  0  0  0  0  0  0  0  0  0
    2.5191    4.0024   -0.7846 C   0  0  0  0  0  0  0  0  0  0  0  0
    1.5885    4.9656   -1.1450 C   0  0  0  0  0  0  0  0  0  0  0  0
    0.2810    4.5915   -1.4527 C   0  0  0  0  0  0  0  0  0  0  0  0
   -0.1161    3.2537   -1.2784 C   0  0  0  0  0  0  0  0  0  0  0  0
   -0.6208    5.5711   -2.0396 C   0  0  0  0  0  0  0  0  0  0  0  0
   -0.3332    6.1517   -3.2879 C   0  0  0  0  0  0  0  0  0  0  0  0
   -1.2300    7.0244   -3.8908 C   0  0  0  0  0  0  0  0  0  0  0  0
   -2.4373    7.2907   -3.2589 C   0  0  0  0  0  0  0  0  0  0  0  0
   -2.7750    6.6522   -2.0442 C   0  0  0  0  0  0  0  0  0  0  0  0
   -4.2230    6.6625   -1.5687 C   0  0  2  0  0  0  0  0  0  0  0  0
   -4.5097    5.8108   -0.3119 C   0  0  0  0  0  0  0  0  0  0  0  0
   -5.0322    6.0021   -2.6804 C   0  0  0  0  0  0  0  0  0  0  0  0
   -6.0903    6.8342   -3.2956 C   0  0  0  0  0  0  0  0  0  0  0  0
   -6.7660    6.3357   -4.2008 O   0  0  0  0  0  0  0  0  0  0  0  0
   -6.2790    8.1107   -2.8140 N   0  0  0  0  0  0  0  0  0  0  0  0
   -7.3584    8.8584   -3.4222 C   0  0  0  0  0  0  0  0  0  0  0  0
   -5.5210    8.6598   -1.8057 C   0  0  0  0  0  0  0  0  0  0  0  0
   -5.7348    9.9242   -1.3769 N   0  0  0  0  0  0  0  0  0  0  0  0
   -4.5764    8.0239   -1.2123 N   0  0  0  0  0  0  0  0  0  0  0  0
   -1.8181    5.8728   -1.4028 C   0  0  0  0  0  0  0  0  0  0  0  0
    0.5563   -0.8857   -0.1783 H   0  0  0  0  0  0  0  0  0  0  0  0
    0.6040    0.4281    1.0109 H   0  0  0  0  0  0  0  0  0  0  0  0
    2.0254    0.0679   -0.0354 H   0  0  0  0  0  0  0  0  0  0  0  0
    2.9115    1.9285   -0.4920 H   0  0  0  0  0  0  0  0  0  0  0  0
    3.5494    4.2976   -0.6161 H   0  0  0  0  0  0  0  0  0  0  0  0
    1.8794    6.0110   -1.2226 H   0  0  0  0  0  0  0  0  0  0  0  0
   -1.1491    2.9572   -1.4568 H   0  0  0  0  0  0  0  0  0  0  0  0
    0.5915    5.9034   -3.8041 H   0  0  0  0  0  0  0  0  0  0  0  0
   -1.0160    7.4475   -4.8683 H   0  0  0  0  0  0  0  0  0  0  0  0
   -3.1582    7.9369   -3.7561 H   0  0  0  0  0  0  0  0  0  0  0  0
   -4.2960    4.7494   -0.4979 H   0  0  0  0  0  0  0  0  0  0  0  0
   -3.9317    6.1271    0.5608 H   0  0  0  0  0  0  0  0  0  0  0  0
   -5.5720    5.8858   -0.0475 H   0  0  0  0  0  0  0  0  0  0  0  0
   -5.5436    5.1038   -2.3128 H   0  0  0  0  0  0  0  0  0  0  0  0
   -4.4018    5.6333   -3.5022 H   0  0  0  0  0  0  0  0  0  0  0  0
   -8.0769    9.1281   -2.6441 H   0  0  0  0  0  0  0  0  0  0  0  0
   -6.9482    9.7617   -3.8795 H   0  0  0  0  0  0  0  0  0  0  0  0
   -7.8811    8.2843   -4.1909 H   0  0  0  0  0  0  0  0  0  0  0  0
   -5.1226   10.2716   -0.6471 H   0  0  0  0  0  0  0  0  0  0  0  0
   -6.4403   10.5452   -1.7373 H   0  0  0  0  0  0  0  0  0  0  0  0
   -2.0138    5.4307   -0.4304 H   0  0  0  0  0  0  0  0  0  0  0  0
  1  2  1  0  0  0  0
  1 25  1  0  0  0  0
  1 26  1  0  0  0  0
  1 27  1  0  0  0  0
  2  3  1  0  0  0  0
  3  4  1  0  0  0  0
  3  8  2  0  0  0  0
  4  5  2  0  0  0  0
  4 28  1  0  0  0  0
  5  6  1  0  0  0  0
  5 29  1  0  0  0  0
  6  7  2  0  0  0  0
  6 30  1  0  0  0  0
  7  8  1  0  0  0  0
  7  9  1  0  0  0  0
  8 31  1  0  0  0  0
  9 10  1  0  0  0  0
  9 24  2  0  0  0  0
 10 11  2  0  0  0  0
 10 32  1  0  0  0  0
 11 12  1  0  0  0  0
 11 33  1  0  0  0  0
 12 13  2  0  0  0  0
 12 34  1  0  0  0  0
 13 24  1  0  0  0  0
 14 13  1  0  0  0  0
 14 15  1  1  0  0  0
 14 16  1  0  0  0  0
 14 23  1  0  0  0  0
 15 35  1  0  0  0  0
 15 36  1  0  0  0  0
 15 37  1  0  0  0  0
 16 17  1  0  0  0  0
 16 38  1  0  0  0  0
 16 39  1  0  0  0  0
 17 18  2  0  0  0  0
 17 19  1  0  0  0  0
 19 20  1  0  0  0  0
 19 21  1  0  0  0  0
 20 40  1  0  0  0  0
 20 41  1  0  0  0  0
 20 42  1  0  0  0  0
 21 23  2  0  0  0  0
 21 22  1  0  0  0  0
 22 43  1  0  0  0  0
 22 44  1  0  0  0  0
 24 45  1  0  0  0  0
M  END
>  <DRUGBANK_ID>
DB07874

>  <COMMON_NAME>
(6S)-2-amino-6-(3'-methoxybiphenyl-3-yl)-3,6-dimethyl-5,6-dihydropyrimidin-4(3H)-one

$$$$
