ATX
 OpenBabel10282417163D

 29 29  0  0  0  0  0  0  0  0999 V2000
    1.0008    1.6249    1.7502 N   0  0  0  0  0  0  0  0  0  0  0  0
    0.5125    0.2717    1.3677 C   0  0  2  0  0  0  0  0  0  0  0  0
    1.0239   -0.1128   -0.0339 C   0  0  0  0  0  0  0  0  0  0  0  0
    1.3842    0.7775   -0.8166 O   0  0  0  0  0  0  0  0  0  0  0  0
   -1.0072    0.3032    1.3953 C   0  0  0  0  0  0  0  0  0  0  0  0
    1.1160   -1.5250   -0.3475 C   0  0  0  0  0  0  0  0  0  0  0  0
    2.0820   -2.0696   -1.0582 N   0  0  0  0  0  0  0  0  0  0  0  0
    1.7891   -3.4063   -1.1700 N   0  0  0  0  0  0  0  0  0  0  0  0
    0.6421   -3.6006   -0.5525 C   0  0  0  0  0  0  0  0  0  0  0  0
    0.1589   -2.4448    0.0306 O   0  0  0  0  0  0  0  0  0  0  0  0
   -0.1203   -4.8966   -0.4345 C   0  0  0  0  0  0  0  0  0  0  0  0
   -0.4064   -5.4543   -1.8434 C   0  0  0  0  0  0  0  0  0  0  0  0
    0.7461   -5.9199    0.3220 C   0  0  0  0  0  0  0  0  0  0  0  0
   -1.4534   -4.7298    0.3063 C   0  0  0  0  0  0  0  0  0  0  0  0
    0.9028   -0.4379    2.1049 H   0  0  0  0  0  0  0  0  0  0  0  0
    0.7073    2.2865    1.0234 H   0  0  0  0  0  0  0  0  0  0  0  0
    2.0215    1.6442    1.6905 H   0  0  0  0  0  0  0  0  0  0  0  0
   -1.4242   -0.6807    1.1642 H   0  0  0  0  0  0  0  0  0  0  0  0
   -1.3775    0.6001    2.3829 H   0  0  0  0  0  0  0  0  0  0  0  0
   -1.4032    1.0096    0.6563 H   0  0  0  0  0  0  0  0  0  0  0  0
    0.5197   -5.6158   -2.4084 H   0  0  0  0  0  0  0  0  0  0  0  0
   -0.9281   -6.4178   -1.7907 H   0  0  0  0  0  0  0  0  0  0  0  0
   -1.0314   -4.7683   -2.4265 H   0  0  0  0  0  0  0  0  0  0  0  0
    0.9737   -5.5745    1.3366 H   0  0  0  0  0  0  0  0  0  0  0  0
    0.2389   -6.8887    0.4022 H   0  0  0  0  0  0  0  0  0  0  0  0
    1.7012   -6.0913   -0.1894 H   0  0  0  0  0  0  0  0  0  0  0  0
   -1.3003   -4.3559    1.3245 H   0  0  0  0  0  0  0  0  0  0  0  0
   -2.1149   -4.0279   -0.2137 H   0  0  0  0  0  0  0  0  0  0  0  0
   -1.9830   -5.6877    0.3826 H   0  0  0  0  0  0  0  0  0  0  0  0
  1 16  1  0  0  0  0
  1 17  1  0  0  0  0
  2  5  1  0  0  0  0
  2 15  1  1  0  0  0
  2  3  1  0  0  0  0
  2  1  1  0  0  0  0
  3  4  2  0  0  0  0
  3  6  1  0  0  0  0
  5 18  1  0  0  0  0
  5 19  1  0  0  0  0
  5 20  1  0  0  0  0
  6  7  2  0  0  0  0
  6 10  1  0  0  0  0
  7  8  1  0  0  0  0
  8  9  2  0  0  0  0
  9 10  1  0  0  0  0
  9 11  1  0  0  0  0
 11 12  1  0  0  0  0
 11 13  1  0  0  0  0
 11 14  1  0  0  0  0
 12 21  1  0  0  0  0
 12 22  1  0  0  0  0
 12 23  1  0  0  0  0
 13 24  1  0  0  0  0
 13 25  1  0  0  0  0
 13 26  1  0  0  0  0
 14 27  1  0  0  0  0
 14 28  1  0  0  0  0
 14 29  1  0  0  0  0
M  END
>  <DRUGBANK_ID>
DB07391

>  <COMMON_NAME>
(2S)-2-AMINO-1-(5-TERT-BUTYL-1,3,4-OXADIAZOL-2-YL)PROPAN-1-ONE

$$$$
