
 OpenBabel10282417153D

 32 32  0  0  1  0  0  0  0  0999 V2000
   -4.5705   -3.3430   -8.2548 C   0  0  0  0  0  0  0  0  0  0  0  0
   -3.2997   -2.7819   -8.8519 C   0  0  0  0  0  0  0  0  0  0  0  0
   -3.0164   -2.6203  -10.0961 N   0  0  0  0  0  0  0  0  0  0  0  0
   -4.0252   -3.0859  -10.9333 O   0  0  0  0  0  0  0  0  0  0  0  0
   -2.2515   -2.4593   -7.9312 C   0  0  0  0  0  0  0  0  0  0  0  0
   -1.3983   -1.3831   -7.9907 N   0  0  0  0  0  0  0  0  0  0  0  0
   -0.5203   -1.5121   -6.9217 C   0  0  0  0  0  0  0  0  0  0  0  0
   -0.5637   -2.8984   -6.7855 C   0  0  0  0  0  0  0  0  0  0  0  0
   -1.8237   -3.3354   -7.0738 N   0  0  0  0  0  0  0  0  0  0  0  0
    0.1311   -0.2817   -6.3038 C   0  0  2  0  0  0  0  0  0  0  0  0
    0.6969   -0.2392   -4.8225 C   0  0  1  0  0  0  0  0  0  0  0  0
   -0.0791   -0.9990   -3.7025 C   0  0  1  0  0  0  0  0  0  0  0  0
   -0.1357   -2.4800   -3.9631 C   0  0  0  0  0  0  0  0  0  0  0  0
    1.1449   -3.0734   -4.1435 O   0  0  0  0  0  0  0  0  0  0  0  0
    0.5359   -0.8381   -2.4272 O   0  0  0  0  0  0  0  0  0  0  0  0
    2.0975   -0.5698   -4.7854 O   0  0  0  0  0  0  0  0  0  0  0  0
   -0.8939    0.7236   -6.4030 O   0  0  0  0  0  0  0  0  0  0  0  0
   -5.3006   -3.5980   -9.0225 H   0  0  0  0  0  0  0  0  0  0  0  0
   -5.0093   -2.5881   -7.5932 H   0  0  0  0  0  0  0  0  0  0  0  0
   -4.3617   -4.2361   -7.6569 H   0  0  0  0  0  0  0  0  0  0  0  0
   -3.6146   -2.9881  -11.8110 H   0  0  0  0  0  0  0  0  0  0  0  0
   -1.4752   -0.5968   -8.6134 H   0  0  0  0  0  0  0  0  0  0  0  0
    0.0297   -3.6077   -6.2249 H   0  0  0  0  0  0  0  0  0  0  0  0
    0.9348    0.0450   -6.9747 H   0  0  0  0  0  0  0  0  0  0  0  0
    0.6853    0.8144   -4.5014 H   0  0  0  0  0  0  0  0  0  0  0  0
   -1.1039   -0.6102   -3.6483 H   0  0  0  0  0  0  0  0  0  0  0  0
   -0.7411   -3.1212   -3.3265 H   0  0  0  0  0  0  0  0  0  0  0  0
   -0.7330   -2.4733   -4.8315 H   0  0  0  0  0  0  0  0  0  0  0  0
    1.4627   -2.9237   -5.0484 H   0  0  0  0  0  0  0  0  0  0  0  0
    1.3237   -1.4195   -2.4646 H   0  0  0  0  0  0  0  0  0  0  0  0
    2.2907   -1.2511   -5.4435 H   0  0  0  0  0  0  0  0  0  0  0  0
   -1.5725    0.5272   -5.7323 H   0  0  0  0  0  0  0  0  0  0  0  0
  1  2  1  0  0  0  0
  1 18  1  0  0  0  0
  1 19  1  0  0  0  0
  1 20  1  0  0  0  0
  2  3  2  0  0  0  0
  2  5  1  0  0  0  0
  3  4  1  0  0  0  0
  4 21  1  0  0  0  0
  5  6  1  0  0  0  0
  5  9  2  0  0  0  0
  6  7  1  0  0  0  0
  6 22  1  0  0  0  0
  7  8  2  0  0  0  0
  8  9  1  0  0  0  0
  8 23  1  0  0  0  0
 10 17  1  0  0  0  0
 10 24  1  6  0  0  0
 10 11  1  0  0  0  0
 10  7  1  0  0  0  0
 11 12  1  0  0  0  0
 11 16  1  0  0  0  0
 11 25  1  1  0  0  0
 12 13  1  0  0  0  0
 12 15  1  0  0  0  0
 12 26  1  1  0  0  0
 13 14  1  0  0  0  0
 13 27  1  0  0  0  0
 13 28  1  0  0  0  0
 14 29  1  0  0  0  0
 15 30  1  0  0  0  0
 16 31  1  0  0  0  0
 17 32  1  0  0  0  0
M  END
>  <DRUGBANK_ID>
DB06297

>  <COMMON_NAME>
LX-2931

>  <CAS_NUMBER>
948840-25-3

>  <UNII>
C5AGI979T7

$$$$
