
 OpenBabel10282417173D

 23 22  0  0  0  0  0  0  0  0999 V2000
    1.0009    0.0992    0.0177 N   0  0  0  0  0  0  0  0  0  0  0  0
    0.5481    1.3359   -0.6074 C   0  0  0  0  0  0  0  0  0  0  0  0
    1.0123    1.4432   -2.0620 C   0  0  0  0  0  0  0  0  0  0  0  0
    0.4575    0.3328   -2.9603 C   0  0  0  0  0  0  0  0  0  0  0  0
   -1.0694    0.3044   -3.0001 C   0  0  0  0  0  0  0  0  0  0  0  0
   -1.5833    1.5043   -3.6368 N   0  0  0  0  0  0  0  0  0  0  0  0
   -2.3741    1.4542   -4.7281 C   0  0  0  0  0  0  0  0  0  0  0  0
   -2.7836    2.6493   -5.1802 N   0  0  0  0  0  0  0  0  0  0  0  0
   -2.7014    0.3556   -5.2995 N   0  0  0  0  0  0  0  0  0  0  0  0
    0.6464   -0.7083   -0.4944 H   0  0  0  0  0  0  0  0  0  0  0  0
    2.0167    0.0396   -0.0506 H   0  0  0  0  0  0  0  0  0  0  0  0
   -0.5425    1.3975   -0.5374 H   0  0  0  0  0  0  0  0  0  0  0  0
    0.9343    2.1851   -0.0361 H   0  0  0  0  0  0  0  0  0  0  0  0
    0.7145    2.4203   -2.4612 H   0  0  0  0  0  0  0  0  0  0  0  0
    2.1086    1.4231   -2.1021 H   0  0  0  0  0  0  0  0  0  0  0  0
    0.8562    0.4536   -3.9752 H   0  0  0  0  0  0  0  0  0  0  0  0
    0.8210   -0.6414   -2.6116 H   0  0  0  0  0  0  0  0  0  0  0  0
   -1.3746   -0.6022   -3.5325 H   0  0  0  0  0  0  0  0  0  0  0  0
   -1.5005    0.2080   -1.9991 H   0  0  0  0  0  0  0  0  0  0  0  0
   -1.4092    2.3851   -3.1790 H   0  0  0  0  0  0  0  0  0  0  0  0
   -3.3606    2.7056   -6.0060 H   0  0  0  0  0  0  0  0  0  0  0  0
   -2.5207    3.5189   -4.7462 H   0  0  0  0  0  0  0  0  0  0  0  0
   -3.2930    0.5457   -6.1051 H   0  0  0  0  0  0  0  0  0  0  0  0
  1  2  1  0  0  0  0
  1 10  1  0  0  0  0
  1 11  1  0  0  0  0
  2  3  1  0  0  0  0
  2 12  1  0  0  0  0
  2 13  1  0  0  0  0
  3  4  1  0  0  0  0
  3 14  1  0  0  0  0
  3 15  1  0  0  0  0
  4  5  1  0  0  0  0
  4 16  1  0  0  0  0
  4 17  1  0  0  0  0
  5  6  1  0  0  0  0
  5 18  1  0  0  0  0
  5 19  1  0  0  0  0
  6  7  1  0  0  0  0
  6 20  1  0  0  0  0
  7  8  1  0  0  0  0
  7  9  2  0  0  0  0
  8 21  1  0  0  0  0
  8 22  1  0  0  0  0
  9 23  1  0  0  0  0
M  END
>  <DRUGBANK_ID>
DB08838

>  <COMMON_NAME>
Agmatine

>  <CAS_NUMBER>
306-60-5

>  <UNII>
70J407ZL5Q

>  <SYNONYMS>
(4-aminobutyl) guanidine; (4-aminobutyl)guanidine; 1-amino-4-guanidobutane; N-(4-aminobutyl)guanidine

$$$$
