
 OpenBabel10282417143D

126133  0  0  0  0  0  0  0  0999 V2000
    1.0390    0.2265    0.1214 S   0  0  0  0  0  0  0  0  0  0  0  0
   -0.9890  -12.6510    0.4992 S   0  0  0  0  0  0  0  0  0  0  0  0
    7.5180   -2.5762    0.3361 S   0  0  0  0  0  0  0  0  0  0  0  0
    1.6985  -12.9560    7.3580 S   0  0  0  0  0  0  0  0  0  0  0  0
    5.8067    2.7854    0.0813 S   0  0  0  0  0  0  0  0  0  0  0  0
   -2.2801   -9.7144    5.0284 S   0  0  0  0  0  0  0  0  0  0  0  0
    0.5067   -0.5731   -1.1844 O   0  0  0  0  0  0  0  0  0  0  0  0
   -0.0960  -11.8655   -0.6097 O   0  0  0  0  0  0  0  0  0  0  0  0
    7.7037   -3.4442    1.6870 O   0  0  0  0  0  0  0  0  0  0  0  0
    1.5536  -14.4054    8.0313 O   0  0  0  0  0  0  0  0  0  0  0  0
    0.6069   -0.5308    1.2851 O   0  0  0  0  0  0  0  0  0  0  0  0
    0.6753    1.5983   -0.0796 O   0  0  0  0  0  0  0  0  0  0  0  0
   -0.8569  -14.0194    0.2592 O   0  0  0  0  0  0  0  0  0  0  0  0
   -2.2755  -11.9127    0.3288 O   0  0  0  0  0  0  0  0  0  0  0  0
    6.6382    2.7567    1.4660 O   0  0  0  0  0  0  0  0  0  0  0  0
   -3.1771  -10.4376    6.1545 O   0  0  0  0  0  0  0  0  0  0  0  0
    7.9478   -3.3770   -0.7814 O   0  0  0  0  0  0  0  0  0  0  0  0
    8.1179   -1.2933    0.6355 O   0  0  0  0  0  0  0  0  0  0  0  0
    3.0372  -12.5465    7.6371 O   0  0  0  0  0  0  0  0  0  0  0  0
    0.5524  -12.2022    7.8540 O   0  0  0  0  0  0  0  0  0  0  0  0
    6.7317    2.6879   -1.0214 O   0  0  0  0  0  0  0  0  0  0  0  0
    4.8405    3.8551    0.1972 O   0  0  0  0  0  0  0  0  0  0  0  0
   -1.3267   -8.8341    5.6725 O   0  0  0  0  0  0  0  0  0  0  0  0
   -3.1801   -9.2394    4.0058 O   0  0  0  0  0  0  0  0  0  0  0  0
   -0.2603   -3.6862   -0.8894 O   0  0  0  0  0  0  0  0  0  0  0  0
    2.2820  -12.9578   -0.6357 O   0  0  0  0  0  0  0  0  0  0  0  0
    4.2634   -5.9817    5.6359 O   0  0  0  0  0  0  0  0  0  0  0  0
    2.3458  -10.1233    6.2289 O   0  0  0  0  0  0  0  0  0  0  0  0
    4.3948  -11.1402   -0.9375 O   0  0  0  0  0  0  0  0  0  0  0  0
    1.5831   -2.5916   -0.3022 N   0  0  0  0  0  0  0  0  0  0  0  0
    1.8536  -13.7882    1.4015 N   0  0  0  0  0  0  0  0  0  0  0  0
    3.7073   -5.2247    3.5690 N   0  0  0  0  0  0  0  0  0  0  0  0
    1.1885   -9.8901    4.3150 N   0  0  0  0  0  0  0  0  0  0  0  0
    4.5483   -9.6804    0.7612 N   0  0  0  0  0  0  0  0  0  0  0  0
    4.7569  -12.1210    1.0606 N   0  0  0  0  0  0  0  0  0  0  0  0
    3.5498   -1.2089    0.0362 C   0  0  0  0  0  0  0  0  0  0  0  0
    0.2838  -13.1691    3.2564 C   0  0  0  0  0  0  0  0  0  0  0  0
    4.9875   -1.1938    0.1614 C   0  0  0  0  0  0  0  0  0  0  0  0
    0.3494  -12.8576    4.7144 C   0  0  0  0  0  0  0  0  0  0  0  0
    2.8374    0.0519    0.0531 C   0  0  0  0  0  0  0  0  0  0  0  0
   -0.6888  -12.4184    2.4054 C   0  0  0  0  0  0  0  0  0  0  0  0
    5.7295   -2.4206    0.2095 C   0  0  0  0  0  0  0  0  0  0  0  0
    1.4055  -13.4126    5.5548 C   0  0  0  0  0  0  0  0  0  0  0  0
    2.9604   -2.4835   -0.1323 C   0  0  0  0  0  0  0  0  0  0  0  0
    1.4103  -13.9099    2.7509 C   0  0  0  0  0  0  0  0  0  0  0  0
    5.6072    0.0675    0.2012 C   0  0  0  0  0  0  0  0  0  0  0  0
   -0.5280  -11.8391    5.1876 C   0  0  0  0  0  0  0  0  0  0  0  0
    4.8951    1.2610    0.1221 C   0  0  0  0  0  0  0  0  0  0  0  0
   -1.3954  -11.1188    4.3463 C   0  0  0  0  0  0  0  0  0  0  0  0
    3.5170    1.2654    0.0641 C   0  0  0  0  0  0  0  0  0  0  0  0
   -1.4764  -11.3949    2.9819 C   0  0  0  0  0  0  0  0  0  0  0  0
    5.0941   -3.6478    0.0790 C   0  0  0  0  0  0  0  0  0  0  0  0
    2.3721  -14.2745    5.0002 C   0  0  0  0  0  0  0  0  0  0  0  0
    3.7443   -3.6594   -0.1760 C   0  0  0  0  0  0  0  0  0  0  0  0
    2.3768  -14.5082    3.6125 C   0  0  0  0  0  0  0  0  0  0  0  0
    0.7448   -3.6081   -0.1901 C   0  0  0  0  0  0  0  0  0  0  0  0
    2.0301  -12.6931    0.5436 C   0  0  0  0  0  0  0  0  0  0  0  0
    1.1374   -4.5716    0.7883 C   0  0  0  0  0  0  0  0  0  0  0  0
    1.7240  -11.2261    0.8946 C   0  0  0  0  0  0  0  0  0  0  0  0
    2.0944   -4.4037    1.8916 C   0  0  0  0  0  0  0  0  0  0  0  0
    1.3991  -10.9147    2.1961 C   0  0  0  0  0  0  0  0  0  0  0  0
    2.7243   -5.4367    2.5662 C   0  0  0  0  0  0  0  0  0  0  0  0
    0.9182   -9.8443    2.9088 C   0  0  0  0  0  0  0  0  0  0  0  0
    0.6998   -5.7274    0.3296 C   0  0  0  0  0  0  0  0  0  0  0  0
    1.5681  -10.1766    0.0543 C   0  0  0  0  0  0  0  0  0  0  0  0
    2.1921   -6.6374    2.2668 C   0  0  0  0  0  0  0  0  0  0  0  0
    0.3585   -8.8767    2.1262 C   0  0  0  0  0  0  0  0  0  0  0  0
    1.2671   -6.6657    1.0935 C   0  0  0  0  0  0  0  0  0  0  0  0
    0.8502   -9.1033    0.6160 C   0  0  0  0  0  0  0  0  0  0  0  0
    2.2570   -7.6271    3.4334 C   0  0  0  0  0  0  0  0  0  0  0  0
   -0.3560   -7.4109    2.8945 C   0  0  0  0  0  0  0  0  0  0  0  0
    4.2796   -6.1585    4.4158 C   0  0  0  0  0  0  0  0  0  0  0  0
    2.2811  -10.4624    5.0459 C   0  0  0  0  0  0  0  0  0  0  0  0
    4.7875   -7.4512    3.8454 C   0  0  0  0  0  0  0  0  0  0  0  0
    3.3503  -11.4719    4.5243 C   0  0  0  0  0  0  0  0  0  0  0  0
    4.8122   -7.7828    2.4183 C   0  0  0  0  0  0  0  0  0  0  0  0
    3.6341  -11.6005    3.1745 C   0  0  0  0  0  0  0  0  0  0  0  0
    4.9840   -9.0874    1.9925 C   0  0  0  0  0  0  0  0  0  0  0  0
    4.5235  -12.3893    2.4523 C   0  0  0  0  0  0  0  0  0  0  0  0
    4.8785   -8.4572    4.7889 C   0  0  0  0  0  0  0  0  0  0  0  0
    4.3336  -12.1054    5.2709 C   0  0  0  0  0  0  0  0  0  0  0  0
    5.5998   -9.8312    2.9456 C   0  0  0  0  0  0  0  0  0  0  0  0
    5.4236  -13.0723    3.2366 C   0  0  0  0  0  0  0  0  0  0  0  0
    5.4629   -9.5810    4.3206 C   0  0  0  0  0  0  0  0  0  0  0  0
    5.3688  -12.8688    4.6399 C   0  0  0  0  0  0  0  0  0  0  0  0
    4.5748  -10.9844    0.2787 C   0  0  0  0  0  0  0  0  0  0  0  0
    0.8210   -0.2038   -2.0346 H   0  0  0  0  0  0  0  0  0  0  0  0
    0.6964  -12.3227   -1.0150 H   0  0  0  0  0  0  0  0  0  0  0  0
    7.6189   -2.8576    2.4668 H   0  0  0  0  0  0  0  0  0  0  0  0
    0.6510  -14.7184    7.8571 H   0  0  0  0  0  0  0  0  0  0  0  0
    6.0521    2.9681    2.2203 H   0  0  0  0  0  0  0  0  0  0  0  0
   -3.7286  -11.1221    5.7247 H   0  0  0  0  0  0  0  0  0  0  0  0
    0.9379   -1.8500   -0.4770 H   0  0  0  0  0  0  0  0  0  0  0  0
    2.1265  -14.6646    0.9610 H   0  0  0  0  0  0  0  0  0  0  0  0
    3.7843   -4.2967    3.9462 H   0  0  0  0  0  0  0  0  0  0  0  0
    0.6661   -9.2342    4.9051 H   0  0  0  0  0  0  0  0  0  0  0  0
    4.1327   -9.0589    0.0657 H   0  0  0  0  0  0  0  0  0  0  0  0
    4.7576  -12.9570    0.4709 H   0  0  0  0  0  0  0  0  0  0  0  0
    6.6829    0.1807    0.2452 H   0  0  0  0  0  0  0  0  0  0  0  0
   -0.3949  -11.3806    6.1717 H   0  0  0  0  0  0  0  0  0  0  0  0
    2.9730    2.2049    0.0177 H   0  0  0  0  0  0  0  0  0  0  0  0
   -1.9877  -10.6761    2.3357 H   0  0  0  0  0  0  0  0  0  0  0  0
    5.6302   -4.5965    0.1236 H   0  0  0  0  0  0  0  0  0  0  0  0
    3.2559  -14.5678    5.5839 H   0  0  0  0  0  0  0  0  0  0  0  0
    3.3050   -4.6426   -0.3434 H   0  0  0  0  0  0  0  0  0  0  0  0
    3.2925  -14.9410    3.1866 H   0  0  0  0  0  0  0  0  0  0  0  0
    2.4159   -3.4116    2.1464 H   0  0  0  0  0  0  0  0  0  0  0  0
    1.6156  -11.6880    2.8634 H   0  0  0  0  0  0  0  0  0  0  0  0
   -0.1947   -5.8976   -0.3007 H   0  0  0  0  0  0  0  0  0  0  0  0
    1.7808  -10.1940   -1.0206 H   0  0  0  0  0  0  0  0  0  0  0  0
    0.3721   -7.2644    0.9743 H   0  0  0  0  0  0  0  0  0  0  0  0
    0.8529   -8.3737   -0.2193 H   0  0  0  0  0  0  0  0  0  0  0  0
    1.3609   -7.8035    3.9653 H   0  0  0  0  0  0  0  0  0  0  0  0
    2.7417   -8.5660    3.1817 H   0  0  0  0  0  0  0  0  0  0  0  0
    2.5871   -7.3091    4.4181 H   0  0  0  0  0  0  0  0  0  0  0  0
    0.1531   -6.4245    2.7817 H   0  0  0  0  0  0  0  0  0  0  0  0
   -1.2793   -7.0751    2.4440 H   0  0  0  0  0  0  0  0  0  0  0  0
   -0.2485   -7.2602    3.9913 H   0  0  0  0  0  0  0  0  0  0  0  0
    4.4792   -7.0572    1.6915 H   0  0  0  0  0  0  0  0  0  0  0  0
    3.3285  -10.7410    2.6253 H   0  0  0  0  0  0  0  0  0  0  0  0
    4.4749   -8.4364    5.8117 H   0  0  0  0  0  0  0  0  0  0  0  0
    4.4759  -11.8190    6.3113 H   0  0  0  0  0  0  0  0  0  0  0  0
    5.9790  -10.7748    2.6253 H   0  0  0  0  0  0  0  0  0  0  0  0
    6.3281  -13.4606    2.7783 H   0  0  0  0  0  0  0  0  0  0  0  0
    5.6492  -10.3500    5.0458 H   0  0  0  0  0  0  0  0  0  0  0  0
    6.2390  -13.1178    5.2461 H   0  0  0  0  0  0  0  0  0  0  0  0
  1  7  1  0  0  0  0
  1 11  2  0  0  0  0
  1 12  2  0  0  0  0
  1 40  1  0  0  0  0
  2  8  1  0  0  0  0
  2 13  2  0  0  0  0
  2 14  2  0  0  0  0
  2 41  1  0  0  0  0
  3  9  1  0  0  0  0
  3 17  2  0  0  0  0
  3 18  2  0  0  0  0
  3 42  1  0  0  0  0
  4 10  1  0  0  0  0
  4 19  2  0  0  0  0
  4 20  2  0  0  0  0
  4 43  1  0  0  0  0
  5 15  1  0  0  0  0
  5 21  2  0  0  0  0
  5 22  2  0  0  0  0
  5 48  1  0  0  0  0
  6 16  1  0  0  0  0
  6 23  2  0  0  0  0
  6 24  2  0  0  0  0
  6 49  1  0  0  0  0
  7 87  1  0  0  0  0
  8 88  1  0  0  0  0
  9 89  1  0  0  0  0
 10 90  1  0  0  0  0
 15 91  1  0  0  0  0
 16 92  1  0  0  0  0
 25 56  2  0  0  0  0
 26 57  2  0  0  0  0
 27 72  2  0  0  0  0
 28 73  2  0  0  0  0
 29 86  2  0  0  0  0
 30 44  1  0  0  0  0
 30 56  1  0  0  0  0
 30 93  1  0  0  0  0
 31 45  1  0  0  0  0
 31 57  1  0  0  0  0
 31 94  1  0  0  0  0
 32 62  1  0  0  0  0
 32 72  1  0  0  0  0
 32 95  1  0  0  0  0
 33 63  1  0  0  0  0
 33 73  1  0  0  0  0
 33 96  1  0  0  0  0
 34 78  1  0  0  0  0
 34 86  1  0  0  0  0
 34 97  1  0  0  0  0
 35 79  1  0  0  0  0
 35 86  1  0  0  0  0
 35 98  1  0  0  0  0
 36 38  1  0  0  0  0
 36 40  1  0  0  0  0
 36 44  2  0  0  0  0
 37 39  1  0  0  0  0
 37 41  1  0  0  0  0
 37 45  2  0  0  0  0
 38 42  2  0  0  0  0
 38 46  1  0  0  0  0
 39 43  2  0  0  0  0
 39 47  1  0  0  0  0
 40 50  2  0  0  0  0
 41 51  2  0  0  0  0
 42 52  1  0  0  0  0
 43 53  1  0  0  0  0
 44 54  1  0  0  0  0
 45 55  1  0  0  0  0
 46 48  2  0  0  0  0
 46 99  1  0  0  0  0
 47 49  2  0  0  0  0
 47100  1  0  0  0  0
 48 50  1  0  0  0  0
 49 51  1  0  0  0  0
 50101  1  0  0  0  0
 51102  1  0  0  0  0
 52 54  2  0  0  0  0
 52103  1  0  0  0  0
 53 55  2  0  0  0  0
 53104  1  0  0  0  0
 54105  1  0  0  0  0
 55106  1  0  0  0  0
 56 58  1  0  0  0  0
 57 59  1  0  0  0  0
 58 60  2  0  0  0  0
 58 64  1  0  0  0  0
 59 61  2  0  0  0  0
 59 65  1  0  0  0  0
 60 62  1  0  0  0  0
 60107  1  0  0  0  0
 61 63  1  0  0  0  0
 61108  1  0  0  0  0
 62 66  2  0  0  0  0
 63 67  2  0  0  0  0
 64 68  2  0  0  0  0
 64109  1  0  0  0  0
 65 69  2  0  0  0  0
 65110  1  0  0  0  0
 66 68  1  0  0  0  0
 66 70  1  0  0  0  0
 67 69  1  0  0  0  0
 67 71  1  0  0  0  0
 68111  1  0  0  0  0
 69112  1  0  0  0  0
 70113  1  0  0  0  0
 70114  1  0  0  0  0
 70115  1  0  0  0  0
 71116  1  0  0  0  0
 71117  1  0  0  0  0
 71118  1  0  0  0  0
 72 74  1  0  0  0  0
 73 75  1  0  0  0  0
 74 76  2  0  0  0  0
 74 80  1  0  0  0  0
 75 77  2  0  0  0  0
 75 81  1  0  0  0  0
 76 78  1  0  0  0  0
 76119  1  0  0  0  0
 77 79  1  0  0  0  0
 77120  1  0  0  0  0
 78 82  2  0  0  0  0
 79 83  2  0  0  0  0
 80 84  2  0  0  0  0
 80121  1  0  0  0  0
 81 85  2  0  0  0  0
 81122  1  0  0  0  0
 82 84  1  0  0  0  0
 82123  1  0  0  0  0
 83 85  1  0  0  0  0
 83124  1  0  0  0  0
 84125  1  0  0  0  0
 85126  1  0  0  0  0
M  END
>  <DRUGBANK_ID>
DB04786

>  <COMMON_NAME>
Suramin

>  <CAS_NUMBER>
145-63-1

>  <UNII>
6032D45BEM

>  <SYNONYMS>
Suramin; Suramine

$$$$
