
 OpenBabel10282417193D

 26 27  0  0  0  0  0  0  0  0999 V2000
   -1.4609    0.0607    0.1705 N   0  0  0  0  0  0  0  0  0  0  0  0
   -0.8272   -1.2096   -0.1864 C   0  0  0  0  0  0  0  0  0  0  0  0
    0.6464   -1.2320    0.2771 C   0  0  0  0  0  0  0  0  0  0  0  0
    1.4337   -0.0649   -0.1846 N   0  0  0  0  0  0  0  0  0  0  0  0
    0.7422    1.1725    0.2485 C   0  0  0  0  0  0  0  0  0  0  0  0
   -0.7298    1.2658   -0.2335 C   0  0  0  0  0  0  0  0  0  0  0  0
   -2.5925    0.1285    0.9549 C   0  0  0  0  0  0  0  0  0  0  0  0
   -2.6700   -0.4919    2.2084 C   0  0  0  0  0  0  0  0  0  0  0  0
   -3.8368   -0.4089    2.9811 C   0  0  0  0  0  0  0  0  0  0  0  0
   -4.9523    0.2771    2.5131 C   0  0  0  0  0  0  0  0  0  0  0  0
   -4.8990    0.8896    1.2656 C   0  0  0  0  0  0  0  0  0  0  0  0
   -3.7240    0.8220    0.5045 C   0  0  0  0  0  0  0  0  0  0  0  0
   -3.8969   -1.1613    4.5300 Cl  0  0  0  0  0  0  0  0  0  0  0  0
   -1.3682   -2.0760    0.2089 H   0  0  0  0  0  0  0  0  0  0  0  0
   -0.8528   -1.2948   -1.2813 H   0  0  0  0  0  0  0  0  0  0  0  0
    0.6878   -1.2737    1.3719 H   0  0  0  0  0  0  0  0  0  0  0  0
    1.1272   -2.1438   -0.0946 H   0  0  0  0  0  0  0  0  0  0  0  0
    1.4480   -0.0765   -1.2048 H   0  0  0  0  0  0  0  0  0  0  0  0
    0.7784    1.2266    1.3438 H   0  0  0  0  0  0  0  0  0  0  0  0
    1.3049    2.0337   -0.1289 H   0  0  0  0  0  0  0  0  0  0  0  0
   -0.7439    1.3292   -1.3288 H   0  0  0  0  0  0  0  0  0  0  0  0
   -1.1844    2.1834    0.1564 H   0  0  0  0  0  0  0  0  0  0  0  0
   -1.8083   -1.0177    2.6077 H   0  0  0  0  0  0  0  0  0  0  0  0
   -5.8601    0.3367    3.1095 H   0  0  0  0  0  0  0  0  0  0  0  0
   -5.7681    1.4132    0.8778 H   0  0  0  0  0  0  0  0  0  0  0  0
   -3.7104    1.2876   -0.4780 H   0  0  0  0  0  0  0  0  0  0  0  0
  1  2  1  0  0  0  0
  1  6  1  0  0  0  0
  1  7  1  0  0  0  0
  2  3  1  0  0  0  0
  2 14  1  0  0  0  0
  2 15  1  0  0  0  0
  3  4  1  0  0  0  0
  3 16  1  0  0  0  0
  3 17  1  0  0  0  0
  4  5  1  0  0  0  0
  4 18  1  0  0  0  0
  5  6  1  0  0  0  0
  5 19  1  0  0  0  0
  5 20  1  0  0  0  0
  6 21  1  0  0  0  0
  6 22  1  0  0  0  0
  7  8  2  0  0  0  0
  8  9  1  0  0  0  0
  8 23  1  0  0  0  0
  9 10  2  0  0  0  0
  9 13  1  0  0  0  0
 10 11  1  0  0  0  0
 10 24  1  0  0  0  0
 11 12  2  0  0  0  0
 11 25  1  0  0  0  0
 12  7  1  0  0  0  0
 12 26  1  0  0  0  0
M  END
>  <DRUGBANK_ID>
DB12110

>  <COMMON_NAME>
m-Chlorophenylpiperazine

>  <CAS_NUMBER>
6640-24-0

>  <UNII>
REY0CNO998

>  <SYNONYMS>
1-(3-chlorophenyl)piperazine; M-CPP; MCPP

$$$$
