C17
 OpenBabel10282417163D

 33 35  0  0  0  0  0  0  0  0999 V2000
   -3.2117    0.4877    0.0831 O   0  0  0  0  0  0  0  0  0  0  0  0
   -2.0568    0.1037   -0.0037 C   0  0  0  0  0  0  0  0  0  0  0  0
   -0.9907    0.9778   -0.0295 O   0  0  0  0  0  0  0  0  0  0  0  0
    0.3215    0.4962    0.0852 C   0  0  0  0  0  0  0  0  0  0  0  0
    0.6260   -0.8586    0.0516 C   0  0  0  0  0  0  0  0  0  0  0  0
   -0.4839   -1.8056   -0.0532 C   0  0  0  0  0  0  0  0  0  0  0  0
   -0.3183   -3.2855   -0.0925 C   0  0  0  0  0  0  0  0  0  0  0  0
    0.7642   -3.8622   -0.0673 O   0  0  0  0  0  0  0  0  0  0  0  0
   -1.7401   -1.3346   -0.0825 C   0  0  0  0  0  0  0  0  0  0  0  0
    1.3036    1.4679    0.2153 C   0  0  0  0  0  0  0  0  0  0  0  0
    2.6491    1.0981    0.2288 C   0  0  0  0  0  0  0  0  0  0  0  0
    2.9824   -0.2519    0.1993 C   0  0  0  0  0  0  0  0  0  0  0  0
    1.9768   -1.2194    0.1255 C   0  0  0  0  0  0  0  0  0  0  0  0
    3.7024    1.9655    0.0967 O   0  0  0  0  0  0  0  0  0  0  0  0
    3.3914    3.3472   -0.1420 C   0  0  0  0  0  0  0  0  0  0  0  0
    2.7396    3.6594   -1.4865 C   0  0  0  0  0  0  0  0  0  0  0  0
    2.5332    4.9895   -1.8681 C   0  0  0  0  0  0  0  0  0  0  0  0
    1.8491    5.2844   -3.0546 C   0  0  0  0  0  0  0  0  0  0  0  0
    1.3012    4.2638   -3.8369 C   0  0  0  0  0  0  0  0  0  0  0  0
    1.4783    2.9461   -3.4572 C   0  0  0  0  0  0  0  0  0  0  0  0
    0.7386    1.6588   -4.3264 Cl  0  0  0  0  0  0  0  0  0  0  0  0
    2.2443    2.6534   -2.3388 C   0  0  0  0  0  0  0  0  0  0  0  0
   -1.2471   -3.8723   -0.1361 H   0  0  0  0  0  0  0  0  0  0  0  0
   -2.6167   -1.9684   -0.1429 H   0  0  0  0  0  0  0  0  0  0  0  0
    0.9829    2.5033    0.1726 H   0  0  0  0  0  0  0  0  0  0  0  0
    4.0239   -0.5654    0.1810 H   0  0  0  0  0  0  0  0  0  0  0  0
    2.2955   -2.2570    0.1051 H   0  0  0  0  0  0  0  0  0  0  0  0
    2.7830    3.7226    0.6932 H   0  0  0  0  0  0  0  0  0  0  0  0
    4.3437    3.8876   -0.0916 H   0  0  0  0  0  0  0  0  0  0  0  0
    2.9034    5.8059   -1.2499 H   0  0  0  0  0  0  0  0  0  0  0  0
    1.7297    6.3179   -3.3670 H   0  0  0  0  0  0  0  0  0  0  0  0
    0.7484    4.4957   -4.7410 H   0  0  0  0  0  0  0  0  0  0  0  0
    2.3960    1.6027   -2.1208 H   0  0  0  0  0  0  0  0  0  0  0  0
  1  2  2  0  0  0  0
  2  3  1  0  0  0  0
  2  9  1  0  0  0  0
  3  4  1  0  0  0  0
  4  5  1  0  0  0  0
  4 10  2  0  0  0  0
  5  6  1  0  0  0  0
  5 13  2  0  0  0  0
  6  7  1  0  0  0  0
  6  9  2  0  0  0  0
  7  8  2  0  0  0  0
  7 23  1  0  0  0  0
  9 24  1  0  0  0  0
 10 11  1  0  0  0  0
 10 25  1  0  0  0  0
 11 12  2  0  0  0  0
 11 14  1  0  0  0  0
 12 13  1  0  0  0  0
 12 26  1  0  0  0  0
 13 27  1  0  0  0  0
 14 15  1  0  0  0  0
 15 16  1  0  0  0  0
 15 28  1  0  0  0  0
 15 29  1  0  0  0  0
 16 17  1  0  0  0  0
 16 22  2  0  0  0  0
 17 18  2  0  0  0  0
 17 30  1  0  0  0  0
 18 19  1  0  0  0  0
 18 31  1  0  0  0  0
 19 20  2  0  0  0  0
 19 32  1  0  0  0  0
 20 21  1  0  0  0  0
 20 22  1  0  0  0  0
 22 33  1  0  0  0  0
M  END
>  <DRUGBANK_ID>
DB07512

>  <COMMON_NAME>
7-[(3-CHLOROBENZYL)OXY]-2-OXO-2H-CHROMENE-4-CARBALDEHYDE

$$$$
