922
 OpenBabel10282417113D

 33 34  0  0  1  0  0  0  0  0999 V2000
    2.2794   -0.4985    0.1714 O   0  0  0  0  0  0  0  0  0  0  0  0
   -0.6104    1.5547    0.1018 N   0  0  0  0  0  0  0  0  0  0  0  0
    0.6695    1.1086    0.2601 N   0  0  0  0  0  0  0  0  0  0  0  0
   -6.6670    2.9886   -0.9240 N   0  0  0  0  0  0  0  0  0  0  0  0
   -6.8653    3.9512   -1.9296 N   0  0  0  0  0  0  0  0  0  0  0  0
   -3.5425    4.2502   -3.4065 N   0  0  0  0  0  0  0  0  0  0  0  0
   -6.7430    6.4233   -4.3777 N   0  0  0  0  0  0  0  0  0  0  0  0
   -1.2652   -0.7801   -0.3928 C   0  0  2  0  0  0  0  0  0  0  0  0
    0.1655   -0.9938   -0.8474 C   0  0  0  0  0  0  0  0  0  0  0  0
   -1.5277    0.6812   -0.2017 C   0  0  0  0  0  0  0  0  0  0  0  0
   -1.5418   -1.5027    0.9153 C   0  0  0  0  0  0  0  0  0  0  0  0
   -2.9289    1.1129   -0.3684 C   0  0  0  0  0  0  0  0  0  0  0  0
    1.1319   -0.1375   -0.0761 C   0  0  0  0  0  0  0  0  0  0  0  0
   -4.0100    0.7109    0.4332 C   0  0  0  0  0  0  0  0  0  0  0  0
   -3.1209    2.1169   -1.2557 C   0  0  0  0  0  0  0  0  0  0  0  0
   -5.3055    1.2673    0.2707 C   0  0  0  0  0  0  0  0  0  0  0  0
   -4.2980    2.8050   -1.0793 C   0  0  0  0  0  0  0  0  0  0  0  0
   -5.4841    2.3104   -0.6148 C   0  0  0  0  0  0  0  0  0  0  0  0
   -6.0646    4.4692   -2.8305 C   0  0  0  0  0  0  0  0  0  0  0  0
   -4.6804    4.2525   -3.1554 C   0  0  0  0  0  0  0  0  0  0  0  0
   -6.5789    5.5331   -3.6334 C   0  0  0  0  0  0  0  0  0  0  0  0
    1.3320    1.7496    0.6890 H   0  0  0  0  0  0  0  0  0  0  0  0
   -7.5163    2.5973   -0.5016 H   0  0  0  0  0  0  0  0  0  0  0  0
   -1.9442   -1.1517   -1.1704 H   0  0  0  0  0  0  0  0  0  0  0  0
    0.4404   -2.0451   -0.7206 H   0  0  0  0  0  0  0  0  0  0  0  0
    0.2766   -0.7345   -1.9069 H   0  0  0  0  0  0  0  0  0  0  0  0
   -2.5782   -1.4009    1.2273 H   0  0  0  0  0  0  0  0  0  0  0  0
   -1.3698   -2.5724    0.8029 H   0  0  0  0  0  0  0  0  0  0  0  0
   -0.9260   -1.1056    1.7283 H   0  0  0  0  0  0  0  0  0  0  0  0
   -3.8640    0.0026    1.2320 H   0  0  0  0  0  0  0  0  0  0  0  0
   -2.3322    2.4998   -1.8961 H   0  0  0  0  0  0  0  0  0  0  0  0
   -6.0982    0.9369    0.9362 H   0  0  0  0  0  0  0  0  0  0  0  0
   -4.2355    3.8847   -1.0556 H   0  0  0  0  0  0  0  0  0  0  0  0
  1 13  2  0  0  0  0
  2  3  1  0  0  0  0
  2 10  2  0  0  0  0
  3 13  1  0  0  0  0
  3 22  1  0  0  0  0
  4  5  1  0  0  0  0
  4 18  1  0  0  0  0
  4 23  1  0  0  0  0
  5 19  2  0  0  0  0
  6 20  3  0  0  0  0
  7 21  3  0  0  0  0
  8  9  1  0  0  0  0
  8 10  1  0  0  0  0
  8 11  1  0  0  0  0
  8 24  1  6  0  0  0
  9 13  1  0  0  0  0
  9 25  1  0  0  0  0
  9 26  1  0  0  0  0
 10 12  1  0  0  0  0
 11 27  1  0  0  0  0
 11 28  1  0  0  0  0
 11 29  1  0  0  0  0
 12 14  2  0  0  0  0
 12 15  1  0  0  0  0
 14 16  1  0  0  0  0
 14 30  1  0  0  0  0
 15 17  2  0  0  0  0
 15 31  1  0  0  0  0
 16 18  2  0  0  0  0
 16 32  1  0  0  0  0
 17 18  1  0  0  0  0
 17 33  1  0  0  0  0
 19 20  1  0  0  0  0
 19 21  1  0  0  0  0
M  END
>  <DRUGBANK_ID>
DB00922

>  <SECONDARY_ACCESSION_NUMBERS>
APRD01296

>  <COMMON_NAME>
Levosimendan

>  <CAS_NUMBER>
141505-33-1

>  <UNII>
C6T4514L4E

>  <SYNONYMS>
Lévosimendan; Levosimendan; Levosimendán; Levosimendanum

$$$$
