
 OpenBabel10282417113D

 75 78  0  0  1  0  0  0  0  0999 V2000
    1.3574   -0.0392    0.4229 C   0  0  0  0  0  0  0  0  0  0  0  0
    4.0638   -3.9706   -3.1755 C   0  0  0  0  0  0  0  0  0  0  0  0
    0.8842    1.0170   -0.5111 C   0  0  0  0  0  0  0  0  0  0  0  0
    3.0836   -4.5294   -2.1566 C   0  0  0  0  0  0  0  0  0  0  0  0
   -0.9233    5.0041   -2.1058 C   0  0  0  0  0  0  0  0  0  0  0  0
   -0.1716    3.9413   -1.7488 C   0  0  0  0  0  0  0  0  0  0  0  0
   -2.1155    4.7559   -2.8242 C   0  0  0  0  0  0  0  0  0  0  0  0
    0.6891   -5.6090   -5.9470 C   0  0  0  0  0  0  0  0  0  0  0  0
   -0.7182    2.7401   -2.1430 C   0  0  0  0  0  0  0  0  0  0  0  0
   -2.5755    3.4589   -3.1866 C   0  0  0  0  0  0  0  0  0  0  0  0
    1.3753   -5.0914   -4.8914 C   0  0  0  0  0  0  0  0  0  0  0  0
   -0.3339   -6.4500   -5.6615 C   0  0  0  0  0  0  0  0  0  0  0  0
   -4.3102  -11.5956   -5.5954 C   0  0  0  0  0  0  0  0  0  0  0  0
   -4.1769  -10.2379   -5.8142 C   0  0  0  0  0  0  0  0  0  0  0  0
   -2.0023    0.9293   -3.2114 C   0  0  0  0  0  0  0  0  0  0  0  0
    1.3368    0.8364   -2.0202 C   0  0  0  0  0  0  0  0  0  0  0  0
   -0.7459    0.2688   -3.7843 C   0  0  0  0  0  0  0  0  0  0  0  0
   -0.1546   -5.9951   -3.2967 C   0  0  0  0  0  0  0  0  0  0  0  0
    1.3770   -0.6939   -3.8644 C   0  0  0  0  0  0  0  0  0  0  0  0
   -2.5297  -11.4764   -3.9908 C   0  0  0  0  0  0  0  0  0  0  0  0
   -1.8051    2.3897   -2.8919 C   0  0  0  0  0  0  0  0  0  0  0  0
    0.9645   -5.1938   -3.5522 C   0  0  0  0  0  0  0  0  0  0  0  0
   -3.4819  -12.2362   -4.6635 C   0  0  0  0  0  0  0  0  0  0  0  0
   -0.8341   -6.5866   -4.3712 C   0  0  0  0  0  0  0  0  0  0  0  0
    1.5654   -4.3370   -2.4404 C   0  0  2  0  0  0  0  0  0  0  0  0
    1.5822   -2.1049   -3.6939 C   0  0  0  0  0  0  0  0  0  0  0  0
   -3.2288   -9.5758   -5.0637 C   0  0  0  0  0  0  0  0  0  0  0  0
    1.1940   -2.8799   -2.6624 C   0  0  0  0  0  0  0  0  0  0  0  0
    0.2365   -2.3223   -1.6723 C   0  0  0  0  0  0  0  0  0  0  0  0
    0.4352   -0.1483   -2.8458 C   0  0  1  0  0  0  0  0  0  0  0  0
   -3.6129  -13.6975   -4.3731 C   0  0  0  0  0  0  0  0  0  0  0  0
   -2.4739  -14.3892   -4.6418 F   0  0  0  0  0  0  0  0  0  0  0  0
   -3.9057  -13.9406   -3.0672 F   0  0  0  0  0  0  0  0  0  0  0  0
   -4.5981  -14.2994   -5.0952 F   0  0  0  0  0  0  0  0  0  0  0  0
   -2.3845  -10.1471   -4.1600 N   0  0  0  0  0  0  0  0  0  0  0  0
   -1.9614   -7.4045   -4.1045 N   0  0  0  0  0  0  0  0  0  0  0  0
    2.2693   -2.4516   -4.8083 O   0  0  0  0  0  0  0  0  0  0  0  0
   -0.1805   -2.9400   -0.7190 O   0  0  0  0  0  0  0  0  0  0  0  0
   -4.3278   -7.2060   -5.0144 O   0  0  0  0  0  0  0  0  0  0  0  0
   -2.5242   -7.7445   -6.6733 O   0  0  0  0  0  0  0  0  0  0  0  0
   -0.1904   -1.0678   -1.9308 O   0  0  0  0  0  0  0  0  0  0  0  0
   -3.0479   -7.8311   -5.3405 S   0  0  0  0  0  0  0  0  0  0  0  0
    1.0963   -4.6832   -1.5027 H   0  0  0  0  0  0  0  0  0  0  0  0
    0.9604   -1.0010    0.1379 H   0  0  0  0  0  0  0  0  0  0  0  0
    0.9476    0.1648    1.4150 H   0  0  0  0  0  0  0  0  0  0  0  0
    2.4395   -0.0704    0.4159 H   0  0  0  0  0  0  0  0  0  0  0  0
    3.9604   -2.8824   -3.2456 H   0  0  0  0  0  0  0  0  0  0  0  0
    5.1108   -4.1275   -2.9387 H   0  0  0  0  0  0  0  0  0  0  0  0
    3.9194   -4.4624   -4.1395 H   0  0  0  0  0  0  0  0  0  0  0  0
   -0.2118    0.9606   -0.3662 H   0  0  0  0  0  0  0  0  0  0  0  0
    1.1905    2.0040   -0.1434 H   0  0  0  0  0  0  0  0  0  0  0  0
    3.3200   -4.0465   -1.1984 H   0  0  0  0  0  0  0  0  0  0  0  0
    3.2831   -5.5985   -2.0419 H   0  0  0  0  0  0  0  0  0  0  0  0
   -0.5998    5.9890   -1.7939 H   0  0  0  0  0  0  0  0  0  0  0  0
    0.7578    3.9872   -1.1819 H   0  0  0  0  0  0  0  0  0  0  0  0
   -2.7069    5.6048   -3.1239 H   0  0  0  0  0  0  0  0  0  0  0  0
    0.9940   -5.3994   -6.9655 H   0  0  0  0  0  0  0  0  0  0  0  0
   -0.3310    1.8602   -1.7974 H   0  0  0  0  0  0  0  0  0  0  0  0
   -3.5223    3.2821   -3.6726 H   0  0  0  0  0  0  0  0  0  0  0  0
    2.2526   -4.6209   -5.2740 H   0  0  0  0  0  0  0  0  0  0  0  0
   -0.6748   -6.9869   -6.5241 H   0  0  0  0  0  0  0  0  0  0  0  0
   -5.0628  -12.1502   -6.1497 H   0  0  0  0  0  0  0  0  0  0  0  0
   -4.7808   -9.7048   -6.5404 H   0  0  0  0  0  0  0  0  0  0  0  0
   -2.7686    0.8330   -3.9855 H   0  0  0  0  0  0  0  0  0  0  0  0
   -2.3340    0.3458   -2.3434 H   0  0  0  0  0  0  0  0  0  0  0  0
    1.3673    1.7552   -2.6373 H   0  0  0  0  0  0  0  0  0  0  0  0
    2.4109    0.6139   -2.0057 H   0  0  0  0  0  0  0  0  0  0  0  0
   -0.3833    0.8534   -4.6412 H   0  0  0  0  0  0  0  0  0  0  0  0
   -1.1046   -0.6900   -4.2176 H   0  0  0  0  0  0  0  0  0  0  0  0
   -0.4847   -6.1533   -2.2696 H   0  0  0  0  0  0  0  0  0  0  0  0
    1.0289   -0.5641   -4.8983 H   0  0  0  0  0  0  0  0  0  0  0  0
    2.3563   -0.1948   -3.8785 H   0  0  0  0  0  0  0  0  0  0  0  0
   -1.8456  -11.9268   -3.2733 H   0  0  0  0  0  0  0  0  0  0  0  0
   -2.4450   -7.2072   -3.2286 H   0  0  0  0  0  0  0  0  0  0  0  0
    2.7083   -3.2589   -4.5954 H   0  0  0  0  0  0  0  0  0  0  0  0
  1 44  1  0  0  0  0
  1 45  1  0  0  0  0
  1 46  1  0  0  0  0
  2 47  1  0  0  0  0
  2 48  1  0  0  0  0
  2 49  1  0  0  0  0
  3  1  1  0  0  0  0
  3 50  1  0  0  0  0
  3 51  1  0  0  0  0
  4  2  1  0  0  0  0
  4 52  1  0  0  0  0
  4 53  1  0  0  0  0
  5 54  1  0  0  0  0
  6  5  2  0  0  0  0
  6 55  1  0  0  0  0
  7  5  1  0  0  0  0
  7 56  1  0  0  0  0
  8 57  1  0  0  0  0
  9  6  1  0  0  0  0
  9 58  1  0  0  0  0
 10  7  2  0  0  0  0
 10 59  1  0  0  0  0
 11  8  2  0  0  0  0
 11 60  1  0  0  0  0
 12  8  1  0  0  0  0
 12 61  1  0  0  0  0
 13 62  1  0  0  0  0
 14 13  2  0  0  0  0
 14 63  1  0  0  0  0
 15 64  1  0  0  0  0
 15 65  1  0  0  0  0
 16  3  1  0  0  0  0
 16 66  1  0  0  0  0
 16 67  1  0  0  0  0
 17 15  1  0  0  0  0
 17 68  1  0  0  0  0
 17 69  1  0  0  0  0
 18 70  1  0  0  0  0
 19 71  1  0  0  0  0
 19 72  1  0  0  0  0
 20 73  1  0  0  0  0
 21  9  2  0  0  0  0
 21 10  1  0  0  0  0
 21 15  1  0  0  0  0
 22 11  1  0  0  0  0
 22 18  2  0  0  0  0
 23 13  1  0  0  0  0
 23 20  2  0  0  0  0
 24 12  2  0  0  0  0
 24 18  1  0  0  0  0
 25 28  1  0  0  0  0
 25 43  1  1  0  0  0
 25 22  1  0  0  0  0
 25  4  1  0  0  0  0
 26 19  1  0  0  0  0
 27 14  1  0  0  0  0
 28 26  2  0  0  0  0
 29 28  1  0  0  0  0
 30 16  1  1  0  0  0
 30 17  1  0  0  0  0
 30 19  1  0  0  0  0
 31 23  1  0  0  0  0
 32 31  1  0  0  0  0
 33 31  1  0  0  0  0
 34 31  1  0  0  0  0
 35 20  1  0  0  0  0
 35 27  2  0  0  0  0
 36 24  1  0  0  0  0
 36 74  1  0  0  0  0
 37 26  1  0  0  0  0
 37 75  1  0  0  0  0
 38 29  2  0  0  0  0
 41 29  1  0  0  0  0
 41 30  1  0  0  0  0
 42 27  1  0  0  0  0
 42 36  1  0  0  0  0
 42 39  2  0  0  0  0
 42 40  2  0  0  0  0
M  END
>  <DRUGBANK_ID>
DB00932

>  <SECONDARY_ACCESSION_NUMBERS>
APRD01306

>  <COMMON_NAME>
Tipranavir

>  <CAS_NUMBER>
174484-41-4

>  <UNII>
ZZT404XD09

>  <SYNONYMS>
Tipranavir

$$$$
