
 OpenBabel10282417243D

 89 91  0  0  1  0  0  0  0  0999 V2000
    1.9784    1.9453    1.6667 C   0  0  0  0  0  0  0  0  0  0  0  0
    1.3843    2.2922    0.3857 C   0  0  0  0  0  0  0  0  0  0  0  0
    2.1579    1.8159   -1.2804 C   0  0  0  0  0  0  0  0  0  0  0  0
    1.1557    2.1203   -2.7794 C   0  0  0  0  0  0  0  0  0  0  0  0
    1.3444    1.6501   -4.0475 O   0  0  0  0  0  0  0  0  0  0  0  0
   -0.3625    2.7723   -2.7756 C   0  0  0  0  0  0  0  0  0  0  0  0
   -1.0904    3.1631   -1.3192 C   0  0  0  0  0  0  0  0  0  0  0  0
   -2.5571    3.4176   -1.8017 C   0  0  0  0  0  0  0  0  0  0  0  0
   -0.3041    3.0883    0.3537 C   0  0  0  0  0  0  0  0  0  0  0  0
   -1.2474    3.3270    1.6770 C   0  0  0  0  0  0  0  0  0  0  0  0
   -2.6783    3.9771    1.5806 C   0  0  2  0  0  0  0  0  0  0  0  0
   -3.8641    3.1752    0.7529 N   0  0  0  0  0  0  0  0  0  0  0  0
   -4.0197    2.0739   -0.2083 C   0  0  0  0  0  0  0  0  0  0  0  0
   -5.0043    2.1334   -0.9609 O   0  0  0  0  0  0  0  0  0  0  0  0
   -2.8198    1.0788   -0.6327 C   0  0  2  0  0  0  0  0  0  0  0  0
   -2.8930   -0.2756   -1.0846 N   0  0  0  0  0  0  0  0  0  0  0  0
   -1.8565    1.1145    0.4191 C   0  0  0  0  0  0  0  0  0  0  0  0
   -0.4446    0.7514    0.2427 C   0  0  0  0  0  0  0  0  0  0  0  0
    0.2437    1.5367   -0.9655 C   0  0  0  0  0  0  0  0  0  0  0  0
    1.0979    3.4135   -1.0710 N   0  0  0  0  0  0  0  0  0  0  0  0
    2.5557    4.0329   -0.4415 C   0  0  0  0  0  0  0  0  0  0  0  0
    2.6375    5.3689   -0.1397 N   0  0  0  0  0  0  0  0  0  0  0  0
    3.6905    3.3852   -0.4894 N   0  0  0  0  0  0  0  0  0  0  0  0
   -2.4222    5.5301    1.4720 C   0  0  0  0  0  0  0  0  0  0  0  0
   -2.4936    6.1879    2.5185 O   0  0  0  0  0  0  0  0  0  0  0  0
   -1.9442    6.2106    0.3579 N   0  0  0  0  0  0  0  0  0  0  0  0
   -1.6806    5.7407   -0.9823 C   0  0  1  0  0  0  0  0  0  0  0  0
   -2.8313    6.0211   -2.0314 C   0  0  0  0  0  0  0  0  0  0  0  0
   -2.6375    7.3977   -2.5355 C   0  0  0  0  0  0  0  0  0  0  0  0
   -1.2948    7.4971   -3.2609 C   0  0  0  0  0  0  0  0  0  0  0  0
   -0.9921    6.4456   -4.3582 C   0  0  0  0  0  0  0  0  0  0  0  0
   -1.9036    6.7700   -5.4235 N   0  0  0  0  0  0  0  0  0  0  0  0
   -0.2490    5.7345   -1.6217 C   0  0  0  0  0  0  0  0  0  0  0  0
    0.2389    5.0078   -2.6271 N   0  0  0  0  0  0  0  0  0  0  0  0
    1.5856    5.2972   -2.7520 C   0  0  0  0  0  0  0  0  0  0  0  0
    2.8117    4.3125   -2.9239 C   0  0  0  0  0  0  0  0  0  0  0  0
    3.1824    4.2716   -4.3116 C   0  0  0  0  0  0  0  0  0  0  0  0
    3.5349    5.5129   -4.7461 C   0  0  0  0  0  0  0  0  0  0  0  0
    3.8065    5.6258   -6.0565 C   0  0  0  0  0  0  0  0  0  0  0  0
    3.7529    4.4935   -6.8776 C   0  0  0  0  0  0  0  0  0  0  0  0
    3.5463    3.2131   -6.3852 C   0  0  0  0  0  0  0  0  0  0  0  0
    3.2956    3.0971   -5.0606 C   0  0  0  0  0  0  0  0  0  0  0  0
    1.7727    6.5176   -2.2046 N   0  0  0  0  0  0  0  0  0  0  0  0
    0.6909    6.6577   -1.2718 O   0  0  0  0  0  0  0  0  0  0  0  0
    2.1369    0.8787    1.5253 H   0  0  0  0  0  0  0  0  0  0  0  0
    2.8369    2.5864    1.7726 H   0  0  0  0  0  0  0  0  0  0  0  0
    1.2036    2.1664    2.3975 H   0  0  0  0  0  0  0  0  0  0  0  0
    3.1375    1.3821   -1.4447 H   0  0  0  0  0  0  0  0  0  0  0  0
    0.9977    2.3781   -4.6237 H   0  0  0  0  0  0  0  0  0  0  0  0
   -0.9479    2.9371   -3.6972 H   0  0  0  0  0  0  0  0  0  0  0  0
   -2.4194    4.0449   -2.6290 H   0  0  0  0  0  0  0  0  0  0  0  0
   -3.1401    2.7141   -2.4089 H   0  0  0  0  0  0  0  0  0  0  0  0
   -3.1874    3.8963   -1.0721 H   0  0  0  0  0  0  0  0  0  0  0  0
   -1.8252    2.4582    1.9640 H   0  0  0  0  0  0  0  0  0  0  0  0
   -0.6811    3.0431    2.5690 H   0  0  0  0  0  0  0  0  0  0  0  0
   -3.1007    3.8399    2.6096 H   0  0  0  0  0  0  0  0  0  0  0  0
   -4.7054    3.7523    0.7270 H   0  0  0  0  0  0  0  0  0  0  0  0
   -2.3209    1.4329   -1.5255 H   0  0  0  0  0  0  0  0  0  0  0  0
   -1.9719   -0.6597   -0.8291 H   0  0  0  0  0  0  0  0  0  0  0  0
   -2.7549   -0.1695   -2.0978 H   0  0  0  0  0  0  0  0  0  0  0  0
   -1.9691    2.1597    0.3143 H   0  0  0  0  0  0  0  0  0  0  0  0
   -2.1364    0.8290    1.4091 H   0  0  0  0  0  0  0  0  0  0  0  0
    0.0149    0.8561    1.2219 H   0  0  0  0  0  0  0  0  0  0  0  0
   -0.2972   -0.3049    0.0546 H   0  0  0  0  0  0  0  0  0  0  0  0
    0.9570    0.6207   -0.9682 H   0  0  0  0  0  0  0  0  0  0  0  0
   -0.3088    1.1022   -1.8374 H   0  0  0  0  0  0  0  0  0  0  0  0
    0.5496    4.2057   -0.7413 H   0  0  0  0  0  0  0  0  0  0  0  0
    3.4588    5.8251   -0.5491 H   0  0  0  0  0  0  0  0  0  0  0  0
    1.8776    5.9671   -0.4362 H   0  0  0  0  0  0  0  0  0  0  0  0
    4.5340    3.9318   -0.5857 H   0  0  0  0  0  0  0  0  0  0  0  0
   -1.8050    7.1929    0.4787 H   0  0  0  0  0  0  0  0  0  0  0  0
   -1.7440    4.7890   -0.5581 H   0  0  0  0  0  0  0  0  0  0  0  0
   -2.8494    5.5158   -3.0096 H   0  0  0  0  0  0  0  0  0  0  0  0
   -3.8353    5.7867   -1.6438 H   0  0  0  0  0  0  0  0  0  0  0  0
   -3.4464    7.6294   -3.2175 H   0  0  0  0  0  0  0  0  0  0  0  0
   -2.6611    7.9942   -1.6277 H   0  0  0  0  0  0  0  0  0  0  0  0
   -1.0164    8.4924   -3.5662 H   0  0  0  0  0  0  0  0  0  0  0  0
   -0.6022    7.4913   -2.4618 H   0  0  0  0  0  0  0  0  0  0  0  0
    0.0607    6.4652   -4.6709 H   0  0  0  0  0  0  0  0  0  0  0  0
   -1.1896    5.3857   -4.1192 H   0  0  0  0  0  0  0  0  0  0  0  0
   -1.7814    6.0977   -6.1718 H   0  0  0  0  0  0  0  0  0  0  0  0
   -2.8426    6.6363   -5.0527 H   0  0  0  0  0  0  0  0  0  0  0  0
    3.6867    4.6863   -2.3857 H   0  0  0  0  0  0  0  0  0  0  0  0
    2.8841    3.2631   -2.7026 H   0  0  0  0  0  0  0  0  0  0  0  0
    3.5421    6.3372   -4.0350 H   0  0  0  0  0  0  0  0  0  0  0  0
    4.0515    6.6133   -6.3960 H   0  0  0  0  0  0  0  0  0  0  0  0
    3.9136    4.6137   -7.9310 H   0  0  0  0  0  0  0  0  0  0  0  0
    3.5974    2.3118   -6.9818 H   0  0  0  0  0  0  0  0  0  0  0  0
    3.1813    2.0919   -4.6604 H   0  0  0  0  0  0  0  0  0  0  0  0
  1  2  1  0  0  0  0
  1 45  1  0  0  0  0
  1 46  1  0  0  0  0
  1 47  1  0  0  0  0
  2  3  2  0  0  0  0
  2  9  1  0  0  0  0
  3  4  1  0  0  0  0
  3 48  1  0  0  0  0
  4  5  1  0  0  0  0
  4  6  2  0  0  0  0
  5 49  1  0  0  0  0
  6  7  1  0  0  0  0
  6 50  1  0  0  0  0
  7  8  1  0  0  0  0
  7  9  2  0  0  0  0
  8 51  1  0  0  0  0
  8 52  1  0  0  0  0
  8 53  1  0  0  0  0
  9 10  1  0  0  0  0
 10 54  1  0  0  0  0
 10 55  1  0  0  0  0
 11 24  1  0  0  0  0
 11 56  1  1  0  0  0
 11 12  1  0  0  0  0
 11 10  1  0  0  0  0
 12 13  1  0  0  0  0
 12 57  1  0  0  0  0
 13 14  2  0  0  0  0
 15 17  1  0  0  0  0
 15 58  1  6  0  0  0
 15 16  1  0  0  0  0
 15 13  1  0  0  0  0
 16 59  1  0  0  0  0
 16 60  1  0  0  0  0
 17 18  1  0  0  0  0
 17 61  1  0  0  0  0
 17 62  1  0  0  0  0
 18 19  1  0  0  0  0
 18 63  1  0  0  0  0
 18 64  1  0  0  0  0
 19 20  1  0  0  0  0
 19 65  1  0  0  0  0
 19 66  1  0  0  0  0
 20 21  1  0  0  0  0
 20 67  1  0  0  0  0
 21 22  1  0  0  0  0
 21 23  2  0  0  0  0
 22 68  1  0  0  0  0
 22 69  1  0  0  0  0
 23 70  1  0  0  0  0
 24 25  2  0  0  0  0
 24 26  1  0  0  0  0
 26 71  1  0  0  0  0
 27 26  1  0  0  0  0
 27 28  1  0  0  0  0
 27 33  1  0  0  0  0
 27 72  1  1  0  0  0
 28 29  1  0  0  0  0
 28 73  1  0  0  0  0
 28 74  1  0  0  0  0
 29 30  1  0  0  0  0
 29 75  1  0  0  0  0
 29 76  1  0  0  0  0
 30 31  1  0  0  0  0
 30 77  1  0  0  0  0
 30 78  1  0  0  0  0
 31 32  1  0  0  0  0
 31 79  1  0  0  0  0
 31 80  1  0  0  0  0
 32 81  1  0  0  0  0
 32 82  1  0  0  0  0
 33 34  2  0  0  0  0
 33 44  1  0  0  0  0
 34 35  1  0  0  0  0
 35 36  1  0  0  0  0
 35 43  2  0  0  0  0
 36 37  1  0  0  0  0
 36 83  1  0  0  0  0
 36 84  1  0  0  0  0
 37 38  2  0  0  0  0
 37 42  1  0  0  0  0
 38 39  1  0  0  0  0
 38 85  1  0  0  0  0
 39 40  2  0  0  0  0
 39 86  1  0  0  0  0
 40 41  1  0  0  0  0
 40 87  1  0  0  0  0
 41 42  2  0  0  0  0
 41 88  1  0  0  0  0
 42 89  1  0  0  0  0
 43 44  1  0  0  0  0
M  END
>  <DRUGBANK_ID>
DB18037

>  <COMMON_NAME>
SBT-272

>  <CAS_NUMBER>
2356106-71-1

>  <UNII>
F553HAL9V8

$$$$
