
 OpenBabel10282417123D

115124  0  0  0  0  0  0  0  0999 V2000
   -0.4657    6.0083    3.9845 C   0  0  0  0  0  0  0  0  0  0  0  0
   -0.1997    4.8044    3.3635 C   0  0  0  0  0  0  0  0  0  0  0  0
    0.0496    5.3870    2.1090 N   0  0  0  0  0  0  0  0  0  0  0  0
    0.5780    4.5318    5.8553 C   0  0  0  0  0  0  0  0  0  0  0  0
   -0.1086    3.4716    5.3408 C   0  0  0  0  0  0  0  0  0  0  0  0
   -0.5343    3.5855    4.0159 C   0  0  0  0  0  0  0  0  0  0  0  0
    0.4134    5.7510    5.1464 C   0  0  0  0  0  0  0  0  0  0  0  0
   -1.5559    6.0908    2.7902 C   0  0  0  0  0  0  0  0  0  0  0  0
   -0.5483    6.7188    2.0444 C   0  0  0  0  0  0  0  0  0  0  0  0
   -0.6455    7.7798    0.8826 C   0  0  2  0  0  0  0  0  0  0  0  0
   -2.7439    5.0497    1.8460 C   0  0  0  0  0  0  0  0  0  0  0  0
   -0.3425    7.1654   -0.5825 C   0  0  0  0  0  0  0  0  0  0  0  0
   -3.3251    4.8188    0.1075 C   0  0  0  0  0  0  0  0  0  0  0  0
   -2.6190    4.4875   -1.3311 N   0  0  3  0  0  0  0  0  0  0  0  0
   -0.8298    5.7526   -0.7210 C   0  0  2  0  0  0  0  0  0  0  0  0
   -1.7059    3.3220   -1.6671 C   0  0  0  0  0  0  0  0  0  0  0  0
    0.1965    4.5605   -0.7818 C   0  0  0  0  0  0  0  0  0  0  0  0
   -0.4776    3.1419   -0.7476 C   0  0  2  0  0  0  0  0  0  0  0  0
   -1.9068    5.6837   -1.7531 C   0  0  0  0  0  0  0  0  0  0  0  0
    0.5426    2.2373   -1.1855 O   0  0  0  0  0  0  0  0  0  0  0  0
   -0.8933    2.5152    0.6011 C   0  0  0  0  0  0  0  0  0  0  0  0
   -2.2750    1.8624    0.6397 C   0  0  0  0  0  0  0  0  0  0  0  0
   -0.7903   14.6074   -0.7258 C   0  0  2  0  0  0  0  0  0  0  0  0
    0.5501   15.8494   -1.0442 C   0  0  0  0  0  0  0  0  0  0  0  0
    0.7423   15.9582   -2.3760 N   0  0  0  0  0  0  0  0  0  0  0  0
    0.2314   14.7409   -2.5194 C   0  0  0  0  0  0  0  0  0  0  0  0
   -1.0923   14.7143   -2.0995 O   0  0  0  0  0  0  0  0  0  0  0  0
    0.1825   13.1253    1.2053 C   0  0  2  0  0  0  0  0  0  0  0  0
   -0.4452   13.0954   -0.2612 C   0  0  1  0  0  0  0  0  0  0  0  0
   -2.2403   14.7221    0.2243 C   0  0  0  0  0  0  0  0  0  0  0  0
   -1.8575   14.8277    1.7429 C   0  0  1  0  0  0  0  0  0  0  0  0
   -0.5667   14.0791    2.2554 C   0  0  2  0  0  0  0  0  0  0  0  0
    1.7812   14.6506    2.6493 C   0  0  0  0  0  0  0  0  0  0  0  0
    1.5546   13.9227    1.3023 C   0  0  0  0  0  0  0  0  0  0  0  0
    0.4315   11.6106    1.1668 C   0  0  0  0  0  0  0  0  0  0  0  0
    1.1437   11.4077    0.0256 C   0  0  0  0  0  0  0  0  0  0  0  0
    0.3748   12.0078   -1.0363 N   0  0  0  0  0  0  0  0  0  0  0  0
    0.2055    9.0921    1.0398 C   0  0  0  0  0  0  0  0  0  0  0  0
    1.5653    9.1247    0.7992 C   0  0  0  0  0  0  0  0  0  0  0  0
    2.0492   10.3518    0.2650 C   0  0  0  0  0  0  0  0  0  0  0  0
   -0.3558   10.4398    1.2253 C   0  0  0  0  0  0  0  0  0  0  0  0
    0.4959   15.2462    2.8748 N   0  0  3  0  0  0  0  0  0  0  0  0
   -1.3395   16.1958    1.4506 C   0  0  0  0  0  0  0  0  0  0  0  0
   -0.8082   17.0667    2.2997 C   0  0  0  0  0  0  0  0  0  0  0  0
    0.5946   16.7297    2.2939 C   0  0  0  0  0  0  0  0  0  0  0  0
    1.0470   13.9121   -2.4142 O   0  0  0  0  0  0  0  0  0  0  0  0
    2.0632   16.0132   -3.1064 C   0  0  0  0  0  0  0  0  0  0  0  0
    1.7263   16.6050   -4.4560 C   0  0  0  0  0  0  0  0  0  0  0  0
    1.4240   18.3391   -4.2440 Cl  0  0  0  0  0  0  0  0  0  0  0  0
    1.4759   16.2723   -0.3513 O   0  0  0  0  0  0  0  0  0  0  0  0
    0.0664   11.8612   -2.5406 C   0  0  0  0  0  0  0  0  0  0  0  0
   -1.4392   12.5829   -0.2532 H   0  0  0  0  0  0  0  0  0  0  0  0
    2.4701    8.1611    1.2218 O   0  0  0  0  0  0  0  0  0  0  0  0
    2.3727    7.0225    0.3879 C   0  0  0  0  0  0  0  0  0  0  0  0
   -0.8189   13.4094    3.1004 H   0  0  0  0  0  0  0  0  0  0  0  0
   -2.9353   14.8823    2.8643 C   0  0  0  0  0  0  0  0  0  0  0  0
   -3.3797   16.3030    3.2009 C   0  0  0  0  0  0  0  0  0  0  0  0
   -2.1645    8.1787    0.8934 C   0  0  0  0  0  0  0  0  0  0  0  0
   -2.7155    8.7307    2.0107 O   0  0  0  0  0  0  0  0  0  0  0  0
   -2.0447    9.0760    3.2401 C   0  0  0  0  0  0  0  0  0  0  0  0
   -2.9037    7.9855   -0.0712 O   0  0  0  0  0  0  0  0  0  0  0  0
   -0.0807    4.7868    1.3433 H   0  0  0  0  0  0  0  0  0  0  0  0
    1.2300    4.4165    6.7254 H   0  0  0  0  0  0  0  0  0  0  0  0
   -0.2128    2.5481    5.9023 H   0  0  0  0  0  0  0  0  0  0  0  0
   -1.1120    2.7984    3.5560 H   0  0  0  0  0  0  0  0  0  0  0  0
    1.2022    6.4871    5.4112 H   0  0  0  0  0  0  0  0  0  0  0  0
   -3.2878    4.4161    2.5549 H   0  0  0  0  0  0  0  0  0  0  0  0
   -2.0183    4.3471    1.5988 H   0  0  0  0  0  0  0  0  0  0  0  0
   -0.6992    7.8545   -1.3575 H   0  0  0  0  0  0  0  0  0  0  0  0
    0.6622    7.0478   -0.9304 H   0  0  0  0  0  0  0  0  0  0  0  0
   -4.0471    5.6152   -0.1271 H   0  0  0  0  0  0  0  0  0  0  0  0
   -4.0119    3.9607    0.1677 H   0  0  0  0  0  0  0  0  0  0  0  0
   -1.3468    5.6131    0.1897 H   0  0  0  0  0  0  0  0  0  0  0  0
   -2.2455    2.3813   -1.8178 H   0  0  0  0  0  0  0  0  0  0  0  0
   -1.2883    3.4583   -2.6869 H   0  0  0  0  0  0  0  0  0  0  0  0
    0.9697    4.5924   -0.0103 H   0  0  0  0  0  0  0  0  0  0  0  0
    0.7788    4.6712   -1.7017 H   0  0  0  0  0  0  0  0  0  0  0  0
   -1.4682    5.6893   -2.7611 H   0  0  0  0  0  0  0  0  0  0  0  0
   -2.5979    6.5247   -1.7382 H   0  0  0  0  0  0  0  0  0  0  0  0
    0.4248    2.0238   -2.1206 H   0  0  0  0  0  0  0  0  0  0  0  0
   -0.1517    1.9133    1.1413 H   0  0  0  0  0  0  0  0  0  0  0  0
   -0.9055    3.3016    1.2869 H   0  0  0  0  0  0  0  0  0  0  0  0
   -2.2664    0.8547    0.2330 H   0  0  0  0  0  0  0  0  0  0  0  0
   -2.7250    1.9048    1.6358 H   0  0  0  0  0  0  0  0  0  0  0  0
   -2.9960    2.3833    0.0259 H   0  0  0  0  0  0  0  0  0  0  0  0
   -2.9398   15.5523   -0.0078 H   0  0  0  0  0  0  0  0  0  0  0  0
   -2.8999   13.8618    0.0079 H   0  0  0  0  0  0  0  0  0  0  0  0
    2.5133   15.4740    2.7073 H   0  0  0  0  0  0  0  0  0  0  0  0
    2.0281   14.0066    3.4955 H   0  0  0  0  0  0  0  0  0  0  0  0
    2.4767   13.8609    0.7160 H   0  0  0  0  0  0  0  0  0  0  0  0
    1.1658   14.6137    0.6112 H   0  0  0  0  0  0  0  0  0  0  0  0
    2.9174   10.5943    0.9469 H   0  0  0  0  0  0  0  0  0  0  0  0
   -1.4380   10.5671    1.1937 H   0  0  0  0  0  0  0  0  0  0  0  0
   -0.5550   15.9396    0.7675 H   0  0  0  0  0  0  0  0  0  0  0  0
   -1.0302   17.1943    3.3344 H   0  0  0  0  0  0  0  0  0  0  0  0
    1.1527   17.5205    2.8170 H   0  0  0  0  0  0  0  0  0  0  0  0
    0.8625   16.9932    1.2695 H   0  0  0  0  0  0  0  0  0  0  0  0
    2.9216   16.4602   -2.5845 H   0  0  0  0  0  0  0  0  0  0  0  0
    2.4430   14.9965   -3.3453 H   0  0  0  0  0  0  0  0  0  0  0  0
    2.4991   16.4482   -5.2112 H   0  0  0  0  0  0  0  0  0  0  0  0
    0.8009   16.1404   -4.8241 H   0  0  0  0  0  0  0  0  0  0  0  0
   -0.5010   11.0251   -2.9611 H   0  0  0  0  0  0  0  0  0  0  0  0
   -0.6483   12.6576   -2.8537 H   0  0  0  0  0  0  0  0  0  0  0  0
    0.9454   12.0331   -3.1922 H   0  0  0  0  0  0  0  0  0  0  0  0
    1.4872    6.5008    0.7034 H   0  0  0  0  0  0  0  0  0  0  0  0
    2.3707    7.3618   -0.6509 H   0  0  0  0  0  0  0  0  0  0  0  0
    3.1010    6.2112    0.4497 H   0  0  0  0  0  0  0  0  0  0  0  0
   -3.8114   14.2807    2.6098 H   0  0  0  0  0  0  0  0  0  0  0  0
   -2.5385   14.4382    3.7937 H   0  0  0  0  0  0  0  0  0  0  0  0
   -3.5838   16.8609    2.2799 H   0  0  0  0  0  0  0  0  0  0  0  0
   -4.1991   16.3732    3.9003 H   0  0  0  0  0  0  0  0  0  0  0  0
   -2.6183   16.8230    3.7707 H   0  0  0  0  0  0  0  0  0  0  0  0
   -1.6891    8.2209    3.7927 H   0  0  0  0  0  0  0  0  0  0  0  0
   -1.2097    9.7538    3.1263 H   0  0  0  0  0  0  0  0  0  0  0  0
   -2.7708    9.5969    3.8572 H   0  0  0  0  0  0  0  0  0  0  0  0
  1  7  2  0  0  0  0
  1  2  1  0  0  0  0
  2  3  1  0  0  0  0
  3  9  1  0  0  0  0
  3 62  1  0  0  0  0
  4  5  2  0  0  0  0
  4 63  1  0  0  0  0
  5  6  1  0  0  0  0
  5 64  1  0  0  0  0
  6  2  2  0  0  0  0
  6 65  1  0  0  0  0
  7  4  1  0  0  0  0
  7 66  1  0  0  0  0
  8  9  2  0  0  0  0
  8  1  1  0  0  0  0
  8 11  1  0  0  0  0
  9 10  1  0  0  0  0
 10 12  1  0  0  0  0
 10 38  1  0  0  0  0
 10 58  1  6  0  0  0
 11 67  1  0  0  0  0
 11 68  1  0  0  0  0
 12 15  1  0  0  0  0
 12 69  1  0  0  0  0
 12 70  1  0  0  0  0
 13 14  1  0  0  0  0
 13 11  1  0  0  0  0
 13 71  1  0  0  0  0
 13 72  1  0  0  0  0
 14 16  1  0  0  0  0
 14 19  1  0  0  0  0
 15 17  1  0  0  0  0
 15 19  1  0  0  0  0
 15 73  1  1  0  0  0
 16 18  1  0  0  0  0
 16 74  1  0  0  0  0
 16 75  1  0  0  0  0
 17 18  1  0  0  0  0
 17 76  1  0  0  0  0
 17 77  1  0  0  0  0
 18 21  1  0  0  0  0
 18 20  1  6  0  0  0
 19 78  1  0  0  0  0
 19 79  1  0  0  0  0
 20 80  1  0  0  0  0
 21 22  1  0  0  0  0
 21 81  1  0  0  0  0
 21 82  1  0  0  0  0
 22 83  1  0  0  0  0
 22 84  1  0  0  0  0
 22 85  1  0  0  0  0
 23 30  1  0  0  0  0
 23 24  1  6  0  0  0
 23 27  1  0  0  0  0
 24 25  1  0  0  0  0
 24 50  2  0  0  0  0
 25 26  1  0  0  0  0
 25 47  1  0  0  0  0
 26 27  1  0  0  0  0
 26 46  2  0  0  0  0
 28 32  1  0  0  0  0
 28 35  1  1  0  0  0
 28 29  1  0  0  0  0
 29 23  1  0  0  0  0
 29 52  1  6  0  0  0
 30 31  1  0  0  0  0
 30 86  1  0  0  0  0
 30 87  1  0  0  0  0
 31 32  1  0  0  0  0
 31 43  1  0  0  0  0
 31 56  1  1  0  0  0
 32 55  1  1  0  0  0
 33 34  1  0  0  0  0
 33 88  1  0  0  0  0
 33 89  1  0  0  0  0
 34 28  1  0  0  0  0
 34 90  1  0  0  0  0
 34 91  1  0  0  0  0
 35 36  1  0  0  0  0
 35 41  2  0  0  0  0
 36 37  1  0  0  0  0
 37 29  1  0  0  0  0
 37 51  1  0  0  0  0
 38 39  2  0  0  0  0
 39 40  1  0  0  0  0
 39 53  1  0  0  0  0
 40 36  2  0  0  0  0
 40 92  1  0  0  0  0
 41 38  1  0  0  0  0
 41 93  1  0  0  0  0
 42 33  1  0  0  0  0
 42 32  1  0  0  0  0
 42 45  1  0  0  0  0
 43 44  2  0  0  0  0
 43 94  1  0  0  0  0
 44 45  1  0  0  0  0
 44 95  1  0  0  0  0
 45 96  1  0  0  0  0
 45 97  1  0  0  0  0
 47 48  1  0  0  0  0
 47 98  1  0  0  0  0
 47 99  1  0  0  0  0
 48 49  1  0  0  0  0
 48100  1  0  0  0  0
 48101  1  0  0  0  0
 51102  1  0  0  0  0
 51103  1  0  0  0  0
 51104  1  0  0  0  0
 53 54  1  0  0  0  0
 54105  1  0  0  0  0
 54106  1  0  0  0  0
 54107  1  0  0  0  0
 56 57  1  0  0  0  0
 56108  1  0  0  0  0
 56109  1  0  0  0  0
 57110  1  0  0  0  0
 57111  1  0  0  0  0
 57112  1  0  0  0  0
 58 59  1  0  0  0  0
 58 61  2  0  0  0  0
 59 60  1  0  0  0  0
 60113  1  0  0  0  0
 60114  1  0  0  0  0
 60115  1  0  0  0  0
M  END
>  <DRUGBANK_ID>
DB02868

>  <SECONDARY_ACCESSION_NUMBERS>
EXPT01963

>  <COMMON_NAME>
Deacetoxyvinzolidine

>  <CAS_NUMBER>
165659-77-8

>  <UNII>
6PBV11IO5E

$$$$
