
 OpenBabel10282417203D

 27 29  0  0  0  0  0  0  0  0999 V2000
   -2.5844    0.7421    0.0147 C   0  0  0  0  0  0  0  0  0  0  0  0
   -2.6052   -0.6663    0.0184 C   0  0  0  0  0  0  0  0  0  0  0  0
   -1.3734    1.4418   -0.0068 C   0  0  0  0  0  0  0  0  0  0  0  0
   -1.4151   -1.3979    0.0084 C   0  0  0  0  0  0  0  0  0  0  0  0
    3.7632    1.0093   -1.7407 C   0  0  0  0  0  0  0  0  0  0  0  0
    2.7646   -1.0922   -2.3742 C   0  0  0  0  0  0  0  0  0  0  0  0
    4.4775    1.0279   -2.9426 C   0  0  0  0  0  0  0  0  0  0  0  0
    3.4822   -1.0779   -3.5702 C   0  0  0  0  0  0  0  0  0  0  0  0
    2.8837   -0.0464   -1.4429 C   0  0  0  0  0  0  0  0  0  0  0  0
    4.3290   -0.0136   -3.8542 C   0  0  0  0  0  0  0  0  0  0  0  0
   -0.2070    0.6994   -0.0087 C   0  0  0  0  0  0  0  0  0  0  0  0
   -0.2297   -0.6858    0.0078 C   0  0  0  0  0  0  0  0  0  0  0  0
    2.1072   -0.0362   -0.1364 C   0  0  0  0  0  0  0  0  0  0  0  0
    1.1780    1.1703   -0.0205 C   0  0  0  0  0  0  0  0  0  0  0  0
    1.1364   -1.2017    0.0259 C   0  0  0  0  0  0  0  0  0  0  0  0
    5.1923    0.0115   -5.3407 Cl  0  0  0  0  0  0  0  0  0  0  0  0
    1.4879    2.3451    0.0644 O   0  0  0  0  0  0  0  0  0  0  0  0
    1.4007   -2.3856    0.1336 O   0  0  0  0  0  0  0  0  0  0  0  0
   -3.5246    1.2909    0.0313 H   0  0  0  0  0  0  0  0  0  0  0  0
   -3.5599   -1.1894    0.0352 H   0  0  0  0  0  0  0  0  0  0  0  0
   -1.3488    2.5273   -0.0186 H   0  0  0  0  0  0  0  0  0  0  0  0
   -1.4192   -2.4839    0.0038 H   0  0  0  0  0  0  0  0  0  0  0  0
    3.8933    1.8361   -1.0420 H   0  0  0  0  0  0  0  0  0  0  0  0
    2.1198   -1.9495   -2.1918 H   0  0  0  0  0  0  0  0  0  0  0  0
    5.1457    1.8569   -3.1596 H   0  0  0  0  0  0  0  0  0  0  0  0
    3.3730   -1.9050   -4.2665 H   0  0  0  0  0  0  0  0  0  0  0  0
    2.7876   -0.0437    0.7229 H   0  0  0  0  0  0  0  0  0  0  0  0
  1 19  1  0  0  0  0
  2  1  2  0  0  0  0
  2 20  1  0  0  0  0
  3  1  1  0  0  0  0
  3 21  1  0  0  0  0
  4  2  1  0  0  0  0
  4 22  1  0  0  0  0
  5 23  1  0  0  0  0
  6 24  1  0  0  0  0
  7  5  1  0  0  0  0
  7 25  1  0  0  0  0
  8  6  2  0  0  0  0
  8 26  1  0  0  0  0
  9  5  2  0  0  0  0
  9  6  1  0  0  0  0
 10  7  2  0  0  0  0
 10  8  1  0  0  0  0
 11  3  2  0  0  0  0
 12  4  2  0  0  0  0
 12 11  1  0  0  0  0
 13  9  1  0  0  0  0
 13 27  1  0  0  0  0
 14 11  1  0  0  0  0
 14 13  1  0  0  0  0
 15 12  1  0  0  0  0
 15 13  1  0  0  0  0
 16 10  1  0  0  0  0
 17 14  2  0  0  0  0
 18 15  2  0  0  0  0
M  END
>  <DRUGBANK_ID>
DB13275

>  <COMMON_NAME>
Clorindione

>  <CAS_NUMBER>
1146-99-2

>  <UNII>
541C7WS64R

>  <SYNONYMS>
Clorindione

$$$$
