
 OpenBabel10282417113D

 45 47  0  0  1  0  0  0  0  0999 V2000
   -1.8466   -1.3735    0.1098 C   0  0  1  0  0  0  0  0  0  0  0  0
   -0.8084    0.1971    1.1463 N   0  0  0  0  0  0  0  0  0  0  0  0
   -0.4956   -1.2351    0.8633 C   0  0  2  0  0  0  0  0  0  0  0  0
   -2.0466    0.1005    0.5143 C   0  0  0  0  0  0  0  0  0  0  0  0
    0.2500    1.2229    0.8198 C   0  0  2  0  0  0  0  0  0  0  0  0
    1.5913    0.4353    0.3698 C   0  0  0  0  0  0  0  0  0  0  0  0
    1.1027   -1.3476    0.0227 S   0  0  0  0  0  0  0  0  0  0  0  0
    2.5677    0.8904   -0.7819 C   0  0  0  0  0  0  0  0  0  0  0  0
    2.4871    0.3240    1.5760 C   0  0  0  0  0  0  0  0  0  0  0  0
   -2.8516    0.9852    0.2132 O   0  0  0  0  0  0  0  0  0  0  0  0
    0.4382    2.5674    1.5788 C   0  0  0  0  0  0  0  0  0  0  0  0
   -0.3594    3.5996    1.1655 O   0  0  0  0  0  0  0  0  0  0  0  0
    1.2944    2.7758    2.4291 O   0  0  0  0  0  0  0  0  0  0  0  0
   -0.4659   -1.7906    1.8019 H   0  0  0  0  0  0  0  0  0  0  0  0
   -1.8960   -1.8518   -1.3041 N   0  0  0  0  0  0  0  0  0  0  0  0
   -1.8367   -1.1561   -2.3967 C   0  0  0  0  0  0  0  0  0  0  0  0
   -1.4406    0.1308   -2.7152 N   0  0  0  0  0  0  0  0  0  0  0  0
   -0.4747    0.7146   -1.8817 C   0  0  0  0  0  0  0  0  0  0  0  0
   -2.2134    1.1443   -3.3874 C   0  0  0  0  0  0  0  0  0  0  0  0
   -1.3632    1.5755   -4.5962 C   0  0  0  0  0  0  0  0  0  0  0  0
    0.1726    2.0501   -2.1204 C   0  0  0  0  0  0  0  0  0  0  0  0
   -0.1207    2.4811   -4.3935 C   0  0  0  0  0  0  0  0  0  0  0  0
    0.8873    1.9686   -3.4121 C   0  0  0  0  0  0  0  0  0  0  0  0
   -1.9785   -1.7304   -3.3329 H   0  0  0  0  0  0  0  0  0  0  0  0
   -2.5552   -1.9998    0.6769 H   0  0  0  0  0  0  0  0  0  0  0  0
   -0.2012    1.7427    0.0144 H   0  0  0  0  0  0  0  0  0  0  0  0
    2.8745    1.9415   -0.6913 H   0  0  0  0  0  0  0  0  0  0  0  0
    3.4976    0.3041   -0.8181 H   0  0  0  0  0  0  0  0  0  0  0  0
    2.2046    0.7303   -1.7948 H   0  0  0  0  0  0  0  0  0  0  0  0
    3.3111   -0.3713    1.3977 H   0  0  0  0  0  0  0  0  0  0  0  0
    2.9383    1.2976    1.7757 H   0  0  0  0  0  0  0  0  0  0  0  0
    1.8971    0.0000    2.4328 H   0  0  0  0  0  0  0  0  0  0  0  0
   -1.0629    3.4471    0.4992 H   0  0  0  0  0  0  0  0  0  0  0  0
    0.2620   -0.0425   -1.7313 H   0  0  0  0  0  0  0  0  0  0  0  0
   -1.1245    0.9394   -1.0938 H   0  0  0  0  0  0  0  0  0  0  0  0
   -2.4013    1.9940   -2.7083 H   0  0  0  0  0  0  0  0  0  0  0  0
   -3.2015    0.7678   -3.6569 H   0  0  0  0  0  0  0  0  0  0  0  0
   -2.0207    2.1068   -5.2777 H   0  0  0  0  0  0  0  0  0  0  0  0
   -1.0040    0.6549   -5.0701 H   0  0  0  0  0  0  0  0  0  0  0  0
    0.9006    2.3267   -1.3601 H   0  0  0  0  0  0  0  0  0  0  0  0
   -0.5401    2.8745   -2.0013 H   0  0  0  0  0  0  0  0  0  0  0  0
    0.4134    2.5989   -5.3333 H   0  0  0  0  0  0  0  0  0  0  0  0
   -0.4359    3.4756   -4.0515 H   0  0  0  0  0  0  0  0  0  0  0  0
    1.2074    0.9418   -3.6400 H   0  0  0  0  0  0  0  0  0  0  0  0
    1.7945    2.5796   -3.3427 H   0  0  0  0  0  0  0  0  0  0  0  0
  1  4  1  0  0  0  0
  1 25  1  1  0  0  0
  1 15  1  0  0  0  0
  3  1  1  0  0  0  0
  3  2  1  0  0  0  0
  3  7  1  0  0  0  0
  3 14  1  1  0  0  0
  4  2  1  0  0  0  0
  5  2  1  0  0  0  0
  5 26  1  6  0  0  0
  5 11  1  0  0  0  0
  6  5  1  0  0  0  0
  7  6  1  0  0  0  0
  8  6  1  0  0  0  0
  8 27  1  0  0  0  0
  8 28  1  0  0  0  0
  8 29  1  0  0  0  0
  9  6  1  0  0  0  0
  9 30  1  0  0  0  0
  9 31  1  0  0  0  0
  9 32  1  0  0  0  0
 10  4  2  0  0  0  0
 12 11  1  0  0  0  0
 12 33  1  0  0  0  0
 13 11  2  0  0  0  0
 16 15  2  3  0  0  0
 16 24  1  0  0  0  0
 17 16  1  0  0  0  0
 18 17  1  0  0  0  0
 18 34  1  0  0  0  0
 18 35  1  0  0  0  0
 19 17  1  0  0  0  0
 19 36  1  0  0  0  0
 19 37  1  0  0  0  0
 20 19  1  0  0  0  0
 20 38  1  0  0  0  0
 20 39  1  0  0  0  0
 21 18  1  0  0  0  0
 21 40  1  0  0  0  0
 21 41  1  0  0  0  0
 22 20  1  0  0  0  0
 22 42  1  0  0  0  0
 22 43  1  0  0  0  0
 23 21  1  0  0  0  0
 23 22  1  0  0  0  0
 23 44  1  0  0  0  0
 23 45  1  0  0  0  0
M  END
>  <DRUGBANK_ID>
DB01163

>  <SECONDARY_ACCESSION_NUMBERS>
APRD00789

>  <COMMON_NAME>
Amdinocillin

>  <CAS_NUMBER>
32887-01-7

>  <UNII>
V10579P3QZ

>  <SYNONYMS>
Amdinocillin; Mecilinamo; Mecillinam; Mecillinamum; Penicillin HX

$$$$
