232
 OpenBabel10282417103D

 31 32  0  0  1  0  0  0  0  0999 V2000
    1.1588   -0.5749    0.3335 Cl  0  0  0  0  0  0  0  0  0  0  0  0
    8.6090    3.9027    3.0774 Cl  0  0  0  0  0  0  0  0  0  0  0  0
    2.9331    3.8558    0.5955 S   0  0  0  0  0  0  0  0  0  0  0  0
    6.7548    6.8056    2.7263 S   0  0  0  0  0  0  0  0  0  0  0  0
    2.8757    4.8954   -0.4170 O   0  0  0  0  0  0  0  0  0  0  0  0
    2.0201    3.8361    1.7118 O   0  0  0  0  0  0  0  0  0  0  0  0
    6.8900    7.5737    1.5100 O   0  0  0  0  0  0  0  0  0  0  0  0
    5.8726    7.2231    3.7917 O   0  0  0  0  0  0  0  0  0  0  0  0
    2.8165    2.3691   -0.1981 N   0  0  0  0  0  0  0  0  0  0  0  0
    4.7124    1.4393    0.8895 N   0  0  0  0  0  0  0  0  0  0  0  0
    8.2847    6.7308    3.3771 N   0  0  0  0  0  0  0  0  0  0  0  0
    3.2537    1.2751    0.6984 C   0  0  3  0  0  0  0  0  0  0  0  0
    4.5351    3.8458    1.2534 C   0  0  0  0  0  0  0  0  0  0  0  0
    5.2379    2.6499    1.3353 C   0  0  0  0  0  0  0  0  0  0  0  0
    2.8998   -0.1343    0.1368 C   0  0  0  0  0  0  0  0  0  0  0  0
    5.0249    5.0826    1.6801 C   0  0  0  0  0  0  0  0  0  0  0  0
    1.4511    2.2658   -0.7481 C   0  0  0  0  0  0  0  0  0  0  0  0
    6.5067    2.7526    1.9196 C   0  0  0  0  0  0  0  0  0  0  0  0
    6.2864    5.1670    2.2555 C   0  0  0  0  0  0  0  0  0  0  0  0
    7.0323    3.9941    2.3831 C   0  0  0  0  0  0  0  0  0  0  0  0
    5.3052    0.6154    0.8818 H   0  0  0  0  0  0  0  0  0  0  0  0
    8.9564    6.3080    2.7374 H   0  0  0  0  0  0  0  0  0  0  0  0
    8.5840    7.6348    3.7398 H   0  0  0  0  0  0  0  0  0  0  0  0
    2.7795    1.3495    1.6846 H   0  0  0  0  0  0  0  0  0  0  0  0
    3.4194   -0.9257    0.6794 H   0  0  0  0  0  0  0  0  0  0  0  0
    3.1434   -0.2181   -0.9277 H   0  0  0  0  0  0  0  0  0  0  0  0
    4.3996    5.9697    1.5581 H   0  0  0  0  0  0  0  0  0  0  0  0
    0.7267    2.1915    0.0696 H   0  0  0  0  0  0  0  0  0  0  0  0
    1.2100    3.1518   -1.3428 H   0  0  0  0  0  0  0  0  0  0  0  0
    1.3649    1.4234   -1.4326 H   0  0  0  0  0  0  0  0  0  0  0  0
    7.1169    1.8592    2.0474 H   0  0  0  0  0  0  0  0  0  0  0  0
  1 15  1  0  0  0  0
  2 20  1  0  0  0  0
  3  5  2  0  0  0  0
  3  6  2  0  0  0  0
  3  9  1  0  0  0  0
  3 13  1  0  0  0  0
  4  7  2  0  0  0  0
  4  8  2  0  0  0  0
  4 11  1  0  0  0  0
  4 19  1  0  0  0  0
  9 12  1  0  0  0  0
  9 17  1  0  0  0  0
 10 12  1  0  0  0  0
 10 14  1  0  0  0  0
 10 21  1  0  0  0  0
 11 22  1  0  0  0  0
 11 23  1  0  0  0  0
 12 15  1  0  0  0  0
 12 24  1  0  0  0  0
 13 14  1  0  0  0  0
 13 16  2  0  0  0  0
 14 18  2  0  0  0  0
 15 25  1  0  0  0  0
 15 26  1  0  0  0  0
 16 19  1  0  0  0  0
 16 27  1  0  0  0  0
 17 28  1  0  0  0  0
 17 29  1  0  0  0  0
 17 30  1  0  0  0  0
 18 20  1  0  0  0  0
 18 31  1  0  0  0  0
 19 20  2  0  0  0  0
M  END
>  <DRUGBANK_ID>
DB00232

>  <SECONDARY_ACCESSION_NUMBERS>
APRD01104

>  <COMMON_NAME>
Methyclothiazide

>  <CAS_NUMBER>
135-07-9

>  <UNII>
L3H46UAC61

>  <SYNONYMS>
Methyclothiazide

$$$$
