
 OpenBabel10282417143D

 26 26  0  0  1  0  0  0  0  0999 V2000
    3.1866   -0.1894    2.2454 C   0  0  0  0  0  0  0  0  0  0  0  0
    1.4556   -2.1732    0.9976 C   0  0  2  0  0  0  0  0  0  0  0  0
    0.2636   -2.8082    0.2646 C   0  0  2  0  0  0  0  0  0  0  0  0
    0.9829   -1.1526    2.0639 C   0  0  1  0  0  0  0  0  0  0  0  0
    0.0076   -1.8952    2.9894 C   0  0  1  0  0  0  0  0  0  0  0  0
   -0.3276   -1.0541    4.2141 C   0  0  0  0  0  0  0  0  0  0  0  0
   -0.8056   -3.2950    1.2605 C   0  0  1  0  0  0  0  0  0  0  0  0
    2.3477   -1.5928    0.0339 O   0  0  0  0  0  0  0  0  0  0  0  0
    0.7247   -3.9060   -0.5377 O   0  0  0  0  0  0  0  0  0  0  0  0
    0.0145   -1.3080    5.3652 O   0  0  0  0  0  0  0  0  0  0  0  0
   -1.0430    0.0549    3.9502 O   0  0  0  0  0  0  0  0  0  0  0  0
   -0.4031   -4.5269    1.8556 O   0  0  0  0  0  0  0  0  0  0  0  0
    2.0255   -0.6496    2.9055 O   0  0  0  0  0  0  0  0  0  0  0  0
   -1.1308   -2.3389    2.2601 O   0  0  0  0  0  0  0  0  0  0  0  0
    2.0459   -2.9549    1.4909 H   0  0  0  0  0  0  0  0  0  0  0  0
   -0.1635   -2.0684   -0.4240 H   0  0  0  0  0  0  0  0  0  0  0  0
    0.4880   -0.3077    1.5641 H   0  0  0  0  0  0  0  0  0  0  0  0
    0.5222   -2.7681    3.4160 H   0  0  0  0  0  0  0  0  0  0  0  0
   -1.7261   -3.5109    0.7073 H   0  0  0  0  0  0  0  0  0  0  0  0
    2.9372    0.4879    1.4237 H   0  0  0  0  0  0  0  0  0  0  0  0
    3.7638   -1.0501    1.9012 H   0  0  0  0  0  0  0  0  0  0  0  0
    3.7994    0.3461    2.9727 H   0  0  0  0  0  0  0  0  0  0  0  0
    1.8720   -0.9169   -0.4768 H   0  0  0  0  0  0  0  0  0  0  0  0
    0.8593   -4.6663    0.0596 H   0  0  0  0  0  0  0  0  0  0  0  0
   -1.1231    0.4885    4.8266 H   0  0  0  0  0  0  0  0  0  0  0  0
    0.5163   -4.4465    2.1517 H   0  0  0  0  0  0  0  0  0  0  0  0
  1 20  1  0  0  0  0
  1 21  1  0  0  0  0
  1 22  1  0  0  0  0
  2  8  1  0  0  0  0
  2 15  1  1  0  0  0
  3  2  1  0  0  0  0
  3  9  1  0  0  0  0
  3 16  1  6  0  0  0
  4  2  1  0  0  0  0
  4 17  1  6  0  0  0
  4 13  1  0  0  0  0
  5  4  1  0  0  0  0
  5 18  1  1  0  0  0
  5  6  1  0  0  0  0
  7  3  1  0  0  0  0
  7 12  1  0  0  0  0
  7 19  1  6  0  0  0
  8 23  1  0  0  0  0
  9 24  1  0  0  0  0
 10  6  2  0  0  0  0
 11  6  1  0  0  0  0
 11 25  1  0  0  0  0
 12 26  1  0  0  0  0
 13  1  1  0  0  0  0
 14  5  1  0  0  0  0
 14  7  1  0  0  0  0
M  END
>  <DRUGBANK_ID>
DB04303

>  <SECONDARY_ACCESSION_NUMBERS>
EXPT01566

>  <COMMON_NAME>
4-O-methyl-alpha-D-glucuronic acid

$$$$
