
 OpenBabel10282417233D

 42 44  0  0  0  0  0  0  0  0999 V2000
    0.8587   -0.1285   -0.1091 C   0  0  0  0  0  0  0  0  0  0  0  0
    0.2701    1.1589    0.1475 O   0  0  0  0  0  0  0  0  0  0  0  0
    0.3901    1.4153    1.4913 C   0  0  0  0  0  0  0  0  0  0  0  0
    1.6169    1.2160    2.0997 C   0  0  0  0  0  0  0  0  0  0  0  0
    1.6987    1.3844    3.4979 C   0  0  0  0  0  0  0  0  0  0  0  0
    0.6917    2.1501    4.2597 C   0  0  0  0  0  0  0  0  0  0  0  0
    1.1734    3.2419    5.8834 S   0  0  0  0  0  0  0  0  0  0  0  0
    1.0077    5.2418    5.4885 C   0  0  0  0  0  0  0  0  0  0  0  0
   -0.4262    5.6468    5.1850 C   0  0  0  0  0  0  0  0  0  0  0  0
   -0.9291    5.0501    3.9461 N   0  0  0  0  0  0  0  0  0  0  0  0
   -0.2791    5.5840    2.6892 C   0  0  0  0  0  0  0  0  0  0  0  0
    1.2496    5.3929    2.5177 C   0  0  0  0  0  0  0  0  0  0  0  0
    1.6979    4.1385    2.5820 C   0  0  0  0  0  0  0  0  0  0  0  0
    2.8245    3.7833    3.3311 C   0  0  0  0  0  0  0  0  0  0  0  0
    3.9829    4.3356    3.0530 C   0  0  0  0  0  0  0  0  0  0  0  0
    3.7426    5.6168    2.5670 C   0  0  0  0  0  0  0  0  0  0  0  0
    2.3686    6.1916    2.4436 C   0  0  0  0  0  0  0  0  0  0  0  0
    5.1956    3.5521    3.4662 C   0  0  0  0  0  0  0  0  0  0  0  0
    5.1884    2.2512    3.8628 O   0  0  0  0  0  0  0  0  0  0  0  0
    6.3023    4.1336    3.4276 O   0  0  0  0  0  0  0  0  0  0  0  0
   -1.3644    3.6287    4.1131 C   0  0  0  0  0  0  0  0  0  0  0  0
   -0.4869    2.5088    3.5818 C   0  0  0  0  0  0  0  0  0  0  0  0
   -0.6644    2.0245    2.2260 C   0  0  0  0  0  0  0  0  0  0  0  0
    0.5214   -0.4964   -1.0767 H   0  0  0  0  0  0  0  0  0  0  0  0
    0.5393   -0.8361    0.6668 H   0  0  0  0  0  0  0  0  0  0  0  0
    1.9570   -0.0850   -0.1337 H   0  0  0  0  0  0  0  0  0  0  0  0
    2.5317    1.1666    1.4768 H   0  0  0  0  0  0  0  0  0  0  0  0
    2.7244    1.2500    3.8088 H   0  0  0  0  0  0  0  0  0  0  0  0
    1.6866    5.6273    4.7333 H   0  0  0  0  0  0  0  0  0  0  0  0
    1.3743    5.8390    6.3414 H   0  0  0  0  0  0  0  0  0  0  0  0
   -1.0290    5.3796    6.0631 H   0  0  0  0  0  0  0  0  0  0  0  0
   -0.5371    6.7442    5.1262 H   0  0  0  0  0  0  0  0  0  0  0  0
   -0.8493    5.1599    1.8480 H   0  0  0  0  0  0  0  0  0  0  0  0
   -0.4824    6.6602    2.6526 H   0  0  0  0  0  0  0  0  0  0  0  0
    0.9456    3.4808    2.2779 H   0  0  0  0  0  0  0  0  0  0  0  0
    2.8868    3.0832    4.1402 H   0  0  0  0  0  0  0  0  0  0  0  0
    4.6071    6.2292    2.3843 H   0  0  0  0  0  0  0  0  0  0  0  0
    2.2313    7.2576    2.3645 H   0  0  0  0  0  0  0  0  0  0  0  0
    4.4558    1.6237    4.0178 H   0  0  0  0  0  0  0  0  0  0  0  0
   -2.3630    3.4997    3.6883 H   0  0  0  0  0  0  0  0  0  0  0  0
   -1.5308    3.4222    5.1851 H   0  0  0  0  0  0  0  0  0  0  0  0
   -1.5393    2.3407    1.6645 H   0  0  0  0  0  0  0  0  0  0  0  0
  1  2  1  0  0  0  0
  1 24  1  0  0  0  0
  1 25  1  0  0  0  0
  1 26  1  0  0  0  0
  2  3  1  0  0  0  0
  3  4  2  0  0  0  0
  3 23  1  0  0  0  0
  4  5  1  0  0  0  0
  4 27  1  0  0  0  0
  5  6  2  0  0  0  0
  5 28  1  0  0  0  0
  6  7  1  0  0  0  0
  6 22  1  0  0  0  0
  7  8  1  0  0  0  0
  8  9  1  0  0  0  0
  8 29  1  0  0  0  0
  8 30  1  0  0  0  0
  9 10  1  0  0  0  0
  9 31  1  0  0  0  0
  9 32  1  0  0  0  0
 10 11  1  0  0  0  0
 10 21  1  0  0  0  0
 11 12  1  0  0  0  0
 11 33  1  0  0  0  0
 11 34  1  0  0  0  0
 12 13  2  0  0  0  0
 12 17  1  0  0  0  0
 13 14  1  0  0  0  0
 13 35  1  0  0  0  0
 14 15  2  0  0  0  0
 14 36  1  0  0  0  0
 15 16  1  0  0  0  0
 15 18  1  0  0  0  0
 16 17  2  0  0  0  0
 16 37  1  0  0  0  0
 17 38  1  0  0  0  0
 18 19  1  0  0  0  0
 18 20  2  0  0  0  0
 19 39  1  0  0  0  0
 21 22  1  0  0  0  0
 21 40  1  0  0  0  0
 21 41  1  0  0  0  0
 22 23  2  0  0  0  0
 23 42  1  0  0  0  0
M  END
>  <DRUGBANK_ID>
DB16944

>  <COMMON_NAME>
ARM-210

>  <CAS_NUMBER>
1467605-57-7

>  <UNII>
1033GN605L

>  <SYNONYMS>
4-((7-methoxy-2,3-dihydro-1,4-benzothiazepin-4(5h)-yl)methyl)benzoic acid; Benzoic acid, 4-((2,3-dihydro-7-methoxy-1,4-benzothiazepin-4(5h)-yl)methyl)-; Rycal dmd

$$$$
