MR4
 OpenBabel10282417173D

 31 33  0  0  0  0  0  0  0  0999 V2000
   -2.5860    0.5240   -0.0045 C   0  0  0  0  0  0  0  0  0  0  0  0
   -1.2220   -0.1043   -0.0360 C   0  0  0  0  0  0  0  0  0  0  0  0
   -1.1010   -1.5090   -0.0613 C   0  0  0  0  0  0  0  0  0  0  0  0
   -0.0539    0.6730   -0.0180 C   0  0  0  0  0  0  0  0  0  0  0  0
   -0.0953    2.0419    0.0022 O   0  0  0  0  0  0  0  0  0  0  0  0
    1.2128    0.0769   -0.0129 C   0  0  0  0  0  0  0  0  0  0  0  0
    2.4593    0.9155   -0.0217 C   0  0  0  0  0  0  0  0  0  0  0  0
    1.3043   -1.3235   -0.0001 C   0  0  0  0  0  0  0  0  0  0  0  0
    0.1565   -2.1285   -0.0325 C   0  0  0  0  0  0  0  0  0  0  0  0
    0.2971   -3.5777    0.0737 C   0  0  0  0  0  0  0  0  0  0  0  0
   -0.2387   -4.3478   -0.9336 O   0  0  0  0  0  0  0  0  0  0  0  0
    0.0800   -5.6311   -0.5641 C   0  0  0  0  0  0  0  0  0  0  0  0
   -0.2059   -6.8211   -1.2307 C   0  0  0  0  0  0  0  0  0  0  0  0
    0.2227   -7.9990   -0.5964 C   0  0  0  0  0  0  0  0  0  0  0  0
    0.8943   -7.9655    0.6318 C   0  0  0  0  0  0  0  0  0  0  0  0
    1.1755   -6.7470    1.2642 C   0  0  0  0  0  0  0  0  0  0  0  0
    0.7618   -5.5630    0.6408 C   0  0  0  0  0  0  0  0  0  0  0  0
    0.9147   -4.2571    1.0206 N   0  0  0  0  0  0  0  0  0  0  0  0
   -2.7082    1.1121    0.9119 H   0  0  0  0  0  0  0  0  0  0  0  0
   -2.7202    1.1768   -0.8731 H   0  0  0  0  0  0  0  0  0  0  0  0
   -3.3818   -0.2267   -0.0249 H   0  0  0  0  0  0  0  0  0  0  0  0
   -1.9967   -2.1281   -0.0622 H   0  0  0  0  0  0  0  0  0  0  0  0
   -1.0153    2.3454    0.0070 H   0  0  0  0  0  0  0  0  0  0  0  0
    2.4902    1.5303   -0.9275 H   0  0  0  0  0  0  0  0  0  0  0  0
    2.4947    1.5651    0.8588 H   0  0  0  0  0  0  0  0  0  0  0  0
    3.3601    0.2933   -0.0140 H   0  0  0  0  0  0  0  0  0  0  0  0
    2.2838   -1.7975    0.0429 H   0  0  0  0  0  0  0  0  0  0  0  0
   -0.7271   -6.8401   -2.1796 H   0  0  0  0  0  0  0  0  0  0  0  0
    0.0275   -8.9630   -1.0652 H   0  0  0  0  0  0  0  0  0  0  0  0
    1.2065   -8.8950    1.1048 H   0  0  0  0  0  0  0  0  0  0  0  0
    1.6970   -6.7106    2.2140 H   0  0  0  0  0  0  0  0  0  0  0  0
  1  2  1  0  0  0  0
  1 19  1  0  0  0  0
  1 20  1  0  0  0  0
  1 21  1  0  0  0  0
  2  3  2  0  0  0  0
  2  4  1  0  0  0  0
  3  9  1  0  0  0  0
  3 22  1  0  0  0  0
  4  6  2  0  0  0  0
  4  5  1  0  0  0  0
  5 23  1  0  0  0  0
  6  8  1  0  0  0  0
  6  7  1  0  0  0  0
  7 24  1  0  0  0  0
  7 25  1  0  0  0  0
  7 26  1  0  0  0  0
  8  9  2  0  0  0  0
  8 27  1  0  0  0  0
  9 10  1  0  0  0  0
 10 18  2  0  0  0  0
 10 11  1  0  0  0  0
 11 12  1  0  0  0  0
 12 13  2  0  0  0  0
 12 17  1  0  0  0  0
 13 14  1  0  0  0  0
 13 28  1  0  0  0  0
 14 15  2  0  0  0  0
 14 29  1  0  0  0  0
 15 16  1  0  0  0  0
 15 30  1  0  0  0  0
 16 17  2  0  0  0  0
 16 31  1  0  0  0  0
 17 18  1  0  0  0  0
M  END
>  <DRUGBANK_ID>
DB08205

>  <COMMON_NAME>
4-(1,3-BENZOXAZOL-2-YL)-2,6-DIMETHYLPHENOL

$$$$
