1615
 OpenBabel10282417123D

 45 47  0  0  1  0  0  0  0  0999 V2000
    0.0384    1.6987    0.1827 S   0  0  0  0  0  0  0  0  0  0  0  0
    4.5211   -3.2371   -0.5467 O   0  0  0  0  0  0  0  0  0  0  0  0
    0.0531   -1.3253    0.6166 N   0  0  0  0  0  0  0  0  0  0  0  0
   -2.2507   -1.2354    3.1528 N   0  0  0  0  0  0  0  0  0  0  0  0
   -0.7940   -1.5817    3.2128 C   0  0  3  0  0  0  0  0  0  0  0  0
   -0.0927   -2.1875    1.8684 C   0  0  0  0  0  0  0  0  0  0  0  0
    1.3191   -0.7603    0.3666 C   0  0  0  0  0  0  0  0  0  0  0  0
   -1.0331   -0.8892   -0.1992 C   0  0  0  0  0  0  0  0  0  0  0  0
   -0.6567   -2.6331    4.3368 C   0  0  0  0  0  0  0  0  0  0  0  0
    1.4417    0.6152    0.0766 C   0  0  0  0  0  0  0  0  0  0  0  0
   -1.1924    0.5257   -0.4200 C   0  0  0  0  0  0  0  0  0  0  0  0
    2.4032   -1.6018    0.1218 C   0  0  0  0  0  0  0  0  0  0  0  0
   -2.9058   -0.7163    4.3337 C   0  0  0  0  0  0  0  0  0  0  0  0
   -2.4257   -0.1423    2.2419 C   0  0  0  0  0  0  0  0  0  0  0  0
   -2.1412   -1.7253   -0.4588 C   0  0  0  0  0  0  0  0  0  0  0  0
    3.5708   -1.0865   -0.4428 C   0  0  0  0  0  0  0  0  0  0  0  0
    2.6179    1.1379   -0.4446 C   0  0  0  0  0  0  0  0  0  0  0  0
   -2.4407    1.0683   -0.7638 C   0  0  0  0  0  0  0  0  0  0  0  0
    3.6744    0.2818   -0.7262 C   0  0  0  0  0  0  0  0  0  0  0  0
   -3.3869   -1.1596   -0.7950 C   0  0  0  0  0  0  0  0  0  0  0  0
   -3.5354    0.2251   -0.9434 C   0  0  0  0  0  0  0  0  0  0  0  0
    4.6566   -2.0501   -0.7741 C   0  0  0  0  0  0  0  0  0  0  0  0
    5.9154   -1.4949   -1.3843 C   0  0  0  0  0  0  0  0  0  0  0  0
   -0.2151   -0.6956    3.5092 H   0  0  0  0  0  0  0  0  0  0  0  0
   -0.5676   -3.1385    1.6037 H   0  0  0  0  0  0  0  0  0  0  0  0
    0.9223   -2.4674    2.1995 H   0  0  0  0  0  0  0  0  0  0  0  0
    0.3875   -2.8758    4.5510 H   0  0  0  0  0  0  0  0  0  0  0  0
   -1.0770   -2.2725    5.2822 H   0  0  0  0  0  0  0  0  0  0  0  0
   -1.1847   -3.5574    4.0735 H   0  0  0  0  0  0  0  0  0  0  0  0
    2.2879   -2.6757    0.2545 H   0  0  0  0  0  0  0  0  0  0  0  0
   -2.4183    0.2033    4.6721 H   0  0  0  0  0  0  0  0  0  0  0  0
   -3.9404   -0.4654    4.0500 H   0  0  0  0  0  0  0  0  0  0  0  0
   -2.9878   -1.4471    5.1296 H   0  0  0  0  0  0  0  0  0  0  0  0
   -1.7754    0.7218    2.3958 H   0  0  0  0  0  0  0  0  0  0  0  0
   -2.1308   -0.6718    1.4141 H   0  0  0  0  0  0  0  0  0  0  0  0
   -3.4466    0.1323    1.9741 H   0  0  0  0  0  0  0  0  0  0  0  0
   -2.1168   -2.7657   -0.1422 H   0  0  0  0  0  0  0  0  0  0  0  0
    2.6801    2.1928   -0.7002 H   0  0  0  0  0  0  0  0  0  0  0  0
   -2.5960    2.1467   -0.7441 H   0  0  0  0  0  0  0  0  0  0  0  0
    4.5510    0.7081   -1.2015 H   0  0  0  0  0  0  0  0  0  0  0  0
   -4.2766   -1.7870   -0.7888 H   0  0  0  0  0  0  0  0  0  0  0  0
   -4.5227    0.6556   -1.0977 H   0  0  0  0  0  0  0  0  0  0  0  0
    5.6947   -1.0413   -2.3539 H   0  0  0  0  0  0  0  0  0  0  0  0
    6.3625   -0.7662   -0.7035 H   0  0  0  0  0  0  0  0  0  0  0  0
    6.6258   -2.3105   -1.5340 H   0  0  0  0  0  0  0  0  0  0  0  0
  1 10  1  0  0  0  0
  1 11  1  0  0  0  0
  2 22  2  0  0  0  0
  3  6  1  0  0  0  0
  3  7  1  0  0  0  0
  3  8  1  0  0  0  0
  4  5  1  0  0  0  0
  4 13  1  0  0  0  0
  4 14  1  0  0  0  0
  5  6  1  0  0  0  0
  5  9  1  0  0  0  0
  5 24  1  0  0  0  0
  6 25  1  0  0  0  0
  6 26  1  0  0  0  0
  7 10  2  0  0  0  0
  7 12  1  0  0  0  0
  8 11  1  0  0  0  0
  8 15  2  0  0  0  0
  9 27  1  0  0  0  0
  9 28  1  0  0  0  0
  9 29  1  0  0  0  0
 10 17  1  0  0  0  0
 11 18  2  0  0  0  0
 12 16  2  0  0  0  0
 12 30  1  0  0  0  0
 13 31  1  0  0  0  0
 13 32  1  0  0  0  0
 13 33  1  0  0  0  0
 14 34  1  0  0  0  0
 14 35  1  0  0  0  0
 14 36  1  0  0  0  0
 15 20  1  0  0  0  0
 15 37  1  0  0  0  0
 16 19  1  0  0  0  0
 16 22  1  0  0  0  0
 17 19  2  0  0  0  0
 17 38  1  0  0  0  0
 18 21  1  0  0  0  0
 18 39  1  0  0  0  0
 19 40  1  0  0  0  0
 20 21  2  0  0  0  0
 20 41  1  0  0  0  0
 21 42  1  0  0  0  0
 22 23  1  0  0  0  0
 23 43  1  0  0  0  0
 23 44  1  0  0  0  0
 23 45  1  0  0  0  0
M  END
>  <DRUGBANK_ID>
DB01615

>  <COMMON_NAME>
Aceprometazine

>  <CAS_NUMBER>
13461-01-3

>  <UNII>
984N9YTM4Y

>  <SYNONYMS>
10-(2-(Dimethylamino)propyl)phenothiazin-2-yl methyl ketone; Aceprometazina; Aceprometazine; Acéprométazine; Aceprometazinum; Acepromethazine

$$$$
