
 OpenBabel10282417203D

 45 46  0  0  0  0  0  0  0  0999 V2000
    0.5019    0.3862   -0.0617 C   0  0  0  0  0  0  0  0  0  0  0  0
   -0.0529    0.6017    1.3793 C   0  0  0  0  0  0  0  0  0  0  0  0
    0.9283    1.0612    2.4936 N   0  0  0  0  0  0  0  0  0  0  0  0
    0.5215    0.9553    3.9217 C   0  0  0  0  0  0  0  0  0  0  0  0
    1.1550   -0.0753    4.9582 C   0  0  0  0  0  0  0  0  0  0  0  0
    2.4063    0.9548    2.3793 C   0  0  0  0  0  0  0  0  0  0  0  0
    3.1876   -0.4014    2.7588 C   0  0  0  0  0  0  0  0  0  0  0  0
    2.7031   -1.7870    2.1317 C   0  0  3  0  0  0  0  0  0  0  0  0
    1.2084   -1.8891    1.8741 C   0  0  0  0  0  0  0  0  0  0  0  0
    0.1256   -2.0637    2.9351 C   0  0  0  0  0  0  0  0  0  0  0  0
    0.4901   -3.2060    3.7684 C   0  0  0  0  0  0  0  0  0  0  0  0
   -0.3111   -3.7053    4.5901 O   0  0  0  0  0  0  0  0  0  0  0  0
    1.7967   -3.6190    3.6409 N   0  0  0  0  0  0  0  0  0  0  0  0
    2.9116   -3.0358    3.0162 C   0  0  0  0  0  0  0  0  0  0  0  0
    4.0038   -3.5830    3.1567 O   0  0  0  0  0  0  0  0  0  0  0  0
    3.3781   -1.8510    0.7192 C   0  0  0  0  0  0  0  0  0  0  0  0
    3.5873   -0.7397   -0.1422 C   0  0  0  0  0  0  0  0  0  0  0  0
    4.0418   -0.8551   -1.4494 C   0  0  0  0  0  0  0  0  0  0  0  0
    4.5584   -2.0658   -1.8403 C   0  0  0  0  0  0  0  0  0  0  0  0
    4.4963   -3.1485   -0.9682 C   0  0  0  0  0  0  0  0  0  0  0  0
    3.7904   -3.0755    0.2268 C   0  0  0  0  0  0  0  0  0  0  0  0
    0.4747    1.2345   -0.7354 H   0  0  0  0  0  0  0  0  0  0  0  0
    0.1454   -0.5364   -0.5626 H   0  0  0  0  0  0  0  0  0  0  0  0
    1.5366    0.1472    0.0377 H   0  0  0  0  0  0  0  0  0  0  0  0
   -1.0630    1.0182    1.4348 H   0  0  0  0  0  0  0  0  0  0  0  0
   -0.4300   -0.4057    1.5471 H   0  0  0  0  0  0  0  0  0  0  0  0
    0.7568    1.9290    4.3651 H   0  0  0  0  0  0  0  0  0  0  0  0
   -0.5691    0.8783    3.9489 H   0  0  0  0  0  0  0  0  0  0  0  0
    2.1565    0.1829    5.3008 H   0  0  0  0  0  0  0  0  0  0  0  0
    0.4830   -0.2060    5.8122 H   0  0  0  0  0  0  0  0  0  0  0  0
    1.3339   -1.1038    4.6498 H   0  0  0  0  0  0  0  0  0  0  0  0
    2.7174    1.3621    1.4158 H   0  0  0  0  0  0  0  0  0  0  0  0
    2.8305    1.7345    3.0370 H   0  0  0  0  0  0  0  0  0  0  0  0
    4.2530   -0.2363    2.5043 H   0  0  0  0  0  0  0  0  0  0  0  0
    3.2761   -0.4961    3.8397 H   0  0  0  0  0  0  0  0  0  0  0  0
    0.9039   -2.3834    0.9553 H   0  0  0  0  0  0  0  0  0  0  0  0
    1.2106   -0.8834    1.6572 H   0  0  0  0  0  0  0  0  0  0  0  0
   -0.9279   -2.0707    2.6168 H   0  0  0  0  0  0  0  0  0  0  0  0
    0.0167   -1.1814    3.5269 H   0  0  0  0  0  0  0  0  0  0  0  0
    2.0007   -4.4706    4.1375 H   0  0  0  0  0  0  0  0  0  0  0  0
    3.3827    0.2862    0.1176 H   0  0  0  0  0  0  0  0  0  0  0  0
    4.0395    0.0128   -2.1067 H   0  0  0  0  0  0  0  0  0  0  0  0
    5.0359   -2.1601   -2.8065 H   0  0  0  0  0  0  0  0  0  0  0  0
    5.0156   -4.0692   -1.1961 H   0  0  0  0  0  0  0  0  0  0  0  0
    3.6295   -3.9862    0.7903 H   0  0  0  0  0  0  0  0  0  0  0  0
  1  2  1  0  0  0  0
  1 22  1  0  0  0  0
  1 23  1  0  0  0  0
  1 24  1  0  0  0  0
  2  3  1  0  0  0  0
  2 25  1  0  0  0  0
  2 26  1  0  0  0  0
  3  4  1  0  0  0  0
  3  6  1  0  0  0  0
  4  5  1  0  0  0  0
  4 27  1  0  0  0  0
  4 28  1  0  0  0  0
  5 29  1  0  0  0  0
  5 30  1  0  0  0  0
  5 31  1  0  0  0  0
  6  7  1  0  0  0  0
  6 32  1  0  0  0  0
  6 33  1  0  0  0  0
  7  8  1  0  0  0  0
  7 34  1  0  0  0  0
  7 35  1  0  0  0  0
  8  9  1  0  0  0  0
  8 14  1  0  0  0  0
  8 16  1  0  0  0  0
  9 10  1  0  0  0  0
  9 36  1  0  0  0  0
  9 37  1  0  0  0  0
 10 11  1  0  0  0  0
 10 38  1  0  0  0  0
 10 39  1  0  0  0  0
 11 12  2  0  0  0  0
 11 13  1  0  0  0  0
 13 14  1  0  0  0  0
 13 40  1  0  0  0  0
 14 15  2  0  0  0  0
 16 17  2  0  0  0  0
 16 21  1  0  0  0  0
 17 18  1  0  0  0  0
 17 41  1  0  0  0  0
 18 19  2  0  0  0  0
 18 42  1  0  0  0  0
 19 20  1  0  0  0  0
 19 43  1  0  0  0  0
 20 21  2  0  0  0  0
 20 44  1  0  0  0  0
 21 45  1  0  0  0  0
M  END
>  <DRUGBANK_ID>
DB13413

>  <COMMON_NAME>
Phenglutarimide

>  <CAS_NUMBER>
1156-05-4

>  <UNII>
679RC9H8TG

>  <SYNONYMS>
Phenglutarimide

$$$$
