
 OpenBabel10282417213D

 71 74  0  0  0  0  0  0  0  0999 V2000
    7.0393   -4.5923    3.8236 C   0  0  2  0  0  0  0  0  0  0  0  0
    6.6661   -9.3817    5.7320 C   0  0  2  0  0  0  0  0  0  0  0  0
    7.5404   -4.2453    1.9932 C   0  0  1  0  0  0  0  0  0  0  0  0
    5.9716   -7.0994    4.2829 C   0  0  1  0  0  0  0  0  0  0  0  0
    6.4942   -5.9288    3.4053 C   0  0  2  0  0  0  0  0  0  0  0  0
    7.0487   -7.7256    5.1657 C   0  0  2  0  0  0  0  0  0  0  0  0
    5.2279   -9.7737    5.5507 C   0  0  0  0  0  0  0  0  0  0  0  0
    8.1081   -5.1660    5.1248 C   0  0  0  0  0  0  0  0  0  0  0  0
    7.4343   -6.3493    6.0414 C   0  0  2  0  0  0  0  0  0  0  0  0
    7.1532  -11.0903    4.9361 C   0  0  0  0  0  0  0  0  0  0  0  0
    6.7824   -3.7004    0.4121 C   0  0  0  0  0  0  0  0  0  0  0  0
    5.1351  -10.9228    6.3145 C   0  0  0  0  0  0  0  0  0  0  0  0
    8.7311   -5.1718    2.1427 C   0  0  0  0  0  0  0  0  0  0  0  0
    7.8679   -6.3674    2.7663 C   0  0  0  0  0  0  0  0  0  0  0  0
    5.5035   -8.2460    3.4078 C   0  0  0  0  0  0  0  0  0  0  0  0
    6.5966  -12.3669    5.2106 C   0  0  0  0  0  0  0  0  0  0  0  0
    5.1098  -12.0918    5.3969 C   0  0  0  0  0  0  0  0  0  0  0  0
    9.2816   -2.5929   -1.2870 C   0  0  0  0  0  0  0  0  0  0  0  0
    4.6856   -9.3195    4.1945 C   0  0  0  0  0  0  0  0  0  0  0  0
    7.1582   -2.3211   -0.1521 C   0  0  0  0  0  0  0  0  0  0  0  0
    6.2136   -4.3797   -0.4875 O   0  0  0  0  0  0  0  0  0  0  0  0
    8.0130   -2.1117   -1.3041 O   0  0  0  0  0  0  0  0  0  0  0  0
    9.7251   -3.2382   -0.3456 O   0  0  0  0  0  0  0  0  0  0  0  0
    4.2295  -12.3742    4.6994 O   0  0  0  0  0  0  0  0  0  0  0  0
    7.4653   -5.4361    0.8174 O   0  0  0  0  0  0  0  0  0  0  0  0
   10.1167   -2.2308   -2.5342 C   0  0  0  0  0  0  0  0  0  0  0  0
    9.6264   -2.8618   -3.8569 C   0  0  0  0  0  0  0  0  0  0  0  0
    6.3315   -3.5266    4.8723 C   0  0  0  0  0  0  0  0  0  0  0  0
    8.4066   -6.7737    6.9760 O   0  0  0  0  0  0  0  0  0  0  0  0
    6.1488   -8.7615    7.2811 C   0  0  0  0  0  0  0  0  0  0  0  0
    8.2392   -2.3197   -4.2131 C   0  0  0  0  0  0  0  0  0  0  0  0
   10.5789   -2.5163   -5.0220 C   0  0  0  0  0  0  0  0  0  0  0  0
    9.5799   -4.3873   -3.7093 C   0  0  0  0  0  0  0  0  0  0  0  0
    5.6761   -5.6544    2.7237 H   0  0  0  0  0  0  0  0  0  0  0  0
    5.1373   -6.7060    4.8914 H   0  0  0  0  0  0  0  0  0  0  0  0
    8.0064   -7.9830    4.7222 H   0  0  0  0  0  0  0  0  0  0  0  0
    8.3999   -4.2764    5.7231 H   0  0  0  0  0  0  0  0  0  0  0  0
    9.1215   -5.5480    4.9562 H   0  0  0  0  0  0  0  0  0  0  0  0
    6.6236   -5.8961    6.6540 H   0  0  0  0  0  0  0  0  0  0  0  0
    6.7215  -11.2661    3.8432 H   0  0  0  0  0  0  0  0  0  0  0  0
    6.0346  -11.1233    7.0001 H   0  0  0  0  0  0  0  0  0  0  0  0
    9.3268   -4.2543    2.1190 H   0  0  0  0  0  0  0  0  0  0  0  0
    9.4881   -5.3264    2.9136 H   0  0  0  0  0  0  0  0  0  0  0  0
    7.7139   -7.1766    2.0489 H   0  0  0  0  0  0  0  0  0  0  0  0
    8.5124   -6.8168    3.5018 H   0  0  0  0  0  0  0  0  0  0  0  0
    4.9548   -7.8228    2.5575 H   0  0  0  0  0  0  0  0  0  0  0  0
    6.3916   -8.7197    2.9671 H   0  0  0  0  0  0  0  0  0  0  0  0
    6.9415  -13.2300    5.8082 H   0  0  0  0  0  0  0  0  0  0  0  0
    3.6515   -8.9675    4.2111 H   0  0  0  0  0  0  0  0  0  0  0  0
    4.6757  -10.2208    3.5958 H   0  0  0  0  0  0  0  0  0  0  0  0
    6.1878   -1.9124   -0.4924 H   0  0  0  0  0  0  0  0  0  0  0  0
    7.5306   -1.7551    0.6827 H   0  0  0  0  0  0  0  0  0  0  0  0
    8.1186   -5.1636    0.1080 H   0  0  0  0  0  0  0  0  0  0  0  0
   10.2030   -1.1399   -2.6280 H   0  0  0  0  0  0  0  0  0  0  0  0
   11.1442   -2.5819   -2.3466 H   0  0  0  0  0  0  0  0  0  0  0  0
    5.2434   -3.4494    4.8920 H   0  0  0  0  0  0  0  0  0  0  0  0
    6.4996   -3.8041    5.9536 H   0  0  0  0  0  0  0  0  0  0  0  0
    6.8215   -2.5355    4.9084 H   0  0  0  0  0  0  0  0  0  0  0  0
    8.0817   -7.6532    7.2049 H   0  0  0  0  0  0  0  0  0  0  0  0
    6.5811   -7.8824    7.7541 H   0  0  0  0  0  0  0  0  0  0  0  0
    5.1878   -8.2148    7.1062 H   0  0  0  0  0  0  0  0  0  0  0  0
    6.1758   -9.4271    8.1448 H   0  0  0  0  0  0  0  0  0  0  0  0
    8.2655   -1.2275   -4.3031 H   0  0  0  0  0  0  0  0  0  0  0  0
    7.8713   -2.7409   -5.1520 H   0  0  0  0  0  0  0  0  0  0  0  0
    7.4979   -2.5826   -3.4582 H   0  0  0  0  0  0  0  0  0  0  0  0
   11.5904   -2.9002   -4.8497 H   0  0  0  0  0  0  0  0  0  0  0  0
   10.2179   -2.9559   -5.9616 H   0  0  0  0  0  0  0  0  0  0  0  0
   10.6500   -1.4336   -5.1747 H   0  0  0  0  0  0  0  0  0  0  0  0
   10.5786   -4.7918   -3.5059 H   0  0  0  0  0  0  0  0  0  0  0  0
    8.9238   -4.6835   -2.8854 H   0  0  0  0  0  0  0  0  0  0  0  0
    9.2025   -4.8605   -4.6211 H   0  0  0  0  0  0  0  0  0  0  0  0
  1 28  1  6  0  0  0
  2  6  1  0  0  0  0
  2 30  1  6  0  0  0
  3  1  1  0  0  0  0
  3 11  1  6  0  0  0
  3 25  1  0  0  0  0
  4  5  1  0  0  0  0
  4 35  1  6  0  0  0
  5  1  1  0  0  0  0
  5 34  1  6  0  0  0
  6  9  1  0  0  0  0
  6  4  1  0  0  0  0
  6 36  1  1  0  0  0
  7  2  1  0  0  0  0
  8  1  1  0  0  0  0
  8 37  1  0  0  0  0
  8 38  1  0  0  0  0
  9  8  1  0  0  0  0
  9 39  1  1  0  0  0
  9 29  1  0  0  0  0
 10  2  1  0  0  0  0
 10 40  1  0  0  0  0
 12  7  2  0  0  0  0
 12 41  1  0  0  0  0
 13  3  1  0  0  0  0
 13 14  1  0  0  0  0
 13 42  1  0  0  0  0
 13 43  1  0  0  0  0
 14  5  1  0  0  0  0
 14 44  1  0  0  0  0
 14 45  1  0  0  0  0
 15  4  1  0  0  0  0
 15 46  1  0  0  0  0
 15 47  1  0  0  0  0
 16 10  2  0  0  0  0
 16 48  1  0  0  0  0
 17 16  1  0  0  0  0
 17 12  1  0  0  0  0
 18 22  1  0  0  0  0
 19 15  1  0  0  0  0
 19  7  1  0  0  0  0
 19 49  1  0  0  0  0
 19 50  1  0  0  0  0
 20 11  1  0  0  0  0
 20 51  1  0  0  0  0
 20 52  1  0  0  0  0
 21 11  2  0  0  0  0
 22 20  1  0  0  0  0
 23 18  2  0  0  0  0
 24 17  2  0  0  0  0
 25 53  1  0  0  0  0
 26 18  1  0  0  0  0
 26 54  1  0  0  0  0
 26 55  1  0  0  0  0
 27 26  1  0  0  0  0
 28 56  1  0  0  0  0
 28 57  1  0  0  0  0
 28 58  1  0  0  0  0
 29 59  1  0  0  0  0
 30 60  1  0  0  0  0
 30 61  1  0  0  0  0
 30 62  1  0  0  0  0
 31 27  1  0  0  0  0
 31 63  1  0  0  0  0
 31 64  1  0  0  0  0
 31 65  1  0  0  0  0
 32 27  1  0  0  0  0
 32 66  1  0  0  0  0
 32 67  1  0  0  0  0
 32 68  1  0  0  0  0
 33 27  1  0  0  0  0
 33 69  1  0  0  0  0
 33 70  1  0  0  0  0
 33 71  1  0  0  0  0
M  END
>  <DRUGBANK_ID>
DB14632

>  <SECONDARY_ACCESSION_NUMBERS>
DBSALT000786; DBSALT001635

>  <COMMON_NAME>
Prednisolone tebutate

>  <CAS_NUMBER>
7681-14-3

>  <UNII>
1V7A1U282K

>  <SYNONYMS>
Anhydrous prednisolone tebutate; Prednisolone 21-tert-butylacetate; Prednisolone butylacetate; Prednisolone tebutate; Prednisolone tertiary butylacetate

$$$$
