
 OpenBabel10282417163D

 19 18  0  0  0  0  0  0  0  0999 V2000
    0.8693   -0.0312   -0.0591 C   0  0  0  0  0  0  0  0  0  0  0  0
    0.3472    0.9920   -1.0627 C   0  0  3  0  0  0  0  0  0  0  0  0
    0.9073    0.6987   -2.4649 C   0  0  0  0  0  0  0  0  0  0  0  0
    0.0059    0.5193   -3.4897 N   0  0  0  0  0  0  0  0  0  0  0  0
    0.4182    0.1626   -4.8406 C   0  0  0  0  0  0  0  0  0  0  0  0
   -0.0625   -1.2333   -5.2341 C   0  0  0  0  0  0  0  0  0  0  0  0
   -0.8163   -1.2791   -6.3590 O   0  0  0  0  0  0  0  0  0  0  0  0
   -1.4817    1.0702   -1.0019 S   0  0  0  0  0  0  0  0  0  0  0  0
    2.1221    0.6575   -2.6606 O   0  0  0  0  0  0  0  0  0  0  0  0
    0.1632   -2.2455   -4.5811 O   0  0  0  0  0  0  0  0  0  0  0  0
    0.5541   -1.0482   -0.3175 H   0  0  0  0  0  0  0  0  0  0  0  0
    0.5344    0.1911    0.9605 H   0  0  0  0  0  0  0  0  0  0  0  0
    1.9659   -0.0316   -0.0435 H   0  0  0  0  0  0  0  0  0  0  0  0
    0.7110    1.9862   -0.7783 H   0  0  0  0  0  0  0  0  0  0  0  0
   -0.9820    0.5347   -3.2618 H   0  0  0  0  0  0  0  0  0  0  0  0
    0.0086    0.9199   -5.5147 H   0  0  0  0  0  0  0  0  0  0  0  0
    1.5083    0.1762   -4.9362 H   0  0  0  0  0  0  0  0  0  0  0  0
   -0.9865   -0.4307   -6.8095 H   0  0  0  0  0  0  0  0  0  0  0  0
   -1.7171   -0.2090   -1.3293 H   0  0  0  0  0  0  0  0  0  0  0  0
  1  2  1  0  0  0  0
  1 11  1  0  0  0  0
  1 12  1  0  0  0  0
  1 13  1  0  0  0  0
  2  3  1  0  0  0  0
  2  8  1  0  0  0  0
  2 14  1  0  0  0  0
  3  4  1  0  0  0  0
  3  9  2  0  0  0  0
  4  5  1  0  0  0  0
  4 15  1  0  0  0  0
  5  6  1  0  0  0  0
  5 16  1  0  0  0  0
  5 17  1  0  0  0  0
  6  7  1  0  0  0  0
  6 10  2  0  0  0  0
  7 18  1  0  0  0  0
  8 19  1  0  0  0  0
M  END
>  <DRUGBANK_ID>
DB06823

>  <COMMON_NAME>
Tiopronin

>  <CAS_NUMBER>
1953-02-2

>  <UNII>
C5W04GO61S

>  <SYNONYMS>
Tiopronin; Tiopronine; Tiopronino; Tioproninum

$$$$
