
 OpenBabel10282417133D

 16 16  0  0  1  0  0  0  0  0999 V2000
   -2.9282    1.1333    2.8575 O   0  0  0  0  0  0  0  0  0  0  0  0
   -1.7254    0.5985    2.5596 C   0  0  0  0  0  0  0  0  0  0  0  0
   -1.0896   -0.0016    3.4153 O   0  0  0  0  0  0  0  0  0  0  0  0
   -1.3118    0.7609    1.0951 C   0  0  1  0  0  0  0  0  0  0  0  0
   -1.8381   -0.3844    0.2470 C   0  0  0  0  0  0  0  0  0  0  0  0
   -3.1098    0.1869   -0.3302 C   0  0  0  0  0  0  0  0  0  0  0  0
   -2.7820    1.6556   -0.4809 C   0  0  0  0  0  0  0  0  0  0  0  0
   -1.7831    1.9738    0.4950 O   0  0  0  0  0  0  0  0  0  0  0  0
   -3.0482    0.9696    3.8155 H   0  0  0  0  0  0  0  0  0  0  0  0
   -0.2168    0.7917    1.0822 H   0  0  0  0  0  0  0  0  0  0  0  0
   -1.1329   -0.5986   -0.5653 H   0  0  0  0  0  0  0  0  0  0  0  0
   -2.0055   -1.3120    0.8026 H   0  0  0  0  0  0  0  0  0  0  0  0
   -3.4117   -0.2785   -1.2728 H   0  0  0  0  0  0  0  0  0  0  0  0
   -3.9309    0.0602    0.3842 H   0  0  0  0  0  0  0  0  0  0  0  0
   -2.3666    1.8730   -1.4707 H   0  0  0  0  0  0  0  0  0  0  0  0
   -3.6577    2.2929   -0.3273 H   0  0  0  0  0  0  0  0  0  0  0  0
  1  2  1  0  0  0  0
  1  9  1  0  0  0  0
  2  3  2  0  0  0  0
  4  5  1  0  0  0  0
  4  8  1  0  0  0  0
  4 10  1  6  0  0  0
  4  2  1  0  0  0  0
  5  6  1  0  0  0  0
  5 11  1  0  0  0  0
  5 12  1  0  0  0  0
  6  7  1  0  0  0  0
  6 13  1  0  0  0  0
  6 14  1  0  0  0  0
  7  8  1  0  0  0  0
  7 15  1  0  0  0  0
  7 16  1  0  0  0  0
M  END
>  <DRUGBANK_ID>
DB03051

>  <SECONDARY_ACCESSION_NUMBERS>
EXPT03042

>  <COMMON_NAME>
(S)-2-Tetrahydrofuroic acid

>  <CAS_NUMBER>
87392-05-0

>  <UNII>
7396HFQ44J

>  <SYNONYMS>
(2R)-Tetrahydro-2-furancarboxylic acid; (R)-(+)-Tetrahydro-2-furoic acid; (R)-Tetrahydrofuran-2-carboxylic acid; (S)-(-)-2-Tetrahydrofuroic acid

$$$$
