GN8
 OpenBabel10282417163D

 37 39  0  0  0  0  0  0  0  0999 V2000
   -2.2070   -1.4247   -0.5237 O   0  0  0  0  0  0  0  0  0  0  0  0
   -1.2453   -0.7619   -0.1452 C   0  0  0  0  0  0  0  0  0  0  0  0
   -1.3709    0.6923    0.0410 C   0  0  0  0  0  0  0  0  0  0  0  0
   -2.5737    1.2853    0.0364 C   0  0  0  0  0  0  0  0  0  0  0  0
   -2.7507    2.7381   -0.0125 C   0  0  0  0  0  0  0  0  0  0  0  0
   -2.2446    3.5048   -1.0842 C   0  0  0  0  0  0  0  0  0  0  0  0
   -1.6772    2.8961   -2.1719 O   0  0  0  0  0  0  0  0  0  0  0  0
   -2.3274    4.8987   -1.0353 C   0  0  0  0  0  0  0  0  0  0  0  0
   -1.7283    5.7459   -2.0822 N   0  3  0  0  0  0  0  0  0  0  0  0
   -1.8526    6.9732   -1.9496 O   0  0  0  0  0  0  0  0  0  0  0  0
   -1.1266    5.2230   -3.0293 O   0  5  0  0  0  0  0  0  0  0  0  0
   -2.9724    5.5217    0.0489 C   0  0  0  0  0  0  0  0  0  0  0  0
   -3.5279    4.7555    1.0766 C   0  0  0  0  0  0  0  0  0  0  0  0
   -3.4153    3.3668    1.0487 C   0  0  0  0  0  0  0  0  0  0  0  0
    0.1840    1.4059    0.1045 S   0  0  0  0  0  0  0  0  0  0  0  0
    0.9992   -0.1504    0.0544 C   0  0  0  0  0  0  0  0  0  0  0  0
    2.6634   -0.2537    0.0360 S   0  0  0  0  0  0  0  0  0  0  0  0
    0.0652   -1.1670    0.0272 N   0  0  0  0  0  0  0  0  0  0  0  0
    0.4157   -2.5887   -0.0136 C   0  0  0  0  0  0  0  0  0  0  0  0
   -0.0899   -3.3813    1.1765 C   0  0  0  0  0  0  0  0  0  0  0  0
    0.7719   -4.1240    1.9910 C   0  0  0  0  0  0  0  0  0  0  0  0
   -1.4672   -3.5017    1.4091 C   0  0  0  0  0  0  0  0  0  0  0  0
   -1.9915   -4.3161    2.3984 C   0  0  0  0  0  0  0  0  0  0  0  0
   -1.1347   -5.0961    3.1495 C   0  0  0  0  0  0  0  0  0  0  0  0
    0.2422   -5.0182    2.9315 C   0  0  0  0  0  0  0  0  0  0  0  0
   -3.4898    0.6946    0.0141 H   0  0  0  0  0  0  0  0  0  0  0  0
   -1.6448    1.9331   -2.0798 H   0  0  0  0  0  0  0  0  0  0  0  0
   -3.0510    6.6057    0.1062 H   0  0  0  0  0  0  0  0  0  0  0  0
   -4.0322    5.2439    1.9085 H   0  0  0  0  0  0  0  0  0  0  0  0
   -3.8326    2.7851    1.8702 H   0  0  0  0  0  0  0  0  0  0  0  0
   -0.0015   -3.0307   -0.9267 H   0  0  0  0  0  0  0  0  0  0  0  0
    1.5004   -2.7155   -0.0882 H   0  0  0  0  0  0  0  0  0  0  0  0
    1.8530   -4.0554    1.8807 H   0  0  0  0  0  0  0  0  0  0  0  0
   -2.1996   -3.0042    0.7956 H   0  0  0  0  0  0  0  0  0  0  0  0
   -3.0696   -4.3605    2.5209 H   0  0  0  0  0  0  0  0  0  0  0  0
   -1.5478   -5.7748    3.8879 H   0  0  0  0  0  0  0  0  0  0  0  0
    0.9023   -5.6837    3.4808 H   0  0  0  0  0  0  0  0  0  0  0  0
  1  2  2  0  0  0  0
  2 18  1  0  0  0  0
  2  3  1  0  0  0  0
  3  4  2  0  0  0  0
  3 15  1  0  0  0  0
  4  5  1  0  0  0  0
  4 26  1  0  0  0  0
  5  6  2  0  0  0  0
  5 14  1  0  0  0  0
  6  7  1  0  0  0  0
  6  8  1  0  0  0  0
  7 27  1  0  0  0  0
  8 12  2  0  0  0  0
  8  9  1  0  0  0  0
  9 10  2  0  0  0  0
  9 11  1  0  0  0  0
 12 13  1  0  0  0  0
 12 28  1  0  0  0  0
 13 14  2  0  0  0  0
 13 29  1  0  0  0  0
 14 30  1  0  0  0  0
 15 16  1  0  0  0  0
 16 17  2  0  0  0  0
 16 18  1  0  0  0  0
 18 19  1  0  0  0  0
 19 20  1  0  0  0  0
 19 31  1  0  0  0  0
 19 32  1  0  0  0  0
 20 22  2  0  0  0  0
 20 21  1  0  0  0  0
 21 25  2  0  0  0  0
 21 33  1  0  0  0  0
 22 23  1  0  0  0  0
 22 34  1  0  0  0  0
 23 24  2  0  0  0  0
 23 35  1  0  0  0  0
 24 25  1  0  0  0  0
 24 36  1  0  0  0  0
 25 37  1  0  0  0  0
M  CHG  2   9   1  11  -1
M  END
>  <DRUGBANK_ID>
DB07838

>  <COMMON_NAME>
(Z)-3-BENZYL-5-(2-HYDROXY-3-NITROBENZYLIDENE)-2-THIOXOTHIAZOLIDIN-4-ONE

$$$$
