PNC
 OpenBabel10282417173D

 40 40  0  0  0  0  0  0  0  0999 V2000
    1.3657   -0.2294    0.0074 C   0  0  0  0  0  0  0  0  0  0  0  0
    0.4775   -1.3134   -0.0002 C   0  0  0  0  0  0  0  0  0  0  0  0
   -0.9014   -1.1002   -0.0295 C   0  0  0  0  0  0  0  0  0  0  0  0
   -1.3964    0.2097   -0.0373 C   0  0  0  0  0  0  0  0  0  0  0  0
   -0.5230    1.3025    0.0137 C   0  0  0  0  0  0  0  0  0  0  0  0
    0.8551    1.0795   -0.0094 C   0  0  0  0  0  0  0  0  0  0  0  0
    2.8469   -0.4717    0.1408 C   0  0  0  0  0  0  0  0  0  0  0  0
    5.2458    1.5968   -1.9523 C   0  0  0  0  0  0  0  0  0  0  0  0
    5.1110    3.1258   -2.0153 C   0  0  0  0  0  0  0  0  0  0  0  0
    5.6768    3.8807   -0.8029 C   0  0  0  0  0  0  0  0  0  0  0  0
    7.1506    3.5728   -0.5874 C   0  0  0  0  0  0  0  0  0  0  0  0
    9.4295    4.4653   -0.4598 C   0  0  0  0  0  0  0  0  0  0  0  0
   10.1931    5.0312   -1.6400 C   0  0  0  0  0  0  0  0  0  0  0  0
    4.5624    1.0246   -0.7231 C   0  0  0  0  0  0  0  0  0  0  0  0
   -2.8399    0.4401   -0.1674 N   0  3  0  0  0  0  0  0  0  0  0  0
    7.9916    4.6539   -0.5926 N   0  0  0  0  0  0  0  0  0  0  0  0
    3.5865    0.0920   -0.9640 N   0  0  0  0  0  0  0  0  0  0  0  0
    4.8306    1.3882    0.4184 O   0  0  0  0  0  0  0  0  0  0  0  0
   -3.2364    1.6140   -0.2001 O   0  0  0  0  0  0  0  0  0  0  0  0
   -3.5754   -0.5526   -0.2679 O   0  5  0  0  0  0  0  0  0  0  0  0
    7.5775    2.4333   -0.4267 O   0  0  0  0  0  0  0  0  0  0  0  0
   11.1190    5.8323   -1.5719 O   0  0  0  0  0  0  0  0  0  0  0  0
    9.8167    4.5260   -2.8318 O   0  0  0  0  0  0  0  0  0  0  0  0
    0.8585   -2.3327    0.0210 H   0  0  0  0  0  0  0  0  0  0  0  0
   -1.5688   -1.9591   -0.0388 H   0  0  0  0  0  0  0  0  0  0  0  0
   -0.8957    2.3229    0.0739 H   0  0  0  0  0  0  0  0  0  0  0  0
    1.5347    1.9313   -0.0266 H   0  0  0  0  0  0  0  0  0  0  0  0
    3.1702   -0.0535    1.1016 H   0  0  0  0  0  0  0  0  0  0  0  0
    3.0731   -1.5423    0.1717 H   0  0  0  0  0  0  0  0  0  0  0  0
    6.2950    1.2898   -1.9339 H   0  0  0  0  0  0  0  0  0  0  0  0
    4.8374    1.1559   -2.8683 H   0  0  0  0  0  0  0  0  0  0  0  0
    5.6168    3.4880   -2.9199 H   0  0  0  0  0  0  0  0  0  0  0  0
    4.0489    3.3808   -2.1282 H   0  0  0  0  0  0  0  0  0  0  0  0
    5.5138    4.9566   -0.9337 H   0  0  0  0  0  0  0  0  0  0  0  0
    5.1353    3.6261    0.1127 H   0  0  0  0  0  0  0  0  0  0  0  0
    9.7471    4.9699    0.4559 H   0  0  0  0  0  0  0  0  0  0  0  0
    9.6927    3.4052   -0.3707 H   0  0  0  0  0  0  0  0  0  0  0  0
    7.6239    5.5924   -0.6698 H   0  0  0  0  0  0  0  0  0  0  0  0
    3.4033   -0.2391   -1.9008 H   0  0  0  0  0  0  0  0  0  0  0  0
   10.4285    4.9272   -3.4837 H   0  0  0  0  0  0  0  0  0  0  0  0
  1  2  2  0  0  0  0
  1  6  1  0  0  0  0
  1  7  1  0  0  0  0
  2  3  1  0  0  0  0
  2 24  1  0  0  0  0
  3  4  2  0  0  0  0
  3 25  1  0  0  0  0
  4  5  1  0  0  0  0
  4 15  1  0  0  0  0
  5  6  2  0  0  0  0
  5 26  1  0  0  0  0
  6 27  1  0  0  0  0
  7 17  1  0  0  0  0
  7 28  1  0  0  0  0
  7 29  1  0  0  0  0
  8  9  1  0  0  0  0
  8 14  1  0  0  0  0
  8 30  1  0  0  0  0
  8 31  1  0  0  0  0
  9 10  1  0  0  0  0
  9 32  1  0  0  0  0
  9 33  1  0  0  0  0
 10 11  1  0  0  0  0
 10 34  1  0  0  0  0
 10 35  1  0  0  0  0
 11 16  1  0  0  0  0
 11 21  2  0  0  0  0
 12 13  1  0  0  0  0
 12 16  1  0  0  0  0
 12 36  1  0  0  0  0
 12 37  1  0  0  0  0
 13 22  2  0  0  0  0
 13 23  1  0  0  0  0
 14 17  1  0  0  0  0
 14 18  2  0  0  0  0
 15 19  2  0  0  0  0
 15 20  1  0  0  0  0
 16 38  1  0  0  0  0
 17 39  1  0  0  0  0
 23 40  1  0  0  0  0
M  CHG  2  15   1  20  -1
M  END
>  <DRUGBANK_ID>
DB08410

>  <COMMON_NAME>
PARA-NITROBENZYL GLUTARYL GLYCINIC ACID

$$$$
