
 OpenBabel10282417213D

 60 63  0  0  0  0  0  0  0  0999 V2000
   -4.0399    1.2467   -0.5152 C   0  0  0  0  0  0  0  0  0  0  0  0
   -4.5021   -0.2090   -0.5889 C   0  0  1  0  0  0  0  0  0  0  0  0
   -3.7159   -1.1979    0.2731 C   0  0  0  0  0  0  0  0  0  0  0  0
   -2.2366   -1.0012    0.1514 C   0  0  0  0  0  0  0  0  0  0  0  0
   -1.6933    0.4323    0.2250 C   0  0  2  0  0  0  0  0  0  0  0  0
   -2.5373    1.3770   -0.6811 C   0  0  0  0  0  0  0  0  0  0  0  0
   -1.4646   -2.0883   -0.0055 C   0  0  0  0  0  0  0  0  0  0  0  0
    0.0158   -2.0570   -0.1312 C   0  0  0  0  0  0  0  0  0  0  0  0
    0.6253   -0.7045    0.2399 C   0  0  2  0  0  0  0  0  0  0  0  0
   -0.2225    0.4716   -0.3147 C   0  0  2  0  0  0  0  0  0  0  0  0
    2.0402   -0.5910   -0.3291 C   0  0  1  0  0  0  0  0  0  0  0  0
    2.7257    0.7438    0.0382 C   0  0  2  0  0  0  0  0  0  0  0  0
    1.9185    1.8672   -0.6277 C   0  0  0  0  0  0  0  0  0  0  0  0
    0.4676    1.8500   -0.1330 C   0  0  0  0  0  0  0  0  0  0  0  0
    3.0621   -1.6372    0.0818 C   0  0  0  0  0  0  0  0  0  0  0  0
    4.3953   -1.0025   -0.3373 C   0  0  0  0  0  0  0  0  0  0  0  0
    4.1315    0.5134   -0.5592 C   0  0  2  0  0  0  0  0  0  0  0  0
   -0.2776    0.3098   -1.4030 H   0  0  0  0  0  0  0  0  0  0  0  0
    1.9451   -0.6559   -1.4265 H   0  0  0  0  0  0  0  0  0  0  0  0
    0.6425   -0.6591    1.3343 H   0  0  0  0  0  0  0  0  0  0  0  0
    2.7574    0.9441    1.5633 C   0  0  0  0  0  0  0  0  0  0  0  0
    5.3748    1.3345   -0.1842 C   0  0  0  0  0  0  0  0  0  0  0  0
   -1.7551    0.9151    1.6962 C   0  0  0  0  0  0  0  0  0  0  0  0
    5.5189    2.1725    1.0617 C   0  0  0  0  0  0  0  0  0  0  0  0
   -5.9203   -0.3147   -0.3407 O   0  0  0  0  0  0  0  0  0  0  0  0
    6.3756    1.2346   -0.9103 O   0  0  0  0  0  0  0  0  0  0  0  0
   -6.5543   -0.0388    0.8216 C   0  0  0  0  0  0  0  0  0  0  0  0
   -5.7715    0.4465    2.0091 C   0  0  0  0  0  0  0  0  0  0  0  0
   -7.7656   -0.1807    0.9080 O   0  0  0  0  0  0  0  0  0  0  0  0
   -4.3201    1.7404    0.4144 H   0  0  0  0  0  0  0  0  0  0  0  0
   -4.5651    1.8353   -1.2779 H   0  0  0  0  0  0  0  0  0  0  0  0
   -4.3672   -0.5274   -1.6346 H   0  0  0  0  0  0  0  0  0  0  0  0
   -3.9597   -1.1442    1.3337 H   0  0  0  0  0  0  0  0  0  0  0  0
   -4.0255   -2.2168    0.0036 H   0  0  0  0  0  0  0  0  0  0  0  0
   -2.2779    2.4238   -0.4800 H   0  0  0  0  0  0  0  0  0  0  0  0
   -2.3009    1.1939   -1.7369 H   0  0  0  0  0  0  0  0  0  0  0  0
   -1.9185   -3.0768   -0.0492 H   0  0  0  0  0  0  0  0  0  0  0  0
    0.2640   -2.3190   -1.1648 H   0  0  0  0  0  0  0  0  0  0  0  0
    0.4421   -2.8332    0.5156 H   0  0  0  0  0  0  0  0  0  0  0  0
    2.3675    2.8433   -0.4129 H   0  0  0  0  0  0  0  0  0  0  0  0
    1.9163    1.7564   -1.7204 H   0  0  0  0  0  0  0  0  0  0  0  0
   -0.0885    2.6256   -0.6691 H   0  0  0  0  0  0  0  0  0  0  0  0
    0.4668    2.1457    0.9201 H   0  0  0  0  0  0  0  0  0  0  0  0
    2.8924   -2.6005   -0.4104 H   0  0  0  0  0  0  0  0  0  0  0  0
    3.0457   -1.8128    1.1629 H   0  0  0  0  0  0  0  0  0  0  0  0
    4.7455   -1.4627   -1.2708 H   0  0  0  0  0  0  0  0  0  0  0  0
    5.1613   -1.1835    0.4220 H   0  0  0  0  0  0  0  0  0  0  0  0
    4.0423    0.6611   -1.6503 H   0  0  0  0  0  0  0  0  0  0  0  0
    2.9111    1.9961    1.7939 H   0  0  0  0  0  0  0  0  0  0  0  0
    1.8193    0.7349    2.0737 H   0  0  0  0  0  0  0  0  0  0  0  0
    3.5283    0.3277    2.0363 H   0  0  0  0  0  0  0  0  0  0  0  0
   -2.7660    0.9079    2.1012 H   0  0  0  0  0  0  0  0  0  0  0  0
   -1.1528    0.2856    2.3596 H   0  0  0  0  0  0  0  0  0  0  0  0
   -1.4110    1.9482    1.8062 H   0  0  0  0  0  0  0  0  0  0  0  0
    6.2139    1.6800    1.7461 H   0  0  0  0  0  0  0  0  0  0  0  0
    5.9013    3.1557    0.7748 H   0  0  0  0  0  0  0  0  0  0  0  0
    4.6318    2.3935    1.6252 H   0  0  0  0  0  0  0  0  0  0  0  0
   -6.1080    1.4472    2.2825 H   0  0  0  0  0  0  0  0  0  0  0  0
   -5.8810   -0.2615    2.8316 H   0  0  0  0  0  0  0  0  0  0  0  0
   -4.7103    0.5365    1.8529 H   0  0  0  0  0  0  0  0  0  0  0  0
  1  2  1  0  0  0  0
  1  6  1  0  0  0  0
  1 30  1  0  0  0  0
  1 31  1  0  0  0  0
  2  3  1  0  0  0  0
  2 25  1  0  0  0  0
  2 32  1  6  0  0  0
  3  4  1  0  0  0  0
  3 33  1  0  0  0  0
  3 34  1  0  0  0  0
  4  5  1  0  0  0  0
  4  7  2  0  0  0  0
  5  6  1  0  0  0  0
  5 10  1  0  0  0  0
  5 23  1  1  0  0  0
  6 35  1  0  0  0  0
  6 36  1  0  0  0  0
  7  8  1  0  0  0  0
  7 37  1  0  0  0  0
  8  9  1  0  0  0  0
  8 38  1  0  0  0  0
  8 39  1  0  0  0  0
  9 10  1  0  0  0  0
  9 11  1  0  0  0  0
  9 20  1  1  0  0  0
 10 14  1  0  0  0  0
 10 18  1  6  0  0  0
 11 12  1  0  0  0  0
 11 15  1  0  0  0  0
 11 19  1  6  0  0  0
 12 13  1  0  0  0  0
 12 17  1  0  0  0  0
 12 21  1  1  0  0  0
 13 14  1  0  0  0  0
 13 40  1  0  0  0  0
 13 41  1  0  0  0  0
 14 42  1  0  0  0  0
 14 43  1  0  0  0  0
 15 16  1  0  0  0  0
 15 44  1  0  0  0  0
 15 45  1  0  0  0  0
 16 17  1  0  0  0  0
 16 46  1  0  0  0  0
 16 47  1  0  0  0  0
 17 48  1  6  0  0  0
 17 22  1  0  0  0  0
 21 49  1  0  0  0  0
 21 50  1  0  0  0  0
 21 51  1  0  0  0  0
 22 24  1  0  0  0  0
 22 26  2  0  0  0  0
 23 52  1  0  0  0  0
 23 53  1  0  0  0  0
 23 54  1  0  0  0  0
 24 55  1  0  0  0  0
 24 56  1  0  0  0  0
 24 57  1  0  0  0  0
 25 27  1  0  0  0  0
 27 28  1  0  0  0  0
 27 29  2  0  0  0  0
 28 58  1  0  0  0  0
 28 59  1  0  0  0  0
 28 60  1  0  0  0  0
M  END
>  <DRUGBANK_ID>
DB14626

>  <SECONDARY_ACCESSION_NUMBERS>
DBSALT002259

>  <COMMON_NAME>
Pregnenolone acetate

>  <CAS_NUMBER>
1778-02-5

>  <UNII>
0G0WWV404B

>  <SYNONYMS>
3beta-Hydroxypregn-5-en-20-one acetate

$$$$
