
 OpenBabel10282417183D

  7  4  0  0  0  0  0  0  0  0999 V2000
    1.6869   -0.9001    1.7749 Na  0  3  0  0  0  0  0  0  0  0  0  0
    1.1749   -0.3504   -0.6078 O   0  0  0  0  0  0  0  0  0  0  0  0
    3.2370    0.4178   -1.6167 O   0  5  0  0  0  0  0  0  0  0  0  0
    2.6217    0.7862    0.7083 O   0  0  0  0  0  0  0  0  0  0  0  0
    2.6295   -0.1380   -0.4416 S   0  0  0  0  0  0  0  0  0  0  0  0
    3.1718   -1.4062    0.0502 O   0  5  0  0  0  0  0  0  0  0  0  0
    0.0363    1.2321   -0.2937 Na  0  3  0  0  0  0  0  0  0  0  0  0
  2  5  2  0  0  0  0
  3  5  1  0  0  0  0
  4  5  2  0  0  0  0
  5  6  1  0  0  0  0
M  CHG  4   1   1   3  -1   6  -1   7   1
M  END
>  <DRUGBANK_ID>
DB09472

>  <SECONDARY_ACCESSION_NUMBERS>
DB09476

>  <COMMON_NAME>
Sodium sulfate

>  <CAS_NUMBER>
7757-82-6

>  <UNII>
36KCS0R750

>  <SYNONYMS>
Anhydrous sodium sulfate; Sodium sulfate anhydrous; Sodium sulfate, anhydrous; Sodium sulphate anhydrous; Sodium sulphate, anhydrous; Sulfuric acid disodium salt, anhydrous

$$$$
