IDN
 OpenBabel10282417123D

 50 53  0  0  0  0  0  0  0  0999 V2000
   -0.0542   -0.6877   -0.1350 C   0  0  0  0  0  0  0  0  0  0  0  0
   -0.1002    0.7080   -0.0470 C   0  0  0  0  0  0  0  0  0  0  0  0
    1.0638    1.4356    0.0369 C   0  0  0  0  0  0  0  0  0  0  0  0
    2.2465    0.7576    0.1021 C   0  0  0  0  0  0  0  0  0  0  0  0
    2.2230   -0.6410   -0.0671 C   0  0  0  0  0  0  0  0  0  0  0  0
    1.0939   -1.3811   -0.1827 N   0  0  0  0  0  0  0  0  0  0  0  0
    3.4643    1.4491    0.4941 C   0  0  0  0  0  0  0  0  0  0  0  0
    3.7466    2.6889    0.9331 C   0  0  0  0  0  0  0  0  0  0  0  0
    5.1634    3.3333    1.2595 C   0  0  0  0  0  0  0  0  0  0  0  0
    5.1011    4.5695    1.3893 O   0  0  0  0  0  0  0  0  0  0  0  0
    6.4481    2.6382    0.9761 N   0  0  0  0  0  0  0  0  0  0  0  0
    6.6318    1.1969    0.8361 C   0  0  0  0  0  0  0  0  0  0  0  0
    7.6336    3.3574    0.1707 C   0  0  0  0  0  0  0  0  0  0  0  0
    7.5231    2.9286   -1.4612 C   0  0  0  0  0  0  0  0  0  0  0  0
    6.5382    1.9208   -1.8543 C   0  0  0  0  0  0  0  0  0  0  0  0
    5.7210    2.9535   -2.4212 N   0  0  0  0  0  0  0  0  0  0  0  0
    6.5484    3.2938   -3.4287 C   0  0  0  0  0  0  0  0  0  0  0  0
    7.7292    3.6474   -2.7471 C   0  0  0  0  0  0  0  0  0  0  0  0
   -1.2505   -1.3963   -0.0680 N   0  0  0  0  0  0  0  0  0  0  0  0
    5.0437    3.7462   -1.4628 C   0  0  0  0  0  0  0  0  0  0  0  0
    8.4093    4.2540   -4.9405 C   0  0  0  0  0  0  0  0  0  0  0  0
    7.4348    3.3915   -5.4836 C   0  0  0  0  0  0  0  0  0  0  0  0
    6.6310    2.6857   -4.6467 C   0  0  0  0  0  0  0  0  0  0  0  0
    8.6191    4.4045   -3.5270 C   0  0  0  0  0  0  0  0  0  0  0  0
   -1.3659    1.4810    0.0761 C   0  0  0  0  0  0  0  0  0  0  0  0
   -2.5166    0.6338   -0.3757 C   0  0  0  0  0  0  0  0  0  0  0  0
   -2.4237   -0.7371    0.2741 C   0  0  0  0  0  0  0  0  0  0  0  0
   -3.2757   -1.2017    0.9774 O   0  0  0  0  0  0  0  0  0  0  0  0
    1.0135    2.5122    0.1372 H   0  0  0  0  0  0  0  0  0  0  0  0
    3.1422   -1.2287   -0.0535 H   0  0  0  0  0  0  0  0  0  0  0  0
    4.2223    0.7418    0.3387 H   0  0  0  0  0  0  0  0  0  0  0  0
    2.9512    3.4478    0.7746 H   0  0  0  0  0  0  0  0  0  0  0  0
    7.2939    1.0026   -0.0043 H   0  0  0  0  0  0  0  0  0  0  0  0
    7.1488    0.7393    1.6662 H   0  0  0  0  0  0  0  0  0  0  0  0
    5.7836    0.6224    0.5645 H   0  0  0  0  0  0  0  0  0  0  0  0
    7.6169    4.4388    0.3612 H   0  0  0  0  0  0  0  0  0  0  0  0
    8.5786    2.9296    0.5345 H   0  0  0  0  0  0  0  0  0  0  0  0
    6.2449    1.1268   -2.5422 H   0  0  0  0  0  0  0  0  0  0  0  0
   -1.1889   -2.3940    0.0692 H   0  0  0  0  0  0  0  0  0  0  0  0
    5.6019    3.3878   -0.6557 H   0  0  0  0  0  0  0  0  0  0  0  0
    5.3960    4.7360   -1.1561 H   0  0  0  0  0  0  0  0  0  0  0  0
    4.2217    3.1243   -1.1661 H   0  0  0  0  0  0  0  0  0  0  0  0
    9.0833    4.7165   -5.6553 H   0  0  0  0  0  0  0  0  0  0  0  0
    7.2581    3.2315   -6.5371 H   0  0  0  0  0  0  0  0  0  0  0  0
    6.0195    1.8214   -4.8718 H   0  0  0  0  0  0  0  0  0  0  0  0
    9.5037    4.9169   -3.1609 H   0  0  0  0  0  0  0  0  0  0  0  0
   -1.2881    2.3734   -0.5557 H   0  0  0  0  0  0  0  0  0  0  0  0
   -1.4814    1.8062    1.1178 H   0  0  0  0  0  0  0  0  0  0  0  0
   -2.4608    0.4816   -1.4611 H   0  0  0  0  0  0  0  0  0  0  0  0
   -3.4655    1.1162   -0.1449 H   0  0  0  0  0  0  0  0  0  0  0  0
  1  2  1  0  0  0  0
  1  6  2  0  0  0  0
  1 19  1  0  0  0  0
  2  3  2  0  0  0  0
  2 25  1  0  0  0  0
  3  4  1  0  0  0  0
  3 29  1  0  0  0  0
  4  5  2  0  0  0  0
  4  7  1  0  0  0  0
  5  6  1  0  0  0  0
  5 30  1  0  0  0  0
  7  8  2  0  0  0  0
  7 31  1  0  0  0  0
  8  9  1  0  0  0  0
  8 32  1  0  0  0  0
  9 10  2  0  0  0  0
  9 11  1  0  0  0  0
 11 12  1  0  0  0  0
 11 13  1  0  0  0  0
 12 33  1  0  0  0  0
 12 34  1  0  0  0  0
 12 35  1  0  0  0  0
 13 14  1  0  0  0  0
 13 36  1  0  0  0  0
 13 37  1  0  0  0  0
 14 15  2  0  0  0  0
 14 18  1  0  0  0  0
 15 16  1  0  0  0  0
 15 38  1  0  0  0  0
 16 17  1  0  0  0  0
 16 20  1  0  0  0  0
 17 18  1  0  0  0  0
 17 23  2  0  0  0  0
 18 24  2  0  0  0  0
 19 27  1  0  0  0  0
 19 39  1  0  0  0  0
 20 40  1  0  0  0  0
 20 41  1  0  0  0  0
 20 42  1  0  0  0  0
 21 22  2  0  0  0  0
 21 24  1  0  0  0  0
 21 43  1  0  0  0  0
 22 23  1  0  0  0  0
 22 44  1  0  0  0  0
 23 45  1  0  0  0  0
 24 46  1  0  0  0  0
 25 26  1  0  0  0  0
 25 47  1  0  0  0  0
 25 48  1  0  0  0  0
 26 27  1  0  0  0  0
 26 49  1  0  0  0  0
 26 50  1  0  0  0  0
 27 28  2  0  0  0  0
M  END
>  <DRUGBANK_ID>
DB01691

>  <SECONDARY_ACCESSION_NUMBERS>
EXPT01841

>  <COMMON_NAME>
Indole Naphthyridinone

$$$$
