4858
 OpenBabel10282417173D

 39 41  0  0  0  0  0  0  0  0999 V2000
    1.5357   -2.8519    0.0154 O   0  0  0  0  0  0  0  0  0  0  0  0
   -4.5448    4.7229   -0.0892 O   0  0  0  0  0  0  0  0  0  0  0  0
   -0.5640   -1.9704   -0.0445 N   0  0  0  0  0  0  0  0  0  0  0  0
   -3.9697    2.5405   -0.0498 N   0  0  0  0  0  0  0  0  0  0  0  0
   -1.5143    3.8983    1.2753 N   0  0  0  0  0  0  0  0  0  0  0  0
   -0.8836    0.3777   -0.1088 C   0  0  0  0  0  0  0  0  0  0  0  0
    0.5756    0.5790   -0.1231 C   0  0  0  0  0  0  0  0  0  0  0  0
   -1.4396   -0.8799   -0.0370 C   0  0  0  0  0  0  0  0  0  0  0  0
    1.4249   -0.5035    0.0297 C   0  0  0  0  0  0  0  0  0  0  0  0
   -1.7779    1.4361   -0.1564 C   0  0  0  0  0  0  0  0  0  0  0  0
   -3.1597    1.3745   -0.0531 C   0  0  0  0  0  0  0  0  0  0  0  0
   -2.8389   -1.0315    0.0123 C   0  0  0  0  0  0  0  0  0  0  0  0
    0.8239   -1.8659    0.0091 C   0  0  0  0  0  0  0  0  0  0  0  0
   -3.7002    0.0955    0.0231 C   0  0  0  0  0  0  0  0  0  0  0  0
    1.1926    1.8227   -0.3201 C   0  0  0  0  0  0  0  0  0  0  0  0
    2.8216   -0.3165    0.0835 C   0  0  0  0  0  0  0  0  0  0  0  0
   -2.1708    4.3811    0.0373 C   0  0  0  0  0  0  0  0  0  0  0  0
    2.5528    2.0551   -0.1205 C   0  0  0  0  0  0  0  0  0  0  0  0
   -3.6332    3.8865   -0.0419 C   0  0  0  0  0  0  0  0  0  0  0  0
    3.3809    0.9670    0.0621 C   0  0  0  0  0  0  0  0  0  0  0  0
   -0.0976    4.2125    1.3542 C   0  0  0  0  0  0  0  0  0  0  0  0
   -2.1762    4.3521    2.4837 C   0  0  0  0  0  0  0  0  0  0  0  0
   -0.9300   -2.9086   -0.1056 H   0  0  0  0  0  0  0  0  0  0  0  0
   -4.9757    2.4088   -0.0233 H   0  0  0  0  0  0  0  0  0  0  0  0
   -1.2969    2.3647   -0.2885 H   0  0  0  0  0  0  0  0  0  0  0  0
   -3.2739   -2.0257    0.0547 H   0  0  0  0  0  0  0  0  0  0  0  0
   -4.7759   -0.0584    0.0816 H   0  0  0  0  0  0  0  0  0  0  0  0
    0.6073    2.6408   -0.7092 H   0  0  0  0  0  0  0  0  0  0  0  0
    3.4810   -1.1775    0.1201 H   0  0  0  0  0  0  0  0  0  0  0  0
   -1.6858    4.0429   -0.8922 H   0  0  0  0  0  0  0  0  0  0  0  0
   -2.1167    5.4699   -0.0259 H   0  0  0  0  0  0  0  0  0  0  0  0
    2.9498    3.0681   -0.1669 H   0  0  0  0  0  0  0  0  0  0  0  0
    4.4565    1.1139    0.1165 H   0  0  0  0  0  0  0  0  0  0  0  0
    0.1036    5.2599    1.5683 H   0  0  0  0  0  0  0  0  0  0  0  0
    0.3897    3.5681    2.0996 H   0  0  0  0  0  0  0  0  0  0  0  0
    0.3942    4.0442    0.4078 H   0  0  0  0  0  0  0  0  0  0  0  0
   -2.0709    5.4348    2.5800 H   0  0  0  0  0  0  0  0  0  0  0  0
   -3.2362    4.0871    2.4936 H   0  0  0  0  0  0  0  0  0  0  0  0
   -1.7274    3.8646    3.3561 H   0  0  0  0  0  0  0  0  0  0  0  0
  1 13  2  0  0  0  0
  2 19  2  0  0  0  0
  3  8  1  0  0  0  0
  3 13  1  0  0  0  0
  3 23  1  0  0  0  0
  4 11  1  0  0  0  0
  4 19  1  0  0  0  0
  4 24  1  0  0  0  0
  5 17  1  0  0  0  0
  5 21  1  0  0  0  0
  5 22  1  0  0  0  0
  6  7  1  0  0  0  0
  6  8  2  0  0  0  0
  6 10  1  0  0  0  0
  7  9  1  0  0  0  0
  7 15  2  0  0  0  0
  8 12  1  0  0  0  0
  9 13  1  0  0  0  0
  9 16  2  0  0  0  0
 10 11  2  0  0  0  0
 10 25  1  0  0  0  0
 11 14  1  0  0  0  0
 12 14  2  0  0  0  0
 12 26  1  0  0  0  0
 14 27  1  0  0  0  0
 15 18  1  0  0  0  0
 15 28  1  0  0  0  0
 16 20  1  0  0  0  0
 16 29  1  0  0  0  0
 17 19  1  0  0  0  0
 17 30  1  0  0  0  0
 17 31  1  0  0  0  0
 18 20  2  0  0  0  0
 18 32  1  0  0  0  0
 20 33  1  0  0  0  0
 21 34  1  0  0  0  0
 21 35  1  0  0  0  0
 21 36  1  0  0  0  0
 22 37  1  0  0  0  0
 22 38  1  0  0  0  0
 22 39  1  0  0  0  0
M  END
>  <DRUGBANK_ID>
DB08348

>  <COMMON_NAME>
N~2~,N~2~-DIMETHYL-N~1~-(6-OXO-5,6-DIHYDROPHENANTHRIDIN-2-YL)GLYCINAMIDE

>  <UNII>
NA92ZAR7N2

$$$$
