
 OpenBabel10282417123D

 87 90  0  0  1  0  0  0  0  0999 V2000
    1.0663    0.0637   -0.0712 C   0  0  0  0  0  0  0  0  0  0  0  0
    0.5818   -1.2757   -0.1981 O   0  0  0  0  0  0  0  0  0  0  0  0
    0.7695   -1.8490   -1.4309 C   0  0  0  0  0  0  0  0  0  0  0  0
    2.0634   -1.9002   -1.8993 C   0  0  0  0  0  0  0  0  0  0  0  0
    2.4507   -2.5777   -3.0489 C   0  0  0  0  0  0  0  0  0  0  0  0
    1.4561   -3.2649   -3.7464 C   0  0  0  0  0  0  0  0  0  0  0  0
    0.1332   -3.2978   -3.2638 C   0  0  0  0  0  0  0  0  0  0  0  0
   -0.8340   -4.0979   -3.8335 O   0  0  0  0  0  0  0  0  0  0  0  0
   -0.4035   -4.9995   -4.8561 C   0  0  0  0  0  0  0  0  0  0  0  0
   -0.2332   -2.5218   -2.1274 C   0  0  0  0  0  0  0  0  0  0  0  0
   -1.5682   -2.4582   -1.7962 O   0  0  0  0  0  0  0  0  0  0  0  0
   -1.9179   -1.5487   -0.7495 C   0  0  0  0  0  0  0  0  0  0  0  0
    3.8966   -2.6352   -3.5076 C   0  0  0  0  0  0  0  0  0  0  0  0
    4.2923   -3.9497   -3.6369 F   0  0  0  0  0  0  0  0  0  0  0  0
    3.9976   -2.1475   -4.7879 F   0  0  0  0  0  0  0  0  0  0  0  0
    4.9124   -1.9012   -2.5369 C   0  0  0  0  0  0  0  0  0  0  0  0
    4.6584   -1.3656   -1.4558 O   0  0  0  0  0  0  0  0  0  0  0  0
    6.2394   -1.9515   -2.8315 N   0  0  0  0  0  0  0  0  0  0  0  0
    7.1800   -1.9752   -1.7332 C   0  0  0  0  0  0  0  0  0  0  0  0
    8.0418   -0.7348   -1.6114 C   0  0  0  0  0  0  0  0  0  0  0  0
    8.6462   -0.3150   -2.9438 C   0  0  0  0  0  0  0  0  0  0  0  0
    7.5566   -0.2810   -4.0442 C   0  0  0  0  0  0  0  0  0  0  0  0
    6.7760   -1.6291   -4.1244 C   0  0  1  0  0  0  0  0  0  0  0  0
    7.8013   -2.6579   -4.4542 C   0  0  0  0  0  0  0  0  0  0  0  0
    8.8397   -2.2371   -4.8892 O   0  0  0  0  0  0  0  0  0  0  0  0
    7.5391   -3.9555   -4.1574 O   0  0  0  0  0  0  0  0  0  0  0  0
    8.6369   -4.8652   -4.3913 C   0  0  1  0  0  0  0  0  0  0  0  0
    8.8852   -5.0221   -5.8975 C   0  0  0  0  0  0  0  0  0  0  0  0
    9.4216   -3.7910   -6.6906 C   0  0  0  0  0  0  0  0  0  0  0  0
   10.7525   -3.1444   -6.2002 C   0  0  0  0  0  0  0  0  0  0  0  0
   11.9221   -4.0690   -6.2862 C   0  0  0  0  0  0  0  0  0  0  0  0
   13.1596   -3.6514   -5.8087 C   0  0  0  0  0  0  0  0  0  0  0  0
   14.2301   -4.5351   -5.8641 C   0  0  0  0  0  0  0  0  0  0  0  0
   14.0344   -5.8637   -6.2536 C   0  0  0  0  0  0  0  0  0  0  0  0
   12.7787   -6.3121   -6.6080 C   0  0  0  0  0  0  0  0  0  0  0  0
   11.7787   -5.3805   -6.7465 C   0  0  0  0  0  0  0  0  0  0  0  0
    9.9081   -4.5488   -3.5686 C   0  0  0  0  0  0  0  0  0  0  0  0
    9.7759   -4.5984   -2.0636 C   0  0  0  0  0  0  0  0  0  0  0  0
    9.4873   -5.9806   -1.5534 C   0  0  0  0  0  0  0  0  0  0  0  0
   10.6356   -6.8810   -1.8763 C   0  0  0  0  0  0  0  0  0  0  0  0
   10.4062   -8.1393   -2.4085 C   0  0  0  0  0  0  0  0  0  0  0  0
   11.3904   -8.9991   -2.7344 N   0  0  0  0  0  0  0  0  0  0  0  0
   12.6589   -8.5725   -2.5381 C   0  0  0  0  0  0  0  0  0  0  0  0
   12.9966   -7.3208   -2.0621 C   0  0  0  0  0  0  0  0  0  0  0  0
   11.9658   -6.4685   -1.7179 C   0  0  0  0  0  0  0  0  0  0  0  0
    0.6825    0.4530    0.8757 H   0  0  0  0  0  0  0  0  0  0  0  0
    0.6900    0.6976   -0.8806 H   0  0  0  0  0  0  0  0  0  0  0  0
    2.1584    0.1124   -0.0167 H   0  0  0  0  0  0  0  0  0  0  0  0
    2.7614   -1.3963   -1.2644 H   0  0  0  0  0  0  0  0  0  0  0  0
    1.7428   -3.7851   -4.6579 H   0  0  0  0  0  0  0  0  0  0  0  0
   -0.1192   -4.4424   -5.7552 H   0  0  0  0  0  0  0  0  0  0  0  0
    0.4194   -5.6485   -4.5267 H   0  0  0  0  0  0  0  0  0  0  0  0
   -1.2408   -5.6512   -5.1214 H   0  0  0  0  0  0  0  0  0  0  0  0
   -1.5599   -1.9246    0.2161 H   0  0  0  0  0  0  0  0  0  0  0  0
   -1.5599   -0.5280   -0.9465 H   0  0  0  0  0  0  0  0  0  0  0  0
   -3.0040   -1.4843   -0.6774 H   0  0  0  0  0  0  0  0  0  0  0  0
    7.7994   -2.8073   -1.9814 H   0  0  0  0  0  0  0  0  0  0  0  0
    6.7078   -2.2515   -0.7862 H   0  0  0  0  0  0  0  0  0  0  0  0
    8.8470   -0.9356   -0.8956 H   0  0  0  0  0  0  0  0  0  0  0  0
    7.4345    0.0868   -1.2292 H   0  0  0  0  0  0  0  0  0  0  0  0
    9.1359    0.6588   -2.8632 H   0  0  0  0  0  0  0  0  0  0  0  0
    9.4652   -1.0090   -3.1805 H   0  0  0  0  0  0  0  0  0  0  0  0
    6.8666    0.5408   -3.8399 H   0  0  0  0  0  0  0  0  0  0  0  0
    8.0337   -0.0600   -5.0108 H   0  0  0  0  0  0  0  0  0  0  0  0
    6.0330   -1.5828   -4.9203 H   0  0  0  0  0  0  0  0  0  0  0  0
    8.2842   -5.8560   -4.0715 H   0  0  0  0  0  0  0  0  0  0  0  0
    9.5235   -5.9020   -5.9757 H   0  0  0  0  0  0  0  0  0  0  0  0
    7.9534   -5.3335   -6.3864 H   0  0  0  0  0  0  0  0  0  0  0  0
    9.5551   -4.0374   -7.7458 H   0  0  0  0  0  0  0  0  0  0  0  0
    8.6046   -3.0625   -6.7612 H   0  0  0  0  0  0  0  0  0  0  0  0
   10.9262   -2.1886   -6.7054 H   0  0  0  0  0  0  0  0  0  0  0  0
   10.7721   -2.8180   -5.1629 H   0  0  0  0  0  0  0  0  0  0  0  0
   13.2908   -2.6398   -5.4286 H   0  0  0  0  0  0  0  0  0  0  0  0
   15.2219   -4.1877   -5.6031 H   0  0  0  0  0  0  0  0  0  0  0  0
   14.8665   -6.5513   -6.3239 H   0  0  0  0  0  0  0  0  0  0  0  0
   12.5653   -7.3515   -6.8333 H   0  0  0  0  0  0  0  0  0  0  0  0
   10.8739   -5.7231   -7.2281 H   0  0  0  0  0  0  0  0  0  0  0  0
   10.7470   -5.1680   -3.9096 H   0  0  0  0  0  0  0  0  0  0  0  0
   10.2124   -3.5203   -3.6693 H   0  0  0  0  0  0  0  0  0  0  0  0
   10.6695   -4.1462   -1.6153 H   0  0  0  0  0  0  0  0  0  0  0  0
    8.9874   -3.9617   -1.7299 H   0  0  0  0  0  0  0  0  0  0  0  0
    9.3137   -5.9403   -0.4751 H   0  0  0  0  0  0  0  0  0  0  0  0
    8.5560   -6.3376   -2.0090 H   0  0  0  0  0  0  0  0  0  0  0  0
    9.3968   -8.4872   -2.6124 H   0  0  0  0  0  0  0  0  0  0  0  0
   13.4307   -9.2934   -2.7802 H   0  0  0  0  0  0  0  0  0  0  0  0
   14.0282   -7.0088   -1.9573 H   0  0  0  0  0  0  0  0  0  0  0  0
   12.2185   -5.4706   -1.3683 H   0  0  0  0  0  0  0  0  0  0  0  0
  1  2  1  0  0  0  0
  1 46  1  0  0  0  0
  1 47  1  0  0  0  0
  1 48  1  0  0  0  0
  2  3  1  0  0  0  0
  3  4  2  0  0  0  0
  3 10  1  0  0  0  0
  4  5  1  0  0  0  0
  4 49  1  0  0  0  0
  5  6  2  0  0  0  0
  5 13  1  0  0  0  0
  6  7  1  0  0  0  0
  6 50  1  0  0  0  0
  7  8  1  0  0  0  0
  7 10  2  0  0  0  0
  8  9  1  0  0  0  0
  9 51  1  0  0  0  0
  9 52  1  0  0  0  0
  9 53  1  0  0  0  0
 10 11  1  0  0  0  0
 11 12  1  0  0  0  0
 12 54  1  0  0  0  0
 12 55  1  0  0  0  0
 12 56  1  0  0  0  0
 13 14  1  0  0  0  0
 13 15  1  0  0  0  0
 13 16  1  0  0  0  0
 16 17  2  0  0  0  0
 16 18  1  0  0  0  0
 18 19  1  0  0  0  0
 18 23  1  0  0  0  0
 19 20  1  0  0  0  0
 19 57  1  0  0  0  0
 19 58  1  0  0  0  0
 20 21  1  0  0  0  0
 20 59  1  0  0  0  0
 20 60  1  0  0  0  0
 21 22  1  0  0  0  0
 21 61  1  0  0  0  0
 21 62  1  0  0  0  0
 22 23  1  0  0  0  0
 22 63  1  0  0  0  0
 22 64  1  0  0  0  0
 23 65  1  6  0  0  0
 23 24  1  0  0  0  0
 24 25  2  0  0  0  0
 24 26  1  0  0  0  0
 27 26  1  0  0  0  0
 27 28  1  0  0  0  0
 27 37  1  0  0  0  0
 27 66  1  1  0  0  0
 28 29  1  0  0  0  0
 28 67  1  0  0  0  0
 28 68  1  0  0  0  0
 29 30  1  0  0  0  0
 29 69  1  0  0  0  0
 29 70  1  0  0  0  0
 30 31  1  0  0  0  0
 30 71  1  0  0  0  0
 30 72  1  0  0  0  0
 31 32  2  0  0  0  0
 31 36  1  0  0  0  0
 32 33  1  0  0  0  0
 32 73  1  0  0  0  0
 33 34  2  0  0  0  0
 33 74  1  0  0  0  0
 34 35  1  0  0  0  0
 34 75  1  0  0  0  0
 35 36  2  0  0  0  0
 35 76  1  0  0  0  0
 36 77  1  0  0  0  0
 37 38  1  0  0  0  0
 37 78  1  0  0  0  0
 37 79  1  0  0  0  0
 38 39  1  0  0  0  0
 38 80  1  0  0  0  0
 38 81  1  0  0  0  0
 39 40  1  0  0  0  0
 39 82  1  0  0  0  0
 39 83  1  0  0  0  0
 40 41  2  0  0  0  0
 40 45  1  0  0  0  0
 41 42  1  0  0  0  0
 41 84  1  0  0  0  0
 42 43  2  0  0  0  0
 43 44  1  0  0  0  0
 43 85  1  0  0  0  0
 44 45  2  0  0  0  0
 44 86  1  0  0  0  0
 45 87  1  0  0  0  0
M  END
>  <DRUGBANK_ID>
DB02888

>  <SECONDARY_ACCESSION_NUMBERS>
EXPT00001

>  <COMMON_NAME>
FKB-001

$$$$
