
 OpenBabel10282417143D

 20 19  0  0  0  0  0  0  0  0999 V2000
    0.9261   -0.0098    0.0092 C   0  0  0  0  0  0  0  0  0  0  0  0
    0.4266    0.8846   -1.1149 N   0  3  0  0  0  0  0  0  0  0  0  0
    0.9465    0.3691   -2.4489 C   0  0  0  0  0  0  0  0  0  0  0  0
   -1.1050    0.8498   -1.1516 C   0  0  0  0  0  0  0  0  0  0  0  0
    0.9231    2.3469   -0.8755 C   0  0  0  0  0  0  0  0  0  0  0  0
    0.4274    2.9748    0.4316 C   0  0  0  0  0  0  0  0  0  0  0  0
    1.3767    3.2475    1.3475 O   0  0  0  0  0  0  0  0  0  0  0  0
   -0.7620    3.1320    0.6773 O   0  0  0  0  0  0  0  0  0  0  0  0
    0.5625   -1.0254   -0.1664 H   0  0  0  0  0  0  0  0  0  0  0  0
    0.5454    0.3714    0.9601 H   0  0  0  0  0  0  0  0  0  0  0  0
    2.0203    0.0139    0.0000 H   0  0  0  0  0  0  0  0  0  0  0  0
    0.5813   -0.6535   -2.5885 H   0  0  0  0  0  0  0  0  0  0  0  0
    0.5696    1.0186   -3.2443 H   0  0  0  0  0  0  0  0  0  0  0  0
    2.0397    0.3822   -2.4266 H   0  0  0  0  0  0  0  0  0  0  0  0
   -1.5020    1.1407   -0.1793 H   0  0  0  0  0  0  0  0  0  0  0  0
   -1.4433    1.5273   -1.9409 H   0  0  0  0  0  0  0  0  0  0  0  0
   -1.4172   -0.1766   -1.3637 H   0  0  0  0  0  0  0  0  0  0  0  0
    2.0182    2.3146   -0.8965 H   0  0  0  0  0  0  0  0  0  0  0  0
    0.5766    2.9546   -1.7188 H   0  0  0  0  0  0  0  0  0  0  0  0
    2.3202    3.1488    1.1171 H   0  0  0  0  0  0  0  0  0  0  0  0
  1  2  1  0  0  0  0
  1  9  1  0  0  0  0
  1 10  1  0  0  0  0
  1 11  1  0  0  0  0
  2  3  1  0  0  0  0
  2  4  1  0  0  0  0
  2  5  1  0  0  0  0
  3 12  1  0  0  0  0
  3 13  1  0  0  0  0
  3 14  1  0  0  0  0
  4 15  1  0  0  0  0
  4 16  1  0  0  0  0
  4 17  1  0  0  0  0
  5  6  1  0  0  0  0
  5 18  1  0  0  0  0
  5 19  1  0  0  0  0
  6  7  1  0  0  0  0
  6  8  2  0  0  0  0
  7 20  1  0  0  0  0
M  CHG  1   2   1
M  END
>  <DRUGBANK_ID>
DB04455

>  <SECONDARY_ACCESSION_NUMBERS>
EXPT00674

>  <COMMON_NAME>
N,N,N-trimethylglycinium

$$$$
