
 OpenBabel10282417143D

 13 12  0  0  0  0  0  0  0  0999 V2000
    0.9865    0.1053    0.0903 C   0  0  0  0  0  0  0  0  0  0  0  0
    0.5739   -0.6217   -1.1744 C   0  0  0  0  0  0  0  0  0  0  0  0
    1.0400   -2.0562   -1.1971 C   0  0  0  0  0  0  0  0  0  0  0  0
    0.2324   -2.9816   -1.2276 O   0  0  0  0  0  0  0  0  0  0  0  0
    2.5617   -2.3662   -1.2217 C   0  0  0  0  0  0  0  0  0  0  0  0
    3.4116   -1.3338   -1.2781 O   0  0  0  0  0  0  0  0  0  0  0  0
    2.9608   -3.5209   -1.1960 O   0  0  0  0  0  0  0  0  0  0  0  0
    0.6093   -0.4146    0.9758 H   0  0  0  0  0  0  0  0  0  0  0  0
    0.5957    1.1266    0.0851 H   0  0  0  0  0  0  0  0  0  0  0  0
    2.0695    0.1745    0.2043 H   0  0  0  0  0  0  0  0  0  0  0  0
   -0.5239   -0.6311   -1.2237 H   0  0  0  0  0  0  0  0  0  0  0  0
    0.9203   -0.1147   -2.0803 H   0  0  0  0  0  0  0  0  0  0  0  0
    3.0635   -0.4293   -1.3494 H   0  0  0  0  0  0  0  0  0  0  0  0
  1  2  1  0  0  0  0
  1  8  1  0  0  0  0
  1  9  1  0  0  0  0
  1 10  1  0  0  0  0
  2  3  1  0  0  0  0
  2 11  1  0  0  0  0
  2 12  1  0  0  0  0
  3  4  2  0  0  0  0
  3  5  1  0  0  0  0
  5  6  1  0  0  0  0
  5  7  2  0  0  0  0
  6 13  1  0  0  0  0
M  END
>  <DRUGBANK_ID>
DB04553

>  <SECONDARY_ACCESSION_NUMBERS>
EXPT00126

>  <COMMON_NAME>
2-Oxobutanoic Acid

>  <CAS_NUMBER>
600-18-0

>  <UNII>
B92RB6HY1A

$$$$
