FOH
 OpenBabel10282417123D

 42 41  0  0  0  0  0  0  0  0999 V2000
    0.9949   -0.0870    0.1781 C   0  0  0  0  0  0  0  0  0  0  0  0
    0.3835    0.4428   -1.0688 C   0  0  0  0  0  0  0  0  0  0  0  0
   -0.4481   -0.5796   -1.8470 C   0  0  0  0  0  0  0  0  0  0  0  0
    0.6328    1.7172   -1.3910 C   0  0  0  0  0  0  0  0  0  0  0  0
    1.6943    2.6843   -0.9310 C   0  0  0  0  0  0  0  0  0  0  0  0
    2.8978    2.8158   -1.8959 C   0  0  0  0  0  0  0  0  0  0  0  0
    2.6733    3.1974   -3.3492 C   0  0  0  0  0  0  0  0  0  0  0  0
    3.1071    4.6099   -3.7515 C   0  0  0  0  0  0  0  0  0  0  0  0
    2.1706    2.3455   -4.2675 C   0  0  0  0  0  0  0  0  0  0  0  0
    1.3712    1.0787   -4.1528 C   0  0  0  0  0  0  0  0  0  0  0  0
   -0.1821    1.2768   -4.2941 C   0  0  0  0  0  0  0  0  0  0  0  0
   -0.7334    1.7366   -5.6008 C   0  0  0  0  0  0  0  0  0  0  0  0
   -1.6626    0.7244   -6.2208 C   0  0  0  0  0  0  0  0  0  0  0  0
   -0.5767    2.9909   -6.0727 C   0  0  0  0  0  0  0  0  0  0  0  0
    0.1002    4.1553   -5.3997 C   0  0  0  0  0  0  0  0  0  0  0  0
    1.1906    4.6143   -6.1904 O   0  0  0  0  0  0  0  0  0  0  0  0
    0.6241   -1.0821    0.4223 H   0  0  0  0  0  0  0  0  0  0  0  0
    0.6920    0.5857    0.9863 H   0  0  0  0  0  0  0  0  0  0  0  0
    2.0807   -0.1113    0.0836 H   0  0  0  0  0  0  0  0  0  0  0  0
   -1.4214   -0.1890   -2.1593 H   0  0  0  0  0  0  0  0  0  0  0  0
    0.1028   -0.9496   -2.7258 H   0  0  0  0  0  0  0  0  0  0  0  0
   -0.6426   -1.4972   -1.2849 H   0  0  0  0  0  0  0  0  0  0  0  0
    0.1189    2.2392   -2.1746 H   0  0  0  0  0  0  0  0  0  0  0  0
    1.2180    3.6655   -0.8348 H   0  0  0  0  0  0  0  0  0  0  0  0
    2.0689    2.3959    0.0523 H   0  0  0  0  0  0  0  0  0  0  0  0
    3.5925    3.5428   -1.4518 H   0  0  0  0  0  0  0  0  0  0  0  0
    3.4649    1.8756   -1.9138 H   0  0  0  0  0  0  0  0  0  0  0  0
    3.6697    4.6215   -4.6916 H   0  0  0  0  0  0  0  0  0  0  0  0
    2.2352    5.2677   -3.8749 H   0  0  0  0  0  0  0  0  0  0  0  0
    3.7275    5.0987   -2.9938 H   0  0  0  0  0  0  0  0  0  0  0  0
    2.2225    2.5915   -5.3121 H   0  0  0  0  0  0  0  0  0  0  0  0
    1.6795    0.3920   -4.9453 H   0  0  0  0  0  0  0  0  0  0  0  0
    1.6758    0.5538   -3.2463 H   0  0  0  0  0  0  0  0  0  0  0  0
   -0.6359    0.3133   -4.0752 H   0  0  0  0  0  0  0  0  0  0  0  0
   -0.7021    1.9415   -3.6011 H   0  0  0  0  0  0  0  0  0  0  0  0
   -2.6523    1.1571   -6.3921 H   0  0  0  0  0  0  0  0  0  0  0  0
   -1.2285    0.3337   -7.1384 H   0  0  0  0  0  0  0  0  0  0  0  0
   -1.8424   -0.1388   -5.5615 H   0  0  0  0  0  0  0  0  0  0  0  0
   -1.0238    3.2430   -7.0274 H   0  0  0  0  0  0  0  0  0  0  0  0
   -0.5707    5.0060   -5.2926 H   0  0  0  0  0  0  0  0  0  0  0  0
    0.3962    3.9395   -4.3703 H   0  0  0  0  0  0  0  0  0  0  0  0
    1.7699    3.8689   -6.4116 H   0  0  0  0  0  0  0  0  0  0  0  0
  1  2  1  0  0  0  0
  1 17  1  0  0  0  0
  1 18  1  0  0  0  0
  1 19  1  0  0  0  0
  2  3  1  0  0  0  0
  2  4  2  0  0  0  0
  3 20  1  0  0  0  0
  3 21  1  0  0  0  0
  3 22  1  0  0  0  0
  4  5  1  0  0  0  0
  4 23  1  0  0  0  0
  5  6  1  0  0  0  0
  5 24  1  0  0  0  0
  5 25  1  0  0  0  0
  6  7  1  0  0  0  0
  6 26  1  0  0  0  0
  6 27  1  0  0  0  0
  7  8  1  0  0  0  0
  7  9  2  0  0  0  0
  8 28  1  0  0  0  0
  8 29  1  0  0  0  0
  8 30  1  0  0  0  0
  9 10  1  0  0  0  0
  9 31  1  0  0  0  0
 10 11  1  0  0  0  0
 10 32  1  0  0  0  0
 10 33  1  0  0  0  0
 11 12  1  0  0  0  0
 11 34  1  0  0  0  0
 11 35  1  0  0  0  0
 12 13  1  0  0  0  0
 12 14  2  0  0  0  0
 13 36  1  0  0  0  0
 13 37  1  0  0  0  0
 13 38  1  0  0  0  0
 14 15  1  0  0  0  0
 14 39  1  0  0  0  0
 15 16  1  0  0  0  0
 15 40  1  0  0  0  0
 15 41  1  0  0  0  0
 16 42  1  0  0  0  0
M  END
>  <DRUGBANK_ID>
DB02509

>  <SECONDARY_ACCESSION_NUMBERS>
EXPT01466

>  <COMMON_NAME>
Farnesol

>  <CAS_NUMBER>
4602-84-0

>  <UNII>
J03523NK03

$$$$
