
 OpenBabel10282417123D

 62 66  0  0  1  0  0  0  0  0999 V2000
    1.1132    0.0831    0.0111 C   0  0  0  0  0  0  0  0  0  0  0  0
   -1.9336   -0.1175    2.3098 C   0  0  0  0  0  0  0  0  0  0  0  0
   -2.3236   -1.5810    2.4004 C   0  0  0  0  0  0  0  0  0  0  0  0
   -3.2663   -2.2883   10.0769 C   0  0  0  0  0  0  0  0  0  0  0  0
   -2.6178    0.0798   10.2510 C   0  0  0  0  0  0  0  0  0  0  0  0
   -1.3137   -2.0700    5.8439 C   0  0  0  0  0  0  0  0  0  0  0  0
   -0.8629    0.1529    6.3801 C   0  0  0  0  0  0  0  0  0  0  0  0
   -1.9506   -2.6570   10.3280 C   0  0  0  0  0  0  0  0  0  0  0  0
   -1.3063   -0.3009   10.4678 C   0  0  0  0  0  0  0  0  0  0  0  0
   -2.7172    3.2656    5.9209 C   0  0  0  0  0  0  0  0  0  0  0  0
   -0.2861   -2.0471    4.7895 C   0  0  0  0  0  0  0  0  0  0  0  0
    0.0122    0.2258    5.2086 C   0  0  0  0  0  0  0  0  0  0  0  0
   -3.0071    1.9452    5.7304 C   0  0  0  0  0  0  0  0  0  0  0  0
   -1.7001    0.0466    0.8391 C   0  0  0  0  0  0  0  0  0  0  0  0
   -1.6384   -2.2663    1.2278 C   0  0  0  0  0  0  0  0  0  0  0  0
   -4.2923    3.3134    7.7597 C   0  0  0  0  0  0  0  0  0  0  0  0
    1.1424   -1.5192    2.0947 C   0  0  0  0  0  0  0  0  0  0  0  0
    0.4915   -1.1643    0.6698 C   0  0  1  0  0  0  0  0  0  0  0  0
   -1.7033   -0.9507    6.6535 C   0  0  0  0  0  0  0  0  0  0  0  0
   -3.4945   -0.9297    9.8697 C   0  0  0  0  0  0  0  0  0  0  0  0
   -0.9995   -1.6480   10.4688 C   0  0  0  0  0  0  0  0  0  0  0  0
   -3.4416    3.9806    6.8726 C   0  0  0  0  0  0  0  0  0  0  0  0
    0.3092   -0.8655    4.3789 C   0  0  0  0  0  0  0  0  0  0  0  0
   -3.8206    1.2481    6.6008 C   0  0  0  0  0  0  0  0  0  0  0  0
   -4.4202    1.9235    7.6730 C   0  0  0  0  0  0  0  0  0  0  0  0
   -3.2700   -0.8578    7.2781 C   0  0  1  0  0  0  0  0  0  0  0  0
   -4.2708   -0.6185    8.6307 C   0  0  2  0  0  0  0  0  0  0  0  0
   -0.9877   -1.1898    0.4676 N   0  0  0  0  0  0  0  0  0  0  0  0
    0.3298   -1.9610   10.5565 O   0  0  0  0  0  0  0  0  0  0  0  0
   -3.3618    5.3340    6.8832 O   0  0  0  0  0  0  0  0  0  0  0  0
    0.9980   -0.5905    3.2029 O   0  0  0  0  0  0  0  0  0  0  0  0
   -3.9945   -0.0868    6.3037 O   0  0  0  0  0  0  0  0  0  0  0  0
   -5.2985    0.9459    8.8429 S   0  0  0  0  0  0  0  0  0  0  0  0
    0.8307   -1.9879    0.0152 H   0  0  0  0  0  0  0  0  0  0  0  0
   -3.4922   -1.9335    7.1700 H   0  0  0  0  0  0  0  0  0  0  0  0
   -5.1047   -1.3398    8.5666 H   0  0  0  0  0  0  0  0  0  0  0  0
    0.9232    0.9891    0.5906 H   0  0  0  0  0  0  0  0  0  0  0  0
    0.7127    0.2351   -1.0033 H   0  0  0  0  0  0  0  0  0  0  0  0
    2.1973   -0.0204   -0.0962 H   0  0  0  0  0  0  0  0  0  0  0  0
   -0.9961    0.1610    2.7624 H   0  0  0  0  0  0  0  0  0  0  0  0
   -2.6660    0.5493    2.7609 H   0  0  0  0  0  0  0  0  0  0  0  0
   -2.0955   -2.0788    3.3321 H   0  0  0  0  0  0  0  0  0  0  0  0
   -3.4084   -1.6557    2.3019 H   0  0  0  0  0  0  0  0  0  0  0  0
   -3.9953   -3.0389    9.7805 H   0  0  0  0  0  0  0  0  0  0  0  0
   -2.8417    1.1272   10.0927 H   0  0  0  0  0  0  0  0  0  0  0  0
   -1.8779   -3.0001    5.9054 H   0  0  0  0  0  0  0  0  0  0  0  0
   -0.9698    1.0808    6.9351 H   0  0  0  0  0  0  0  0  0  0  0  0
   -1.6942   -3.7039   10.2696 H   0  0  0  0  0  0  0  0  0  0  0  0
   -0.5498    0.4689   10.4970 H   0  0  0  0  0  0  0  0  0  0  0  0
   -1.9692    3.7332    5.2897 H   0  0  0  0  0  0  0  0  0  0  0  0
   -0.1405   -2.9485    4.1975 H   0  0  0  0  0  0  0  0  0  0  0  0
    0.3341    1.2147    4.8656 H   0  0  0  0  0  0  0  0  0  0  0  0
   -2.5288    1.3752    4.9371 H   0  0  0  0  0  0  0  0  0  0  0  0
   -2.6671    0.1061    0.3286 H   0  0  0  0  0  0  0  0  0  0  0  0
   -1.1676    0.9706    0.6079 H   0  0  0  0  0  0  0  0  0  0  0  0
   -0.9485   -3.0596    1.5372 H   0  0  0  0  0  0  0  0  0  0  0  0
   -2.3960   -2.7727    0.6201 H   0  0  0  0  0  0  0  0  0  0  0  0
   -4.8555    3.9042    8.4864 H   0  0  0  0  0  0  0  0  0  0  0  0
    0.8814   -2.5387    2.3786 H   0  0  0  0  0  0  0  0  0  0  0  0
    2.2242   -1.5634    1.8932 H   0  0  0  0  0  0  0  0  0  0  0  0
    0.3965   -2.9204   10.6033 H   0  0  0  0  0  0  0  0  0  0  0  0
   -2.8678    5.6056    6.0835 H   0  0  0  0  0  0  0  0  0  0  0  0
  1 37  1  0  0  0  0
  1 38  1  0  0  0  0
  1 39  1  0  0  0  0
  2 40  1  0  0  0  0
  2 41  1  0  0  0  0
  3  2  1  0  0  0  0
  3 42  1  0  0  0  0
  3 43  1  0  0  0  0
  4 44  1  0  0  0  0
  5 45  1  0  0  0  0
  6 46  1  0  0  0  0
  7 47  1  0  0  0  0
  8  4  1  0  0  0  0
  8 48  1  0  0  0  0
  9  5  2  0  0  0  0
  9 49  1  0  0  0  0
 10 50  1  0  0  0  0
 11  6  1  0  0  0  0
 11 51  1  0  0  0  0
 12  7  2  0  0  0  0
 12 52  1  0  0  0  0
 13 10  2  0  0  0  0
 13 53  1  0  0  0  0
 14  2  1  0  0  0  0
 14 54  1  0  0  0  0
 14 55  1  0  0  0  0
 15  3  1  0  0  0  0
 15 56  1  0  0  0  0
 15 57  1  0  0  0  0
 16 58  1  0  0  0  0
 17 59  1  0  0  0  0
 17 60  1  0  0  0  0
 18  1  1  0  0  0  0
 18 17  1  0  0  0  0
 18 34  1  6  0  0  0
 19  6  2  0  0  0  0
 19  7  1  0  0  0  0
 20  4  2  0  0  0  0
 20  5  1  0  0  0  0
 21  8  2  0  0  0  0
 21  9  1  0  0  0  0
 22 10  1  0  0  0  0
 22 16  2  0  0  0  0
 23 11  2  0  0  0  0
 23 12  1  0  0  0  0
 24 13  1  0  0  0  0
 25 16  1  0  0  0  0
 25 24  2  0  0  0  0
 26 19  1  0  0  0  0
 26 35  1  6  0  0  0
 27 20  1  0  0  0  0
 27 26  1  0  0  0  0
 27 36  1  6  0  0  0
 28 14  1  0  0  0  0
 28 15  1  0  0  0  0
 28 18  1  0  0  0  0
 29 21  1  0  0  0  0
 29 61  1  0  0  0  0
 30 22  1  0  0  0  0
 30 62  1  0  0  0  0
 31 17  1  0  0  0  0
 31 23  1  0  0  0  0
 32 24  1  0  0  0  0
 32 26  1  0  0  0  0
 33 25  1  0  0  0  0
 33 27  1  0  0  0  0
M  END
>  <DRUGBANK_ID>
DB02715

>  <SECONDARY_ACCESSION_NUMBERS>
EXPT00473

>  <COMMON_NAME>
Compound 18

>  <CAS_NUMBER>
31112-66-0

$$$$
