
 OpenBabel10282417143D

 87 91  0  0  0  0  0  0  0  0999 V2000
   -3.2698   -9.0602    5.3601 C   0  0  0  0  0  0  0  0  0  0  0  0
   -1.6514   -9.1608    7.0387 C   0  0  0  0  0  0  0  0  0  0  0  0
   -3.9284   -8.9544    6.5741 N   0  0  0  0  0  0  0  0  0  0  0  0
   -3.7328   -9.4724    4.3260 O   0  0  0  0  0  0  0  0  0  0  0  0
   -3.0330   -9.2321    7.7170 C   0  0  1  0  0  0  0  0  0  0  0  0
   -5.3770   -8.7430    6.7267 C   0  0  1  0  0  0  0  0  0  0  0  0
   -3.2985  -10.5477    8.4901 C   0  0  1  0  0  0  0  0  0  0  0  0
   -5.7055   -7.3810    6.3895 O   0  0  0  0  0  0  0  0  0  0  0  0
   -6.3247   -9.6450    5.9135 C   0  0  0  0  0  0  0  0  0  0  0  0
   -4.3962  -11.4545    7.9332 C   0  0  0  0  0  0  0  0  0  0  0  0
   -2.0541  -11.3586    8.8227 C   0  0  0  0  0  0  0  0  0  0  0  0
   -7.0322   -7.0375    6.8738 C   0  0  2  0  0  0  0  0  0  0  0  0
   -7.7577   -9.4185    6.4215 C   0  0  0  0  0  0  0  0  0  0  0  0
   -4.0232  -12.5446    7.1854 N   0  0  0  0  0  0  0  0  0  0  0  0
   -5.5767  -11.1776    8.1414 O   0  0  0  0  0  0  0  0  0  0  0  0
   -8.1302   -7.9476    6.2688 C   0  0  2  0  0  0  0  0  0  0  0  0
   -7.2866   -5.5708    6.5498 C   0  0  0  0  0  0  0  0  0  0  0  0
   -4.9971  -13.3658    6.4983 C   0  0  0  0  0  0  0  0  0  0  0  0
   -8.3032   -7.6823    4.8741 O   0  0  0  0  0  0  0  0  0  0  0  0
   -3.0694   -8.3645    8.3899 H   0  0  0  0  0  0  0  0  0  0  0  0
   -0.5491   -9.3747    7.5197 O   0  0  0  0  0  0  0  0  0  0  0  0
   -1.8441   -8.7205    5.6557 C   0  0  0  0  0  0  0  0  0  0  0  0
   -0.9482   -7.9298    5.0288 C   0  0  0  0  0  0  0  0  0  0  0  0
    0.3024   -7.6141    5.5560 O   0  0  0  0  0  0  0  0  0  0  0  0
   -1.1504   -7.2378    3.7676 C   0  0  0  0  0  0  0  0  0  0  0  0
   -2.3005   -7.2185    3.0854 C   0  0  0  0  0  0  0  0  0  0  0  0
   -2.6043   -6.6477    1.8022 C   0  0  0  0  0  0  0  0  0  0  0  0
   -3.8184   -6.8876    1.2683 C   0  0  0  0  0  0  0  0  0  0  0  0
   -1.5351   -5.8430    1.1379 C   0  0  0  0  0  0  0  0  0  0  0  0
   -4.2742   -6.2762   -0.0158 C   0  0  2  0  0  0  0  0  0  0  0  0
   -5.6687   -5.6681    0.0140 C   0  0  2  0  0  0  0  0  0  0  0  0
   -3.9648   -7.1478   -1.2167 C   0  0  0  0  0  0  0  0  0  0  0  0
   -6.9593   -6.5067    0.0859 C   0  0  2  0  0  0  0  0  0  0  0  0
   -8.1269   -5.4847   -0.0467 C   0  0  1  0  0  0  0  0  0  0  0  0
   -8.1906   -4.5595    1.1631 C   0  0  0  0  0  0  0  0  0  0  0  0
   -7.4942   -3.4092    1.1750 C   0  0  0  0  0  0  0  0  0  0  0  0
   -6.7885   -3.9248   -1.2225 C   0  0  2  0  0  0  0  0  0  0  0  0
   -5.7116   -4.8682   -1.2112 O   0  0  0  0  0  0  0  0  0  0  0  0
   -5.6192   -5.0147    0.8912 H   0  0  0  0  0  0  0  0  0  0  0  0
   -7.2851   -7.4190    1.2906 C   0  0  0  0  0  0  0  0  0  0  0  0
   -5.2437   -2.5264    0.3057 C   0  0  0  0  0  0  0  0  0  0  0  0
   -6.2418   -1.6612   -0.2263 O   0  0  0  0  0  0  0  0  0  0  0  0
   -6.6712   -3.0100    0.0209 C   0  0  2  0  0  0  0  0  0  0  0  0
   -8.0101   -4.6776   -1.2298 O   0  0  0  0  0  0  0  0  0  0  0  0
   -6.7032   -3.0333   -2.4890 C   0  0  0  0  0  0  0  0  0  0  0  0
   -5.5674   -8.8345    7.8004 H   0  0  0  0  0  0  0  0  0  0  0  0
   -3.7185  -10.2272    9.4551 H   0  0  0  0  0  0  0  0  0  0  0  0
   -6.0877  -10.7028    5.9721 H   0  0  0  0  0  0  0  0  0  0  0  0
   -6.2758   -9.4088    4.8448 H   0  0  0  0  0  0  0  0  0  0  0  0
   -1.3480  -10.7725    9.4151 H   0  0  0  0  0  0  0  0  0  0  0  0
   -2.3185  -12.2502    9.3979 H   0  0  0  0  0  0  0  0  0  0  0  0
   -1.5555  -11.6973    7.9066 H   0  0  0  0  0  0  0  0  0  0  0  0
   -7.0330   -7.1533    7.9659 H   0  0  0  0  0  0  0  0  0  0  0  0
   -7.8298   -9.7037    7.4798 H   0  0  0  0  0  0  0  0  0  0  0  0
   -8.4574  -10.0534    5.8663 H   0  0  0  0  0  0  0  0  0  0  0  0
   -3.1417  -12.9975    7.3878 H   0  0  0  0  0  0  0  0  0  0  0  0
   -9.0954   -7.7524    6.7524 H   0  0  0  0  0  0  0  0  0  0  0  0
   -8.2682   -5.2474    6.9127 H   0  0  0  0  0  0  0  0  0  0  0  0
   -6.5193   -4.9451    7.0158 H   0  0  0  0  0  0  0  0  0  0  0  0
   -7.2320   -5.3854    5.4721 H   0  0  0  0  0  0  0  0  0  0  0  0
   -4.5625  -13.6640    5.5413 H   0  0  0  0  0  0  0  0  0  0  0  0
   -5.2101  -14.2545    7.0975 H   0  0  0  0  0  0  0  0  0  0  0  0
   -5.9272  -12.8234    6.3215 H   0  0  0  0  0  0  0  0  0  0  0  0
   -7.4251   -7.7722    4.4612 H   0  0  0  0  0  0  0  0  0  0  0  0
    0.4652   -8.1134    6.3827 H   0  0  0  0  0  0  0  0  0  0  0  0
   -0.2826   -6.7049    3.3801 H   0  0  0  0  0  0  0  0  0  0  0  0
   -3.1757   -7.6769    3.5011 H   0  0  0  0  0  0  0  0  0  0  0  0
   -4.5128   -7.5526    1.7759 H   0  0  0  0  0  0  0  0  0  0  0  0
   -1.2901   -4.9788    1.7592 H   0  0  0  0  0  0  0  0  0  0  0  0
   -0.6525   -6.4661    0.9744 H   0  0  0  0  0  0  0  0  0  0  0  0
   -1.8079   -5.4660    0.1533 H   0  0  0  0  0  0  0  0  0  0  0  0
   -3.6672   -5.3739   -0.1571 H   0  0  0  0  0  0  0  0  0  0  0  0
   -3.0103   -7.6682   -1.0840 H   0  0  0  0  0  0  0  0  0  0  0  0
   -4.7474   -7.8865   -1.3899 H   0  0  0  0  0  0  0  0  0  0  0  0
   -3.8643   -6.5232   -2.1117 H   0  0  0  0  0  0  0  0  0  0  0  0
   -6.9217   -7.1557   -0.7970 H   0  0  0  0  0  0  0  0  0  0  0  0
   -9.0664   -6.0456   -0.1226 H   0  0  0  0  0  0  0  0  0  0  0  0
   -8.7139   -4.8909    2.0547 H   0  0  0  0  0  0  0  0  0  0  0  0
   -7.4519   -2.8024    2.0716 H   0  0  0  0  0  0  0  0  0  0  0  0
   -7.5809   -8.4067    0.9160 H   0  0  0  0  0  0  0  0  0  0  0  0
   -6.5029   -7.5523    2.0342 H   0  0  0  0  0  0  0  0  0  0  0  0
   -8.1710   -7.0791    1.8436 H   0  0  0  0  0  0  0  0  0  0  0  0
   -4.8739   -2.2768    1.2869 H   0  0  0  0  0  0  0  0  0  0  0  0
   -4.4802   -2.9841   -0.3226 H   0  0  0  0  0  0  0  0  0  0  0  0
   -7.5372   -2.3180   -2.5217 H   0  0  0  0  0  0  0  0  0  0  0  0
   -5.7782   -2.4389   -2.4882 H   0  0  0  0  0  0  0  0  0  0  0  0
   -6.6999   -3.5828   -3.4340 H   0  0  0  0  0  0  0  0  0  0  0  0
  1  3  1  0  0  0  0
  1  4  2  0  0  0  0
  2  5  1  0  0  0  0
  2 21  2  0  0  0  0
  3  5  1  0  0  0  0
  5 20  1  1  0  0  0
  5  7  1  0  0  0  0
  6  8  1  0  0  0  0
  6  9  1  0  0  0  0
  6  3  1  0  0  0  0
  6 46  1  1  0  0  0
  7 10  1  0  0  0  0
  7 11  1  0  0  0  0
  7 47  1  1  0  0  0
  8 12  1  0  0  0  0
  9 13  1  0  0  0  0
  9 48  1  0  0  0  0
  9 49  1  0  0  0  0
 10 14  1  0  0  0  0
 10 15  2  0  0  0  0
 11 50  1  0  0  0  0
 11 51  1  0  0  0  0
 11 52  1  0  0  0  0
 12 16  1  0  0  0  0
 12 17  1  0  0  0  0
 12 53  1  1  0  0  0
 13 16  1  0  0  0  0
 13 54  1  0  0  0  0
 13 55  1  0  0  0  0
 14 18  1  0  0  0  0
 14 56  1  0  0  0  0
 16 19  1  0  0  0  0
 16 57  1  1  0  0  0
 17 58  1  0  0  0  0
 17 59  1  0  0  0  0
 17 60  1  0  0  0  0
 18 61  1  0  0  0  0
 18 62  1  0  0  0  0
 18 63  1  0  0  0  0
 19 64  1  0  0  0  0
 22  1  1  0  0  0  0
 22  2  1  0  0  0  0
 22 23  2  0  0  0  0
 23 24  1  0  0  0  0
 23 25  1  0  0  0  0
 24 65  1  0  0  0  0
 25 26  2  0  0  0  0
 25 66  1  0  0  0  0
 26 27  1  0  0  0  0
 26 67  1  0  0  0  0
 27 28  2  0  0  0  0
 27 29  1  0  0  0  0
 28 68  1  0  0  0  0
 29 69  1  0  0  0  0
 29 70  1  0  0  0  0
 29 71  1  0  0  0  0
 30 72  1  6  0  0  0
 30 32  1  0  0  0  0
 30 28  1  0  0  0  0
 31 33  1  0  0  0  0
 31 39  1  1  0  0  0
 31 30  1  0  0  0  0
 32 73  1  0  0  0  0
 32 74  1  0  0  0  0
 32 75  1  0  0  0  0
 33 34  1  0  0  0  0
 33 40  1  0  0  0  0
 33 76  1  6  0  0  0
 34 35  1  0  0  0  0
 34 44  1  0  0  0  0
 34 77  1  6  0  0  0
 35 36  2  0  0  0  0
 35 78  1  0  0  0  0
 36 79  1  0  0  0  0
 37 38  1  0  0  0  0
 37 44  1  0  0  0  0
 37 45  1  6  0  0  0
 38 31  1  0  0  0  0
 40 80  1  0  0  0  0
 40 81  1  0  0  0  0
 40 82  1  0  0  0  0
 41 42  1  0  0  0  0
 41 83  1  0  0  0  0
 41 84  1  0  0  0  0
 43 36  1  1  0  0  0
 43 37  1  0  0  0  0
 43 42  1  0  0  0  0
 43 41  1  0  0  0  0
 45 85  1  0  0  0  0
 45 86  1  0  0  0  0
 45 87  1  0  0  0  0
M  END
>  <DRUGBANK_ID>
DB04785

>  <COMMON_NAME>
Streptolydigin

>  <CAS_NUMBER>
7229-50-7

>  <UNII>
6MON4029Q8

>  <SYNONYMS>
Afragilimycin A; Portamycin

$$$$
