
 OpenBabel10282417193D

 47 49  0  0  1  0  0  0  0  0999 V2000
   -0.8211    0.3758    2.6502 C   0  0  0  0  0  0  0  0  0  0  0  0
    0.6258   -0.0314    2.7470 C   0  0  0  0  0  0  0  0  0  0  0  0
    1.0275   -1.2965    1.9103 C   0  0  2  0  0  0  0  0  0  0  0  0
    0.4939   -1.3871    0.4586 C   0  0  0  0  0  0  0  0  0  0  0  0
    0.4960   -2.6316    2.6302 C   0  0  0  0  0  0  0  0  0  0  0  0
    1.2665   -3.4148    3.1655 O   0  0  0  0  0  0  0  0  0  0  0  0
   -0.8554   -2.9628    2.6747 N   0  0  0  0  0  0  0  0  0  0  0  0
   -2.0531   -2.2666    2.1805 C   0  0  0  0  0  0  0  0  0  0  0  0
   -2.9289   -2.8406    1.0889 C   0  0  0  0  0  0  0  0  0  0  0  0
   -3.6725   -3.8677    1.5231 F   0  0  0  0  0  0  0  0  0  0  0  0
   -3.7681   -1.8612    0.6577 F   0  0  0  0  0  0  0  0  0  0  0  0
   -2.1909   -3.2265    0.0294 F   0  0  0  0  0  0  0  0  0  0  0  0
    2.5484   -1.2474    1.9449 N   0  0  0  0  0  0  0  0  0  0  0  0
    3.3221   -1.1846    0.7823 C   0  0  0  0  0  0  0  0  0  0  0  0
    3.0672   -0.2112   -0.1687 C   0  0  0  0  0  0  0  0  0  0  0  0
    3.6854   -0.3125   -1.3880 C   0  0  0  0  0  0  0  0  0  0  0  0
    4.6526   -1.1953   -1.6278 N   0  0  0  0  0  0  0  0  0  0  0  0
    4.9548   -2.0099   -0.5989 C   0  0  0  0  0  0  0  0  0  0  0  0
    4.3123   -2.0705    0.5946 N   0  0  0  0  0  0  0  0  0  0  0  0
    6.1192   -2.8472   -0.8113 C   0  0  0  0  0  0  0  0  0  0  0  0
    6.0820   -4.2301   -0.8512 C   0  0  0  0  0  0  0  0  0  0  0  0
    7.3470   -4.6787   -1.1378 N   0  0  0  0  0  0  0  0  0  0  0  0
    8.2023   -3.6187   -1.2672 C   0  0  0  0  0  0  0  0  0  0  0  0
    7.4697   -2.4523   -1.0730 C   0  0  0  0  0  0  0  0  0  0  0  0
    8.1734   -1.2364   -1.1522 C   0  0  0  0  0  0  0  0  0  0  0  0
    9.5464   -1.2921   -1.3972 C   0  0  0  0  0  0  0  0  0  0  0  0
   10.1473   -2.5313   -1.5774 C   0  0  0  0  0  0  0  0  0  0  0  0
    9.5192   -3.7294   -1.5287 N   0  0  0  0  0  0  0  0  0  0  0  0
   -1.1241    0.4345    1.5997 H   0  0  0  0  0  0  0  0  0  0  0  0
   -1.1293    1.3065    3.1192 H   0  0  0  0  0  0  0  0  0  0  0  0
   -1.3616   -0.3612    3.2352 H   0  0  0  0  0  0  0  0  0  0  0  0
    1.2381    0.8330    2.4654 H   0  0  0  0  0  0  0  0  0  0  0  0
    0.8393   -0.2256    3.8097 H   0  0  0  0  0  0  0  0  0  0  0  0
    0.7622   -2.3528    0.0124 H   0  0  0  0  0  0  0  0  0  0  0  0
   -0.5749   -1.2945    0.3272 H   0  0  0  0  0  0  0  0  0  0  0  0
    0.8197   -0.5899   -0.1944 H   0  0  0  0  0  0  0  0  0  0  0  0
   -1.0213   -3.8119    3.2079 H   0  0  0  0  0  0  0  0  0  0  0  0
   -2.6541   -1.9405    3.0365 H   0  0  0  0  0  0  0  0  0  0  0  0
   -1.7242   -1.3873    1.6792 H   0  0  0  0  0  0  0  0  0  0  0  0
    2.9531   -1.8871    2.6301 H   0  0  0  0  0  0  0  0  0  0  0  0
    2.3499    0.5781    0.0058 H   0  0  0  0  0  0  0  0  0  0  0  0
    3.3998    0.3314   -2.2137 H   0  0  0  0  0  0  0  0  0  0  0  0
    5.2640   -4.9237   -0.7123 H   0  0  0  0  0  0  0  0  0  0  0  0
    7.6363   -5.6406   -1.2330 H   0  0  0  0  0  0  0  0  0  0  0  0
    7.6682   -0.2874   -1.0073 H   0  0  0  0  0  0  0  0  0  0  0  0
   10.1371   -0.3834   -1.4406 H   0  0  0  0  0  0  0  0  0  0  0  0
   11.2159   -2.5911   -1.7739 H   0  0  0  0  0  0  0  0  0  0  0  0
  1  2  1  0  0  0  0
  1 29  1  0  0  0  0
  1 30  1  0  0  0  0
  1 31  1  0  0  0  0
  2 32  1  0  0  0  0
  2 33  1  0  0  0  0
  3  5  1  1  0  0  0
  3 13  1  0  0  0  0
  3  4  1  0  0  0  0
  3  2  1  0  0  0  0
  4 34  1  0  0  0  0
  4 35  1  0  0  0  0
  4 36  1  0  0  0  0
  5  6  2  0  0  0  0
  5  7  1  0  0  0  0
  7  8  1  0  0  0  0
  7 37  1  0  0  0  0
  8  9  1  0  0  0  0
  8 38  1  0  0  0  0
  8 39  1  0  0  0  0
  9 10  1  0  0  0  0
  9 11  1  0  0  0  0
  9 12  1  0  0  0  0
 13 14  1  0  0  0  0
 13 40  1  0  0  0  0
 14 15  2  0  0  0  0
 14 19  1  0  0  0  0
 15 16  1  0  0  0  0
 15 41  1  0  0  0  0
 16 17  2  0  0  0  0
 16 42  1  0  0  0  0
 17 18  1  0  0  0  0
 18 19  2  0  0  0  0
 18 20  1  0  0  0  0
 20 21  2  0  0  0  0
 20 24  1  0  0  0  0
 21 22  1  0  0  0  0
 21 43  1  0  0  0  0
 22 23  1  0  0  0  0
 22 44  1  0  0  0  0
 23 24  1  0  0  0  0
 23 28  2  0  0  0  0
 24 25  2  0  0  0  0
 25 26  1  0  0  0  0
 25 45  1  0  0  0  0
 26 27  2  0  0  0  0
 26 46  1  0  0  0  0
 27 28  1  0  0  0  0
 27 47  1  0  0  0  0
M  END
>  <DRUGBANK_ID>
DB12566

>  <COMMON_NAME>
Decernotinib

>  <CAS_NUMBER>
944842-54-0

>  <UNII>
MZK2GP0RHK

>  <SYNONYMS>
Adelatinib; Decernotinib

$$$$
