
 OpenBabel10282417173D

 62 66  0  0  0  0  0  0  0  0999 V2000
    0.8996   -0.1677   -0.3105 C   0  0  0  0  0  0  0  0  0  0  0  0
    3.0186    0.8231    1.5001 C   0  0  0  0  0  0  0  0  0  0  0  0
    0.9623    6.6682    0.0785 C   0  0  0  0  0  0  0  0  0  0  0  0
    0.9693    7.3918   -1.2267 C   0  0  0  0  0  0  0  0  0  0  0  0
   -0.4185    5.9507    0.0738 C   0  0  0  0  0  0  0  0  0  0  0  0
    0.2252    6.4379   -2.1877 C   0  0  0  0  0  0  0  0  0  0  0  0
   -6.0923   -0.8053   -3.8107 C   0  0  0  0  0  0  0  0  0  0  0  0
   -5.3646    0.2961   -3.3460 C   0  0  0  0  0  0  0  0  0  0  0  0
   -8.4644   -3.8824   -4.8579 C   0  0  0  0  0  0  0  0  0  0  0  0
   -6.4904   -4.5888   -6.0419 C   0  0  0  0  0  0  0  0  0  0  0  0
   -8.2613   -2.4293   -5.3510 C   0  0  0  0  0  0  0  0  0  0  0  0
   -6.2510   -3.1484   -6.5773 C   0  0  0  0  0  0  0  0  0  0  0  0
   -5.5242   -0.1509   -5.9869 C   0  0  0  0  0  0  0  0  0  0  0  0
   -1.4577    0.5996   -1.8373 C   0  0  0  0  0  0  0  0  0  0  0  0
    0.5647    1.2502   -0.5648 C   0  0  0  0  0  0  0  0  0  0  0  0
    2.5320    2.1111    0.9272 C   0  0  0  0  0  0  0  0  0  0  0  0
   -0.5507    5.3686   -1.3473 C   0  0  0  0  0  0  0  0  0  0  0  0
   -6.1771   -1.0805   -5.1717 C   0  0  0  0  0  0  0  0  0  0  0  0
   -0.6092    1.5815   -1.3896 C   0  0  0  0  0  0  0  0  0  0  0  0
   -4.7454    1.1759   -4.2344 C   0  0  0  0  0  0  0  0  0  0  0  0
    1.3364    2.2207   -0.0579 C   0  0  0  0  0  0  0  0  0  0  0  0
   -0.9580    2.8760   -1.7702 C   0  0  0  0  0  0  0  0  0  0  0  0
    0.9301    3.5777   -0.4155 C   0  0  0  0  0  0  0  0  0  0  0  0
   -2.8367    2.0784   -2.9163 C   0  0  0  0  0  0  0  0  0  0  0  0
   -7.9185   -4.9004   -5.7874 N   0  0  0  0  0  0  0  0  0  0  0  0
   -4.8558    0.9802   -5.5672 N   0  0  0  0  0  0  0  0  0  0  0  0
   -2.5379    0.8194   -2.5815 N   0  0  0  0  0  0  0  0  0  0  0  0
   -4.0007    2.2494   -3.6852 N   0  0  0  0  0  0  0  0  0  0  0  0
   -2.0746    3.1341   -2.5246 N   0  0  0  0  0  0  0  0  0  0  0  0
   -6.8395   -2.1944   -5.6328 N   0  0  0  0  0  0  0  0  0  0  0  0
   -0.0836    3.9289   -1.3059 N   0  0  0  0  0  0  0  0  0  0  0  0
    3.1970    3.0870    1.3014 O   0  0  0  0  0  0  0  0  0  0  0  0
    1.5285    4.3760    0.3061 O   0  0  0  0  0  0  0  0  0  0  0  0
    0.4716   -0.8998   -0.9827 H   0  0  0  0  0  0  0  0  0  0  0  0
    0.5930   -0.4210    0.7113 H   0  0  0  0  0  0  0  0  0  0  0  0
    1.9726   -0.2759   -0.4890 H   0  0  0  0  0  0  0  0  0  0  0  0
    3.9898    0.6241    1.0416 H   0  0  0  0  0  0  0  0  0  0  0  0
    3.1029    0.9409    2.5827 H   0  0  0  0  0  0  0  0  0  0  0  0
    2.3883   -0.0356    1.3826 H   0  0  0  0  0  0  0  0  0  0  0  0
    1.9028    6.1259   -0.0612 H   0  0  0  0  0  0  0  0  0  0  0  0
    1.1428    7.1944    1.0139 H   0  0  0  0  0  0  0  0  0  0  0  0
    0.4721    8.3498   -1.0719 H   0  0  0  0  0  0  0  0  0  0  0  0
    1.9934    7.5762   -1.5760 H   0  0  0  0  0  0  0  0  0  0  0  0
   -0.5423    5.1629    0.8300 H   0  0  0  0  0  0  0  0  0  0  0  0
   -1.2087    6.6736    0.2855 H   0  0  0  0  0  0  0  0  0  0  0  0
   -0.4845    7.0853   -2.7230 H   0  0  0  0  0  0  0  0  0  0  0  0
    0.8826    5.9976   -2.9424 H   0  0  0  0  0  0  0  0  0  0  0  0
   -6.5399   -1.4737   -3.0815 H   0  0  0  0  0  0  0  0  0  0  0  0
   -5.2810    0.4774   -2.2794 H   0  0  0  0  0  0  0  0  0  0  0  0
   -9.5339   -4.0754   -4.7177 H   0  0  0  0  0  0  0  0  0  0  0  0
   -7.9859   -4.0083   -3.8791 H   0  0  0  0  0  0  0  0  0  0  0  0
   -5.9369   -4.7266   -5.1042 H   0  0  0  0  0  0  0  0  0  0  0  0
   -6.0949   -5.3196   -6.7553 H   0  0  0  0  0  0  0  0  0  0  0  0
   -8.8198   -2.2980   -6.2884 H   0  0  0  0  0  0  0  0  0  0  0  0
   -8.6751   -1.7198   -4.6278 H   0  0  0  0  0  0  0  0  0  0  0  0
   -6.7423   -3.0398   -7.5526 H   0  0  0  0  0  0  0  0  0  0  0  0
   -5.1773   -2.9877   -6.7175 H   0  0  0  0  0  0  0  0  0  0  0  0
   -5.5428   -0.2870   -7.0664 H   0  0  0  0  0  0  0  0  0  0  0  0
   -1.3121   -0.4500   -1.6181 H   0  0  0  0  0  0  0  0  0  0  0  0
   -1.5890    5.3852   -1.7020 H   0  0  0  0  0  0  0  0  0  0  0  0
   -8.4210   -4.8232   -6.6721 H   0  0  0  0  0  0  0  0  0  0  0  0
   -4.0260    3.1156   -4.1927 H   0  0  0  0  0  0  0  0  0  0  0  0
  1 34  1  0  0  0  0
  1 35  1  0  0  0  0
  1 36  1  0  0  0  0
  2 37  1  0  0  0  0
  2 38  1  0  0  0  0
  2 39  1  0  0  0  0
  3 40  1  0  0  0  0
  3 41  1  0  0  0  0
  4  3  1  0  0  0  0
  4 42  1  0  0  0  0
  4 43  1  0  0  0  0
  5  3  1  0  0  0  0
  5 44  1  0  0  0  0
  5 45  1  0  0  0  0
  6  4  1  0  0  0  0
  6 46  1  0  0  0  0
  6 47  1  0  0  0  0
  7 48  1  0  0  0  0
  8  7  2  0  0  0  0
  8 49  1  0  0  0  0
  9 50  1  0  0  0  0
  9 51  1  0  0  0  0
 10 52  1  0  0  0  0
 10 53  1  0  0  0  0
 11  9  1  0  0  0  0
 11 54  1  0  0  0  0
 11 55  1  0  0  0  0
 12 10  1  0  0  0  0
 12 56  1  0  0  0  0
 12 57  1  0  0  0  0
 13 58  1  0  0  0  0
 14 59  1  0  0  0  0
 15  1  1  0  0  0  0
 16  2  1  0  0  0  0
 17  5  1  0  0  0  0
 17  6  1  0  0  0  0
 17 60  1  0  0  0  0
 18  7  1  0  0  0  0
 18 13  2  0  0  0  0
 19 14  2  0  0  0  0
 19 15  1  0  0  0  0
 20  8  1  0  0  0  0
 21 15  2  0  0  0  0
 21 16  1  0  0  0  0
 22 19  1  0  0  0  0
 23 21  1  0  0  0  0
 25  9  1  0  0  0  0
 25 10  1  0  0  0  0
 25 61  1  0  0  0  0
 26 13  1  0  0  0  0
 26 20  2  0  0  0  0
 27 14  1  0  0  0  0
 27 24  2  0  0  0  0
 28 20  1  0  0  0  0
 28 24  1  0  0  0  0
 28 62  1  0  0  0  0
 29 22  2  0  0  0  0
 29 24  1  0  0  0  0
 30 11  1  0  0  0  0
 30 12  1  0  0  0  0
 30 18  1  0  0  0  0
 31 17  1  0  0  0  0
 31 22  1  0  0  0  0
 31 23  1  0  0  0  0
 32 16  2  0  0  0  0
 33 23  2  0  0  0  0
M  END
>  <DRUGBANK_ID>
DB09073

>  <COMMON_NAME>
Palbociclib

>  <CAS_NUMBER>
571190-30-2

>  <UNII>
G9ZF61LE7G

>  <SYNONYMS>
6-acetyl-8-cyclopentyl-5-methyl-2-{[5-(piperazin-1-yl)pyridin-2-yl]amino}pyrido[2,3-d]pyrimidin-7(8H)-one; Palbociclib

$$$$
