
 OpenBabel10282417163D

 37 37  0  0  0  0  0  0  0  0999 V2000
    1.2113    0.0077   -0.1424 C   0  0  0  0  0  0  0  0  0  0  0  0
    0.4611   -0.7553   -0.9031 N   0  0  0  0  0  0  0  0  0  0  0  0
    0.5533    0.7826    0.8076 N   0  0  0  0  0  0  0  0  0  0  0  0
    2.5734    0.1587   -0.1060 N   0  0  0  0  0  0  0  0  0  0  0  0
    1.0265   -1.7250   -1.7733 C   0  0  0  0  0  0  0  0  0  0  0  0
    1.0810    1.6964    1.8313 C   0  0  3  0  0  0  0  0  0  0  0  0
    3.5211   -0.3469   -1.0493 C   0  0  0  0  0  0  0  0  0  0  0  0
    1.9660   -2.6416   -1.2948 C   0  0  0  0  0  0  0  0  0  0  0  0
    0.6862   -1.8043   -3.1236 C   0  0  0  0  0  0  0  0  0  0  0  0
    0.6787    3.1808    1.5761 C   0  0  0  0  0  0  0  0  0  0  0  0
    0.6992    1.2222    3.2383 C   0  0  0  0  0  0  0  0  0  0  0  0
    4.3673   -0.8034   -1.7020 N   0  0  0  0  0  0  0  0  0  0  0  0
    2.6740   -3.4228   -2.1931 C   0  0  0  0  0  0  0  0  0  0  0  0
    1.3775   -2.7048   -3.9325 C   0  0  0  0  0  0  0  0  0  0  0  0
   -0.8277    3.4117    1.7768 C   0  0  0  0  0  0  0  0  0  0  0  0
    1.4519    4.0982    2.5543 C   0  0  0  0  0  0  0  0  0  0  0  0
    1.0661    3.5938    0.1456 C   0  0  0  0  0  0  0  0  0  0  0  0
    2.3888   -3.4906   -3.5045 N   0  0  0  0  0  0  0  0  0  0  0  0
   -0.4618    0.7144    0.7560 H   0  0  0  0  0  0  0  0  0  0  0  0
    2.9952    0.6563    0.6485 H   0  0  0  0  0  0  0  0  0  0  0  0
    2.1709    1.6769    1.8207 H   0  0  0  0  0  0  0  0  0  0  0  0
    2.2744   -2.6155   -0.2562 H   0  0  0  0  0  0  0  0  0  0  0  0
   -0.0846   -1.1780   -3.5562 H   0  0  0  0  0  0  0  0  0  0  0  0
    0.9791    0.1795    3.4020 H   0  0  0  0  0  0  0  0  0  0  0  0
    1.2279    1.8134    3.9954 H   0  0  0  0  0  0  0  0  0  0  0  0
   -0.3713    1.3143    3.4372 H   0  0  0  0  0  0  0  0  0  0  0  0
    3.5626   -3.9584   -1.8697 H   0  0  0  0  0  0  0  0  0  0  0  0
    1.1460   -2.8143   -4.9886 H   0  0  0  0  0  0  0  0  0  0  0  0
   -1.1416    3.1847    2.8004 H   0  0  0  0  0  0  0  0  0  0  0  0
   -1.0936    4.4581    1.5953 H   0  0  0  0  0  0  0  0  0  0  0  0
   -1.4182    2.7905    1.0964 H   0  0  0  0  0  0  0  0  0  0  0  0
    2.5351    3.9678    2.4422 H   0  0  0  0  0  0  0  0  0  0  0  0
    1.2209    5.1539    2.3795 H   0  0  0  0  0  0  0  0  0  0  0  0
    1.2005    3.8927    3.5996 H   0  0  0  0  0  0  0  0  0  0  0  0
    2.1411    3.4622   -0.0226 H   0  0  0  0  0  0  0  0  0  0  0  0
    0.5315    2.9996   -0.6023 H   0  0  0  0  0  0  0  0  0  0  0  0
    0.8236    4.6459   -0.0384 H   0  0  0  0  0  0  0  0  0  0  0  0
  1  2  2  0  0  0  0
  1  3  1  0  0  0  0
  1  4  1  0  0  0  0
  2  5  1  0  0  0  0
  3  6  1  0  0  0  0
  3 19  1  0  0  0  0
  4  7  1  0  0  0  0
  4 20  1  0  0  0  0
  5  8  2  0  0  0  0
  5  9  1  0  0  0  0
  6 10  1  0  0  0  0
  6 11  1  0  0  0  0
  6 21  1  0  0  0  0
  7 12  3  0  0  0  0
  8 13  1  0  0  0  0
  8 22  1  0  0  0  0
  9 14  2  0  0  0  0
  9 23  1  0  0  0  0
 10 15  1  0  0  0  0
 10 16  1  0  0  0  0
 10 17  1  0  0  0  0
 11 24  1  0  0  0  0
 11 25  1  0  0  0  0
 11 26  1  0  0  0  0
 13 18  2  0  0  0  0
 13 27  1  0  0  0  0
 14 18  1  0  0  0  0
 14 28  1  0  0  0  0
 15 29  1  0  0  0  0
 15 30  1  0  0  0  0
 15 31  1  0  0  0  0
 16 32  1  0  0  0  0
 16 33  1  0  0  0  0
 16 34  1  0  0  0  0
 17 35  1  0  0  0  0
 17 36  1  0  0  0  0
 17 37  1  0  0  0  0
M  END
>  <DRUGBANK_ID>
DB06762

>  <COMMON_NAME>
Pinacidil

>  <CAS_NUMBER>
60560-33-0

>  <UNII>
BB4UGO5K0D

>  <SYNONYMS>
Pinacidil; Pinacidil anhydrous; Pinacidilum

$$$$
