PU5
 OpenBabel10282417133D

 44 46  0  0  0  0  0  0  0  0999 V2000
    1.4219   -0.0297    0.1540 C   0  0  0  0  0  0  0  0  0  0  0  0
    0.9463    0.5607    1.4950 C   0  0  0  0  0  0  0  0  0  0  0  0
    1.0774    2.0567    1.6212 C   0  0  0  0  0  0  0  0  0  0  0  0
    0.3072    2.8307    0.5344 C   0  0  0  0  0  0  0  0  0  0  0  0
   -1.1557    2.7690    0.5536 N   0  0  0  0  0  0  0  0  0  0  0  0
   -1.9446    3.8983    0.7361 C   0  0  0  0  0  0  0  0  0  0  0  0
   -1.5768    5.1668    0.9696 N   0  0  0  0  0  0  0  0  0  0  0  0
   -2.6636    5.9727    1.1029 C   0  0  0  0  0  0  0  0  0  0  0  0
   -1.7230    0.2685   -0.0571 C   0  0  0  0  0  0  0  0  0  0  0  0
   -3.9773    5.6447    1.0400 N   0  0  0  0  0  0  0  0  0  0  0  0
   -3.2477    3.4393    0.6193 C   0  0  0  0  0  0  0  0  0  0  0  0
   -4.2884    4.3599    0.7963 C   0  0  0  0  0  0  0  0  0  0  0  0
   -5.6036    3.9569    0.7140 N   0  0  0  0  0  0  0  0  0  0  0  0
   -3.2887    2.1169    0.3249 N   0  0  0  0  0  0  0  0  0  0  0  0
   -2.0298    1.7059    0.2857 C   0  0  0  0  0  0  0  0  0  0  0  0
   -3.4673   -0.8574    1.3260 C   0  0  0  0  0  0  0  0  0  0  0  0
   -2.1149   -0.7579    1.0133 C   0  0  0  0  0  0  0  0  0  0  0  0
   -1.2223   -1.6205    1.7108 C   0  0  0  0  0  0  0  0  0  0  0  0
   -3.9098   -1.7658    2.2813 C   0  0  0  0  0  0  0  0  0  0  0  0
   -3.0031   -2.5646    2.9828 C   0  0  0  0  0  0  0  0  0  0  0  0
   -1.6406   -2.4788    2.7281 C   0  0  0  0  0  0  0  0  0  0  0  0
   -0.8376   -3.2718    3.5046 O   0  0  0  0  0  0  0  0  0  0  0  0
    0.5784   -3.1452    3.3806 C   0  0  0  0  0  0  0  0  0  0  0  0
    1.1520    0.5757   -0.7189 H   0  0  0  0  0  0  0  0  0  0  0  0
    0.9952   -1.0238   -0.0377 H   0  0  0  0  0  0  0  0  0  0  0  0
    2.5022   -0.1367    0.1319 H   0  0  0  0  0  0  0  0  0  0  0  0
   -0.1085    0.4378    1.6959 H   0  0  0  0  0  0  0  0  0  0  0  0
    1.4157    0.0156    2.3181 H   0  0  0  0  0  0  0  0  0  0  0  0
    0.6979    2.3513    2.6088 H   0  0  0  0  0  0  0  0  0  0  0  0
    2.1454    2.2901    1.5968 H   0  0  0  0  0  0  0  0  0  0  0  0
    0.5969    3.8824    0.6544 H   0  0  0  0  0  0  0  0  0  0  0  0
    0.6284    2.5557   -0.4734 H   0  0  0  0  0  0  0  0  0  0  0  0
   -2.4597    7.0225    1.2845 H   0  0  0  0  0  0  0  0  0  0  0  0
   -2.2344   -0.0034   -0.9891 H   0  0  0  0  0  0  0  0  0  0  0  0
   -0.7014    0.1972   -0.3524 H   0  0  0  0  0  0  0  0  0  0  0  0
   -5.7839    2.9761    0.5540 H   0  0  0  0  0  0  0  0  0  0  0  0
   -6.3407    4.6267    0.8599 H   0  0  0  0  0  0  0  0  0  0  0  0
   -4.1827   -0.2166    0.8155 H   0  0  0  0  0  0  0  0  0  0  0  0
   -0.1672   -1.6245    1.4955 H   0  0  0  0  0  0  0  0  0  0  0  0
   -4.9734   -1.8401    2.4772 H   0  0  0  0  0  0  0  0  0  0  0  0
   -3.3686   -3.2630    3.7286 H   0  0  0  0  0  0  0  0  0  0  0  0
    0.9160   -3.3796    2.3663 H   0  0  0  0  0  0  0  0  0  0  0  0
    0.9238   -2.1528    3.6913 H   0  0  0  0  0  0  0  0  0  0  0  0
    1.0459   -3.8768    4.0510 H   0  0  0  0  0  0  0  0  0  0  0  0
  1  2  1  0  0  0  0
  1 24  1  0  0  0  0
  1 25  1  0  0  0  0
  1 26  1  0  0  0  0
  2  3  1  0  0  0  0
  2 27  1  0  0  0  0
  2 28  1  0  0  0  0
  3  4  1  0  0  0  0
  3 29  1  0  0  0  0
  3 30  1  0  0  0  0
  4  5  1  0  0  0  0
  4 31  1  0  0  0  0
  4 32  1  0  0  0  0
  5  6  1  0  0  0  0
  5 15  1  0  0  0  0
  6  7  2  0  0  0  0
  6 11  1  0  0  0  0
  7  8  1  0  0  0  0
  8 10  2  0  0  0  0
  8 33  1  0  0  0  0
  9 15  1  0  0  0  0
  9 17  1  0  0  0  0
  9 34  1  0  0  0  0
  9 35  1  0  0  0  0
 10 12  1  0  0  0  0
 11 12  2  0  0  0  0
 11 14  1  0  0  0  0
 12 13  1  0  0  0  0
 13 36  1  0  0  0  0
 13 37  1  0  0  0  0
 14 15  2  0  0  0  0
 16 17  2  0  0  0  0
 16 19  1  0  0  0  0
 16 38  1  0  0  0  0
 17 18  1  0  0  0  0
 18 21  2  0  0  0  0
 18 39  1  0  0  0  0
 19 20  2  0  0  0  0
 19 40  1  0  0  0  0
 20 21  1  0  0  0  0
 20 41  1  0  0  0  0
 21 22  1  0  0  0  0
 22 23  1  0  0  0  0
 23 42  1  0  0  0  0
 23 43  1  0  0  0  0
 23 44  1  0  0  0  0
M  END
>  <DRUGBANK_ID>
DB03809

>  <SECONDARY_ACCESSION_NUMBERS>
EXPT02696

>  <COMMON_NAME>
9-Butyl-8-(3-Methoxybenzyl)-9h-Purin-6-Amine

$$$$
