
 OpenBabel10282417163D

 51 52  0  0  0  0  0  0  0  0999 V2000
    0.9289    0.0680    0.0425 F   0  0  0  0  0  0  0  0  0  0  0  0
    2.7200   -0.3007   -1.1355 F   0  0  0  0  0  0  0  0  0  0  0  0
    1.9815    1.0509    4.2314 F   0  0  0  0  0  0  0  0  0  0  0  0
    1.5352    1.0367    7.3059 O   0  0  0  0  0  0  0  0  0  0  0  0
    1.1924    5.9428    6.2565 O   0  0  0  0  0  0  0  0  0  0  0  0
    2.2752    2.1357    1.6506 N   0  0  0  0  0  0  0  0  0  0  0  0
    2.1394    3.2060    7.2267 N   0  0  0  0  0  0  0  0  0  0  0  0
    2.4062   -2.2982    1.0154 N   0  0  0  0  0  0  0  0  0  0  0  0
    6.8750    3.3038    6.5628 N   0  0  0  0  0  0  0  0  0  0  0  0
    0.1765    5.0192    6.5785 N   0  0  0  0  0  0  0  0  0  0  0  0
   -1.0218    6.9460    7.1907 N   0  0  0  0  0  0  0  0  0  0  0  0
   -1.9374    4.9026    7.4602 N   0  0  0  0  0  0  0  0  0  0  0  0
    3.9529    2.0837    5.0219 C   0  0  0  0  0  0  0  0  0  0  0  0
    2.7775    1.4895    0.3970 C   0  0  0  0  0  0  0  0  0  0  0  0
    3.1506    2.4434    2.7018 C   0  0  0  0  0  0  0  0  0  0  0  0
    2.2992    0.0244    0.1320 C   0  0  0  0  0  0  0  0  0  0  0  0
    3.7168    1.4849    6.4003 C   0  0  0  0  0  0  0  0  0  0  0  0
    2.9954    1.9024    4.0034 C   0  0  0  0  0  0  0  0  0  0  0  0
    5.0786    2.8794    4.7377 C   0  0  0  0  0  0  0  0  0  0  0  0
    4.3122    3.1746    2.4548 C   0  0  0  0  0  0  0  0  0  0  0  0
    5.2099    3.4762    3.4813 C   0  0  0  0  0  0  0  0  0  0  0  0
    2.7755   -1.0040    1.1572 C   0  0  0  0  0  0  0  0  0  0  0  0
    2.3757    1.8803    6.9964 C   0  0  0  0  0  0  0  0  0  0  0  0
    2.9548    4.3655    6.8982 C   0  0  0  0  0  0  0  0  0  0  0  0
    3.5334   -0.6276    2.2581 C   0  0  0  0  0  0  0  0  0  0  0  0
    2.3472    5.2330    5.7941 C   0  0  0  0  0  0  0  0  0  0  0  0
    6.1001    3.1212    5.7283 C   0  0  0  0  0  0  0  0  0  0  0  0
    3.7599   -1.4746    3.3259 C   0  0  0  0  0  0  0  0  0  0  0  0
    2.7300   -3.1503    2.0196 C   0  0  0  0  0  0  0  0  0  0  0  0
    3.3639   -2.7817    3.1962 C   0  0  0  0  0  0  0  0  0  0  0  0
   -0.8763    5.6164    7.0422 C   0  0  0  0  0  0  0  0  0  0  0  0
    1.3442    1.8273    1.9396 H   0  0  0  0  0  0  0  0  0  0  0  0
    1.1844    3.4317    7.5001 H   0  0  0  0  0  0  0  0  0  0  0  0
   -1.8707    7.3925    7.4917 H   0  0  0  0  0  0  0  0  0  0  0  0
   -0.2561    7.5228    6.8670 H   0  0  0  0  0  0  0  0  0  0  0  0
   -1.8901    3.8945    7.3772 H   0  0  0  0  0  0  0  0  0  0  0  0
   -2.7983    5.3075    7.7869 H   0  0  0  0  0  0  0  0  0  0  0  0
    3.8731    1.5088    0.3291 H   0  0  0  0  0  0  0  0  0  0  0  0
    2.4185    2.1106   -0.4320 H   0  0  0  0  0  0  0  0  0  0  0  0
    3.7840    0.3918    6.3430 H   0  0  0  0  0  0  0  0  0  0  0  0
    4.4785    1.7872    7.1291 H   0  0  0  0  0  0  0  0  0  0  0  0
    4.5373    3.5092    1.4459 H   0  0  0  0  0  0  0  0  0  0  0  0
    6.0174    4.1788    3.2821 H   0  0  0  0  0  0  0  0  0  0  0  0
    3.1061    4.9356    7.8161 H   0  0  0  0  0  0  0  0  0  0  0  0
    3.9358    4.0383    6.5955 H   0  0  0  0  0  0  0  0  0  0  0  0
    3.9504    0.3528    2.3312 H   0  0  0  0  0  0  0  0  0  0  0  0
    3.0896    5.9853    5.5025 H   0  0  0  0  0  0  0  0  0  0  0  0
    2.1025    4.6596    4.8920 H   0  0  0  0  0  0  0  0  0  0  0  0
    4.2336   -1.0951    4.2264 H   0  0  0  0  0  0  0  0  0  0  0  0
    2.4375   -4.1802    1.8541 H   0  0  0  0  0  0  0  0  0  0  0  0
    3.5616   -3.4917    3.9868 H   0  0  0  0  0  0  0  0  0  0  0  0
  1 16  1  0  0  0  0
  2 16  1  0  0  0  0
  3 18  1  0  0  0  0
  4 23  2  0  0  0  0
  5 10  1  0  0  0  0
  5 26  1  0  0  0  0
  6 14  1  0  0  0  0
  6 15  1  0  0  0  0
  6 32  1  0  0  0  0
  7 23  1  0  0  0  0
  7 24  1  0  0  0  0
  7 33  1  0  0  0  0
  8 22  1  0  0  0  0
  8 29  2  0  0  0  0
  9 27  3  0  0  0  0
 10 31  2  0  0  0  0
 11 31  1  0  0  0  0
 11 34  1  0  0  0  0
 11 35  1  0  0  0  0
 12 31  1  0  0  0  0
 12 36  1  0  0  0  0
 12 37  1  0  0  0  0
 13 17  1  0  0  0  0
 13 18  1  0  0  0  0
 13 19  2  0  0  0  0
 14 16  1  0  0  0  0
 14 38  1  0  0  0  0
 14 39  1  0  0  0  0
 15 18  2  0  0  0  0
 15 20  1  0  0  0  0
 16 22  1  0  0  0  0
 17 23  1  0  0  0  0
 17 40  1  0  0  0  0
 17 41  1  0  0  0  0
 19 21  1  0  0  0  0
 19 27  1  0  0  0  0
 20 21  2  0  0  0  0
 20 42  1  0  0  0  0
 21 43  1  0  0  0  0
 22 25  2  0  0  0  0
 24 26  1  0  0  0  0
 24 44  1  0  0  0  0
 24 45  1  0  0  0  0
 25 28  1  0  0  0  0
 25 46  1  0  0  0  0
 26 47  1  0  0  0  0
 26 48  1  0  0  0  0
 28 30  2  0  0  0  0
 28 49  1  0  0  0  0
 29 30  1  0  0  0  0
 29 50  1  0  0  0  0
 30 51  1  0  0  0  0
M  END
>  <DRUGBANK_ID>
DB07665

>  <COMMON_NAME>
N-[2-(carbamimidamidooxy)ethyl]-2-{6-cyano-3-[(2,2-difluoro-2-pyridin-2-ylethyl)amino]-2-fluorophenyl}acetamide

$$$$
