PZZ
 OpenBabel10282417173D

 37 38  0  0  0  0  0  0  0  0999 V2000
   -2.3835   -0.2011    0.0030 C   0  0  0  0  0  0  0  0  0  0  0  0
   -1.5634   -1.3009   -0.0105 C   0  0  0  0  0  0  0  0  0  0  0  0
   -1.5984    0.8699    0.3019 N   0  0  0  0  0  0  0  0  0  0  0  0
    1.0372   -1.4673    0.0195 C   0  0  0  0  0  0  0  0  0  0  0  0
    2.1992   -0.6994   -0.0085 C   0  0  0  0  0  0  0  0  0  0  0  0
    2.1269    0.6907   -0.0172 C   0  0  0  0  0  0  0  0  0  0  0  0
    0.8978    1.3825    0.0464 C   0  0  0  0  0  0  0  0  0  0  0  0
   -0.2137   -0.8270    0.0477 C   0  0  0  0  0  0  0  0  0  0  0  0
   -0.2579    0.5646    0.1347 C   0  0  0  0  0  0  0  0  0  0  0  0
   -2.0253   -2.7111   -0.0227 C   0  0  0  0  0  0  0  0  0  0  0  0
   -2.8744   -2.9373    1.1615 N   0  0  0  0  0  0  0  0  0  0  0  0
   -3.3575   -4.3121    1.1439 C   0  0  0  0  0  0  0  0  0  0  0  0
   -2.1530   -2.6697    2.4118 C   0  0  0  0  0  0  0  0  0  0  0  0
    0.9211    2.8964    0.0034 C   0  0  0  0  0  0  0  0  0  0  0  0
    0.2219    3.5181   -1.2190 C   0  0  0  0  0  0  0  0  0  0  0  0
   -1.2626    3.2141   -1.3503 C   0  0  0  0  0  0  0  0  0  0  0  0
   -1.9858    3.4799   -0.1463 O   0  0  0  0  0  0  0  0  0  0  0  0
   -3.4618   -0.1064   -0.0565 H   0  0  0  0  0  0  0  0  0  0  0  0
   -1.9889    1.7886    0.4194 H   0  0  0  0  0  0  0  0  0  0  0  0
    1.0989   -2.5498   -0.0067 H   0  0  0  0  0  0  0  0  0  0  0  0
    3.1659   -1.1933   -0.0505 H   0  0  0  0  0  0  0  0  0  0  0  0
    3.0597    1.2503   -0.0781 H   0  0  0  0  0  0  0  0  0  0  0  0
   -2.6034   -2.8735   -0.9420 H   0  0  0  0  0  0  0  0  0  0  0  0
   -1.1743   -3.4003   -0.0399 H   0  0  0  0  0  0  0  0  0  0  0  0
   -2.5303   -5.0289    1.1831 H   0  0  0  0  0  0  0  0  0  0  0  0
   -4.0225   -4.4960    1.9933 H   0  0  0  0  0  0  0  0  0  0  0  0
   -3.9395   -4.5014    0.2354 H   0  0  0  0  0  0  0  0  0  0  0  0
   -1.2538   -3.2878    2.5038 H   0  0  0  0  0  0  0  0  0  0  0  0
   -1.8538   -1.6186    2.5013 H   0  0  0  0  0  0  0  0  0  0  0  0
   -2.8008   -2.8544    3.2746 H   0  0  0  0  0  0  0  0  0  0  0  0
    0.5263    3.2890    0.9464 H   0  0  0  0  0  0  0  0  0  0  0  0
    1.9643    3.2439   -0.0215 H   0  0  0  0  0  0  0  0  0  0  0  0
    0.3368    4.6068   -1.1604 H   0  0  0  0  0  0  0  0  0  0  0  0
    0.7246    3.1890   -2.1368 H   0  0  0  0  0  0  0  0  0  0  0  0
   -1.7345    3.7828   -2.1523 H   0  0  0  0  0  0  0  0  0  0  0  0
   -1.3968    2.1708   -1.6481 H   0  0  0  0  0  0  0  0  0  0  0  0
   -1.3727    3.5518    0.6065 H   0  0  0  0  0  0  0  0  0  0  0  0
  1  3  1  0  0  0  0
  1  2  2  0  0  0  0
  1 18  1  0  0  0  0
  2  8  1  0  0  0  0
  2 10  1  0  0  0  0
  3  9  1  0  0  0  0
  3 19  1  0  0  0  0
  4  5  2  0  0  0  0
  4  8  1  0  0  0  0
  4 20  1  0  0  0  0
  5  6  1  0  0  0  0
  5 21  1  0  0  0  0
  6  7  2  0  0  0  0
  6 22  1  0  0  0  0
  7 14  1  0  0  0  0
  7  9  1  0  0  0  0
  8  9  2  0  0  0  0
 10 11  1  0  0  0  0
 10 23  1  0  0  0  0
 10 24  1  0  0  0  0
 11 12  1  0  0  0  0
 11 13  1  0  0  0  0
 12 25  1  0  0  0  0
 12 26  1  0  0  0  0
 12 27  1  0  0  0  0
 13 28  1  0  0  0  0
 13 29  1  0  0  0  0
 13 30  1  0  0  0  0
 14 15  1  0  0  0  0
 14 31  1  0  0  0  0
 14 32  1  0  0  0  0
 15 16  1  0  0  0  0
 15 33  1  0  0  0  0
 15 34  1  0  0  0  0
 16 17  1  0  0  0  0
 16 35  1  0  0  0  0
 16 36  1  0  0  0  0
 17 37  1  0  0  0  0
M  END
>  <DRUGBANK_ID>
DB08447

>  <COMMON_NAME>
3-{3-[(DIMETHYLAMINO)METHYL]-1H-INDOL-7-YL}PROPAN-1-OL

$$$$
