
 OpenBabel10282417153D

 80 84  0  0  1  0  0  0  0  0999 V2000
   -0.6605   -3.6999    7.7423 C   0  0  0  0  0  0  0  0  0  0  0  0
   -0.0364   -3.1171    6.4547 C   0  0  1  0  0  0  0  0  0  0  0  0
   -1.0349   -3.3224    5.2229 C   0  0  0  0  0  0  0  0  0  0  0  0
   -1.0199   -4.7397    4.7116 C   0  0  0  0  0  0  0  0  0  0  0  0
    0.4019   -5.4311    4.5306 C   0  0  1  0  0  0  0  0  0  0  0  0
   -0.0323   -6.7660    3.9127 C   0  0  0  0  0  0  0  0  0  0  0  0
    0.9380   -7.9025    4.0457 C   0  0  0  0  0  0  0  0  0  0  0  0
    1.8863   -7.8690    5.2597 C   0  0  0  0  0  0  0  0  0  0  0  0
    2.2896   -6.4467    5.6894 C   0  0  0  0  0  0  0  0  0  0  0  0
    1.1342   -5.3936    5.8520 C   0  0  1  0  0  0  0  0  0  0  0  0
    1.3255   -3.7789    6.1716 C   0  0  1  0  0  0  0  0  0  0  0  0
    1.6384   -2.7872    4.9703 C   0  0  0  0  0  0  0  0  0  0  0  0
    1.1728   -2.9344    3.8374 O   0  0  0  0  0  0  0  0  0  0  0  0
    1.7702   -1.3645    4.9001 C   0  0  0  0  0  0  0  0  0  0  0  0
    0.6852   -0.7689    5.4570 C   0  0  0  0  0  0  0  0  0  0  0  0
    0.2401   -1.5834    6.6741 C   0  0  1  0  0  0  0  0  0  0  0  0
   -1.1114   -1.0569    6.9442 C   0  0  0  0  0  0  0  0  0  0  0  0
   -0.9489    0.2534    7.6393 C   0  0  0  0  0  0  0  0  0  0  0  0
   -1.2353    1.0851    6.4577 C   0  0  2  0  0  0  0  0  0  0  0  0
    0.2283    0.7616    5.3602 C   0  0  2  0  0  0  0  0  0  0  0  0
   -0.4522    1.4943    4.2280 C   0  0  0  0  0  0  0  0  0  0  0  0
   -0.6048    2.8360    4.5221 C   0  0  0  0  0  0  0  0  0  0  0  0
   -1.8978    2.9738    5.2730 C   0  0  0  0  0  0  0  0  0  0  0  0
   -2.9057    3.2735    4.6354 O   0  0  0  0  0  0  0  0  0  0  0  0
   -1.9279    2.4685    6.7276 C   0  0  0  0  0  0  0  0  0  0  0  0
   -3.4636    2.6491    7.1680 C   0  0  0  0  0  0  0  0  0  0  0  0
   -1.2010    3.1222    7.8965 C   0  0  0  0  0  0  0  0  0  0  0  0
    0.4014    3.5572    5.3084 C   0  0  0  0  0  0  0  0  0  0  0  0
    1.2264    3.9760    5.9960 N   0  0  0  0  0  0  0  0  0  0  0  0
    1.7526    1.2312    4.9236 C   0  0  0  0  0  0  0  0  0  0  0  0
    1.3702   -1.2733    7.7116 C   0  0  0  0  0  0  0  0  0  0  0  0
    3.1775   -8.5899    4.7742 C   0  0  0  0  0  0  0  0  0  0  0  0
    1.2978   -8.5054    6.5027 C   0  0  0  0  0  0  0  0  0  0  0  0
    1.5086   -4.9523    3.4424 C   0  0  0  0  0  0  0  0  0  0  0  0
    1.1291   -4.7355    2.2835 O   0  0  0  0  0  0  0  0  0  0  0  0
    2.8641   -4.6469    3.7740 O   0  0  0  0  0  0  0  0  0  0  0  0
    3.9288   -4.3976    4.9205 C   0  0  0  0  0  0  0  0  0  0  0  0
   -0.7552   -2.9462    8.5325 H   0  0  0  0  0  0  0  0  0  0  0  0
   -0.0575   -4.4866    8.1880 H   0  0  0  0  0  0  0  0  0  0  0  0
   -1.6655   -4.0808    7.5423 H   0  0  0  0  0  0  0  0  0  0  0  0
   -2.0629   -3.0170    5.4613 H   0  0  0  0  0  0  0  0  0  0  0  0
   -0.8447   -2.6842    4.3485 H   0  0  0  0  0  0  0  0  0  0  0  0
   -1.6562   -5.3008    5.4270 H   0  0  0  0  0  0  0  0  0  0  0  0
   -1.5869   -4.7717    3.7718 H   0  0  0  0  0  0  0  0  0  0  0  0
   -0.1423   -6.5724    2.8330 H   0  0  0  0  0  0  0  0  0  0  0  0
   -1.0448   -7.0891    4.1837 H   0  0  0  0  0  0  0  0  0  0  0  0
    1.5207   -7.8843    3.1124 H   0  0  0  0  0  0  0  0  0  0  0  0
    0.3763   -8.8420    4.0091 H   0  0  0  0  0  0  0  0  0  0  0  0
    2.8949   -6.2756    4.8249 H   0  0  0  0  0  0  0  0  0  0  0  0
    2.9925   -6.4427    6.5286 H   0  0  0  0  0  0  0  0  0  0  0  0
    0.5492   -5.7923    6.6929 H   0  0  0  0  0  0  0  0  0  0  0  0
    1.9675   -3.6943    7.0690 H   0  0  0  0  0  0  0  0  0  0  0  0
    2.2063   -1.0628    3.9384 H   0  0  0  0  0  0  0  0  0  0  0  0
   -1.8561   -1.6773    7.4288 H   0  0  0  0  0  0  0  0  0  0  0  0
   -1.5711   -1.0195    5.9285 H   0  0  0  0  0  0  0  0  0  0  0  0
   -1.5019    0.2262    8.5733 H   0  0  0  0  0  0  0  0  0  0  0  0
    0.0470    0.5983    7.9134 H   0  0  0  0  0  0  0  0  0  0  0  0
   -2.1401    0.6229    5.9919 H   0  0  0  0  0  0  0  0  0  0  0  0
   -0.0717    1.1915    3.2507 H   0  0  0  0  0  0  0  0  0  0  0  0
   -3.7049    2.3930    8.2111 H   0  0  0  0  0  0  0  0  0  0  0  0
   -3.6990    3.7314    7.1056 H   0  0  0  0  0  0  0  0  0  0  0  0
   -4.2185    2.1721    6.5293 H   0  0  0  0  0  0  0  0  0  0  0  0
   -0.1534    2.8263    7.9452 H   0  0  0  0  0  0  0  0  0  0  0  0
   -1.2805    4.2054    7.8563 H   0  0  0  0  0  0  0  0  0  0  0  0
   -1.6293    2.7837    8.8582 H   0  0  0  0  0  0  0  0  0  0  0  0
    2.5805    0.8618    5.5449 H   0  0  0  0  0  0  0  0  0  0  0  0
    1.9577    0.7805    3.9158 H   0  0  0  0  0  0  0  0  0  0  0  0
    2.0092    2.2310    4.5829 H   0  0  0  0  0  0  0  0  0  0  0  0
    1.0481   -1.5342    8.7138 H   0  0  0  0  0  0  0  0  0  0  0  0
    2.3269   -1.7613    7.4938 H   0  0  0  0  0  0  0  0  0  0  0  0
    1.6828   -0.2179    7.6929 H   0  0  0  0  0  0  0  0  0  0  0  0
    3.9791   -8.5234    5.5134 H   0  0  0  0  0  0  0  0  0  0  0  0
    2.9920   -9.6375    4.5229 H   0  0  0  0  0  0  0  0  0  0  0  0
    3.5681   -8.1140    3.8574 H   0  0  0  0  0  0  0  0  0  0  0  0
    0.3965   -7.9701    6.8186 H   0  0  0  0  0  0  0  0  0  0  0  0
    1.0419   -9.5521    6.3476 H   0  0  0  0  0  0  0  0  0  0  0  0
    2.0240   -8.4349    7.3215 H   0  0  0  0  0  0  0  0  0  0  0  0
    4.5533   -3.5688    4.5917 H   0  0  0  0  0  0  0  0  0  0  0  0
    3.5643   -4.1343    5.9240 H   0  0  0  0  0  0  0  0  0  0  0  0
    4.5623   -5.2863    5.0461 H   0  0  0  0  0  0  0  0  0  0  0  0
  1 38  1  0  0  0  0
  1 39  1  0  0  0  0
  1 40  1  0  0  0  0
  2  1  1  6  0  0  0
  2  3  1  0  0  0  0
  2 11  1  0  0  0  0
  2 16  1  0  0  0  0
  3  4  1  0  0  0  0
  3 41  1  0  0  0  0
  3 42  1  0  0  0  0
  4 43  1  0  0  0  0
  4 44  1  0  0  0  0
  5  4  1  0  0  0  0
  5  6  1  0  0  0  0
  5 34  1  1  0  0  0
  6  7  1  0  0  0  0
  6 45  1  0  0  0  0
  6 46  1  0  0  0  0
  7  8  1  0  0  0  0
  7 47  1  0  0  0  0
  7 48  1  0  0  0  0
  8  9  1  0  0  0  0
  8 32  1  0  0  0  0
  8 33  1  0  0  0  0
  9 49  1  0  0  0  0
  9 50  1  0  0  0  0
 10  9  1  0  0  0  0
 10  5  1  0  0  0  0
 10 51  1  1  0  0  0
 11 10  1  0  0  0  0
 11 12  1  0  0  0  0
 11 52  1  1  0  0  0
 12 13  2  0  0  0  0
 12 14  1  0  0  0  0
 14 15  2  0  0  0  0
 14 53  1  0  0  0  0
 16 15  1  0  0  0  0
 16 17  1  0  0  0  0
 16 31  1  1  0  0  0
 17 18  1  0  0  0  0
 17 54  1  0  0  0  0
 17 55  1  0  0  0  0
 18 56  1  0  0  0  0
 18 57  1  0  0  0  0
 19 18  1  0  0  0  0
 19 20  1  0  0  0  0
 19 25  1  0  0  0  0
 19 58  1  6  0  0  0
 20 15  1  0  0  0  0
 20 21  1  0  0  0  0
 20 30  1  1  0  0  0
 21 22  2  0  0  0  0
 21 59  1  0  0  0  0
 22 23  1  0  0  0  0
 22 28  1  0  0  0  0
 23 24  2  0  0  0  0
 23 25  1  0  0  0  0
 25 26  1  0  0  0  0
 25 27  1  0  0  0  0
 26 60  1  0  0  0  0
 26 61  1  0  0  0  0
 26 62  1  0  0  0  0
 27 63  1  0  0  0  0
 27 64  1  0  0  0  0
 27 65  1  0  0  0  0
 28 29  3  0  0  0  0
 30 66  1  0  0  0  0
 30 67  1  0  0  0  0
 30 68  1  0  0  0  0
 31 69  1  0  0  0  0
 31 70  1  0  0  0  0
 31 71  1  0  0  0  0
 32 72  1  0  0  0  0
 32 73  1  0  0  0  0
 32 74  1  0  0  0  0
 33 75  1  0  0  0  0
 33 76  1  0  0  0  0
 33 77  1  0  0  0  0
 34 35  2  0  0  0  0
 34 36  1  0  0  0  0
 36 37  1  0  0  0  0
 37 78  1  0  0  0  0
 37 79  1  0  0  0  0
 37 80  1  0  0  0  0
M  END
>  <DRUGBANK_ID>
DB05983

>  <COMMON_NAME>
Bardoxolone methyl

>  <CAS_NUMBER>
218600-53-4

>  <UNII>
CEG1Q6OGU1

>  <SYNONYMS>
Bardoxolone methyl

$$$$
