ITA
 OpenBabel10282417173D

 38 40  0  0  0  0  0  0  0  0999 V2000
    0.1680    0.2691    0.2358 C   0  0  0  0  0  0  0  0  0  0  0  0
   -1.0546    1.0191    0.1454 C   0  0  0  0  0  0  0  0  0  0  0  0
   -2.2488    0.4225   -0.1449 C   0  0  0  0  0  0  0  0  0  0  0  0
   -2.2384   -0.9510   -0.0322 C   0  0  0  0  0  0  0  0  0  0  0  0
   -1.0119   -1.7087    0.1884 C   0  0  0  0  0  0  0  0  0  0  0  0
    0.3335   -1.1406    0.2191 C   0  0  0  0  0  0  0  0  0  0  0  0
    1.7974   -1.6084    0.2553 C   0  0  0  0  0  0  0  0  0  0  0  0
    2.6462   -2.9540    0.5859 C   0  0  0  0  0  0  0  0  0  0  0  0
    3.9709   -2.5206    1.0046 N   0  0  0  0  0  0  0  0  0  0  0  0
    4.1843   -1.9078    2.3863 C   0  0  0  0  0  0  0  0  0  0  0  0
    5.2848   -0.8938    2.6334 C   0  0  0  0  0  0  0  0  0  0  0  0
    5.0936    0.2783    2.9318 O   0  0  0  0  0  0  0  0  0  0  0  0
    6.5283   -1.4019    2.5315 O   0  0  0  0  0  0  0  0  0  0  0  0
    4.3534   -1.4826   -0.3020 S   0  0  0  0  0  0  0  0  0  0  0  0
    4.1290   -2.1962   -1.5603 O   0  0  0  0  0  0  0  0  0  0  0  0
    5.5895   -0.8529   -0.0155 O   0  0  0  0  0  0  0  0  0  0  0  0
    2.8210   -0.6470   -0.0052 C   0  0  0  0  0  0  0  0  0  0  0  0
    2.5933    0.7101    0.0430 C   0  0  0  0  0  0  0  0  0  0  0  0
    3.6817    1.7116   -0.1313 C   0  0  0  0  0  0  0  0  0  0  0  0
    3.5223    3.0455   -0.1356 O   0  0  0  0  0  0  0  0  0  0  0  0
    2.3252    3.8070   -0.1637 C   0  0  0  0  0  0  0  0  0  0  0  0
    1.4565    3.5469   -1.3939 C   0  0  0  0  0  0  0  0  0  0  0  0
    0.2625    3.2942   -1.3967 O   0  0  0  0  0  0  0  0  0  0  0  0
    2.1298    3.5568   -2.5542 O   0  0  0  0  0  0  0  0  0  0  0  0
    4.8213    1.3202   -0.2856 O   0  0  0  0  0  0  0  0  0  0  0  0
    1.2790    1.0806    0.3053 C   0  0  0  0  0  0  0  0  0  0  0  0
    2.5152   -4.1100    0.2424 O   0  0  0  0  0  0  0  0  0  0  0  0
   -1.0845    2.1129    0.2401 H   0  0  0  0  0  0  0  0  0  0  0  0
   -3.1304    1.0186   -0.4005 H   0  0  0  0  0  0  0  0  0  0  0  0
   -3.2086   -1.4412   -0.0992 H   0  0  0  0  0  0  0  0  0  0  0  0
   -1.1519   -2.7803    0.2832 H   0  0  0  0  0  0  0  0  0  0  0  0
    3.2521   -1.4225    2.7096 H   0  0  0  0  0  0  0  0  0  0  0  0
    4.3452   -2.7109    3.1173 H   0  0  0  0  0  0  0  0  0  0  0  0
    7.1370   -0.6310    2.5029 H   0  0  0  0  0  0  0  0  0  0  0  0
    1.8205    3.6715    0.7978 H   0  0  0  0  0  0  0  0  0  0  0  0
    2.6077    4.8578   -0.1603 H   0  0  0  0  0  0  0  0  0  0  0  0
    1.4536    3.3121   -3.2228 H   0  0  0  0  0  0  0  0  0  0  0  0
    1.0157    2.0929    0.5177 H   0  0  0  0  0  0  0  0  0  0  0  0
  1 26  2  0  0  0  0
  1  2  1  0  0  0  0
  1  6  1  0  0  0  0
  2  3  2  0  0  0  0
  2 28  1  0  0  0  0
  3  4  1  0  0  0  0
  3 29  1  0  0  0  0
  4  5  2  0  0  0  0
  4 30  1  0  0  0  0
  5  6  1  0  0  0  0
  5 31  1  0  0  0  0
  6  7  2  0  0  0  0
  7  8  1  0  0  0  0
  7 17  1  0  0  0  0
  8 27  2  0  0  0  0
  8  9  1  0  0  0  0
  9 10  1  0  0  0  0
  9 14  1  0  0  0  0
 10 11  1  0  0  0  0
 10 32  1  0  0  0  0
 10 33  1  0  0  0  0
 11 12  2  0  0  0  0
 11 13  1  0  0  0  0
 13 34  1  0  0  0  0
 14 15  2  0  0  0  0
 14 16  2  0  0  0  0
 14 17  1  0  0  0  0
 17 18  2  0  0  0  0
 18 19  1  0  0  0  0
 18 26  1  0  0  0  0
 19 20  1  0  0  0  0
 19 25  2  0  0  0  0
 20 21  1  0  0  0  0
 21 22  1  0  0  0  0
 21 35  1  0  0  0  0
 21 36  1  0  0  0  0
 22 23  2  0  0  0  0
 22 24  1  0  0  0  0
 24 37  1  0  0  0  0
 26 38  1  0  0  0  0
M  END
>  <DRUGBANK_ID>
DB07999

>  <COMMON_NAME>
{4-[(CARBOXYMETHOXY)CARBONYL]-3,3-DIOXIDO-1-OXONAPHTHO[1,2-D]ISOTHIAZOL-2(1H)-YL}ACETIC ACID

$$$$
