
 OpenBabel10282417203D

 60 63  0  0  0  0  0  0  0  0999 V2000
    1.1335    0.1486    0.0854 C   0  0  0  0  0  0  0  0  0  0  0  0
    0.6366   -0.8943    1.0402 C   0  0  0  0  0  0  0  0  0  0  0  0
   -0.0075   -0.7156    2.2694 C   0  0  0  0  0  0  0  0  0  0  0  0
   -0.0992   -1.9852    2.8928 N   0  0  0  0  0  0  0  0  0  0  0  0
    0.3956   -2.8979    2.0534 C   0  0  0  0  0  0  0  0  0  0  0  0
    0.7676   -2.2751    0.9250 N   0  3  0  0  0  0  0  0  0  0  0  0
    1.3707   -3.0343   -0.1976 C   0  0  0  0  0  0  0  0  0  0  0  0
    1.5459   -4.4050    0.0251 C   0  0  0  0  0  0  0  0  0  0  0  0
    1.1338   -5.0237    1.2062 C   0  0  0  0  0  0  0  0  0  0  0  0
    0.5368   -4.2783    2.2128 C   0  0  0  0  0  0  0  0  0  0  0  0
   -0.7583   -2.1796    4.1222 N   0  0  0  0  0  0  0  0  0  0  0  0
   -0.5590   -3.2708    4.7024 N   0  0  0  0  0  0  0  0  0  0  0  0
   -1.3088   -3.4289    5.8887 N   0  0  0  0  0  0  0  0  0  0  0  0
   -0.8716   -4.1654    6.9203 C   0  0  0  0  0  0  0  0  0  0  0  0
    0.2879   -4.9264    7.0359 C   0  0  0  0  0  0  0  0  0  0  0  0
    0.5382   -5.5675    8.2527 C   0  0  0  0  0  0  0  0  0  0  0  0
   -0.3534   -5.4625    9.3250 C   0  0  0  0  0  0  0  0  0  0  0  0
   -1.5228   -4.7145    9.2310 C   0  0  0  0  0  0  0  0  0  0  0  0
   -1.7434   -4.0359    7.9269 N   0  3  0  0  0  0  0  0  0  0  0  0
   -2.7920   -3.2089    7.5717 C   0  0  0  0  0  0  0  0  0  0  0  0
   -2.5153   -2.8195    6.2554 C   0  0  0  0  0  0  0  0  0  0  0  0
   -3.4357   -2.0114    5.4240 C   0  0  0  0  0  0  0  0  0  0  0  0
   -3.8207   -0.7443    5.8647 C   0  0  0  0  0  0  0  0  0  0  0  0
   -4.8602   -0.0919    5.2146 C   0  0  0  0  0  0  0  0  0  0  0  0
   -5.4393   -0.6684    4.0845 C   0  0  0  0  0  0  0  0  0  0  0  0
   -4.9679   -1.8855    3.5875 C   0  0  0  0  0  0  0  0  0  0  0  0
   -3.9871   -2.5863    4.2805 C   0  0  0  0  0  0  0  0  0  0  0  0
   -3.9780   -2.8988    8.4038 C   0  0  0  0  0  0  0  0  0  0  0  0
   -0.5269    0.5747    2.7971 C   0  0  0  0  0  0  0  0  0  0  0  0
   -0.1288    1.0701    4.0353 C   0  0  0  0  0  0  0  0  0  0  0  0
   -0.7108    2.2504    4.5073 C   0  0  0  0  0  0  0  0  0  0  0  0
   -1.6112    2.9655    3.7101 C   0  0  0  0  0  0  0  0  0  0  0  0
   -1.9334    2.5063    2.4390 C   0  0  0  0  0  0  0  0  0  0  0  0
   -1.4367    1.2835    2.0131 C   0  0  0  0  0  0  0  0  0  0  0  0
   -2.0550   -0.2006   -1.6256 Br  0  5  0  0  0  0  0  0  0  0  0  0
    4.3321   -1.5231    1.2775 Br  0  5  0  0  0  0  0  0  0  0  0  0
    0.6138    1.0985    0.2516 H   0  0  0  0  0  0  0  0  0  0  0  0
    0.9989   -0.1435   -0.9550 H   0  0  0  0  0  0  0  0  0  0  0  0
    2.1896    0.3863    0.2298 H   0  0  0  0  0  0  0  0  0  0  0  0
    1.7192   -2.5555   -1.1081 H   0  0  0  0  0  0  0  0  0  0  0  0
    2.0664   -4.9968   -0.7250 H   0  0  0  0  0  0  0  0  0  0  0  0
    1.3148   -6.0873    1.3509 H   0  0  0  0  0  0  0  0  0  0  0  0
    0.2337   -4.7859    3.1164 H   0  0  0  0  0  0  0  0  0  0  0  0
    0.9865   -5.0051    6.2120 H   0  0  0  0  0  0  0  0  0  0  0  0
    1.4494   -6.1538    8.3771 H   0  0  0  0  0  0  0  0  0  0  0  0
   -0.1256   -5.9710   10.2627 H   0  0  0  0  0  0  0  0  0  0  0  0
   -2.2074   -4.6325   10.0708 H   0  0  0  0  0  0  0  0  0  0  0  0
   -3.3207   -0.2514    6.6953 H   0  0  0  0  0  0  0  0  0  0  0  0
   -5.2158    0.8695    5.5773 H   0  0  0  0  0  0  0  0  0  0  0  0
   -6.2530   -0.1576    3.5744 H   0  0  0  0  0  0  0  0  0  0  0  0
   -5.3798   -2.2884    2.6643 H   0  0  0  0  0  0  0  0  0  0  0  0
   -3.7082   -3.5817    3.9444 H   0  0  0  0  0  0  0  0  0  0  0  0
   -4.0611   -1.8157    8.5283 H   0  0  0  0  0  0  0  0  0  0  0  0
   -4.8807   -3.2646    7.9027 H   0  0  0  0  0  0  0  0  0  0  0  0
   -3.9267   -3.3512    9.3943 H   0  0  0  0  0  0  0  0  0  0  0  0
    0.6663    0.5926    4.6014 H   0  0  0  0  0  0  0  0  0  0  0  0
   -0.4401    2.6407    5.4840 H   0  0  0  0  0  0  0  0  0  0  0  0
   -2.0510    3.8929    4.0651 H   0  0  0  0  0  0  0  0  0  0  0  0
   -2.5666    3.0814    1.7672 H   0  0  0  0  0  0  0  0  0  0  0  0
   -1.7783    0.8906    1.0604 H   0  0  0  0  0  0  0  0  0  0  0  0
  1  2  1  0  0  0  0
  1 37  1  0  0  0  0
  1 38  1  0  0  0  0
  1 39  1  0  0  0  0
  2  3  2  0  0  0  0
  2  6  1  0  0  0  0
  3  4  1  0  0  0  0
  3 29  1  0  0  0  0
  4  5  1  0  0  0  0
  4 11  1  0  0  0  0
  5  6  1  0  0  0  0
  5 10  2  0  0  0  0
  6  7  2  0  0  0  0
  7  8  1  0  0  0  0
  7 40  1  0  0  0  0
  8  9  2  0  0  0  0
  8 41  1  0  0  0  0
  9 10  1  0  0  0  0
  9 42  1  0  0  0  0
 10 43  1  0  0  0  0
 11 12  2  0  0  0  0
 12 13  1  0  0  0  0
 13 14  1  0  0  0  0
 13 21  1  0  0  0  0
 14 15  2  0  0  0  0
 14 19  1  0  0  0  0
 15 16  1  0  0  0  0
 15 44  1  0  0  0  0
 16 17  2  0  0  0  0
 16 45  1  0  0  0  0
 17 18  1  0  0  0  0
 17 46  1  0  0  0  0
 18 19  2  0  0  0  0
 18 47  1  0  0  0  0
 19 20  1  0  0  0  0
 20 21  2  0  0  0  0
 20 28  1  0  0  0  0
 21 22  1  0  0  0  0
 22 23  2  0  0  0  0
 22 27  1  0  0  0  0
 23 24  1  0  0  0  0
 23 48  1  0  0  0  0
 24 25  2  0  0  0  0
 24 49  1  0  0  0  0
 25 26  1  0  0  0  0
 25 50  1  0  0  0  0
 26 27  2  0  0  0  0
 26 51  1  0  0  0  0
 27 52  1  0  0  0  0
 28 53  1  0  0  0  0
 28 54  1  0  0  0  0
 28 55  1  0  0  0  0
 29 30  2  0  0  0  0
 29 34  1  0  0  0  0
 30 31  1  0  0  0  0
 30 56  1  0  0  0  0
 31 32  2  0  0  0  0
 31 57  1  0  0  0  0
 32 33  1  0  0  0  0
 32 58  1  0  0  0  0
 33 34  2  0  0  0  0
 33 59  1  0  0  0  0
 34 60  1  0  0  0  0
M  CHG  4   6   1  19   1  35  -1  36  -1
M  END
>  <DRUGBANK_ID>
DB13745

>  <COMMON_NAME>
Fazadinium bromide

>  <CAS_NUMBER>
49564-56-9

>  <UNII>
8WV5538LFK

>  <SYNONYMS>
Fazadinium bromide

$$$$
