
 OpenBabel10282417143D

 15 16  0  0  0  0  0  0  0  0999 V2000
   -0.1983    0.6486    0.0513 C   0  0  0  0  0  0  0  0  0  0  0  0
   -0.2217   -0.7178    0.0554 C   0  0  0  0  0  0  0  0  0  0  0  0
   -1.5727   -1.0570    0.1667 C   0  0  0  0  0  0  0  0  0  0  0  0
   -2.3606    0.0280    0.1904 N   0  0  0  0  0  0  0  0  0  0  0  0
   -1.4898    1.0636    0.1584 N   0  0  0  0  0  0  0  0  0  0  0  0
    0.9494    1.3903   -0.0272 N   0  0  0  0  0  0  0  0  0  0  0  0
    2.1155   -0.6586   -0.1174 N   0  0  0  0  0  0  0  0  0  0  0  0
    0.9962   -1.4629   -0.0262 C   0  0  0  0  0  0  0  0  0  0  0  0
    1.0482   -2.6874   -0.0172 O   0  0  0  0  0  0  0  0  0  0  0  0
    2.1542    0.7225   -0.1230 C   0  0  0  0  0  0  0  0  0  0  0  0
    3.2172    1.3309   -0.2097 O   0  0  0  0  0  0  0  0  0  0  0  0
   -2.0092   -2.0457    0.2361 H   0  0  0  0  0  0  0  0  0  0  0  0
   -1.8598    2.0047    0.2400 H   0  0  0  0  0  0  0  0  0  0  0  0
    0.9671    2.4028   -0.0290 H   0  0  0  0  0  0  0  0  0  0  0  0
    3.0004   -1.1347   -0.1881 H   0  0  0  0  0  0  0  0  0  0  0  0
  1  6  1  0  0  0  0
  2  1  2  0  0  0  0
  3  2  1  0  0  0  0
  3  4  2  0  0  0  0
  3 12  1  0  0  0  0
  4  5  1  0  0  0  0
  5  1  1  0  0  0  0
  5 13  1  0  0  0  0
  6 10  1  0  0  0  0
  6 14  1  0  0  0  0
  7 15  1  0  0  0  0
  8  2  1  0  0  0  0
  8  7  1  0  0  0  0
  8  9  2  0  0  0  0
 10  7  1  0  0  0  0
 10 11  2  0  0  0  0
M  END
>  <DRUGBANK_ID>
DB05262

>  <COMMON_NAME>
Oxypurinol

>  <CAS_NUMBER>
2465-59-0

>  <UNII>
G97OZE5068

>  <SYNONYMS>
1H-Pyrazolo[3,4-d]pyrimidine-4,6(5H,7H)-dione; Alloxanthine; DHPP; Ossipurinolo; Oxipurinol; Oxipurinolum; Oxoallopurinol; Oxypurinol

$$$$
