
 OpenBabel10282417173D

 38 40  0  0  0  0  0  0  0  0999 V2000
    1.0444    0.0935    0.1136 O   0  0  0  0  0  0  0  0  0  0  0  0
   -4.2032   -2.8710    1.0038 O   0  0  0  0  0  0  0  0  0  0  0  0
    2.9586    0.4147   -0.9942 O   0  0  0  0  0  0  0  0  0  0  0  0
   -2.0031   -2.4841    1.6948 N   0  0  0  0  0  0  0  0  0  0  0  0
   -2.5826   -4.0651    0.0486 N   0  0  0  0  0  0  0  0  0  0  0  0
   -0.6246   -2.8334    1.6724 C   0  0  0  0  0  0  0  0  0  0  0  0
   -2.3505   -1.4408    2.5960 C   0  0  0  0  0  0  0  0  0  0  0  0
    0.3875   -1.9134    1.3771 C   0  0  0  0  0  0  0  0  0  0  0  0
   -1.9921   -0.1160    2.3088 C   0  0  0  0  0  0  0  0  0  0  0  0
    0.2566   -0.3892    1.2417 C   0  0  2  0  0  0  0  0  0  0  0  0
   -1.1846    0.1570    1.0652 C   0  0  0  0  0  0  0  0  0  0  0  0
   -2.9900   -3.1282    0.9525 C   0  0  0  0  0  0  0  0  0  0  0  0
   -0.2838   -4.1998    1.8658 C   0  0  0  0  0  0  0  0  0  0  0  0
    1.6541   -2.4895    1.1767 C   0  0  0  0  0  0  0  0  0  0  0  0
   -3.0078   -1.7428    3.7955 C   0  0  0  0  0  0  0  0  0  0  0  0
   -2.3395    0.9044    3.2089 C   0  0  0  0  0  0  0  0  0  0  0  0
    1.0336   -4.6576    1.8346 C   0  0  0  0  0  0  0  0  0  0  0  0
    2.0262   -3.7737    1.5220 C   0  0  0  0  0  0  0  0  0  0  0  0
   -3.3167   -0.7268    4.7029 C   0  0  0  0  0  0  0  0  0  0  0  0
   -2.9977    0.5968    4.4027 C   0  0  0  0  0  0  0  0  0  0  0  0
    2.3945    0.2270    0.0849 C   0  0  0  0  0  0  0  0  0  0  0  0
    3.2135    0.1009    1.3613 C   0  0  0  0  0  0  0  0  0  0  0  0
   -1.6126   -4.2336   -0.1784 H   0  0  0  0  0  0  0  0  0  0  0  0
   -3.2829   -4.4677   -0.5574 H   0  0  0  0  0  0  0  0  0  0  0  0
    0.6617    0.0869    2.1449 H   0  0  0  0  0  0  0  0  0  0  0  0
   -1.6813   -0.2861    0.1907 H   0  0  0  0  0  0  0  0  0  0  0  0
   -1.1724    1.2360    0.8557 H   0  0  0  0  0  0  0  0  0  0  0  0
   -1.0632   -4.9348    2.0497 H   0  0  0  0  0  0  0  0  0  0  0  0
    2.4228   -1.9802    0.6265 H   0  0  0  0  0  0  0  0  0  0  0  0
   -3.2502   -2.7727    4.0432 H   0  0  0  0  0  0  0  0  0  0  0  0
   -2.0935    1.9428    2.9977 H   0  0  0  0  0  0  0  0  0  0  0  0
    1.2823   -5.7022    1.9780 H   0  0  0  0  0  0  0  0  0  0  0  0
    3.0732   -4.0543    1.4521 H   0  0  0  0  0  0  0  0  0  0  0  0
   -3.8074   -0.9678    5.6430 H   0  0  0  0  0  0  0  0  0  0  0  0
   -3.2567    1.3875    5.1043 H   0  0  0  0  0  0  0  0  0  0  0  0
    2.9420    0.8655    2.0806 H   0  0  0  0  0  0  0  0  0  0  0  0
    3.1963   -0.8560    1.8841 H   0  0  0  0  0  0  0  0  0  0  0  0
    4.2686    0.1940    1.0780 H   0  0  0  0  0  0  0  0  0  0  0  0
  1 21  1  0  0  0  0
  2 12  2  0  0  0  0
  3 21  2  0  0  0  0
  4  6  1  0  0  0  0
  4  7  1  0  0  0  0
  4 12  1  0  0  0  0
  5 12  1  0  0  0  0
  5 23  1  0  0  0  0
  5 24  1  0  0  0  0
  6  8  1  0  0  0  0
  6 13  2  0  0  0  0
  7  9  1  0  0  0  0
  7 15  2  0  0  0  0
  8 10  1  0  0  0  0
  8 14  2  0  0  0  0
  9 11  1  0  0  0  0
  9 16  2  0  0  0  0
 10  1  1  0  0  0  0
 10 11  1  0  0  0  0
 10 25  1  1  0  0  0
 11 26  1  0  0  0  0
 11 27  1  0  0  0  0
 13 17  1  0  0  0  0
 13 28  1  0  0  0  0
 14 18  1  0  0  0  0
 14 29  1  0  0  0  0
 15 19  1  0  0  0  0
 15 30  1  0  0  0  0
 16 20  1  0  0  0  0
 16 31  1  0  0  0  0
 17 18  2  0  0  0  0
 17 32  1  0  0  0  0
 18 33  1  0  0  0  0
 19 20  2  0  0  0  0
 19 34  1  0  0  0  0
 20 35  1  0  0  0  0
 21 22  1  0  0  0  0
 22 36  1  0  0  0  0
 22 37  1  0  0  0  0
 22 38  1  0  0  0  0
M  END
>  <DRUGBANK_ID>
DB09119

>  <COMMON_NAME>
Eslicarbazepine acetate

>  <CAS_NUMBER>
236395-14-5

>  <UNII>
BEA68ZVB2K

>  <SYNONYMS>
(10S)-10-acetoxy-10,11-dihydro-5H-dibenz[b,f]azepine-5-carboxamide; (10S)-5-carbamoyl-10,11-dihydro-5H-dibenzo[b,f]azepin-10-yl acetate; ESL; Eslicarbazepine acetate

$$$$
