636
 OpenBabel10282417103D

 31 31  0  0  0  0  0  0  0  0999 V2000
   -2.2020   -0.1218    0.0104 Cl  0  0  0  0  0  0  0  0  0  0  0  0
    3.6418    0.1427   -0.2133 O   0  0  0  0  0  0  0  0  0  0  0  0
    6.4414   -0.3100    0.1642 O   0  0  0  0  0  0  0  0  0  0  0  0
    6.8343    1.8773    0.0863 O   0  0  0  0  0  0  0  0  0  0  0  0
    4.4710    1.2939   -0.0255 C   0  0  0  0  0  0  0  0  0  0  0  0
    4.3182    2.1486   -1.2908 C   0  0  0  0  0  0  0  0  0  0  0  0
    4.2031    2.0582    1.2982 C   0  0  0  0  0  0  0  0  0  0  0  0
    5.9966    0.9624    0.0632 C   0  0  0  0  0  0  0  0  0  0  0  0
    2.2895    0.1365   -0.0976 C   0  0  0  0  0  0  0  0  0  0  0  0
    5.6100   -1.4816    0.1857 C   0  0  0  0  0  0  0  0  0  0  0  0
    1.5049    1.2784   -0.0486 C   0  0  0  0  0  0  0  0  0  0  0  0
    1.6701   -1.1197   -0.0682 C   0  0  0  0  0  0  0  0  0  0  0  0
    0.1243    1.1966   -0.0025 C   0  0  0  0  0  0  0  0  0  0  0  0
    0.2763   -1.2111   -0.0186 C   0  0  0  0  0  0  0  0  0  0  0  0
    4.8218   -1.5752    1.4855 C   0  0  0  0  0  0  0  0  0  0  0  0
   -0.4884   -0.0464    0.0020 C   0  0  0  0  0  0  0  0  0  0  0  0
    3.2856    2.4242   -1.5043 H   0  0  0  0  0  0  0  0  0  0  0  0
    4.8989    3.0715   -1.2444 H   0  0  0  0  0  0  0  0  0  0  0  0
    4.6359    1.5662   -2.1643 H   0  0  0  0  0  0  0  0  0  0  0  0
    4.4937    1.4608    2.1711 H   0  0  0  0  0  0  0  0  0  0  0  0
    4.7752    2.9910    1.3400 H   0  0  0  0  0  0  0  0  0  0  0  0
    3.1642    2.3250    1.4823 H   0  0  0  0  0  0  0  0  0  0  0  0
    5.0163   -1.5236   -0.7345 H   0  0  0  0  0  0  0  0  0  0  0  0
    6.2738   -2.3499    0.1260 H   0  0  0  0  0  0  0  0  0  0  0  0
    1.9234    2.2735   -0.0642 H   0  0  0  0  0  0  0  0  0  0  0  0
    2.2588   -2.0356   -0.0901 H   0  0  0  0  0  0  0  0  0  0  0  0
   -0.4438    2.1202    0.0080 H   0  0  0  0  0  0  0  0  0  0  0  0
   -0.2048   -2.1851   -0.0137 H   0  0  0  0  0  0  0  0  0  0  0  0
    4.2688   -0.6714    1.7409 H   0  0  0  0  0  0  0  0  0  0  0  0
    4.1021   -2.3944    1.4395 H   0  0  0  0  0  0  0  0  0  0  0  0
    5.4939   -1.7062    2.3337 H   0  0  0  0  0  0  0  0  0  0  0  0
  1 16  1  0  0  0  0
  2  5  1  0  0  0  0
  2  9  1  0  0  0  0
  3  8  1  0  0  0  0
  3 10  1  0  0  0  0
  4  8  2  0  0  0  0
  5  6  1  0  0  0  0
  5  7  1  0  0  0  0
  5  8  1  0  0  0  0
  6 17  1  0  0  0  0
  6 18  1  0  0  0  0
  6 19  1  0  0  0  0
  7 20  1  0  0  0  0
  7 21  1  0  0  0  0
  7 22  1  0  0  0  0
  9 11  2  0  0  0  0
  9 12  1  0  0  0  0
 10 15  1  0  0  0  0
 10 23  1  0  0  0  0
 10 24  1  0  0  0  0
 11 13  1  0  0  0  0
 11 25  1  0  0  0  0
 12 14  2  0  0  0  0
 12 26  1  0  0  0  0
 13 16  2  0  0  0  0
 13 27  1  0  0  0  0
 14 16  1  0  0  0  0
 14 28  1  0  0  0  0
 15 29  1  0  0  0  0
 15 30  1  0  0  0  0
 15 31  1  0  0  0  0
M  END
>  <DRUGBANK_ID>
DB00636

>  <SECONDARY_ACCESSION_NUMBERS>
APRD00879

>  <COMMON_NAME>
Clofibrate

>  <CAS_NUMBER>
637-07-0

>  <UNII>
HPN91K7FU3

>  <SYNONYMS>
2-(4-Chlorophenoxy)-2-methylpropanoic acid ethyl ester; 2-(p-Chlorophenoxy)-2-methylpropionic acid ethyl ester; alpha-(p-Chlorophenoxy)isobutyric acid, ethyl ester; alpha-p-Chlorophenoxyisobutyryl ethyl ester; Clofibrate; Clofibrato; Clofibratum; EPIB; Ethyl 2-(p-chlorophenoxy)isobutyrate; Ethyl chlorophenoxyisobutyrate; Ethyl clofibrate; Liprin

$$$$
