
 OpenBabel10282417243D

 50 53  0  0  1  0  0  0  0  0999 V2000
    0.8978   -0.0532    0.0081 O   0  0  0  0  0  0  0  0  0  0  0  0
    0.4774    1.3045   -0.3387 C   0  0  1  0  0  0  0  0  0  0  0  0
    1.0588    2.2427    0.7564 C   0  0  0  0  0  0  0  0  0  0  0  0
    2.5052    2.3010    0.7654 N   0  0  0  0  0  0  0  0  0  0  0  0
    3.2976    3.4015    0.6931 C   0  0  0  0  0  0  0  0  0  0  0  0
    4.5490    2.9994    0.6418 N   0  0  0  0  0  0  0  0  0  0  0  0
    4.5055    1.6260    0.6752 N   0  0  0  0  0  0  0  0  0  0  0  0
    3.2555    1.1899    0.7510 N   0  0  0  0  0  0  0  0  0  0  0  0
    0.9892    1.6126   -1.7590 C   0  0  0  0  0  0  0  0  0  0  0  0
    1.3538    0.5804   -2.6431 C   0  0  0  0  0  0  0  0  0  0  0  0
    1.7432    0.8699   -3.9542 C   0  0  0  0  0  0  0  0  0  0  0  0
    1.7344    2.1819   -4.4116 C   0  0  0  0  0  0  0  0  0  0  0  0
    2.0747    2.4531   -5.6749 F   0  0  0  0  0  0  0  0  0  0  0  0
    1.3978    3.2201   -3.5652 C   0  0  0  0  0  0  0  0  0  0  0  0
    1.0803    2.9268   -2.2510 C   0  0  0  0  0  0  0  0  0  0  0  0
    0.9077    3.9766   -1.4414 F   0  0  0  0  0  0  0  0  0  0  0  0
   -1.1143    1.3072   -0.2968 C   0  0  0  0  0  0  0  0  0  0  0  0
   -1.5647    0.3175   -1.1386 F   0  0  0  0  0  0  0  0  0  0  0  0
   -1.5160    0.9067    0.9513 F   0  0  0  0  0  0  0  0  0  0  0  0
   -1.7278    2.6539   -0.6529 C   0  0  0  0  0  0  0  0  0  0  0  0
   -2.6942    2.7774   -1.6446 C   0  0  0  0  0  0  0  0  0  0  0  0
   -3.0430    4.0568   -2.0816 C   0  0  0  0  0  0  0  0  0  0  0  0
   -2.3899    5.1769   -1.5599 C   0  0  0  0  0  0  0  0  0  0  0  0
   -1.4973    4.9569   -0.5277 C   0  0  0  0  0  0  0  0  0  0  0  0
   -1.2165    3.7410   -0.0282 N   0  0  0  0  0  0  0  0  0  0  0  0
   -2.6602    6.5387   -1.9904 C   0  0  0  0  0  0  0  0  0  0  0  0
   -3.9177    7.0918   -1.7424 C   0  0  0  0  0  0  0  0  0  0  0  0
   -4.1781    8.4258   -2.0392 C   0  0  0  0  0  0  0  0  0  0  0  0
   -3.1832    9.2336   -2.5901 C   0  0  0  0  0  0  0  0  0  0  0  0
   -3.3371   10.5390   -2.9618 O   0  0  0  0  0  0  0  0  0  0  0  0
   -4.6534   11.0662   -2.8933 C   0  0  0  0  0  0  0  0  0  0  0  0
   -5.5241   10.3191   -3.6079 F   0  0  0  0  0  0  0  0  0  0  0  0
   -5.0716   11.1395   -1.6109 F   0  0  0  0  0  0  0  0  0  0  0  0
   -4.6541   12.3140   -3.4087 F   0  0  0  0  0  0  0  0  0  0  0  0
   -1.9103    8.6988   -2.8064 C   0  0  0  0  0  0  0  0  0  0  0  0
   -1.6566    7.3520   -2.5377 C   0  0  0  0  0  0  0  0  0  0  0  0
    1.8738   -0.0487    0.1012 H   0  0  0  0  0  0  0  0  0  0  0  0
    0.7695    3.2837    0.6491 H   0  0  0  0  0  0  0  0  0  0  0  0
    0.7473    1.9266    1.7577 H   0  0  0  0  0  0  0  0  0  0  0  0
    2.9374    4.4171    0.6652 H   0  0  0  0  0  0  0  0  0  0  0  0
    1.3481   -0.4606   -2.3207 H   0  0  0  0  0  0  0  0  0  0  0  0
    2.0487    0.0737   -4.6271 H   0  0  0  0  0  0  0  0  0  0  0  0
    1.4012    4.2472   -3.9086 H   0  0  0  0  0  0  0  0  0  0  0  0
   -3.1490    1.9003   -2.0968 H   0  0  0  0  0  0  0  0  0  0  0  0
   -3.8010    4.1736   -2.8527 H   0  0  0  0  0  0  0  0  0  0  0  0
   -0.9301    5.7719   -0.0832 H   0  0  0  0  0  0  0  0  0  0  0  0
   -4.6992    6.4877   -1.2850 H   0  0  0  0  0  0  0  0  0  0  0  0
   -5.1732    8.7930   -1.8102 H   0  0  0  0  0  0  0  0  0  0  0  0
   -1.1075    9.3290   -3.1842 H   0  0  0  0  0  0  0  0  0  0  0  0
   -0.6680    6.9462   -2.7482 H   0  0  0  0  0  0  0  0  0  0  0  0
  1 37  1  0  0  0  0
  2  1  1  1  0  0  0
  2  3  1  0  0  0  0
  2  9  1  0  0  0  0
  2 17  1  0  0  0  0
  3  4  1  0  0  0  0
  3 38  1  0  0  0  0
  3 39  1  0  0  0  0
  4  5  1  0  0  0  0
  4  8  1  0  0  0  0
  5  6  2  0  0  0  0
  5 40  1  0  0  0  0
  6  7  1  0  0  0  0
  7  8  2  0  0  0  0
  9 10  2  0  0  0  0
  9 15  1  0  0  0  0
 10 11  1  0  0  0  0
 10 41  1  0  0  0  0
 11 12  2  0  0  0  0
 11 42  1  0  0  0  0
 12 13  1  0  0  0  0
 12 14  1  0  0  0  0
 14 15  2  0  0  0  0
 14 43  1  0  0  0  0
 15 16  1  0  0  0  0
 17 18  1  0  0  0  0
 17 19  1  0  0  0  0
 17 20  1  0  0  0  0
 20 21  2  0  0  0  0
 20 25  1  0  0  0  0
 21 22  1  0  0  0  0
 21 44  1  0  0  0  0
 22 23  2  0  0  0  0
 22 45  1  0  0  0  0
 23 24  1  0  0  0  0
 23 26  1  0  0  0  0
 24 25  2  0  0  0  0
 24 46  1  0  0  0  0
 26 27  2  0  0  0  0
 26 36  1  0  0  0  0
 27 28  1  0  0  0  0
 27 47  1  0  0  0  0
 28 29  2  0  0  0  0
 28 48  1  0  0  0  0
 29 30  1  0  0  0  0
 29 35  1  0  0  0  0
 30 31  1  0  0  0  0
 31 32  1  0  0  0  0
 31 33  1  0  0  0  0
 31 34  1  0  0  0  0
 35 36  2  0  0  0  0
 35 49  1  0  0  0  0
 36 50  1  0  0  0  0
M  END
>  <DRUGBANK_ID>
DB17758

>  <COMMON_NAME>
Quilseconazole

>  <CAS_NUMBER>
1340593-70-5

>  <UNII>
7WJ1XH4Z6A

>  <SYNONYMS>
2-pyridineethanol, .alpha.-(2,4-difluorophenyl)-.beta.,.beta.-difluoro-.alpha.-(1h-tetrazol-1-ylmethyl)-5-(4-(trifluoromethoxy)phenyl)-, (.alpha.r)-

$$$$
