
 OpenBabel10282417243D

115123  0  0  0  0  0  0  0  0999 V2000
    3.4228   -2.3587   -0.0177 O   0  0  0  0  0  0  0  0  0  0  0  0
    2.8534   -1.2686   -0.0122 C   0  0  0  0  0  0  0  0  0  0  0  0
    3.4878   -0.0519    0.0449 N   0  0  0  0  0  0  0  0  0  0  0  0
    4.9453   -0.0407    0.1201 C   0  0  0  0  0  0  0  0  0  0  0  0
    5.5568    0.6075   -1.1239 C   0  0  0  0  0  0  0  0  0  0  0  0
    5.2323    2.0947   -1.2144 C   0  0  0  0  0  0  0  0  0  0  0  0
    5.7001    2.7901    0.0017 N   0  0  0  0  0  0  0  0  0  0  0  0
    5.2730    4.1924    0.0557 C   0  0  0  0  0  0  0  0  0  0  0  0
    5.8562    4.9777   -1.1218 C   0  0  0  0  0  0  0  0  0  0  0  0
    7.2919    4.9104   -1.1094 O   0  0  0  0  0  0  0  0  0  0  0  0
    7.7574    3.5513   -1.0407 C   0  0  0  0  0  0  0  0  0  0  0  0
    7.1494    2.8000    0.1458 C   0  0  0  0  0  0  0  0  0  0  0  0
    2.8132    1.1375    0.3526 C   0  0  0  0  0  0  0  0  0  0  0  0
    3.3014    2.0748    0.9169 O   0  0  0  0  0  0  0  0  0  0  0  0
    1.3708    1.2140    0.0763 C   0  0  0  0  0  0  0  0  0  0  0  0
    0.6895    2.4558    0.0805 C   0  0  0  0  0  0  0  0  0  0  0  0
   -0.7011    2.4636    0.0489 C   0  0  0  0  0  0  0  0  0  0  0  0
   -1.3919    1.2739    0.0104 C   0  0  0  0  0  0  0  0  0  0  0  0
   -0.7099    0.0485    0.0068 C   0  0  0  0  0  0  0  0  0  0  0  0
   -1.3964   -1.1491    0.1003 C   0  0  0  0  0  0  0  0  0  0  0  0
   -0.6928   -2.3880   -0.0150 C   0  0  0  0  0  0  0  0  0  0  0  0
   -1.2184   -3.6593   -0.0341 N   0  0  0  0  0  0  0  0  0  0  0  0
   -2.6041   -3.8153   -0.2953 C   0  0  0  0  0  0  0  0  0  0  0  0
   -2.8962   -4.5634   -1.5955 C   0  0  0  0  0  0  0  0  0  0  0  0
   -2.6549   -5.9485   -1.3984 N   0  0  0  0  0  0  0  0  0  0  0  0
   -2.7439   -6.9289   -2.4317 C   0  0  0  0  0  0  0  0  0  0  0  0
   -3.1546   -8.1492   -1.6241 C   0  0  0  0  0  0  0  0  0  0  0  0
   -2.4941   -7.9628   -0.2674 C   0  0  0  0  0  0  0  0  0  0  0  0
   -2.4662   -6.4815   -0.0727 C   0  0  0  0  0  0  0  0  0  0  0  0
    0.6952   -2.3931   -0.0616 C   0  0  0  0  0  0  0  0  0  0  0  0
    1.3836   -1.2077   -0.0275 C   0  0  0  0  0  0  0  0  0  0  0  0
    0.6945    0.0112   -0.0069 C   0  0  0  0  0  0  0  0  0  0  0  0
   -2.8426   -0.9577    0.4724 C   0  0  0  0  0  0  0  0  0  0  0  0
   -3.3701   -1.6795    1.3096 O   0  0  0  0  0  0  0  0  0  0  0  0
   -3.4915    0.1203   -0.1177 N   0  0  0  0  0  0  0  0  0  0  0  0
   -4.9530    0.1115   -0.1882 C   0  0  0  0  0  0  0  0  0  0  0  0
   -5.4313   -0.5979   -1.4610 C   0  0  0  0  0  0  0  0  0  0  0  0
   -5.1273   -2.0984   -1.4457 C   0  0  0  0  0  0  0  0  0  0  0  0
   -5.6890   -2.8089   -0.2582 N   0  0  0  0  0  0  0  0  0  0  0  0
   -5.6792   -4.2978   -0.2605 C   0  0  0  0  0  0  0  0  0  0  0  0
   -6.3329   -4.8685   -1.5198 C   0  0  0  0  0  0  0  0  0  0  0  0
   -7.7115   -4.4816   -1.5371 O   0  0  0  0  0  0  0  0  0  0  0  0
   -7.8389   -3.0516   -1.4058 C   0  0  0  0  0  0  0  0  0  0  0  0
   -7.1306   -2.5175   -0.1459 C   0  0  0  0  0  0  0  0  0  0  0  0
   -2.8633    1.3391   -0.0702 C   0  0  0  0  0  0  0  0  0  0  0  0
   -3.4307    2.4260   -0.0552 O   0  0  0  0  0  0  0  0  0  0  0  0
    1.3239    3.7683    0.0841 C   0  0  0  0  0  0  0  0  0  0  0  0
    2.0601    4.2052   -1.0212 C   0  0  0  0  0  0  0  0  0  0  0  0
    2.6396    5.4765   -1.0238 C   0  0  0  0  0  0  0  0  0  0  0  0
    2.5252    6.3117    0.0996 C   0  0  0  0  0  0  0  0  0  0  0  0
    3.3275    7.5873    0.2329 C   0  0  0  0  0  0  0  0  0  0  0  0
    2.6044    8.8350    0.0185 N   0  0  0  0  0  0  0  0  0  0  0  0
    1.4411    9.1453    0.8492 C   0  0  0  0  0  0  0  0  0  0  0  0
    0.2297    8.8942   -0.0302 C   0  0  0  0  0  0  0  0  0  0  0  0
    0.7321    9.2652   -1.4118 C   0  0  0  0  0  0  0  0  0  0  0  0
    2.2197    8.9762   -1.3847 C   0  0  0  0  0  0  0  0  0  0  0  0
    1.7316    5.8918    1.1686 C   0  0  0  0  0  0  0  0  0  0  0  0
    1.1596    4.6278    1.1759 C   0  0  0  0  0  0  0  0  0  0  0  0
    5.2455    0.4734    1.0399 H   0  0  0  0  0  0  0  0  0  0  0  0
    5.3444   -1.0579    0.1971 H   0  0  0  0  0  0  0  0  0  0  0  0
    6.6433    0.4691   -1.1138 H   0  0  0  0  0  0  0  0  0  0  0  0
    5.2030    0.1074   -2.0320 H   0  0  0  0  0  0  0  0  0  0  0  0
    5.6426    2.4911   -2.1453 H   0  0  0  0  0  0  0  0  0  0  0  0
    4.1566    2.2140   -1.3768 H   0  0  0  0  0  0  0  0  0  0  0  0
    5.5677    4.6641    1.0034 H   0  0  0  0  0  0  0  0  0  0  0  0
    4.2007    4.1999    0.1006 H   0  0  0  0  0  0  0  0  0  0  0  0
    5.4787    4.6023   -2.0815 H   0  0  0  0  0  0  0  0  0  0  0  0
    5.5714    6.0296   -1.0761 H   0  0  0  0  0  0  0  0  0  0  0  0
    8.8413    3.5530   -0.9527 H   0  0  0  0  0  0  0  0  0  0  0  0
    7.5239    3.0592   -1.9905 H   0  0  0  0  0  0  0  0  0  0  0  0
    7.3984    3.2900    1.0967 H   0  0  0  0  0  0  0  0  0  0  0  0
    7.5273    1.7802    0.2395 H   0  0  0  0  0  0  0  0  0  0  0  0
   -1.2438    3.4085    0.0660 H   0  0  0  0  0  0  0  0  0  0  0  0
   -0.6358   -4.4511   -0.2864 H   0  0  0  0  0  0  0  0  0  0  0  0
   -3.0610   -4.1692    0.6332 H   0  0  0  0  0  0  0  0  0  0  0  0
   -3.0361   -2.8775   -0.4643 H   0  0  0  0  0  0  0  0  0  0  0  0
   -3.9329   -4.4364   -1.8802 H   0  0  0  0  0  0  0  0  0  0  0  0
   -2.3851   -4.0962   -2.4440 H   0  0  0  0  0  0  0  0  0  0  0  0
   -1.7487   -7.0428   -2.8700 H   0  0  0  0  0  0  0  0  0  0  0  0
   -3.4606   -6.7087   -3.2319 H   0  0  0  0  0  0  0  0  0  0  0  0
   -4.2455   -8.1573   -1.4977 H   0  0  0  0  0  0  0  0  0  0  0  0
   -2.8423   -9.0827   -2.0909 H   0  0  0  0  0  0  0  0  0  0  0  0
   -3.0381   -8.4406    0.5509 H   0  0  0  0  0  0  0  0  0  0  0  0
   -1.4614   -8.3210   -0.2779 H   0  0  0  0  0  0  0  0  0  0  0  0
   -3.2497   -6.1929    0.6370 H   0  0  0  0  0  0  0  0  0  0  0  0
   -1.4980   -6.1788    0.3290 H   0  0  0  0  0  0  0  0  0  0  0  0
    1.2357   -3.3406   -0.0915 H   0  0  0  0  0  0  0  0  0  0  0  0
   -5.3510   -0.3608    0.7153 H   0  0  0  0  0  0  0  0  0  0  0  0
   -5.3592    1.1289   -0.2049 H   0  0  0  0  0  0  0  0  0  0  0  0
   -6.5030   -0.4411   -1.6124 H   0  0  0  0  0  0  0  0  0  0  0  0
   -4.9449   -0.1554   -2.3393 H   0  0  0  0  0  0  0  0  0  0  0  0
   -5.4203   -2.5377   -2.3995 H   0  0  0  0  0  0  0  0  0  0  0  0
   -4.0513   -2.1199   -1.5538 H   0  0  0  0  0  0  0  0  0  0  0  0
   -6.2010   -4.6721    0.6338 H   0  0  0  0  0  0  0  0  0  0  0  0
   -4.7161   -4.7357   -0.0888 H   0  0  0  0  0  0  0  0  0  0  0  0
   -5.8655   -4.5158   -2.4463 H   0  0  0  0  0  0  0  0  0  0  0  0
   -6.2306   -5.9583   -1.5425 H   0  0  0  0  0  0  0  0  0  0  0  0
   -8.8935   -2.7954   -1.3678 H   0  0  0  0  0  0  0  0  0  0  0  0
   -7.4397   -2.5910   -2.3176 H   0  0  0  0  0  0  0  0  0  0  0  0
   -7.5169   -2.9946    0.7637 H   0  0  0  0  0  0  0  0  0  0  0  0
   -7.2990   -1.4513    0.0136 H   0  0  0  0  0  0  0  0  0  0  0  0
    2.2909    3.5112   -1.8264 H   0  0  0  0  0  0  0  0  0  0  0  0
    3.3037    5.7350   -1.8454 H   0  0  0  0  0  0  0  0  0  0  0  0
    3.8586    7.5904    1.1947 H   0  0  0  0  0  0  0  0  0  0  0  0
    4.1459    7.5649   -0.5004 H   0  0  0  0  0  0  0  0  0  0  0  0
    1.4815   10.2176    1.0789 H   0  0  0  0  0  0  0  0  0  0  0  0
    1.3823    8.6467    1.8216 H   0  0  0  0  0  0  0  0  0  0  0  0
   -0.0748    7.8422    0.0022 H   0  0  0  0  0  0  0  0  0  0  0  0
   -0.6350    9.5008    0.2579 H   0  0  0  0  0  0  0  0  0  0  0  0
    0.2213    8.6972   -2.1948 H   0  0  0  0  0  0  0  0  0  0  0  0
    0.5772   10.3325   -1.5972 H   0  0  0  0  0  0  0  0  0  0  0  0
    2.4285    8.0845   -1.9860 H   0  0  0  0  0  0  0  0  0  0  0  0
    2.8022    9.7908   -1.8219 H   0  0  0  0  0  0  0  0  0  0  0  0
    1.5742    6.5403    2.0224 H   0  0  0  0  0  0  0  0  0  0  0  0
    0.6183    4.3052    2.0623 H   0  0  0  0  0  0  0  0  0  0  0  0
  1  2  2  0  0  0  0
  2  3  1  0  0  0  0
  2 31  1  0  0  0  0
  3  4  1  0  0  0  0
  3 13  1  0  0  0  0
  4  5  1  0  0  0  0
  4 59  1  0  0  0  0
  4 60  1  0  0  0  0
  5  6  1  0  0  0  0
  5 61  1  0  0  0  0
  5 62  1  0  0  0  0
  6  7  1  0  0  0  0
  6 63  1  0  0  0  0
  6 64  1  0  0  0  0
  7  8  1  0  0  0  0
  7 12  1  0  0  0  0
  8  9  1  0  0  0  0
  8 65  1  0  0  0  0
  8 66  1  0  0  0  0
  9 10  1  0  0  0  0
  9 67  1  0  0  0  0
  9 68  1  0  0  0  0
 10 11  1  0  0  0  0
 11 12  1  0  0  0  0
 11 69  1  0  0  0  0
 11 70  1  0  0  0  0
 12 71  1  0  0  0  0
 12 72  1  0  0  0  0
 13 14  2  0  0  0  0
 13 15  1  0  0  0  0
 15 16  1  0  0  0  0
 15 32  2  0  0  0  0
 16 17  2  0  0  0  0
 16 47  1  0  0  0  0
 17 18  1  0  0  0  0
 17 73  1  0  0  0  0
 18 19  2  0  0  0  0
 18 45  1  0  0  0  0
 19 20  1  0  0  0  0
 19 32  1  0  0  0  0
 20 21  2  0  0  0  0
 20 33  1  0  0  0  0
 21 22  1  0  0  0  0
 21 30  1  0  0  0  0
 22 23  1  0  0  0  0
 22 74  1  0  0  0  0
 23 24  1  0  0  0  0
 23 75  1  0  0  0  0
 23 76  1  0  0  0  0
 24 25  1  0  0  0  0
 24 77  1  0  0  0  0
 24 78  1  0  0  0  0
 25 26  1  0  0  0  0
 25 29  1  0  0  0  0
 26 27  1  0  0  0  0
 26 79  1  0  0  0  0
 26 80  1  0  0  0  0
 27 28  1  0  0  0  0
 27 81  1  0  0  0  0
 27 82  1  0  0  0  0
 28 29  1  0  0  0  0
 28 83  1  0  0  0  0
 28 84  1  0  0  0  0
 29 85  1  0  0  0  0
 29 86  1  0  0  0  0
 30 31  2  0  0  0  0
 30 87  1  0  0  0  0
 31 32  1  0  0  0  0
 33 34  2  0  0  0  0
 33 35  1  0  0  0  0
 35 36  1  0  0  0  0
 35 45  1  0  0  0  0
 36 37  1  0  0  0  0
 36 88  1  0  0  0  0
 36 89  1  0  0  0  0
 37 38  1  0  0  0  0
 37 90  1  0  0  0  0
 37 91  1  0  0  0  0
 38 39  1  0  0  0  0
 38 92  1  0  0  0  0
 38 93  1  0  0  0  0
 39 40  1  0  0  0  0
 39 44  1  0  0  0  0
 40 41  1  0  0  0  0
 40 94  1  0  0  0  0
 40 95  1  0  0  0  0
 41 42  1  0  0  0  0
 41 96  1  0  0  0  0
 41 97  1  0  0  0  0
 42 43  1  0  0  0  0
 43 44  1  0  0  0  0
 43 98  1  0  0  0  0
 43 99  1  0  0  0  0
 44100  1  0  0  0  0
 44101  1  0  0  0  0
 45 46  2  0  0  0  0
 47 48  2  0  0  0  0
 47 58  1  0  0  0  0
 48 49  1  0  0  0  0
 48102  1  0  0  0  0
 49 50  2  0  0  0  0
 49103  1  0  0  0  0
 50 51  1  0  0  0  0
 50 57  1  0  0  0  0
 51 52  1  0  0  0  0
 51104  1  0  0  0  0
 51105  1  0  0  0  0
 52 53  1  0  0  0  0
 52 56  1  0  0  0  0
 53 54  1  0  0  0  0
 53106  1  0  0  0  0
 53107  1  0  0  0  0
 54 55  1  0  0  0  0
 54108  1  0  0  0  0
 54109  1  0  0  0  0
 55 56  1  0  0  0  0
 55110  1  0  0  0  0
 55111  1  0  0  0  0
 56112  1  0  0  0  0
 56113  1  0  0  0  0
 57 58  2  0  0  0  0
 57114  1  0  0  0  0
 58115  1  0  0  0  0
M  END
>  <DRUGBANK_ID>
DB18156

>  <COMMON_NAME>
QN-302

>  <CAS_NUMBER>
2546091-70-5

>  <UNII>
86Y5JME9KT

>  <SYNONYMS>
2,7-bis(3-morpholinopropyl)-4-((2-(pyrrolidin-1-yl)ethyl)amino)-9-(4-(pyrrolidin-1-ylmethyl)phenyl)benzo[lmn][3,8]phenanthroline-1,3,6,8(2H,7H)-tetraone

$$$$
