1425
 OpenBabel10282417113D

 44 46  0  0  1  0  0  0  0  0999 V2000
    1.3145   -0.2054    0.7136 O   0  0  0  0  0  0  0  0  0  0  0  0
    1.4761   -0.8201   -2.6165 O   0  0  0  0  0  0  0  0  0  0  0  0
    4.3193    3.6407    0.4630 N   0  0  0  0  0  0  0  0  0  0  0  0
    3.1838    0.9795    0.4759 N   0  0  0  0  0  0  0  0  0  0  0  0
    6.0172   -3.2751   -0.7595 N   0  0  0  0  0  0  0  0  0  0  0  0
    5.2416   -3.7782   -2.8710 N   0  0  0  0  0  0  0  0  0  0  0  0
    6.1607   -3.9414   -1.9096 N   0  0  0  0  0  0  0  0  0  0  0  0
    5.0686    2.4674   -0.0290 C   0  0  3  0  0  0  0  0  0  0  0  0
    6.5369    2.7911    0.2152 C   0  0  0  0  0  0  0  0  0  0  0  0
    6.5879    4.2753   -0.0934 C   0  0  0  0  0  0  0  0  0  0  0  0
    5.1662    4.7977    0.1315 C   0  0  0  0  0  0  0  0  0  0  0  0
    4.6310    1.1309    0.5385 C   0  0  0  0  0  0  0  0  0  0  0  0
    3.9440    3.6210    1.8868 C   0  0  0  0  0  0  0  0  0  0  0  0
    5.0731    3.4576    2.8523 C   0  0  0  0  0  0  0  0  0  0  0  0
    2.4479   -0.1313    0.2455 C   0  0  0  0  0  0  0  0  0  0  0  0
    3.0274   -1.1550   -0.6390 C   0  0  0  0  0  0  0  0  0  0  0  0
    5.4408    4.3892    3.7304 C   0  0  0  0  0  0  0  0  0  0  0  0
    2.5412   -1.4081   -1.9639 C   0  0  0  0  0  0  0  0  0  0  0  0
    4.1687   -1.7882   -0.0855 C   0  0  0  0  0  0  0  0  0  0  0  0
    4.8598   -2.6282   -0.9574 C   0  0  0  0  0  0  0  0  0  0  0  0
    3.2020   -2.3355   -2.8138 C   0  0  0  0  0  0  0  0  0  0  0  0
    4.3793   -2.9178   -2.3035 C   0  0  0  0  0  0  0  0  0  0  0  0
    0.6453    0.0979   -1.9174 C   0  0  0  0  0  0  0  0  0  0  0  0
    2.6128    1.7010    0.8948 H   0  0  0  0  0  0  0  0  0  0  0  0
    6.9549   -4.5625   -2.0465 H   0  0  0  0  0  0  0  0  0  0  0  0
    4.9209    2.4048   -1.1191 H   0  0  0  0  0  0  0  0  0  0  0  0
    6.8550    2.6150    1.2451 H   0  0  0  0  0  0  0  0  0  0  0  0
    7.2189    2.1980   -0.4008 H   0  0  0  0  0  0  0  0  0  0  0  0
    7.3115    4.7922    0.5431 H   0  0  0  0  0  0  0  0  0  0  0  0
    6.8806    4.4137   -1.1395 H   0  0  0  0  0  0  0  0  0  0  0  0
    5.1370    5.5681    0.9085 H   0  0  0  0  0  0  0  0  0  0  0  0
    4.8010    5.2748   -0.7863 H   0  0  0  0  0  0  0  0  0  0  0  0
    4.9052    0.9970    1.5896 H   0  0  0  0  0  0  0  0  0  0  0  0
    5.1530    0.3582   -0.0168 H   0  0  0  0  0  0  0  0  0  0  0  0
    3.3558    4.5212    2.0948 H   0  0  0  0  0  0  0  0  0  0  0  0
    3.2415    2.8211    2.1248 H   0  0  0  0  0  0  0  0  0  0  0  0
    5.6337    2.5287    2.8415 H   0  0  0  0  0  0  0  0  0  0  0  0
    6.3143    4.2272    4.3492 H   0  0  0  0  0  0  0  0  0  0  0  0
    4.8799    5.3109    3.8133 H   0  0  0  0  0  0  0  0  0  0  0  0
    4.5458   -1.5670    0.9044 H   0  0  0  0  0  0  0  0  0  0  0  0
    2.8434   -2.5670   -3.8088 H   0  0  0  0  0  0  0  0  0  0  0  0
    0.1144   -0.4172   -1.1143 H   0  0  0  0  0  0  0  0  0  0  0  0
    1.2181    0.9716   -1.5904 H   0  0  0  0  0  0  0  0  0  0  0  0
   -0.1340    0.4801   -2.5817 H   0  0  0  0  0  0  0  0  0  0  0  0
  1 15  2  0  0  0  0
  2 18  1  0  0  0  0
  2 23  1  0  0  0  0
  3  8  1  0  0  0  0
  3 11  1  0  0  0  0
  3 13  1  0  0  0  0
  4 12  1  0  0  0  0
  4 15  1  0  0  0  0
  4 24  1  0  0  0  0
  5  7  1  0  0  0  0
  5 20  2  0  0  0  0
  6  7  1  0  0  0  0
  6 22  2  0  0  0  0
  7 25  1  0  0  0  0
  8  9  1  0  0  0  0
  8 12  1  0  0  0  0
  8 26  1  0  0  0  0
  9 10  1  0  0  0  0
  9 27  1  0  0  0  0
  9 28  1  0  0  0  0
 10 11  1  0  0  0  0
 10 29  1  0  0  0  0
 10 30  1  0  0  0  0
 11 31  1  0  0  0  0
 11 32  1  0  0  0  0
 12 33  1  0  0  0  0
 12 34  1  0  0  0  0
 13 14  1  0  0  0  0
 13 35  1  0  0  0  0
 13 36  1  0  0  0  0
 14 17  2  0  0  0  0
 14 37  1  0  0  0  0
 15 16  1  0  0  0  0
 16 18  1  0  0  0  0
 16 19  2  0  0  0  0
 17 38  1  0  0  0  0
 17 39  1  0  0  0  0
 18 21  2  0  0  0  0
 19 20  1  0  0  0  0
 19 40  1  0  0  0  0
 20 22  1  0  0  0  0
 21 22  1  0  0  0  0
 21 41  1  0  0  0  0
 23 42  1  0  0  0  0
 23 43  1  0  0  0  0
 23 44  1  0  0  0  0
M  END
>  <DRUGBANK_ID>
DB01425

>  <COMMON_NAME>
Alizapride

>  <CAS_NUMBER>
59338-93-1

>  <UNII>
P55703ZRZY

>  <SYNONYMS>
Alizaprida; Alizapride; Alizapridum

$$$$
