
 OpenBabel10282417213D

 38 41  0  0  0  0  0  0  0  0999 V2000
    0.0459    0.0061    1.2933 N   0  0  0  0  0  0  0  0  0  0  0  0
   -4.9564   -1.7092   -0.0981 C   0  0  0  0  0  0  0  0  0  0  0  0
   -2.5387   -1.3723    0.0192 C   0  0  0  0  0  0  0  0  0  0  0  0
    0.0235   -1.0891    0.3037 C   0  0  3  0  0  0  0  0  0  0  0  0
   -1.2546   -0.7769   -0.5207 C   0  0  3  0  0  0  0  0  0  0  0  0
   -3.7759   -1.1403   -0.6097 C   0  0  0  0  0  0  0  0  0  0  0  0
   -3.6498   -2.7470    1.6768 N   0  0  0  0  0  0  0  0  0  0  0  0
   -4.8149   -2.4921    1.0507 C   0  0  0  0  0  0  0  0  0  0  0  0
  -11.0655   -0.4847   -3.0526 N   0  0  0  0  0  0  0  0  0  0  0  0
  -10.0627   -0.7645   -2.5444 C   0  0  0  0  0  0  0  0  0  0  0  0
   -6.2731   -1.4971   -0.7238 C   0  0  0  0  0  0  0  0  0  0  0  0
   -2.5492   -2.1908    1.1455 C   0  0  0  0  0  0  0  0  0  0  0  0
    0.0035    1.1053    0.3158 C   0  0  3  0  0  0  0  0  0  0  0  0
   -1.2561    0.7707   -0.4967 C   0  0  0  0  0  0  0  0  0  0  0  0
    1.2638   -0.7473   -0.5178 C   0  0  0  0  0  0  0  0  0  0  0  0
   -6.5274   -1.8936   -2.0480 C   0  0  0  0  0  0  0  0  0  0  0  0
   -7.3299   -0.9145   -0.0018 C   0  0  0  0  0  0  0  0  0  0  0  0
   -8.8064   -1.0672   -1.9179 C   0  0  0  0  0  0  0  0  0  0  0  0
   -5.9027   -3.0534    1.6006 F   0  0  0  0  0  0  0  0  0  0  0  0
    1.2518    0.7822   -0.5096 C   0  0  0  0  0  0  0  0  0  0  0  0
   -7.7814   -1.6826   -2.6404 C   0  0  0  0  0  0  0  0  0  0  0  0
   -8.5845   -0.7062   -0.5883 C   0  0  0  0  0  0  0  0  0  0  0  0
   -0.8042    0.0090    1.8604 H   0  0  0  0  0  0  0  0  0  0  0  0
    0.0982   -2.0937    0.7235 H   0  0  0  0  0  0  0  0  0  0  0  0
   -1.1277   -1.1441   -1.5478 H   0  0  0  0  0  0  0  0  0  0  0  0
   -3.8221   -0.5009   -1.4911 H   0  0  0  0  0  0  0  0  0  0  0  0
   -1.6475   -2.4382    1.6967 H   0  0  0  0  0  0  0  0  0  0  0  0
    0.0033    2.1075    0.7507 H   0  0  0  0  0  0  0  0  0  0  0  0
   -1.1959    1.1841   -1.5102 H   0  0  0  0  0  0  0  0  0  0  0  0
   -2.1506    1.1811   -0.0143 H   0  0  0  0  0  0  0  0  0  0  0  0
    1.2098   -1.1620   -1.5291 H   0  0  0  0  0  0  0  0  0  0  0  0
    2.1714   -1.1302   -0.0368 H   0  0  0  0  0  0  0  0  0  0  0  0
   -5.7506   -2.3838   -2.6326 H   0  0  0  0  0  0  0  0  0  0  0  0
   -7.1836   -0.6078    1.0334 H   0  0  0  0  0  0  0  0  0  0  0  0
    1.1959    1.1903   -1.5229 H   0  0  0  0  0  0  0  0  0  0  0  0
    2.1609    1.1607   -0.0295 H   0  0  0  0  0  0  0  0  0  0  0  0
   -7.9458   -1.9952   -3.6704 H   0  0  0  0  0  0  0  0  0  0  0  0
   -9.3796   -0.2498   -0.0009 H   0  0  0  0  0  0  0  0  0  0  0  0
  1 23  1  0  0  0  0
  2  6  1  0  0  0  0
  2  8  2  0  0  0  0
  3  5  1  0  0  0  0
  4  1  1  0  0  0  0
  4 24  1  0  0  0  0
  5  4  1  0  0  0  0
  5 25  1  0  0  0  0
  6  3  2  0  0  0  0
  6 26  1  0  0  0  0
  7 12  2  0  0  0  0
  8  7  1  0  0  0  0
  9 10  3  0  0  0  0
 10 18  1  0  0  0  0
 11  2  1  0  0  0  0
 12  3  1  0  0  0  0
 12 27  1  0  0  0  0
 13  1  1  0  0  0  0
 13 28  1  0  0  0  0
 14 13  1  0  0  0  0
 14  5  1  0  0  0  0
 14 29  1  0  0  0  0
 14 30  1  0  0  0  0
 15  4  1  0  0  0  0
 15 31  1  0  0  0  0
 15 32  1  0  0  0  0
 16 11  2  0  0  0  0
 16 33  1  0  0  0  0
 17 11  1  0  0  0  0
 17 34  1  0  0  0  0
 18 22  1  0  0  0  0
 18 21  2  0  0  0  0
 19  8  1  0  0  0  0
 20 13  1  0  0  0  0
 20 15  1  0  0  0  0
 20 35  1  0  0  0  0
 20 36  1  0  0  0  0
 21 16  1  0  0  0  0
 21 37  1  0  0  0  0
 22 17  2  0  0  0  0
 22 38  1  0  0  0  0
M  END
>  <DRUGBANK_ID>
DB14029

>  <COMMON_NAME>
Furafylline

>  <CAS_NUMBER>
80288-49-9

>  <UNII>
C2087G0XX3

>  <SYNONYMS>
Furafilina; Furafylline; Furafyllinum

$$$$
