
 OpenBabel10282417143D

 38 39  0  0  0  0  0  0  0  0999 V2000
   -0.3416   -1.2359    0.0149 C   0  0  0  0  0  0  0  0  0  0  0  0
   -0.3722    1.0825    0.0884 N   0  0  0  0  0  0  0  0  0  0  0  0
   -0.7564    2.4911    0.0017 C   0  0  0  0  0  0  0  0  0  0  0  0
   -1.1382   -0.1159    0.0216 C   0  0  0  0  0  0  0  0  0  0  0  0
   -2.6534   -0.0328    0.0079 C   0  0  0  0  0  0  0  0  0  0  0  0
    0.9749    0.7164    0.0785 N   0  0  0  0  0  0  0  0  0  0  0  0
    2.0727    1.5820   -0.0039 C   0  0  0  0  0  0  0  0  0  0  0  0
    4.2759    3.2870   -0.1829 C   0  0  0  0  0  0  0  0  0  0  0  0
    4.0854    2.2995   -1.1473 C   0  0  0  0  0  0  0  0  0  0  0  0
    2.9895    1.4437   -1.0536 C   0  0  0  0  0  0  0  0  0  0  0  0
    2.3004    2.5361    0.9897 C   0  0  0  0  0  0  0  0  0  0  0  0
    3.3761    3.4159    0.8758 C   0  0  0  0  0  0  0  0  0  0  0  0
    1.0740   -0.6527   -0.0064 C   0  0  0  0  0  0  0  0  0  0  0  0
    2.1085   -1.3073   -0.0493 O   0  0  0  0  0  0  0  0  0  0  0  0
   -0.4740   -2.6442    0.0258 N   0  0  0  0  0  0  0  0  0  0  0  0
   -1.7466   -3.3888   -0.0677 C   0  0  0  0  0  0  0  0  0  0  0  0
    0.7074   -3.5378    0.0669 C   0  0  0  0  0  0  0  0  0  0  0  0
   -2.0867   -4.3678   -1.5849 S   0  0  0  0  0  0  0  0  0  0  0  0
   -0.9890   -5.5458   -1.4013 O   0  0  0  0  0  0  0  0  0  0  0  0
   -3.3991   -4.9788   -1.4667 O   0  0  0  0  0  0  0  0  0  0  0  0
   -1.6936   -3.6236   -2.7547 O   0  0  0  0  0  0  0  0  0  0  0  0
   -1.3342    2.7258   -0.8983 H   0  0  0  0  0  0  0  0  0  0  0  0
   -1.3212    2.8013    0.8873 H   0  0  0  0  0  0  0  0  0  0  0  0
    0.1023    3.1721   -0.0419 H   0  0  0  0  0  0  0  0  0  0  0  0
   -3.0422    0.4853    0.8919 H   0  0  0  0  0  0  0  0  0  0  0  0
   -3.0319    0.4832   -0.8826 H   0  0  0  0  0  0  0  0  0  0  0  0
   -3.1610   -0.9944    0.0062 H   0  0  0  0  0  0  0  0  0  0  0  0
    5.1353    3.9487   -0.2486 H   0  0  0  0  0  0  0  0  0  0  0  0
    4.7804    2.1996   -1.9767 H   0  0  0  0  0  0  0  0  0  0  0  0
    2.8432    0.6790   -1.8135 H   0  0  0  0  0  0  0  0  0  0  0  0
    1.6604    2.5704    1.8675 H   0  0  0  0  0  0  0  0  0  0  0  0
    3.5136    4.2010    1.6134 H   0  0  0  0  0  0  0  0  0  0  0  0
   -1.8459   -4.0683    0.7875 H   0  0  0  0  0  0  0  0  0  0  0  0
   -2.5955   -2.7247   -0.0125 H   0  0  0  0  0  0  0  0  0  0  0  0
    1.2921   -3.4598   -0.8592 H   0  0  0  0  0  0  0  0  0  0  0  0
    1.3430   -3.3538    0.9389 H   0  0  0  0  0  0  0  0  0  0  0  0
    0.4252   -4.5897    0.1663 H   0  0  0  0  0  0  0  0  0  0  0  0
   -0.1395   -5.2576   -1.7995 H   0  0  0  0  0  0  0  0  0  0  0  0
  1  4  2  0  0  0  0
  1 15  1  0  0  0  0
  2  3  1  0  0  0  0
  3 22  1  0  0  0  0
  3 23  1  0  0  0  0
  3 24  1  0  0  0  0
  4  2  1  0  0  0  0
  4  5  1  0  0  0  0
  5 25  1  0  0  0  0
  5 26  1  0  0  0  0
  5 27  1  0  0  0  0
  6 13  1  0  0  0  0
  6  2  1  0  0  0  0
  6  7  1  0  0  0  0
  7 11  1  0  0  0  0
  8  9  2  0  0  0  0
  8 12  1  0  0  0  0
  8 28  1  0  0  0  0
  9 10  1  0  0  0  0
  9 29  1  0  0  0  0
 10  7  2  0  0  0  0
 10 30  1  0  0  0  0
 11 12  2  0  0  0  0
 11 31  1  0  0  0  0
 12 32  1  0  0  0  0
 13  1  1  0  0  0  0
 13 14  2  0  0  0  0
 15 16  1  0  0  0  0
 15 17  1  0  0  0  0
 16 18  1  0  0  0  0
 16 33  1  0  0  0  0
 16 34  1  0  0  0  0
 17 35  1  0  0  0  0
 17 36  1  0  0  0  0
 17 37  1  0  0  0  0
 18 19  1  0  0  0  0
 19 38  1  0  0  0  0
 20 18  2  0  0  0  0
 21 18  2  0  0  0  0
M  END
>  <DRUGBANK_ID>
DB04817

>  <COMMON_NAME>
Metamizole

>  <CAS_NUMBER>
50567-35-6

>  <UNII>
934T64RMNJ

>  <SYNONYMS>
Dipyrone; Metamizol

$$$$
