
 OpenBabel10282417243D

107111  0  0  1  0  0  0  0  0999 V2000
   -0.9828    0.0769    0.0413 H   0  0  0  0  0  0  0  0  0  0  0  0
   -2.0818    0.0742   -0.0169 C   0  0  2  0  0  0  0  0  0  0  0  0
   -2.5597   -1.0135    0.9142 C   0  0  0  0  0  0  0  0  0  0  0  0
   -2.5499   -2.3944    0.2340 C   0  0  2  0  0  0  0  0  0  0  0  0
   -2.0189   -2.6809    1.1424 H   0  0  0  0  0  0  0  0  0  0  0  0
   -3.7025   -3.2695    0.2941 O   0  0  0  0  0  0  0  0  0  0  0  0
   -3.4892   -4.6543   -0.2344 C   0  0  2  0  0  0  0  0  0  0  0  0
   -4.2996   -5.2996    0.1114 H   0  0  0  0  0  0  0  0  0  0  0  0
   -3.5846   -4.7379   -1.7583 C   0  0  0  0  0  0  0  0  0  0  0  0
   -3.0045   -5.9758   -2.5455 C   0  0  0  0  0  0  0  0  0  0  0  0
   -1.4741   -6.5282   -2.5769 C   0  0  2  0  0  0  0  0  0  0  0  0
   -0.5068   -5.9138   -3.6135 C   0  0  0  0  0  0  0  0  0  0  0  0
   -1.5743   -7.8702   -3.1559 O   0  0  0  0  0  0  0  0  0  0  0  0
   -0.7572   -6.6784   -1.1462 C   0  0  1  0  0  0  0  0  0  0  0  0
    0.4609   -5.7742   -0.9102 C   0  0  0  0  0  0  0  0  0  0  0  0
    0.9894   -5.4927    0.5030 C   0  0  0  0  0  0  0  0  0  0  0  0
    1.7526   -6.5382    1.0283 C   0  0  0  0  0  0  0  0  0  0  0  0
    2.8367   -6.0706    1.6213 C   0  0  0  0  0  0  0  0  0  0  0  0
    3.1159   -4.6383    1.7730 C   0  0  0  0  0  0  0  0  0  0  0  0
    4.2818   -4.2147    2.2239 C   0  0  0  0  0  0  0  0  0  0  0  0
   -1.7353   -6.4866   -0.0861 O   0  0  0  0  0  0  0  0  0  0  0  0
   -2.1550   -5.0922    0.3295 C   0  0  1  0  0  0  0  0  0  0  0  0
   -2.3766   -5.2961    1.3971 H   0  0  0  0  0  0  0  0  0  0  0  0
   -0.8964   -3.8611    0.4034 C   0  0  0  0  0  0  0  0  0  0  0  0
   -0.3361   -2.5606   -0.6199 C   0  0  0  0  0  0  0  0  0  0  0  0
   -1.6898   -2.4252   -1.1568 C   0  0  2  0  0  0  0  0  0  0  0  0
   -1.3246   -3.4309   -2.2740 C   0  0  0  0  0  0  0  0  0  0  0  0
   -2.4080   -1.5718   -1.9327 O   0  0  0  0  0  0  0  0  0  0  0  0
   -2.4732   -0.2771   -1.4581 C   0  0  1  0  0  0  0  0  0  0  0  0
   -3.5318   -0.1045   -1.4704 H   0  0  0  0  0  0  0  0  0  0  0  0
   -1.5821    0.2987   -2.5222 C   0  0  1  0  0  0  0  0  0  0  0  0
   -2.0452    0.1031   -3.8624 O   0  0  0  0  0  0  0  0  0  0  0  0
   -1.3368    1.7303   -2.4136 C   0  0  0  0  0  0  0  0  0  0  0  0
   -2.5322    2.4971   -1.7022 C   0  0  1  0  0  0  0  0  0  0  0  0
   -3.9654    2.1469   -1.8008 C   0  0  0  0  0  0  0  0  0  0  0  0
   -3.0528    4.0859   -1.8653 O   0  0  0  0  0  0  0  0  0  0  0  0
   -2.6097    4.5003   -3.0315 C   0  0  1  0  0  0  0  0  0  0  0  0
   -3.1311    5.7192   -3.7565 C   0  0  0  0  0  0  0  0  0  0  0  0
   -3.6906    5.1560   -5.1106 C   0  0  0  0  0  0  0  0  0  0  0  0
   -4.6403    3.9514   -4.9932 C   0  0  0  0  0  0  0  0  0  0  0  0
   -5.9501    3.9278   -5.2652 C   0  0  0  0  0  0  0  0  0  0  0  0
   -6.5373    5.1696   -5.8797 C   0  0  0  0  0  0  0  0  0  0  0  0
   -6.8304    2.7517   -5.0325 C   0  0  0  0  0  0  0  0  0  0  0  0
   -6.3067    1.4862   -4.3787 C   0  0  0  0  0  0  0  0  0  0  0  0
   -8.1288    2.7928   -5.3989 C   0  0  0  0  0  0  0  0  0  0  0  0
   -9.0803    1.6713   -5.2194 C   0  0  0  0  0  0  0  0  0  0  0  0
  -10.2459    1.7593   -5.5846 O   0  0  0  0  0  0  0  0  0  0  0  0
   -1.1947    4.3670   -2.5556 C   0  0  1  0  0  0  0  0  0  0  0  0
   -0.9923    3.8859   -4.3364 C   0  0  0  0  0  0  0  0  0  0  0  0
   -1.5494    3.8435   -0.5382 C   0  0  0  0  0  0  0  0  0  0  0  0
   -1.8306    2.3727   -0.3790 C   0  0  2  0  0  0  0  0  0  0  0  0
   -0.7947    2.1369   -0.0554 H   0  0  0  0  0  0  0  0  0  0  0  0
   -2.5293    1.4153    0.4165 O   0  0  0  0  0  0  0  0  0  0  0  0
   -3.4654   -0.9476    1.5067 H   0  0  0  0  0  0  0  0  0  0  0  0
   -1.7568   -0.9589    1.6917 H   0  0  0  0  0  0  0  0  0  0  0  0
   -3.7715   -4.0659   -2.6253 H   0  0  0  0  0  0  0  0  0  0  0  0
   -3.1508   -3.7837   -1.6376 H   0  0  0  0  0  0  0  0  0  0  0  0
   -3.6743   -6.8492   -2.5120 H   0  0  0  0  0  0  0  0  0  0  0  0
   -3.3053   -5.6611   -3.5527 H   0  0  0  0  0  0  0  0  0  0  0  0
   -0.7864   -6.1381   -4.6402 H   0  0  0  0  0  0  0  0  0  0  0  0
   -0.3882   -4.8572   -3.6417 H   0  0  0  0  0  0  0  0  0  0  0  0
    0.5003   -6.3167   -3.4450 H   0  0  0  0  0  0  0  0  0  0  0  0
   -0.8732   -7.9634   -3.8342 H   0  0  0  0  0  0  0  0  0  0  0  0
   -0.3104   -7.6891   -1.0954 H   0  0  0  0  0  0  0  0  0  0  0  0
    1.2578   -5.6602   -1.6408 H   0  0  0  0  0  0  0  0  0  0  0  0
    0.0088   -4.8674   -1.1845 H   0  0  0  0  0  0  0  0  0  0  0  0
    1.3423   -4.4531    0.3857 H   0  0  0  0  0  0  0  0  0  0  0  0
    0.4048   -5.3928    1.4820 H   0  0  0  0  0  0  0  0  0  0  0  0
    1.2761   -7.5091    0.9621 H   0  0  0  0  0  0  0  0  0  0  0  0
    3.4812   -6.8333    1.9967 H   0  0  0  0  0  0  0  0  0  0  0  0
    2.4321   -3.8048    1.5603 H   0  0  0  0  0  0  0  0  0  0  0  0
    4.4542   -3.1497    2.3045 H   0  0  0  0  0  0  0  0  0  0  0  0
    5.0081   -4.9580    2.4912 H   0  0  0  0  0  0  0  0  0  0  0  0
   -0.5785   -4.7983    0.4837 H   0  0  0  0  0  0  0  0  0  0  0  0
   -0.4606   -3.5601    1.3588 H   0  0  0  0  0  0  0  0  0  0  0  0
    0.4526   -2.5547   -1.4325 H   0  0  0  0  0  0  0  0  0  0  0  0
    0.0165   -1.6319   -0.1679 H   0  0  0  0  0  0  0  0  0  0  0  0
   -0.2616   -3.5852   -2.5005 H   0  0  0  0  0  0  0  0  0  0  0  0
   -1.5259   -4.3960   -1.8833 H   0  0  0  0  0  0  0  0  0  0  0  0
   -1.7526   -3.3073   -3.2663 H   0  0  0  0  0  0  0  0  0  0  0  0
   -0.6042   -0.2048   -2.4717 H   0  0  0  0  0  0  0  0  0  0  0  0
   -2.9565    0.4290   -3.9181 H   0  0  0  0  0  0  0  0  0  0  0  0
   -1.0306    1.9897   -3.4017 H   0  0  0  0  0  0  0  0  0  0  0  0
   -0.3606    1.7889   -1.8490 H   0  0  0  0  0  0  0  0  0  0  0  0
   -4.4897    2.4398   -0.8878 H   0  0  0  0  0  0  0  0  0  0  0  0
   -4.4591    2.7279   -2.5641 H   0  0  0  0  0  0  0  0  0  0  0  0
   -4.1575    1.2018   -2.2182 H   0  0  0  0  0  0  0  0  0  0  0  0
   -3.5167    3.9983   -3.2223 H   0  0  0  0  0  0  0  0  0  0  0  0
   -3.9491    6.1297   -3.1621 H   0  0  0  0  0  0  0  0  0  0  0  0
   -2.3752    6.4871   -3.9076 H   0  0  0  0  0  0  0  0  0  0  0  0
   -4.1051    6.0091   -5.6209 H   0  0  0  0  0  0  0  0  0  0  0  0
   -2.9004    4.8034   -5.7747 H   0  0  0  0  0  0  0  0  0  0  0  0
   -4.1713    3.0411   -4.6173 H   0  0  0  0  0  0  0  0  0  0  0  0
   -6.8723    4.9478   -6.8938 H   0  0  0  0  0  0  0  0  0  0  0  0
   -7.3290    5.5804   -5.2553 H   0  0  0  0  0  0  0  0  0  0  0  0
   -5.8393    5.9930   -6.0060 H   0  0  0  0  0  0  0  0  0  0  0  0
   -6.8533    1.2757   -3.4497 H   0  0  0  0  0  0  0  0  0  0  0  0
   -6.4154    0.6322   -5.0567 H   0  0  0  0  0  0  0  0  0  0  0  0
   -5.2560    1.4995   -4.1136 H   0  0  0  0  0  0  0  0  0  0  0  0
   -8.5767    3.6615   -5.8667 H   0  0  0  0  0  0  0  0  0  0  0  0
   -8.6946    0.7543   -4.7489 H   0  0  0  0  0  0  0  0  0  0  0  0
   -0.4006    3.6136   -2.5708 H   0  0  0  0  0  0  0  0  0  0  0  0
   -1.0274    4.7907   -4.9879 H   0  0  0  0  0  0  0  0  0  0  0  0
   -0.0102    3.4767   -4.6645 H   0  0  0  0  0  0  0  0  0  0  0  0
   -1.7100    3.1763   -4.8839 H   0  0  0  0  0  0  0  0  0  0  0  0
   -2.5754    4.2266   -0.1858 H   0  0  0  0  0  0  0  0  0  0  0  0
   -1.2423    4.2416    0.3841 H   0  0  0  0  0  0  0  0  0  0  0  0
  2  3  1  0  0  0  0
  2 53  1  0  0  0  0
  2  1  1  6  0  0  0
  3 54  1  0  0  0  0
  3 55  1  0  0  0  0
  4  3  1  0  0  0  0
  4  6  1  0  0  0  0
  4 26  1  0  0  0  0
  4  5  1  6  0  0  0
  7  6  1  0  0  0  0
  7  9  1  0  0  0  0
  7 22  1  0  0  0  0
  7  8  1  6  0  0  0
  9 10  1  0  0  0  0
  9 56  1  0  0  0  0
  9 57  1  0  0  0  0
 10 58  1  0  0  0  0
 10 59  1  0  0  0  0
 11 10  1  0  0  0  0
 11 14  1  0  0  0  0
 11 13  1  6  0  0  0
 11 12  1  0  0  0  0
 12 60  1  0  0  0  0
 12 61  1  0  0  0  0
 12 62  1  0  0  0  0
 13 63  1  0  0  0  0
 14 21  1  0  0  0  0
 14 64  1  1  0  0  0
 14 15  1  0  0  0  0
 15 16  1  0  0  0  0
 15 65  1  0  0  0  0
 15 66  1  0  0  0  0
 16 17  1  0  0  0  0
 16 67  1  0  0  0  0
 16 68  1  0  0  0  0
 17 18  2  0  0  0  0
 17 69  1  0  0  0  0
 18 19  1  0  0  0  0
 18 70  1  0  0  0  0
 19 20  2  0  0  0  0
 19 71  1  0  0  0  0
 20 72  1  0  0  0  0
 20 73  1  0  0  0  0
 22 21  1  0  0  0  0
 22 24  1  0  0  0  0
 22 23  1  1  0  0  0
 24 25  1  0  0  0  0
 24 74  1  0  0  0  0
 24 75  1  0  0  0  0
 25 76  1  0  0  0  0
 25 77  1  0  0  0  0
 26 25  1  0  0  0  0
 26 28  1  0  0  0  0
 26 27  1  1  0  0  0
 27 78  1  0  0  0  0
 27 79  1  0  0  0  0
 27 80  1  0  0  0  0
 29 28  1  0  0  0  0
 29  2  1  0  0  0  0
 29 31  1  0  0  0  0
 29 30  1  1  0  0  0
 31 33  1  0  0  0  0
 31 32  1  0  0  0  0
 31 81  1  1  0  0  0
 32 82  1  0  0  0  0
 33 83  1  0  0  0  0
 33 84  1  0  0  0  0
 34 33  1  0  0  0  0
 34 36  1  0  0  0  0
 34 51  1  0  0  0  0
 34 35  1  6  0  0  0
 35 85  1  0  0  0  0
 35 86  1  0  0  0  0
 35 87  1  0  0  0  0
 37 36  1  0  0  0  0
 37 48  1  0  0  0  0
 37 38  1  0  0  0  0
 37 88  1  6  0  0  0
 38 39  1  0  0  0  0
 38 89  1  0  0  0  0
 38 90  1  0  0  0  0
 39 40  1  0  0  0  0
 39 91  1  0  0  0  0
 39 92  1  0  0  0  0
 40 41  2  0  0  0  0
 40 93  1  0  0  0  0
 41 42  1  0  0  0  0
 41 43  1  0  0  0  0
 42 94  1  0  0  0  0
 42 95  1  0  0  0  0
 42 96  1  0  0  0  0
 43 44  1  0  0  0  0
 43 45  2  0  0  0  0
 44 97  1  0  0  0  0
 44 98  1  0  0  0  0
 44 99  1  0  0  0  0
 45 46  1  0  0  0  0
 45100  1  0  0  0  0
 46 47  2  0  0  0  0
 46101  1  0  0  0  0
 48 50  1  0  0  0  0
 48 49  1  0  0  0  0
 48102  1  6  0  0  0
 49103  1  0  0  0  0
 49104  1  0  0  0  0
 49105  1  0  0  0  0
 50106  1  0  0  0  0
 50107  1  0  0  0  0
 51 50  1  0  0  0  0
 51 53  1  0  0  0  0
 51 52  1  1  0  0  0
M  END
>  <DRUGBANK_ID>
DB17865

>  <COMMON_NAME>
Brevenal

>  <CAS_NUMBER>
776331-34-1

>  <UNII>
ECX1L89MFR

>  <SYNONYMS>
(-)-brevenal; 2,4-HEPTADIENAL, 7-((2S,3S,4AS,5AR,6AS,7AR,10S,11R,12AS,14AR,15AS,16S,17AR)-11-(3Z)-3,5-HEXADIEN-1-YLEICOSAHYDRO-10,16-DIHYDROXY-3,10,14A,17A-TETRAMETHYLOXEPINO(3,2-B)PYRANO(2'',3'':6',7')OXEPINO(2',3':5,6)PYRANO(2,3-F)OXEPIN-2-YL)-3,4-DIMETHYL-, (2E,4E)-

$$$$
