
 OpenBabel10282417133D

 20 20  0  0  0  0  0  0  0  0999 V2000
    0.9635    0.0302   -0.1223 C   0  0  0  0  0  0  0  0  0  0  0  0
    0.4220   -0.8516   -1.1424 N   0  0  0  0  0  0  0  0  0  0  0  0
   -0.2747   -2.0200   -0.8338 C   0  0  0  0  0  0  0  0  0  0  0  0
   -0.0763   -3.2381   -1.4060 C   0  0  0  0  0  0  0  0  0  0  0  0
   -0.9114   -4.3769   -0.9716 C   0  0  0  0  0  0  0  0  0  0  0  0
   -0.8007   -5.5465   -1.3335 O   0  0  0  0  0  0  0  0  0  0  0  0
   -1.8925   -4.0684   -0.0729 N   0  0  0  0  0  0  0  0  0  0  0  0
   -2.0408   -2.8285    0.4450 C   0  0  0  0  0  0  0  0  0  0  0  0
   -3.0387   -2.6536    1.3318 N   0  0  0  0  0  0  0  0  0  0  0  0
   -1.2704   -1.8500    0.1165 N   0  0  0  0  0  0  0  0  0  0  0  0
    0.9713   -3.4578   -2.3877 N   0  3  0  0  0  0  0  0  0  0  0  0
    1.1328   -4.6010   -2.8343 O   0  5  0  0  0  0  0  0  0  0  0  0
    1.6664   -2.4957   -2.7523 O   0  0  0  0  0  0  0  0  0  0  0  0
    0.6552   -0.2542    0.8902 H   0  0  0  0  0  0  0  0  0  0  0  0
    0.6363    1.0565   -0.3066 H   0  0  0  0  0  0  0  0  0  0  0  0
    2.0588    0.0080   -0.1482 H   0  0  0  0  0  0  0  0  0  0  0  0
    0.9745   -0.8842   -2.0026 H   0  0  0  0  0  0  0  0  0  0  0  0
   -2.4808   -4.8282    0.2276 H   0  0  0  0  0  0  0  0  0  0  0  0
   -3.6473   -3.3904    1.6511 H   0  0  0  0  0  0  0  0  0  0  0  0
   -3.1711   -1.7232    1.7105 H   0  0  0  0  0  0  0  0  0  0  0  0
  1  2  1  0  0  0  0
  1 14  1  0  0  0  0
  1 15  1  0  0  0  0
  1 16  1  0  0  0  0
  2  3  1  0  0  0  0
  2 17  1  0  0  0  0
  3  4  2  0  0  0  0
  3 10  1  0  0  0  0
  4  5  1  0  0  0  0
  4 11  1  0  0  0  0
  5  6  2  0  0  0  0
  5  7  1  0  0  0  0
  7  8  1  0  0  0  0
  7 18  1  0  0  0  0
  8  9  1  0  0  0  0
  8 10  2  0  0  0  0
  9 19  1  0  0  0  0
  9 20  1  0  0  0  0
 11 12  1  0  0  0  0
 11 13  2  0  0  0  0
M  CHG  2  11   1  12  -1
M  END
>  <DRUGBANK_ID>
DB03705

>  <SECONDARY_ACCESSION_NUMBERS>
EXPT00278

>  <COMMON_NAME>
6-Methylamino-5-Nitroisocytosine

$$$$
