
 OpenBabel10282417173D

 19 19  0  0  0  0  0  0  0  0999 V2000
    0.0308   -1.3892    0.0004 N   0  0  0  0  0  0  0  0  0  0  0  0
   -1.1572   -0.6628   -0.0441 C   0  0  0  0  0  0  0  0  0  0  0  0
   -1.2480    0.6650    0.0717 C   0  0  0  0  0  0  0  0  0  0  0  0
    1.2508   -0.6737    0.0485 C   0  0  0  0  0  0  0  0  0  0  0  0
    1.2913    0.6814   -0.0595 C   0  0  0  0  0  0  0  0  0  0  0  0
   -0.0010    1.4396   -0.0327 C   0  0  0  0  0  0  0  0  0  0  0  0
   -0.0541    2.6696   -0.1150 O   0  0  0  0  0  0  0  0  0  0  0  0
    2.4550    1.4255   -0.1556 O   0  0  0  0  0  0  0  0  0  0  0  0
    2.5548   -1.3968    0.2918 C   0  0  0  0  0  0  0  0  0  0  0  0
   -0.0823   -2.8459    0.1747 C   0  0  0  0  0  0  0  0  0  0  0  0
   -2.0583   -1.2631   -0.1439 H   0  0  0  0  0  0  0  0  0  0  0  0
   -2.1756    1.2076    0.1774 H   0  0  0  0  0  0  0  0  0  0  0  0
    3.2006    0.8376   -0.3427 H   0  0  0  0  0  0  0  0  0  0  0  0
    3.2354   -1.2635   -0.5528 H   0  0  0  0  0  0  0  0  0  0  0  0
    3.0181   -1.0000    1.2038 H   0  0  0  0  0  0  0  0  0  0  0  0
    2.4798   -2.4680    0.4573 H   0  0  0  0  0  0  0  0  0  0  0  0
   -0.7077   -3.0651    1.0479 H   0  0  0  0  0  0  0  0  0  0  0  0
   -0.5328   -3.3041   -0.7114 H   0  0  0  0  0  0  0  0  0  0  0  0
    0.8589   -3.3641    0.3460 H   0  0  0  0  0  0  0  0  0  0  0  0
  1  2  1  0  0  0  0
  1  4  1  0  0  0  0
  1 10  1  0  0  0  0
  2  3  2  0  0  0  0
  2 11  1  0  0  0  0
  3 12  1  0  0  0  0
  4  5  2  0  0  0  0
  4  9  1  0  0  0  0
  5  6  1  0  0  0  0
  5  8  1  0  0  0  0
  6  3  1  0  0  0  0
  6  7  2  0  0  0  0
  8 13  1  0  0  0  0
  9 14  1  0  0  0  0
  9 15  1  0  0  0  0
  9 16  1  0  0  0  0
 10 17  1  0  0  0  0
 10 18  1  0  0  0  0
 10 19  1  0  0  0  0
M  END
>  <DRUGBANK_ID>
DB08826

>  <COMMON_NAME>
Deferiprone

>  <CAS_NUMBER>
30652-11-0

>  <UNII>
2BTY8KH53L

>  <SYNONYMS>
1,2-Dimethyl-3-hydroxypyrid-4-one; 3-Hydroxy-1,2-dimethyl-4(1H)-pyridone; Deferiprona; Deferiprone; Défériprone; Deferipronum

$$$$
