4821
 OpenBabel10282417143D

 36 38  0  0  1  0  0  0  0  0999 V2000
   -2.4439    0.6435   -0.3684 N   0  0  0  0  0  0  0  0  0  0  0  0
    1.2701    2.8389    0.3619 N   0  0  0  0  0  0  0  0  0  0  0  0
   -1.1933   -1.5032   -0.0570 C   0  0  3  0  0  0  0  0  0  0  0  0
   -2.4107   -0.6296    0.3645 C   0  0  0  0  0  0  0  0  0  0  0  0
    0.0831   -0.6616   -0.1910 C   0  0  0  0  0  0  0  0  0  0  0  0
   -1.2923    1.4591    0.0556 C   0  0  0  0  0  0  0  0  0  0  0  0
    0.0410    0.7471   -0.0615 C   0  0  0  0  0  0  0  0  0  0  0  0
   -1.0880   -2.6690    0.9461 C   0  0  0  0  0  0  0  0  0  0  0  0
    1.2476    1.4777    0.0080 C   0  0  0  0  0  0  0  0  0  0  0  0
    1.3223   -1.3034   -0.3685 C   0  0  0  0  0  0  0  0  0  0  0  0
   -3.6890    1.3661   -0.1175 C   0  0  0  0  0  0  0  0  0  0  0  0
    2.4644    0.7795   -0.0086 C   0  0  0  0  0  0  0  0  0  0  0  0
   -2.0658   -3.6719    0.9781 C   0  0  0  0  0  0  0  0  0  0  0  0
   -0.0646   -2.7224    1.9130 C   0  0  0  0  0  0  0  0  0  0  0  0
    2.5057   -0.5974   -0.2098 C   0  0  0  0  0  0  0  0  0  0  0  0
   -1.9988   -4.7013    1.9281 C   0  0  0  0  0  0  0  0  0  0  0  0
   -0.0445   -3.6975    2.9058 C   0  0  0  0  0  0  0  0  0  0  0  0
   -0.9979   -4.6969    2.9006 C   0  0  0  0  0  0  0  0  0  0  0  0
    0.4496    3.3707    0.0972 H   0  0  0  0  0  0  0  0  0  0  0  0
    2.1287    3.3162    0.1051 H   0  0  0  0  0  0  0  0  0  0  0  0
   -1.3910   -1.9143   -1.0586 H   0  0  0  0  0  0  0  0  0  0  0  0
   -2.3917   -0.4415    1.4489 H   0  0  0  0  0  0  0  0  0  0  0  0
   -3.3329   -1.1922    0.1663 H   0  0  0  0  0  0  0  0  0  0  0  0
   -1.2668    2.3391   -0.5983 H   0  0  0  0  0  0  0  0  0  0  0  0
   -1.4131    1.8016    1.0923 H   0  0  0  0  0  0  0  0  0  0  0  0
    1.3655   -2.3844   -0.4949 H   0  0  0  0  0  0  0  0  0  0  0  0
   -3.8362    1.5907    0.9451 H   0  0  0  0  0  0  0  0  0  0  0  0
   -3.7010    2.3106   -0.6735 H   0  0  0  0  0  0  0  0  0  0  0  0
   -4.5481    0.7851   -0.4701 H   0  0  0  0  0  0  0  0  0  0  0  0
    3.4011    1.3098    0.1390 H   0  0  0  0  0  0  0  0  0  0  0  0
   -2.9023   -3.6579    0.2811 H   0  0  0  0  0  0  0  0  0  0  0  0
    0.7473   -2.0052    1.9289 H   0  0  0  0  0  0  0  0  0  0  0  0
    3.4525   -1.1301   -0.1885 H   0  0  0  0  0  0  0  0  0  0  0  0
   -2.7375   -5.4952    1.9227 H   0  0  0  0  0  0  0  0  0  0  0  0
    0.7222   -3.6463    3.6743 H   0  0  0  0  0  0  0  0  0  0  0  0
   -0.9628   -5.4734    3.6609 H   0  0  0  0  0  0  0  0  0  0  0  0
  1  4  1  0  0  0  0
  1  6  1  0  0  0  0
  1 11  1  0  0  0  0
  2  9  1  0  0  0  0
  2 19  1  0  0  0  0
  2 20  1  0  0  0  0
  3  4  1  0  0  0  0
  3  5  1  0  0  0  0
  3  8  1  0  0  0  0
  3 21  1  0  0  0  0
  4 22  1  0  0  0  0
  4 23  1  0  0  0  0
  5  7  2  0  0  0  0
  5 10  1  0  0  0  0
  6  7  1  0  0  0  0
  6 24  1  0  0  0  0
  6 25  1  0  0  0  0
  7  9  1  0  0  0  0
  8 13  2  0  0  0  0
  8 14  1  0  0  0  0
  9 12  2  0  0  0  0
 10 15  2  0  0  0  0
 10 26  1  0  0  0  0
 11 27  1  0  0  0  0
 11 28  1  0  0  0  0
 11 29  1  0  0  0  0
 12 15  1  0  0  0  0
 12 30  1  0  0  0  0
 13 16  1  0  0  0  0
 13 31  1  0  0  0  0
 14 17  2  0  0  0  0
 14 32  1  0  0  0  0
 15 33  1  0  0  0  0
 16 18  2  0  0  0  0
 16 34  1  0  0  0  0
 17 18  1  0  0  0  0
 17 35  1  0  0  0  0
 18 36  1  0  0  0  0
M  END
>  <DRUGBANK_ID>
DB04821

>  <COMMON_NAME>
Nomifensine

>  <CAS_NUMBER>
24526-64-5

>  <UNII>
1LGS5JRP31

>  <SYNONYMS>
(+-)-nomifensin; (+-)-nomifensine; 2-Methyl-4-phenyl-1,2,3,4-tetrahydro-isoquinolin-8-ylamine; 8-Amino-2-methyl-4-phenyl-1,2,3,4-tetrahydroisoquinoline; D,L-nomifensine; Nomifensin; Nomifensina; Nomifensine; Nomifensinum

$$$$
