
 OpenBabel10282417133D

 71 75  0  0  1  0  0  0  0  0999 V2000
   -0.7714    1.1726    0.0844 C   0  0  0  0  0  0  0  0  0  0  0  0
   -1.3957   -0.0583   -0.0344 C   0  0  0  0  0  0  0  0  0  0  0  0
    0.5991    1.2301   -0.0322 C   0  0  0  0  0  0  0  0  0  0  0  0
    0.7284   -1.1133    0.0381 C   0  0  0  0  0  0  0  0  0  0  0  0
    3.9166   -2.6646   -1.2988 C   0  0  0  0  0  0  0  0  0  0  0  0
    4.8944   -7.4209    4.4805 C   0  0  0  0  0  0  0  0  0  0  0  0
    9.0480   -4.1176    1.1007 C   0  0  0  0  0  0  0  0  0  0  0  0
    5.1808   -3.4778    3.7420 C   0  0  0  0  0  0  0  0  0  0  0  0
   -0.6467   -1.2311   -0.0494 C   0  0  0  0  0  0  0  0  0  0  0  0
    4.3745   -1.1757   -1.2977 C   0  0  2  0  0  0  0  0  0  0  0  0
    5.5587   -6.5579    5.9910 C   0  0  2  0  0  0  0  0  0  0  0  0
    6.6473   -5.0886    1.5762 C   0  0  0  0  0  0  0  0  0  0  0  0
    4.9045   -0.6881    0.0228 C   0  0  2  0  0  0  0  0  0  0  0  0
    4.4288   -5.5349    6.4444 C   0  0  2  0  0  0  0  0  0  0  0  0
    3.5724   -0.2789    0.8300 C   0  0  2  0  0  0  0  0  0  0  0  0
    4.6592   -4.1447    5.8361 C   0  0  2  0  0  0  0  0  0  0  0  0
    7.1709   -5.6002    0.4868 C   0  0  0  0  0  0  0  0  0  0  0  0
   -1.2987   -2.5616   -0.1881 C   0  0  0  0  0  0  0  0  0  0  0  0
    7.7399   -4.1900    2.7809 C   0  0  0  0  0  0  0  0  0  0  0  0
    2.7807    0.2533   -0.3103 C   0  0  2  0  0  0  0  0  0  0  0  0
    6.4500   -4.1237    5.6258 C   0  0  2  0  0  0  0  0  0  0  0  0
    6.5294   -6.7700    0.1863 N   0  0  0  0  0  0  0  0  0  0  0  0
   -0.6573   -3.6777   -0.2036 N   0  0  0  0  0  0  0  0  0  0  0  0
    8.4421   -5.1464    0.2774 N   0  0  0  0  0  0  0  0  0  0  0  0
    8.8071   -3.5616    2.3163 N   0  0  0  0  0  0  0  0  0  0  0  0
    4.8686   -4.7934    2.6044 N   0  0  0  0  0  0  0  0  0  0  0  0
    1.3323    0.1028   -0.0748 N   0  3  0  0  0  0  0  0  0  0  0  0
    6.8496   -3.5659    4.1607 N   0  0  0  0  0  0  0  0  0  0  0  0
    5.8779    0.3141    0.1848 O   0  0  0  0  0  0  0  0  0  0  0  0
    4.6038   -5.2979    7.8118 O   0  0  0  0  0  0  0  0  0  0  0  0
    3.7229    0.6027    1.9384 O   0  0  0  0  0  0  0  0  0  0  0  0
    4.1908   -2.9732    6.4675 O   0  0  0  0  0  0  0  0  0  0  0  0
    5.6573   -3.7154   -0.0556 O   0  0  0  0  0  0  0  0  0  0  0  0
    4.9450   -1.9945    1.7722 O   0  0  0  0  0  0  0  0  0  0  0  0
    7.7388   -6.5669    2.9265 O   0  0  0  0  0  0  0  0  0  0  0  0
    5.5200   -5.4792    4.4267 O   0  0  0  0  0  0  0  0  0  0  0  0
    3.5125   -3.0977    0.0339 O   0  0  0  0  0  0  0  0  0  0  0  0
    5.4399   -7.1723    3.0921 O   0  0  0  0  0  0  0  0  0  0  0  0
    3.1809   -0.3983   -1.5142 O   0  0  0  0  0  0  0  0  0  0  0  0
    6.9023   -5.5678    5.9087 O   0  0  0  0  0  0  0  0  0  0  0  0
    6.0519   -3.7832    2.2819 O   0  0  0  0  0  0  0  0  0  0  0  0
    4.7822   -3.4405    1.1579 P   0  0  3  0  0  0  0  0  0  0  0  0
    6.3018   -5.8233    3.3131 P   0  0  3  0  0  0  0  0  0  0  0  0
   -2.9853   -2.8026   -0.3920 S   0  5  0  0  0  0  0  0  0  0  0  0
    5.1286   -1.0094   -2.0700 H   0  0  0  0  0  0  0  0  0  0  0  0
    5.9149   -7.3219    6.6446 H   0  0  0  0  0  0  0  0  0  0  0  0
    5.6002   -1.5156    0.1508 H   0  0  0  0  0  0  0  0  0  0  0  0
    3.4299   -5.8998    6.1562 H   0  0  0  0  0  0  0  0  0  0  0  0
    2.8870   -1.0326    1.2654 H   0  0  0  0  0  0  0  0  0  0  0  0
    3.9547   -4.1692    4.9507 H   0  0  0  0  0  0  0  0  0  0  0  0
    3.0364    1.3081   -0.3917 H   0  0  0  0  0  0  0  0  0  0  0  0
    6.8851   -3.4274    6.3357 H   0  0  0  0  0  0  0  0  0  0  0  0
   -1.3544    2.0737    0.2249 H   0  0  0  0  0  0  0  0  0  0  0  0
   -2.4802   -0.1054   -0.1095 H   0  0  0  0  0  0  0  0  0  0  0  0
    1.1252    2.1761   -0.1044 H   0  0  0  0  0  0  0  0  0  0  0  0
    1.3523   -1.9808    0.2011 H   0  0  0  0  0  0  0  0  0  0  0  0
    3.0620   -2.7437   -1.9693 H   0  0  0  0  0  0  0  0  0  0  0  0
    4.6173   -3.3904   -1.7464 H   0  0  0  0  0  0  0  0  0  0  0  0
    3.8869   -7.0029    4.3077 H   0  0  0  0  0  0  0  0  0  0  0  0
    4.8393   -8.4646    4.7401 H   0  0  0  0  0  0  0  0  0  0  0  0
    9.9877   -3.7205    0.7432 H   0  0  0  0  0  0  0  0  0  0  0  0
    4.9422   -2.3979    4.0571 H   0  0  0  0  0  0  0  0  0  0  0  0
    5.6795   -7.0340    0.7093 H   0  0  0  0  0  0  0  0  0  0  0  0
    6.9101   -7.3832   -0.4952 H   0  0  0  0  0  0  0  0  0  0  0  0
    0.3446   -3.6350   -0.1134 H   0  0  0  0  0  0  0  0  0  0  0  0
    5.5311    1.1466   -0.1177 H   0  0  0  0  0  0  0  0  0  0  0  0
    5.5169   -4.9597    7.8476 H   0  0  0  0  0  0  0  0  0  0  0  0
    4.4497    1.2226    1.7632 H   0  0  0  0  0  0  0  0  0  0  0  0
    4.6488   -2.9889    7.3124 H   0  0  0  0  0  0  0  0  0  0  0  0
    4.0153   -1.9076    1.7484 H   0  0  0  0  0  0  0  0  0  0  0  0
    7.7984   -6.8893    1.9677 H   0  0  0  0  0  0  0  0  0  0  0  0
  1 53  1  0  0  0  0
  2  1  2  0  0  0  0
  2 54  1  0  0  0  0
  3  1  1  0  0  0  0
  3 55  1  0  0  0  0
  4 56  1  0  0  0  0
  5 57  1  0  0  0  0
  5 58  1  0  0  0  0
  6 59  1  0  0  0  0
  6 60  1  0  0  0  0
  7 61  1  0  0  0  0
  8 62  1  0  0  0  0
  9  2  1  0  0  0  0
  9  4  2  0  0  0  0
 10 45  1  6  0  0  0
 10  5  1  0  0  0  0
 11  6  1  0  0  0  0
 11 46  1  1  0  0  0
 13 10  1  0  0  0  0
 13 29  1  0  0  0  0
 13 47  1  1  0  0  0
 14 11  1  0  0  0  0
 14 30  1  0  0  0  0
 14 48  1  6  0  0  0
 15 13  1  0  0  0  0
 15 31  1  0  0  0  0
 15 49  1  1  0  0  0
 16 14  1  0  0  0  0
 16 32  1  0  0  0  0
 16 50  1  6  0  0  0
 17 12  2  0  0  0  0
 18  9  1  0  0  0  0
 19 12  1  0  0  0  0
 20 15  1  0  0  0  0
 20 27  1  0  0  0  0
 20 51  1  6  0  0  0
 21 16  1  0  0  0  0
 21 52  1  1  0  0  0
 21 28  1  0  0  0  0
 22 17  1  0  0  0  0
 22 63  1  0  0  0  0
 22 64  1  0  0  0  0
 23 18  2  0  0  0  0
 23 65  1  0  0  0  0
 24  7  2  0  0  0  0
 24 17  1  0  0  0  0
 25  7  1  0  0  0  0
 25 19  2  0  0  0  0
 26  8  2  0  0  0  0
 26 12  1  0  0  0  0
 27  3  2  0  0  0  0
 27  4  1  0  0  0  0
 28  8  1  0  0  0  0
 28 19  1  0  0  0  0
 29 66  1  0  0  0  0
 30 67  1  0  0  0  0
 31 68  1  0  0  0  0
 32 69  1  0  0  0  0
 34 70  1  0  0  0  0
 35 71  1  0  0  0  0
 37  5  1  0  0  0  0
 38  6  1  0  0  0  0
 39 10  1  0  0  0  0
 39 20  1  0  0  0  0
 40 11  1  0  0  0  0
 40 21  1  0  0  0  0
 42 33  2  0  0  0  0
 42 34  1  0  0  0  0
 42 37  1  0  0  0  0
 42 41  1  0  0  0  0
 43 35  1  0  0  0  0
 43 36  2  0  0  0  0
 43 38  1  0  0  0  0
 43 41  1  0  0  0  0
 44 18  1  0  0  0  0
M  CHG  2  27   1  44  -1
M  END
>  <DRUGBANK_ID>
DB03893

>  <SECONDARY_ACCESSION_NUMBERS>
EXPT02928

>  <COMMON_NAME>
Thionicotinamide-Adenine-Dinucleotide

$$$$
