
 OpenBabel10282417223D

 60 65  0  0  1  0  0  0  0  0999 V2000
    1.2294    0.0493   -0.0200 C   0  0  0  0  0  0  0  0  0  0  0  0
    0.6015   -0.9787    0.9335 C   0  0  0  0  0  0  0  0  0  0  0  0
    1.0677   -0.6482    2.3561 C   0  0  0  0  0  0  0  0  0  0  0  0
   -0.8772   -0.9905    0.9152 N   0  0  0  0  0  0  0  0  0  0  0  0
   -1.4555   -2.3822    0.8502 C   0  0  0  0  0  0  0  0  0  0  0  0
   -2.3209   -2.3766   -0.4384 C   0  0  2  0  0  0  0  0  0  0  0  0
   -1.4689   -1.4593   -1.3241 C   0  0  0  0  0  0  0  0  0  0  0  0
   -1.4884   -0.3385   -0.2845 C   0  0  1  0  0  0  0  0  0  0  0  0
   -3.0126   -0.1469   -0.0611 C   0  0  0  0  0  0  0  0  0  0  0  0
   -3.4966   -1.5161   -0.2658 N   0  0  0  0  0  0  0  0  0  0  0  0
   -4.7840   -1.8381    0.0207 C   0  0  0  0  0  0  0  0  0  0  0  0
   -5.1656   -2.7290    1.0212 C   0  0  0  0  0  0  0  0  0  0  0  0
   -6.5275   -2.9888    1.2869 C   0  0  0  0  0  0  0  0  0  0  0  0
   -7.5425   -2.3622    0.5484 C   0  0  0  0  0  0  0  0  0  0  0  0
   -8.8990   -2.7450    0.6831 N   0  0  0  0  0  0  0  0  0  0  0  0
   -9.9276   -2.1463   -0.0356 C   0  0  0  0  0  0  0  0  0  0  0  0
   -9.9431   -2.2528   -1.3502 N   0  0  0  0  0  0  0  0  0  0  0  0
  -10.9291   -1.6279   -2.0876 C   0  0  0  0  0  0  0  0  0  0  0  0
  -11.9256   -0.8776   -1.5741 C   0  0  0  0  0  0  0  0  0  0  0  0
  -11.9405   -0.7478   -0.1781 N   0  0  0  0  0  0  0  0  0  0  0  0
  -12.7695   -0.0501    0.6467 N   0  0  0  0  0  0  0  0  0  0  0  0
  -12.2641   -0.3162    1.8524 C   0  0  0  0  0  0  0  0  0  0  0  0
  -11.1733   -1.1378    1.8769 N   0  0  0  0  0  0  0  0  0  0  0  0
  -10.9899   -1.3843    0.5976 C   0  0  0  0  0  0  0  0  0  0  0  0
  -12.8613   -0.1736   -2.3958 C   0  0  0  0  0  0  0  0  0  0  0  0
  -13.7728   -0.6925   -3.2911 C   0  0  0  0  0  0  0  0  0  0  0  0
  -14.4678    0.3175   -3.9088 O   0  0  0  0  0  0  0  0  0  0  0  0
  -13.9860    1.4999   -3.3991 C   0  0  0  0  0  0  0  0  0  0  0  0
  -13.0018    1.2272   -2.4702 C   0  0  0  0  0  0  0  0  0  0  0  0
  -14.4656    2.7985   -3.8149 C   0  0  0  0  0  0  0  0  0  0  0  0
  -15.4526    2.8710   -4.7495 N   0  0  0  0  0  0  0  0  0  0  0  0
  -14.0134    3.8563   -3.3604 O   0  0  0  0  0  0  0  0  0  0  0  0
   -7.1455   -1.4346   -0.4165 C   0  0  0  0  0  0  0  0  0  0  0  0
   -5.8007   -1.2088   -0.6975 C   0  0  0  0  0  0  0  0  0  0  0  0
    0.8995    1.0650    0.2283 H   0  0  0  0  0  0  0  0  0  0  0  0
    0.9633   -0.1585   -1.0618 H   0  0  0  0  0  0  0  0  0  0  0  0
    2.3196    0.0280    0.0300 H   0  0  0  0  0  0  0  0  0  0  0  0
    1.0122   -1.9586    0.6606 H   0  0  0  0  0  0  0  0  0  0  0  0
    0.7213    0.3447    2.6680 H   0  0  0  0  0  0  0  0  0  0  0  0
    0.7087   -1.3803    3.0864 H   0  0  0  0  0  0  0  0  0  0  0  0
    2.1632   -0.6416    2.4037 H   0  0  0  0  0  0  0  0  0  0  0  0
   -0.6821   -3.1557    0.7678 H   0  0  0  0  0  0  0  0  0  0  0  0
   -2.0546   -2.5922    1.7410 H   0  0  0  0  0  0  0  0  0  0  0  0
   -2.5339   -3.3546   -0.8768 H   0  0  0  0  0  0  0  0  0  0  0  0
   -0.4757   -1.8626   -1.5484 H   0  0  0  0  0  0  0  0  0  0  0  0
   -1.9568   -1.1651   -2.2603 H   0  0  0  0  0  0  0  0  0  0  0  0
   -1.0552    0.6198   -0.5714 H   0  0  0  0  0  0  0  0  0  0  0  0
   -3.4212    0.5375   -0.8117 H   0  0  0  0  0  0  0  0  0  0  0  0
   -3.2188    0.2368    0.9453 H   0  0  0  0  0  0  0  0  0  0  0  0
   -4.4049   -3.2091    1.6302 H   0  0  0  0  0  0  0  0  0  0  0  0
   -6.7696   -3.6808    2.0895 H   0  0  0  0  0  0  0  0  0  0  0  0
   -9.1395   -3.1596    1.5737 H   0  0  0  0  0  0  0  0  0  0  0  0
  -10.8239   -1.7394   -3.1650 H   0  0  0  0  0  0  0  0  0  0  0  0
  -12.7113    0.1052    2.7452 H   0  0  0  0  0  0  0  0  0  0  0  0
  -14.0425   -1.6982   -3.5909 H   0  0  0  0  0  0  0  0  0  0  0  0
  -12.4530    1.9830   -1.9256 H   0  0  0  0  0  0  0  0  0  0  0  0
  -15.7630    3.7992   -5.0062 H   0  0  0  0  0  0  0  0  0  0  0  0
  -15.8797    2.0591   -5.1701 H   0  0  0  0  0  0  0  0  0  0  0  0
   -7.8742   -0.8695   -0.9873 H   0  0  0  0  0  0  0  0  0  0  0  0
   -5.5490   -0.5565   -1.5303 H   0  0  0  0  0  0  0  0  0  0  0  0
  1  2  1  0  0  0  0
  1 35  1  0  0  0  0
  1 36  1  0  0  0  0
  1 37  1  0  0  0  0
  2  3  1  0  0  0  0
  2  4  1  0  0  0  0
  2 38  1  0  0  0  0
  3 39  1  0  0  0  0
  3 40  1  0  0  0  0
  3 41  1  0  0  0  0
  4  5  1  0  0  0  0
  5 42  1  0  0  0  0
  5 43  1  0  0  0  0
  6  5  1  0  0  0  0
  6  7  1  0  0  0  0
  6 10  1  0  0  0  0
  6 44  1  6  0  0  0
  7 45  1  0  0  0  0
  7 46  1  0  0  0  0
  8  7  1  0  0  0  0
  8  4  1  0  0  0  0
  8  9  1  0  0  0  0
  8 47  1  6  0  0  0
  9 10  1  0  0  0  0
  9 48  1  0  0  0  0
  9 49  1  0  0  0  0
 10 11  1  0  0  0  0
 11 12  2  0  0  0  0
 11 34  1  0  0  0  0
 12 13  1  0  0  0  0
 12 50  1  0  0  0  0
 13 14  2  0  0  0  0
 13 51  1  0  0  0  0
 14 15  1  0  0  0  0
 14 33  1  0  0  0  0
 15 16  1  0  0  0  0
 15 52  1  0  0  0  0
 16 17  2  0  0  0  0
 16 24  1  0  0  0  0
 17 18  1  0  0  0  0
 18 19  2  0  0  0  0
 18 53  1  0  0  0  0
 19 20  1  0  0  0  0
 19 25  1  0  0  0  0
 20 21  1  0  0  0  0
 20 24  1  0  0  0  0
 21 22  2  0  0  0  0
 22 23  1  0  0  0  0
 22 54  1  0  0  0  0
 23 24  2  0  0  0  0
 25 26  2  0  0  0  0
 25 29  1  0  0  0  0
 26 27  1  0  0  0  0
 26 55  1  0  0  0  0
 27 28  1  0  0  0  0
 28 29  2  0  0  0  0
 28 30  1  0  0  0  0
 29 56  1  0  0  0  0
 30 31  1  0  0  0  0
 30 32  2  0  0  0  0
 31 57  1  0  0  0  0
 31 58  1  0  0  0  0
 33 34  2  0  0  0  0
 33 59  1  0  0  0  0
 34 60  1  0  0  0  0
M  END
>  <DRUGBANK_ID>
DB15190

>  <COMMON_NAME>
GLPG-0259

>  <CAS_NUMBER>
1195065-29-2

>  <UNII>
52EG7RFE6Y

$$$$
