
 OpenBabel10282417123D

 54 57  0  0  0  0  0  0  0  0999 V2000
    0.9408    0.0499    0.0716 C   0  0  0  0  0  0  0  0  0  0  0  0
    0.4378   -1.2467   -0.5106 C   0  0  0  0  0  0  0  0  0  0  0  0
    0.8277   -2.4730    0.2336 C   0  0  0  0  0  0  0  0  0  0  0  0
    0.4385   -3.7814    0.0057 C   0  0  0  0  0  0  0  0  0  0  0  0
   -0.4519   -4.2096   -1.0733 C   0  0  0  0  0  0  0  0  0  0  0  0
   -0.8740   -3.4451   -1.9372 O   0  0  0  0  0  0  0  0  0  0  0  0
   -0.9050   -5.6156   -1.1667 C   0  0  0  0  0  0  0  0  0  0  0  0
   -1.6936   -6.1612   -0.1519 C   0  0  0  0  0  0  0  0  0  0  0  0
   -2.2009   -7.4526   -0.2774 C   0  0  0  0  0  0  0  0  0  0  0  0
   -3.3328   -8.0386    1.1261 Br  0  0  0  0  0  0  0  0  0  0  0  0
   -1.9208   -8.2162   -1.4167 C   0  0  0  0  0  0  0  0  0  0  0  0
   -2.4242   -9.4841   -1.5655 O   0  0  0  0  0  0  0  0  0  0  0  0
   -1.1121   -7.6711   -2.4256 C   0  0  0  0  0  0  0  0  0  0  0  0
   -0.6527   -8.6609   -3.9804 Br  0  0  0  0  0  0  0  0  0  0  0  0
   -0.6201   -6.3644   -2.3122 C   0  0  0  0  0  0  0  0  0  0  0  0
    1.0378   -4.5120    1.0601 C   0  0  0  0  0  0  0  0  0  0  0  0
    1.7913   -3.6369    1.8401 C   0  0  0  0  0  0  0  0  0  0  0  0
    1.6628   -2.3775    1.3190 O   0  0  0  0  0  0  0  0  0  0  0  0
    2.5423   -4.0419    2.9670 C   0  0  0  0  0  0  0  0  0  0  0  0
    2.3613   -5.3763    3.3703 C   0  0  0  0  0  0  0  0  0  0  0  0
    1.4208   -6.1421    2.7179 C   0  0  0  0  0  0  0  0  0  0  0  0
    0.9495   -5.8291    1.4639 C   0  0  0  0  0  0  0  0  0  0  0  0
    3.3578   -6.1392    4.6500 S   0  0  0  0  0  0  0  0  0  0  0  0
    4.7430   -6.0085    4.2463 O   0  0  0  0  0  0  0  0  0  0  0  0
    2.9003   -5.5734    5.9017 O   0  0  0  0  0  0  0  0  0  0  0  0
    3.0514   -7.8194    4.7737 N   0  0  0  0  0  0  0  0  0  0  0  0
    2.4944   -8.6827    3.7771 C   0  0  0  0  0  0  0  0  0  0  0  0
    2.7852   -8.5600    2.4178 C   0  0  0  0  0  0  0  0  0  0  0  0
    1.9084   -9.1199    1.4725 C   0  0  0  0  0  0  0  0  0  0  0  0
    0.8784   -9.9813    1.8762 C   0  0  0  0  0  0  0  0  0  0  0  0
    0.6925  -10.2519    3.2280 C   0  0  0  0  0  0  0  0  0  0  0  0
    1.4718   -9.5656    4.1781 C   0  0  0  0  0  0  0  0  0  0  0  0
   -0.2328  -10.6083    0.6519 S   0  0  0  0  0  0  0  0  0  0  0  0
    0.0155  -12.2548    0.6131 N   0  0  0  0  0  0  0  0  0  0  0  0
   -1.6014  -10.4527    1.1061 O   0  0  0  0  0  0  0  0  0  0  0  0
    0.2120  -10.1263   -0.6233 O   0  0  0  0  0  0  0  0  0  0  0  0
    0.5795    0.1871    1.0951 H   0  0  0  0  0  0  0  0  0  0  0  0
    0.5759    0.8842   -0.5359 H   0  0  0  0  0  0  0  0  0  0  0  0
    2.0339    0.0792    0.0773 H   0  0  0  0  0  0  0  0  0  0  0  0
   -0.6587   -1.2077   -0.5477 H   0  0  0  0  0  0  0  0  0  0  0  0
    0.7909   -1.3448   -1.5438 H   0  0  0  0  0  0  0  0  0  0  0  0
   -1.8977   -5.5901    0.7510 H   0  0  0  0  0  0  0  0  0  0  0  0
   -2.7451   -9.7942   -0.6956 H   0  0  0  0  0  0  0  0  0  0  0  0
   -0.0302   -5.9246   -3.1139 H   0  0  0  0  0  0  0  0  0  0  0  0
    3.1613   -3.3477    3.5252 H   0  0  0  0  0  0  0  0  0  0  0  0
    1.0502   -7.0613    3.1273 H   0  0  0  0  0  0  0  0  0  0  0  0
    0.4311   -6.5937    0.9080 H   0  0  0  0  0  0  0  0  0  0  0  0
    3.6512   -8.2695    5.4686 H   0  0  0  0  0  0  0  0  0  0  0  0
    3.5284   -7.8418    2.0770 H   0  0  0  0  0  0  0  0  0  0  0  0
    1.9778   -8.7860    0.4358 H   0  0  0  0  0  0  0  0  0  0  0  0
   -0.0851  -10.9443    3.5450 H   0  0  0  0  0  0  0  0  0  0  0  0
    1.2017   -9.6535    5.2302 H   0  0  0  0  0  0  0  0  0  0  0  0
   -0.7316  -12.6450    0.0273 H   0  0  0  0  0  0  0  0  0  0  0  0
    0.9260  -12.4682    0.2127 H   0  0  0  0  0  0  0  0  0  0  0  0
  1  2  1  0  0  0  0
  1 37  1  0  0  0  0
  1 38  1  0  0  0  0
  1 39  1  0  0  0  0
  2  3  1  0  0  0  0
  2 40  1  0  0  0  0
  2 41  1  0  0  0  0
  3  4  2  0  0  0  0
  3 18  1  0  0  0  0
  4  5  1  0  0  0  0
  4 16  1  0  0  0  0
  5  6  2  0  0  0  0
  5  7  1  0  0  0  0
  7  8  2  0  0  0  0
  7 15  1  0  0  0  0
  8  9  1  0  0  0  0
  8 42  1  0  0  0  0
  9 10  1  0  0  0  0
  9 11  2  0  0  0  0
 11 12  1  0  0  0  0
 11 13  1  0  0  0  0
 12 43  1  0  0  0  0
 13 14  1  0  0  0  0
 13 15  2  0  0  0  0
 15 44  1  0  0  0  0
 16 17  2  0  0  0  0
 16 22  1  0  0  0  0
 17 18  1  0  0  0  0
 17 19  1  0  0  0  0
 19 20  2  0  0  0  0
 19 45  1  0  0  0  0
 20 21  1  0  0  0  0
 20 23  1  0  0  0  0
 21 22  2  0  0  0  0
 21 46  1  0  0  0  0
 22 47  1  0  0  0  0
 23 24  2  0  0  0  0
 23 25  2  0  0  0  0
 23 26  1  0  0  0  0
 26 27  1  0  0  0  0
 26 48  1  0  0  0  0
 27 28  2  0  0  0  0
 27 32  1  0  0  0  0
 28 29  1  0  0  0  0
 28 49  1  0  0  0  0
 29 30  2  0  0  0  0
 29 50  1  0  0  0  0
 30 31  1  0  0  0  0
 30 33  1  0  0  0  0
 31 32  2  0  0  0  0
 31 51  1  0  0  0  0
 32 52  1  0  0  0  0
 33 34  1  0  0  0  0
 33 35  2  0  0  0  0
 33 36  2  0  0  0  0
 34 53  1  0  0  0  0
 34 54  1  0  0  0  0
M  END
>  <DRUGBANK_ID>
DB02259

>  <SECONDARY_ACCESSION_NUMBERS>
EXPT00331

>  <COMMON_NAME>
3-(3,5-Dibromo-4-Hydroxy-Benzoyl)-2-Ethyl-Benzofuran-6-Sulfonic Acid (4-Sulfamoyl-Phenyl)-Amide

$$$$
