
 OpenBabel10282417243D

 66 68  0  0  1  0  0  0  0  0999 V2000
   -4.9512   -7.4920    7.4715 C   0  0  0  0  0  0  0  0  0  0  0  0
   -5.6026   -6.5085    8.3794 C   0  0  0  0  0  0  0  0  0  0  0  0
   -4.6309   -5.9782    9.4014 C   0  0  0  0  0  0  0  0  0  0  0  0
   -3.0436   -5.3731    9.1634 C   0  0  2  0  0  0  0  0  0  0  0  0
   -2.6587   -4.7542   10.4581 C   0  0  0  0  0  0  0  0  0  0  0  0
   -2.3090   -4.0358    8.3040 O   0  0  0  0  0  0  0  0  0  0  0  0
   -2.5838   -2.9319    7.4718 C   0  0  0  0  0  0  0  0  0  0  0  0
   -3.1485   -1.9466    7.9594 O   0  0  0  0  0  0  0  0  0  0  0  0
   -2.4640   -2.9937    5.8238 C   0  0  2  0  0  0  0  0  0  0  0  0
   -3.7753   -2.5090    5.0639 C   0  0  0  0  0  0  0  0  0  0  0  0
   -2.0445   -4.2202    5.1389 N   0  0  0  0  0  0  0  0  0  0  0  0
   -1.0251   -5.4084    5.5633 P   0  0  2  0  0  0  0  0  0  0  0  0
   -0.2394   -5.2887    4.2345 O   0  0  0  0  0  0  0  0  0  0  0  0
   -1.2289   -7.0254    5.2601 O   0  0  0  0  0  0  0  0  0  0  0  0
   -0.4985   -7.5442    4.0627 C   0  0  0  0  0  0  0  0  0  0  0  0
   -0.9855   -6.7578    2.7282 C   0  0  1  0  0  0  0  0  0  0  0  0
   -2.2506   -6.1413    3.0309 O   0  0  0  0  0  0  0  0  0  0  0  0
   -2.0750   -4.7370    2.6654 C   0  0  0  0  0  0  0  0  0  0  0  0
   -0.3221   -4.2436    2.6660 C   0  0  2  0  0  0  0  0  0  0  0  0
   -0.0015   -5.7072    2.0968 O   0  0  0  0  0  0  0  0  0  0  0  0
    0.9112   -3.7662    4.0594 N   0  0  0  0  0  0  0  0  0  0  0  0
    1.6182   -4.8736    5.0340 C   0  0  0  0  0  0  0  0  0  0  0  0
    1.5131   -4.8553    6.3867 C   0  0  0  0  0  0  0  0  0  0  0  0
    1.2108   -3.5504    6.9442 C   0  0  0  0  0  0  0  0  0  0  0  0
    1.3026   -3.4803    8.3189 N   0  0  0  0  0  0  0  0  0  0  0  0
    0.9008   -2.5443    6.2118 N   0  0  0  0  0  0  0  0  0  0  0  0
    0.7073   -2.5484    4.7861 C   0  0  0  0  0  0  0  0  0  0  0  0
    0.3448   -1.5741    4.2076 O   0  0  0  0  0  0  0  0  0  0  0  0
   -1.9030   -5.5421    7.0481 O   0  0  0  0  0  0  0  0  0  0  0  0
   -3.5816   -5.3642    6.5105 C   0  0  0  0  0  0  0  0  0  0  0  0
   -4.1359   -6.0750    5.3227 C   0  0  0  0  0  0  0  0  0  0  0  0
   -5.6182   -5.8850    5.0745 C   0  0  0  0  0  0  0  0  0  0  0  0
   -6.4153   -4.8491    5.7983 C   0  0  0  0  0  0  0  0  0  0  0  0
   -8.3113   -5.1872    6.1830 Br  0  0  0  0  0  0  0  0  0  0  0  0
   -5.8269   -3.9352    6.7083 C   0  0  0  0  0  0  0  0  0  0  0  0
   -4.5141   -4.2999    7.1373 C   0  0  0  0  0  0  0  0  0  0  0  0
   -3.8502   -7.5201    7.4069 H   0  0  0  0  0  0  0  0  0  0  0  0
   -5.1687   -6.7946    6.7466 H   0  0  0  0  0  0  0  0  0  0  0  0
   -5.4499   -8.2314    6.8509 H   0  0  0  0  0  0  0  0  0  0  0  0
   -5.8195   -5.5906    7.9187 H   0  0  0  0  0  0  0  0  0  0  0  0
   -6.6892   -6.6210    8.4775 H   0  0  0  0  0  0  0  0  0  0  0  0
   -5.2002   -5.2231    9.9412 H   0  0  0  0  0  0  0  0  0  0  0  0
   -4.5760   -6.9131    9.9713 H   0  0  0  0  0  0  0  0  0  0  0  0
   -2.4234   -6.2772    8.9568 H   0  0  0  0  0  0  0  0  0  0  0  0
   -3.3786   -4.9756   11.2329 H   0  0  0  0  0  0  0  0  0  0  0  0
   -1.6346   -5.0526   10.6781 H   0  0  0  0  0  0  0  0  0  0  0  0
   -2.6644   -3.6706   10.3162 H   0  0  0  0  0  0  0  0  0  0  0  0
   -1.7183   -2.2557    5.5781 H   0  0  0  0  0  0  0  0  0  0  0  0
   -3.6162   -2.3066    4.0013 H   0  0  0  0  0  0  0  0  0  0  0  0
   -4.5871   -3.2359    4.9835 H   0  0  0  0  0  0  0  0  0  0  0  0
   -4.2110   -1.6291    5.5369 H   0  0  0  0  0  0  0  0  0  0  0  0
   -2.8379   -4.6708    4.7246 H   0  0  0  0  0  0  0  0  0  0  0  0
    0.5971   -7.4768    4.1559 H   0  0  0  0  0  0  0  0  0  0  0  0
   -0.6421   -8.6368    4.0429 H   0  0  0  0  0  0  0  0  0  0  0  0
   -1.1616   -7.5572    1.9993 H   0  0  0  0  0  0  0  0  0  0  0  0
   -2.4933   -4.7806    1.6541 H   0  0  0  0  0  0  0  0  0  0  0  0
   -2.8760   -4.1401    3.1236 H   0  0  0  0  0  0  0  0  0  0  0  0
   -0.3415   -3.4162    1.9596 H   0  0  0  0  0  0  0  0  0  0  0  0
    1.6003   -5.9255    4.7329 H   0  0  0  0  0  0  0  0  0  0  0  0
    1.4024   -5.7558    7.0297 H   0  0  0  0  0  0  0  0  0  0  0  0
    1.6912   -4.2780    8.8199 H   0  0  0  0  0  0  0  0  0  0  0  0
    1.7194   -2.6074    8.6236 H   0  0  0  0  0  0  0  0  0  0  0  0
   -3.6445   -7.0090    4.9794 H   0  0  0  0  0  0  0  0  0  0  0  0
   -6.1800   -6.8390    4.8496 H   0  0  0  0  0  0  0  0  0  0  0  0
   -6.3444   -3.1801    7.3354 H   0  0  0  0  0  0  0  0  0  0  0  0
   -4.3755   -3.8575    8.1509 H   0  0  0  0  0  0  0  0  0  0  0  0
  1  2  1  0  0  0  0
  1 37  1  0  0  0  0
  1 38  1  0  0  0  0
  1 39  1  0  0  0  0
  2  3  1  0  0  0  0
  2 40  1  0  0  0  0
  2 41  1  0  0  0  0
  3 42  1  0  0  0  0
  3 43  1  0  0  0  0
  4  6  1  0  0  0  0
  4 44  1  6  0  0  0
  4  5  1  0  0  0  0
  4  3  1  0  0  0  0
  5 45  1  0  0  0  0
  5 46  1  0  0  0  0
  5 47  1  0  0  0  0
  6  7  1  0  0  0  0
  7  8  2  0  0  0  0
  9 11  1  0  0  0  0
  9 48  1  6  0  0  0
  9 10  1  0  0  0  0
  9  7  1  0  0  0  0
 10 49  1  0  0  0  0
 10 50  1  0  0  0  0
 10 51  1  0  0  0  0
 11 52  1  0  0  0  0
 12 14  1  0  0  0  0
 12 29  1  0  0  0  0
 12 13  2  1  0  0  0
 12 11  1  0  0  0  0
 14 15  1  0  0  0  0
 15 53  1  0  0  0  0
 15 54  1  0  0  0  0
 16 17  1  0  0  0  0
 16 20  1  0  0  0  0
 16 55  1  6  0  0  0
 16 15  1  0  0  0  0
 17 18  1  0  0  0  0
 18 56  1  0  0  0  0
 18 57  1  0  0  0  0
 19 18  1  0  0  0  0
 19 20  1  0  0  0  0
 19 58  1  6  0  0  0
 19 21  1  0  0  0  0
 21 22  1  0  0  0  0
 21 27  1  0  0  0  0
 22 23  2  0  0  0  0
 22 59  1  0  0  0  0
 23 24  1  0  0  0  0
 23 60  1  0  0  0  0
 24 25  1  0  0  0  0
 24 26  2  0  0  0  0
 25 61  1  0  0  0  0
 25 62  1  0  0  0  0
 26 27  1  0  0  0  0
 27 28  2  0  0  0  0
 29 30  1  0  0  0  0
 30 31  2  0  0  0  0
 30 36  1  0  0  0  0
 31 32  1  0  0  0  0
 31 63  1  0  0  0  0
 32 33  2  0  0  0  0
 32 64  1  0  0  0  0
 33 34  1  0  0  0  0
 33 35  1  0  0  0  0
 35 36  2  0  0  0  0
 35 65  1  0  0  0  0
 36 66  1  0  0  0  0
M  END
>  <DRUGBANK_ID>
DB18090

>  <COMMON_NAME>
Fostroxacitabine bralpamide

>  <CAS_NUMBER>
2129993-56-0

>  <UNII>
Q1I6YZ0NGF

>  <SYNONYMS>
Troxacitabine nucleotide prodrug miv-818

$$$$
