WBT
 OpenBabel10282417173D

 58 62  0  0  0  0  0  0  0  0999 V2000
    2.2014   -0.0615   -0.0665 F   0  0  0  0  0  0  0  0  0  0  0  0
    0.8634   -0.0207   -0.0233 C   0  0  0  0  0  0  0  0  0  0  0  0
    0.2306    1.2210   -0.0148 C   0  0  0  0  0  0  0  0  0  0  0  0
   -1.1451    1.3145    0.1551 C   0  0  0  0  0  0  0  0  0  0  0  0
   -1.8080    0.1166    0.4025 C   0  0  0  0  0  0  0  0  0  0  0  0
   -1.2515   -1.1452    0.1382 C   0  0  0  0  0  0  0  0  0  0  0  0
    0.1352   -1.2082   -0.0050 C   0  0  0  0  0  0  0  0  0  0  0  0
   -2.0777   -2.4096    0.0103 C   0  0  0  0  0  0  0  0  0  0  0  0
   -1.5014   -3.4904   -0.0027 O   0  0  0  0  0  0  0  0  0  0  0  0
   -3.4756   -2.4057   -0.0427 N   0  0  0  0  0  0  0  0  0  0  0  0
   -4.3601   -1.3276   -0.2157 C   0  0  0  0  0  0  0  0  0  0  0  0
   -4.0862   -0.3653   -1.1892 C   0  0  0  0  0  0  0  0  0  0  0  0
   -4.7123    0.8722   -1.1438 C   0  0  0  0  0  0  0  0  0  0  0  0
   -5.7151    1.1024   -0.1963 C   0  0  0  0  0  0  0  0  0  0  0  0
   -6.4782    2.2501    0.0795 C   0  0  0  0  0  0  0  0  0  0  0  0
   -7.3918    1.8824    1.0190 C   0  0  0  0  0  0  0  0  0  0  0  0
   -7.1096    0.6180    1.4732 N   0  0  0  0  0  0  0  0  0  0  0  0
   -7.8751   -0.0586    2.5193 C   0  0  0  0  0  0  0  0  0  0  0  0
   -7.9104    0.6772    3.8794 C   0  0  0  0  0  0  0  0  0  0  0  0
   -8.5715    2.0390    3.8209 C   0  0  0  0  0  0  0  0  0  0  0  0
   -9.8173    2.2123    3.1994 C   0  0  0  0  0  0  0  0  0  0  0  0
  -10.2044    3.4978    2.8491 C   0  0  0  0  0  0  0  0  0  0  0  0
   -9.5316    4.6071    3.2163 N   0  0  0  0  0  0  0  0  0  0  0  0
   -8.4056    4.4225    3.9386 C   0  0  0  0  0  0  0  0  0  0  0  0
   -7.8668    3.1774    4.2236 C   0  0  0  0  0  0  0  0  0  0  0  0
   -6.0837    0.0892    0.7029 C   0  0  0  0  0  0  0  0  0  0  0  0
   -5.4131   -1.1550    0.7069 C   0  0  0  0  0  0  0  0  0  0  0  0
   -1.7996    2.5183    0.0553 N   0  0  0  0  0  0  0  0  0  0  0  0
   -1.5984    3.3549   -1.1401 C   0  0  0  0  0  0  0  0  0  0  0  0
   -1.3754    4.7903   -0.6543 C   0  0  0  0  0  0  0  0  0  0  0  0
   -2.4955    5.2612    0.1213 O   0  0  0  0  0  0  0  0  0  0  0  0
   -2.7093    4.4144    1.2724 C   0  0  0  0  0  0  0  0  0  0  0  0
   -2.9573    2.9555    0.8513 C   0  0  0  0  0  0  0  0  0  0  0  0
    0.8293    2.1235   -0.0821 H   0  0  0  0  0  0  0  0  0  0  0  0
   -2.8289    0.1961    0.7333 H   0  0  0  0  0  0  0  0  0  0  0  0
    0.6615   -2.1561   -0.0761 H   0  0  0  0  0  0  0  0  0  0  0  0
   -3.8837   -3.3147    0.1436 H   0  0  0  0  0  0  0  0  0  0  0  0
   -3.2598   -0.4904   -1.8838 H   0  0  0  0  0  0  0  0  0  0  0  0
   -4.3565    1.6899   -1.7632 H   0  0  0  0  0  0  0  0  0  0  0  0
   -6.4282    3.2185   -0.4002 H   0  0  0  0  0  0  0  0  0  0  0  0
   -8.2053    2.4761    1.3849 H   0  0  0  0  0  0  0  0  0  0  0  0
   -8.8861   -0.1978    2.1181 H   0  0  0  0  0  0  0  0  0  0  0  0
   -7.4518   -1.0576    2.6650 H   0  0  0  0  0  0  0  0  0  0  0  0
   -8.4489    0.0721    4.6189 H   0  0  0  0  0  0  0  0  0  0  0  0
   -6.8795    0.7779    4.2443 H   0  0  0  0  0  0  0  0  0  0  0  0
  -10.4068    1.3694    2.8552 H   0  0  0  0  0  0  0  0  0  0  0  0
  -11.0527    3.6647    2.1901 H   0  0  0  0  0  0  0  0  0  0  0  0
   -7.9177    5.3327    4.2742 H   0  0  0  0  0  0  0  0  0  0  0  0
   -6.8920    3.1074    4.6953 H   0  0  0  0  0  0  0  0  0  0  0  0
   -5.6163   -1.8978    1.4716 H   0  0  0  0  0  0  0  0  0  0  0  0
   -2.4991    3.3143   -1.7704 H   0  0  0  0  0  0  0  0  0  0  0  0
   -0.7598    3.0219   -1.7596 H   0  0  0  0  0  0  0  0  0  0  0  0
   -0.4739    4.8404   -0.0333 H   0  0  0  0  0  0  0  0  0  0  0  0
   -1.2461    5.4604   -1.5079 H   0  0  0  0  0  0  0  0  0  0  0  0
   -3.5770    4.8077    1.8113 H   0  0  0  0  0  0  0  0  0  0  0  0
   -1.8350    4.4810    1.9282 H   0  0  0  0  0  0  0  0  0  0  0  0
   -3.8505    2.9718    0.2260 H   0  0  0  0  0  0  0  0  0  0  0  0
   -3.1446    2.3244    1.7251 H   0  0  0  0  0  0  0  0  0  0  0  0
  1  2  1  0  0  0  0
  2  3  2  0  0  0  0
  2  7  1  0  0  0  0
  3  4  1  0  0  0  0
  3 34  1  0  0  0  0
  4  5  2  0  0  0  0
  4 28  1  0  0  0  0
  5  6  1  0  0  0  0
  5 35  1  0  0  0  0
  6  7  2  0  0  0  0
  6  8  1  0  0  0  0
  7 36  1  0  0  0  0
  8  9  2  0  0  0  0
  8 10  1  0  0  0  0
 10 11  1  0  0  0  0
 10 37  1  0  0  0  0
 11 12  2  0  0  0  0
 11 27  1  0  0  0  0
 12 13  1  0  0  0  0
 12 38  1  0  0  0  0
 13 14  2  0  0  0  0
 13 39  1  0  0  0  0
 14 15  1  0  0  0  0
 14 26  1  0  0  0  0
 15 16  2  0  0  0  0
 15 40  1  0  0  0  0
 16 17  1  0  0  0  0
 16 41  1  0  0  0  0
 17 18  1  0  0  0  0
 17 26  1  0  0  0  0
 18 19  1  0  0  0  0
 18 42  1  0  0  0  0
 18 43  1  0  0  0  0
 19 20  1  0  0  0  0
 19 44  1  0  0  0  0
 19 45  1  0  0  0  0
 20 21  2  0  0  0  0
 20 25  1  0  0  0  0
 21 22  1  0  0  0  0
 21 46  1  0  0  0  0
 22 23  2  0  0  0  0
 22 47  1  0  0  0  0
 23 24  1  0  0  0  0
 24 25  2  0  0  0  0
 24 48  1  0  0  0  0
 25 49  1  0  0  0  0
 26 27  2  0  0  0  0
 27 50  1  0  0  0  0
 28 29  1  0  0  0  0
 28 33  1  0  0  0  0
 29 30  1  0  0  0  0
 29 51  1  0  0  0  0
 29 52  1  0  0  0  0
 30 31  1  0  0  0  0
 30 53  1  0  0  0  0
 30 54  1  0  0  0  0
 31 32  1  0  0  0  0
 32 33  1  0  0  0  0
 32 55  1  0  0  0  0
 32 56  1  0  0  0  0
 33 57  1  0  0  0  0
 33 58  1  0  0  0  0
M  END
>  <DRUGBANK_ID>
DB08730

>  <COMMON_NAME>
3-FLUORO-5-MORPHOLIN-4-YL-N-[1-(2-PYRIDIN-4-YLETHYL)-1H-INDOL-6-YL]BENZAMIDE

$$$$
