
 OpenBabel10282417123D

 56 60  0  0  1  0  0  0  0  0999 V2000
   -5.7892    3.5087   -2.9657 C   0  0  0  0  0  0  0  0  0  0  0  0
   -6.0597    2.1432   -2.8560 C   0  0  0  0  0  0  0  0  0  0  0  0
   -5.2953    4.1717   -1.8663 C   0  0  0  0  0  0  0  0  0  0  0  0
   -5.7273    1.4165   -1.6859 C   0  0  0  0  0  0  0  0  0  0  0  0
   -5.0949    3.4605   -0.6861 C   0  0  0  0  0  0  0  0  0  0  0  0
   -1.5928    3.6484   -1.7580 C   0  0  0  0  0  0  0  0  0  0  0  0
    0.4771    4.8561   -1.6020 C   0  0  0  0  0  0  0  0  0  0  0  0
   -0.7453    0.2098    5.3774 C   0  0  0  0  0  0  0  0  0  0  0  0
   -0.8935   -1.4082    3.5994 C   0  0  0  0  0  0  0  0  0  0  0  0
   -0.9671    2.5974   -2.4096 C   0  0  0  0  0  0  0  0  0  0  0  0
    1.1141    3.8129   -2.2771 C   0  0  0  0  0  0  0  0  0  0  0  0
   -0.0229   -0.7073    6.1619 C   0  0  0  0  0  0  0  0  0  0  0  0
   -0.1424   -2.3089    4.3649 C   0  0  0  0  0  0  0  0  0  0  0  0
   -4.7627    1.3969    0.7478 C   0  0  0  0  0  0  0  0  0  0  0  0
   -1.5008    5.6763   -0.2532 C   0  0  0  0  0  0  0  0  0  0  0  0
   -0.9683    1.9808    2.8954 C   0  0  0  0  0  0  0  0  0  0  0  0
   -5.1736    2.0685   -0.5769 C   0  0  0  0  0  0  0  0  0  0  0  0
   -0.8678    4.7337   -1.2545 C   0  0  0  0  0  0  0  0  0  0  0  0
   -1.1746   -0.1213    4.0735 C   0  0  0  0  0  0  0  0  0  0  0  0
    0.3930    2.6809   -2.6596 C   0  0  0  0  0  0  0  0  0  0  0  0
    0.2779   -1.9603    5.6422 C   0  0  0  0  0  0  0  0  0  0  0  0
   -3.2368    1.4247    1.1731 C   0  0  1  0  0  0  0  0  0  0  0  0
   -1.7246    0.8867    3.1292 C   0  0  0  0  0  0  0  0  0  0  0  0
   -2.5481    2.8257    1.3180 C   0  0  0  0  0  0  0  0  0  0  0  0
   -0.8662    4.2012    1.8272 C   0  0  0  0  0  0  0  0  0  0  0  0
   -1.9661    4.9960    1.0741 C   0  0  2  0  0  0  0  0  0  0  0  0
    1.2466    1.2688   -3.5743 Br  0  0  0  0  0  0  0  0  0  0  0  0
   -2.9319    0.6820    2.4449 N   0  0  0  0  0  0  0  0  0  0  0  0
   -2.9145    3.9106    0.7320 N   0  0  0  0  0  0  0  0  0  0  0  0
   -1.4188    2.9487    2.0423 N   0  0  0  0  0  0  0  0  0  0  0  0
    0.9763   -2.8917    6.3529 O   0  0  0  0  0  0  0  0  0  0  0  0
    0.2289    4.5995    2.1713 O   0  0  0  0  0  0  0  0  0  0  0  0
   -1.9277    7.2193    1.8853 O   0  0  0  0  0  0  0  0  0  0  0  0
   -2.6046    5.9334    1.9638 O   0  0  0  0  0  0  0  0  0  0  0  0
   -2.7049    0.8918    0.3704 H   0  0  0  0  0  0  0  0  0  0  0  0
   -5.9988    4.0656   -3.8746 H   0  0  0  0  0  0  0  0  0  0  0  0
   -6.5447    1.6476   -3.6938 H   0  0  0  0  0  0  0  0  0  0  0  0
   -5.0720    5.2354   -1.8838 H   0  0  0  0  0  0  0  0  0  0  0  0
   -5.9556    0.3533   -1.6637 H   0  0  0  0  0  0  0  0  0  0  0  0
   -4.8502    4.0578    0.1778 H   0  0  0  0  0  0  0  0  0  0  0  0
   -2.6587    3.5779   -1.5921 H   0  0  0  0  0  0  0  0  0  0  0  0
    1.0421    5.7440   -1.3258 H   0  0  0  0  0  0  0  0  0  0  0  0
   -0.9454    1.1969    5.7913 H   0  0  0  0  0  0  0  0  0  0  0  0
   -1.2171   -1.7035    2.6056 H   0  0  0  0  0  0  0  0  0  0  0  0
   -1.5552    1.7292   -2.6915 H   0  0  0  0  0  0  0  0  0  0  0  0
    2.1788    3.8831   -2.4757 H   0  0  0  0  0  0  0  0  0  0  0  0
    0.3136   -0.4192    7.1544 H   0  0  0  0  0  0  0  0  0  0  0  0
    0.1284   -3.2771    3.9532 H   0  0  0  0  0  0  0  0  0  0  0  0
   -5.3693    1.8527    1.5398 H   0  0  0  0  0  0  0  0  0  0  0  0
   -5.0974    0.3479    0.7018 H   0  0  0  0  0  0  0  0  0  0  0  0
   -2.3575    6.1763   -0.7294 H   0  0  0  0  0  0  0  0  0  0  0  0
   -0.7868    6.4802   -0.0326 H   0  0  0  0  0  0  0  0  0  0  0  0
   -0.0275    2.1828    3.3977 H   0  0  0  0  0  0  0  0  0  0  0  0
   -3.5225   -0.0867    2.7501 H   0  0  0  0  0  0  0  0  0  0  0  0
    1.1258   -2.5638    7.2548 H   0  0  0  0  0  0  0  0  0  0  0  0
   -2.6163    7.7312    2.3500 H   0  0  0  0  0  0  0  0  0  0  0  0
  1 36  1  0  0  0  0
  2  1  2  0  0  0  0
  2 37  1  0  0  0  0
  3  1  1  0  0  0  0
  3 38  1  0  0  0  0
  4  2  1  0  0  0  0
  4 39  1  0  0  0  0
  5  3  2  0  0  0  0
  5 40  1  0  0  0  0
  6 41  1  0  0  0  0
  7 42  1  0  0  0  0
  8 43  1  0  0  0  0
  9 44  1  0  0  0  0
 10  6  1  0  0  0  0
 10 45  1  0  0  0  0
 11  7  2  0  0  0  0
 11 46  1  0  0  0  0
 12  8  1  0  0  0  0
 12 47  1  0  0  0  0
 13  9  2  0  0  0  0
 13 48  1  0  0  0  0
 14 49  1  0  0  0  0
 14 50  1  0  0  0  0
 15 51  1  0  0  0  0
 15 52  1  0  0  0  0
 16 53  1  0  0  0  0
 17  4  2  0  0  0  0
 17  5  1  0  0  0  0
 17 14  1  0  0  0  0
 18  6  2  0  0  0  0
 18  7  1  0  0  0  0
 18 15  1  0  0  0  0
 19  8  2  0  0  0  0
 19  9  1  0  0  0  0
 20 10  2  0  0  0  0
 20 11  1  0  0  0  0
 21 12  2  0  0  0  0
 21 13  1  0  0  0  0
 22 35  1  6  0  0  0
 22 14  1  0  0  0  0
 23 16  2  0  0  0  0
 23 19  1  0  0  0  0
 24 22  1  0  0  0  0
 26 25  1  0  0  0  0
 26 34  1  1  0  0  0
 26 15  1  0  0  0  0
 27 20  1  0  0  0  0
 28 22  1  0  0  0  0
 28 23  1  0  0  0  0
 28 54  1  0  0  0  0
 29 24  2  0  0  0  0
 29 26  1  0  0  0  0
 30 16  1  0  0  0  0
 30 24  1  0  0  0  0
 30 25  1  0  0  0  0
 31 21  1  0  0  0  0
 31 55  1  0  0  0  0
 32 25  2  0  0  0  0
 33 56  1  0  0  0  0
 34 33  1  0  0  0  0
M  END
>  <DRUGBANK_ID>
DB02006

>  <SECONDARY_ACCESSION_NUMBERS>
EXPT01084

>  <COMMON_NAME>
Br-Coeleneterazine

$$$$
