
 OpenBabel10282417183D

 29 29  0  0  1  0  0  0  0  0999 V2000
    0.9015   -0.0616   -0.0686 C   0  0  0  0  0  0  0  0  0  0  0  0
    0.3985   -0.6324   -1.3692 C   0  0  0  0  0  0  0  0  0  0  0  0
   -0.3033   -1.6397   -1.4075 O   0  0  0  0  0  0  0  0  0  0  0  0
    0.7607   -0.0054   -2.5256 N   0  0  0  0  0  0  0  0  0  0  0  0
    1.5598    1.2129   -2.6604 C   0  0  1  0  0  0  0  0  0  0  0  0
    2.8504    0.9479   -3.4594 C   0  0  0  0  0  0  0  0  0  0  0  0
    2.6327    0.5369   -4.8979 C   0  0  0  0  0  0  0  0  0  0  0  0
    2.3631    1.5058   -5.8780 C   0  0  0  0  0  0  0  0  0  0  0  0
    2.0459    1.1353   -7.1840 C   0  0  0  0  0  0  0  0  0  0  0  0
    2.0782   -0.2089   -7.5303 C   0  0  0  0  0  0  0  0  0  0  0  0
    2.3704   -1.1823   -6.5816 C   0  0  0  0  0  0  0  0  0  0  0  0
    2.6314   -0.8144   -5.2618 C   0  0  0  0  0  0  0  0  0  0  0  0
    1.8330   -0.6235   -8.8052 O   0  0  0  0  0  0  0  0  0  0  0  0
    0.7290    2.3763   -3.2108 C   0  0  0  0  0  0  0  0  0  0  0  0
    0.7069    3.5100   -2.7435 O   0  0  0  0  0  0  0  0  0  0  0  0
    0.0878    2.1129   -4.3657 O   0  0  0  0  0  0  0  0  0  0  0  0
    0.5374   -0.6663    0.7662 H   0  0  0  0  0  0  0  0  0  0  0  0
    0.5314    0.9594    0.0618 H   0  0  0  0  0  0  0  0  0  0  0  0
    1.9952   -0.0744   -0.0500 H   0  0  0  0  0  0  0  0  0  0  0  0
    0.3687   -0.4064   -3.3730 H   0  0  0  0  0  0  0  0  0  0  0  0
    1.8743    1.5349   -1.6638 H   0  0  0  0  0  0  0  0  0  0  0  0
    3.4944    1.8356   -3.4416 H   0  0  0  0  0  0  0  0  0  0  0  0
    3.4230    0.1561   -2.9543 H   0  0  0  0  0  0  0  0  0  0  0  0
    2.3367    2.5600   -5.6108 H   0  0  0  0  0  0  0  0  0  0  0  0
    1.7687    1.9031   -7.8990 H   0  0  0  0  0  0  0  0  0  0  0  0
    2.3865   -2.2293   -6.8690 H   0  0  0  0  0  0  0  0  0  0  0  0
    2.8253   -1.5899   -4.5236 H   0  0  0  0  0  0  0  0  0  0  0  0
    1.6945    0.1559   -9.3670 H   0  0  0  0  0  0  0  0  0  0  0  0
   -0.1695    2.9808   -4.7424 H   0  0  0  0  0  0  0  0  0  0  0  0
  1  2  1  0  0  0  0
  1 17  1  0  0  0  0
  1 18  1  0  0  0  0
  1 19  1  0  0  0  0
  2  3  2  0  0  0  0
  2  4  1  0  0  0  0
  4 20  1  0  0  0  0
  5  4  1  0  0  0  0
  5  6  1  0  0  0  0
  5 14  1  0  0  0  0
  5 21  1  1  0  0  0
  6  7  1  0  0  0  0
  6 22  1  0  0  0  0
  6 23  1  0  0  0  0
  7  8  2  0  0  0  0
  7 12  1  0  0  0  0
  8  9  1  0  0  0  0
  8 24  1  0  0  0  0
  9 10  2  0  0  0  0
  9 25  1  0  0  0  0
 10 11  1  0  0  0  0
 10 13  1  0  0  0  0
 11 12  2  0  0  0  0
 11 26  1  0  0  0  0
 12 27  1  0  0  0  0
 13 28  1  0  0  0  0
 14 15  2  0  0  0  0
 14 16  1  0  0  0  0
 16 29  1  0  0  0  0
M  END
>  <DRUGBANK_ID>
DB11102

>  <COMMON_NAME>
N-acetyltyrosine

>  <CAS_NUMBER>
537-55-3

>  <UNII>
DA8G610ZO5

>  <SYNONYMS>
(+)-(2s)-2-(acetylamino)-3-(4-hydroxyphenyl)propanoic acid; (2s)-2-acetylamino-3-(4-hydroxyphenyl)propanoic acid; Acetyl tyrosine; L-N-acetyltyrosine; Melanowhite-A; N-acetyl-L-tyrosine; N-acetyl-tyrosine; N-acetyltyrosin

$$$$
