
 OpenBabel10282417203D

 27 28  0  0  0  0  0  0  0  0999 V2000
    0.9701   -0.7933    0.0022 C   0  0  0  0  0  0  0  0  0  0  0  0
    1.1113    0.6133    0.0026 C   0  0  0  0  0  0  0  0  0  0  0  0
   -0.1682    1.0992   -0.0067 C   0  0  0  0  0  0  0  0  0  0  0  0
   -1.0906    0.0909   -0.0100 O   0  0  0  0  0  0  0  0  0  0  0  0
   -0.3909   -1.1167   -0.0044 C   0  0  0  0  0  0  0  0  0  0  0  0
   -0.9620   -2.4366   -0.0074 C   0  0  0  0  0  0  0  0  0  0  0  0
   -2.2852   -2.6673   -0.0136 C   0  0  0  0  0  0  0  0  0  0  0  0
   -2.8510   -4.0552   -0.0233 C   0  0  0  0  0  0  0  0  0  0  0  0
   -4.1248   -4.2730   -0.1663 N   0  0  0  0  0  0  0  0  0  0  0  0
   -4.5578   -5.5796   -0.1366 N   0  0  0  0  0  0  0  0  0  0  0  0
   -5.6912   -6.0069   -0.9278 C   0  0  0  0  0  0  0  0  0  0  0  0
   -5.8001   -7.4567   -0.4927 C   0  0  0  0  0  0  0  0  0  0  0  0
   -6.6124   -8.2705   -0.9062 O   0  0  0  0  0  0  0  0  0  0  0  0
   -4.8440   -7.7183    0.4361 N   0  0  0  0  0  0  0  0  0  0  0  0
   -4.1106   -6.6038    0.7117 C   0  0  0  0  0  0  0  0  0  0  0  0
   -3.2289   -6.5541    1.5596 O   0  0  0  0  0  0  0  0  0  0  0  0
   -0.6269    2.4572   -0.0189 N   0  3  0  0  0  0  0  0  0  0  0  0
   -1.8444    2.6691   -0.0244 O   0  0  0  0  0  0  0  0  0  0  0  0
    0.2586    3.3270   -0.0254 O   0  5  0  0  0  0  0  0  0  0  0  0
    1.7827   -1.5076    0.0058 H   0  0  0  0  0  0  0  0  0  0  0  0
    2.0185    1.2036    0.0061 H   0  0  0  0  0  0  0  0  0  0  0  0
   -0.2627   -3.2705   -0.0104 H   0  0  0  0  0  0  0  0  0  0  0  0
   -3.0122   -1.8641   -0.0178 H   0  0  0  0  0  0  0  0  0  0  0  0
   -2.1171   -4.8797    0.0331 H   0  0  0  0  0  0  0  0  0  0  0  0
   -6.5957   -5.4510   -0.6722 H   0  0  0  0  0  0  0  0  0  0  0  0
   -5.4353   -5.9471   -1.9873 H   0  0  0  0  0  0  0  0  0  0  0  0
   -4.7197   -8.6078    0.8896 H   0  0  0  0  0  0  0  0  0  0  0  0
  1  2  1  0  0  0  0
  1  5  2  0  0  0  0
  1 20  1  0  0  0  0
  2  3  2  0  0  0  0
  2 21  1  0  0  0  0
  3  4  1  0  0  0  0
  3 17  1  0  0  0  0
  4  5  1  0  0  0  0
  5  6  1  0  0  0  0
  6  7  2  0  0  0  0
  6 22  1  0  0  0  0
  7  8  1  0  0  0  0
  7 23  1  0  0  0  0
  8  9  2  0  0  0  0
  8 24  1  0  0  0  0
  9 10  1  0  0  0  0
 10 11  1  0  0  0  0
 10 15  1  0  0  0  0
 11 12  1  0  0  0  0
 11 25  1  0  0  0  0
 11 26  1  0  0  0  0
 12 13  2  0  0  0  0
 12 14  1  0  0  0  0
 14 15  1  0  0  0  0
 14 27  1  0  0  0  0
 15 16  2  0  0  0  0
 17 18  2  0  0  0  0
 17 19  1  0  0  0  0
M  CHG  2  17   1  19  -1
M  END
>  <DRUGBANK_ID>
DB13475

>  <COMMON_NAME>
Furazidin

>  <CAS_NUMBER>
1672-88-4

>  <UNII>
K2R4N34Y9I

>  <SYNONYMS>
Furazidine

$$$$
