
 OpenBabel10282417203D

 44 46  0  0  0  0  0  0  0  0999 V2000
   -1.2806    1.1703    0.5556 C   0  0  0  0  0  0  0  0  0  0  0  0
   -2.4486    0.5353    0.1363 C   0  0  0  0  0  0  0  0  0  0  0  0
   -2.4385   -0.8353   -0.0014 C   0  0  0  0  0  0  0  0  0  0  0  0
   -1.2152   -1.4763   -0.0628 C   0  0  0  0  0  0  0  0  0  0  0  0
   -0.0669   -0.7006   -0.2501 C   0  0  0  0  0  0  0  0  0  0  0  0
   -0.0726    0.6139    0.1526 C   0  0  0  0  0  0  0  0  0  0  0  0
    1.1900   -1.2803   -0.7441 C   0  0  0  0  0  0  0  0  0  0  0  0
    2.3454   -0.5927   -0.3730 N   0  0  0  0  0  0  0  0  0  0  0  0
    2.3469    0.7702   -0.1222 N   0  0  0  0  0  0  0  0  0  0  0  0
    1.1948    1.3651    0.0133 C   0  0  0  0  0  0  0  0  0  0  0  0
    3.6088   -1.3249   -0.2406 C   0  0  0  0  0  0  0  0  0  0  0  0
    3.7576   -2.1972    1.0631 C   0  0  0  0  0  0  0  0  0  0  0  0
    2.7316   -3.2373    1.3084 N   0  0  0  0  0  0  0  0  0  0  0  0
    3.0833   -4.1794    2.3647 C   0  0  0  0  0  0  0  0  0  0  0  0
    1.4703   -2.6680    1.7595 C   0  0  0  0  0  0  0  0  0  0  0  0
    1.1484   -2.4030   -1.2735 O   0  0  0  0  0  0  0  0  0  0  0  0
    1.1524    2.8871   -0.0071 C   0  0  0  0  0  0  0  0  0  0  0  0
    0.3934    3.5031   -1.1811 C   0  0  0  0  0  0  0  0  0  0  0  0
   -0.9733    3.3031   -1.4156 C   0  0  0  0  0  0  0  0  0  0  0  0
   -1.7637    4.0334   -2.2787 C   0  0  0  0  0  0  0  0  0  0  0  0
   -1.1332    4.8848   -3.1387 C   0  0  0  0  0  0  0  0  0  0  0  0
    0.2606    4.9825   -3.0903 C   0  0  0  0  0  0  0  0  0  0  0  0
    1.0143    4.3573   -2.0793 C   0  0  0  0  0  0  0  0  0  0  0  0
   -1.3394    2.2015    0.9002 H   0  0  0  0  0  0  0  0  0  0  0  0
   -3.3300    1.1102   -0.1471 H   0  0  0  0  0  0  0  0  0  0  0  0
   -3.3669   -1.3852   -0.1014 H   0  0  0  0  0  0  0  0  0  0  0  0
   -1.1612   -2.5597   -0.0374 H   0  0  0  0  0  0  0  0  0  0  0  0
    3.7180   -1.9674   -1.1212 H   0  0  0  0  0  0  0  0  0  0  0  0
    4.4306   -0.5967   -0.2611 H   0  0  0  0  0  0  0  0  0  0  0  0
    4.7361   -2.6920    0.9714 H   0  0  0  0  0  0  0  0  0  0  0  0
    3.8259   -1.5384    1.9371 H   0  0  0  0  0  0  0  0  0  0  0  0
    3.1084   -3.6724    3.3367 H   0  0  0  0  0  0  0  0  0  0  0  0
    2.3052   -4.9541    2.4125 H   0  0  0  0  0  0  0  0  0  0  0  0
    4.0365   -4.6796    2.1964 H   0  0  0  0  0  0  0  0  0  0  0  0
    1.4425   -2.3772    2.8094 H   0  0  0  0  0  0  0  0  0  0  0  0
    1.2990   -1.7156    1.3228 H   0  0  0  0  0  0  0  0  0  0  0  0
    0.6390   -3.3325    1.5026 H   0  0  0  0  0  0  0  0  0  0  0  0
    0.7356    3.2492    0.9424 H   0  0  0  0  0  0  0  0  0  0  0  0
    2.1921    3.2475   -0.0129 H   0  0  0  0  0  0  0  0  0  0  0  0
   -1.5460    2.5123   -1.0079 H   0  0  0  0  0  0  0  0  0  0  0  0
   -2.8364    3.8557   -2.2830 H   0  0  0  0  0  0  0  0  0  0  0  0
   -1.7293    5.4192   -3.8667 H   0  0  0  0  0  0  0  0  0  0  0  0
    0.7672    5.5576   -3.8554 H   0  0  0  0  0  0  0  0  0  0  0  0
    2.0857    4.5297   -2.0226 H   0  0  0  0  0  0  0  0  0  0  0  0
  1  2  2  0  0  0  0
  1 24  1  0  0  0  0
  2  3  1  0  0  0  0
  2 25  1  0  0  0  0
  3  4  2  0  0  0  0
  3 26  1  0  0  0  0
  4  5  1  0  0  0  0
  4 27  1  0  0  0  0
  5  6  2  0  0  0  0
  5  7  1  0  0  0  0
  6  1  1  0  0  0  0
  6 10  1  0  0  0  0
  7  8  1  0  0  0  0
  7 16  2  0  0  0  0
  8  9  1  0  0  0  0
  8 11  1  0  0  0  0
  9 10  2  0  0  0  0
 10 17  1  0  0  0  0
 11 12  1  0  0  0  0
 11 28  1  0  0  0  0
 11 29  1  0  0  0  0
 12 13  1  0  0  0  0
 12 30  1  0  0  0  0
 12 31  1  0  0  0  0
 13 14  1  0  0  0  0
 13 15  1  0  0  0  0
 14 32  1  0  0  0  0
 14 33  1  0  0  0  0
 14 34  1  0  0  0  0
 15 35  1  0  0  0  0
 15 36  1  0  0  0  0
 15 37  1  0  0  0  0
 17 18  1  0  0  0  0
 17 38  1  0  0  0  0
 17 39  1  0  0  0  0
 18 19  2  0  0  0  0
 19 20  1  0  0  0  0
 19 40  1  0  0  0  0
 20 21  2  0  0  0  0
 20 41  1  0  0  0  0
 21 22  1  0  0  0  0
 21 42  1  0  0  0  0
 22 23  2  0  0  0  0
 22 43  1  0  0  0  0
 23 18  1  0  0  0  0
 23 44  1  0  0  0  0
M  END
>  <DRUGBANK_ID>
DB13349

>  <COMMON_NAME>
Talastine

>  <CAS_NUMBER>
16188-61-7

>  <UNII>
49AB2PA48B

>  <SYNONYMS>
Talastine

$$$$
