CLT
 OpenBabel10282417163D

 24 24  0  0  0  0  0  0  0  0999 V2000
    1.1309   -0.0709    0.0632 C   0  0  0  0  0  0  0  0  0  0  0  0
    0.5068    1.0278    0.9606 C   0  0  0  0  0  0  0  0  0  0  0  0
    0.8314    2.4814    0.5698 C   0  0  0  0  0  0  0  0  0  0  0  0
    0.1231    2.9506   -0.6862 C   0  0  0  0  0  0  0  0  0  0  0  0
   -0.7897    2.1263   -1.3588 C   0  0  0  0  0  0  0  0  0  0  0  0
    0.4239    4.1787   -1.2709 C   0  0  0  0  0  0  0  0  0  0  0  0
   -1.0672    2.3108   -2.7062 C   0  0  0  0  0  0  0  0  0  0  0  0
   -0.0972    4.4894   -2.5326 C   0  0  0  0  0  0  0  0  0  0  0  0
   -0.7323    3.5106   -3.2966 C   0  0  0  0  0  0  0  0  0  0  0  0
    0.9152   -0.0501   -1.4356 C   0  0  0  0  0  0  0  0  0  0  0  0
    0.0391   -0.6649   -2.0433 O   0  0  0  0  0  0  0  0  0  0  0  0
    1.7117    0.8429   -2.0573 O   0  0  0  0  0  0  0  0  0  0  0  0
    0.7390   -1.0352    0.4058 H   0  0  0  0  0  0  0  0  0  0  0  0
    2.2126   -0.0920    0.2157 H   0  0  0  0  0  0  0  0  0  0  0  0
   -0.5818    0.9112    1.0454 H   0  0  0  0  0  0  0  0  0  0  0  0
    0.8751    0.8574    1.9811 H   0  0  0  0  0  0  0  0  0  0  0  0
    0.5541    3.1541    1.3919 H   0  0  0  0  0  0  0  0  0  0  0  0
    1.9229    2.5625    0.4533 H   0  0  0  0  0  0  0  0  0  0  0  0
   -1.1569    1.2056   -0.9162 H   0  0  0  0  0  0  0  0  0  0  0  0
    1.0672    4.8938   -0.7633 H   0  0  0  0  0  0  0  0  0  0  0  0
   -1.4971    1.4876   -3.2743 H   0  0  0  0  0  0  0  0  0  0  0  0
    0.0219    5.4875   -2.9395 H   0  0  0  0  0  0  0  0  0  0  0  0
   -0.9837    3.6829   -4.3375 H   0  0  0  0  0  0  0  0  0  0  0  0
    1.2051    1.1762   -2.8323 H   0  0  0  0  0  0  0  0  0  0  0  0
  1  2  1  0  0  0  0
  1 10  1  0  0  0  0
  1 13  1  0  0  0  0
  1 14  1  0  0  0  0
  2  3  1  0  0  0  0
  2 15  1  0  0  0  0
  2 16  1  0  0  0  0
  3  4  1  0  0  0  0
  3 17  1  0  0  0  0
  3 18  1  0  0  0  0
  4  5  2  0  0  0  0
  4  6  1  0  0  0  0
  5  7  1  0  0  0  0
  5 19  1  0  0  0  0
  6  8  2  0  0  0  0
  6 20  1  0  0  0  0
  7  9  2  0  0  0  0
  7 21  1  0  0  0  0
  8  9  1  0  0  0  0
  8 22  1  0  0  0  0
  9 23  1  0  0  0  0
 10 11  2  0  0  0  0
 10 12  1  0  0  0  0
 12 24  1  0  0  0  0
M  END
>  <DRUGBANK_ID>
DB06819

>  <SECONDARY_ACCESSION_NUMBERS>
EXPT00947; DB02000; DB12600

>  <COMMON_NAME>
Phenylbutyric acid

>  <CAS_NUMBER>
1821-12-1

>  <UNII>
7WY7YBI87E

>  <SYNONYMS>
4-Phenyl-n-butyric acid; 4-phenylbutyrate; 4-phenylbutyric acid; Benzenebutyric acid; PBA; Phenylbutyrate; γ-Phenyl-n-butyric acid; γ-phenylbutyric acid; ω-Phenylbutanoic acid; ω-phenylbutyric acid

$$$$
