
 OpenBabel10282417123D

 69 70  0  0  1  0  0  0  0  0999 V2000
   -5.1832   -8.0304    6.2629 C   0  0  0  0  0  0  0  0  0  0  0  0
   -5.6179   -7.6274    4.8796 C   0  0  0  0  0  0  0  0  0  0  0  0
   -4.9657   -6.2854    4.6583 C   0  0  0  0  0  0  0  0  0  0  0  0
   -3.3943   -6.3875    4.5429 C   0  0  0  0  0  0  0  0  0  0  0  0
   -2.6978   -7.4439    3.5636 C   0  0  0  0  0  0  0  0  0  0  0  0
   -2.8686   -7.5259    2.0245 C   0  0  0  0  0  0  0  0  0  0  0  0
   -2.3277   -6.4539    1.0198 C   0  0  0  0  0  0  0  0  0  0  0  0
   -0.7276   -5.1100   -0.2356 C   0  0  0  0  0  0  0  0  0  0  0  0
   -8.6005   -4.5027   -0.3297 C   0  0  0  0  0  0  0  0  0  0  0  0
   -5.0398   -2.8692   -0.9516 C   0  0  0  0  0  0  0  0  0  0  0  0
   -0.9592   -5.8774    1.0966 C   0  0  2  0  0  0  0  0  0  0  0  0
   -1.7524   -4.0048   -0.7244 C   0  0  2  0  0  0  0  0  0  0  0  0
   -7.2243   -4.7769    0.2226 C   0  0  2  0  0  0  0  0  0  0  0  0
   -6.5840   -6.1440   -0.2330 C   0  0  2  0  0  0  0  0  0  0  0  0
   -1.5234   -2.6057   -0.1863 C   0  0  2  0  0  0  0  0  0  0  0  0
   -5.1263   -6.3163    0.2269 C   0  0  1  0  0  0  0  0  0  0  0  0
   -5.0350   -5.6001    1.6334 C   0  0  2  0  0  0  0  0  0  0  0  0
   -2.9012   -1.9388   -0.2545 C   0  0  1  0  0  0  0  0  0  0  0  0
   -5.4918   -4.1722    1.7217 C   0  0  2  0  0  0  0  0  0  0  0  0
   -3.8804   -3.0894   -0.0190 C   0  0  2  0  0  0  0  0  0  0  0  0
   -8.9471   -3.1496    0.0091 O   0  0  0  0  0  0  0  0  0  0  0  0
   -5.4040   -4.1535   -1.3811 O   0  0  0  0  0  0  0  0  0  0  0  0
   -0.1058   -6.9989    1.2179 O   0  0  0  0  0  0  0  0  0  0  0  0
   -6.6610   -6.3451   -1.6620 O   0  0  0  0  0  0  0  0  0  0  0  0
   -0.5793   -1.9298   -1.0106 O   0  0  0  0  0  0  0  0  0  0  0  0
   -4.7691   -7.7126   -0.0012 O   0  0  0  0  0  0  0  0  0  0  0  0
   -3.9108   -5.4362    2.4693 O   0  0  0  0  0  0  0  0  0  0  0  0
   -3.0709   -0.8449    0.6271 O   0  0  0  0  0  0  0  0  0  0  0  0
   -6.8963   -4.1557    1.4693 O   0  0  0  0  0  0  0  0  0  0  0  0
   -3.1410   -4.2536   -0.4811 O   0  0  0  0  0  0  0  0  0  0  0  0
   -4.4274   -3.1868    1.3252 O   0  0  0  0  0  0  0  0  0  0  0  0
   -0.8341   -5.2027    1.9552 H   0  0  0  0  0  0  0  0  0  0  0  0
   -1.6506   -4.0127   -1.8220 H   0  0  0  0  0  0  0  0  0  0  0  0
   -6.8617   -3.9657   -0.3369 H   0  0  0  0  0  0  0  0  0  0  0  0
   -7.1477   -6.9927    0.1691 H   0  0  0  0  0  0  0  0  0  0  0  0
   -1.1630   -2.6331    0.8434 H   0  0  0  0  0  0  0  0  0  0  0  0
   -4.4101   -5.9198   -0.4658 H   0  0  0  0  0  0  0  0  0  0  0  0
   -5.6962   -6.2817    2.1615 H   0  0  0  0  0  0  0  0  0  0  0  0
   -3.0390   -1.5528   -1.2761 H   0  0  0  0  0  0  0  0  0  0  0  0
   -5.4884   -3.9262    2.7998 H   0  0  0  0  0  0  0  0  0  0  0  0
   -4.0972   -8.1446    6.3031 H   0  0  0  0  0  0  0  0  0  0  0  0
   -5.6281   -8.9690    6.5704 H   0  0  0  0  0  0  0  0  0  0  0  0
   -5.4557   -7.2310    6.9626 H   0  0  0  0  0  0  0  0  0  0  0  0
   -5.3162   -8.3425    4.1054 H   0  0  0  0  0  0  0  0  0  0  0  0
   -6.7112   -7.5465    4.8090 H   0  0  0  0  0  0  0  0  0  0  0  0
   -5.5221   -5.8329    3.8557 H   0  0  0  0  0  0  0  0  0  0  0  0
   -5.2285   -5.5640    5.4450 H   0  0  0  0  0  0  0  0  0  0  0  0
   -2.9815   -5.3779    4.4090 H   0  0  0  0  0  0  0  0  0  0  0  0
   -3.0215   -6.6237    5.5434 H   0  0  0  0  0  0  0  0  0  0  0  0
   -1.6241   -7.4056    3.7392 H   0  0  0  0  0  0  0  0  0  0  0  0
   -3.0511   -8.4255    3.9025 H   0  0  0  0  0  0  0  0  0  0  0  0
   -2.5032   -8.4759    1.6264 H   0  0  0  0  0  0  0  0  0  0  0  0
   -3.9431   -7.6743    1.9404 H   0  0  0  0  0  0  0  0  0  0  0  0
   -2.5125   -6.8119    0.0012 H   0  0  0  0  0  0  0  0  0  0  0  0
   -2.8397   -5.5261    1.0003 H   0  0  0  0  0  0  0  0  0  0  0  0
    0.2893   -4.7044   -0.2378 H   0  0  0  0  0  0  0  0  0  0  0  0
   -0.7139   -5.8942   -1.0092 H   0  0  0  0  0  0  0  0  0  0  0  0
   -8.5062   -4.5503   -1.4248 H   0  0  0  0  0  0  0  0  0  0  0  0
   -9.3664   -5.1886    0.0124 H   0  0  0  0  0  0  0  0  0  0  0  0
   -5.8333   -2.3047   -0.4151 H   0  0  0  0  0  0  0  0  0  0  0  0
   -4.8810   -2.4252   -1.9175 H   0  0  0  0  0  0  0  0  0  0  0  0
   -8.4095   -2.9234    0.7972 H   0  0  0  0  0  0  0  0  0  0  0  0
   -4.5464   -4.5791   -1.7183 H   0  0  0  0  0  0  0  0  0  0  0  0
   -0.6179   -7.7629    0.8839 H   0  0  0  0  0  0  0  0  0  0  0  0
   -5.7893   -6.1066   -2.0399 H   0  0  0  0  0  0  0  0  0  0  0  0
   -0.9191   -1.9266   -1.9258 H   0  0  0  0  0  0  0  0  0  0  0  0
   -5.2162   -8.3340    0.5926 H   0  0  0  0  0  0  0  0  0  0  0  0
   -3.4228   -4.5903    2.4133 H   0  0  0  0  0  0  0  0  0  0  0  0
   -3.2628   -1.2175    1.5070 H   0  0  0  0  0  0  0  0  0  0  0  0
  1 41  1  0  0  0  0
  1 42  1  0  0  0  0
  1 43  1  0  0  0  0
  2  1  1  0  0  0  0
  2 44  1  0  0  0  0
  2 45  1  0  0  0  0
  3  2  1  0  0  0  0
  3 46  1  0  0  0  0
  3 47  1  0  0  0  0
  4  3  1  0  0  0  0
  4 48  1  0  0  0  0
  4 49  1  0  0  0  0
  5  4  1  0  0  0  0
  5 50  1  0  0  0  0
  5 51  1  0  0  0  0
  6  5  1  0  0  0  0
  6 52  1  0  0  0  0
  6 53  1  0  0  0  0
  7  6  1  0  0  0  0
  7 54  1  0  0  0  0
  7 55  1  0  0  0  0
  8 56  1  0  0  0  0
  8 57  1  0  0  0  0
  9 58  1  0  0  0  0
  9 59  1  0  0  0  0
 10 60  1  0  0  0  0
 10 61  1  0  0  0  0
 11 23  1  0  0  0  0
 11 32  1  1  0  0  0
 11  8  1  0  0  0  0
 11  7  1  0  0  0  0
 12  8  1  0  0  0  0
 12 33  1  6  0  0  0
 13  9  1  0  0  0  0
 13 34  1  6  0  0  0
 14 13  1  0  0  0  0
 14 24  1  0  0  0  0
 14 35  1  1  0  0  0
 15 12  1  0  0  0  0
 15 25  1  0  0  0  0
 15 36  1  1  0  0  0
 16 14  1  0  0  0  0
 16 26  1  0  0  0  0
 16 37  1  6  0  0  0
 17 16  1  0  0  0  0
 17 27  1  0  0  0  0
 17 38  1  1  0  0  0
 18 15  1  0  0  0  0
 18 28  1  0  0  0  0
 18 39  1  6  0  0  0
 19 17  1  0  0  0  0
 19 31  1  0  0  0  0
 19 40  1  1  0  0  0
 20 10  1  0  0  0  0
 20 18  1  0  0  0  0
 20 31  1  1  0  0  0
 21  9  1  0  0  0  0
 21 62  1  0  0  0  0
 22 10  1  0  0  0  0
 22 63  1  0  0  0  0
 23 64  1  0  0  0  0
 24 65  1  0  0  0  0
 25 66  1  0  0  0  0
 26 67  1  0  0  0  0
 27 68  1  0  0  0  0
 28 69  1  0  0  0  0
 29 13  1  0  0  0  0
 29 19  1  0  0  0  0
 30 12  1  0  0  0  0
 30 20  1  0  0  0  0
M  END
>  <DRUGBANK_ID>
DB01998

>  <SECONDARY_ACCESSION_NUMBERS>
EXPT02980

>  <COMMON_NAME>
2-[3,4-Dihydroxy-2-Hydroxymethyl-5-(2-Hydroxy-Nonyl)-Tetrahydro-Furan-2-Yloxy]-6-Hydroxymethyl-Tetra Hydro-Pyran-3,4,5-Triol

$$$$
