
 OpenBabel10282417223D

 47 50  0  0  1  0  0  0  0  0999 V2000
   -2.5002    0.6285   -3.2157 C   0  0  0  0  0  0  0  0  0  0  0  0
   -2.0126    1.5651   -4.2018 N   0  0  0  0  0  0  0  0  0  0  0  0
   -0.7890    1.6115   -4.8039 C   0  0  0  0  0  0  0  0  0  0  0  0
   -0.5675    2.4613   -5.6638 O   0  0  0  0  0  0  0  0  0  0  0  0
    0.2476    0.5937   -4.4081 C   0  0  0  0  0  0  0  0  0  0  0  0
    0.6676    0.7329   -2.9311 C   0  0  1  0  0  0  0  0  0  0  0  0
    1.1961   -0.5928   -2.3880 C   0  0  0  0  0  0  0  0  0  0  0  0
    2.2856   -1.0653   -3.1779 O   0  0  0  0  0  0  0  0  0  0  0  0
    3.2203   -0.0811   -3.4266 C   0  0  0  0  0  0  0  0  0  0  0  0
    3.0005    1.3050   -3.1982 C   0  0  0  0  0  0  0  0  0  0  0  0
    4.0395    2.1872   -3.5053 C   0  0  0  0  0  0  0  0  0  0  0  0
    5.2540    1.7165   -4.0141 C   0  0  0  0  0  0  0  0  0  0  0  0
    5.4372    0.3583   -4.2319 C   0  0  0  0  0  0  0  0  0  0  0  0
    6.6062   -0.0798   -4.7165 F   0  0  0  0  0  0  0  0  0  0  0  0
    4.4268   -0.5481   -3.9537 C   0  0  0  0  0  0  0  0  0  0  0  0
    1.7088    1.7560   -2.7327 N   0  0  0  0  0  0  0  0  0  0  0  0
    1.4753    3.0347   -2.1825 C   0  0  0  0  0  0  0  0  0  0  0  0
    2.3278    3.9051   -2.0143 O   0  0  0  0  0  0  0  0  0  0  0  0
    0.1124    3.4090   -1.6924 C   0  0  0  0  0  0  0  0  0  0  0  0
   -0.5095    2.7017   -0.6516 C   0  0  0  0  0  0  0  0  0  0  0  0
   -1.7737    3.0941   -0.2016 C   0  0  0  0  0  0  0  0  0  0  0  0
   -2.4024    4.2275   -0.7427 C   0  0  0  0  0  0  0  0  0  0  0  0
   -3.6327    4.6809   -0.3251 O   0  0  0  0  0  0  0  0  0  0  0  0
   -4.3363    3.7229    0.4604 C   0  0  0  0  0  0  0  0  0  0  0  0
   -3.4633    3.0041    1.4723 C   0  0  0  0  0  0  0  0  0  0  0  0
   -3.7077    2.8943    2.6714 O   0  0  0  0  0  0  0  0  0  0  0  0
   -2.3788    2.4100    0.8664 N   0  0  0  0  0  0  0  0  0  0  0  0
   -1.7512    4.9781   -1.7191 C   0  0  0  0  0  0  0  0  0  0  0  0
   -0.4973    4.5695   -2.1952 C   0  0  0  0  0  0  0  0  0  0  0  0
   -1.7767   -0.1554   -2.9923 H   0  0  0  0  0  0  0  0  0  0  0  0
   -3.4057    0.1546   -3.5911 H   0  0  0  0  0  0  0  0  0  0  0  0
   -2.7220    1.1873   -2.3042 H   0  0  0  0  0  0  0  0  0  0  0  0
   -2.6433    2.2898   -4.5294 H   0  0  0  0  0  0  0  0  0  0  0  0
   -0.1767   -0.3982   -4.6090 H   0  0  0  0  0  0  0  0  0  0  0  0
    1.0994    0.7015   -5.0902 H   0  0  0  0  0  0  0  0  0  0  0  0
   -0.1861    0.9990   -2.3239 H   0  0  0  0  0  0  0  0  0  0  0  0
    1.5231   -0.4973   -1.3442 H   0  0  0  0  0  0  0  0  0  0  0  0
    0.4048   -1.3516   -2.4066 H   0  0  0  0  0  0  0  0  0  0  0  0
    3.9253    3.2606   -3.4037 H   0  0  0  0  0  0  0  0  0  0  0  0
    6.0506    2.4143   -4.2513 H   0  0  0  0  0  0  0  0  0  0  0  0
    4.5874   -1.6049   -4.1414 H   0  0  0  0  0  0  0  0  0  0  0  0
    0.0028    1.8651   -0.1868 H   0  0  0  0  0  0  0  0  0  0  0  0
   -4.7548    2.9550   -0.2065 H   0  0  0  0  0  0  0  0  0  0  0  0
   -5.1831    4.1993    0.9658 H   0  0  0  0  0  0  0  0  0  0  0  0
   -1.8771    1.7041    1.3869 H   0  0  0  0  0  0  0  0  0  0  0  0
   -2.2146    5.8824   -2.1080 H   0  0  0  0  0  0  0  0  0  0  0  0
    0.0076    5.1681   -2.9523 H   0  0  0  0  0  0  0  0  0  0  0  0
  1  2  1  0  0  0  0
  1 30  1  0  0  0  0
  1 31  1  0  0  0  0
  1 32  1  0  0  0  0
  2  3  1  0  0  0  0
  2 33  1  0  0  0  0
  3  4  2  0  0  0  0
  3  5  1  0  0  0  0
  5 34  1  0  0  0  0
  5 35  1  0  0  0  0
  6  7  1  0  0  0  0
  6 16  1  0  0  0  0
  6 36  1  1  0  0  0
  6  5  1  0  0  0  0
  7  8  1  0  0  0  0
  7 37  1  0  0  0  0
  7 38  1  0  0  0  0
  8  9  1  0  0  0  0
  9 10  2  0  0  0  0
  9 15  1  0  0  0  0
 10 11  1  0  0  0  0
 10 16  1  0  0  0  0
 11 12  2  0  0  0  0
 11 39  1  0  0  0  0
 12 13  1  0  0  0  0
 12 40  1  0  0  0  0
 13 14  1  0  0  0  0
 13 15  2  0  0  0  0
 15 41  1  0  0  0  0
 16 17  1  0  0  0  0
 17 18  2  0  0  0  0
 17 19  1  0  0  0  0
 19 20  2  0  0  0  0
 19 29  1  0  0  0  0
 20 21  1  0  0  0  0
 20 42  1  0  0  0  0
 21 22  2  0  0  0  0
 21 27  1  0  0  0  0
 22 23  1  0  0  0  0
 22 28  1  0  0  0  0
 23 24  1  0  0  0  0
 24 25  1  0  0  0  0
 24 43  1  0  0  0  0
 24 44  1  0  0  0  0
 25 26  2  0  0  0  0
 25 27  1  0  0  0  0
 27 45  1  0  0  0  0
 28 29  2  0  0  0  0
 28 46  1  0  0  0  0
 29 47  1  0  0  0  0
M  END
>  <DRUGBANK_ID>
DB15418

>  <COMMON_NAME>
AZD-9977

>  <CAS_NUMBER>
1850385-64-6

>  <UNII>
6C9UKZ0CYE

$$$$
