
 OpenBabel10282417193D

 76 79  0  0  0  0  0  0  0  0999 V2000
    0.9231   -0.2333    0.0122 C   0  0  0  0  0  0  0  0  0  0  0  0
    0.3761    0.8334   -0.9186 C   0  0  0  0  0  0  0  0  0  0  0  0
    0.7104    0.3860   -2.4299 C   0  0  0  0  0  0  0  0  0  0  0  0
   -1.1795    0.7529   -1.0024 C   0  0  0  0  0  0  0  0  0  0  0  0
    0.7450    2.2298   -0.2352 C   0  0  0  0  0  0  0  0  0  0  0  0
   -0.1017    3.2597   -0.4716 C   0  0  0  0  0  0  0  0  0  0  0  0
    0.0887    4.6632   -0.1022 C   0  0  0  0  0  0  0  0  0  0  0  0
    1.2863    5.4030    0.1652 C   0  0  0  0  0  0  0  0  0  0  0  0
    2.0804    4.3412    0.7386 C   0  0  0  0  0  0  0  0  0  0  0  0
    1.7883    2.7575    0.5643 C   0  0  0  0  0  0  0  0  0  0  0  0
    1.6639    7.1413   -0.6042 C   0  0  0  0  0  0  0  0  0  0  0  0
    1.1295    8.2938   -2.0302 C   0  0  0  0  0  0  0  0  0  0  0  0
    0.9275    9.7886   -2.6367 C   0  0  0  0  0  0  0  0  0  0  0  0
   -0.4541   10.4400   -2.9769 C   0  0  0  0  0  0  0  0  0  0  0  0
   -1.6405    9.7449   -2.8502 C   0  0  0  0  0  0  0  0  0  0  0  0
   -1.4741    8.4557   -2.4863 C   0  0  0  0  0  0  0  0  0  0  0  0
   -0.2371    8.1139   -2.0210 C   0  0  0  0  0  0  0  0  0  0  0  0
    0.0446    7.1623   -1.1679 N   0  0  0  0  0  0  0  0  0  0  0  0
    0.8110    7.9006    0.0315 C   0  0  0  0  0  0  0  0  0  0  0  0
    1.5745    9.1655    0.3866 C   0  0  0  0  0  0  0  0  0  0  0  0
    2.6956    9.1555    0.9511 O   0  0  0  0  0  0  0  0  0  0  0  0
    1.1950   10.3186   -0.1854 O   0  0  0  0  0  0  0  0  0  0  0  0
    0.2487    5.9192   -2.2603 C   0  0  0  0  0  0  0  0  0  0  0  0
    1.5697    5.0730   -2.3284 C   0  0  0  0  0  0  0  0  0  0  0  0
    2.8552    5.6106   -2.0845 C   0  0  0  0  0  0  0  0  0  0  0  0
    4.0844    4.9581   -1.9982 C   0  0  0  0  0  0  0  0  0  0  0  0
    4.0863    3.6220   -1.8600 C   0  0  0  0  0  0  0  0  0  0  0  0
    2.8679    3.0137   -2.0306 C   0  0  0  0  0  0  0  0  0  0  0  0
    1.6724    3.7167   -2.4928 C   0  0  0  0  0  0  0  0  0  0  0  0
    2.7947    1.6597   -1.9370 O   0  0  0  0  0  0  0  0  0  0  0  0
    3.9443    0.8354   -2.0787 C   0  0  0  0  0  0  0  0  0  0  0  0
    4.3902    0.6790   -3.5532 C   0  0  0  0  0  0  0  0  0  0  0  0
    4.7187    1.8488   -4.3101 O   0  0  0  0  0  0  0  0  0  0  0  0
    3.5711    2.6008   -4.6433 C   0  0  0  0  0  0  0  0  0  0  0  0
    5.2376    5.5369   -2.4399 O   0  0  0  0  0  0  0  0  0  0  0  0
    5.1488    6.9511   -2.6254 C   0  0  0  0  0  0  0  0  0  0  0  0
    4.4453    7.5297   -3.9171 C   0  0  0  0  0  0  0  0  0  0  0  0
    3.0631    7.2945   -4.2467 O   0  0  0  0  0  0  0  0  0  0  0  0
    2.8440    5.9788   -4.7234 C   0  0  0  0  0  0  0  0  0  0  0  0
    0.5802   -1.2333   -0.2642 H   0  0  0  0  0  0  0  0  0  0  0  0
    0.6015   -0.0164    1.0334 H   0  0  0  0  0  0  0  0  0  0  0  0
    2.0182   -0.2289   -0.0045 H   0  0  0  0  0  0  0  0  0  0  0  0
    0.1960   -0.5462   -2.7057 H   0  0  0  0  0  0  0  0  0  0  0  0
    0.4367    1.1312   -3.1863 H   0  0  0  0  0  0  0  0  0  0  0  0
    1.7281    0.0752   -2.6420 H   0  0  0  0  0  0  0  0  0  0  0  0
   -1.6353    1.0676   -0.0640 H   0  0  0  0  0  0  0  0  0  0  0  0
   -1.5651    1.4063   -1.8045 H   0  0  0  0  0  0  0  0  0  0  0  0
   -1.5372   -0.2448   -1.2693 H   0  0  0  0  0  0  0  0  0  0  0  0
   -0.8287    3.1219   -1.2767 H   0  0  0  0  0  0  0  0  0  0  0  0
   -0.8496    5.0407   -0.4352 H   0  0  0  0  0  0  0  0  0  0  0  0
    2.8945    4.5119    1.4498 H   0  0  0  0  0  0  0  0  0  0  0  0
    2.5275    2.0467    0.9511 H   0  0  0  0  0  0  0  0  0  0  0  0
    1.7240   10.4847   -2.9290 H   0  0  0  0  0  0  0  0  0  0  0  0
   -0.6008   11.4735   -3.3297 H   0  0  0  0  0  0  0  0  0  0  0  0
   -2.6608   10.1091   -2.9526 H   0  0  0  0  0  0  0  0  0  0  0  0
   -2.2808    7.7610   -2.3196 H   0  0  0  0  0  0  0  0  0  0  0  0
    2.0147   10.8514   -0.3153 H   0  0  0  0  0  0  0  0  0  0  0  0
   -0.7377    5.6140   -1.9226 H   0  0  0  0  0  0  0  0  0  0  0  0
   -0.2106    6.1104   -3.2420 H   0  0  0  0  0  0  0  0  0  0  0  0
    2.9411    6.6754   -2.1541 H   0  0  0  0  0  0  0  0  0  0  0  0
    5.0027    3.0627   -1.9720 H   0  0  0  0  0  0  0  0  0  0  0  0
    0.8204    3.1608   -2.8732 H   0  0  0  0  0  0  0  0  0  0  0  0
    4.7084    1.1131   -1.3498 H   0  0  0  0  0  0  0  0  0  0  0  0
    3.6249   -0.1679   -1.7571 H   0  0  0  0  0  0  0  0  0  0  0  0
    5.2847    0.0582   -3.5475 H   0  0  0  0  0  0  0  0  0  0  0  0
    3.6068    0.1659   -4.1191 H   0  0  0  0  0  0  0  0  0  0  0  0
    2.9532    2.3493   -5.4993 H   0  0  0  0  0  0  0  0  0  0  0  0
    2.8173    2.3571   -3.9432 H   0  0  0  0  0  0  0  0  0  0  0  0
    3.8244    3.6473   -4.5751 H   0  0  0  0  0  0  0  0  0  0  0  0
    4.7784    7.3940   -1.6914 H   0  0  0  0  0  0  0  0  0  0  0  0
    6.1931    7.2590   -2.6977 H   0  0  0  0  0  0  0  0  0  0  0  0
    4.4999    8.6160   -3.8041 H   0  0  0  0  0  0  0  0  0  0  0  0
    5.0023    7.2221   -4.7981 H   0  0  0  0  0  0  0  0  0  0  0  0
    3.2416    5.7306   -5.6950 H   0  0  0  0  0  0  0  0  0  0  0  0
    3.4420    5.3422   -4.1136 H   0  0  0  0  0  0  0  0  0  0  0  0
    1.7912    5.6873   -4.6291 H   0  0  0  0  0  0  0  0  0  0  0  0
  1  2  1  0  0  0  0
  1 40  1  0  0  0  0
  1 41  1  0  0  0  0
  1 42  1  0  0  0  0
  2  3  1  0  0  0  0
  2  4  1  0  0  0  0
  2  5  1  0  0  0  0
  3 43  1  0  0  0  0
  3 44  1  0  0  0  0
  3 45  1  0  0  0  0
  4 46  1  0  0  0  0
  4 47  1  0  0  0  0
  4 48  1  0  0  0  0
  5  6  2  0  0  0  0
  5 10  1  0  0  0  0
  6  7  1  0  0  0  0
  6 49  1  0  0  0  0
  7  8  2  0  0  0  0
  7 50  1  0  0  0  0
  8  9  1  0  0  0  0
  8 11  1  0  0  0  0
  9 10  2  0  0  0  0
  9 51  1  0  0  0  0
 10 52  1  0  0  0  0
 11 12  1  0  0  0  0
 11 19  2  0  0  0  0
 12 13  2  0  0  0  0
 12 17  1  0  0  0  0
 13 14  1  0  0  0  0
 13 53  1  0  0  0  0
 14 15  2  0  0  0  0
 14 54  1  0  0  0  0
 15 16  1  0  0  0  0
 15 55  1  0  0  0  0
 16 17  2  0  0  0  0
 16 56  1  0  0  0  0
 17 18  1  0  0  0  0
 18 19  1  0  0  0  0
 18 23  1  0  0  0  0
 19 20  1  0  0  0  0
 20 21  2  0  0  0  0
 20 22  1  0  0  0  0
 22 57  1  0  0  0  0
 23 24  1  0  0  0  0
 23 58  1  0  0  0  0
 23 59  1  0  0  0  0
 24 25  2  0  0  0  0
 24 29  1  0  0  0  0
 25 26  1  0  0  0  0
 25 60  1  0  0  0  0
 26 27  2  0  0  0  0
 26 35  1  0  0  0  0
 27 28  1  0  0  0  0
 27 61  1  0  0  0  0
 28 29  2  0  0  0  0
 28 30  1  0  0  0  0
 29 62  1  0  0  0  0
 30 31  1  0  0  0  0
 31 32  1  0  0  0  0
 31 63  1  0  0  0  0
 31 64  1  0  0  0  0
 32 33  1  0  0  0  0
 32 65  1  0  0  0  0
 32 66  1  0  0  0  0
 33 34  1  0  0  0  0
 34 67  1  0  0  0  0
 34 68  1  0  0  0  0
 34 69  1  0  0  0  0
 35 36  1  0  0  0  0
 36 37  1  0  0  0  0
 36 70  1  0  0  0  0
 36 71  1  0  0  0  0
 37 38  1  0  0  0  0
 37 72  1  0  0  0  0
 37 73  1  0  0  0  0
 38 39  1  0  0  0  0
 39 74  1  0  0  0  0
 39 75  1  0  0  0  0
 39 76  1  0  0  0  0
M  END
>  <DRUGBANK_ID>
DB12654

>  <COMMON_NAME>
GSK-376501

>  <CAS_NUMBER>
1010412-80-2

>  <UNII>
7511RY999U

$$$$
