1399
 OpenBabel10282417113D

 29 30  0  0  0  0  0  0  0  0999 V2000
    2.3290   -0.1147    0.3018 O   0  0  0  0  0  0  0  0  0  0  0  0
    4.6231    0.6154    1.7226 O   0  0  0  0  0  0  0  0  0  0  0  0
    2.6377   -1.7917   -1.2508 O   0  0  0  0  0  0  0  0  0  0  0  0
   -0.1145   -3.8138   -0.0567 O   0  0  0  0  0  0  0  0  0  0  0  0
    1.7550   -3.0434    0.8630 O   0  0  0  0  0  0  0  0  0  0  0  0
    0.9161   -0.1836    0.1152 C   0  0  0  0  0  0  0  0  0  0  0  0
    4.5325   -1.0417   -0.0803 C   0  0  0  0  0  0  0  0  0  0  0  0
    0.1418   -1.3788    0.1162 C   0  0  0  0  0  0  0  0  0  0  0  0
    5.2169   -0.2182    0.8162 C   0  0  0  0  0  0  0  0  0  0  0  0
    0.2842    1.0874    0.0385 C   0  0  0  0  0  0  0  0  0  0  0  0
    3.0763   -1.0568   -0.3918 C   0  0  0  0  0  0  0  0  0  0  0  0
   -1.2526   -1.2235    0.0103 C   0  0  0  0  0  0  0  0  0  0  0  0
    5.2722   -1.9292   -0.8877 C   0  0  0  0  0  0  0  0  0  0  0  0
   -1.1088    1.1884   -0.0135 C   0  0  0  0  0  0  0  0  0  0  0  0
   -1.8706    0.0310   -0.0318 C   0  0  0  0  0  0  0  0  0  0  0  0
    6.6192   -0.2156    0.8111 C   0  0  0  0  0  0  0  0  0  0  0  0
    6.6601   -1.9309   -0.8903 C   0  0  0  0  0  0  0  0  0  0  0  0
    7.3349   -1.0527   -0.0553 C   0  0  0  0  0  0  0  0  0  0  0  0
    0.6842   -2.7881    0.3337 C   0  0  0  0  0  0  0  0  0  0  0  0
    3.6627    0.4559    1.7290 H   0  0  0  0  0  0  0  0  0  0  0  0
   -1.0737   -3.6818   -0.0539 H   0  0  0  0  0  0  0  0  0  0  0  0
    0.8595    2.0130    0.0442 H   0  0  0  0  0  0  0  0  0  0  0  0
   -1.9258   -2.0679    0.0079 H   0  0  0  0  0  0  0  0  0  0  0  0
    4.7541   -2.6197   -1.5521 H   0  0  0  0  0  0  0  0  0  0  0  0
   -1.6077    2.1574   -0.0227 H   0  0  0  0  0  0  0  0  0  0  0  0
   -2.9571    0.0876   -0.0540 H   0  0  0  0  0  0  0  0  0  0  0  0
    7.1671    0.4508    1.4738 H   0  0  0  0  0  0  0  0  0  0  0  0
    7.1914   -2.6022   -1.5598 H   0  0  0  0  0  0  0  0  0  0  0  0
    8.4208   -1.0275   -0.0770 H   0  0  0  0  0  0  0  0  0  0  0  0
  1  6  1  0  0  0  0
  1 11  1  0  0  0  0
  2  9  1  0  0  0  0
  2 20  1  0  0  0  0
  3 11  2  0  0  0  0
  4 19  1  0  0  0  0
  4 21  1  0  0  0  0
  5 19  2  0  0  0  0
  6  8  1  0  0  0  0
  6 10  2  0  0  0  0
  7  9  1  0  0  0  0
  7 11  1  0  0  0  0
  7 13  2  0  0  0  0
  8 12  2  0  0  0  0
  8 19  1  0  0  0  0
  9 16  2  0  0  0  0
 10 14  1  0  0  0  0
 10 22  1  0  0  0  0
 12 15  1  0  0  0  0
 12 23  1  0  0  0  0
 13 17  1  0  0  0  0
 13 24  1  0  0  0  0
 14 15  2  0  0  0  0
 14 25  1  0  0  0  0
 15 26  1  0  0  0  0
 16 18  1  0  0  0  0
 16 27  1  0  0  0  0
 17 18  2  0  0  0  0
 17 28  1  0  0  0  0
 18 29  1  0  0  0  0
M  END
>  <DRUGBANK_ID>
DB01399

>  <COMMON_NAME>
Salsalate

>  <CAS_NUMBER>
552-94-3

>  <UNII>
V9MO595C9I

>  <SYNONYMS>
2-Carboxyphenyl salicylate; Disalicylic acid; Disalicylsäure; O-Salicylcylsalicylsäure; o-Salicylsalicylic acid; Salicylic acid bimolecular ester; Salicyloxysalicylic acid; Salicyloylsalicylic acid; Salicylsalicylic acid; Salsalate; Salsalato; Salsalatum; Sasapyrin; Sasapyrine; Sasapyrinum

$$$$
