
 OpenBabel10282417133D

 30 31  0  0  0  0  0  0  0  0999 V2000
    1.2922    0.5340   -0.3044 O   0  0  0  0  0  0  0  0  0  0  0  0
   -1.7889    0.1960   -0.4717 O   0  0  0  0  0  0  0  0  0  0  0  0
    0.0685    2.9428    2.0706 O   0  0  0  0  0  0  0  0  0  0  0  0
   -1.3313   -2.1951   -1.5050 O   0  0  0  0  0  0  0  0  0  0  0  0
    0.4026   -2.9080   -5.4704 O   0  0  0  0  0  0  0  0  0  0  0  0
    0.7680   -1.2288   -1.8083 N   0  0  0  0  0  0  0  0  0  0  0  0
   -0.4763   -2.2180   -3.5158 N   0  0  0  0  0  0  0  0  0  0  0  0
    1.0519   -0.8856   -0.4059 C   0  0  3  0  0  0  0  0  0  0  0  0
   -0.0272   -1.1849    0.6203 C   0  0  0  0  0  0  0  0  0  0  0  0
   -0.8652    0.0828    0.6061 C   0  0  1  0  0  0  0  0  0  0  0  0
    0.2030    1.1542    0.4324 C   0  0  1  0  0  0  0  0  0  0  0  0
    1.7556   -0.8606   -2.8216 C   0  0  0  0  0  0  0  0  0  0  0  0
    0.6595    1.6711    1.8037 C   0  0  0  0  0  0  0  0  0  0  0  0
    1.9074   -1.9637   -3.8536 C   0  0  0  0  0  0  0  0  0  0  0  0
   -0.3761   -1.8862   -2.2099 C   0  0  0  0  0  0  0  0  0  0  0  0
    0.5619   -2.3713   -4.3788 C   0  0  0  0  0  0  0  0  0  0  0  0
   -1.3479   -2.6681   -3.7572 H   0  0  0  0  0  0  0  0  0  0  0  0
   -1.3102    0.0527   -1.3050 H   0  0  0  0  0  0  0  0  0  0  0  0
    0.3632    3.5533    1.3716 H   0  0  0  0  0  0  0  0  0  0  0  0
    1.9878   -1.3972   -0.1470 H   0  0  0  0  0  0  0  0  0  0  0  0
    0.4507   -1.2876    1.6030 H   0  0  0  0  0  0  0  0  0  0  0  0
   -0.5577   -2.1225    0.4675 H   0  0  0  0  0  0  0  0  0  0  0  0
   -1.4596    0.1808    1.5163 H   0  0  0  0  0  0  0  0  0  0  0  0
   -0.1555    1.9836   -0.1873 H   0  0  0  0  0  0  0  0  0  0  0  0
    2.7280   -0.6773   -2.3486 H   0  0  0  0  0  0  0  0  0  0  0  0
    1.4274    0.0756   -3.2900 H   0  0  0  0  0  0  0  0  0  0  0  0
    0.3339    1.0065    2.6125 H   0  0  0  0  0  0  0  0  0  0  0  0
    1.7445    1.7709    1.8760 H   0  0  0  0  0  0  0  0  0  0  0  0
    2.3663   -2.8483   -3.3982 H   0  0  0  0  0  0  0  0  0  0  0  0
    2.5243   -1.6300   -4.6923 H   0  0  0  0  0  0  0  0  0  0  0  0
  1  8  1  0  0  0  0
  1 11  1  0  0  0  0
  2 18  1  0  0  0  0
  3 13  1  0  0  0  0
  3 19  1  0  0  0  0
  4 15  2  0  0  0  0
  5 16  2  0  0  0  0
  6  8  1  0  0  0  0
  6 12  1  0  0  0  0
  6 15  1  0  0  0  0
  7 15  1  0  0  0  0
  7 16  1  0  0  0  0
  7 17  1  0  0  0  0
  8  9  1  0  0  0  0
  8 20  1  0  0  0  0
  9 10  1  0  0  0  0
  9 21  1  0  0  0  0
  9 22  1  0  0  0  0
 10  2  1  0  0  0  0
 10 11  1  0  0  0  0
 10 23  1  1  0  0  0
 11 24  1  6  0  0  0
 11 13  1  0  0  0  0
 12 14  1  0  0  0  0
 12 25  1  0  0  0  0
 12 26  1  0  0  0  0
 13 27  1  0  0  0  0
 13 28  1  0  0  0  0
 14 16  1  0  0  0  0
 14 29  1  0  0  0  0
 14 30  1  0  0  0  0
M  END
>  <DRUGBANK_ID>
DB03562

>  <SECONDARY_ACCESSION_NUMBERS>
EXPT03059

>  <COMMON_NAME>
Tetrahydrodeoxyuridine

$$$$
