NAR
 OpenBabel10282417133D

 32 34  0  0  0  0  0  0  0  0999 V2000
   -1.4420   -1.3022    0.0138 C   0  0  0  0  0  0  0  0  0  0  0  0
   -2.3328   -0.2299    0.0103 C   0  0  0  0  0  0  0  0  0  0  0  0
   -1.8768    1.0854   -0.0229 C   0  0  0  0  0  0  0  0  0  0  0  0
   -0.5104    1.3344   -0.0535 C   0  0  0  0  0  0  0  0  0  0  0  0
    0.3916    0.2673   -0.0333 C   0  0  0  0  0  0  0  0  0  0  0  0
   -0.0691   -1.0519   -0.0062 C   0  0  0  0  0  0  0  0  0  0  0  0
    1.8351    0.5065    0.0411 C   0  0  0  0  0  0  0  0  0  0  0  0
    2.6831   -0.6785    0.3298 C   0  0  0  0  0  0  0  0  0  0  0  0
    2.1082   -1.9139   -0.3522 C   0  0  2  0  0  0  0  0  0  0  0  0
    0.7487   -2.1504    0.0560 O   0  0  0  0  0  0  0  0  0  0  0  0
    2.2880    1.6489   -0.0257 O   0  0  0  0  0  0  0  0  0  0  0  0
    2.9153   -3.1667   -0.0214 C   0  0  0  0  0  0  0  0  0  0  0  0
    2.5641   -4.4051   -0.5852 C   0  0  0  0  0  0  0  0  0  0  0  0
    3.2965   -5.5622   -0.2844 C   0  0  0  0  0  0  0  0  0  0  0  0
    4.3856   -5.4834    0.5786 C   0  0  0  0  0  0  0  0  0  0  0  0
    4.7480   -4.2770    1.1486 C   0  0  0  0  0  0  0  0  0  0  0  0
    4.0219   -3.1303    0.8479 C   0  0  0  0  0  0  0  0  0  0  0  0
    5.1430   -6.5675    0.9041 O   0  0  0  0  0  0  0  0  0  0  0  0
   -3.6813   -0.4311    0.0446 O   0  0  0  0  0  0  0  0  0  0  0  0
   -0.1136    2.6441   -0.0827 O   0  0  0  0  0  0  0  0  0  0  0  0
    2.1185   -1.7815   -1.4447 H   0  0  0  0  0  0  0  0  0  0  0  0
   -1.7984   -2.3276    0.0373 H   0  0  0  0  0  0  0  0  0  0  0  0
   -2.5802    1.9127   -0.0138 H   0  0  0  0  0  0  0  0  0  0  0  0
    2.6956   -0.7898    1.4213 H   0  0  0  0  0  0  0  0  0  0  0  0
    3.6970   -0.4780   -0.0343 H   0  0  0  0  0  0  0  0  0  0  0  0
    1.7095   -4.4765   -1.2564 H   0  0  0  0  0  0  0  0  0  0  0  0
    2.9994   -6.5080   -0.7262 H   0  0  0  0  0  0  0  0  0  0  0  0
    5.5923   -4.2189    1.8289 H   0  0  0  0  0  0  0  0  0  0  0  0
    4.3547   -2.2122    1.3233 H   0  0  0  0  0  0  0  0  0  0  0  0
    4.8082   -7.3420    0.4266 H   0  0  0  0  0  0  0  0  0  0  0  0
   -3.8615   -1.3853    0.0728 H   0  0  0  0  0  0  0  0  0  0  0  0
    0.8706    2.6708   -0.0978 H   0  0  0  0  0  0  0  0  0  0  0  0
  1  2  2  0  0  0  0
  1  6  1  0  0  0  0
  1 22  1  0  0  0  0
  2  3  1  0  0  0  0
  2 19  1  0  0  0  0
  3  4  2  0  0  0  0
  3 23  1  0  0  0  0
  4  5  1  0  0  0  0
  4 20  1  0  0  0  0
  5  6  2  0  0  0  0
  5  7  1  0  0  0  0
  6 10  1  0  0  0  0
  7  8  1  0  0  0  0
  7 11  2  0  0  0  0
  8  9  1  0  0  0  0
  8 24  1  0  0  0  0
  8 25  1  0  0  0  0
  9 10  1  0  0  0  0
  9 12  1  0  0  0  0
  9 21  1  6  0  0  0
 12 13  1  0  0  0  0
 12 17  2  0  0  0  0
 13 14  2  0  0  0  0
 13 26  1  0  0  0  0
 14 15  1  0  0  0  0
 14 27  1  0  0  0  0
 15 16  2  0  0  0  0
 15 18  1  0  0  0  0
 16 17  1  0  0  0  0
 16 28  1  0  0  0  0
 17 29  1  0  0  0  0
 18 30  1  0  0  0  0
 19 31  1  0  0  0  0
 20 32  1  0  0  0  0
M  END
>  <DRUGBANK_ID>
DB03467

>  <SECONDARY_ACCESSION_NUMBERS>
EXPT02295

>  <COMMON_NAME>
Naringenin

>  <CAS_NUMBER>
480-41-1

>  <UNII>
HN5425SBF2

$$$$
