
 OpenBabel10282417203D

 30 33  0  0  0  0  0  0  0  0999 V2000
    1.7927    1.0483    0.0497 C   0  0  0  0  0  0  0  0  0  0  0  0
    2.1284   -0.3098    0.0036 C   0  0  0  0  0  0  0  0  0  0  0  0
    0.4237    1.4690    0.2231 C   0  0  0  0  0  0  0  0  0  0  0  0
    1.0988   -1.2397   -0.0324 C   0  0  0  0  0  0  0  0  0  0  0  0
   -5.5838    0.2855    3.4886 C   0  0  0  0  0  0  0  0  0  0  0  0
   -4.7840   -0.7909    3.1675 C   0  0  0  0  0  0  0  0  0  0  0  0
   -5.2940    0.8014    1.1505 C   0  0  0  0  0  0  0  0  0  0  0  0
   -3.9260   -1.0930   -0.1976 C   0  0  0  0  0  0  0  0  0  0  0  0
   -4.6688   -0.4455    0.9535 C   0  0  0  0  0  0  0  0  0  0  0  0
   -5.5851    1.2371    2.4990 C   0  0  0  0  0  0  0  0  0  0  0  0
   -0.5973    0.5005    0.3619 C   0  0  0  0  0  0  0  0  0  0  0  0
   -0.2205   -0.7932    0.0468 C   0  0  0  0  0  0  0  0  0  0  0  0
   -3.9245   -0.6375    2.0596 C   0  0  0  0  0  0  0  0  0  0  0  0
   -2.0707    0.2163    0.7447 C   0  0  0  0  0  0  0  0  0  0  0  0
   -1.4463   -1.5725   -0.1634 C   0  0  0  0  0  0  0  0  0  0  0  0
   -5.6955    2.5891    2.8690 N   0  0  0  0  0  0  0  0  0  0  0  0
   -2.6958    0.2875    1.9169 N   0  0  0  0  0  0  0  0  0  0  0  0
   -2.4983   -0.7046   -0.1693 N   0  0  0  0  0  0  0  0  0  0  0  0
   -1.4289   -2.8017   -0.1501 O   0  0  0  0  0  0  0  0  0  0  0  0
    2.6213    1.7647   -0.0092 H   0  0  0  0  0  0  0  0  0  0  0  0
    3.1680   -0.6443   -0.0297 H   0  0  0  0  0  0  0  0  0  0  0  0
    0.2669    2.5477    0.2064 H   0  0  0  0  0  0  0  0  0  0  0  0
    1.3073   -2.3013   -0.0909 H   0  0  0  0  0  0  0  0  0  0  0  0
   -6.1752    0.3426    4.4013 H   0  0  0  0  0  0  0  0  0  0  0  0
   -5.4025   -1.7147    3.2501 H   0  0  0  0  0  0  0  0  0  0  0  0
   -5.2322    1.5515    0.3725 H   0  0  0  0  0  0  0  0  0  0  0  0
   -4.3719   -0.8675   -1.1703 H   0  0  0  0  0  0  0  0  0  0  0  0
   -3.9670   -2.1927   -0.0880 H   0  0  0  0  0  0  0  0  0  0  0  0
   -4.8877    3.0774    2.4790 H   0  0  0  0  0  0  0  0  0  0  0  0
   -5.6236    2.6851    3.8881 H   0  0  0  0  0  0  0  0  0  0  0  0
  1 20  1  0  0  0  0
  2  1  2  0  0  0  0
  2 21  1  0  0  0  0
  3  1  1  0  0  0  0
  3 22  1  0  0  0  0
  4  2  1  0  0  0  0
  4 23  1  0  0  0  0
  5 24  1  0  0  0  0
  6  5  1  0  0  0  0
  6 25  1  0  0  0  0
  7 26  1  0  0  0  0
  8 27  1  0  0  0  0
  8 28  1  0  0  0  0
  9  7  2  0  0  0  0
  9  8  1  0  0  0  0
 10  5  2  0  0  0  0
 10  7  1  0  0  0  0
 11  3  2  0  0  0  0
 12  4  2  0  0  0  0
 12 11  1  0  0  0  0
 13  6  2  0  0  0  0
 13  9  1  0  0  0  0
 14 11  1  0  0  0  0
 15 12  1  0  0  0  0
 16 10  1  0  0  0  0
 16 29  1  0  0  0  0
 16 30  1  0  0  0  0
 17 13  1  0  0  0  0
 17 14  2  0  0  0  0
 18  8  1  0  0  0  0
 18 14  1  0  0  0  0
 18 15  1  0  0  0  0
 19 15  2  0  0  0  0
M  END
>  <DRUGBANK_ID>
DB12804

>  <COMMON_NAME>
Daniquidone

>  <CAS_NUMBER>
67199-66-0

>  <UNII>
E780TX33D2

>  <SYNONYMS>
Batracylin; Daniquidone

$$$$
