
 OpenBabel10282417133D

 37 39  0  0  1  0  0  0  0  0999 V2000
    0.9741    0.0014   -0.0790 C   0  0  0  0  0  0  0  0  0  0  0  0
    0.5280    1.3691    0.1416 N   0  0  0  0  0  0  0  0  0  0  0  0
   -0.6261    1.7647    0.7014 C   0  0  0  0  0  0  0  0  0  0  0  0
   -0.6483    3.1113    0.7220 N   0  3  0  0  0  0  0  0  0  0  0  0
    0.5292    3.5736    0.1645 C   0  0  0  0  0  0  0  0  0  0  0  0
    1.2653    2.4933   -0.2164 C   0  0  0  0  0  0  0  0  0  0  0  0
    2.5460    2.7026   -0.8505 C   0  0  0  0  0  0  0  0  0  0  0  0
    3.2816    1.7952   -1.2426 O   0  0  0  0  0  0  0  0  0  0  0  0
    2.9244    4.0381   -1.0012 N   0  0  0  0  0  0  0  0  0  0  0  0
    2.1625    5.0124   -0.6012 C   0  0  0  0  0  0  0  0  0  0  0  0
    0.9530    4.8492    0.0064 N   0  0  0  0  0  0  0  0  0  0  0  0
    2.5511    6.3014   -0.7124 N   0  0  0  0  0  0  0  0  0  0  0  0
   -1.7152    3.8977    1.3332 C   0  0  1  0  0  0  0  0  0  0  0  0
   -1.2416    4.7586    2.5036 C   0  0  1  0  0  0  0  0  0  0  0  0
   -2.2039    5.9328    2.4529 C   0  0  1  0  0  0  0  0  0  0  0  0
   -2.5745    6.0486    0.9690 C   0  0  2  0  0  0  0  0  0  0  0  0
   -2.2909    4.7638    0.3554 O   0  0  0  0  0  0  0  0  0  0  0  0
   -1.7928    7.1487    0.2346 C   0  0  0  0  0  0  0  0  0  0  0  0
   -0.3901    6.9006    0.2626 O   0  0  0  0  0  0  0  0  0  0  0  0
   -3.3454    5.6529    3.2648 O   0  0  0  0  0  0  0  0  0  0  0  0
   -1.2431    4.0377    3.7319 O   0  0  0  0  0  0  0  0  0  0  0  0
    0.6147   -0.3302   -1.0560 H   0  0  0  0  0  0  0  0  0  0  0  0
    0.5854   -0.6449    0.7103 H   0  0  0  0  0  0  0  0  0  0  0  0
    2.0656   -0.0411   -0.0540 H   0  0  0  0  0  0  0  0  0  0  0  0
   -1.4022    1.1079    1.0818 H   0  0  0  0  0  0  0  0  0  0  0  0
    0.3370    5.6548   -0.0249 H   0  0  0  0  0  0  0  0  0  0  0  0
    1.9390    7.0928   -0.5548 H   0  0  0  0  0  0  0  0  0  0  0  0
    3.4039    6.4976   -1.2282 H   0  0  0  0  0  0  0  0  0  0  0  0
   -2.4997    3.2066    1.6725 H   0  0  0  0  0  0  0  0  0  0  0  0
   -0.2219    5.1151    2.3413 H   0  0  0  0  0  0  0  0  0  0  0  0
   -1.7582    6.8565    2.8383 H   0  0  0  0  0  0  0  0  0  0  0  0
   -3.6441    6.2508    0.8423 H   0  0  0  0  0  0  0  0  0  0  0  0
   -2.1011    7.1949   -0.8159 H   0  0  0  0  0  0  0  0  0  0  0  0
   -1.9528    8.1281    0.6906 H   0  0  0  0  0  0  0  0  0  0  0  0
   -0.0574    7.1570    1.1447 H   0  0  0  0  0  0  0  0  0  0  0  0
   -3.8637    4.9133    2.9080 H   0  0  0  0  0  0  0  0  0  0  0  0
   -2.1582    3.9965    4.0715 H   0  0  0  0  0  0  0  0  0  0  0  0
  1  2  1  0  0  0  0
  1 22  1  0  0  0  0
  1 23  1  0  0  0  0
  1 24  1  0  0  0  0
  2  3  1  0  0  0  0
  2  6  1  0  0  0  0
  3  4  2  0  0  0  0
  3 25  1  0  0  0  0
  4  5  1  0  0  0  0
  4 13  1  0  0  0  0
  5  6  2  0  0  0  0
  5 11  1  0  0  0  0
  6  7  1  0  0  0  0
  7  8  2  0  0  0  0
  7  9  1  0  0  0  0
  9 10  2  0  0  0  0
 10 11  1  0  0  0  0
 10 12  1  0  0  0  0
 11 26  1  0  0  0  0
 12 27  1  0  0  0  0
 12 28  1  0  0  0  0
 13 14  1  0  0  0  0
 13 17  1  0  0  0  0
 13 29  1  1  0  0  0
 14 15  1  0  0  0  0
 14 21  1  0  0  0  0
 14 30  1  6  0  0  0
 15 16  1  0  0  0  0
 15 20  1  0  0  0  0
 15 31  1  1  0  0  0
 16 17  1  0  0  0  0
 16 32  1  6  0  0  0
 16 18  1  0  0  0  0
 18 19  1  0  0  0  0
 18 33  1  0  0  0  0
 18 34  1  0  0  0  0
 19 35  1  0  0  0  0
 20 36  1  0  0  0  0
 21 37  1  0  0  0  0
M  CHG  1   4   1
M  END
>  <DRUGBANK_ID>
DB03493

>  <SECONDARY_ACCESSION_NUMBERS>
EXPT02164

>  <COMMON_NAME>
7-Methylguanosine

>  <UNII>
5290OM2I6G

$$$$
