
 OpenBabel10282417143D

 85 89  0  0  0  0  0  0  0  0999 V2000
   -0.1629    0.4996    6.4526 P   0  0  3  0  0  0  0  0  0  0  0  0
   -1.9522    2.4714    5.5085 P   0  0  3  0  0  0  0  0  0  0  0  0
    1.8701   -1.6248    6.7077 O   0  0  0  0  0  0  0  0  0  0  0  0
   -3.0835    2.3908    8.3393 O   0  0  0  0  0  0  0  0  0  0  0  0
    4.9406   -0.4399    7.4793 O   0  0  0  0  0  0  0  0  0  0  0  0
    3.7020   -2.4895    8.5834 O   0  0  0  0  0  0  0  0  0  0  0  0
   -2.2444    4.5139   10.9793 O   0  0  0  0  0  0  0  0  0  0  0  0
   -3.0938    2.2778   11.9308 O   0  0  0  0  0  0  0  0  0  0  0  0
   -0.7105   -0.6438    7.4347 O   0  0  0  0  0  0  0  0  0  0  0  0
   -0.8106    3.4185    6.5740 O   0  0  0  0  0  0  0  0  0  0  0  0
   -1.0951    1.0269    5.0940 O   0  0  0  0  0  0  0  0  0  0  0  0
    0.4167   -0.8461    5.5327 O   0  0  0  0  0  0  0  0  0  0  0  0
   -0.6815    1.7039    7.2760 O   0  0  0  0  0  0  0  0  0  0  0  0
   -1.6155    2.8501    4.0508 O   0  5  0  0  0  0  0  0  0  0  0  0
   -2.7193    3.7642    5.8794 O   0  0  0  0  0  0  0  0  0  0  0  0
    0.5935    5.0180    5.0619 O   0  0  0  0  0  0  0  0  0  0  0  0
    2.8549    5.8708    3.1194 O   0  0  0  0  0  0  0  0  0  0  0  0
    2.5565    0.5592    5.4461 N   0  3  0  0  0  0  0  0  0  0  0  0
   -4.2048    0.4392    9.3018 N   0  0  0  0  0  0  0  0  0  0  0  0
   -6.2343   -0.5500    9.1282 N   0  0  0  0  0  0  0  0  0  0  0  0
   -2.9952   -1.4057    7.9608 N   0  0  0  0  0  0  0  0  0  0  0  0
   -4.6384   -2.6297    6.5887 N   0  0  0  0  0  0  0  0  0  0  0  0
   -6.9638   -2.1448    6.8088 N   0  0  0  0  0  0  0  0  0  0  0  0
    1.2739    4.2614    6.9571 N   0  0  0  0  0  0  0  0  0  0  0  0
    3.5330   -0.3120    7.6481 C   0  0  2  0  0  0  0  0  0  0  0  0
    2.8974   -1.2940    8.6582 C   0  0  1  0  0  0  0  0  0  0  0  0
    2.9013   -0.6835    6.3387 C   0  0  1  0  0  0  0  0  0  0  0  0
    1.5239   -1.6478    8.0987 C   0  0  1  0  0  0  0  0  0  0  0  0
   -1.9010    3.3605   10.2218 C   0  0  1  0  0  0  0  0  0  0  0  0
   -2.5670    2.0453   10.6303 C   0  0  2  0  0  0  0  0  0  0  0  0
   -2.2744    3.5271    8.7439 C   0  0  1  0  0  0  0  0  0  0  0  0
   -3.5886    1.7751    9.5197 C   0  0  1  0  0  0  0  0  0  0  0  0
    0.2192   -0.8766    8.5195 C   0  0  0  0  0  0  0  0  0  0  0  0
   -0.9260    3.4355    8.1972 C   0  0  0  0  0  0  0  0  0  0  0  0
    2.1624    1.7846    5.9256 C   0  0  0  0  0  0  0  0  0  0  0  0
    2.7116    0.4502    4.1029 C   0  0  0  0  0  0  0  0  0  0  0  0
   -4.0352   -0.7248    8.5077 C   0  0  0  0  0  0  0  0  0  0  0  0
   -5.5334    0.3710    9.7206 C   0  0  0  0  0  0  0  0  0  0  0  0
    1.7401    2.8472    5.0831 C   0  0  0  0  0  0  0  0  0  0  0  0
    1.7614    2.6863    3.7183 C   0  0  0  0  0  0  0  0  0  0  0  0
    2.2603    1.4624    3.2438 C   0  0  0  0  0  0  0  0  0  0  0  0
   -5.3481   -1.1405    8.2869 C   0  0  0  0  0  0  0  0  0  0  0  0
    1.5001    3.8742    2.8048 C   0  0  2  0  0  0  0  0  0  0  0  0
   -5.6387   -2.0093    7.2227 C   0  0  0  0  0  0  0  0  0  0  0  0
    1.2222    4.1645    5.6067 C   0  0  0  0  0  0  0  0  0  0  0  0
    0.8202    3.4567    1.5265 C   0  0  0  0  0  0  0  0  0  0  0  0
    2.7680    4.7264    2.6687 C   0  0  0  0  0  0  0  0  0  0  0  0
   -3.3989   -2.3599    7.0472 C   0  0  0  0  0  0  0  0  0  0  0  0
    3.9782    4.1069    2.0098 C   0  0  0  0  0  0  0  0  0  0  0  0
    4.7863    3.1540    2.8745 C   0  0  0  0  0  0  0  0  0  0  0  0
    5.1408   -1.3959    7.3897 H   0  0  0  0  0  0  0  0  0  0  0  0
    3.4519   -2.9819    7.7748 H   0  0  0  0  0  0  0  0  0  0  0  0
   -2.7674    5.0991   10.3990 H   0  0  0  0  0  0  0  0  0  0  0  0
   -3.0636    3.2607   12.0441 H   0  0  0  0  0  0  0  0  0  0  0  0
    0.1720   -0.6364    4.6033 H   0  0  0  0  0  0  0  0  0  0  0  0
   -7.0701   -2.2907    5.8148 H   0  0  0  0  0  0  0  0  0  0  0  0
   -7.5168   -1.3856    7.2107 H   0  0  0  0  0  0  0  0  0  0  0  0
    0.9121    3.3769    7.2780 H   0  0  0  0  0  0  0  0  0  0  0  0
    0.4220    4.8530    7.0411 H   0  0  0  0  0  0  0  0  0  0  0  0
    3.3228    0.7096    7.9481 H   0  0  0  0  0  0  0  0  0  0  0  0
    2.8881   -0.9219    9.6837 H   0  0  0  0  0  0  0  0  0  0  0  0
    3.5362   -1.2942    5.6869 H   0  0  0  0  0  0  0  0  0  0  0  0
    1.2751   -2.6951    8.3140 H   0  0  0  0  0  0  0  0  0  0  0  0
   -0.8279    3.2184   10.4664 H   0  0  0  0  0  0  0  0  0  0  0  0
   -1.8404    1.2239   10.6420 H   0  0  0  0  0  0  0  0  0  0  0  0
   -2.6418    4.4882    8.3771 H   0  0  0  0  0  0  0  0  0  0  0  0
   -4.4409    2.4176    9.7875 H   0  0  0  0  0  0  0  0  0  0  0  0
    0.4401    0.0679    9.0336 H   0  0  0  0  0  0  0  0  0  0  0  0
   -0.3276   -1.4722    9.2663 H   0  0  0  0  0  0  0  0  0  0  0  0
   -0.5241    2.5156    8.7574 H   0  0  0  0  0  0  0  0  0  0  0  0
   -0.1517    4.0702    8.6450 H   0  0  0  0  0  0  0  0  0  0  0  0
    2.0405    1.8485    6.9993 H   0  0  0  0  0  0  0  0  0  0  0  0
    3.2755   -0.3919    3.7105 H   0  0  0  0  0  0  0  0  0  0  0  0
   -5.9698    1.1203   10.3631 H   0  0  0  0  0  0  0  0  0  0  0  0
    2.5148    1.3812    2.1871 H   0  0  0  0  0  0  0  0  0  0  0  0
    0.7540    4.5716    3.1746 H   0  0  0  0  0  0  0  0  0  0  0  0
    1.3064    2.6084    1.0532 H   0  0  0  0  0  0  0  0  0  0  0  0
   -0.2108    3.1590    1.7603 H   0  0  0  0  0  0  0  0  0  0  0  0
    0.7965    4.2884    0.8234 H   0  0  0  0  0  0  0  0  0  0  0  0
   -2.6364   -2.9988    6.5898 H   0  0  0  0  0  0  0  0  0  0  0  0
    3.6387    3.6460    1.0793 H   0  0  0  0  0  0  0  0  0  0  0  0
    4.6429    4.9326    1.7394 H   0  0  0  0  0  0  0  0  0  0  0  0
    4.2595    2.2977    3.2506 H   0  0  0  0  0  0  0  0  0  0  0  0
    5.5924    2.7065    2.2923 H   0  0  0  0  0  0  0  0  0  0  0  0
    5.1558    3.6353    3.7817 H   0  0  0  0  0  0  0  0  0  0  0  0
  1  9  1  0  0  0  0
  1 11  1  0  0  0  0
  1 12  1  0  0  0  0
  1 13  2  0  0  0  0
  2 10  1  0  0  0  0
  2 11  1  0  0  0  0
  2 14  1  0  0  0  0
  2 15  2  0  0  0  0
  3 27  1  0  0  0  0
  3 28  1  0  0  0  0
  4 31  1  0  0  0  0
  4 32  1  0  0  0  0
  5 51  1  0  0  0  0
  6 52  1  0  0  0  0
  7 53  1  0  0  0  0
  8 54  1  0  0  0  0
  9 33  1  0  0  0  0
 10 34  1  0  0  0  0
 12 55  1  0  0  0  0
 16 45  2  0  0  0  0
 17 47  2  0  0  0  0
 18 35  2  0  0  0  0
 18 36  1  0  0  0  0
 19 37  1  0  0  0  0
 19 38  1  0  0  0  0
 20 38  2  0  0  0  0
 20 42  1  0  0  0  0
 21 37  2  0  0  0  0
 21 48  1  0  0  0  0
 22 44  1  0  0  0  0
 22 48  2  0  0  0  0
 23 44  1  0  0  0  0
 23 56  1  0  0  0  0
 23 57  1  0  0  0  0
 24 45  1  0  0  0  0
 24 58  1  0  0  0  0
 24 59  1  0  0  0  0
 25  5  1  0  0  0  0
 25 26  1  0  0  0  0
 25 27  1  0  0  0  0
 25 60  1  1  0  0  0
 26  6  1  0  0  0  0
 26 28  1  0  0  0  0
 26 61  1  1  0  0  0
 27 62  1  6  0  0  0
 27 18  1  0  0  0  0
 28 33  1  0  0  0  0
 28 63  1  1  0  0  0
 29  7  1  0  0  0  0
 29 30  1  0  0  0  0
 29 31  1  0  0  0  0
 29 64  1  1  0  0  0
 30  8  1  0  0  0  0
 30 32  1  0  0  0  0
 30 65  1  1  0  0  0
 31 34  1  0  0  0  0
 31 66  1  6  0  0  0
 32 67  1  1  0  0  0
 32 19  1  0  0  0  0
 33 68  1  0  0  0  0
 33 69  1  0  0  0  0
 34 70  1  0  0  0  0
 34 71  1  0  0  0  0
 35 39  1  0  0  0  0
 35 72  1  0  0  0  0
 36 41  2  0  0  0  0
 36 73  1  0  0  0  0
 37 42  1  0  0  0  0
 38 74  1  0  0  0  0
 39 40  2  0  0  0  0
 39 45  1  0  0  0  0
 40 41  1  0  0  0  0
 41 75  1  0  0  0  0
 42 44  2  0  0  0  0
 43 47  1  0  0  0  0
 43 76  1  1  0  0  0
 43 46  1  0  0  0  0
 43 40  1  0  0  0  0
 46 77  1  0  0  0  0
 46 78  1  0  0  0  0
 46 79  1  0  0  0  0
 47 49  1  0  0  0  0
 48 80  1  0  0  0  0
 49 50  1  0  0  0  0
 49 81  1  0  0  0  0
 49 82  1  0  0  0  0
 50 83  1  0  0  0  0
 50 84  1  0  0  0  0
 50 85  1  0  0  0  0
M  CHG  2  14  -1  18   1
M  END
>  <DRUGBANK_ID>
DB04421

>  <SECONDARY_ACCESSION_NUMBERS>
EXPT02294

>  <COMMON_NAME>
Nicotinamide adenine dinucleotide 3-pentanone adduct

$$$$
