1319
 OpenBabel10282417113D

 75 77  0  0  1  0  0  0  0  0999 V2000
    1.2554   -0.0027    0.2301 S   0  0  0  0  0  0  0  0  0  0  0  0
   -1.6621    0.8800   -1.0808 P   0  0  0  0  0  0  0  0  0  0  0  0
   -1.0855    1.7026   -2.4893 O   0  0  0  0  0  0  0  0  0  0  0  0
    4.4141    1.8201   -4.8345 O   0  0  0  0  0  0  0  0  0  0  0  0
    4.7046    2.9671   -1.6045 O   0  0  0  0  0  0  0  0  0  0  0  0
    1.2384   -0.7748   -1.0566 O   0  0  0  0  0  0  0  0  0  0  0  0
    0.6624   -0.6443    1.3810 O   0  0  0  0  0  0  0  0  0  0  0  0
   -2.8394   -0.0929   -2.7668 O   0  0  0  0  0  0  0  0  0  0  0  0
   -0.3388    0.4626   -0.7300 O   0  0  0  0  0  0  0  0  0  0  0  0
    2.5621    1.2225   -5.8293 O   0  0  0  0  0  0  0  0  0  0  0  0
   -2.1782    0.1439    0.1798 O   0  0  0  0  0  0  0  0  0  0  0  0
    0.2955    2.1264    0.0320 N   0  0  0  0  0  0  0  0  0  0  0  0
    2.3242    2.4110   -3.8563 N   0  0  0  0  0  0  0  0  0  0  0  0
    6.9350    0.0460   -0.0579 N   0  0  0  0  0  0  0  0  0  0  0  0
    0.3690    1.8066   -2.5701 C   0  0  1  0  0  0  0  0  0  0  0  0
    0.8617    2.4398   -3.8293 C   0  0  2  0  0  0  0  0  0  0  0  0
    0.9265    2.6663   -1.3849 C   0  0  0  0  0  0  0  0  0  0  0  0
   -1.7388    2.4682   -0.2722 C   0  0  0  0  0  0  0  0  0  0  0  0
    0.2776    1.7316   -5.0254 C   0  0  0  0  0  0  0  0  0  0  0  0
   -2.9227    1.3963   -1.8769 C   0  0  0  0  0  0  0  0  0  0  0  0
   -1.1959    1.7413   -5.0961 C   0  0  0  0  0  0  0  0  0  0  0  0
    5.1464    2.4416   -3.8053 C   0  0  1  0  0  0  0  0  0  0  0  0
    2.9094    0.0656    0.1937 C   0  0  0  0  0  0  0  0  0  0  0  0
   -1.6517   -0.6559   -1.8515 C   0  0  0  0  0  0  0  0  0  0  0  0
   -4.1748    1.1740   -1.2503 C   0  0  0  0  0  0  0  0  0  0  0  0
    4.8134    3.9082   -3.6757 C   0  0  0  0  0  0  0  0  0  0  0  0
    3.0573    1.7891   -4.8696 C   0  0  0  0  0  0  0  0  0  0  0  0
    4.7586    1.8548   -2.5038 C   0  0  0  0  0  0  0  0  0  0  0  0
    4.9829    4.1953   -2.2239 C   0  0  0  0  0  0  0  0  0  0  0  0
   -1.8603    0.5249   -5.0636 C   0  0  0  0  0  0  0  0  0  0  0  0
   -1.9071    2.9343   -5.0487 C   0  0  0  0  0  0  0  0  0  0  0  0
    3.5171    1.2594    0.1481 C   0  0  0  0  0  0  0  0  0  0  0  0
    3.5299   -1.1739    0.0077 C   0  0  0  0  0  0  0  0  0  0  0  0
   -3.2481    0.5053   -4.9607 C   0  0  0  0  0  0  0  0  0  0  0  0
   -3.2700    2.8957   -4.7914 C   0  0  0  0  0  0  0  0  0  0  0  0
    4.8770    1.2064    0.1531 C   0  0  0  0  0  0  0  0  0  0  0  0
    4.8858   -1.1839   -0.0379 C   0  0  0  0  0  0  0  0  0  0  0  0
   -3.9568    1.6887   -4.8162 C   0  0  0  0  0  0  0  0  0  0  0  0
    5.5705    0.0122    0.0418 C   0  0  0  0  0  0  0  0  0  0  0  0
   -3.2133   -0.9984   -2.4942 H   0  0  0  0  0  0  0  0  0  0  0  0
    0.0503    1.3109   -0.6917 H   0  0  0  0  0  0  0  0  0  0  0  0
    2.7789    2.8487   -3.0650 H   0  0  0  0  0  0  0  0  0  0  0  0
    7.4399   -0.8238   -0.0314 H   0  0  0  0  0  0  0  0  0  0  0  0
    7.4217    0.9287   -0.0216 H   0  0  0  0  0  0  0  0  0  0  0  0
    0.7680    0.7858   -2.5788 H   0  0  0  0  0  0  0  0  0  0  0  0
    0.5309    3.4793   -3.7701 H   0  0  0  0  0  0  0  0  0  0  0  0
    0.5111    3.6647   -1.3408 H   0  0  0  0  0  0  0  0  0  0  0  0
    2.0017    2.5616   -1.3408 H   0  0  0  0  0  0  0  0  0  0  0  0
   -1.6671    1.8337    0.8468 H   0  0  0  0  0  0  0  0  0  0  0  0
   -1.6880    3.5115   -0.0966 H   0  0  0  0  0  0  0  0  0  0  0  0
    0.6397    2.2430   -5.9126 H   0  0  0  0  0  0  0  0  0  0  0  0
    0.6320    0.6884   -4.9979 H   0  0  0  0  0  0  0  0  0  0  0  0
   -2.7737    2.1794   -2.6475 H   0  0  0  0  0  0  0  0  0  0  0  0
    6.2197    2.2779   -3.9623 H   0  0  0  0  0  0  0  0  0  0  0  0
   -1.5002   -1.2564   -0.7982 H   0  0  0  0  0  0  0  0  0  0  0  0
   -1.3011   -1.3966   -2.5978 H   0  0  0  0  0  0  0  0  0  0  0  0
   -0.5069   -0.5009   -2.0228 H   0  0  0  0  0  0  0  0  0  0  0  0
   -4.0045    2.2232   -1.0568 H   0  0  0  0  0  0  0  0  0  0  0  0
   -4.3981    0.6034   -2.1304 H   0  0  0  0  0  0  0  0  0  0  0  0
   -3.9832    0.5245   -0.4105 H   0  0  0  0  0  0  0  0  0  0  0  0
    5.3951    4.5511   -4.3179 H   0  0  0  0  0  0  0  0  0  0  0  0
    3.7819    4.1088   -3.9567 H   0  0  0  0  0  0  0  0  0  0  0  0
    3.7805    1.3625   -2.4826 H   0  0  0  0  0  0  0  0  0  0  0  0
    5.4298    1.0503   -2.2057 H   0  0  0  0  0  0  0  0  0  0  0  0
    5.9905    4.5215   -1.9618 H   0  0  0  0  0  0  0  0  0  0  0  0
    4.2626    4.9146   -1.8273 H   0  0  0  0  0  0  0  0  0  0  0  0
   -1.2967   -0.4048   -5.0214 H   0  0  0  0  0  0  0  0  0  0  0  0
   -1.3922    3.8783   -5.1742 H   0  0  0  0  0  0  0  0  0  0  0  0
    2.9899    2.1954    0.1167 H   0  0  0  0  0  0  0  0  0  0  0  0
    2.9450   -2.0981   -0.0628 H   0  0  0  0  0  0  0  0  0  0  0  0
   -3.7399   -0.4467   -4.7611 H   0  0  0  0  0  0  0  0  0  0  0  0
   -3.8005    3.7903   -4.5023 H   0  0  0  0  0  0  0  0  0  0  0  0
    5.4183    2.1404    0.1057 H   0  0  0  0  0  0  0  0  0  0  0  0
    5.3939   -2.1291   -0.0697 H   0  0  0  0  0  0  0  0  0  0  0  0
   -5.0310    1.6661   -4.6987 H   0  0  0  0  0  0  0  0  0  0  0  0
  1  6  2  0  0  0  0
  1  7  2  0  0  0  0
  1 12  1  0  0  0  0
  1 23  1  0  0  0  0
  2  3  1  0  0  0  0
  2  8  1  0  0  0  0
  2  9  1  0  0  0  0
  2 11  2  0  0  0  0
  4 27  1  0  0  0  0
  5 28  1  0  0  0  0
  5 29  1  0  0  0  0
  8 40  1  0  0  0  0
  9 41  1  0  0  0  0
 10 27  2  0  0  0  0
 12 17  1  0  0  0  0
 12 18  1  0  0  0  0
 13 27  1  0  0  0  0
 13 42  1  0  0  0  0
 14 39  1  0  0  0  0
 14 43  1  0  0  0  0
 14 44  1  0  0  0  0
 15  3  1  0  0  0  0
 15 16  1  0  0  0  0
 15 17  1  0  0  0  0
 15 45  1  1  0  0  0
 16 13  1  0  0  0  0
 16 19  1  0  0  0  0
 16 46  1  6  0  0  0
 17 47  1  0  0  0  0
 17 48  1  0  0  0  0
 18 20  1  0  0  0  0
 18 49  1  0  0  0  0
 18 50  1  0  0  0  0
 19 21  1  0  0  0  0
 19 51  1  0  0  0  0
 19 52  1  0  0  0  0
 20 24  1  0  0  0  0
 20 25  1  0  0  0  0
 20 53  1  0  0  0  0
 21 30  2  0  0  0  0
 21 31  1  0  0  0  0
 22  4  1  0  0  0  0
 22 26  1  0  0  0  0
 22 28  1  0  0  0  0
 22 54  1  6  0  0  0
 23 32  2  0  0  0  0
 23 33  1  0  0  0  0
 24 55  1  0  0  0  0
 24 56  1  0  0  0  0
 24 57  1  0  0  0  0
 25 58  1  0  0  0  0
 25 59  1  0  0  0  0
 25 60  1  0  0  0  0
 26 29  1  0  0  0  0
 26 61  1  0  0  0  0
 26 62  1  0  0  0  0
 28 63  1  0  0  0  0
 28 64  1  0  0  0  0
 29 65  1  0  0  0  0
 29 66  1  0  0  0  0
 30 34  1  0  0  0  0
 30 67  1  0  0  0  0
 31 35  2  0  0  0  0
 31 68  1  0  0  0  0
 32 36  1  0  0  0  0
 32 69  1  0  0  0  0
 33 37  2  0  0  0  0
 33 70  1  0  0  0  0
 34 38  2  0  0  0  0
 34 71  1  0  0  0  0
 35 38  1  0  0  0  0
 35 72  1  0  0  0  0
 36 39  2  0  0  0  0
 36 73  1  0  0  0  0
 37 39  1  0  0  0  0
 37 74  1  0  0  0  0
 38 75  1  0  0  0  0
M  END
>  <DRUGBANK_ID>
DB01319

>  <COMMON_NAME>
Fosamprenavir

>  <CAS_NUMBER>
226700-79-4

>  <UNII>
WOU1621EEG

>  <SYNONYMS>
FOS-APV; Fosamprenavir

$$$$
