23N
 OpenBabel10282417163D

 26 26  0  0  0  0  0  0  0  0999 V2000
   -2.2670   -4.4977    3.0064 C   0  0  0  0  0  0  0  0  0  0  0  0
   -2.7563   -5.6066    3.6957 C   0  0  0  0  0  0  0  0  0  0  0  0
   -2.3761   -6.8920    3.3122 C   0  0  0  0  0  0  0  0  0  0  0  0
   -1.5709   -7.0771    2.1918 C   0  0  0  0  0  0  0  0  0  0  0  0
   -1.1065   -5.9734    1.4828 C   0  0  0  0  0  0  0  0  0  0  0  0
   -1.4379   -4.6740    1.8927 C   0  0  0  0  0  0  0  0  0  0  0  0
   -0.9313   -3.4890    1.1130 C   0  0  0  0  0  0  0  0  0  0  0  0
    0.5998   -3.4075    1.1148 C   0  0  1  0  0  0  0  0  0  0  0  0
    1.0132   -2.6000   -0.0833 C   0  0  0  0  0  0  0  0  0  0  0  0
    0.8539   -1.3975   -0.2227 O   0  0  0  0  0  0  0  0  0  0  0  0
    1.5505   -3.3525   -1.0590 O   0  0  0  0  0  0  0  0  0  0  0  0
    1.0758   -2.7432    2.3998 C   0  0  0  0  0  0  0  0  0  0  0  0
    2.5711   -2.7007    2.4207 N   0  3  0  0  0  0  0  0  0  0  0  0
    3.1007   -1.5852    2.4684 O   0  5  0  0  0  0  0  0  0  0  0  0
    3.1679   -3.7837    2.4049 O   0  0  0  0  0  0  0  0  0  0  0  0
    1.0532   -4.4032    1.0215 H   0  0  0  0  0  0  0  0  0  0  0  0
   -2.5405   -3.5009    3.3455 H   0  0  0  0  0  0  0  0  0  0  0  0
   -3.4404   -5.4695    4.5291 H   0  0  0  0  0  0  0  0  0  0  0  0
   -2.7082   -7.7523    3.8863 H   0  0  0  0  0  0  0  0  0  0  0  0
   -1.3113   -8.0797    1.8628 H   0  0  0  0  0  0  0  0  0  0  0  0
   -0.4755   -6.1352    0.6107 H   0  0  0  0  0  0  0  0  0  0  0  0
   -1.3308   -3.5608    0.0936 H   0  0  0  0  0  0  0  0  0  0  0  0
   -1.3510   -2.5620    1.5283 H   0  0  0  0  0  0  0  0  0  0  0  0
    1.7611   -2.7352   -1.7925 H   0  0  0  0  0  0  0  0  0  0  0  0
    0.7141   -1.7132    2.4923 H   0  0  0  0  0  0  0  0  0  0  0  0
    0.7765   -3.3035    3.2920 H   0  0  0  0  0  0  0  0  0  0  0  0
  1  6  1  0  0  0  0
  1 17  1  0  0  0  0
  2  1  2  0  0  0  0
  2  3  1  0  0  0  0
  2 18  1  0  0  0  0
  3  4  2  0  0  0  0
  3 19  1  0  0  0  0
  4  5  1  0  0  0  0
  4 20  1  0  0  0  0
  5 21  1  0  0  0  0
  6  7  1  0  0  0  0
  6  5  2  0  0  0  0
  7 22  1  0  0  0  0
  7 23  1  0  0  0  0
  8 16  1  6  0  0  0
  8 12  1  0  0  0  0
  8  9  1  0  0  0  0
  8  7  1  0  0  0  0
  9 10  2  0  0  0  0
  9 11  1  0  0  0  0
 11 24  1  0  0  0  0
 12 13  1  0  0  0  0
 12 25  1  0  0  0  0
 12 26  1  0  0  0  0
 13 14  1  0  0  0  0
 15 13  2  0  0  0  0
M  CHG  2  13   1  14  -1
M  END
>  <DRUGBANK_ID>
DB06924

>  <COMMON_NAME>
(2R)-2-benzyl-3-nitropropanoic acid

$$$$
