
 OpenBabel10282417153D

 26 25  0  0  0  0  0  0  0  0999 V2000
    1.0086   -0.0965   -0.0527 Br  0  0  0  0  0  0  0  0  0  0  0  0
    5.0509    2.3517   -2.8705 F   0  0  0  0  0  0  0  0  0  0  0  0
    5.0509    3.5062   -1.0296 F   0  0  0  0  0  0  0  0  0  0  0  0
    7.5084    2.3835   -0.3253 F   0  0  0  0  0  0  0  0  0  0  0  0
    7.5084    1.2288   -2.1664 F   0  0  0  0  0  0  0  0  0  0  0  0
    5.4622    1.1658    0.4380 F   0  0  0  0  0  0  0  0  0  0  0  0
    5.4622    0.0114   -1.4027 F   0  0  0  0  0  0  0  0  0  0  0  0
    7.0953    3.5692   -3.6334 F   0  0  0  0  0  0  0  0  0  0  0  0
    7.0953    4.7231   -1.7934 F   0  0  0  0  0  0  0  0  0  0  0  0
    3.0029    1.1389   -2.1120 F   0  0  0  0  0  0  0  0  0  0  0  0
    3.0029    2.2953   -0.2681 F   0  0  0  0  0  0  0  0  0  0  0  0
    9.5596    3.6017   -1.0879 F   0  0  0  0  0  0  0  0  0  0  0  0
    9.5596    2.4457   -2.9311 F   0  0  0  0  0  0  0  0  0  0  0  0
    3.4062   -0.0643    1.2107 F   0  0  0  0  0  0  0  0  0  0  0  0
    3.4062   -1.2198   -0.6318 F   0  0  0  0  0  0  0  0  0  0  0  0
    9.1627    4.8036   -4.4112 F   0  0  0  0  0  0  0  0  0  0  0  0
    9.1627    5.9608   -2.5659 F   0  0  0  0  0  0  0  0  0  0  0  0
   10.9318    4.8386   -3.1477 F   0  0  0  0  0  0  0  0  0  0  0  0
    5.5202    2.3606   -1.5936 C   0  0  0  0  0  0  0  0  0  0  0  0
    7.0383    2.3736   -1.6017 C   0  0  0  0  0  0  0  0  0  0  0  0
    4.9906    1.1558   -0.8380 C   0  0  0  0  0  0  0  0  0  0  0  0
    7.5669    3.5785   -2.3574 C   0  0  0  0  0  0  0  0  0  0  0  0
    3.4762    1.1482   -0.8332 C   0  0  0  0  0  0  0  0  0  0  0  0
    9.0775    3.5868   -2.3626 C   0  0  0  0  0  0  0  0  0  0  0  0
    2.9638   -0.0644   -0.0728 C   0  0  0  0  0  0  0  0  0  0  0  0
    9.5759    4.7992   -3.1229 C   0  0  0  0  0  0  0  0  0  0  0  0
  1 25  1  0  0  0  0
  2 19  1  0  0  0  0
  3 19  1  0  0  0  0
  4 20  1  0  0  0  0
  5 20  1  0  0  0  0
  6 21  1  0  0  0  0
  7 21  1  0  0  0  0
  8 22  1  0  0  0  0
  9 22  1  0  0  0  0
 10 23  1  0  0  0  0
 11 23  1  0  0  0  0
 12 24  1  0  0  0  0
 13 24  1  0  0  0  0
 14 25  1  0  0  0  0
 15 25  1  0  0  0  0
 16 26  1  0  0  0  0
 17 26  1  0  0  0  0
 18 26  1  0  0  0  0
 19 20  1  0  0  0  0
 19 21  1  0  0  0  0
 20 22  1  0  0  0  0
 21 23  1  0  0  0  0
 22 24  1  0  0  0  0
 23 25  1  0  0  0  0
 24 26  1  0  0  0  0
M  END
>  <DRUGBANK_ID>
DB05791

>  <SECONDARY_ACCESSION_NUMBERS>
DB06476

>  <COMMON_NAME>
Perflubron

>  <CAS_NUMBER>
423-55-2

>  <UNII>
Q1D0Q7R4D9

>  <SYNONYMS>
Perflubron; Perfluorooctyl-bromide

$$$$
