
 OpenBabel10282417233D

 51 54  0  0  0  0  0  0  0  0999 V2000
    1.3715   -1.3251   -0.0374 C   0  0  0  0  0  0  0  0  0  0  0  0
    0.0105   -1.0636    0.0298 C   0  0  0  0  0  0  0  0  0  0  0  0
   -0.4384    0.2747    0.0275 C   0  0  0  0  0  0  0  0  0  0  0  0
    2.0484   -2.6840   -0.0417 C   0  0  2  0  0  0  0  0  0  0  0  0
   -0.8398   -2.1384    0.0784 O   0  0  0  0  0  0  0  0  0  0  0  0
   -1.8945    0.5099    0.0050 C   0  0  0  0  0  0  0  0  0  0  0  0
    1.5391   -3.9436   -0.5461 O   0  0  0  0  0  0  0  0  0  0  0  0
   -2.1915   -1.8946   -0.0254 C   0  0  0  0  0  0  0  0  0  0  0  0
    2.7785   -2.9761    1.2984 C   0  0  1  0  0  0  0  0  0  0  0  0
   -2.7492   -0.6776   -0.0599 C   0  0  0  0  0  0  0  0  0  0  0  0
    4.0459   -3.7604    0.9474 C   0  0  2  0  0  0  0  0  0  0  0  0
    2.2625   -0.2122   -0.0951 C   0  0  0  0  0  0  0  0  0  0  0  0
    0.4786    1.3443    0.0020 C   0  0  0  0  0  0  0  0  0  0  0  0
    3.6809   -5.0282    0.1683 C   0  0  1  0  0  0  0  0  0  0  0  0
    2.7160   -4.7110   -0.9943 C   0  0  1  0  0  0  0  0  0  0  0  0
    1.8402    1.1027   -0.0526 C   0  0  0  0  0  0  0  0  0  0  0  0
   -3.0371   -3.0897   -0.0984 C   0  0  0  0  0  0  0  0  0  0  0  0
   -2.4236    1.6213    0.0073 O   0  0  0  0  0  0  0  0  0  0  0  0
    3.1484   -1.8286    2.0675 O   0  0  0  0  0  0  0  0  0  0  0  0
   -3.8746   -3.2820   -1.2052 C   0  0  0  0  0  0  0  0  0  0  0  0
   -3.0478   -4.0301    0.9411 C   0  0  0  0  0  0  0  0  0  0  0  0
    4.7867   -4.0907    2.1261 O   0  0  0  0  0  0  0  0  0  0  0  0
    3.6191   -0.4660   -0.1492 O   0  0  0  0  0  0  0  0  0  0  0  0
    0.0579    2.6430    0.0142 O   0  0  0  0  0  0  0  0  0  0  0  0
    4.8645   -5.6769   -0.3087 O   0  0  0  0  0  0  0  0  0  0  0  0
   -4.7570   -5.2850   -0.2061 C   0  0  0  0  0  0  0  0  0  0  0  0
   -3.9144   -5.1284    0.8913 C   0  0  0  0  0  0  0  0  0  0  0  0
   -4.7340   -4.3769   -1.2565 C   0  0  0  0  0  0  0  0  0  0  0  0
    2.3370   -5.9982   -1.7213 C   0  0  0  0  0  0  0  0  0  0  0  0
   -5.6382   -6.3206   -0.3024 O   0  0  0  0  0  0  0  0  0  0  0  0
    1.5032   -5.6962   -2.8336 O   0  0  0  0  0  0  0  0  0  0  0  0
    2.7340   -2.4451   -0.8570 H   0  0  0  0  0  0  0  0  0  0  0  0
    2.1446   -3.5786    1.9592 H   0  0  0  0  0  0  0  0  0  0  0  0
   -3.8145   -0.5055   -0.1352 H   0  0  0  0  0  0  0  0  0  0  0  0
    4.7189   -3.1280    0.3533 H   0  0  0  0  0  0  0  0  0  0  0  0
    3.2004   -5.7287    0.8610 H   0  0  0  0  0  0  0  0  0  0  0  0
    3.2348   -4.0967   -1.7444 H   0  0  0  0  0  0  0  0  0  0  0  0
    2.5601    1.9130   -0.0684 H   0  0  0  0  0  0  0  0  0  0  0  0
    3.6956   -1.2777    1.4751 H   0  0  0  0  0  0  0  0  0  0  0  0
   -3.8688   -2.5755   -2.0322 H   0  0  0  0  0  0  0  0  0  0  0  0
   -2.3973   -3.8984    1.8036 H   0  0  0  0  0  0  0  0  0  0  0  0
    4.1890   -4.5647    2.7299 H   0  0  0  0  0  0  0  0  0  0  0  0
    4.1174    0.3704   -0.1436 H   0  0  0  0  0  0  0  0  0  0  0  0
    0.8089    3.2566   -0.0016 H   0  0  0  0  0  0  0  0  0  0  0  0
    5.4029   -5.0342   -0.8042 H   0  0  0  0  0  0  0  0  0  0  0  0
   -3.9214   -5.8362    1.7143 H   0  0  0  0  0  0  0  0  0  0  0  0
   -5.3896   -4.5149   -2.1108 H   0  0  0  0  0  0  0  0  0  0  0  0
    3.2359   -6.4956   -2.1066 H   0  0  0  0  0  0  0  0  0  0  0  0
    1.8081   -6.6892   -1.0619 H   0  0  0  0  0  0  0  0  0  0  0  0
   -5.5789   -6.8675    0.4969 H   0  0  0  0  0  0  0  0  0  0  0  0
    0.7421   -5.2093   -2.4664 H   0  0  0  0  0  0  0  0  0  0  0  0
  2  1  1  0  0  0  0
  3  2  2  0  0  0  0
  3 13  1  0  0  0  0
  4  1  1  0  0  0  0
  4 32  1  6  0  0  0
  5  2  1  0  0  0  0
  6  3  1  0  0  0  0
  6 10  1  0  0  0  0
  7  4  1  0  0  0  0
  8  5  1  0  0  0  0
  9  4  1  0  0  0  0
  9 19  1  0  0  0  0
  9 33  1  1  0  0  0
 10  8  2  0  0  0  0
 10 34  1  0  0  0  0
 11  9  1  0  0  0  0
 11 22  1  0  0  0  0
 11 35  1  6  0  0  0
 12  1  2  0  0  0  0
 13 16  2  0  0  0  0
 14 11  1  0  0  0  0
 14 25  1  0  0  0  0
 14 36  1  1  0  0  0
 15  7  1  0  0  0  0
 15 29  1  0  0  0  0
 15 14  1  0  0  0  0
 15 37  1  6  0  0  0
 16 12  1  0  0  0  0
 16 38  1  0  0  0  0
 17  8  1  0  0  0  0
 18  6  2  0  0  0  0
 19 39  1  0  0  0  0
 20 17  1  0  0  0  0
 20 40  1  0  0  0  0
 21 17  2  0  0  0  0
 21 41  1  0  0  0  0
 22 42  1  0  0  0  0
 23 12  1  0  0  0  0
 23 43  1  0  0  0  0
 24 13  1  0  0  0  0
 24 44  1  0  0  0  0
 25 45  1  0  0  0  0
 26 27  2  0  0  0  0
 27 21  1  0  0  0  0
 27 46  1  0  0  0  0
 28 20  2  0  0  0  0
 28 26  1  0  0  0  0
 28 47  1  0  0  0  0
 29 48  1  0  0  0  0
 29 49  1  0  0  0  0
 30 26  1  0  0  0  0
 30 50  1  0  0  0  0
 31 29  1  0  0  0  0
 31 51  1  0  0  0  0
M  END
>  <DRUGBANK_ID>
DB16836

>  <COMMON_NAME>
Vitexin

>  <CAS_NUMBER>
3681-93-4

>  <UNII>
9VP70K75OK

>  <SYNONYMS>
Apigenin 8-C-glucoside

$$$$
