PS0
 OpenBabel10282417173D

 27 27  0  0  0  0  0  0  0  0999 V2000
    0.8901    2.2511    1.2570 N   0  0  0  0  0  0  0  0  0  0  0  0
    0.5096    0.8254    1.1491 C   0  0  2  0  0  0  0  0  0  0  0  0
    1.0668    0.2469   -0.1933 C   0  0  1  0  0  0  0  0  0  0  0  0
    0.3941    0.8417   -1.2991 O   0  0  0  0  0  0  0  0  0  0  0  0
   -1.0416    0.7149    1.2706 C   0  0  0  0  0  0  0  0  0  0  0  0
   -1.5882   -0.7018    1.3587 C   0  0  0  0  0  0  0  0  0  0  0  0
   -0.8174   -1.8414    1.1043 C   0  0  0  0  0  0  0  0  0  0  0  0
   -2.9134   -0.9231    1.7593 C   0  0  0  0  0  0  0  0  0  0  0  0
   -1.3113   -3.1318    1.1316 C   0  0  0  0  0  0  0  0  0  0  0  0
   -3.3791   -2.2330    1.9362 C   0  0  0  0  0  0  0  0  0  0  0  0
   -2.5999   -3.3347    1.5915 C   0  0  0  0  0  0  0  0  0  0  0  0
    2.5760    0.3298   -0.3460 C   0  0  0  0  0  0  0  0  0  0  0  0
    0.9556    0.3054    2.0071 H   0  0  0  0  0  0  0  0  0  0  0  0
    0.8944   -0.8116   -0.3238 H   0  0  0  0  0  0  0  0  0  0  0  0
    0.6274    2.7010    0.3747 H   0  0  0  0  0  0  0  0  0  0  0  0
    1.9096    2.3132    1.2713 H   0  0  0  0  0  0  0  0  0  0  0  0
   -0.5212    0.4992   -1.2570 H   0  0  0  0  0  0  0  0  0  0  0  0
   -1.3617    1.2537    2.1757 H   0  0  0  0  0  0  0  0  0  0  0  0
   -1.5255    1.2450    0.4365 H   0  0  0  0  0  0  0  0  0  0  0  0
    0.2479   -1.8107    0.9376 H   0  0  0  0  0  0  0  0  0  0  0  0
   -3.5695   -0.0880    1.9902 H   0  0  0  0  0  0  0  0  0  0  0  0
   -0.6597   -3.9549    0.8622 H   0  0  0  0  0  0  0  0  0  0  0  0
   -4.3625   -2.4020    2.3719 H   0  0  0  0  0  0  0  0  0  0  0  0
   -2.9585   -4.3485    1.7106 H   0  0  0  0  0  0  0  0  0  0  0  0
    3.0790   -0.1187    0.5185 H   0  0  0  0  0  0  0  0  0  0  0  0
    2.8691   -0.2451   -1.2325 H   0  0  0  0  0  0  0  0  0  0  0  0
    2.9265    1.3511   -0.4977 H   0  0  0  0  0  0  0  0  0  0  0  0
  1 15  1  0  0  0  0
  1 16  1  0  0  0  0
  2  5  1  0  0  0  0
  2 13  1  1  0  0  0
  2  3  1  0  0  0  0
  2  1  1  0  0  0  0
  3  4  1  0  0  0  0
  3 12  1  0  0  0  0
  3 14  1  6  0  0  0
  4 17  1  0  0  0  0
  5  6  1  0  0  0  0
  5 18  1  0  0  0  0
  5 19  1  0  0  0  0
  6  7  2  0  0  0  0
  6  8  1  0  0  0  0
  7  9  1  0  0  0  0
  7 20  1  0  0  0  0
  8 10  2  0  0  0  0
  8 21  1  0  0  0  0
  9 11  2  0  0  0  0
  9 22  1  0  0  0  0
 10 11  1  0  0  0  0
 10 23  1  0  0  0  0
 11 24  1  0  0  0  0
 12 25  1  0  0  0  0
 12 26  1  0  0  0  0
 12 27  1  0  0  0  0
M  END
>  <DRUGBANK_ID>
DB08428

>  <COMMON_NAME>
3(S)-AMINO-4-PHENYL-BUTAN-2(S)-OL

$$$$
