
 OpenBabel10282417123D

 82 85  0  0  0  0  0  0  0  0999 V2000
    0.9332   -0.0194   -0.0701 O   0  0  0  0  0  0  0  0  0  0  0  0
    2.1628    0.0173   -0.0827 C   0  0  0  0  0  0  0  0  0  0  0  0
    2.9991    0.0326    1.2300 C   0  0  1  0  0  0  0  0  0  0  0  0
    3.9212   -1.2066    1.3219 C   0  0  0  0  0  0  0  0  0  0  0  0
    4.9902   -1.3562    0.2163 C   0  0  0  0  0  0  0  0  0  0  0  0
    5.9455   -0.1666    0.1419 C   0  0  0  0  0  0  0  0  0  0  0  0
    5.8042   -2.6295    0.3537 C   0  0  0  0  0  0  0  0  0  0  0  0
    2.8561    0.0227   -1.2754 N   0  0  0  0  0  0  0  0  0  0  0  0
    2.2223    0.0065   -2.5709 C   0  0  0  0  0  0  0  0  0  0  0  0
    2.5904    1.2312   -3.4149 C   0  0  0  0  0  0  0  0  0  0  0  0
    2.9525    1.0890   -4.5854 O   0  0  0  0  0  0  0  0  0  0  0  0
    2.2647    2.4761   -2.8977 N   0  0  0  0  0  0  0  0  0  0  0  0
    1.6610    3.4490   -3.7727 C   0  0  0  0  0  0  0  0  0  0  0  0
    2.5436    4.6697   -3.9348 C   0  0  0  0  0  0  0  0  0  0  0  0
    3.4779    4.1956   -1.6498 C   0  0  0  0  0  0  0  0  0  0  0  0
    2.5685    2.9773   -1.5674 C   0  0  0  0  0  0  0  0  0  0  0  0
    3.7507    1.2878    1.4331 N   0  0  0  0  0  0  0  0  0  0  0  0
    3.5391    2.1578    2.4423 C   0  0  0  0  0  0  0  0  0  0  0  0
    4.2920    3.2749    2.3484 N   0  0  0  0  0  0  0  0  0  0  0  0
    2.6915    1.9644    3.3815 N   0  0  0  0  0  0  0  0  0  0  0  0
    2.9165    5.2956   -2.5782 C   0  0  3  0  0  0  0  0  0  0  0  0
    3.9285    6.4036   -2.7386 C   0  0  0  0  0  0  0  0  0  0  0  0
    5.2061    6.4923   -2.2265 C   0  0  0  0  0  0  0  0  0  0  0  0
    5.7641    7.6830   -2.7281 C   0  0  0  0  0  0  0  0  0  0  0  0
    4.8596    8.3630   -3.4456 N   0  0  0  0  0  0  0  0  0  0  0  0
    3.7721    7.5515   -3.4825 N   0  0  0  0  0  0  0  0  0  0  0  0
    2.6561    7.9367   -4.3177 C   0  0  0  0  0  0  0  0  0  0  0  0
    7.1222    8.1455   -2.4619 C   0  0  0  0  0  0  0  0  0  0  0  0
    7.2830    9.3255   -1.7327 C   0  0  0  0  0  0  0  0  0  0  0  0
    8.2643    7.3938   -2.8123 C   0  0  0  0  0  0  0  0  0  0  0  0
    8.0887    5.9098   -3.7129 Cl  0  0  0  0  0  0  0  0  0  0  0  0
    9.5516    7.8497   -2.4479 C   0  0  0  0  0  0  0  0  0  0  0  0
   10.9738    6.9548   -2.9047 Cl  0  0  0  0  0  0  0  0  0  0  0  0
    9.7024    9.0463   -1.7184 C   0  0  0  0  0  0  0  0  0  0  0  0
    8.5521    9.7466   -1.3358 C   0  0  0  0  0  0  0  0  0  0  0  0
   10.9811    9.5249   -1.5173 O   0  0  0  0  0  0  0  0  0  0  0  0
   11.1878   10.8301   -0.9187 C   0  0  0  0  0  0  0  0  0  0  0  0
   10.7140   11.9206   -1.8423 C   0  0  0  0  0  0  0  0  0  0  0  0
    9.9484   11.8608   -2.9904 C   0  0  0  0  0  0  0  0  0  0  0  0
   11.0098   13.2466   -1.5608 O   0  0  0  0  0  0  0  0  0  0  0  0
    9.7254   13.1672   -3.4170 C   0  0  0  0  0  0  0  0  0  0  0  0
   10.4187   13.9974   -2.5623 C   0  0  0  0  0  0  0  0  0  0  0  0
   10.5331   15.4370   -2.7018 C   0  0  0  0  0  0  0  0  0  0  0  0
   10.0263   16.0723   -3.6073 O   0  0  0  0  0  0  0  0  0  0  0  0
   11.2730   16.0377   -1.7343 O   0  0  0  0  0  0  0  0  0  0  0  0
    2.2586   -0.0713    2.0330 H   0  0  0  0  0  0  0  0  0  0  0  0
    4.4102   -1.2176    2.3051 H   0  0  0  0  0  0  0  0  0  0  0  0
    3.2784   -2.0995    1.2966 H   0  0  0  0  0  0  0  0  0  0  0  0
    4.4928   -1.5025   -0.7430 H   0  0  0  0  0  0  0  0  0  0  0  0
    6.3966    0.0244    1.1210 H   0  0  0  0  0  0  0  0  0  0  0  0
    6.7335   -0.3260   -0.5955 H   0  0  0  0  0  0  0  0  0  0  0  0
    5.4591    0.7431   -0.1996 H   0  0  0  0  0  0  0  0  0  0  0  0
    5.1551   -3.5081    0.2987 H   0  0  0  0  0  0  0  0  0  0  0  0
    6.5098   -2.6882   -0.4840 H   0  0  0  0  0  0  0  0  0  0  0  0
    6.3649   -2.6421    1.2891 H   0  0  0  0  0  0  0  0  0  0  0  0
    3.8526    0.1539   -1.3067 H   0  0  0  0  0  0  0  0  0  0  0  0
    2.5641   -0.8959   -3.0930 H   0  0  0  0  0  0  0  0  0  0  0  0
    1.1333   -0.0420   -2.4836 H   0  0  0  0  0  0  0  0  0  0  0  0
    0.7101    3.7321   -3.3041 H   0  0  0  0  0  0  0  0  0  0  0  0
    1.4224    3.0116   -4.7465 H   0  0  0  0  0  0  0  0  0  0  0  0
    1.9890    5.3669   -4.5624 H   0  0  0  0  0  0  0  0  0  0  0  0
    3.4552    4.4060   -4.4834 H   0  0  0  0  0  0  0  0  0  0  0  0
    4.4559    3.8611   -2.0276 H   0  0  0  0  0  0  0  0  0  0  0  0
    3.6510    4.5914   -0.6403 H   0  0  0  0  0  0  0  0  0  0  0  0
    3.1077    2.2475   -0.9840 H   0  0  0  0  0  0  0  0  0  0  0  0
    1.6288    3.2193   -1.0643 H   0  0  0  0  0  0  0  0  0  0  0  0
    4.1871    1.6937    0.6286 H   0  0  0  0  0  0  0  0  0  0  0  0
    4.3220    3.9064    3.1400 H   0  0  0  0  0  0  0  0  0  0  0  0
    5.1289    3.2932    1.7808 H   0  0  0  0  0  0  0  0  0  0  0  0
    2.6796    2.7609    4.0164 H   0  0  0  0  0  0  0  0  0  0  0  0
    2.0186    5.7117   -2.1000 H   0  0  0  0  0  0  0  0  0  0  0  0
    5.7097    5.7694   -1.6014 H   0  0  0  0  0  0  0  0  0  0  0  0
    2.3467    8.9513   -4.0640 H   0  0  0  0  0  0  0  0  0  0  0  0
    2.9742    7.8724   -5.3626 H   0  0  0  0  0  0  0  0  0  0  0  0
    1.8028    7.2820   -4.1474 H   0  0  0  0  0  0  0  0  0  0  0  0
    6.4182    9.9314   -1.4656 H   0  0  0  0  0  0  0  0  0  0  0  0
    8.6065   10.6890   -0.8001 H   0  0  0  0  0  0  0  0  0  0  0  0
   10.7156   10.8517    0.0697 H   0  0  0  0  0  0  0  0  0  0  0  0
   12.2680   10.9345   -0.7633 H   0  0  0  0  0  0  0  0  0  0  0  0
    9.5523   10.9726   -3.4591 H   0  0  0  0  0  0  0  0  0  0  0  0
    9.1522   13.4795   -4.2776 H   0  0  0  0  0  0  0  0  0  0  0  0
   11.6279   15.4151   -1.0769 H   0  0  0  0  0  0  0  0  0  0  0  0
  1  2  2  0  0  0  0
  2  3  1  0  0  0  0
  2  8  1  0  0  0  0
  3  4  1  0  0  0  0
  3 17  1  0  0  0  0
  3 46  1  1  0  0  0
  4  5  1  0  0  0  0
  4 47  1  0  0  0  0
  4 48  1  0  0  0  0
  5  6  1  0  0  0  0
  5  7  1  0  0  0  0
  5 49  1  0  0  0  0
  6 50  1  0  0  0  0
  6 51  1  0  0  0  0
  6 52  1  0  0  0  0
  7 53  1  0  0  0  0
  7 54  1  0  0  0  0
  7 55  1  0  0  0  0
  8  9  1  0  0  0  0
  8 56  1  0  0  0  0
  9 10  1  0  0  0  0
  9 57  1  0  0  0  0
  9 58  1  0  0  0  0
 10 11  2  0  0  0  0
 10 12  1  0  0  0  0
 12 13  1  0  0  0  0
 12 16  1  0  0  0  0
 13 14  1  0  0  0  0
 13 59  1  0  0  0  0
 13 60  1  0  0  0  0
 14 21  1  0  0  0  0
 14 61  1  0  0  0  0
 14 62  1  0  0  0  0
 15 16  1  0  0  0  0
 15 63  1  0  0  0  0
 15 64  1  0  0  0  0
 16 65  1  0  0  0  0
 16 66  1  0  0  0  0
 17 18  1  0  0  0  0
 17 67  1  0  0  0  0
 18 19  1  0  0  0  0
 18 20  2  0  0  0  0
 19 68  1  0  0  0  0
 19 69  1  0  0  0  0
 20 70  1  0  0  0  0
 21 15  1  0  0  0  0
 21 71  1  0  0  0  0
 22 21  1  0  0  0  0
 22 23  2  0  0  0  0
 22 26  1  0  0  0  0
 23 24  1  0  0  0  0
 23 72  1  0  0  0  0
 24 25  2  0  0  0  0
 24 28  1  0  0  0  0
 25 26  1  0  0  0  0
 26 27  1  0  0  0  0
 27 73  1  0  0  0  0
 27 74  1  0  0  0  0
 27 75  1  0  0  0  0
 28 29  2  0  0  0  0
 28 30  1  0  0  0  0
 29 35  1  0  0  0  0
 29 76  1  0  0  0  0
 30 31  1  0  0  0  0
 30 32  2  0  0  0  0
 32 33  1  0  0  0  0
 32 34  1  0  0  0  0
 34 35  2  0  0  0  0
 34 36  1  0  0  0  0
 35 77  1  0  0  0  0
 36 37  1  0  0  0  0
 37 38  1  0  0  0  0
 37 78  1  0  0  0  0
 37 79  1  0  0  0  0
 38 39  2  0  0  0  0
 38 40  1  0  0  0  0
 39 41  1  0  0  0  0
 39 80  1  0  0  0  0
 40 42  1  0  0  0  0
 41 81  1  0  0  0  0
 42 41  2  0  0  0  0
 42 43  1  0  0  0  0
 43 45  1  0  0  0  0
 43 44  2  0  0  0  0
 45 82  1  0  0  0  0
M  END
>  <DRUGBANK_ID>
DB02581

>  <SECONDARY_ACCESSION_NUMBERS>
EXPT01491

>  <COMMON_NAME>
N(2)-carbamimidoyl-N-{2-[4-(3-{4-[(5-carboxyfuran-2-yl)methoxy]-2,3-dichlorophenyl}-1-methyl-1H-pyrazol-5-yl)piperidin-1-yl]-2-oxoethyl}-D-leucinamide

$$$$
