
 OpenBabel10282417233D

 37 36  0  0  1  0  0  0  0  0999 V2000
    0.9537   -0.4614   -0.3203 C   0  0  0  0  0  0  0  0  0  0  0  0
    0.4747    0.2016   -1.5596 C   0  0  0  0  0  0  0  0  0  0  0  0
    0.9718   -0.7829   -2.6267 C   0  0  0  0  0  0  0  0  0  0  0  0
   -1.0369    0.2287   -1.3523 C   0  0  0  0  0  0  0  0  0  0  0  0
   -1.4173    1.1483   -0.3413 O   0  0  0  0  0  0  0  0  0  0  0  0
   -1.2719    1.1014    1.2607 P   0  0  0  0  0  0  0  0  0  0  0  0
   -0.8087    2.6132    1.4808 O   0  0  0  0  0  0  0  0  0  0  0  0
   -2.8234    1.0833    1.5928 O   0  0  0  0  0  0  0  0  0  0  0  0
   -0.4794    0.0894    2.0137 O   0  0  0  0  0  0  0  0  0  0  0  0
    1.1097    1.6278   -1.7627 C   0  0  1  0  0  0  0  0  0  0  0  0
    0.6086    2.5997   -0.8323 O   0  0  0  0  0  0  0  0  0  0  0  0
    2.6724    1.6724   -1.7473 C   0  0  0  0  0  0  0  0  0  0  0  0
    3.2908    1.8642   -2.7994 O   0  0  0  0  0  0  0  0  0  0  0  0
    3.3937    1.4593   -0.5951 N   0  0  0  0  0  0  0  0  0  0  0  0
    2.9651    1.2399    0.7863 C   0  0  0  0  0  0  0  0  0  0  0  0
    3.2331   -0.1916    1.3252 C   0  0  0  0  0  0  0  0  0  0  0  0
    4.6972   -0.3626    1.5233 C   0  0  0  0  0  0  0  0  0  0  0  0
    5.0168   -0.7650    2.7704 O   0  0  0  0  0  0  0  0  0  0  0  0
    5.5006   -0.2106    0.6336 O   0  0  0  0  0  0  0  0  0  0  0  0
    0.4934   -1.4059   -0.0253 H   0  0  0  0  0  0  0  0  0  0  0  0
    0.8469    0.2129    0.4949 H   0  0  0  0  0  0  0  0  0  0  0  0
    1.9830   -0.6451   -0.5387 H   0  0  0  0  0  0  0  0  0  0  0  0
    0.6522   -1.8028   -2.3733 H   0  0  0  0  0  0  0  0  0  0  0  0
    0.6393   -0.5291   -3.6275 H   0  0  0  0  0  0  0  0  0  0  0  0
    2.0738   -0.8150   -2.6277 H   0  0  0  0  0  0  0  0  0  0  0  0
   -1.5019    0.5753   -2.2808 H   0  0  0  0  0  0  0  0  0  0  0  0
   -1.4473   -0.7636   -1.1346 H   0  0  0  0  0  0  0  0  0  0  0  0
    0.0817    2.7563    1.0889 H   0  0  0  0  0  0  0  0  0  0  0  0
   -3.2452    0.5219    0.9190 H   0  0  0  0  0  0  0  0  0  0  0  0
    0.8061    1.9811   -2.7613 H   0  0  0  0  0  0  0  0  0  0  0  0
   -0.3536    2.6739   -1.0040 H   0  0  0  0  0  0  0  0  0  0  0  0
    4.3988    1.4351   -0.7544 H   0  0  0  0  0  0  0  0  0  0  0  0
    3.4517    1.9678    1.4378 H   0  0  0  0  0  0  0  0  0  0  0  0
    1.9271    1.5507    0.8488 H   0  0  0  0  0  0  0  0  0  0  0  0
    2.6275   -0.3875    2.2173 H   0  0  0  0  0  0  0  0  0  0  0  0
    3.0436   -1.0647    0.6920 H   0  0  0  0  0  0  0  0  0  0  0  0
    4.2490   -0.8997    3.3565 H   0  0  0  0  0  0  0  0  0  0  0  0
  1  2  1  0  0  0  0
  1 20  1  0  0  0  0
  1 21  1  0  0  0  0
  1 22  1  0  0  0  0
  2  3  1  0  0  0  0
  2  4  1  0  0  0  0
  3 23  1  0  0  0  0
  3 24  1  0  0  0  0
  3 25  1  0  0  0  0
  4  5  1  0  0  0  0
  4 26  1  0  0  0  0
  4 27  1  0  0  0  0
  5  6  1  0  0  0  0
  6  7  1  0  0  0  0
  6  8  1  0  0  0  0
  6  9  2  0  0  0  0
  7 28  1  0  0  0  0
  8 29  1  0  0  0  0
 10  2  1  0  0  0  0
 10 11  1  0  0  0  0
 10 12  1  0  0  0  0
 10 30  1  6  0  0  0
 11 31  1  0  0  0  0
 12 13  2  0  0  0  0
 12 14  1  0  0  0  0
 14 15  1  0  0  0  0
 14 32  1  0  0  0  0
 15 16  1  0  0  0  0
 15 33  1  0  0  0  0
 15 34  1  0  0  0  0
 16 17  1  0  0  0  0
 16 35  1  0  0  0  0
 16 36  1  0  0  0  0
 17 18  1  0  0  0  0
 17 19  2  0  0  0  0
 18 37  1  0  0  0  0
M  END
>  <DRUGBANK_ID>
DB16966

>  <COMMON_NAME>
Phosphopantothenic acid

>  <CAS_NUMBER>
5875-50-3

>  <UNII>
1SCE5NG3E8

>  <SYNONYMS>
.beta.-alanine, n-((2r)-2-hydroxy-3,3-dimethyl-1-oxo-4-(phosphonooxy)butyl)-; 4'-phospho-d-pantothenic acid; 4'-phosphopantothenic acid; D-pantothenic acid 4'-phosphate; Pantothenate phosphate; Pantothenic acid, 4'-(dihydrogen phosphate)

$$$$
