
 OpenBabel10282417113D

 53 56  0  0  1  0  0  0  0  0999 V2000
    1.3449   -1.7898   -0.2135 C   0  0  0  0  0  0  0  0  0  0  0  0
    2.2949   -0.5578   -0.2836 C   0  0  0  0  0  0  0  0  0  0  0  0
    1.5516    1.0985    0.0730 S   0  0  0  0  0  0  0  0  0  0  0  0
   -0.0207   -1.7237   -0.3366 C   0  0  0  0  0  0  0  0  0  0  0  0
   -0.5990   -0.4833   -0.4174 N   0  0  0  0  0  0  0  0  0  0  0  0
    0.0755    0.7365   -0.7984 C   0  0  1  0  0  0  0  0  0  0  0  0
   -1.2748    1.5362   -0.5944 C   0  0  1  0  0  0  0  0  0  0  0  0
   -1.7758    0.0877   -0.0303 C   0  0  0  0  0  0  0  0  0  0  0  0
   -0.8808   -2.9916   -0.2441 C   0  0  0  0  0  0  0  0  0  0  0  0
   -2.2114   -2.8479   -0.3735 O   0  0  0  0  0  0  0  0  0  0  0  0
   -0.4187   -4.1205   -0.1829 O   0  0  0  0  0  0  0  0  0  0  0  0
   -2.7006   -0.4240    0.5145 O   0  0  0  0  0  0  0  0  0  0  0  0
   -1.5075    2.6922    0.3722 N   0  0  0  0  0  0  0  0  0  0  0  0
   -1.6821    1.8709   -1.9385 O   0  0  0  0  0  0  0  0  0  0  0  0
   -0.9048    2.9237   -2.5044 C   0  0  0  0  0  0  0  0  0  0  0  0
   -2.3046    3.8707    0.1424 C   0  0  0  0  0  0  0  0  0  0  0  0
   -3.1768    4.0144   -1.1877 C   0  0  3  0  0  0  0  0  0  0  0  0
   -2.1492    4.7823    0.9678 O   0  0  0  0  0  0  0  0  0  0  0  0
   -4.6044    5.1329   -1.3508 S   0  0  0  0  0  0  0  0  0  0  0  0
   -4.9433    3.7851   -2.4677 C   0  0  0  0  0  0  0  0  0  0  0  0
   -4.3327    2.5934   -1.3634 S   0  0  0  0  0  0  0  0  0  0  0  0
   -5.6292    3.6500   -3.6302 C   0  0  0  0  0  0  0  0  0  0  0  0
   -6.1779    4.8903   -4.2474 C   0  0  0  0  0  0  0  0  0  0  0  0
   -5.9606    2.2927   -4.1924 C   0  0  0  0  0  0  0  0  0  0  0  0
   -5.3719    1.1580   -3.7223 N   0  0  0  0  0  0  0  0  0  0  0  0
   -6.7946    2.1954   -5.0953 O   0  0  0  0  0  0  0  0  0  0  0  0
   -7.0878    4.7048   -5.2310 O   0  0  0  0  0  0  0  0  0  0  0  0
   -5.8510    6.0221   -3.9231 O   0  0  0  0  0  0  0  0  0  0  0  0
    2.0906   -3.0477    0.2748 C   0  0  0  0  0  0  0  0  0  0  0  0
    1.5743   -3.7928    1.8633 S   0  0  0  0  0  0  0  0  0  0  0  0
    1.7100   -2.8000    3.2710 C   0  0  0  0  0  0  0  0  0  0  0  0
    1.9378   -3.2893    4.4734 N   0  0  0  0  0  0  0  0  0  0  0  0
    1.8887   -2.2308    5.3525 N   0  0  0  0  0  0  0  0  0  0  0  0
    1.6044   -1.1098    4.7217 N   0  0  0  0  0  0  0  0  0  0  0  0
    1.4224   -1.4833    3.4571 N   0  0  0  0  0  0  0  0  0  0  0  0
    1.0922   -0.4712    2.5431 C   0  0  0  0  0  0  0  0  0  0  0  0
    0.3333    0.6873   -1.8598 H   0  0  0  0  0  0  0  0  0  0  0  0
    2.7852   -0.4989   -1.2570 H   0  0  0  0  0  0  0  0  0  0  0  0
    3.0758   -0.6667    0.4787 H   0  0  0  0  0  0  0  0  0  0  0  0
   -2.5987   -1.9555   -0.3028 H   0  0  0  0  0  0  0  0  0  0  0  0
   -1.0025    2.7473    1.2541 H   0  0  0  0  0  0  0  0  0  0  0  0
   -0.7446    3.7133   -1.7621 H   0  0  0  0  0  0  0  0  0  0  0  0
    0.0914    2.6166   -2.7976 H   0  0  0  0  0  0  0  0  0  0  0  0
   -1.4840    3.2959   -3.3455 H   0  0  0  0  0  0  0  0  0  0  0  0
   -2.5492    4.3844   -2.0048 H   0  0  0  0  0  0  0  0  0  0  0  0
   -5.7078    0.2566   -4.0470 H   0  0  0  0  0  0  0  0  0  0  0  0
   -4.7495    1.1431   -2.9225 H   0  0  0  0  0  0  0  0  0  0  0  0
   -7.2905    3.7654   -5.4556 H   0  0  0  0  0  0  0  0  0  0  0  0
    1.9946   -3.8150   -0.5075 H   0  0  0  0  0  0  0  0  0  0  0  0
    3.1664   -2.8653    0.3476 H   0  0  0  0  0  0  0  0  0  0  0  0
    0.1815    0.0819    2.7563 H   0  0  0  0  0  0  0  0  0  0  0  0
    1.9730    0.1605    2.4263 H   0  0  0  0  0  0  0  0  0  0  0  0
    0.8567   -1.0081    1.6685 H   0  0  0  0  0  0  0  0  0  0  0  0
  1  2  1  0  0  0  0
  1  4  2  0  0  0  0
  1 29  1  0  0  0  0
  2  3  1  0  0  0  0
  2 38  1  0  0  0  0
  2 39  1  0  0  0  0
  3  6  1  0  0  0  0
  4  9  1  0  0  0  0
  5  4  1  0  0  0  0
  5  6  1  0  0  0  0
  6  7  1  0  0  0  0
  6 37  1  6  0  0  0
  7 13  1  0  0  0  0
  7 14  1  6  0  0  0
  7  8  1  0  0  0  0
  8  5  1  0  0  0  0
  8 12  2  0  0  0  0
  9 10  1  0  0  0  0
  9 11  2  0  0  0  0
 10 40  1  0  0  0  0
 13 16  1  0  0  0  0
 13 41  1  0  0  0  0
 14 15  1  0  0  0  0
 15 42  1  0  0  0  0
 15 43  1  0  0  0  0
 15 44  1  0  0  0  0
 16 18  2  0  0  0  0
 16 17  1  0  0  0  0
 17 19  1  0  0  0  0
 17 45  1  0  0  0  0
 19 20  1  0  0  0  0
 20 21  1  0  0  0  0
 20 22  2  0  0  0  0
 21 17  1  0  0  0  0
 22 23  1  0  0  0  0
 22 24  1  0  0  0  0
 23 27  1  0  0  0  0
 23 28  2  0  0  0  0
 24 25  1  0  0  0  0
 24 26  2  0  0  0  0
 25 46  1  0  0  0  0
 25 47  1  0  0  0  0
 27 48  1  0  0  0  0
 29 30  1  0  0  0  0
 29 49  1  0  0  0  0
 29 50  1  0  0  0  0
 30 31  1  0  0  0  0
 31 32  2  0  0  0  0
 32 33  1  0  0  0  0
 33 34  2  0  0  0  0
 34 35  1  0  0  0  0
 35 31  1  0  0  0  0
 35 36  1  0  0  0  0
 36 51  1  0  0  0  0
 36 52  1  0  0  0  0
 36 53  1  0  0  0  0
M  END
>  <DRUGBANK_ID>
DB01330

>  <COMMON_NAME>
Cefotetan

>  <CAS_NUMBER>
69712-56-7

>  <UNII>
48SPP0PA9Q

>  <SYNONYMS>
(6R,7S)-7-(4-(carbamoylcarboxymethylene)-1,3-dithiethane-2-carboxamido)-7-methoxy-3-(((1-methyl-1H-tetrazol-5- yl)thio)methyl)-8-oxo-5-thia-1-azabicyclo(4.2.0)oct-2-ene-2- carboxylic acid; Cefotetan; Cefotetanum

$$$$
