
 OpenBabel10282417193D

 44 45  0  0  1  0  0  0  0  0999 V2000
    1.5241   -0.2022   -0.0475 C   0  0  0  0  0  0  0  0  0  0  0  0
    0.6765   -1.3217   -0.0116 C   0  0  0  0  0  0  0  0  0  0  0  0
   -0.6956   -1.1389    0.1754 C   0  0  0  0  0  0  0  0  0  0  0  0
   -1.0882    0.1769    0.3645 C   0  0  0  0  0  0  0  0  0  0  0  0
   -0.3358    1.3115    0.1976 C   0  0  0  0  0  0  0  0  0  0  0  0
    1.0294    1.1145    0.0029 C   0  0  0  0  0  0  0  0  0  0  0  0
   -0.8580    2.5770    0.1969 O   0  0  0  0  0  0  0  0  0  0  0  0
   -2.2997    2.7579    0.3268 C   0  0  0  0  0  0  0  0  0  0  0  0
   -3.1027    2.4924   -0.9998 C   0  0  0  0  0  0  0  0  0  0  0  0
   -4.4565    3.2224   -1.0239 C   0  0  0  0  0  0  0  0  0  0  0  0
   -5.2905    2.8095   -2.2516 C   0  0  0  0  0  0  0  0  0  0  0  0
   -5.6148    1.3192   -2.2745 C   0  0  0  0  0  0  0  0  0  0  0  0
   -4.3239    0.5478   -2.2991 C   0  0  0  0  0  0  0  0  0  0  0  0
   -3.4237    1.0121   -1.1812 C   0  0  0  0  0  0  0  0  0  0  0  0
   -1.7147   -2.2683    0.2056 C   0  0  1  0  0  0  0  0  0  0  0  0
   -2.6592   -2.2624    1.4411 C   0  0  0  0  0  0  0  0  0  0  0  0
   -3.7607   -1.1980    1.6047 C   0  0  0  0  0  0  0  0  0  0  0  0
   -4.7622   -1.2905    0.5560 N   0  0  0  0  0  0  0  0  0  0  0  0
   -2.4947   -2.3714   -0.9922 O   0  0  0  0  0  0  0  0  0  0  0  0
    2.6030   -0.3581   -0.1152 H   0  0  0  0  0  0  0  0  0  0  0  0
    1.0880   -2.3224   -0.0895 H   0  0  0  0  0  0  0  0  0  0  0  0
   -2.1174    0.3366    0.6000 H   0  0  0  0  0  0  0  0  0  0  0  0
    1.6944    1.9612   -0.0885 H   0  0  0  0  0  0  0  0  0  0  0  0
   -2.6906    2.1988    1.1912 H   0  0  0  0  0  0  0  0  0  0  0  0
   -2.4361    3.8080    0.6165 H   0  0  0  0  0  0  0  0  0  0  0  0
   -2.4825    2.8150   -1.8413 H   0  0  0  0  0  0  0  0  0  0  0  0
   -5.0243    2.9987   -0.1096 H   0  0  0  0  0  0  0  0  0  0  0  0
   -4.2884    4.3032   -1.0426 H   0  0  0  0  0  0  0  0  0  0  0  0
   -6.2226    3.3766   -2.2836 H   0  0  0  0  0  0  0  0  0  0  0  0
   -4.7179    3.0478   -3.1564 H   0  0  0  0  0  0  0  0  0  0  0  0
   -6.2062    1.0355   -1.3935 H   0  0  0  0  0  0  0  0  0  0  0  0
   -6.2010    1.0472   -3.1579 H   0  0  0  0  0  0  0  0  0  0  0  0
   -4.5296   -0.5256   -2.2004 H   0  0  0  0  0  0  0  0  0  0  0  0
   -3.7959    0.6690   -3.2489 H   0  0  0  0  0  0  0  0  0  0  0  0
   -2.5161    0.4573   -1.3597 H   0  0  0  0  0  0  0  0  0  0  0  0
   -3.9041    0.7449   -0.2455 H   0  0  0  0  0  0  0  0  0  0  0  0
   -1.1545   -3.2091    0.2505 H   0  0  0  0  0  0  0  0  0  0  0  0
   -3.1915   -3.2218    1.4356 H   0  0  0  0  0  0  0  0  0  0  0  0
   -2.0329   -2.2375    2.3374 H   0  0  0  0  0  0  0  0  0  0  0  0
   -4.2705   -1.3298    2.5606 H   0  0  0  0  0  0  0  0  0  0  0  0
   -3.3701   -0.1863    1.7042 H   0  0  0  0  0  0  0  0  0  0  0  0
   -5.3113   -0.4340    0.4954 H   0  0  0  0  0  0  0  0  0  0  0  0
   -4.2893   -1.4118   -0.3425 H   0  0  0  0  0  0  0  0  0  0  0  0
   -2.4410   -1.5471   -1.4960 H   0  0  0  0  0  0  0  0  0  0  0  0
  1  2  2  0  0  0  0
  1  6  1  0  0  0  0
  1 20  1  0  0  0  0
  2  3  1  0  0  0  0
  2 21  1  0  0  0  0
  3  4  2  0  0  0  0
  3 15  1  0  0  0  0
  4  5  1  0  0  0  0
  4 22  1  0  0  0  0
  5  6  2  0  0  0  0
  5  7  1  0  0  0  0
  6 23  1  0  0  0  0
  7  8  1  0  0  0  0
  8  9  1  0  0  0  0
  8 24  1  0  0  0  0
  8 25  1  0  0  0  0
  9 10  1  0  0  0  0
  9 14  1  0  0  0  0
  9 26  1  0  0  0  0
 10 11  1  0  0  0  0
 10 27  1  0  0  0  0
 10 28  1  0  0  0  0
 11 12  1  0  0  0  0
 11 29  1  0  0  0  0
 11 30  1  0  0  0  0
 12 13  1  0  0  0  0
 12 31  1  0  0  0  0
 12 32  1  0  0  0  0
 13 14  1  0  0  0  0
 13 33  1  0  0  0  0
 13 34  1  0  0  0  0
 14 35  1  0  0  0  0
 14 36  1  0  0  0  0
 15 16  1  0  0  0  0
 15 19  1  0  0  0  0
 15 37  1  1  0  0  0
 16 17  1  0  0  0  0
 16 38  1  0  0  0  0
 16 39  1  0  0  0  0
 17 18  1  0  0  0  0
 17 40  1  0  0  0  0
 17 41  1  0  0  0  0
 18 42  1  0  0  0  0
 18 43  1  0  0  0  0
 19 44  1  0  0  0  0
M  END
>  <DRUGBANK_ID>
DB12608

>  <COMMON_NAME>
Emixustat

>  <CAS_NUMBER>
1141777-14-1

>  <UNII>
02DZ1HBF0M

>  <SYNONYMS>
Emixustat

$$$$
