FNP
 OpenBabel10282417133D

 34 35  0  0  0  0  0  0  0  0999 V2000
    1.0731   -0.0670   -0.0126 C   0  0  0  0  0  0  0  0  0  0  0  0
    1.0230    6.0716   -0.3508 C   0  0  0  0  0  0  0  0  0  0  0  0
   -0.0578    6.0985   -1.2916 C   0  0  0  0  0  0  0  0  0  0  0  0
   -0.5840    4.9806   -1.9334 C   0  0  0  0  0  0  0  0  0  0  0  0
   -0.2080    3.7442   -1.4997 C   0  0  0  0  0  0  0  0  0  0  0  0
   -0.7558    2.5763   -2.0483 C   0  0  0  0  0  0  0  0  0  0  0  0
   -0.4102    1.3301   -1.5379 C   0  0  0  0  0  0  0  0  0  0  0  0
    0.4817    1.2523   -0.4680 C   0  0  0  0  0  0  0  0  0  0  0  0
    0.9947    2.4538    0.0717 C   0  0  0  0  0  0  0  0  0  0  0  0
    0.7207    3.6885   -0.4410 C   0  0  0  0  0  0  0  0  0  0  0  0
    1.3702    4.8219    0.0943 C   0  0  0  0  0  0  0  0  0  0  0  0
    1.7835    7.3385    0.1364 C   0  0  0  0  0  0  0  0  0  0  0  0
    0.7550   -1.1780   -0.7235 F   0  0  0  0  0  0  0  0  0  0  0  0
    0.8287   -0.3447    1.3021 F   0  0  0  0  0  0  0  0  0  0  0  0
    2.9031   -0.0670   -0.0126 P   0  0  0  0  0  0  0  0  0  0  0  0
    2.9593    0.5434   -1.4133 O   0  0  0  0  0  0  0  0  0  0  0  0
    3.0598    0.9992    1.2254 O   0  0  0  0  0  0  0  0  0  0  0  0
    4.6331   -0.0670   -0.0126 O   0  0  0  0  0  0  0  0  0  0  0  0
    1.5385    7.6726    1.4364 F   0  0  0  0  0  0  0  0  0  0  0  0
    3.1216    7.3797   -0.0599 F   0  0  0  0  0  0  0  0  0  0  0  0
    1.1702    8.8156   -0.7529 P   0  0  0  0  0  0  0  0  0  0  0  0
    1.0755    8.1807   -2.1382 O   0  0  0  0  0  0  0  0  0  0  0  0
   -0.2061    8.8480    0.1457 O   0  0  0  0  0  0  0  0  0  0  0  0
    0.5905   10.2120   -1.5937 O   0  0  0  0  0  0  0  0  0  0  0  0
   -0.5353    7.0126   -1.6304 H   0  0  0  0  0  0  0  0  0  0  0  0
   -1.3036    5.1124   -2.7399 H   0  0  0  0  0  0  0  0  0  0  0  0
   -1.4454    2.6431   -2.8887 H   0  0  0  0  0  0  0  0  0  0  0  0
   -0.8040    0.4318   -2.0041 H   0  0  0  0  0  0  0  0  0  0  0  0
    1.7069    2.4913    0.8811 H   0  0  0  0  0  0  0  0  0  0  0  0
    2.1386    4.7214    0.8616 H   0  0  0  0  0  0  0  0  0  0  0  0
    2.3308    0.9730    1.8755 H   0  0  0  0  0  0  0  0  0  0  0  0
    4.9904   -0.9677    0.0537 H   0  0  0  0  0  0  0  0  0  0  0  0
    0.0344    8.7989    1.1054 H   0  0  0  0  0  0  0  0  0  0  0  0
   -0.0371    9.8452   -2.2482 H   0  0  0  0  0  0  0  0  0  0  0  0
  1  8  1  0  0  0  0
  1 13  1  0  0  0  0
  1 14  1  0  0  0  0
  1 15  1  0  0  0  0
  2  3  2  0  0  0  0
  2 11  1  0  0  0  0
  2 12  1  0  0  0  0
  3  4  1  0  0  0  0
  3 25  1  0  0  0  0
  4  5  2  0  0  0  0
  4 26  1  0  0  0  0
  5  6  1  0  0  0  0
  5 10  1  0  0  0  0
  6  7  2  0  0  0  0
  6 27  1  0  0  0  0
  7  8  1  0  0  0  0
  7 28  1  0  0  0  0
  8  9  2  0  0  0  0
  9 10  1  0  0  0  0
  9 29  1  0  0  0  0
 10 11  2  0  0  0  0
 11 30  1  0  0  0  0
 12 19  1  0  0  0  0
 12 20  1  0  0  0  0
 12 21  1  0  0  0  0
 15 16  2  0  0  0  0
 15 17  1  0  0  0  0
 15 18  1  0  0  0  0
 17 31  1  0  0  0  0
 18 32  1  0  0  0  0
 21 22  2  0  0  0  0
 21 23  1  0  0  0  0
 21 24  1  0  0  0  0
 23 33  1  0  0  0  0
 24 34  1  0  0  0  0
M  END
>  <DRUGBANK_ID>
DB03154

>  <SECONDARY_ACCESSION_NUMBERS>
EXPT01463

>  <COMMON_NAME>
{[7-(Difluoro-Phosphono-Methyl)-Naphthalen-2-Yl]-Difluoro-Methyl}-Phosphonic Acid

$$$$
