
 OpenBabel10282417123D

163168  0  0  0  0  0  0  0  0999 V2000
   15.2283  -11.4086   11.7883 O   0  0  0  0  0  0  0  0  0  0  0  0
   15.8899   -2.6838   -1.7962 O   0  0  0  0  0  0  0  0  0  0  0  0
   14.6432  -10.5202   14.0025 O   0  0  0  0  0  0  0  0  0  0  0  0
   18.2994  -11.3921   10.7221 O   0  0  0  0  0  0  0  0  0  0  0  0
   19.0258  -11.1559   13.3771 O   0  0  0  0  0  0  0  0  0  0  0  0
   15.5911   -2.8191   -4.1740 O   0  0  0  0  0  0  0  0  0  0  0  0
   16.1593   -5.1372   -0.4295 O   0  0  0  0  0  0  0  0  0  0  0  0
   16.5305   -6.6854   -2.6785 O   0  0  0  0  0  0  0  0  0  0  0  0
   17.0258  -13.0805   12.5280 O   0  0  0  0  0  0  0  0  0  0  0  0
   17.7844   -4.6752   -4.2891 O   0  0  0  0  0  0  0  0  0  0  0  0
   14.4199  -10.4534    9.8882 O   0  0  0  0  0  0  0  0  0  0  0  0
   13.5671   -1.8150   -0.3190 O   0  0  0  0  0  0  0  0  0  0  0  0
   15.9338   -6.9272    1.8892 O   0  0  0  0  0  0  0  0  0  0  0  0
   17.4312   -2.9505    2.6327 O   0  0  0  0  0  0  0  0  0  0  0  0
   15.9095   -5.2152   11.3882 O   0  0  0  0  0  0  0  0  0  0  0  0
   14.4119    2.8263   -2.8082 O   0  0  0  0  0  0  0  0  0  0  0  0
   14.8376   -8.8827    2.0286 O   0  0  0  0  0  0  0  0  0  0  0  0
   19.0617   -4.4470    1.9927 O   0  0  0  0  0  0  0  0  0  0  0  0
   15.9870   -7.2066   17.2852 O   0  5  0  0  0  0  0  0  0  0  0  0
   16.1921   -5.3175   16.1849 O   0  0  0  0  0  0  0  0  0  0  0  0
   13.1294   -0.9140   -7.9948 O   0  5  0  0  0  0  0  0  0  0  0  0
   13.1284    1.2512   -7.6382 O   0  0  0  0  0  0  0  0  0  0  0  0
   13.8568   -8.3852    7.1786 N   0  0  0  0  0  0  0  0  0  0  0  0
   20.3184    2.3750   -1.9234 N   0  0  0  0  0  0  0  0  0  0  0  0
   16.7525   -7.3926    7.3287 N   0  0  0  0  0  0  0  0  0  0  0  0
   19.7056   -0.5886   -1.7260 N   0  0  0  0  0  0  0  0  0  0  0  0
   14.3978   -6.5498   10.4625 N   0  0  0  0  0  0  0  0  0  0  0  0
   16.5595    2.2316   -3.1754 N   0  0  0  0  0  0  0  0  0  0  0  0
   15.9768   -8.1094    3.8173 N   0  0  0  0  0  0  0  0  0  0  0  0
   18.3143   -2.8732    0.6015 N   0  0  0  0  0  0  0  0  0  0  0  0
   16.1065   -6.5508   16.2432 N   0  3  0  0  0  0  0  0  0  0  0  0
   13.3320    0.0801   -7.2876 N   0  3  0  0  0  0  0  0  0  0  0  0
   15.5189   -5.5015    4.4277 N   0  0  0  0  0  0  0  0  0  0  0  0
   14.9556   -9.2313    7.6287 C   0  0  0  0  0  0  0  0  0  0  0  0
   14.4204   -7.2289    6.4879 C   0  0  0  0  0  0  0  0  0  0  0  0
   21.3123    1.2998   -2.2348 C   0  0  0  0  0  0  0  0  0  0  0  0
   19.3810    1.8945   -0.9023 C   0  0  0  0  0  0  0  0  0  0  0  0
   16.2835   -8.4400    8.1657 C   0  0  0  0  0  0  0  0  0  0  0  0
   15.5977   -6.4978    7.1069 C   0  0  0  0  0  0  0  0  0  0  0  0
   20.7637   -0.1084   -2.6680 C   0  0  0  0  0  0  0  0  0  0  0  0
   18.8648    0.5610   -1.3977 C   0  0  0  0  0  0  0  0  0  0  0  0
   17.6222  -10.4874   11.5868 C   0  0  3  0  0  0  0  0  0  0  0  0
   17.6925  -10.8209   13.0634 C   0  0  3  0  0  0  0  0  0  0  0  0
   12.7943   -7.9331    8.1116 C   0  0  0  0  0  0  0  0  0  0  0  0
   19.6148    2.9056   -3.1185 C   0  0  0  0  0  0  0  0  0  0  0  0
   15.2412   -4.9916   -1.5159 C   0  0  2  0  0  0  0  0  0  0  0  0
   15.9901   -5.3645   -2.7995 C   0  0  1  0  0  0  0  0  0  0  0  0
   17.4902   -8.1193    6.2862 C   0  0  0  0  0  0  0  0  0  0  0  0
   20.3043   -1.0136   -0.4814 C   0  0  0  0  0  0  0  0  0  0  0  0
   16.1493  -10.4472   11.3491 C   0  0  3  0  0  0  0  0  0  0  0  0
   16.7130  -11.9635   13.4204 C   0  0  3  0  0  0  0  0  0  0  0  0
   14.7505   -3.5457   -1.5671 C   0  0  1  0  0  0  0  0  0  0  0  0
   17.1233   -4.3655   -3.0601 C   0  0  2  0  0  0  0  0  0  0  0  0
   15.2509  -11.5522   13.1803 C   0  0  3  0  0  0  0  0  0  0  0  0
   16.5152   -2.9493   -3.0729 C   0  0  2  0  0  0  0  0  0  0  0  0
   12.7103   -8.2929    9.5998 C   0  0  0  0  0  0  0  0  0  0  0  0
   18.8228    2.0284   -4.1432 C   0  0  0  0  0  0  0  0  0  0  0  0
   16.9238   -9.4006    5.5252 C   0  0  0  0  0  0  0  0  0  0  0  0
   19.3747   -0.7521    0.7178 C   0  0  0  0  0  0  0  0  0  0  0  0
   15.8280  -10.3700    9.9582 C   0  0  0  0  0  0  0  0  0  0  0  0
   14.0726   -3.1472   -0.2481 C   0  0  0  0  0  0  0  0  0  0  0  0
   14.0031   -7.8809   10.1974 C   0  0  0  0  0  0  0  0  0  0  0  0
   17.5063    1.3391   -3.7689 C   0  0  0  0  0  0  0  0  0  0  0  0
   15.6754   -9.2411    4.6451 C   0  0  0  0  0  0  0  0  0  0  0  0
   18.0511   -1.4827    0.5865 C   0  0  0  0  0  0  0  0  0  0  0  0
   15.0443   -9.2154   13.9820 C   0  0  0  0  0  0  0  0  0  0  0  0
   15.0544   -1.5832   -4.4047 C   0  0  0  0  0  0  0  0  0  0  0  0
   15.2059   -6.2170   11.5138 C   0  0  0  0  0  0  0  0  0  0  0  0
   15.2139    2.0169   -3.2420 C   0  0  0  0  0  0  0  0  0  0  0  0
   14.6313   -8.3278   12.9977 C   0  0  0  0  0  0  0  0  0  0  0  0
   15.2600   -7.0720   12.7575 C   0  0  0  0  0  0  0  0  0  0  0  0
   15.2451   -0.4788   -3.5837 C   0  0  0  0  0  0  0  0  0  0  0  0
   14.7900    0.7956   -3.9604 C   0  0  0  0  0  0  0  0  0  0  0  0
   15.6954   -8.6544   15.0442 C   0  0  0  0  0  0  0  0  0  0  0  0
   14.2972   -1.4272   -5.5623 C   0  0  0  0  0  0  0  0  0  0  0  0
   15.9727   -6.5376   13.8059 C   0  0  0  0  0  0  0  0  0  0  0  0
   16.0204   -7.2824   14.9876 C   0  0  0  0  0  0  0  0  0  0  0  0
   14.1334    0.9811   -5.1575 C   0  0  0  0  0  0  0  0  0  0  0  0
   13.8994   -0.1357   -5.9585 C   0  0  0  0  0  0  0  0  0  0  0  0
   15.5544   -8.0284    2.5482 C   0  0  0  0  0  0  0  0  0  0  0  0
   18.3726   -3.5029    1.8118 C   0  0  0  0  0  0  0  0  0  0  0  0
   16.0849   -4.8593    3.2689 C   0  0  3  0  0  0  0  0  0  0  0  0
   16.8046   -5.9049    2.4085 C   0  0  0  0  0  0  0  0  0  0  0  0
   17.0209   -3.7370    3.7390 C   0  0  0  0  0  0  0  0  0  0  0  0
   17.6826  -12.0671   10.3954 H   0  0  0  0  0  0  0  0  0  0  0  0
   19.2592  -11.8191   12.6973 H   0  0  0  0  0  0  0  0  0  0  0  0
   16.7817   -4.3863   -0.4285 H   0  0  0  0  0  0  0  0  0  0  0  0
   17.0785   -6.6962   -1.8719 H   0  0  0  0  0  0  0  0  0  0  0  0
   16.5108  -12.9453   11.7046 H   0  0  0  0  0  0  0  0  0  0  0  0
   18.7408   -4.5587   -4.1631 H   0  0  0  0  0  0  0  0  0  0  0  0
   14.1182  -11.3666    9.9634 H   0  0  0  0  0  0  0  0  0  0  0  0
   14.3282   -1.2364   -0.4969 H   0  0  0  0  0  0  0  0  0  0  0  0
   14.7709   -6.0564    9.6611 H   0  0  0  0  0  0  0  0  0  0  0  0
   16.8462    2.8742   -2.4393 H   0  0  0  0  0  0  0  0  0  0  0  0
   16.3992   -7.2888    4.2542 H   0  0  0  0  0  0  0  0  0  0  0  0
   18.9937   -3.2293   -0.0569 H   0  0  0  0  0  0  0  0  0  0  0  0
   14.9797   -4.8435    4.9874 H   0  0  0  0  0  0  0  0  0  0  0  0
   14.8616   -6.2192    4.1167 H   0  0  0  0  0  0  0  0  0  0  0  0
   14.4903  -10.0703    8.1065 H   0  0  0  0  0  0  0  0  0  0  0  0
   15.2804   -9.9476    6.8884 H   0  0  0  0  0  0  0  0  0  0  0  0
   14.9943   -7.5584    5.6802 H   0  0  0  0  0  0  0  0  0  0  0  0
   13.6393   -6.7025    5.9448 H   0  0  0  0  0  0  0  0  0  0  0  0
   22.0402    1.6697   -2.9568 H   0  0  0  0  0  0  0  0  0  0  0  0
   21.8858    1.1424   -1.3128 H   0  0  0  0  0  0  0  0  0  0  0  0
   19.8729    1.8364    0.0698 H   0  0  0  0  0  0  0  0  0  0  0  0
   18.5140    2.5581   -0.7625 H   0  0  0  0  0  0  0  0  0  0  0  0
   16.2069   -7.8310    9.0709 H   0  0  0  0  0  0  0  0  0  0  0  0
   17.1331   -9.1012    8.3943 H   0  0  0  0  0  0  0  0  0  0  0  0
   15.1902   -5.9912    7.9783 H   0  0  0  0  0  0  0  0  0  0  0  0
   15.9799   -5.6594    6.5479 H   0  0  0  0  0  0  0  0  0  0  0  0
   20.3571   -0.0741   -3.6848 H   0  0  0  0  0  0  0  0  0  0  0  0
   21.5542   -0.8573   -2.7766 H   0  0  0  0  0  0  0  0  0  0  0  0
   18.7926    0.8262   -2.3842 H   0  0  0  0  0  0  0  0  0  0  0  0
   17.8374    0.3576   -1.0797 H   0  0  0  0  0  0  0  0  0  0  0  0
   18.0626   -9.4958   11.3828 H   0  0  0  0  0  0  0  0  0  0  0  0
   17.4379   -9.9205   13.6220 H   0  0  0  0  0  0  0  0  0  0  0  0
   11.8447   -8.2170    7.6599 H   0  0  0  0  0  0  0  0  0  0  0  0
   12.8465   -6.8430    8.1259 H   0  0  0  0  0  0  0  0  0  0  0  0
   18.9554    3.7151   -2.7809 H   0  0  0  0  0  0  0  0  0  0  0  0
   20.4043    3.3983   -3.6936 H   0  0  0  0  0  0  0  0  0  0  0  0
   14.4143   -5.6840   -1.3336 H   0  0  0  0  0  0  0  0  0  0  0  0
   15.2976   -5.3731   -3.6468 H   0  0  0  0  0  0  0  0  0  0  0  0
   17.9616   -7.3972    5.6255 H   0  0  0  0  0  0  0  0  0  0  0  0
   18.3529   -8.5387    6.8414 H   0  0  0  0  0  0  0  0  0  0  0  0
   21.2351   -0.4804   -0.3105 H   0  0  0  0  0  0  0  0  0  0  0  0
   20.5696   -2.0670   -0.6042 H   0  0  0  0  0  0  0  0  0  0  0  0
   15.9060   -9.5020   11.7796 H   0  0  0  0  0  0  0  0  0  0  0  0
   16.8379  -12.2966   14.4411 H   0  0  0  0  0  0  0  0  0  0  0  0
   14.0273   -3.3998   -2.3772 H   0  0  0  0  0  0  0  0  0  0  0  0
   17.8713   -4.4424   -2.2573 H   0  0  0  0  0  0  0  0  0  0  0  0
   14.5970  -12.4250   13.2958 H   0  0  0  0  0  0  0  0  0  0  0  0
   17.3503   -2.2486   -3.2155 H   0  0  0  0  0  0  0  0  0  0  0  0
   12.5216   -9.3692    9.6998 H   0  0  0  0  0  0  0  0  0  0  0  0
   11.9125   -7.8020   10.1546 H   0  0  0  0  0  0  0  0  0  0  0  0
   18.5685    2.6618   -4.9951 H   0  0  0  0  0  0  0  0  0  0  0  0
   19.4909    1.2871   -4.5755 H   0  0  0  0  0  0  0  0  0  0  0  0
   17.7082   -9.7304    4.8487 H   0  0  0  0  0  0  0  0  0  0  0  0
   16.8687  -10.2577    6.2095 H   0  0  0  0  0  0  0  0  0  0  0  0
   19.0813    0.2891    0.8600 H   0  0  0  0  0  0  0  0  0  0  0  0
   19.9479   -0.9565    1.6201 H   0  0  0  0  0  0  0  0  0  0  0  0
   16.1739   -9.3620    9.9160 H   0  0  0  0  0  0  0  0  0  0  0  0
   16.3398  -10.9691    9.2069 H   0  0  0  0  0  0  0  0  0  0  0  0
   13.2267   -3.8108   -0.0431 H   0  0  0  0  0  0  0  0  0  0  0  0
   14.7638   -3.1873    0.5988 H   0  0  0  0  0  0  0  0  0  0  0  0
   14.6256   -8.1166    9.4074 H   0  0  0  0  0  0  0  0  0  0  0  0
   14.4479   -8.5559   10.8643 H   0  0  0  0  0  0  0  0  0  0  0  0
   17.2076    0.7268   -4.6214 H   0  0  0  0  0  0  0  0  0  0  0  0
   17.4329    0.5111   -3.0677 H   0  0  0  0  0  0  0  0  0  0  0  0
   15.3622  -10.0960    4.0476 H   0  0  0  0  0  0  0  0  0  0  0  0
   14.7032   -9.1209    5.1338 H   0  0  0  0  0  0  0  0  0  0  0  0
   17.4848   -1.3210   -0.3284 H   0  0  0  0  0  0  0  0  0  0  0  0
   17.3996   -1.1324    1.3962 H   0  0  0  0  0  0  0  0  0  0  0  0
   13.8582   -8.7692   12.3868 H   0  0  0  0  0  0  0  0  0  0  0  0
   15.8278   -0.5721   -2.6755 H   0  0  0  0  0  0  0  0  0  0  0  0
   15.8550   -9.2513   15.9344 H   0  0  0  0  0  0  0  0  0  0  0  0
   14.0434   -2.3015   -6.1590 H   0  0  0  0  0  0  0  0  0  0  0  0
   16.3322   -5.5088   13.7451 H   0  0  0  0  0  0  0  0  0  0  0  0
   13.8632    1.9910   -5.4553 H   0  0  0  0  0  0  0  0  0  0  0  0
   15.2423   -4.4505    2.7022 H   0  0  0  0  0  0  0  0  0  0  0  0
   17.7115   -6.3059    2.8821 H   0  0  0  0  0  0  0  0  0  0  0  0
   17.1128   -5.4127    1.5033 H   0  0  0  0  0  0  0  0  0  0  0  0
   16.4665   -3.0585    4.4033 H   0  0  0  0  0  0  0  0  0  0  0  0
   17.8896   -4.0925    4.3011 H   0  0  0  0  0  0  0  0  0  0  0  0
  1 50  1  0  0  0  0
  1 54  1  0  0  0  0
  2 52  1  0  0  0  0
  2 55  1  0  0  0  0
  3 54  1  0  0  0  0
  3 66  1  0  0  0  0
  4 42  1  0  0  0  0
  4 85  1  0  0  0  0
  5 43  1  0  0  0  0
  5 86  1  0  0  0  0
  6 67  1  0  0  0  0
  7 87  1  0  0  0  0
  8 88  1  0  0  0  0
  9 51  1  0  0  0  0
  9 89  1  0  0  0  0
 10 90  1  0  0  0  0
 11 60  1  0  0  0  0
 11 91  1  0  0  0  0
 12 61  1  0  0  0  0
 12 92  1  0  0  0  0
 13 80  1  0  0  0  0
 13 83  1  0  0  0  0
 14 81  1  0  0  0  0
 14 84  1  0  0  0  0
 15 68  2  0  0  0  0
 16 69  2  0  0  0  0
 17 80  2  0  0  0  0
 18 81  2  0  0  0  0
 19 31  1  0  0  0  0
 20 31  2  0  0  0  0
 21 32  1  0  0  0  0
 22 32  2  0  0  0  0
 23 34  1  0  0  0  0
 23 35  1  0  0  0  0
 23 44  1  0  0  0  0
 24 36  1  0  0  0  0
 24 37  1  0  0  0  0
 24 45  1  0  0  0  0
 25 38  1  0  0  0  0
 25 39  1  0  0  0  0
 25 48  1  0  0  0  0
 26 40  1  0  0  0  0
 26 41  1  0  0  0  0
 26 49  1  0  0  0  0
 27 62  1  0  0  0  0
 27 68  1  0  0  0  0
 27 93  1  0  0  0  0
 28 63  1  0  0  0  0
 28 69  1  0  0  0  0
 28 94  1  0  0  0  0
 29 64  1  0  0  0  0
 29 80  1  0  0  0  0
 29 95  1  0  0  0  0
 30 65  1  0  0  0  0
 30 81  1  0  0  0  0
 30 96  1  0  0  0  0
 31 77  1  0  0  0  0
 32 79  1  0  0  0  0
 33 82  1  0  0  0  0
 33 97  1  0  0  0  0
 33 98  1  0  0  0  0
 34 38  1  0  0  0  0
 34 99  1  0  0  0  0
 34100  1  0  0  0  0
 35 39  1  0  0  0  0
 35101  1  0  0  0  0
 35102  1  0  0  0  0
 36 40  1  0  0  0  0
 36103  1  0  0  0  0
 36104  1  0  0  0  0
 37 41  1  0  0  0  0
 37105  1  0  0  0  0
 37106  1  0  0  0  0
 38107  1  0  0  0  0
 38108  1  0  0  0  0
 39109  1  0  0  0  0
 39110  1  0  0  0  0
 40111  1  0  0  0  0
 40112  1  0  0  0  0
 41113  1  0  0  0  0
 41114  1  0  0  0  0
 42 43  1  0  0  0  0
 42 50  1  0  0  0  0
 42115  1  0  0  0  0
 43 51  1  0  0  0  0
 43116  1  0  0  0  0
 44 56  1  0  0  0  0
 44117  1  0  0  0  0
 44118  1  0  0  0  0
 45 57  1  0  0  0  0
 45119  1  0  0  0  0
 45120  1  0  0  0  0
 46  7  1  0  0  0  0
 46 47  1  0  0  0  0
 46 52  1  0  0  0  0
 46121  1  1  0  0  0
 47  8  1  0  0  0  0
 47 53  1  0  0  0  0
 47122  1  6  0  0  0
 48 58  1  0  0  0  0
 48123  1  0  0  0  0
 48124  1  0  0  0  0
 49 59  1  0  0  0  0
 49125  1  0  0  0  0
 49126  1  0  0  0  0
 50 60  1  0  0  0  0
 50127  1  0  0  0  0
 51 54  1  0  0  0  0
 51128  1  0  0  0  0
 52 61  1  0  0  0  0
 52129  1  6  0  0  0
 53 55  1  0  0  0  0
 53130  1  1  0  0  0
 53 10  1  0  0  0  0
 54131  1  0  0  0  0
 55132  1  6  0  0  0
 55  6  1  0  0  0  0
 56 62  1  0  0  0  0
 56133  1  0  0  0  0
 56134  1  0  0  0  0
 57 63  1  0  0  0  0
 57135  1  0  0  0  0
 57136  1  0  0  0  0
 58 64  1  0  0  0  0
 58137  1  0  0  0  0
 58138  1  0  0  0  0
 59 65  1  0  0  0  0
 59139  1  0  0  0  0
 59140  1  0  0  0  0
 60141  1  0  0  0  0
 60142  1  0  0  0  0
 61143  1  0  0  0  0
 61144  1  0  0  0  0
 62145  1  0  0  0  0
 62146  1  0  0  0  0
 63147  1  0  0  0  0
 63148  1  0  0  0  0
 64149  1  0  0  0  0
 64150  1  0  0  0  0
 65151  1  0  0  0  0
 65152  1  0  0  0  0
 66 70  2  0  0  0  0
 66 74  1  0  0  0  0
 67 72  2  0  0  0  0
 67 75  1  0  0  0  0
 68 71  1  0  0  0  0
 69 73  1  0  0  0  0
 70 71  1  0  0  0  0
 70153  1  0  0  0  0
 71 76  2  0  0  0  0
 72 73  1  0  0  0  0
 72154  1  0  0  0  0
 73 78  2  0  0  0  0
 74 77  2  0  0  0  0
 74155  1  0  0  0  0
 75 79  2  0  0  0  0
 75156  1  0  0  0  0
 76 77  1  0  0  0  0
 76157  1  0  0  0  0
 78 79  1  0  0  0  0
 78158  1  0  0  0  0
 82 83  1  0  0  0  0
 82 84  1  0  0  0  0
 82159  1  0  0  0  0
 83160  1  0  0  0  0
 83161  1  0  0  0  0
 84162  1  0  0  0  0
 84163  1  0  0  0  0
M  CHG  4  19  -1  21  -1  31   1  32   1
M  END
>  <DRUGBANK_ID>
DB02574

>  <SECONDARY_ACCESSION_NUMBERS>
EXPT00780

>  <COMMON_NAME>
BV2

$$$$
