324
 OpenBabel10282417103D

 56 59  0  0  1  0  0  0  0  0999 V2000
    6.1041   -2.0290    7.4324 F   0  0  0  0  0  0  0  0  0  0  0  0
    3.0542    1.9551    7.2255 O   0  0  0  0  0  0  0  0  0  0  0  0
    3.8167   -2.2994    5.6865 O   0  0  0  0  0  0  0  0  0  0  0  0
    2.3747    2.7622    9.3146 O   0  0  0  0  0  0  0  0  0  0  0  0
    5.4517   -2.7232    1.1628 O   0  0  0  0  0  0  0  0  0  0  0  0
    4.9660    0.7317    7.2434 C   0  0  1  0  0  0  0  0  0  0  0  0
    6.4286    0.4683    7.7881 C   0  0  2  0  0  0  0  0  0  0  0  0
    7.2359   -0.3563    6.4968 C   0  0  1  0  0  0  0  0  0  0  0  0
    6.2004   -1.5032    6.1203 C   0  0  1  0  0  0  0  0  0  0  0  0
    4.1841    1.6808    8.1316 C   0  0  1  0  0  0  0  0  0  0  0  0
    4.1464   -0.5273    7.0166 C   0  0  0  0  0  0  0  0  0  0  0  0
    4.7251   -1.2035    5.8586 C   0  0  2  0  0  0  0  0  0  0  0  0
    6.6159    1.8688    8.5413 C   0  0  0  0  0  0  0  0  0  0  0  0
    6.6447   -2.7246    5.2017 C   0  0  1  0  0  0  0  0  0  0  0  0
    5.2968    2.7432    8.3348 C   0  0  0  0  0  0  0  0  0  0  0  0
    8.5714   -1.2465    6.6332 C   0  0  0  0  0  0  0  0  0  0  0  0
    8.9865   -1.8327    5.0729 C   0  0  1  0  0  0  0  0  0  0  0  0
    5.1896    1.5976    5.8444 C   0  0  0  0  0  0  0  0  0  0  0  0
    7.7678   -2.3271    4.1875 C   0  0  0  0  0  0  0  0  0  0  0  0
    3.2085    1.8342    9.3124 C   0  0  0  0  0  0  0  0  0  0  0  0
    6.6844   -3.8868    6.2754 C   0  0  0  0  0  0  0  0  0  0  0  0
    5.6207   -3.1723    4.1809 C   0  0  0  0  0  0  0  0  0  0  0  0
   10.1065   -2.7714    4.5912 C   0  0  0  0  0  0  0  0  0  0  0  0
    7.5631   -2.4675    2.7546 C   0  0  0  0  0  0  0  0  0  0  0  0
    5.2191   -2.1730    3.3569 C   0  0  0  0  0  0  0  0  0  0  0  0
    3.3176    1.0765   10.5799 C   0  0  0  0  0  0  0  0  0  0  0  0
    6.0058   -2.4284    2.1842 C   0  0  0  0  0  0  0  0  0  0  0  0
    6.4808   -0.2414    8.6240 H   0  0  0  0  0  0  0  0  0  0  0  0
    7.5034    0.3609    5.7090 H   0  0  0  0  0  0  0  0  0  0  0  0
    2.9340    1.2502    6.5660 H   0  0  0  0  0  0  0  0  0  0  0  0
    4.2918   -3.1378    5.7655 H   0  0  0  0  0  0  0  0  0  0  0  0
    4.0344   -1.1742    7.8947 H   0  0  0  0  0  0  0  0  0  0  0  0
    3.1117   -0.4222    6.6793 H   0  0  0  0  0  0  0  0  0  0  0  0
    4.5625   -0.5669    4.9974 H   0  0  0  0  0  0  0  0  0  0  0  0
    6.4990    1.7122    9.6302 H   0  0  0  0  0  0  0  0  0  0  0  0
    7.6284    2.2973    8.5479 H   0  0  0  0  0  0  0  0  0  0  0  0
    5.0869    3.3666    9.2119 H   0  0  0  0  0  0  0  0  0  0  0  0
    5.3415    3.4532    7.5085 H   0  0  0  0  0  0  0  0  0  0  0  0
    9.3634   -0.6230    7.0693 H   0  0  0  0  0  0  0  0  0  0  0  0
    8.4141   -2.0397    7.3746 H   0  0  0  0  0  0  0  0  0  0  0  0
    9.4630   -0.8887    4.7939 H   0  0  0  0  0  0  0  0  0  0  0  0
    6.2342    1.7316    5.5626 H   0  0  0  0  0  0  0  0  0  0  0  0
    4.6352    1.2416    4.9804 H   0  0  0  0  0  0  0  0  0  0  0  0
    4.8200    2.6234    5.9160 H   0  0  0  0  0  0  0  0  0  0  0  0
    7.3631   -3.7158    7.1223 H   0  0  0  0  0  0  0  0  0  0  0  0
    5.6958   -3.9054    6.7776 H   0  0  0  0  0  0  0  0  0  0  0  0
    6.8041   -4.9070    5.9292 H   0  0  0  0  0  0  0  0  0  0  0  0
    5.8196   -4.1842    3.7952 H   0  0  0  0  0  0  0  0  0  0  0  0
   10.7355   -2.1669    3.9156 H   0  0  0  0  0  0  0  0  0  0  0  0
   10.7310   -3.2637    5.3297 H   0  0  0  0  0  0  0  0  0  0  0  0
    9.7393   -3.5534    3.9007 H   0  0  0  0  0  0  0  0  0  0  0  0
    7.5869   -3.4817    2.2634 H   0  0  0  0  0  0  0  0  0  0  0  0
    5.4013   -1.1140    3.5467 H   0  0  0  0  0  0  0  0  0  0  0  0
    3.2477    0.0063   10.4121 H   0  0  0  0  0  0  0  0  0  0  0  0
    4.2297    1.3770   11.0925 H   0  0  0  0  0  0  0  0  0  0  0  0
    2.4592    1.3880   11.1979 H   0  0  0  0  0  0  0  0  0  0  0  0
  2 30  1  0  0  0  0
  3 31  1  0  0  0  0
  4 20  2  0  0  0  0
  5 27  2  0  0  0  0
  6  7  1  0  0  0  0
  6 10  1  0  0  0  0
  6 11  1  0  0  0  0
  6 18  1  1  0  0  0
  7  8  1  0  0  0  0
  7 13  1  0  0  0  0
  7 28  1  6  0  0  0
  8  9  1  0  0  0  0
  8 16  1  0  0  0  0
  8 29  1  1  0  0  0
  9 12  1  0  0  0  0
  9 14  1  0  0  0  0
  9  1  1  6  0  0  0
 10 15  1  0  0  0  0
 10 20  1  1  0  0  0
 10  2  1  0  0  0  0
 11 12  1  0  0  0  0
 11 32  1  0  0  0  0
 11 33  1  0  0  0  0
 12 34  1  6  0  0  0
 12  3  1  0  0  0  0
 13 15  1  0  0  0  0
 13 35  1  0  0  0  0
 13 36  1  0  0  0  0
 14 19  1  0  0  0  0
 14 22  1  0  0  0  0
 14 21  1  1  0  0  0
 15 37  1  0  0  0  0
 15 38  1  0  0  0  0
 16 17  1  0  0  0  0
 16 39  1  0  0  0  0
 16 40  1  0  0  0  0
 17 19  1  0  0  0  0
 17 41  1  1  0  0  0
 17 23  1  0  0  0  0
 18 42  1  0  0  0  0
 18 43  1  0  0  0  0
 18 44  1  0  0  0  0
 19 24  2  0  0  0  0
 20 26  1  0  0  0  0
 21 45  1  0  0  0  0
 21 46  1  0  0  0  0
 21 47  1  0  0  0  0
 22 25  2  0  0  0  0
 22 48  1  0  0  0  0
 23 49  1  0  0  0  0
 23 50  1  0  0  0  0
 23 51  1  0  0  0  0
 24 27  1  0  0  0  0
 24 52  1  0  0  0  0
 25 27  1  0  0  0  0
 25 53  1  0  0  0  0
 26 54  1  0  0  0  0
 26 55  1  0  0  0  0
 26 56  1  0  0  0  0
M  END
>  <DRUGBANK_ID>
DB00324

>  <SECONDARY_ACCESSION_NUMBERS>
APRD00980

>  <COMMON_NAME>
Fluorometholone

>  <CAS_NUMBER>
426-13-1

>  <UNII>
SV0CSG527L

>  <SYNONYMS>
(1R,2S,8S,10S,11S,14R,15S,17S)-14-acetyl-1-fluoro-14,17-dihydroxy-2,8,15-trimethyltetracyclo[8.7.0.02,7.011,15]heptadeca-3,6-dien-5-one; 9-Fluoro-11beta,17-dihydroxy-6alpha-methylpregna-1,4-diene-3,20-dione; Fluorometholon; Fluorom√©tholone; Fluorometholone; Fluorometholonum; Fluorometolona

$$$$
