DTM
 OpenBabel10282417133D

 49 51  0  0  0  0  0  0  0  0999 V2000
    2.3425   -0.6201    0.0032 C   0  0  0  0  0  0  0  0  0  0  0  0
    1.2495    1.3741    0.0123 C   0  0  0  0  0  0  0  0  0  0  0  0
    0.0261    0.7080    0.0044 C   0  0  0  0  0  0  0  0  0  0  0  0
   -1.2238    1.3644    0.0025 C   0  0  0  0  0  0  0  0  0  0  0  0
   -2.4389    0.6851   -0.0090 C   0  0  0  0  0  0  0  0  0  0  0  0
   -2.2751   -0.6935    0.0064 C   0  0  0  0  0  0  0  0  0  0  0  0
    0.0629   -0.6708    0.0047 C   0  0  0  0  0  0  0  0  0  0  0  0
   -4.9618    0.7188    0.0157 C   0  0  0  0  0  0  0  0  0  0  0  0
   -5.7357    1.0456    1.2821 C   0  0  0  0  0  0  0  0  0  0  0  0
   -5.9080    2.3693    1.6969 C   0  0  0  0  0  0  0  0  0  0  0  0
   -6.5596    2.7395    2.8612 C   0  0  0  0  0  0  0  0  0  0  0  0
   -7.1574    1.7464    3.6414 C   0  0  0  0  0  0  0  0  0  0  0  0
   -7.0704    0.3947    3.2205 C   0  0  0  0  0  0  0  0  0  0  0  0
   -6.3588    0.0580    2.0493 C   0  0  0  0  0  0  0  0  0  0  0  0
   -5.9987    5.0641    2.4990 C   0  0  0  0  0  0  0  0  0  0  0  0
   -7.9649    3.3219    5.2827 C   0  0  0  0  0  0  0  0  0  0  0  0
   -8.3490   -0.4687    5.0468 C   0  0  0  0  0  0  0  0  0  0  0  0
   -3.5920    2.8367   -0.1941 C   0  0  0  0  0  0  0  0  0  0  0  0
    1.2178   -1.3336    0.0021 N   0  0  0  0  0  0  0  0  0  0  0  0
    3.5243   -1.3101   -0.0056 N   0  0  0  0  0  0  0  0  0  0  0  0
    2.4103    0.7109    0.0097 N   0  0  0  0  0  0  0  0  0  0  0  0
    1.3296    2.7534   -0.0426 N   0  0  0  0  0  0  0  0  0  0  0  0
   -1.0818   -1.3650    0.0080 N   0  0  0  0  0  0  0  0  0  0  0  0
   -3.6413    1.3779   -0.0482 N   0  0  0  0  0  0  0  0  0  0  0  0
   -6.6351    4.0460    3.2537 O   0  0  0  0  0  0  0  0  0  0  0  0
   -7.8414    1.9984    4.7991 O   0  0  0  0  0  0  0  0  0  0  0  0
   -7.6227   -0.7040    3.8450 O   0  0  0  0  0  0  0  0  0  0  0  0
   -1.2211    2.4435    0.0133 H   0  0  0  0  0  0  0  0  0  0  0  0
   -3.1210   -1.3727    0.0078 H   0  0  0  0  0  0  0  0  0  0  0  0
   -5.5562    1.0229   -0.8553 H   0  0  0  0  0  0  0  0  0  0  0  0
   -4.8772   -0.3681   -0.0662 H   0  0  0  0  0  0  0  0  0  0  0  0
   -5.5249    3.1697    1.1023 H   0  0  0  0  0  0  0  0  0  0  0  0
   -6.3036   -0.9878    1.7475 H   0  0  0  0  0  0  0  0  0  0  0  0
   -4.9153    4.9115    2.4555 H   0  0  0  0  0  0  0  0  0  0  0  0
   -6.4355    5.1405    1.4985 H   0  0  0  0  0  0  0  0  0  0  0  0
   -6.1824    6.0110    3.0140 H   0  0  0  0  0  0  0  0  0  0  0  0
   -6.9832    3.7372    5.5334 H   0  0  0  0  0  0  0  0  0  0  0  0
   -8.5251    3.9439    4.5767 H   0  0  0  0  0  0  0  0  0  0  0  0
   -8.5446    3.2846    6.2061 H   0  0  0  0  0  0  0  0  0  0  0  0
   -7.6943   -0.0529    5.8219 H   0  0  0  0  0  0  0  0  0  0  0  0
   -9.2258    0.1615    4.8554 H   0  0  0  0  0  0  0  0  0  0  0  0
   -8.7241   -1.4193    5.4307 H   0  0  0  0  0  0  0  0  0  0  0  0
   -3.2480    3.2936    0.7471 H   0  0  0  0  0  0  0  0  0  0  0  0
   -2.9412    3.1639   -1.0090 H   0  0  0  0  0  0  0  0  0  0  0  0
   -4.5581    3.2673   -0.4658 H   0  0  0  0  0  0  0  0  0  0  0  0
    3.4857   -2.3141    0.0054 H   0  0  0  0  0  0  0  0  0  0  0  0
    4.3830   -0.7896    0.0060 H   0  0  0  0  0  0  0  0  0  0  0  0
    0.5246    3.3462    0.0655 H   0  0  0  0  0  0  0  0  0  0  0  0
    2.2498    3.1625    0.0206 H   0  0  0  0  0  0  0  0  0  0  0  0
  1 19  2  0  0  0  0
  1 20  1  0  0  0  0
  1 21  1  0  0  0  0
  2  3  1  0  0  0  0
  2 21  2  0  0  0  0
  2 22  1  0  0  0  0
  3  4  2  0  0  0  0
  3  7  1  0  0  0  0
  4  5  1  0  0  0  0
  4 28  1  0  0  0  0
  5  6  2  0  0  0  0
  5 24  1  0  0  0  0
  6 23  1  0  0  0  0
  6 29  1  0  0  0  0
  7 19  1  0  0  0  0
  7 23  2  0  0  0  0
  8  9  1  0  0  0  0
  8 24  1  0  0  0  0
  8 30  1  0  0  0  0
  8 31  1  0  0  0  0
  9 10  2  0  0  0  0
  9 14  1  0  0  0  0
 10 11  1  0  0  0  0
 10 32  1  0  0  0  0
 11 12  2  0  0  0  0
 11 25  1  0  0  0  0
 12 13  1  0  0  0  0
 12 26  1  0  0  0  0
 13 14  2  0  0  0  0
 13 27  1  0  0  0  0
 14 33  1  0  0  0  0
 15 25  1  0  0  0  0
 15 34  1  0  0  0  0
 15 35  1  0  0  0  0
 15 36  1  0  0  0  0
 16 26  1  0  0  0  0
 16 37  1  0  0  0  0
 16 38  1  0  0  0  0
 16 39  1  0  0  0  0
 17 27  1  0  0  0  0
 17 40  1  0  0  0  0
 17 41  1  0  0  0  0
 17 42  1  0  0  0  0
 18 24  1  0  0  0  0
 18 43  1  0  0  0  0
 18 44  1  0  0  0  0
 18 45  1  0  0  0  0
 20 46  1  0  0  0  0
 20 47  1  0  0  0  0
 22 48  1  0  0  0  0
 22 49  1  0  0  0  0
M  END
>  <DRUGBANK_ID>
DB02919

>  <SECONDARY_ACCESSION_NUMBERS>
EXPT01286

>  <COMMON_NAME>
2,4-Diamino-6-[N-(3',4',5'-Trimethoxybenzyl)-N-Methylamino]Pyrido[2,3-D]Pyrimidine

$$$$
