
 OpenBabel10282417173D

 55 59  0  0  0  0  0  0  0  0999 V2000
    1.1177    1.0661    0.7256 C   0  0  0  0  0  0  0  0  0  0  0  0
   -0.3622    1.0188    1.1829 C   0  0  0  0  0  0  0  0  0  0  0  0
   -1.3059   -0.1966    0.5719 C   0  0  0  0  0  0  0  0  0  0  0  0
   -0.5678   -1.4987    0.6448 C   0  0  0  0  0  0  0  0  0  0  0  0
    0.8705   -1.3852    0.1061 C   0  0  0  0  0  0  0  0  0  0  0  0
    1.7203   -0.2621    0.6058 N   0  0  0  0  0  0  0  0  0  0  0  0
    2.8976   -0.0859   -0.2832 C   0  0  0  0  0  0  0  0  0  0  0  0
    2.6746    0.0158   -1.8711 C   0  0  0  0  0  0  0  0  0  0  0  0
    1.9799    1.0952   -2.6414 O   0  0  0  0  0  0  0  0  0  0  0  0
    0.6630    1.4602   -2.6455 C   0  0  0  0  0  0  0  0  0  0  0  0
   -0.1854    1.1110   -1.6574 C   0  0  0  0  0  0  0  0  0  0  0  0
   -1.3427    1.8309   -1.2591 C   0  0  0  0  0  0  0  0  0  0  0  0
   -0.0640    2.2005   -3.5363 C   0  0  0  0  0  0  0  0  0  0  0  0
   -1.4340    2.7268   -3.2717 C   0  0  0  0  0  0  0  0  0  0  0  0
   -2.0451    2.6083   -2.0261 C   0  0  0  0  0  0  0  0  0  0  0  0
   -3.4191    2.7645   -1.4790 C   0  0  0  0  0  0  0  0  0  0  0  0
   -4.3443    1.8575   -1.7945 C   0  0  0  0  0  0  0  0  0  0  0  0
   -3.7534    3.4286   -0.1380 C   0  0  0  0  0  0  0  0  0  0  0  0
   -4.9469    3.5275    0.3927 N   0  0  0  0  0  0  0  0  0  0  0  0
   -5.9386    2.9117   -0.3144 C   0  0  0  0  0  0  0  0  0  0  0  0
   -5.6434    1.9727   -1.3073 N   0  0  0  0  0  0  0  0  0  0  0  0
   -6.7489    1.3682   -1.7914 N   0  0  0  0  0  0  0  0  0  0  0  0
   -7.7536    2.0458   -1.2339 C   0  0  0  0  0  0  0  0  0  0  0  0
   -7.3202    3.0000   -0.2936 C   0  0  0  0  0  0  0  0  0  0  0  0
   -8.0686    3.9116    0.5380 C   0  0  0  0  0  0  0  0  0  0  0  0
   -7.9064    5.2899    0.3967 C   0  0  0  0  0  0  0  0  0  0  0  0
   -8.6412    6.1236    1.2208 C   0  0  0  0  0  0  0  0  0  0  0  0
   -9.5034    5.6804    2.1605 N   0  0  0  0  0  0  0  0  0  0  0  0
   -9.6374    4.3416    2.2782 C   0  0  0  0  0  0  0  0  0  0  0  0
   -8.9617    3.4246    1.4906 C   0  0  0  0  0  0  0  0  0  0  0  0
    1.2777    1.5683   -0.2280 H   0  0  0  0  0  0  0  0  0  0  0  0
    1.6922    1.8458    1.2589 H   0  0  0  0  0  0  0  0  0  0  0  0
   -0.7146    2.0552    1.0113 H   0  0  0  0  0  0  0  0  0  0  0  0
   -0.4291    0.9555    2.2647 H   0  0  0  0  0  0  0  0  0  0  0  0
   -2.3208   -0.1762    0.9928 H   0  0  0  0  0  0  0  0  0  0  0  0
   -1.6134   -0.2322   -0.4982 H   0  0  0  0  0  0  0  0  0  0  0  0
   -0.6004   -1.8044    1.6810 H   0  0  0  0  0  0  0  0  0  0  0  0
   -1.1107   -2.2433    0.0328 H   0  0  0  0  0  0  0  0  0  0  0  0
    1.3754   -2.3320    0.3029 H   0  0  0  0  0  0  0  0  0  0  0  0
    0.7961   -1.4005   -0.9924 H   0  0  0  0  0  0  0  0  0  0  0  0
    3.4957    0.7662    0.0760 H   0  0  0  0  0  0  0  0  0  0  0  0
    3.5372   -0.9589   -0.0627 H   0  0  0  0  0  0  0  0  0  0  0  0
    3.7165    0.0691   -2.2312 H   0  0  0  0  0  0  0  0  0  0  0  0
    2.3267   -0.9504   -2.2466 H   0  0  0  0  0  0  0  0  0  0  0  0
    0.1245    0.2785   -1.1329 H   0  0  0  0  0  0  0  0  0  0  0  0
   -1.8689    1.6235   -0.3258 H   0  0  0  0  0  0  0  0  0  0  0  0
    0.3351    2.2790   -4.5420 H   0  0  0  0  0  0  0  0  0  0  0  0
   -2.0068    3.1699   -4.0603 H   0  0  0  0  0  0  0  0  0  0  0  0
   -4.1893    1.0379   -2.4938 H   0  0  0  0  0  0  0  0  0  0  0  0
   -2.9031    3.7796    0.4749 H   0  0  0  0  0  0  0  0  0  0  0  0
   -8.7646    1.8135   -1.5407 H   0  0  0  0  0  0  0  0  0  0  0  0
   -7.2235    5.7083   -0.3347 H   0  0  0  0  0  0  0  0  0  0  0  0
   -8.5518    7.2033    1.1448 H   0  0  0  0  0  0  0  0  0  0  0  0
  -10.3233    4.0134    3.0538 H   0  0  0  0  0  0  0  0  0  0  0  0
   -9.1149    2.3616    1.6388 H   0  0  0  0  0  0  0  0  0  0  0  0
  1  2  1  0  0  0  0
  1  6  1  0  0  0  0
  1 31  1  0  0  0  0
  1 32  1  0  0  0  0
  2  3  1  0  0  0  0
  2 33  1  0  0  0  0
  2 34  1  0  0  0  0
  3  4  1  0  0  0  0
  3 35  1  0  0  0  0
  3 36  1  0  0  0  0
  4  5  1  0  0  0  0
  4 37  1  0  0  0  0
  4 38  1  0  0  0  0
  5  6  1  0  0  0  0
  5 39  1  0  0  0  0
  5 40  1  0  0  0  0
  7  6  1  0  0  0  0
  7  8  1  0  0  0  0
  7 41  1  0  0  0  0
  7 42  1  0  0  0  0
  8  9  1  0  0  0  0
  8 43  1  0  0  0  0
  8 44  1  0  0  0  0
 10  9  1  0  0  0  0
 10 11  2  0  0  0  0
 11 45  1  0  0  0  0
 12 11  1  0  0  0  0
 12 15  2  0  0  0  0
 12 46  1  0  0  0  0
 13 10  1  0  0  0  0
 13 14  2  0  0  0  0
 13 47  1  0  0  0  0
 14 15  1  0  0  0  0
 14 48  1  0  0  0  0
 15 16  1  0  0  0  0
 16 17  2  0  0  0  0
 16 18  1  0  0  0  0
 17 21  1  0  0  0  0
 17 49  1  0  0  0  0
 18 19  2  0  0  0  0
 18 50  1  0  0  0  0
 20 19  1  0  0  0  0
 20 21  1  0  0  0  0
 20 24  2  0  0  0  0
 21 22  1  0  0  0  0
 23 22  2  0  0  0  0
 23 24  1  0  0  0  0
 23 51  1  0  0  0  0
 24 25  1  0  0  0  0
 25 26  2  0  0  0  0
 25 30  1  0  0  0  0
 26 27  1  0  0  0  0
 26 52  1  0  0  0  0
 27 28  2  0  0  0  0
 27 53  1  0  0  0  0
 29 28  1  0  0  0  0
 29 30  2  0  0  0  0
 29 54  1  0  0  0  0
 30 55  1  0  0  0  0
M  END
>  <DRUGBANK_ID>
DB08597

>  <COMMON_NAME>
Dorsomorphin

>  <CAS_NUMBER>
866405-64-3

>  <UNII>
10K52CIC1Z

$$$$
