1489
 OpenBabel10282417113D

 44 46  0  0  1  0  0  0  0  0999 V2000
    0.9542    0.0274    0.1729 Cl  0  0  0  0  0  0  0  0  0  0  0  0
    6.1856    1.6566   -2.6006 O   0  0  0  0  0  0  0  0  0  0  0  0
    8.8724    0.6233   -0.6130 O   0  0  0  0  0  0  0  0  0  0  0  0
    4.7865    0.3677   -1.4220 O   0  0  0  0  0  0  0  0  0  0  0  0
    6.8986   -0.1069    0.2884 N   0  0  0  0  0  0  0  0  0  0  0  0
    6.3416    2.8894   -0.3936 N   0  0  0  0  0  0  0  0  0  0  0  0
    4.1245    0.6166   -3.3576 N   0  0  0  0  0  0  0  0  0  0  0  0
    5.5136   -0.0215    0.6171 C   0  0  0  0  0  0  0  0  0  0  0  0
    4.8009    1.1992    0.6773 C   0  0  0  0  0  0  0  0  0  0  0  0
    5.4385    2.5448    0.4613 C   0  0  0  0  0  0  0  0  0  0  0  0
    6.9184    1.9125   -1.3529 C   0  0  3  0  0  0  0  0  0  0  0  0
    7.6402    0.7637   -0.5218 C   0  0  0  0  0  0  0  0  0  0  0  0
    4.8873    3.5776    1.3644 C   0  0  0  0  0  0  0  0  0  0  0  0
    4.7492   -1.2281    0.4107 C   0  0  0  0  0  0  0  0  0  0  0  0
    3.3679    1.1909    0.5941 C   0  0  0  0  0  0  0  0  0  0  0  0
    7.5953   -1.2373    0.8581 C   0  0  0  0  0  0  0  0  0  0  0  0
    3.3459   -1.2156    0.3153 C   0  0  0  0  0  0  0  0  0  0  0  0
    2.6604   -0.0085    0.4435 C   0  0  0  0  0  0  0  0  0  0  0  0
    4.4845    4.8439    0.9399 C   0  0  0  0  0  0  0  0  0  0  0  0
    4.6624    3.1481    2.6747 C   0  0  0  0  0  0  0  0  0  0  0  0
    3.9969    5.7289    1.9010 C   0  0  0  0  0  0  0  0  0  0  0  0
    4.0131    3.9689    3.5679 C   0  0  0  0  0  0  0  0  0  0  0  0
    5.0746    0.9177   -2.4510 C   0  0  0  0  0  0  0  0  0  0  0  0
    3.7675    5.2881    3.2100 C   0  0  0  0  0  0  0  0  0  0  0  0
    4.3415    0.8571   -4.7135 C   0  0  0  0  0  0  0  0  0  0  0  0
    2.9394   -0.1636   -2.9011 C   0  0  0  0  0  0  0  0  0  0  0  0
    7.8041    2.4588   -1.7377 H   0  0  0  0  0  0  0  0  0  0  0  0
    5.2463   -2.1064   -0.0200 H   0  0  0  0  0  0  0  0  0  0  0  0
    2.8303    2.1263    0.4201 H   0  0  0  0  0  0  0  0  0  0  0  0
    8.1371   -1.7856    0.0822 H   0  0  0  0  0  0  0  0  0  0  0  0
    8.2763   -0.8383    1.6084 H   0  0  0  0  0  0  0  0  0  0  0  0
    6.9025   -1.9175    1.3586 H   0  0  0  0  0  0  0  0  0  0  0  0
    2.8302   -2.1001   -0.0607 H   0  0  0  0  0  0  0  0  0  0  0  0
    4.5268    5.1375   -0.1070 H   0  0  0  0  0  0  0  0  0  0  0  0
    4.9530    2.1462    2.9798 H   0  0  0  0  0  0  0  0  0  0  0  0
    3.7779    6.7608    1.6398 H   0  0  0  0  0  0  0  0  0  0  0  0
    3.7252    3.5714    4.5339 H   0  0  0  0  0  0  0  0  0  0  0  0
    3.3909    5.9745    3.9606 H   0  0  0  0  0  0  0  0  0  0  0  0
    4.3901   -0.1255   -5.1791 H   0  0  0  0  0  0  0  0  0  0  0  0
    3.4953    1.4628   -5.0186 H   0  0  0  0  0  0  0  0  0  0  0  0
    5.2858    1.3880   -4.8133 H   0  0  0  0  0  0  0  0  0  0  0  0
    3.2345   -1.0852   -2.3700 H   0  0  0  0  0  0  0  0  0  0  0  0
    2.3753    0.4535   -2.1910 H   0  0  0  0  0  0  0  0  0  0  0  0
    2.2706   -0.4449   -3.7086 H   0  0  0  0  0  0  0  0  0  0  0  0
  1 18  1  0  0  0  0
  2 11  1  0  0  0  0
  2 23  1  0  0  0  0
  3 12  2  0  0  0  0
  4 23  2  0  0  0  0
  5  8  1  0  0  0  0
  5 12  1  0  0  0  0
  5 16  1  0  0  0  0
  6 10  2  0  0  0  0
  6 11  1  0  0  0  0
  7 23  1  0  0  0  0
  7 25  1  0  0  0  0
  7 26  1  0  0  0  0
  8  9  2  0  0  0  0
  8 14  1  0  0  0  0
  9 10  1  0  0  0  0
  9 15  1  0  0  0  0
 10 13  1  0  0  0  0
 11 12  1  0  0  0  0
 11 27  1  0  0  0  0
 13 19  2  0  0  0  0
 13 20  1  0  0  0  0
 14 17  2  0  0  0  0
 14 28  1  0  0  0  0
 15 18  2  0  0  0  0
 15 29  1  0  0  0  0
 16 30  1  0  0  0  0
 16 31  1  0  0  0  0
 16 32  1  0  0  0  0
 17 18  1  0  0  0  0
 17 33  1  0  0  0  0
 19 21  1  0  0  0  0
 19 34  1  0  0  0  0
 20 22  2  0  0  0  0
 20 35  1  0  0  0  0
 21 24  2  0  0  0  0
 21 36  1  0  0  0  0
 22 24  1  0  0  0  0
 22 37  1  0  0  0  0
 24 38  1  0  0  0  0
 25 39  1  0  0  0  0
 25 40  1  0  0  0  0
 25 41  1  0  0  0  0
 26 42  1  0  0  0  0
 26 43  1  0  0  0  0
 26 44  1  0  0  0  0
M  END
>  <DRUGBANK_ID>
DB01489

>  <COMMON_NAME>
Camazepam

>  <CAS_NUMBER>
36104-80-0

>  <UNII>
HZ3XRH03C3

>  <SYNONYMS>
Camazepam

$$$$
