
 OpenBabel10282417133D

 95 97  0  0  1  0  0  0  0  0999 V2000
    1.8390   -1.9771    1.4742 C   0  0  2  0  0  0  0  0  0  0  0  0
    1.3629   -1.0727    2.5017 O   0  0  0  0  0  0  0  0  0  0  0  0
    2.0130   -3.2820    2.2299 C   0  0  1  0  0  0  0  0  0  0  0  0
    1.5657   -1.6534    3.8203 C   0  0  1  0  0  0  0  0  0  0  0  0
    2.4817   -2.8259    3.6250 C   0  0  1  0  0  0  0  0  0  0  0  0
    0.6852   -3.8765    2.2525 O   0  0  0  0  0  0  0  0  0  0  0  0
   -9.3075    0.4854    8.8243 C   0  0  0  0  0  0  0  0  0  0  0  0
   -9.7101    1.9471    9.1089 C   0  0  0  0  0  0  0  0  0  0  0  0
   -9.0515    0.1756    7.4318 N   0  0  0  0  0  0  0  0  0  0  0  0
   -7.7934    0.0881    6.8942 C   0  0  0  0  0  0  0  0  0  0  0  0
   -6.7722    0.0539    7.5800 O   0  0  0  0  0  0  0  0  0  0  0  0
   -6.7803    1.0770    4.8355 C   0  0  0  0  0  0  0  0  0  0  0  0
   -7.7494    0.0337    5.3695 C   0  0  0  0  0  0  0  0  0  0  0  0
   -5.4525    0.8451    5.3484 N   0  0  0  0  0  0  0  0  0  0  0  0
   -4.5001    0.3358    3.3312 O   0  0  0  0  0  0  0  0  0  0  0  0
   -4.4243    0.4172    4.5563 C   0  0  0  0  0  0  0  0  0  0  0  0
   -0.9893    1.3943    5.8849 C   0  0  0  0  0  0  0  0  0  0  0  0
   -2.6260    2.3648    4.1245 C   0  0  0  0  0  0  0  0  0  0  0  0
   -2.4492    1.6660    5.5295 C   0  0  0  0  0  0  0  0  0  0  0  0
   -3.0327    2.3831    6.7637 C   0  0  0  0  0  0  0  0  0  0  0  0
   -3.0852    0.2611    5.2970 C   0  0  1  0  0  0  0  0  0  0  0  0
   -3.1077   -0.5096    6.4808 O   0  0  0  0  0  0  0  0  0  0  0  0
   -0.1731    2.5381    6.0399 O   0  0  0  0  0  0  0  0  0  0  0  0
    1.3153    2.7873    4.1389 O   0  0  0  0  0  0  0  0  0  0  0  0
    1.1920    0.4047    4.6960 O   0  0  0  0  0  0  0  0  0  0  0  0
    0.6583    4.7977    5.1451 O   0  0  0  0  0  0  0  0  0  0  0  0
   -1.5445    4.2922    5.3753 O   0  0  0  0  0  0  0  0  0  0  0  0
    2.8159    1.3273    2.9515 O   0  0  0  0  0  0  0  0  0  0  0  0
    0.2234    1.3702    2.4635 O   0  0  0  0  0  0  0  0  0  0  0  0
   -0.1146    3.5397    4.7571 P   0  0  3  0  0  0  0  0  0  0  0  0
    1.4466    1.4119    3.4933 P   0  0  3  0  0  0  0  0  0  0  0  0
    2.1023   -0.6491    4.8056 C   0  0  0  0  0  0  0  0  0  0  0  0
    2.3708   -3.7527    4.7044 O   0  0  0  0  0  0  0  0  0  0  0  0
    1.2402   -5.5530    3.8071 O   0  0  0  0  0  0  0  0  0  0  0  0
    1.2409   -5.0604    6.1965 O   0  0  0  0  0  0  0  0  0  0  0  0
    0.7505   -4.3499    4.8089 P   0  0  0  0  0  0  0  0  0  0  0  0
   -0.6997   -4.8844    4.9025 O   0  0  0  0  0  0  0  0  0  0  0  0
    3.0062   -1.4696    0.7861 N   0  0  0  0  0  0  0  0  0  0  0  0
    3.6847   -2.1334   -0.2002 C   0  0  0  0  0  0  0  0  0  0  0  0
    3.5389   -0.2223    0.7939 C   0  0  0  0  0  0  0  0  0  0  0  0
    4.6496   -1.2378   -0.6280 C   0  0  0  0  0  0  0  0  0  0  0  0
    3.4734   -3.3661   -0.6772 N   0  0  0  0  0  0  0  0  0  0  0  0
    4.5837   -0.0628    0.0323 N   0  0  0  0  0  0  0  0  0  0  0  0
    5.5030   -1.6188   -1.6536 C   0  0  0  0  0  0  0  0  0  0  0  0
    4.3651   -3.6348   -1.6647 C   0  0  0  0  0  0  0  0  0  0  0  0
    5.3494   -2.8497   -2.1745 N   0  0  0  0  0  0  0  0  0  0  0  0
    6.4555   -0.7395   -2.1134 N   0  0  0  0  0  0  0  0  0  0  0  0
  -11.2024    2.7174    8.3840 S   0  0  0  0  0  0  0  0  0  0  0  0
  -10.1748    1.9840    6.0917 O   0  0  0  0  0  0  0  0  0  0  0  0
  -11.2076    2.2650    6.6886 C   0  0  0  0  0  0  0  0  0  0  0  0
  -12.5277    2.3270    5.9481 C   0  0  0  0  0  0  0  0  0  0  0  0
  -13.5345    1.2236    6.2471 C   0  0  0  0  0  0  0  0  0  0  0  0
  -15.1527    1.8059    7.9525 O   0  0  0  0  0  0  0  0  0  0  0  0
  -14.1171    1.2931    7.6375 C   0  0  0  0  0  0  0  0  0  0  0  0
  -13.2705    0.7731    8.5551 O   0  0  0  0  0  0  0  0  0  0  0  0
    1.0378   -2.0472    0.7270 H   0  0  0  0  0  0  0  0  0  0  0  0
    2.6973   -4.0063    1.7902 H   0  0  0  0  0  0  0  0  0  0  0  0
    0.5725   -1.9348    4.2013 H   0  0  0  0  0  0  0  0  0  0  0  0
    3.5218   -2.4816    3.5858 H   0  0  0  0  0  0  0  0  0  0  0  0
    0.0134   -3.2103    2.5154 H   0  0  0  0  0  0  0  0  0  0  0  0
  -10.0674   -0.2153    9.1828 H   0  0  0  0  0  0  0  0  0  0  0  0
   -8.3913    0.2844    9.3950 H   0  0  0  0  0  0  0  0  0  0  0  0
   -9.8723    2.0079   10.1958 H   0  0  0  0  0  0  0  0  0  0  0  0
   -8.8787    2.6188    8.8869 H   0  0  0  0  0  0  0  0  0  0  0  0
   -9.7805    0.4190    6.7718 H   0  0  0  0  0  0  0  0  0  0  0  0
   -7.0695    2.0875    5.1427 H   0  0  0  0  0  0  0  0  0  0  0  0
   -6.7609    1.0499    3.7409 H   0  0  0  0  0  0  0  0  0  0  0  0
   -8.7338    0.2025    4.9224 H   0  0  0  0  0  0  0  0  0  0  0  0
   -7.4277   -0.9726    5.0797 H   0  0  0  0  0  0  0  0  0  0  0  0
   -5.3660    0.8082    6.3604 H   0  0  0  0  0  0  0  0  0  0  0  0
   -0.6668    0.8103    5.0445 H   0  0  0  0  0  0  0  0  0  0  0  0
   -0.8467    0.7752    6.7801 H   0  0  0  0  0  0  0  0  0  0  0  0
   -2.2317    1.7041    3.3434 H   0  0  0  0  0  0  0  0  0  0  0  0
   -3.6686    2.6273    3.9560 H   0  0  0  0  0  0  0  0  0  0  0  0
   -2.1616    3.2950    3.8289 H   0  0  0  0  0  0  0  0  0  0  0  0
   -3.0006    1.7307    7.6454 H   0  0  0  0  0  0  0  0  0  0  0  0
   -2.4569    3.2494    7.0968 H   0  0  0  0  0  0  0  0  0  0  0  0
   -4.0546    2.7125    6.5959 H   0  0  0  0  0  0  0  0  0  0  0  0
   -2.4492   -0.3020    4.5970 H   0  0  0  0  0  0  0  0  0  0  0  0
   -3.7185   -0.0928    7.1101 H   0  0  0  0  0  0  0  0  0  0  0  0
   -1.2447    4.6602    6.2314 H   0  0  0  0  0  0  0  0  0  0  0  0
    0.5328    1.3487    1.5357 H   0  0  0  0  0  0  0  0  0  0  0  0
    2.1086   -1.0102    5.8380 H   0  0  0  0  0  0  0  0  0  0  0  0
    3.1080   -0.2980    4.5717 H   0  0  0  0  0  0  0  0  0  0  0  0
    0.8256   -5.3500    2.9326 H   0  0  0  0  0  0  0  0  0  0  0  0
    2.1965   -4.9554    6.3332 H   0  0  0  0  0  0  0  0  0  0  0  0
    3.1390    0.6084    1.2952 H   0  0  0  0  0  0  0  0  0  0  0  0
    4.2827   -4.6196   -2.1117 H   0  0  0  0  0  0  0  0  0  0  0  0
    6.4992    0.1752   -1.6745 H   0  0  0  0  0  0  0  0  0  0  0  0
    7.0754   -1.0099   -2.8533 H   0  0  0  0  0  0  0  0  0  0  0  0
  -12.9536    3.3278    6.0627 H   0  0  0  0  0  0  0  0  0  0  0  0
  -12.2674    2.2305    4.8821 H   0  0  0  0  0  0  0  0  0  0  0  0
  -14.3803    1.3308    5.5561 H   0  0  0  0  0  0  0  0  0  0  0  0
  -13.1199    0.2253    6.0741 H   0  0  0  0  0  0  0  0  0  0  0  0
  -13.5307    1.1975    9.4023 H   0  0  0  0  0  0  0  0  0  0  0  0
  1 38  1  0  0  0  0
  1 56  1  6  0  0  0
  2  1  1  0  0  0  0
  3  1  1  0  0  0  0
  3  6  1  0  0  0  0
  3 57  1  6  0  0  0
  4  2  1  0  0  0  0
  4 32  1  0  0  0  0
  4 58  1  1  0  0  0
  5  3  1  0  0  0  0
  5  4  1  0  0  0  0
  5 33  1  0  0  0  0
  5 59  1  6  0  0  0
  6 60  1  0  0  0  0
  7  8  1  0  0  0  0
  7 61  1  0  0  0  0
  7 62  1  0  0  0  0
  8 48  1  0  0  0  0
  8 63  1  0  0  0  0
  8 64  1  0  0  0  0
  9  7  1  0  0  0  0
  9 65  1  0  0  0  0
 10  9  1  0  0  0  0
 10 11  2  0  0  0  0
 12 14  1  0  0  0  0
 12 66  1  0  0  0  0
 12 67  1  0  0  0  0
 13 10  1  0  0  0  0
 13 12  1  0  0  0  0
 13 68  1  0  0  0  0
 13 69  1  0  0  0  0
 14 70  1  0  0  0  0
 16 14  1  0  0  0  0
 16 15  2  0  0  0  0
 17 23  1  0  0  0  0
 17 71  1  0  0  0  0
 17 72  1  0  0  0  0
 18 73  1  0  0  0  0
 18 74  1  0  0  0  0
 18 75  1  0  0  0  0
 19 17  1  0  0  0  0
 19 18  1  0  0  0  0
 19 20  1  0  0  0  0
 20 76  1  0  0  0  0
 20 77  1  0  0  0  0
 20 78  1  0  0  0  0
 21 22  1  0  0  0  0
 21 79  1  6  0  0  0
 21 19  1  0  0  0  0
 21 16  1  0  0  0  0
 22 80  1  0  0  0  0
 23 30  1  0  0  0  0
 24 31  1  0  0  0  0
 27 81  1  0  0  0  0
 29 82  1  0  0  0  0
 30 24  1  0  0  0  0
 30 26  2  0  0  0  0
 30 27  1  0  0  0  0
 31 25  1  0  0  0  0
 31 28  2  0  0  0  0
 31 29  1  0  0  0  0
 32 25  1  0  0  0  0
 32 83  1  0  0  0  0
 32 84  1  0  0  0  0
 33 36  1  0  0  0  0
 34 85  1  0  0  0  0
 35 86  1  0  0  0  0
 36 34  1  0  0  0  0
 36 35  1  0  0  0  0
 36 37  2  0  0  0  0
 39 38  1  0  0  0  0
 40 38  1  0  0  0  0
 40 87  1  0  0  0  0
 41 39  2  0  0  0  0
 42 39  1  0  0  0  0
 43 40  2  0  0  0  0
 43 41  1  0  0  0  0
 44 41  1  0  0  0  0
 45 42  2  0  0  0  0
 45 88  1  0  0  0  0
 46 44  2  0  0  0  0
 46 45  1  0  0  0  0
 47 44  1  0  0  0  0
 47 89  1  0  0  0  0
 47 90  1  0  0  0  0
 48 50  1  0  0  0  0
 50 49  2  0  0  0  0
 50 51  1  0  0  0  0
 51 52  1  0  0  0  0
 51 91  1  0  0  0  0
 51 92  1  0  0  0  0
 52 54  1  0  0  0  0
 52 93  1  0  0  0  0
 52 94  1  0  0  0  0
 54 53  2  0  0  0  0
 54 55  1  0  0  0  0
 55 95  1  0  0  0  0
M  END
>  <DRUGBANK_ID>
DB03699

>  <SECONDARY_ACCESSION_NUMBERS>
EXPT02863

>  <COMMON_NAME>
Succinyl-Coenzyme A

>  <CAS_NUMBER>
604-98-8

>  <UNII>
BSI27HW5EQ

$$$$
