
 OpenBabel10282417203D

 54 57  0  0  1  0  0  0  0  0999 V2000
    0.9805   -0.2501   -0.1931 C   0  0  0  0  0  0  0  0  0  0  0  0
    0.4777    0.5823    1.0132 C   0  0  0  0  0  0  0  0  0  0  0  0
   -0.2497    1.8423    0.4029 C   0  0  0  0  0  0  0  0  0  0  0  0
    0.2365    3.2509    0.8467 C   0  0  0  0  0  0  0  0  0  0  0  0
    1.4168    3.2878    1.8490 C   0  0  2  0  0  0  0  0  0  0  0  0
    1.0284    3.4181    3.3532 C   0  0  0  0  0  0  0  0  0  0  0  0
    0.8716    2.1045    4.1612 C   0  0  2  0  0  0  0  0  0  0  0  0
    1.4360    0.8450    3.4980 C   0  0  0  0  0  0  0  0  0  0  0  0
    1.6933    0.9198    1.9642 C   0  0  2  0  0  0  0  0  0  0  0  0
    2.3694    2.1898    1.6250 N   0  0  0  0  0  0  0  0  0  0  0  0
    2.8690    2.2205    0.2408 C   0  0  0  0  0  0  0  0  0  0  0  0
   -0.4991    1.8353    4.6428 O   0  0  0  0  0  0  0  0  0  0  0  0
   -1.4213    1.9028    3.6660 C   0  0  0  0  0  0  0  0  0  0  0  0
   -1.1206    2.3496    2.5702 O   0  0  0  0  0  0  0  0  0  0  0  0
   -2.8694    1.5232    3.8070 C   0  0  0  0  0  0  0  0  0  0  0  0
   -2.9624    0.1847    4.4927 C   0  0  0  0  0  0  0  0  0  0  0  0
   -2.8127   -1.0788    3.9289 C   0  0  0  0  0  0  0  0  0  0  0  0
   -2.8449   -2.1219    4.8898 C   0  0  0  0  0  0  0  0  0  0  0  0
   -3.1343   -1.6396    6.1402 C   0  0  0  0  0  0  0  0  0  0  0  0
   -3.1186    0.0521    6.1936 S   0  0  0  0  0  0  0  0  0  0  0  0
   -3.5001    2.7612    4.3784 C   0  0  0  0  0  0  0  0  0  0  0  0
   -4.4267    2.8592    5.3832 C   0  0  0  0  0  0  0  0  0  0  0  0
   -4.4752    4.1588    5.9342 C   0  0  0  0  0  0  0  0  0  0  0  0
   -3.7617    5.0728    5.1987 C   0  0  0  0  0  0  0  0  0  0  0  0
   -3.0382    4.3538    3.8430 S   0  0  0  0  0  0  0  0  0  0  0  0
   -3.4616    1.3320    2.4989 O   0  0  0  0  0  0  0  0  0  0  0  0
   -0.5250   -0.3402    1.7310 C   0  0  0  0  0  0  0  0  0  0  0  0
    0.6460    0.1588   -1.1493 H   0  0  0  0  0  0  0  0  0  0  0  0
    0.6173   -1.2799   -0.1527 H   0  0  0  0  0  0  0  0  0  0  0  0
    2.0694   -0.2898   -0.2370 H   0  0  0  0  0  0  0  0  0  0  0  0
   -0.1697    1.8552   -0.6880 H   0  0  0  0  0  0  0  0  0  0  0  0
   -1.3408    1.7429    0.5133 H   0  0  0  0  0  0  0  0  0  0  0  0
    0.5151    3.7919   -0.0636 H   0  0  0  0  0  0  0  0  0  0  0  0
   -0.5995    3.8585    1.2226 H   0  0  0  0  0  0  0  0  0  0  0  0
    1.9317    4.2347    1.6339 H   0  0  0  0  0  0  0  0  0  0  0  0
    0.1266    4.0327    3.4494 H   0  0  0  0  0  0  0  0  0  0  0  0
    1.8039    4.0177    3.8477 H   0  0  0  0  0  0  0  0  0  0  0  0
    1.4481    2.2459    5.0873 H   0  0  0  0  0  0  0  0  0  0  0  0
    0.8126   -0.0127    3.7694 H   0  0  0  0  0  0  0  0  0  0  0  0
    2.3907    0.5970    3.9851 H   0  0  0  0  0  0  0  0  0  0  0  0
    2.4312    0.1156    1.8231 H   0  0  0  0  0  0  0  0  0  0  0  0
    2.0923    2.0950   -0.5191 H   0  0  0  0  0  0  0  0  0  0  0  0
    3.3448    3.1800    0.0163 H   0  0  0  0  0  0  0  0  0  0  0  0
    3.6104    1.4350    0.0716 H   0  0  0  0  0  0  0  0  0  0  0  0
   -2.6324   -1.2608    2.8750 H   0  0  0  0  0  0  0  0  0  0  0  0
   -2.6901   -3.1692    4.6680 H   0  0  0  0  0  0  0  0  0  0  0  0
   -3.2927   -2.1890    7.0525 H   0  0  0  0  0  0  0  0  0  0  0  0
   -4.9183    1.9981    5.8060 H   0  0  0  0  0  0  0  0  0  0  0  0
   -5.0173    4.3938    6.8348 H   0  0  0  0  0  0  0  0  0  0  0  0
   -3.6458    6.1310    5.3772 H   0  0  0  0  0  0  0  0  0  0  0  0
   -4.4204    1.2549    2.6025 H   0  0  0  0  0  0  0  0  0  0  0  0
   -1.4472   -0.4715    1.1614 H   0  0  0  0  0  0  0  0  0  0  0  0
   -0.1040   -1.3105    2.0149 H   0  0  0  0  0  0  0  0  0  0  0  0
   -0.8328    0.0605    2.6779 H   0  0  0  0  0  0  0  0  0  0  0  0
  1  2  1  0  0  0  0
  1 28  1  0  0  0  0
  1 29  1  0  0  0  0
  1 30  1  0  0  0  0
  2  3  1  0  0  0  0
  2  9  1  0  0  0  0
  2 27  1  0  0  0  0
  3  4  1  0  0  0  0
  3 31  1  0  0  0  0
  3 32  1  0  0  0  0
  4  5  1  0  0  0  0
  4 33  1  0  0  0  0
  4 34  1  0  0  0  0
  5  6  1  0  0  0  0
  5 10  1  0  0  0  0
  5 35  1  1  0  0  0
  6  7  1  0  0  0  0
  6 36  1  0  0  0  0
  6 37  1  0  0  0  0
  7  8  1  0  0  0  0
  7 12  1  0  0  0  0
  7 38  1  1  0  0  0
  8  9  1  0  0  0  0
  8 39  1  0  0  0  0
  8 40  1  0  0  0  0
  9 10  1  0  0  0  0
  9 41  1  6  0  0  0
 10 11  1  0  0  0  0
 11 42  1  0  0  0  0
 11 43  1  0  0  0  0
 11 44  1  0  0  0  0
 12 13  1  0  0  0  0
 13 14  2  0  0  0  0
 13 15  1  0  0  0  0
 15 16  1  0  0  0  0
 15 21  1  0  0  0  0
 15 26  1  0  0  0  0
 16 17  2  0  0  0  0
 16 20  1  0  0  0  0
 17 18  1  0  0  0  0
 17 45  1  0  0  0  0
 18 19  2  0  0  0  0
 18 46  1  0  0  0  0
 19 20  1  0  0  0  0
 19 47  1  0  0  0  0
 21 22  2  0  0  0  0
 21 25  1  0  0  0  0
 22 23  1  0  0  0  0
 22 48  1  0  0  0  0
 23 24  2  0  0  0  0
 23 49  1  0  0  0  0
 24 25  1  0  0  0  0
 24 50  1  0  0  0  0
 26 51  1  0  0  0  0
 27 52  1  0  0  0  0
 27 53  1  0  0  0  0
 27 54  1  0  0  0  0
M  END
>  <DRUGBANK_ID>
DB13448

>  <COMMON_NAME>
Mazaticol

>  <CAS_NUMBER>
42024-98-6

>  <UNII>
I6X824OGWZ

>  <SYNONYMS>
Mazaticol

$$$$
