
 OpenBabel10282417183D

 39 34  0  0  0  0  0  0  0  0999 V2000
    0.0007    0.3950   -0.7976 C   0  0  0  0  0  0  0  0  0  0  0  0
    0.5060   -2.7273   -2.2020 C   0  0  0  0  0  0  0  0  0  0  0  0
   -0.0472    1.5605    0.7396 C   0  0  0  0  0  0  0  0  0  0  0  0
    0.2335   -4.2172   -1.0495 C   0  0  0  0  0  0  0  0  0  0  0  0
   -1.8953   -0.2877   -2.3961 C   0  0  0  0  0  0  0  0  0  0  0  0
   -0.2388   -0.7683   -2.2661 C   0  0  0  0  0  0  0  0  0  0  0  0
   -1.2622    2.0822    0.7994 O   0  0  0  0  0  0  0  0  0  0  0  0
    0.8132    1.6699    1.6541 O   0  5  0  0  0  0  0  0  0  0  0  0
   -0.9148   -4.8013   -1.1726 O   0  0  0  0  0  0  0  0  0  0  0  0
    1.1163   -4.6547   -0.2506 O   0  5  0  0  0  0  0  0  0  0  0  0
   -1.9952    0.8427   -3.0544 O   0  0  0  0  0  0  0  0  0  0  0  0
   -2.6661   -0.2411   -1.3569 O   0  5  0  0  0  0  0  0  0  0  0  0
    0.5306    0.2026   -3.1123 O   0  0  0  0  0  0  0  0  0  0  0  0
    2.0925    0.0869    0.2232 C   0  0  0  0  0  0  0  0  0  0  0  0
    1.9061   -2.4752    0.3668 C   0  0  0  0  0  0  0  0  0  0  0  0
    2.0055    1.8820   -0.5798 C   0  0  0  0  0  0  0  0  0  0  0  0
    0.8098   -2.5656    1.6536 C   0  0  0  0  0  0  0  0  0  0  0  0
   -0.6730   -1.9254   -0.3251 C   0  0  0  0  0  0  0  0  0  0  0  0
    1.2946   -1.3880   -0.4272 C   0  0  0  0  0  0  0  0  0  0  0  0
    1.0008    2.3446   -1.2148 O   0  0  0  0  0  0  0  0  0  0  0  0
    2.7818    2.6793    0.1061 O   0  5  0  0  0  0  0  0  0  0  0  0
   -0.1602   -3.3576    1.8018 O   0  0  0  0  0  0  0  0  0  0  0  0
    0.7240   -1.4743    2.3747 O   0  5  0  0  0  0  0  0  0  0  0  0
   -1.3862   -2.3670   -1.2946 O   0  0  0  0  0  0  0  0  0  0  0  0
   -1.3180   -1.3301    0.6121 O   0  5  0  0  0  0  0  0  0  0  0  0
    2.1828   -1.1499   -1.8645 O   0  0  0  0  0  0  0  0  0  0  0  0
   -1.3772   -0.8513    2.4619 Ca  0  2  0  0  0  0  0  0  0  0  0  0
   -2.0171    1.8332   -1.1642 Ca  0  2  0  0  0  0  0  0  0  0  0  0
    3.1988    1.9374    1.8839 Ca  0  2  0  0  0  0  0  0  0  0  0  0
   -0.0317   -0.1657    0.0945 H   0  0  0  0  0  0  0  0  0  0  0  0
    1.0087    0.4401   -1.2311 H   0  0  0  0  0  0  0  0  0  0  0  0
    0.2726   -3.0900   -3.1791 H   0  0  0  0  0  0  0  0  0  0  0  0
    1.6027   -2.8712   -2.2832 H   0  0  0  0  0  0  0  0  0  0  0  0
    0.7554    0.0395   -4.0272 H   0  0  0  0  0  0  0  0  0  0  0  0
    1.5839    0.0242    1.1922 H   0  0  0  0  0  0  0  0  0  0  0  0
    3.0610   -0.2415    0.6213 H   0  0  0  0  0  0  0  0  0  0  0  0
    2.1481   -3.1830   -0.4209 H   0  0  0  0  0  0  0  0  0  0  0  0
    2.9698   -2.2787    0.4865 H   0  0  0  0  0  0  0  0  0  0  0  0
    1.6569   -1.1710   -2.7246 H   0  0  0  0  0  0  0  0  0  0  0  0
  1 30  1  0  0  0  0
  1 31  1  0  0  0  0
  2 32  1  0  0  0  0
  2 33  1  0  0  0  0
  3  1  1  0  0  0  0
  4  2  1  0  0  0  0
  6  1  1  0  0  0  0
  6  2  1  0  0  0  0
  6  5  1  0  0  0  0
  7  3  2  0  0  0  0
  8  3  1  0  0  0  0
  9  4  2  0  0  0  0
 10  4  1  0  0  0  0
 11  5  2  0  0  0  0
 12  5  1  0  0  0  0
 13  6  1  0  0  0  0
 13 34  1  0  0  0  0
 14 35  1  0  0  0  0
 14 36  1  0  0  0  0
 15 37  1  0  0  0  0
 15 38  1  0  0  0  0
 16 14  1  0  0  0  0
 17 15  1  0  0  0  0
 19 14  1  0  0  0  0
 19 15  1  0  0  0  0
 19 18  1  0  0  0  0
 20 16  2  0  0  0  0
 21 16  1  0  0  0  0
 22 17  2  0  0  0  0
 23 17  1  0  0  0  0
 24 18  2  0  0  0  0
 25 18  1  0  0  0  0
 26 19  1  0  0  0  0
 26 39  1  0  0  0  0
M  CHG  8   8  -1  10  -1  12  -1  21  -1  23  -1  25  -1  27   2  28   2
M  CHG  1  29   2
M  END
>  <DRUGBANK_ID>
DB11093

>  <COMMON_NAME>
Calcium citrate

>  <CAS_NUMBER>
813-94-5

>  <UNII>
86117BWO7P

>  <SYNONYMS>
tricalcium citrate

$$$$
