
 OpenBabel10282417183D

 76 79  0  0  1  0  0  0  0  0999 V2000
   -1.1580    1.6868   -1.4252 C   0  0  0  0  0  0  0  0  0  0  0  0
   -0.0684    0.7159   -1.4653 C   0  0  1  0  0  0  0  0  0  0  0  0
   -0.2422   -0.6582   -1.8383 C   0  0  0  0  0  0  0  0  0  0  0  0
    0.6643   -0.9863   -0.6560 C   0  0  1  0  0  0  0  0  0  0  0  0
    1.7556    0.7064   -0.6822 C   0  0  2  0  0  0  0  0  0  0  0  0
    1.3033    0.9314   -2.0997 C   0  0  1  0  0  0  0  0  0  0  0  0
    2.3316   -0.0863   -2.5723 O   0  0  0  0  0  0  0  0  0  0  0  0
    2.8158   -0.9204   -3.5218 C   0  0  0  0  0  0  0  0  0  0  0  0
    3.9963   -0.8574   -3.8377 O   0  0  0  0  0  0  0  0  0  0  0  0
    1.9311   -2.0609   -3.9171 C   0  0  0  0  0  0  0  0  0  0  0  0
    0.8293   -1.6122   -4.6192 C   0  0  0  0  0  0  0  0  0  0  0  0
   -0.2970   -2.4216   -4.7399 C   0  0  0  0  0  0  0  0  0  0  0  0
   -0.2906   -3.7445   -4.3028 C   0  0  0  0  0  0  0  0  0  0  0  0
    0.8565   -4.2724   -3.7312 C   0  0  0  0  0  0  0  0  0  0  0  0
    1.9525   -3.4186   -3.4919 C   0  0  0  0  0  0  0  0  0  0  0  0
    3.3652    1.6069   -0.8733 C   0  0  2  0  0  0  0  0  0  0  0  0
    4.2109    1.3995    0.3288 C   0  0  0  0  0  0  0  0  0  0  0  0
    4.1656    2.0520    1.4970 C   0  0  0  0  0  0  0  0  0  0  0  0
    5.0327    0.1797    0.1776 C   0  0  0  0  0  0  0  0  0  0  0  0
    4.4988   -0.8175    1.1883 C   0  0  0  0  0  0  0  0  0  0  0  0
    4.9748   -2.2063    0.9571 C   0  0  1  0  0  0  0  0  0  0  0  0
    3.9882   -3.3653    1.0373 C   0  0  2  0  0  0  0  0  0  0  0  0
    4.7909   -2.9238   -0.2935 C   0  0  0  0  0  0  0  0  0  0  0  0
    5.6605   -4.0122   -0.8242 C   0  0  0  0  0  0  0  0  0  0  0  0
    4.0592   -2.2834   -1.4154 C   0  0  0  0  0  0  0  0  0  0  0  0
    2.6912   -3.6856    0.4236 C   0  0  0  0  0  0  0  0  0  0  0  0
    1.6519   -2.8728    0.5873 C   0  0  0  0  0  0  0  0  0  0  0  0
    1.0079   -2.4375   -0.6727 C   0  0  0  0  0  0  0  0  0  0  0  0
    0.5037   -3.2073   -1.4430 O   0  0  0  0  0  0  0  0  0  0  0  0
    1.1221   -2.2406    1.8252 C   0  0  0  0  0  0  0  0  0  0  0  0
    3.4869    3.1487   -1.2853 O   0  0  0  0  0  0  0  0  0  0  0  0
    3.9941    4.2892   -0.6539 C   0  0  0  0  0  0  0  0  0  0  0  0
    5.0101    4.9224   -0.9527 O   0  0  0  0  0  0  0  0  0  0  0  0
    2.9387    4.9321    0.1953 C   0  0  0  0  0  0  0  0  0  0  0  0
   -0.8629   -1.7036    0.1072 O   0  0  0  0  0  0  0  0  0  0  0  0
   -1.2437   -3.1763    0.3921 C   0  0  0  0  0  0  0  0  0  0  0  0
   -0.4407   -4.1198    0.5191 O   0  0  0  0  0  0  0  0  0  0  0  0
   -2.6375   -3.7383    0.7039 C   0  0  0  0  0  0  0  0  0  0  0  0
   -0.7582    2.6457   -1.0807 H   0  0  0  0  0  0  0  0  0  0  0  0
   -1.8334    1.3067   -0.6338 H   0  0  0  0  0  0  0  0  0  0  0  0
   -1.6184    1.6828   -2.3905 H   0  0  0  0  0  0  0  0  0  0  0  0
   -0.1174    0.7081   -0.3023 H   0  0  0  0  0  0  0  0  0  0  0  0
    0.2804   -0.9096   -2.7147 H   0  0  0  0  0  0  0  0  0  0  0  0
   -1.2866   -0.8339   -2.0800 H   0  0  0  0  0  0  0  0  0  0  0  0
    1.3294    1.5802   -0.1293 H   0  0  0  0  0  0  0  0  0  0  0  0
    1.3982    1.8213   -2.7223 H   0  0  0  0  0  0  0  0  0  0  0  0
    0.7493   -0.5419   -4.7980 H   0  0  0  0  0  0  0  0  0  0  0  0
   -1.2189   -1.9602   -5.0683 H   0  0  0  0  0  0  0  0  0  0  0  0
   -1.2065   -4.3275   -4.3028 H   0  0  0  0  0  0  0  0  0  0  0  0
    0.8119   -5.2521   -3.2454 H   0  0  0  0  0  0  0  0  0  0  0  0
    2.6234   -3.8378   -2.7426 H   0  0  0  0  0  0  0  0  0  0  0  0
    3.8699    1.2563   -1.7863 H   0  0  0  0  0  0  0  0  0  0  0  0
    4.6899    1.6780    2.3664 H   0  0  0  0  0  0  0  0  0  0  0  0
    3.5779    2.9194    1.6940 H   0  0  0  0  0  0  0  0  0  0  0  0
    4.9477   -0.1093   -0.8610 H   0  0  0  0  0  0  0  0  0  0  0  0
    6.1051    0.3438    0.2168 H   0  0  0  0  0  0  0  0  0  0  0  0
    4.8470   -0.5053    2.1797 H   0  0  0  0  0  0  0  0  0  0  0  0
    3.4003   -0.7663    1.2479 H   0  0  0  0  0  0  0  0  0  0  0  0
    5.8887   -2.3591    1.5197 H   0  0  0  0  0  0  0  0  0  0  0  0
    3.6738   -3.0773    2.0384 H   0  0  0  0  0  0  0  0  0  0  0  0
    5.0564   -4.9231   -0.8072 H   0  0  0  0  0  0  0  0  0  0  0  0
    5.9223   -3.8463   -1.8781 H   0  0  0  0  0  0  0  0  0  0  0  0
    6.5774   -4.1335   -0.2576 H   0  0  0  0  0  0  0  0  0  0  0  0
    3.0340   -2.5496   -1.4259 H   0  0  0  0  0  0  0  0  0  0  0  0
    3.8568   -1.2423   -1.3332 H   0  0  0  0  0  0  0  0  0  0  0  0
    4.3902   -2.6270   -2.3925 H   0  0  0  0  0  0  0  0  0  0  0  0
    2.7664   -4.2707   -0.5021 H   0  0  0  0  0  0  0  0  0  0  0  0
    0.7010   -1.2476    1.6475 H   0  0  0  0  0  0  0  0  0  0  0  0
    0.3001   -2.8457    2.2266 H   0  0  0  0  0  0  0  0  0  0  0  0
    1.8621   -2.1626    2.5967 H   0  0  0  0  0  0  0  0  0  0  0  0
    2.0446    5.0292   -0.4158 H   0  0  0  0  0  0  0  0  0  0  0  0
    2.7138    4.3488    1.0722 H   0  0  0  0  0  0  0  0  0  0  0  0
    3.2442    5.9223    0.5566 H   0  0  0  0  0  0  0  0  0  0  0  0
   -3.3144   -3.1551    1.3112 H   0  0  0  0  0  0  0  0  0  0  0  0
   -3.1143   -4.2903   -0.1254 H   0  0  0  0  0  0  0  0  0  0  0  0
   -2.4326   -4.6117    1.3827 H   0  0  0  0  0  0  0  0  0  0  0  0
  1 39  1  0  0  0  0
  1 40  1  0  0  0  0
  1 41  1  0  0  0  0
  2  3  1  0  0  0  0
  2  6  1  0  0  0  0
  2 42  1  1  0  0  0
  2  1  1  0  0  0  0
  3  4  1  0  0  0  0
  3 43  1  0  0  0  0
  3 44  1  0  0  0  0
  4 28  1  0  0  0  0
  4 35  1  6  0  0  0
  5  4  1  0  0  0  0
  5  6  1  0  0  0  0
  5 16  1  0  0  0  0
  5 45  1  1  0  0  0
  6 46  1  6  0  0  0
  6  7  1  0  0  0  0
  7  8  1  0  0  0  0
  8  9  2  0  0  0  0
  8 10  1  0  0  0  0
 10 11  2  0  0  0  0
 10 15  1  0  0  0  0
 11 12  1  0  0  0  0
 11 47  1  0  0  0  0
 12 13  2  0  0  0  0
 12 48  1  0  0  0  0
 13 14  1  0  0  0  0
 13 49  1  0  0  0  0
 14 15  2  0  0  0  0
 14 50  1  0  0  0  0
 15 51  1  0  0  0  0
 16 17  1  0  0  0  0
 16 52  1  6  0  0  0
 16 31  1  0  0  0  0
 17 18  2  0  0  0  0
 17 19  1  0  0  0  0
 18 53  1  0  0  0  0
 18 54  1  0  0  0  0
 19 20  1  0  0  0  0
 19 55  1  0  0  0  0
 19 56  1  0  0  0  0
 20 57  1  0  0  0  0
 20 58  1  0  0  0  0
 21 20  1  0  0  0  0
 21 22  1  0  0  0  0
 21 23  1  0  0  0  0
 21 59  1  1  0  0  0
 22 23  1  0  0  0  0
 22 26  1  0  0  0  0
 22 60  1  1  0  0  0
 23 24  1  0  0  0  0
 23 25  1  0  0  0  0
 24 61  1  0  0  0  0
 24 62  1  0  0  0  0
 24 63  1  0  0  0  0
 25 64  1  0  0  0  0
 25 65  1  0  0  0  0
 25 66  1  0  0  0  0
 26 27  2  0  0  0  0
 26 67  1  0  0  0  0
 27 28  1  0  0  0  0
 27 30  1  0  0  0  0
 28 29  2  0  0  0  0
 30 68  1  0  0  0  0
 30 69  1  0  0  0  0
 30 70  1  0  0  0  0
 31 32  1  0  0  0  0
 32 33  2  0  0  0  0
 32 34  1  0  0  0  0
 34 71  1  0  0  0  0
 34 72  1  0  0  0  0
 34 73  1  0  0  0  0
 35 36  1  0  0  0  0
 36 37  2  0  0  0  0
 36 38  1  0  0  0  0
 38 74  1  0  0  0  0
 38 75  1  0  0  0  0
 38 76  1  0  0  0  0
M  END
>  <DRUGBANK_ID>
DB11260

>  <COMMON_NAME>
Diacetyl benzoyl lathyrol

>  <CAS_NUMBER>
218916-52-0

>  <UNII>
8986760I2S

$$$$
