SM5
 OpenBabel10282417173D

 51 55  0  0  0  0  0  0  0  0999 V2000
   -1.5321    0.0257   -0.1333 C   0  0  0  0  0  0  0  0  0  0  0  0
   -2.8699    0.0700    0.4686 N   0  0  0  0  0  0  0  0  0  0  0  0
   -8.2496    2.3413    0.3155 C   0  0  0  0  0  0  0  0  0  0  0  0
   -7.0180    1.6788    0.1108 C   0  0  0  0  0  0  0  0  0  0  0  0
   -6.1514    1.4076    1.1883 C   0  0  0  0  0  0  0  0  0  0  0  0
   -6.5265    1.8011    2.4769 C   0  0  0  0  0  0  0  0  0  0  0  0
   -7.7352    2.4548    2.6691 C   0  0  0  0  0  0  0  0  0  0  0  0
   -8.5871    2.7254    1.6063 C   0  0  0  0  0  0  0  0  0  0  0  0
   -4.9610   -1.5966    3.8843 C   0  0  0  0  0  0  0  0  0  0  0  0
   -3.2618   -0.8936    1.3261 N   0  0  0  0  0  0  0  0  0  0  0  0
   -5.8687   -2.2690    4.6855 C   0  0  0  0  0  0  0  0  0  0  0  0
   -7.2955   -2.6468    2.9194 C   0  0  0  0  0  0  0  0  0  0  0  0
    0.6860   -1.2099   -0.2747 C   0  0  0  0  0  0  0  0  0  0  0  0
   -6.5012   -1.9175    2.0594 C   0  0  0  0  0  0  0  0  0  0  0  0
   -3.8333    1.0272    0.2633 C   0  0  0  0  0  0  0  0  0  0  0  0
   -5.3123   -1.3828    2.5531 C   0  0  0  0  0  0  0  0  0  0  0  0
   -4.9169    0.6545    1.0285 C   0  0  0  0  0  0  0  0  0  0  0  0
   -0.7216    1.2739    0.2423 C   0  0  0  0  0  0  0  0  0  0  0  0
    0.7124    1.1935   -0.2699 C   0  0  0  0  0  0  0  0  0  0  0  0
   -4.5073   -0.5530    1.6720 C   0  0  0  0  0  0  0  0  0  0  0  0
   -7.0240   -2.8060    4.2314 N   0  0  0  0  0  0  0  0  0  0  0  0
    1.3685   -0.0153    0.2147 N   0  0  0  0  0  0  0  0  0  0  0  0
   -0.7499   -1.2517    0.2298 C   0  0  0  0  0  0  0  0  0  0  0  0
   -8.2577    2.9108    3.9874 C   0  0  0  0  0  0  0  0  0  0  0  0
   -9.5843    3.5973    3.6558 C   0  0  0  0  0  0  0  0  0  0  0  0
   -9.7540    3.4247    2.1564 C   0  0  0  0  0  0  0  0  0  0  0  0
  -10.7646    3.8377    1.4440 N   0  0  0  0  0  0  0  0  0  0  0  0
  -11.7125    4.4823    2.2565 O   0  0  0  0  0  0  0  0  0  0  0  0
   -1.7048    0.0251   -1.2192 H   0  0  0  0  0  0  0  0  0  0  0  0
   -8.9154    2.5339   -0.5210 H   0  0  0  0  0  0  0  0  0  0  0  0
   -6.7475    1.3485   -0.8903 H   0  0  0  0  0  0  0  0  0  0  0  0
   -5.8927    1.5905    3.3343 H   0  0  0  0  0  0  0  0  0  0  0  0
   -4.0272   -1.2283    4.2946 H   0  0  0  0  0  0  0  0  0  0  0  0
   -5.6958   -2.3905    5.7512 H   0  0  0  0  0  0  0  0  0  0  0  0
   -8.1968   -3.1338    2.5611 H   0  0  0  0  0  0  0  0  0  0  0  0
    1.2182   -2.0973    0.0857 H   0  0  0  0  0  0  0  0  0  0  0  0
    0.7135   -1.2422   -1.3704 H   0  0  0  0  0  0  0  0  0  0  0  0
   -6.7962   -1.7676    1.0269 H   0  0  0  0  0  0  0  0  0  0  0  0
   -3.6552    1.8857   -0.3681 H   0  0  0  0  0  0  0  0  0  0  0  0
   -1.1944    2.1734   -0.1701 H   0  0  0  0  0  0  0  0  0  0  0  0
   -0.7164    1.3954    1.3335 H   0  0  0  0  0  0  0  0  0  0  0  0
    0.7330    1.2210   -1.3662 H   0  0  0  0  0  0  0  0  0  0  0  0
    1.2688    2.0687    0.0824 H   0  0  0  0  0  0  0  0  0  0  0  0
    2.3427   -0.0283   -0.0873 H   0  0  0  0  0  0  0  0  0  0  0  0
   -0.7295   -1.3822    1.3202 H   0  0  0  0  0  0  0  0  0  0  0  0
   -1.2546   -2.1335   -0.1846 H   0  0  0  0  0  0  0  0  0  0  0  0
   -8.4077    2.0494    4.6461 H   0  0  0  0  0  0  0  0  0  0  0  0
   -7.5508    3.6062    4.4499 H   0  0  0  0  0  0  0  0  0  0  0  0
  -10.4069    3.1321    4.2089 H   0  0  0  0  0  0  0  0  0  0  0  0
   -9.5427    4.6589    3.9223 H   0  0  0  0  0  0  0  0  0  0  0  0
  -12.4045    4.7421    1.6173 H   0  0  0  0  0  0  0  0  0  0  0  0
  1 29  1  0  0  0  0
  2  1  1  0  0  0  0
  2 15  1  0  0  0  0
  3 30  1  0  0  0  0
  4  3  1  0  0  0  0
  4 31  1  0  0  0  0
  5  4  2  0  0  0  0
  6  7  2  0  0  0  0
  6  5  1  0  0  0  0
  6 32  1  0  0  0  0
  7  8  1  0  0  0  0
  8 26  1  0  0  0  0
  8  3  2  0  0  0  0
  9 33  1  0  0  0  0
 10 20  2  0  0  0  0
 10  2  1  0  0  0  0
 11  9  1  0  0  0  0
 11 34  1  0  0  0  0
 12 14  2  0  0  0  0
 12 21  1  0  0  0  0
 12 35  1  0  0  0  0
 13 36  1  0  0  0  0
 13 37  1  0  0  0  0
 14 16  1  0  0  0  0
 14 38  1  0  0  0  0
 15 39  1  0  0  0  0
 16 20  1  0  0  0  0
 16  9  2  0  0  0  0
 17 15  2  0  0  0  0
 17  5  1  0  0  0  0
 18 19  1  0  0  0  0
 18  1  1  0  0  0  0
 18 40  1  0  0  0  0
 18 41  1  0  0  0  0
 19 42  1  0  0  0  0
 19 43  1  0  0  0  0
 20 17  1  0  0  0  0
 21 11  2  0  0  0  0
 22 13  1  0  0  0  0
 22 19  1  0  0  0  0
 22 44  1  0  0  0  0
 23 13  1  0  0  0  0
 23  1  1  0  0  0  0
 23 45  1  0  0  0  0
 23 46  1  0  0  0  0
 24  7  1  0  0  0  0
 24 25  1  0  0  0  0
 24 47  1  0  0  0  0
 24 48  1  0  0  0  0
 25 26  1  0  0  0  0
 25 49  1  0  0  0  0
 25 50  1  0  0  0  0
 26 27  2  0  0  0  0
 27 28  1  0  0  0  0
 28 51  1  0  0  0  0
M  END
>  <DRUGBANK_ID>
DB08553

>  <COMMON_NAME>
(1E)-5-(1-piperidin-4-yl-3-pyridin-4-yl-1H-pyrazol-4-yl)-2,3-dihydro-1H-inden-1-one oxime

$$$$
