
 OpenBabel10282417233D

100103  0  0  1  0  0  0  0  0999 V2000
   -3.5499    4.8830    2.7392 H   0  0  0  0  0  0  0  0  0  0  0  0
   -2.8116    5.1895    1.9606 C   0  0  1  0  0  0  0  0  0  0  0  0
   -2.6693    3.9749    0.6406 C   0  0  2  0  0  0  0  0  0  0  0  0
   -3.4953    3.4301    1.3198 H   0  0  0  0  0  0  0  0  0  0  0  0
   -2.3248    2.6329    0.4037 C   0  0  0  0  0  0  0  0  0  0  0  0
   -3.3469    2.3928   -0.3956 C   0  0  0  0  0  0  0  0  0  0  0  0
   -4.4969    3.8368   -0.4429 C   0  0  0  0  0  0  0  0  0  0  0  0
   -5.5821    3.7010    0.4059 O   0  0  0  0  0  0  0  0  0  0  0  0
   -2.3695    1.5855   -1.2618 C   0  0  0  0  0  0  0  0  0  0  0  0
   -2.1574    2.6381   -2.6864 C   0  0  2  0  0  0  0  0  0  0  0  0
   -3.3711    1.4466   -3.8197 O   0  0  0  0  0  0  0  0  0  0  0  0
   -0.7228    2.9856   -3.2555 C   0  0  0  0  0  0  0  0  0  0  0  0
    0.3965    3.1315   -2.8576 O   0  0  0  0  0  0  0  0  0  0  0  0
   -1.3044    1.7534   -3.3256 C   0  0  0  0  0  0  0  0  0  0  0  0
   -0.2700    0.5664   -3.5074 C   0  0  0  0  0  0  0  0  0  0  0  0
   -2.6395    2.8554   -2.9739 C   0  0  0  0  0  0  0  0  0  0  0  0
   -2.6126    4.1708   -2.4778 C   0  0  1  0  0  0  0  0  0  0  0  0
   -3.1313    4.7894   -3.2068 H   0  0  0  0  0  0  0  0  0  0  0  0
   -2.2054    4.7465   -1.1062 C   0  0  2  0  0  0  0  0  0  0  0  0
   -0.8702    4.8483   -1.6806 O   0  0  0  0  0  0  0  0  0  0  0  0
   -2.3319    6.2590   -0.9025 C   0  0  2  0  0  0  0  0  0  0  0  0
   -3.4366    7.2339   -1.0676 C   0  0  0  0  0  0  0  0  0  0  0  0
   -1.2081    6.7426    0.0289 C   0  0  1  0  0  0  0  0  0  0  0  0
   -0.1921    7.8246   -0.1334 O   0  0  0  0  0  0  0  0  0  0  0  0
    1.2322    7.7039   -0.1610 C   0  0  0  0  0  0  0  0  0  0  0  0
    1.8933    8.7208   -0.3945 O   0  0  0  0  0  0  0  0  0  0  0  0
    2.1320    6.4131    0.0339 C   0  0  0  0  0  0  0  0  0  0  0  0
    2.2207    5.8474    1.4212 C   0  0  0  0  0  0  0  0  0  0  0  0
    0.9809    5.2129    1.3265 C   0  0  0  0  0  0  0  0  0  0  0  0
    0.8199    4.1258    0.2876 C   0  0  0  0  0  0  0  0  0  0  0  0
    0.8413    2.7193    1.0167 C   0  0  0  0  0  0  0  0  0  0  0  0
    0.0916    2.2119    2.6081 C   0  0  0  0  0  0  0  0  0  0  0  0
   -1.7023    1.9423    2.9700 C   0  0  0  0  0  0  0  0  0  0  0  0
   -2.5170    0.9294    1.9746 C   0  0  0  0  0  0  0  0  0  0  0  0
   -1.6850   -0.2829    2.0324 C   0  0  0  0  0  0  0  0  0  0  0  0
   -2.1547   -0.6768    3.3829 C   0  0  0  0  0  0  0  0  0  0  0  0
   -3.7210   -0.7069    3.3506 C   0  0  0  0  0  0  0  0  0  0  0  0
   -4.1559   -1.5839    2.1656 C   0  0  0  0  0  0  0  0  0  0  0  0
   -3.4742   -2.9142    2.3810 C   0  0  0  0  0  0  0  0  0  0  0  0
   -1.8967    6.5538    1.5330 C   0  0  2  0  0  0  0  0  0  0  0  0
   -1.6204    7.7403    2.1965 O   0  0  0  0  0  0  0  0  0  0  0  0
   -2.5490    8.5935    2.5490 C   0  0  0  0  0  0  0  0  0  0  0  0
   -3.9006    7.9960    2.6517 C   0  0  0  0  0  0  0  0  0  0  0  0
   -2.2418    9.7397    2.8274 O   0  0  0  0  0  0  0  0  0  0  0  0
   -1.4814    5.4598    2.5122 C   0  0  0  0  0  0  0  0  0  0  0  0
   -0.5429    5.8971    3.6446 C   0  0  0  0  0  0  0  0  0  0  0  0
   -0.9123    4.3858    1.9023 C   0  0  0  0  0  0  0  0  0  0  0  0
   -1.4012    2.0107    0.5841 H   0  0  0  0  0  0  0  0  0  0  0  0
   -4.2162    4.7472    0.1608 H   0  0  0  0  0  0  0  0  0  0  0  0
   -4.5688    4.4199   -1.3514 H   0  0  0  0  0  0  0  0  0  0  0  0
   -5.7367    2.7720    0.2849 H   0  0  0  0  0  0  0  0  0  0  0  0
   -2.7949    0.6112   -1.4918 H   0  0  0  0  0  0  0  0  0  0  0  0
   -1.2752    1.3787   -1.0144 H   0  0  0  0  0  0  0  0  0  0  0  0
   -3.9824    1.1799   -3.0993 H   0  0  0  0  0  0  0  0  0  0  0  0
   -0.0784    0.3154   -4.5559 H   0  0  0  0  0  0  0  0  0  0  0  0
    0.7697    0.9049   -3.2190 H   0  0  0  0  0  0  0  0  0  0  0  0
   -0.2850   -0.3542   -2.8911 H   0  0  0  0  0  0  0  0  0  0  0  0
   -3.8874    2.7041   -2.4963 H   0  0  0  0  0  0  0  0  0  0  0  0
   -0.7737    5.6038   -2.3087 H   0  0  0  0  0  0  0  0  0  0  0  0
   -2.9881    5.8810   -0.1797 H   0  0  0  0  0  0  0  0  0  0  0  0
   -3.4082    7.7199   -2.0254 H   0  0  0  0  0  0  0  0  0  0  0  0
   -4.4095    6.7493   -0.8996 H   0  0  0  0  0  0  0  0  0  0  0  0
   -3.3228    7.9418   -0.2369 H   0  0  0  0  0  0  0  0  0  0  0  0
   -0.4534    6.0890   -0.2861 H   0  0  0  0  0  0  0  0  0  0  0  0
    1.9152    5.7151   -0.7795 H   0  0  0  0  0  0  0  0  0  0  0  0
    3.1902    6.5817   -0.1091 H   0  0  0  0  0  0  0  0  0  0  0  0
    2.7371    4.9366    1.7455 H   0  0  0  0  0  0  0  0  0  0  0  0
    2.1511    6.5819    2.2284 H   0  0  0  0  0  0  0  0  0  0  0  0
    0.8995    4.6743    2.2561 H   0  0  0  0  0  0  0  0  0  0  0  0
    0.3035    6.0798    1.3636 H   0  0  0  0  0  0  0  0  0  0  0  0
   -0.1119    4.4209   -0.0956 H   0  0  0  0  0  0  0  0  0  0  0  0
    1.0681    4.1306   -0.7701 H   0  0  0  0  0  0  0  0  0  0  0  0
    0.5073    2.0424    0.2416 H   0  0  0  0  0  0  0  0  0  0  0  0
    1.9174    2.7144    1.1367 H   0  0  0  0  0  0  0  0  0  0  0  0
    0.5866    1.2827    2.8725 H   0  0  0  0  0  0  0  0  0  0  0  0
    0.3971    2.9683    3.3679 H   0  0  0  0  0  0  0  0  0  0  0  0
   -1.8406    1.7536    4.0543 H   0  0  0  0  0  0  0  0  0  0  0  0
   -2.2770    2.8831    3.1823 H   0  0  0  0  0  0  0  0  0  0  0  0
   -3.6266    1.1365    1.9145 H   0  0  0  0  0  0  0  0  0  0  0  0
   -2.6281    0.6935    0.9045 H   0  0  0  0  0  0  0  0  0  0  0  0
   -1.8364   -0.9677    1.1753 H   0  0  0  0  0  0  0  0  0  0  0  0
   -0.6362   -0.0164    1.9082 H   0  0  0  0  0  0  0  0  0  0  0  0
   -1.6274   -1.5726    3.6556 H   0  0  0  0  0  0  0  0  0  0  0  0
   -1.8089    0.0297    4.1276 H   0  0  0  0  0  0  0  0  0  0  0  0
   -4.0778   -1.0089    4.3255 H   0  0  0  0  0  0  0  0  0  0  0  0
   -4.2380    0.2670    3.2554 H   0  0  0  0  0  0  0  0  0  0  0  0
   -5.2421   -1.6460    2.1184 H   0  0  0  0  0  0  0  0  0  0  0  0
   -3.8729   -1.2002    1.1687 H   0  0  0  0  0  0  0  0  0  0  0  0
   -3.7201   -3.2497    3.3902 H   0  0  0  0  0  0  0  0  0  0  0  0
   -3.7660   -3.6339    1.6281 H   0  0  0  0  0  0  0  0  0  0  0  0
   -2.3809   -2.8406    2.3184 H   0  0  0  0  0  0  0  0  0  0  0  0
   -4.1602    7.9797    3.7047 H   0  0  0  0  0  0  0  0  0  0  0  0
   -4.5504    8.5177    1.9617 H   0  0  0  0  0  0  0  0  0  0  0  0
   -3.9695    6.9635    2.3399 H   0  0  0  0  0  0  0  0  0  0  0  0
   -0.4074    6.9720    3.6814 H   0  0  0  0  0  0  0  0  0  0  0  0
   -0.1438    5.1140    4.3067 H   0  0  0  0  0  0  0  0  0  0  0  0
    0.4948    5.9630    3.2972 H   0  0  0  0  0  0  0  0  0  0  0  0
   -0.8572    3.7103    1.0942 H   0  0  0  0  0  0  0  0  0  0  0  0
   -1.2615    3.5360    2.2690 H   0  0  0  0  0  0  0  0  0  0  0  0
   -1.1691    4.8680    0.9902 H   0  0  0  0  0  0  0  0  0  0  0  0
  2 40  1  0  0  0  0
  2 45  1  0  0  0  0
  2  1  1  6  0  0  0
  3  2  1  0  0  0  0
  3  5  1  0  0  0  0
  3  4  1  6  0  0  0
  5  6  2  0  0  0  0
  5 48  1  0  0  0  0
  6  9  1  0  0  0  0
  6  7  1  0  0  0  0
  7  8  1  0  0  0  0
  7 49  1  0  0  0  0
  7 50  1  0  0  0  0
  8 51  1  0  0  0  0
  9 52  1  0  0  0  0
  9 53  1  0  0  0  0
 10  9  1  0  0  0  0
 10 12  1  0  0  0  0
 10 11  1  6  0  0  0
 11 54  1  0  0  0  0
 12 14  1  0  0  0  0
 12 13  2  0  0  0  0
 14 16  2  0  0  0  0
 14 15  1  0  0  0  0
 15 55  1  0  0  0  0
 15 56  1  0  0  0  0
 15 57  1  0  0  0  0
 16 58  1  0  0  0  0
 17 16  1  0  0  0  0
 17 10  1  0  0  0  0
 17 18  1  6  0  0  0
 19 17  1  0  0  0  0
 19  3  1  0  0  0  0
 19 21  1  0  0  0  0
 19 20  1  6  0  0  0
 20 59  1  0  0  0  0
 21 23  1  0  0  0  0
 21 22  1  0  0  0  0
 21 60  1  1  0  0  0
 22 61  1  0  0  0  0
 22 62  1  0  0  0  0
 22 63  1  0  0  0  0
 23 40  1  0  0  0  0
 23 24  1  0  0  0  0
 23 64  1  6  0  0  0
 24 25  1  0  0  0  0
 25 26  2  0  0  0  0
 25 27  1  0  0  0  0
 27 28  1  0  0  0  0
 27 65  1  0  0  0  0
 27 66  1  0  0  0  0
 28 29  1  0  0  0  0
 28 67  1  0  0  0  0
 28 68  1  0  0  0  0
 29 30  1  0  0  0  0
 29 69  1  0  0  0  0
 29 70  1  0  0  0  0
 30 31  1  0  0  0  0
 30 71  1  0  0  0  0
 30 72  1  0  0  0  0
 31 32  1  0  0  0  0
 31 73  1  0  0  0  0
 31 74  1  0  0  0  0
 32 33  1  0  0  0  0
 32 75  1  0  0  0  0
 32 76  1  0  0  0  0
 33 34  1  0  0  0  0
 33 77  1  0  0  0  0
 33 78  1  0  0  0  0
 34 35  1  0  0  0  0
 34 79  1  0  0  0  0
 34 80  1  0  0  0  0
 35 36  1  0  0  0  0
 35 81  1  0  0  0  0
 35 82  1  0  0  0  0
 36 37  1  0  0  0  0
 36 83  1  0  0  0  0
 36 84  1  0  0  0  0
 37 38  1  0  0  0  0
 37 85  1  0  0  0  0
 37 86  1  0  0  0  0
 38 39  1  0  0  0  0
 38 87  1  0  0  0  0
 38 88  1  0  0  0  0
 39 89  1  0  0  0  0
 39 90  1  0  0  0  0
 39 91  1  0  0  0  0
 40 45  1  0  0  0  0
 40 41  1  6  0  0  0
 41 42  1  0  0  0  0
 42 43  1  0  0  0  0
 42 44  2  0  0  0  0
 43 92  1  0  0  0  0
 43 93  1  0  0  0  0
 43 94  1  0  0  0  0
 45 46  1  0  0  0  0
 45 47  1  0  0  0  0
 46 95  1  0  0  0  0
 46 96  1  0  0  0  0
 46 97  1  0  0  0  0
 47 98  1  0  0  0  0
 47 99  1  0  0  0  0
 47100  1  0  0  0  0
M  END
>  <DRUGBANK_ID>
DB17045

>  <COMMON_NAME>
Phorbol 12-myristate 13-acetate diester

>  <CAS_NUMBER>
16561-29-8

>  <UNII>
NI40JAQ945

>  <SYNONYMS>
12-o-tetradecanoylphorbol-13-acetate; 12-tetradecanoylphorbol 13-acetate; Phorbol 12-myristate 13-acetate; Phorbol myristate acetate; Pma (phorbol ester); Tetradecanoylphorbol acetate; Tpa (phorbol ester)

$$$$
