
 OpenBabel10282417193D

 58 61  0  0  1  0  0  0  0  0999 V2000
   -4.8795   -2.7554    2.3008 C   0  0  0  0  0  0  0  0  0  0  0  0
   -4.7773   -1.7600    1.1774 C   0  0  0  0  0  0  0  0  0  0  0  0
   -5.7203   -1.8617    0.1433 C   0  0  0  0  0  0  0  0  0  0  0  0
   -5.6015   -1.0501   -0.9644 C   0  0  0  0  0  0  0  0  0  0  0  0
   -4.5339   -0.1460   -1.0009 C   0  0  0  0  0  0  0  0  0  0  0  0
   -3.7351    0.2094    0.1164 C   0  0  0  0  0  0  0  0  0  0  0  0
   -3.7946   -0.7198    1.1689 C   0  0  0  0  0  0  0  0  0  0  0  0
   -2.8633    1.5451    0.1122 C   0  0  2  0  0  0  0  0  0  0  0  0
   -3.4509    2.9293    0.6663 C   0  0  0  0  0  0  0  0  0  0  0  0
   -4.7293    3.0712   -0.0361 C   0  0  0  0  0  0  0  0  0  0  0  0
   -4.1598    2.7040   -1.4337 C   0  0  0  0  0  0  0  0  0  0  0  0
   -2.7650    2.0750   -1.2785 N   0  0  0  0  0  0  0  0  0  0  0  0
   -1.5014    2.9697   -1.4139 C   0  0  0  0  0  0  0  0  0  0  0  0
   -1.0746    3.9971   -0.2879 C   0  0  0  0  0  0  0  0  0  0  0  0
   -0.5489    3.5182    0.9331 C   0  0  0  0  0  0  0  0  0  0  0  0
   -0.6977    4.2557    2.1179 C   0  0  0  0  0  0  0  0  0  0  0  0
   -1.3032    5.5169    2.1223 C   0  0  0  0  0  0  0  0  0  0  0  0
   -1.7548    6.0509    0.9131 C   0  0  0  0  0  0  0  0  0  0  0  0
   -1.6162    5.3152   -0.2878 C   0  0  0  0  0  0  0  0  0  0  0  0
   -1.6287    6.2019    3.2802 O   0  0  0  0  0  0  0  0  0  0  0  0
   -0.9211    5.9425    4.4354 C   0  0  0  0  0  0  0  0  0  0  0  0
    0.4656    5.7736    4.4343 C   0  0  0  0  0  0  0  0  0  0  0  0
    1.1486    5.4998    5.6187 C   0  0  0  0  0  0  0  0  0  0  0  0
    0.4659    5.4687    6.8378 C   0  0  0  0  0  0  0  0  0  0  0  0
   -0.9142    5.7225    6.8539 C   0  0  0  0  0  0  0  0  0  0  0  0
   -1.6031    5.9084    5.6523 C   0  0  0  0  0  0  0  0  0  0  0  0
   -2.9406    6.0090    5.6831 F   0  0  0  0  0  0  0  0  0  0  0  0
    1.1429    5.1305    8.1295 C   0  0  0  0  0  0  0  0  0  0  0  0
    0.5421    5.1119    9.1760 O   0  0  0  0  0  0  0  0  0  0  0  0
    2.4817    4.8061    8.0855 N   0  0  0  0  0  0  0  0  0  0  0  0
   -6.6065   -1.0599   -2.0802 C   0  0  0  0  0  0  0  0  0  0  0  0
   -3.9884   -3.3876    2.3480 H   0  0  0  0  0  0  0  0  0  0  0  0
   -5.0277   -2.2325    3.2476 H   0  0  0  0  0  0  0  0  0  0  0  0
   -5.7414   -3.4233    2.1618 H   0  0  0  0  0  0  0  0  0  0  0  0
   -6.5253   -2.5930    0.1868 H   0  0  0  0  0  0  0  0  0  0  0  0
   -4.3573    0.3059   -1.9708 H   0  0  0  0  0  0  0  0  0  0  0  0
   -3.0702   -0.6840    1.9791 H   0  0  0  0  0  0  0  0  0  0  0  0
   -1.8619    1.2559    0.4509 H   0  0  0  0  0  0  0  0  0  0  0  0
   -3.3407    3.3030    1.6826 H   0  0  0  0  0  0  0  0  0  0  0  0
   -3.0766    3.8013    0.1471 H   0  0  0  0  0  0  0  0  0  0  0  0
   -5.1667    4.0745   -0.0313 H   0  0  0  0  0  0  0  0  0  0  0  0
   -5.3524    2.3874    0.5446 H   0  0  0  0  0  0  0  0  0  0  0  0
   -4.1270    3.4976   -2.1752 H   0  0  0  0  0  0  0  0  0  0  0  0
   -4.9314    2.0326   -1.8149 H   0  0  0  0  0  0  0  0  0  0  0  0
   -0.6434    2.2827   -1.5061 H   0  0  0  0  0  0  0  0  0  0  0  0
   -1.5593    3.4987   -2.3698 H   0  0  0  0  0  0  0  0  0  0  0  0
   -0.2430    2.4802    1.0478 H   0  0  0  0  0  0  0  0  0  0  0  0
   -0.4461    3.7638    3.0546 H   0  0  0  0  0  0  0  0  0  0  0  0
   -2.3555    6.9615    0.9187 H   0  0  0  0  0  0  0  0  0  0  0  0
   -2.2111    5.6445   -1.1406 H   0  0  0  0  0  0  0  0  0  0  0  0
    1.0240    5.8015    3.5024 H   0  0  0  0  0  0  0  0  0  0  0  0
    2.2146    5.3199    5.5464 H   0  0  0  0  0  0  0  0  0  0  0  0
   -1.4638    5.7636    7.7912 H   0  0  0  0  0  0  0  0  0  0  0  0
    3.0527    4.7585    7.2613 H   0  0  0  0  0  0  0  0  0  0  0  0
    2.9112    4.5439    8.9635 H   0  0  0  0  0  0  0  0  0  0  0  0
   -7.1125   -0.0866   -2.1312 H   0  0  0  0  0  0  0  0  0  0  0  0
   -6.1209   -1.2530   -3.0406 H   0  0  0  0  0  0  0  0  0  0  0  0
   -7.3809   -1.8181   -1.9255 H   0  0  0  0  0  0  0  0  0  0  0  0
  1  2  1  0  0  0  0
  1 32  1  0  0  0  0
  1 33  1  0  0  0  0
  1 34  1  0  0  0  0
  2  3  2  0  0  0  0
  2  7  1  0  0  0  0
  3  4  1  0  0  0  0
  3 35  1  0  0  0  0
  4  5  2  0  0  0  0
  4 31  1  0  0  0  0
  5  6  1  0  0  0  0
  5 36  1  0  0  0  0
  6  7  2  0  0  0  0
  7 37  1  0  0  0  0
  8  9  1  0  0  0  0
  8 12  1  0  0  0  0
  8 38  1  1  0  0  0
  8  6  1  0  0  0  0
  9 10  1  0  0  0  0
  9 39  1  0  0  0  0
  9 40  1  0  0  0  0
 10 11  1  0  0  0  0
 10 41  1  0  0  0  0
 10 42  1  0  0  0  0
 11 12  1  0  0  0  0
 11 43  1  0  0  0  0
 11 44  1  0  0  0  0
 12 13  1  0  0  0  0
 13 14  1  0  0  0  0
 13 45  1  0  0  0  0
 13 46  1  0  0  0  0
 14 15  2  0  0  0  0
 14 19  1  0  0  0  0
 15 16  1  0  0  0  0
 15 47  1  0  0  0  0
 16 17  2  0  0  0  0
 16 48  1  0  0  0  0
 17 18  1  0  0  0  0
 17 20  1  0  0  0  0
 18 19  2  0  0  0  0
 18 49  1  0  0  0  0
 19 50  1  0  0  0  0
 20 21  1  0  0  0  0
 21 22  2  0  0  0  0
 21 26  1  0  0  0  0
 22 23  1  0  0  0  0
 22 51  1  0  0  0  0
 23 24  2  0  0  0  0
 23 52  1  0  0  0  0
 24 25  1  0  0  0  0
 24 28  1  0  0  0  0
 25 26  2  0  0  0  0
 25 53  1  0  0  0  0
 26 27  1  0  0  0  0
 28 29  2  0  0  0  0
 28 30  1  0  0  0  0
 30 54  1  0  0  0  0
 30 55  1  0  0  0  0
 31 56  1  0  0  0  0
 31 57  1  0  0  0  0
 31 58  1  0  0  0  0
M  END
>  <DRUGBANK_ID>
DB12341

>  <COMMON_NAME>
Aticaprant

>  <CAS_NUMBER>
1174130-61-0

>  <UNII>
DE4G8X55F5

>  <SYNONYMS>
BENZAMIDE, 4-(4-(((2S)-2-(3,5-DIMETHYLPHENYL)-1-PYRROLIDINYL)METHYL)PHENOXY)-3-FLUORO-

$$$$
