
 OpenBabel10282417223D

 40 42  0  0  1  0  0  0  0  0999 V2000
    1.3620   -0.3360   -2.7326 C   0  0  0  0  0  0  0  0  0  0  0  0
    0.6810    0.1940   -1.4732 C   0  0  1  0  0  0  0  0  0  0  0  0
    0.8125    1.6977   -1.5775 C   0  0  0  0  0  0  0  0  0  0  0  0
   -0.1904    2.5024   -1.9026 C   0  0  0  0  0  0  0  0  0  0  0  0
   -1.4396    1.7879   -2.8684 S   0  0  0  0  0  0  0  0  0  0  0  0
   -1.6583    0.2360   -2.0938 C   0  0  0  0  0  0  0  0  0  0  0  0
   -2.9420   -0.2646   -2.1392 N   0  0  0  0  0  0  0  0  0  0  0  0
   -0.7060   -0.3606   -1.4753 N   0  0  0  0  0  0  0  0  0  0  0  0
    1.2790   -0.1606   -0.1164 C   0  0  0  0  0  0  0  0  0  0  0  0
    0.8029    0.5172    1.0284 C   0  0  0  0  0  0  0  0  0  0  0  0
    1.0708    0.1532    2.3401 C   0  0  0  0  0  0  0  0  0  0  0  0
    0.4019    0.7348    3.4499 N   0  0  0  0  0  0  0  0  0  0  0  0
   -0.6484    1.6588    3.5344 C   0  0  0  0  0  0  0  0  0  0  0  0
   -1.0309    2.0501    4.6390 O   0  0  0  0  0  0  0  0  0  0  0  0
   -1.4145    2.1322    2.3503 C   0  0  0  0  0  0  0  0  0  0  0  0
   -1.5210    3.4756    2.1227 N   0  0  0  0  0  0  0  0  0  0  0  0
   -2.1736    3.8819    0.9953 C   0  0  0  0  0  0  0  0  0  0  0  0
   -2.7330    3.0208    0.0832 C   0  0  0  0  0  0  0  0  0  0  0  0
   -2.6339    1.6676    0.3948 C   0  0  0  0  0  0  0  0  0  0  0  0
   -1.9767    1.1950    1.5179 C   0  0  0  0  0  0  0  0  0  0  0  0
   -3.2621    3.5230   -1.1704 C   0  0  0  0  0  0  0  0  0  0  0  0
   -3.5904    3.9075   -2.1995 N   0  0  0  0  0  0  0  0  0  0  0  0
    2.0525   -0.8211    2.5093 C   0  0  0  0  0  0  0  0  0  0  0  0
    2.6669   -1.4084    1.3844 C   0  0  0  0  0  0  0  0  0  0  0  0
    2.2565   -1.1006    0.0925 C   0  0  0  0  0  0  0  0  0  0  0  0
    2.8861   -1.6806   -0.9327 F   0  0  0  0  0  0  0  0  0  0  0  0
    1.6769   -1.3715   -2.6352 H   0  0  0  0  0  0  0  0  0  0  0  0
    2.2266    0.2804   -3.0032 H   0  0  0  0  0  0  0  0  0  0  0  0
    0.6706   -0.3148   -3.5841 H   0  0  0  0  0  0  0  0  0  0  0  0
    1.7986    2.1280   -1.3947 H   0  0  0  0  0  0  0  0  0  0  0  0
   -0.0880    3.5799   -1.7739 H   0  0  0  0  0  0  0  0  0  0  0  0
   -3.0831   -1.1528   -1.6693 H   0  0  0  0  0  0  0  0  0  0  0  0
   -3.6920    0.3883   -1.9140 H   0  0  0  0  0  0  0  0  0  0  0  0
    0.2192    1.3985    0.8308 H   0  0  0  0  0  0  0  0  0  0  0  0
    0.7109    0.4492    4.3746 H   0  0  0  0  0  0  0  0  0  0  0  0
   -2.2226    4.9553    0.8292 H   0  0  0  0  0  0  0  0  0  0  0  0
   -2.9768    0.8917   -0.2469 H   0  0  0  0  0  0  0  0  0  0  0  0
   -1.7785    0.1282    1.6179 H   0  0  0  0  0  0  0  0  0  0  0  0
    2.3914   -1.1264    3.4945 H   0  0  0  0  0  0  0  0  0  0  0  0
    3.4801   -2.1182    1.4813 H   0  0  0  0  0  0  0  0  0  0  0  0
  1 27  1  0  0  0  0
  1 28  1  0  0  0  0
  1 29  1  0  0  0  0
  2  3  1  0  0  0  0
  2  8  1  0  0  0  0
  2  9  1  0  0  0  0
  2  1  1  6  0  0  0
  3  4  2  0  0  0  0
  3 30  1  0  0  0  0
  4  5  1  0  0  0  0
  4 31  1  0  0  0  0
  5  6  1  0  0  0  0
  6  7  1  0  0  0  0
  6  8  2  0  0  0  0
  7 32  1  0  0  0  0
  7 33  1  0  0  0  0
  9 10  2  0  0  0  0
  9 25  1  0  0  0  0
 10 11  1  0  0  0  0
 10 34  1  0  0  0  0
 11 12  1  0  0  0  0
 11 23  2  0  0  0  0
 12 13  1  0  0  0  0
 12 35  1  0  0  0  0
 13 14  2  0  0  0  0
 13 15  1  0  0  0  0
 15 16  2  0  0  0  0
 15 20  1  0  0  0  0
 16 17  1  0  0  0  0
 17 18  2  0  0  0  0
 17 36  1  0  0  0  0
 18 19  1  0  0  0  0
 18 21  1  0  0  0  0
 19 20  2  0  0  0  0
 19 37  1  0  0  0  0
 20 38  1  0  0  0  0
 21 22  3  0  0  0  0
 23 24  1  0  0  0  0
 23 39  1  0  0  0  0
 24 25  2  0  0  0  0
 24 40  1  0  0  0  0
 25 26  1  0  0  0  0
M  END
>  <DRUGBANK_ID>
DB15307

>  <COMMON_NAME>
Atabecestat

>  <CAS_NUMBER>
1200493-78-2

>  <UNII>
2834W8D6GK

>  <SYNONYMS>
Atabecestat; JNJ-54861911

$$$$
