
 OpenBabel10282417183D

 33 34  0  0  0  0  0  0  0  0999 V2000
    1.0464    0.0370   -0.0110 C   0  0  0  0  0  0  0  0  0  0  0  0
    5.6515   -3.7282    6.6656 C   0  0  0  0  0  0  0  0  0  0  0  0
    5.4187   -2.3556    6.5875 C   0  0  0  0  0  0  0  0  0  0  0  0
    4.6065   -4.6292    6.4547 C   0  0  0  0  0  0  0  0  0  0  0  0
    4.1288   -1.8803    6.3450 C   0  0  0  0  0  0  0  0  0  0  0  0
    3.3361   -4.1613    6.1133 C   0  0  0  0  0  0  0  0  0  0  0  0
    0.1798   -0.9435    4.3354 C   0  0  0  0  0  0  0  0  0  0  0  0
    2.1758   -0.2407    2.5460 C   0  0  0  0  0  0  0  0  0  0  0  0
    3.0872   -2.7855    6.0959 C   0  0  0  0  0  0  0  0  0  0  0  0
    1.4895   -1.4494    4.5273 C   0  0  0  0  0  0  0  0  0  0  0  0
    2.4783   -1.0820    3.6079 C   0  0  0  0  0  0  0  0  0  0  0  0
    0.8704    0.1711    2.2989 C   0  0  0  0  0  0  0  0  0  0  0  0
   -0.1112   -0.0917    3.2496 C   0  0  0  0  0  0  0  0  0  0  0  0
    1.7340   -2.3141    5.7240 C   0  0  0  0  0  0  0  0  0  0  0  0
    3.7825   -1.4814    3.5757 O   0  0  0  0  0  0  0  0  0  0  0  0
    0.7954   -2.6723    6.4298 O   0  0  0  0  0  0  0  0  0  0  0  0
   -1.3074    2.3101    3.2590 O   0  0  0  0  0  0  0  0  0  0  0  0
   -2.2747    0.4814    1.8648 O   0  0  0  0  0  0  0  0  0  0  0  0
   -2.3999    0.4445    4.3841 O   0  0  0  0  0  0  0  0  0  0  0  0
    0.5811    0.7987    1.1192 O   0  0  0  0  0  0  0  0  0  0  0  0
   -1.6844    0.7378    3.1634 S   0  0  0  0  0  0  0  0  0  0  0  0
    0.6784    0.5149   -0.9216 H   0  0  0  0  0  0  0  0  0  0  0  0
    0.6692   -0.9944    0.0115 H   0  0  0  0  0  0  0  0  0  0  0  0
    2.1409    0.0275   -0.0736 H   0  0  0  0  0  0  0  0  0  0  0  0
    6.6524   -4.0969    6.8808 H   0  0  0  0  0  0  0  0  0  0  0  0
    6.2439   -1.6569    6.7081 H   0  0  0  0  0  0  0  0  0  0  0  0
    4.7847   -5.6978    6.5521 H   0  0  0  0  0  0  0  0  0  0  0  0
    3.9671   -0.8080    6.2569 H   0  0  0  0  0  0  0  0  0  0  0  0
    2.5548   -4.8681    5.8411 H   0  0  0  0  0  0  0  0  0  0  0  0
   -0.6170   -1.2239    5.0281 H   0  0  0  0  0  0  0  0  0  0  0  0
    2.9871    0.0668    1.8918 H   0  0  0  0  0  0  0  0  0  0  0  0
    3.9182   -2.3221    4.0391 H   0  0  0  0  0  0  0  0  0  0  0  0
   -1.0882    2.5446    4.1839 H   0  0  0  0  0  0  0  0  0  0  0  0
  1 22  1  0  0  0  0
  1 23  1  0  0  0  0
  1 24  1  0  0  0  0
  2 25  1  0  0  0  0
  3  2  2  0  0  0  0
  3 26  1  0  0  0  0
  4  2  1  0  0  0  0
  4 27  1  0  0  0  0
  5  3  1  0  0  0  0
  5 28  1  0  0  0  0
  6  4  2  0  0  0  0
  6 29  1  0  0  0  0
  7 30  1  0  0  0  0
  8 31  1  0  0  0  0
  9  5  2  0  0  0  0
  9  6  1  0  0  0  0
 10  7  2  0  0  0  0
 11  8  2  0  0  0  0
 11 10  1  0  0  0  0
 12  8  1  0  0  0  0
 13  7  1  0  0  0  0
 13 12  2  0  0  0  0
 14  9  1  0  0  0  0
 14 10  1  0  0  0  0
 15 11  1  0  0  0  0
 15 32  1  0  0  0  0
 16 14  2  0  0  0  0
 17 33  1  0  0  0  0
 20  1  1  0  0  0  0
 20 12  1  0  0  0  0
 21 13  1  0  0  0  0
 21 17  1  0  0  0  0
 21 18  2  0  0  0  0
 21 19  2  0  0  0  0
M  END
>  <DRUGBANK_ID>
DB11185

>  <COMMON_NAME>
Sulisobenzone

>  <CAS_NUMBER>
4065-45-6

>  <UNII>
1W6L629B4K

>  <SYNONYMS>
2-benzoyl-5-methoxy-1-phenol-4-sulfonic acid; 2-hydroxy-4-methoxybenzophenone-5-sulfonic acid; 3-benzoyl-4-hydroxy-6-methoxybenzenesulfonic acid; 5-benzoyl-4-hydroxy-2-methoxybenzenesulfonic acid; Benzophenone-4; Sulfisobenzone; Sulisobenzone

$$$$
