INT
 OpenBabel10282417123D

 66 67  0  0  0  0  0  0  0  0999 V2000
    4.1745   -0.7833    1.5946 C   0  0  2  0  0  0  0  0  0  0  0  0
    4.1614    0.7316    1.3820 C   0  0  0  0  0  0  0  0  0  0  0  0
    5.2932    1.3468    1.9745 O   0  0  0  0  0  0  0  0  0  0  0  0
    5.4306   -1.4117    0.9345 C   0  0  0  0  0  0  0  0  0  0  0  0
    5.4941   -2.9135    1.0874 C   0  0  0  0  0  0  0  0  0  0  0  0
    6.4577   -3.5264    1.8920 C   0  0  0  0  0  0  0  0  0  0  0  0
    6.4418   -4.9124    2.0646 C   0  0  0  0  0  0  0  0  0  0  0  0
    5.4371   -5.6840    1.4811 C   0  0  0  0  0  0  0  0  0  0  0  0
    4.4579   -5.0777    0.7085 C   0  0  0  0  0  0  0  0  0  0  0  0
    4.5420   -3.7172    0.4479 C   0  0  0  0  0  0  0  0  0  0  0  0
    2.9287   -1.3293    1.0579 N   0  0  0  0  0  0  0  0  0  0  0  0
    0.9252   -2.8818    1.1147 C   0  0  2  0  0  0  0  0  0  0  0  0
    2.0931   -2.1084    1.8224 C   0  0  0  0  0  0  0  0  0  0  0  0
    2.2540   -2.1637    3.0432 O   0  0  0  0  0  0  0  0  0  0  0  0
    0.8413   -2.7948   -0.4292 C   0  0  0  0  0  0  0  0  0  0  0  0
    1.0168   -4.1194   -1.1946 C   0  0  0  0  0  0  0  0  0  0  0  0
   -0.4579   -2.1339   -0.8508 C   0  0  0  0  0  0  0  0  0  0  0  0
   -0.3347   -2.4708    1.7868 N   0  0  0  0  0  0  0  0  0  0  0  0
   -1.2494   -3.1754    2.5144 C   0  0  0  0  0  0  0  0  0  0  0  0
   -2.3265   -2.6284    2.7709 O   0  0  0  0  0  0  0  0  0  0  0  0
   -0.9810   -4.6350    2.9082 C   0  0  2  0  0  0  0  0  0  0  0  0
    0.4603   -4.8690    3.3344 C   0  0  0  0  0  0  0  0  0  0  0  0
   -1.3826   -5.5411    1.8402 N   0  0  0  0  0  0  0  0  0  0  0  0
   -2.2345   -6.5925    1.9626 C   0  0  0  0  0  0  0  0  0  0  0  0
   -2.4581   -7.3354    1.0059 O   0  0  0  0  0  0  0  0  0  0  0  0
   -2.7715   -6.7088    3.1963 O   0  0  0  0  0  0  0  0  0  0  0  0
   -3.7356   -7.7565    3.3785 C   0  0  0  0  0  0  0  0  0  0  0  0
   -4.9809   -7.5975    2.5399 C   0  0  0  0  0  0  0  0  0  0  0  0
   -5.7021   -8.7313    2.1417 C   0  0  0  0  0  0  0  0  0  0  0  0
   -6.8671   -8.5948    1.3874 C   0  0  0  0  0  0  0  0  0  0  0  0
   -7.3345   -7.3256    1.0496 C   0  0  0  0  0  0  0  0  0  0  0  0
   -6.6451   -6.1918    1.4723 C   0  0  0  0  0  0  0  0  0  0  0  0
   -5.4575   -6.3270    2.1863 C   0  0  0  0  0  0  0  0  0  0  0  0
    4.2305   -0.9899    2.6702 H   0  0  0  0  0  0  0  0  0  0  0  0
    1.1082   -3.9322    1.3090 H   0  0  0  0  0  0  0  0  0  0  0  0
   -1.5989   -4.8127    3.7948 H   0  0  0  0  0  0  0  0  0  0  0  0
    4.1584    0.9628    0.3102 H   0  0  0  0  0  0  0  0  0  0  0  0
    3.2545    1.1712    1.8120 H   0  0  0  0  0  0  0  0  0  0  0  0
    5.2730    1.1265    2.9233 H   0  0  0  0  0  0  0  0  0  0  0  0
    5.4610   -1.1731   -0.1363 H   0  0  0  0  0  0  0  0  0  0  0  0
    6.3299   -0.9635    1.3763 H   0  0  0  0  0  0  0  0  0  0  0  0
    7.2270   -2.9372    2.3859 H   0  0  0  0  0  0  0  0  0  0  0  0
    7.2028   -5.3923    2.6732 H   0  0  0  0  0  0  0  0  0  0  0  0
    5.4204   -6.7608    1.6163 H   0  0  0  0  0  0  0  0  0  0  0  0
    3.6340   -5.6599    0.3087 H   0  0  0  0  0  0  0  0  0  0  0  0
    3.8314   -3.2737   -0.2387 H   0  0  0  0  0  0  0  0  0  0  0  0
    2.8244   -1.2413    0.0623 H   0  0  0  0  0  0  0  0  0  0  0  0
    1.6515   -2.1896   -0.8186 H   0  0  0  0  0  0  0  0  0  0  0  0
    0.1912   -4.8210   -1.0476 H   0  0  0  0  0  0  0  0  0  0  0  0
    1.0666   -3.8903   -2.2672 H   0  0  0  0  0  0  0  0  0  0  0  0
    1.9519   -4.6310   -0.9504 H   0  0  0  0  0  0  0  0  0  0  0  0
   -0.5932   -1.1935   -0.3084 H   0  0  0  0  0  0  0  0  0  0  0  0
   -0.4413   -1.8924   -1.9116 H   0  0  0  0  0  0  0  0  0  0  0  0
   -1.3049   -2.7970   -0.6397 H   0  0  0  0  0  0  0  0  0  0  0  0
   -0.6096   -1.4966    1.7122 H   0  0  0  0  0  0  0  0  0  0  0  0
    1.0204   -5.4471    2.5901 H   0  0  0  0  0  0  0  0  0  0  0  0
    0.9606   -3.9207    3.5074 H   0  0  0  0  0  0  0  0  0  0  0  0
    0.5388   -5.3927    4.2844 H   0  0  0  0  0  0  0  0  0  0  0  0
   -1.0347   -5.4051    0.9023 H   0  0  0  0  0  0  0  0  0  0  0  0
   -3.2498   -8.7261    3.2179 H   0  0  0  0  0  0  0  0  0  0  0  0
   -4.0467   -7.7227    4.4304 H   0  0  0  0  0  0  0  0  0  0  0  0
   -5.3492   -9.7271    2.4009 H   0  0  0  0  0  0  0  0  0  0  0  0
   -7.4128   -9.4782    1.0678 H   0  0  0  0  0  0  0  0  0  0  0  0
   -8.2338   -7.2177    0.4507 H   0  0  0  0  0  0  0  0  0  0  0  0
   -7.0274   -5.2002    1.2483 H   0  0  0  0  0  0  0  0  0  0  0  0
   -4.8932   -5.4334    2.4470 H   0  0  0  0  0  0  0  0  0  0  0  0
  1  2  1  0  0  0  0
  1  4  1  0  0  0  0
  1 11  1  0  0  0  0
  1 34  1  1  0  0  0
  2  3  1  0  0  0  0
  2 37  1  0  0  0  0
  2 38  1  0  0  0  0
  3 39  1  0  0  0  0
  4  5  1  0  0  0  0
  4 40  1  0  0  0  0
  4 41  1  0  0  0  0
  5  6  1  0  0  0  0
  5 10  2  0  0  0  0
  6  7  2  0  0  0  0
  6 42  1  0  0  0  0
  7  8  1  0  0  0  0
  7 43  1  0  0  0  0
  8  9  2  0  0  0  0
  8 44  1  0  0  0  0
  9 10  1  0  0  0  0
  9 45  1  0  0  0  0
 10 46  1  0  0  0  0
 11 13  1  0  0  0  0
 11 47  1  0  0  0  0
 12 18  1  0  0  0  0
 12 35  1  1  0  0  0
 12 15  1  0  0  0  0
 12 13  1  0  0  0  0
 13 14  2  0  0  0  0
 15 16  1  0  0  0  0
 15 17  1  0  0  0  0
 15 48  1  0  0  0  0
 16 49  1  0  0  0  0
 16 50  1  0  0  0  0
 16 51  1  0  0  0  0
 17 52  1  0  0  0  0
 17 53  1  0  0  0  0
 17 54  1  0  0  0  0
 18 19  1  0  0  0  0
 18 55  1  0  0  0  0
 19 20  2  0  0  0  0
 21 23  1  0  0  0  0
 21 36  1  1  0  0  0
 21 22  1  0  0  0  0
 21 19  1  0  0  0  0
 22 56  1  0  0  0  0
 22 57  1  0  0  0  0
 22 58  1  0  0  0  0
 23 24  1  0  0  0  0
 23 59  1  0  0  0  0
 24 25  2  0  0  0  0
 24 26  1  0  0  0  0
 26 27  1  0  0  0  0
 27 28  1  0  0  0  0
 27 60  1  0  0  0  0
 27 61  1  0  0  0  0
 28 29  2  0  0  0  0
 28 33  1  0  0  0  0
 29 30  1  0  0  0  0
 29 62  1  0  0  0  0
 30 31  2  0  0  0  0
 30 63  1  0  0  0  0
 31 32  1  0  0  0  0
 31 64  1  0  0  0  0
 32 33  2  0  0  0  0
 32 65  1  0  0  0  0
 33 66  1  0  0  0  0
M  END
>  <DRUGBANK_ID>
DB01891

>  <SECONDARY_ACCESSION_NUMBERS>
EXPT01893

>  <COMMON_NAME>
Tl-3-093

$$$$
