
 OpenBabel10282417203D

 15 13  0  0  1  0  0  0  0  0999 V2000
    0.7125   -0.1904    0.2196 C   0  0  0  0  0  0  0  0  0  0  0  0
    0.2631   -1.3763    1.0014 C   0  0  1  0  0  0  0  0  0  0  0  0
    0.8689   -1.1780    2.4253 C   0  0  0  0  0  0  0  0  0  0  0  0
    0.0320   -1.0847    3.3551 O   0  0  0  0  0  0  0  0  0  0  0  0
    2.1426   -1.1289    2.4166 O   0  5  0  0  0  0  0  0  0  0  0  0
   -1.2150   -1.3830    0.9260 N   0  0  0  0  0  0  0  0  0  0  0  0
    0.3177    1.2323    0.6393 C   0  0  0  0  0  0  0  0  0  0  0  0
    0.0881    1.8809   -0.4737 O   0  0  0  0  0  0  0  0  0  0  0  0
    0.9467    1.7984    1.5505 O   0  5  0  0  0  0  0  0  0  0  0  0
    1.7660    1.7969   -1.2001 Fe  0  2  0  0  0  0  0  0  0  0  0  0
    0.3798   -0.3373   -0.8160 H   0  0  0  0  0  0  0  0  0  0  0  0
    1.8116   -0.1892    0.1709 H   0  0  0  0  0  0  0  0  0  0  0  0
    0.6683   -2.2936    0.5547 H   0  0  0  0  0  0  0  0  0  0  0  0
   -1.5175   -2.1007    1.5916 H   0  0  0  0  0  0  0  0  0  0  0  0
   -1.5231   -0.5375    1.4193 H   0  0  0  0  0  0  0  0  0  0  0  0
  1  2  1  0  0  0  0
  1  7  1  0  0  0  0
  1 11  1  0  0  0  0
  1 12  1  0  0  0  0
  2  3  1  0  0  0  0
  2  6  1  0  0  0  0
  2 13  1  6  0  0  0
  3  4  2  0  0  0  0
  3  5  1  0  0  0  0
  6 14  1  0  0  0  0
  6 15  1  0  0  0  0
  7  8  2  0  0  0  0
  7  9  1  0  0  0  0
M  CHG  3   5  -1   9  -1  10   2
M  END
>  <DRUGBANK_ID>
DB13220

>  <COMMON_NAME>
Ferrous aspartate

>  <CAS_NUMBER>
75802-64-1

>  <UNII>
Z56D82TX8V

$$$$
