
 OpenBabel10282417203D

 57 58  0  0  0  0  0  0  0  0999 V2000
    1.1743    0.1335    0.1279 C   0  0  0  0  0  0  0  0  0  0  0  0
    1.3920   -0.8272   -2.1941 C   0  0  0  0  0  0  0  0  0  0  0  0
   -3.3841   -2.3131   -2.9917 C   0  0  0  0  0  0  0  0  0  0  0  0
   -1.4316   -1.1032   -3.8262 C   0  0  0  0  0  0  0  0  0  0  0  0
   -4.2485    0.5261    0.3337 C   0  0  0  0  0  0  0  0  0  0  0  0
   -1.0206    1.8404   -5.1891 C   0  0  0  0  0  0  0  0  0  0  0  0
    1.2616    2.3460   -5.6020 C   0  0  0  0  0  0  0  0  0  0  0  0
    0.6169   -3.5115   -0.4846 C   0  0  0  0  0  0  0  0  0  0  0  0
   -0.7730   -3.2560    1.4481 C   0  0  0  0  0  0  0  0  0  0  0  0
   -0.6675    1.7132   -3.8409 C   0  0  0  0  0  0  0  0  0  0  0  0
    1.6075    2.0821   -4.2518 C   0  0  0  0  0  0  0  0  0  0  0  0
   -0.3364   -2.9061   -1.2644 C   0  0  0  0  0  0  0  0  0  0  0  0
   -1.5728   -2.4087    0.6976 C   0  0  0  0  0  0  0  0  0  0  0  0
   -3.5240   -0.5856   -0.2172 C   0  0  0  0  0  0  0  0  0  0  0  0
   -3.7552    1.6229   -0.5698 C   0  0  0  0  0  0  0  0  0  0  0  0
   -0.0421    2.1866   -6.0759 C   0  0  0  0  0  0  0  0  0  0  0  0
    0.3373   -3.7986    0.8328 C   0  0  0  0  0  0  0  0  0  0  0  0
    0.6399    1.7196   -3.3327 C   0  0  0  0  0  0  0  0  0  0  0  0
   -1.4186   -2.3214   -0.7281 C   0  0  0  0  0  0  0  0  0  0  0  0
   -0.9820    0.6907   -0.9056 C   0  0  0  0  0  0  0  0  0  0  0  0
   -3.4838    0.3414   -3.0280 C   0  0  0  0  0  0  0  0  0  0  0  0
    0.5715    0.1995   -1.2884 C   0  0  0  0  0  0  0  0  0  0  0  0
   -2.5455   -1.0798   -2.7999 C   0  0  0  0  0  0  0  0  0  0  0  0
   -0.4692    2.4621   -7.7145 Cl  0  0  0  0  0  0  0  0  0  0  0  0
    1.3457   -4.9278    1.6126 Cl  0  0  0  0  0  0  0  0  0  0  0  0
   -1.2678    1.7896   -1.2662 O   0  0  0  0  0  0  0  0  0  0  0  0
   -3.9449    0.5415   -4.1613 O   0  0  0  0  0  0  0  0  0  0  0  0
   -1.8864   -0.0161   -0.0120 O   0  0  0  0  0  0  0  0  0  0  0  0
   -3.7809    1.3024   -2.0662 O   0  0  0  0  0  0  0  0  0  0  0  0
    1.0476    1.4683   -2.0165 O   0  0  0  0  0  0  0  0  0  0  0  0
   -1.8993   -1.3383   -1.5567 O   0  0  0  0  0  0  0  0  0  0  0  0
    0.8475   -0.7637    0.6698 H   0  0  0  0  0  0  0  0  0  0  0  0
    0.8246    0.9847    0.7210 H   0  0  0  0  0  0  0  0  0  0  0  0
    2.2642    0.1485    0.1262 H   0  0  0  0  0  0  0  0  0  0  0  0
    1.4789   -1.8777   -1.9743 H   0  0  0  0  0  0  0  0  0  0  0  0
    1.1451   -0.8123   -3.2605 H   0  0  0  0  0  0  0  0  0  0  0  0
    2.4697   -0.6067   -2.1614 H   0  0  0  0  0  0  0  0  0  0  0  0
   -3.6278   -2.4542   -4.0365 H   0  0  0  0  0  0  0  0  0  0  0  0
   -2.7987   -3.1624   -2.6263 H   0  0  0  0  0  0  0  0  0  0  0  0
   -4.2941   -2.3017   -2.3908 H   0  0  0  0  0  0  0  0  0  0  0  0
   -0.6841   -0.4324   -3.4592 H   0  0  0  0  0  0  0  0  0  0  0  0
   -0.9113   -2.0530   -3.8511 H   0  0  0  0  0  0  0  0  0  0  0  0
   -1.6723   -0.8403   -4.8528 H   0  0  0  0  0  0  0  0  0  0  0  0
   -5.3228    0.3806    0.2797 H   0  0  0  0  0  0  0  0  0  0  0  0
   -3.8540    0.5549    1.3481 H   0  0  0  0  0  0  0  0  0  0  0  0
   -2.0513    1.6587   -5.4984 H   0  0  0  0  0  0  0  0  0  0  0  0
    2.0246    2.6935   -6.2866 H   0  0  0  0  0  0  0  0  0  0  0  0
    1.5673   -3.7410   -0.9476 H   0  0  0  0  0  0  0  0  0  0  0  0
   -1.0277   -3.4658    2.4818 H   0  0  0  0  0  0  0  0  0  0  0  0
   -1.5227    1.5265   -3.2322 H   0  0  0  0  0  0  0  0  0  0  0  0
    2.6361    2.1762   -3.9241 H   0  0  0  0  0  0  0  0  0  0  0  0
   -0.1440   -2.6413   -2.2800 H   0  0  0  0  0  0  0  0  0  0  0  0
   -2.2465   -1.8037    1.3216 H   0  0  0  0  0  0  0  0  0  0  0  0
   -3.9388   -0.6885   -1.2199 H   0  0  0  0  0  0  0  0  0  0  0  0
   -3.7266   -1.6129    0.1575 H   0  0  0  0  0  0  0  0  0  0  0  0
   -4.2481    2.5659   -0.3767 H   0  0  0  0  0  0  0  0  0  0  0  0
   -2.7878    1.9200   -0.1953 H   0  0  0  0  0  0  0  0  0  0  0  0
  1 32  1  0  0  0  0
  1 33  1  0  0  0  0
  1 34  1  0  0  0  0
  2 35  1  0  0  0  0
  2 36  1  0  0  0  0
  2 37  1  0  0  0  0
  3 38  1  0  0  0  0
  3 39  1  0  0  0  0
  3 40  1  0  0  0  0
  4 41  1  0  0  0  0
  4 42  1  0  0  0  0
  4 43  1  0  0  0  0
  5 44  1  0  0  0  0
  5 45  1  0  0  0  0
  6 46  1  0  0  0  0
  7 47  1  0  0  0  0
  8 48  1  0  0  0  0
  9 49  1  0  0  0  0
 10  6  1  0  0  0  0
 10 50  1  0  0  0  0
 11  7  2  0  0  0  0
 11 51  1  0  0  0  0
 12  8  1  0  0  0  0
 12 52  1  0  0  0  0
 13  9  2  0  0  0  0
 13 53  1  0  0  0  0
 14  5  1  0  0  0  0
 14 54  1  0  0  0  0
 14 55  1  0  0  0  0
 15  5  1  0  0  0  0
 15 56  1  0  0  0  0
 15 57  1  0  0  0  0
 16  6  2  0  0  0  0
 16  7  1  0  0  0  0
 17  8  2  0  0  0  0
 17  9  1  0  0  0  0
 18 10  2  0  0  0  0
 18 11  1  0  0  0  0
 19 12  2  0  0  0  0
 19 13  1  0  0  0  0
 22  1  1  0  0  0  0
 22  2  1  0  0  0  0
 22 20  1  0  0  0  0
 23  3  1  0  0  0  0
 23  4  1  0  0  0  0
 23 21  1  0  0  0  0
 24 16  1  0  0  0  0
 25 17  1  0  0  0  0
 26 20  2  0  0  0  0
 27 21  2  0  0  0  0
 28 14  1  0  0  0  0
 28 20  1  0  0  0  0
 29 15  1  0  0  0  0
 29 21  1  0  0  0  0
 30 18  1  0  0  0  0
 30 22  1  0  0  0  0
 31 19  1  0  0  0  0
 31 23  1  0  0  0  0
M  END
>  <DRUGBANK_ID>
DB13433

>  <COMMON_NAME>
Simfibrate

>  <CAS_NUMBER>
14929-11-4

>  <UNII>
L2R75RQX26

>  <SYNONYMS>
Simfibrate

$$$$
