566
 OpenBabel10282417163D

 43 45  0  0  0  0  0  0  0  0999 V2000
   -1.4086    0.3315   -0.2208 C   0  0  0  0  0  0  0  0  0  0  0  0
   -0.9749   -1.0511    0.2600 C   0  0  0  0  0  0  0  0  0  0  0  0
    0.4606   -1.4076   -0.1840 C   0  0  0  0  0  0  0  0  0  0  0  0
    1.4363   -0.3011    0.2354 C   0  0  0  0  0  0  0  0  0  0  0  0
    0.9933    1.0781   -0.2390 C   0  0  0  0  0  0  0  0  0  0  0  0
   -0.4226    1.4032    0.2217 C   0  0  0  0  0  0  0  0  0  0  0  0
    0.1329   -3.8818    0.0240 C   0  0  0  0  0  0  0  0  0  0  0  0
    0.6078   -4.9710    0.9447 C   0  0  0  0  0  0  0  0  0  0  0  0
    2.0217   -4.5224    1.3223 C   0  0  1  0  0  0  0  0  0  0  0  0
    1.8845   -2.9949    1.3093 C   0  0  0  0  0  0  0  0  0  0  0  0
    0.8609   -2.7369    0.3072 N   0  0  0  0  0  0  0  0  0  0  0  0
    3.2820   -6.9253    4.8997 C   0  0  0  0  0  0  0  0  0  0  0  0
    3.8034   -7.3422    6.1287 C   0  0  0  0  0  0  0  0  0  0  0  0
    5.1660   -7.2259    6.3839 C   0  0  0  0  0  0  0  0  0  0  0  0
    6.0125   -6.7500    5.3836 C   0  0  0  0  0  0  0  0  0  0  0  0
    5.4973   -6.3956    4.1252 C   0  0  0  0  0  0  0  0  0  0  0  0
    4.1139   -6.4046    3.9040 C   0  0  0  0  0  0  0  0  0  0  0  0
    2.4318   -5.0627    2.6889 C   0  0  0  0  0  0  0  0  0  0  0  0
    3.5755   -5.8682    2.6996 N   0  0  0  0  0  0  0  0  0  0  0  0
    1.7830   -4.7645    3.6901 O   0  0  0  0  0  0  0  0  0  0  0  0
   -0.7788   -3.9910   -0.7853 O   0  0  0  0  0  0  0  0  0  0  0  0
    2.7244   -4.8348    0.5412 H   0  0  0  0  0  0  0  0  0  0  0  0
   -1.4920    0.3338   -1.3150 H   0  0  0  0  0  0  0  0  0  0  0  0
   -2.4056    0.5608    0.1734 H   0  0  0  0  0  0  0  0  0  0  0  0
   -1.0400   -1.0947    1.3542 H   0  0  0  0  0  0  0  0  0  0  0  0
   -1.6961   -1.7822   -0.1214 H   0  0  0  0  0  0  0  0  0  0  0  0
    0.4570   -1.4789   -1.2811 H   0  0  0  0  0  0  0  0  0  0  0  0
    1.5208   -0.2824    1.3294 H   0  0  0  0  0  0  0  0  0  0  0  0
    2.4364   -0.5143   -0.1589 H   0  0  0  0  0  0  0  0  0  0  0  0
    1.6864    1.8327    0.1488 H   0  0  0  0  0  0  0  0  0  0  0  0
    1.0449    1.1222   -1.3334 H   0  0  0  0  0  0  0  0  0  0  0  0
   -0.7276    2.3765   -0.1773 H   0  0  0  0  0  0  0  0  0  0  0  0
   -0.4427    1.4818    1.3157 H   0  0  0  0  0  0  0  0  0  0  0  0
   -0.0720   -5.0037    1.8049 H   0  0  0  0  0  0  0  0  0  0  0  0
    0.6024   -5.9336    0.4315 H   0  0  0  0  0  0  0  0  0  0  0  0
    1.5677   -2.5645    2.2651 H   0  0  0  0  0  0  0  0  0  0  0  0
    2.8258   -2.5300    0.9981 H   0  0  0  0  0  0  0  0  0  0  0  0
    2.2154   -7.0324    4.7222 H   0  0  0  0  0  0  0  0  0  0  0  0
    3.1368   -7.7378    6.8907 H   0  0  0  0  0  0  0  0  0  0  0  0
    5.5642   -7.5132    7.3548 H   0  0  0  0  0  0  0  0  0  0  0  0
    7.0740   -6.6367    5.5960 H   0  0  0  0  0  0  0  0  0  0  0  0
    6.1926   -6.0540    3.3645 H   0  0  0  0  0  0  0  0  0  0  0  0
    4.2004   -5.8271    1.9042 H   0  0  0  0  0  0  0  0  0  0  0  0
  1  2  1  0  0  0  0
  1  6  1  0  0  0  0
  1 23  1  0  0  0  0
  1 24  1  0  0  0  0
  2  3  1  0  0  0  0
  2 25  1  0  0  0  0
  2 26  1  0  0  0  0
  3  4  1  0  0  0  0
  3 11  1  0  0  0  0
  3 27  1  0  0  0  0
  4  5  1  0  0  0  0
  4 28  1  0  0  0  0
  4 29  1  0  0  0  0
  5  6  1  0  0  0  0
  5 30  1  0  0  0  0
  5 31  1  0  0  0  0
  6 32  1  0  0  0  0
  6 33  1  0  0  0  0
  7  8  1  0  0  0  0
  7 11  1  0  0  0  0
  7 21  2  0  0  0  0
  8  9  1  0  0  0  0
  8 34  1  0  0  0  0
  8 35  1  0  0  0  0
  9 10  1  0  0  0  0
  9 18  1  0  0  0  0
  9 22  1  6  0  0  0
 10 11  1  0  0  0  0
 10 36  1  0  0  0  0
 10 37  1  0  0  0  0
 12 13  2  0  0  0  0
 12 17  1  0  0  0  0
 12 38  1  0  0  0  0
 13 14  1  0  0  0  0
 13 39  1  0  0  0  0
 14 15  2  0  0  0  0
 14 40  1  0  0  0  0
 15 16  1  0  0  0  0
 15 41  1  0  0  0  0
 16 17  2  0  0  0  0
 16 42  1  0  0  0  0
 17 19  1  0  0  0  0
 18 19  1  0  0  0  0
 18 20  2  0  0  0  0
 19 43  1  0  0  0  0
M  END
>  <DRUGBANK_ID>
DB07155

>  <COMMON_NAME>
(3S)-1-CYCLOHEXYL-5-OXO-N-PHENYLPYRROLIDINE-3-CARBOXAMIDE

$$$$
