
 OpenBabel10282417123D

101103  0  0  1  0  0  0  0  0999 V2000
    7.5996    9.0450    9.8156 S   0  0  0  0  0  0  0  0  0  0  0  0
    6.4672    7.8672    8.9683 C   0  0  0  0  0  0  0  0  0  0  0  0
    4.9761    8.2667    8.9609 C   0  0  0  0  0  0  0  0  0  0  0  0
    4.6471    9.4393    8.1653 N   0  0  0  0  0  0  0  0  0  0  0  0
    4.0078    9.3778    6.9582 C   0  0  0  0  0  0  0  0  0  0  0  0
    4.0423   10.6592    6.1339 C   0  0  0  0  0  0  0  0  0  0  0  0
    4.5542   10.3533    4.7284 C   0  0  0  0  0  0  0  0  0  0  0  0
    3.7776    9.3026    4.0799 N   0  0  0  0  0  0  0  0  0  0  0  0
    2.9268    9.5701    3.0613 C   0  0  0  0  0  0  0  0  0  0  0  0
    1.9366    8.4259    2.6176 C   0  0  1  0  0  0  0  0  0  0  0  0
    0.5198    9.0380    2.3033 C   0  0  0  0  0  0  0  0  0  0  0  0
    0.4443   10.2902    1.3688 C   0  0  0  0  0  0  0  0  0  0  0  0
    0.9322   10.0535    0.0385 O   0  0  0  0  0  0  0  0  0  0  0  0
    3.4385    8.3655    6.5545 O   0  0  0  0  0  0  0  0  0  0  0  0
    2.9598   10.6747    2.5076 O   0  0  0  0  0  0  0  0  0  0  0  0
    2.4094    7.5703    1.5857 O   0  0  0  0  0  0  0  0  0  0  0  0
   -0.4020    7.9801    1.6664 C   0  0  0  0  0  0  0  0  0  0  0  0
   -0.0144    9.4310    3.6883 C   0  0  0  0  0  0  0  0  0  0  0  0
    2.5661    9.4872    0.0883 P   0  0  3  0  0  0  0  0  0  0  0  0
    2.2049    8.7139   -1.1739 O   0  0  0  0  0  0  0  0  0  0  0  0
    2.9256   11.0838   -0.0287 O   0  0  0  0  0  0  0  0  0  0  0  0
    8.1719   11.1078   -3.1754 C   0  0  2  0  0  0  0  0  0  0  0  0
    7.0270   10.0789   -3.0981 C   0  0  1  0  0  0  0  0  0  0  0  0
    7.5319    9.1804   -1.8182 C   0  0  2  0  0  0  0  0  0  0  0  0
    8.9067    9.2018   -1.7103 O   0  0  0  0  0  0  0  0  0  0  0  0
    9.3185   10.3590   -2.4575 C   0  0  1  0  0  0  0  0  0  0  0  0
    6.6779    7.9652   -1.6472 C   0  0  0  0  0  0  0  0  0  0  0  0
    8.2390   12.4433   -2.7164 O   0  0  0  0  0  0  0  0  0  0  0  0
    5.4932   10.6913   -2.8899 O   0  0  0  0  0  0  0  0  0  0  0  0
    5.2457   11.7404   -1.5367 P   0  0  0  0  0  0  0  0  0  0  0  0
    6.9457   12.5095   -1.0222 O   0  0  0  0  0  0  0  0  0  0  0  0
    4.8153   12.9114   -2.6277 O   0  0  0  0  0  0  0  0  0  0  0  0
    5.0243   12.6793   -0.3256 O   0  0  0  0  0  0  0  0  0  0  0  0
   11.3248    9.5540   -5.2017 C   0  0  0  0  0  0  0  0  0  0  0  0
   10.7017   10.5153   -4.4527 C   0  0  0  0  0  0  0  0  0  0  0  0
   10.1679    9.8038   -3.4446 N   0  0  0  0  0  0  0  0  0  0  0  0
   10.3956    8.4734   -3.6341 C   0  0  0  0  0  0  0  0  0  0  0  0
   11.1331    8.2812   -4.6954 N   0  0  0  0  0  0  0  0  0  0  0  0
   12.0249   10.0275   -6.2981 C   0  0  0  0  0  0  0  0  0  0  0  0
   11.9966   11.3514   -6.5841 N   0  0  0  0  0  0  0  0  0  0  0  0
   11.2881   12.1714   -5.7772 C   0  0  0  0  0  0  0  0  0  0  0  0
   10.6210   11.8336   -4.6691 N   0  0  0  0  0  0  0  0  0  0  0  0
   12.7411    9.1568   -7.0735 N   0  0  0  0  0  0  0  0  0  0  0  0
    5.4182    8.5648   -1.6388 O   0  0  0  0  0  0  0  0  0  0  0  0
    5.2102    9.9940   -0.7678 P   0  0  3  0  0  0  0  0  0  0  0  0
    3.7845   10.2399   -1.7838 O   0  0  0  0  0  0  0  0  0  0  0  0
    6.1143   10.9544   -1.5786 O   0  0  0  0  0  0  0  0  0  0  0  0
    4.2000    8.9208    0.1381 O   0  0  0  0  0  0  0  0  0  0  0  0
    7.5474   10.4305    8.7621 C   0  0  0  0  0  0  0  0  0  0  0  0
    8.3250   11.6503    9.1366 C   0  0  0  0  0  0  0  0  0  0  0  0
    9.2341   12.0452    7.9670 C   0  0  0  0  0  0  0  0  0  0  0  0
    8.4812   12.4468    6.6813 C   0  0  0  0  0  0  0  0  0  0  0  0
    7.5019   13.6023    6.8961 C   0  0  0  0  0  0  0  0  0  0  0  0
    8.2469   14.8591    7.3112 C   0  0  0  0  0  0  0  0  0  0  0  0
    6.8282   10.4227    7.7404 O   0  0  0  0  0  0  0  0  0  0  0  0
    6.8354    7.6398    7.9605 H   0  0  0  0  0  0  0  0  0  0  0  0
    6.5500    6.9360    9.5432 H   0  0  0  0  0  0  0  0  0  0  0  0
    4.3955    7.4169    8.5870 H   0  0  0  0  0  0  0  0  0  0  0  0
    4.6468    8.4779    9.9812 H   0  0  0  0  0  0  0  0  0  0  0  0
    5.2708   10.2325    8.2683 H   0  0  0  0  0  0  0  0  0  0  0  0
    3.0228   11.0609    6.0994 H   0  0  0  0  0  0  0  0  0  0  0  0
    4.6742   11.4330    6.5867 H   0  0  0  0  0  0  0  0  0  0  0  0
    4.5260   11.2769    4.1349 H   0  0  0  0  0  0  0  0  0  0  0  0
    5.5914   10.0088    4.7489 H   0  0  0  0  0  0  0  0  0  0  0  0
    3.6316    8.4473    4.6179 H   0  0  0  0  0  0  0  0  0  0  0  0
    1.8676    7.7385    3.4618 H   0  0  0  0  0  0  0  0  0  0  0  0
   -0.5945   10.6255    1.2665 H   0  0  0  0  0  0  0  0  0  0  0  0
    0.9537   11.1652    1.7834 H   0  0  0  0  0  0  0  0  0  0  0  0
    1.7503    7.4155    0.8767 H   0  0  0  0  0  0  0  0  0  0  0  0
   -0.3639    7.0437    2.2278 H   0  0  0  0  0  0  0  0  0  0  0  0
   -1.4369    8.3341    1.6369 H   0  0  0  0  0  0  0  0  0  0  0  0
   -0.1315    7.7609    0.6258 H   0  0  0  0  0  0  0  0  0  0  0  0
    0.0178    8.5621    4.3563 H   0  0  0  0  0  0  0  0  0  0  0  0
    0.6062   10.2135    4.1419 H   0  0  0  0  0  0  0  0  0  0  0  0
   -1.0410    9.7931    3.6407 H   0  0  0  0  0  0  0  0  0  0  0  0
    2.1525   11.6663    0.1494 H   0  0  0  0  0  0  0  0  0  0  0  0
    8.2634   11.3232   -4.2337 H   0  0  0  0  0  0  0  0  0  0  0  0
    6.9636    9.4491   -3.9898 H   0  0  0  0  0  0  0  0  0  0  0  0
    7.3939    9.6337   -0.8289 H   0  0  0  0  0  0  0  0  0  0  0  0
    9.9033   11.0053   -1.7879 H   0  0  0  0  0  0  0  0  0  0  0  0
    6.7678    7.4296   -0.6990 H   0  0  0  0  0  0  0  0  0  0  0  0
    6.7421    7.2497   -2.4708 H   0  0  0  0  0  0  0  0  0  0  0  0
    8.0342   12.4703   -1.7563 H   0  0  0  0  0  0  0  0  0  0  0  0
    7.0628   11.9180   -0.2451 H   0  0  0  0  0  0  0  0  0  0  0  0
    4.7004   12.4670   -3.4850 H   0  0  0  0  0  0  0  0  0  0  0  0
    9.9956    7.7099   -2.9727 H   0  0  0  0  0  0  0  0  0  0  0  0
   11.2625   13.2241   -6.0423 H   0  0  0  0  0  0  0  0  0  0  0  0
   12.7534    8.1854   -6.7888 H   0  0  0  0  0  0  0  0  0  0  0  0
   13.2857    9.5276   -7.8277 H   0  0  0  0  0  0  0  0  0  0  0  0
    3.1822   10.9525   -1.4287 H   0  0  0  0  0  0  0  0  0  0  0  0
    7.6157   12.4502    9.3857 H   0  0  0  0  0  0  0  0  0  0  0  0
    8.9159   11.4791   10.0410 H   0  0  0  0  0  0  0  0  0  0  0  0
    9.8777   12.8724    8.2836 H   0  0  0  0  0  0  0  0  0  0  0  0
    9.9064   11.2110    7.7366 H   0  0  0  0  0  0  0  0  0  0  0  0
    9.2077   12.7157    5.9065 H   0  0  0  0  0  0  0  0  0  0  0  0
    7.9440   11.5945    6.2537 H   0  0  0  0  0  0  0  0  0  0  0  0
    6.9462   13.7889    5.9703 H   0  0  0  0  0  0  0  0  0  0  0  0
    6.7467   13.3503    7.6493 H   0  0  0  0  0  0  0  0  0  0  0  0
    8.9736   15.1340    6.5405 H   0  0  0  0  0  0  0  0  0  0  0  0
    7.5551   15.6900    7.4600 H   0  0  0  0  0  0  0  0  0  0  0  0
    8.7882   14.7154    8.2512 H   0  0  0  0  0  0  0  0  0  0  0  0
  1  2  1  0  0  0  0
  1 49  1  0  0  0  0
  2  3  1  0  0  0  0
  2 56  1  0  0  0  0
  2 57  1  0  0  0  0
  3  4  1  0  0  0  0
  3 58  1  0  0  0  0
  3 59  1  0  0  0  0
  4  5  1  0  0  0  0
  4 60  1  0  0  0  0
  5  6  1  0  0  0  0
  5 14  2  0  0  0  0
  6  7  1  0  0  0  0
  6 61  1  0  0  0  0
  6 62  1  0  0  0  0
  7  8  1  0  0  0  0
  7 63  1  0  0  0  0
  7 64  1  0  0  0  0
  8  9  1  0  0  0  0
  8 65  1  0  0  0  0
  9 10  1  0  0  0  0
  9 15  2  0  0  0  0
 10 11  1  0  0  0  0
 10 16  1  0  0  0  0
 10 66  1  1  0  0  0
 11 12  1  0  0  0  0
 11 17  1  0  0  0  0
 11 18  1  0  0  0  0
 12 13  1  0  0  0  0
 12 67  1  0  0  0  0
 12 68  1  0  0  0  0
 13 19  1  0  0  0  0
 16 69  1  0  0  0  0
 17 70  1  0  0  0  0
 17 71  1  0  0  0  0
 17 72  1  0  0  0  0
 18 73  1  0  0  0  0
 18 74  1  0  0  0  0
 18 75  1  0  0  0  0
 19 20  2  0  0  0  0
 19 21  1  0  0  0  0
 19 48  1  0  0  0  0
 21 76  1  0  0  0  0
 22 23  1  0  0  0  0
 22 26  1  0  0  0  0
 22 28  1  0  0  0  0
 22 77  1  6  0  0  0
 23 24  1  0  0  0  0
 23 29  1  0  0  0  0
 23 78  1  6  0  0  0
 24 25  1  0  0  0  0
 24 79  1  1  0  0  0
 24 27  1  0  0  0  0
 25 26  1  0  0  0  0
 26 36  1  0  0  0  0
 26 80  1  1  0  0  0
 27 44  1  0  0  0  0
 27 81  1  0  0  0  0
 27 82  1  0  0  0  0
 28 83  1  0  0  0  0
 29 30  1  0  0  0  0
 30 31  1  0  0  0  0
 30 32  1  0  0  0  0
 30 33  2  0  0  0  0
 31 84  1  0  0  0  0
 32 85  1  0  0  0  0
 34 35  2  0  0  0  0
 34 38  1  0  0  0  0
 34 39  1  0  0  0  0
 35 36  1  0  0  0  0
 35 42  1  0  0  0  0
 36 37  1  0  0  0  0
 37 38  2  0  0  0  0
 37 86  1  0  0  0  0
 39 40  2  0  0  0  0
 39 43  1  0  0  0  0
 40 41  1  0  0  0  0
 41 42  2  0  0  0  0
 41 87  1  0  0  0  0
 43 88  1  0  0  0  0
 43 89  1  0  0  0  0
 44 45  1  0  0  0  0
 45 46  1  0  0  0  0
 45 47  2  0  0  0  0
 45 48  1  0  0  0  0
 46 90  1  0  0  0  0
 49 50  1  0  0  0  0
 49 55  2  0  0  0  0
 50 51  1  0  0  0  0
 50 91  1  0  0  0  0
 50 92  1  0  0  0  0
 51 52  1  0  0  0  0
 51 93  1  0  0  0  0
 51 94  1  0  0  0  0
 52 53  1  0  0  0  0
 52 95  1  0  0  0  0
 52 96  1  0  0  0  0
 53 54  1  0  0  0  0
 53 97  1  0  0  0  0
 53 98  1  0  0  0  0
 54 99  1  0  0  0  0
 54100  1  0  0  0  0
 54101  1  0  0  0  0
M  END
>  <DRUGBANK_ID>
DB02563

>  <SECONDARY_ACCESSION_NUMBERS>
EXPT01799

>  <COMMON_NAME>
Hexanoyl-CoA

>  <CAS_NUMBER>
5060-32-2

>  <SYNONYMS>
caproyl-CoA; caproyl-coenzyme A; Hexanoyl-Coenzyme A; n-hexanoyl-CoA; n-hexanoyl-coenzyme A; S-hexanoyl-CoA; S-Hexanoyl-coenzym-A; S-hexanoyl-coenzyme-A

$$$$
