
 OpenBabel10282417133D

 20 20  0  0  1  0  0  0  0  0999 V2000
    0.8379   -0.0062   -0.0118 C   0  0  0  0  0  0  0  0  0  0  0  0
    0.3935    1.4058    0.2573 C   0  0  0  0  0  0  0  0  0  0  0  0
   -0.7977    1.6845    0.8202 C   0  0  0  0  0  0  0  0  0  0  0  0
   -1.2195    3.0482    1.0425 C   0  0  0  0  0  0  0  0  0  0  0  0
   -0.4576    4.0968    0.6879 C   0  0  0  0  0  0  0  0  0  0  0  0
    0.8387    3.9218    0.0588 C   0  0  0  0  0  0  0  0  0  0  0  0
    1.5802    4.9852   -0.3110 C   0  0  0  0  0  0  0  0  0  0  0  0
    1.3563    2.5016   -0.1507 C   0  0  1  0  0  0  0  0  0  0  0  0
    2.6024    2.3325    0.6083 N   0  0  0  0  0  0  0  0  0  0  0  0
    0.4977   -0.3276   -1.0005 H   0  0  0  0  0  0  0  0  0  0  0  0
    0.4683   -0.6991    0.7490 H   0  0  0  0  0  0  0  0  0  0  0  0
    1.9280   -0.1007   -0.0079 H   0  0  0  0  0  0  0  0  0  0  0  0
   -1.4814    0.8953    1.1212 H   0  0  0  0  0  0  0  0  0  0  0  0
   -2.1861    3.2094    1.5100 H   0  0  0  0  0  0  0  0  0  0  0  0
   -0.8116    5.1060    0.8742 H   0  0  0  0  0  0  0  0  0  0  0  0
    1.2671    6.0065   -0.1378 H   0  0  0  0  0  0  0  0  0  0  0  0
    2.5473    4.8407   -0.7831 H   0  0  0  0  0  0  0  0  0  0  0  0
    1.5503    2.3822   -1.2263 H   0  0  0  0  0  0  0  0  0  0  0  0
    3.2074    3.1277    0.4332 H   0  0  0  0  0  0  0  0  0  0  0  0
    3.0997    1.5218    0.2583 H   0  0  0  0  0  0  0  0  0  0  0  0
  1  2  1  0  0  0  0
  1 10  1  0  0  0  0
  1 11  1  0  0  0  0
  1 12  1  0  0  0  0
  2  3  2  0  0  0  0
  2  8  1  0  0  0  0
  3  4  1  0  0  0  0
  3 13  1  0  0  0  0
  4  5  2  0  0  0  0
  4 14  1  0  0  0  0
  5  6  1  0  0  0  0
  5 15  1  0  0  0  0
  6  7  2  0  0  0  0
  6  8  1  0  0  0  0
  7 16  1  0  0  0  0
  7 17  1  0  0  0  0
  8 18  1  6  0  0  0
  8  9  1  0  0  0  0
  9 19  1  0  0  0  0
  9 20  1  0  0  0  0
M  END
>  <DRUGBANK_ID>
DB03842

>  <SECONDARY_ACCESSION_NUMBERS>
EXPT00109

>  <COMMON_NAME>
2-Chloro-6-Methyl-Aniline

>  <UNII>
76F11RQ7TB

$$$$
