
 OpenBabel10282417213D

 48 50  0  0  0  0  0  0  0  0999 V2000
    5.4826   -7.1887    2.1581 C   0  0  0  0  0  0  0  0  0  0  0  0
    4.9246   -6.1227   -0.4015 C   0  0  0  0  0  0  0  0  0  0  0  0
    3.9001   -6.2299    0.5484 C   0  0  0  0  0  0  0  0  0  0  0  0
    3.7305   -2.3708    1.2033 C   0  0  0  0  0  0  0  0  0  0  0  0
    2.4705   -3.2844    1.2246 C   0  0  1  0  0  0  0  0  0  0  0  0
    2.4361   -4.2056   -0.0520 C   0  0  1  0  0  0  0  0  0  0  0  0
    2.5100   -5.7382    0.1998 C   0  0  0  0  0  0  0  0  0  0  0  0
    2.4715   -4.0521    2.5545 C   0  0  0  0  0  0  0  0  0  0  0  0
    1.2160   -3.8839   -0.9336 C   0  0  0  0  0  0  0  0  0  0  0  0
    4.1855   -6.7871    1.8182 C   0  0  0  0  0  0  0  0  0  0  0  0
    3.5189   -0.8807    1.0358 C   0  0  0  0  0  0  0  0  0  0  0  0
    2.9755   -0.3332   -0.1332 C   0  0  0  0  0  0  0  0  0  0  0  0
    2.9262    1.0543   -0.3060 C   0  0  0  0  0  0  0  0  0  0  0  0
    4.0134   -0.0100    2.0272 C   0  0  0  0  0  0  0  0  0  0  0  0
    3.9783    1.3764    1.8598 C   0  0  0  0  0  0  0  0  0  0  0  0
    3.4243    1.8926    0.6859 C   0  0  0  0  0  0  0  0  0  0  0  0
    6.4561   -7.0670    1.1969 C   0  0  0  0  0  0  0  0  0  0  0  0
    6.1874   -6.5516   -0.0477 C   0  0  0  0  0  0  0  0  0  0  0  0
    7.2826   -6.5146   -0.8485 O   0  0  0  0  0  0  0  0  0  0  0  0
    8.2865   -7.0245    0.0522 C   0  0  0  0  0  0  0  0  0  0  0  0
    7.7617   -7.4256    1.3345 O   0  0  0  0  0  0  0  0  0  0  0  0
    4.4656    2.3008    2.7499 O   0  0  0  0  0  0  0  0  0  0  0  0
    5.0680    1.7755    3.9306 C   0  0  0  0  0  0  0  0  0  0  0  0
    3.3676    3.2444    0.4751 O   0  0  0  0  0  0  0  0  0  0  0  0
    5.7115   -7.5736    3.1458 H   0  0  0  0  0  0  0  0  0  0  0  0
    4.7458   -5.7093   -1.3869 H   0  0  0  0  0  0  0  0  0  0  0  0
    4.2864   -2.5210    2.1377 H   0  0  0  0  0  0  0  0  0  0  0  0
    4.4370   -2.6778    0.4243 H   0  0  0  0  0  0  0  0  0  0  0  0
    1.5663   -2.6625    1.2487 H   0  0  0  0  0  0  0  0  0  0  0  0
    3.2913   -3.9372   -0.6847 H   0  0  0  0  0  0  0  0  0  0  0  0
    2.1996   -6.2823   -0.7027 H   0  0  0  0  0  0  0  0  0  0  0  0
    1.7865   -6.0465    0.9626 H   0  0  0  0  0  0  0  0  0  0  0  0
    2.3816   -3.3745    3.4077 H   0  0  0  0  0  0  0  0  0  0  0  0
    1.6491   -4.7693    2.6239 H   0  0  0  0  0  0  0  0  0  0  0  0
    3.4203   -4.5716    2.6917 H   0  0  0  0  0  0  0  0  0  0  0  0
    1.5170   -3.8783   -1.9890 H   0  0  0  0  0  0  0  0  0  0  0  0
    0.4223   -4.6283   -0.8221 H   0  0  0  0  0  0  0  0  0  0  0  0
    0.7931   -2.8971   -0.7249 H   0  0  0  0  0  0  0  0  0  0  0  0
    3.4030   -6.8721    2.5698 H   0  0  0  0  0  0  0  0  0  0  0  0
    2.6185   -0.9762   -0.9333 H   0  0  0  0  0  0  0  0  0  0  0  0
    2.5216    1.4830   -1.2184 H   0  0  0  0  0  0  0  0  0  0  0  0
    4.4542   -0.4491    2.9162 H   0  0  0  0  0  0  0  0  0  0  0  0
    8.7734   -7.8862   -0.4177 H   0  0  0  0  0  0  0  0  0  0  0  0
    9.0338   -6.2401    0.2161 H   0  0  0  0  0  0  0  0  0  0  0  0
    4.3428    1.2048    4.5209 H   0  0  0  0  0  0  0  0  0  0  0  0
    5.9469    1.1664    3.6901 H   0  0  0  0  0  0  0  0  0  0  0  0
    5.4057    2.6160    4.5438 H   0  0  0  0  0  0  0  0  0  0  0  0
    3.7517    3.6468    1.2776 H   0  0  0  0  0  0  0  0  0  0  0  0
  1 10  2  0  0  0  0
  1 25  1  0  0  0  0
  2 18  1  0  0  0  0
  2 26  1  0  0  0  0
  3  2  2  0  0  0  0
  3  7  1  0  0  0  0
  3 10  1  0  0  0  0
  4 11  1  0  0  0  0
  4 27  1  0  0  0  0
  4 28  1  0  0  0  0
  5  8  1  0  0  0  0
  5 29  1  6  0  0  0
  5  6  1  0  0  0  0
  5  4  1  0  0  0  0
  6 30  1  6  0  0  0
  6  9  1  0  0  0  0
  6  7  1  0  0  0  0
  7 31  1  0  0  0  0
  7 32  1  0  0  0  0
  8 33  1  0  0  0  0
  8 34  1  0  0  0  0
  8 35  1  0  0  0  0
  9 36  1  0  0  0  0
  9 37  1  0  0  0  0
  9 38  1  0  0  0  0
 10 39  1  0  0  0  0
 11 12  2  0  0  0  0
 12 13  1  0  0  0  0
 12 40  1  0  0  0  0
 13 16  2  0  0  0  0
 13 41  1  0  0  0  0
 14 11  1  0  0  0  0
 14 42  1  0  0  0  0
 15 14  2  0  0  0  0
 15 16  1  0  0  0  0
 15 22  1  0  0  0  0
 16 24  1  0  0  0  0
 17 18  2  0  0  0  0
 17  1  1  0  0  0  0
 18 19  1  0  0  0  0
 19 20  1  0  0  0  0
 20 21  1  0  0  0  0
 20 43  1  0  0  0  0
 20 44  1  0  0  0  0
 21 17  1  0  0  0  0
 22 23  1  0  0  0  0
 23 45  1  0  0  0  0
 23 46  1  0  0  0  0
 23 47  1  0  0  0  0
 24 48  1  0  0  0  0
M  END
>  <DRUGBANK_ID>
DB14129

>  <COMMON_NAME>
Macelignan

>  <CAS_NUMBER>
107534-93-0

>  <UNII>
8PP3614Z43

>  <SYNONYMS>
(8R,8'S)-7-(3,4-methylenedioxyphenyl)-7'-(4-hydroxy-3-methoxyphenyl)-8,8'-dimethylbutane; Anwulignan; Austrobailignan 6

$$$$
