
 OpenBabel10282417133D

 20 20  0  0  0  0  0  0  0  0999 V2000
    1.3848   -0.2345   -0.0260 C   0  0  0  0  0  0  0  0  0  0  0  0
    0.5105   -1.3204   -0.0159 C   0  0  0  0  0  0  0  0  0  0  0  0
    0.8815    1.0636   -0.0293 C   0  0  0  0  0  0  0  0  0  0  0  0
   -0.5008    1.2747    0.0634 C   0  0  0  0  0  0  0  0  0  0  0  0
   -1.3742    0.1848   -0.0246 C   0  0  0  0  0  0  0  0  0  0  0  0
   -0.8673   -1.1112   -0.0462 C   0  0  0  0  0  0  0  0  0  0  0  0
   -1.0361    2.6367    0.4145 C   0  0  0  0  0  0  0  0  0  0  0  0
    0.1958    4.1873    1.7866 O   0  0  0  0  0  0  0  0  0  0  0  0
   -0.4565    3.1497    1.7177 C   0  0  0  0  0  0  0  0  0  0  0  0
   -0.7293    2.3122    2.9888 C   0  0  0  0  0  0  0  0  0  0  0  0
   -1.4251    1.3134    3.0354 O   0  0  0  0  0  0  0  0  0  0  0  0
   -0.1402    2.8153    4.0815 O   0  0  0  0  0  0  0  0  0  0  0  0
    2.4586   -0.3991    0.0055 H   0  0  0  0  0  0  0  0  0  0  0  0
    0.9032   -2.3325    0.0151 H   0  0  0  0  0  0  0  0  0  0  0  0
    1.5724    1.9053   -0.0458 H   0  0  0  0  0  0  0  0  0  0  0  0
   -2.4515    0.3356   -0.0149 H   0  0  0  0  0  0  0  0  0  0  0  0
   -1.5497   -1.9567   -0.0406 H   0  0  0  0  0  0  0  0  0  0  0  0
   -0.7904    3.3402   -0.3891 H   0  0  0  0  0  0  0  0  0  0  0  0
   -2.1283    2.6281    0.5079 H   0  0  0  0  0  0  0  0  0  0  0  0
   -0.3791    2.2194    4.8201 H   0  0  0  0  0  0  0  0  0  0  0  0
  1  3  2  0  0  0  0
  1 13  1  0  0  0  0
  2  1  1  0  0  0  0
  2 14  1  0  0  0  0
  3 15  1  0  0  0  0
  4  3  1  0  0  0  0
  5  4  2  0  0  0  0
  5  6  1  0  0  0  0
  5 16  1  0  0  0  0
  6  2  2  0  0  0  0
  6 17  1  0  0  0  0
  7  4  1  0  0  0  0
  7  9  1  0  0  0  0
  7 18  1  0  0  0  0
  7 19  1  0  0  0  0
  9  8  2  0  0  0  0
  9 10  1  0  0  0  0
 11 10  2  0  0  0  0
 12 10  1  0  0  0  0
 12 20  1  0  0  0  0
M  END
>  <DRUGBANK_ID>
DB03884

>  <SECONDARY_ACCESSION_NUMBERS>
EXPT02649

>  <COMMON_NAME>
Phenylpyruvic acid

>  <CAS_NUMBER>
156-06-9

>  <UNII>
X7CO62M413

>  <SYNONYMS>
2-oxo-3-phenylpropanic acid; 3-phenyl-2-oxopropanoate; 3-phenyl-2-oxopropanoic acid; 3-phenylpyruvic acid; alpha-Ketohydrocinnamic acid; keto-Phenylpyruvate; keto-phenylpyruvic acid; Phenylbrenztraubensäure; Phenylpyruvate; Phenylpyruvic acid; α-oxo-benzenepropanoic acid; β-phenylpyruvic acid

$$$$
