
 OpenBabel10282417173D

 49 53  0  0  1  0  0  0  0  0999 V2000
    1.0719    0.5563   -0.6081 C   0  0  0  0  0  0  0  0  0  0  0  0
    0.3508    0.3748   -1.8678 C   0  0  0  0  0  0  0  0  0  0  0  0
    3.4360   -0.5951    2.3351 C   0  0  0  0  0  0  0  0  0  0  0  0
    2.1738   -0.1285    2.0582 C   0  0  0  0  0  0  0  0  0  0  0  0
    3.7045   -1.9177    2.0239 C   0  0  0  0  0  0  0  0  0  0  0  0
   -1.8321   -6.3776   -2.4347 C   0  0  0  0  0  0  0  0  0  0  0  0
    1.2140   -1.0156    1.5185 C   0  0  0  0  0  0  0  0  0  0  0  0
    2.8701   -2.6226    1.1349 C   0  0  0  0  0  0  0  0  0  0  0  0
   -0.6270   -6.0802   -3.0258 C   0  0  0  0  0  0  0  0  0  0  0  0
   -2.1580   -5.5479   -1.3460 C   0  0  0  0  0  0  0  0  0  0  0  0
    4.1138   -2.7467   -4.7019 C   0  0  0  0  0  0  0  0  0  0  0  0
    2.1174    0.6643   -6.5142 C   0  0  0  0  0  0  0  0  0  0  0  0
    1.6233   -2.1240    0.7488 C   0  0  0  0  0  0  0  0  0  0  0  0
    0.2965   -5.3610   -2.2429 C   0  0  0  0  0  0  0  0  0  0  0  0
    0.6637   -1.0738   -2.3396 C   0  0  1  0  0  0  0  0  0  0  0  0
   -1.2832   -4.4777   -0.9878 C   0  0  0  0  0  0  0  0  0  0  0  0
   -0.0443   -5.0043   -0.9406 C   0  0  0  0  0  0  0  0  0  0  0  0
    2.5399   -1.3201   -4.8007 C   0  0  0  0  0  0  0  0  0  0  0  0
    3.3980   -0.9988   -5.8411 C   0  0  0  0  0  0  0  0  0  0  0  0
    1.3367   -0.6044   -4.6739 C   0  0  0  0  0  0  0  0  0  0  0  0
    0.0020   -2.3884   -1.3674 C   0  0  0  0  0  0  0  0  0  0  0  0
    0.6595   -4.1890    0.0318 C   0  0  0  0  0  0  0  0  0  0  0  0
    1.2760   -4.7107   -2.8819 F   0  0  0  0  0  0  0  0  0  0  0  0
    3.0176   -2.3867   -4.0819 N   0  0  0  0  0  0  0  0  0  0  0  0
    4.3883   -1.9409   -5.7723 N   0  0  0  0  0  0  0  0  0  0  0  0
    3.2638   -0.0180   -6.7458 N   0  0  0  0  0  0  0  0  0  0  0  0
    1.1581    0.4321   -5.5609 N   0  0  0  0  0  0  0  0  0  0  0  0
    0.2995   -1.0492   -3.7948 N   0  0  0  0  0  0  0  0  0  0  0  0
   -1.1150   -3.0986   -1.6745 N   0  0  0  0  0  0  0  0  0  0  0  0
    0.8397   -2.8569   -0.2795 N   0  0  0  0  0  0  0  0  0  0  0  0
    0.7776   -4.6841    1.1744 O   0  0  0  0  0  0  0  0  0  0  0  0
    1.7546   -1.2205   -2.2437 H   0  0  0  0  0  0  0  0  0  0  0  0
    0.5398   -0.2596   -0.1853 H   0  0  0  0  0  0  0  0  0  0  0  0
    0.8324    1.4015    0.0306 H   0  0  0  0  0  0  0  0  0  0  0  0
    2.1493    0.3435   -0.6485 H   0  0  0  0  0  0  0  0  0  0  0  0
   -0.7224    0.4521   -1.6656 H   0  0  0  0  0  0  0  0  0  0  0  0
    0.6723    1.1978   -2.5089 H   0  0  0  0  0  0  0  0  0  0  0  0
    4.1683    0.0458    2.8184 H   0  0  0  0  0  0  0  0  0  0  0  0
    1.9528    0.9341    2.1872 H   0  0  0  0  0  0  0  0  0  0  0  0
    4.5801   -2.3974    2.4440 H   0  0  0  0  0  0  0  0  0  0  0  0
   -2.4351   -7.2296   -2.7571 H   0  0  0  0  0  0  0  0  0  0  0  0
    0.1814   -0.6587    1.5203 H   0  0  0  0  0  0  0  0  0  0  0  0
    3.2098   -3.5822    0.7599 H   0  0  0  0  0  0  0  0  0  0  0  0
   -0.4434   -6.3337   -4.0623 H   0  0  0  0  0  0  0  0  0  0  0  0
   -2.6093   -6.1745   -0.5418 H   0  0  0  0  0  0  0  0  0  0  0  0
    4.7219   -3.5891   -4.4077 H   0  0  0  0  0  0  0  0  0  0  0  0
    1.9414    1.4958   -7.1991 H   0  0  0  0  0  0  0  0  0  0  0  0
    5.1595   -2.0327   -6.4163 H   0  0  0  0  0  0  0  0  0  0  0  0
   -0.5061   -0.4539   -3.9678 H   0  0  0  0  0  0  0  0  0  0  0  0
  1 33  1  0  0  0  0
  1 34  1  0  0  0  0
  1 35  1  0  0  0  0
  2  1  1  0  0  0  0
  2 36  1  0  0  0  0
  2 37  1  0  0  0  0
  3 38  1  0  0  0  0
  4  3  2  0  0  0  0
  4 39  1  0  0  0  0
  5  3  1  0  0  0  0
  5 40  1  0  0  0  0
  6 41  1  0  0  0  0
  7  4  1  0  0  0  0
  7 42  1  0  0  0  0
  8  5  2  0  0  0  0
  8 43  1  0  0  0  0
  9  6  2  0  0  0  0
  9 44  1  0  0  0  0
 10  6  1  0  0  0  0
 10 45  1  0  0  0  0
 11 46  1  0  0  0  0
 12 47  1  0  0  0  0
 13  7  2  0  0  0  0
 13  8  1  0  0  0  0
 14  9  1  0  0  0  0
 15  2  1  0  0  0  0
 15 28  1  0  0  0  0
 15 32  1  1  0  0  0
 16 10  2  0  0  0  0
 17 14  2  0  0  0  0
 17 16  1  0  0  0  0
 19 18  2  0  0  0  0
 20 18  1  0  0  0  0
 21 15  1  0  0  0  0
 22 17  1  0  0  0  0
 23 14  1  0  0  0  0
 24 11  2  0  0  0  0
 24 18  1  0  0  0  0
 25 11  1  0  0  0  0
 25 19  1  0  0  0  0
 25 48  1  0  0  0  0
 26 12  2  0  0  0  0
 26 19  1  0  0  0  0
 27 12  1  0  0  0  0
 27 20  2  0  0  0  0
 28 20  1  0  0  0  0
 28 49  1  0  0  0  0
 29 16  1  0  0  0  0
 29 21  2  0  0  0  0
 30 13  1  0  0  0  0
 30 21  1  0  0  0  0
 30 22  1  0  0  0  0
 31 22  2  0  0  0  0
M  END
>  <DRUGBANK_ID>
DB09054

>  <COMMON_NAME>
Idelalisib

>  <CAS_NUMBER>
870281-82-6

>  <UNII>
YG57I8T5M0

>  <SYNONYMS>
5-Fluoro-3-phenyl-2-((S)-1-(9H-purin-6-ylamino)-propyl)-3H-quinazolin-4-one; 5-fluoro-3-phenyl-2-[(1S)-1-(3H-purin-6-ylamino)propyl]quinazolin-4(3H)-one; Idelalisib

$$$$
