P89
 OpenBabel10282417173D

 61 61  0  0  0  0  0  0  0  0999 V2000
    1.0656    0.0481   -0.0582 C   0  0  0  0  0  0  0  0  0  0  0  0
    0.5589   -1.2302    0.5897 C   0  0  0  0  0  0  0  0  0  0  0  0
    1.0656   -1.3082    2.0206 C   0  0  0  0  0  0  0  0  0  0  0  0
    0.5589   -0.1080    2.8037 C   0  0  0  0  0  0  0  0  0  0  0  0
   -0.9611   -0.1080    2.8037 C   0  0  0  0  0  0  0  0  0  0  0  0
   -1.4678   -1.3863    3.4516 C   0  0  0  0  0  0  0  0  0  0  0  0
   -0.9611   -1.4643    4.8825 C   0  0  0  0  0  0  0  0  0  0  0  0
   -1.4678   -0.2641    5.6656 C   0  0  0  0  0  0  0  0  0  0  0  0
   -2.9878   -0.2641    5.6656 C   0  0  0  0  0  0  0  0  0  0  0  0
   -3.4944   -1.5424    6.3135 C   0  0  0  0  0  0  0  0  0  0  0  0
   -4.2251   -1.4822    7.3516 O   0  0  0  0  0  0  0  0  0  0  0  0
   -3.1272   -2.8926    5.7198 C   0  0  0  0  0  0  0  0  0  0  0  0
   -3.6255   -2.9726    4.3391 N   0  0  0  0  0  0  0  0  0  0  0  0
   -4.9136   -2.8586    4.0969 C   0  0  0  0  0  0  0  0  0  0  0  0
   -5.4288   -2.9414    2.6693 C   0  0  0  0  0  0  0  0  0  0  0  0
   -4.9608   -3.9347    1.8092 C   0  0  0  0  0  0  0  0  0  0  0  0
   -4.0234   -4.8278    2.2656 O   0  0  0  0  0  0  0  0  0  0  0  0
   -5.4241   -3.9717    0.4934 C   0  0  0  0  0  0  0  0  0  0  0  0
   -4.9338   -4.9948   -0.4911 C   0  0  0  0  0  0  0  0  0  0  0  0
   -6.3438   -3.1050    0.0533 N   0  0  0  0  0  0  0  0  0  0  0  0
   -6.8068   -2.1613    0.8763 C   0  0  0  0  0  0  0  0  0  0  0  0
   -6.3645   -2.0151    2.1977 C   0  0  0  0  0  0  0  0  0  0  0  0
   -6.8814   -0.8936    3.0840 C   0  0  0  0  0  0  0  0  0  0  0  0
   -6.5665    0.3592    2.4943 O   0  0  0  0  0  0  0  0  0  0  0  0
   -4.8507    0.5019    2.3253 P   0  0  0  0  0  0  0  0  0  0  0  0
   -4.7599   -1.1576    1.8450 O   0  0  0  0  0  0  0  0  0  0  0  0
   -5.0707    1.7366    1.1337 O   0  0  0  0  0  0  0  0  0  0  0  0
   -4.7214    0.9267    3.9974 O   0  0  0  0  0  0  0  0  0  0  0  0
    0.7089    0.8930    0.4931 H   0  0  0  0  0  0  0  0  0  0  0  0
    0.7089    0.1030   -1.0655 H   0  0  0  0  0  0  0  0  0  0  0  0
    2.1356    0.0481   -0.0582 H   0  0  0  0  0  0  0  0  0  0  0  0
   -0.5111   -1.2302    0.5897 H   0  0  0  0  0  0  0  0  0  0  0  0
    0.9156   -2.0751    0.0385 H   0  0  0  0  0  0  0  0  0  0  0  0
    0.7089   -2.2081    2.4767 H   0  0  0  0  0  0  0  0  0  0  0  0
    2.1356   -1.3082    2.0206 H   0  0  0  0  0  0  0  0  0  0  0  0
    0.9156   -0.1630    3.8110 H   0  0  0  0  0  0  0  0  0  0  0  0
    0.9156    0.7918    2.3476 H   0  0  0  0  0  0  0  0  0  0  0  0
   -1.3178    0.7369    3.3549 H   0  0  0  0  0  0  0  0  0  0  0  0
   -1.3177   -0.0531    1.7964 H   0  0  0  0  0  0  0  0  0  0  0  0
   -2.5378   -1.3863    3.4516 H   0  0  0  0  0  0  0  0  0  0  0  0
   -1.1111   -2.2312    2.9003 H   0  0  0  0  0  0  0  0  0  0  0  0
   -1.3178   -2.3642    5.3386 H   0  0  0  0  0  0  0  0  0  0  0  0
    0.1089   -1.4643    4.8825 H   0  0  0  0  0  0  0  0  0  0  0  0
   -1.1111   -0.3191    6.6729 H   0  0  0  0  0  0  0  0  0  0  0  0
   -1.1111    0.6357    5.2095 H   0  0  0  0  0  0  0  0  0  0  0  0
   -3.3444    0.5808    6.2168 H   0  0  0  0  0  0  0  0  0  0  0  0
   -3.3444   -0.2092    4.6583 H   0  0  0  0  0  0  0  0  0  0  0  0
   -2.0632   -3.0058    5.7221 H   0  0  0  0  0  0  0  0  0  0  0  0
   -3.5701   -3.6716    6.3044 H   0  0  0  0  0  0  0  0  0  0  0  0
   -5.5986   -2.7077    4.9050 H   0  0  0  0  0  0  0  0  0  0  0  0
   -3.7074   -4.7805    3.2132 H   0  0  0  0  0  0  0  0  0  0  0  0
   -5.7570   -5.5907   -0.8261 H   0  0  0  0  0  0  0  0  0  0  0  0
   -4.4882   -4.4993   -1.3283 H   0  0  0  0  0  0  0  0  0  0  0  0
   -4.2069   -5.6231   -0.0203 H   0  0  0  0  0  0  0  0  0  0  0  0
   -7.5504   -1.4849    0.5096 H   0  0  0  0  0  0  0  0  0  0  0  0
   -7.9426   -0.9819    3.1885 H   0  0  0  0  0  0  0  0  0  0  0  0
   -6.4214   -0.9598    4.0478 H   0  0  0  0  0  0  0  0  0  0  0  0
   -3.4820    0.6158    2.1906 H   0  0  0  0  0  0  0  0  0  0  0  0
   -4.6325   -1.7321    2.6534 H   0  0  0  0  0  0  0  0  0  0  0  0
   -5.1252    1.3187    0.2268 H   0  0  0  0  0  0  0  0  0  0  0  0
   -5.6316    0.9308    4.4116 H   0  0  0  0  0  0  0  0  0  0  0  0
  1  2  1  0  0  0  0
  1 29  1  0  0  0  0
  1 30  1  0  0  0  0
  1 31  1  0  0  0  0
  2  3  1  0  0  0  0
  2 32  1  0  0  0  0
  2 33  1  0  0  0  0
  3  4  1  0  0  0  0
  3 34  1  0  0  0  0
  3 35  1  0  0  0  0
  4  5  1  0  0  0  0
  4 36  1  0  0  0  0
  4 37  1  0  0  0  0
  5  6  1  0  0  0  0
  5 38  1  0  0  0  0
  5 39  1  0  0  0  0
  6  7  1  0  0  0  0
  6 40  1  0  0  0  0
  6 41  1  0  0  0  0
  7  8  1  0  0  0  0
  7 42  1  0  0  0  0
  7 43  1  0  0  0  0
  8  9  1  0  0  0  0
  8 44  1  0  0  0  0
  8 45  1  0  0  0  0
  9 10  1  0  0  0  0
  9 46  1  0  0  0  0
  9 47  1  0  0  0  0
 10 11  2  0  0  0  0
 10 12  1  0  0  0  0
 12 13  1  0  0  0  0
 12 48  1  0  0  0  0
 12 49  1  0  0  0  0
 13 14  2  0  0  0  0
 14 15  1  0  0  0  0
 14 50  1  0  0  0  0
 15 16  1  0  0  0  0
 15 22  2  0  0  0  0
 16 17  1  0  0  0  0
 16 18  2  0  0  0  0
 17 51  1  0  0  0  0
 18 19  1  0  0  0  0
 18 20  1  0  0  0  0
 19 52  1  0  0  0  0
 19 53  1  0  0  0  0
 19 54  1  0  0  0  0
 20 21  2  0  0  0  0
 21 22  1  0  0  0  0
 21 55  1  0  0  0  0
 22 23  1  0  0  0  0
 23 24  1  0  0  0  0
 23 56  1  0  0  0  0
 23 57  1  0  0  0  0
 24 25  1  0  0  0  0
 25 26  1  0  0  0  0
 25 27  1  0  0  0  0
 25 28  1  0  0  0  0
 25 58  1  0  0  0  0
 26 59  1  0  0  0  0
 27 60  1  0  0  0  0
 28 61  1  0  0  0  0
M  END
>  <DRUGBANK_ID>
DB08364

>  <COMMON_NAME>
1-{[(1E)-(3-HYDROXY-2-METHYL-5-{[(TRIHYDROXY-LAMBDA^5^-PHOSPHANYL)OXY]METHYL}PYRIDIN-4-YL)METHYLIDENE]AMINO}UNDECAN-2-ONE

$$$$
