
 OpenBabel10282417193D

 56 60  0  0  1  0  0  0  0  0999 V2000
   -2.0757    0.4534   -3.5195 C   0  0  0  0  0  0  0  0  0  0  0  0
   -1.5283   -0.8648   -3.7755 N   0  0  0  0  0  0  0  0  0  0  0  0
   -0.2007   -1.2130   -3.8903 C   0  0  0  0  0  0  0  0  0  0  0  0
   -0.1239   -2.5938   -3.8078 C   0  0  0  0  0  0  0  0  0  0  0  0
   -1.5009   -2.9728   -3.9068 C   0  0  0  0  0  0  0  0  0  0  0  0
   -2.3467   -1.9310   -3.8403 N   0  0  0  0  0  0  0  0  0  0  0  0
    1.1578   -3.4155   -3.9556 C   0  0  0  0  0  0  0  0  0  0  0  0
    2.3203   -3.7687   -3.1988 C   0  0  0  0  0  0  0  0  0  0  0  0
    3.3109   -4.1598   -4.1322 C   0  0  0  0  0  0  0  0  0  0  0  0
    4.6858   -4.5017   -3.9493 C   0  0  0  0  0  0  0  0  0  0  0  0
    5.1183   -5.7322   -4.5526 C   0  0  0  0  0  0  0  0  0  0  0  0
    4.3988   -6.2866   -5.5947 C   0  0  0  0  0  0  0  0  0  0  0  0
    3.1930   -5.6867   -5.8402 C   0  0  0  0  0  0  0  0  0  0  0  0
    2.5656   -4.7085   -5.1173 C   0  0  0  0  0  0  0  0  0  0  0  0
    1.3222   -4.1276   -5.1385 N   0  0  0  0  0  0  0  0  0  0  0  0
    4.8546   -7.3443   -6.4322 N   0  0  0  0  0  0  0  0  0  0  0  0
    4.3276   -7.8635   -7.6129 C   0  0  0  0  0  0  0  0  0  0  0  0
    5.0098   -8.7295   -8.2185 O   0  0  0  0  0  0  0  0  0  0  0  0
    2.9382   -7.4295   -8.2221 C   0  0  1  0  0  0  0  0  0  0  0  0
    1.7652   -7.7889   -7.2033 C   0  0  0  0  0  0  0  0  0  0  0  0
    1.0907   -9.1074   -7.5320 C   0  0  0  0  0  0  0  0  0  0  0  0
    0.0140   -9.4284   -6.4836 C   0  0  0  0  0  0  0  0  0  0  0  0
   -1.0029   -8.2980   -6.2931 C   0  0  0  0  0  0  0  0  0  0  0  0
   -0.3042   -7.0110   -5.9327 C   0  0  0  0  0  0  0  0  0  0  0  0
    0.6402   -6.7164   -7.0852 C   0  0  0  0  0  0  0  0  0  0  0  0
    3.0450   -6.0240   -8.7496 N   0  0  0  0  0  0  0  0  0  0  0  0
    5.3190   -3.9664   -2.6766 C   0  0  0  0  0  0  0  0  0  0  0  0
    5.4581   -2.8129   -2.2191 O   0  0  0  0  0  0  0  0  0  0  0  0
    5.0965   -4.9213   -1.7496 N   0  0  0  0  0  0  0  0  0  0  0  0
    3.6333   -4.9147   -1.4198 N   0  0  0  0  0  0  0  0  0  0  0  0
    2.8830   -3.8637   -1.8228 C   0  0  0  0  0  0  0  0  0  0  0  0
   -2.8819    0.6756   -4.2259 H   0  0  0  0  0  0  0  0  0  0  0  0
   -2.4662    0.4669   -2.4965 H   0  0  0  0  0  0  0  0  0  0  0  0
   -1.2852    1.2022   -3.6158 H   0  0  0  0  0  0  0  0  0  0  0  0
    0.5503   -0.4487   -4.0177 H   0  0  0  0  0  0  0  0  0  0  0  0
   -1.9497   -3.9554   -3.9924 H   0  0  0  0  0  0  0  0  0  0  0  0
    5.9778   -6.2608   -4.1520 H   0  0  0  0  0  0  0  0  0  0  0  0
    2.6728   -6.0154   -6.6548 H   0  0  0  0  0  0  0  0  0  0  0  0
    0.5907   -4.2262   -5.8427 H   0  0  0  0  0  0  0  0  0  0  0  0
    5.7612   -7.7463   -6.2141 H   0  0  0  0  0  0  0  0  0  0  0  0
    2.7684   -8.0113   -9.1325 H   0  0  0  0  0  0  0  0  0  0  0  0
    2.2066   -7.9770   -6.2071 H   0  0  0  0  0  0  0  0  0  0  0  0
    0.6406   -9.0131   -8.5239 H   0  0  0  0  0  0  0  0  0  0  0  0
    1.8373   -9.9087   -7.5633 H   0  0  0  0  0  0  0  0  0  0  0  0
   -0.5105  -10.3345   -6.7889 H   0  0  0  0  0  0  0  0  0  0  0  0
    0.4999   -9.6268   -5.5181 H   0  0  0  0  0  0  0  0  0  0  0  0
   -1.5418   -8.1278   -7.2326 H   0  0  0  0  0  0  0  0  0  0  0  0
   -1.7372   -8.5503   -5.5247 H   0  0  0  0  0  0  0  0  0  0  0  0
   -1.0167   -6.1850   -5.8191 H   0  0  0  0  0  0  0  0  0  0  0  0
    0.2206   -7.0969   -4.9679 H   0  0  0  0  0  0  0  0  0  0  0  0
    0.9834   -5.7107   -6.9266 H   0  0  0  0  0  0  0  0  0  0  0  0
    0.1211   -6.6050   -8.0374 H   0  0  0  0  0  0  0  0  0  0  0  0
    2.1216   -5.5998   -8.8111 H   0  0  0  0  0  0  0  0  0  0  0  0
    3.5874   -5.4144   -8.1295 H   0  0  0  0  0  0  0  0  0  0  0  0
    5.7407   -4.7740   -0.9642 H   0  0  0  0  0  0  0  0  0  0  0  0
    3.0402   -2.8842   -1.3575 H   0  0  0  0  0  0  0  0  0  0  0  0
  1  2  1  0  0  0  0
  1 32  1  0  0  0  0
  1 33  1  0  0  0  0
  1 34  1  0  0  0  0
  2  3  1  0  0  0  0
  2  6  1  0  0  0  0
  3  4  2  0  0  0  0
  3 35  1  0  0  0  0
  4  5  1  0  0  0  0
  4  7  1  0  0  0  0
  5  6  2  0  0  0  0
  5 36  1  0  0  0  0
  7  8  2  0  0  0  0
  7 15  1  0  0  0  0
  8  9  1  0  0  0  0
  8 31  1  0  0  0  0
  9 10  2  0  0  0  0
  9 14  1  0  0  0  0
 10 11  1  0  0  0  0
 10 27  1  0  0  0  0
 11 12  2  0  0  0  0
 11 37  1  0  0  0  0
 12 13  1  0  0  0  0
 12 16  1  0  0  0  0
 13 14  2  0  0  0  0
 13 38  1  0  0  0  0
 14 15  1  0  0  0  0
 15 39  1  0  0  0  0
 16 17  1  0  0  0  0
 16 40  1  0  0  0  0
 17 18  2  0  0  0  0
 17 19  1  0  0  0  0
 19 20  1  0  0  0  0
 19 26  1  0  0  0  0
 19 41  1  6  0  0  0
 20 21  1  0  0  0  0
 20 25  1  0  0  0  0
 20 42  1  0  0  0  0
 21 22  1  0  0  0  0
 21 43  1  0  0  0  0
 21 44  1  0  0  0  0
 22 23  1  0  0  0  0
 22 45  1  0  0  0  0
 22 46  1  0  0  0  0
 23 24  1  0  0  0  0
 23 47  1  0  0  0  0
 23 48  1  0  0  0  0
 24 25  1  0  0  0  0
 24 49  1  0  0  0  0
 24 50  1  0  0  0  0
 25 51  1  0  0  0  0
 25 52  1  0  0  0  0
 26 53  1  0  0  0  0
 26 54  1  0  0  0  0
 27 28  2  0  0  0  0
 27 29  1  0  0  0  0
 29 30  1  0  0  0  0
 29 55  1  0  0  0  0
 30 31  2  0  0  0  0
 31 56  1  0  0  0  0
M  END
>  <DRUGBANK_ID>
DB12611

>  <COMMON_NAME>
PF-477736

>  <CAS_NUMBER>
952021-60-2

>  <UNII>
XO23PGZ0SM

$$$$
