GS5
 OpenBabel10282417163D

 52 55  0  0  0  0  0  0  0  0999 V2000
    1.0436   -0.0793    0.0297 Cl  0  0  0  0  0  0  0  0  0  0  0  0
    2.7647   -0.0794    0.0420 C   0  0  0  0  0  0  0  0  0  0  0  0
    3.4478    1.1297    0.0365 C   0  0  0  0  0  0  0  0  0  0  0  0
    4.8371    1.1483   -0.0766 C   0  0  0  0  0  0  0  0  0  0  0  0
    5.5037   -0.0765   -0.2583 C   0  0  0  0  0  0  0  0  0  0  0  0
    4.8589   -1.3060   -0.1044 C   0  0  0  0  0  0  0  0  0  0  0  0
    3.4518   -1.2981    0.0263 C   0  0  0  0  0  0  0  0  0  0  0  0
    5.8107   -2.3834   -0.0864 C   0  0  0  0  0  0  0  0  0  0  0  0
    7.1073   -1.9461   -0.2705 C   0  0  0  0  0  0  0  0  0  0  0  0
    8.6825   -2.7292   -0.0593 S   0  0  0  0  0  0  0  0  0  0  0  0
    8.6492   -3.4279    1.2113 O   0  0  0  0  0  0  0  0  0  0  0  0
    8.9103   -3.4458   -1.2893 O   0  0  0  0  0  0  0  0  0  0  0  0
    9.9344   -1.5868    0.0836 N   0  0  0  0  0  0  0  0  0  0  0  0
    9.9506   -0.8366    1.3555 C   0  0  2  0  0  0  0  0  0  0  0  0
    8.6440   -0.2253    1.8745 C   0  0  0  0  0  0  0  0  0  0  0  0
    7.5959   -0.8089    2.1474 O   0  0  0  0  0  0  0  0  0  0  0  0
   10.8569    0.3892    1.1958 C   0  0  0  0  0  0  0  0  0  0  0  0
   10.2320    1.3036    2.1998 C   0  0  0  0  0  0  0  0  0  0  0  0
    8.8501    1.1168    2.0333 N   0  0  0  0  0  0  0  0  0  0  0  0
    7.8621    2.1389    2.3540 C   0  0  1  0  0  0  0  0  0  0  0  0
    7.8866    2.4586    3.8446 C   0  0  0  0  0  0  0  0  0  0  0  0
    7.9002    3.4599    1.4833 C   0  0  0  0  0  0  0  0  0  0  0  0
    6.8274    3.8348    0.9816 O   0  0  0  0  0  0  0  0  0  0  0  0
    8.9713    4.3544    1.4918 N   0  0  0  0  0  0  0  0  0  0  0  0
   10.4362    4.2324    1.3094 C   0  0  0  0  0  0  0  0  0  0  0  0
   11.1086    4.6127    2.6364 C   0  0  0  0  0  0  0  0  0  0  0  0
   10.8733    6.0137    2.8427 O   0  0  0  0  0  0  0  0  0  0  0  0
    9.4561    6.2916    2.9069 C   0  0  0  0  0  0  0  0  0  0  0  0
    8.6647    5.7673    1.6846 C   0  0  0  0  0  0  0  0  0  0  0  0
    7.1117   -0.3239   -0.8258 S   0  0  0  0  0  0  0  0  0  0  0  0
   10.3537   -1.4561    2.1569 H   0  0  0  0  0  0  0  0  0  0  0  0
    6.8778    1.6832    2.1558 H   0  0  0  0  0  0  0  0  0  0  0  0
    2.9093    2.0742    0.0587 H   0  0  0  0  0  0  0  0  0  0  0  0
    5.3755    2.0916   -0.1020 H   0  0  0  0  0  0  0  0  0  0  0  0
    2.9095   -2.2381    0.0602 H   0  0  0  0  0  0  0  0  0  0  0  0
    5.5710   -3.4168    0.1324 H   0  0  0  0  0  0  0  0  0  0  0  0
   10.8129   -2.0857   -0.0758 H   0  0  0  0  0  0  0  0  0  0  0  0
   11.9129    0.2095    1.4154 H   0  0  0  0  0  0  0  0  0  0  0  0
   10.8132    0.8313    0.1856 H   0  0  0  0  0  0  0  0  0  0  0  0
   10.5648    1.2003    3.2322 H   0  0  0  0  0  0  0  0  0  0  0  0
   10.3675    2.3001    1.9727 H   0  0  0  0  0  0  0  0  0  0  0  0
    8.8142    2.9675    4.1137 H   0  0  0  0  0  0  0  0  0  0  0  0
    7.0528    3.1066    4.1333 H   0  0  0  0  0  0  0  0  0  0  0  0
    7.8282    1.5395    4.4399 H   0  0  0  0  0  0  0  0  0  0  0  0
   10.7049    4.9632    0.5422 H   0  0  0  0  0  0  0  0  0  0  0  0
   10.8261    3.3403    0.8191 H   0  0  0  0  0  0  0  0  0  0  0  0
   10.7182    4.0644    3.5068 H   0  0  0  0  0  0  0  0  0  0  0  0
   12.1860    4.4262    2.6010 H   0  0  0  0  0  0  0  0  0  0  0  0
    9.3471    7.3754    2.9802 H   0  0  0  0  0  0  0  0  0  0  0  0
    9.0751    5.8369    3.8281 H   0  0  0  0  0  0  0  0  0  0  0  0
    8.9946    6.2734    0.7702 H   0  0  0  0  0  0  0  0  0  0  0  0
    7.5957    5.9474    1.8163 H   0  0  0  0  0  0  0  0  0  0  0  0
  1  2  1  0  0  0  0
  2  3  1  0  0  0  0
  2  7  2  0  0  0  0
  3  4  2  0  0  0  0
  3 33  1  0  0  0  0
  4  5  1  0  0  0  0
  4 34  1  0  0  0  0
  5  6  2  0  0  0  0
  5 30  1  0  0  0  0
  6  7  1  0  0  0  0
  6  8  1  0  0  0  0
  7 35  1  0  0  0  0
  8  9  2  0  0  0  0
  8 36  1  0  0  0  0
  9 10  1  0  0  0  0
  9 30  1  0  0  0  0
 10 11  2  0  0  0  0
 10 12  2  0  0  0  0
 10 13  1  0  0  0  0
 13 37  1  0  0  0  0
 14 13  1  0  0  0  0
 14 15  1  0  0  0  0
 14 17  1  0  0  0  0
 14 31  1  1  0  0  0
 15 16  2  0  0  0  0
 15 19  1  0  0  0  0
 17 18  1  0  0  0  0
 17 38  1  0  0  0  0
 17 39  1  0  0  0  0
 18 19  1  0  0  0  0
 18 40  1  0  0  0  0
 18 41  1  0  0  0  0
 19 20  1  0  0  0  0
 20 21  1  0  0  0  0
 20 22  1  0  0  0  0
 20 32  1  6  0  0  0
 21 42  1  0  0  0  0
 21 43  1  0  0  0  0
 21 44  1  0  0  0  0
 22 23  2  0  0  0  0
 22 24  1  0  0  0  0
 24 25  1  0  0  0  0
 24 29  1  0  0  0  0
 25 26  1  0  0  0  0
 25 45  1  0  0  0  0
 25 46  1  0  0  0  0
 26 27  1  0  0  0  0
 26 47  1  0  0  0  0
 26 48  1  0  0  0  0
 27 28  1  0  0  0  0
 28 29  1  0  0  0  0
 28 49  1  0  0  0  0
 28 50  1  0  0  0  0
 29 51  1  0  0  0  0
 29 52  1  0  0  0  0
M  END
>  <DRUGBANK_ID>
DB07843

>  <COMMON_NAME>
5-CHLORO-N-{(3S)-1-[(1S)-1-METHYL-2-MORPHOLIN-4-YL-2-OXOETHYL]-2-OXOPYRROLIDIN-3-YL}-1-BENZOTHIOPHENE-2-SULFONAMIDE

$$$$
