
 OpenBabel10282417113D

 49 52  0  0  0  0  0  0  0  0999 V2000
    1.1360   -0.0025   -0.2540 O   0  0  0  0  0  0  0  0  0  0  0  0
   -4.0604   -9.0632    4.1598 O   0  0  0  0  0  0  0  0  0  0  0  0
   -0.5124   -1.1581    1.5849 C   0  0  1  0  0  0  0  0  0  0  0  0
   -0.5180   -2.6349    1.6964 C   0  0  2  0  0  0  0  0  0  0  0  0
   -1.2669   -3.7913    2.2678 C   0  0  2  0  0  0  0  0  0  0  0  0
    0.5480   -1.3007   -0.3554 C   0  0  2  0  0  0  0  0  0  0  0  0
   -2.2882   -1.1584    2.3351 C   0  0  0  0  0  0  0  0  0  0  0  0
    0.9768   -2.6043    1.7321 C   0  0  0  0  0  0  0  0  0  0  0  0
   -2.9814   -2.4954    3.3062 C   0  0  0  0  0  0  0  0  0  0  0  0
    1.3589   -2.4758    0.2882 C   0  0  0  0  0  0  0  0  0  0  0  0
   -1.0983   -4.7509    1.0913 C   0  0  0  0  0  0  0  0  0  0  0  0
   -0.1745   -1.1082    3.4093 C   0  0  0  0  0  0  0  0  0  0  0  0
   -3.2026   -5.1340    2.9548 C   0  0  0  0  0  0  0  0  0  0  0  0
   -1.2182   -6.1072    1.6216 C   0  0  0  0  0  0  0  0  0  0  0  0
   -2.4232   -6.2312    2.4983 C   0  0  0  0  0  0  0  0  0  0  0  0
   -0.9720   -1.3007   -0.3554 C   0  0  0  0  0  0  0  0  0  0  0  0
   -4.3026   -5.4179    3.7669 C   0  0  0  0  0  0  0  0  0  0  0  0
   -2.6769   -7.5278    2.9099 C   0  0  0  0  0  0  0  0  0  0  0  0
   -4.5654   -6.7473    4.1537 C   0  0  0  0  0  0  0  0  0  0  0  0
   -3.7476   -7.8020    3.7334 C   0  0  0  0  0  0  0  0  0  0  0  0
   -2.2759   -1.3007   -0.3554 C   0  0  0  0  0  0  0  0  0  0  0  0
   -0.7922   -4.1091    3.2012 H   0  0  0  0  0  0  0  0  0  0  0  0
   -2.7989   -3.7353    2.4814 C   0  0  2  0  0  0  0  0  0  0  0  0
   -3.4025   -3.5465    1.5786 H   0  0  0  0  0  0  0  0  0  0  0  0
   -1.2145   -2.7175    0.8937 H   0  0  0  0  0  0  0  0  0  0  0  0
   -3.1911  -10.0974    3.6902 C   0  0  0  0  0  0  0  0  0  0  0  0
    2.0452   -0.1044    0.0690 H   0  0  0  0  0  0  0  0  0  0  0  0
   -2.3836   -0.3977    3.1555 H   0  0  0  0  0  0  0  0  0  0  0  0
   -3.1313   -0.8376    1.7149 H   0  0  0  0  0  0  0  0  0  0  0  0
    1.3441   -3.3197    2.4584 H   0  0  0  0  0  0  0  0  0  0  0  0
    1.4248   -1.6626    2.1467 H   0  0  0  0  0  0  0  0  0  0  0  0
   -2.5605   -2.6663    4.3219 H   0  0  0  0  0  0  0  0  0  0  0  0
   -4.0599   -2.3557    3.5420 H   0  0  0  0  0  0  0  0  0  0  0  0
    1.0866   -3.4070   -0.1841 H   0  0  0  0  0  0  0  0  0  0  0  0
    2.4347   -2.3264    0.3008 H   0  0  0  0  0  0  0  0  0  0  0  0
   -1.8199   -4.5223    0.2828 H   0  0  0  0  0  0  0  0  0  0  0  0
   -0.1139   -4.6648    0.6470 H   0  0  0  0  0  0  0  0  0  0  0  0
   -0.5744   -2.0648    3.8693 H   0  0  0  0  0  0  0  0  0  0  0  0
    0.8199   -1.0955    3.8408 H   0  0  0  0  0  0  0  0  0  0  0  0
   -0.8052   -0.4385    4.0448 H   0  0  0  0  0  0  0  0  0  0  0  0
   -1.2475   -6.7801    0.7654 H   0  0  0  0  0  0  0  0  0  0  0  0
   -0.3125   -6.2853    2.2119 H   0  0  0  0  0  0  0  0  0  0  0  0
   -4.9651   -4.6300    4.1152 H   0  0  0  0  0  0  0  0  0  0  0  0
   -1.9922   -8.2909    2.5565 H   0  0  0  0  0  0  0  0  0  0  0  0
   -5.4160   -6.9591    4.7963 H   0  0  0  0  0  0  0  0  0  0  0  0
   -3.3418   -1.2990   -0.3819 H   0  0  0  0  0  0  0  0  0  0  0  0
   -3.2059  -10.1670    2.5944 H   0  0  0  0  0  0  0  0  0  0  0  0
   -2.1654   -9.9495    4.0527 H   0  0  0  0  0  0  0  0  0  0  0  0
   -3.5486  -11.0489    4.0863 H   0  0  0  0  0  0  0  0  0  0  0  0
  1 27  1  0  0  0  0
  2 20  1  0  0  0  0
  2 26  1  0  0  0  0
  3  4  1  0  0  0  0
  3  6  1  0  0  0  0
  3  7  1  0  0  0  0
  3 12  1  1  0  0  0
  4  5  1  0  0  0  0
  4  8  1  0  0  0  0
  4 25  1  6  0  0  0
  5 11  1  0  0  0  0
  5 22  1  1  0  0  0
  5 23  1  0  0  0  0
  6  1  1  0  0  0  0
  6 10  1  0  0  0  0
  6 16  1  6  0  0  0
  7  9  1  0  0  0  0
  7 28  1  0  0  0  0
  7 29  1  0  0  0  0
  8 10  1  0  0  0  0
  8 30  1  0  0  0  0
  8 31  1  0  0  0  0
  9 32  1  0  0  0  0
  9 33  1  0  0  0  0
 10 34  1  0  0  0  0
 10 35  1  0  0  0  0
 11 14  1  0  0  0  0
 11 36  1  0  0  0  0
 11 37  1  0  0  0  0
 12 38  1  0  0  0  0
 12 39  1  0  0  0  0
 12 40  1  0  0  0  0
 13 15  2  0  0  0  0
 13 17  1  0  0  0  0
 14 15  1  0  0  0  0
 14 41  1  0  0  0  0
 14 42  1  0  0  0  0
 15 18  1  0  0  0  0
 16 21  3  0  0  0  0
 17 19  2  0  0  0  0
 17 43  1  0  0  0  0
 18 20  2  0  0  0  0
 18 44  1  0  0  0  0
 19 20  1  0  0  0  0
 19 45  1  0  0  0  0
 21 46  1  0  0  0  0
 23  9  1  0  0  0  0
 23 13  1  0  0  0  0
 23 24  1  6  0  0  0
 26 47  1  0  0  0  0
 26 48  1  0  0  0  0
 26 49  1  0  0  0  0
M  END
>  <DRUGBANK_ID>
DB01357

>  <COMMON_NAME>
Mestranol

>  <CAS_NUMBER>
72-33-3

>  <UNII>
B2V233XGE7

>  <SYNONYMS>
Mestranol

$$$$
