321
 OpenBabel10282417103D

 44 46  0  0  0  0  0  0  0  0999 V2000
    1.0938   -0.0388    0.1287 N   0  0  0  0  0  0  0  0  0  0  0  0
   -2.9803   -1.4891   -3.8275 C   0  0  0  0  0  0  0  0  0  0  0  0
   -3.1839   -2.9860   -4.0521 C   0  0  0  0  0  0  0  0  0  0  0  0
   -0.2251   -2.1718   -3.5339 C   0  0  0  0  0  0  0  0  0  0  0  0
   -1.9610   -0.9527   -4.7961 C   0  0  0  0  0  0  0  0  0  0  0  0
   -2.0630   -3.9328   -3.6521 C   0  0  0  0  0  0  0  0  0  0  0  0
   -0.6209   -1.3027   -4.6408 C   0  0  0  0  0  0  0  0  0  0  0  0
   -0.7242   -3.5684   -3.3810 C   0  0  0  0  0  0  0  0  0  0  0  0
    0.5874   -1.6400   -2.6135 C   0  0  0  0  0  0  0  0  0  0  0  0
    1.0569   -0.2097   -2.4541 C   0  0  0  0  0  0  0  0  0  0  0  0
   -2.3188   -0.1570   -5.8823 C   0  0  0  0  0  0  0  0  0  0  0  0
   -2.4210   -5.2946   -3.5882 C   0  0  0  0  0  0  0  0  0  0  0  0
    0.3622   -0.8436   -5.5265 C   0  0  0  0  0  0  0  0  0  0  0  0
    0.1891   -4.5733   -3.0036 C   0  0  0  0  0  0  0  0  0  0  0  0
    0.5896    0.4871   -1.1546 C   0  0  0  0  0  0  0  0  0  0  0  0
   -1.3382    0.3080   -6.7645 C   0  0  0  0  0  0  0  0  0  0  0  0
   -1.4965   -6.2722   -3.2297 C   0  0  0  0  0  0  0  0  0  0  0  0
    0.0035   -0.0215   -6.5809 C   0  0  0  0  0  0  0  0  0  0  0  0
   -0.1937   -5.9102   -2.9226 C   0  0  0  0  0  0  0  0  0  0  0  0
    0.5849   -1.3712    0.4418 C   0  0  0  0  0  0  0  0  0  0  0  0
    2.5551   -0.0381    0.1578 C   0  0  0  0  0  0  0  0  0  0  0  0
   -2.6765   -1.2839   -2.7916 H   0  0  0  0  0  0  0  0  0  0  0  0
   -3.9321   -0.9639   -3.9674 H   0  0  0  0  0  0  0  0  0  0  0  0
   -4.0763   -3.2696   -3.4777 H   0  0  0  0  0  0  0  0  0  0  0  0
   -3.4121   -3.1682   -5.1110 H   0  0  0  0  0  0  0  0  0  0  0  0
    0.9738   -2.3317   -1.8836 H   0  0  0  0  0  0  0  0  0  0  0  0
    0.7138    0.4268   -3.2740 H   0  0  0  0  0  0  0  0  0  0  0  0
    2.1484   -0.1991   -2.5269 H   0  0  0  0  0  0  0  0  0  0  0  0
   -3.3611    0.0947   -6.0520 H   0  0  0  0  0  0  0  0  0  0  0  0
   -3.4380   -5.5972   -3.8315 H   0  0  0  0  0  0  0  0  0  0  0  0
    1.4055   -1.1101   -5.3680 H   0  0  0  0  0  0  0  0  0  0  0  0
    1.2261   -4.3269   -2.7885 H   0  0  0  0  0  0  0  0  0  0  0  0
   -0.5088    0.5324   -1.1312 H   0  0  0  0  0  0  0  0  0  0  0  0
    0.9002    1.5413   -1.2209 H   0  0  0  0  0  0  0  0  0  0  0  0
   -1.6251    0.9302   -7.6058 H   0  0  0  0  0  0  0  0  0  0  0  0
   -1.7959   -7.3153   -3.1986 H   0  0  0  0  0  0  0  0  0  0  0  0
    0.7693    0.3502   -7.2534 H   0  0  0  0  0  0  0  0  0  0  0  0
    0.5359   -6.6637   -2.6421 H   0  0  0  0  0  0  0  0  0  0  0  0
    1.1150   -2.1483   -0.1039 H   0  0  0  0  0  0  0  0  0  0  0  0
    0.7572   -1.6329    1.4878 H   0  0  0  0  0  0  0  0  0  0  0  0
   -0.4905   -1.4536    0.2454 H   0  0  0  0  0  0  0  0  0  0  0  0
    2.9394    0.9828    0.0643 H   0  0  0  0  0  0  0  0  0  0  0  0
    2.9254   -0.4456    1.1026 H   0  0  0  0  0  0  0  0  0  0  0  0
    2.9892   -0.6447   -0.6441 H   0  0  0  0  0  0  0  0  0  0  0  0
  1 15  1  0  0  0  0
  1 20  1  0  0  0  0
  1 21  1  0  0  0  0
  2  3  1  0  0  0  0
  2  5  1  0  0  0  0
  2 22  1  0  0  0  0
  2 23  1  0  0  0  0
  3  6  1  0  0  0  0
  3 24  1  0  0  0  0
  3 25  1  0  0  0  0
  4  7  1  0  0  0  0
  4  8  1  0  0  0  0
  4  9  2  0  0  0  0
  5  7  1  0  0  0  0
  5 11  2  0  0  0  0
  6  8  1  0  0  0  0
  6 12  2  0  0  0  0
  7 13  2  0  0  0  0
  8 14  2  0  0  0  0
  9 10  1  0  0  0  0
  9 26  1  0  0  0  0
 10 15  1  0  0  0  0
 10 27  1  0  0  0  0
 10 28  1  0  0  0  0
 11 16  1  0  0  0  0
 11 29  1  0  0  0  0
 12 17  1  0  0  0  0
 12 30  1  0  0  0  0
 13 18  1  0  0  0  0
 13 31  1  0  0  0  0
 14 19  1  0  0  0  0
 14 32  1  0  0  0  0
 15 33  1  0  0  0  0
 15 34  1  0  0  0  0
 16 18  2  0  0  0  0
 16 35  1  0  0  0  0
 17 19  2  0  0  0  0
 17 36  1  0  0  0  0
 18 37  1  0  0  0  0
 19 38  1  0  0  0  0
 20 39  1  0  0  0  0
 20 40  1  0  0  0  0
 20 41  1  0  0  0  0
 21 42  1  0  0  0  0
 21 43  1  0  0  0  0
 21 44  1  0  0  0  0
M  END
>  <DRUGBANK_ID>
DB00321

>  <SECONDARY_ACCESSION_NUMBERS>
APRD00227

>  <COMMON_NAME>
Amitriptyline

>  <CAS_NUMBER>
50-48-6

>  <UNII>
1806D8D52K

>  <SYNONYMS>
10,11-dihydro-5-(γ-dimethylaminopropylidene)-5H-dibenzo(a,d)cycloheptene; 10,11-dihydro-N,N-dimethyl-5H-dibenzo(a,d)heptalene-Δ5,γ-propylamine; 3-(10,11-dihydro-5H-dibenzo(a,d)cyclohepten-5-ylidene)-N,N-dimethyl-1-propanamine; 3-(10,11-dihydro-5H-dibenzo[a,d]cyclohepten-5-ylidene)-N,N-dimethylpropan-1-amine; 5-(3-dimethylaminopropylidene)-10,11-dihydro-5H-dibenzo(a,d)cycloheptatriene; 5-(3-dimethylaminopropylidene)-10,11-dihydro-5H-dibenzo(a,d)cycloheptene; 5-(γ-dimethylaminopropylidene)-5H-dibenzo[a,d][1,4]cycloheptadiene; Amitriptilina; Amitriptylin; Amitriptyline; Amitriptylinum

$$$$
