BIP
 OpenBabel10282417133D

 24 24  0  0  0  0  0  0  0  0999 V2000
    3.0624    1.4793   -0.1364 C   0  0  0  0  0  0  0  0  0  0  0  0
    4.0756    1.7065   -0.7666 O   0  0  0  0  0  0  0  0  0  0  0  0
    2.3727    2.4926    0.4319 O   0  0  0  0  0  0  0  0  0  0  0  0
    2.4503    0.1017    0.1214 C   0  0  2  0  0  0  0  0  0  0  0  0
    0.9277    0.1902   -0.1349 C   0  0  0  0  0  0  0  0  0  0  0  0
   -0.5858   -0.5874    1.1002 I   0  0  0  0  0  0  0  0  0  0  0  0
    3.0312   -0.4303    1.4393 C   0  0  0  0  0  0  0  0  0  0  0  0
    2.7086   -1.8752    1.7377 C   0  0  0  0  0  0  0  0  0  0  0  0
    3.2866   -2.9166    1.0034 C   0  0  0  0  0  0  0  0  0  0  0  0
    2.9126   -4.2411    1.2465 C   0  0  0  0  0  0  0  0  0  0  0  0
    1.9177   -4.5325    2.1793 C   0  0  0  0  0  0  0  0  0  0  0  0
    1.3588   -3.5089    2.9343 C   0  0  0  0  0  0  0  0  0  0  0  0
    1.7919   -2.1975    2.7478 C   0  0  0  0  0  0  0  0  0  0  0  0
    2.8588   -0.5207   -0.6922 H   0  0  0  0  0  0  0  0  0  0  0  0
    2.8076    3.3204    0.1361 H   0  0  0  0  0  0  0  0  0  0  0  0
    0.6278    1.2340   -0.2344 H   0  0  0  0  0  0  0  0  0  0  0  0
    0.7580   -0.2515   -1.1223 H   0  0  0  0  0  0  0  0  0  0  0  0
    4.1309   -0.3557    1.4083 H   0  0  0  0  0  0  0  0  0  0  0  0
    2.7329    0.2168    2.2716 H   0  0  0  0  0  0  0  0  0  0  0  0
    4.0326   -2.7072    0.2402 H   0  0  0  0  0  0  0  0  0  0  0  0
    3.3943   -5.0490    0.7028 H   0  0  0  0  0  0  0  0  0  0  0  0
    1.5830   -5.5554    2.3251 H   0  0  0  0  0  0  0  0  0  0  0  0
    0.5764   -3.7198    3.6584 H   0  0  0  0  0  0  0  0  0  0  0  0
    1.3337   -1.4108    3.3445 H   0  0  0  0  0  0  0  0  0  0  0  0
  1  2  2  0  0  0  0
  1  3  1  0  0  0  0
  3 15  1  0  0  0  0
  4  7  1  0  0  0  0
  4 14  1  6  0  0  0
  4  5  1  0  0  0  0
  4  1  1  0  0  0  0
  5  6  1  0  0  0  0
  5 16  1  0  0  0  0
  5 17  1  0  0  0  0
  7  8  1  0  0  0  0
  7 18  1  0  0  0  0
  7 19  1  0  0  0  0
  8  9  2  0  0  0  0
  8 13  1  0  0  0  0
  9 10  1  0  0  0  0
  9 20  1  0  0  0  0
 10 11  2  0  0  0  0
 10 21  1  0  0  0  0
 11 12  1  0  0  0  0
 11 22  1  0  0  0  0
 12 13  2  0  0  0  0
 12 23  1  0  0  0  0
 13 24  1  0  0  0  0
M  END
>  <DRUGBANK_ID>
DB03441

>  <SECONDARY_ACCESSION_NUMBERS>
EXPT00709

>  <COMMON_NAME>
2-Benzyl-3-Iodopropanoic Acid

$$$$
