
 OpenBabel10282417153D

 45 46  0  0  1  0  0  0  0  0999 V2000
    1.0795    0.0986   -0.0385 C   0  0  0  0  0  0  0  0  0  0  0  0
    0.4880    1.4899    0.2071 C   0  0  0  0  0  0  0  0  0  0  0  0
    1.0026    2.4172   -0.9054 C   0  0  0  0  0  0  0  0  0  0  0  0
   -1.0570    1.4632    0.2564 C   0  0  1  0  0  0  0  0  0  0  0  0
   -1.6097    0.6154    1.4347 C   0  0  0  0  0  0  0  0  0  0  0  0
   -2.3230    1.0790    2.3201 O   0  0  0  0  0  0  0  0  0  0  0  0
   -1.2438   -0.7000    1.3612 O   0  0  0  0  0  0  0  0  0  0  0  0
   -1.7008   -1.5630    2.4217 C   0  0  2  0  0  0  0  0  0  0  0  0
   -0.5949   -1.9890    3.3701 C   0  0  0  0  0  0  0  0  0  0  0  0
   -0.0564   -3.2841    2.7765 C   0  0  2  0  0  0  0  0  0  0  0  0
   -1.1279   -3.8560    1.9973 O   0  0  0  0  0  0  0  0  0  0  0  0
   -2.1855   -2.8883    1.8377 C   0  0  1  0  0  0  0  0  0  0  0  0
   -3.4239   -3.4035    2.5777 C   0  0  0  0  0  0  0  0  0  0  0  0
   -4.5288   -2.5159    2.4699 O   0  0  0  0  0  0  0  0  0  0  0  0
    0.4020   -4.2704    3.7715 N   0  0  0  0  0  0  0  0  0  0  0  0
   -0.5100   -4.9488    4.5572 C   0  0  0  0  0  0  0  0  0  0  0  0
   -0.1721   -6.0590    5.2090 C   0  0  0  0  0  0  0  0  0  0  0  0
    1.2719   -6.3301    5.3056 C   0  0  0  0  0  0  0  0  0  0  0  0
    2.1528   -5.6630    4.6254 N   0  0  0  0  0  0  0  0  0  0  0  0
    1.7386   -4.6924    3.7376 C   0  0  0  0  0  0  0  0  0  0  0  0
    2.5437   -4.1906    2.9451 O   0  0  0  0  0  0  0  0  0  0  0  0
    1.7003   -7.2965    6.1698 N   0  0  0  0  0  0  0  0  0  0  0  0
   -1.5545    2.8623    0.4012 N   0  0  0  0  0  0  0  0  0  0  0  0
    0.6865   -0.3294   -0.9671 H   0  0  0  0  0  0  0  0  0  0  0  0
    0.8666   -0.5921    0.7770 H   0  0  0  0  0  0  0  0  0  0  0  0
    2.1697    0.1386   -0.1020 H   0  0  0  0  0  0  0  0  0  0  0  0
    0.8696    1.8588    1.1690 H   0  0  0  0  0  0  0  0  0  0  0  0
    0.6494    2.0800   -1.8865 H   0  0  0  0  0  0  0  0  0  0  0  0
    0.6749    3.4518   -0.7650 H   0  0  0  0  0  0  0  0  0  0  0  0
    2.0975    2.4260   -0.9244 H   0  0  0  0  0  0  0  0  0  0  0  0
   -1.4708    1.0720   -0.6807 H   0  0  0  0  0  0  0  0  0  0  0  0
   -2.4786   -1.0522    2.9878 H   0  0  0  0  0  0  0  0  0  0  0  0
   -1.0464   -2.1900    4.3488 H   0  0  0  0  0  0  0  0  0  0  0  0
    0.1917   -1.2438    3.5102 H   0  0  0  0  0  0  0  0  0  0  0  0
    0.7458   -3.0481    2.0692 H   0  0  0  0  0  0  0  0  0  0  0  0
   -2.4168   -2.7956    0.7691 H   0  0  0  0  0  0  0  0  0  0  0  0
   -3.7272   -4.3713    2.1651 H   0  0  0  0  0  0  0  0  0  0  0  0
   -3.2086   -3.5718    3.6368 H   0  0  0  0  0  0  0  0  0  0  0  0
   -4.3138   -1.6706    2.9007 H   0  0  0  0  0  0  0  0  0  0  0  0
   -1.5313   -4.5959    4.5696 H   0  0  0  0  0  0  0  0  0  0  0  0
   -0.8795   -6.7080    5.7035 H   0  0  0  0  0  0  0  0  0  0  0  0
    1.0748   -7.7661    6.8104 H   0  0  0  0  0  0  0  0  0  0  0  0
    2.6932   -7.3535    6.3641 H   0  0  0  0  0  0  0  0  0  0  0  0
   -2.5735    2.8447    0.4718 H   0  0  0  0  0  0  0  0  0  0  0  0
   -1.2463    3.2172    1.3100 H   0  0  0  0  0  0  0  0  0  0  0  0
  1  2  1  0  0  0  0
  1 24  1  0  0  0  0
  1 25  1  0  0  0  0
  1 26  1  0  0  0  0
  2  3  1  0  0  0  0
  2  4  1  0  0  0  0
  2 27  1  0  0  0  0
  3 28  1  0  0  0  0
  3 29  1  0  0  0  0
  3 30  1  0  0  0  0
  4  5  1  0  0  0  0
  4 23  1  0  0  0  0
  4 31  1  6  0  0  0
  5  6  2  0  0  0  0
  5  7  1  0  0  0  0
  8  7  1  0  0  0  0
  8  9  1  0  0  0  0
  8 12  1  0  0  0  0
  8 32  1  1  0  0  0
  9 10  1  0  0  0  0
  9 33  1  0  0  0  0
  9 34  1  0  0  0  0
 10 11  1  0  0  0  0
 10 35  1  6  0  0  0
 10 15  1  0  0  0  0
 11 12  1  0  0  0  0
 12 13  1  0  0  0  0
 12 36  1  6  0  0  0
 13 14  1  0  0  0  0
 13 37  1  0  0  0  0
 13 38  1  0  0  0  0
 14 39  1  0  0  0  0
 15 16  1  0  0  0  0
 15 20  1  0  0  0  0
 16 17  2  0  0  0  0
 16 40  1  0  0  0  0
 17 18  1  0  0  0  0
 17 41  1  0  0  0  0
 18 19  2  0  0  0  0
 18 22  1  0  0  0  0
 19 20  1  0  0  0  0
 20 21  2  0  0  0  0
 22 42  1  0  0  0  0
 22 43  1  0  0  0  0
 23 44  1  0  0  0  0
 23 45  1  0  0  0  0
M  END
>  <DRUGBANK_ID>
DB06187

>  <COMMON_NAME>
Valtorcitabine

>  <CAS_NUMBER>
380886-95-3

>  <UNII>
D5YQG6AQXP

>  <SYNONYMS>
Valtorcitabine

$$$$
