
 OpenBabel10282417203D

 55 57  0  0  0  0  0  0  0  0999 V2000
    1.7764   -0.3021    0.0604 C   0  0  0  0  0  0  0  0  0  0  0  0
    1.5443   -1.6628   -0.3765 O   0  0  0  0  0  0  0  0  0  0  0  0
    1.3549   -1.7560   -1.7389 C   0  0  0  0  0  0  0  0  0  0  0  0
    2.5281   -1.4055   -2.3976 C   0  0  0  0  0  0  0  0  0  0  0  0
    2.7470   -1.6719   -3.7286 C   0  0  0  0  0  0  0  0  0  0  0  0
    1.6729   -2.1466   -4.4737 C   0  0  0  0  0  0  0  0  0  0  0  0
    0.4565   -2.4817   -3.8398 C   0  0  0  0  0  0  0  0  0  0  0  0
    0.2604   -2.3179   -2.4300 C   0  0  0  0  0  0  0  0  0  0  0  0
   -1.1338   -2.7441   -1.8900 C   0  0  0  0  0  0  0  0  0  0  0  0
   -1.8690   -3.3789   -2.6193 O   0  0  0  0  0  0  0  0  0  0  0  0
   -1.6992   -2.2803   -0.6840 N   0  0  0  0  0  0  0  0  0  0  0  0
   -1.0827   -1.4464    0.3331 C   0  0  0  0  0  0  0  0  0  0  0  0
   -1.5241   -0.0004    0.7717 C   0  0  0  0  0  0  0  0  0  0  0  0
   -2.9498    0.1906    0.3231 C   0  0  0  0  0  0  0  0  0  0  0  0
   -2.9140    0.4198   -1.2001 C   0  0  0  0  0  0  0  0  0  0  0  0
   -2.1501    1.5619   -1.7242 N   0  0  0  0  0  0  0  0  0  0  0  0
   -0.7750    1.4990   -1.2459 C   0  0  0  0  0  0  0  0  0  0  0  0
   -0.7889    1.3174    0.2720 C   0  0  0  0  0  0  0  0  0  0  0  0
   -2.1622    1.6860   -3.2048 C   0  0  0  0  0  0  0  0  0  0  0  0
   -1.5206    0.5974   -4.0988 C   0  0  0  0  0  0  0  0  0  0  0  0
   -2.2112   -0.7507   -4.0493 C   0  0  0  0  0  0  0  0  0  0  0  0
   -3.6177   -0.9072   -4.2451 N   0  0  0  0  0  0  0  0  0  0  0  0
   -4.2998   -2.0870   -4.2712 C   0  0  0  0  0  0  0  0  0  0  0  0
   -5.5894   -1.6977   -4.5188 C   0  0  0  0  0  0  0  0  0  0  0  0
   -5.6614   -0.3374   -4.5490 N   0  0  0  0  0  0  0  0  0  0  0  0
   -4.4379    0.1352   -4.3907 N   0  0  0  0  0  0  0  0  0  0  0  0
    1.8661   -2.4255   -6.1690 Cl  0  0  0  0  0  0  0  0  0  0  0  0
    3.9926   -1.2997   -4.2323 N   0  0  0  0  0  0  0  0  0  0  0  0
    1.2324   -0.1830    1.0034 H   0  0  0  0  0  0  0  0  0  0  0  0
    1.4366    0.4435   -0.6672 H   0  0  0  0  0  0  0  0  0  0  0  0
    2.8202   -0.0916    0.2651 H   0  0  0  0  0  0  0  0  0  0  0  0
    3.3417   -1.0112   -1.7992 H   0  0  0  0  0  0  0  0  0  0  0  0
   -0.3265   -2.8894   -4.4830 H   0  0  0  0  0  0  0  0  0  0  0  0
   -2.6958   -2.4857   -0.6138 H   0  0  0  0  0  0  0  0  0  0  0  0
   -0.8208   -2.1011    1.1728 H   0  0  0  0  0  0  0  0  0  0  0  0
   -0.2524   -1.1717   -0.2157 H   0  0  0  0  0  0  0  0  0  0  0  0
   -1.3863    0.0152    1.8603 H   0  0  0  0  0  0  0  0  0  0  0  0
   -3.4988   -0.7258    0.5683 H   0  0  0  0  0  0  0  0  0  0  0  0
   -3.4184    1.0157    0.8591 H   0  0  0  0  0  0  0  0  0  0  0  0
   -2.3393   -0.4088   -1.5376 H   0  0  0  0  0  0  0  0  0  0  0  0
   -3.9069    0.2986   -1.6250 H   0  0  0  0  0  0  0  0  0  0  0  0
   -0.2296    2.4118   -1.5257 H   0  0  0  0  0  0  0  0  0  0  0  0
   -0.2503    0.6698   -1.7248 H   0  0  0  0  0  0  0  0  0  0  0  0
   -1.3326    2.1770    0.6903 H   0  0  0  0  0  0  0  0  0  0  0  0
    0.2094    1.4812    0.6838 H   0  0  0  0  0  0  0  0  0  0  0  0
   -3.1932    1.8563   -3.5066 H   0  0  0  0  0  0  0  0  0  0  0  0
   -1.6564    2.6249   -3.4637 H   0  0  0  0  0  0  0  0  0  0  0  0
   -1.4848    0.9182   -5.1448 H   0  0  0  0  0  0  0  0  0  0  0  0
   -0.4643    0.4608   -3.8177 H   0  0  0  0  0  0  0  0  0  0  0  0
   -1.7331   -1.4608   -4.7172 H   0  0  0  0  0  0  0  0  0  0  0  0
   -2.0451   -1.1116   -3.0645 H   0  0  0  0  0  0  0  0  0  0  0  0
   -3.8307   -3.0539   -4.1447 H   0  0  0  0  0  0  0  0  0  0  0  0
   -6.4575   -2.3139   -4.6780 H   0  0  0  0  0  0  0  0  0  0  0  0
    4.2656   -1.7524   -5.0982 H   0  0  0  0  0  0  0  0  0  0  0  0
    4.7311   -1.2493   -3.5321 H   0  0  0  0  0  0  0  0  0  0  0  0
  1  2  1  0  0  0  0
  1 29  1  0  0  0  0
  1 30  1  0  0  0  0
  1 31  1  0  0  0  0
  2  3  1  0  0  0  0
  3  4  2  0  0  0  0
  3  8  1  0  0  0  0
  4  5  1  0  0  0  0
  4 32  1  0  0  0  0
  5  6  2  0  0  0  0
  5 28  1  0  0  0  0
  6  7  1  0  0  0  0
  6 27  1  0  0  0  0
  7  8  2  0  0  0  0
  7 33  1  0  0  0  0
  8  9  1  0  0  0  0
  9 10  2  0  0  0  0
  9 11  1  0  0  0  0
 11 12  1  0  0  0  0
 11 34  1  0  0  0  0
 12 13  1  0  0  0  0
 12 35  1  0  0  0  0
 12 36  1  0  0  0  0
 13 14  1  0  0  0  0
 13 18  1  0  0  0  0
 13 37  1  0  0  0  0
 14 15  1  0  0  0  0
 14 38  1  0  0  0  0
 14 39  1  0  0  0  0
 15 16  1  0  0  0  0
 15 40  1  0  0  0  0
 15 41  1  0  0  0  0
 16 17  1  0  0  0  0
 16 19  1  0  0  0  0
 17 18  1  0  0  0  0
 17 42  1  0  0  0  0
 17 43  1  0  0  0  0
 18 44  1  0  0  0  0
 18 45  1  0  0  0  0
 19 20  1  0  0  0  0
 19 46  1  0  0  0  0
 19 47  1  0  0  0  0
 20 21  1  0  0  0  0
 20 48  1  0  0  0  0
 20 49  1  0  0  0  0
 21 22  1  0  0  0  0
 21 50  1  0  0  0  0
 21 51  1  0  0  0  0
 22 23  1  0  0  0  0
 22 26  1  0  0  0  0
 23 24  2  0  0  0  0
 23 52  1  0  0  0  0
 24 25  1  0  0  0  0
 24 53  1  0  0  0  0
 25 26  2  0  0  0  0
 28 54  1  0  0  0  0
 28 55  1  0  0  0  0
M  END
>  <DRUGBANK_ID>
DB12853

>  <COMMON_NAME>
DA-6886

>  <CAS_NUMBER>
1342815-16-0

>  <UNII>
J6388YJ4YR

$$$$
