
 OpenBabel10282417103D

 41 43  0  0  0  0  0  0  0  0999 V2000
    0.2890    1.2017   -0.0240 C   0  0  0  0  0  0  0  0  0  0  0  0
   -0.3809   -0.0170   -0.0123 C   0  0  0  0  0  0  0  0  0  0  0  0
    0.3339   -1.2144   -0.0058 C   0  0  0  0  0  0  0  0  0  0  0  0
    1.7335   -1.1917    0.0280 C   0  0  0  0  0  0  0  0  0  0  0  0
    2.4166    0.0332    0.0478 C   0  0  0  0  0  0  0  0  0  0  0  0
    1.6827    1.2250   -0.0193 C   0  0  0  0  0  0  0  0  0  0  0  0
   -2.0994   -0.0350   -0.0111 Cl  0  0  0  0  0  0  0  0  0  0  0  0
    3.9098    0.0506    0.0592 C   0  0  0  0  0  0  0  0  0  0  0  0
    4.6712    1.2403    0.0892 N   0  0  0  0  0  0  0  0  0  0  0  0
    4.5334   -1.0057   -0.0225 O   0  0  0  0  0  0  0  0  0  0  0  0
    4.5705    2.2538    1.0428 C   0  0  0  0  0  0  0  0  0  0  0  0
    5.4250    3.2893    0.6630 C   0  0  0  0  0  0  0  0  0  0  0  0
    6.0452    2.9045   -0.5586 C   0  0  0  0  0  0  0  0  0  0  0  0
    5.5906    1.6342   -0.8736 C   0  0  0  0  0  0  0  0  0  0  0  0
    5.9235    0.8283   -2.0811 C   0  0  0  0  0  0  0  0  0  0  0  0
    7.0089    3.7244   -1.3561 C   0  0  0  0  0  0  0  0  0  0  0  0
    6.4230    5.0460   -1.7803 C   0  0  0  0  0  0  0  0  0  0  0  0
    6.8686    6.1503   -1.4963 O   0  0  0  0  0  0  0  0  0  0  0  0
    5.3274    4.9324   -2.5596 O   0  0  0  0  0  0  0  0  0  0  0  0
    3.8082    2.3343    2.2188 C   0  0  0  0  0  0  0  0  0  0  0  0
    3.9030    3.4910    2.9951 C   0  0  0  0  0  0  0  0  0  0  0  0
    4.7464    4.5385    2.6380 C   0  0  0  0  0  0  0  0  0  0  0  0
    5.5125    4.4429    1.4730 C   0  0  0  0  0  0  0  0  0  0  0  0
    4.9047    5.6983    3.3502 O   0  0  0  0  0  0  0  0  0  0  0  0
    4.1303    5.7998    4.5408 C   0  0  0  0  0  0  0  0  0  0  0  0
   -0.2587    2.1402   -0.0418 H   0  0  0  0  0  0  0  0  0  0  0  0
   -0.1920   -2.1658   -0.0271 H   0  0  0  0  0  0  0  0  0  0  0  0
    2.2824   -2.1329    0.0253 H   0  0  0  0  0  0  0  0  0  0  0  0
    2.1700    2.1948   -0.0663 H   0  0  0  0  0  0  0  0  0  0  0  0
    5.6803    1.4044   -2.9812 H   0  0  0  0  0  0  0  0  0  0  0  0
    6.9972    0.6177   -2.0915 H   0  0  0  0  0  0  0  0  0  0  0  0
    5.3866   -0.1183   -2.1467 H   0  0  0  0  0  0  0  0  0  0  0  0
    7.9014    3.9115   -0.7491 H   0  0  0  0  0  0  0  0  0  0  0  0
    7.3420    3.1986   -2.2573 H   0  0  0  0  0  0  0  0  0  0  0  0
    5.0431    5.8552   -2.7258 H   0  0  0  0  0  0  0  0  0  0  0  0
    3.1464    1.5329    2.5328 H   0  0  0  0  0  0  0  0  0  0  0  0
    3.2956    3.5328    3.8926 H   0  0  0  0  0  0  0  0  0  0  0  0
    6.1772    5.2588    1.1964 H   0  0  0  0  0  0  0  0  0  0  0  0
    3.0592    5.7758    4.3106 H   0  0  0  0  0  0  0  0  0  0  0  0
    4.3982    5.0085    5.2500 H   0  0  0  0  0  0  0  0  0  0  0  0
    4.3482    6.7600    5.0148 H   0  0  0  0  0  0  0  0  0  0  0  0
  1  2  2  0  0  0  0
  1 26  1  0  0  0  0
  2  3  1  0  0  0  0
  2  7  1  0  0  0  0
  3  4  2  0  0  0  0
  3 27  1  0  0  0  0
  4  5  1  0  0  0  0
  4 28  1  0  0  0  0
  5  6  2  0  0  0  0
  5  8  1  0  0  0  0
  6  1  1  0  0  0  0
  6 29  1  0  0  0  0
  8 10  2  0  0  0  0
  8  9  1  0  0  0  0
  9 11  1  0  0  0  0
  9 14  1  0  0  0  0
 11 12  2  0  0  0  0
 11 20  1  0  0  0  0
 12 13  1  0  0  0  0
 13 14  2  0  0  0  0
 13 16  1  0  0  0  0
 14 15  1  0  0  0  0
 15 30  1  0  0  0  0
 15 31  1  0  0  0  0
 15 32  1  0  0  0  0
 16 17  1  0  0  0  0
 16 33  1  0  0  0  0
 16 34  1  0  0  0  0
 17 18  2  0  0  0  0
 17 19  1  0  0  0  0
 19 35  1  0  0  0  0
 20 21  2  0  0  0  0
 20 36  1  0  0  0  0
 21 22  1  0  0  0  0
 21 37  1  0  0  0  0
 22 23  2  0  0  0  0
 22 24  1  0  0  0  0
 23 12  1  0  0  0  0
 23 38  1  0  0  0  0
 24 25  1  0  0  0  0
 25 39  1  0  0  0  0
 25 40  1  0  0  0  0
 25 41  1  0  0  0  0
M  END
>  <DRUGBANK_ID>
DB00328

>  <SECONDARY_ACCESSION_NUMBERS>
APRD00109

>  <COMMON_NAME>
Indomethacin

>  <CAS_NUMBER>
53-86-1

>  <UNII>
XXE1CET956

>  <SYNONYMS>
{1-[(4-chlorophenyl)carbonyl]-5-methoxy-2-methyl-1H-indol-3-yl}acetic acid; 1-(p-chlorobenzoyl)-5-methoxy-2-methylindole-3-acetic acid; Indometacin; Indometacina; Indometacine; Indometacinum; Indomethacin

$$$$
