
 OpenBabel10282417223D

 89 89  0  0  0  0  0  0  0  0999 V2000
    1.4142   -0.1729    1.2488 C   0  0  0  0  0  0  0  0  0  0  0  0
    0.6837   -1.4936    1.5920 N   0  3  0  0  0  0  0  0  0  0  0  0
    1.1364   -1.5832    2.9881 C   0  0  0  0  0  0  0  0  0  0  0  0
   -0.9079   -1.5028    1.6620 C   0  0  0  0  0  0  0  0  0  0  0  0
    1.1439   -2.5483    0.4660 C   0  0  0  0  0  0  0  0  0  0  0  0
    0.6769   -2.4714   -1.1066 C   0  0  0  0  0  0  0  0  0  0  0  0
    0.9842   -1.3055   -1.9482 O   0  0  0  0  0  0  0  0  0  0  0  0
    0.4076    0.1448   -1.2021 P   0  0  3  0  0  0  0  0  0  0  0  0
   -0.4919   -0.5947   -0.3061 O   0  5  0  0  0  0  0  0  0  0  0  0
    1.8199    0.7030   -1.1453 O   0  0  0  0  0  0  0  0  0  0  0  0
   -0.1691    1.5952   -0.4559 O   0  0  0  0  0  0  0  0  0  0  0  0
   -1.5872    1.7662   -0.5390 C   0  0  0  0  0  0  0  0  0  0  0  0
   -2.1402    1.6945   -1.9690 C   0  0  0  0  0  0  0  0  0  0  0  0
   -1.9195    0.3785   -2.7162 C   0  0  0  0  0  0  0  0  0  0  0  0
   -2.4887   -0.8159   -1.9340 C   0  0  0  0  0  0  0  0  0  0  0  0
   -3.9851   -0.8556   -1.9693 C   0  0  0  0  0  0  0  0  0  0  0  0
   -4.3765   -1.0323   -3.4153 C   0  0  0  0  0  0  0  0  0  0  0  0
   -3.7167   -2.3175   -3.9572 C   0  0  0  0  0  0  0  0  0  0  0  0
   -4.1444   -3.5142   -3.0919 C   0  0  0  0  0  0  0  0  0  0  0  0
   -5.6746   -3.5451   -3.0502 C   0  0  0  0  0  0  0  0  0  0  0  0
   -6.1956   -3.6059   -4.4907 C   0  0  0  0  0  0  0  0  0  0  0  0
   -5.6596   -4.8762   -5.1556 C   0  0  0  0  0  0  0  0  0  0  0  0
   -6.1510   -6.0912   -4.3658 C   0  0  0  0  0  0  0  0  0  0  0  0
   -7.6824   -6.0948   -4.3516 C   0  0  0  0  0  0  0  0  0  0  0  0
   -8.2040   -6.1559   -5.7900 C   0  0  0  0  0  0  0  0  0  0  0  0
   -7.6908   -7.4273   -6.4713 C   0  0  0  0  0  0  0  0  0  0  0  0
   -8.1776   -8.6656   -5.7148 C   0  0  0  0  0  0  0  0  0  0  0  0
   -9.7082   -8.7058   -5.6780 C   0  0  0  0  0  0  0  0  0  0  0  0
  -10.2793   -8.7747   -7.0963 C   0  0  0  0  0  0  0  0  0  0  0  0
   -9.8235  -10.0185   -7.8141 C   0  0  0  0  0  0  0  0  0  0  0  0
   -9.2016   -9.9737   -9.0578 C   0  0  0  0  0  0  0  0  0  0  0  0
   -8.9562  -11.1481   -9.7678 C   0  0  0  0  0  0  0  0  0  0  0  0
   -9.2533  -12.3859   -9.1691 C   0  0  0  0  0  0  0  0  0  0  0  0
   -9.0785  -14.1363  -10.2681 I   0  0  0  0  0  0  0  0  0  0  0  0
   -9.7230  -12.4403   -7.8713 C   0  0  0  0  0  0  0  0  0  0  0  0
  -10.0467  -11.2713   -7.2019 C   0  0  0  0  0  0  0  0  0  0  0  0
    0.7343    0.6758    1.3151 H   0  0  0  0  0  0  0  0  0  0  0  0
    1.9851   -0.4321    0.3791 H   0  0  0  0  0  0  0  0  0  0  0  0
    2.2681    0.0702    1.8882 H   0  0  0  0  0  0  0  0  0  0  0  0
    0.7722   -0.6579    3.4749 H   0  0  0  0  0  0  0  0  0  0  0  0
    0.7054   -2.4547    3.4557 H   0  0  0  0  0  0  0  0  0  0  0  0
    2.2270   -1.5943    2.9906 H   0  0  0  0  0  0  0  0  0  0  0  0
   -1.3552   -2.0309    0.8023 H   0  0  0  0  0  0  0  0  0  0  0  0
   -1.2208   -2.1274    2.4974 H   0  0  0  0  0  0  0  0  0  0  0  0
   -1.2950   -0.4820    1.7932 H   0  0  0  0  0  0  0  0  0  0  0  0
    2.2351   -2.5264    0.4794 H   0  0  0  0  0  0  0  0  0  0  0  0
    0.7875   -3.5068    0.8530 H   0  0  0  0  0  0  0  0  0  0  0  0
    1.1456   -3.3187   -1.6223 H   0  0  0  0  0  0  0  0  0  0  0  0
   -0.3957   -2.6901   -1.1970 H   0  0  0  0  0  0  0  0  0  0  0  0
   -2.0871    1.0463    0.1188 H   0  0  0  0  0  0  0  0  0  0  0  0
   -1.8285    2.7420   -0.1087 H   0  0  0  0  0  0  0  0  0  0  0  0
   -3.2200    1.8756   -1.9272 H   0  0  0  0  0  0  0  0  0  0  0  0
   -1.7011    2.4983   -2.5644 H   0  0  0  0  0  0  0  0  0  0  0  0
   -2.3314    0.4578   -3.7230 H   0  0  0  0  0  0  0  0  0  0  0  0
   -0.8773    0.2272   -2.9965 H   0  0  0  0  0  0  0  0  0  0  0  0
   -2.0041   -1.7392   -2.2700 H   0  0  0  0  0  0  0  0  0  0  0  0
   -2.3435   -0.8175   -0.8664 H   0  0  0  0  0  0  0  0  0  0  0  0
   -4.3288   -1.6728   -1.3208 H   0  0  0  0  0  0  0  0  0  0  0  0
   -4.4019    0.0433   -1.5110 H   0  0  0  0  0  0  0  0  0  0  0  0
   -5.4644   -1.0273   -3.4841 H   0  0  0  0  0  0  0  0  0  0  0  0
   -4.0851   -0.1758   -4.0213 H   0  0  0  0  0  0  0  0  0  0  0  0
   -3.9765   -2.4358   -5.0109 H   0  0  0  0  0  0  0  0  0  0  0  0
   -2.6242   -2.2743   -4.0024 H   0  0  0  0  0  0  0  0  0  0  0  0
   -3.7124   -4.4380   -3.4884 H   0  0  0  0  0  0  0  0  0  0  0  0
   -3.7421   -3.4768   -2.0740 H   0  0  0  0  0  0  0  0  0  0  0  0
   -6.0213   -4.3745   -2.4299 H   0  0  0  0  0  0  0  0  0  0  0  0
   -6.0965   -2.6754   -2.5389 H   0  0  0  0  0  0  0  0  0  0  0  0
   -7.2853   -3.5413   -4.4962 H   0  0  0  0  0  0  0  0  0  0  0  0
   -5.9114   -2.7343   -5.0867 H   0  0  0  0  0  0  0  0  0  0  0  0
   -5.9614   -4.9001   -6.2055 H   0  0  0  0  0  0  0  0  0  0  0  0
   -4.5678   -4.8941   -5.2197 H   0  0  0  0  0  0  0  0  0  0  0  0
   -5.7309   -7.0050   -4.7922 H   0  0  0  0  0  0  0  0  0  0  0  0
   -5.7712   -6.1053   -3.3404 H   0  0  0  0  0  0  0  0  0  0  0  0
   -8.0452   -6.9234   -3.7391 H   0  0  0  0  0  0  0  0  0  0  0  0
   -8.0969   -5.2171   -3.8468 H   0  0  0  0  0  0  0  0  0  0  0  0
   -9.2949   -6.0935   -5.7910 H   0  0  0  0  0  0  0  0  0  0  0  0
   -7.9064   -5.2810   -6.3762 H   0  0  0  0  0  0  0  0  0  0  0  0
   -8.0040   -7.4344   -7.5176 H   0  0  0  0  0  0  0  0  0  0  0  0
   -6.5983   -7.4471   -6.5355 H   0  0  0  0  0  0  0  0  0  0  0  0
   -7.7630   -9.5638   -6.1817 H   0  0  0  0  0  0  0  0  0  0  0  0
   -7.7903   -8.6928   -4.6904 H   0  0  0  0  0  0  0  0  0  0  0  0
  -10.0324   -9.5525   -5.0658 H   0  0  0  0  0  0  0  0  0  0  0  0
  -10.1227   -7.8322   -5.1631 H   0  0  0  0  0  0  0  0  0  0  0  0
  -11.3727   -8.7678   -7.0590 H   0  0  0  0  0  0  0  0  0  0  0  0
  -10.0116   -7.8794   -7.6735 H   0  0  0  0  0  0  0  0  0  0  0  0
   -8.9186   -9.0158   -9.5086 H   0  0  0  0  0  0  0  0  0  0  0  0
   -8.5673  -11.0982  -10.7749 H   0  0  0  0  0  0  0  0  0  0  0  0
   -9.8906  -13.3923   -7.3601 H   0  0  0  0  0  0  0  0  0  0  0  0
  -10.4801  -11.3264   -6.2127 H   0  0  0  0  0  0  0  0  0  0  0  0
  1  2  1  0  0  0  0
  1 37  1  0  0  0  0
  1 38  1  0  0  0  0
  1 39  1  0  0  0  0
  2  3  1  0  0  0  0
  2  4  1  0  0  0  0
  2  5  1  0  0  0  0
  3 40  1  0  0  0  0
  3 41  1  0  0  0  0
  3 42  1  0  0  0  0
  4 43  1  0  0  0  0
  4 44  1  0  0  0  0
  4 45  1  0  0  0  0
  5  6  1  0  0  0  0
  5 46  1  0  0  0  0
  5 47  1  0  0  0  0
  6  7  1  0  0  0  0
  6 48  1  0  0  0  0
  6 49  1  0  0  0  0
  7  8  1  0  0  0  0
  8  9  1  0  0  0  0
  8 10  2  0  0  0  0
  8 11  1  0  0  0  0
 11 12  1  0  0  0  0
 12 13  1  0  0  0  0
 12 50  1  0  0  0  0
 12 51  1  0  0  0  0
 13 14  1  0  0  0  0
 13 52  1  0  0  0  0
 13 53  1  0  0  0  0
 14 15  1  0  0  0  0
 14 54  1  0  0  0  0
 14 55  1  0  0  0  0
 15 16  1  0  0  0  0
 15 56  1  0  0  0  0
 15 57  1  0  0  0  0
 16 17  1  0  0  0  0
 16 58  1  0  0  0  0
 16 59  1  0  0  0  0
 17 18  1  0  0  0  0
 17 60  1  0  0  0  0
 17 61  1  0  0  0  0
 18 19  1  0  0  0  0
 18 62  1  0  0  0  0
 18 63  1  0  0  0  0
 19 20  1  0  0  0  0
 19 64  1  0  0  0  0
 19 65  1  0  0  0  0
 20 21  1  0  0  0  0
 20 66  1  0  0  0  0
 20 67  1  0  0  0  0
 21 22  1  0  0  0  0
 21 68  1  0  0  0  0
 21 69  1  0  0  0  0
 22 23  1  0  0  0  0
 22 70  1  0  0  0  0
 22 71  1  0  0  0  0
 23 24  1  0  0  0  0
 23 72  1  0  0  0  0
 23 73  1  0  0  0  0
 24 25  1  0  0  0  0
 24 74  1  0  0  0  0
 24 75  1  0  0  0  0
 25 26  1  0  0  0  0
 25 76  1  0  0  0  0
 25 77  1  0  0  0  0
 26 27  1  0  0  0  0
 26 78  1  0  0  0  0
 26 79  1  0  0  0  0
 27 28  1  0  0  0  0
 27 80  1  0  0  0  0
 27 81  1  0  0  0  0
 28 29  1  0  0  0  0
 28 82  1  0  0  0  0
 28 83  1  0  0  0  0
 29 30  1  0  0  0  0
 29 84  1  0  0  0  0
 29 85  1  0  0  0  0
 30 31  2  0  0  0  0
 30 36  1  0  0  0  0
 31 32  1  0  0  0  0
 31 86  1  0  0  0  0
 32 33  2  0  0  0  0
 32 87  1  0  0  0  0
 33 34  1  0  0  0  0
 33 35  1  0  0  0  0
 35 36  2  0  0  0  0
 35 88  1  0  0  0  0
 36 89  1  0  0  0  0
M  ISO  1  34 131
M  CHG  2   2   1   9  -1
M  END
>  <DRUGBANK_ID>
DB15244

>  <COMMON_NAME>
Iopofosine I-131

>  <CAS_NUMBER>
873438-88-1

>  <UNII>
R048696O9L

>  <SYNONYMS>
18-(P-(131I )-IODOPHENYL)OCTADECYL PHOSPHOCHOLINE; 18-(p-(131I)-iodophenyl)octadecyl phosphocholine; 18-(p-[131]-iodophenyl)octadecyl phosphocholine; 2-((HYDROXY((18-(4-(131I)IODOPHENYL)OCTADECYL)OXY)PHOSPHINYL)OXY)-N,N,NTRIMETHYLETHANAMINIUM INNER SALT; Ethanaminium, 2-((hydroxy((18-(4-(iodo-131I)phenyl)octadecyl)oxy)phosphinyl)oxy)-N,N,N-trimethyl-, inner salt; I-131-CLR1404

$$$$
