
 OpenBabel10282417173D

 28 29  0  0  0  0  0  0  0  0999 V2000
    1.3436   -0.2193    0.0130 C   0  0  0  0  0  0  0  0  0  0  0  0
   -4.6638   -5.5715   -0.3739 C   0  0  0  0  0  0  0  0  0  0  0  0
    0.4759   -1.3101    0.0138 C   0  0  0  0  0  0  0  0  0  0  0  0
    0.8276    1.0741   -0.0012 C   0  0  0  0  0  0  0  0  0  0  0  0
   -4.1029   -4.6424    0.5022 C   0  0  0  0  0  0  0  0  0  0  0  0
   -5.5758   -5.1515   -1.3390 C   0  0  0  0  0  0  0  0  0  0  0  0
   -0.9096   -1.1136   -0.0231 C   0  0  0  0  0  0  0  0  0  0  0  0
   -0.5583    1.2748    0.0163 C   0  0  0  0  0  0  0  0  0  0  0  0
   -4.4526   -3.2905    0.4198 C   0  0  0  0  0  0  0  0  0  0  0  0
   -5.8777   -3.7910   -1.4660 C   0  0  0  0  0  0  0  0  0  0  0  0
   -1.4415    0.1820   -0.0470 C   0  0  0  0  0  0  0  0  0  0  0  0
   -5.3219   -2.8479   -0.5811 C   0  0  0  0  0  0  0  0  0  0  0  0
   -2.9074    0.4405   -0.1959 C   0  0  0  0  0  0  0  0  0  0  0  0
   -5.8347   -1.4494   -0.6209 C   0  0  0  0  0  0  0  0  0  0  0  0
   -3.3754    1.5742   -0.2011 O   0  0  0  0  0  0  0  0  0  0  0  0
   -7.0416   -1.2996   -0.8100 O   0  0  0  0  0  0  0  0  0  0  0  0
   -3.6059   -0.7256   -0.3591 O   0  0  0  0  0  0  0  0  0  0  0  0
   -5.0212   -0.3646   -0.4367 O   0  0  0  0  0  0  0  0  0  0  0  0
    2.4202   -0.3783    0.0289 H   0  0  0  0  0  0  0  0  0  0  0  0
   -4.3992   -6.6241   -0.2953 H   0  0  0  0  0  0  0  0  0  0  0  0
    0.8813   -2.3191    0.0217 H   0  0  0  0  0  0  0  0  0  0  0  0
    1.5048    1.9255   -0.0390 H   0  0  0  0  0  0  0  0  0  0  0  0
   -3.4143   -4.9786    1.2734 H   0  0  0  0  0  0  0  0  0  0  0  0
   -6.0637   -5.8845   -1.9790 H   0  0  0  0  0  0  0  0  0  0  0  0
   -1.5545   -1.9867   -0.0407 H   0  0  0  0  0  0  0  0  0  0  0  0
   -0.9404    2.2936    0.0669 H   0  0  0  0  0  0  0  0  0  0  0  0
   -4.0596   -2.6004    1.1598 H   0  0  0  0  0  0  0  0  0  0  0  0
   -6.5714   -3.4751   -2.2442 H   0  0  0  0  0  0  0  0  0  0  0  0
  1 19  1  0  0  0  0
  2 20  1  0  0  0  0
  3  1  2  0  0  0  0
  3 21  1  0  0  0  0
  4  1  1  0  0  0  0
  4 22  1  0  0  0  0
  5  2  2  0  0  0  0
  5 23  1  0  0  0  0
  6  2  1  0  0  0  0
  6 24  1  0  0  0  0
  7  3  1  0  0  0  0
  7 25  1  0  0  0  0
  8  4  2  0  0  0  0
  8 26  1  0  0  0  0
  9  5  1  0  0  0  0
  9 27  1  0  0  0  0
 10  6  2  0  0  0  0
 10 28  1  0  0  0  0
 11  7  2  0  0  0  0
 11  8  1  0  0  0  0
 12  9  2  0  0  0  0
 12 10  1  0  0  0  0
 13 11  1  0  0  0  0
 14 12  1  0  0  0  0
 15 13  2  0  0  0  0
 16 14  2  0  0  0  0
 17 13  1  0  0  0  0
 18 14  1  0  0  0  0
 18 17  1  0  0  0  0
M  END
>  <DRUGBANK_ID>
DB09096

>  <COMMON_NAME>
Benzoyl peroxide

>  <CAS_NUMBER>
94-36-0

>  <UNII>
W9WZN9A0GM

>  <SYNONYMS>
Benzoyl benzenecarboperoxoate; Benzoyl peroxide; Bepio; Per√≥xido de benzoilo

$$$$
