
 OpenBabel10282417143D

 78 82  0  0  0  0  0  0  0  0999 V2000
   -3.9934   -3.8917    1.2178 N   0  0  0  0  0  0  0  0  0  0  0  0
   -3.2878   -3.2805    2.4359 C   0  0  0  0  0  0  0  0  0  0  0  0
   -2.1876   -2.2469    2.2642 C   0  0  0  0  0  0  0  0  0  0  0  0
   -2.9049   -0.6165    1.6538 C   0  0  2  0  0  0  0  0  0  0  0  0
   -2.6500    0.4840    2.5629 N   0  0  0  0  0  0  0  0  0  0  0  0
   -1.3199    0.6701    2.8259 C   0  0  0  0  0  0  0  0  0  0  0  0
   -0.6054    2.1816    2.9940 C   0  0  0  0  0  0  0  0  0  0  0  0
   -4.1495   -0.0808    0.6586 C   0  0  0  0  0  0  0  0  0  0  0  0
   -4.8353   -0.7866   -0.2677 C   0  0  0  0  0  0  0  0  0  0  0  0
   -6.1651   -0.9547   -0.0207 C   0  0  0  0  0  0  0  0  0  0  0  0
   -6.7183    0.0466   -0.4769 C   0  0  0  0  0  0  0  0  0  0  0  0
   -5.9401    1.2396   -0.3554 C   0  0  0  0  0  0  0  0  0  0  0  0
   -4.5549    1.1322    0.2170 C   0  0  0  0  0  0  0  0  0  0  0  0
   -1.4053    3.2978    2.3014 C   0  0  0  0  0  0  0  0  0  0  0  0
   -0.8576    3.9814    1.0168 C   0  0  0  0  0  0  0  0  0  0  0  0
    0.6872    4.1365    0.9802 C   0  0  0  0  0  0  0  0  0  0  0  0
    1.5629    3.0447    1.6005 C   0  0  0  0  0  0  0  0  0  0  0  0
    0.9836    2.6515    2.9670 C   0  0  0  0  0  0  0  0  0  0  0  0
   -0.7867   -0.3784    2.9107 O   0  0  0  0  0  0  0  0  0  0  0  0
   -2.9111   -2.2393   -0.4185 C   0  0  0  0  0  0  0  0  0  0  0  0
   -1.7341   -2.9173   -0.8935 C   0  0  2  0  0  0  0  0  0  0  0  0
   -4.2681   -2.8874    0.2289 C   0  0  1  0  0  0  0  0  0  0  0  0
   -1.9948   -4.3657   -0.2746 C   0  0  0  0  0  0  0  0  0  0  0  0
   -3.4497   -4.7783    0.2083 C   0  0  2  0  0  0  0  0  0  0  0  0
   -0.3688   -2.1897   -0.7662 N   0  0  0  0  0  0  0  0  0  0  0  0
    0.6434   -2.8076   -1.4741 C   0  0  0  0  0  0  0  0  0  0  0  0
    0.3551   -1.0315   -0.3110 C   0  0  0  0  0  0  0  0  0  0  0  0
    1.7995   -2.2164   -1.3698 N   0  0  0  0  0  0  0  0  0  0  0  0
    1.6044   -1.0797   -0.7269 N   0  0  0  0  0  0  0  0  0  0  0  0
    0.1900    0.1781    0.5277 C   0  0  0  0  0  0  0  0  0  0  0  0
    0.4278   -4.0129   -2.2507 C   0  0  0  0  0  0  0  0  0  0  0  0
    1.2000    0.0466    1.9847 C   0  0  0  0  0  0  0  0  0  0  0  0
    0.0703    1.4663   -0.3108 C   0  0  0  0  0  0  0  0  0  0  0  0
   -5.0448   -3.3525   -1.0286 C   0  0  0  0  0  0  0  0  0  0  0  0
   -4.4903   -4.7154   -1.0211 C   0  0  0  0  0  0  0  0  0  0  0  0
    1.0930    4.3762   -0.2939 F   0  0  0  0  0  0  0  0  0  0  0  0
    0.9723    5.2695    1.6846 F   0  0  0  0  0  0  0  0  0  0  0  0
   -3.9630   -2.6253    3.0204 H   0  0  0  0  0  0  0  0  0  0  0  0
   -2.9824   -4.0432    3.1653 H   0  0  0  0  0  0  0  0  0  0  0  0
   -1.5185   -2.2421    3.1435 H   0  0  0  0  0  0  0  0  0  0  0  0
   -1.3860   -2.6759    1.5970 H   0  0  0  0  0  0  0  0  0  0  0  0
   -2.1485   -0.5301    0.8946 H   0  0  0  0  0  0  0  0  0  0  0  0
   -3.3186    1.2101    2.5349 H   0  0  0  0  0  0  0  0  0  0  0  0
   -0.7857    2.2244    4.0716 H   0  0  0  0  0  0  0  0  0  0  0  0
   -4.4742   -1.0310   -1.2817 H   0  0  0  0  0  0  0  0  0  0  0  0
   -6.6213   -1.9747    0.0551 H   0  0  0  0  0  0  0  0  0  0  0  0
   -7.6897   -0.1287   -0.9839 H   0  0  0  0  0  0  0  0  0  0  0  0
   -6.3506    2.1411   -0.7105 H   0  0  0  0  0  0  0  0  0  0  0  0
   -3.8409    1.9471    0.1172 H   0  0  0  0  0  0  0  0  0  0  0  0
   -2.4149    2.9377    2.1012 H   0  0  0  0  0  0  0  0  0  0  0  0
   -1.4752    4.0837    3.0523 H   0  0  0  0  0  0  0  0  0  0  0  0
   -1.2733    3.5191    0.1036 H   0  0  0  0  0  0  0  0  0  0  0  0
   -1.3354    4.9596    0.8959 H   0  0  0  0  0  0  0  0  0  0  0  0
    1.7610    2.1651    0.9943 H   0  0  0  0  0  0  0  0  0  0  0  0
    2.6044    3.3998    1.6701 H   0  0  0  0  0  0  0  0  0  0  0  0
    1.0777    3.5494    3.5883 H   0  0  0  0  0  0  0  0  0  0  0  0
    1.7133    1.9926    3.4649 H   0  0  0  0  0  0  0  0  0  0  0  0
   -2.5333   -2.1576    0.4995 H   0  0  0  0  0  0  0  0  0  0  0  0
   -2.7732   -1.2336   -0.8248 H   0  0  0  0  0  0  0  0  0  0  0  0
   -1.9436   -2.8507   -1.9708 H   0  0  0  0  0  0  0  0  0  0  0  0
   -4.8038   -2.3119    1.0059 H   0  0  0  0  0  0  0  0  0  0  0  0
   -1.7923   -5.0920   -1.0476 H   0  0  0  0  0  0  0  0  0  0  0  0
   -1.3454   -4.5182    0.5845 H   0  0  0  0  0  0  0  0  0  0  0  0
   -3.5017   -5.7821    0.6065 H   0  0  0  0  0  0  0  0  0  0  0  0
   -0.8327    0.2746    0.7444 H   0  0  0  0  0  0  0  0  0  0  0  0
    0.7941   -3.8383   -3.2553 H   0  0  0  0  0  0  0  0  0  0  0  0
    0.9240   -4.8214   -1.7225 H   0  0  0  0  0  0  0  0  0  0  0  0
   -0.6154   -4.2706   -2.3777 H   0  0  0  0  0  0  0  0  0  0  0  0
    2.2252    0.4079    1.9499 H   0  0  0  0  0  0  0  0  0  0  0  0
    0.8671    0.5209    2.9335 H   0  0  0  0  0  0  0  0  0  0  0  0
    1.2112   -0.9589    2.4402 H   0  0  0  0  0  0  0  0  0  0  0  0
   -0.6819    1.5192   -1.1158 H   0  0  0  0  0  0  0  0  0  0  0  0
   -0.4226    2.0472    0.4352 H   0  0  0  0  0  0  0  0  0  0  0  0
    0.9426    2.0135   -0.6648 H   0  0  0  0  0  0  0  0  0  0  0  0
   -4.7666   -2.8242   -1.9642 H   0  0  0  0  0  0  0  0  0  0  0  0
   -6.1495   -3.3371   -1.1314 H   0  0  0  0  0  0  0  0  0  0  0  0
   -4.0150   -4.8222   -1.9960 H   0  0  0  0  0  0  0  0  0  0  0  0
   -5.3835   -5.3351   -0.9061 H   0  0  0  0  0  0  0  0  0  0  0  0
  1  2  1  0  0  0  0
  1 22  1  0  0  0  0
  2  3  1  0  0  0  0
  2 38  1  0  0  0  0
  2 39  1  0  0  0  0
  3 40  1  0  0  0  0
  3 41  1  0  0  0  0
  4  8  1  0  0  0  0
  4 42  1  6  0  0  0
  4  5  1  0  0  0  0
  4  3  1  0  0  0  0
  5  6  1  0  0  0  0
  5 43  1  0  0  0  0
  6  7  1  0  0  0  0
  6 19  2  0  0  0  0
  7 14  1  0  0  0  0
  7 18  1  0  0  0  0
  7 44  1  0  0  0  0
  8  9  1  0  0  0  0
  8 13  2  0  0  0  0
  9 10  2  0  0  0  0
  9 45  1  0  0  0  0
 10 11  1  0  0  0  0
 10 46  1  0  0  0  0
 11 12  2  0  0  0  0
 11 47  1  0  0  0  0
 12 13  1  0  0  0  0
 12 48  1  0  0  0  0
 13 49  1  0  0  0  0
 14 15  1  0  0  0  0
 14 50  1  0  0  0  0
 14 51  1  0  0  0  0
 15 16  1  0  0  0  0
 15 52  1  0  0  0  0
 15 53  1  0  0  0  0
 16 17  1  0  0  0  0
 17 18  1  0  0  0  0
 17 54  1  0  0  0  0
 17 55  1  0  0  0  0
 18 56  1  0  0  0  0
 18 57  1  0  0  0  0
 20 58  1  0  0  0  0
 20 59  1  0  0  0  0
 21 20  1  0  0  0  0
 21 25  1  0  0  0  0
 21 60  1  6  0  0  0
 22 20  1  0  0  0  0
 22 34  1  0  0  0  0
 22 61  1  1  0  0  0
 23 21  1  0  0  0  0
 23 62  1  0  0  0  0
 23 63  1  0  0  0  0
 24 23  1  0  0  0  0
 24  1  1  0  0  0  0
 24 35  1  0  0  0  0
 24 64  1  1  0  0  0
 26 25  1  0  0  0  0
 26 31  1  0  0  0  0
 27 25  1  0  0  0  0
 27 30  1  0  0  0  0
 28 26  2  0  0  0  0
 29 27  2  0  0  0  0
 29 28  1  0  0  0  0
 30 32  1  0  0  0  0
 30 33  1  0  0  0  0
 30 65  1  0  0  0  0
 31 66  1  0  0  0  0
 31 67  1  0  0  0  0
 31 68  1  0  0  0  0
 32 69  1  0  0  0  0
 32 70  1  0  0  0  0
 32 71  1  0  0  0  0
 33 72  1  0  0  0  0
 33 73  1  0  0  0  0
 33 74  1  0  0  0  0
 34 35  1  0  0  0  0
 34 75  1  0  0  0  0
 34 76  1  0  0  0  0
 35 77  1  0  0  0  0
 35 78  1  0  0  0  0
 36 16  1  0  0  0  0
 37 16  1  0  0  0  0
M  END
>  <DRUGBANK_ID>
DB04835

>  <COMMON_NAME>
Maraviroc

>  <CAS_NUMBER>
376348-65-1

>  <UNII>
MD6P741W8A

>  <SYNONYMS>
Maraviroc; Maravirocum

$$$$
