
 OpenBabel10282417213D

 59 62  0  0  1  0  0  0  0  0999 V2000
   -0.0558   -5.4150    3.1042 C   0  0  0  0  0  0  0  0  0  0  0  0
    0.7390   -4.1239    3.3251 C   0  0  0  0  0  0  0  0  0  0  0  0
    2.1187   -4.3859    3.7074 O   0  0  0  0  0  0  0  0  0  0  0  0
    2.3472   -5.0479    4.8538 C   0  0  0  0  0  0  0  0  0  0  0  0
    1.4186   -5.4292    5.6098 O   0  0  0  0  0  0  0  0  0  0  0  0
    3.8242   -5.3628    5.1377 C   0  0  2  0  0  0  0  0  0  0  0  0
    3.9595   -5.5265    6.6438 C   0  0  0  0  0  0  0  0  0  0  0  0
    4.7647   -4.2997    4.7112 N   0  0  0  0  0  0  0  0  0  0  0  0
    4.6895   -4.0737    2.9472 P   0  0  1  0  0  0  0  0  0  0  0  0
    4.7355   -2.5770    3.2551 O   0  0  0  0  0  0  0  0  0  0  0  0
    6.5588   -4.6810    2.7190 C   0  0  0  0  0  0  0  0  0  0  0  0
    6.7345   -5.7691    1.8038 O   0  0  0  0  0  0  0  0  0  0  0  0
    6.6922   -5.5234    0.3913 C   0  0  1  0  0  0  0  0  0  0  0  0
    5.6097   -4.7979    0.0278 O   0  0  0  0  0  0  0  0  0  0  0  0
    5.4771   -3.4130   -0.7363 C   0  0  1  0  0  0  0  0  0  0  0  0
    4.7380   -2.1089   -0.0953 N   0  0  0  0  0  0  0  0  0  0  0  0
    5.3961   -1.3573    0.8572 C   0  0  0  0  0  0  0  0  0  0  0  0
    4.7191   -0.3421    1.3337 N   0  0  0  0  0  0  0  0  0  0  0  0
    3.4690   -0.4440    0.7857 C   0  0  0  0  0  0  0  0  0  0  0  0
    3.3837   -1.5478   -0.0895 C   0  0  0  0  0  0  0  0  0  0  0  0
    2.2160   -1.8601   -0.7335 N   0  0  0  0  0  0  0  0  0  0  0  0
    1.2111   -0.9407   -0.4726 C   0  0  0  0  0  0  0  0  0  0  0  0
    1.2141    0.1602    0.3158 N   0  0  0  0  0  0  0  0  0  0  0  0
    2.3527    0.4222    0.9788 C   0  0  0  0  0  0  0  0  0  0  0  0
    2.4144    1.5419    1.7922 N   0  0  0  0  0  0  0  0  0  0  0  0
    6.9014   -3.5461   -0.9992 C   0  0  0  0  0  0  0  0  0  0  0  0
    7.3960   -2.9026   -2.0560 F   0  0  0  0  0  0  0  0  0  0  0  0
    7.5278   -4.6304   -0.4259 C   0  0  0  0  0  0  0  0  0  0  0  0
    4.6164   -3.8541    1.2328 O   0  0  0  0  0  0  0  0  0  0  0  0
    3.5258   -4.8764    0.3446 C   0  0  0  0  0  0  0  0  0  0  0  0
    2.3232   -5.2678    0.7781 C   0  0  0  0  0  0  0  0  0  0  0  0
    1.5568   -6.1819   -0.0221 C   0  0  0  0  0  0  0  0  0  0  0  0
    1.9825   -6.7678   -1.2442 C   0  0  0  0  0  0  0  0  0  0  0  0
    3.1913   -6.4523   -1.7516 C   0  0  0  0  0  0  0  0  0  0  0  0
    3.8820   -5.5352   -0.9990 C   0  0  0  0  0  0  0  0  0  0  0  0
    0.4330   -6.1105    2.4192 H   0  0  0  0  0  0  0  0  0  0  0  0
   -1.0503   -5.1999    2.7101 H   0  0  0  0  0  0  0  0  0  0  0  0
   -0.1556   -5.9904    4.0227 H   0  0  0  0  0  0  0  0  0  0  0  0
    0.7648   -3.5602    2.3780 H   0  0  0  0  0  0  0  0  0  0  0  0
    0.2845   -3.4472    4.0454 H   0  0  0  0  0  0  0  0  0  0  0  0
    4.0994   -6.2971    4.6283 H   0  0  0  0  0  0  0  0  0  0  0  0
    3.3577   -6.3747    6.9914 H   0  0  0  0  0  0  0  0  0  0  0  0
    4.9923   -5.6936    6.9571 H   0  0  0  0  0  0  0  0  0  0  0  0
    3.5790   -4.6285    7.1442 H   0  0  0  0  0  0  0  0  0  0  0  0
    4.4581   -3.3989    5.0817 H   0  0  0  0  0  0  0  0  0  0  0  0
    7.1609   -3.8444    2.3895 H   0  0  0  0  0  0  0  0  0  0  0  0
    6.8690   -5.0216    3.7150 H   0  0  0  0  0  0  0  0  0  0  0  0
    6.5071   -6.5532    0.0091 H   0  0  0  0  0  0  0  0  0  0  0  0
    4.7488   -3.5445   -1.5554 H   0  0  0  0  0  0  0  0  0  0  0  0
    6.3393   -1.7026    1.2367 H   0  0  0  0  0  0  0  0  0  0  0  0
    0.2531   -1.0810   -0.9853 H   0  0  0  0  0  0  0  0  0  0  0  0
    3.2776    1.7038    2.2953 H   0  0  0  0  0  0  0  0  0  0  0  0
    1.6452    2.1908    1.8439 H   0  0  0  0  0  0  0  0  0  0  0  0
    8.4429   -5.0420   -0.7835 H   0  0  0  0  0  0  0  0  0  0  0  0
    1.9704   -4.8918    1.6854 H   0  0  0  0  0  0  0  0  0  0  0  0
    0.5697   -6.4823    0.3106 H   0  0  0  0  0  0  0  0  0  0  0  0
    1.3789   -7.4740   -1.7991 H   0  0  0  0  0  0  0  0  0  0  0  0
    3.6569   -6.8618   -2.6506 H   0  0  0  0  0  0  0  0  0  0  0  0
    4.8275   -5.4563   -1.5462 H   0  0  0  0  0  0  0  0  0  0  0  0
  1  2  1  0  0  0  0
  1 36  1  0  0  0  0
  1 37  1  0  0  0  0
  1 38  1  0  0  0  0
  2  3  1  0  0  0  0
  2 39  1  0  0  0  0
  2 40  1  0  0  0  0
  3  4  1  0  0  0  0
  4  5  2  0  0  0  0
  6  8  1  0  0  0  0
  6 41  1  6  0  0  0
  6  7  1  0  0  0  0
  6  4  1  0  0  0  0
  7 42  1  0  0  0  0
  7 43  1  0  0  0  0
  7 44  1  0  0  0  0
  8 45  1  0  0  0  0
  9  8  1  0  0  0  0
  9 10  2  1  0  0  0
  9 11  1  0  0  0  0
  9 29  1  0  0  0  0
 11 12  1  0  0  0  0
 11 46  1  0  0  0  0
 11 47  1  0  0  0  0
 13 14  1  0  0  0  0
 13 28  1  0  0  0  0
 13 48  1  6  0  0  0
 13 12  1  0  0  0  0
 15 14  1  0  0  0  0
 15 26  1  0  0  0  0
 15 49  1  6  0  0  0
 15 16  1  0  0  0  0
 16 17  1  0  0  0  0
 16 20  1  0  0  0  0
 17 18  2  0  0  0  0
 17 50  1  0  0  0  0
 18 19  1  0  0  0  0
 19 20  2  0  0  0  0
 19 24  1  0  0  0  0
 20 21  1  0  0  0  0
 21 22  2  0  0  0  0
 22 23  1  0  0  0  0
 22 51  1  0  0  0  0
 23 24  2  0  0  0  0
 24 25  1  0  0  0  0
 25 52  1  0  0  0  0
 25 53  1  0  0  0  0
 26 27  1  0  0  0  0
 26 28  2  0  0  0  0
 28 54  1  0  0  0  0
 29 30  1  0  0  0  0
 30 31  2  0  0  0  0
 30 35  1  0  0  0  0
 31 32  1  0  0  0  0
 31 55  1  0  0  0  0
 32 33  2  0  0  0  0
 32 56  1  0  0  0  0
 33 34  1  0  0  0  0
 33 57  1  0  0  0  0
 34 35  2  0  0  0  0
 34 58  1  0  0  0  0
 35 59  1  0  0  0  0
M  END
>  <DRUGBANK_ID>
DB14903

>  <COMMON_NAME>
Rovafovir etalafenamide

>  <CAS_NUMBER>
912809-27-9

>  <UNII>
U8S0IC8DY7

>  <SYNONYMS>
Rovafovir etalafenamide

$$$$
