
 OpenBabel10282417223D

  4  3  0  0  0  0  0  0  0  0999 V2000
    0.9922    0.0897   -0.0045 C   0  0  0  0  0  0  0  0  0  0  0  0
   -0.2081    0.0897   -0.0045 C   0  0  0  0  0  0  0  0  0  0  0  0
    2.0581    0.0897   -0.0045 H   0  0  0  0  0  0  0  0  0  0  0  0
   -1.2739    0.0897   -0.0045 H   0  0  0  0  0  0  0  0  0  0  0  0
  1  2  3  0  0  0  0
  1  3  1  0  0  0  0
  2  4  1  0  0  0  0
M  END
>  <DRUGBANK_ID>
DB15906

>  <COMMON_NAME>
Acetylene

>  <CAS_NUMBER>
74-86-2

>  <UNII>
OC7TV75O83

>  <SYNONYMS>
Ethine; Ethyne

$$$$
