
 OpenBabel10282417133D

112113  0  0  0  0  0  0  0  0999 V2000
    3.0184   -3.6551    2.5618 O   0  0  0  0  0  0  0  0  0  0  0  0
   -3.2553   -1.0504    3.9209 O   0  0  0  0  0  0  0  0  0  0  0  0
    3.4321   -8.4825    4.2098 O   0  0  0  0  0  0  0  0  0  0  0  0
   -1.2553   -0.9518    8.8814 O   0  0  0  0  0  0  0  0  0  0  0  0
    0.6415   -3.6627    4.3166 N   0  0  0  0  0  0  0  0  0  0  0  0
   -0.3050   -3.3918    5.3755 N   0  0  0  0  0  0  0  0  0  0  0  0
    3.4880   -5.6930    2.0432 N   0  0  0  0  0  0  0  0  0  0  0  0
   -2.7763    0.0434    5.7874 N   0  0  0  0  0  0  0  0  0  0  0  0
    5.4385   -7.4251    4.0636 N   0  0  0  0  0  0  0  0  0  0  0  0
   -3.5177   -0.9123    8.8634 N   0  0  0  0  0  0  0  0  0  0  0  0
    6.2148  -10.7256    0.4733 N   0  0  0  0  0  0  0  0  0  0  0  0
   -2.6038    3.6686   10.4920 N   0  0  0  0  0  0  0  0  0  0  0  0
    1.0836   -5.1215    2.3204 C   0  0  2  0  0  0  0  0  0  0  0  0
   -0.9180   -0.9087    4.5499 C   0  0  1  0  0  0  0  0  0  0  0  0
    0.5602   -4.2046    1.1737 C   0  0  0  0  0  0  0  0  0  0  0  0
   -0.1808    0.4871    4.4147 C   0  0  0  0  0  0  0  0  0  0  0  0
    0.5283   -5.0030    3.7589 C   0  0  0  0  0  0  0  0  0  0  0  0
   -0.4102   -1.9414    5.6799 C   0  0  0  0  0  0  0  0  0  0  0  0
   -0.8837   -4.1996    0.6329 C   0  0  0  0  0  0  0  0  0  0  0  0
    1.2180    0.3803    5.0008 C   0  0  0  0  0  0  0  0  0  0  0  0
    2.5649   -4.7890    2.3628 C   0  0  0  0  0  0  0  0  0  0  0  0
   -2.3751   -0.6646    4.7256 C   0  0  0  0  0  0  0  0  0  0  0  0
    3.4562   -7.1182    2.1802 C   0  0  1  0  0  0  0  0  0  0  0  0
   -2.0327    0.3970    6.9858 C   0  0  1  0  0  0  0  0  0  0  0  0
    3.8276   -7.6870    0.7804 C   0  0  0  0  0  0  0  0  0  0  0  0
   -2.0271    1.9452    7.0920 C   0  0  0  0  0  0  0  0  0  0  0  0
   -2.0106   -4.3759    1.6332 C   0  0  0  0  0  0  0  0  0  0  0  0
    1.8962   -0.8038    4.3254 C   0  0  0  0  0  0  0  0  0  0  0  0
    5.3071   -7.7246    0.4993 C   0  0  0  0  0  0  0  0  0  0  0  0
   -3.2935    2.4964    7.6719 C   0  0  0  0  0  0  0  0  0  0  0  0
    5.9463   -8.7225    1.4233 C   0  0  0  0  0  0  0  0  0  0  0  0
   -3.3745    2.0885    9.1142 C   0  0  0  0  0  0  0  0  0  0  0  0
    4.1052   -7.6369    3.5882 C   0  0  0  0  0  0  0  0  0  0  0  0
   -2.2733   -0.5977    8.2562 C   0  0  0  0  0  0  0  0  0  0  0  0
   -1.9133   -3.2876    2.6471 C   0  0  0  0  0  0  0  0  0  0  0  0
    2.1049   -0.6927    2.8449 C   0  0  0  0  0  0  0  0  0  0  0  0
    5.5757  -10.1503    1.6151 C   0  0  0  0  0  0  0  0  0  0  0  0
   -2.3456    2.2999   10.1707 C   0  0  0  0  0  0  0  0  0  0  0  0
    6.5320   -6.7025    3.4214 C   0  0  0  0  0  0  0  0  0  0  0  0
   -4.8251   -0.3804    8.5287 C   0  0  0  0  0  0  0  0  0  0  0  0
    6.2629   -5.4334    2.9645 C   0  0  0  0  0  0  0  0  0  0  0  0
    7.7695   -7.2787    3.0042 C   0  0  0  0  0  0  0  0  0  0  0  0
   -5.2104   -0.4177    7.2077 C   0  0  0  0  0  0  0  0  0  0  0  0
   -5.6206    0.4066    9.4056 C   0  0  0  0  0  0  0  0  0  0  0  0
    6.9819   -4.8582    1.9057 C   0  0  0  0  0  0  0  0  0  0  0  0
    8.5244   -6.6820    1.9477 C   0  0  0  0  0  0  0  0  0  0  0  0
   -6.1366    0.4930    6.6792 C   0  0  0  0  0  0  0  0  0  0  0  0
   -6.6019    1.2973    8.8817 C   0  0  0  0  0  0  0  0  0  0  0  0
    8.0988   -5.4899    1.3704 C   0  0  0  0  0  0  0  0  0  0  0  0
   -6.8263    1.3674    7.5096 C   0  0  0  0  0  0  0  0  0  0  0  0
    1.6198   -3.3733    4.4271 H   0  0  0  0  0  0  0  0  0  0  0  0
   -1.2475   -3.6785    5.1083 H   0  0  0  0  0  0  0  0  0  0  0  0
    4.3616   -5.2527    1.8102 H   0  0  0  0  0  0  0  0  0  0  0  0
   -3.7328    0.3397    5.6976 H   0  0  0  0  0  0  0  0  0  0  0  0
    5.7078   -8.2514    4.5991 H   0  0  0  0  0  0  0  0  0  0  0  0
   -3.3384   -1.0820    9.8532 H   0  0  0  0  0  0  0  0  0  0  0  0
    5.9188  -11.6771    0.3387 H   0  0  0  0  0  0  0  0  0  0  0  0
    5.9651  -10.1672   -0.3412 H   0  0  0  0  0  0  0  0  0  0  0  0
   -1.8763    4.0407   11.0784 H   0  0  0  0  0  0  0  0  0  0  0  0
   -2.6416    4.1911    9.6183 H   0  0  0  0  0  0  0  0  0  0  0  0
    0.9216   -6.1544    2.0034 H   0  0  0  0  0  0  0  0  0  0  0  0
   -0.7801   -1.3230    3.5524 H   0  0  0  0  0  0  0  0  0  0  0  0
    0.7775   -3.1733    1.4707 H   0  0  0  0  0  0  0  0  0  0  0  0
    1.2037   -4.3690    0.2932 H   0  0  0  0  0  0  0  0  0  0  0  0
   -0.1198    0.7752    3.3531 H   0  0  0  0  0  0  0  0  0  0  0  0
   -0.7216    1.3387    4.8284 H   0  0  0  0  0  0  0  0  0  0  0  0
   -0.5154   -5.3235    3.7448 H   0  0  0  0  0  0  0  0  0  0  0  0
    1.0522   -5.6911    4.4315 H   0  0  0  0  0  0  0  0  0  0  0  0
   -1.0915   -1.9064    6.5214 H   0  0  0  0  0  0  0  0  0  0  0  0
    0.5395   -1.6719    6.1488 H   0  0  0  0  0  0  0  0  0  0  0  0
   -1.0099   -3.2066    0.1719 H   0  0  0  0  0  0  0  0  0  0  0  0
   -1.0148   -4.9163   -0.1825 H   0  0  0  0  0  0  0  0  0  0  0  0
    1.8162    1.2858    4.9107 H   0  0  0  0  0  0  0  0  0  0  0  0
    1.0990    0.2230    6.0815 H   0  0  0  0  0  0  0  0  0  0  0  0
    2.4029   -7.4012    2.2840 H   0  0  0  0  0  0  0  0  0  0  0  0
   -0.9769    0.2172    6.7763 H   0  0  0  0  0  0  0  0  0  0  0  0
    3.4160   -8.6884    0.6480 H   0  0  0  0  0  0  0  0  0  0  0  0
    3.3704   -7.0619   -0.0036 H   0  0  0  0  0  0  0  0  0  0  0  0
   -1.1680    2.2936    7.6705 H   0  0  0  0  0  0  0  0  0  0  0  0
   -1.9215    2.3979    6.0963 H   0  0  0  0  0  0  0  0  0  0  0  0
   -2.9909   -4.2752    1.1619 H   0  0  0  0  0  0  0  0  0  0  0  0
   -1.9551   -5.3657    2.0936 H   0  0  0  0  0  0  0  0  0  0  0  0
    2.6754   -1.2746    4.9293 H   0  0  0  0  0  0  0  0  0  0  0  0
    1.1735   -1.5766    4.2608 H   0  0  0  0  0  0  0  0  0  0  0  0
    5.5900   -7.9295   -0.5332 H   0  0  0  0  0  0  0  0  0  0  0  0
    5.6853   -6.7151    0.6790 H   0  0  0  0  0  0  0  0  0  0  0  0
   -3.4249    3.5716    7.5649 H   0  0  0  0  0  0  0  0  0  0  0  0
   -4.1113    2.0636    7.0894 H   0  0  0  0  0  0  0  0  0  0  0  0
    7.0209   -8.6508    1.3291 H   0  0  0  0  0  0  0  0  0  0  0  0
    5.6414   -8.4235    2.3701 H   0  0  0  0  0  0  0  0  0  0  0  0
   -4.3499    2.3576    9.4955 H   0  0  0  0  0  0  0  0  0  0  0  0
   -3.2725    1.0551    9.0934 H   0  0  0  0  0  0  0  0  0  0  0  0
   -2.1146   -2.3069    2.2207 H   0  0  0  0  0  0  0  0  0  0  0  0
   -2.5113   -3.4837    3.5372 H   0  0  0  0  0  0  0  0  0  0  0  0
   -0.8848   -3.2056    2.9243 H   0  0  0  0  0  0  0  0  0  0  0  0
    2.9036   -0.0035    2.6218 H   0  0  0  0  0  0  0  0  0  0  0  0
    2.3279   -1.6755    2.4492 H   0  0  0  0  0  0  0  0  0  0  0  0
    1.1795   -0.4296    2.3207 H   0  0  0  0  0  0  0  0  0  0  0  0
    6.0181  -10.4871    2.5693 H   0  0  0  0  0  0  0  0  0  0  0  0
    4.4934  -10.2963    1.7040 H   0  0  0  0  0  0  0  0  0  0  0  0
   -2.5678    1.6114   11.0047 H   0  0  0  0  0  0  0  0  0  0  0  0
   -1.3301    2.0586    9.8345 H   0  0  0  0  0  0  0  0  0  0  0  0
    5.3955   -4.9355    3.3768 H   0  0  0  0  0  0  0  0  0  0  0  0
    8.0541   -8.3093    3.2416 H   0  0  0  0  0  0  0  0  0  0  0  0
   -4.6828   -1.1039    6.5585 H   0  0  0  0  0  0  0  0  0  0  0  0
   -5.3414    0.5836   10.4490 H   0  0  0  0  0  0  0  0  0  0  0  0
    6.5970   -3.9529    1.4446 H   0  0  0  0  0  0  0  0  0  0  0  0
    9.3607   -7.2096    1.4782 H   0  0  0  0  0  0  0  0  0  0  0  0
   -6.2471    0.5653    5.6002 H   0  0  0  0  0  0  0  0  0  0  0  0
   -7.0954    2.0321    9.5228 H   0  0  0  0  0  0  0  0  0  0  0  0
    8.6022   -5.0702    0.4991 H   0  0  0  0  0  0  0  0  0  0  0  0
   -7.5046    2.1067    7.0843 H   0  0  0  0  0  0  0  0  0  0  0  0
  1 21  2  0  0  0  0
  2 22  2  0  0  0  0
  3 33  2  0  0  0  0
  4 34  2  0  0  0  0
  5  6  1  0  0  0  0
  5 17  1  0  0  0  0
  5 51  1  0  0  0  0
  6 18  1  0  0  0  0
  6 52  1  0  0  0  0
  7 21  1  0  0  0  0
  7 53  1  0  0  0  0
  8 22  1  0  0  0  0
  8 54  1  0  0  0  0
  9 33  1  0  0  0  0
  9 39  1  0  0  0  0
  9 55  1  0  0  0  0
 10 34  1  0  0  0  0
 10 40  1  0  0  0  0
 10 56  1  0  0  0  0
 11 37  1  0  0  0  0
 11 57  1  0  0  0  0
 11 58  1  0  0  0  0
 12 38  1  0  0  0  0
 12 59  1  0  0  0  0
 12 60  1  0  0  0  0
 13 21  1  0  0  0  0
 13 61  1  6  0  0  0
 13 17  1  0  0  0  0
 13 15  1  0  0  0  0
 14 22  1  0  0  0  0
 14 62  1  6  0  0  0
 14 18  1  0  0  0  0
 14 16  1  0  0  0  0
 15 19  1  0  0  0  0
 15 63  1  0  0  0  0
 15 64  1  0  0  0  0
 16 20  1  0  0  0  0
 16 65  1  0  0  0  0
 16 66  1  0  0  0  0
 17 67  1  0  0  0  0
 17 68  1  0  0  0  0
 18 69  1  0  0  0  0
 18 70  1  0  0  0  0
 19 27  1  0  0  0  0
 19 71  1  0  0  0  0
 19 72  1  0  0  0  0
 20 28  1  0  0  0  0
 20 73  1  0  0  0  0
 20 74  1  0  0  0  0
 23  7  1  0  0  0  0
 23 25  1  0  0  0  0
 23 33  1  0  0  0  0
 23 75  1  1  0  0  0
 24  8  1  0  0  0  0
 24 26  1  0  0  0  0
 24 34  1  0  0  0  0
 24 76  1  6  0  0  0
 25 29  1  0  0  0  0
 25 77  1  0  0  0  0
 25 78  1  0  0  0  0
 26 30  1  0  0  0  0
 26 79  1  0  0  0  0
 26 80  1  0  0  0  0
 27 35  1  0  0  0  0
 27 81  1  0  0  0  0
 27 82  1  0  0  0  0
 28 36  1  0  0  0  0
 28 83  1  0  0  0  0
 28 84  1  0  0  0  0
 29 31  1  0  0  0  0
 29 85  1  0  0  0  0
 29 86  1  0  0  0  0
 30 32  1  0  0  0  0
 30 87  1  0  0  0  0
 30 88  1  0  0  0  0
 31 37  1  0  0  0  0
 31 89  1  0  0  0  0
 31 90  1  0  0  0  0
 32 38  1  0  0  0  0
 32 91  1  0  0  0  0
 32 92  1  0  0  0  0
 35 93  1  0  0  0  0
 35 94  1  0  0  0  0
 35 95  1  0  0  0  0
 36 96  1  0  0  0  0
 36 97  1  0  0  0  0
 36 98  1  0  0  0  0
 37 99  1  0  0  0  0
 37100  1  0  0  0  0
 38101  1  0  0  0  0
 38102  1  0  0  0  0
 39 41  2  0  0  0  0
 39 42  1  0  0  0  0
 40 43  2  0  0  0  0
 40 44  1  0  0  0  0
 41 45  1  0  0  0  0
 41103  1  0  0  0  0
 42 46  2  0  0  0  0
 42104  1  0  0  0  0
 43 47  1  0  0  0  0
 43105  1  0  0  0  0
 44 48  2  0  0  0  0
 44106  1  0  0  0  0
 45 49  2  0  0  0  0
 45107  1  0  0  0  0
 46 49  1  0  0  0  0
 46108  1  0  0  0  0
 47 50  2  0  0  0  0
 47109  1  0  0  0  0
 48 50  1  0  0  0  0
 48110  1  0  0  0  0
 49111  1  0  0  0  0
 50112  1  0  0  0  0
M  END
>  <DRUGBANK_ID>
DB03648

>  <SECONDARY_ACCESSION_NUMBERS>
EXPT00713

>  <COMMON_NAME>
(2S,2'S)-2,2'-(1,2-Hydrazinediylbis{methylene[(2S)-1-oxo-2,1-hexanediyl]imino})bis(6-amino-N-phenylhexanamide)

$$$$
