
 OpenBabel10282417123D

 16 17  0  0  0  0  0  0  0  0999 V2000
    2.9386   -0.7687    0.0868 O   0  0  0  0  0  0  0  0  0  0  0  0
    1.7507   -0.5559    0.0089 C   0  0  0  0  0  0  0  0  0  0  0  0
    0.7212   -1.4741   -0.0689 N   0  0  0  0  0  0  0  0  0  0  0  0
   -0.5162   -0.8371   -0.0528 C   0  0  0  0  0  0  0  0  0  0  0  0
   -1.7608   -1.4291   -0.0918 C   0  0  0  0  0  0  0  0  0  0  0  0
   -2.8776   -0.5864   -0.0248 C   0  0  0  0  0  0  0  0  0  0  0  0
   -2.7303    0.8121    0.0850 C   0  0  0  0  0  0  0  0  0  0  0  0
   -1.4622    1.3985    0.1042 C   0  0  0  0  0  0  0  0  0  0  0  0
   -0.3784    0.5473    0.0252 C   0  0  0  0  0  0  0  0  0  0  0  0
    1.0581    0.8362   -0.0023 C   0  0  0  0  0  0  0  0  0  0  0  0
    1.5882    1.9194   -0.0750 O   0  0  0  0  0  0  0  0  0  0  0  0
    0.8793   -2.4706   -0.0859 H   0  0  0  0  0  0  0  0  0  0  0  0
   -1.8836   -2.5034   -0.1729 H   0  0  0  0  0  0  0  0  0  0  0  0
   -3.8784   -1.0149   -0.0551 H   0  0  0  0  0  0  0  0  0  0  0  0
   -3.6172    1.4402    0.1510 H   0  0  0  0  0  0  0  0  0  0  0  0
   -1.3331    2.4728    0.1830 H   0  0  0  0  0  0  0  0  0  0  0  0
  1  2  2  0  0  0  0
  2  3  1  0  0  0  0
  2 10  1  0  0  0  0
  3  4  1  0  0  0  0
  3 12  1  0  0  0  0
  4  5  2  0  0  0  0
  4  9  1  0  0  0  0
  5  6  1  0  0  0  0
  5 13  1  0  0  0  0
  6  7  2  0  0  0  0
  6 14  1  0  0  0  0
  7  8  1  0  0  0  0
  7 15  1  0  0  0  0
  8  9  2  0  0  0  0
  8 16  1  0  0  0  0
  9 10  1  0  0  0  0
 10 11  2  0  0  0  0
M  END
>  <DRUGBANK_ID>
DB02095

>  <SECONDARY_ACCESSION_NUMBERS>
EXPT01935

>  <COMMON_NAME>
Isatin

>  <CAS_NUMBER>
91-56-5

>  <UNII>
82X95S7M06

>  <SYNONYMS>
1H-indole-2,3-dione

$$$$
