
 OpenBabel10282417143D

 51 52  0  0  1  0  0  0  0  0999 V2000
    7.3320    0.5407    9.0861 C   0  0  0  0  0  0  0  0  0  0  0  0
    8.1320   -0.6266    8.7349 N   0  0  0  0  0  0  0  0  0  0  0  0
    9.4881   -0.4303    8.2518 C   0  0  0  0  0  0  0  0  0  0  0  0
    7.4982   -1.8705    8.7009 C   0  0  0  0  0  0  0  0  0  0  0  0
    6.2305   -1.9526    8.0871 C   0  0  0  0  0  0  0  0  0  0  0  0
    5.4603   -3.0830    8.2044 C   0  0  0  0  0  0  0  0  0  0  0  0
    5.9425   -4.1188    8.9845 C   0  0  0  0  0  0  0  0  0  0  0  0
    7.2993   -4.2485    9.3697 C   0  0  0  0  0  0  0  0  0  0  0  0
    8.0612   -3.0607    9.2962 C   0  0  0  0  0  0  0  0  0  0  0  0
    9.3349   -3.1100    9.9091 C   0  0  0  0  0  0  0  0  0  0  0  0
    9.9444   -4.2750   10.3658 C   0  0  0  0  0  0  0  0  0  0  0  0
    9.2554   -5.4629   10.2992 C   0  0  0  0  0  0  0  0  0  0  0  0
    7.9314   -5.4561    9.8424 C   0  0  0  0  0  0  0  0  0  0  0  0
    7.2022   -7.0842    9.8039 S   0  0  0  0  0  0  0  0  0  0  0  0
    8.1091   -7.9719    9.1209 O   0  0  0  0  0  0  0  0  0  0  0  0
    6.7642   -7.4010   11.1512 O   0  0  0  0  0  0  0  0  0  0  0  0
    5.8027   -6.9651    8.8836 N   0  0  0  0  0  0  0  0  0  0  0  0
    5.8962   -6.5062    7.5017 C   0  0  0  0  0  0  0  0  0  0  0  0
    6.6561   -7.4761    6.6789 C   0  0  0  0  0  0  0  0  0  0  0  0
    5.8978   -8.7827    6.6187 C   0  0  0  0  0  0  0  0  0  0  0  0
    4.5894   -8.5945    5.8546 C   0  0  0  0  0  0  0  0  0  0  0  0
    4.8010   -8.0081    4.4347 C   0  0  2  0  0  0  0  0  0  0  0  0
    3.8939   -8.6863    3.5052 N   0  0  0  0  0  0  0  0  0  0  0  0
    6.2487   -8.1801    3.8787 C   0  0  0  0  0  0  0  0  0  0  0  0
    6.8852   -7.0195    3.5669 O   0  0  0  0  0  0  0  0  0  0  0  0
    6.8201   -9.2592    3.7909 O   0  0  0  0  0  0  0  0  0  0  0  0
    7.9408    1.4489    9.1036 H   0  0  0  0  0  0  0  0  0  0  0  0
    6.9078    0.4145   10.0887 H   0  0  0  0  0  0  0  0  0  0  0  0
    6.5150    0.7249    8.3804 H   0  0  0  0  0  0  0  0  0  0  0  0
   10.2447   -0.9007    8.8749 H   0  0  0  0  0  0  0  0  0  0  0  0
    9.6088   -0.8067    7.2333 H   0  0  0  0  0  0  0  0  0  0  0  0
    9.7615    0.6283    8.2718 H   0  0  0  0  0  0  0  0  0  0  0  0
    5.8027   -1.1142    7.5453 H   0  0  0  0  0  0  0  0  0  0  0  0
    4.4869   -3.1658    7.7278 H   0  0  0  0  0  0  0  0  0  0  0  0
    5.2218   -4.8967    9.1985 H   0  0  0  0  0  0  0  0  0  0  0  0
    9.8834   -2.2019   10.1020 H   0  0  0  0  0  0  0  0  0  0  0  0
   10.9447   -4.2281   10.7857 H   0  0  0  0  0  0  0  0  0  0  0  0
    9.7296   -6.3781   10.6498 H   0  0  0  0  0  0  0  0  0  0  0  0
    5.1562   -7.7290    9.0851 H   0  0  0  0  0  0  0  0  0  0  0  0
    4.8857   -6.2900    7.1278 H   0  0  0  0  0  0  0  0  0  0  0  0
    6.4331   -5.5760    7.3526 H   0  0  0  0  0  0  0  0  0  0  0  0
    6.7840   -6.9583    5.7417 H   0  0  0  0  0  0  0  0  0  0  0  0
    7.6841   -7.6066    7.0057 H   0  0  0  0  0  0  0  0  0  0  0  0
    6.5181   -9.5480    6.1516 H   0  0  0  0  0  0  0  0  0  0  0  0
    5.6923   -9.1702    7.6237 H   0  0  0  0  0  0  0  0  0  0  0  0
    4.0609   -9.5540    5.8457 H   0  0  0  0  0  0  0  0  0  0  0  0
    3.8995   -7.9407    6.4136 H   0  0  0  0  0  0  0  0  0  0  0  0
    4.5496   -6.9384    4.4532 H   0  0  0  0  0  0  0  0  0  0  0  0
    2.9235   -8.4866    3.7265 H   0  0  0  0  0  0  0  0  0  0  0  0
    4.0239   -9.6933    3.6517 H   0  0  0  0  0  0  0  0  0  0  0  0
    6.4093   -6.1956    3.7813 H   0  0  0  0  0  0  0  0  0  0  0  0
  1  2  1  0  0  0  0
  1 27  1  0  0  0  0
  1 28  1  0  0  0  0
  1 29  1  0  0  0  0
  2  3  1  0  0  0  0
  2  4  1  0  0  0  0
  3 30  1  0  0  0  0
  3 31  1  0  0  0  0
  3 32  1  0  0  0  0
  4  5  2  0  0  0  0
  4  9  1  0  0  0  0
  5  6  1  0  0  0  0
  5 33  1  0  0  0  0
  6  7  2  0  0  0  0
  6 34  1  0  0  0  0
  7  8  1  0  0  0  0
  7 35  1  0  0  0  0
  8  9  2  0  0  0  0
  8 13  1  0  0  0  0
  9 10  1  0  0  0  0
 10 11  2  0  0  0  0
 10 36  1  0  0  0  0
 11 12  1  0  0  0  0
 11 37  1  0  0  0  0
 12 13  2  0  0  0  0
 12 38  1  0  0  0  0
 13 14  1  0  0  0  0
 14 15  2  0  0  0  0
 14 16  2  0  0  0  0
 14 17  1  0  0  0  0
 17 18  1  0  0  0  0
 17 39  1  0  0  0  0
 18 19  1  0  0  0  0
 18 40  1  0  0  0  0
 18 41  1  0  0  0  0
 19 20  1  0  0  0  0
 19 42  1  0  0  0  0
 19 43  1  0  0  0  0
 20 21  1  0  0  0  0
 20 44  1  0  0  0  0
 20 45  1  0  0  0  0
 21 46  1  0  0  0  0
 21 47  1  0  0  0  0
 22 24  1  0  0  0  0
 22 48  1  1  0  0  0
 22 23  1  0  0  0  0
 22 21  1  0  0  0  0
 23 49  1  0  0  0  0
 23 50  1  0  0  0  0
 24 25  1  0  0  0  0
 24 26  2  0  0  0  0
 25 51  1  0  0  0  0
M  END
>  <DRUGBANK_ID>
DB04676

>  <COMMON_NAME>
Dansyllysine

>  <CAS_NUMBER>
1101-84-4

>  <UNII>
EFF64524YR

>  <SYNONYMS>
DNS-lysine; N(epsilon)-Dansyl-L-lysine

$$$$
