
 OpenBabel10282417193D

 47 52  0  0  1  0  0  0  0  0999 V2000
   -0.5101   -0.6203    3.9174 C   0  0  0  0  0  0  0  0  0  0  0  0
   -1.4978   -0.4673    4.8727 C   0  0  0  0  0  0  0  0  0  0  0  0
   -2.8397   -0.4450    4.4836 C   0  0  0  0  0  0  0  0  0  0  0  0
   -3.1491   -0.7748    3.1470 C   0  0  0  0  0  0  0  0  0  0  0  0
   -2.1695   -1.0462    2.2008 C   0  0  0  0  0  0  0  0  0  0  0  0
   -0.8287   -0.8258    2.5661 C   0  0  0  0  0  0  0  0  0  0  0  0
   -2.7988   -1.6841    1.0617 C   0  0  0  0  0  0  0  0  0  0  0  0
   -4.1411   -1.3930    1.1951 C   0  0  0  0  0  0  0  0  0  0  0  0
   -4.3409   -0.8760    2.4661 N   0  0  0  0  0  0  0  0  0  0  0  0
   -2.0108   -2.6135    0.1474 C   0  0  1  0  0  0  0  0  0  0  0  0
   -1.7927   -3.9553    0.9272 C   0  0  1  0  0  0  0  0  0  0  0  0
   -2.1496   -5.0149   -0.0670 C   0  0  0  0  0  0  0  0  0  0  0  0
   -2.3317   -6.2091    0.1719 O   0  0  0  0  0  0  0  0  0  0  0  0
   -2.3452   -4.4554   -1.2760 N   0  0  0  0  0  0  0  0  0  0  0  0
   -2.4744   -3.0977   -1.2142 C   0  0  0  0  0  0  0  0  0  0  0  0
   -2.7952   -2.4220   -2.1796 O   0  0  0  0  0  0  0  0  0  0  0  0
   -0.4355   -4.0905    1.5575 C   0  0  0  0  0  0  0  0  0  0  0  0
   -0.0479   -3.4830    2.7433 C   0  0  0  0  0  0  0  0  0  0  0  0
    1.3047   -3.4768    2.7806 N   0  0  0  0  0  0  0  0  0  0  0  0
    1.6668   -4.6309    2.1551 C   0  0  0  0  0  0  0  0  0  0  0  0
    0.6030   -5.0452    1.3682 C   0  0  0  0  0  0  0  0  0  0  0  0
    0.7335   -6.2736    0.7146 C   0  0  0  0  0  0  0  0  0  0  0  0
    1.8878   -7.0293    0.9469 C   0  0  0  0  0  0  0  0  0  0  0  0
    2.9273   -6.5583    1.7584 C   0  0  0  0  0  0  0  0  0  0  0  0
    2.8400   -5.3233    2.3878 C   0  0  0  0  0  0  0  0  0  0  0  0
    3.8574   -4.7054    3.2961 C   0  0  0  0  0  0  0  0  0  0  0  0
    3.1994   -3.7562    4.3162 C   0  0  0  0  0  0  0  0  0  0  0  0
    2.2381   -2.7760    3.6495 C   0  0  0  0  0  0  0  0  0  0  0  0
    0.5194   -0.6994    4.2420 H   0  0  0  0  0  0  0  0  0  0  0  0
   -1.2037   -0.3497    5.9146 H   0  0  0  0  0  0  0  0  0  0  0  0
   -3.6019   -0.2085    5.2171 H   0  0  0  0  0  0  0  0  0  0  0  0
   -0.0393   -1.0447    1.8507 H   0  0  0  0  0  0  0  0  0  0  0  0
   -4.9885   -1.5538    0.5418 H   0  0  0  0  0  0  0  0  0  0  0  0
   -5.2334   -0.6159    2.8608 H   0  0  0  0  0  0  0  0  0  0  0  0
   -1.0831   -2.0752   -0.0917 H   0  0  0  0  0  0  0  0  0  0  0  0
   -2.5435   -4.0499    1.7225 H   0  0  0  0  0  0  0  0  0  0  0  0
   -2.5767   -5.0115   -2.0860 H   0  0  0  0  0  0  0  0  0  0  0  0
   -0.6367   -2.9963    3.4976 H   0  0  0  0  0  0  0  0  0  0  0  0
   -0.0757   -6.7057    0.1400 H   0  0  0  0  0  0  0  0  0  0  0  0
    1.9484   -8.0169    0.5019 H   0  0  0  0  0  0  0  0  0  0  0  0
    3.8006   -7.1783    1.9213 H   0  0  0  0  0  0  0  0  0  0  0  0
    4.4029   -5.4777    3.8414 H   0  0  0  0  0  0  0  0  0  0  0  0
    4.5512   -4.1303    2.6744 H   0  0  0  0  0  0  0  0  0  0  0  0
    2.6171   -4.3350    5.0457 H   0  0  0  0  0  0  0  0  0  0  0  0
    3.9641   -3.2080    4.8779 H   0  0  0  0  0  0  0  0  0  0  0  0
    1.6971   -2.2615    4.4401 H   0  0  0  0  0  0  0  0  0  0  0  0
    2.7719   -2.0313    3.0412 H   0  0  0  0  0  0  0  0  0  0  0  0
  1  2  2  0  0  0  0
  1  6  1  0  0  0  0
  1 29  1  0  0  0  0
  2  3  1  0  0  0  0
  2 30  1  0  0  0  0
  3  4  2  0  0  0  0
  3 31  1  0  0  0  0
  4  5  1  0  0  0  0
  4  9  1  0  0  0  0
  5  6  2  0  0  0  0
  5  7  1  0  0  0  0
  6 32  1  0  0  0  0
  7  8  2  0  0  0  0
  8  9  1  0  0  0  0
  8 33  1  0  0  0  0
  9 34  1  0  0  0  0
 10 11  1  0  0  0  0
 10 15  1  0  0  0  0
 10 35  1  6  0  0  0
 10  7  1  0  0  0  0
 11 12  1  0  0  0  0
 11 36  1  1  0  0  0
 11 17  1  0  0  0  0
 12 13  2  0  0  0  0
 12 14  1  0  0  0  0
 14 15  1  0  0  0  0
 14 37  1  0  0  0  0
 15 16  2  0  0  0  0
 17 18  2  0  0  0  0
 17 21  1  0  0  0  0
 18 19  1  0  0  0  0
 18 38  1  0  0  0  0
 19 20  1  0  0  0  0
 19 28  1  0  0  0  0
 20 21  1  0  0  0  0
 20 25  2  0  0  0  0
 21 22  2  0  0  0  0
 22 23  1  0  0  0  0
 22 39  1  0  0  0  0
 23 24  2  0  0  0  0
 23 40  1  0  0  0  0
 24 25  1  0  0  0  0
 24 41  1  0  0  0  0
 25 26  1  0  0  0  0
 26 27  1  0  0  0  0
 26 42  1  0  0  0  0
 26 43  1  0  0  0  0
 27 28  1  0  0  0  0
 27 44  1  0  0  0  0
 27 45  1  0  0  0  0
 28 46  1  0  0  0  0
 28 47  1  0  0  0  0
M  END
>  <DRUGBANK_ID>
DB12200

>  <SECONDARY_ACCESSION_NUMBERS>
DB06026

>  <COMMON_NAME>
Tivantinib

>  <CAS_NUMBER>
905854-02-6

>  <UNII>
PJ4H73IL17

>  <SYNONYMS>
Tivantinib

$$$$
