
 OpenBabel10282417223D

 27 27  0  0  1  0  0  0  0  0999 V2000
   -0.4537   -2.4041    3.2005 C   0  0  0  0  0  0  0  0  0  0  0  0
    0.9405   -2.5037    2.5513 C   0  0  0  0  0  0  0  0  0  0  0  0
    1.9697   -3.0044    3.2694 C   0  0  0  0  0  0  0  0  0  0  0  0
    0.8008   -2.7137    1.0379 C   0  0  1  0  0  0  0  0  0  0  0  0
    1.5206   -2.4229   -0.3138 C   0  0  0  0  0  0  0  0  0  0  0  0
    0.6545   -3.0706   -1.4822 C   0  0  0  0  0  0  0  0  0  0  0  0
    0.1419   -4.4739   -1.2016 C   0  0  0  0  0  0  0  0  0  0  0  0
   -0.4451   -5.3438   -2.2669 C   0  0  0  0  0  0  0  0  0  0  0  0
    0.3360   -6.5313   -2.3721 O   0  0  0  0  0  0  0  0  0  0  0  0
    0.1879   -4.9893    0.0082 C   0  0  0  0  0  0  0  0  0  0  0  0
    0.7296   -4.2540    1.1404 C   0  0  0  0  0  0  0  0  0  0  0  0
   -0.4799   -2.7847    4.2256 H   0  0  0  0  0  0  0  0  0  0  0  0
   -1.1811   -3.0243    2.6475 H   0  0  0  0  0  0  0  0  0  0  0  0
   -0.8349   -1.3834    3.1648 H   0  0  0  0  0  0  0  0  0  0  0  0
    2.8712   -3.3753    2.7883 H   0  0  0  0  0  0  0  0  0  0  0  0
    1.8042   -3.3464    4.2929 H   0  0  0  0  0  0  0  0  0  0  0  0
   -0.1119   -2.1278    0.8548 H   0  0  0  0  0  0  0  0  0  0  0  0
    1.5927   -1.3459   -0.5265 H   0  0  0  0  0  0  0  0  0  0  0  0
    2.5416   -2.8211   -0.3574 H   0  0  0  0  0  0  0  0  0  0  0  0
   -0.2249   -2.4352   -1.6589 H   0  0  0  0  0  0  0  0  0  0  0  0
    1.2362   -3.0759   -2.4096 H   0  0  0  0  0  0  0  0  0  0  0  0
   -1.4605   -5.6382   -1.9727 H   0  0  0  0  0  0  0  0  0  0  0  0
   -0.4800   -4.8565   -3.2370 H   0  0  0  0  0  0  0  0  0  0  0  0
    1.2663   -6.2531   -2.4158 H   0  0  0  0  0  0  0  0  0  0  0  0
   -0.1425   -6.0040    0.2369 H   0  0  0  0  0  0  0  0  0  0  0  0
    1.7502   -4.6389    1.2744 H   0  0  0  0  0  0  0  0  0  0  0  0
    0.1504   -4.5944    2.0051 H   0  0  0  0  0  0  0  0  0  0  0  0
  1  2  1  0  0  0  0
  1 12  1  0  0  0  0
  1 13  1  0  0  0  0
  1 14  1  0  0  0  0
  2  3  2  0  0  0  0
  3 15  1  0  0  0  0
  3 16  1  0  0  0  0
  4  5  1  0  0  0  0
  4 11  1  0  0  0  0
  4 17  1  6  0  0  0
  4  2  1  0  0  0  0
  5  6  1  0  0  0  0
  5 18  1  0  0  0  0
  5 19  1  0  0  0  0
  6  7  1  0  0  0  0
  6 20  1  0  0  0  0
  6 21  1  0  0  0  0
  7  8  1  0  0  0  0
  7 10  2  0  0  0  0
  8  9  1  0  0  0  0
  8 22  1  0  0  0  0
  8 23  1  0  0  0  0
  9 24  1  0  0  0  0
 10 11  1  0  0  0  0
 10 25  1  0  0  0  0
 11 26  1  0  0  0  0
 11 27  1  0  0  0  0
M  END
>  <DRUGBANK_ID>
DB15289

>  <COMMON_NAME>
Perillyl alcohol

>  <CAS_NUMBER>
18457-55-1

>  <UNII>
3UL4QIY642

>  <SYNONYMS>
(±)-1-CYCLOHEXENE-1-METHANOL, 4-(1-METHYLETHENYL)-; (±)-PERILLYL ALCOHOL; 1-CYCLOHEXENE-1-METHANOL, 4-(1-METHYLETHENYL)-; DIHYDROCUMINIC ALCOHOL; DIHYDROCUMINYL ALCOHOL; DL-PERILLYL ALCOHOL; HYDROCUMIN ALCOHOL; P-MENTHA-1,8-DIEN-7-OL; Perilla alcohol

$$$$
