SR2
 OpenBabel10282417173D

 47 49  0  0  0  0  0  0  0  0999 V2000
    0.8559   -0.5657    1.0837 C   0  0  0  0  0  0  0  0  0  0  0  0
    0.0332    0.6836    0.7379 C   0  0  0  0  0  0  0  0  0  0  0  0
   -1.8345    0.2921    0.0046 Br  0  0  0  0  0  0  0  0  0  0  0  0
    0.8632    1.9608    0.3258 C   0  0  0  0  0  0  0  0  0  0  0  0
    2.5657    1.9910    0.3236 C   0  0  0  0  0  0  0  0  0  0  0  0
    3.4916    0.7275    0.6411 C   0  0  0  0  0  0  0  0  0  0  0  0
    2.7204   -0.5860    0.9896 C   0  0  0  0  0  0  0  0  0  0  0  0
    3.5717   -2.0219    0.4516 N   0  0  0  0  0  0  0  0  0  0  0  0
    4.9974   -2.2570    0.2008 C   0  0  0  0  0  0  0  0  0  0  0  0
    5.7069   -1.7357    1.1765 C   0  0  0  0  0  0  0  0  0  0  0  0
    5.1598   -1.0634    2.2780 C   0  0  0  0  0  0  0  0  0  0  0  0
    5.4017   -2.9975   -0.8586 N   0  0  0  0  0  0  0  0  0  0  0  0
    6.7482   -3.0358   -0.9470 C   0  0  0  0  0  0  0  0  0  0  0  0
    7.5876   -2.4978   -0.0388 N   0  0  0  0  0  0  0  0  0  0  0  0
    7.0893   -1.8810    1.0707 C   0  0  0  0  0  0  0  0  0  0  0  0
    7.6834   -1.2634    2.1682 C   0  0  0  0  0  0  0  0  0  0  0  0
    7.0163   -0.6697    3.3406 C   0  0  0  0  0  0  0  0  0  0  0  0
    5.6432   -0.6521    3.4257 C   0  0  0  0  0  0  0  0  0  0  0  0
    4.7039   -0.1877    4.3990 N   0  0  0  0  0  0  0  0  0  0  0  0
    3.2811   -0.2771    4.4843 C   0  0  0  0  0  0  0  0  0  0  0  0
    2.7468    0.4047    5.3797 O   0  0  0  0  0  0  0  0  0  0  0  0
    2.2476   -1.1120    3.5557 C   0  0  0  0  0  0  0  0  0  0  0  0
    2.4202   -2.1904    2.6854 C   0  0  0  0  0  0  0  0  0  0  0  0
    1.6081   -2.7927    1.1139 C   0  0  0  0  0  0  0  0  0  0  0  0
    1.7925   -1.9849   -0.6158 N   0  0  0  0  0  0  0  0  0  0  0  0
    1.3192   -2.4027   -1.8749 C   0  0  0  0  0  0  0  0  0  0  0  0
    1.7663   -0.3934   -1.1817 C   0  0  0  0  0  0  0  0  0  0  0  0
    0.2028   -1.4669    0.5714 H   0  0  0  0  0  0  0  0  0  0  0  0
    0.2794    2.8095   -0.1301 H   0  0  0  0  0  0  0  0  0  0  0  0
    3.1067    2.8743   -0.1208 H   0  0  0  0  0  0  0  0  0  0  0  0
    4.5189    0.5424    0.1341 H   0  0  0  0  0  0  0  0  0  0  0  0
    3.1158   -2.5956   -0.2838 H   0  0  0  0  0  0  0  0  0  0  0  0
    4.1674   -0.6817    2.2377 H   0  0  0  0  0  0  0  0  0  0  0  0
    7.1790   -3.5187   -1.8241 H   0  0  0  0  0  0  0  0  0  0  0  0
    8.7666   -1.2329    2.1019 H   0  0  0  0  0  0  0  0  0  0  0  0
    7.6155   -0.2181    4.1099 H   0  0  0  0  0  0  0  0  0  0  0  0
    5.1006    0.3323    5.1749 H   0  0  0  0  0  0  0  0  0  0  0  0
    1.2789   -0.5871    3.5838 H   0  0  0  0  0  0  0  0  0  0  0  0
    3.4348   -2.5596    2.6709 H   0  0  0  0  0  0  0  0  0  0  0  0
    2.0650   -3.7995    1.0638 H   0  0  0  0  0  0  0  0  0  0  0  0
    0.5937   -2.8502    1.5253 H   0  0  0  0  0  0  0  0  0  0  0  0
    0.2678   -2.1348   -1.8794 H   0  0  0  0  0  0  0  0  0  0  0  0
    1.8171   -1.7488   -2.6493 H   0  0  0  0  0  0  0  0  0  0  0  0
    1.6570   -3.4015   -2.0370 H   0  0  0  0  0  0  0  0  0  0  0  0
    1.1775    0.2453   -0.5883 H   0  0  0  0  0  0  0  0  0  0  0  0
    2.2414    0.2369   -0.5071 H   0  0  0  0  0  0  0  0  0  0  0  0
    2.4536    0.1751   -1.8095 H   0  0  0  0  0  0  0  0  0  0  0  0
  1  7  2  0  0  0  0
  1  2  1  0  0  0  0
  1 28  1  0  0  0  0
  2  4  2  0  0  0  0
  3  2  1  0  0  0  0
  4  5  1  0  0  0  0
  4 29  1  0  0  0  0
  5 30  1  0  0  0  0
  6  5  2  0  0  0  0
  6 31  1  0  0  0  0
  7  6  1  0  0  0  0
  8  7  1  0  0  0  0
  8 32  1  0  0  0  0
  9  8  1  0  0  0  0
  9 12  2  0  0  0  0
 10 15  1  0  0  0  0
 10  9  1  0  0  0  0
 11 10  2  0  0  0  0
 11 33  1  0  0  0  0
 13 12  1  0  0  0  0
 13 34  1  0  0  0  0
 14 13  2  0  0  0  0
 15 14  1  0  0  0  0
 16 15  2  0  0  0  0
 16 35  1  0  0  0  0
 17 16  1  0  0  0  0
 17 36  1  0  0  0  0
 18 17  2  0  0  0  0
 18 11  1  0  0  0  0
 19 18  1  0  0  0  0
 19 37  1  0  0  0  0
 20 19  1  0  0  0  0
 20 21  2  0  0  0  0
 22 20  1  0  0  0  0
 22 38  1  0  0  0  0
 23 22  2  0  0  0  0
 23 39  1  0  0  0  0
 24 23  1  0  0  0  0
 24 40  1  0  0  0  0
 24 41  1  0  0  0  0
 25 26  1  0  0  0  0
 25 24  1  0  0  0  0
 26 42  1  0  0  0  0
 26 43  1  0  0  0  0
 26 44  1  0  0  0  0
 27 25  1  0  0  0  0
 27 45  1  0  0  0  0
 27 46  1  0  0  0  0
 27 47  1  0  0  0  0
M  END
>  <DRUGBANK_ID>
DB08564

>  <COMMON_NAME>
(2E)-N-{4-[(3-bromophenyl)amino]quinazolin-6-yl}-4-(dimethylamino)but-2-enamide

$$$$
