CLI
 OpenBabel10282417133D

 28 29  0  0  0  0  0  0  0  0999 V2000
    1.0335   -0.0132    0.1190 O   0  0  0  0  0  0  0  0  0  0  0  0
    0.4678    1.0966    0.6362 C   0  0  0  0  0  0  0  0  0  0  0  0
    1.1568    1.9637    1.1465 O   0  0  0  0  0  0  0  0  0  0  0  0
   -1.0311    1.0637    0.6242 C   0  0  0  0  0  0  0  0  0  0  0  0
   -1.6376    1.0014   -0.7749 C   0  0  0  0  0  0  0  0  0  0  0  0
   -1.2796   -0.2495   -1.5277 C   0  0  0  0  0  0  0  0  0  0  0  0
   -1.6953   -1.5744   -1.1470 C   0  0  0  0  0  0  0  0  0  0  0  0
   -0.4316   -0.3315   -2.6450 C   0  0  0  0  0  0  0  0  0  0  0  0
    0.2556    0.7812   -3.3009 C   0  0  0  0  0  0  0  0  0  0  0  0
    1.0031    0.4535   -4.3784 O   0  0  0  0  0  0  0  0  0  0  0  0
    0.2052    1.9538   -2.9394 O   0  0  0  0  0  0  0  0  0  0  0  0
   -0.3598   -1.6781   -2.9498 N   0  0  0  0  0  0  0  0  0  0  0  0
   -1.0963   -2.4422   -2.0633 C   0  0  0  0  0  0  0  0  0  0  0  0
   -1.2912   -3.8357   -2.0064 C   0  0  0  0  0  0  0  0  0  0  0  0
   -2.0853   -4.3543   -0.9732 C   0  0  0  0  0  0  0  0  0  0  0  0
   -2.3753   -6.0488   -0.8812 Cl  0  0  0  0  0  0  0  0  0  0  0  0
   -2.6747   -3.5333   -0.0311 C   0  0  0  0  0  0  0  0  0  0  0  0
   -2.5018   -2.1599   -0.1327 C   0  0  0  0  0  0  0  0  0  0  0  0
   -3.3752   -1.1735    0.9615 Cl  0  0  0  0  0  0  0  0  0  0  0  0
    1.9974    0.1360    0.1787 H   0  0  0  0  0  0  0  0  0  0  0  0
   -1.3008    0.2202    1.2585 H   0  0  0  0  0  0  0  0  0  0  0  0
   -1.4134    1.9571    1.1293 H   0  0  0  0  0  0  0  0  0  0  0  0
   -2.7323    1.0514   -0.7235 H   0  0  0  0  0  0  0  0  0  0  0  0
   -1.3524    1.9025   -1.3198 H   0  0  0  0  0  0  0  0  0  0  0  0
    1.0360   -0.4690   -4.6613 H   0  0  0  0  0  0  0  0  0  0  0  0
    0.1715   -2.0853   -3.7048 H   0  0  0  0  0  0  0  0  0  0  0  0
   -0.8513   -4.5014   -2.7422 H   0  0  0  0  0  0  0  0  0  0  0  0
   -3.2944   -3.9386    0.7639 H   0  0  0  0  0  0  0  0  0  0  0  0
  1  2  1  0  0  0  0
  1 20  1  0  0  0  0
  2  3  2  0  0  0  0
  2  4  1  0  0  0  0
  4  5  1  0  0  0  0
  4 21  1  0  0  0  0
  4 22  1  0  0  0  0
  5  6  1  0  0  0  0
  5 23  1  0  0  0  0
  5 24  1  0  0  0  0
  6  7  1  0  0  0  0
  6  8  2  0  0  0  0
  7 13  2  0  0  0  0
  7 18  1  0  0  0  0
  8  9  1  0  0  0  0
  8 12  1  0  0  0  0
  9 10  1  0  0  0  0
  9 11  2  0  0  0  0
 10 25  1  0  0  0  0
 12 13  1  0  0  0  0
 12 26  1  0  0  0  0
 13 14  1  0  0  0  0
 14 15  2  0  0  0  0
 14 27  1  0  0  0  0
 15 16  1  0  0  0  0
 15 17  1  0  0  0  0
 17 18  2  0  0  0  0
 17 28  1  0  0  0  0
 18 19  1  0  0  0  0
M  END
>  <DRUGBANK_ID>
DB04175

>  <SECONDARY_ACCESSION_NUMBERS>
EXPT00939

>  <COMMON_NAME>
Mdl-29951

>  <CAS_NUMBER>
101861-63-6

$$$$
