
 OpenBabel10282417143D

 75 78  0  0  0  0  0  0  0  0999 V2000
    1.0633   -0.0675   -0.0379 P   0  0  3  0  0  0  0  0  0  0  0  0
    0.8787    4.4734    5.1968 P   0  0  3  0  0  0  0  0  0  0  0  0
    2.6943    1.1192    1.9401 P   0  0  3  0  0  0  0  0  0  0  0  0
    2.4162    3.9436    2.7509 P   0  0  3  0  0  0  0  0  0  0  0  0
   -1.2081   -0.7262   -1.8621 O   0  0  0  0  0  0  0  0  0  0  0  0
   -1.7190    1.1535    4.1794 O   0  0  0  0  0  0  0  0  0  0  0  0
   -0.9611   -1.4563   -4.5443 O   0  0  0  0  0  0  0  0  0  0  0  0
   -0.2150    1.1397   -4.5769 O   0  0  0  0  0  0  0  0  0  0  0  0
   -2.9815    3.0816    6.3050 O   0  0  0  0  0  0  0  0  0  0  0  0
    0.9078   -1.6760    0.0681 O   0  0  0  0  0  0  0  0  0  0  0  0
    1.1425    2.9296    5.6949 O   0  0  0  0  0  0  0  0  0  0  0  0
    1.7517    1.8900   -1.6265 O   0  0  0  0  0  0  0  0  0  0  0  0
    1.0633    0.8226    1.4456 O   0  0  0  0  0  0  0  0  0  0  0  0
   -4.4252   -1.4305    4.4255 O   0  0  0  0  0  0  0  0  0  0  0  0
    2.3478    4.3002    4.2998 O   0  0  0  0  0  0  0  0  0  0  0  0
   -0.6667   -0.0675   -0.0379 O   0  0  0  0  0  0  0  0  0  0  0  0
    2.6116   -0.0675   -0.0379 O   0  0  0  0  0  0  0  0  0  0  0  0
    1.8337    5.2799    6.2588 O   0  0  0  0  0  0  0  0  0  0  0  0
   -0.2175    3.7081    1.9710 O   0  0  0  0  0  0  0  0  0  0  0  0
   -0.4362    4.6285    5.9996 O   0  0  0  0  0  0  0  0  0  0  0  0
    2.0435    2.3930    2.7054 O   0  0  0  0  0  0  0  0  0  0  0  0
    2.4377   -0.1991    2.8757 O   0  0  0  0  0  0  0  0  0  0  0  0
    3.9109    3.8777    2.1815 O   0  0  0  0  0  0  0  0  0  0  0  0
    4.1541    1.3848    2.3826 O   0  0  0  0  0  0  0  0  0  0  0  0
    1.7338    4.9936    1.9340 O   0  0  0  0  0  0  0  0  0  0  0  0
   -0.5954    1.8783   -1.4437 N   0  0  0  0  0  0  0  0  0  0  0  0
   -2.2083   -1.0530    4.8711 N   0  0  0  0  0  0  0  0  0  0  0  0
    0.8409    3.1306   -0.0323 N   0  0  0  0  0  0  0  0  0  0  0  0
   -3.0626   -3.2409    4.4571 N   0  0  0  0  0  0  0  0  0  0  0  0
   -1.7306   -5.0783    4.7568 N   0  0  0  0  0  0  0  0  0  0  0  0
    0.1164   -1.1578   -3.6424 C   0  0  1  0  0  0  0  0  0  0  0  0
    0.1213    0.3648   -3.4415 C   0  0  2  0  0  0  0  0  0  0  0  0
   -0.2447   -1.7396   -2.2780 C   0  0  1  0  0  0  0  0  0  0  0  0
   -0.9377    0.6372   -2.4093 C   0  0  1  0  0  0  0  0  0  0  0  0
   -1.7933    2.2930    6.2878 C   0  0  2  0  0  0  0  0  0  0  0  0
   -1.1390    2.2477    4.9166 C   0  0  1  0  0  0  0  0  0  0  0  0
   -2.1459    0.8524    6.5125 C   0  0  0  0  0  0  0  0  0  0  0  0
   -2.4782    0.3620    5.1000 C   0  0  1  0  0  0  0  0  0  0  0  0
    0.9476   -2.1696   -1.3009 C   0  0  0  0  0  0  0  0  0  0  0  0
    0.3544    1.9612    5.0275 C   0  0  0  0  0  0  0  0  0  0  0  0
    0.7128    2.3415   -1.1488 C   0  0  0  0  0  0  0  0  0  0  0  0
   -1.6400    2.6785   -0.9478 C   0  0  0  0  0  0  0  0  0  0  0  0
   -0.9819   -1.5917    5.1953 C   0  0  0  0  0  0  0  0  0  0  0  0
   -3.2937   -1.8853    4.5727 C   0  0  0  0  0  0  0  0  0  0  0  0
   -1.4722    3.5254    0.0691 C   0  0  0  0  0  0  0  0  0  0  0  0
   -0.2078    3.5018    0.7910 C   0  0  0  0  0  0  0  0  0  0  0  0
   -0.8382   -2.9004    5.3805 C   0  0  0  0  0  0  0  0  0  0  0  0
   -1.9324   -3.7327    4.8555 C   0  0  0  0  0  0  0  0  0  0  0  0
    1.7748    3.1752    0.3480 H   0  0  0  0  0  0  0  0  0  0  0  0
   -0.8251   -5.4952    4.9239 H   0  0  0  0  0  0  0  0  0  0  0  0
   -2.3975   -5.6126    4.2133 H   0  0  0  0  0  0  0  0  0  0  0  0
   -1.7938   -1.2764   -4.0660 H   0  0  0  0  0  0  0  0  0  0  0  0
   -1.1300    0.8958   -4.8144 H   0  0  0  0  0  0  0  0  0  0  0  0
   -3.4885    2.9205    5.4945 H   0  0  0  0  0  0  0  0  0  0  0  0
   -1.1281    0.7756   -0.0817 H   0  0  0  0  0  0  0  0  0  0  0  0
    2.4076    5.9011    5.7733 H   0  0  0  0  0  0  0  0  0  0  0  0
    2.3848   -0.9645    2.2541 H   0  0  0  0  0  0  0  0  0  0  0  0
    4.3114    2.9743    2.1409 H   0  0  0  0  0  0  0  0  0  0  0  0
    1.0557   -1.5351   -4.0522 H   0  0  0  0  0  0  0  0  0  0  0  0
    1.1216    0.6149   -3.1174 H   0  0  0  0  0  0  0  0  0  0  0  0
   -0.8118   -2.6748   -2.4038 H   0  0  0  0  0  0  0  0  0  0  0  0
   -1.9321    0.8881   -2.7837 H   0  0  0  0  0  0  0  0  0  0  0  0
   -1.1273    2.6661    7.0725 H   0  0  0  0  0  0  0  0  0  0  0  0
   -1.3270    3.1511    4.3241 H   0  0  0  0  0  0  0  0  0  0  0  0
   -1.2714    0.3438    6.9316 H   0  0  0  0  0  0  0  0  0  0  0  0
   -2.9802    0.7309    7.2041 H   0  0  0  0  0  0  0  0  0  0  0  0
   -3.5252    0.6035    4.8930 H   0  0  0  0  0  0  0  0  0  0  0  0
    1.9160   -1.8974   -1.7481 H   0  0  0  0  0  0  0  0  0  0  0  0
    1.0010   -3.2666   -1.2324 H   0  0  0  0  0  0  0  0  0  0  0  0
    0.6602    1.8765    4.0051 H   0  0  0  0  0  0  0  0  0  0  0  0
    0.5844    0.9881    5.4560 H   0  0  0  0  0  0  0  0  0  0  0  0
   -2.6189    2.5724   -1.3897 H   0  0  0  0  0  0  0  0  0  0  0  0
   -0.1602   -0.9199    5.3966 H   0  0  0  0  0  0  0  0  0  0  0  0
   -2.2107    4.1584    0.5372 H   0  0  0  0  0  0  0  0  0  0  0  0
    0.0395   -3.3529    5.8148 H   0  0  0  0  0  0  0  0  0  0  0  0
  1 10  1  0  0  0  0
  1 13  1  0  0  0  0
  1 16  1  0  0  0  0
  1 17  2  0  0  0  0
  2 11  1  0  0  0  0
  2 15  1  0  0  0  0
  2 18  1  0  0  0  0
  2 20  2  0  0  0  0
  3 13  1  0  0  0  0
  3 21  1  0  0  0  0
  3 22  1  0  0  0  0
  3 24  2  0  0  0  0
  4 15  1  0  0  0  0
  4 21  1  0  0  0  0
  4 23  1  0  0  0  0
  4 25  2  0  0  0  0
  5 33  1  0  0  0  0
  5 34  1  0  0  0  0
  6 36  1  0  0  0  0
  6 38  1  0  0  0  0
  7 52  1  0  0  0  0
  8 53  1  0  0  0  0
  9 54  1  0  0  0  0
 10 39  1  0  0  0  0
 11 40  1  0  0  0  0
 12 41  2  0  0  0  0
 14 44  2  0  0  0  0
 16 55  1  0  0  0  0
 18 56  1  0  0  0  0
 19 46  2  0  0  0  0
 22 57  1  0  0  0  0
 23 58  1  0  0  0  0
 26 41  1  0  0  0  0
 26 42  1  0  0  0  0
 27 43  1  0  0  0  0
 27 44  1  0  0  0  0
 28 41  1  0  0  0  0
 28 46  1  0  0  0  0
 28 49  1  0  0  0  0
 29 44  1  0  0  0  0
 29 48  2  0  0  0  0
 30 48  1  0  0  0  0
 30 50  1  0  0  0  0
 30 51  1  0  0  0  0
 31  7  1  0  0  0  0
 31 32  1  0  0  0  0
 31 33  1  0  0  0  0
 31 59  1  6  0  0  0
 32  8  1  0  0  0  0
 32 34  1  0  0  0  0
 32 60  1  1  0  0  0
 33 39  1  0  0  0  0
 33 61  1  6  0  0  0
 34 62  1  6  0  0  0
 34 26  1  0  0  0  0
 35  9  1  0  0  0  0
 35 36  1  0  0  0  0
 35 37  1  0  0  0  0
 35 63  1  1  0  0  0
 36 40  1  0  0  0  0
 36 64  1  6  0  0  0
 37 38  1  0  0  0  0
 37 65  1  0  0  0  0
 37 66  1  0  0  0  0
 38 67  1  6  0  0  0
 38 27  1  0  0  0  0
 39 68  1  0  0  0  0
 39 69  1  0  0  0  0
 40 70  1  0  0  0  0
 40 71  1  0  0  0  0
 42 45  2  0  0  0  0
 42 72  1  0  0  0  0
 43 47  2  0  0  0  0
 43 73  1  0  0  0  0
 45 46  1  0  0  0  0
 45 74  1  0  0  0  0
 47 48  1  0  0  0  0
 47 75  1  0  0  0  0
M  END
>  <DRUGBANK_ID>
DB04983

>  <COMMON_NAME>
Denufosol

>  <CAS_NUMBER>
211448-85-0

>  <UNII>
5PC250KSSH

>  <SYNONYMS>
Denufosol

$$$$
