
 OpenBabel10282417133D

 25 25  0  0  0  0  0  0  0  0999 V2000
    1.4394   -0.1698    0.3095 C   0  0  0  0  0  0  0  0  0  0  0  0
    0.9062    1.1905    0.0163 C   0  0  0  0  0  0  0  0  0  0  0  0
   -0.4138    1.3857   -0.0564 C   0  0  0  0  0  0  0  0  0  0  0  0
   -1.3786    0.2726    0.0783 C   0  0  0  0  0  0  0  0  0  0  0  0
   -0.8306   -1.1055    0.0322 C   0  0  0  0  0  0  0  0  0  0  0  0
    0.4705   -1.2725    0.2919 C   0  0  0  0  0  0  0  0  0  0  0  0
    2.6740   -0.4708    0.5381 N   0  0  0  0  0  0  0  0  0  0  0  0
   -2.5717    0.4980    0.2338 O   0  0  0  0  0  0  0  0  0  0  0  0
    1.7776    2.2424   -0.1916 O   0  0  0  0  0  0  0  0  0  0  0  0
    3.2868    0.3392    0.5939 H   0  0  0  0  0  0  0  0  0  0  0  0
   -1.7147   -2.2878   -0.2723 C   0  0  0  0  0  0  0  0  0  0  0  0
   -1.4329   -2.9504   -1.6520 C   0  0  2  0  0  0  0  0  0  0  0  0
   -2.3908   -4.0726   -1.8373 N   0  0  0  0  0  0  0  0  0  0  0  0
   -0.0008   -3.5167   -1.8023 C   0  0  0  0  0  0  0  0  0  0  0  0
    0.9320   -2.5764   -2.0521 O   0  0  0  0  0  0  0  0  0  0  0  0
    0.3273   -4.6901   -1.6752 O   0  0  0  0  0  0  0  0  0  0  0  0
   -0.8342    2.3702   -0.2225 H   0  0  0  0  0  0  0  0  0  0  0  0
    0.9068   -2.2607    0.3760 H   0  0  0  0  0  0  0  0  0  0  0  0
    2.6675    1.8768   -0.3256 H   0  0  0  0  0  0  0  0  0  0  0  0
   -1.5911   -3.0283    0.5299 H   0  0  0  0  0  0  0  0  0  0  0  0
   -2.7705   -1.9863   -0.2378 H   0  0  0  0  0  0  0  0  0  0  0  0
   -1.5980   -2.2330   -2.4640 H   0  0  0  0  0  0  0  0  0  0  0  0
   -2.1628   -4.5444   -2.7156 H   0  0  0  0  0  0  0  0  0  0  0  0
   -2.1882   -4.7797   -1.1242 H   0  0  0  0  0  0  0  0  0  0  0  0
    1.7988   -2.9930   -1.8465 H   0  0  0  0  0  0  0  0  0  0  0  0
  1  2  1  0  0  0  0
  1  7  2  0  0  0  0
  2  3  2  0  0  0  0
  2  9  1  0  0  0  0
  3  4  1  0  0  0  0
  3 17  1  0  0  0  0
  4  5  1  0  0  0  0
  4  8  2  0  0  0  0
  5  6  2  0  0  0  0
  5 11  1  0  0  0  0
  6  1  1  0  0  0  0
  6 18  1  0  0  0  0
  7 10  1  0  0  0  0
  9 19  1  0  0  0  0
 11 12  1  0  0  0  0
 11 20  1  0  0  0  0
 11 21  1  0  0  0  0
 12 14  1  0  0  0  0
 12 13  1  0  0  0  0
 12 22  1  6  0  0  0
 13 23  1  0  0  0  0
 13 24  1  0  0  0  0
 14 16  2  0  0  0  0
 14 15  1  0  0  0  0
 15 25  1  0  0  0  0
M  END
>  <DRUGBANK_ID>
DB03631

>  <SECONDARY_ACCESSION_NUMBERS>
EXPT03144

>  <COMMON_NAME>
3-(4-hydroxy-3-imino-6-oxo-cyclohexa-1,4-dienyl)-alanine

$$$$
