894
 OpenBabel10282417113D

 46 49  0  0  1  0  0  0  0  0999 V2000
    3.2869   -1.9732    8.0902 O   0  0  0  0  0  0  0  0  0  0  0  0
    1.5698   -2.2725    9.8684 O   0  0  0  0  0  0  0  0  0  0  0  0
   -3.4269   -5.7323    3.4211 O   0  0  0  0  0  0  0  0  0  0  0  0
    1.4059   -1.8639    5.0709 C   0  0  2  0  0  0  0  0  0  0  0  0
    1.7307   -3.0540    4.2217 C   0  0  1  0  0  0  0  0  0  0  0  0
    2.1975   -1.6801    6.2817 C   0  0  1  0  0  0  0  0  0  0  0  0
    3.6257   -1.7880    6.4243 C   0  0  2  0  0  0  0  0  0  0  0  0
    0.3329   -3.4058    3.0751 C   0  0  1  0  0  0  0  0  0  0  0  0
    3.3125   -3.0932    4.0530 C   0  0  0  0  0  0  0  0  0  0  0  0
    4.0944   -3.0060    5.5143 C   0  0  0  0  0  0  0  0  0  0  0  0
    0.1522   -2.2096    5.8450 C   0  0  0  0  0  0  0  0  0  0  0  0
    1.8185   -0.3536    7.0276 C   0  0  0  0  0  0  0  0  0  0  0  0
   -0.2959   -4.2755    4.1400 C   0  0  0  0  0  0  0  0  0  0  0  0
   -0.6686   -3.1468    5.1220 C   0  0  0  0  0  0  0  0  0  0  0  0
    4.1119   -0.5063    5.6445 C   0  0  0  0  0  0  0  0  0  0  0  0
    1.1376   -4.4098    2.1882 C   0  0  0  0  0  0  0  0  0  0  0  0
   -1.4626   -2.7569    2.8730 C   0  0  0  0  0  0  0  0  0  0  0  0
    0.9453   -0.7534    8.1380 C   0  0  0  0  0  0  0  0  0  0  0  0
    1.9186   -1.7395    8.8122 C   0  0  0  0  0  0  0  0  0  0  0  0
   -1.0610   -5.2965    3.6333 C   0  0  0  0  0  0  0  0  0  0  0  0
   -2.6018   -3.4709    3.3495 C   0  0  0  0  0  0  0  0  0  0  0  0
   -2.4535   -4.9051    3.5202 C   0  0  0  0  0  0  0  0  0  0  0  0
    1.4170   -0.9570    4.4533 H   0  0  0  0  0  0  0  0  0  0  0  0
    1.7138   -3.9507    4.8731 H   0  0  0  0  0  0  0  0  0  0  0  0
    1.9777   -2.6485    6.7856 H   0  0  0  0  0  0  0  0  0  0  0  0
    3.6487   -2.2724    3.4082 H   0  0  0  0  0  0  0  0  0  0  0  0
    3.6726   -4.0176    3.5794 H   0  0  0  0  0  0  0  0  0  0  0  0
    5.1582   -2.8413    5.2613 H   0  0  0  0  0  0  0  0  0  0  0  0
    4.0823   -3.9753    6.0273 H   0  0  0  0  0  0  0  0  0  0  0  0
   -0.3881   -1.2544    5.9798 H   0  0  0  0  0  0  0  0  0  0  0  0
    0.2360   -2.7636    6.7793 H   0  0  0  0  0  0  0  0  0  0  0  0
    1.4843    0.4405    6.3656 H   0  0  0  0  0  0  0  0  0  0  0  0
    2.6742    0.0890    7.5747 H   0  0  0  0  0  0  0  0  0  0  0  0
   -0.6814   -2.2396    4.5113 H   0  0  0  0  0  0  0  0  0  0  0  0
   -1.5811   -3.3061    5.6471 H   0  0  0  0  0  0  0  0  0  0  0  0
    3.6137   -0.5193    4.6533 H   0  0  0  0  0  0  0  0  0  0  0  0
    3.8573    0.4811    6.0288 H   0  0  0  0  0  0  0  0  0  0  0  0
    5.1633   -0.5289    5.3553 H   0  0  0  0  0  0  0  0  0  0  0  0
    1.3672   -5.3130    2.7926 H   0  0  0  0  0  0  0  0  0  0  0  0
    0.7095   -4.7206    1.2427 H   0  0  0  0  0  0  0  0  0  0  0  0
    2.1508   -4.0403    1.9875 H   0  0  0  0  0  0  0  0  0  0  0  0
   -1.7146   -1.7312    3.2903 H   0  0  0  0  0  0  0  0  0  0  0  0
   -0.0274   -1.1764    7.8575 H   0  0  0  0  0  0  0  0  0  0  0  0
    0.6553    0.1115    8.7373 H   0  0  0  0  0  0  0  0  0  0  0  0
   -0.8363   -5.7662    2.6608 H   0  0  0  0  0  0  0  0  0  0  0  0
   -3.4060   -3.1033    4.0443 H   0  0  0  0  0  0  0  0  0  0  0  0
  1  7  1  0  0  0  0
  1 19  1  0  0  0  0
  2 19  2  0  0  0  0
  3 22  2  0  0  0  0
  4  5  1  0  0  0  0
  4  6  1  0  0  0  0
  4 11  1  0  0  0  0
  4 23  1  6  0  0  0
  5  8  1  0  0  0  0
  5  9  1  0  0  0  0
  5 24  1  1  0  0  0
  6  7  1  0  0  0  0
  6 12  1  0  0  0  0
  6 25  1  1  0  0  0
  7 10  1  0  0  0  0
  7 15  1  6  0  0  0
  8 13  1  0  0  0  0
  8 16  1  1  0  0  0
  8 17  1  0  0  0  0
  9 10  1  0  0  0  0
  9 26  1  0  0  0  0
  9 27  1  0  0  0  0
 10 28  1  0  0  0  0
 10 29  1  0  0  0  0
 11 14  1  0  0  0  0
 11 30  1  0  0  0  0
 11 31  1  0  0  0  0
 12 18  1  0  0  0  0
 12 32  1  0  0  0  0
 12 33  1  0  0  0  0
 13 14  1  0  0  0  0
 13 20  2  0  0  0  0
 14 34  1  0  0  0  0
 14 35  1  0  0  0  0
 15 36  1  0  0  0  0
 15 37  1  0  0  0  0
 15 38  1  0  0  0  0
 16 39  1  0  0  0  0
 16 40  1  0  0  0  0
 16 41  1  0  0  0  0
 17 21  2  0  0  0  0
 17 42  1  0  0  0  0
 18 19  1  0  0  0  0
 18 43  1  0  0  0  0
 18 44  1  0  0  0  0
 20 22  1  0  0  0  0
 20 45  1  0  0  0  0
 21 22  1  0  0  0  0
 21 46  1  0  0  0  0
M  END
>  <DRUGBANK_ID>
DB00894

>  <SECONDARY_ACCESSION_NUMBERS>
APRD00640

>  <COMMON_NAME>
Testolactone

>  <CAS_NUMBER>
968-93-4

>  <UNII>
6J9BLA949Q

>  <SYNONYMS>
(4aS,4bR,10aR,10bS,12aS)-10a,12a-dimethyl-3,4,4a,5,6,10a,10b,11,12,12a-decahydro-2H-naphtho[2,1-f]chromene-2,8(4bH)-dione; 1-dehydrotestololactone; 1,2-didehydrotestololactone; 13-hydroxy-3-oxo-13,17-secoandrosta-1,4-dien-17-oic acid δ-lactone; D-homo-17a-oxaandrosta-1,4-diene-3,17-dione; delta(1)-testololactone; Testolactona; Testolactone; Testolactonum; Testolattone; Δ1-testololactone

$$$$
