
 OpenBabel10282417233D

 66 70  0  0  0  0  0  0  0  0999 V2000
    0.9949    1.4009   -0.0012 C   0  0  0  0  0  0  0  0  0  0  0  0
   -0.1820    0.6464    0.0042 C   0  0  0  0  0  0  0  0  0  0  0  0
   -0.1995   -0.7438    0.0070 C   0  0  0  0  0  0  0  0  0  0  0  0
    1.0298   -1.4343    0.0053 C   0  0  0  0  0  0  0  0  0  0  0  0
    2.2221   -0.6988    0.0008 C   0  0  0  0  0  0  0  0  0  0  0  0
    2.2018    0.6958   -0.0032 C   0  0  0  0  0  0  0  0  0  0  0  0
   -1.4966    1.0209    0.0073 N   0  0  0  0  0  0  0  0  0  0  0  0
   -1.5854   -1.0920    0.0015 C   0  0  0  0  0  0  0  0  0  0  0  0
   -2.3653   -0.0016   -0.0039 N   0  0  0  0  0  0  0  0  0  0  0  0
   -2.0898   -2.4316   -0.0340 C   0  0  0  0  0  0  0  0  0  0  0  0
   -3.3921   -2.7662   -0.0758 C   0  0  0  0  0  0  0  0  0  0  0  0
   -3.8155   -4.1716   -0.1925 C   0  0  0  0  0  0  0  0  0  0  0  0
   -3.2911   -5.1038    0.7399 C   0  0  0  0  0  0  0  0  0  0  0  0
   -3.7343   -6.4325    0.7822 C   0  0  0  0  0  0  0  0  0  0  0  0
   -4.6656   -6.8738   -0.1530 C   0  0  0  0  0  0  0  0  0  0  0  0
   -4.9905   -6.0067   -1.2109 C   0  0  0  0  0  0  0  0  0  0  0  0
   -4.7306   -4.6229   -1.1663 C   0  0  0  0  0  0  0  0  0  0  0  0
   -5.4403   -3.7291   -2.0451 N   0  0  0  0  0  0  0  0  0  0  0  0
   -6.5046   -4.0594   -2.9013 C   0  0  0  0  0  0  0  0  0  0  0  0
   -6.8121   -3.1308   -3.9830 C   0  0  0  0  0  0  0  0  0  0  0  0
   -8.4417   -2.9671   -4.5216 S   0  0  0  0  0  0  0  0  0  0  0  0
   -7.9821   -2.0521   -5.8881 C   0  0  0  0  0  0  0  0  0  0  0  0
   -6.6212   -1.8567   -5.9284 C   0  0  0  0  0  0  0  0  0  0  0  0
   -5.9320   -2.4665   -4.8244 C   0  0  0  0  0  0  0  0  0  0  0  0
   -4.4507   -2.4706   -4.6964 C   0  0  0  0  0  0  0  0  0  0  0  0
   -5.4530   -8.1715    0.0233 C   0  0  0  0  0  0  0  0  0  0  0  0
   -6.8575   -8.1253    0.5212 N   0  0  0  0  0  0  0  0  0  0  0  0
   -7.8108   -7.3755   -0.3305 C   0  0  0  0  0  0  0  0  0  0  0  0
   -7.7683   -5.8621   -0.0973 C   0  0  0  0  0  0  0  0  0  0  0  0
   -7.8288   -5.4585    1.2889 N   0  0  0  0  0  0  0  0  0  0  0  0
   -6.8541   -6.1778    2.1291 C   0  0  0  0  0  0  0  0  0  0  0  0
   -7.0234   -7.6865    1.9196 C   0  0  0  0  0  0  0  0  0  0  0  0
   -8.2914   -4.1729    1.4962 C   0  0  0  0  0  0  0  0  0  0  0  0
   -8.2257   -3.6334    2.9138 C   0  0  0  0  0  0  0  0  0  0  0  0
   -7.6893   -2.3268    2.9974 O   0  0  0  0  0  0  0  0  0  0  0  0
   -8.7665   -3.4850    0.5891 O   0  0  0  0  0  0  0  0  0  0  0  0
   -7.1363   -5.1289   -2.8318 O   0  0  0  0  0  0  0  0  0  0  0  0
    0.9795    2.4858   -0.0047 H   0  0  0  0  0  0  0  0  0  0  0  0
    1.0624   -2.5197    0.0068 H   0  0  0  0  0  0  0  0  0  0  0  0
    3.1751   -1.2231   -0.0004 H   0  0  0  0  0  0  0  0  0  0  0  0
    3.1407    1.2457   -0.0076 H   0  0  0  0  0  0  0  0  0  0  0  0
   -1.8667    1.9638    0.0117 H   0  0  0  0  0  0  0  0  0  0  0  0
   -1.3466   -3.2246   -0.0575 H   0  0  0  0  0  0  0  0  0  0  0  0
   -4.1616   -1.9976   -0.0465 H   0  0  0  0  0  0  0  0  0  0  0  0
   -2.5749   -4.7844    1.4970 H   0  0  0  0  0  0  0  0  0  0  0  0
   -3.4175   -7.0807    1.5963 H   0  0  0  0  0  0  0  0  0  0  0  0
   -5.6924   -6.3972   -1.9394 H   0  0  0  0  0  0  0  0  0  0  0  0
   -5.1470   -2.7568   -2.0402 H   0  0  0  0  0  0  0  0  0  0  0  0
   -8.7191   -1.7166   -6.6081 H   0  0  0  0  0  0  0  0  0  0  0  0
   -6.1288   -1.3306   -6.7378 H   0  0  0  0  0  0  0  0  0  0  0  0
   -3.9954   -2.9191   -5.5819 H   0  0  0  0  0  0  0  0  0  0  0  0
   -4.0952   -1.4471   -4.5625 H   0  0  0  0  0  0  0  0  0  0  0  0
   -4.0963   -3.0553   -3.8491 H   0  0  0  0  0  0  0  0  0  0  0  0
   -5.4538   -8.6872   -0.9449 H   0  0  0  0  0  0  0  0  0  0  0  0
   -4.8905   -8.8312    0.6950 H   0  0  0  0  0  0  0  0  0  0  0  0
   -7.6600   -7.6307   -1.3861 H   0  0  0  0  0  0  0  0  0  0  0  0
   -8.8341   -7.7035   -0.0968 H   0  0  0  0  0  0  0  0  0  0  0  0
   -6.8037   -5.4808   -0.3170 H   0  0  0  0  0  0  0  0  0  0  0  0
   -8.4124   -5.3069   -0.7804 H   0  0  0  0  0  0  0  0  0  0  0  0
   -5.8573   -5.8444    1.8461 H   0  0  0  0  0  0  0  0  0  0  0  0
   -6.9174   -5.9385    3.1873 H   0  0  0  0  0  0  0  0  0  0  0  0
   -8.0568   -7.9140    2.2253 H   0  0  0  0  0  0  0  0  0  0  0  0
   -6.3806   -8.2628    2.5904 H   0  0  0  0  0  0  0  0  0  0  0  0
   -9.2542   -3.6381    3.2828 H   0  0  0  0  0  0  0  0  0  0  0  0
   -7.6405   -4.2556    3.5798 H   0  0  0  0  0  0  0  0  0  0  0  0
   -6.8238   -2.3536    2.5527 H   0  0  0  0  0  0  0  0  0  0  0  0
  1  6  1  0  0  0  0
  1 38  1  0  0  0  0
  2  1  2  0  0  0  0
  2  7  1  0  0  0  0
  3  2  1  0  0  0  0
  3  8  1  0  0  0  0
  4  3  2  0  0  0  0
  4 39  1  0  0  0  0
  5  4  1  0  0  0  0
  5 40  1  0  0  0  0
  6  5  2  0  0  0  0
  6 41  1  0  0  0  0
  7 42  1  0  0  0  0
  8  9  2  0  0  0  0
  8 10  1  0  0  0  0
  9  7  1  0  0  0  0
 10 11  2  0  0  0  0
 10 43  1  0  0  0  0
 11 12  1  0  0  0  0
 11 44  1  0  0  0  0
 12 17  1  0  0  0  0
 13 12  2  0  0  0  0
 13 45  1  0  0  0  0
 14 13  1  0  0  0  0
 14 46  1  0  0  0  0
 15 14  2  0  0  0  0
 15 26  1  0  0  0  0
 16 15  1  0  0  0  0
 16 47  1  0  0  0  0
 17 16  2  0  0  0  0
 17 18  1  0  0  0  0
 18 19  1  0  0  0  0
 18 48  1  0  0  0  0
 19 20  1  0  0  0  0
 19 37  2  0  0  0  0
 21 20  1  0  0  0  0
 21 22  1  0  0  0  0
 22 23  2  0  0  0  0
 22 49  1  0  0  0  0
 23 24  1  0  0  0  0
 23 50  1  0  0  0  0
 24 20  2  0  0  0  0
 24 25  1  0  0  0  0
 25 51  1  0  0  0  0
 25 52  1  0  0  0  0
 25 53  1  0  0  0  0
 26 27  1  0  0  0  0
 26 54  1  0  0  0  0
 26 55  1  0  0  0  0
 27 32  1  0  0  0  0
 28 27  1  0  0  0  0
 28 56  1  0  0  0  0
 28 57  1  0  0  0  0
 29 28  1  0  0  0  0
 29 58  1  0  0  0  0
 29 59  1  0  0  0  0
 30 29  1  0  0  0  0
 30 33  1  0  0  0  0
 31 30  1  0  0  0  0
 31 60  1  0  0  0  0
 31 61  1  0  0  0  0
 32 31  1  0  0  0  0
 32 62  1  0  0  0  0
 32 63  1  0  0  0  0
 33 34  1  0  0  0  0
 33 36  2  0  0  0  0
 34 35  1  0  0  0  0
 34 64  1  0  0  0  0
 34 65  1  0  0  0  0
 35 66  1  0  0  0  0
M  END
>  <DRUGBANK_ID>
DB16637

>  <COMMON_NAME>
KW-2450 free base

>  <CAS_NUMBER>
904899-25-8

>  <UNII>
RS6V91I0HT

$$$$
