
 OpenBabel10282417193D

111119  0  0  1  0  0  0  0  0999 V2000
    1.2111   -0.2291    0.1791 C   0  0  0  0  0  0  0  0  0  0  0  0
    0.4768   -1.3784    0.7552 C   0  0  0  0  0  0  0  0  0  0  0  0
    0.9543   -1.4363    2.1886 C   0  0  0  0  0  0  0  0  0  0  0  0
   -1.0412   -1.1788    0.5744 C   0  0  1  0  0  0  0  0  0  0  0  0
   -1.5409   -0.9730   -0.9363 C   0  0  0  0  0  0  0  0  0  0  0  0
   -2.3182   -1.8189   -1.4002 O   0  0  0  0  0  0  0  0  0  0  0  0
   -1.2577    0.2002   -1.6745 N   0  0  0  0  0  0  0  0  0  0  0  0
   -0.0347    0.9643   -1.9527 C   0  0  0  0  0  0  0  0  0  0  0  0
   -0.4984    2.3616   -2.1812 C   0  0  0  0  0  0  0  0  0  0  0  0
   -1.7075    2.1308   -3.0377 C   0  0  0  0  0  0  0  0  0  0  0  0
   -2.2822    0.7562   -2.5770 C   0  0  1  0  0  0  0  0  0  0  0  0
   -2.5254   -0.0982   -3.7827 C   0  0  0  0  0  0  0  0  0  0  0  0
   -1.5087   -0.5222   -4.6054 N   0  0  0  0  0  0  0  0  0  0  0  0
   -2.0511   -1.1983   -5.6602 C   0  0  0  0  0  0  0  0  0  0  0  0
   -1.4746   -1.8081   -6.7766 C   0  0  0  0  0  0  0  0  0  0  0  0
   -2.3458   -2.4703   -7.6551 C   0  0  0  0  0  0  0  0  0  0  0  0
   -3.7285   -2.4873   -7.4038 C   0  0  0  0  0  0  0  0  0  0  0  0
   -4.2778   -1.8433   -6.2836 C   0  0  0  0  0  0  0  0  0  0  0  0
   -3.4143   -1.1855   -5.4017 C   0  0  0  0  0  0  0  0  0  0  0  0
   -3.6947   -0.4726   -4.2634 N   0  0  0  0  0  0  0  0  0  0  0  0
   -1.8160   -3.1230   -8.8383 C   0  0  0  0  0  0  0  0  0  0  0  0
   -2.1928   -2.7912  -10.1195 C   0  0  0  0  0  0  0  0  0  0  0  0
   -1.4135   -3.7079  -11.3359 S   0  0  0  0  0  0  0  0  0  0  0  0
   -0.5323   -4.5991  -10.1168 C   0  0  0  0  0  0  0  0  0  0  0  0
   -0.8496   -4.1807   -8.8450 C   0  0  0  0  0  0  0  0  0  0  0  0
    0.0255   -5.0867   -7.6281 S   0  0  0  0  0  0  0  0  0  0  0  0
    0.7988   -6.0055   -8.8492 C   0  0  0  0  0  0  0  0  0  0  0  0
    0.4285   -5.6566  -10.1300 C   0  0  0  0  0  0  0  0  0  0  0  0
    0.9704   -6.2948  -11.3150 C   0  0  0  0  0  0  0  0  0  0  0  0
    1.6983   -5.5713  -12.2695 C   0  0  0  0  0  0  0  0  0  0  0  0
    2.3381   -6.2431  -13.3373 C   0  0  0  0  0  0  0  0  0  0  0  0
    2.2602   -7.6508  -13.4381 C   0  0  0  0  0  0  0  0  0  0  0  0
    1.5179   -8.3395  -12.4875 C   0  0  0  0  0  0  0  0  0  0  0  0
    0.8504   -7.6780  -11.4632 C   0  0  0  0  0  0  0  0  0  0  0  0
    2.9622   -8.4951  -14.4073 C   0  0  0  0  0  0  0  0  0  0  0  0
    4.2864   -8.5853  -14.7475 C   0  0  0  0  0  0  0  0  0  0  0  0
    4.4571   -9.3347  -15.9037 N   0  0  0  0  0  0  0  0  0  0  0  0
    3.2600   -9.7638  -16.2555 C   0  0  0  0  0  0  0  0  0  0  0  0
    2.3989   -9.5430  -15.1595 N   0  0  0  0  0  0  0  0  0  0  0  0
    2.8245  -10.2105  -17.6628 C   0  0  2  0  0  0  0  0  0  0  0  0
    3.4770  -11.5718  -17.8661 C   0  0  0  0  0  0  0  0  0  0  0  0
    3.3482  -11.8633  -19.3432 C   0  0  0  0  0  0  0  0  0  0  0  0
    3.4090  -10.4863  -20.0017 C   0  0  0  0  0  0  0  0  0  0  0  0
    3.3004   -9.4848  -18.9096 N   0  0  0  0  0  0  0  0  0  0  0  0
    3.4205   -8.1333  -19.3047 C   0  0  0  0  0  0  0  0  0  0  0  0
    3.7538   -7.8662  -20.4727 O   0  0  0  0  0  0  0  0  0  0  0  0
    3.1266   -6.9065  -18.3468 C   0  0  1  0  0  0  0  0  0  0  0  0
    1.6311   -6.8889  -18.0105 C   0  0  0  0  0  0  0  0  0  0  0  0
    0.6432   -6.1643  -18.6249 C   0  0  0  0  0  0  0  0  0  0  0  0
   -0.7168   -6.4653  -18.3587 C   0  0  0  0  0  0  0  0  0  0  0  0
   -1.1141   -7.5229  -17.5254 C   0  0  0  0  0  0  0  0  0  0  0  0
   -0.1455   -8.2447  -16.8987 C   0  0  0  0  0  0  0  0  0  0  0  0
    1.1496   -7.7942  -17.0965 C   0  0  0  0  0  0  0  0  0  0  0  0
    4.0485   -7.0038  -17.2230 N   0  0  0  0  0  0  0  0  0  0  0  0
    5.0761   -6.2164  -16.7884 C   0  0  0  0  0  0  0  0  0  0  0  0
    5.8702   -6.5792  -15.9563 O   0  0  0  0  0  0  0  0  0  0  0  0
    5.0821   -4.9784  -17.3402 O   0  0  0  0  0  0  0  0  0  0  0  0
    6.1022   -4.1741  -16.7438 C   0  0  0  0  0  0  0  0  0  0  0  0
   -1.6849   -2.3568    1.2136 N   0  0  0  0  0  0  0  0  0  0  0  0
   -2.4397   -2.4007    2.3528 C   0  0  0  0  0  0  0  0  0  0  0  0
   -2.8142   -3.4607    2.8401 O   0  0  0  0  0  0  0  0  0  0  0  0
   -2.6994   -1.1766    2.8788 O   0  0  0  0  0  0  0  0  0  0  0  0
   -3.5238   -1.1815    4.0520 C   0  0  0  0  0  0  0  0  0  0  0  0
    0.7200    0.6989    0.5262 H   0  0  0  0  0  0  0  0  0  0  0  0
    1.1537   -0.4819   -0.8756 H   0  0  0  0  0  0  0  0  0  0  0  0
    2.2798   -0.1141    0.3354 H   0  0  0  0  0  0  0  0  0  0  0  0
    0.7909   -2.2768    0.2094 H   0  0  0  0  0  0  0  0  0  0  0  0
    0.6026   -0.5601    2.7442 H   0  0  0  0  0  0  0  0  0  0  0  0
    0.6229   -2.3491    2.6772 H   0  0  0  0  0  0  0  0  0  0  0  0
    2.0517   -1.4172    2.1989 H   0  0  0  0  0  0  0  0  0  0  0  0
   -1.3934   -0.2900    1.1095 H   0  0  0  0  0  0  0  0  0  0  0  0
    0.4740    0.4986   -2.8076 H   0  0  0  0  0  0  0  0  0  0  0  0
    0.7155    1.1784   -1.2233 H   0  0  0  0  0  0  0  0  0  0  0  0
   -0.7588    2.7943   -1.2058 H   0  0  0  0  0  0  0  0  0  0  0  0
    0.3006    2.9626   -2.6249 H   0  0  0  0  0  0  0  0  0  0  0  0
   -2.4133    2.9530   -2.9216 H   0  0  0  0  0  0  0  0  0  0  0  0
   -1.3641    2.1136   -4.0790 H   0  0  0  0  0  0  0  0  0  0  0  0
   -3.2036    0.8894   -2.0005 H   0  0  0  0  0  0  0  0  0  0  0  0
   -0.5268   -0.3464   -4.4675 H   0  0  0  0  0  0  0  0  0  0  0  0
   -0.4045   -1.7685   -6.9497 H   0  0  0  0  0  0  0  0  0  0  0  0
   -4.4023   -3.0126   -8.0766 H   0  0  0  0  0  0  0  0  0  0  0  0
   -5.3438   -1.8550   -6.0878 H   0  0  0  0  0  0  0  0  0  0  0  0
   -2.9003   -2.0307  -10.4206 H   0  0  0  0  0  0  0  0  0  0  0  0
    1.5131   -6.7640   -8.5536 H   0  0  0  0  0  0  0  0  0  0  0  0
    1.7984   -4.4896  -12.1634 H   0  0  0  0  0  0  0  0  0  0  0  0
    2.9085   -5.6377  -14.0442 H   0  0  0  0  0  0  0  0  0  0  0  0
    1.5223   -9.4239  -12.5099 H   0  0  0  0  0  0  0  0  0  0  0  0
    0.2690   -8.2737  -10.7673 H   0  0  0  0  0  0  0  0  0  0  0  0
    5.0900   -7.9937  -14.3334 H   0  0  0  0  0  0  0  0  0  0  0  0
    1.3975   -9.6682  -15.1994 H   0  0  0  0  0  0  0  0  0  0  0  0
    1.7334  -10.3076  -17.7653 H   0  0  0  0  0  0  0  0  0  0  0  0
    4.5436  -11.4903  -17.6193 H   0  0  0  0  0  0  0  0  0  0  0  0
    3.0287  -12.3338  -17.2260 H   0  0  0  0  0  0  0  0  0  0  0  0
    4.1514  -12.5257  -19.6839 H   0  0  0  0  0  0  0  0  0  0  0  0
    2.3966  -12.3665  -19.5501 H   0  0  0  0  0  0  0  0  0  0  0  0
    4.3310  -10.3469  -20.5778 H   0  0  0  0  0  0  0  0  0  0  0  0
    2.5697  -10.3878  -20.7088 H   0  0  0  0  0  0  0  0  0  0  0  0
    3.3718   -5.9755  -18.8670 H   0  0  0  0  0  0  0  0  0  0  0  0
    0.9174   -5.3614  -19.2967 H   0  0  0  0  0  0  0  0  0  0  0  0
   -1.4883   -5.8770  -18.8364 H   0  0  0  0  0  0  0  0  0  0  0  0
   -2.1547   -7.7589  -17.3291 H   0  0  0  0  0  0  0  0  0  0  0  0
   -0.3784   -9.0950  -16.2625 H   0  0  0  0  0  0  0  0  0  0  0  0
    1.9388   -8.0987  -16.4919 H   0  0  0  0  0  0  0  0  0  0  0  0
    4.2281   -7.9403  -16.8878 H   0  0  0  0  0  0  0  0  0  0  0  0
    5.8696   -3.9848  -15.6882 H   0  0  0  0  0  0  0  0  0  0  0  0
    7.0925   -4.6406  -16.8283 H   0  0  0  0  0  0  0  0  0  0  0  0
    6.1179   -3.2255  -17.2778 H   0  0  0  0  0  0  0  0  0  0  0  0
   -1.5076   -3.2688    0.8103 H   0  0  0  0  0  0  0  0  0  0  0  0
   -4.5041   -1.6240    3.8446 H   0  0  0  0  0  0  0  0  0  0  0  0
   -3.0316   -1.7044    4.8788 H   0  0  0  0  0  0  0  0  0  0  0  0
   -3.6804   -0.1412    4.3545 H   0  0  0  0  0  0  0  0  0  0  0  0
  1  2  1  0  0  0  0
  1 64  1  0  0  0  0
  1 65  1  0  0  0  0
  1 66  1  0  0  0  0
  2  3  1  0  0  0  0
  2  4  1  0  0  0  0
  2 67  1  0  0  0  0
  3 68  1  0  0  0  0
  3 69  1  0  0  0  0
  3 70  1  0  0  0  0
  4  5  1  0  0  0  0
  4 59  1  0  0  0  0
  4 71  1  1  0  0  0
  5  6  2  0  0  0  0
  5  7  1  0  0  0  0
  7  8  1  0  0  0  0
  7 11  1  0  0  0  0
  8  9  1  0  0  0  0
  8 72  1  0  0  0  0
  8 73  1  0  0  0  0
  9 10  1  0  0  0  0
  9 74  1  0  0  0  0
  9 75  1  0  0  0  0
 10 11  1  0  0  0  0
 10 76  1  0  0  0  0
 10 77  1  0  0  0  0
 11 78  1  1  0  0  0
 11 12  1  0  0  0  0
 12 13  1  0  0  0  0
 12 20  2  0  0  0  0
 13 14  1  0  0  0  0
 13 79  1  0  0  0  0
 14 15  2  0  0  0  0
 14 19  1  0  0  0  0
 15 16  1  0  0  0  0
 15 80  1  0  0  0  0
 16 17  2  0  0  0  0
 16 21  1  0  0  0  0
 17 18  1  0  0  0  0
 17 81  1  0  0  0  0
 18 19  2  0  0  0  0
 18 82  1  0  0  0  0
 19 20  1  0  0  0  0
 21 22  2  0  0  0  0
 21 25  1  0  0  0  0
 22 23  1  0  0  0  0
 22 83  1  0  0  0  0
 23 24  1  0  0  0  0
 24 25  2  0  0  0  0
 24 28  1  0  0  0  0
 25 26  1  0  0  0  0
 26 27  1  0  0  0  0
 27 28  2  0  0  0  0
 27 84  1  0  0  0  0
 28 29  1  0  0  0  0
 29 30  2  0  0  0  0
 29 34  1  0  0  0  0
 30 31  1  0  0  0  0
 30 85  1  0  0  0  0
 31 32  2  0  0  0  0
 31 86  1  0  0  0  0
 32 33  1  0  0  0  0
 32 35  1  0  0  0  0
 33 34  2  0  0  0  0
 33 87  1  0  0  0  0
 34 88  1  0  0  0  0
 35 36  2  0  0  0  0
 35 39  1  0  0  0  0
 36 37  1  0  0  0  0
 36 89  1  0  0  0  0
 37 38  2  0  0  0  0
 38 39  1  0  0  0  0
 39 90  1  0  0  0  0
 40 38  1  0  0  0  0
 40 41  1  0  0  0  0
 40 44  1  0  0  0  0
 40 91  1  6  0  0  0
 41 42  1  0  0  0  0
 41 92  1  0  0  0  0
 41 93  1  0  0  0  0
 42 43  1  0  0  0  0
 42 94  1  0  0  0  0
 42 95  1  0  0  0  0
 43 44  1  0  0  0  0
 43 96  1  0  0  0  0
 43 97  1  0  0  0  0
 44 45  1  0  0  0  0
 45 46  2  0  0  0  0
 45 47  1  0  0  0  0
 47 48  1  0  0  0  0
 47 54  1  0  0  0  0
 47 98  1  6  0  0  0
 48 49  2  0  0  0  0
 48 53  1  0  0  0  0
 49 50  1  0  0  0  0
 49 99  1  0  0  0  0
 50 51  2  0  0  0  0
 50100  1  0  0  0  0
 51 52  1  0  0  0  0
 51101  1  0  0  0  0
 52 53  2  0  0  0  0
 52102  1  0  0  0  0
 53103  1  0  0  0  0
 54 55  1  0  0  0  0
 54104  1  0  0  0  0
 55 56  2  0  0  0  0
 55 57  1  0  0  0  0
 57 58  1  0  0  0  0
 58105  1  0  0  0  0
 58106  1  0  0  0  0
 58107  1  0  0  0  0
 59 60  1  0  0  0  0
 59108  1  0  0  0  0
 60 61  2  0  0  0  0
 60 62  1  0  0  0  0
 62 63  1  0  0  0  0
 63109  1  0  0  0  0
 63110  1  0  0  0  0
 63111  1  0  0  0  0
M  END
>  <DRUGBANK_ID>
DB12660

>  <COMMON_NAME>
Samatasvir

>  <CAS_NUMBER>
1312547-19-5

>  <UNII>
21P699C5FC

>  <SYNONYMS>
Samatasvir

$$$$
