
 OpenBabel10282417203D

 75 76  0  0  0  0  0  0  0  0999 V2000
    0.9328   -0.6791    0.1652 C   0  0  0  0  0  0  0  0  0  0  0  0
    0.7497    1.7032   -1.8850 C   0  0  0  0  0  0  0  0  0  0  0  0
   -3.7290    4.4777    2.9321 C   0  0  0  0  0  0  0  0  0  0  0  0
    3.9332    4.4692   -0.6897 C   0  0  0  0  0  0  0  0  0  0  0  0
    3.2993    0.6045   -0.9538 C   0  0  0  0  0  0  0  0  0  0  0  0
   -2.4457    2.6445   -4.6941 C   0  0  0  0  0  0  0  0  0  0  0  0
   -0.5829   -3.4654   -1.2929 C   0  0  0  0  0  0  0  0  0  0  0  0
   -2.5081   -2.9517   -4.5022 C   0  0  0  0  0  0  0  0  0  0  0  0
   -1.3400    1.3420    3.0134 C   0  0  0  0  0  0  0  0  0  0  0  0
   -0.0687    4.8031    0.9146 C   0  0  0  0  0  0  0  0  0  0  0  0
    1.2162    4.7441    0.1007 C   0  0  0  0  0  0  0  0  0  0  0  0
   -2.7375    3.0678    1.4330 C   0  0  0  0  0  0  0  0  0  0  0  0
   -1.5301    0.6419    1.4976 C   0  0  0  0  0  0  0  0  0  0  0  0
   -1.9991    2.7250    3.5538 C   0  0  0  0  0  0  0  0  0  0  0  0
   -3.7719    2.2822    2.1215 C   0  0  0  0  0  0  0  0  0  0  0  0
    0.5007    2.6435    1.4780 C   0  0  0  0  0  0  0  0  0  0  0  0
   -2.0879    1.2683   -2.3120 C   0  0  0  0  0  0  0  0  0  0  0  0
   -1.5554   -0.7937   -1.1697 C   0  0  0  0  0  0  0  0  0  0  0  0
   -1.4871    2.8369   -0.0183 C   0  0  0  0  0  0  0  0  0  0  0  0
    0.3230    0.7532   -0.3910 C   0  0  0  0  0  0  0  0  0  0  0  0
   -0.6888    3.6474    1.6564 C   0  0  0  0  0  0  0  0  0  0  0  0
   -1.7147    0.6071   -1.1357 C   0  0  0  0  0  0  0  0  0  0  0  0
    2.0877    3.6447    0.0170 C   0  0  0  0  0  0  0  0  0  0  0  0
    1.7842    2.5384    0.6057 C   0  0  0  0  0  0  0  0  0  0  0  0
   -2.2245    0.5636   -3.5044 C   0  0  0  0  0  0  0  0  0  0  0  0
   -1.5910   -1.5056   -2.3411 C   0  0  0  0  0  0  0  0  0  0  0  0
   -2.0627   -0.8501   -3.4936 C   0  0  0  0  0  0  0  0  0  0  0  0
   -0.9804    1.4047    0.0330 C   0  0  3  0  0  0  0  0  0  0  0  0
   -1.9074    4.0250   -0.0608 N   0  0  0  0  0  0  0  0  0  0  0  0
   -3.4697    2.9485    3.3408 N   0  0  0  0  0  0  0  0  0  0  0  0
    3.2870    3.3117   -0.4643 O   0  0  0  0  0  0  0  0  0  0  0  0
    2.3063    1.3655   -0.1862 O   0  0  0  0  0  0  0  0  0  0  0  0
   -2.4462    1.2082   -4.7024 O   0  0  0  0  0  0  0  0  0  0  0  0
   -1.1521   -2.7993   -2.4080 O   0  0  0  0  0  0  0  0  0  0  0  0
   -2.4709   -1.5284   -4.6222 O   0  0  0  0  0  0  0  0  0  0  0  0
    0.8720   -1.3723   -0.6263 H   0  0  0  0  0  0  0  0  0  0  0  0
    0.5335   -1.0014    1.1518 H   0  0  0  0  0  0  0  0  0  0  0  0
    1.9928   -0.6875    0.5109 H   0  0  0  0  0  0  0  0  0  0  0  0
    0.4240    1.1768   -2.7804 H   0  0  0  0  0  0  0  0  0  0  0  0
    0.3108    2.7373   -1.9038 H   0  0  0  0  0  0  0  0  0  0  0  0
    1.7758    2.0159   -2.1529 H   0  0  0  0  0  0  0  0  0  0  0  0
   -3.2246    4.9723    2.0448 H   0  0  0  0  0  0  0  0  0  0  0  0
   -4.7805    4.5544    2.6491 H   0  0  0  0  0  0  0  0  0  0  0  0
   -3.2916    5.0996    3.6851 H   0  0  0  0  0  0  0  0  0  0  0  0
    3.3959    4.8075   -1.5695 H   0  0  0  0  0  0  0  0  0  0  0  0
    3.8154    5.0400    0.2359 H   0  0  0  0  0  0  0  0  0  0  0  0
    4.9292    4.1031   -0.8599 H   0  0  0  0  0  0  0  0  0  0  0  0
    3.5169    0.8785   -2.0042 H   0  0  0  0  0  0  0  0  0  0  0  0
    4.0540    0.6367   -0.2066 H   0  0  0  0  0  0  0  0  0  0  0  0
    3.0649   -0.5015   -1.1042 H   0  0  0  0  0  0  0  0  0  0  0  0
   -3.2672    3.0338   -4.0815 H   0  0  0  0  0  0  0  0  0  0  0  0
   -1.4865    3.0665   -4.3600 H   0  0  0  0  0  0  0  0  0  0  0  0
   -2.6103    2.9967   -5.7169 H   0  0  0  0  0  0  0  0  0  0  0  0
    0.3900   -3.0543   -1.0394 H   0  0  0  0  0  0  0  0  0  0  0  0
   -1.2598   -3.4705   -0.4359 H   0  0  0  0  0  0  0  0  0  0  0  0
   -0.3885   -4.5011   -1.5813 H   0  0  0  0  0  0  0  0  0  0  0  0
   -1.4839   -3.3414   -4.5002 H   0  0  0  0  0  0  0  0  0  0  0  0
   -3.0791   -3.2970   -3.6238 H   0  0  0  0  0  0  0  0  0  0  0  0
   -2.9927   -3.3713   -5.3801 H   0  0  0  0  0  0  0  0  0  0  0  0
   -1.5756    0.5931    3.7534 H   0  0  0  0  0  0  0  0  0  0  0  0
   -0.2661    1.4028    3.2656 H   0  0  0  0  0  0  0  0  0  0  0  0
   -0.6713    5.6443    0.5313 H   0  0  0  0  0  0  0  0  0  0  0  0
    1.4302    5.5725   -0.5764 H   0  0  0  0  0  0  0  0  0  0  0  0
   -3.1165    2.4054    0.4292 H   0  0  0  0  0  0  0  0  0  0  0  0
   -3.4300    3.8588    0.8754 H   0  0  0  0  0  0  0  0  0  0  0  0
   -2.5116    0.2000    1.3115 H   0  0  0  0  0  0  0  0  0  0  0  0
   -1.0485   -0.3271    1.6140 H   0  0  0  0  0  0  0  0  0  0  0  0
   -1.2867    3.1715    4.2595 H   0  0  0  0  0  0  0  0  0  0  0  0
   -1.7801    3.6685    3.0964 H   0  0  0  0  0  0  0  0  0  0  0  0
   -3.7432    1.2167    1.8548 H   0  0  0  0  0  0  0  0  0  0  0  0
   -4.7586    2.4861    1.6235 H   0  0  0  0  0  0  0  0  0  0  0  0
    0.3475    1.6575    1.8093 H   0  0  0  0  0  0  0  0  0  0  0  0
   -2.1525    2.3506   -2.3086 H   0  0  0  0  0  0  0  0  0  0  0  0
   -1.2160   -1.3074   -0.2832 H   0  0  0  0  0  0  0  0  0  0  0  0
    0.8530    0.8373    0.5523 H   0  0  0  0  0  0  0  0  0  0  0  0
  1 36  1  0  0  0  0
  1 37  1  0  0  0  0
  1 38  1  0  0  0  0
  2 39  1  0  0  0  0
  2 40  1  0  0  0  0
  2 41  1  0  0  0  0
  3 42  1  0  0  0  0
  3 43  1  0  0  0  0
  3 44  1  0  0  0  0
  4 45  1  0  0  0  0
  4 46  1  0  0  0  0
  4 47  1  0  0  0  0
  5 48  1  0  0  0  0
  5 49  1  0  0  0  0
  5 50  1  0  0  0  0
  6 51  1  0  0  0  0
  6 52  1  0  0  0  0
  6 53  1  0  0  0  0
  7 54  1  0  0  0  0
  7 55  1  0  0  0  0
  7 56  1  0  0  0  0
  8 57  1  0  0  0  0
  8 58  1  0  0  0  0
  8 59  1  0  0  0  0
  9 60  1  0  0  0  0
  9 61  1  0  0  0  0
 10 62  1  0  0  0  0
 11 10  2  0  0  0  0
 11 63  1  0  0  0  0
 12 64  1  0  0  0  0
 12 65  1  0  0  0  0
 13  9  1  0  0  0  0
 13 66  1  0  0  0  0
 13 67  1  0  0  0  0
 14  9  1  0  0  0  0
 14 68  1  0  0  0  0
 14 69  1  0  0  0  0
 15 12  1  0  0  0  0
 15 70  1  0  0  0  0
 15 71  1  0  0  0  0
 16 72  1  0  0  0  0
 17 73  1  0  0  0  0
 18 74  1  0  0  0  0
 20  1  1  0  0  0  0
 20  2  1  0  0  0  0
 20 75  1  0  0  0  0
 21 10  1  0  0  0  0
 21 12  1  0  0  0  0
 21 16  2  0  0  0  0
 22 17  2  0  0  0  0
 22 18  1  0  0  0  0
 23 11  1  0  0  0  0
 24 16  1  0  0  0  0
 24 23  2  0  0  0  0
 25 17  1  0  0  0  0
 26 18  2  0  0  0  0
 27 25  2  0  0  0  0
 27 26  1  0  0  0  0
 28 13  1  0  0  0  0
 28 19  1  0  0  0  0
 28 20  1  0  0  0  0
 28 22  1  0  0  0  0
 29 19  3  0  0  0  0
 30  3  1  0  0  0  0
 30 14  1  0  0  0  0
 30 15  1  0  0  0  0
 31  4  1  0  0  0  0
 31 23  1  0  0  0  0
 32  5  1  0  0  0  0
 32 24  1  0  0  0  0
 33  6  1  0  0  0  0
 33 25  1  0  0  0  0
 34  7  1  0  0  0  0
 34 26  1  0  0  0  0
 35  8  1  0  0  0  0
 35 27  1  0  0  0  0
M  END
>  <DRUGBANK_ID>
DB12923

>  <COMMON_NAME>
Gallopamil

>  <CAS_NUMBER>
16662-47-8

>  <UNII>
39WPC8JHR8

>  <SYNONYMS>
Gallopamil

$$$$
