173
 OpenBabel10282417103D

 15 16  0  0  0  0  0  0  0  0999 V2000
   -1.5820    1.0780    0.0000 N   0  0  0  0  0  0  0  0  0  0  0  0
   -1.5243   -1.1403    0.0011 N   0  0  0  0  0  0  0  0  0  0  0  0
    0.8824   -1.3682   -0.0009 N   0  0  0  0  0  0  0  0  0  0  0  0
    2.0606    0.7505   -0.0031 N   0  0  0  0  0  0  0  0  0  0  0  0
    0.9657    2.8255   -0.0015 N   0  0  0  0  0  0  0  0  0  0  0  0
   -0.2593    0.7417   -0.0012 C   0  0  0  0  0  0  0  0  0  0  0  0
   -0.2478   -0.6409   -0.0003 C   0  0  0  0  0  0  0  0  0  0  0  0
    0.9176    1.4554   -0.0023 C   0  0  0  0  0  0  0  0  0  0  0  0
   -2.3047   -0.0814    0.0011 C   0  0  0  0  0  0  0  0  0  0  0  0
    1.9814   -0.6001   -0.0024 C   0  0  0  0  0  0  0  0  0  0  0  0
   -1.9549    2.0166    0.0002 H   0  0  0  0  0  0  0  0  0  0  0  0
    0.1428    3.4002   -0.0138 H   0  0  0  0  0  0  0  0  0  0  0  0
    1.8828    3.2486   -0.0108 H   0  0  0  0  0  0  0  0  0  0  0  0
   -3.3863   -0.0882    0.0018 H   0  0  0  0  0  0  0  0  0  0  0  0
    2.9295   -1.1301   -0.0034 H   0  0  0  0  0  0  0  0  0  0  0  0
  1  6  1  0  0  0  0
  1  9  1  0  0  0  0
  1 11  1  0  0  0  0
  2  7  1  0  0  0  0
  2  9  2  0  0  0  0
  3  7  2  0  0  0  0
  3 10  1  0  0  0  0
  4  8  1  0  0  0  0
  4 10  2  0  0  0  0
  5  8  1  0  0  0  0
  5 12  1  0  0  0  0
  5 13  1  0  0  0  0
  6  7  1  0  0  0  0
  6  8  2  0  0  0  0
  9 14  1  0  0  0  0
 10 15  1  0  0  0  0
M  END
>  <DRUGBANK_ID>
DB00173

>  <SECONDARY_ACCESSION_NUMBERS>
NUTR00012; EXPT00520

>  <COMMON_NAME>
Adenine

>  <CAS_NUMBER>
73-24-5

>  <UNII>
JAC85A2161

>  <SYNONYMS>
6-Aminopurine; Adenin; Adenine; Vitamin B4

$$$$
