
 OpenBabel10282417173D

 37 39  0  0  0  0  0  0  0  0999 V2000
    0.1264    0.7793    0.0601 C   0  0  0  0  0  0  0  0  0  0  0  0
    0.2084   -0.6079    0.0707 C   0  0  0  0  0  0  0  0  0  0  0  0
   -0.9169   -1.3897    0.0327 C   0  0  0  0  0  0  0  0  0  0  0  0
   -2.1489   -0.7319   -0.0402 C   0  0  0  0  0  0  0  0  0  0  0  0
   -2.2384    0.6921   -0.0551 C   0  0  0  0  0  0  0  0  0  0  0  0
   -1.0905    1.5025   -0.0100 C   0  0  0  0  0  0  0  0  0  0  0  0
    1.5204    1.3120    0.1347 C   0  0  0  0  0  0  0  0  0  0  0  0
    2.3018    0.0539   -0.2205 C   0  0  0  0  0  0  0  0  0  0  0  0
    1.4901   -1.0977    0.0921 O   0  0  0  0  0  0  0  0  0  0  0  0
   -0.9540    3.0094   -0.0443 C   0  0  2  0  0  0  0  0  0  0  0  0
   -1.7264    3.8018    1.0166 C   0  0  0  0  0  0  0  0  0  0  0  0
   -1.6116    4.3135   -0.3814 C   0  0  1  0  0  0  0  0  0  0  0  0
   -0.6793    5.5028   -0.6486 C   0  0  0  0  0  0  0  0  0  0  0  0
   -0.2602    5.5144   -2.0463 N   0  0  0  0  0  0  0  0  0  0  0  0
   -0.5779    6.5486   -2.8954 C   0  0  0  0  0  0  0  0  0  0  0  0
   -0.1422    6.3949   -4.3436 C   0  0  0  0  0  0  0  0  0  0  0  0
   -1.2009    7.5504   -2.5221 O   0  0  0  0  0  0  0  0  0  0  0  0
   -1.3509    6.4177   -5.2693 C   0  0  0  0  0  0  0  0  0  0  0  0
   -0.8375   -2.4721    0.0323 H   0  0  0  0  0  0  0  0  0  0  0  0
   -3.0524   -1.3371   -0.1078 H   0  0  0  0  0  0  0  0  0  0  0  0
   -3.2298    1.1351   -0.1182 H   0  0  0  0  0  0  0  0  0  0  0  0
    1.7348    2.1027   -0.5885 H   0  0  0  0  0  0  0  0  0  0  0  0
    1.7540    1.6591    1.1463 H   0  0  0  0  0  0  0  0  0  0  0  0
    3.2496    0.0030    0.3256 H   0  0  0  0  0  0  0  0  0  0  0  0
    2.5368    0.0284   -1.2937 H   0  0  0  0  0  0  0  0  0  0  0  0
    0.0278    3.2075   -0.4509 H   0  0  0  0  0  0  0  0  0  0  0  0
   -2.7488    3.5574    1.3062 H   0  0  0  0  0  0  0  0  0  0  0  0
   -1.1589    4.1955    1.8517 H   0  0  0  0  0  0  0  0  0  0  0  0
   -2.4986    4.3565   -0.9931 H   0  0  0  0  0  0  0  0  0  0  0  0
   -1.1682    6.4443   -0.3833 H   0  0  0  0  0  0  0  0  0  0  0  0
    0.2404    5.4451   -0.0428 H   0  0  0  0  0  0  0  0  0  0  0  0
    0.3113    4.7503   -2.3848 H   0  0  0  0  0  0  0  0  0  0  0  0
    0.5200    7.2335   -4.5919 H   0  0  0  0  0  0  0  0  0  0  0  0
    0.4296    5.4740   -4.4978 H   0  0  0  0  0  0  0  0  0  0  0  0
   -1.9221    7.3457   -5.1534 H   0  0  0  0  0  0  0  0  0  0  0  0
   -1.0442    6.3443   -6.3180 H   0  0  0  0  0  0  0  0  0  0  0  0
   -2.0251    5.5838   -5.0495 H   0  0  0  0  0  0  0  0  0  0  0  0
  1  2  2  0  0  0  0
  1  6  1  0  0  0  0
  1  7  1  0  0  0  0
  2  3  1  0  0  0  0
  2  9  1  0  0  0  0
  3  4  2  0  0  0  0
  3 19  1  0  0  0  0
  4  5  1  0  0  0  0
  4 20  1  0  0  0  0
  5  6  2  0  0  0  0
  5 21  1  0  0  0  0
  7  8  1  0  0  0  0
  7 22  1  0  0  0  0
  7 23  1  0  0  0  0
  8  9  1  0  0  0  0
  8 24  1  0  0  0  0
  8 25  1  0  0  0  0
 10  6  1  0  0  0  0
 10 26  1  1  0  0  0
 11 12  1  0  0  0  0
 11 10  1  0  0  0  0
 11 27  1  0  0  0  0
 11 28  1  0  0  0  0
 12 10  1  0  0  0  0
 12 13  1  0  0  0  0
 12 29  1  6  0  0  0
 13 14  1  0  0  0  0
 13 30  1  0  0  0  0
 13 31  1  0  0  0  0
 14 15  1  0  0  0  0
 14 32  1  0  0  0  0
 15 16  1  0  0  0  0
 15 17  2  0  0  0  0
 16 18  1  0  0  0  0
 16 33  1  0  0  0  0
 16 34  1  0  0  0  0
 18 35  1  0  0  0  0
 18 36  1  0  0  0  0
 18 37  1  0  0  0  0
M  END
>  <DRUGBANK_ID>
DB09071

>  <SECONDARY_ACCESSION_NUMBERS>
DB05359

>  <COMMON_NAME>
Tasimelteon

>  <CAS_NUMBER>
609799-22-6

>  <UNII>
SHS4PU80D9

>  <SYNONYMS>
N-{[(1R,2R)-2-(2,3-dihydro-1-benzofuran-4-yl)cyclopropyl]methyl}propanamide; Tasimelteon; Tasimelteón; Tasimeltéon; Tasimelteonum

$$$$
