
 OpenBabel10282417123D

 33 33  0  0  1  0  0  0  0  0999 V2000
   -1.2959   -1.9696    0.5097 O   0  0  0  0  0  0  0  0  0  0  0  0
   -0.3777   -1.0183    0.0180 C   0  0  1  0  0  0  0  0  0  0  0  0
   -0.2897    0.2713    0.8313 C   0  0  2  0  0  0  0  0  0  0  0  0
   -1.5585    0.8196    0.9565 O   0  0  0  0  0  0  0  0  0  0  0  0
    0.9899    1.0282    0.2548 C   0  0  2  0  0  0  0  0  0  0  0  0
    1.1262    2.0193   -0.9888 C   0  0  0  0  0  0  0  0  0  0  0  0
    0.0709    2.9892   -1.1722 O   0  0  0  0  0  0  0  0  0  0  0  0
   -1.4911    2.2797   -0.9498 P   0  0  0  0  0  0  0  0  0  0  0  0
   -0.9001    1.2969   -2.0303 O   0  0  0  0  0  0  0  0  0  0  0  0
   -1.3663    3.4395    0.1255 O   0  0  0  0  0  0  0  0  0  0  0  0
   -2.8891    1.6446   -0.7507 O   0  0  0  0  0  0  0  0  0  0  0  0
    1.8317   -0.1265   -0.0845 O   0  0  0  0  0  0  0  0  0  0  0  0
    1.0621   -1.3555    0.1095 C   0  0  2  0  0  0  0  0  0  0  0  0
    1.4916   -2.3879   -0.9115 C   0  0  0  0  0  0  0  0  0  0  0  0
    2.1377   -3.3830   -0.1550 O   0  0  0  0  0  0  0  0  0  0  0  0
    3.5202   -2.9601    0.5721 P   0  0  0  0  0  0  0  0  0  0  0  0
    4.4731   -3.9738   -0.2137 O   0  0  0  0  0  0  0  0  0  0  0  0
    3.9494   -1.5566   -0.0831 O   0  0  0  0  0  0  0  0  0  0  0  0
    3.5633   -3.0726    2.0293 O   0  0  0  0  0  0  0  0  0  0  0  0
   -0.6539   -0.9342   -1.0286 H   0  0  0  0  0  0  0  0  0  0  0  0
   -0.0488    0.0724    1.8826 H   0  0  0  0  0  0  0  0  0  0  0  0
    1.4754    1.5725    1.0746 H   0  0  0  0  0  0  0  0  0  0  0  0
    1.2514   -1.6925    1.1361 H   0  0  0  0  0  0  0  0  0  0  0  0
   -1.5414   -2.5631   -0.2291 H   0  0  0  0  0  0  0  0  0  0  0  0
   -2.2064    0.3879    0.3412 H   0  0  0  0  0  0  0  0  0  0  0  0
    2.0875    2.5521   -1.0029 H   0  0  0  0  0  0  0  0  0  0  0  0
    1.2335    1.4391   -1.9248 H   0  0  0  0  0  0  0  0  0  0  0  0
   -0.5104    0.5768   -1.5485 H   0  0  0  0  0  0  0  0  0  0  0  0
   -1.4077    4.3135   -0.3034 H   0  0  0  0  0  0  0  0  0  0  0  0
    0.6640   -2.8263   -1.4789 H   0  0  0  0  0  0  0  0  0  0  0  0
    2.1954   -1.9856   -1.6496 H   0  0  0  0  0  0  0  0  0  0  0  0
    4.3627   -4.8488    0.1898 H   0  0  0  0  0  0  0  0  0  0  0  0
    3.2997   -0.8277    0.0027 H   0  0  0  0  0  0  0  0  0  0  0  0
  1 24  1  0  0  0  0
  2  1  1  0  0  0  0
  2  3  1  0  0  0  0
  2 13  1  0  0  0  0
  2 20  1  6  0  0  0
  3  4  1  0  0  0  0
  3  5  1  0  0  0  0
  3 21  1  1  0  0  0
  4 25  1  0  0  0  0
  5 12  1  0  0  0  0
  5 22  1  1  0  0  0
  5  6  1  0  0  0  0
  6  7  1  0  0  0  0
  6 26  1  0  0  0  0
  6 27  1  0  0  0  0
  7  8  1  0  0  0  0
  8  9  1  0  0  0  0
  8 10  1  0  0  0  0
  8 11  2  0  0  0  0
  9 28  1  0  0  0  0
 10 29  1  0  0  0  0
 12 13  1  0  0  0  0
 13 23  1  1  0  0  0
 13 14  1  0  0  0  0
 14 15  1  0  0  0  0
 14 30  1  0  0  0  0
 14 31  1  0  0  0  0
 15 16  1  0  0  0  0
 16 17  1  0  0  0  0
 16 18  1  0  0  0  0
 16 19  2  0  0  0  0
 17 32  1  0  0  0  0
 18 33  1  0  0  0  0
M  END
>  <DRUGBANK_ID>
DB02778

>  <SECONDARY_ACCESSION_NUMBERS>
EXPT00466

>  <COMMON_NAME>
2,5-Anhydroglucitol-1,6-Biphosphate

$$$$
