
 OpenBabel10282417103D

 38 37  0  0  1  0  0  0  0  0999 V2000
    4.7713   -5.4732   -1.5681 N   0  0  0  0  0  0  0  0  0  0  0  0
    4.2733   -4.0441    0.9189 N   0  0  0  0  0  0  0  0  0  0  0  0
    1.8812   -6.2558   -2.7205 O   0  0  0  0  0  0  0  0  0  0  0  0
    2.6196   -2.5251    2.5252 O   0  0  0  0  0  0  0  0  0  0  0  0
    4.7641   -3.5394    2.2094 C   0  0  2  0  0  0  0  0  0  0  0  0
    4.3496   -5.9276   -2.9091 C   0  0  2  0  0  0  0  0  0  0  0  0
    4.3217   -5.5036    0.8749 C   0  0  0  0  0  0  0  0  0  0  0  0
    3.8894   -5.9868   -0.5045 C   0  0  0  0  0  0  0  0  0  0  0  0
    4.0151   -2.2138    2.4197 C   0  0  0  0  0  0  0  0  0  0  0  0
    2.9168   -5.4473   -3.2701 C   0  0  0  0  0  0  0  0  0  0  0  0
    6.2921   -3.4458    2.2060 C   0  0  0  0  0  0  0  0  0  0  0  0
    4.5601   -7.4477   -3.0431 C   0  0  0  0  0  0  0  0  0  0  0  0
    6.8200   -3.0073    3.5580 C   0  0  0  0  0  0  0  0  0  0  0  0
    4.1973   -7.9683   -4.4225 C   0  0  0  0  0  0  0  0  0  0  0  0
    4.7057   -4.4553   -1.5595 H   0  0  0  0  0  0  0  0  0  0  0  0
    4.8592   -3.6676    0.1745 H   0  0  0  0  0  0  0  0  0  0  0  0
    2.0812   -7.1920   -2.9149 H   0  0  0  0  0  0  0  0  0  0  0  0
    2.4981   -3.2641    1.8911 H   0  0  0  0  0  0  0  0  0  0  0  0
    4.4436   -4.2241    3.0056 H   0  0  0  0  0  0  0  0  0  0  0  0
    5.0364   -5.4328   -3.6096 H   0  0  0  0  0  0  0  0  0  0  0  0
    3.6267   -5.9153    1.6153 H   0  0  0  0  0  0  0  0  0  0  0  0
    5.3239   -5.8847    1.0936 H   0  0  0  0  0  0  0  0  0  0  0  0
    2.8605   -5.6488   -0.6566 H   0  0  0  0  0  0  0  0  0  0  0  0
    3.8999   -7.0778   -0.4760 H   0  0  0  0  0  0  0  0  0  0  0  0
    4.3136   -1.6959    3.3325 H   0  0  0  0  0  0  0  0  0  0  0  0
    4.1409   -1.5323    1.5702 H   0  0  0  0  0  0  0  0  0  0  0  0
    2.7562   -4.4241   -2.9077 H   0  0  0  0  0  0  0  0  0  0  0  0
    2.7870   -5.4209   -4.3555 H   0  0  0  0  0  0  0  0  0  0  0  0
    6.7226   -4.4321    1.9874 H   0  0  0  0  0  0  0  0  0  0  0  0
    6.6501   -2.7713    1.4190 H   0  0  0  0  0  0  0  0  0  0  0  0
    5.6060   -7.6992   -2.8230 H   0  0  0  0  0  0  0  0  0  0  0  0
    3.9573   -7.9982   -2.3134 H   0  0  0  0  0  0  0  0  0  0  0  0
    6.4509   -3.6733    4.3451 H   0  0  0  0  0  0  0  0  0  0  0  0
    7.9125   -3.0384    3.5679 H   0  0  0  0  0  0  0  0  0  0  0  0
    6.5052   -1.9873    3.7898 H   0  0  0  0  0  0  0  0  0  0  0  0
    4.8634   -7.5498   -5.1805 H   0  0  0  0  0  0  0  0  0  0  0  0
    4.2781   -9.0585   -4.4397 H   0  0  0  0  0  0  0  0  0  0  0  0
    3.1686   -7.7164   -4.6945 H   0  0  0  0  0  0  0  0  0  0  0  0
  1 15  1  0  0  0  0
  2 16  1  0  0  0  0
  3 17  1  0  0  0  0
  4 18  1  0  0  0  0
  5 19  1  1  0  0  0
  5  9  1  0  0  0  0
  5  2  1  0  0  0  0
  6 20  1  6  0  0  0
  6 10  1  0  0  0  0
  6  1  1  0  0  0  0
  7  2  1  0  0  0  0
  7 21  1  0  0  0  0
  7 22  1  0  0  0  0
  8  1  1  0  0  0  0
  8  7  1  0  0  0  0
  8 23  1  0  0  0  0
  8 24  1  0  0  0  0
  9  4  1  0  0  0  0
  9 25  1  0  0  0  0
  9 26  1  0  0  0  0
 10  3  1  0  0  0  0
 10 27  1  0  0  0  0
 10 28  1  0  0  0  0
 11  5  1  0  0  0  0
 11 29  1  0  0  0  0
 11 30  1  0  0  0  0
 12  6  1  0  0  0  0
 12 14  1  0  0  0  0
 12 31  1  0  0  0  0
 12 32  1  0  0  0  0
 13 11  1  0  0  0  0
 13 33  1  0  0  0  0
 13 34  1  0  0  0  0
 13 35  1  0  0  0  0
 14 36  1  0  0  0  0
 14 37  1  0  0  0  0
 14 38  1  0  0  0  0
M  END
>  <DRUGBANK_ID>
DB00330

>  <SECONDARY_ACCESSION_NUMBERS>
APRD00957

>  <COMMON_NAME>
Ethambutol

>  <CAS_NUMBER>
74-55-5

>  <UNII>
8G167061QZ

>  <SYNONYMS>
(+)-2,2'-(ethylenediimino)di-1-butanol; (+)-ethambutol; (+)-N,N'-bis(1-(hydroxymethyl)propyl)ethylenediamine; (+)-S,S-ethambutol; (2S,7S)-2,7-diethyl-3,6-diazaoctane-1,8-diol; (S,S)-ethambutol; EMB; Etambutol; Etambutolo; Ethambutol; Ethambutolum; S,S-Ethambutol

$$$$
