
 OpenBabel10282417193D

 57 57  0  0  1  0  0  0  0  0999 V2000
   -0.1212    0.0224    2.2392 C   0  0  0  0  0  0  0  0  0  0  0  0
    1.2649    0.2689    1.9759 C   0  0  0  0  0  0  0  0  0  0  0  0
    1.4862   -1.2489    2.0815 C   0  0  2  0  0  0  0  0  0  0  0  0
    0.8741   -1.6639    0.6801 C   0  0  0  0  0  0  0  0  0  0  0  0
    0.0677   -2.4970    0.4543 O   0  0  0  0  0  0  0  0  0  0  0  0
    1.2262   -0.6033   -0.1957 O   0  0  0  0  0  0  0  0  0  0  0  0
    0.8638   -0.8185   -1.4911 C   0  0  0  0  0  0  0  0  0  0  0  0
   -0.4792   -0.7028   -1.8847 C   0  0  0  0  0  0  0  0  0  0  0  0
   -0.7769   -1.0520   -3.1844 C   0  0  0  0  0  0  0  0  0  0  0  0
    0.2478   -1.4472   -4.0568 C   0  0  0  0  0  0  0  0  0  0  0  0
    1.5897   -1.4910   -3.6262 C   0  0  0  0  0  0  0  0  0  0  0  0
    1.9226   -1.1653   -2.3239 C   0  0  0  0  0  0  0  0  0  0  0  0
    3.2538   -1.2387   -1.9813 O   0  0  0  0  0  0  0  0  0  0  0  0
    3.6624   -0.9145   -0.6467 C   0  0  0  0  0  0  0  0  0  0  0  0
   -0.1084   -1.8141   -5.4617 C   0  0  0  0  0  0  0  0  0  0  0  0
   -1.3961   -0.2732   -0.9604 O   0  0  0  0  0  0  0  0  0  0  0  0
   -2.7662   -0.2683   -1.3606 C   0  0  0  0  0  0  0  0  0  0  0  0
    0.6470   -2.0439    3.3730 N   0  0  0  0  0  0  0  0  0  0  0  0
    1.1001   -1.4169    4.8091 C   0  0  0  0  0  0  0  0  0  0  0  0
    0.8554    0.0091    5.6501 C   0  0  0  0  0  0  0  0  0  0  0  0
   -0.3946    0.2768    6.3570 O   0  0  0  0  0  0  0  0  0  0  0  0
   -1.4080    0.4539    5.4376 C   0  0  0  0  0  0  0  0  0  0  0  0
   -1.1034   -1.9739    3.1737 C   0  0  0  0  0  0  0  0  0  0  0  0
   -2.3340   -0.5168    3.0579 C   0  0  0  0  0  0  0  0  0  0  0  0
   -2.0226    1.2143    2.7704 O   0  0  0  0  0  0  0  0  0  0  0  0
   -0.5991    2.1417    3.0677 C   0  0  0  0  0  0  0  0  0  0  0  0
   -0.7884   -0.4446    1.5071 H   0  0  0  0  0  0  0  0  0  0  0  0
   -0.6453    0.2625    3.1068 H   0  0  0  0  0  0  0  0  0  0  0  0
    0.1020   -0.3799    3.1929 H   0  0  0  0  0  0  0  0  0  0  0  0
    1.1060    0.9234    1.1025 H   0  0  0  0  0  0  0  0  0  0  0  0
    1.8643    0.8834    2.6489 H   0  0  0  0  0  0  0  0  0  0  0  0
    2.5648   -1.3468    2.2157 H   0  0  0  0  0  0  0  0  0  0  0  0
   -1.7989   -1.0350   -3.5443 H   0  0  0  0  0  0  0  0  0  0  0  0
    2.3792   -1.7911   -4.3070 H   0  0  0  0  0  0  0  0  0  0  0  0
    3.4046    0.1188   -0.3744 H   0  0  0  0  0  0  0  0  0  0  0  0
    3.2605   -1.6403    0.0663 H   0  0  0  0  0  0  0  0  0  0  0  0
    4.7449   -1.0052   -0.5442 H   0  0  0  0  0  0  0  0  0  0  0  0
    0.4059   -1.1488   -6.1591 H   0  0  0  0  0  0  0  0  0  0  0  0
    0.1640   -2.8541   -5.6551 H   0  0  0  0  0  0  0  0  0  0  0  0
   -1.1859   -1.7097   -5.6301 H   0  0  0  0  0  0  0  0  0  0  0  0
   -2.9296    0.4570   -2.1649 H   0  0  0  0  0  0  0  0  0  0  0  0
   -3.1017   -1.2680   -1.6609 H   0  0  0  0  0  0  0  0  0  0  0  0
   -3.3818    0.0388   -0.5084 H   0  0  0  0  0  0  0  0  0  0  0  0
    0.7791   -2.1822    5.5181 H   0  0  0  0  0  0  0  0  0  0  0  0
    2.2010   -1.4525    4.7601 H   0  0  0  0  0  0  0  0  0  0  0  0
    1.5302   -0.0105    6.5132 H   0  0  0  0  0  0  0  0  0  0  0  0
    1.2048    0.8915    5.0956 H   0  0  0  0  0  0  0  0  0  0  0  0
   -1.2336    1.3752    4.9531 H   0  0  0  0  0  0  0  0  0  0  0  0
   -1.2630   -0.4426    4.8796 H   0  0  0  0  0  0  0  0  0  0  0  0
   -2.4826    0.5954    5.6098 H   0  0  0  0  0  0  0  0  0  0  0  0
   -1.3129   -2.6184    2.3019 H   0  0  0  0  0  0  0  0  0  0  0  0
   -1.4347   -2.5825    4.0327 H   0  0  0  0  0  0  0  0  0  0  0  0
   -3.2800   -0.7184    2.5201 H   0  0  0  0  0  0  0  0  0  0  0  0
   -2.7889   -0.5450    4.0400 H   0  0  0  0  0  0  0  0  0  0  0  0
   -0.3750    2.4897    4.0783 H   0  0  0  0  0  0  0  0  0  0  0  0
    0.2785    1.5455    3.3423 H   0  0  0  0  0  0  0  0  0  0  0  0
   -0.1305    2.5699    2.1625 H   0  0  0  0  0  0  0  0  0  0  0  0
  1  2  1  0  0  0  0
  1 27  1  0  0  0  0
  1 28  1  0  0  0  0
  1 29  1  0  0  0  0
  2 30  1  0  0  0  0
  2 31  1  0  0  0  0
  3 18  1  0  0  0  0
  3 32  1  1  0  0  0
  3  4  1  0  0  0  0
  3  2  1  0  0  0  0
  4  5  2  0  0  0  0
  4  6  1  0  0  0  0
  6  7  1  0  0  0  0
  7  8  2  0  0  0  0
  7 12  1  0  0  0  0
  8  9  1  0  0  0  0
  8 16  1  0  0  0  0
  9 10  2  0  0  0  0
  9 33  1  0  0  0  0
 10 11  1  0  0  0  0
 10 15  1  0  0  0  0
 11 12  2  0  0  0  0
 11 34  1  0  0  0  0
 12 13  1  0  0  0  0
 13 14  1  0  0  0  0
 14 35  1  0  0  0  0
 14 36  1  0  0  0  0
 14 37  1  0  0  0  0
 15 38  1  0  0  0  0
 15 39  1  0  0  0  0
 15 40  1  0  0  0  0
 16 17  1  0  0  0  0
 17 41  1  0  0  0  0
 17 42  1  0  0  0  0
 17 43  1  0  0  0  0
 18 19  1  0  0  0  0
 18 23  1  0  0  0  0
 19 20  1  0  0  0  0
 19 44  1  0  0  0  0
 19 45  1  0  0  0  0
 20 21  1  0  0  0  0
 20 46  1  0  0  0  0
 20 47  1  0  0  0  0
 21 22  1  0  0  0  0
 22 48  1  0  0  0  0
 22 49  1  0  0  0  0
 22 50  1  0  0  0  0
 23 24  1  0  0  0  0
 23 51  1  0  0  0  0
 23 52  1  0  0  0  0
 24 25  1  0  0  0  0
 24 53  1  0  0  0  0
 24 54  1  0  0  0  0
 25 26  1  0  0  0  0
 26 55  1  0  0  0  0
 26 56  1  0  0  0  0
 26 57  1  0  0  0  0
M  END
>  <DRUGBANK_ID>
DB12312

>  <COMMON_NAME>
ORG-25435

>  <CAS_NUMBER>
256456-73-2

>  <UNII>
VCW1NHW3OV

$$$$
