
 OpenBabel10282417203D

 27 27  0  0  0  0  0  0  0  0999 V2000
    1.0616   -0.0419   -0.0331 C   0  0  0  0  0  0  0  0  0  0  0  0
    0.2957    1.2169   -0.1638 C   0  0  0  0  0  0  0  0  0  0  0  0
   -1.0442    1.2481   -0.1551 C   0  0  0  0  0  0  0  0  0  0  0  0
    0.5122   -1.1361    0.0886 O   0  0  0  0  0  0  0  0  0  0  0  0
    2.4228    0.0351   -0.0599 N   0  0  0  0  0  0  0  0  0  0  0  0
   -1.7811    2.5052   -0.3544 C   0  0  0  0  0  0  0  0  0  0  0  0
    5.0947    0.3484    1.1686 O   0  0  0  0  0  0  0  0  0  0  0  0
    3.2907    1.2014   -0.2032 C   0  0  0  0  0  0  0  0  0  0  0  0
    4.1580    1.4109    1.0333 C   0  0  0  0  0  0  0  0  0  0  0  0
   -1.4044    3.4159   -1.3544 C   0  0  0  0  0  0  0  0  0  0  0  0
   -2.9279    2.7723    0.4001 C   0  0  0  0  0  0  0  0  0  0  0  0
   -3.7091    3.8991    0.1234 C   0  0  0  0  0  0  0  0  0  0  0  0
   -2.1569    4.5663   -1.5957 C   0  0  0  0  0  0  0  0  0  0  0  0
   -3.3124    4.8059   -0.8585 C   0  0  0  0  0  0  0  0  0  0  0  0
    0.8281    2.1440   -0.2850 H   0  0  0  0  0  0  0  0  0  0  0  0
   -1.6294    0.3407   -0.0280 H   0  0  0  0  0  0  0  0  0  0  0  0
    2.8636   -0.8772   -0.0242 H   0  0  0  0  0  0  0  0  0  0  0  0
    4.5817   -0.4646    1.3151 H   0  0  0  0  0  0  0  0  0  0  0  0
    3.9079    1.0258   -1.0893 H   0  0  0  0  0  0  0  0  0  0  0  0
    2.7177    2.1095   -0.3745 H   0  0  0  0  0  0  0  0  0  0  0  0
    4.7199    2.3444    0.9337 H   0  0  0  0  0  0  0  0  0  0  0  0
    3.5521    1.4675    1.9439 H   0  0  0  0  0  0  0  0  0  0  0  0
   -0.5279    3.2316   -1.9707 H   0  0  0  0  0  0  0  0  0  0  0  0
   -3.2249    2.1083    1.2088 H   0  0  0  0  0  0  0  0  0  0  0  0
   -4.6370    4.0631    0.6653 H   0  0  0  0  0  0  0  0  0  0  0  0
   -1.8531    5.2586   -2.3764 H   0  0  0  0  0  0  0  0  0  0  0  0
   -3.9060    5.6955   -1.0523 H   0  0  0  0  0  0  0  0  0  0  0  0
  2  1  1  0  0  0  0
  2 15  1  0  0  0  0
  3  2  2  0  0  0  0
  3 16  1  0  0  0  0
  4  1  2  0  0  0  0
  5  1  1  0  0  0  0
  5 17  1  0  0  0  0
  6  3  1  0  0  0  0
  7  9  1  0  0  0  0
  7 18  1  0  0  0  0
  8  5  1  0  0  0  0
  8 19  1  0  0  0  0
  8 20  1  0  0  0  0
  9  8  1  0  0  0  0
  9 21  1  0  0  0  0
  9 22  1  0  0  0  0
 10  6  2  0  0  0  0
 10 23  1  0  0  0  0
 11  6  1  0  0  0  0
 11 24  1  0  0  0  0
 12 11  2  0  0  0  0
 12 25  1  0  0  0  0
 13 10  1  0  0  0  0
 13 26  1  0  0  0  0
 14 12  1  0  0  0  0
 14 13  2  0  0  0  0
 14 27  1  0  0  0  0
M  END
>  <DRUGBANK_ID>
DB13297

>  <COMMON_NAME>
Idrocilamide

>  <CAS_NUMBER>
6961-46-2

>  <UNII>
6C816LUB1O

>  <SYNONYMS>
Idrocilamide; N-(2-hydroxyethyl)cinnamamide

$$$$
