
 OpenBabel10282417173D

 53 53  0  0  1  0  0  0  0  0999 V2000
   -7.4332   -9.6402   -6.6749 C   0  0  0  0  0  0  0  0  0  0  0  0
   -6.4614   -9.2041   -5.5883 C   0  0  0  0  0  0  0  0  0  0  0  0
   -5.0361   -9.4008   -6.1008 C   0  0  0  0  0  0  0  0  0  0  0  0
   -6.7071   -7.7468   -5.0886 C   0  0  1  0  0  0  0  0  0  0  0  0
   -8.0363   -7.5615   -4.5603 O   0  0  0  0  0  0  0  0  0  0  0  0
   -9.0576   -7.4572   -5.4437 C   0  0  0  0  0  0  0  0  0  0  0  0
   -8.9391   -7.3594   -6.6595 O   0  0  0  0  0  0  0  0  0  0  0  0
  -10.4057   -7.3755   -4.7718 C   0  0  0  0  0  0  0  0  0  0  0  0
  -10.6235   -8.3546   -3.6255 C   0  0  0  0  0  0  0  0  0  0  0  0
  -10.5681   -5.9336   -4.3295 C   0  0  0  0  0  0  0  0  0  0  0  0
   -5.7158   -7.3794   -4.0984 O   0  0  0  0  0  0  0  0  0  0  0  0
   -5.7288   -8.1255   -2.9819 C   0  0  0  0  0  0  0  0  0  0  0  0
   -6.5487   -8.9931   -2.6805 O   0  0  0  0  0  0  0  0  0  0  0  0
   -4.6743   -7.9343   -2.1722 N   0  0  0  0  0  0  0  0  0  0  0  0
   -3.6728   -6.8737   -2.1032 C   0  0  0  0  0  0  0  0  0  0  0  0
   -3.8606   -5.8609   -0.9180 C   0  0  2  0  0  0  0  0  0  0  0  0
   -2.4983   -5.3742   -0.3816 C   0  0  0  0  0  0  0  0  0  0  0  0
   -2.6204   -4.4275    0.7895 C   0  0  0  0  0  0  0  0  0  0  0  0
   -2.2087   -4.6290    1.9203 O   0  0  0  0  0  0  0  0  0  0  0  0
   -3.2564   -3.2796    0.4849 O   0  0  0  0  0  0  0  0  0  0  0  0
   -4.6556   -6.4228    0.2546 C   0  0  0  0  0  0  0  0  0  0  0  0
   -5.5185   -5.5973    0.9871 C   0  0  0  0  0  0  0  0  0  0  0  0
   -6.2335   -6.1203    2.0639 C   0  0  0  0  0  0  0  0  0  0  0  0
   -6.1737   -7.4854    2.3393 C   0  0  0  0  0  0  0  0  0  0  0  0
   -5.3418   -8.3167    1.6054 C   0  0  0  0  0  0  0  0  0  0  0  0
   -4.5002   -7.7558    0.6589 C   0  0  0  0  0  0  0  0  0  0  0  0
   -7.0719   -8.1453    3.6454 Cl  0  0  0  0  0  0  0  0  0  0  0  0
   -7.3802   -8.9512   -7.5240 H   0  0  0  0  0  0  0  0  0  0  0  0
   -8.4517   -9.6874   -6.2815 H   0  0  0  0  0  0  0  0  0  0  0  0
   -7.2139  -10.6443   -7.0408 H   0  0  0  0  0  0  0  0  0  0  0  0
   -6.6146   -9.9062   -4.7630 H   0  0  0  0  0  0  0  0  0  0  0  0
   -4.8353   -8.7409   -6.9506 H   0  0  0  0  0  0  0  0  0  0  0  0
   -4.2891   -9.2073   -5.3260 H   0  0  0  0  0  0  0  0  0  0  0  0
   -4.9020  -10.4352   -6.4358 H   0  0  0  0  0  0  0  0  0  0  0  0
   -6.5377   -7.0363   -5.9076 H   0  0  0  0  0  0  0  0  0  0  0  0
  -11.1534   -7.6087   -5.5414 H   0  0  0  0  0  0  0  0  0  0  0  0
   -9.9048   -8.2044   -2.8143 H   0  0  0  0  0  0  0  0  0  0  0  0
  -11.6304   -8.2266   -3.2100 H   0  0  0  0  0  0  0  0  0  0  0  0
  -10.5351   -9.3922   -3.9657 H   0  0  0  0  0  0  0  0  0  0  0  0
  -10.3981   -5.2586   -5.1761 H   0  0  0  0  0  0  0  0  0  0  0  0
  -11.5710   -5.7545   -3.9371 H   0  0  0  0  0  0  0  0  0  0  0  0
   -9.8337   -5.6824   -3.5565 H   0  0  0  0  0  0  0  0  0  0  0  0
   -4.7716   -8.5861   -1.4095 H   0  0  0  0  0  0  0  0  0  0  0  0
   -2.7085   -7.3862   -2.0012 H   0  0  0  0  0  0  0  0  0  0  0  0
   -3.6562   -6.3345   -3.0550 H   0  0  0  0  0  0  0  0  0  0  0  0
   -4.4088   -5.0015   -1.3319 H   0  0  0  0  0  0  0  0  0  0  0  0
   -1.9120   -6.2337   -0.0307 H   0  0  0  0  0  0  0  0  0  0  0  0
   -1.9066   -4.8830   -1.1610 H   0  0  0  0  0  0  0  0  0  0  0  0
   -3.3051   -2.7946    1.3379 H   0  0  0  0  0  0  0  0  0  0  0  0
   -5.6026   -4.5360    0.7579 H   0  0  0  0  0  0  0  0  0  0  0  0
   -6.8333   -5.4605    2.6824 H   0  0  0  0  0  0  0  0  0  0  0  0
   -5.3149   -9.3887    1.7739 H   0  0  0  0  0  0  0  0  0  0  0  0
   -3.7503   -8.3948    0.1982 H   0  0  0  0  0  0  0  0  0  0  0  0
  1  2  1  0  0  0  0
  1 28  1  0  0  0  0
  1 29  1  0  0  0  0
  1 30  1  0  0  0  0
  2  3  1  0  0  0  0
  2  4  1  0  0  0  0
  2 31  1  0  0  0  0
  3 32  1  0  0  0  0
  3 33  1  0  0  0  0
  3 34  1  0  0  0  0
  4  5  1  0  0  0  0
  4 11  1  0  0  0  0
  4 35  1  6  0  0  0
  5  6  1  0  0  0  0
  6  7  2  0  0  0  0
  6  8  1  0  0  0  0
  8  9  1  0  0  0  0
  8 10  1  0  0  0  0
  8 36  1  0  0  0  0
  9 37  1  0  0  0  0
  9 38  1  0  0  0  0
  9 39  1  0  0  0  0
 10 40  1  0  0  0  0
 10 41  1  0  0  0  0
 10 42  1  0  0  0  0
 11 12  1  0  0  0  0
 12 13  2  0  0  0  0
 12 14  1  0  0  0  0
 14 15  1  0  0  0  0
 14 43  1  0  0  0  0
 15 44  1  0  0  0  0
 15 45  1  0  0  0  0
 16 21  1  0  0  0  0
 16 46  1  6  0  0  0
 16 17  1  0  0  0  0
 16 15  1  0  0  0  0
 17 18  1  0  0  0  0
 17 47  1  0  0  0  0
 17 48  1  0  0  0  0
 18 19  2  0  0  0  0
 18 20  1  0  0  0  0
 20 49  1  0  0  0  0
 21 22  2  0  0  0  0
 21 26  1  0  0  0  0
 22 23  1  0  0  0  0
 22 50  1  0  0  0  0
 23 24  2  0  0  0  0
 23 51  1  0  0  0  0
 24 25  1  0  0  0  0
 24 27  1  0  0  0  0
 25 26  2  0  0  0  0
 25 52  1  0  0  0  0
 26 53  1  0  0  0  0
M  END
>  <DRUGBANK_ID>
DB08892

>  <SECONDARY_ACCESSION_NUMBERS>
DB05031

>  <COMMON_NAME>
Arbaclofen Placarbil

>  <CAS_NUMBER>
847353-30-4

>  <UNII>
W89H91R7VX

>  <SYNONYMS>
Arbaclofen Placarbil; XP19986

$$$$
