726
 OpenBabel10282417103D

 48 50  0  0  1  0  0  0  0  0999 V2000
    0.0908   -0.9033   -0.9258 N   0  0  0  0  0  0  0  0  0  0  0  0
   -3.0262   -1.7254   -3.2101 N   0  0  0  0  0  0  0  0  0  0  0  0
   -0.6805   -2.7262   -2.5875 C   0  0  3  0  0  0  0  0  0  0  0  0
    0.1455   -1.4494   -2.3242 C   0  0  0  0  0  0  0  0  0  0  0  0
    1.3381   -0.4449   -0.4501 C   0  0  0  0  0  0  0  0  0  0  0  0
   -1.0796   -0.5586   -0.2488 C   0  0  0  0  0  0  0  0  0  0  0  0
   -2.2000   -2.6281   -2.3837 C   0  0  0  0  0  0  0  0  0  0  0  0
    0.5541    2.0036    0.0256 C   0  0  0  0  0  0  0  0  0  0  0  0
   -0.7234    1.8489   -0.8020 C   0  0  0  0  0  0  0  0  0  0  0  0
    1.5384    0.8417    0.0837 C   0  0  0  0  0  0  0  0  0  0  0  0
   -1.5675    0.7626   -0.1961 C   0  0  0  0  0  0  0  0  0  0  0  0
   -0.4796   -3.3094   -3.9937 C   0  0  0  0  0  0  0  0  0  0  0  0
    2.3463   -1.4203   -0.3526 C   0  0  0  0  0  0  0  0  0  0  0  0
   -1.7710   -1.5266    0.4916 C   0  0  0  0  0  0  0  0  0  0  0  0
    2.7429    1.0797    0.7727 C   0  0  0  0  0  0  0  0  0  0  0  0
   -2.7973    1.0429    0.4159 C   0  0  0  0  0  0  0  0  0  0  0  0
    3.5344   -1.1578    0.3132 C   0  0  0  0  0  0  0  0  0  0  0  0
   -3.0336   -1.2742    1.0159 C   0  0  0  0  0  0  0  0  0  0  0  0
    3.7174    0.0868    0.8891 C   0  0  0  0  0  0  0  0  0  0  0  0
   -3.5578    0.0171    0.9764 C   0  0  0  0  0  0  0  0  0  0  0  0
   -4.3559   -1.6604   -2.5852 C   0  0  0  0  0  0  0  0  0  0  0  0
   -2.5497   -0.3477   -3.2992 C   0  0  0  0  0  0  0  0  0  0  0  0
   -0.2902   -3.4770   -1.8820 H   0  0  0  0  0  0  0  0  0  0  0  0
   -0.0173   -0.6532   -3.0490 H   0  0  0  0  0  0  0  0  0  0  0  0
    1.1821   -1.7261   -2.5761 H   0  0  0  0  0  0  0  0  0  0  0  0
   -2.5972   -3.6486   -2.4881 H   0  0  0  0  0  0  0  0  0  0  0  0
   -2.4078   -2.4364   -1.3523 H   0  0  0  0  0  0  0  0  0  0  0  0
    0.2631    2.2432    1.0579 H   0  0  0  0  0  0  0  0  0  0  0  0
    1.0871    2.8781   -0.3692 H   0  0  0  0  0  0  0  0  0  0  0  0
   -0.5027    1.6261   -1.8529 H   0  0  0  0  0  0  0  0  0  0  0  0
   -1.2801    2.7965   -0.8076 H   0  0  0  0  0  0  0  0  0  0  0  0
    0.5722   -3.4171   -4.2655 H   0  0  0  0  0  0  0  0  0  0  0  0
   -0.9374   -4.3077   -4.0399 H   0  0  0  0  0  0  0  0  0  0  0  0
   -0.9753   -2.6941   -4.7511 H   0  0  0  0  0  0  0  0  0  0  0  0
    2.1663   -2.4232   -0.7292 H   0  0  0  0  0  0  0  0  0  0  0  0
   -1.3679   -2.5397    0.5271 H   0  0  0  0  0  0  0  0  0  0  0  0
    2.9057    2.0419    1.2485 H   0  0  0  0  0  0  0  0  0  0  0  0
   -3.1904    2.0596    0.4371 H   0  0  0  0  0  0  0  0  0  0  0  0
    4.2716   -1.9453    0.4088 H   0  0  0  0  0  0  0  0  0  0  0  0
   -3.6320   -2.0967    1.3989 H   0  0  0  0  0  0  0  0  0  0  0  0
    4.6254    0.2859    1.4531 H   0  0  0  0  0  0  0  0  0  0  0  0
   -4.5445    0.2131    1.3769 H   0  0  0  0  0  0  0  0  0  0  0  0
   -4.3121   -1.2350   -1.5756 H   0  0  0  0  0  0  0  0  0  0  0  0
   -5.0190   -1.0283   -3.1806 H   0  0  0  0  0  0  0  0  0  0  0  0
   -4.8034   -2.6549   -2.5176 H   0  0  0  0  0  0  0  0  0  0  0  0
   -2.4393    0.1028   -2.3218 H   0  0  0  0  0  0  0  0  0  0  0  0
   -1.6256   -0.2554   -3.8637 H   0  0  0  0  0  0  0  0  0  0  0  0
   -3.2530    0.2918   -3.8380 H   0  0  0  0  0  0  0  0  0  0  0  0
  1  4  1  0  0  0  0
  1  5  1  0  0  0  0
  1  6  1  0  0  0  0
  2  7  1  0  0  0  0
  2 21  1  0  0  0  0
  2 22  1  0  0  0  0
  3  4  1  0  0  0  0
  3  7  1  0  0  0  0
  3 12  1  0  0  0  0
  3 23  1  0  0  0  0
  4 24  1  0  0  0  0
  4 25  1  0  0  0  0
  5 10  1  0  0  0  0
  5 13  2  0  0  0  0
  6 11  1  0  0  0  0
  6 14  2  0  0  0  0
  7 26  1  0  0  0  0
  7 27  1  0  0  0  0
  8  9  1  0  0  0  0
  8 10  1  0  0  0  0
  8 28  1  0  0  0  0
  8 29  1  0  0  0  0
  9 11  1  0  0  0  0
  9 30  1  0  0  0  0
  9 31  1  0  0  0  0
 10 15  2  0  0  0  0
 11 16  2  0  0  0  0
 12 32  1  0  0  0  0
 12 33  1  0  0  0  0
 12 34  1  0  0  0  0
 13 17  1  0  0  0  0
 13 35  1  0  0  0  0
 14 18  1  0  0  0  0
 14 36  1  0  0  0  0
 15 19  1  0  0  0  0
 15 37  1  0  0  0  0
 16 20  1  0  0  0  0
 16 38  1  0  0  0  0
 17 19  2  0  0  0  0
 17 39  1  0  0  0  0
 18 20  2  0  0  0  0
 18 40  1  0  0  0  0
 19 41  1  0  0  0  0
 20 42  1  0  0  0  0
 21 43  1  0  0  0  0
 21 44  1  0  0  0  0
 21 45  1  0  0  0  0
 22 46  1  0  0  0  0
 22 47  1  0  0  0  0
 22 48  1  0  0  0  0
M  END
>  <DRUGBANK_ID>
DB00726

>  <SECONDARY_ACCESSION_NUMBERS>
APRD00498

>  <COMMON_NAME>
Trimipramine

>  <CAS_NUMBER>
739-71-9

>  <UNII>
6S082C9NDT

>  <SYNONYMS>
10,11-dihydro-N,N,β-trimethyl-5H-dibenz[b,f]azepine-5-propanamine; 5-(γ-dimethylamino-β-methylpropyl)-10,11-dihydro-5H-dibenzo[b,f]azepine; 5-[3-(dimethylamino)-2-methylpropyl]-10,11-dihydro-5H-dibenz[b,f]azepine; beta-Methylimipramine; Trimeprimina; Trimeprimine; Trimeproprimine; Trimipramina; Trimipramine; Trimipraminum; β-methylimipramine

$$$$
