
 OpenBabel10282417203D

 27 27  0  0  0  0  0  0  0  0999 V2000
    2.0754    0.1055    1.0334 C   0  0  0  0  0  0  0  0  0  0  0  0
   -1.3499    1.1278    0.0083 C   0  0  0  0  0  0  0  0  0  0  0  0
   -1.9909   -0.0908   -0.0324 C   0  0  0  0  0  0  0  0  0  0  0  0
    0.0198    1.1384    0.2434 C   0  0  0  0  0  0  0  0  0  0  0  0
   -1.2621   -1.2963   -0.0139 C   0  0  0  0  0  0  0  0  0  0  0  0
    2.9197   -0.2260   -1.7543 C   0  0  0  0  0  0  0  0  0  0  0  0
    2.2348   -2.5068   -0.2226 C   0  0  0  0  0  0  0  0  0  0  0  0
    0.7105   -0.0637    0.4670 C   0  0  0  0  0  0  0  0  0  0  0  0
    2.9800   -1.7776   -1.4367 C   0  0  3  0  0  0  0  0  0  0  0  0
    0.1399   -1.2781    0.1447 C   0  0  0  0  0  0  0  0  0  0  0  0
    3.9579    0.5735   -1.1310 O   0  0  0  0  0  0  0  0  0  0  0  0
    4.3811   -2.0809   -1.2764 O   0  0  0  0  0  0  0  0  0  0  0  0
    0.7977   -2.4536   -0.1077 O   0  0  0  0  0  0  0  0  0  0  0  0
    2.2369   -0.2422    2.0471 H   0  0  0  0  0  0  0  0  0  0  0  0
    2.7559   -0.4865    0.4720 H   0  0  0  0  0  0  0  0  0  0  0  0
    2.3887    1.1403    0.9013 H   0  0  0  0  0  0  0  0  0  0  0  0
   -1.8671    2.0766   -0.0888 H   0  0  0  0  0  0  0  0  0  0  0  0
   -3.0795   -0.1050   -0.1174 H   0  0  0  0  0  0  0  0  0  0  0  0
    0.5467    2.0830    0.2482 H   0  0  0  0  0  0  0  0  0  0  0  0
   -1.7912   -2.2347   -0.1220 H   0  0  0  0  0  0  0  0  0  0  0  0
    3.1511   -0.0539   -2.8076 H   0  0  0  0  0  0  0  0  0  0  0  0
    1.9232    0.2056   -1.6408 H   0  0  0  0  0  0  0  0  0  0  0  0
    2.7004   -2.3336    0.7597 H   0  0  0  0  0  0  0  0  0  0  0  0
    2.4762   -3.5804   -0.3263 H   0  0  0  0  0  0  0  0  0  0  0  0
    2.6234   -2.2813   -2.3424 H   0  0  0  0  0  0  0  0  0  0  0  0
    3.8783    0.7067   -0.1753 H   0  0  0  0  0  0  0  0  0  0  0  0
    4.7377   -1.3669   -0.7108 H   0  0  0  0  0  0  0  0  0  0  0  0
  1 14  1  0  0  0  0
  1 15  1  0  0  0  0
  1 16  1  0  0  0  0
  2 17  1  0  0  0  0
  3  2  2  0  0  0  0
  3 18  1  0  0  0  0
  4  2  1  0  0  0  0
  4 19  1  0  0  0  0
  5  3  1  0  0  0  0
  5 20  1  0  0  0  0
  6 21  1  0  0  0  0
  6 22  1  0  0  0  0
  7 23  1  0  0  0  0
  7 24  1  0  0  0  0
  8  1  1  0  0  0  0
  8  4  2  0  0  0  0
  9  6  1  0  0  0  0
  9  7  1  0  0  0  0
  9 25  1  0  0  0  0
 10  5  2  0  0  0  0
 10  8  1  0  0  0  0
 11  6  1  0  0  0  0
 11 26  1  0  0  0  0
 12  9  1  0  0  0  0
 12 27  1  0  0  0  0
 13  7  1  0  0  0  0
 13 10  1  0  0  0  0
M  END
>  <DRUGBANK_ID>
DB13583

>  <COMMON_NAME>
Mephenesin

>  <CAS_NUMBER>
59-47-2

>  <UNII>
7B8PIR2954

>  <SYNONYMS>
Mephenesin

$$$$
