GGO
 OpenBabel10282417163D

 47 50  0  0  0  0  0  0  0  0999 V2000
    0.9129    0.0845    0.0001 C   0  0  0  0  0  0  0  0  0  0  0  0
    0.5576    1.5618    0.2220 C   0  0  0  0  0  0  0  0  0  0  0  0
    1.1650    2.5635   -0.7529 C   0  0  0  0  0  0  0  0  0  0  0  0
    0.6445    3.8687   -0.7861 C   0  0  0  0  0  0  0  0  0  0  0  0
    1.6073    4.2084   -2.9468 C   0  0  0  0  0  0  0  0  0  0  0  0
    2.0812    2.1912   -1.7540 C   0  0  0  0  0  0  0  0  0  0  0  0
   -0.6009   -1.8277   -4.3438 C   0  0  0  0  0  0  0  0  0  0  0  0
   -0.7522   -2.3807   -5.6189 C   0  0  0  0  0  0  0  0  0  0  0  0
   -1.9596   -2.2153   -6.3092 C   0  0  0  0  0  0  0  0  0  0  0  0
   -3.0141   -1.4800   -5.7742 C   0  0  0  0  0  0  0  0  0  0  0  0
   -2.8907   -0.9013   -4.5440 C   0  0  0  0  0  0  0  0  0  0  0  0
    2.0659   -2.9636   -1.6749 N   0  0  0  0  0  0  0  0  0  0  0  0
    0.7211   -2.7221   -2.2547 C   0  0  1  0  0  0  0  0  0  0  0  0
   -0.0676   -1.9049   -1.2245 C   0  0  0  0  0  0  0  0  0  0  0  0
    0.3701   -0.5086   -1.2224 N   0  0  0  0  0  0  0  0  0  0  0  0
    0.9112    4.7186   -1.8705 C   0  0  0  0  0  0  0  0  0  0  0  0
    1.8409    4.8165   -4.1408 O   0  0  0  0  0  0  0  0  0  0  0  0
    2.5777    3.7823   -4.8322 C   0  0  0  0  0  0  0  0  0  0  0  0
    2.6570    2.5483   -4.0945 O   0  0  0  0  0  0  0  0  0  0  0  0
    2.1526    2.9580   -2.8968 C   0  0  0  0  0  0  0  0  0  0  0  0
    0.4867    0.1298   -2.4669 C   0  0  0  0  0  0  0  0  0  0  0  0
   -0.1245    1.1258   -2.8036 O   0  0  0  0  0  0  0  0  0  0  0  0
    1.3815   -0.6022   -3.4367 C   0  0  0  0  0  0  0  0  0  0  0  0
    0.7596   -1.9755   -3.6281 C   0  0  2  0  0  0  0  0  0  0  0  0
   -2.1025   -2.7849   -7.5108 F   0  0  0  0  0  0  0  0  0  0  0  0
   -4.1705   -1.3395   -6.4293 F   0  0  0  0  0  0  0  0  0  0  0  0
   -1.7210   -1.1003   -3.8487 C   0  0  0  0  0  0  0  0  0  0  0  0
   -1.7867   -0.5431   -2.6414 F   0  0  0  0  0  0  0  0  0  0  0  0
    0.2399   -3.6950   -2.3931 H   0  0  0  0  0  0  0  0  0  0  0  0
    1.4435   -2.5368   -4.2849 H   0  0  0  0  0  0  0  0  0  0  0  0
    0.5283   -0.4990    0.8457 H   0  0  0  0  0  0  0  0  0  0  0  0
    2.0001   -0.0530   -0.0094 H   0  0  0  0  0  0  0  0  0  0  0  0
   -0.5415    1.6297    0.1727 H   0  0  0  0  0  0  0  0  0  0  0  0
    0.8515    1.8500    1.2364 H   0  0  0  0  0  0  0  0  0  0  0  0
   -0.0154    4.2020    0.0114 H   0  0  0  0  0  0  0  0  0  0  0  0
    2.5495    1.2177   -1.7738 H   0  0  0  0  0  0  0  0  0  0  0  0
    0.0491   -2.9416   -6.0933 H   0  0  0  0  0  0  0  0  0  0  0  0
   -3.6688   -0.3081   -4.0775 H   0  0  0  0  0  0  0  0  0  0  0  0
    2.1187   -2.5141   -0.7565 H   0  0  0  0  0  0  0  0  0  0  0  0
    2.7958   -2.5086   -2.2192 H   0  0  0  0  0  0  0  0  0  0  0  0
   -1.1289   -1.9578   -1.4673 H   0  0  0  0  0  0  0  0  0  0  0  0
   -0.0291   -2.3261   -0.2163 H   0  0  0  0  0  0  0  0  0  0  0  0
    0.5243    5.7281   -1.8866 H   0  0  0  0  0  0  0  0  0  0  0  0
    2.1239    3.6180   -5.8190 H   0  0  0  0  0  0  0  0  0  0  0  0
    3.6106    4.1149   -4.9798 H   0  0  0  0  0  0  0  0  0  0  0  0
    2.3987   -0.6488   -3.0254 H   0  0  0  0  0  0  0  0  0  0  0  0
    1.4668   -0.0395   -4.3741 H   0  0  0  0  0  0  0  0  0  0  0  0
  1  2  1  0  0  0  0
  1 15  1  0  0  0  0
  1 31  1  0  0  0  0
  1 32  1  0  0  0  0
  2  3  1  0  0  0  0
  2 33  1  0  0  0  0
  2 34  1  0  0  0  0
  3  6  1  0  0  0  0
  3  4  2  0  0  0  0
  4 16  1  0  0  0  0
  4 35  1  0  0  0  0
  5 20  1  0  0  0  0
  5 17  1  0  0  0  0
  5 16  2  0  0  0  0
  6 20  2  0  0  0  0
  6 36  1  0  0  0  0
  7 27  1  0  0  0  0
  7  8  2  0  0  0  0
  8  9  1  0  0  0  0
  8 37  1  0  0  0  0
  9 10  2  0  0  0  0
  9 25  1  0  0  0  0
 10 11  1  0  0  0  0
 10 26  1  0  0  0  0
 11 27  2  0  0  0  0
 11 38  1  0  0  0  0
 12 39  1  0  0  0  0
 12 40  1  0  0  0  0
 13 24  1  0  0  0  0
 13 14  1  0  0  0  0
 13 29  1  6  0  0  0
 13 12  1  0  0  0  0
 14 15  1  0  0  0  0
 14 41  1  0  0  0  0
 14 42  1  0  0  0  0
 15 21  1  0  0  0  0
 16 43  1  0  0  0  0
 17 18  1  0  0  0  0
 18 19  1  0  0  0  0
 18 44  1  0  0  0  0
 18 45  1  0  0  0  0
 19 20  1  0  0  0  0
 21 22  2  0  0  0  0
 21 23  1  0  0  0  0
 23 24  1  0  0  0  0
 23 46  1  0  0  0  0
 23 47  1  0  0  0  0
 24 30  1  6  0  0  0
 24  7  1  0  0  0  0
 27 28  1  0  0  0  0
M  END
>  <DRUGBANK_ID>
DB07830

>  <COMMON_NAME>
(4R,5R)-5-AMINO-1-[2-(1,3-BENZODIOXOL-5-YL)ETHYL]-4-(2,4,5-TRIFLUOROPHENYL)PIPERIDIN-2-ONE

$$$$
