
 OpenBabel10282417193D

 44 47  0  0  1  0  0  0  0  0999 V2000
   -1.0471   -2.7100    0.4284 C   0  0  0  0  0  0  0  0  0  0  0  0
   -0.1509   -1.5977    0.0566 C   0  0  2  0  0  0  0  0  0  0  0  0
    0.5240   -2.0599   -1.4141 C   0  0  0  0  0  0  0  0  0  0  0  0
    0.0665   -1.1363   -2.4088 C   0  0  0  0  0  0  0  0  0  0  0  0
    0.7620    0.1265   -1.6497 C   0  0  0  0  0  0  0  0  0  0  0  0
    1.6413   -0.0529   -0.2494 N   0  0  3  0  0  0  0  0  0  0  0  0
    1.1675   -1.2454    0.7034 C   0  0  2  0  0  0  0  0  0  0  0  0
    2.0362   -2.5134    0.6538 C   0  0  0  0  0  0  0  0  0  0  0  0
    3.1578   -2.6543   -0.1923 C   0  0  0  0  0  0  0  0  0  0  0  0
    3.1694   -4.0295   -0.5458 C   0  0  0  0  0  0  0  0  0  0  0  0
    3.8845   -4.7748   -1.5295 C   0  0  0  0  0  0  0  0  0  0  0  0
    3.6896   -6.1568   -1.5923 C   0  0  0  0  0  0  0  0  0  0  0  0
    2.7391   -6.7953   -0.8051 C   0  0  0  0  0  0  0  0  0  0  0  0
    1.8924   -6.0553    0.0482 C   0  0  0  0  0  0  0  0  0  0  0  0
    2.1737   -4.6816    0.1581 C   0  0  0  0  0  0  0  0  0  0  0  0
    1.4885   -3.7468    0.9090 O   0  0  0  0  0  0  0  0  0  0  0  0
    3.7478   -1.4475   -0.8526 C   0  0  0  0  0  0  0  0  0  0  0  0
    3.1529   -0.1226   -0.2701 C   0  0  0  0  0  0  0  0  0  0  0  0
   -1.2158   -0.4453    0.7790 C   0  0  0  0  0  0  0  0  0  0  0  0
   -1.7285   -0.7616    2.2214 O   0  0  0  0  0  0  0  0  0  0  0  0
   -2.3568   -2.0010    2.7018 C   0  0  0  0  0  0  0  0  0  0  0  0
   -2.0864   -2.3973    0.2128 H   0  0  0  0  0  0  0  0  0  0  0  0
   -0.7599   -2.7116    1.4544 H   0  0  0  0  0  0  0  0  0  0  0  0
   -0.9824   -3.7516    0.1738 H   0  0  0  0  0  0  0  0  0  0  0  0
    0.7708   -3.1087   -1.6369 H   0  0  0  0  0  0  0  0  0  0  0  0
    1.5798   -1.7770   -1.6083 H   0  0  0  0  0  0  0  0  0  0  0  0
    0.4711   -1.5274   -3.3657 H   0  0  0  0  0  0  0  0  0  0  0  0
   -1.0139   -1.3150   -2.3579 H   0  0  0  0  0  0  0  0  0  0  0  0
    1.2591    0.7834   -2.3727 H   0  0  0  0  0  0  0  0  0  0  0  0
   -0.1208    0.6873   -1.3203 H   0  0  0  0  0  0  0  0  0  0  0  0
    1.1281   -0.8629    1.7324 H   0  0  0  0  0  0  0  0  0  0  0  0
    4.5649   -4.2677   -2.1878 H   0  0  0  0  0  0  0  0  0  0  0  0
    4.3170   -6.7375   -2.2745 H   0  0  0  0  0  0  0  0  0  0  0  0
    2.6486   -7.8803   -0.8533 H   0  0  0  0  0  0  0  0  0  0  0  0
    1.0955   -6.5450    0.5947 H   0  0  0  0  0  0  0  0  0  0  0  0
    4.8409   -1.5430   -0.8810 H   0  0  0  0  0  0  0  0  0  0  0  0
    3.4774   -1.4102   -1.9129 H   0  0  0  0  0  0  0  0  0  0  0  0
    3.6318    0.7324   -0.7587 H   0  0  0  0  0  0  0  0  0  0  0  0
    3.4532   -0.0111    0.7907 H   0  0  0  0  0  0  0  0  0  0  0  0
   -0.7560    0.5503    0.9278 H   0  0  0  0  0  0  0  0  0  0  0  0
   -2.1126   -0.2613    0.1712 H   0  0  0  0  0  0  0  0  0  0  0  0
   -3.1942   -2.3557    2.0868 H   0  0  0  0  0  0  0  0  0  0  0  0
   -1.6478   -2.8292    2.8667 H   0  0  0  0  0  0  0  0  0  0  0  0
   -2.7281   -1.9033    3.7335 H   0  0  0  0  0  0  0  0  0  0  0  0
  1 22  1  0  0  0  0
  1 23  1  0  0  0  0
  1 24  1  0  0  0  0
  2  3  1  0  0  0  0
  2  7  1  0  0  0  0
  2  1  1  1  0  0  0
  2 19  1  0  0  0  0
  3  4  1  0  0  0  0
  3 25  1  0  0  0  0
  3 26  1  0  0  0  0
  4  5  1  0  0  0  0
  4 27  1  0  0  0  0
  4 28  1  0  0  0  0
  5  6  1  0  0  0  0
  5 29  1  0  0  0  0
  5 30  1  0  0  0  0
  6  7  1  0  0  0  0
  6 18  1  0  0  0  0
  7  8  1  0  0  0  0
  7 31  1  1  0  0  0
  8  9  2  0  0  0  0
  8 16  1  0  0  0  0
  9 10  1  0  0  0  0
  9 17  1  0  0  0  0
 10 11  2  0  0  0  0
 10 15  1  0  0  0  0
 11 12  1  0  0  0  0
 11 32  1  0  0  0  0
 12 13  2  0  0  0  0
 12 33  1  0  0  0  0
 13 14  1  0  0  0  0
 13 34  1  0  0  0  0
 14 15  2  0  0  0  0
 14 35  1  0  0  0  0
 15 16  1  0  0  0  0
 17 18  1  0  0  0  0
 17 36  1  0  0  0  0
 17 37  1  0  0  0  0
 18 38  1  0  0  0  0
 18 39  1  0  0  0  0
 19 20  1  0  0  0  0
 19 40  1  0  0  0  0
 19 41  1  0  0  0  0
 20 21  1  0  0  0  0
 21 42  1  0  0  0  0
 21 43  1  0  0  0  0
 21 44  1  0  0  0  0
M  END
>  <DRUGBANK_ID>
DB12057

>  <COMMON_NAME>
ORM-12741

>  <CAS_NUMBER>
610782-82-6

>  <UNII>
C5D3YG7ZR8

$$$$
