
 OpenBabel10282417133D

 14 13  0  0  0  0  0  0  0  0999 V2000
    1.0507    0.0855    0.1223 C   0  0  0  0  0  0  0  0  0  0  0  0
    0.5370    1.0559   -0.9336 C   0  0  0  0  0  0  0  0  0  0  0  0
    1.0131    0.7091   -2.3453 C   0  0  0  0  0  0  0  0  0  0  0  0
    0.5596   -0.6649   -2.7956 C   0  0  0  0  0  0  0  0  0  0  0  0
   -0.2421   -0.6744   -3.8794 O   0  0  0  0  0  0  0  0  0  0  0  0
    0.8912   -1.7076   -2.2463 O   0  0  0  0  0  0  0  0  0  0  0  0
    0.6726   -0.9261   -0.0430 H   0  0  0  0  0  0  0  0  0  0  0  0
    0.7151    0.3826    1.1194 H   0  0  0  0  0  0  0  0  0  0  0  0
    2.1447    0.0497    0.1178 H   0  0  0  0  0  0  0  0  0  0  0  0
   -0.5582    1.0812   -0.9032 H   0  0  0  0  0  0  0  0  0  0  0  0
    0.8870    2.0639   -0.6750 H   0  0  0  0  0  0  0  0  0  0  0  0
    0.6560    1.4745   -3.0445 H   0  0  0  0  0  0  0  0  0  0  0  0
    2.1080    0.7342   -2.3966 H   0  0  0  0  0  0  0  0  0  0  0  0
   -0.4240    0.1932   -4.2818 H   0  0  0  0  0  0  0  0  0  0  0  0
  1  2  1  0  0  0  0
  1  7  1  0  0  0  0
  1  8  1  0  0  0  0
  1  9  1  0  0  0  0
  2  3  1  0  0  0  0
  2 10  1  0  0  0  0
  2 11  1  0  0  0  0
  3  4  1  0  0  0  0
  3 12  1  0  0  0  0
  3 13  1  0  0  0  0
  4  5  1  0  0  0  0
  4  6  2  0  0  0  0
  5 14  1  0  0  0  0
M  END
>  <DRUGBANK_ID>
DB03568

>  <SECONDARY_ACCESSION_NUMBERS>
EXPT00774

>  <COMMON_NAME>
Butyric Acid

>  <CAS_NUMBER>
107-92-6

>  <UNII>
40UIR9Q29H

>  <SYNONYMS>
1-propanecarboxylic acid; Butanoic acid; Butyrate; Butyricum acidum; Ethylacetic acid; N-butanoic acid; N-butyric acid; Propylformic acid

$$$$
