
 OpenBabel10282417233D

 42 43  0  0  0  0  0  0  0  0999 V2000
    1.7205   -1.5191   -0.0032 O   0  0  0  0  0  0  0  0  0  0  0  0
    0.5281   -0.8696   -0.0057 C   0  0  0  0  0  0  0  0  0  0  0  0
   -0.7264   -1.4892   -0.0117 C   0  0  0  0  0  0  0  0  0  0  0  0
   -1.9305   -0.7277   -0.0123 C   0  0  0  0  0  0  0  0  0  0  0  0
   -1.8891    0.6654    0.0047 C   0  0  0  0  0  0  0  0  0  0  0  0
   -3.1280    1.5260    0.0111 C   0  0  0  0  0  0  0  0  0  0  0  0
   -3.1688    2.8864    0.0296 C   0  0  0  0  0  0  0  0  0  0  0  0
   -1.8282    3.6025    0.0482 C   0  0  0  0  0  0  0  0  0  0  0  0
   -0.7160    4.1966    0.0637 N   0  0  0  0  0  0  0  0  0  0  0  0
   -4.4291    3.6597    0.0235 C   0  0  0  0  0  0  0  0  0  0  0  0
   -5.5300    3.0914    0.0288 O   0  0  0  0  0  0  0  0  0  0  0  0
   -4.4021    5.0154    0.0078 N   0  0  0  0  0  0  0  0  0  0  0  0
   -3.2991    5.9437    0.0711 C   0  0  0  0  0  0  0  0  0  0  0  0
   -3.1262    6.7603   -1.1953 C   0  0  0  0  0  0  0  0  0  0  0  0
   -4.1508    7.8678   -1.1741 C   0  0  0  0  0  0  0  0  0  0  0  0
   -4.0061    8.7432    0.0547 C   0  0  0  0  0  0  0  0  0  0  0  0
   -2.8370    8.7664    0.8509 C   0  0  0  0  0  0  0  0  0  0  0  0
   -2.7484    9.5442    1.9936 C   0  0  0  0  0  0  0  0  0  0  0  0
   -3.7893   10.4041    2.2973 C   0  0  0  0  0  0  0  0  0  0  0  0
   -4.9310   10.4359    1.4927 C   0  0  0  0  0  0  0  0  0  0  0  0
   -5.0696    9.5640    0.4149 C   0  0  0  0  0  0  0  0  0  0  0  0
   -0.5912    1.1896    0.0128 C   0  0  0  0  0  0  0  0  0  0  0  0
    0.5846    0.4865    0.0004 C   0  0  0  0  0  0  0  0  0  0  0  0
    1.7287    1.2273   -0.0028 O   0  0  0  0  0  0  0  0  0  0  0  0
    1.5459   -2.4707    0.0044 H   0  0  0  0  0  0  0  0  0  0  0  0
   -0.7955   -2.5705   -0.0167 H   0  0  0  0  0  0  0  0  0  0  0  0
   -2.8853   -1.2496   -0.0247 H   0  0  0  0  0  0  0  0  0  0  0  0
   -4.0750    0.9843   -0.0039 H   0  0  0  0  0  0  0  0  0  0  0  0
   -5.3226    5.4331    0.0828 H   0  0  0  0  0  0  0  0  0  0  0  0
   -3.4059    6.4517    1.0284 H   0  0  0  0  0  0  0  0  0  0  0  0
   -2.3364    5.5351    0.2067 H   0  0  0  0  0  0  0  0  0  0  0  0
   -2.1112    7.1842   -1.2402 H   0  0  0  0  0  0  0  0  0  0  0  0
   -3.2074    6.1323   -2.0907 H   0  0  0  0  0  0  0  0  0  0  0  0
   -4.0468    8.4818   -2.0720 H   0  0  0  0  0  0  0  0  0  0  0  0
   -5.1467    7.4039   -1.1987 H   0  0  0  0  0  0  0  0  0  0  0  0
   -1.9780    8.1306    0.6429 H   0  0  0  0  0  0  0  0  0  0  0  0
   -1.8583    9.4847    2.6141 H   0  0  0  0  0  0  0  0  0  0  0  0
   -3.7056   11.0574    3.1585 H   0  0  0  0  0  0  0  0  0  0  0  0
   -5.7156   11.1553    1.7000 H   0  0  0  0  0  0  0  0  0  0  0  0
   -5.9985    9.5385   -0.1499 H   0  0  0  0  0  0  0  0  0  0  0  0
   -0.3210    2.2099    0.0325 H   0  0  0  0  0  0  0  0  0  0  0  0
    2.4712    0.6036   -0.0243 H   0  0  0  0  0  0  0  0  0  0  0  0
  1  2  1  0  0  0  0
  1 25  1  0  0  0  0
  2  3  2  0  0  0  0
  2 23  1  0  0  0  0
  3  4  1  0  0  0  0
  3 26  1  0  0  0  0
  4  5  2  0  0  0  0
  4 27  1  0  0  0  0
  5  6  1  0  0  0  0
  5 22  1  0  0  0  0
  6  7  2  0  0  0  0
  6 28  1  0  0  0  0
  7  8  1  0  0  0  0
  7 10  1  0  0  0  0
  8  9  3  0  0  0  0
 10 11  2  0  0  0  0
 10 12  1  0  0  0  0
 12 13  1  0  0  0  0
 12 29  1  0  0  0  0
 13 14  1  0  0  0  0
 13 30  1  0  0  0  0
 13 31  1  0  0  0  0
 14 15  1  0  0  0  0
 14 32  1  0  0  0  0
 14 33  1  0  0  0  0
 15 16  1  0  0  0  0
 15 34  1  0  0  0  0
 15 35  1  0  0  0  0
 16 17  2  0  0  0  0
 16 21  1  0  0  0  0
 17 18  1  0  0  0  0
 17 36  1  0  0  0  0
 18 19  2  0  0  0  0
 18 37  1  0  0  0  0
 19 20  1  0  0  0  0
 19 38  1  0  0  0  0
 20 21  2  0  0  0  0
 20 39  1  0  0  0  0
 21 40  1  0  0  0  0
 22 23  2  0  0  0  0
 22 41  1  0  0  0  0
 23 24  1  0  0  0  0
 24 42  1  0  0  0  0
M  END
>  <DRUGBANK_ID>
DB16773

>  <COMMON_NAME>
Tyrphostin AG 555

>  <CAS_NUMBER>
133550-34-2

>  <SYNONYMS>
AG 555; AG-555; Tyrphostin AG 555; Tyrphostin AG-555; Tyrphostin B-46; Tyrphostin B46

$$$$
