
 OpenBabel10282417143D

 29 30  0  0  0  0  0  0  0  0999 V2000
    1.5786    0.4217   -0.7024 C   0  0  0  0  0  0  0  0  0  0  0  0
    0.8437   -0.2147   -1.7755 C   0  0  0  0  0  0  0  0  0  0  0  0
    0.6201   -1.5453   -1.8280 C   0  0  0  0  0  0  0  0  0  0  0  0
   -0.0743   -2.2092   -3.2851 S   0  0  0  0  0  0  0  0  0  0  0  0
   -0.4369   -0.7396   -4.2709 C   0  0  0  0  0  0  0  0  0  0  0  0
   -0.2828    0.6533   -3.7092 C   0  0  0  0  0  0  0  0  0  0  0  0
    0.1792    0.7789   -2.4093 O   0  0  0  0  0  0  0  0  0  0  0  0
    0.9971   -2.6423   -0.7509 C   0  0  0  0  0  0  0  0  0  0  0  0
    1.1010   -3.8061   -1.1139 O   0  0  0  0  0  0  0  0  0  0  0  0
    1.2666   -2.4440    0.6137 N   0  0  0  0  0  0  0  0  0  0  0  0
    1.1363   -1.3788    1.5623 C   0  0  0  0  0  0  0  0  0  0  0  0
   -0.0100   -0.5441    1.6129 C   0  0  0  0  0  0  0  0  0  0  0  0
    0.1201    0.8073    2.0189 C   0  0  0  0  0  0  0  0  0  0  0  0
    1.3228    1.2798    2.5472 C   0  0  0  0  0  0  0  0  0  0  0  0
    2.4028    0.4057    2.6766 C   0  0  0  0  0  0  0  0  0  0  0  0
    2.3296   -0.9020    2.1518 C   0  0  0  0  0  0  0  0  0  0  0  0
    1.0705   -0.1505   -0.0167 H   0  0  0  0  0  0  0  0  0  0  0  0
    1.2434    1.4153   -0.4045 H   0  0  0  0  0  0  0  0  0  0  0  0
    2.6288    0.1985   -0.5607 H   0  0  0  0  0  0  0  0  0  0  0  0
   -1.4838   -0.8527   -4.5572 H   0  0  0  0  0  0  0  0  0  0  0  0
    0.1587   -0.7784   -5.1873 H   0  0  0  0  0  0  0  0  0  0  0  0
    0.4066    1.2487   -4.3168 H   0  0  0  0  0  0  0  0  0  0  0  0
   -1.2424    1.1825   -3.7424 H   0  0  0  0  0  0  0  0  0  0  0  0
    1.7443   -3.2673    0.9713 H   0  0  0  0  0  0  0  0  0  0  0  0
   -0.8824   -0.7957    1.0100 H   0  0  0  0  0  0  0  0  0  0  0  0
   -0.6388    1.5340    1.7188 H   0  0  0  0  0  0  0  0  0  0  0  0
    1.4510    2.3429    2.7555 H   0  0  0  0  0  0  0  0  0  0  0  0
    3.3427    0.7874    3.0726 H   0  0  0  0  0  0  0  0  0  0  0  0
    3.2726   -1.4314    2.0121 H   0  0  0  0  0  0  0  0  0  0  0  0
  1  2  1  0  0  0  0
  1 17  1  0  0  0  0
  1 18  1  0  0  0  0
  1 19  1  0  0  0  0
  2  3  2  0  0  0  0
  2  7  1  0  0  0  0
  3  4  1  0  0  0  0
  3  8  1  0  0  0  0
  4  5  1  0  0  0  0
  5  6  1  0  0  0  0
  5 20  1  0  0  0  0
  5 21  1  0  0  0  0
  6  7  1  0  0  0  0
  6 22  1  0  0  0  0
  6 23  1  0  0  0  0
  8  9  2  0  0  0  0
  8 10  1  0  0  0  0
 10 11  1  0  0  0  0
 10 24  1  0  0  0  0
 11 12  2  0  0  0  0
 11 16  1  0  0  0  0
 12 13  1  0  0  0  0
 12 25  1  0  0  0  0
 13 14  2  0  0  0  0
 13 26  1  0  0  0  0
 14 15  1  0  0  0  0
 14 27  1  0  0  0  0
 15 16  2  0  0  0  0
 15 28  1  0  0  0  0
 16 29  1  0  0  0  0
M  END
>  <DRUGBANK_ID>
DB04657

>  <COMMON_NAME>
Carboxin

>  <CAS_NUMBER>
5234-68-4

>  <UNII>
5A8K850HDE

>  <SYNONYMS>
2,3-Dihydro-5-carboxanilido-6-methyl-1,4-oxathiin; 2,3-Dihydro-6-methyl-1,4-oxathiin-5-carboxanilide; 2,3-Dihydro-6-methyl-5-phenylcarbamoyl-1,4-oxathiin; 5-Carboxanilido-2,3-dihydro-6-methyl-1,4-oxathiin; 5,6-Dihydro-2-methyl-1,4-oxathiin-3-carboxanilide; 5,6-Dihydro-2-methyl-3-carboxanilido-1,4-oxathiin; 5,6-Dihydro-2-methyl-N-phenyl-1,4-oxathiin-3-carboxamide; Carbathiin; Carboxine; Oxatin

$$$$
