
 OpenBabel10282417153D

 41 42  0  0  0  0  0  0  0  0999 V2000
   -0.9870    1.1545    0.0510 C   0  0  0  0  0  0  0  0  0  0  0  0
    0.3904    1.1852    0.0413 C   0  0  0  0  0  0  0  0  0  0  0  0
    1.0914   -0.0193    0.0265 C   0  0  0  0  0  0  0  0  0  0  0  0
    0.4101   -1.2450    0.0356 C   0  0  0  0  0  0  0  0  0  0  0  0
   -0.9730   -1.2802    0.0367 C   0  0  0  0  0  0  0  0  0  0  0  0
   -1.6659   -0.0782    0.0237 C   0  0  0  0  0  0  0  0  0  0  0  0
    2.5807   -0.0097   -0.0112 C   0  0  0  0  0  0  0  0  0  0  0  0
   -3.0998   -0.0249   -0.2238 C   0  0  0  0  0  0  0  0  0  0  0  0
   -4.0189   -1.2536   -0.1218 C   0  0  3  0  0  0  0  0  0  0  0  0
   -3.4587    1.0829   -0.6673 O   0  0  0  0  0  0  0  0  0  0  0  0
   -4.9925   -1.2822    1.0985 C   0  0  0  0  0  0  0  0  0  0  0  0
   -6.0905   -0.2915    1.2173 N   0  0  0  0  0  0  0  0  0  0  0  0
   -5.5432    1.0502    1.0270 C   0  0  0  0  0  0  0  0  0  0  0  0
   -6.4955    2.2161    1.0612 C   0  0  0  0  0  0  0  0  0  0  0  0
   -7.5459    1.9736   -0.0141 C   0  0  0  0  0  0  0  0  0  0  0  0
   -8.1879    0.5962    0.1753 C   0  0  0  0  0  0  0  0  0  0  0  0
   -7.1565   -0.5294    0.2327 C   0  0  0  0  0  0  0  0  0  0  0  0
   -4.6961   -1.4187   -1.4801 C   0  0  0  0  0  0  0  0  0  0  0  0
   -1.5322    2.0994    0.0200 H   0  0  0  0  0  0  0  0  0  0  0  0
    0.8981    2.1459    0.0163 H   0  0  0  0  0  0  0  0  0  0  0  0
    0.9544   -2.1846    0.0119 H   0  0  0  0  0  0  0  0  0  0  0  0
   -1.4641   -2.2426   -0.0086 H   0  0  0  0  0  0  0  0  0  0  0  0
    2.9625   -0.5328    0.8685 H   0  0  0  0  0  0  0  0  0  0  0  0
    2.9246   -0.5011   -0.9251 H   0  0  0  0  0  0  0  0  0  0  0  0
    2.9643    1.0144   -0.0016 H   0  0  0  0  0  0  0  0  0  0  0  0
   -3.4165   -2.1552    0.0023 H   0  0  0  0  0  0  0  0  0  0  0  0
   -5.4425   -2.2860    1.1523 H   0  0  0  0  0  0  0  0  0  0  0  0
   -4.3870   -1.2191    2.0163 H   0  0  0  0  0  0  0  0  0  0  0  0
   -5.2676    1.0766   -0.0132 H   0  0  0  0  0  0  0  0  0  0  0  0
   -4.6818    1.2332    1.6796 H   0  0  0  0  0  0  0  0  0  0  0  0
   -5.9259    3.1239    0.8167 H   0  0  0  0  0  0  0  0  0  0  0  0
   -6.9301    2.3375    2.0537 H   0  0  0  0  0  0  0  0  0  0  0  0
   -8.2959    2.7656    0.0086 H   0  0  0  0  0  0  0  0  0  0  0  0
   -7.0668    2.0209   -1.0059 H   0  0  0  0  0  0  0  0  0  0  0  0
   -8.7808    0.5869    1.0919 H   0  0  0  0  0  0  0  0  0  0  0  0
   -8.8521    0.4022   -0.6738 H   0  0  0  0  0  0  0  0  0  0  0  0
   -7.6342   -1.4977    0.4170 H   0  0  0  0  0  0  0  0  0  0  0  0
   -6.7791   -0.5833   -0.7813 H   0  0  0  0  0  0  0  0  0  0  0  0
   -3.9637   -1.6099   -2.2676 H   0  0  0  0  0  0  0  0  0  0  0  0
   -5.4104   -2.2478   -1.4600 H   0  0  0  0  0  0  0  0  0  0  0  0
   -5.1976   -0.4984   -1.7942 H   0  0  0  0  0  0  0  0  0  0  0  0
  1  2  1  0  0  0  0
  1  6  2  0  0  0  0
  1 19  1  0  0  0  0
  2  3  2  0  0  0  0
  2 20  1  0  0  0  0
  3  4  1  0  0  0  0
  3  7  1  0  0  0  0
  4  5  2  0  0  0  0
  4 21  1  0  0  0  0
  5  6  1  0  0  0  0
  5 22  1  0  0  0  0
  6  8  1  0  0  0  0
  7 23  1  0  0  0  0
  7 24  1  0  0  0  0
  7 25  1  0  0  0  0
  8  9  1  0  0  0  0
  8 10  2  0  0  0  0
  9 11  1  0  0  0  0
  9 18  1  0  0  0  0
  9 26  1  0  0  0  0
 11 12  1  0  0  0  0
 11 27  1  0  0  0  0
 11 28  1  0  0  0  0
 12 13  1  0  0  0  0
 13 14  1  0  0  0  0
 13 29  1  0  0  0  0
 13 30  1  0  0  0  0
 14 15  1  0  0  0  0
 14 31  1  0  0  0  0
 14 32  1  0  0  0  0
 15 16  1  0  0  0  0
 15 33  1  0  0  0  0
 15 34  1  0  0  0  0
 16 17  1  0  0  0  0
 16 35  1  0  0  0  0
 16 36  1  0  0  0  0
 17 12  1  0  0  0  0
 17 37  1  0  0  0  0
 17 38  1  0  0  0  0
 18 39  1  0  0  0  0
 18 40  1  0  0  0  0
 18 41  1  0  0  0  0
M  END
>  <DRUGBANK_ID>
DB06264

>  <COMMON_NAME>
Tolperisone

>  <CAS_NUMBER>
728-88-1

>  <UNII>
F5EOM0LD8E

>  <SYNONYMS>
Tolperisone

$$$$
