
 OpenBabel10282417233D

 17 14  0  0  0  0  0  0  0  0999 V2000
    1.0210    0.0623    0.0753 Cl  0  0  0  0  0  0  0  0  0  0  0  0
    1.0793    0.0023   -0.0609 O   0  5  0  0  0  0  0  0  0  0  0  0
    2.4993    0.0023   -0.0609 C   0  0  0  0  0  0  0  0  0  0  0  0
    3.1347   -0.6474    0.8275 O   0  0  0  0  0  0  0  0  0  0  0  0
    3.2593    0.7793   -1.1234 C   0  0  0  0  0  0  0  0  0  0  0  0
    2.8921    0.2481   -2.4994 C   0  0  1  0  0  0  0  0  0  0  0  0
    1.3977    0.4120   -2.7236 C   0  0  0  0  0  0  0  0  0  0  0  0
    0.9244    1.2023   -3.8043 O   0  5  0  0  0  0  0  0  0  0  0  0
    0.5718   -0.1582   -1.9439 O   0  0  0  0  0  0  0  0  0  0  0  0
    3.6271    0.9996   -3.5270 N   0  0  0  0  0  0  0  0  0  0  0  0
    1.0734   -0.0678    0.0033 Mg  0  2  0  0  0  0  0  0  0  0  0  0
    2.3510    0.0623    0.0753 H   0  0  0  0  0  0  0  0  0  0  0  0
    3.0008    1.8157   -1.0606 H   0  0  0  0  0  0  0  0  0  0  0  0
    4.3113    0.6639   -0.9656 H   0  0  0  0  0  0  0  0  0  0  0  0
    3.1506   -0.7883   -2.5622 H   0  0  0  0  0  0  0  0  0  0  0  0
    3.3807    0.6431   -4.4504 H   0  0  0  0  0  0  0  0  0  0  0  0
    3.3807    1.9875   -3.4671 H   0  0  0  0  0  0  0  0  0  0  0  0
  1 12  1  0  0  0  0
  3  2  1  0  0  0  0
  3  4  2  0  0  0  0
  5  3  1  0  0  0  0
  5 13  1  0  0  0  0
  5 14  1  0  0  0  0
  6  5  1  0  0  0  0
  6 10  1  0  0  0  0
  6 15  1  6  0  0  0
  7  6  1  0  0  0  0
  7  9  2  0  0  0  0
  8  7  1  0  0  0  0
 10 16  1  0  0  0  0
 10 17  1  0  0  0  0
M  CHG  3   2  -1   8  -1  11   2
M  END
>  <DRUGBANK_ID>
DB16619

>  <COMMON_NAME>
Magnesium aspartate hydrochloride

>  <CAS_NUMBER>
28184-71-6

>  <UNII>
5LK942W2PC

$$$$
