
 OpenBabel10282417133D

 68 72  0  0  0  0  0  0  0  0999 V2000
   -4.0780    9.7437   -0.4385 Se  0  0  0  0  0  0  0  0  0  0  0  0
   -0.8655    9.2958   -2.6670 P   0  0  1  0  0  0  0  0  0  0  0  0
   -0.2647    6.5572   -3.0048 P   0  0  2  0  0  0  0  0  0  0  0  0
    1.5477    9.7973    0.8488 O   0  0  0  0  0  0  0  0  0  0  0  0
   -0.2675    9.4266   -1.3055 O   0  0  0  0  0  0  0  0  0  0  0  0
    1.3268    7.1598   -0.9145 O   0  0  0  0  0  0  0  0  0  0  0  0
   -0.0207    6.6178    1.2744 O   0  0  0  0  0  0  0  0  0  0  0  0
    0.9708    7.2508    0.6560 O   0  0  0  0  0  0  0  0  0  0  0  0
   -1.4522    6.3809    0.1336 O   0  0  0  0  0  0  0  0  0  0  0  0
   -1.1336   10.0805   -1.1487 O   0  0  0  0  0  0  0  0  0  0  0  0
    1.3618    7.1295   -3.1455 O   0  0  0  0  0  0  0  0  0  0  0  0
   -0.6006    7.7966   -1.8455 O   0  0  0  0  0  0  0  0  0  0  0  0
   -2.4602    9.7339   -3.1750 O   0  0  0  0  0  0  0  0  0  0  0  0
   -0.6585    5.3507   -1.8291 O   0  0  0  0  0  0  0  0  0  0  0  0
   -0.6255    8.5936   -4.0259 O   0  0  0  0  0  0  0  0  0  0  0  0
    0.0358    5.4479   -4.0424 O   0  0  0  0  0  0  0  0  0  0  0  0
   -5.6921    9.9238   -4.7981 O   0  0  0  0  0  0  0  0  0  0  0  0
    0.5931    9.2818    2.9276 N   0  0  0  0  0  0  0  0  0  0  0  0
    0.3424    9.6825    5.0466 N   0  0  0  0  0  0  0  0  0  0  0  0
   -2.8234    9.0242   -2.7052 N   0  0  0  0  0  0  0  0  0  0  0  0
   -1.3369   10.7122    2.1346 N   0  0  0  0  0  0  0  0  0  0  0  0
   -2.4747   11.7735    3.9186 N   0  0  0  0  0  0  0  0  0  0  0  0
   -1.8545   11.5138    6.2718 N   0  0  0  0  0  0  0  0  0  0  0  0
   -3.6183    9.0484   -5.5581 N   0  0  0  0  0  0  0  0  0  0  0  0
    0.4341    8.2006   -0.5533 C   0  0  1  0  0  0  0  0  0  0  0  0
    0.0372    7.9751    0.9118 C   0  0  2  0  0  0  0  0  0  0  0  0
    1.1268    9.5691   -0.5200 C   0  0  1  0  0  0  0  0  0  0  0  0
    1.1331    8.7500    1.6680 C   0  0  1  0  0  0  0  0  0  0  0  0
    0.6642    7.2926   -0.7278 C   0  0  2  0  0  0  0  0  0  0  0  0
    0.9658    8.6647   -1.3443 C   0  0  1  0  0  0  0  0  0  0  0  0
   -0.8601    7.1775   -0.8624 C   0  0  2  0  0  0  0  0  0  0  0  0
   -1.3045    8.6508   -0.7927 C   0  0  2  0  0  0  0  0  0  0  0  0
    0.0811   10.6585   -0.6939 C   0  0  0  0  0  0  0  0  0  0  0  0
    1.4329    8.5002   -2.7814 C   0  0  0  0  0  0  0  0  0  0  0  0
   -2.6138    9.0803   -1.4343 C   0  0  0  0  0  0  0  0  0  0  0  0
   -0.4564   10.1122    3.0369 C   0  0  0  0  0  0  0  0  0  0  0  0
    1.0571    9.0377    4.1362 C   0  0  0  0  0  0  0  0  0  0  0  0
   -0.6156   10.3706    4.4273 C   0  0  0  0  0  0  0  0  0  0  0  0
   -1.6583   11.2244    4.8440 C   0  0  0  0  0  0  0  0  0  0  0  0
   -4.0827    9.4763   -3.0467 C   0  0  0  0  0  0  0  0  0  0  0  0
   -4.9039    9.8901   -2.0676 C   0  0  0  0  0  0  0  0  0  0  0  0
   -2.3209   11.5179    2.5927 C   0  0  0  0  0  0  0  0  0  0  0  0
   -4.5300    9.5050   -4.4992 C   0  0  0  0  0  0  0  0  0  0  0  0
   -1.5178    8.7962    0.2457 H   0  0  0  0  0  0  0  0  0  0  0  0
   -1.2351   11.0966    6.9666 H   0  0  0  0  0  0  0  0  0  0  0  0
   -2.6100   12.1319    6.5678 H   0  0  0  0  0  0  0  0  0  0  0  0
   -2.6857    8.7123   -5.3182 H   0  0  0  0  0  0  0  0  0  0  0  0
   -3.9184    9.0677   -6.5327 H   0  0  0  0  0  0  0  0  0  0  0  0
    2.0938    7.1410   -0.2732 H   0  0  0  0  0  0  0  0  0  0  0  0
    0.8681    6.1904    1.1091 H   0  0  0  0  0  0  0  0  0  0  0  0
    0.4554    7.9626    1.1333 H   0  0  0  0  0  0  0  0  0  0  0  0
   -1.2331    6.7559    1.0344 H   0  0  0  0  0  0  0  0  0  0  0  0
   -2.9135   10.2459   -2.4454 H   0  0  0  0  0  0  0  0  0  0  0  0
   -0.9174    5.7937   -0.9707 H   0  0  0  0  0  0  0  0  0  0  0  0
   -0.3702    8.1898   -1.2589 H   0  0  0  0  0  0  0  0  0  0  0  0
   -0.9543    8.3119    1.1317 H   0  0  0  0  0  0  0  0  0  0  0  0
    1.9019    9.5855   -1.2574 H   0  0  0  0  0  0  0  0  0  0  0  0
    1.9556    8.1068    1.9021 H   0  0  0  0  0  0  0  0  0  0  0  0
    1.2318    6.5203   -1.2034 H   0  0  0  0  0  0  0  0  0  0  0  0
    1.7412    9.1649   -0.8026 H   0  0  0  0  0  0  0  0  0  0  0  0
   -1.1630    6.6811   -1.7606 H   0  0  0  0  0  0  0  0  0  0  0  0
    0.4266   11.3732   -1.4113 H   0  0  0  0  0  0  0  0  0  0  0  0
   -0.0851   11.1462    0.2439 H   0  0  0  0  0  0  0  0  0  0  0  0
    0.7952    9.0729   -3.4218 H   0  0  0  0  0  0  0  0  0  0  0  0
    2.4411    8.8441   -2.8819 H   0  0  0  0  0  0  0  0  0  0  0  0
    1.8940    8.4070    4.3523 H   0  0  0  0  0  0  0  0  0  0  0  0
   -5.8990   10.2536   -2.2177 H   0  0  0  0  0  0  0  0  0  0  0  0
   -2.9958   11.9659    1.8936 H   0  0  0  0  0  0  0  0  0  0  0  0
  1 35  1  0  0  0  0
  1 41  1  0  0  0  0
  2 13  1  0  0  0  0
  2 15  2  6  0  0  0
  2 12  1  0  0  0  0
  2 10  1  0  0  0  0
  3 14  1  0  0  0  0
  3 16  2  6  0  0  0
  3 12  1  0  0  0  0
  3 11  1  0  0  0  0
  4 27  1  0  0  0  0
  4 28  1  0  0  0  0
  5 30  1  0  0  0  0
  5 32  1  0  0  0  0
  6 49  1  0  0  0  0
  7 50  1  0  0  0  0
  8 51  1  0  0  0  0
  9 52  1  0  0  0  0
 10 33  1  0  0  0  0
 11 34  1  0  0  0  0
 13 53  1  0  0  0  0
 14 54  1  0  0  0  0
 17 43  2  0  0  0  0
 18 36  1  0  0  0  0
 18 37  1  0  0  0  0
 19 37  2  0  0  0  0
 19 38  1  0  0  0  0
 20 35  2  0  0  0  0
 20 40  1  0  0  0  0
 21 36  2  0  0  0  0
 21 42  1  0  0  0  0
 22 39  1  0  0  0  0
 22 42  2  0  0  0  0
 23 39  1  0  0  0  0
 23 45  1  0  0  0  0
 23 46  1  0  0  0  0
 24 43  1  0  0  0  0
 24 47  1  0  0  0  0
 24 48  1  0  0  0  0
 25  6  1  0  0  0  0
 25 26  1  0  0  0  0
 25 27  1  0  0  0  0
 25 55  1  6  0  0  0
 26  7  1  0  0  0  0
 26 28  1  0  0  0  0
 26 56  1  1  0  0  0
 27 33  1  0  0  0  0
 27 57  1  6  0  0  0
 28 58  1  1  0  0  0
 28 18  1  0  0  0  0
 29  8  1  0  0  0  0
 29 30  1  0  0  0  0
 29 31  1  0  0  0  0
 29 59  1  6  0  0  0
 30 60  1  1  0  0  0
 30 34  1  0  0  0  0
 31  9  1  0  0  0  0
 31 32  1  0  0  0  0
 31 61  1  6  0  0  0
 32 35  1  0  0  0  0
 32 44  1  1  0  0  0
 33 62  1  0  0  0  0
 33 63  1  0  0  0  0
 34 64  1  0  0  0  0
 34 65  1  0  0  0  0
 36 38  1  0  0  0  0
 37 66  1  0  0  0  0
 38 39  2  0  0  0  0
 40 41  2  0  0  0  0
 40 43  1  0  0  0  0
 41 67  1  0  0  0  0
 42 68  1  0  0  0  0
M  END
>  <DRUGBANK_ID>
DB03070

>  <SECONDARY_ACCESSION_NUMBERS>
EXPT02840

>  <COMMON_NAME>
Selenazole-4-carboxyamide-adenine dinucleotide

$$$$
