
 OpenBabel10282417223D

 42 42  0  0  0  0  0  0  0  0999 V2000
   -0.5934    1.3016   -0.0254 C   0  0  0  0  0  0  0  0  0  0  0  0
   -1.3859    0.0983   -0.0059 C   0  0  0  0  0  0  0  0  0  0  0  0
    0.8106    1.1047   -0.0062 C   0  0  0  0  0  0  0  0  0  0  0  0
   -1.2202    2.6312   -0.0362 N   0  0  0  0  0  0  0  0  0  0  0  0
   -0.7331   -1.1934    0.0023 C   0  0  0  0  0  0  0  0  0  0  0  0
   -2.9034    0.0751   -0.0092 C   0  0  0  0  0  0  0  0  0  0  0  0
    1.4049   -0.1555   -0.0055 C   0  0  0  0  0  0  0  0  0  0  0  0
    1.8433    2.1601    0.0380 C   0  0  0  0  0  0  0  0  0  0  0  0
   -0.6848    3.9407   -0.1851 C   0  0  0  0  0  0  0  0  0  0  0  0
    0.6609   -1.3146    0.0000 C   0  0  0  0  0  0  0  0  0  0  0  0
   -1.7614   -2.8176    0.0078 Br  0  0  0  0  0  0  0  0  0  0  0  0
   -1.6509    5.0732   -0.0011 C   0  0  0  0  0  0  0  0  0  0  0  0
    0.4476    4.3735   -0.4030 O   0  0  0  0  0  0  0  0  0  0  0  0
    1.4814   -2.5677    0.0040 C   0  0  0  0  0  0  0  0  0  0  0  0
   -1.2890    5.7960    1.2371 N   0  0  0  0  0  0  0  0  0  0  0  0
   -1.8285    7.1633    1.2389 C   0  0  0  0  0  0  0  0  0  0  0  0
   -1.4802    5.0137    2.4662 C   0  0  0  0  0  0  0  0  0  0  0  0
   -3.3463    7.2098    1.0545 C   0  0  0  0  0  0  0  0  0  0  0  0
   -2.9234    4.6112    2.6956 C   0  0  0  0  0  0  0  0  0  0  0  0
   -3.9961    7.8775    2.0309 O   0  0  0  0  0  0  0  0  0  0  0  0
   -3.9381    6.6856    0.1203 O   0  0  0  0  0  0  0  0  0  0  0  0
   -3.2329    3.3303    2.4298 O   0  0  0  0  0  0  0  0  0  0  0  0
   -3.7847    5.4240    3.0706 O   0  0  0  0  0  0  0  0  0  0  0  0
   -2.2344    2.6130   -0.0535 H   0  0  0  0  0  0  0  0  0  0  0  0
   -3.2710   -0.4496   -0.9012 H   0  0  0  0  0  0  0  0  0  0  0  0
   -3.2782   -0.4497    0.8802 H   0  0  0  0  0  0  0  0  0  0  0  0
   -3.3685    1.0581   -0.0089 H   0  0  0  0  0  0  0  0  0  0  0  0
    2.4954   -0.2098   -0.0039 H   0  0  0  0  0  0  0  0  0  0  0  0
    2.4771    2.1867    0.9236 H   0  0  0  0  0  0  0  0  0  0  0  0
    2.3544    2.3306   -0.9128 H   0  0  0  0  0  0  0  0  0  0  0  0
    1.2647    2.9767    0.2880 H   0  0  0  0  0  0  0  0  0  0  0  0
   -1.4298    5.7177   -0.8685 H   0  0  0  0  0  0  0  0  0  0  0  0
   -2.6787    4.7311   -0.0654 H   0  0  0  0  0  0  0  0  0  0  0  0
    2.1244   -2.5764   -0.8849 H   0  0  0  0  0  0  0  0  0  0  0  0
    2.1243   -2.5717    0.8930 H   0  0  0  0  0  0  0  0  0  0  0  0
    0.8988   -3.4846    0.0065 H   0  0  0  0  0  0  0  0  0  0  0  0
   -1.5066    7.7074    2.1350 H   0  0  0  0  0  0  0  0  0  0  0  0
   -1.3987    7.7295    0.3990 H   0  0  0  0  0  0  0  0  0  0  0  0
   -0.8446    4.1189    2.4623 H   0  0  0  0  0  0  0  0  0  0  0  0
   -1.1370    5.5821    3.3395 H   0  0  0  0  0  0  0  0  0  0  0  0
   -3.5232    7.8209    2.8843 H   0  0  0  0  0  0  0  0  0  0  0  0
   -2.4670    2.7284    2.3453 H   0  0  0  0  0  0  0  0  0  0  0  0
  1  2  2  0  0  0  0
  1  3  1  0  0  0  0
  1  4  1  0  0  0  0
  2  5  1  0  0  0  0
  2  6  1  0  0  0  0
  3  7  2  0  0  0  0
  3  8  1  0  0  0  0
  4  9  1  0  0  0  0
  4 24  1  0  0  0  0
  5 10  2  0  0  0  0
  5 11  1  0  0  0  0
  6 25  1  0  0  0  0
  6 26  1  0  0  0  0
  6 27  1  0  0  0  0
  7 10  1  0  0  0  0
  7 28  1  0  0  0  0
  8 29  1  0  0  0  0
  8 30  1  0  0  0  0
  8 31  1  0  0  0  0
  9 12  1  0  0  0  0
  9 13  2  0  0  0  0
 10 14  1  0  0  0  0
 12 15  1  0  0  0  0
 12 32  1  0  0  0  0
 12 33  1  0  0  0  0
 14 34  1  0  0  0  0
 14 35  1  0  0  0  0
 14 36  1  0  0  0  0
 15 16  1  0  0  0  0
 15 17  1  0  0  0  0
 16 18  1  0  0  0  0
 16 37  1  0  0  0  0
 16 38  1  0  0  0  0
 17 19  1  0  0  0  0
 17 39  1  0  0  0  0
 17 40  1  0  0  0  0
 18 20  1  0  0  0  0
 18 21  2  0  0  0  0
 19 22  1  0  0  0  0
 19 23  2  0  0  0  0
 20 41  1  0  0  0  0
 22 42  1  0  0  0  0
M  END
>  <DRUGBANK_ID>
DB15779

>  <COMMON_NAME>
Mebrofenin

>  <CAS_NUMBER>
78266-06-5

>  <UNII>
7PV0B6ED98

>  <SYNONYMS>
Mebrofenin; Mebrofenine; Mebrofenino; Mebrofeninum

$$$$
