
 OpenBabel10282417203D

 57 60  0  0  1  0  0  0  0  0999 V2000
    9.5135    7.5418    2.6536 C   0  0  0  0  0  0  0  0  0  0  0  0
    9.3916    6.7398    1.1475 C   0  0  1  0  0  0  0  0  0  0  0  0
    8.4078    7.2093   -0.3967 C   0  0  0  0  0  0  0  0  0  0  0  0
    9.1626    7.4197   -1.3234 O   0  0  0  0  0  0  0  0  0  0  0  0
    6.4901    7.3198   -0.7974 C   0  0  1  0  0  0  0  0  0  0  0  0
    4.6762    6.4948   -0.8547 C   0  0  0  0  0  0  0  0  0  0  0  0
    4.6855    5.2291   -0.0798 C   0  0  0  0  0  0  0  0  0  0  0  0
    6.0218    5.7340   -0.2219 C   0  0  2  0  0  0  0  0  0  0  0  0
    5.7472    7.5250    0.3888 C   0  0  2  0  0  0  0  0  0  0  0  0
    5.5422    7.3100    1.9060 C   0  0  0  0  0  0  0  0  0  0  0  0
    6.6916    6.4915    2.3605 C   0  0  1  0  0  0  0  0  0  0  0  0
    6.8545    4.9947    1.8013 C   0  0  1  0  0  0  0  0  0  0  0  0
    7.1016    4.8754    0.3165 C   0  0  1  0  0  0  0  0  0  0  0  0
    7.0494    3.4731   -0.2871 C   0  0  0  0  0  0  0  0  0  0  0  0
    8.2130    2.7057    0.3025 C   0  0  0  0  0  0  0  0  0  0  0  0
    8.1432    2.7376    1.8146 C   0  0  0  0  0  0  0  0  0  0  0  0
    8.3589    1.6228    2.5369 C   0  0  0  0  0  0  0  0  0  0  0  0
    8.1167    1.6301    4.0185 C   0  0  0  0  0  0  0  0  0  0  0  0
    8.6617    0.8251    4.7549 O   0  0  0  0  0  0  0  0  0  0  0  0
    7.2584    2.7187    4.6224 C   0  0  0  0  0  0  0  0  0  0  0  0
    6.7334    3.4895    3.6674 C   0  0  0  0  0  0  0  0  0  0  0  0
    7.7190    3.9978    2.5954 C   0  0  2  0  0  0  0  0  0  0  0  0
    8.9501    4.5511    3.3581 C   0  0  0  0  0  0  0  0  0  0  0  0
    5.5773    4.4686    1.9171 F   0  0  0  0  0  0  0  0  0  0  0  0
    7.5180    7.4178    1.7006 O   0  0  0  0  0  0  0  0  0  0  0  0
    4.7934    8.8049   -0.1513 C   0  0  0  0  0  0  0  0  0  0  0  0
    6.5871    8.3110   -1.8196 O   0  0  0  0  0  0  0  0  0  0  0  0
   10.7418    6.2841    0.9782 O   0  0  0  0  0  0  0  0  0  0  0  0
   10.0415    8.4791    2.5264 H   0  0  0  0  0  0  0  0  0  0  0  0
    9.9984    6.9383    3.4355 H   0  0  0  0  0  0  0  0  0  0  0  0
    8.6133    7.8316    3.2349 H   0  0  0  0  0  0  0  0  0  0  0  0
    8.9704    5.7828    1.3764 H   0  0  0  0  0  0  0  0  0  0  0  0
    3.9072    6.2496   -1.6118 H   0  0  0  0  0  0  0  0  0  0  0  0
    3.9113    7.0008   -0.1982 H   0  0  0  0  0  0  0  0  0  0  0  0
    4.4537    4.2993   -0.5873 H   0  0  0  0  0  0  0  0  0  0  0  0
    4.1919    5.3158    0.8900 H   0  0  0  0  0  0  0  0  0  0  0  0
    6.2448    5.5402   -1.3693 H   0  0  0  0  0  0  0  0  0  0  0  0
    5.6284    8.3112    2.3757 H   0  0  0  0  0  0  0  0  0  0  0  0
    4.5863    6.9228    2.2471 H   0  0  0  0  0  0  0  0  0  0  0  0
    6.8464    6.5190    3.4361 H   0  0  0  0  0  0  0  0  0  0  0  0
    8.0619    5.1687   -0.1065 H   0  0  0  0  0  0  0  0  0  0  0  0
    6.0979    2.9865   -0.0725 H   0  0  0  0  0  0  0  0  0  0  0  0
    7.1397    3.5138   -1.3902 H   0  0  0  0  0  0  0  0  0  0  0  0
    8.1448    1.6827   -0.0825 H   0  0  0  0  0  0  0  0  0  0  0  0
    9.1619    3.1288   -0.0564 H   0  0  0  0  0  0  0  0  0  0  0  0
    8.7332    0.7098    2.0998 H   0  0  0  0  0  0  0  0  0  0  0  0
    7.9270    3.2310    5.3180 H   0  0  0  0  0  0  0  0  0  0  0  0
    5.8261    3.0692    3.2087 H   0  0  0  0  0  0  0  0  0  0  0  0
    9.7924    4.8731    2.7555 H   0  0  0  0  0  0  0  0  0  0  0  0
    8.6329    5.3324    4.0553 H   0  0  0  0  0  0  0  0  0  0  0  0
    9.4554    3.7923    3.9612 H   0  0  0  0  0  0  0  0  0  0  0  0
    7.5102    8.3671    1.9278 H   0  0  0  0  0  0  0  0  0  0  0  0
    5.2156    9.7590    0.1621 H   0  0  0  0  0  0  0  0  0  0  0  0
    4.7305    8.8377   -1.2591 H   0  0  0  0  0  0  0  0  0  0  0  0
    3.7257    8.7828    0.0927 H   0  0  0  0  0  0  0  0  0  0  0  0
    6.7722    9.1556   -1.3742 H   0  0  0  0  0  0  0  0  0  0  0  0
   11.2977    7.0696    0.8822 H   0  0  0  0  0  0  0  0  0  0  0  0
  1  2  1  0  0  0  0
  1 29  1  0  0  0  0
  1 30  1  0  0  0  0
  1 31  1  0  0  0  0
  2  3  1  0  0  0  0
  2 28  1  0  0  0  0
  2 32  1  1  0  0  0
  3  4  2  0  0  0  0
  5  6  1  0  0  0  0
  5  9  1  0  0  0  0
  5 27  1  6  0  0  0
  5  3  1  0  0  0  0
  6  7  1  0  0  0  0
  6 33  1  0  0  0  0
  6 34  1  0  0  0  0
  7 35  1  0  0  0  0
  7 36  1  0  0  0  0
  8  7  1  0  0  0  0
  8  9  1  0  0  0  0
  8 13  1  0  0  0  0
  8 37  1  1  0  0  0
  9 10  1  0  0  0  0
  9 26  1  1  0  0  0
 10 11  1  0  0  0  0
 10 38  1  0  0  0  0
 10 39  1  0  0  0  0
 11 12  1  0  0  0  0
 11 25  1  0  0  0  0
 11 40  1  1  0  0  0
 12 13  1  0  0  0  0
 12 22  1  0  0  0  0
 12 24  1  1  0  0  0
 13 14  1  0  0  0  0
 13 41  1  6  0  0  0
 14 15  1  0  0  0  0
 14 42  1  0  0  0  0
 14 43  1  0  0  0  0
 15 16  1  0  0  0  0
 15 44  1  0  0  0  0
 15 45  1  0  0  0  0
 16 17  2  0  0  0  0
 16 22  1  0  0  0  0
 17 18  1  0  0  0  0
 17 46  1  0  0  0  0
 18 19  2  0  0  0  0
 18 20  1  0  0  0  0
 20 21  2  0  0  0  0
 20 47  1  0  0  0  0
 21 22  1  0  0  0  0
 21 48  1  0  0  0  0
 22 23  1  1  0  0  0
 23 49  1  0  0  0  0
 23 50  1  0  0  0  0
 23 51  1  0  0  0  0
 25 52  1  0  0  0  0
 26 53  1  0  0  0  0
 26 54  1  0  0  0  0
 26 55  1  0  0  0  0
 27 56  1  0  0  0  0
 28 57  1  0  0  0  0
M  END
>  <DRUGBANK_ID>
DB13491

>  <COMMON_NAME>
Fluperolone

>  <CAS_NUMBER>
3841-11-0

>  <UNII>
S33056JLS5

>  <SYNONYMS>
Fluperolone

$$$$
