
 OpenBabel10282417203D

 48 52  0  0  1  0  0  0  0  0999 V2000
    1.2267    0.0564   -0.0626 C   0  0  0  0  0  0  0  0  0  0  0  0
    1.3318   -1.3033    0.5081 C   0  0  0  0  0  0  0  0  0  0  0  0
    0.4876   -1.7147    1.3620 O   0  0  0  0  0  0  0  0  0  0  0  0
    2.4172   -2.0600    0.1368 O   0  0  0  0  0  0  0  0  0  0  0  0
    3.3298   -2.5293   -0.9495 C   0  0  0  0  0  0  0  0  0  0  0  0
    4.5238   -1.8717   -1.3806 C   0  0  0  0  0  0  0  0  0  0  0  0
    4.5429   -0.9226   -2.6130 C   0  0  0  0  0  0  0  0  0  0  0  0
    3.1559   -1.3635   -3.0853 C   0  0  1  0  0  0  0  0  0  0  0  0
    3.0203   -0.7978   -4.4082 C   0  0  1  0  0  0  0  0  0  0  0  0
    4.2953   -2.0677   -5.1000 C   0  0  0  0  0  0  0  0  0  0  0  0
    4.6546   -3.5998   -4.3757 C   0  0  0  0  0  0  0  0  0  0  0  0
    5.6447   -4.6544   -4.3310 C   0  0  0  0  0  0  0  0  0  0  0  0
    5.5648   -5.8323   -3.3996 C   0  0  0  0  0  0  0  0  0  0  0  0
    4.5283   -5.9604   -2.4826 C   0  0  0  0  0  0  0  0  0  0  0  0
    3.5803   -4.9763   -2.6054 C   0  0  0  0  0  0  0  0  0  0  0  0
    3.6586   -3.8896   -3.5179 C   0  0  0  0  0  0  0  0  0  0  0  0
    2.6527   -2.8461   -3.2815 C   0  0  1  0  0  0  0  0  0  0  0  0
    2.3577   -3.3463   -1.9048 C   0  0  1  0  0  0  0  0  0  0  0  0
    2.5424   -4.7675   -1.7430 O   0  0  0  0  0  0  0  0  0  0  0  0
    1.6135   -2.9210   -4.4692 C   0  0  0  0  0  0  0  0  0  0  0  0
    0.6902   -1.7364   -4.3698 C   0  0  0  0  0  0  0  0  0  0  0  0
    1.5148   -0.5634   -4.6637 N   0  0  0  0  0  0  0  0  0  0  0  0
    0.7788    0.6324   -4.0641 C   0  0  0  0  0  0  0  0  0  0  0  0
    4.4597   -6.9822   -1.5730 O   0  0  0  0  0  0  0  0  0  0  0  0
    4.8172   -6.5837   -0.2371 C   0  0  0  0  0  0  0  0  0  0  0  0
    0.6677    0.7422    0.5961 H   0  0  0  0  0  0  0  0  0  0  0  0
    0.7224    0.0144   -1.0268 H   0  0  0  0  0  0  0  0  0  0  0  0
    2.2450    0.4323   -0.1286 H   0  0  0  0  0  0  0  0  0  0  0  0
    5.2428   -2.5594   -1.9107 H   0  0  0  0  0  0  0  0  0  0  0  0
    5.3861   -0.9428   -3.3587 H   0  0  0  0  0  0  0  0  0  0  0  0
    4.5272    0.1912   -2.4873 H   0  0  0  0  0  0  0  0  0  0  0  0
    2.5769   -0.8319   -2.3147 H   0  0  0  0  0  0  0  0  0  0  0  0
    3.2112    0.2010   -3.9916 H   0  0  0  0  0  0  0  0  0  0  0  0
    5.2779   -1.5940   -5.1663 H   0  0  0  0  0  0  0  0  0  0  0  0
    4.0021   -2.3350   -6.1125 H   0  0  0  0  0  0  0  0  0  0  0  0
    6.5446   -4.6842   -4.9458 H   0  0  0  0  0  0  0  0  0  0  0  0
    6.3288   -6.6222   -3.3793 H   0  0  0  0  0  0  0  0  0  0  0  0
    1.2959   -3.1599   -1.7466 H   0  0  0  0  0  0  0  0  0  0  0  0
    2.0924   -2.7990   -5.4610 H   0  0  0  0  0  0  0  0  0  0  0  0
    1.1201   -3.8808   -4.5726 H   0  0  0  0  0  0  0  0  0  0  0  0
   -0.1277   -1.7060   -5.0934 H   0  0  0  0  0  0  0  0  0  0  0  0
    0.2454   -1.7413   -3.3650 H   0  0  0  0  0  0  0  0  0  0  0  0
    1.3505    1.5073   -3.7111 H   0  0  0  0  0  0  0  0  0  0  0  0
    0.1015    1.0325   -4.8345 H   0  0  0  0  0  0  0  0  0  0  0  0
    0.0920    0.3850   -3.2281 H   0  0  0  0  0  0  0  0  0  0  0  0
    5.8888   -6.3636   -0.1871 H   0  0  0  0  0  0  0  0  0  0  0  0
    4.2369   -5.7283    0.1245 H   0  0  0  0  0  0  0  0  0  0  0  0
    4.6290   -7.4155    0.4596 H   0  0  0  0  0  0  0  0  0  0  0  0
  1  2  1  0  0  0  0
  1 26  1  0  0  0  0
  1 27  1  0  0  0  0
  1 28  1  0  0  0  0
  2  3  2  0  0  0  0
  2  4  1  0  0  0  0
  4  5  1  0  0  0  0
  5  6  2  0  0  0  0
  5 18  1  0  0  0  0
  6  7  1  0  0  0  0
  6 29  1  0  0  0  0
  7 30  1  0  0  0  0
  7 31  1  0  0  0  0
  8  7  1  0  0  0  0
  8  9  1  0  0  0  0
  8 17  1  0  0  0  0
  8 32  1  1  0  0  0
  9 10  1  0  0  0  0
  9 22  1  0  0  0  0
  9 33  1  1  0  0  0
 10 11  1  0  0  0  0
 10 34  1  0  0  0  0
 10 35  1  0  0  0  0
 11 12  2  0  0  0  0
 11 16  1  0  0  0  0
 12 13  1  0  0  0  0
 12 36  1  0  0  0  0
 13 14  2  0  0  0  0
 13 37  1  0  0  0  0
 14 15  1  0  0  0  0
 14 24  1  0  0  0  0
 15 16  2  0  0  0  0
 15 19  1  0  0  0  0
 17 16  1  6  0  0  0
 17 18  1  0  0  0  0
 17 20  1  0  0  0  0
 18 19  1  0  0  0  0
 18 38  1  1  0  0  0
 20 21  1  0  0  0  0
 20 39  1  0  0  0  0
 20 40  1  0  0  0  0
 21 22  1  0  0  0  0
 21 41  1  0  0  0  0
 21 42  1  0  0  0  0
 22 23  1  0  0  0  0
 23 43  1  0  0  0  0
 23 44  1  0  0  0  0
 23 45  1  0  0  0  0
 24 25  1  0  0  0  0
 25 46  1  0  0  0  0
 25 47  1  0  0  0  0
 25 48  1  0  0  0  0
M  END
>  <DRUGBANK_ID>
DB13458

>  <COMMON_NAME>
Thebacon

>  <CAS_NUMBER>
466-90-0

>  <UNII>
520D430GDK

>  <SYNONYMS>
Thebacon

$$$$
