
 OpenBabel10282417123D

 41 41  0  0  1  0  0  0  0  0999 V2000
   -0.9815   -0.9878    3.6598 C   0  0  0  0  0  0  0  0  0  0  0  0
   -1.4833    0.1247    2.7608 N   0  3  2  0  0  0  0  0  0  0  0  0
   -2.9539    0.3755    3.1431 C   0  0  0  0  0  0  0  0  0  0  0  0
   -3.8207   -0.5798    2.3903 C   0  0  0  0  0  0  0  0  0  0  0  0
   -3.6454   -2.0629    2.3807 C   0  0  0  0  0  0  0  0  0  0  0  0
   -4.5829   -2.9540    2.1625 C   0  0  0  0  0  0  0  0  0  0  0  0
   -4.1972   -4.4058    2.1406 C   0  0  0  0  0  0  0  0  0  0  0  0
   -5.9920   -2.5265    1.9199 C   0  0  0  0  0  0  0  0  0  0  0  0
   -1.0265    0.0923    1.1945 C   0  0  2  0  0  0  0  0  0  0  0  0
   -1.4572    1.3535    0.4119 C   0  0  0  0  0  0  0  0  0  0  0  0
   -2.9376    1.4183   -0.0031 C   0  0  0  0  0  0  0  0  0  0  0  0
   -3.5228    0.0972   -0.4795 C   0  0  0  0  0  0  0  0  0  0  0  0
   -5.0554    0.1278   -0.5581 C   0  0  0  0  0  0  0  0  0  0  0  0
   -2.7920   -1.0542   -0.4099 C   0  0  0  0  0  0  0  0  0  0  0  0
   -1.4148   -1.1450    0.3095 C   0  0  0  0  0  0  0  0  0  0  0  0
   -1.2612   -0.7311    4.6885 H   0  0  0  0  0  0  0  0  0  0  0  0
    0.0893   -1.1076    3.5464 H   0  0  0  0  0  0  0  0  0  0  0  0
   -1.4646   -1.9271    3.4387 H   0  0  0  0  0  0  0  0  0  0  0  0
   -0.9966    0.9562    3.1218 H   0  0  0  0  0  0  0  0  0  0  0  0
   -3.1117    0.2582    4.2173 H   0  0  0  0  0  0  0  0  0  0  0  0
   -3.1578    1.4207    2.8835 H   0  0  0  0  0  0  0  0  0  0  0  0
   -4.8334   -0.2208    2.2338 H   0  0  0  0  0  0  0  0  0  0  0  0
   -3.3712   -0.3730    1.4824 H   0  0  0  0  0  0  0  0  0  0  0  0
   -2.6532   -2.4832    2.2589 H   0  0  0  0  0  0  0  0  0  0  0  0
   -4.5675   -4.8608    3.0601 H   0  0  0  0  0  0  0  0  0  0  0  0
   -4.5768   -4.9257    1.2621 H   0  0  0  0  0  0  0  0  0  0  0  0
   -3.1034   -4.5368    2.1431 H   0  0  0  0  0  0  0  0  0  0  0  0
   -6.2559   -1.7189    2.6110 H   0  0  0  0  0  0  0  0  0  0  0  0
   -6.0880   -2.1425    0.9011 H   0  0  0  0  0  0  0  0  0  0  0  0
   -6.6958   -3.3396    2.0523 H   0  0  0  0  0  0  0  0  0  0  0  0
    0.0687    0.1004    1.2899 H   0  0  0  0  0  0  0  0  0  0  0  0
   -1.1678    2.2608    0.9472 H   0  0  0  0  0  0  0  0  0  0  0  0
   -0.8895    1.3509   -0.5308 H   0  0  0  0  0  0  0  0  0  0  0  0
   -3.0954    2.1760   -0.7749 H   0  0  0  0  0  0  0  0  0  0  0  0
   -3.5179    1.7742    0.8568 H   0  0  0  0  0  0  0  0  0  0  0  0
   -5.4795    0.5609    0.3657 H   0  0  0  0  0  0  0  0  0  0  0  0
   -5.4167    0.7623   -1.3661 H   0  0  0  0  0  0  0  0  0  0  0  0
   -5.5073   -0.8625   -0.6505 H   0  0  0  0  0  0  0  0  0  0  0  0
   -3.3057   -2.0126   -0.5408 H   0  0  0  0  0  0  0  0  0  0  0  0
   -1.3010   -2.0534    0.9087 H   0  0  0  0  0  0  0  0  0  0  0  0
   -0.6673   -1.2803   -0.4842 H   0  0  0  0  0  0  0  0  0  0  0  0
  1 16  1  0  0  0  0
  1 17  1  0  0  0  0
  1 18  1  0  0  0  0
  2 19  1  1  0  0  0
  2  3  1  0  0  0  0
  2  1  1  0  0  0  0
  3  4  1  0  0  0  0
  3 20  1  0  0  0  0
  3 21  1  0  0  0  0
  4  5  1  0  0  0  0
  4 22  1  0  0  0  0
  4 23  1  0  0  0  0
  5  6  2  0  0  0  0
  5 24  1  0  0  0  0
  6  7  1  0  0  0  0
  6  8  1  0  0  0  0
  7 25  1  0  0  0  0
  7 26  1  0  0  0  0
  7 27  1  0  0  0  0
  8 28  1  0  0  0  0
  8 29  1  0  0  0  0
  8 30  1  0  0  0  0
  9 10  1  0  0  0  0
  9 15  1  0  0  0  0
  9 31  1  1  0  0  0
  9  2  1  0  0  0  0
 10 11  1  0  0  0  0
 10 32  1  0  0  0  0
 10 33  1  0  0  0  0
 11 12  1  0  0  0  0
 11 34  1  0  0  0  0
 11 35  1  0  0  0  0
 12 13  1  0  0  0  0
 12 14  2  0  0  0  0
 13 36  1  0  0  0  0
 13 37  1  0  0  0  0
 13 38  1  0  0  0  0
 14 15  1  0  0  0  0
 14 39  1  0  0  0  0
 15 40  1  0  0  0  0
 15 41  1  0  0  0  0
M  CHG  1   2   1
M  END
>  <DRUGBANK_ID>
DB02099

>  <SECONDARY_ACCESSION_NUMBERS>
EXPT02848

>  <COMMON_NAME>
S-azabisabolene

$$$$
