
 OpenBabel10282417213D

 56 58  0  0  0  0  0  0  0  0999 V2000
   -3.1048    1.5370    3.0601 C   0  0  0  0  0  0  0  0  0  0  0  0
   -3.8104    0.3131    3.2079 C   0  0  0  0  0  0  0  0  0  0  0  0
   -5.0975    0.2181    2.7387 C   0  0  0  0  0  0  0  0  0  0  0  0
   -5.6955    1.3933    2.3082 C   0  0  0  0  0  0  0  0  0  0  0  0
   -5.0281    2.6325    2.1715 C   0  0  0  0  0  0  0  0  0  0  0  0
   -3.6532    2.6625    2.3773 C   0  0  0  0  0  0  0  0  0  0  0  0
   -2.7391    3.6982    1.6695 C   0  0  0  0  0  0  0  0  0  0  0  0
   -2.4383    3.7551    0.0973 C   0  0  0  0  0  0  0  0  0  0  0  0
   -4.5149    2.7194   -0.9009 N   0  0  0  0  0  0  0  0  0  0  0  0
   -7.9067   -0.8167    0.5083 C   0  0  0  0  0  0  0  0  0  0  0  0
   -6.2143    0.2740   -0.7929 N   0  0  0  0  0  0  0  0  0  0  0  0
   -7.7800    2.1377   -1.5775 C   0  0  0  0  0  0  0  0  0  0  0  0
   -9.2568    2.2063   -1.2095 C   0  0  0  0  0  0  0  0  0  0  0  0
   -9.5421    0.8491   -0.5866 C   0  0  0  0  0  0  0  0  0  0  0  0
   -7.1669    1.3341   -0.4444 C   0  0  1  0  0  0  0  0  0  0  0  0
   -6.7439    2.1051    0.1802 H   0  0  0  0  0  0  0  0  0  0  0  0
   -8.3356    0.6339    0.3029 C   0  0  2  0  0  0  0  0  0  0  0  0
   -8.5470    1.0956    1.2792 H   0  0  0  0  0  0  0  0  0  0  0  0
   -3.8851    1.3881   -1.0542 C   0  0  1  0  0  0  0  0  0  0  0  0
   -3.1878    0.7707    0.1524 C   0  0  0  0  0  0  0  0  0  0  0  0
   -3.6291    3.8811   -0.8701 C   0  0  2  0  0  0  0  0  0  0  0  0
   -3.2376    4.1478   -2.3587 C   0  0  0  0  0  0  0  0  0  0  0  0
   -2.6291    3.3686   -3.0603 O   0  0  0  0  0  0  0  0  0  0  0  0
   -3.7080    5.3197   -2.8654 O   0  0  0  0  0  0  0  0  0  0  0  0
   -6.8203   -1.0534   -0.5607 C   0  0  2  0  0  0  0  0  0  0  0  0
   -7.0466   -1.5063   -2.9959 O   0  0  0  0  0  0  0  0  0  0  0  0
   -7.4180   -1.6630   -1.8254 C   0  0  0  0  0  0  0  0  0  0  0  0
   -8.4647   -2.4779   -1.6037 O   0  0  0  0  0  0  0  0  0  0  0  0
   -4.9637    0.3297   -1.4283 C   0  0  0  0  0  0  0  0  0  0  0  0
   -4.5701   -0.6277   -2.1078 O   0  0  0  0  0  0  0  0  0  0  0  0
   -2.0447    1.5038    3.2807 H   0  0  0  0  0  0  0  0  0  0  0  0
   -3.2927   -0.6142    3.4408 H   0  0  0  0  0  0  0  0  0  0  0  0
   -5.5407   -0.7474    2.4836 H   0  0  0  0  0  0  0  0  0  0  0  0
   -6.6243    1.2293    1.8137 H   0  0  0  0  0  0  0  0  0  0  0  0
   -5.5378    3.4509    1.6619 H   0  0  0  0  0  0  0  0  0  0  0  0
   -3.0788    4.6981    1.9568 H   0  0  0  0  0  0  0  0  0  0  0  0
   -1.7471    3.5695    2.1231 H   0  0  0  0  0  0  0  0  0  0  0  0
   -1.7791    4.6202   -0.0764 H   0  0  0  0  0  0  0  0  0  0  0  0
   -1.7935    2.9336   -0.2350 H   0  0  0  0  0  0  0  0  0  0  0  0
   -5.0743    2.7159   -0.0714 H   0  0  0  0  0  0  0  0  0  0  0  0
   -7.4855   -0.9410    1.5135 H   0  0  0  0  0  0  0  0  0  0  0  0
   -8.7534   -1.5105    0.4871 H   0  0  0  0  0  0  0  0  0  0  0  0
   -7.6016    1.6732   -2.5483 H   0  0  0  0  0  0  0  0  0  0  0  0
   -7.3500    3.1481   -1.5990 H   0  0  0  0  0  0  0  0  0  0  0  0
   -9.4235    3.0009   -0.4676 H   0  0  0  0  0  0  0  0  0  0  0  0
   -9.8804    2.4105   -2.0793 H   0  0  0  0  0  0  0  0  0  0  0  0
  -10.4740    0.8353   -0.0125 H   0  0  0  0  0  0  0  0  0  0  0  0
   -9.5980    0.0798   -1.3589 H   0  0  0  0  0  0  0  0  0  0  0  0
   -3.1213    1.4083   -1.8300 H   0  0  0  0  0  0  0  0  0  0  0  0
   -2.9213   -0.2888    0.1249 H   0  0  0  0  0  0  0  0  0  0  0  0
   -2.3203    1.2869    0.5629 H   0  0  0  0  0  0  0  0  0  0  0  0
   -3.9692    0.7715    0.8633 H   0  0  0  0  0  0  0  0  0  0  0  0
   -4.2133    4.7489   -0.5321 H   0  0  0  0  0  0  0  0  0  0  0  0
   -4.2533    5.8614   -2.2714 H   0  0  0  0  0  0  0  0  0  0  0  0
   -6.0550   -1.7437   -0.1788 H   0  0  0  0  0  0  0  0  0  0  0  0
   -8.7249   -2.7457   -2.5102 H   0  0  0  0  0  0  0  0  0  0  0  0
  1  2  1  0  0  0  0
  1  6  2  0  0  0  0
  1 31  1  0  0  0  0
  2  3  2  0  0  0  0
  2 32  1  0  0  0  0
  3  4  1  0  0  0  0
  3 33  1  0  0  0  0
  4  5  2  0  0  0  0
  4 34  1  0  0  0  0
  5  6  1  0  0  0  0
  5 35  1  0  0  0  0
  6  7  1  0  0  0  0
  7  8  1  0  0  0  0
  7 36  1  0  0  0  0
  7 37  1  0  0  0  0
  8 38  1  0  0  0  0
  8 39  1  0  0  0  0
  9 40  1  0  0  0  0
 10 25  1  0  0  0  0
 10 17  1  0  0  0  0
 10 41  1  0  0  0  0
 10 42  1  0  0  0  0
 11 15  1  0  0  0  0
 12 13  1  0  0  0  0
 12 43  1  0  0  0  0
 12 44  1  0  0  0  0
 13 14  1  0  0  0  0
 13 45  1  0  0  0  0
 13 46  1  0  0  0  0
 14 47  1  0  0  0  0
 14 48  1  0  0  0  0
 15 12  1  0  0  0  0
 15 16  1  1  0  0  0
 17 15  1  0  0  0  0
 17 14  1  0  0  0  0
 17 18  1  1  0  0  0
 19 20  1  0  0  0  0
 19 49  1  6  0  0  0
 19 29  1  0  0  0  0
 19  9  1  0  0  0  0
 20 50  1  0  0  0  0
 20 51  1  0  0  0  0
 20 52  1  0  0  0  0
 21 22  1  0  0  0  0
 21 53  1  1  0  0  0
 21  9  1  0  0  0  0
 21  8  1  0  0  0  0
 22 24  1  0  0  0  0
 22 23  2  0  0  0  0
 24 54  1  0  0  0  0
 25 11  1  0  0  0  0
 25 55  1  1  0  0  0
 25 27  1  0  0  0  0
 27 26  2  0  0  0  0
 27 28  1  0  0  0  0
 28 56  1  0  0  0  0
 29 11  1  0  0  0  0
 29 30  2  0  0  0  0
M  END
>  <DRUGBANK_ID>
DB14208

>  <COMMON_NAME>
Ramiprilat

>  <CAS_NUMBER>
87269-97-4

>  <UNII>
6N5U4QFC3G

>  <SYNONYMS>
Ramipril diacid; Ramiprilat; Ramiprilate; Ramiprilatum

$$$$
