
 OpenBabel10282417153D

 47 49  0  0  0  0  0  0  0  0999 V2000
    1.3347   -0.1690   -0.0378 C   0  0  0  0  0  0  0  0  0  0  0  0
    0.4724   -1.2863   -0.0364 C   0  0  0  0  0  0  0  0  0  0  0  0
   -0.9101   -1.0954   -0.0517 C   0  0  0  0  0  0  0  0  0  0  0  0
   -1.4064    0.1967   -0.0387 C   0  0  0  0  0  0  0  0  0  0  0  0
   -0.5370    1.2904    0.0213 C   0  0  0  0  0  0  0  0  0  0  0  0
    0.8393    1.1221   -0.0467 C   0  0  0  0  0  0  0  0  0  0  0  0
    1.1000   -2.6543   -0.0481 C   0  0  0  0  0  0  0  0  0  0  0  0
    0.2680   -3.7538   -0.0758 N   0  0  0  0  0  0  0  0  0  0  0  0
    2.4030   -2.5661   -0.0373 N   0  0  0  0  0  0  0  0  0  0  0  0
    0.6067   -5.1114   -0.1513 O   0  0  0  0  0  0  0  0  0  0  0  0
    1.9975   -5.3345   -0.1589 C   0  0  0  0  0  0  0  0  0  0  0  0
   -1.1118    2.5410    0.4072 C   0  0  0  0  0  0  0  0  0  0  0  0
   -1.8235    2.8777    1.5371 C   0  0  0  0  0  0  0  0  0  0  0  0
   -2.1827    4.2159    1.3733 C   0  0  0  0  0  0  0  0  0  0  0  0
   -1.7498    4.5658    0.1124 C   0  0  0  0  0  0  0  0  0  0  0  0
   -1.0295    3.5712   -0.4630 O   0  0  0  0  0  0  0  0  0  0  0  0
   -1.6961    5.8389   -0.5270 C   0  0  0  0  0  0  0  0  0  0  0  0
   -1.0462    6.7841    0.2039 C   0  0  0  0  0  0  0  0  0  0  0  0
   -0.7624    7.9852   -0.3965 C   0  0  0  0  0  0  0  0  0  0  0  0
   -1.3587    8.4890   -1.5630 C   0  0  0  0  0  0  0  0  0  0  0  0
   -1.9930    7.4793   -2.3082 C   0  0  0  0  0  0  0  0  0  0  0  0
   -2.1439    6.1605   -1.8036 C   0  0  0  0  0  0  0  0  0  0  0  0
   -1.3845   10.0042   -2.0437 C   0  0  0  0  0  0  0  0  0  0  0  0
   -1.9153   10.2910   -3.2115 N   0  0  0  0  0  0  0  0  0  0  0  0
   -0.8983   11.1995   -1.4809 N   0  0  0  0  0  0  0  0  0  0  0  0
   -0.7426   11.5727   -0.1283 O   0  0  0  0  0  0  0  0  0  0  0  0
   -0.3968   10.4376    0.5827 C   0  0  0  0  0  0  0  0  0  0  0  0
    2.4154   -0.3043    0.0020 H   0  0  0  0  0  0  0  0  0  0  0  0
   -1.6286   -1.9019   -0.0383 H   0  0  0  0  0  0  0  0  0  0  0  0
   -2.4813    0.3641   -0.0236 H   0  0  0  0  0  0  0  0  0  0  0  0
    1.5270    1.9633   -0.0372 H   0  0  0  0  0  0  0  0  0  0  0  0
   -0.7414   -3.6297   -0.1031 H   0  0  0  0  0  0  0  0  0  0  0  0
    2.9389   -3.4033   -0.0651 H   0  0  0  0  0  0  0  0  0  0  0  0
    2.4270   -4.8924   -1.0641 H   0  0  0  0  0  0  0  0  0  0  0  0
    2.4277   -4.9689    0.7793 H   0  0  0  0  0  0  0  0  0  0  0  0
    2.2104   -6.4022   -0.2024 H   0  0  0  0  0  0  0  0  0  0  0  0
   -2.0330    2.2251    2.3705 H   0  0  0  0  0  0  0  0  0  0  0  0
   -2.6789    4.8705    2.0745 H   0  0  0  0  0  0  0  0  0  0  0  0
   -0.6517    6.5842    1.2015 H   0  0  0  0  0  0  0  0  0  0  0  0
    0.0150    8.4026    0.2045 H   0  0  0  0  0  0  0  0  0  0  0  0
   -2.3528    7.6502   -3.3165 H   0  0  0  0  0  0  0  0  0  0  0  0
   -2.6333    5.3989   -2.4029 H   0  0  0  0  0  0  0  0  0  0  0  0
   -2.2644    9.4843   -3.7189 H   0  0  0  0  0  0  0  0  0  0  0  0
   -1.2054   12.0090   -2.0244 H   0  0  0  0  0  0  0  0  0  0  0  0
   -1.3511    9.9050    0.6872 H   0  0  0  0  0  0  0  0  0  0  0  0
    0.4176   10.0092   -0.0133 H   0  0  0  0  0  0  0  0  0  0  0  0
    0.0116   10.4902    1.5913 H   0  0  0  0  0  0  0  0  0  0  0  0
  1  2  1  0  0  0  0
  1  6  2  0  0  0  0
  1 28  1  0  0  0  0
  2  3  2  0  0  0  0
  2  7  1  0  0  0  0
  3  4  1  0  0  0  0
  3 29  1  0  0  0  0
  4  5  2  0  0  0  0
  4 30  1  0  0  0  0
  5  6  1  0  0  0  0
  5 12  1  0  0  0  0
  6 31  1  0  0  0  0
  7  8  1  0  0  0  0
  7  9  2  0  0  0  0
  8 10  1  0  0  0  0
  8 32  1  0  0  0  0
  9 33  1  0  0  0  0
 10 11  1  0  0  0  0
 11 34  1  0  0  0  0
 11 35  1  0  0  0  0
 11 36  1  0  0  0  0
 12 13  2  0  0  0  0
 12 16  1  0  0  0  0
 13 14  1  0  0  0  0
 13 37  1  0  0  0  0
 14 15  2  0  0  0  0
 14 38  1  0  0  0  0
 15 16  1  0  0  0  0
 15 17  1  0  0  0  0
 17 18  1  0  0  0  0
 17 22  2  0  0  0  0
 18 19  2  0  0  0  0
 18 39  1  0  0  0  0
 19 20  1  0  0  0  0
 19 40  1  0  0  0  0
 20 21  2  0  0  0  0
 20 23  1  0  0  0  0
 21 22  1  0  0  0  0
 21 41  1  0  0  0  0
 22 42  1  0  0  0  0
 23 24  2  0  0  0  0
 23 25  1  0  0  0  0
 24 43  1  0  0  0  0
 25 26  1  0  0  0  0
 25 44  1  0  0  0  0
 26 27  1  0  0  0  0
 27 45  1  0  0  0  0
 27 46  1  0  0  0  0
 27 47  1  0  0  0  0
M  END
>  <DRUGBANK_ID>
DB06532

>  <COMMON_NAME>
Pafuramidine

>  <CAS_NUMBER>
186953-56-0

>  <UNII>
H1VG379J2X

>  <SYNONYMS>
Pafuramidine

$$$$
