
 OpenBabel10282417143D

 67 72  0  0  1  0  0  0  0  0999 V2000
    1.3683   -0.2300   -0.0036 C   0  0  0  0  0  0  0  0  0  0  0  0
    0.4725   -1.2915   -0.0090 C   0  0  0  0  0  0  0  0  0  0  0  0
    0.8749    1.0735   -0.0107 C   0  0  0  0  0  0  0  0  0  0  0  0
   -5.1956    3.1310    7.3177 C   0  0  0  0  0  0  0  0  0  0  0  0
  -11.6172    4.5526   -1.1267 C   0  0  0  0  0  0  0  0  0  0  0  0
   -6.3234    3.8289    6.9327 C   0  0  0  0  0  0  0  0  0  0  0  0
  -11.2705    5.0824    0.1040 C   0  0  0  0  0  0  0  0  0  0  0  0
   -3.6175    1.6273    0.1394 C   0  0  0  0  0  0  0  0  0  0  0  0
   -0.9133   -1.0553   -0.0392 C   0  0  0  0  0  0  0  0  0  0  0  0
   -0.5087    1.3060    0.0109 C   0  0  0  0  0  0  0  0  0  0  0  0
   -2.9225    0.4269   -0.0146 C   0  0  0  0  0  0  0  0  0  0  0  0
   -4.7451    2.1961    6.4126 C   0  0  0  0  0  0  0  0  0  0  0  0
  -10.6883    3.6728   -1.7634 C   0  0  0  0  0  0  0  0  0  0  0  0
   -6.9133    3.7085    5.5601 C   0  0  0  0  0  0  0  0  0  0  0  0
   -9.9272    5.1214    0.4473 C   0  0  0  0  0  0  0  0  0  0  0  0
   -4.2438    4.4927   -1.4213 C   0  0  0  0  0  0  0  0  0  0  0  0
   -5.1177    6.3782   -0.2139 C   0  0  0  0  0  0  0  0  0  0  0  0
   -4.2425    5.2522   -2.5849 C   0  0  0  0  0  0  0  0  0  0  0  0
   -5.0777    7.1560   -1.3752 C   0  0  0  0  0  0  0  0  0  0  0  0
   -5.1756    1.8099    0.2197 C   0  0  0  0  0  0  0  0  0  0  0  0
   -4.9535    4.2256    1.0854 C   0  0  0  0  0  0  0  0  0  0  0  0
   -1.4419    0.2590   -0.0296 C   0  0  0  0  0  0  0  0  0  0  0  0
   -4.7105    5.0276   -0.2082 C   0  0  0  0  0  0  0  0  0  0  0  0
   -4.6497    6.5943   -2.5760 C   0  0  0  0  0  0  0  0  0  0  0  0
   -5.1898    2.1435    5.0587 C   0  0  0  0  0  0  0  0  0  0  0  0
   -9.3923    3.5312   -1.1366 C   0  0  0  0  0  0  0  0  0  0  0  0
   -6.1952    2.9768    4.4619 C   0  0  0  0  0  0  0  0  0  0  0  0
   -9.0646    4.7445   -0.5603 C   0  0  0  0  0  0  0  0  0  0  0  0
   -7.4854    3.2523    0.3638 C   0  0  0  0  0  0  0  0  0  0  0  0
   -6.0330    2.9871    1.2501 C   0  0  1  0  0  0  0  0  0  0  0  0
   -4.5891    7.4139   -3.8379 C   0  0  0  0  0  0  0  0  0  0  0  0
   -5.7422    8.0374   -4.1877 F   0  0  0  0  0  0  0  0  0  0  0  0
   -3.6342    8.3938   -3.7695 F   0  0  0  0  0  0  0  0  0  0  0  0
   -8.5955    2.5805   -0.1539 N   0  0  0  0  0  0  0  0  0  0  0  0
   -4.5426    1.4564    4.1200 N   0  0  0  0  0  0  0  0  0  0  0  0
   -4.6573    2.1577    3.0281 N   0  0  0  0  0  0  0  0  0  0  0  0
   -5.9458    2.6294    2.9135 N   0  0  0  0  0  0  0  0  0  0  0  0
   -5.5908    6.2405   -5.6763 O   0  0  0  0  0  0  0  0  0  0  0  0
   -3.6607    7.8255   -6.0581 O   0  0  0  0  0  0  0  0  0  0  0  0
   -3.4999    5.5582   -6.4423 O   0  0  0  0  0  0  0  0  0  0  0  0
   -3.9991    6.4087   -5.2487 P   0  0  0  0  0  0  0  0  0  0  0  0
   -7.4251    4.5843   -0.8101 S   0  0  0  0  0  0  0  0  0  0  0  0
   -2.9953    2.5029    0.0925 H   0  0  0  0  0  0  0  0  0  0  0  0
   -3.4967   -0.4722   -0.1172 H   0  0  0  0  0  0  0  0  0  0  0  0
    2.4403   -0.4095    0.0196 H   0  0  0  0  0  0  0  0  0  0  0  0
    0.8520   -2.3131    0.0147 H   0  0  0  0  0  0  0  0  0  0  0  0
    1.5691    1.9103   -0.0204 H   0  0  0  0  0  0  0  0  0  0  0  0
   -4.6736    3.2648    8.2727 H   0  0  0  0  0  0  0  0  0  0  0  0
  -12.5640    4.8485   -1.5849 H   0  0  0  0  0  0  0  0  0  0  0  0
   -6.7509    4.4581    7.7342 H   0  0  0  0  0  0  0  0  0  0  0  0
  -12.0131    5.4666    0.7910 H   0  0  0  0  0  0  0  0  0  0  0  0
   -1.5757   -1.9145   -0.0398 H   0  0  0  0  0  0  0  0  0  0  0  0
   -0.8339    2.3412    0.0858 H   0  0  0  0  0  0  0  0  0  0  0  0
   -3.8766    1.5949    6.6658 H   0  0  0  0  0  0  0  0  0  0  0  0
  -10.7603    3.7898   -2.8654 H   0  0  0  0  0  0  0  0  0  0  0  0
   -7.9162    4.1439    5.5146 H   0  0  0  0  0  0  0  0  0  0  0  0
   -9.5736    5.2240    1.4599 H   0  0  0  0  0  0  0  0  0  0  0  0
   -3.9383    3.4641   -1.5737 H   0  0  0  0  0  0  0  0  0  0  0  0
   -5.6073    6.7897    0.6670 H   0  0  0  0  0  0  0  0  0  0  0  0
   -3.9306    4.7253   -3.4867 H   0  0  0  0  0  0  0  0  0  0  0  0
   -5.4248    8.1861   -1.3393 H   0  0  0  0  0  0  0  0  0  0  0  0
   -5.3836    2.1988   -0.7923 H   0  0  0  0  0  0  0  0  0  0  0  0
   -5.6802    0.8403    0.1854 H   0  0  0  0  0  0  0  0  0  0  0  0
   -5.1442    4.9362    1.8926 H   0  0  0  0  0  0  0  0  0  0  0  0
   -3.9513    3.8482    1.3210 H   0  0  0  0  0  0  0  0  0  0  0  0
   -5.9014    5.3197   -5.6255 H   0  0  0  0  0  0  0  0  0  0  0  0
   -3.4296    8.5720   -5.4630 H   0  0  0  0  0  0  0  0  0  0  0  0
  1 45  1  0  0  0  0
  2  1  2  0  0  0  0
  2 46  1  0  0  0  0
  3  1  1  0  0  0  0
  3 47  1  0  0  0  0
  4 48  1  0  0  0  0
  5 49  1  0  0  0  0
  6  4  2  0  0  0  0
  6 50  1  0  0  0  0
  7  5  2  0  0  0  0
  7 51  1  0  0  0  0
  9  2  1  0  0  0  0
  9 52  1  0  0  0  0
 10  3  2  0  0  0  0
 10 53  1  0  0  0  0
 11  8  2  0  0  0  0
 12  4  1  0  0  0  0
 12 54  1  0  0  0  0
 13  5  1  0  0  0  0
 13 55  1  0  0  0  0
 14  6  1  0  0  0  0
 14 56  1  0  0  0  0
 15  7  1  0  0  0  0
 15 57  1  0  0  0  0
 16 58  1  0  0  0  0
 17 59  1  0  0  0  0
 18 16  1  0  0  0  0
 18 60  1  0  0  0  0
 19 17  2  0  0  0  0
 19 61  1  0  0  0  0
 20  8  1  0  0  0  0
 20 62  1  0  0  0  0
 20 63  1  0  0  0  0
 21 64  1  0  0  0  0
 21 65  1  0  0  0  0
 22  9  2  0  0  0  0
 22 10  1  0  0  0  0
 22 11  1  0  0  0  0
 23 16  2  0  0  0  0
 23 17  1  0  0  0  0
 23 21  1  0  0  0  0
 24 18  2  0  0  0  0
 24 19  1  0  0  0  0
 25 12  2  0  0  0  0
 26 13  2  0  0  0  0
 27 14  2  0  0  0  0
 27 25  1  0  0  0  0
 28 15  2  0  0  0  0
 28 26  1  0  0  0  0
 30 20  1  6  0  0  0
 30 21  1  0  0  0  0
 30 29  1  0  0  0  0
 30 37  1  0  0  0  0
 31 24  1  0  0  0  0
 32 31  1  0  0  0  0
 33 31  1  0  0  0  0
 34 26  1  0  0  0  0
 34 29  2  0  0  0  0
 35 25  1  0  0  0  0
 36 35  2  0  0  0  0
 37 27  1  0  0  0  0
 37 36  1  0  0  0  0
 38 66  1  0  0  0  0
 39 67  1  0  0  0  0
 41 31  1  0  0  0  0
 41 38  1  0  0  0  0
 41 39  1  0  0  0  0
 41 40  2  0  0  0  0
 42 28  1  0  0  0  0
 42 29  1  0  0  0  0
 43  8  1  0  0  0  0
 44 11  1  0  0  0  0
M  END
>  <DRUGBANK_ID>
DB04285

>  <SECONDARY_ACCESSION_NUMBERS>
EXPT02484

>  <COMMON_NAME>
{4-[(2s,4e)-2-(1,3-Benzothiazol-2-Yl)-2-(1h-1,2,3-Benzotriazol-1-Yl)-5-Phenylpent-4-Enyl]Phenyl}(Difluoro)Methylphosphonic Acid

$$$$
