
 OpenBabel10282417213D

 29 30  0  0  0  0  0  0  0  0999 V2000
   -1.2234   -1.2243    0.0027 C   0  0  0  0  0  0  0  0  0  0  0  0
   -1.1674    1.1951    0.0028 C   0  0  0  0  0  0  0  0  0  0  0  0
    0.1806   -1.2401    0.0181 C   0  0  0  0  0  0  0  0  0  0  0  0
    0.2255    1.1775    0.0202 C   0  0  0  0  0  0  0  0  0  0  0  0
   -1.9044   -0.0041   -0.0208 C   0  0  0  0  0  0  0  0  0  0  0  0
    0.8907   -0.0392    0.0168 C   0  0  0  0  0  0  0  0  0  0  0  0
   -3.3785    0.1101   -0.1381 C   0  0  0  0  0  0  0  0  0  0  0  0
    2.2532    0.0023    0.0085 O   0  0  0  0  0  0  0  0  0  0  0  0
   -3.8758    1.2122   -0.3533 O   0  0  0  0  0  0  0  0  0  0  0  0
   -4.0484   -1.0659   -0.0247 O   0  0  0  0  0  0  0  0  0  0  0  0
   -5.5025   -1.0081   -0.0935 C   0  0  0  0  0  0  0  0  0  0  0  0
   -6.0709   -0.3423    1.1387 C   0  0  0  0  0  0  0  0  0  0  0  0
   -6.3711   -1.0785    2.2884 C   0  0  0  0  0  0  0  0  0  0  0  0
   -6.5935   -0.4182    3.4988 C   0  0  0  0  0  0  0  0  0  0  0  0
   -6.4791    0.9705    3.5736 C   0  0  0  0  0  0  0  0  0  0  0  0
   -6.2163    1.7068    2.4264 C   0  0  0  0  0  0  0  0  0  0  0  0
   -6.1172    1.0569    1.2035 C   0  0  0  0  0  0  0  0  0  0  0  0
   -1.7720   -2.1619   -0.0081 H   0  0  0  0  0  0  0  0  0  0  0  0
   -1.6784    2.1571   -0.0065 H   0  0  0  0  0  0  0  0  0  0  0  0
    0.6988   -2.1940    0.0234 H   0  0  0  0  0  0  0  0  0  0  0  0
    0.7850    2.1090    0.0256 H   0  0  0  0  0  0  0  0  0  0  0  0
    2.6053   -0.9014   -0.0192 H   0  0  0  0  0  0  0  0  0  0  0  0
   -5.8296   -0.5204   -1.0203 H   0  0  0  0  0  0  0  0  0  0  0  0
   -5.8641   -2.0437   -0.1464 H   0  0  0  0  0  0  0  0  0  0  0  0
   -6.3973   -2.1648    2.2582 H   0  0  0  0  0  0  0  0  0  0  0  0
   -6.8009   -0.9902    4.3984 H   0  0  0  0  0  0  0  0  0  0  0  0
   -6.5914    1.4830    4.5237 H   0  0  0  0  0  0  0  0  0  0  0  0
   -6.0410    2.7779    2.4760 H   0  0  0  0  0  0  0  0  0  0  0  0
   -5.9601    1.6551    0.3080 H   0  0  0  0  0  0  0  0  0  0  0  0
  1  3  2  0  0  0  0
  1  5  1  0  0  0  0
  1 18  1  0  0  0  0
  2  4  1  0  0  0  0
  2  5  2  0  0  0  0
  2 19  1  0  0  0  0
  3  6  1  0  0  0  0
  3 20  1  0  0  0  0
  4  6  2  0  0  0  0
  4 21  1  0  0  0  0
  5  7  1  0  0  0  0
  6  8  1  0  0  0  0
  7  9  2  0  0  0  0
  7 10  1  0  0  0  0
  8 22  1  0  0  0  0
 10 11  1  0  0  0  0
 11 12  1  0  0  0  0
 11 23  1  0  0  0  0
 11 24  1  0  0  0  0
 12 13  2  0  0  0  0
 12 17  1  0  0  0  0
 13 14  1  0  0  0  0
 13 25  1  0  0  0  0
 14 15  2  0  0  0  0
 14 26  1  0  0  0  0
 15 16  1  0  0  0  0
 15 27  1  0  0  0  0
 16 17  2  0  0  0  0
 16 28  1  0  0  0  0
 17 29  1  0  0  0  0
M  END
>  <DRUGBANK_ID>
DB14176

>  <COMMON_NAME>
Benzylparaben

>  <CAS_NUMBER>
94-18-8

>  <UNII>
8Y41DYV4VG

>  <SYNONYMS>
Benzyl 4-hydroxybenzoate; Benzyl p-hydroxybenzoate; Benzyl parahydroxybenzoate; p-Hydroxybenzoic acid benzyl ester; Phenylmethyl 4-hydroxybenzoate

$$$$
