
 OpenBabel10282417143D

 17 18  0  0  0  0  0  0  0  0999 V2000
    0.0490    0.8856    0.0246 C   0  0  2  0  0  0  0  0  0  0  0  0
   -0.0283    1.7235   -1.2297 C   0  0  0  0  0  0  0  0  0  0  0  0
    0.8430   -0.3944    0.0840 C   0  0  0  0  0  0  0  0  0  0  0  0
   -0.5865   -0.4080    0.0109 O   0  0  0  0  0  0  0  0  0  0  0  0
   -0.5429    1.2361   -2.4428 C   0  0  0  0  0  0  0  0  0  0  0  0
    0.3506    3.0785   -1.1934 C   0  0  0  0  0  0  0  0  0  0  0  0
   -0.7005    2.0646   -3.5586 C   0  0  0  0  0  0  0  0  0  0  0  0
    0.1569    3.9217   -2.2914 C   0  0  0  0  0  0  0  0  0  0  0  0
   -0.3591    3.4118   -3.4765 C   0  0  0  0  0  0  0  0  0  0  0  0
   -0.0493    1.4348    0.9570 H   0  0  0  0  0  0  0  0  0  0  0  0
    1.3884   -0.7287   -0.7883 H   0  0  0  0  0  0  0  0  0  0  0  0
    1.2890   -0.6734    1.0307 H   0  0  0  0  0  0  0  0  0  0  0  0
   -0.8525    0.1945   -2.5157 H   0  0  0  0  0  0  0  0  0  0  0  0
    0.7742    3.4940   -0.2822 H   0  0  0  0  0  0  0  0  0  0  0  0
   -1.1142    1.6614   -4.4782 H   0  0  0  0  0  0  0  0  0  0  0  0
    0.3918    4.9802   -2.2084 H   0  0  0  0  0  0  0  0  0  0  0  0
   -0.5030    4.0635   -4.3345 H   0  0  0  0  0  0  0  0  0  0  0  0
  1  3  1  0  0  0  0
  1  4  1  0  0  0  0
  1 10  1  1  0  0  0
  1  2  1  0  0  0  0
  2  5  2  0  0  0  0
  2  6  1  0  0  0  0
  3  4  1  0  0  0  0
  3 11  1  0  0  0  0
  3 12  1  0  0  0  0
  5  7  1  0  0  0  0
  5 13  1  0  0  0  0
  6  8  2  0  0  0  0
  6 14  1  0  0  0  0
  7  9  2  0  0  0  0
  7 15  1  0  0  0  0
  8  9  1  0  0  0  0
  8 16  1  0  0  0  0
  9 17  1  0  0  0  0
M  END
>  <DRUGBANK_ID>
DB04499

>  <SECONDARY_ACCESSION_NUMBERS>
EXPT02820

>  <COMMON_NAME>
(R)-styrene oxide

>  <CAS_NUMBER>
20780-53-4

>  <UNII>
0HB27D5MRW

>  <SYNONYMS>
(R)-(+)-styrene oxide; (R)-(epoxyethyl)benzene; R-phenyloxirane; R-styrene oxide

$$$$
