
 OpenBabel10282417133D

 37 38  0  0  0  0  0  0  0  0999 V2000
    1.0572    0.0703   -0.0422 P   0  0  0  0  0  0  0  0  0  0  0  0
   -0.1943   -2.0631    1.5844 O   0  0  0  0  0  0  0  0  0  0  0  0
   -2.1041   -1.2300    4.0427 O   0  0  0  0  0  0  0  0  0  0  0  0
    0.9665    0.8064    1.4203 O   0  0  0  0  0  0  0  0  0  0  0  0
   -1.8949   -5.5807    1.2260 O   0  0  0  0  0  0  0  0  0  0  0  0
    1.9011   -7.9657    1.2669 O   0  0  0  0  0  0  0  0  0  0  0  0
    0.9734    1.2801   -1.1211 O   0  0  0  0  0  0  0  0  0  0  0  0
   -0.6728    0.0703   -0.0422 O   0  0  0  0  0  0  0  0  0  0  0  0
    3.6329   -6.7375    3.4358 O   0  0  0  0  0  0  0  0  0  0  0  0
    2.6056    0.0703   -0.0422 O   0  0  0  0  0  0  0  0  0  0  0  0
    0.0482   -4.4431    1.7885 N   0  0  0  0  0  0  0  0  0  0  0  0
    0.0842   -6.6415    0.9888 N   0  0  0  0  0  0  0  0  0  0  0  0
   -0.7110   -1.4988    3.8593 C   0  0  2  0  0  0  0  0  0  0  0  0
   -0.2731   -0.9447    2.5227 C   0  0  1  0  0  0  0  0  0  0  0  0
   -0.6825   -3.2564    2.2550 C   0  0  1  0  0  0  0  0  0  0  0  0
   -0.5180   -2.9881    3.7507 C   0  0  0  0  0  0  0  0  0  0  0  0
    1.0251   -0.1272    2.5136 C   0  0  0  0  0  0  0  0  0  0  0  0
    1.4130   -4.5272    1.9939 C   0  0  0  0  0  0  0  0  0  0  0  0
   -0.6727   -5.5443    1.3241 C   0  0  0  0  0  0  0  0  0  0  0  0
    2.0869   -5.6839    1.9164 C   0  0  0  0  0  0  0  0  0  0  0  0
    1.3738   -6.8584    1.3739 C   0  0  0  0  0  0  0  0  0  0  0  0
    3.5118   -5.8427    2.3357 C   0  0  0  0  0  0  0  0  0  0  0  0
   -0.4117   -7.4491    0.6398 H   0  0  0  0  0  0  0  0  0  0  0  0
   -2.6007   -1.4866    3.2437 H   0  0  0  0  0  0  0  0  0  0  0  0
    1.8601    1.3234   -1.5313 H   0  0  0  0  0  0  0  0  0  0  0  0
   -0.9875   -0.8174    0.2114 H   0  0  0  0  0  0  0  0  0  0  0  0
    2.9980   -6.4835    4.1246 H   0  0  0  0  0  0  0  0  0  0  0  0
   -0.1778   -1.0499    4.7001 H   0  0  0  0  0  0  0  0  0  0  0  0
   -1.0669   -0.2818    2.1690 H   0  0  0  0  0  0  0  0  0  0  0  0
   -1.7494   -3.3521    2.0158 H   0  0  0  0  0  0  0  0  0  0  0  0
    0.4898   -3.2405    4.0943 H   0  0  0  0  0  0  0  0  0  0  0  0
   -1.2336   -3.5591    4.3498 H   0  0  0  0  0  0  0  0  0  0  0  0
    1.9174   -0.7567    2.3999 H   0  0  0  0  0  0  0  0  0  0  0  0
    1.1273    0.4627    3.4266 H   0  0  0  0  0  0  0  0  0  0  0  0
    1.9085   -3.6131    2.3064 H   0  0  0  0  0  0  0  0  0  0  0  0
    4.1260   -6.2129    1.5109 H   0  0  0  0  0  0  0  0  0  0  0  0
    3.9325   -4.8864    2.6641 H   0  0  0  0  0  0  0  0  0  0  0  0
  1  4  1  0  0  0  0
  1  7  1  0  0  0  0
  1  8  1  0  0  0  0
  1 10  2  0  0  0  0
  2 14  1  0  0  0  0
  2 15  1  0  0  0  0
  3 24  1  0  0  0  0
  4 17  1  0  0  0  0
  5 19  2  0  0  0  0
  6 21  2  0  0  0  0
  7 25  1  0  0  0  0
  8 26  1  0  0  0  0
  9 22  1  0  0  0  0
  9 27  1  0  0  0  0
 11 18  1  0  0  0  0
 11 19  1  0  0  0  0
 12 19  1  0  0  0  0
 12 21  1  0  0  0  0
 12 23  1  0  0  0  0
 13  3  1  0  0  0  0
 13 14  1  0  0  0  0
 13 16  1  0  0  0  0
 13 28  1  1  0  0  0
 14 17  1  0  0  0  0
 14 29  1  6  0  0  0
 15 16  1  0  0  0  0
 15 30  1  6  0  0  0
 15 11  1  0  0  0  0
 16 31  1  0  0  0  0
 16 32  1  0  0  0  0
 17 33  1  0  0  0  0
 17 34  1  0  0  0  0
 18 20  2  0  0  0  0
 18 35  1  0  0  0  0
 20 21  1  0  0  0  0
 20 22  1  0  0  0  0
 22 36  1  0  0  0  0
 22 37  1  0  0  0  0
M  END
>  <DRUGBANK_ID>
DB03846

>  <SECONDARY_ACCESSION_NUMBERS>
EXPT00248

>  <COMMON_NAME>
2'-deoxy-5-(hydroxymethyl)uridine 5'-(dihydrogen phosphate)

>  <SYNONYMS>
5-hydroxymethyluridine-2'-deoxy-5'-monophosphate

$$$$
