
 OpenBabel10282417213D

 84 87  0  0  0  0  0  0  0  0999 V2000
    1.1441   -0.0318    0.1206 C   0  0  0  0  0  0  0  0  0  0  0  0
    0.9826   -0.3830    1.5998 C   0  0  0  0  0  0  0  0  0  0  0  0
    1.1152    0.8146    2.5286 C   0  0  0  0  0  0  0  0  0  0  0  0
    0.4369    2.1497    2.0961 C   0  0  0  0  0  0  0  0  0  0  0  0
   -0.9734    2.3753    2.3026 O   0  0  0  0  0  0  0  0  0  0  0  0
   -1.7799    1.6523    1.4760 C   0  0  0  0  0  0  0  0  0  0  0  0
   -2.6890    2.3283    0.7360 N   0  0  0  0  0  0  0  0  0  0  0  0
   -3.2505    1.5601   -0.1634 C   0  0  0  0  0  0  0  0  0  0  0  0
   -2.8814    0.2347   -0.3129 C   0  0  0  0  0  0  0  0  0  0  0  0
   -3.6344   -0.1522   -1.4159 N   0  0  0  0  0  0  0  0  0  0  0  0
   -4.5622    0.6729   -1.7874 C   0  0  0  0  0  0  0  0  0  0  0  0
   -5.3245    0.0723   -2.4517 O   0  0  0  0  0  0  0  0  0  0  0  0
   -4.2802    1.8401   -1.1050 N   0  0  0  0  0  0  0  0  0  0  0  0
   -5.1547    2.9266   -1.1010 C   0  0  0  0  0  0  0  0  0  0  0  0
   -5.5923    3.1874   -2.5242 C   0  0  0  0  0  0  0  0  0  0  0  0
   -6.3611    2.0926   -3.2010 C   0  0  0  0  0  0  0  0  0  0  0  0
   -7.4475    1.5060   -2.4064 N   0  0  0  0  0  0  0  0  0  0  0  0
   -8.1945    0.8206   -3.4441 C   0  0  0  0  0  0  0  0  0  0  0  0
   -7.7696   -0.6174   -3.7532 C   0  0  0  0  0  0  0  0  0  0  0  0
   -8.0574   -1.4111   -2.5303 C   0  0  0  0  0  0  0  0  0  0  0  0
   -9.3605   -1.5064   -1.8099 N   0  0  0  0  0  0  0  0  0  0  0  0
  -10.0381   -2.7416   -2.1370 C   0  0  0  0  0  0  0  0  0  0  0  0
  -10.4569   -2.5787   -3.5844 C   0  0  0  0  0  0  0  0  0  0  0  0
  -11.4068   -1.4822   -3.7228 O   0  0  0  0  0  0  0  0  0  0  0  0
  -10.7999   -0.2804   -3.2566 C   0  0  0  0  0  0  0  0  0  0  0  0
  -10.3486   -0.4335   -1.8082 C   0  0  0  0  0  0  0  0  0  0  0  0
   -7.5834    1.0098   -0.8269 C   0  0  0  0  0  0  0  0  0  0  0  0
   -7.0278   -0.4524    0.0320 C   0  0  0  0  0  0  0  0  0  0  0  0
   -7.6544   -1.7326    0.1319 C   0  0  0  0  0  0  0  0  0  0  0  0
   -6.9970   -2.9747   -0.2122 C   0  0  0  0  0  0  0  0  0  0  0  0
   -5.6715   -3.0477   -0.4462 C   0  0  0  0  0  0  0  0  0  0  0  0
   -4.9719   -1.9080   -0.2293 C   0  0  0  0  0  0  0  0  0  0  0  0
   -3.4476   -2.3250   -0.5656 C   0  0  0  0  0  0  0  0  0  0  0  0
   -2.2186   -1.7055   -1.8959 C   0  0  0  0  0  0  0  0  0  0  0  0
   -1.2311   -0.9652   -1.7564 O   0  0  0  0  0  0  0  0  0  0  0  0
   -2.7250   -1.7256   -3.1769 O   0  0  0  0  0  0  0  0  0  0  0  0
   -2.1332   -0.6623   -4.0310 C   0  0  0  0  0  0  0  0  0  0  0  0
   -5.6739   -0.6470    0.2392 C   0  0  0  0  0  0  0  0  0  0  0  0
   -1.9756   -0.4326    0.5765 C   0  0  0  0  0  0  0  0  0  0  0  0
   -1.3396   -1.7265    0.5009 N   0  0  0  0  0  0  0  0  0  0  0  0
   -1.5596    0.3326    1.5437 N   0  0  0  0  0  0  0  0  0  0  0  0
    0.6441    0.8913   -0.1928 H   0  0  0  0  0  0  0  0  0  0  0  0
    0.7747   -0.8116   -0.5477 H   0  0  0  0  0  0  0  0  0  0  0  0
    2.2066    0.0840   -0.0892 H   0  0  0  0  0  0  0  0  0  0  0  0
    0.0539   -0.8065    1.9316 H   0  0  0  0  0  0  0  0  0  0  0  0
    1.6011   -1.2552    1.8296 H   0  0  0  0  0  0  0  0  0  0  0  0
    0.7231    0.5264    3.5117 H   0  0  0  0  0  0  0  0  0  0  0  0
    2.1920    0.9703    2.6243 H   0  0  0  0  0  0  0  0  0  0  0  0
    0.8723    2.8974    2.7622 H   0  0  0  0  0  0  0  0  0  0  0  0
    0.7442    2.4650    1.0920 H   0  0  0  0  0  0  0  0  0  0  0  0
   -4.0072   -0.9733   -1.9006 H   0  0  0  0  0  0  0  0  0  0  0  0
   -5.9255    2.6976   -0.3899 H   0  0  0  0  0  0  0  0  0  0  0  0
   -4.6579    3.7781   -0.6598 H   0  0  0  0  0  0  0  0  0  0  0  0
   -6.2000    4.0836   -2.5881 H   0  0  0  0  0  0  0  0  0  0  0  0
   -4.6803    3.2988   -3.1235 H   0  0  0  0  0  0  0  0  0  0  0  0
   -6.7274    2.5107   -4.1608 H   0  0  0  0  0  0  0  0  0  0  0  0
   -5.7131    1.3750   -3.7338 H   0  0  0  0  0  0  0  0  0  0  0  0
   -9.1472    1.0557   -3.0249 H   0  0  0  0  0  0  0  0  0  0  0  0
   -8.3108    1.3121   -4.4258 H   0  0  0  0  0  0  0  0  0  0  0  0
   -8.1808   -1.1233   -4.6225 H   0  0  0  0  0  0  0  0  0  0  0  0
   -6.6976   -0.6634   -3.9936 H   0  0  0  0  0  0  0  0  0  0  0  0
   -7.5316   -2.3676   -2.5702 H   0  0  0  0  0  0  0  0  0  0  0  0
   -7.4001   -0.8640   -1.9154 H   0  0  0  0  0  0  0  0  0  0  0  0
  -10.8930   -2.8700   -1.4633 H   0  0  0  0  0  0  0  0  0  0  0  0
   -9.3588   -3.5780   -1.9570 H   0  0  0  0  0  0  0  0  0  0  0  0
   -9.5594   -2.4156   -4.1919 H   0  0  0  0  0  0  0  0  0  0  0  0
  -10.8946   -3.4826   -3.9794 H   0  0  0  0  0  0  0  0  0  0  0  0
  -11.2988    0.6819   -3.4256 H   0  0  0  0  0  0  0  0  0  0  0  0
   -9.9885   -0.2194   -3.9627 H   0  0  0  0  0  0  0  0  0  0  0  0
  -11.1994   -0.6452   -1.1425 H   0  0  0  0  0  0  0  0  0  0  0  0
   -9.9937    0.4640   -1.3237 H   0  0  0  0  0  0  0  0  0  0  0  0
   -7.3485    1.8703   -0.2123 H   0  0  0  0  0  0  0  0  0  0  0  0
   -8.6351    1.1279   -0.5875 H   0  0  0  0  0  0  0  0  0  0  0  0
   -8.7221   -1.8960    0.1330 H   0  0  0  0  0  0  0  0  0  0  0  0
   -7.5432   -3.8298   -0.6046 H   0  0  0  0  0  0  0  0  0  0  0  0
   -5.1803   -3.9283   -0.8408 H   0  0  0  0  0  0  0  0  0  0  0  0
   -3.2549   -2.1402    0.5086 H   0  0  0  0  0  0  0  0  0  0  0  0
   -3.2923   -3.3951   -0.6040 H   0  0  0  0  0  0  0  0  0  0  0  0
   -2.6250    0.3142   -3.8743 H   0  0  0  0  0  0  0  0  0  0  0  0
   -1.0486   -0.4963   -3.8973 H   0  0  0  0  0  0  0  0  0  0  0  0
   -2.2874   -0.9512   -5.0676 H   0  0  0  0  0  0  0  0  0  0  0  0
   -5.2229    0.2895    0.5480 H   0  0  0  0  0  0  0  0  0  0  0  0
   -1.5713   -2.5635   -0.0166 H   0  0  0  0  0  0  0  0  0  0  0  0
   -0.6789   -2.0765    1.1692 H   0  0  0  0  0  0  0  0  0  0  0  0
  1  2  1  0  0  0  0
  1 42  1  0  0  0  0
  1 43  1  0  0  0  0
  1 44  1  0  0  0  0
  2  3  1  0  0  0  0
  2 45  1  0  0  0  0
  2 46  1  0  0  0  0
  3  4  1  0  0  0  0
  3 47  1  0  0  0  0
  3 48  1  0  0  0  0
  4  5  1  0  0  0  0
  4 49  1  0  0  0  0
  4 50  1  0  0  0  0
  5  6  1  0  0  0  0
  6  7  2  0  0  0  0
  6 41  1  0  0  0  0
  7  8  1  0  0  0  0
  8  9  2  0  0  0  0
  8 13  1  0  0  0  0
  9 10  1  0  0  0  0
  9 39  1  0  0  0  0
 10 11  1  0  0  0  0
 10 51  1  0  0  0  0
 11 12  2  0  0  0  0
 11 13  1  0  0  0  0
 13 14  1  0  0  0  0
 14 15  1  0  0  0  0
 14 52  1  0  0  0  0
 14 53  1  0  0  0  0
 15 16  1  0  0  0  0
 15 54  1  0  0  0  0
 15 55  1  0  0  0  0
 16 17  1  0  0  0  0
 16 56  1  0  0  0  0
 16 57  1  0  0  0  0
 17 18  1  0  0  0  0
 17 27  1  0  0  0  0
 18 19  1  0  0  0  0
 18 58  1  0  0  0  0
 18 59  1  0  0  0  0
 19 20  1  0  0  0  0
 19 60  1  0  0  0  0
 19 61  1  0  0  0  0
 20 21  1  0  0  0  0
 20 62  1  0  0  0  0
 20 63  1  0  0  0  0
 21 22  1  0  0  0  0
 21 26  1  0  0  0  0
 22 23  1  0  0  0  0
 22 64  1  0  0  0  0
 22 65  1  0  0  0  0
 23 24  1  0  0  0  0
 23 66  1  0  0  0  0
 23 67  1  0  0  0  0
 24 25  1  0  0  0  0
 25 26  1  0  0  0  0
 25 68  1  0  0  0  0
 25 69  1  0  0  0  0
 26 70  1  0  0  0  0
 26 71  1  0  0  0  0
 27 28  1  0  0  0  0
 27 72  1  0  0  0  0
 27 73  1  0  0  0  0
 28 29  2  0  0  0  0
 28 38  1  0  0  0  0
 29 30  1  0  0  0  0
 29 74  1  0  0  0  0
 30 31  2  0  0  0  0
 30 75  1  0  0  0  0
 31 32  1  0  0  0  0
 31 76  1  0  0  0  0
 32 33  1  0  0  0  0
 32 38  2  0  0  0  0
 33 34  1  0  0  0  0
 33 77  1  0  0  0  0
 33 78  1  0  0  0  0
 34 35  2  0  0  0  0
 34 36  1  0  0  0  0
 36 37  1  0  0  0  0
 37 79  1  0  0  0  0
 37 80  1  0  0  0  0
 37 81  1  0  0  0  0
 38 82  1  0  0  0  0
 39 40  1  0  0  0  0
 39 41  2  0  0  0  0
 40 83  1  0  0  0  0
 40 84  1  0  0  0  0
M  END
>  <DRUGBANK_ID>
DB14868

>  <COMMON_NAME>
AZD-8848

>  <CAS_NUMBER>
866269-28-5

>  <UNII>
322ZMR6920

$$$$
