
 OpenBabel10282417123D

 19 19  0  0  0  0  0  0  0  0999 V2000
    0.9486    0.0000   -0.0850 C   0  0  0  0  0  0  0  0  0  0  0  0
    0.4690    0.0458    1.2568 O   0  0  0  0  0  0  0  0  0  0  0  0
    0.2712   -1.1607    1.8823 C   0  0  0  0  0  0  0  0  0  0  0  0
    0.4901   -2.4218    1.3192 C   0  0  0  0  0  0  0  0  0  0  0  0
    0.1960   -3.6022    2.0304 C   0  0  0  0  0  0  0  0  0  0  0  0
   -0.3040   -3.4880    3.3369 C   0  0  0  0  0  0  0  0  0  0  0  0
   -0.4994   -2.2372    3.9234 C   0  0  0  0  0  0  0  0  0  0  0  0
   -0.2116   -1.0891    3.1962 C   0  0  0  0  0  0  0  0  0  0  0  0
   -0.4155    0.1212    3.8094 O   0  0  0  0  0  0  0  0  0  0  0  0
    0.4112   -4.9629    1.3925 C   0  0  0  0  0  0  0  0  0  0  0  0
    0.1262   -5.9842    2.0965 O   0  5  0  0  0  0  0  0  0  0  0  0
    0.8580   -4.9805    0.2036 O   0  0  0  0  0  0  0  0  0  0  0  0
    0.6413    0.9262   -0.5801 H   0  0  0  0  0  0  0  0  0  0  0  0
    0.5272   -0.8132   -0.6825 H   0  0  0  0  0  0  0  0  0  0  0  0
    2.0423   -0.0420   -0.0850 H   0  0  0  0  0  0  0  0  0  0  0  0
    0.8861   -2.5503    0.3165 H   0  0  0  0  0  0  0  0  0  0  0  0
   -0.5361   -4.3940    3.8940 H   0  0  0  0  0  0  0  0  0  0  0  0
   -0.8768   -2.1656    4.9370 H   0  0  0  0  0  0  0  0  0  0  0  0
   -0.1453    0.7829    3.1465 H   0  0  0  0  0  0  0  0  0  0  0  0
  1  2  1  0  0  0  0
  1 13  1  0  0  0  0
  1 14  1  0  0  0  0
  1 15  1  0  0  0  0
  2  3  1  0  0  0  0
  3  4  2  0  0  0  0
  3  8  1  0  0  0  0
  4  5  1  0  0  0  0
  4 16  1  0  0  0  0
  5  6  2  0  0  0  0
  5 10  1  0  0  0  0
  6  7  1  0  0  0  0
  6 17  1  0  0  0  0
  7  8  2  0  0  0  0
  7 18  1  0  0  0  0
  8  9  1  0  0  0  0
  9 19  1  0  0  0  0
 10 11  1  0  0  0  0
 10 12  2  0  0  0  0
M  CHG  1  11  -1
M  END
>  <DRUGBANK_ID>
DB02130

>  <SECONDARY_ACCESSION_NUMBERS>
EXPT03229

>  <COMMON_NAME>
Vanillic acid

>  <CAS_NUMBER>
121-34-6

>  <UNII>
GM8Q3JM2Y8

>  <SYNONYMS>
4-Hydroxy-3-methoxybenzoic acid; VA

$$$$
