
 OpenBabel10282417223D

 66 70  0  0  0  0  0  0  0  0999 V2000
    2.5050   -0.1441   -0.0836 C   0  0  0  0  0  0  0  0  0  0  0  0
    1.1546   -0.3101   -0.6598 N   0  0  0  0  0  0  0  0  0  0  0  0
    0.4235   -1.3710    0.0658 C   0  0  0  0  0  0  0  0  0  0  0  0
   -1.0911   -1.3447   -0.2591 C   0  0  0  0  0  0  0  0  0  0  0  0
   -1.7887   -0.0922    0.0915 N   0  0  0  0  0  0  0  0  0  0  0  0
   -2.0413    0.0489    1.5501 C   0  0  0  0  0  0  0  0  0  0  0  0
   -0.8680    0.2642    2.5060 C   0  0  0  0  0  0  0  0  0  0  0  0
   -0.0655    1.4461    2.5942 C   0  0  0  0  0  0  0  0  0  0  0  0
    1.2160    1.3845    3.1930 C   0  0  0  0  0  0  0  0  0  0  0  0
    1.5024    0.3358    4.0375 C   0  0  0  0  0  0  0  0  0  0  0  0
    2.7670    0.2173    4.6506 N   0  0  0  0  0  0  0  0  0  0  0  0
    3.2466   -0.7537    5.5279 C   0  0  0  0  0  0  0  0  0  0  0  0
    4.3254   -0.5874    6.0939 O   0  0  0  0  0  0  0  0  0  0  0  0
    2.4958   -2.0180    5.7963 C   0  0  0  0  0  0  0  0  0  0  0  0
    2.0207   -2.7825    4.7174 C   0  0  0  0  0  0  0  0  0  0  0  0
    1.0659   -3.7742    4.9412 C   0  0  0  0  0  0  0  0  0  0  0  0
    0.7598   -4.1774    6.2485 C   0  0  0  0  0  0  0  0  0  0  0  0
   -0.2508   -5.2715    6.4473 C   0  0  0  0  0  0  0  0  0  0  0  0
    1.4098   -3.5605    7.3387 C   0  0  0  0  0  0  0  0  0  0  0  0
    2.1771   -2.4022    7.1128 C   0  0  0  0  0  0  0  0  0  0  0  0
    1.3841   -4.1945    8.6537 C   0  0  0  0  0  0  0  0  0  0  0  0
    1.4276   -4.8186    9.6726 C   0  0  0  0  0  0  0  0  0  0  0  0
    1.4864   -5.5468   10.9222 C   0  0  0  0  0  0  0  0  0  0  0  0
    1.5571   -4.9415   12.0929 N   0  0  0  0  0  0  0  0  0  0  0  0
    1.5578   -5.8975   13.0898 N   0  0  0  0  0  0  0  0  0  0  0  0
    1.4929   -7.0776   12.5157 C   0  0  0  0  0  0  0  0  0  0  0  0
    1.4528   -8.4050   13.0391 C   0  0  0  0  0  0  0  0  0  0  0  0
    1.3872   -9.4518   12.1930 C   0  0  0  0  0  0  0  0  0  0  0  0
    1.3600   -9.2540   10.7512 C   0  0  0  0  0  0  0  0  0  0  0  0
    1.3926   -8.0030   10.2542 C   0  0  0  0  0  0  0  0  0  0  0  0
    1.4559   -6.9170   11.1312 N   0  0  0  0  0  0  0  0  0  0  0  0
    0.4698   -0.5595    4.2626 C   0  0  0  0  0  0  0  0  0  0  0  0
   -0.5496   -0.7732    3.3590 C   0  0  0  0  0  0  0  0  0  0  0  0
   -0.4261    2.7190    1.8681 C   0  0  0  0  0  0  0  0  0  0  0  0
   -0.5102    3.8335    2.6307 F   0  0  0  0  0  0  0  0  0  0  0  0
    0.4805    3.0462    0.9022 F   0  0  0  0  0  0  0  0  0  0  0  0
   -1.6387    2.6290    1.2869 F   0  0  0  0  0  0  0  0  0  0  0  0
   -1.1053    0.9867   -0.6487 C   0  0  0  0  0  0  0  0  0  0  0  0
    0.4337    0.9500   -0.4536 C   0  0  0  0  0  0  0  0  0  0  0  0
    2.9695    0.7828   -0.4453 H   0  0  0  0  0  0  0  0  0  0  0  0
    2.5153   -0.0827    1.0153 H   0  0  0  0  0  0  0  0  0  0  0  0
    3.1377   -0.9785   -0.3827 H   0  0  0  0  0  0  0  0  0  0  0  0
    0.8405   -2.3444   -0.1957 H   0  0  0  0  0  0  0  0  0  0  0  0
    0.5728   -1.2794    1.1435 H   0  0  0  0  0  0  0  0  0  0  0  0
   -1.1956   -1.4742   -1.3447 H   0  0  0  0  0  0  0  0  0  0  0  0
   -1.5998   -2.1946    0.2015 H   0  0  0  0  0  0  0  0  0  0  0  0
   -2.8045    0.8011    1.7799 H   0  0  0  0  0  0  0  0  0  0  0  0
   -2.5612   -0.8805    1.8541 H   0  0  0  0  0  0  0  0  0  0  0  0
    1.9499    2.1592    2.9682 H   0  0  0  0  0  0  0  0  0  0  0  0
    3.4486    0.9504    4.4673 H   0  0  0  0  0  0  0  0  0  0  0  0
    2.2071   -2.4587    3.6931 H   0  0  0  0  0  0  0  0  0  0  0  0
    0.5370   -4.1950    4.0866 H   0  0  0  0  0  0  0  0  0  0  0  0
    0.2359   -6.1446    6.8869 H   0  0  0  0  0  0  0  0  0  0  0  0
   -1.0626   -4.9254    7.0964 H   0  0  0  0  0  0  0  0  0  0  0  0
   -0.7050   -5.5786    5.4983 H   0  0  0  0  0  0  0  0  0  0  0  0
    2.5136   -1.7906    7.9487 H   0  0  0  0  0  0  0  0  0  0  0  0
    1.4732   -8.5547   14.1147 H   0  0  0  0  0  0  0  0  0  0  0  0
    1.3528  -10.4725   12.5686 H   0  0  0  0  0  0  0  0  0  0  0  0
    1.3138  -10.1304   10.1123 H   0  0  0  0  0  0  0  0  0  0  0  0
    1.3745   -7.7922    9.1940 H   0  0  0  0  0  0  0  0  0  0  0  0
    0.4417   -1.1739    5.1415 H   0  0  0  0  0  0  0  0  0  0  0  0
   -1.0695   -1.7324    3.3704 H   0  0  0  0  0  0  0  0  0  0  0  0
   -1.2905    0.9074   -1.7255 H   0  0  0  0  0  0  0  0  0  0  0  0
   -1.5691    1.9616   -0.4770 H   0  0  0  0  0  0  0  0  0  0  0  0
    0.6333    1.0827    0.5849 H   0  0  0  0  0  0  0  0  0  0  0  0
    0.9132    1.7878   -0.9653 H   0  0  0  0  0  0  0  0  0  0  0  0
  1  2  1  0  0  0  0
  1 40  1  0  0  0  0
  1 41  1  0  0  0  0
  1 42  1  0  0  0  0
  2  3  1  0  0  0  0
  2 39  1  0  0  0  0
  3  4  1  0  0  0  0
  3 43  1  0  0  0  0
  3 44  1  0  0  0  0
  4  5  1  0  0  0  0
  4 45  1  0  0  0  0
  4 46  1  0  0  0  0
  5  6  1  0  0  0  0
  5 38  1  0  0  0  0
  6  7  1  0  0  0  0
  6 47  1  0  0  0  0
  6 48  1  0  0  0  0
  7  8  2  0  0  0  0
  7 33  1  0  0  0  0
  8  9  1  0  0  0  0
  8 34  1  0  0  0  0
  9 10  2  0  0  0  0
  9 49  1  0  0  0  0
 10 11  1  0  0  0  0
 10 32  1  0  0  0  0
 11 12  1  0  0  0  0
 11 50  1  0  0  0  0
 12 13  2  0  0  0  0
 12 14  1  0  0  0  0
 14 15  2  0  0  0  0
 14 20  1  0  0  0  0
 15 16  1  0  0  0  0
 15 51  1  0  0  0  0
 16 17  2  0  0  0  0
 16 52  1  0  0  0  0
 17 18  1  0  0  0  0
 17 19  1  0  0  0  0
 18 53  1  0  0  0  0
 18 54  1  0  0  0  0
 18 55  1  0  0  0  0
 19 20  2  0  0  0  0
 19 21  1  0  0  0  0
 20 56  1  0  0  0  0
 21 22  3  0  0  0  0
 22 23  1  0  0  0  0
 23 24  2  0  0  0  0
 23 31  1  0  0  0  0
 24 25  1  0  0  0  0
 25 26  2  0  0  0  0
 26 27  1  0  0  0  0
 26 31  1  0  0  0  0
 27 28  2  0  0  0  0
 27 57  1  0  0  0  0
 28 29  1  0  0  0  0
 28 58  1  0  0  0  0
 29 30  2  0  0  0  0
 29 59  1  0  0  0  0
 30 31  1  0  0  0  0
 30 60  1  0  0  0  0
 32 33  2  0  0  0  0
 32 61  1  0  0  0  0
 33 62  1  0  0  0  0
 34 35  1  0  0  0  0
 34 36  1  0  0  0  0
 34 37  1  0  0  0  0
 38 39  1  0  0  0  0
 38 63  1  0  0  0  0
 38 64  1  0  0  0  0
 39 65  1  0  0  0  0
 39 66  1  0  0  0  0
M  END
>  <DRUGBANK_ID>
DB15396

>  <COMMON_NAME>
Vamotinib

>  <CAS_NUMBER>
1416241-23-0

>  <UNII>
I8C3R768IZ

>  <SYNONYMS>
Vamotinib

$$$$
