E89
 OpenBabel10282417163D

 42 45  0  0  0  0  0  0  0  0999 V2000
    0.1517    1.4897    0.3212 C   0  0  0  0  0  0  0  0  0  0  0  0
   -0.9628    0.6772    0.1987 C   0  0  0  0  0  0  0  0  0  0  0  0
   -2.2127    1.4084    0.0604 C   0  0  0  0  0  0  0  0  0  0  0  0
   -2.2599    2.6478    0.0880 O   0  0  0  0  0  0  0  0  0  0  0  0
   -3.3156    0.6634   -0.1155 N   0  0  0  0  0  0  0  0  0  0  0  0
   -3.2953   -0.6989   -0.1787 C   0  0  0  0  0  0  0  0  0  0  0  0
   -4.5287   -1.2222   -0.3805 N   0  0  0  0  0  0  0  0  0  0  0  0
   -2.2038   -1.4082   -0.0567 N   0  0  0  0  0  0  0  0  0  0  0  0
   -0.9457   -0.7401    0.1549 C   0  0  0  0  0  0  0  0  0  0  0  0
    0.3301   -1.4272    0.3375 C   0  0  0  0  0  0  0  0  0  0  0  0
    0.4649   -2.9880    0.3581 C   0  0  0  0  0  0  0  0  0  0  0  0
    1.1781   -3.8162   -0.7994 C   0  0  0  0  0  0  0  0  0  0  0  0
    2.6189   -3.4801   -1.1188 C   0  0  0  0  0  0  0  0  0  0  0  0
    2.8501   -2.1896   -1.5662 C   0  0  0  0  0  0  0  0  0  0  0  0
    4.1247   -1.6704   -1.7261 C   0  0  0  0  0  0  0  0  0  0  0  0
    5.2291   -2.4616   -1.5155 C   0  0  0  0  0  0  0  0  0  0  0  0
    6.4063   -1.7855   -1.6513 O   0  0  0  0  0  0  0  0  0  0  0  0
    7.5278   -2.6053   -1.9101 C   0  0  0  0  0  0  0  0  0  0  0  0
    5.0342   -3.8123   -1.2212 C   0  0  0  0  0  0  0  0  0  0  0  0
    3.7274   -4.3328   -1.0584 C   0  0  0  0  0  0  0  0  0  0  0  0
    1.4752   -0.5383    0.5085 C   0  0  0  0  0  0  0  0  0  0  0  0
    2.8264   -0.7670    0.7439 N   0  0  0  0  0  0  0  0  0  0  0  0
    3.4681    0.3437    0.4195 C   0  0  0  0  0  0  0  0  0  0  0  0
    2.5994    1.3595    0.2117 N   0  0  0  0  0  0  0  0  0  0  0  0
    1.3443    0.8365    0.3543 C   0  0  0  0  0  0  0  0  0  0  0  0
    0.0919    2.5693    0.3615 H   0  0  0  0  0  0  0  0  0  0  0  0
   -4.1666    1.1926   -0.2151 H   0  0  0  0  0  0  0  0  0  0  0  0
   -4.6489   -2.2233   -0.4180 H   0  0  0  0  0  0  0  0  0  0  0  0
   -5.3625   -0.6506   -0.4342 H   0  0  0  0  0  0  0  0  0  0  0  0
    0.9646   -3.2623    1.2986 H   0  0  0  0  0  0  0  0  0  0  0  0
   -0.5427   -3.4235    0.4442 H   0  0  0  0  0  0  0  0  0  0  0  0
    1.1147   -4.8915   -0.5638 H   0  0  0  0  0  0  0  0  0  0  0  0
    0.6096   -3.6903   -1.7295 H   0  0  0  0  0  0  0  0  0  0  0  0
    2.0106   -1.5170   -1.6733 H   0  0  0  0  0  0  0  0  0  0  0  0
    4.2377   -0.6136   -1.9356 H   0  0  0  0  0  0  0  0  0  0  0  0
    7.8125   -3.1392   -1.0008 H   0  0  0  0  0  0  0  0  0  0  0  0
    7.3210   -3.2918   -2.7369 H   0  0  0  0  0  0  0  0  0  0  0  0
    8.3580   -1.9593   -2.2086 H   0  0  0  0  0  0  0  0  0  0  0  0
    5.8818   -4.4798   -1.1057 H   0  0  0  0  0  0  0  0  0  0  0  0
    3.6093   -5.4029   -0.9043 H   0  0  0  0  0  0  0  0  0  0  0  0
    4.5302    0.4629    0.2296 H   0  0  0  0  0  0  0  0  0  0  0  0
    2.8181    2.3041   -0.0818 H   0  0  0  0  0  0  0  0  0  0  0  0
  1  2  1  0  0  0  0
  1 25  2  0  0  0  0
  1 26  1  0  0  0  0
  2  3  1  0  0  0  0
  2  9  2  0  0  0  0
  3  4  2  0  0  0  0
  3  5  1  0  0  0  0
  5  6  1  0  0  0  0
  5 27  1  0  0  0  0
  6  7  1  0  0  0  0
  6  8  2  0  0  0  0
  7 28  1  0  0  0  0
  7 29  1  0  0  0  0
  8  9  1  0  0  0  0
  9 10  1  0  0  0  0
 10 11  1  0  0  0  0
 10 21  2  0  0  0  0
 11 12  1  0  0  0  0
 11 30  1  0  0  0  0
 11 31  1  0  0  0  0
 12 13  1  0  0  0  0
 12 32  1  0  0  0  0
 12 33  1  0  0  0  0
 13 14  1  0  0  0  0
 13 20  2  0  0  0  0
 14 15  2  0  0  0  0
 14 34  1  0  0  0  0
 15 16  1  0  0  0  0
 15 35  1  0  0  0  0
 16 17  1  0  0  0  0
 16 19  2  0  0  0  0
 17 18  1  0  0  0  0
 18 36  1  0  0  0  0
 18 37  1  0  0  0  0
 18 38  1  0  0  0  0
 19 20  1  0  0  0  0
 19 39  1  0  0  0  0
 20 40  1  0  0  0  0
 21 22  1  0  0  0  0
 21 25  1  0  0  0  0
 22 23  2  0  0  0  0
 23 24  1  0  0  0  0
 23 41  1  0  0  0  0
 24 25  1  0  0  0  0
 24 42  1  0  0  0  0
M  END
>  <DRUGBANK_ID>
DB07704

>  <COMMON_NAME>
6-AMINO-4-[2-(4-METHOXYPHENYL)ETHYL]-1,7-DIHYDRO-8H-IMIDAZO[4,5-G]QUINAZOLIN-8-ONE

$$$$
