
 OpenBabel10282417213D

 46 47  0  0  0  0  0  0  0  0999 V2000
    1.2021    0.1280   -0.1092 C   0  0  0  0  0  0  0  0  0  0  0  0
    0.5435   -1.0526   -0.8300 C   0  0  0  0  0  0  0  0  0  0  0  0
    0.9734   -2.4463   -0.2968 C   0  0  3  0  0  0  0  0  0  0  0  0
    0.4211   -2.8253    1.0891 C   0  0  0  0  0  0  0  0  0  0  0  0
    0.4986   -4.1210    1.6251 C   0  0  0  0  0  0  0  0  0  0  0  0
    0.1858   -4.4003    2.9520 C   0  0  0  0  0  0  0  0  0  0  0  0
   -0.0843   -3.3644    3.8274 C   0  0  0  0  0  0  0  0  0  0  0  0
   -0.1524   -2.0708    3.3451 C   0  0  0  0  0  0  0  0  0  0  0  0
   -0.0349   -1.8410    1.9776 C   0  0  0  0  0  0  0  0  0  0  0  0
    0.7005   -3.5592   -1.2748 C   0  0  0  0  0  0  0  0  0  0  0  0
    0.9644   -4.8933   -1.0103 N   0  0  0  0  0  0  0  0  0  0  0  0
    0.7602   -5.4801   -2.1417 C   0  0  0  0  0  0  0  0  0  0  0  0
    0.6491   -4.5777   -3.1636 O   0  0  0  0  0  0  0  0  0  0  0  0
    0.4482   -3.3302   -2.5709 N   0  0  0  0  0  0  0  0  0  0  0  0
    0.6467   -6.9360   -2.4573 C   0  0  0  0  0  0  0  0  0  0  0  0
   -0.7904   -7.5297   -2.5507 C   0  0  0  0  0  0  0  0  0  0  0  0
   -1.6852   -7.0370   -3.6214 N   0  0  0  0  0  0  0  0  0  0  0  0
   -2.9422   -7.7797   -3.7782 C   0  0  0  0  0  0  0  0  0  0  0  0
   -3.9009   -7.6993   -2.5974 C   0  0  0  0  0  0  0  0  0  0  0  0
   -1.9572   -5.5980   -3.5896 C   0  0  0  0  0  0  0  0  0  0  0  0
   -2.4005   -5.0071   -2.2443 C   0  0  0  0  0  0  0  0  0  0  0  0
    1.0577    0.1655    0.9684 H   0  0  0  0  0  0  0  0  0  0  0  0
    0.7987    1.0679   -0.4945 H   0  0  0  0  0  0  0  0  0  0  0  0
    2.2843    0.1053   -0.2493 H   0  0  0  0  0  0  0  0  0  0  0  0
   -0.5511   -0.9648   -0.8155 H   0  0  0  0  0  0  0  0  0  0  0  0
    0.8386   -0.9459   -1.8828 H   0  0  0  0  0  0  0  0  0  0  0  0
    2.0701   -2.4251   -0.2121 H   0  0  0  0  0  0  0  0  0  0  0  0
    0.8000   -4.9829    1.0459 H   0  0  0  0  0  0  0  0  0  0  0  0
    0.1996   -5.4317    3.2878 H   0  0  0  0  0  0  0  0  0  0  0  0
   -0.2703   -3.5668    4.8741 H   0  0  0  0  0  0  0  0  0  0  0  0
   -0.3161   -1.2319    4.0146 H   0  0  0  0  0  0  0  0  0  0  0  0
   -0.3199   -0.8519    1.6475 H   0  0  0  0  0  0  0  0  0  0  0  0
    1.2124   -7.1672   -3.3617 H   0  0  0  0  0  0  0  0  0  0  0  0
    1.1428   -7.4634   -1.6289 H   0  0  0  0  0  0  0  0  0  0  0  0
   -0.6515   -8.6103   -2.7126 H   0  0  0  0  0  0  0  0  0  0  0  0
   -1.2687   -7.4614   -1.5669 H   0  0  0  0  0  0  0  0  0  0  0  0
   -3.4567   -7.3856   -4.6671 H   0  0  0  0  0  0  0  0  0  0  0  0
   -2.7311   -8.8275   -4.0152 H   0  0  0  0  0  0  0  0  0  0  0  0
   -4.3349   -6.7053   -2.5040 H   0  0  0  0  0  0  0  0  0  0  0  0
   -4.7558   -8.3607   -2.7403 H   0  0  0  0  0  0  0  0  0  0  0  0
   -3.4093   -7.9576   -1.6561 H   0  0  0  0  0  0  0  0  0  0  0  0
   -1.0631   -5.1436   -3.9830 H   0  0  0  0  0  0  0  0  0  0  0  0
   -2.6600   -5.2938   -4.3723 H   0  0  0  0  0  0  0  0  0  0  0  0
   -1.9618   -5.5021   -1.3717 H   0  0  0  0  0  0  0  0  0  0  0  0
   -2.1644   -3.9454   -2.1707 H   0  0  0  0  0  0  0  0  0  0  0  0
   -3.4809   -5.0605   -2.1251 H   0  0  0  0  0  0  0  0  0  0  0  0
  1  2  1  0  0  0  0
  1 22  1  0  0  0  0
  1 23  1  0  0  0  0
  1 24  1  0  0  0  0
  2  3  1  0  0  0  0
  2 25  1  0  0  0  0
  2 26  1  0  0  0  0
  3  4  1  0  0  0  0
  3 10  1  0  0  0  0
  3 27  1  0  0  0  0
  4  5  2  0  0  0  0
  4  9  1  0  0  0  0
  5  6  1  0  0  0  0
  5 28  1  0  0  0  0
  6  7  2  0  0  0  0
  6 29  1  0  0  0  0
  7  8  1  0  0  0  0
  7 30  1  0  0  0  0
  8  9  2  0  0  0  0
  8 31  1  0  0  0  0
  9 32  1  0  0  0  0
 10 11  1  0  0  0  0
 10 14  2  0  0  0  0
 11 12  2  0  0  0  0
 12 13  1  0  0  0  0
 12 15  1  0  0  0  0
 13 14  1  0  0  0  0
 15 16  1  0  0  0  0
 15 33  1  0  0  0  0
 15 34  1  0  0  0  0
 16 17  1  0  0  0  0
 16 35  1  0  0  0  0
 16 36  1  0  0  0  0
 17 18  1  0  0  0  0
 17 20  1  0  0  0  0
 18 19  1  0  0  0  0
 18 37  1  0  0  0  0
 18 38  1  0  0  0  0
 19 39  1  0  0  0  0
 19 40  1  0  0  0  0
 19 41  1  0  0  0  0
 20 21  1  0  0  0  0
 20 42  1  0  0  0  0
 20 43  1  0  0  0  0
 21 44  1  0  0  0  0
 21 45  1  0  0  0  0
 21 46  1  0  0  0  0
M  END
>  <DRUGBANK_ID>
DB13819

>  <COMMON_NAME>
Proxazole

>  <CAS_NUMBER>
5696-09-3

>  <UNII>
FD72T13M0K

>  <SYNONYMS>
Proxazole

$$$$
