
 OpenBabel10282417123D

 61 62  0  0  0  0  0  0  0  0999 V2000
    0.6275    4.9222    0.6470 C   0  0  1  0  0  0  0  0  0  0  0  0
   -0.8126    4.4989    0.2304 C   0  0  2  0  0  0  0  0  0  0  0  0
    0.6578    6.0057    1.5993 O   0  0  0  0  0  0  0  0  0  0  0  0
    1.4283    3.7281    1.2154 C   0  0  1  0  0  0  0  0  0  0  0  0
   -0.8162    3.1639   -0.4050 N   0  0  0  0  0  0  0  0  0  0  0  0
   -1.4426    5.5465   -0.7360 C   0  0  1  0  0  0  0  0  0  0  0  0
    2.0055    6.4908    1.8171 C   0  0  1  0  0  0  0  0  0  0  0  0
    2.8724    4.1431    1.4403 C   0  0  1  0  0  0  0  0  0  0  0  0
    0.8404    3.2308    2.4296 O   0  0  0  0  0  0  0  0  0  0  0  0
    0.1136    2.8624   -1.3763 C   0  0  0  0  0  0  0  0  0  0  0  0
   -2.8688    5.1525   -1.1059 C   0  0  0  0  0  0  0  0  0  0  0  0
   -1.4779    6.8624   -0.1867 O   0  0  0  0  0  0  0  0  0  0  0  0
    2.9058    5.3548    2.3795 C   0  0  1  0  0  0  0  0  0  0  0  0
    2.8459    7.1692    0.3059 S   0  0  0  0  0  0  0  0  0  0  0  0
    3.6215    3.0405    1.9602 O   0  0  0  0  0  0  0  0  0  0  0  0
    0.1021    1.4406   -1.9505 C   0  0  2  0  0  0  0  0  0  0  0  0
    0.9651    3.7005   -1.7016 O   0  0  0  0  0  0  0  0  0  0  0  0
    4.2508    5.7987    2.5748 O   0  0  0  0  0  0  0  0  0  0  0  0
    1.9569    8.7051    0.0389 C   0  0  0  0  0  0  0  0  0  0  0  0
    1.0449    0.5188   -1.1836 C   0  0  0  0  0  0  0  0  0  0  0  0
    0.6683    1.3885   -3.3178 N   0  0  0  0  0  0  0  0  0  0  0  0
    2.3818    0.6222   -1.9345 C   0  0  2  0  0  0  0  0  0  0  0  0
    2.1189    1.4945   -3.1562 C   0  0  0  0  0  0  0  0  0  0  0  0
    0.1434    2.4154   -4.2048 C   0  0  0  0  0  0  0  0  0  0  0  0
   -0.9219    1.0569   -1.9246 H   0  0  0  0  0  0  0  0  0  0  0  0
    2.9563   -0.7498   -2.3194 C   0  0  0  0  0  0  0  0  0  0  0  0
    4.4243   -0.8157   -1.9067 C   0  0  0  0  0  0  0  0  0  0  0  0
    4.5714   -0.7327   -0.3900 C   0  0  0  0  0  0  0  0  0  0  0  0
    1.1027    5.3066   -0.2558 H   0  0  0  0  0  0  0  0  0  0  0  0
   -1.4348    4.4381    1.1322 H   0  0  0  0  0  0  0  0  0  0  0  0
    1.4721    2.8693    0.5525 H   0  0  0  0  0  0  0  0  0  0  0  0
   -1.5038    2.4757   -0.1214 H   0  0  0  0  0  0  0  0  0  0  0  0
   -0.8512    5.6069   -1.6574 H   0  0  0  0  0  0  0  0  0  0  0  0
    1.9522    7.2961    2.5566 H   0  0  0  0  0  0  0  0  0  0  0  0
    3.3367    4.3822    0.4763 H   0  0  0  0  0  0  0  0  0  0  0  0
    0.6095    3.9978    2.9821 H   0  0  0  0  0  0  0  0  0  0  0  0
   -3.5053    5.1414   -0.2149 H   0  0  0  0  0  0  0  0  0  0  0  0
   -3.2989    5.8786   -1.8021 H   0  0  0  0  0  0  0  0  0  0  0  0
   -2.9077    4.1648   -1.5750 H   0  0  0  0  0  0  0  0  0  0  0  0
   -1.9355    6.8261    0.6696 H   0  0  0  0  0  0  0  0  0  0  0  0
    2.5352    5.0429    3.3634 H   0  0  0  0  0  0  0  0  0  0  0  0
    3.1337    2.7107    2.7355 H   0  0  0  0  0  0  0  0  0  0  0  0
    4.5890    6.0062    1.6809 H   0  0  0  0  0  0  0  0  0  0  0  0
    0.8773    8.5637   -0.0307 H   0  0  0  0  0  0  0  0  0  0  0  0
    2.2073    9.4132    0.8301 H   0  0  0  0  0  0  0  0  0  0  0  0
    2.3108    9.1181   -0.9116 H   0  0  0  0  0  0  0  0  0  0  0  0
    1.1799    0.7930   -0.1307 H   0  0  0  0  0  0  0  0  0  0  0  0
    0.6605   -0.5077   -1.1917 H   0  0  0  0  0  0  0  0  0  0  0  0
    3.0781    1.1879   -1.3079 H   0  0  0  0  0  0  0  0  0  0  0  0
    2.6718    1.1736   -4.0442 H   0  0  0  0  0  0  0  0  0  0  0  0
    2.4663    2.5135   -2.9426 H   0  0  0  0  0  0  0  0  0  0  0  0
    0.3288    3.4402   -3.8701 H   0  0  0  0  0  0  0  0  0  0  0  0
    0.5945    2.3254   -5.1957 H   0  0  0  0  0  0  0  0  0  0  0  0
   -0.9373    2.2880   -4.3087 H   0  0  0  0  0  0  0  0  0  0  0  0
    2.4153   -1.5770   -1.8445 H   0  0  0  0  0  0  0  0  0  0  0  0
    2.8755   -0.9224   -3.4010 H   0  0  0  0  0  0  0  0  0  0  0  0
    4.8657   -1.7509   -2.2670 H   0  0  0  0  0  0  0  0  0  0  0  0
    4.9715    0.0061   -2.3846 H   0  0  0  0  0  0  0  0  0  0  0  0
    4.0513   -1.5672    0.0895 H   0  0  0  0  0  0  0  0  0  0  0  0
    5.6252   -0.7526   -0.1080 H   0  0  0  0  0  0  0  0  0  0  0  0
    4.1522    0.1870    0.0297 H   0  0  0  0  0  0  0  0  0  0  0  0
  1  3  1  0  0  0  0
  1  4  1  0  0  0  0
  1 29  1  6  0  0  0
  2  6  1  0  0  0  0
  2 30  1  1  0  0  0
  2  5  1  0  0  0  0
  2  1  1  0  0  0  0
  3  7  1  0  0  0  0
  4  8  1  0  0  0  0
  4  9  1  0  0  0  0
  4 31  1  6  0  0  0
  5 10  1  0  0  0  0
  5 32  1  0  0  0  0
  6 11  1  0  0  0  0
  6 12  1  0  0  0  0
  6 33  1  6  0  0  0
  7 13  1  0  0  0  0
  7 34  1  1  0  0  0
  7 14  1  0  0  0  0
  8 15  1  0  0  0  0
  8 13  1  0  0  0  0
  8 35  1  6  0  0  0
  9 36  1  0  0  0  0
 10 17  2  0  0  0  0
 11 37  1  0  0  0  0
 11 38  1  0  0  0  0
 11 39  1  0  0  0  0
 12 40  1  0  0  0  0
 13 18  1  0  0  0  0
 13 41  1  1  0  0  0
 14 19  1  0  0  0  0
 15 42  1  0  0  0  0
 16 20  1  0  0  0  0
 16 21  1  0  0  0  0
 16 25  1  1  0  0  0
 16 10  1  0  0  0  0
 18 43  1  0  0  0  0
 19 44  1  0  0  0  0
 19 45  1  0  0  0  0
 19 46  1  0  0  0  0
 20 22  1  0  0  0  0
 20 47  1  0  0  0  0
 20 48  1  0  0  0  0
 21 23  1  0  0  0  0
 21 24  1  0  0  0  0
 22 23  1  0  0  0  0
 22 49  1  1  0  0  0
 22 26  1  0  0  0  0
 23 50  1  0  0  0  0
 23 51  1  0  0  0  0
 24 52  1  0  0  0  0
 24 53  1  0  0  0  0
 24 54  1  0  0  0  0
 26 27  1  0  0  0  0
 26 55  1  0  0  0  0
 26 56  1  0  0  0  0
 27 28  1  0  0  0  0
 27 57  1  0  0  0  0
 27 58  1  0  0  0  0
 28 59  1  0  0  0  0
 28 60  1  0  0  0  0
 28 61  1  0  0  0  0
M  END
>  <DRUGBANK_ID>
DB01627

>  <COMMON_NAME>
Lincomycin

>  <CAS_NUMBER>
154-21-2

>  <UNII>
BOD072YW0F

>  <SYNONYMS>
Cillimycin; LCM; Lincomicina; Lincomycin; Lincomycine; Lincomycinum

$$$$
