
 OpenBabel10282417203D

 84 89  0  0  1  0  0  0  0  0999 V2000
    1.0456    0.0195    0.0878 C   0  0  0  0  0  0  0  0  0  0  0  0
    0.4567   -1.2252   -0.2949 O   0  0  0  0  0  0  0  0  0  0  0  0
   -0.9158   -1.1917   -0.3437 C   0  0  0  0  0  0  0  0  0  0  0  0
   -1.5832   -2.4169   -0.3016 C   0  0  0  0  0  0  0  0  0  0  0  0
   -2.9859   -2.4728   -0.2909 C   0  0  0  0  0  0  0  0  0  0  0  0
   -3.6794   -1.2511   -0.3216 C   0  0  0  0  0  0  0  0  0  0  0  0
   -3.0402   -0.0165   -0.4304 C   0  0  0  0  0  0  0  0  0  0  0  0
   -1.6440   -0.0005   -0.4377 C   0  0  0  0  0  0  0  0  0  0  0  0
   -4.0232    1.0107   -0.4551 C   0  0  0  0  0  0  0  0  0  0  0  0
   -5.2182    0.3958   -0.1946 C   0  0  0  0  0  0  0  0  0  0  0  0
   -5.0193   -0.9707   -0.2278 N   0  0  0  0  0  0  0  0  0  0  0  0
   -6.5712    1.0404   -0.0799 C   0  0  1  0  0  0  0  0  0  0  0  0
   -7.3147    0.3305   -1.1898 C   0  0  0  0  0  0  0  0  0  0  0  0
   -8.5690    0.8538   -1.7701 C   0  0  1  0  0  0  0  0  0  0  0  0
   -8.9555    2.2310   -1.6596 C   0  0  2  0  0  0  0  0  0  0  0  0
  -10.7189    1.4787   -1.4693 C   0  0  0  0  0  0  0  0  0  0  0  0
  -11.2805    2.6146   -2.0449 C   0  0  2  0  0  0  0  0  0  0  0  0
  -10.5342    1.7444   -3.4181 C   0  0  1  0  0  0  0  0  0  0  0  0
   -9.3713    0.3552   -3.0508 C   0  0  1  0  0  0  0  0  0  0  0  0
   -8.3868   -0.7559   -3.4121 C   0  0  0  0  0  0  0  0  0  0  0  0
   -8.3424   -1.7586   -2.6828 O   0  0  0  0  0  0  0  0  0  0  0  0
   -7.3629   -0.4067   -4.2108 O   0  0  0  0  0  0  0  0  0  0  0  0
   -6.1216   -1.0917   -3.8973 C   0  0  0  0  0  0  0  0  0  0  0  0
  -11.6177    1.4842   -4.2997 O   0  0  0  0  0  0  0  0  0  0  0  0
  -11.1429    1.7318   -5.6115 C   0  0  0  0  0  0  0  0  0  0  0  0
  -10.8210    3.0564   -0.4892 O   0  0  0  0  0  0  0  0  0  0  0  0
  -10.2145    2.2588    0.6216 C   0  0  0  0  0  0  0  0  0  0  0  0
   -9.3428    2.7845    1.2601 O   0  0  0  0  0  0  0  0  0  0  0  0
  -10.5371    0.7052    1.0098 C   0  0  0  0  0  0  0  0  0  0  0  0
  -10.5521   -0.5513    0.2782 C   0  0  0  0  0  0  0  0  0  0  0  0
  -10.9979   -1.7734    0.7428 C   0  0  0  0  0  0  0  0  0  0  0  0
  -11.1933   -1.8560    2.1058 C   0  0  0  0  0  0  0  0  0  0  0  0
  -10.9886   -0.6927    2.9072 C   0  0  0  0  0  0  0  0  0  0  0  0
  -10.6955    0.5622    2.3584 C   0  0  0  0  0  0  0  0  0  0  0  0
  -11.0482   -0.5991    4.2733 O   0  0  0  0  0  0  0  0  0  0  0  0
  -11.3425   -1.7995    4.9530 C   0  0  0  0  0  0  0  0  0  0  0  0
  -11.5489   -3.0095    2.7436 O   0  0  0  0  0  0  0  0  0  0  0  0
  -11.7378   -4.2063    2.0124 C   0  0  0  0  0  0  0  0  0  0  0  0
  -11.1993   -2.8671   -0.0502 O   0  0  0  0  0  0  0  0  0  0  0  0
  -11.1744   -2.8412   -1.4710 C   0  0  0  0  0  0  0  0  0  0  0  0
   -7.5518    3.0284   -1.1586 C   0  0  0  0  0  0  0  0  0  0  0  0
   -6.5727    2.4858   -0.1954 N   0  0  3  0  0  0  0  0  0  0  0  0
   -5.2425    3.1268    0.0918 C   0  0  0  0  0  0  0  0  0  0  0  0
   -3.9285    2.4987   -0.5240 C   0  0  0  0  0  0  0  0  0  0  0  0
    0.7012    0.3089    1.0882 H   0  0  0  0  0  0  0  0  0  0  0  0
    0.8312    0.8077   -0.6430 H   0  0  0  0  0  0  0  0  0  0  0  0
    2.1312   -0.0894    0.1137 H   0  0  0  0  0  0  0  0  0  0  0  0
   -1.0114   -3.3424   -0.2462 H   0  0  0  0  0  0  0  0  0  0  0  0
   -3.5016   -3.4270   -0.2209 H   0  0  0  0  0  0  0  0  0  0  0  0
   -1.1772    0.9707   -0.4729 H   0  0  0  0  0  0  0  0  0  0  0  0
   -5.7514   -1.6689   -0.1992 H   0  0  0  0  0  0  0  0  0  0  0  0
   -7.0030    0.8155    0.9001 H   0  0  0  0  0  0  0  0  0  0  0  0
   -7.5971   -0.6198   -0.7166 H   0  0  0  0  0  0  0  0  0  0  0  0
   -6.6309    0.1844   -1.9950 H   0  0  0  0  0  0  0  0  0  0  0  0
   -9.0445    0.5862   -0.8638 H   0  0  0  0  0  0  0  0  0  0  0  0
   -8.9055    2.7565   -2.6200 H   0  0  0  0  0  0  0  0  0  0  0  0
  -11.6393    1.3399   -0.8321 H   0  0  0  0  0  0  0  0  0  0  0  0
  -10.9420    0.4723   -1.8278 H   0  0  0  0  0  0  0  0  0  0  0  0
  -12.3824    2.6525   -2.0405 H   0  0  0  0  0  0  0  0  0  0  0  0
   -9.9518    2.5148   -3.8914 H   0  0  0  0  0  0  0  0  0  0  0  0
  -10.1627   -0.4275   -2.9761 H   0  0  0  0  0  0  0  0  0  0  0  0
   -5.4623   -0.3953   -3.3665 H   0  0  0  0  0  0  0  0  0  0  0  0
   -6.2173   -1.9942   -3.2726 H   0  0  0  0  0  0  0  0  0  0  0  0
   -5.6268   -1.3558   -4.8252 H   0  0  0  0  0  0  0  0  0  0  0  0
  -10.3152    2.4547   -5.6424 H   0  0  0  0  0  0  0  0  0  0  0  0
  -10.7858    0.7711   -5.9620 H   0  0  0  0  0  0  0  0  0  0  0  0
  -11.9321    2.1567   -6.2284 H   0  0  0  0  0  0  0  0  0  0  0  0
  -10.1360   -0.7203   -0.7000 H   0  0  0  0  0  0  0  0  0  0  0  0
  -10.5462    1.4279    2.9973 H   0  0  0  0  0  0  0  0  0  0  0  0
  -12.3448   -2.1451    4.6791 H   0  0  0  0  0  0  0  0  0  0  0  0
  -10.5628   -2.5469    4.7664 H   0  0  0  0  0  0  0  0  0  0  0  0
  -11.3497   -1.5894    6.0193 H   0  0  0  0  0  0  0  0  0  0  0  0
  -12.5980   -4.1118    1.3411 H   0  0  0  0  0  0  0  0  0  0  0  0
  -10.8211   -4.5065    1.4922 H   0  0  0  0  0  0  0  0  0  0  0  0
  -11.9676   -4.9921    2.7315 H   0  0  0  0  0  0  0  0  0  0  0  0
  -11.9055   -2.1468   -1.8950 H   0  0  0  0  0  0  0  0  0  0  0  0
  -10.1730   -2.6351   -1.8266 H   0  0  0  0  0  0  0  0  0  0  0  0
  -11.4187   -3.8477   -1.8353 H   0  0  0  0  0  0  0  0  0  0  0  0
   -7.7450    4.1070   -1.0416 H   0  0  0  0  0  0  0  0  0  0  0  0
   -6.9373    3.0330   -2.0900 H   0  0  0  0  0  0  0  0  0  0  0  0
   -5.2679    4.2148   -0.0461 H   0  0  0  0  0  0  0  0  0  0  0  0
   -5.0613    3.0144    1.1755 H   0  0  0  0  0  0  0  0  0  0  0  0
   -3.7355    2.8981   -1.5284 H   0  0  0  0  0  0  0  0  0  0  0  0
   -3.0423    2.7606    0.0748 H   0  0  0  0  0  0  0  0  0  0  0  0
  1  2  1  0  0  0  0
  1 45  1  0  0  0  0
  1 46  1  0  0  0  0
  1 47  1  0  0  0  0
  2  3  1  0  0  0  0
  3  4  2  0  0  0  0
  3  8  1  0  0  0  0
  4  5  1  0  0  0  0
  4 48  1  0  0  0  0
  5  6  2  0  0  0  0
  5 49  1  0  0  0  0
  6  7  1  0  0  0  0
  6 11  1  0  0  0  0
  7  8  2  0  0  0  0
  7  9  1  0  0  0  0
  8 50  1  0  0  0  0
  9 10  2  0  0  0  0
  9 44  1  0  0  0  0
 10 11  1  0  0  0  0
 11 51  1  0  0  0  0
 12 10  1  0  0  0  0
 12 13  1  0  0  0  0
 12 42  1  0  0  0  0
 12 52  1  6  0  0  0
 13 53  1  0  0  0  0
 13 54  1  0  0  0  0
 14 13  1  0  0  0  0
 14 15  1  0  0  0  0
 14 19  1  0  0  0  0
 14 55  1  1  0  0  0
 15 16  1  0  0  0  0
 15 41  1  0  0  0  0
 15 56  1  1  0  0  0
 16 17  1  0  0  0  0
 16 57  1  0  0  0  0
 16 58  1  0  0  0  0
 17 18  1  0  0  0  0
 17 59  1  6  0  0  0
 17 26  1  0  0  0  0
 18 19  1  0  0  0  0
 18 24  1  0  0  0  0
 18 60  1  6  0  0  0
 19 61  1  1  0  0  0
 19 20  1  0  0  0  0
 20 21  2  0  0  0  0
 20 22  1  0  0  0  0
 22 23  1  0  0  0  0
 23 62  1  0  0  0  0
 23 63  1  0  0  0  0
 23 64  1  0  0  0  0
 24 25  1  0  0  0  0
 25 65  1  0  0  0  0
 25 66  1  0  0  0  0
 25 67  1  0  0  0  0
 26 27  1  0  0  0  0
 27 28  2  0  0  0  0
 27 29  1  0  0  0  0
 29 30  2  0  0  0  0
 29 34  1  0  0  0  0
 30 31  1  0  0  0  0
 30 68  1  0  0  0  0
 31 32  2  0  0  0  0
 31 39  1  0  0  0  0
 32 33  1  0  0  0  0
 32 37  1  0  0  0  0
 33 34  2  0  0  0  0
 33 35  1  0  0  0  0
 34 69  1  0  0  0  0
 35 36  1  0  0  0  0
 36 70  1  0  0  0  0
 36 71  1  0  0  0  0
 36 72  1  0  0  0  0
 37 38  1  0  0  0  0
 38 73  1  0  0  0  0
 38 74  1  0  0  0  0
 38 75  1  0  0  0  0
 39 40  1  0  0  0  0
 40 76  1  0  0  0  0
 40 77  1  0  0  0  0
 40 78  1  0  0  0  0
 41 42  1  0  0  0  0
 41 79  1  0  0  0  0
 41 80  1  0  0  0  0
 42 43  1  0  0  0  0
 43 44  1  0  0  0  0
 43 81  1  0  0  0  0
 43 82  1  0  0  0  0
 44 83  1  0  0  0  0
 44 84  1  0  0  0  0
M  END
>  <DRUGBANK_ID>
DB13631

>  <COMMON_NAME>
Methoserpidine

>  <CAS_NUMBER>
865-04-3

>  <UNII>
8F8C1JQH53

>  <SYNONYMS>
Methoserpidine

$$$$
