
 OpenBabel10282417183D

 36 37  0  0  0  0  0  0  0  0999 V2000
    0.8890    0.0773   -0.0216 C   0  0  0  0  0  0  0  0  0  0  0  0
    0.3979   -1.3483   -0.1441 C   0  0  0  0  0  0  0  0  0  0  0  0
    1.7719   -1.9303    1.9584 C   0  0  0  0  0  0  0  0  0  0  0  0
    2.2049   -2.8952    2.8799 C   0  0  0  0  0  0  0  0  0  0  0  0
    0.3038   -3.5359    0.9787 C   0  0  0  0  0  0  0  0  0  0  0  0
    0.1338   -5.8683    1.6123 C   0  0  0  0  0  0  0  0  0  0  0  0
    1.0322   -9.1822    3.9858 C   0  0  0  0  0  0  0  0  0  0  0  0
    0.8367   -2.2545    0.9755 C   0  0  0  0  0  0  0  0  0  0  0  0
    0.7397   -4.5234    1.8775 C   0  0  0  0  0  0  0  0  0  0  0  0
    1.7748   -8.7181    2.9112 C   0  0  0  0  0  0  0  0  0  0  0  0
    0.8005   -8.3247    5.0555 C   0  0  0  0  0  0  0  0  0  0  0  0
    1.7062   -4.2144    2.8626 C   0  0  0  0  0  0  0  0  0  0  0  0
   -1.3356   -5.9999    1.8143 C   0  0  0  0  0  0  0  0  0  0  0  0
    2.3123   -7.4301    2.9173 C   0  0  0  0  0  0  0  0  0  0  0  0
    1.2136   -6.9881    5.0112 C   0  0  0  0  0  0  0  0  0  0  0  0
    2.0021   -6.5164    3.9471 C   0  0  0  0  0  0  0  0  0  0  0  0
    1.8749   -9.4723    1.8082 F   0  0  0  0  0  0  0  0  0  0  0  0
    0.1492   -8.7936    6.1290 F   0  0  0  0  0  0  0  0  0  0  0  0
    2.8876   -6.9747    1.7912 F   0  0  0  0  0  0  0  0  0  0  0  0
    0.7433   -6.1349    5.9362 F   0  0  0  0  0  0  0  0  0  0  0  0
    2.2877   -5.1396    3.7748 N   0  0  0  0  0  0  0  0  0  0  0  0
   -2.1139   -6.5302    1.0521 O   0  0  0  0  0  0  0  0  0  0  0  0
   -1.6962   -5.6411    3.0684 O   0  0  0  0  0  0  0  0  0  0  0  0
    0.5428    0.5176    0.9186 H   0  0  0  0  0  0  0  0  0  0  0  0
    0.5146    0.6833   -0.8496 H   0  0  0  0  0  0  0  0  0  0  0  0
    1.9834    0.1115   -0.0421 H   0  0  0  0  0  0  0  0  0  0  0  0
   -0.6988   -1.3492   -0.1913 H   0  0  0  0  0  0  0  0  0  0  0  0
    0.7606   -1.7721   -1.0914 H   0  0  0  0  0  0  0  0  0  0  0  0
    2.1897   -0.9290    2.0257 H   0  0  0  0  0  0  0  0  0  0  0  0
    2.9601   -2.5949    3.6050 H   0  0  0  0  0  0  0  0  0  0  0  0
   -0.4592   -3.7903    0.2421 H   0  0  0  0  0  0  0  0  0  0  0  0
    0.4684   -6.2528    0.6426 H   0  0  0  0  0  0  0  0  0  0  0  0
    0.4268   -6.5898    2.3333 H   0  0  0  0  0  0  0  0  0  0  0  0
    0.6091  -10.1804    3.9695 H   0  0  0  0  0  0  0  0  0  0  0  0
    2.6670   -4.6976    4.6082 H   0  0  0  0  0  0  0  0  0  0  0  0
   -2.6421   -5.8668    3.1472 H   0  0  0  0  0  0  0  0  0  0  0  0
  1 24  1  0  0  0  0
  1 25  1  0  0  0  0
  1 26  1  0  0  0  0
  2  1  1  0  0  0  0
  2 27  1  0  0  0  0
  2 28  1  0  0  0  0
  3 29  1  0  0  0  0
  4  3  2  0  0  0  0
  4 30  1  0  0  0  0
  5 31  1  0  0  0  0
  6 32  1  0  0  0  0
  6 33  1  0  0  0  0
  7 34  1  0  0  0  0
  8  2  1  0  0  0  0
  8  3  1  0  0  0  0
  8  5  2  0  0  0  0
  9  5  1  0  0  0  0
  9  6  1  0  0  0  0
 10  7  2  0  0  0  0
 11  7  1  0  0  0  0
 12  4  1  0  0  0  0
 12  9  2  0  0  0  0
 13  6  1  0  0  0  0
 14 10  1  0  0  0  0
 15 11  2  0  0  0  0
 16 14  2  0  0  0  0
 16 15  1  0  0  0  0
 17 10  1  0  0  0  0
 18 11  1  0  0  0  0
 19 14  1  0  0  0  0
 20 15  1  0  0  0  0
 21 12  1  0  0  0  0
 21 16  1  0  0  0  0
 21 35  1  0  0  0  0
 22 13  2  0  0  0  0
 23 13  1  0  0  0  0
 23 36  1  0  0  0  0
M  END
>  <DRUGBANK_ID>
DB11455

>  <COMMON_NAME>
Robenacoxib

>  <CAS_NUMBER>
220991-32-2

>  <UNII>
Z588009C7C

>  <SYNONYMS>
Rob√©nacoxib; Robenacoxib; Robenacoxibum

$$$$
