
 OpenBabel10282417173D

 61 64  0  0  0  0  0  0  0  0999 V2000
    0.4628   -1.1048   -0.0590 C   0  0  1  0  0  0  0  0  0  0  0  0
    0.8555   -1.8826   -1.3505 C   0  0  0  0  0  0  0  0  0  0  0  0
    0.8318   -2.0257    1.2020 C   0  0  0  0  0  0  0  0  0  0  0  0
   -0.2902   -2.4221    2.0054 O   0  0  0  0  0  0  0  0  0  0  0  0
   -0.1173   -2.3446   -2.2505 C   0  0  0  0  0  0  0  0  0  0  0  0
    0.2114   -3.2387   -3.2745 C   0  0  0  0  0  0  0  0  0  0  0  0
    1.5348   -3.6035   -3.5038 C   0  0  0  0  0  0  0  0  0  0  0  0
    2.5262   -3.1377   -2.6593 C   0  0  0  0  0  0  0  0  0  0  0  0
    2.1822   -2.3140   -1.5882 C   0  0  0  0  0  0  0  0  0  0  0  0
   -4.6287    1.4840    1.1047 C   0  0  0  0  0  0  0  0  0  0  0  0
   -3.3733    0.9070    1.1082 C   0  0  0  0  0  0  0  0  0  0  0  0
   -2.5245    1.1543    0.0321 C   0  0  0  0  0  0  0  0  0  0  0  0
   -2.9223    1.9834   -1.0174 C   0  0  0  0  0  0  0  0  0  0  0  0
   -4.1956    2.5207   -1.0350 C   0  0  0  0  0  0  0  0  0  0  0  0
   -5.0397    2.3012    0.0533 C   0  0  0  0  0  0  0  0  0  0  0  0
   -5.4686    1.2186    2.1112 F   0  0  0  0  0  0  0  0  0  0  0  0
   -2.0822    2.2587   -2.0271 F   0  0  0  0  0  0  0  0  0  0  0  0
   -1.2390    0.5214   -0.0094 C   0  0  0  0  0  0  0  0  0  0  0  0
    4.5133    1.8575    0.3776 C   0  0  2  0  0  0  0  0  0  0  0  0
    5.1537    1.9250   -1.0246 C   0  0  1  0  0  0  0  0  0  0  0  0
    5.0305    0.5582   -1.6860 C   0  0  0  0  0  0  0  0  0  0  0  0
    5.6991   -0.5136   -0.9057 N   0  0  0  0  0  0  0  0  0  0  0  0
    5.3719   -0.5068    0.5202 C   0  0  0  0  0  0  0  0  0  0  0  0
    5.2972    0.8357    1.2259 C   0  0  0  0  0  0  0  0  0  0  0  0
    4.5605    2.8923   -1.7737 F   0  0  0  0  0  0  0  0  0  0  0  0
    7.1401   -0.4408   -0.9473 C   0  0  0  0  0  0  0  0  0  0  0  0
    2.9810    1.7168    0.3297 N   0  0  0  0  0  0  0  0  0  0  0  0
    2.2890    0.5361    0.2732 C   0  0  0  0  0  0  0  0  0  0  0  0
    1.0027    0.3301   -0.0188 N   0  0  0  0  0  0  0  0  0  0  0  0
    2.3115    2.9852    0.1832 C   0  0  0  0  0  0  0  0  0  0  0  0
    2.7869   -0.5455    0.5897 O   0  0  0  0  0  0  0  0  0  0  0  0
   -1.0145   -0.7909    0.0038 C   0  0  0  0  0  0  0  0  0  0  0  0
   -0.0154    1.3256   -0.0911 C   0  0  0  0  0  0  0  0  0  0  0  0
    1.3205   -2.9551    0.8814 H   0  0  0  0  0  0  0  0  0  0  0  0
    1.5136   -1.5480    1.9092 H   0  0  0  0  0  0  0  0  0  0  0  0
   -0.6657   -1.5906    2.3397 H   0  0  0  0  0  0  0  0  0  0  0  0
   -1.1593   -2.0552   -2.1496 H   0  0  0  0  0  0  0  0  0  0  0  0
   -0.5799   -3.6688   -3.8803 H   0  0  0  0  0  0  0  0  0  0  0  0
    1.7925   -4.2571   -4.3300 H   0  0  0  0  0  0  0  0  0  0  0  0
    3.5648   -3.4335   -2.7887 H   0  0  0  0  0  0  0  0  0  0  0  0
    3.0032   -2.0701   -0.9232 H   0  0  0  0  0  0  0  0  0  0  0  0
   -3.0653    0.2772    1.9380 H   0  0  0  0  0  0  0  0  0  0  0  0
   -4.5187    3.0852   -1.9017 H   0  0  0  0  0  0  0  0  0  0  0  0
   -6.0202    2.7600    0.0878 H   0  0  0  0  0  0  0  0  0  0  0  0
    4.7024    2.8295    0.8562 H   0  0  0  0  0  0  0  0  0  0  0  0
    6.2144    2.2019   -0.9613 H   0  0  0  0  0  0  0  0  0  0  0  0
    3.9609    0.3463   -1.8367 H   0  0  0  0  0  0  0  0  0  0  0  0
    5.4183    0.5916   -2.7123 H   0  0  0  0  0  0  0  0  0  0  0  0
    4.4265   -0.9170    0.5317 H   0  0  0  0  0  0  0  0  0  0  0  0
    5.8049   -1.3228    1.1089 H   0  0  0  0  0  0  0  0  0  0  0  0
    6.3288    1.1798    1.4070 H   0  0  0  0  0  0  0  0  0  0  0  0
    4.8244    0.7375    2.2080 H   0  0  0  0  0  0  0  0  0  0  0  0
    7.4976    0.4832   -0.4876 H   0  0  0  0  0  0  0  0  0  0  0  0
    7.5369   -1.2784   -0.3632 H   0  0  0  0  0  0  0  0  0  0  0  0
    7.5052   -0.5206   -1.9673 H   0  0  0  0  0  0  0  0  0  0  0  0
    1.7979    3.0140   -0.7759 H   0  0  0  0  0  0  0  0  0  0  0  0
    1.6361    3.0884    1.0323 H   0  0  0  0  0  0  0  0  0  0  0  0
    3.0026    3.8277    0.2256 H   0  0  0  0  0  0  0  0  0  0  0  0
   -1.7743   -1.5583    0.0653 H   0  0  0  0  0  0  0  0  0  0  0  0
    0.0458    1.9773    0.7812 H   0  0  0  0  0  0  0  0  0  0  0  0
    0.0901    1.8639   -1.0325 H   0  0  0  0  0  0  0  0  0  0  0  0
  1 32  1  0  0  0  0
  1  2  1  0  0  0  0
  1  3  1  1  0  0  0
  2  5  2  0  0  0  0
  3  4  1  0  0  0  0
  3 34  1  0  0  0  0
  3 35  1  0  0  0  0
  4 36  1  0  0  0  0
  5  6  1  0  0  0  0
  5 37  1  0  0  0  0
  6  7  2  0  0  0  0
  6 38  1  0  0  0  0
  7  8  1  0  0  0  0
  7 39  1  0  0  0  0
  8  9  2  0  0  0  0
  8 40  1  0  0  0  0
  9  2  1  0  0  0  0
  9 41  1  0  0  0  0
 10 11  2  0  0  0  0
 10 16  1  0  0  0  0
 11 12  1  0  0  0  0
 11 42  1  0  0  0  0
 12 18  1  0  0  0  0
 12 13  2  0  0  0  0
 13 14  1  0  0  0  0
 13 17  1  0  0  0  0
 14 15  2  0  0  0  0
 14 43  1  0  0  0  0
 15 10  1  0  0  0  0
 15 44  1  0  0  0  0
 18 33  1  0  0  0  0
 19 20  1  0  0  0  0
 19 24  1  0  0  0  0
 19 27  1  0  0  0  0
 19 45  1  1  0  0  0
 20 21  1  0  0  0  0
 20 25  1  0  0  0  0
 20 46  1  1  0  0  0
 21 22  1  0  0  0  0
 21 47  1  0  0  0  0
 21 48  1  0  0  0  0
 22 23  1  0  0  0  0
 22 26  1  0  0  0  0
 23 24  1  0  0  0  0
 23 49  1  0  0  0  0
 23 50  1  0  0  0  0
 24 51  1  0  0  0  0
 24 52  1  0  0  0  0
 26 53  1  0  0  0  0
 26 54  1  0  0  0  0
 26 55  1  0  0  0  0
 27 28  1  0  0  0  0
 27 30  1  0  0  0  0
 28 29  1  0  0  0  0
 28 31  2  0  0  0  0
 29  1  1  0  0  0  0
 30 56  1  0  0  0  0
 30 57  1  0  0  0  0
 30 58  1  0  0  0  0
 32 18  2  0  0  0  0
 32 59  1  0  0  0  0
 33 29  1  0  0  0  0
 33 60  1  0  0  0  0
 33 61  1  0  0  0  0
M  END
>  <DRUGBANK_ID>
DB08037

>  <COMMON_NAME>
MK-0731

>  <CAS_NUMBER>
845256-65-7

>  <UNII>
8HIJ5G3O02

$$$$
