
 OpenBabel10282417143D

 12 12  0  0  0  0  0  0  0  0999 V2000
   -1.9003    0.1254    0.0251 O   0  0  0  0  0  0  0  0  0  0  0  0
   -0.6814    0.0848    0.0016 C   0  0  0  0  0  0  0  0  0  0  0  0
    0.2208    1.2745   -0.1174 C   0  0  0  0  0  0  0  0  0  0  0  0
    1.5817    0.6973    0.1787 C   0  0  0  0  0  0  0  0  0  0  0  0
    1.4268   -0.7642   -0.1516 C   0  0  0  0  0  0  0  0  0  0  0  0
    0.0476   -1.0664    0.0435 O   0  0  0  0  0  0  0  0  0  0  0  0
    0.1618    1.6734   -1.1335 H   0  0  0  0  0  0  0  0  0  0  0  0
   -0.0525    2.0399    0.6134 H   0  0  0  0  0  0  0  0  0  0  0  0
    2.3862    1.1760   -0.3872 H   0  0  0  0  0  0  0  0  0  0  0  0
    1.8111    0.8172    1.2441 H   0  0  0  0  0  0  0  0  0  0  0  0
    1.6891   -0.9855   -1.1912 H   0  0  0  0  0  0  0  0  0  0  0  0
    2.0349   -1.3933    0.5054 H   0  0  0  0  0  0  0  0  0  0  0  0
  1  2  2  0  0  0  0
  2  3  1  0  0  0  0
  2  6  1  0  0  0  0
  3  4  1  0  0  0  0
  3  7  1  0  0  0  0
  3  8  1  0  0  0  0
  4  5  1  0  0  0  0
  4  9  1  0  0  0  0
  4 10  1  0  0  0  0
  5  6  1  0  0  0  0
  5 11  1  0  0  0  0
  5 12  1  0  0  0  0
M  END
>  <DRUGBANK_ID>
DB04699

>  <COMMON_NAME>
gamma-Butyrolactone

>  <CAS_NUMBER>
96-48-0

>  <UNII>
OL659KIY4X

>  <SYNONYMS>
1,4-lactone; 4-butyrolactone; 4-hydroxybutyric acid lactone; butyrolactone; dihydrofuran-2(3h)-one; GBL; Î³-butyrolactone

$$$$
