
 OpenBabel10282417193D

 63 68  0  0  0  0  0  0  0  0999 V2000
    1.0195   -0.1186   -0.0871 C   0  0  0  0  0  0  0  0  0  0  0  0
   -6.5016  -10.9344   10.0014 C   0  0  0  0  0  0  0  0  0  0  0  0
    0.6417   -2.5301    0.2181 C   0  0  0  0  0  0  0  0  0  0  0  0
   -0.5707    2.4086    2.8665 C   0  0  0  0  0  0  0  0  0  0  0  0
    1.2743    1.6862    4.2578 C   0  0  0  0  0  0  0  0  0  0  0  0
   -1.5419   -7.3278    4.0217 C   0  0  0  0  0  0  0  0  0  0  0  0
   -0.6518    1.1321    2.3107 C   0  0  0  0  0  0  0  0  0  0  0  0
    1.1258    0.3847    3.7804 C   0  0  0  0  0  0  0  0  0  0  0  0
    0.5755   -3.7020    1.0556 C   0  0  0  0  0  0  0  0  0  0  0  0
   -2.0064   -8.4427    4.7413 C   0  0  0  0  0  0  0  0  0  0  0  0
   -4.1058  -11.0510    5.8579 C   0  0  0  0  0  0  0  0  0  0  0  0
    0.5072   -8.4361    3.4930 C   0  0  0  0  0  0  0  0  0  0  0  0
   -3.7688  -10.4890    8.5673 C   0  0  0  0  0  0  0  0  0  0  0  0
   -0.9780  -11.2738    9.5081 C   0  0  0  0  0  0  0  0  0  0  0  0
   -0.3628   -9.4087    8.5228 C   0  0  0  0  0  0  0  0  0  0  0  0
   -6.6868  -11.4682    6.7820 C   0  0  0  0  0  0  0  0  0  0  0  0
    0.5951   -1.2979    0.7529 C   0  0  0  0  0  0  0  0  0  0  0  0
   -5.2581  -11.1696    6.7241 C   0  0  0  0  0  0  0  0  0  0  0  0
   -1.3590  -10.4094    8.4951 C   0  0  0  0  0  0  0  0  0  0  0  0
    0.4290    2.6866    3.7916 C   0  0  0  0  0  0  0  0  0  0  0  0
   -0.2914   -7.3006    3.3892 C   0  0  0  0  0  0  0  0  0  0  0  0
    0.2181    0.1223    2.7454 C   0  0  0  0  0  0  0  0  0  0  0  0
    0.1170   -3.6458    2.3173 C   0  0  0  0  0  0  0  0  0  0  0  0
   -2.6204  -10.5413    7.7742 C   0  0  0  0  0  0  0  0  0  0  0  0
    0.0820   -9.5123    4.3211 C   0  0  0  0  0  0  0  0  0  0  0  0
   -5.0266  -10.7564    8.0251 C   0  0  0  0  0  0  0  0  0  0  0  0
   -1.2015   -9.5552    4.9257 C   0  0  0  0  0  0  0  0  0  0  0  0
   -2.7846  -10.7106    6.3905 C   0  0  0  0  0  0  0  0  0  0  0  0
   -0.1564   -4.8595    3.1610 C   0  0  0  0  0  0  0  0  0  0  0  0
   -0.1406   -2.2587    2.9002 C   0  0  0  0  0  0  0  0  0  0  0  0
    0.5873    3.9413    4.2320 F   0  0  0  0  0  0  0  0  0  0  0  0
    0.9640  -10.5045    4.5325 F   0  0  0  0  0  0  0  0  0  0  0  0
    0.1984  -10.7960   10.0091 N   0  0  0  0  0  0  0  0  0  0  0  0
    0.5842   -9.6439    9.4408 N   0  0  0  0  0  0  0  0  0  0  0  0
   -7.2671  -10.7237    7.7390 N   0  0  0  0  0  0  0  0  0  0  0  0
    0.1114   -6.1335    2.6674 N   0  0  0  0  0  0  0  0  0  0  0  0
   -6.2568  -10.6829    8.6103 N   0  0  0  0  0  0  0  0  0  0  0  0
    0.2514   -1.1521    2.0988 N   0  0  0  0  0  0  0  0  0  0  0  0
   -0.6181   -4.7072    4.3084 O   0  0  0  0  0  0  0  0  0  0  0  0
   -0.6309   -2.1158    4.0026 O   0  0  0  0  0  0  0  0  0  0  0  0
   -1.6376  -10.7124    5.5738 O   0  0  0  0  0  0  0  0  0  0  0  0
    0.6765    0.8529    0.2653 H   0  0  0  0  0  0  0  0  0  0  0  0
    0.6693   -0.2085   -1.1203 H   0  0  0  0  0  0  0  0  0  0  0  0
    2.1149   -0.0741   -0.0953 H   0  0  0  0  0  0  0  0  0  0  0  0
   -7.3051  -10.2837   10.3335 H   0  0  0  0  0  0  0  0  0  0  0  0
   -6.7492  -11.9969   10.0885 H   0  0  0  0  0  0  0  0  0  0  0  0
   -5.5824  -10.7355   10.5497 H   0  0  0  0  0  0  0  0  0  0  0  0
    0.8038   -2.6771   -0.8460 H   0  0  0  0  0  0  0  0  0  0  0  0
   -1.2624    3.1893    2.5684 H   0  0  0  0  0  0  0  0  0  0  0  0
    2.0473    1.9247    4.9806 H   0  0  0  0  0  0  0  0  0  0  0  0
   -2.2101   -6.4748    3.9298 H   0  0  0  0  0  0  0  0  0  0  0  0
   -1.3833    0.9303    1.5329 H   0  0  0  0  0  0  0  0  0  0  0  0
    1.7471   -0.4107    4.1841 H   0  0  0  0  0  0  0  0  0  0  0  0
    0.9408   -4.6135    0.5996 H   0  0  0  0  0  0  0  0  0  0  0  0
   -3.0161   -8.4106    5.1290 H   0  0  0  0  0  0  0  0  0  0  0  0
   -4.2544  -11.0606    4.7809 H   0  0  0  0  0  0  0  0  0  0  0  0
    1.4784   -8.4927    3.0048 H   0  0  0  0  0  0  0  0  0  0  0  0
   -3.6973  -10.1767    9.6027 H   0  0  0  0  0  0  0  0  0  0  0  0
   -1.4235  -12.1747    9.9062 H   0  0  0  0  0  0  0  0  0  0  0  0
   -0.2910   -8.5040    7.9343 H   0  0  0  0  0  0  0  0  0  0  0  0
   -7.2735  -12.3860    6.6608 H   0  0  0  0  0  0  0  0  0  0  0  0
    0.7804  -11.1945   10.7406 H   0  0  0  0  0  0  0  0  0  0  0  0
    0.7208   -6.2564    1.8690 H   0  0  0  0  0  0  0  0  0  0  0  0
  1 42  1  0  0  0  0
  1 43  1  0  0  0  0
  1 44  1  0  0  0  0
  2 45  1  0  0  0  0
  2 46  1  0  0  0  0
  2 47  1  0  0  0  0
  3 48  1  0  0  0  0
  4 49  1  0  0  0  0
  5 50  1  0  0  0  0
  6 51  1  0  0  0  0
  7  4  1  0  0  0  0
  7 52  1  0  0  0  0
  8  5  2  0  0  0  0
  8 53  1  0  0  0  0
  9  3  1  0  0  0  0
  9 54  1  0  0  0  0
 10  6  2  0  0  0  0
 10 55  1  0  0  0  0
 11 56  1  0  0  0  0
 12 57  1  0  0  0  0
 13 58  1  0  0  0  0
 14 59  1  0  0  0  0
 15 60  1  0  0  0  0
 16 61  1  0  0  0  0
 17  1  1  0  0  0  0
 17  3  2  0  0  0  0
 18 11  2  0  0  0  0
 18 16  1  0  0  0  0
 19 14  2  0  0  0  0
 19 15  1  0  0  0  0
 20  4  2  0  0  0  0
 20  5  1  0  0  0  0
 21  6  1  0  0  0  0
 21 12  2  0  0  0  0
 22  7  2  0  0  0  0
 22  8  1  0  0  0  0
 23  9  2  0  0  0  0
 24 13  1  0  0  0  0
 24 19  1  0  0  0  0
 25 12  1  0  0  0  0
 26 13  2  0  0  0  0
 26 18  1  0  0  0  0
 27 10  1  0  0  0  0
 27 25  2  0  0  0  0
 28 11  1  0  0  0  0
 28 24  2  0  0  0  0
 29 23  1  0  0  0  0
 30 23  1  0  0  0  0
 31 20  1  0  0  0  0
 32 25  1  0  0  0  0
 33 14  1  0  0  0  0
 33 62  1  0  0  0  0
 34 15  2  0  0  0  0
 34 33  1  0  0  0  0
 35 16  2  0  0  0  0
 36 21  1  0  0  0  0
 36 29  1  0  0  0  0
 36 63  1  0  0  0  0
 37  2  1  0  0  0  0
 37 26  1  0  0  0  0
 37 35  1  0  0  0  0
 38 17  1  0  0  0  0
 38 22  1  0  0  0  0
 38 30  1  0  0  0  0
 39 29  2  0  0  0  0
 40 30  2  0  0  0  0
 41 27  1  0  0  0  0
 41 28  1  0  0  0  0
M  END
>  <DRUGBANK_ID>
DB12381

>  <COMMON_NAME>
Merestinib

>  <CAS_NUMBER>
1206799-15-6

>  <UNII>
5OGS5K699E

>  <SYNONYMS>
Merestinib

$$$$
