992
 OpenBabel10282417113D

 21 20  0  0  0  0  0  0  0  0999 V2000
    1.0773   -0.7206    0.0355 O   0  0  0  0  0  0  0  0  0  0  0  0
   -2.1841    1.9110   -0.9608 O   0  0  0  0  0  0  0  0  0  0  0  0
    0.9477   -1.2160    2.2594 O   0  0  0  0  0  0  0  0  0  0  0  0
    0.8434    2.3749    0.6868 N   0  0  0  0  0  0  0  0  0  0  0  0
   -1.5967    0.7041    1.0359 C   0  0  0  0  0  0  0  0  0  0  0  0
   -1.0881   -0.7364    1.0166 C   0  0  0  0  0  0  0  0  0  0  0  0
   -1.2821    1.5418   -0.2032 C   0  0  0  0  0  0  0  0  0  0  0  0
    0.1587    1.9043   -0.5170 C   0  0  0  0  0  0  0  0  0  0  0  0
    0.4151   -0.9179    1.2070 C   0  0  0  0  0  0  0  0  0  0  0  0
    2.4732   -0.3703    0.1011 C   0  0  0  0  0  0  0  0  0  0  0  0
    1.8437    2.4642    0.5120 H   0  0  0  0  0  0  0  0  0  0  0  0
    0.5181    3.3206    0.8942 H   0  0  0  0  0  0  0  0  0  0  0  0
   -2.6963    0.6697    1.0926 H   0  0  0  0  0  0  0  0  0  0  0  0
   -1.2772    1.2395    1.9359 H   0  0  0  0  0  0  0  0  0  0  0  0
   -1.4160   -1.2604    0.1130 H   0  0  0  0  0  0  0  0  0  0  0  0
   -1.5609   -1.2662    1.8562 H   0  0  0  0  0  0  0  0  0  0  0  0
    0.6122    1.0324   -0.9705 H   0  0  0  0  0  0  0  0  0  0  0  0
    0.2226    2.6547   -1.3059 H   0  0  0  0  0  0  0  0  0  0  0  0
    2.7017    0.2564   -0.7737 H   0  0  0  0  0  0  0  0  0  0  0  0
    2.7218    0.2250    0.9871 H   0  0  0  0  0  0  0  0  0  0  0  0
    3.0816   -1.2697    0.0345 H   0  0  0  0  0  0  0  0  0  0  0  0
  1  9  1  0  0  0  0
  1 10  1  0  0  0  0
  2  7  2  0  0  0  0
  3  9  2  0  0  0  0
  4  8  1  0  0  0  0
  4 11  1  0  0  0  0
  4 12  1  0  0  0  0
  5  6  1  0  0  0  0
  5  7  1  0  0  0  0
  5 13  1  0  0  0  0
  5 14  1  0  0  0  0
  6  9  1  0  0  0  0
  6 15  1  0  0  0  0
  6 16  1  0  0  0  0
  7  8  1  0  0  0  0
  8 17  1  0  0  0  0
  8 18  1  0  0  0  0
 10 19  1  0  0  0  0
 10 20  1  0  0  0  0
 10 21  1  0  0  0  0
M  END
>  <DRUGBANK_ID>
DB00992

>  <SECONDARY_ACCESSION_NUMBERS>
APRD01105

>  <COMMON_NAME>
Methyl aminolevulinate

>  <CAS_NUMBER>
33320-16-0

>  <UNII>
585NM85KYM

>  <SYNONYMS>
5-aminolevulinic acid methyl ester; Aminolevulinato de metilo; Aminolevulinic acid methyl ester; methyl 5-aminolevulinate; Methyl aminolevulinate; Methyl delta-aminolevulinate; methyl Î´-aminolevulinate

$$$$
