
 OpenBabel10282417133D

 20 20  0  0  1  0  0  0  0  0999 V2000
    1.0298    0.0238   -0.0151 O   0  0  0  0  0  0  0  0  0  0  0  0
    0.4766    0.1996    1.2828 C   0  0  0  0  0  0  0  0  0  0  0  0
    0.9242   -0.8629    2.2974 C   0  0  2  0  0  0  0  0  0  0  0  0
    1.0958   -2.1628    1.7110 O   0  0  0  0  0  0  0  0  0  0  0  0
    0.6387   -3.1515    2.6432 C   0  0  1  0  0  0  0  0  0  0  0  0
    1.6596   -4.0994    2.9119 O   0  0  0  0  0  0  0  0  0  0  0  0
    0.2266   -2.4139    3.9264 C   0  0  2  0  0  0  0  0  0  0  0  0
   -0.8516   -3.0532    4.6044 O   0  0  0  0  0  0  0  0  0  0  0  0
   -0.1075   -1.0287    3.4087 C   0  0  1  0  0  0  0  0  0  0  0  0
   -0.0254   -0.0097    4.3936 O   0  0  0  0  0  0  0  0  0  0  0  0
    1.9651   -0.2262    0.0829 H   0  0  0  0  0  0  0  0  0  0  0  0
    0.7659    1.1934    1.6416 H   0  0  0  0  0  0  0  0  0  0  0  0
   -0.6120    0.2032    1.1686 H   0  0  0  0  0  0  0  0  0  0  0  0
    1.9011   -0.5686    2.7031 H   0  0  0  0  0  0  0  0  0  0  0  0
   -0.2027   -3.6890    2.1934 H   0  0  0  0  0  0  0  0  0  0  0  0
    1.6212   -4.3161    3.8607 H   0  0  0  0  0  0  0  0  0  0  0  0
    1.0540   -2.3677    4.6439 H   0  0  0  0  0  0  0  0  0  0  0  0
   -1.6326   -3.0526    4.0204 H   0  0  0  0  0  0  0  0  0  0  0  0
   -1.1309   -1.0215    3.0142 H   0  0  0  0  0  0  0  0  0  0  0  0
    0.8196   -0.0966    4.8733 H   0  0  0  0  0  0  0  0  0  0  0  0
  1  2  1  0  0  0  0
  1 11  1  0  0  0  0
  2 12  1  0  0  0  0
  2 13  1  0  0  0  0
  3  2  1  0  0  0  0
  3  4  1  0  0  0  0
  3  9  1  0  0  0  0
  3 14  1  1  0  0  0
  4  5  1  0  0  0  0
  5  7  1  0  0  0  0
  5 15  1  6  0  0  0
  5  6  1  0  0  0  0
  6 16  1  0  0  0  0
  7  8  1  0  0  0  0
  7  9  1  0  0  0  0
  7 17  1  1  0  0  0
  8 18  1  0  0  0  0
  9 10  1  0  0  0  0
  9 19  1  6  0  0  0
 10 20  1  0  0  0  0
M  END
>  <DRUGBANK_ID>
DB03142

>  <SECONDARY_ACCESSION_NUMBERS>
EXPT00554; DB02769

>  <COMMON_NAME>
Alpha-L-Arabinose

>  <UNII>
R0L7IU6KYJ

$$$$
