
 OpenBabel10282417113D

 81 87  0  0  0  0  0  0  0  0999 V2000
    4.5996    0.1922   -0.0996 C   0  0  0  0  0  0  0  0  0  0  0  0
    4.3193   -1.1659   -0.0213 C   0  0  0  0  0  0  0  0  0  0  0  0
    2.9614   -1.6123    0.0009 C   0  0  0  0  0  0  0  0  0  0  0  0
    1.8501   -0.7458   -0.0092 C   0  0  0  0  0  0  0  0  0  0  0  0
    2.1728    0.6336   -0.0600 C   0  0  0  0  0  0  0  0  0  0  0  0
    3.5163    1.0459   -0.1511 C   0  0  0  0  0  0  0  0  0  0  0  0
    0.5480   -1.1890    0.0385 N   0  0  0  0  0  0  0  0  0  0  0  0
   -0.4133   -0.2399    0.0123 C   0  0  0  0  0  0  0  0  0  0  0  0
   -0.1522    1.1340   -0.0404 C   0  0  0  0  0  0  0  0  0  0  0  0
    1.1509    1.6039   -0.0321 C   0  0  0  0  0  0  0  0  0  0  0  0
    5.9483    0.6852   -0.1615 O   0  0  0  0  0  0  0  0  0  0  0  0
    6.2967    2.0628   -0.0071 C   0  0  0  0  0  0  0  0  0  0  0  0
    5.4937    2.9837    0.1158 O   0  0  0  0  0  0  0  0  0  0  0  0
    7.6550    2.3083    0.1570 N   0  0  0  0  0  0  0  0  0  0  0  0
    8.0365    3.4320    0.9930 C   0  0  0  0  0  0  0  0  0  0  0  0
    8.5037    4.6219    0.1927 C   0  0  0  0  0  0  0  0  0  0  0  0
    9.6041    4.2581   -0.8206 C   0  0  3  0  0  0  0  0  0  0  0  0
    9.2155    2.9942   -1.6363 C   0  0  0  0  0  0  0  0  0  0  0  0
    8.6825    1.8457   -0.7625 C   0  0  0  0  0  0  0  0  0  0  0  0
    9.9480    5.4092   -1.7071 N   0  0  0  0  0  0  0  0  0  0  0  0
    8.7789    5.8314   -2.5012 C   0  0  0  0  0  0  0  0  0  0  0  0
    9.0600    6.9956   -3.4270 C   0  0  0  0  0  0  0  0  0  0  0  0
    9.5812    8.1781   -2.6320 C   0  0  0  0  0  0  0  0  0  0  0  0
   10.7939    7.7647   -1.8059 C   0  0  0  0  0  0  0  0  0  0  0  0
   10.4788    6.5511   -0.9297 C   0  0  0  0  0  0  0  0  0  0  0  0
   -1.8837   -0.3731    0.2324 C   0  0  0  0  0  0  0  0  0  0  0  0
   -2.4304    0.8831    0.0222 N   0  0  0  0  0  0  0  0  0  0  0  0
   -1.4229    1.9211   -0.0236 C   0  0  0  0  0  0  0  0  0  0  0  0
   -3.7824    1.1424   -0.0935 C   0  0  0  0  0  0  0  0  0  0  0  0
   -4.6362   -0.0687    0.0778 C   0  0  0  0  0  0  0  0  0  0  0  0
   -4.1263   -0.9212    1.0102 C   0  0  0  0  0  0  0  0  0  0  0  0
   -2.7296   -1.3525    0.6338 C   0  0  0  0  0  0  0  0  0  0  0  0
   -5.2837   -1.4573    1.9163 C   0  0  2  0  0  0  0  0  0  0  0  0
   -6.0911   -0.0109    2.2211 C   0  0  0  0  0  0  0  0  0  0  0  0
   -6.6256    0.5861    1.1226 O   0  0  0  0  0  0  0  0  0  0  0  0
   -6.1203    0.0391   -0.0779 C   0  0  0  0  0  0  0  0  0  0  0  0
   -4.2677    2.2364   -0.2151 O   0  0  0  0  0  0  0  0  0  0  0  0
   -6.2420    0.5007    3.3299 O   0  0  0  0  0  0  0  0  0  0  0  0
    1.4485    3.0908    0.0330 C   0  0  0  0  0  0  0  0  0  0  0  0
    2.1885    3.5140    1.3077 C   0  0  0  0  0  0  0  0  0  0  0  0
   -5.9996   -2.2198    3.1146 C   0  0  0  0  0  0  0  0  0  0  0  0
   -5.4411   -2.5672    1.0447 O   0  0  0  0  0  0  0  0  0  0  0  0
   -7.4847   -2.5256    2.6264 C   0  0  0  0  0  0  0  0  0  0  0  0
    5.1217   -1.8982    0.0040 H   0  0  0  0  0  0  0  0  0  0  0  0
    2.7645   -2.6837    0.0244 H   0  0  0  0  0  0  0  0  0  0  0  0
    3.6991    2.0953   -0.2921 H   0  0  0  0  0  0  0  0  0  0  0  0
    8.8358    3.0876    1.6527 H   0  0  0  0  0  0  0  0  0  0  0  0
    7.1971    3.7506    1.6219 H   0  0  0  0  0  0  0  0  0  0  0  0
    8.8606    5.3831    0.8949 H   0  0  0  0  0  0  0  0  0  0  0  0
    7.6258    5.0357   -0.3084 H   0  0  0  0  0  0  0  0  0  0  0  0
   10.5135    3.9911   -0.2589 H   0  0  0  0  0  0  0  0  0  0  0  0
    8.4279    3.2236   -2.3584 H   0  0  0  0  0  0  0  0  0  0  0  0
   10.0818    2.6538   -2.2202 H   0  0  0  0  0  0  0  0  0  0  0  0
    8.2865    1.0563   -1.4079 H   0  0  0  0  0  0  0  0  0  0  0  0
    9.4969    1.4433   -0.1547 H   0  0  0  0  0  0  0  0  0  0  0  0
    7.9548    6.1438   -1.8548 H   0  0  0  0  0  0  0  0  0  0  0  0
    8.4151    5.0174   -3.1301 H   0  0  0  0  0  0  0  0  0  0  0  0
    8.1229    7.2647   -3.9279 H   0  0  0  0  0  0  0  0  0  0  0  0
    9.7756    6.6939   -4.1989 H   0  0  0  0  0  0  0  0  0  0  0  0
    9.8358    8.9962   -3.3103 H   0  0  0  0  0  0  0  0  0  0  0  0
    8.7902    8.5416   -1.9621 H   0  0  0  0  0  0  0  0  0  0  0  0
   11.6364    7.5365   -2.4678 H   0  0  0  0  0  0  0  0  0  0  0  0
   11.0958    8.6025   -1.1664 H   0  0  0  0  0  0  0  0  0  0  0  0
   11.3897    6.2555   -0.3931 H   0  0  0  0  0  0  0  0  0  0  0  0
    9.7580    6.8867   -0.1761 H   0  0  0  0  0  0  0  0  0  0  0  0
   -1.5543    2.5408   -0.9138 H   0  0  0  0  0  0  0  0  0  0  0  0
   -1.5149    2.5205    0.8886 H   0  0  0  0  0  0  0  0  0  0  0  0
   -2.4106   -2.3914    0.5714 H   0  0  0  0  0  0  0  0  0  0  0  0
   -6.4381    0.6330   -0.9346 H   0  0  0  0  0  0  0  0  0  0  0  0
   -6.6049   -0.9403   -0.2158 H   0  0  0  0  0  0  0  0  0  0  0  0
    2.0187    3.3747   -0.8609 H   0  0  0  0  0  0  0  0  0  0  0  0
    0.5235    3.6731   -0.0201 H   0  0  0  0  0  0  0  0  0  0  0  0
    3.1560    3.0249    1.4488 H   0  0  0  0  0  0  0  0  0  0  0  0
    2.3923    4.5884    1.2856 H   0  0  0  0  0  0  0  0  0  0  0  0
    1.6005    3.2757    2.1977 H   0  0  0  0  0  0  0  0  0  0  0  0
   -5.5282   -3.1765    3.3616 H   0  0  0  0  0  0  0  0  0  0  0  0
   -6.1079   -1.6835    4.0688 H   0  0  0  0  0  0  0  0  0  0  0  0
   -4.7237   -3.1714    1.3228 H   0  0  0  0  0  0  0  0  0  0  0  0
   -7.5100   -2.9848    1.6285 H   0  0  0  0  0  0  0  0  0  0  0  0
   -8.0151   -3.2123    3.2887 H   0  0  0  0  0  0  0  0  0  0  0  0
   -8.0867   -1.6101    2.5442 H   0  0  0  0  0  0  0  0  0  0  0  0
  1  2  2  0  0  0  0
  1  6  1  0  0  0  0
  1 11  1  0  0  0  0
  2  3  1  0  0  0  0
  2 44  1  0  0  0  0
  3  4  2  0  0  0  0
  3 45  1  0  0  0  0
  4  5  1  0  0  0  0
  4  7  1  0  0  0  0
  5  6  2  0  0  0  0
  5 10  1  0  0  0  0
  6 46  1  0  0  0  0
  7  8  2  0  0  0  0
  8  9  1  0  0  0  0
  8 26  1  0  0  0  0
  9 10  2  0  0  0  0
  9 28  1  0  0  0  0
 10 39  1  0  0  0  0
 11 12  1  0  0  0  0
 12 13  2  0  0  0  0
 12 14  1  0  0  0  0
 14 15  1  0  0  0  0
 14 19  1  0  0  0  0
 15 16  1  0  0  0  0
 15 47  1  0  0  0  0
 15 48  1  0  0  0  0
 16 17  1  0  0  0  0
 16 49  1  0  0  0  0
 16 50  1  0  0  0  0
 17 18  1  0  0  0  0
 17 20  1  0  0  0  0
 17 51  1  0  0  0  0
 18 19  1  0  0  0  0
 18 52  1  0  0  0  0
 18 53  1  0  0  0  0
 19 54  1  0  0  0  0
 19 55  1  0  0  0  0
 20 21  1  0  0  0  0
 20 25  1  0  0  0  0
 21 22  1  0  0  0  0
 21 56  1  0  0  0  0
 21 57  1  0  0  0  0
 22 23  1  0  0  0  0
 22 58  1  0  0  0  0
 22 59  1  0  0  0  0
 23 24  1  0  0  0  0
 23 60  1  0  0  0  0
 23 61  1  0  0  0  0
 24 25  1  0  0  0  0
 24 62  1  0  0  0  0
 24 63  1  0  0  0  0
 25 64  1  0  0  0  0
 25 65  1  0  0  0  0
 26 27  1  0  0  0  0
 27 28  1  0  0  0  0
 27 29  1  0  0  0  0
 28 66  1  0  0  0  0
 28 67  1  0  0  0  0
 29 30  1  0  0  0  0
 29 37  2  0  0  0  0
 30 31  2  0  0  0  0
 30 36  1  0  0  0  0
 31 32  1  0  0  0  0
 31 33  1  0  0  0  0
 32 26  2  0  0  0  0
 32 68  1  0  0  0  0
 33 34  1  0  0  0  0
 33 41  1  0  0  0  0
 33 42  1  6  0  0  0
 34 35  1  0  0  0  0
 34 38  2  0  0  0  0
 35 36  1  0  0  0  0
 36 69  1  0  0  0  0
 36 70  1  0  0  0  0
 39 40  1  0  0  0  0
 39 71  1  0  0  0  0
 39 72  1  0  0  0  0
 40 73  1  0  0  0  0
 40 74  1  0  0  0  0
 40 75  1  0  0  0  0
 41 43  1  0  0  0  0
 41 76  1  0  0  0  0
 41 77  1  0  0  0  0
 42 78  1  0  0  0  0
 43 79  1  0  0  0  0
 43 80  1  0  0  0  0
 43 81  1  0  0  0  0
M  END
>  <DRUGBANK_ID>
DB00762

>  <SECONDARY_ACCESSION_NUMBERS>
APRD00579

>  <COMMON_NAME>
Irinotecan

>  <CAS_NUMBER>
97682-44-5

>  <UNII>
7673326042

>  <SYNONYMS>
(+)-Irinotecan; (S)-4,11-diethyl-4-hydroxy-3,14-dioxo-3,4,12,14-tetrahydro-1H-pyrano[3',4':6,7]indolizino[1,2-b]quinolin-9-yl 4-(2-(5-(3-(2,4-dihydroxy-5-isopropylphenyl)-5-hydroxy-4H-1,2,4-triazol-4-yl)-1H-indol-1-yl)ethyl)piperidine-1-carboxylate; Irinotecan; Irinotecan lactone; Irinotecan liposome injection; Irinotecanum

$$$$
