
 OpenBabel10282417193D

 79 83  0  0  1  0  0  0  0  0999 V2000
    1.0170   -0.0421    0.0678 C   0  0  0  0  0  0  0  0  0  0  0  0
    0.5361    1.3288    0.4462 C   0  0  0  0  0  0  0  0  0  0  0  0
    1.2317    2.4712    0.0041 C   0  0  0  0  0  0  0  0  0  0  0  0
    0.8092    3.7043    0.3108 N   0  0  0  0  0  0  0  0  0  0  0  0
   -0.3358    3.8078    1.0109 C   0  0  0  0  0  0  0  0  0  0  0  0
   -1.0964    2.7699    1.4145 N   0  0  0  0  0  0  0  0  0  0  0  0
   -0.6565    1.5230    1.1543 C   0  0  0  0  0  0  0  0  0  0  0  0
   -1.4328    0.4837    1.6329 N   0  0  0  0  0  0  0  0  0  0  0  0
   -2.7431    0.2089    1.0595 C   0  0  0  0  0  0  0  0  0  0  0  0
   -3.7677    0.0250    2.1835 C   0  0  0  0  0  0  0  0  0  0  0  0
   -3.3176   -1.0514    3.1874 C   0  0  3  0  0  0  0  0  0  0  0  0
   -1.8672   -0.7413    3.6647 C   0  0  0  0  0  0  0  0  0  0  0  0
   -0.9101   -0.5506    2.5091 C   0  0  0  0  0  0  0  0  0  0  0  0
   -4.2256   -1.1438    4.3837 C   0  0  0  0  0  0  0  0  0  0  0  0
   -5.6083   -1.1722    4.3891 C   0  0  0  0  0  0  0  0  0  0  0  0
   -6.2575   -0.8413    5.6002 C   0  0  0  0  0  0  0  0  0  0  0  0
   -5.4489   -0.5383    6.6952 C   0  0  0  0  0  0  0  0  0  0  0  0
   -4.2519   -1.2058    6.6594 C   0  0  0  0  0  0  0  0  0  0  0  0
   -3.5756   -1.2938    5.5353 N   0  0  0  0  0  0  0  0  0  0  0  0
   -3.5697   -1.4662    7.8639 N   0  0  0  0  0  0  0  0  0  0  0  0
   -2.8688   -0.2378    8.0976 C   0  0  0  0  0  0  0  0  0  0  0  0
   -3.9839    0.8303    8.3274 C   0  0  0  0  0  0  0  0  0  0  0  0
   -5.5351    0.2574    7.9862 C   0  0  0  0  0  0  0  0  0  0  0  0
   -0.7996    5.1914    1.3704 C   0  0  0  0  0  0  0  0  0  0  0  0
    2.3082    2.3376   -0.8698 N   0  0  0  0  0  0  0  0  0  0  0  0
    3.2152    3.4291   -1.2472 C   0  0  0  0  0  0  0  0  0  0  0  0
    4.6632    3.2416   -0.7045 C   0  0  1  0  0  0  0  0  0  0  0  0
    5.2430    1.9541   -1.3026 C   0  0  0  0  0  0  0  0  0  0  0  0
    6.0104    1.8583   -2.2145 O   0  0  0  0  0  0  0  0  0  0  0  0
    4.7388    0.8308   -0.7297 O   0  0  0  0  0  0  0  0  0  0  0  0
    5.5365    4.4107   -1.0828 N   0  0  0  0  0  0  0  0  0  0  0  0
    7.1388    4.4501   -0.4983 S   0  0  0  0  0  0  0  0  0  0  0  0
    7.8212    3.2325   -0.8454 O   0  0  0  0  0  0  0  0  0  0  0  0
    7.6792    5.7360   -0.8990 O   0  0  0  0  0  0  0  0  0  0  0  0
    6.9572    4.4494    1.2632 C   0  0  0  0  0  0  0  0  0  0  0  0
    6.9385    5.6519    1.9635 C   0  0  0  0  0  0  0  0  0  0  0  0
    6.8868    5.6313    3.3593 C   0  0  0  0  0  0  0  0  0  0  0  0
    6.8580    4.4171    4.0532 C   0  0  0  0  0  0  0  0  0  0  0  0
    6.8867    3.2163    3.3394 C   0  0  0  0  0  0  0  0  0  0  0  0
    6.9508    3.2269    1.9463 C   0  0  0  0  0  0  0  0  0  0  0  0
    6.8138    4.2793    5.4139 O   0  0  0  0  0  0  0  0  0  0  0  0
    6.7942    5.4855    6.1691 C   0  0  0  0  0  0  0  0  0  0  0  0
    0.6519   -0.3090   -0.9269 H   0  0  0  0  0  0  0  0  0  0  0  0
    0.7086   -0.8184    0.7604 H   0  0  0  0  0  0  0  0  0  0  0  0
    2.1078   -0.1026    0.0963 H   0  0  0  0  0  0  0  0  0  0  0  0
   -2.6835   -0.7277    0.4875 H   0  0  0  0  0  0  0  0  0  0  0  0
   -3.0784    0.9865    0.3662 H   0  0  0  0  0  0  0  0  0  0  0  0
   -4.7364   -0.2526    1.7516 H   0  0  0  0  0  0  0  0  0  0  0  0
   -3.9113    0.9838    2.6996 H   0  0  0  0  0  0  0  0  0  0  0  0
   -3.3270   -2.0378    2.7105 H   0  0  0  0  0  0  0  0  0  0  0  0
   -1.8543    0.1698    4.2818 H   0  0  0  0  0  0  0  0  0  0  0  0
   -1.4903   -1.5579    4.2960 H   0  0  0  0  0  0  0  0  0  0  0  0
    0.0822   -0.3041    2.9037 H   0  0  0  0  0  0  0  0  0  0  0  0
   -0.8417   -1.5029    1.9689 H   0  0  0  0  0  0  0  0  0  0  0  0
   -6.1487   -1.4119    3.4782 H   0  0  0  0  0  0  0  0  0  0  0  0
   -7.3457   -0.8686    5.6153 H   0  0  0  0  0  0  0  0  0  0  0  0
   -4.2535   -1.5983    8.6082 H   0  0  0  0  0  0  0  0  0  0  0  0
   -2.2258   -0.4017    8.9689 H   0  0  0  0  0  0  0  0  0  0  0  0
   -2.1730   -0.0183    7.2668 H   0  0  0  0  0  0  0  0  0  0  0  0
   -3.8573    1.1672    9.3641 H   0  0  0  0  0  0  0  0  0  0  0  0
   -3.7397    1.6993    7.6938 H   0  0  0  0  0  0  0  0  0  0  0  0
   -6.2731    1.0689    8.0395 H   0  0  0  0  0  0  0  0  0  0  0  0
   -5.8643   -0.4693    8.7425 H   0  0  0  0  0  0  0  0  0  0  0  0
   -1.7981    5.3773    0.9630 H   0  0  0  0  0  0  0  0  0  0  0  0
   -0.8368    5.3103    2.4581 H   0  0  0  0  0  0  0  0  0  0  0  0
   -0.1232    5.9558    0.9714 H   0  0  0  0  0  0  0  0  0  0  0  0
    2.7229    1.4154   -0.9227 H   0  0  0  0  0  0  0  0  0  0  0  0
    3.2537    3.4311   -2.3443 H   0  0  0  0  0  0  0  0  0  0  0  0
    2.8256    4.4104   -0.9555 H   0  0  0  0  0  0  0  0  0  0  0  0
    4.6243    3.1839    0.3864 H   0  0  0  0  0  0  0  0  0  0  0  0
    5.2339    0.1221   -1.1993 H   0  0  0  0  0  0  0  0  0  0  0  0
    5.5879    4.5460   -2.0983 H   0  0  0  0  0  0  0  0  0  0  0  0
    6.9817    6.6032    1.4379 H   0  0  0  0  0  0  0  0  0  0  0  0
    6.8821    6.5839    3.8778 H   0  0  0  0  0  0  0  0  0  0  0  0
    6.8749    2.2676    3.8720 H   0  0  0  0  0  0  0  0  0  0  0  0
    7.0069    2.2832    1.4082 H   0  0  0  0  0  0  0  0  0  0  0  0
    7.7075    6.0673    6.0037 H   0  0  0  0  0  0  0  0  0  0  0  0
    5.9018    6.0772    5.9389 H   0  0  0  0  0  0  0  0  0  0  0  0
    6.7548    5.2227    7.2301 H   0  0  0  0  0  0  0  0  0  0  0  0
  1  2  1  0  0  0  0
  1 43  1  0  0  0  0
  1 44  1  0  0  0  0
  1 45  1  0  0  0  0
  2  3  2  0  0  0  0
  2  7  1  0  0  0  0
  3  4  1  0  0  0  0
  3 25  1  0  0  0  0
  4  5  2  0  0  0  0
  5  6  1  0  0  0  0
  5 24  1  0  0  0  0
  6  7  2  0  0  0  0
  7  8  1  0  0  0  0
  8  9  1  0  0  0  0
  8 13  1  0  0  0  0
  9 10  1  0  0  0  0
  9 46  1  0  0  0  0
  9 47  1  0  0  0  0
 10 11  1  0  0  0  0
 10 48  1  0  0  0  0
 10 49  1  0  0  0  0
 11 12  1  0  0  0  0
 11 14  1  0  0  0  0
 11 50  1  0  0  0  0
 12 13  1  0  0  0  0
 12 51  1  0  0  0  0
 12 52  1  0  0  0  0
 13 53  1  0  0  0  0
 13 54  1  0  0  0  0
 14 15  2  0  0  0  0
 14 19  1  0  0  0  0
 15 16  1  0  0  0  0
 15 55  1  0  0  0  0
 16 17  2  0  0  0  0
 16 56  1  0  0  0  0
 17 18  1  0  0  0  0
 17 23  1  0  0  0  0
 18 19  2  0  0  0  0
 18 20  1  0  0  0  0
 20 21  1  0  0  0  0
 20 57  1  0  0  0  0
 21 22  1  0  0  0  0
 21 58  1  0  0  0  0
 21 59  1  0  0  0  0
 22 23  1  0  0  0  0
 22 60  1  0  0  0  0
 22 61  1  0  0  0  0
 23 62  1  0  0  0  0
 23 63  1  0  0  0  0
 24 64  1  0  0  0  0
 24 65  1  0  0  0  0
 24 66  1  0  0  0  0
 25 26  1  0  0  0  0
 25 67  1  0  0  0  0
 26 27  1  0  0  0  0
 26 68  1  0  0  0  0
 26 69  1  0  0  0  0
 27 28  1  0  0  0  0
 27 31  1  0  0  0  0
 27 70  1  1  0  0  0
 28 29  2  0  0  0  0
 28 30  1  0  0  0  0
 30 71  1  0  0  0  0
 31 32  1  0  0  0  0
 31 72  1  0  0  0  0
 32 33  2  0  0  0  0
 32 34  2  0  0  0  0
 32 35  1  0  0  0  0
 35 36  2  0  0  0  0
 35 40  1  0  0  0  0
 36 37  1  0  0  0  0
 36 73  1  0  0  0  0
 37 38  2  0  0  0  0
 37 74  1  0  0  0  0
 38 39  1  0  0  0  0
 38 41  1  0  0  0  0
 39 40  2  0  0  0  0
 39 75  1  0  0  0  0
 40 76  1  0  0  0  0
 41 42  1  0  0  0  0
 42 77  1  0  0  0  0
 42 78  1  0  0  0  0
 42 79  1  0  0  0  0
M  END
>  <DRUGBANK_ID>
DB12297

>  <COMMON_NAME>
GLPG-0187

>  <CAS_NUMBER>
1320346-97-1

>  <UNII>
43A5P87Z4T

$$$$
