
 OpenBabel10282417163D

 71 74  0  0  0  0  0  0  0  0999 V2000
   -3.7127   -1.3347   -0.0971 C   0  0  0  0  0  0  0  0  0  0  0  0
   -4.1495    0.0218    0.3903 C   0  0  0  0  0  0  0  0  0  0  0  0
   -3.1899    1.1412    0.2532 C   0  0  0  0  0  0  0  0  0  0  0  0
   -1.9396    0.9361   -0.1982 C   0  0  0  0  0  0  0  0  0  0  0  0
   -1.3247   -0.4531   -0.4197 C   0  0  2  0  0  0  0  0  0  0  0  0
   -2.2348   -1.5424    0.2129 C   0  0  0  0  0  0  0  0  0  0  0  0
   -1.0762    2.1218   -0.5500 C   0  0  0  0  0  0  0  0  0  0  0  0
    0.3367    2.0300    0.0096 C   0  0  0  0  0  0  0  0  0  0  0  0
    0.9945    0.6704   -0.2606 C   0  0  2  0  0  0  0  0  0  0  0  0
    0.0910   -0.4749    0.2764 C   0  0  2  0  0  0  0  0  0  0  0  0
    2.3764    0.5823    0.3936 C   0  0  1  0  0  0  0  0  0  0  0  0
    3.1045   -0.7564    0.1057 C   0  0  1  0  0  0  0  0  0  0  0  0
    2.2528   -1.8450    0.7788 C   0  0  0  0  0  0  0  0  0  0  0  0
    0.7995   -1.8574    0.2570 C   0  0  0  0  0  0  0  0  0  0  0  0
   -5.2896    0.2461    0.7880 O   0  0  0  0  0  0  0  0  0  0  0  0
   -1.2182   -0.7147   -1.9402 C   0  0  0  0  0  0  0  0  0  0  0  0
    1.1138    0.5780   -1.3452 H   0  0  0  0  0  0  0  0  0  0  0  0
    3.1978   -1.0210   -1.4211 C   0  0  0  0  0  0  0  0  0  0  0  0
   -0.0776   -0.2557    1.3439 H   0  0  0  0  0  0  0  0  0  0  0  0
    2.2241    0.6892    1.4793 H   0  0  0  0  0  0  0  0  0  0  0  0
    3.3825    1.6360   -0.0169 C   0  0  0  0  0  0  0  0  0  0  0  0
    4.7328    1.0223    0.3580 C   0  0  0  0  0  0  0  0  0  0  0  0
    4.5475   -0.4986    0.7273 C   0  0  2  0  0  0  0  0  0  0  0  0
    5.6768   -1.5007    0.1122 C   0  0  0  0  0  0  0  0  0  0  0  0
    5.5919   -2.0947   -0.9617 O   0  0  0  0  0  0  0  0  0  0  0  0
    6.9872   -1.7090    0.8036 C   0  0  0  0  0  0  0  0  0  0  0  0
    4.4190   -0.6049    2.1830 O   0  0  0  0  0  0  0  0  0  0  0  0
    5.3833   -0.3414    3.1156 C   0  0  0  0  0  0  0  0  0  0  0  0
    6.6731    0.2536    2.5834 C   0  0  0  0  0  0  0  0  0  0  0  0
    5.2536   -0.6981    4.2665 O   0  0  0  0  0  0  0  0  0  0  0  0
    7.3304    1.4736    3.1131 C   0  0  0  0  0  0  0  0  0  0  0  0
    7.7533    1.1878    4.5337 C   0  0  0  0  0  0  0  0  0  0  0  0
    8.7682    0.0334    4.6677 C   0  0  0  0  0  0  0  0  0  0  0  0
   10.0609    0.3235    3.9203 C   0  0  0  0  0  0  0  0  0  0  0  0
   -4.3067   -2.1000    0.4120 H   0  0  0  0  0  0  0  0  0  0  0  0
   -3.9201   -1.4018   -1.1702 H   0  0  0  0  0  0  0  0  0  0  0  0
   -3.5937    2.1286    0.4482 H   0  0  0  0  0  0  0  0  0  0  0  0
   -2.1110   -1.5349    1.3047 H   0  0  0  0  0  0  0  0  0  0  0  0
   -1.9377   -2.5398   -0.1324 H   0  0  0  0  0  0  0  0  0  0  0  0
   -1.0288    2.1984   -1.6433 H   0  0  0  0  0  0  0  0  0  0  0  0
   -1.5288    3.0567   -0.1979 H   0  0  0  0  0  0  0  0  0  0  0  0
    0.9347    2.8302   -0.4422 H   0  0  0  0  0  0  0  0  0  0  0  0
    0.3126    2.2186    1.0894 H   0  0  0  0  0  0  0  0  0  0  0  0
    2.2144   -1.6862    1.8643 H   0  0  0  0  0  0  0  0  0  0  0  0
    2.7069   -2.8293    0.6223 H   0  0  0  0  0  0  0  0  0  0  0  0
    0.2334   -2.5580    0.8819 H   0  0  0  0  0  0  0  0  0  0  0  0
    0.7920   -2.2773   -0.7519 H   0  0  0  0  0  0  0  0  0  0  0  0
   -0.6111    0.0350   -2.4557 H   0  0  0  0  0  0  0  0  0  0  0  0
   -0.7744   -1.6923   -2.1499 H   0  0  0  0  0  0  0  0  0  0  0  0
   -2.1999   -0.6943   -2.4242 H   0  0  0  0  0  0  0  0  0  0  0  0
    3.7599   -0.2360   -1.9378 H   0  0  0  0  0  0  0  0  0  0  0  0
    3.6679   -1.9793   -1.6333 H   0  0  0  0  0  0  0  0  0  0  0  0
    2.2329   -1.1199   -1.9149 H   0  0  0  0  0  0  0  0  0  0  0  0
    3.3508    1.8721   -1.0848 H   0  0  0  0  0  0  0  0  0  0  0  0
    3.2142    2.5756    0.5254 H   0  0  0  0  0  0  0  0  0  0  0  0
    5.4507    1.1450   -0.4563 H   0  0  0  0  0  0  0  0  0  0  0  0
    5.0631    1.6322    1.2055 H   0  0  0  0  0  0  0  0  0  0  0  0
    7.5737   -0.7922    0.6938 H   0  0  0  0  0  0  0  0  0  0  0  0
    6.7735   -2.0777    1.8090 H   0  0  0  0  0  0  0  0  0  0  0  0
    7.6383   -2.4555    0.3570 H   0  0  0  0  0  0  0  0  0  0  0  0
    7.4196   -0.5291    2.6716 H   0  0  0  0  0  0  0  0  0  0  0  0
    6.5651    0.5066    1.5475 H   0  0  0  0  0  0  0  0  0  0  0  0
    8.2037    1.6681    2.4681 H   0  0  0  0  0  0  0  0  0  0  0  0
    6.6698    2.3340    2.9962 H   0  0  0  0  0  0  0  0  0  0  0  0
    8.1633    2.1057    4.9532 H   0  0  0  0  0  0  0  0  0  0  0  0
    6.8570    0.9355    5.1067 H   0  0  0  0  0  0  0  0  0  0  0  0
    8.9734   -0.1172    5.7301 H   0  0  0  0  0  0  0  0  0  0  0  0
    8.3707   -0.9320    4.3244 H   0  0  0  0  0  0  0  0  0  0  0  0
   10.4765    1.2752    4.2607 H   0  0  0  0  0  0  0  0  0  0  0  0
   10.7950   -0.4671    4.0959 H   0  0  0  0  0  0  0  0  0  0  0  0
    9.9089    0.3828    2.8369 H   0  0  0  0  0  0  0  0  0  0  0  0
  1  2  1  0  0  0  0
  1  6  1  0  0  0  0
  1 35  1  0  0  0  0
  1 36  1  0  0  0  0
  2  3  1  0  0  0  0
  2 15  2  0  0  0  0
  3  4  2  0  0  0  0
  3 37  1  0  0  0  0
  4  5  1  0  0  0  0
  4  7  1  0  0  0  0
  5  6  1  0  0  0  0
  5 10  1  0  0  0  0
  5 16  1  6  0  0  0
  6 38  1  0  0  0  0
  6 39  1  0  0  0  0
  7  8  1  0  0  0  0
  7 40  1  0  0  0  0
  7 41  1  0  0  0  0
  8  9  1  0  0  0  0
  8 42  1  0  0  0  0
  8 43  1  0  0  0  0
  9 10  1  0  0  0  0
  9 11  1  0  0  0  0
  9 17  1  6  0  0  0
 10 14  1  0  0  0  0
 10 19  1  1  0  0  0
 11 12  1  0  0  0  0
 11 20  1  1  0  0  0
 11 21  1  0  0  0  0
 12 13  1  0  0  0  0
 12 18  1  6  0  0  0
 12 23  1  0  0  0  0
 13 14  1  0  0  0  0
 13 44  1  0  0  0  0
 13 45  1  0  0  0  0
 14 46  1  0  0  0  0
 14 47  1  0  0  0  0
 16 48  1  0  0  0  0
 16 49  1  0  0  0  0
 16 50  1  0  0  0  0
 18 51  1  0  0  0  0
 18 52  1  0  0  0  0
 18 53  1  0  0  0  0
 21 22  1  0  0  0  0
 21 54  1  0  0  0  0
 21 55  1  0  0  0  0
 22 23  1  0  0  0  0
 22 56  1  0  0  0  0
 22 57  1  0  0  0  0
 23 27  1  1  0  0  0
 23 24  1  0  0  0  0
 24 25  2  0  0  0  0
 24 26  1  0  0  0  0
 26 58  1  0  0  0  0
 26 59  1  0  0  0  0
 26 60  1  0  0  0  0
 27 28  1  0  0  0  0
 28 29  1  0  0  0  0
 28 30  2  0  0  0  0
 29 31  1  0  0  0  0
 29 61  1  0  0  0  0
 29 62  1  0  0  0  0
 31 32  1  0  0  0  0
 31 63  1  0  0  0  0
 31 64  1  0  0  0  0
 32 33  1  0  0  0  0
 32 65  1  0  0  0  0
 32 66  1  0  0  0  0
 33 34  1  0  0  0  0
 33 67  1  0  0  0  0
 33 68  1  0  0  0  0
 34 69  1  0  0  0  0
 34 70  1  0  0  0  0
 34 71  1  0  0  0  0
M  END
>  <DRUGBANK_ID>
DB06789

>  <COMMON_NAME>
Hydroxyprogesterone caproate

>  <CAS_NUMBER>
630-56-8

>  <UNII>
276F2O42F5

>  <SYNONYMS>
17-alpha-hydroxy-progesterone caproate; 17alpha-Caproyloxypregn-4-ene-3,20-dione; 17alpha-Hydroxyprogesterone hexanoate; Caproate d'hydroxyprogesterone; Caproato de hidroxiprogesterona; Hydroxyprogesterone caproate; Hydroxyprogesterone hexanoate

$$$$
