
 OpenBabel10282417223D

 52 55  0  0  1  0  0  0  0  0999 V2000
    1.8627   -2.7715    0.7850 N   0  0  0  0  0  0  0  0  0  0  0  0
    1.9210   -2.1962    2.0286 C   0  0  0  0  0  0  0  0  0  0  0  0
    2.8231   -2.5713    2.7844 O   0  0  0  0  0  0  0  0  0  0  0  0
    0.9392   -1.0554    2.3859 C   0  0  2  0  0  0  0  0  0  0  0  0
    0.2495   -0.5424    1.2248 O   0  0  0  0  0  0  0  0  0  0  0  0
    1.8020    0.0743    3.0056 C   0  0  0  0  0  0  0  0  0  0  0  0
    1.0680    1.3008    3.3826 N   0  0  0  0  0  0  0  0  0  0  0  0
    1.0351    1.6376    4.7474 C   0  0  0  0  0  0  0  0  0  0  0  0
    2.2089    1.7376    5.4865 C   0  0  0  0  0  0  0  0  0  0  0  0
    3.4111    1.4895    4.9481 F   0  0  0  0  0  0  0  0  0  0  0  0
    2.1089    2.1619    6.7888 C   0  0  0  0  0  0  0  0  0  0  0  0
    0.9391    2.4499    7.3836 N   0  0  0  0  0  0  0  0  0  0  0  0
   -0.1583    2.3194    6.6055 C   0  0  0  0  0  0  0  0  0  0  0  0
   -0.1629    1.9213    5.3033 N   0  0  0  0  0  0  0  0  0  0  0  0
   -1.4515    2.6041    7.2500 C   0  0  0  0  0  0  0  0  0  0  0  0
   -1.8157    3.8434    7.6301 N   0  0  0  0  0  0  0  0  0  0  0  0
   -3.0175    3.6993    8.2280 N   0  0  0  0  0  0  0  0  0  0  0  0
   -3.6780    4.8450    8.8635 C   0  0  0  0  0  0  0  0  0  0  0  0
   -2.9524    5.3775   10.0714 C   0  0  0  0  0  0  0  0  0  0  0  0
   -1.6689    5.9147    9.9370 C   0  0  0  0  0  0  0  0  0  0  0  0
   -1.0981    6.0278    8.7326 F   0  0  0  0  0  0  0  0  0  0  0  0
   -0.9616    6.4009   11.0254 C   0  0  0  0  0  0  0  0  0  0  0  0
   -1.5563    6.4164   12.2806 C   0  0  0  0  0  0  0  0  0  0  0  0
   -2.8555    5.9324   12.4386 C   0  0  0  0  0  0  0  0  0  0  0  0
   -3.5515    5.4062   11.3434 C   0  0  0  0  0  0  0  0  0  0  0  0
   -3.4886    2.4200    8.1296 C   0  0  0  0  0  0  0  0  0  0  0  0
   -2.4853    1.6767    7.5504 C   0  0  0  0  0  0  0  0  0  0  0  0
   -4.8284    1.9517    8.5218 C   0  0  0  0  0  0  0  0  0  0  0  0
   -5.0324    0.9222    9.3465 N   0  0  0  0  0  0  0  0  0  0  0  0
   -6.4106    0.8427    9.4942 O   0  0  0  0  0  0  0  0  0  0  0  0
   -7.0008    1.7810    8.7120 C   0  0  0  0  0  0  0  0  0  0  0  0
   -6.0402    2.5210    8.0798 C   0  0  0  0  0  0  0  0  0  0  0  0
   -0.0306   -1.5958    3.4379 C   0  0  0  0  0  0  0  0  0  0  0  0
   -0.9149   -0.6492    3.8371 F   0  0  0  0  0  0  0  0  0  0  0  0
   -0.7721   -2.6184    2.9426 F   0  0  0  0  0  0  0  0  0  0  0  0
    0.5912   -2.0472    4.5484 F   0  0  0  0  0  0  0  0  0  0  0  0
    2.5598   -3.4954    0.6216 H   0  0  0  0  0  0  0  0  0  0  0  0
    1.0613   -2.8186    0.1692 H   0  0  0  0  0  0  0  0  0  0  0  0
    0.5599   -1.0383    0.4505 H   0  0  0  0  0  0  0  0  0  0  0  0
    2.3819   -0.3290    3.8444 H   0  0  0  0  0  0  0  0  0  0  0  0
    2.5340    0.3874    2.2498 H   0  0  0  0  0  0  0  0  0  0  0  0
    0.1528    1.4088    2.9488 H   0  0  0  0  0  0  0  0  0  0  0  0
    2.9997    2.3004    7.3916 H   0  0  0  0  0  0  0  0  0  0  0  0
   -3.7979    5.6237    8.1032 H   0  0  0  0  0  0  0  0  0  0  0  0
   -4.6850    4.5374    9.1628 H   0  0  0  0  0  0  0  0  0  0  0  0
    0.0434    6.7753   10.8651 H   0  0  0  0  0  0  0  0  0  0  0  0
   -1.0090    6.8184   13.1278 H   0  0  0  0  0  0  0  0  0  0  0  0
   -3.3236    5.9655   13.4202 H   0  0  0  0  0  0  0  0  0  0  0  0
   -4.5636    5.0347   11.4989 H   0  0  0  0  0  0  0  0  0  0  0  0
   -2.5085    0.6245    7.3061 H   0  0  0  0  0  0  0  0  0  0  0  0
   -8.0796    1.7827    8.7086 H   0  0  0  0  0  0  0  0  0  0  0  0
   -6.1818    3.3238    7.3719 H   0  0  0  0  0  0  0  0  0  0  0  0
  1  2  1  0  0  0  0
  1 37  1  0  0  0  0
  1 38  1  0  0  0  0
  2  3  2  0  0  0  0
  4  6  1  0  0  0  0
  4 33  1  0  0  0  0
  4  5  1  6  0  0  0
  4  2  1  0  0  0  0
  5 39  1  0  0  0  0
  6  7  1  0  0  0  0
  6 40  1  0  0  0  0
  6 41  1  0  0  0  0
  7  8  1  0  0  0  0
  7 42  1  0  0  0  0
  8  9  2  0  0  0  0
  8 14  1  0  0  0  0
  9 10  1  0  0  0  0
  9 11  1  0  0  0  0
 11 12  2  0  0  0  0
 11 43  1  0  0  0  0
 12 13  1  0  0  0  0
 13 14  2  0  0  0  0
 13 15  1  0  0  0  0
 15 16  2  0  0  0  0
 15 27  1  0  0  0  0
 16 17  1  0  0  0  0
 17 18  1  0  0  0  0
 17 26  1  0  0  0  0
 18 19  1  0  0  0  0
 18 44  1  0  0  0  0
 18 45  1  0  0  0  0
 19 20  2  0  0  0  0
 19 25  1  0  0  0  0
 20 21  1  0  0  0  0
 20 22  1  0  0  0  0
 22 23  2  0  0  0  0
 22 46  1  0  0  0  0
 23 24  1  0  0  0  0
 23 47  1  0  0  0  0
 24 25  2  0  0  0  0
 24 48  1  0  0  0  0
 25 49  1  0  0  0  0
 26 27  2  0  0  0  0
 26 28  1  0  0  0  0
 27 50  1  0  0  0  0
 28 29  2  0  0  0  0
 28 32  1  0  0  0  0
 29 30  1  0  0  0  0
 30 31  1  0  0  0  0
 31 32  2  0  0  0  0
 31 51  1  0  0  0  0
 32 52  1  0  0  0  0
 33 34  1  0  0  0  0
 33 35  1  0  0  0  0
 33 36  1  0  0  0  0
M  END
>  <DRUGBANK_ID>
DB15238

>  <COMMON_NAME>
Olinciguat

>  <CAS_NUMBER>
1628732-62-6

>  <UNII>
PD5F4ZXD21

>  <SYNONYMS>
Olinciguat

$$$$
