HHH
 OpenBabel10282417163D

 20 20  0  0  0  0  0  0  0  0999 V2000
    1.0457    0.0050   -0.0735 O   0  0  0  0  0  0  0  0  0  0  0  0
    0.2805   -0.8767   -0.7672 C   0  0  0  0  0  0  0  0  0  0  0  0
   -0.9420   -0.8464   -0.6841 O   0  0  0  0  0  0  0  0  0  0  0  0
    1.0812   -1.8923   -1.6167 C   0  0  1  0  0  0  0  0  0  0  0  0
    0.8449   -3.2306   -1.1767 O   0  0  0  0  0  0  0  0  0  0  0  0
    0.7487   -1.7596   -3.0976 C   0  0  0  0  0  0  0  0  0  0  0  0
    0.4919   -2.8890   -3.8928 C   0  0  0  0  0  0  0  0  0  0  0  0
    0.1879   -2.7581   -5.2486 C   0  0  0  0  0  0  0  0  0  0  0  0
    0.7054   -0.4934   -3.7121 C   0  0  0  0  0  0  0  0  0  0  0  0
    0.3968   -0.3614   -5.0711 C   0  0  0  0  0  0  0  0  0  0  0  0
    0.1478   -1.4991   -5.8297 C   0  0  0  0  0  0  0  0  0  0  0  0
   -0.1399   -1.4321   -7.1605 O   0  0  0  0  0  0  0  0  0  0  0  0
    2.1566   -1.7151   -1.4969 H   0  0  0  0  0  0  0  0  0  0  0  0
    2.0121   -0.0757   -0.1781 H   0  0  0  0  0  0  0  0  0  0  0  0
    0.9681   -3.2625   -0.2142 H   0  0  0  0  0  0  0  0  0  0  0  0
    0.5081   -3.8872   -3.4591 H   0  0  0  0  0  0  0  0  0  0  0  0
   -0.0245   -3.6396   -5.8462 H   0  0  0  0  0  0  0  0  0  0  0  0
    0.8852    0.4110   -3.1338 H   0  0  0  0  0  0  0  0  0  0  0  0
    0.3465    0.6309   -5.5084 H   0  0  0  0  0  0  0  0  0  0  0  0
   -0.1237   -0.5037   -7.4422 H   0  0  0  0  0  0  0  0  0  0  0  0
  1 14  1  0  0  0  0
  2  1  1  0  0  0  0
  2  4  1  0  0  0  0
  3  2  2  0  0  0  0
  4  5  1  0  0  0  0
  4  6  1  0  0  0  0
  4 13  1  1  0  0  0
  5 15  1  0  0  0  0
  6  7  1  0  0  0  0
  7  8  2  0  0  0  0
  7 16  1  0  0  0  0
  8 17  1  0  0  0  0
  9  6  2  0  0  0  0
  9 10  1  0  0  0  0
  9 18  1  0  0  0  0
 10 11  2  0  0  0  0
 10 19  1  0  0  0  0
 11  8  1  0  0  0  0
 11 12  1  0  0  0  0
 12 20  1  0  0  0  0
M  END
>  <DRUGBANK_ID>
DB07896

>  <COMMON_NAME>
(2S)-hydroxy(4-hydroxyphenyl)ethanoic acid

>  <UNII>
G3FLY66R5P

$$$$
