
 OpenBabel10282417183D

 35 37  0  0  0  0  0  0  0  0999 V2000
    0.2832    1.2679    0.0135 C   0  0  0  0  0  0  0  0  0  0  0  0
   -0.4499    0.0783    0.0135 C   0  0  0  0  0  0  0  0  0  0  0  0
    0.2057   -1.1289   -0.0563 C   0  0  0  0  0  0  0  0  0  0  0  0
    1.5841   -1.1195   -0.1629 C   0  0  0  0  0  0  0  0  0  0  0  0
    2.3724    0.0264   -0.0279 C   0  0  0  0  0  0  0  0  0  0  0  0
    1.6910    1.2481    0.0235 C   0  0  0  0  0  0  0  0  0  0  0  0
    3.9010   -0.0923    0.0164 C   0  0  3  0  0  0  0  0  0  0  0  0
    4.4491   -0.7764    1.2876 C   0  0  0  0  0  0  0  0  0  0  0  0
    5.2918   -0.0624    2.1795 C   0  0  0  0  0  0  0  0  0  0  0  0
    5.8476   -0.6674    3.3246 C   0  0  0  0  0  0  0  0  0  0  0  0
    5.5564   -1.9922    3.6269 C   0  0  0  0  0  0  0  0  0  0  0  0
    4.7136   -2.6994    2.7946 C   0  0  0  0  0  0  0  0  0  0  0  0
    4.2240   -2.1384    1.6206 C   0  0  0  0  0  0  0  0  0  0  0  0
    6.1765   -2.6833    4.6905 N   0  0  0  0  0  0  0  0  0  0  0  0
    6.8790   -3.8709    4.4392 C   0  0  0  0  0  0  0  0  0  0  0  0
    7.2863   -4.5680    5.5382 N   0  0  0  0  0  0  0  0  0  0  0  0
    7.0084   -4.1991    6.8146 C   0  0  0  0  0  0  0  0  0  0  0  0
    6.2184   -2.9329    6.9494 C   0  0  0  0  0  0  0  0  0  0  0  0
    5.8391   -2.2175    5.9384 N   0  0  0  0  0  0  0  0  0  0  0  0
   -2.1654    0.0850    0.0191 Cl  0  0  0  0  0  0  0  0  0  0  0  0
    4.4598   -0.7191   -1.2079 C   0  0  0  0  0  0  0  0  0  0  0  0
    4.9038   -1.2216   -2.1508 N   0  0  0  0  0  0  0  0  0  0  0  0
    3.5324   -3.3853    0.6436 Cl  0  0  0  0  0  0  0  0  0  0  0  0
    5.7771    1.5804    1.8969 Cl  0  0  0  0  0  0  0  0  0  0  0  0
    7.1658   -4.2991    3.3213 O   0  0  0  0  0  0  0  0  0  0  0  0
    7.3519   -4.8102    7.8126 O   0  0  0  0  0  0  0  0  0  0  0  0
   -0.2443    2.2168   -0.0022 H   0  0  0  0  0  0  0  0  0  0  0  0
   -0.3119   -2.0834   -0.0853 H   0  0  0  0  0  0  0  0  0  0  0  0
    2.0234   -2.0613   -0.4246 H   0  0  0  0  0  0  0  0  0  0  0  0
    2.2294    2.1951    0.0312 H   0  0  0  0  0  0  0  0  0  0  0  0
    4.2582    0.9451   -0.0237 H   0  0  0  0  0  0  0  0  0  0  0  0
    6.5665   -0.1275    3.9359 H   0  0  0  0  0  0  0  0  0  0  0  0
    4.4736   -3.7367    3.0238 H   0  0  0  0  0  0  0  0  0  0  0  0
    7.8200   -5.4081    5.3792 H   0  0  0  0  0  0  0  0  0  0  0  0
    5.9765   -2.6447    7.9835 H   0  0  0  0  0  0  0  0  0  0  0  0
  1  2  2  0  0  0  0
  1 27  1  0  0  0  0
  2 20  1  0  0  0  0
  2  3  1  0  0  0  0
  3  4  2  0  0  0  0
  3 28  1  0  0  0  0
  4  5  1  0  0  0  0
  4 29  1  0  0  0  0
  5  7  1  0  0  0  0
  5  6  2  0  0  0  0
  6  1  1  0  0  0  0
  6 30  1  0  0  0  0
  7  8  1  0  0  0  0
  7 21  1  0  0  0  0
  7 31  1  0  0  0  0
  8  9  2  0  0  0  0
  9 10  1  0  0  0  0
  9 24  1  0  0  0  0
 10 11  2  0  0  0  0
 10 32  1  0  0  0  0
 11 12  1  0  0  0  0
 12 13  2  0  0  0  0
 12 33  1  0  0  0  0
 13  8  1  0  0  0  0
 13 23  1  0  0  0  0
 14 15  1  0  0  0  0
 14 19  1  0  0  0  0
 14 11  1  0  0  0  0
 15 16  1  0  0  0  0
 15 25  2  0  0  0  0
 16 17  1  0  0  0  0
 16 34  1  0  0  0  0
 17 18  1  0  0  0  0
 17 26  2  0  0  0  0
 18 19  2  0  0  0  0
 18 35  1  0  0  0  0
 21 22  3  0  0  0  0
M  END
>  <DRUGBANK_ID>
DB11398

>  <COMMON_NAME>
Diclazuril

>  <CAS_NUMBER>
101831-37-2

>  <UNII>
K110K1B1VE

>  <SYNONYMS>
Diclazuril; Diclazurilo; Diclazurilum

$$$$
