
 OpenBabel10282417123D

 24 26  0  0  0  0  0  0  0  0999 V2000
    1.1242   -0.0153    0.2391 O   0  0  0  0  0  0  0  0  0  0  0  0
    2.3402    0.0591    0.0726 C   0  0  0  0  0  0  0  0  0  0  0  0
    3.1313    1.3356    0.3286 C   0  0  0  0  0  0  0  0  0  0  0  0
    4.1620    1.5991   -0.7731 C   0  0  0  0  0  0  0  0  0  0  0  0
    5.0068    0.3780   -0.9855 C   0  0  0  0  0  0  0  0  0  0  0  0
    6.2990    0.3655   -1.5021 C   0  0  0  0  0  0  0  0  0  0  0  0
    6.9689   -0.8622   -1.6904 C   0  0  0  0  0  0  0  0  0  0  0  0
    6.3523   -2.0879   -1.3868 C   0  0  0  0  0  0  0  0  0  0  0  0
    5.0637   -2.0651   -0.8932 C   0  0  0  0  0  0  0  0  0  0  0  0
    4.4392   -0.8478   -0.6997 C   0  0  0  0  0  0  0  0  0  0  0  0
    3.1500   -1.0083   -0.2196 N   0  0  0  0  0  0  0  0  0  0  0  0
    2.8580   -2.4316   -0.0797 C   0  0  0  0  0  0  0  0  0  0  0  0
    4.1440   -3.1822   -0.5075 C   0  0  0  0  0  0  0  0  0  0  0  0
    2.4520    2.1841    0.4456 H   0  0  0  0  0  0  0  0  0  0  0  0
    3.6443    1.1864    1.2903 H   0  0  0  0  0  0  0  0  0  0  0  0
    3.6460    1.8414   -1.7098 H   0  0  0  0  0  0  0  0  0  0  0  0
    4.7894    2.4509   -0.4907 H   0  0  0  0  0  0  0  0  0  0  0  0
    6.7996    1.2952   -1.7601 H   0  0  0  0  0  0  0  0  0  0  0  0
    7.9832   -0.8594   -2.0848 H   0  0  0  0  0  0  0  0  0  0  0  0
    6.8768   -3.0245   -1.5441 H   0  0  0  0  0  0  0  0  0  0  0  0
    2.6177   -2.6292    0.9719 H   0  0  0  0  0  0  0  0  0  0  0  0
    1.9896   -2.6990   -0.6891 H   0  0  0  0  0  0  0  0  0  0  0  0
    4.5579   -3.7553    0.3278 H   0  0  0  0  0  0  0  0  0  0  0  0
    3.9419   -3.8429   -1.3547 H   0  0  0  0  0  0  0  0  0  0  0  0
  1  2  2  0  0  0  0
  2  3  1  0  0  0  0
  2 11  1  0  0  0  0
  3  4  1  0  0  0  0
  3 14  1  0  0  0  0
  3 15  1  0  0  0  0
  4  5  1  0  0  0  0
  4 16  1  0  0  0  0
  4 17  1  0  0  0  0
  5  6  2  0  0  0  0
  5 10  1  0  0  0  0
  6  7  1  0  0  0  0
  6 18  1  0  0  0  0
  7  8  2  0  0  0  0
  7 19  1  0  0  0  0
  8  9  1  0  0  0  0
  8 20  1  0  0  0  0
  9 10  2  0  0  0  0
  9 13  1  0  0  0  0
 10 11  1  0  0  0  0
 11 12  1  0  0  0  0
 12 13  1  0  0  0  0
 12 21  1  0  0  0  0
 12 22  1  0  0  0  0
 13 23  1  0  0  0  0
 13 24  1  0  0  0  0
M  END
>  <DRUGBANK_ID>
DB02756

>  <SECONDARY_ACCESSION_NUMBERS>
EXPT02722

>  <COMMON_NAME>
Pyroquilon

>  <CAS_NUMBER>
57369-32-1

>  <UNII>
WS195Z0WJH

>  <SYNONYMS>
1,2,5,6-tetrahydropyrrolo[3,2,1-ij]quinolin-4-one

$$$$
