
 OpenBabel10282417103D

 59 63  0  0  0  0  0  0  0  0999 V2000
    0.4566    0.1102   -0.2293 N   0  3  0  0  0  0  0  0  0  0  0  0
   -4.5714   -0.8584    0.6647 C   0  0  0  0  0  0  0  0  0  0  0  0
   -4.9149   -2.3937    0.4741 C   0  0  0  0  0  0  0  0  0  0  0  0
   -0.7155    0.4966   -1.1446 C   0  0  1  0  0  0  0  0  0  0  0  0
   -0.2344    0.1599    1.1504 C   0  0  2  0  0  0  0  0  0  0  0  0
   -3.3155   -0.4045    0.4656 O   0  0  0  0  0  0  0  0  0  0  0  0
   -2.1406   -1.1526    0.1288 C   0  0  2  0  0  0  0  0  0  0  0  0
   -1.1640   -1.0378    1.2905 C   0  0  0  0  0  0  0  0  0  0  0  0
   -1.6673   -0.6861   -1.2394 C   0  0  0  0  0  0  0  0  0  0  0  0
   -5.4181   -0.0148    0.9984 O   0  0  0  0  0  0  0  0  0  0  0  0
   -1.0269    1.4720    1.0809 C   0  0  0  0  0  0  0  0  0  0  0  0
   -1.3401    1.6878   -0.4062 C   0  0  0  0  0  0  0  0  0  0  0  0
   -5.4037   -2.9451    1.8299 C   0  0  0  0  0  0  0  0  0  0  0  0
   -5.9240   -2.5541   -0.6724 C   0  0  0  0  0  0  0  0  0  0  0  0
   -3.8304   -3.2480    0.1088 O   0  0  0  0  0  0  0  0  0  0  0  0
    1.1886   -1.1874   -0.5809 C   0  0  0  0  0  0  0  0  0  0  0  0
    1.5982    1.1346   -0.3247 C   0  0  0  0  0  0  0  0  0  0  0  0
   -4.6724   -3.9263    2.5299 C   0  0  0  0  0  0  0  0  0  0  0  0
   -6.5313   -2.4051    2.4709 C   0  0  0  0  0  0  0  0  0  0  0  0
   -5.6418   -3.3784   -1.7803 C   0  0  0  0  0  0  0  0  0  0  0  0
   -7.1714   -1.9125   -0.6453 C   0  0  0  0  0  0  0  0  0  0  0  0
    2.8386    0.4024    0.1528 C   0  0  0  0  0  0  0  0  0  0  0  0
    2.4985   -1.0764    0.1662 C   0  0  0  0  0  0  0  0  0  0  0  0
   -8.1531   -2.2087   -1.5806 C   0  0  0  0  0  0  0  0  0  0  0  0
   -5.0449   -4.3246    3.8102 C   0  0  0  0  0  0  0  0  0  0  0  0
   -6.8717   -2.7618    3.7689 C   0  0  0  0  0  0  0  0  0  0  0  0
   -6.5974   -3.6175   -2.7589 C   0  0  0  0  0  0  0  0  0  0  0  0
   -7.8575   -3.0442   -2.6484 C   0  0  0  0  0  0  0  0  0  0  0  0
   -6.1376   -3.7330    4.4320 C   0  0  0  0  0  0  0  0  0  0  0  0
    0.5246    0.1544    1.9385 H   0  0  0  0  0  0  0  0  0  0  0  0
   -0.3322    0.7562   -2.1368 H   0  0  0  0  0  0  0  0  0  0  0  0
   -2.2802   -2.2035    0.0163 H   0  0  0  0  0  0  0  0  0  0  0  0
   -1.7107   -0.9836    2.2412 H   0  0  0  0  0  0  0  0  0  0  0  0
   -0.5809   -1.9631    1.3507 H   0  0  0  0  0  0  0  0  0  0  0  0
   -1.1681   -1.5240   -1.7403 H   0  0  0  0  0  0  0  0  0  0  0  0
   -2.5268   -0.4293   -1.8735 H   0  0  0  0  0  0  0  0  0  0  0  0
   -1.9295    1.4554    1.7006 H   0  0  0  0  0  0  0  0  0  0  0  0
   -0.4181    2.3015    1.4562 H   0  0  0  0  0  0  0  0  0  0  0  0
   -2.4151    1.7836   -0.5922 H   0  0  0  0  0  0  0  0  0  0  0  0
   -0.8796    2.6214   -0.7476 H   0  0  0  0  0  0  0  0  0  0  0  0
   -4.1675   -4.1592    0.0837 H   0  0  0  0  0  0  0  0  0  0  0  0
    0.6142   -2.0723   -0.3007 H   0  0  0  0  0  0  0  0  0  0  0  0
    1.3438   -1.1915   -1.6656 H   0  0  0  0  0  0  0  0  0  0  0  0
    1.6889    1.4219   -1.3777 H   0  0  0  0  0  0  0  0  0  0  0  0
    1.3754    2.0180    0.2767 H   0  0  0  0  0  0  0  0  0  0  0  0
   -3.7836   -4.3914    2.1092 H   0  0  0  0  0  0  0  0  0  0  0  0
   -7.1567   -1.6532    2.0047 H   0  0  0  0  0  0  0  0  0  0  0  0
   -4.6749   -3.8609   -1.9067 H   0  0  0  0  0  0  0  0  0  0  0  0
   -7.4205   -1.1707    0.1074 H   0  0  0  0  0  0  0  0  0  0  0  0
    3.1248    0.7399    1.1545 H   0  0  0  0  0  0  0  0  0  0  0  0
    3.6777    0.6142   -0.5165 H   0  0  0  0  0  0  0  0  0  0  0  0
    2.3803   -1.4256    1.1993 H   0  0  0  0  0  0  0  0  0  0  0  0
    3.2824   -1.6835   -0.2953 H   0  0  0  0  0  0  0  0  0  0  0  0
   -9.1469   -1.7862   -1.4611 H   0  0  0  0  0  0  0  0  0  0  0  0
   -4.4620   -5.0794    4.3295 H   0  0  0  0  0  0  0  0  0  0  0  0
   -7.7002   -2.2558    4.2569 H   0  0  0  0  0  0  0  0  0  0  0  0
   -6.3586   -4.2718   -3.5915 H   0  0  0  0  0  0  0  0  0  0  0  0
   -8.6103   -3.2361   -3.4045 H   0  0  0  0  0  0  0  0  0  0  0  0
   -6.4190   -4.0242    5.4380 H   0  0  0  0  0  0  0  0  0  0  0  0
  2  6  1  0  0  0  0
  3  2  1  0  0  0  0
  4  1  1  0  0  0  0
  4 31  1  6  0  0  0
  5  1  1  0  0  0  0
  5 30  1  1  0  0  0
  7  9  1  0  0  0  0
  7 32  1  6  0  0  0
  7  6  1  0  0  0  0
  8  5  1  0  0  0  0
  8  7  1  0  0  0  0
  8 33  1  0  0  0  0
  8 34  1  0  0  0  0
  9  4  1  0  0  0  0
  9 35  1  0  0  0  0
  9 36  1  0  0  0  0
 10  2  2  0  0  0  0
 11  5  1  0  0  0  0
 11 37  1  0  0  0  0
 11 38  1  0  0  0  0
 12  4  1  0  0  0  0
 12 11  1  0  0  0  0
 12 39  1  0  0  0  0
 12 40  1  0  0  0  0
 13  3  1  0  0  0  0
 14  3  1  0  0  0  0
 15  3  1  0  0  0  0
 15 41  1  0  0  0  0
 16  1  1  0  0  0  0
 16 42  1  0  0  0  0
 16 43  1  0  0  0  0
 17  1  1  0  0  0  0
 17 44  1  0  0  0  0
 17 45  1  0  0  0  0
 18 13  2  0  0  0  0
 18 46  1  0  0  0  0
 19 13  1  0  0  0  0
 19 47  1  0  0  0  0
 20 14  2  0  0  0  0
 20 48  1  0  0  0  0
 21 14  1  0  0  0  0
 21 49  1  0  0  0  0
 22 17  1  0  0  0  0
 22 23  1  0  0  0  0
 22 50  1  0  0  0  0
 22 51  1  0  0  0  0
 23 16  1  0  0  0  0
 23 52  1  0  0  0  0
 23 53  1  0  0  0  0
 24 21  2  0  0  0  0
 24 54  1  0  0  0  0
 25 18  1  0  0  0  0
 25 55  1  0  0  0  0
 26 19  2  0  0  0  0
 26 29  1  0  0  0  0
 26 56  1  0  0  0  0
 27 20  1  0  0  0  0
 27 57  1  0  0  0  0
 28 24  1  0  0  0  0
 28 27  2  0  0  0  0
 28 58  1  0  0  0  0
 29 25  2  0  0  0  0
 29 59  1  0  0  0  0
M  CHG  1   1   1
M  END
>  <DRUGBANK_ID>
DB00209

>  <SECONDARY_ACCESSION_NUMBERS>
APRD00393

>  <COMMON_NAME>
Trospium

>  <CAS_NUMBER>
47608-32-2

>  <UNII>
T4Y8ORK057

$$$$
