
 OpenBabel10282417143D

123125  0  0  1  0  0  0  0  0999 V2000
   -4.1851   -3.5297  -10.0456 C   0  0  0  0  0  0  0  0  0  0  0  0
   -3.7126   -2.2477   -9.4657 C   0  0  1  0  0  0  0  0  0  0  0  0
   -3.9739   -0.7805  -10.5477 N   0  0  0  0  0  0  0  0  0  0  0  0
   -4.3676    0.4546  -10.3122 C   0  0  0  0  0  0  0  0  0  0  0  0
   -4.2695    1.2949  -11.1798 O   0  0  0  0  0  0  0  0  0  0  0  0
   -4.5380    0.6737   -8.9378 C   0  0  2  0  0  0  0  0  0  0  0  0
   -4.9096   -0.4977   -8.2525 C   0  0  0  0  0  0  0  0  0  0  0  0
   -6.5358   -1.4751   -8.6775 C   0  0  0  0  0  0  0  0  0  0  0  0
   -6.5565   -1.7799  -10.4198 C   0  0  0  0  0  0  0  0  0  0  0  0
   -5.8034   -2.9748  -11.3528 C   0  0  1  0  0  0  0  0  0  0  0  0
   -5.7921   -4.7841  -10.6791 N   0  0  0  0  0  0  0  0  0  0  0  0
   -5.2939   -2.9748  -12.7987 C   0  0  0  0  0  0  0  0  0  0  0  0
   -4.1088   -2.9250  -13.4272 O   0  0  0  0  0  0  0  0  0  0  0  0
   -6.1622   -3.5638  -13.4068 O   0  0  0  0  0  0  0  0  0  0  0  0
   -5.6972    1.1895   -8.6393 N   0  0  0  0  0  0  0  0  0  0  0  0
   -5.6776    2.1067   -7.6869 C   0  0  0  0  0  0  0  0  0  0  0  0
   -6.7772    2.5866   -7.5059 O   0  0  0  0  0  0  0  0  0  0  0  0
   -4.3574    2.5681   -6.9799 C   0  0  0  0  0  0  0  0  0  0  0  0
   -3.8323    1.7565   -5.7887 C   0  0  0  0  0  0  0  0  0  0  0  0
   -3.3470    0.4905   -6.2647 C   0  0  1  0  0  0  0  0  0  0  0  0
   -2.0801    1.0135   -7.1796 N   0  0  0  0  0  0  0  0  0  0  0  0
   -0.7483    0.7050   -6.9747 C   0  0  0  0  0  0  0  0  0  0  0  0
    0.0561    1.4018   -7.6350 O   0  0  0  0  0  0  0  0  0  0  0  0
   -0.3749   -0.8516   -6.2556 C   0  0  2  0  0  0  0  0  0  0  0  0
   -1.2751   -1.3625   -5.2934 C   0  0  0  0  0  0  0  0  0  0  0  0
    0.8673   -0.8102   -5.7286 N   0  0  0  0  0  0  0  0  0  0  0  0
    1.8444   -1.7327   -5.8012 C   0  0  0  0  0  0  0  0  0  0  0  0
    2.8967   -1.4166   -5.2604 O   0  0  0  0  0  0  0  0  0  0  0  0
    1.7253   -3.0949   -6.5781 C   0  0  1  0  0  0  0  0  0  0  0  0
    0.5964   -3.9942   -6.0249 C   0  0  0  0  0  0  0  0  0  0  0  0
    1.8534   -2.9409   -8.0109 O   0  0  0  0  0  0  0  0  0  0  0  0
    0.7943   -2.2548   -8.5612 C   0  0  2  0  0  0  0  0  0  0  0  0
    0.1282   -3.1241   -9.5239 C   0  0  1  0  0  0  0  0  0  0  0  0
   -1.3763   -3.0117   -9.6264 N   0  0  0  0  0  0  0  0  0  0  0  0
   -2.6703   -2.2038   -8.3134 C   0  0  0  0  0  0  0  0  0  0  0  0
   -4.8136   -2.7457   -8.3759 C   0  0  0  0  0  0  0  0  0  0  0  0
   -2.3142   -1.2609   -7.5024 O   0  0  0  0  0  0  0  0  0  0  0  0
    0.4945   -2.7361  -10.9167 C   0  0  2  0  0  0  0  0  0  0  0  0
    1.8390   -2.5799  -10.9179 O   0  0  0  0  0  0  0  0  0  0  0  0
    2.0377   -1.1325  -10.6273 C   0  0  0  0  0  0  0  0  0  0  0  0
    0.7907   -0.5558  -10.2988 C   0  0  1  0  0  0  0  0  0  0  0  0
    0.2508   -1.4037  -11.3475 O   0  0  0  0  0  0  0  0  0  0  0  0
    0.6144   -0.8254   -8.8893 C   0  0  1  0  0  0  0  0  0  0  0  0
   -0.5898   -0.2038   -8.8686 O   0  0  0  0  0  0  0  0  0  0  0  0
   -1.3705   -1.1753   -9.1894 C   0  0  2  0  0  0  0  0  0  0  0  0
   -1.2027   -2.8763   -7.9896 O   0  0  0  0  0  0  0  0  0  0  0  0
   -2.4610   -4.1932   -8.8072 C   0  0  2  0  0  0  0  0  0  0  0  0
   -2.4098   -5.5434   -8.3490 C   0  0  0  0  0  0  0  0  0  0  0  0
   -1.2422   -5.7947   -9.0528 O   0  0  0  0  0  0  0  0  0  0  0  0
   -2.4320   -4.0464  -10.9241 C   0  0  1  0  0  0  0  0  0  0  0  0
   -3.5678   -4.9940  -11.7418 O   0  0  0  0  0  0  0  0  0  0  0  0
   -2.4744   -2.1807  -11.6690 C   0  0  2  0  0  0  0  0  0  0  0  0
   -2.1586   -1.7383  -12.9531 O   0  0  0  0  0  0  0  0  0  0  0  0
   -1.8403   -0.9875  -10.7535 C   0  0  1  0  0  0  0  0  0  0  0  0
   -1.8980    0.4511  -11.1674 N   0  0  0  0  0  0  0  0  0  0  0  0
   -1.0022    1.2372  -11.7727 C   0  0  0  0  0  0  0  0  0  0  0  0
   -1.3848    2.6473  -11.9877 C   0  0  0  0  0  0  0  0  0  0  0  0
    0.0703    0.8506  -12.1987 O   0  0  0  0  0  0  0  0  0  0  0  0
   -3.4407   -0.4752   -4.9367 C   0  0  0  0  0  0  0  0  0  0  0  0
   -3.8649   -1.7539   -4.7721 O   0  0  0  0  0  0  0  0  0  0  0  0
   -2.7386   -0.0497   -4.0150 O   0  0  0  0  0  0  0  0  0  0  0  0
   -3.8290   -2.3940   -7.1986 C   0  0  0  0  0  0  0  0  0  0  0  0
   -3.0203   -3.3008   -6.5097 O   0  0  0  0  0  0  0  0  0  0  0  0
   -4.8168   -1.9178   -6.5118 O   0  0  0  0  0  0  0  0  0  0  0  0
   -5.2139   -3.4348   -9.8200 H   0  0  0  0  0  0  0  0  0  0  0  0
   -3.9784   -4.5279   -9.6866 H   0  0  0  0  0  0  0  0  0  0  0  0
   -4.0022   -3.4048  -11.0463 H   0  0  0  0  0  0  0  0  0  0  0  0
   -2.8630   -2.3896   -9.9885 H   0  0  0  0  0  0  0  0  0  0  0  0
   -3.4852   -0.4592  -11.4753 H   0  0  0  0  0  0  0  0  0  0  0  0
   -3.6186    0.9715   -8.5161 H   0  0  0  0  0  0  0  0  0  0  0  0
   -4.0029   -0.7905   -8.6829 H   0  0  0  0  0  0  0  0  0  0  0  0
   -4.1755   -0.6828   -7.5016 H   0  0  0  0  0  0  0  0  0  0  0  0
   -6.7362   -2.6334   -8.3713 H   0  0  0  0  0  0  0  0  0  0  0  0
   -7.2167   -1.0470   -8.0153 H   0  0  0  0  0  0  0  0  0  0  0  0
   -7.3649   -2.4215  -10.5186 H   0  0  0  0  0  0  0  0  0  0  0  0
   -6.1069   -0.8541  -10.7907 H   0  0  0  0  0  0  0  0  0  0  0  0
   -4.9905   -2.2889  -11.1303 H   0  0  0  0  0  0  0  0  0  0  0  0
   -4.7920   -5.3851  -10.7042 H   0  0  0  0  0  0  0  0  0  0  0  0
   -5.6773   -4.8411   -9.5433 H   0  0  0  0  0  0  0  0  0  0  0  0
   -3.1423   -2.7501  -13.2647 H   0  0  0  0  0  0  0  0  0  0  0  0
   -6.4471    0.6125   -9.0070 H   0  0  0  0  0  0  0  0  0  0  0  0
   -3.5653    2.7621   -7.7264 H   0  0  0  0  0  0  0  0  0  0  0  0
   -4.6028    3.4793   -6.4904 H   0  0  0  0  0  0  0  0  0  0  0  0
   -2.8978    2.0675   -5.3433 H   0  0  0  0  0  0  0  0  0  0  0  0
   -4.6274    1.3783   -5.1395 H   0  0  0  0  0  0  0  0  0  0  0  0
   -4.3360    0.4584   -6.6560 H   0  0  0  0  0  0  0  0  0  0  0  0
   -2.0983    1.2956   -8.1916 H   0  0  0  0  0  0  0  0  0  0  0  0
   -0.5713   -1.8204   -6.6127 H   0  0  0  0  0  0  0  0  0  0  0  0
   -1.0134   -1.4319   -4.2880 H   0  0  0  0  0  0  0  0  0  0  0  0
   -1.7766   -0.5396   -5.6822 H   0  0  0  0  0  0  0  0  0  0  0  0
   -1.8290   -2.2808   -5.4057 H   0  0  0  0  0  0  0  0  0  0  0  0
    0.9033    0.0865   -5.2930 H   0  0  0  0  0  0  0  0  0  0  0  0
    2.6372   -3.6473   -6.4192 H   0  0  0  0  0  0  0  0  0  0  0  0
   -0.4027   -3.5948   -6.0622 H   0  0  0  0  0  0  0  0  0  0  0  0
    0.4847   -4.9310   -6.5697 H   0  0  0  0  0  0  0  0  0  0  0  0
    0.7338   -4.1434   -4.9526 H   0  0  0  0  0  0  0  0  0  0  0  0
    0.3795   -2.1183   -7.6590 H   0  0  0  0  0  0  0  0  0  0  0  0
    0.3123   -4.1783   -9.1739 H   0  0  0  0  0  0  0  0  0  0  0  0
   -1.1824   -4.0300   -9.6167 H   0  0  0  0  0  0  0  0  0  0  0  0
   -5.4949   -3.0443   -7.5267 H   0  0  0  0  0  0  0  0  0  0  0  0
   -5.1696   -1.9737   -9.2427 H   0  0  0  0  0  0  0  0  0  0  0  0
   -4.9786   -3.7854   -8.3175 H   0  0  0  0  0  0  0  0  0  0  0  0
   -0.1634   -3.3208  -11.5685 H   0  0  0  0  0  0  0  0  0  0  0  0
    2.6022   -0.9738   -9.7366 H   0  0  0  0  0  0  0  0  0  0  0  0
    2.1420   -0.5616  -11.5284 H   0  0  0  0  0  0  0  0  0  0  0  0
    0.5075    0.5172  -10.3006 H   0  0  0  0  0  0  0  0  0  0  0  0
    1.1488   -0.3048   -8.1412 H   0  0  0  0  0  0  0  0  0  0  0  0
   -2.2851   -0.5231   -9.0955 H   0  0  0  0  0  0  0  0  0  0  0  0
   -3.3565   -4.0166   -8.2506 H   0  0  0  0  0  0  0  0  0  0  0  0
   -2.4764   -5.2899   -7.2757 H   0  0  0  0  0  0  0  0  0  0  0  0
   -3.3276   -5.9754   -8.7867 H   0  0  0  0  0  0  0  0  0  0  0  0
   -1.3409   -5.6917  -10.0256 H   0  0  0  0  0  0  0  0  0  0  0  0
   -1.5380   -4.4122  -11.3675 H   0  0  0  0  0  0  0  0  0  0  0  0
   -4.5701   -4.6565  -11.8287 H   0  0  0  0  0  0  0  0  0  0  0  0
   -3.5295   -1.9131  -11.9111 H   0  0  0  0  0  0  0  0  0  0  0  0
   -1.2490   -2.0026  -13.0397 H   0  0  0  0  0  0  0  0  0  0  0  0
   -1.1041   -1.5888  -10.6165 H   0  0  0  0  0  0  0  0  0  0  0  0
   -2.6269    1.0662  -10.8141 H   0  0  0  0  0  0  0  0  0  0  0  0
   -0.6977    3.2766  -11.4214 H   0  0  0  0  0  0  0  0  0  0  0  0
   -1.2307    2.7393  -13.0610 H   0  0  0  0  0  0  0  0  0  0  0  0
   -2.4186    2.8889  -11.7406 H   0  0  0  0  0  0  0  0  0  0  0  0
   -4.3969   -2.2904   -5.4222 H   0  0  0  0  0  0  0  0  0  0  0  0
   -2.0736   -3.1289   -6.8233 H   0  0  0  0  0  0  0  0  0  0  0  0
  1 65  1  0  0  0  0
  1 66  1  0  0  0  0
  1 67  1  0  0  0  0
  2  1  1  0  0  0  0
  2  3  1  0  0  0  0
  2 62  1  0  0  0  0
  2 68  1  6  0  0  0
  3  4  1  0  0  0  0
  3 69  1  0  0  0  0
  4  5  2  0  0  0  0
  6 15  1  0  0  0  0
  6 70  1  1  0  0  0
  6  7  1  0  0  0  0
  6  4  1  0  0  0  0
  7  8  1  0  0  0  0
  7 71  1  0  0  0  0
  7 72  1  0  0  0  0
  8  9  1  0  0  0  0
  8 73  1  0  0  0  0
  8 74  1  0  0  0  0
  9 10  1  0  0  0  0
  9 75  1  0  0  0  0
  9 76  1  0  0  0  0
 10 11  1  0  0  0  0
 10 12  1  0  0  0  0
 10 77  1  1  0  0  0
 11 78  1  0  0  0  0
 11 79  1  0  0  0  0
 12 13  1  0  0  0  0
 12 14  2  0  0  0  0
 13 80  1  0  0  0  0
 15 16  1  0  0  0  0
 15 81  1  0  0  0  0
 16 17  2  0  0  0  0
 16 18  1  0  0  0  0
 18 19  1  0  0  0  0
 18 82  1  0  0  0  0
 18 83  1  0  0  0  0
 19 20  1  0  0  0  0
 19 84  1  0  0  0  0
 19 85  1  0  0  0  0
 20 21  1  0  0  0  0
 20 59  1  0  0  0  0
 20 86  1  6  0  0  0
 21 22  1  0  0  0  0
 21 87  1  0  0  0  0
 22 23  2  0  0  0  0
 24 26  1  0  0  0  0
 24 88  1  6  0  0  0
 24 25  1  0  0  0  0
 24 22  1  0  0  0  0
 25 89  1  0  0  0  0
 25 90  1  0  0  0  0
 25 91  1  0  0  0  0
 26 27  1  0  0  0  0
 26 92  1  0  0  0  0
 27 28  2  0  0  0  0
 27 29  1  0  0  0  0
 29 30  1  0  0  0  0
 29 31  1  0  0  0  0
 29 93  1  1  0  0  0
 30 94  1  0  0  0  0
 30 95  1  0  0  0  0
 30 96  1  0  0  0  0
 32 31  1  0  0  0  0
 32 33  1  0  0  0  0
 32 43  1  0  0  0  0
 32 97  1  1  0  0  0
 33 38  1  0  0  0  0
 33 98  1  1  0  0  0
 33 34  1  0  0  0  0
 34 35  1  0  0  0  0
 34 99  1  0  0  0  0
 35 36  1  0  0  0  0
 35 37  2  0  0  0  0
 36100  1  0  0  0  0
 36101  1  0  0  0  0
 36102  1  0  0  0  0
 38 39  1  0  0  0  0
 38 42  1  0  0  0  0
 38103  1  6  0  0  0
 39 40  1  0  0  0  0
 40 41  1  0  0  0  0
 40104  1  0  0  0  0
 40105  1  0  0  0  0
 41 42  1  0  0  0  0
 41 43  1  0  0  0  0
 41106  1  6  0  0  0
 43 44  1  0  0  0  0
 43107  1  1  0  0  0
 45 44  1  0  0  0  0
 45 46  1  0  0  0  0
 45 54  1  0  0  0  0
 45108  1  1  0  0  0
 46 47  1  0  0  0  0
 47 50  1  0  0  0  0
 47109  1  1  0  0  0
 47 48  1  0  0  0  0
 48 49  1  0  0  0  0
 48110  1  0  0  0  0
 48111  1  0  0  0  0
 49112  1  0  0  0  0
 50 51  1  0  0  0  0
 50 52  1  0  0  0  0
 50113  1  6  0  0  0
 51114  1  0  0  0  0
 52 53  1  0  0  0  0
 52 54  1  0  0  0  0
 52115  1  1  0  0  0
 53116  1  0  0  0  0
 54 55  1  0  0  0  0
 54117  1  6  0  0  0
 55 56  1  0  0  0  0
 55118  1  0  0  0  0
 56 57  1  0  0  0  0
 56 58  2  0  0  0  0
 57119  1  0  0  0  0
 57120  1  0  0  0  0
 57121  1  0  0  0  0
 59 60  1  0  0  0  0
 59 61  2  0  0  0  0
 60122  1  0  0  0  0
 62 63  1  0  0  0  0
 62 64  2  0  0  0  0
 63123  1  0  0  0  0
M  END
>  <DRUGBANK_ID>
DB04736

>  <COMMON_NAME>
2-ACETAMIDO-2-DEOXY-BETA-D-GLUCOPYRANOSE(BETA1-4)-2-ACETAMIDO-1,6-ANHYDRO-3-O-[(R)-1-CARBOXYETHYL]-2-DEOXY-BETA-D-GLUCOPYRANOSE-L-ALANYL-GAMMA-D-GLUTAMYL-MESO-DIAMINOPIMELYL-D-ALANINE

$$$$
