
 OpenBabel10282417103D

123130  0  0  0  0  0  0  0  0999 V2000
    3.8207   -1.8733   -7.7486 C   0  0  0  0  0  0  0  0  0  0  0  0
    4.5441   -1.8135   -9.0668 C   0  0  0  0  0  0  0  0  0  0  0  0
    4.4834    0.6832   -8.7441 C   0  0  0  0  0  0  0  0  0  0  0  0
    3.0878    1.7610   -6.8216 C   0  0  0  0  0  0  0  0  0  0  0  0
    1.6972    1.6723   -7.3571 C   0  0  0  0  0  0  0  0  0  0  0  0
    1.2472   -2.2867   -7.2016 C   0  0  0  0  0  0  0  0  0  0  0  0
   -0.4873    0.3656   -8.9732 C   0  0  0  0  0  0  0  0  0  0  0  0
    5.4075   -0.5220   -9.1813 C   0  0  1  0  0  0  0  0  0  0  0  0
    3.8061    0.5611   -7.3557 C   0  0  1  0  0  0  0  0  0  0  0  0
    4.7000    0.6023   -6.8358 H   0  0  0  0  0  0  0  0  0  0  0  0
    3.1008   -0.7862   -6.9544 C   0  0  2  0  0  0  0  0  0  0  0  0
    2.7178   -1.0189   -5.3372 C   0  0  0  0  0  0  0  0  0  0  0  0
    1.7902   -0.8872   -7.5627 C   0  0  2  0  0  0  0  0  0  0  0  0
    1.9401   -0.8182   -8.6444 H   0  0  0  0  0  0  0  0  0  0  0  0
   -0.3584    0.1876   -7.4759 C   0  0  1  0  0  0  0  0  0  0  0  0
   -1.0371    1.2342   -6.7981 O   0  0  0  0  0  0  0  0  0  0  0  0
   -0.1073   -2.3711   -7.7617 C   0  0  0  0  0  0  0  0  0  0  0  0
   -0.9674   -1.2170   -7.1999 C   0  0  1  0  0  0  0  0  0  0  0  0
   -1.2009   -1.5053   -5.6983 C   0  0  0  0  0  0  0  0  0  0  0  0
   -3.6163    0.5470   -6.6700 C   0  0  0  0  0  0  0  0  0  0  0  0
   -4.5173   -1.5255   -7.1503 C   0  0  0  0  0  0  0  0  0  0  0  0
   -3.4473   -0.7623   -7.3433 C   0  0  0  0  0  0  0  0  0  0  0  0
   -4.9154    0.4906   -6.1042 O   0  0  0  0  0  0  0  0  0  0  0  0
   -5.4505   -0.7293   -6.3601 C   0  0  0  0  0  0  0  0  0  0  0  0
   -6.5478   -1.1046   -5.9972 O   0  0  0  0  0  0  0  0  0  0  0  0
   -2.2199   -1.1701   -8.0850 C   0  0  1  0  0  0  0  0  0  0  0  0
   -2.3852   -2.1678   -8.5169 H   0  0  0  0  0  0  0  0  0  0  0  0
    1.0379    0.3110   -7.0277 C   0  0  2  0  0  0  0  0  0  0  0  0
    0.9506    0.2945   -5.9441 H   0  0  0  0  0  0  0  0  0  0  0  0
   -1.8716   -0.1920   -9.2410 C   0  0  0  0  0  0  0  0  0  0  0  0
    6.8779   -0.6380   -8.6887 O   0  0  0  0  0  0  0  0  0  0  0  0
    7.1907   -0.8573   -7.2387 C   0  0  2  0  0  0  0  0  0  0  0  0
    8.4797   -0.7814   -6.5737 O   0  0  0  0  0  0  0  0  0  0  0  0
    6.9737   -2.3067   -6.7526 C   0  0  0  0  0  0  0  0  0  0  0  0
    8.4318   -1.1790   -5.1186 C   0  0  2  0  0  0  0  0  0  0  0  0
    9.6325   -0.7244   -4.3769 C   0  0  0  0  0  0  0  0  0  0  0  0
    6.6993   -2.7222   -4.8115 C   0  0  2  0  0  0  0  0  0  0  0  0
    5.2688   -2.7107   -3.7559 O   0  0  0  0  0  0  0  0  0  0  0  0
    7.8897   -2.3236   -4.2407 C   0  0  2  0  0  0  0  0  0  0  0  0
    7.5084   -1.9867   -2.9037 O   0  0  0  0  0  0  0  0  0  0  0  0
    6.7115   -0.7878   -2.8003 C   0  0  1  0  0  0  0  0  0  0  0  0
    7.5500    0.4759   -3.1907 C   0  0  0  0  0  0  0  0  0  0  0  0
    5.4079   -0.6638   -3.4470 O   0  0  0  0  0  0  0  0  0  0  0  0
    5.3701   -0.5896   -4.8574 C   0  0  2  0  0  0  0  0  0  0  0  0
    4.9134   -2.2726   -5.7112 C   0  0  0  0  0  0  0  0  0  0  0  0
    7.2588    1.1901   -4.5922 C   0  0  2  0  0  0  0  0  0  0  0  0
    7.6399    2.5362   -4.7364 O   0  0  0  0  0  0  0  0  0  0  0  0
    5.8726    0.9999   -5.1263 C   0  0  2  0  0  0  0  0  0  0  0  0
    5.0058    2.1065   -4.6422 O   0  0  0  0  0  0  0  0  0  0  0  0
    4.5724    2.0055   -3.3054 C   0  0  1  0  0  0  0  0  0  0  0  0
    5.6368    1.9661   -2.3116 C   0  0  0  0  0  0  0  0  0  0  0  0
    3.6707    2.9432   -2.7253 O   0  0  0  0  0  0  0  0  0  0  0  0
    3.5825    2.8949   -1.2399 C   0  0  2  0  0  0  0  0  0  0  0  0
    2.6122    3.9082   -0.8229 C   0  0  0  0  0  0  0  0  0  0  0  0
    4.8589    2.8578   -0.4090 C   0  0  1  0  0  0  0  0  0  0  0  0
    4.6401    2.6373    0.9708 O   0  0  0  0  0  0  0  0  0  0  0  0
    5.5420    1.6444   -0.8764 C   0  0  1  0  0  0  0  0  0  0  0  0
    4.8149    0.3258   -0.5523 O   0  0  0  0  0  0  0  0  0  0  0  0
    3.7338   -0.4127   -1.0047 C   0  0  0  0  0  0  0  0  0  0  0  0
    2.7307    0.1893   -1.9252 C   0  0  0  0  0  0  0  0  0  0  0  0
    3.5467   -1.5638   -0.6325 O   0  0  0  0  0  0  0  0  0  0  0  0
    4.6502   -1.4057   -7.3909 H   0  0  0  0  0  0  0  0  0  0  0  0
    3.6922   -2.9031   -7.3952 H   0  0  0  0  0  0  0  0  0  0  0  0
    5.2228   -2.6668   -9.1723 H   0  0  0  0  0  0  0  0  0  0  0  0
    3.7515   -1.8913   -9.7947 H   0  0  0  0  0  0  0  0  0  0  0  0
    5.0797    1.6010   -8.7729 H   0  0  0  0  0  0  0  0  0  0  0  0
    3.6589    0.7696   -9.4591 H   0  0  0  0  0  0  0  0  0  0  0  0
    3.0368    1.7305   -5.7279 H   0  0  0  0  0  0  0  0  0  0  0  0
    3.6252    2.6822   -7.0754 H   0  0  0  0  0  0  0  0  0  0  0  0
    1.1386    2.4962   -6.9151 H   0  0  0  0  0  0  0  0  0  0  0  0
    1.7739    1.7929   -8.4369 H   0  0  0  0  0  0  0  0  0  0  0  0
    1.8370   -3.1100   -7.6159 H   0  0  0  0  0  0  0  0  0  0  0  0
    1.2125   -2.5140   -6.1345 H   0  0  0  0  0  0  0  0  0  0  0  0
   -0.3788    1.4090   -9.2794 H   0  0  0  0  0  0  0  0  0  0  0  0
    0.2579   -0.2060   -9.5408 H   0  0  0  0  0  0  0  0  0  0  0  0
    5.5383   -0.3875  -10.2608 H   0  0  0  0  0  0  0  0  0  0  0  0
    2.1901   -0.1638   -4.9276 H   0  0  0  0  0  0  0  0  0  0  0  0
    2.5826   -2.0622   -5.0455 H   0  0  0  0  0  0  0  0  0  0  0  0
    3.3494   -0.9106   -4.4801 H   0  0  0  0  0  0  0  0  0  0  0  0
   -0.8732    1.1206   -5.8414 H   0  0  0  0  0  0  0  0  0  0  0  0
    0.0198   -2.3235   -8.8468 H   0  0  0  0  0  0  0  0  0  0  0  0
   -0.5075   -3.3565   -7.5111 H   0  0  0  0  0  0  0  0  0  0  0  0
   -1.8384   -0.7725   -5.2155 H   0  0  0  0  0  0  0  0  0  0  0  0
   -1.6690   -2.4847   -5.5653 H   0  0  0  0  0  0  0  0  0  0  0  0
   -0.2794   -1.4866   -5.1065 H   0  0  0  0  0  0  0  0  0  0  0  0
   -3.5364    1.3885   -7.3606 H   0  0  0  0  0  0  0  0  0  0  0  0
   -2.9412    0.7047   -5.8318 H   0  0  0  0  0  0  0  0  0  0  0  0
   -4.6956   -2.5304   -7.4856 H   0  0  0  0  0  0  0  0  0  0  0  0
   -2.5737    0.6410   -9.2871 H   0  0  0  0  0  0  0  0  0  0  0  0
   -1.8820   -0.6960  -10.2106 H   0  0  0  0  0  0  0  0  0  0  0  0
    6.5410   -0.0646   -6.9409 H   0  0  0  0  0  0  0  0  0  0  0  0
    6.1483   -2.4293   -7.4281 H   0  0  0  0  0  0  0  0  0  0  0  0
    7.5369   -3.0480   -7.2804 H   0  0  0  0  0  0  0  0  0  0  0  0
    7.5147   -0.7067   -4.9245 H   0  0  0  0  0  0  0  0  0  0  0  0
    9.9636   -1.5979   -3.8211 H   0  0  0  0  0  0  0  0  0  0  0  0
   10.3450   -0.2560   -5.0206 H   0  0  0  0  0  0  0  0  0  0  0  0
    9.4997   -0.0016   -3.5930 H   0  0  0  0  0  0  0  0  0  0  0  0
    6.5095   -3.7492   -4.6156 H   0  0  0  0  0  0  0  0  0  0  0  0
    4.7449   -1.8617   -3.5727 H   0  0  0  0  0  0  0  0  0  0  0  0
    8.4184   -3.2607   -4.3846 H   0  0  0  0  0  0  0  0  0  0  0  0
    6.4389   -0.8440   -1.7307 H   0  0  0  0  0  0  0  0  0  0  0  0
    7.4155    1.4132   -2.7479 H   0  0  0  0  0  0  0  0  0  0  0  0
    8.3599    0.4963   -2.4599 H   0  0  0  0  0  0  0  0  0  0  0  0
    4.4799   -0.1855   -5.2505 H   0  0  0  0  0  0  0  0  0  0  0  0
    4.2083   -3.0095   -5.4006 H   0  0  0  0  0  0  0  0  0  0  0  0
    5.4447   -1.4811   -6.2266 H   0  0  0  0  0  0  0  0  0  0  0  0
    5.5647   -3.3531   -6.1411 H   0  0  0  0  0  0  0  0  0  0  0  0
    7.8600    0.8512   -5.4050 H   0  0  0  0  0  0  0  0  0  0  0  0
    8.1511    2.7467   -3.9559 H   0  0  0  0  0  0  0  0  0  0  0  0
    5.9982    1.3550   -6.1482 H   0  0  0  0  0  0  0  0  0  0  0  0
    4.1467    1.0336   -3.4409 H   0  0  0  0  0  0  0  0  0  0  0  0
    5.8385    0.9687   -2.4302 H   0  0  0  0  0  0  0  0  0  0  0  0
    6.3636    2.7585   -2.5297 H   0  0  0  0  0  0  0  0  0  0  0  0
    3.0703    2.0373   -0.8156 H   0  0  0  0  0  0  0  0  0  0  0  0
    2.6773    3.9878    0.2597 H   0  0  0  0  0  0  0  0  0  0  0  0
    2.8618    4.8143   -1.3562 H   0  0  0  0  0  0  0  0  0  0  0  0
    1.6256    3.5270   -1.1079 H   0  0  0  0  0  0  0  0  0  0  0  0
    5.4748    3.7403   -0.6180 H   0  0  0  0  0  0  0  0  0  0  0  0
    4.2838    1.7260    1.0518 H   0  0  0  0  0  0  0  0  0  0  0  0
    6.5700    1.5140   -0.4713 H   0  0  0  0  0  0  0  0  0  0  0  0
    2.6425   -0.1575   -2.9373 H   0  0  0  0  0  0  0  0  0  0  0  0
    1.8322    0.6878   -1.5764 H   0  0  0  0  0  0  0  0  0  0  0  0
    3.2844    1.0266   -2.1165 H   0  0  0  0  0  0  0  0  0  0  0  0
  1  2  1  0  0  0  0
  1 11  1  0  0  0  0
  1 62  1  0  0  0  0
  1 63  1  0  0  0  0
  2  8  1  0  0  0  0
  2 64  1  0  0  0  0
  2 65  1  0  0  0  0
  3  9  1  0  0  0  0
  3 66  1  0  0  0  0
  3 67  1  0  0  0  0
  4  5  1  0  0  0  0
  4 68  1  0  0  0  0
  4 69  1  0  0  0  0
  5 28  1  0  0  0  0
  5 70  1  0  0  0  0
  5 71  1  0  0  0  0
  6 13  1  0  0  0  0
  6 72  1  0  0  0  0
  6 73  1  0  0  0  0
  7 30  1  0  0  0  0
  7 74  1  0  0  0  0
  7 75  1  0  0  0  0
  8  3  1  0  0  0  0
  8 31  1  0  0  0  0
  8 76  1  6  0  0  0
  9  4  1  0  0  0  0
  9 10  1  1  0  0  0
 11  9  1  0  0  0  0
 11 12  1  1  0  0  0
 12 77  1  0  0  0  0
 12 78  1  0  0  0  0
 12 79  1  0  0  0  0
 13 11  1  0  0  0  0
 13 28  1  0  0  0  0
 13 14  1  6  0  0  0
 15  7  1  0  0  0  0
 15 16  1  1  0  0  0
 16 80  1  0  0  0  0
 17  6  1  0  0  0  0
 17 18  1  0  0  0  0
 17 81  1  0  0  0  0
 17 82  1  0  0  0  0
 18 15  1  0  0  0  0
 18 19  1  1  0  0  0
 19 83  1  0  0  0  0
 19 84  1  0  0  0  0
 19 85  1  0  0  0  0
 20 23  1  0  0  0  0
 20 22  1  0  0  0  0
 20 86  1  0  0  0  0
 20 87  1  0  0  0  0
 21 22  2  0  0  0  0
 21 88  1  0  0  0  0
 23 24  1  0  0  0  0
 24 21  1  0  0  0  0
 24 25  2  0  0  0  0
 26 18  1  0  0  0  0
 26 30  1  0  0  0  0
 26 27  1  6  0  0  0
 26 22  1  0  0  0  0
 28 15  1  0  0  0  0
 28 29  1  1  0  0  0
 30 89  1  0  0  0  0
 30 90  1  0  0  0  0
 32 33  1  0  0  0  0
 32 91  1  1  0  0  0
 32 31  1  0  0  0  0
 34 32  1  0  0  0  0
 34 92  1  0  0  0  0
 34 93  1  0  0  0  0
 35 39  1  0  0  0  0
 35 33  1  0  0  0  0
 35 94  1  1  0  0  0
 35 36  1  0  0  0  0
 36 95  1  0  0  0  0
 36 96  1  0  0  0  0
 36 97  1  0  0  0  0
 37 34  1  0  0  0  0
 37 38  1  0  0  0  0
 37 98  1  6  0  0  0
 38 99  1  0  0  0  0
 39 37  1  0  0  0  0
 39 40  1  0  0  0  0
 39100  1  1  0  0  0
 41 40  1  0  0  0  0
 41101  1  1  0  0  0
 42 41  1  0  0  0  0
 42 46  1  0  0  0  0
 42102  1  0  0  0  0
 42103  1  0  0  0  0
 43 41  1  0  0  0  0
 44 43  1  0  0  0  0
 44 45  1  0  0  0  0
 44104  1  1  0  0  0
 45105  1  0  0  0  0
 45106  1  0  0  0  0
 45107  1  0  0  0  0
 46 48  1  0  0  0  0
 46108  1  6  0  0  0
 46 47  1  0  0  0  0
 47109  1  0  0  0  0
 48 44  1  0  0  0  0
 48110  1  6  0  0  0
 48 49  1  0  0  0  0
 50 52  1  0  0  0  0
 50111  1  1  0  0  0
 50 49  1  0  0  0  0
 51 50  1  0  0  0  0
 51112  1  0  0  0  0
 51113  1  0  0  0  0
 53 55  1  0  0  0  0
 53 52  1  0  0  0  0
 53114  1  1  0  0  0
 53 54  1  0  0  0  0
 54115  1  0  0  0  0
 54116  1  0  0  0  0
 54117  1  0  0  0  0
 55 57  1  0  0  0  0
 55 56  1  0  0  0  0
 55118  1  6  0  0  0
 56119  1  0  0  0  0
 57 51  1  0  0  0  0
 57 58  1  0  0  0  0
 57120  1  1  0  0  0
 58 59  1  0  0  0  0
 59 60  1  0  0  0  0
 59 61  2  0  0  0  0
 60121  1  0  0  0  0
 60122  1  0  0  0  0
 60123  1  0  0  0  0
M  END
>  <DRUGBANK_ID>
DB00511

>  <SECONDARY_ACCESSION_NUMBERS>
APRD01334

>  <COMMON_NAME>
Acetyldigitoxin

>  <CAS_NUMBER>
1111-39-3

>  <UNII>
0ZV4Q4L2FU

>  <SYNONYMS>
Acetildigitoxina; Acetyl-digitoxin-alpha; Acetyldiginatin; Acetyldigitoxin; Acetyldigitoxinum; Acetylgitoxin; alpha-Acetyldigitoxin; alpha-Acetylgitaloxin; alpha-Monoacetyldigitoxin; Desglucolanatoside A; Digitoxin 3'''-acetate

$$$$
