
 OpenBabel10282417203D

 23 23  0  0  0  0  0  0  0  0999 V2000
   -0.7386    1.1296   -0.0019 C   0  0  0  0  0  0  0  0  0  0  0  0
   -1.5030    0.0220    0.0133 C   0  0  0  0  0  0  0  0  0  0  0  0
   -0.8138   -1.3158    0.0053 C   0  0  0  0  0  0  0  0  0  0  0  0
   -1.4401   -2.3761    0.0451 O   0  0  0  0  0  0  0  0  0  0  0  0
    0.6721   -1.3066   -0.0927 C   0  0  0  0  0  0  0  0  0  0  0  0
    1.2635   -0.1110   -0.1934 C   0  0  0  0  0  0  0  0  0  0  0  0
    0.6511    1.1280   -0.0684 N   0  0  0  0  0  0  0  0  0  0  0  0
    1.4287    2.3878    0.0008 C   0  0  0  0  0  0  0  0  0  0  0  0
    2.3431    2.4907    1.2456 C   0  0  3  0  0  0  0  0  0  0  0  0
    3.4244    1.4046    1.3394 C   0  0  0  0  0  0  0  0  0  0  0  0
    4.2548    1.4074    0.1730 O   0  0  0  0  0  0  0  0  0  0  0  0
    3.0066    3.7657    1.2044 O   0  0  0  0  0  0  0  0  0  0  0  0
    1.7582   -3.0362   -0.0524 I   0  0  0  0  0  0  0  0  0  0  0  0
   -3.5440    0.0956    0.0167 I   0  0  0  0  0  0  0  0  0  0  0  0
   -1.1836    2.1228    0.0108 H   0  0  0  0  0  0  0  0  0  0  0  0
    2.3300   -0.0902   -0.3546 H   0  0  0  0  0  0  0  0  0  0  0  0
    2.0171    2.5077   -0.9176 H   0  0  0  0  0  0  0  0  0  0  0  0
    0.7602    3.2615    0.0031 H   0  0  0  0  0  0  0  0  0  0  0  0
    1.7329    2.4693    2.1556 H   0  0  0  0  0  0  0  0  0  0  0  0
    4.0881    1.5783    2.1891 H   0  0  0  0  0  0  0  0  0  0  0  0
    2.9983    0.4118    1.5074 H   0  0  0  0  0  0  0  0  0  0  0  0
    3.7157    1.2980   -0.6285 H   0  0  0  0  0  0  0  0  0  0  0  0
    3.7125    3.6938    0.5323 H   0  0  0  0  0  0  0  0  0  0  0  0
  1  2  2  0  0  0  0
  1  7  1  0  0  0  0
  1 15  1  0  0  0  0
  2  3  1  0  0  0  0
  2 14  1  0  0  0  0
  3  4  2  0  0  0  0
  3  5  1  0  0  0  0
  5  6  2  0  0  0  0
  5 13  1  0  0  0  0
  6  7  1  0  0  0  0
  6 16  1  0  0  0  0
  7  8  1  0  0  0  0
  8  9  1  0  0  0  0
  8 17  1  0  0  0  0
  8 18  1  0  0  0  0
  9 10  1  0  0  0  0
  9 12  1  0  0  0  0
  9 19  1  0  0  0  0
 10 11  1  0  0  0  0
 10 20  1  0  0  0  0
 10 21  1  0  0  0  0
 11 22  1  0  0  0  0
 12 23  1  0  0  0  0
M  END
>  <DRUGBANK_ID>
DB13389

>  <COMMON_NAME>
Iopydol

>  <CAS_NUMBER>
5579-92-0

>  <UNII>
T4661K682A

>  <SYNONYMS>
Iopydol

$$$$
