
 OpenBabel10282417213D

 39 39  0  0  1  0  0  0  0  0999 V2000
    0.9376   -0.1992    0.0780 C   0  0  0  0  0  0  0  0  0  0  0  0
    0.3887    0.5709   -1.0058 O   0  0  0  0  0  0  0  0  0  0  0  0
    1.2432    1.6724   -1.3325 C   0  0  2  0  0  0  0  0  0  0  0  0
    1.1409    2.8487   -0.3333 C   0  0  1  0  0  0  0  0  0  0  0  0
    0.0180    3.8329   -0.6549 C   0  0  2  0  0  0  0  0  0  0  0  0
    0.0947    4.2577   -2.1093 C   0  0  1  0  0  0  0  0  0  0  0  0
    0.1073    3.0272   -3.0222 C   0  0  2  0  0  0  0  0  0  0  0  0
    1.1250    2.0821   -2.6955 O   0  0  0  0  0  0  0  0  0  0  0  0
    0.4340    3.5381   -4.4380 C   0  0  0  0  0  0  0  0  0  0  0  0
    0.0756    2.5931   -5.4696 N   0  0  0  0  0  0  0  0  0  0  0  0
   -0.8967    2.4885   -6.4085 C   0  0  0  0  0  0  0  0  0  0  0  0
   -0.7969    1.4824   -7.1067 O   0  0  0  0  0  0  0  0  0  0  0  0
   -1.9129    3.4205   -6.5550 N   0  0  0  0  0  0  0  0  0  0  0  0
   -2.2079    4.6553   -5.8027 C   0  0  0  0  0  0  0  0  0  0  0  0
   -1.7971    5.9566   -6.5008 C   0  0  0  0  0  0  0  0  0  0  0  0
   -3.0047    6.5889   -7.6441 Cl  0  0  0  0  0  0  0  0  0  0  0  0
   -2.8239    3.0644   -7.5781 N   0  0  0  0  0  0  0  0  0  0  0  0
   -3.8607    3.7348   -7.5988 O   0  0  0  0  0  0  0  0  0  0  0  0
   -0.9920    5.1270   -2.4587 O   0  0  0  0  0  0  0  0  0  0  0  0
    0.1310    4.9898    0.1905 O   0  0  0  0  0  0  0  0  0  0  0  0
    0.9992    2.4377    1.0278 O   0  0  0  0  0  0  0  0  0  0  0  0
    0.5714   -1.2267    0.0396 H   0  0  0  0  0  0  0  0  0  0  0  0
    0.6014    0.2071    1.0324 H   0  0  0  0  0  0  0  0  0  0  0  0
    2.0341   -0.2176    0.0628 H   0  0  0  0  0  0  0  0  0  0  0  0
    2.2696    1.2929   -1.2947 H   0  0  0  0  0  0  0  0  0  0  0  0
    2.0922    3.3879   -0.3912 H   0  0  0  0  0  0  0  0  0  0  0  0
   -0.9668    3.4079   -0.4287 H   0  0  0  0  0  0  0  0  0  0  0  0
    1.0119    4.8430   -2.2531 H   0  0  0  0  0  0  0  0  0  0  0  0
   -0.8724    2.5295   -3.0012 H   0  0  0  0  0  0  0  0  0  0  0  0
   -0.0003    4.5055   -4.6271 H   0  0  0  0  0  0  0  0  0  0  0  0
    1.5065    3.7293   -4.5446 H   0  0  0  0  0  0  0  0  0  0  0  0
    0.6747    1.7712   -5.5090 H   0  0  0  0  0  0  0  0  0  0  0  0
   -3.2465    4.6451   -5.4543 H   0  0  0  0  0  0  0  0  0  0  0  0
   -1.6951    4.6391   -4.8581 H   0  0  0  0  0  0  0  0  0  0  0  0
   -1.6816    6.7427   -5.7489 H   0  0  0  0  0  0  0  0  0  0  0  0
   -0.8454    5.8572   -7.0317 H   0  0  0  0  0  0  0  0  0  0  0  0
   -1.8213    4.7502   -2.1117 H   0  0  0  0  0  0  0  0  0  0  0  0
    1.0457    5.3223    0.1368 H   0  0  0  0  0  0  0  0  0  0  0  0
    0.0699    2.1517    1.1319 H   0  0  0  0  0  0  0  0  0  0  0  0
  1  2  1  0  0  0  0
  1 22  1  0  0  0  0
  1 23  1  0  0  0  0
  1 24  1  0  0  0  0
  3  2  1  0  0  0  0
  3  4  1  0  0  0  0
  3  8  1  0  0  0  0
  3 25  1  1  0  0  0
  4  5  1  0  0  0  0
  4 21  1  0  0  0  0
  4 26  1  6  0  0  0
  5  6  1  0  0  0  0
  5 20  1  0  0  0  0
  5 27  1  1  0  0  0
  6  7  1  0  0  0  0
  6 19  1  0  0  0  0
  6 28  1  6  0  0  0
  7  8  1  0  0  0  0
  7  9  1  0  0  0  0
  7 29  1  1  0  0  0
  9 10  1  0  0  0  0
  9 30  1  0  0  0  0
  9 31  1  0  0  0  0
 10 11  1  0  0  0  0
 10 32  1  0  0  0  0
 11 12  2  0  0  0  0
 11 13  1  0  0  0  0
 13 14  1  0  0  0  0
 13 17  1  0  0  0  0
 14 15  1  0  0  0  0
 14 33  1  0  0  0  0
 14 34  1  0  0  0  0
 15 16  1  0  0  0  0
 15 35  1  0  0  0  0
 15 36  1  0  0  0  0
 17 18  2  0  0  0  0
 19 37  1  0  0  0  0
 20 38  1  0  0  0  0
 21 39  1  0  0  0  0
M  END
>  <DRUGBANK_ID>
DB13832

>  <COMMON_NAME>
Ranimustine

>  <CAS_NUMBER>
58994-96-0

>  <UNII>
RYH2T97J77

>  <SYNONYMS>
Ranimustine

$$$$
