
 OpenBabel10282417223D

208208  0  0  1  0  0  0  0  0999 V2000
  -22.9890    6.9103   30.7382 C   0  0  0  0  0  0  0  0  0  0  0  0
  -21.5694    7.1627   31.2149 C   0  0  0  0  0  0  0  0  0  0  0  0
  -20.6653    6.0064   30.7921 C   0  0  0  0  0  0  0  0  0  0  0  0
  -20.6505    5.8638   29.2676 C   0  0  0  0  0  0  0  0  0  0  0  0
  -20.1478    7.1575   28.6210 C   0  0  0  0  0  0  0  0  0  0  0  0
  -18.7238    7.4506   29.0964 C   0  0  0  0  0  0  0  0  0  0  0  0
  -17.8072    6.2921   28.7004 C   0  0  0  0  0  0  0  0  0  0  0  0
  -17.8213    6.1321   27.1794 C   0  0  0  0  0  0  0  0  0  0  0  0
  -17.3297    7.4272   26.5320 C   0  0  0  0  0  0  0  0  0  0  0  0
  -15.9089    7.7224   27.0151 C   0  0  0  0  0  0  0  0  0  0  0  0
  -14.9937    6.5637   26.6213 C   0  0  0  0  0  0  0  0  0  0  0  0
  -15.0198    6.4112   25.1015 C   0  0  0  0  0  0  0  0  0  0  0  0
  -14.5529    7.7273   24.4666 C   0  0  0  0  0  0  0  0  0  0  0  0
  -13.1294    8.0255   24.9030 C   0  0  0  0  0  0  0  0  0  0  0  0
  -12.2789    6.8352   24.6093 C   0  0  0  0  0  0  0  0  0  0  0  0
  -12.2283    6.5092   23.1899 C   0  0  0  0  0  0  0  0  0  0  0  0
  -11.0728    6.2850   22.8873 O   0  0  0  0  0  0  0  0  0  0  0  0
  -13.3567    6.3606   22.4575 O   0  0  0  0  0  0  0  0  0  0  0  0
  -13.3999    6.1753   21.0105 C   0  0  0  0  0  0  0  0  0  0  0  0
  -12.9159    7.3986   20.2636 C   0  0  2  0  0  0  0  0  0  0  0  0
  -12.8343    7.0923   18.7599 C   0  0  0  0  0  0  0  0  0  0  0  0
  -11.5775    6.4880   18.5065 O   0  0  0  0  0  0  0  0  0  0  0  0
  -10.5536    7.3657   18.7107 C   0  0  0  0  0  0  0  0  0  0  0  0
  -10.7423    8.5750   18.8123 O   0  0  0  0  0  0  0  0  0  0  0  0
   -9.1615    6.6508   18.7937 C   0  0  2  0  0  0  0  0  0  0  0  0
   -9.1602    5.4478   17.9392 C   0  0  0  0  0  0  0  0  0  0  0  0
   -7.8956    6.5888   19.6400 N   0  0  0  0  0  0  0  0  0  0  0  0
   -6.7763    7.4437   19.8487 C   0  0  0  0  0  0  0  0  0  0  0  0
   -6.1608    7.3354   20.9135 O   0  0  0  0  0  0  0  0  0  0  0  0
   -6.3010    8.5821   18.8729 C   0  0  0  0  0  0  0  0  0  0  0  0
   -5.7932    7.9410   17.5932 C   0  0  0  0  0  0  0  0  0  0  0  0
   -6.8757    7.0964   17.0753 C   0  0  1  0  0  0  0  0  0  0  0  0
   -7.9592    8.1513   16.9312 N   0  0  0  0  0  0  0  0  0  0  0  0
   -8.8418    8.5030   15.9927 C   0  0  0  0  0  0  0  0  0  0  0  0
   -9.1644    9.5903   16.5768 O   0  0  0  0  0  0  0  0  0  0  0  0
   -8.6668    8.0511   13.8806 C   0  0  2  0  0  0  0  0  0  0  0  0
   -6.5567    8.2338   13.7139 C   0  0  0  0  0  0  0  0  0  0  0  0
   -9.6039    7.9626   12.5402 N   0  0  0  0  0  0  0  0  0  0  0  0
  -10.1571    6.8523   11.8785 C   0  0  0  0  0  0  0  0  0  0  0  0
  -10.9598    7.1971   10.9986 O   0  0  0  0  0  0  0  0  0  0  0  0
   -9.9267    5.1485   12.4854 C   0  0  1  0  0  0  0  0  0  0  0  0
   -8.4503    4.1458   12.4410 C   0  0  0  0  0  0  0  0  0  0  0  0
  -10.3507    4.8551   13.7925 O   0  0  0  0  0  0  0  0  0  0  0  0
   -9.8093    5.8288   14.6413 C   0  0  2  0  0  0  0  0  0  0  0  0
  -10.8118    6.9923   14.6440 C   0  0  1  0  0  0  0  0  0  0  0  0
  -11.8926    6.8972   13.7810 N   0  0  0  0  0  0  0  0  0  0  0  0
  -13.0808    7.2445   14.2989 C   0  0  0  0  0  0  0  0  0  0  0  0
  -13.9975    7.4669   13.2075 C   0  0  0  0  0  0  0  0  0  0  0  0
  -13.3695    7.3232   15.4790 O   0  0  0  0  0  0  0  0  0  0  0  0
  -11.1164    7.0758   16.0198 C   0  0  0  0  0  0  0  0  0  0  0  0
  -10.6818    7.9688   16.6856 O   0  0  0  0  0  0  0  0  0  0  0  0
   -8.0733    6.1241   14.2649 C   0  0  2  0  0  0  0  0  0  0  0  0
   -7.4479    7.6157   15.1138 O   0  0  0  0  0  0  0  0  0  0  0  0
   -7.8159    9.5915   14.5755 C   0  0  2  0  0  0  0  0  0  0  0  0
   -9.4351    9.6611   14.5653 O   0  0  0  0  0  0  0  0  0  0  0  0
  -10.4078   10.5676   14.6199 C   0  0  2  0  0  0  0  0  0  0  0  0
  -11.7921   10.0480   15.2698 C   0  0  0  0  0  0  0  0  0  0  0  0
  -12.0787    9.7595   16.6446 O   0  0  0  0  0  0  0  0  0  0  0  0
  -10.4127   10.5529   13.0984 C   0  0  1  0  0  0  0  0  0  0  0  0
  -10.9258   11.8091   12.8154 O   0  0  0  0  0  0  0  0  0  0  0  0
   -8.8809   10.5657   12.3495 C   0  0  2  0  0  0  0  0  0  0  0  0
   -9.0369   10.2950   10.9575 O   0  0  0  0  0  0  0  0  0  0  0  0
   -7.6584    9.7743   12.7226 C   0  0  1  0  0  0  0  0  0  0  0  0
   -6.2721    9.5674   11.8626 N   0  0  0  0  0  0  0  0  0  0  0  0
   -5.9266    8.3742   11.0675 C   0  0  0  0  0  0  0  0  0  0  0  0
   -4.4655    7.8991   11.1595 C   0  0  0  0  0  0  0  0  0  0  0  0
   -6.7066    7.6779   10.4223 O   0  0  0  0  0  0  0  0  0  0  0  0
   -7.5675    6.1882   12.4215 C   0  0  2  0  0  0  0  0  0  0  0  0
   -8.3914    5.9183   10.9959 O   0  0  0  0  0  0  0  0  0  0  0  0
   -6.0746    5.6632   12.4211 C   0  0  0  0  0  0  0  0  0  0  0  0
   -5.5965    5.2949   11.1468 O   0  0  0  0  0  0  0  0  0  0  0  0
   -6.2934    5.8806   16.1916 C   0  0  0  0  0  0  0  0  0  0  0  0
   -6.7913    4.5904   16.2909 N   0  0  0  0  0  0  0  0  0  0  0  0
   -5.5151    6.0164   15.2501 O   0  0  0  0  0  0  0  0  0  0  0  0
  -11.6577    7.7846   20.8918 O   0  0  0  0  0  0  0  0  0  0  0  0
  -10.5933    6.9009   20.9590 C   0  0  0  0  0  0  0  0  0  0  0  0
  -10.6097    5.7217   20.5795 O   0  0  0  0  0  0  0  0  0  0  0  0
   -9.3369    7.5709   21.4866 C   0  0  0  0  0  0  0  0  0  0  0  0
   -8.8756    8.8046   20.6880 C   0  0  0  0  0  0  0  0  0  0  0  0
   -9.8115    9.9529   20.7675 C   0  0  0  0  0  0  0  0  0  0  0  0
   -9.9010   10.2337   22.2197 C   0  0  0  0  0  0  0  0  0  0  0  0
   -8.5053   10.5992   22.7037 C   0  0  0  0  0  0  0  0  0  0  0  0
   -8.0063   11.7865   21.8746 C   0  0  0  0  0  0  0  0  0  0  0  0
   -9.0253   12.9185   22.0048 C   0  0  0  0  0  0  0  0  0  0  0  0
   -9.1832   13.2612   23.4863 C   0  0  0  0  0  0  0  0  0  0  0  0
   -7.8252   13.6876   24.0444 C   0  0  0  0  0  0  0  0  0  0  0  0
   -7.3263   14.9088   23.2716 C   0  0  0  0  0  0  0  0  0  0  0  0
   -8.3344   16.0491   23.4215 C   0  0  0  0  0  0  0  0  0  0  0  0
   -8.4902   16.4062   24.9021 C   0  0  0  0  0  0  0  0  0  0  0  0
   -7.1472   16.8625   25.4791 C   0  0  0  0  0  0  0  0  0  0  0  0
   -6.6229   18.0805   24.7211 C   0  0  0  0  0  0  0  0  0  0  0  0
   -7.6135   19.2260   24.8348 C   0  0  0  0  0  0  0  0  0  0  0  0
  -23.0491    6.8279   29.6481 H   0  0  0  0  0  0  0  0  0  0  0  0
  -23.6440    7.7319   31.0242 H   0  0  0  0  0  0  0  0  0  0  0  0
  -23.3593    5.9746   31.1668 H   0  0  0  0  0  0  0  0  0  0  0  0
  -21.2101    8.1167   30.8113 H   0  0  0  0  0  0  0  0  0  0  0  0
  -21.5428    7.2763   32.3008 H   0  0  0  0  0  0  0  0  0  0  0  0
  -19.6539    6.1712   31.1824 H   0  0  0  0  0  0  0  0  0  0  0  0
  -20.9997    5.0707   31.2475 H   0  0  0  0  0  0  0  0  0  0  0  0
  -20.0399    5.0019   28.9826 H   0  0  0  0  0  0  0  0  0  0  0  0
  -21.6383    5.6149   28.8759 H   0  0  0  0  0  0  0  0  0  0  0  0
  -20.2092    7.0738   27.5322 H   0  0  0  0  0  0  0  0  0  0  0  0
  -20.7937    8.0096   28.8435 H   0  0  0  0  0  0  0  0  0  0  0  0
  -18.3858    8.4054   28.6845 H   0  0  0  0  0  0  0  0  0  0  0  0
  -18.6724    7.6102   30.1756 H   0  0  0  0  0  0  0  0  0  0  0  0
  -16.8017    6.4663   29.0910 H   0  0  0  0  0  0  0  0  0  0  0  0
  -18.0981    5.3517   29.1732 H   0  0  0  0  0  0  0  0  0  0  0  0
  -17.2175    5.2675   26.8933 H   0  0  0  0  0  0  0  0  0  0  0  0
  -18.8124    5.8806   26.7955 H   0  0  0  0  0  0  0  0  0  0  0  0
  -17.3941    7.3436   25.4444 H   0  0  0  0  0  0  0  0  0  0  0  0
  -17.9782    8.2776   26.7530 H   0  0  0  0  0  0  0  0  0  0  0  0
  -15.5717    8.6781   26.6076 H   0  0  0  0  0  0  0  0  0  0  0  0
  -15.8569    7.8840   28.0932 H   0  0  0  0  0  0  0  0  0  0  0  0
  -13.9860    6.7399   27.0064 H   0  0  0  0  0  0  0  0  0  0  0  0
  -15.2822    5.6215   27.0930 H   0  0  0  0  0  0  0  0  0  0  0  0
  -14.4164    5.5452   24.8128 H   0  0  0  0  0  0  0  0  0  0  0  0
  -16.0069    6.1500   24.7169 H   0  0  0  0  0  0  0  0  0  0  0  0
  -14.6507    7.6796   23.3850 H   0  0  0  0  0  0  0  0  0  0  0  0
  -15.1926    8.5736   24.7047 H   0  0  0  0  0  0  0  0  0  0  0  0
  -12.7493    8.9278   24.4149 H   0  0  0  0  0  0  0  0  0  0  0  0
  -13.0545    8.2121   25.9787 H   0  0  0  0  0  0  0  0  0  0  0  0
  -11.2471    7.0693   24.9147 H   0  0  0  0  0  0  0  0  0  0  0  0
  -12.5070    5.8909   25.1013 H   0  0  0  0  0  0  0  0  0  0  0  0
  -12.8310    5.2896   20.7304 H   0  0  0  0  0  0  0  0  0  0  0  0
  -14.4369    5.9931   20.6976 H   0  0  0  0  0  0  0  0  0  0  0  0
  -13.6084    8.2452   20.3750 H   0  0  0  0  0  0  0  0  0  0  0  0
  -13.5738    6.3553   18.4352 H   0  0  0  0  0  0  0  0  0  0  0  0
  -13.0201    7.9764   18.1350 H   0  0  0  0  0  0  0  0  0  0  0  0
   -8.8224    7.4831   18.3239 H   0  0  0  0  0  0  0  0  0  0  0  0
  -10.0289    4.8196   18.0475 H   0  0  0  0  0  0  0  0  0  0  0  0
   -9.0519    5.8318   16.9415 H   0  0  0  0  0  0  0  0  0  0  0  0
   -8.2851    4.8530   18.1622 H   0  0  0  0  0  0  0  0  0  0  0  0
   -8.0336    5.8415   20.2997 H   0  0  0  0  0  0  0  0  0  0  0  0
   -7.0445    9.3870   18.7360 H   0  0  0  0  0  0  0  0  0  0  0  0
   -5.4658    9.1572   19.2772 H   0  0  0  0  0  0  0  0  0  0  0  0
   -5.5596    8.6803   16.8158 H   0  0  0  0  0  0  0  0  0  0  0  0
   -4.9853    7.2476   17.7770 H   0  0  0  0  0  0  0  0  0  0  0  0
   -7.1915    6.4439   17.8238 H   0  0  0  0  0  0  0  0  0  0  0  0
   -8.2857    8.8411   17.6474 H   0  0  0  0  0  0  0  0  0  0  0  0
   -9.0733    7.2034   13.6826 H   0  0  0  0  0  0  0  0  0  0  0  0
   -6.3411    7.7376   12.8881 H   0  0  0  0  0  0  0  0  0  0  0  0
   -6.1023    9.2520   14.0032 H   0  0  0  0  0  0  0  0  0  0  0  0
   -5.8066    7.8404   14.4443 H   0  0  0  0  0  0  0  0  0  0  0  0
   -9.9459    8.7580   12.0416 H   0  0  0  0  0  0  0  0  0  0  0  0
  -10.6888    4.7122   11.8511 H   0  0  0  0  0  0  0  0  0  0  0  0
   -7.8024    4.3294   13.2937 H   0  0  0  0  0  0  0  0  0  0  0  0
   -8.4328    3.0912   12.5505 H   0  0  0  0  0  0  0  0  0  0  0  0
   -7.6800    4.2931   11.6597 H   0  0  0  0  0  0  0  0  0  0  0  0
   -9.9090    5.3367   15.5954 H   0  0  0  0  0  0  0  0  0  0  0  0
  -10.5832    7.9976   14.3679 H   0  0  0  0  0  0  0  0  0  0  0  0
  -11.7331    7.4035   12.9060 H   0  0  0  0  0  0  0  0  0  0  0  0
  -14.6703    6.6506   13.4227 H   0  0  0  0  0  0  0  0  0  0  0  0
  -14.3640    8.4819   13.3101 H   0  0  0  0  0  0  0  0  0  0  0  0
  -13.5014    7.3327   12.2379 H   0  0  0  0  0  0  0  0  0  0  0  0
  -11.6245    6.2688   16.4663 H   0  0  0  0  0  0  0  0  0  0  0  0
   -7.7584    5.2377   14.7289 H   0  0  0  0  0  0  0  0  0  0  0  0
   -7.3372   10.1608   15.3614 H   0  0  0  0  0  0  0  0  0  0  0  0
   -9.9404   11.3644   15.1583 H   0  0  0  0  0  0  0  0  0  0  0  0
  -12.5292   10.8082   15.1066 H   0  0  0  0  0  0  0  0  0  0  0  0
  -12.1338    9.2124   14.6849 H   0  0  0  0  0  0  0  0  0  0  0  0
  -11.5265    9.0351   17.0281 H   0  0  0  0  0  0  0  0  0  0  0  0
  -11.1126    9.7607   12.7323 H   0  0  0  0  0  0  0  0  0  0  0  0
  -10.2827   12.3203   13.3406 H   0  0  0  0  0  0  0  0  0  0  0  0
   -8.4108   11.4675   12.7213 H   0  0  0  0  0  0  0  0  0  0  0  0
   -9.0797    9.3233   10.7540 H   0  0  0  0  0  0  0  0  0  0  0  0
   -7.9553    8.8705   12.2513 H   0  0  0  0  0  0  0  0  0  0  0  0
   -5.4866    9.7330   12.4727 H   0  0  0  0  0  0  0  0  0  0  0  0
   -4.1490    6.9400   11.6198 H   0  0  0  0  0  0  0  0  0  0  0  0
   -4.2440    7.7476   10.1085 H   0  0  0  0  0  0  0  0  0  0  0  0
   -3.8789    8.6424   11.6761 H   0  0  0  0  0  0  0  0  0  0  0  0
   -7.7118    7.1848   12.1134 H   0  0  0  0  0  0  0  0  0  0  0  0
   -8.5277    5.0466   10.5481 H   0  0  0  0  0  0  0  0  0  0  0  0
   -5.3908    6.3421   12.9357 H   0  0  0  0  0  0  0  0  0  0  0  0
   -5.9302    4.7910   13.0513 H   0  0  0  0  0  0  0  0  0  0  0  0
   -6.3269    5.4313   10.5145 H   0  0  0  0  0  0  0  0  0  0  0  0
   -6.6225    4.0681   15.4298 H   0  0  0  0  0  0  0  0  0  0  0  0
   -7.7143    4.3470   16.6135 H   0  0  0  0  0  0  0  0  0  0  0  0
   -9.4088    7.7825   22.5371 H   0  0  0  0  0  0  0  0  0  0  0  0
   -8.5938    6.7833   21.6126 H   0  0  0  0  0  0  0  0  0  0  0  0
   -7.8650    9.0823   20.9846 H   0  0  0  0  0  0  0  0  0  0  0  0
   -8.7383    8.7384   19.6290 H   0  0  0  0  0  0  0  0  0  0  0  0
   -9.4482   10.7320   20.0855 H   0  0  0  0  0  0  0  0  0  0  0  0
  -10.8202    9.7785   20.4317 H   0  0  0  0  0  0  0  0  0  0  0  0
  -10.6684   10.9871   22.3391 H   0  0  0  0  0  0  0  0  0  0  0  0
  -10.2989    9.3762   22.7599 H   0  0  0  0  0  0  0  0  0  0  0  0
   -8.5609   10.7830   23.7710 H   0  0  0  0  0  0  0  0  0  0  0  0
   -7.7743    9.7855   22.6501 H   0  0  0  0  0  0  0  0  0  0  0  0
   -7.0064   12.0645   22.2067 H   0  0  0  0  0  0  0  0  0  0  0  0
   -7.8500   11.5526   20.8158 H   0  0  0  0  0  0  0  0  0  0  0  0
   -8.7122   13.7706   21.4009 H   0  0  0  0  0  0  0  0  0  0  0  0
   -9.9999   12.6639   21.5787 H   0  0  0  0  0  0  0  0  0  0  0  0
   -9.9502   14.0273   23.6081 H   0  0  0  0  0  0  0  0  0  0  0  0
   -9.5768   12.4267   24.0725 H   0  0  0  0  0  0  0  0  0  0  0  0
   -7.9102   13.8766   25.1159 H   0  0  0  0  0  0  0  0  0  0  0  0
   -7.0813   12.8884   23.9924 H   0  0  0  0  0  0  0  0  0  0  0  0
   -6.3305   15.1863   23.6229 H   0  0  0  0  0  0  0  0  0  0  0  0
   -7.1674   14.6927   22.2115 H   0  0  0  0  0  0  0  0  0  0  0  0
   -8.0167   16.9034   22.8202 H   0  0  0  0  0  0  0  0  0  0  0  0
   -9.3106   15.7944   22.9987 H   0  0  0  0  0  0  0  0  0  0  0  0
   -9.2604   17.1707   25.0184 H   0  0  0  0  0  0  0  0  0  0  0  0
   -8.8771   15.5656   25.4858 H   0  0  0  0  0  0  0  0  0  0  0  0
   -7.2602   17.0904   26.5421 H   0  0  0  0  0  0  0  0  0  0  0  0
   -6.4050   16.0565   25.4347 H   0  0  0  0  0  0  0  0  0  0  0  0
   -5.6488   18.3735   25.1186 H   0  0  0  0  0  0  0  0  0  0  0  0
   -6.4503   17.8472   23.6639 H   0  0  0  0  0  0  0  0  0  0  0  0
   -7.7613   19.4804   25.8882 H   0  0  0  0  0  0  0  0  0  0  0  0
   -7.2575   20.0995   24.2906 H   0  0  0  0  0  0  0  0  0  0  0  0
   -8.5898   18.9702   24.4104 H   0  0  0  0  0  0  0  0  0  0  0  0
  1  2  1  0  0  0  0
  1 93  1  0  0  0  0
  1 94  1  0  0  0  0
  1 95  1  0  0  0  0
  2  3  1  0  0  0  0
  2 96  1  0  0  0  0
  2 97  1  0  0  0  0
  3  4  1  0  0  0  0
  3 98  1  0  0  0  0
  3 99  1  0  0  0  0
  4  5  1  0  0  0  0
  4100  1  0  0  0  0
  4101  1  0  0  0  0
  5  6  1  0  0  0  0
  5102  1  0  0  0  0
  5103  1  0  0  0  0
  6  7  1  0  0  0  0
  6104  1  0  0  0  0
  6105  1  0  0  0  0
  7  8  1  0  0  0  0
  7106  1  0  0  0  0
  7107  1  0  0  0  0
  8  9  1  0  0  0  0
  8108  1  0  0  0  0
  8109  1  0  0  0  0
  9 10  1  0  0  0  0
  9110  1  0  0  0  0
  9111  1  0  0  0  0
 10 11  1  0  0  0  0
 10112  1  0  0  0  0
 10113  1  0  0  0  0
 11 12  1  0  0  0  0
 11114  1  0  0  0  0
 11115  1  0  0  0  0
 12 13  1  0  0  0  0
 12116  1  0  0  0  0
 12117  1  0  0  0  0
 13 14  1  0  0  0  0
 13118  1  0  0  0  0
 13119  1  0  0  0  0
 14 15  1  0  0  0  0
 14120  1  0  0  0  0
 14121  1  0  0  0  0
 15 16  1  0  0  0  0
 15122  1  0  0  0  0
 15123  1  0  0  0  0
 16 17  2  0  0  0  0
 16 18  1  0  0  0  0
 18 19  1  0  0  0  0
 19124  1  0  0  0  0
 19125  1  0  0  0  0
 20 75  1  0  0  0  0
 20126  1  1  0  0  0
 20 21  1  0  0  0  0
 20 19  1  0  0  0  0
 21 22  1  0  0  0  0
 21127  1  0  0  0  0
 21128  1  0  0  0  0
 22 23  1  0  0  0  0
 23 24  2  0  0  0  0
 25 27  1  0  0  0  0
 25129  1  6  0  0  0
 25 26  1  0  0  0  0
 25 23  1  0  0  0  0
 26130  1  0  0  0  0
 26131  1  0  0  0  0
 26132  1  0  0  0  0
 27 28  1  0  0  0  0
 27133  1  0  0  0  0
 28 29  2  0  0  0  0
 28 30  1  0  0  0  0
 30 31  1  0  0  0  0
 30134  1  0  0  0  0
 30135  1  0  0  0  0
 31136  1  0  0  0  0
 31137  1  0  0  0  0
 32 31  1  0  0  0  0
 32 33  1  0  0  0  0
 32 72  1  0  0  0  0
 32138  1  1  0  0  0
 33 34  1  0  0  0  0
 33139  1  0  0  0  0
 34 35  2  0  0  0  0
 36 38  1  0  0  0  0
 36140  1  1  0  0  0
 36 37  1  0  0  0  0
 36 34  1  0  0  0  0
 37141  1  0  0  0  0
 37142  1  0  0  0  0
 37143  1  0  0  0  0
 38 39  1  0  0  0  0
 38144  1  0  0  0  0
 39 40  2  0  0  0  0
 41 39  1  0  0  0  0
 41 42  1  0  0  0  0
 41 43  1  0  0  0  0
 41145  1  6  0  0  0
 42146  1  0  0  0  0
 42147  1  0  0  0  0
 42148  1  0  0  0  0
 44149  1  1  0  0  0
 44 45  1  0  0  0  0
 44 43  1  0  0  0  0
 45 46  1  0  0  0  0
 45 50  1  0  0  0  0
 45150  1  6  0  0  0
 46 47  1  0  0  0  0
 46151  1  0  0  0  0
 47 48  1  0  0  0  0
 47 49  2  0  0  0  0
 48152  1  0  0  0  0
 48153  1  0  0  0  0
 48154  1  0  0  0  0
 50 51  2  0  0  0  0
 50155  1  0  0  0  0
 52156  1  1  0  0  0
 52 53  1  0  0  0  0
 52 44  1  0  0  0  0
 54 53  1  0  0  0  0
 54 55  1  0  0  0  0
 54157  1  1  0  0  0
 56 55  1  0  0  0  0
 56158  1  1  0  0  0
 56 57  1  0  0  0  0
 57 58  1  0  0  0  0
 57159  1  0  0  0  0
 57160  1  0  0  0  0
 58161  1  0  0  0  0
 59 56  1  0  0  0  0
 59 60  1  0  0  0  0
 59 61  1  0  0  0  0
 59162  1  6  0  0  0
 60163  1  0  0  0  0
 61 62  1  0  0  0  0
 61 63  1  0  0  0  0
 61164  1  1  0  0  0
 62165  1  0  0  0  0
 63 54  1  0  0  0  0
 63 64  1  0  0  0  0
 63166  1  6  0  0  0
 64 65  1  0  0  0  0
 64167  1  0  0  0  0
 65 66  1  0  0  0  0
 65 67  2  0  0  0  0
 66168  1  0  0  0  0
 66169  1  0  0  0  0
 66170  1  0  0  0  0
 68 70  1  0  0  0  0
 68171  1  6  0  0  0
 68 69  1  0  0  0  0
 68 52  1  0  0  0  0
 69172  1  0  0  0  0
 70 71  1  0  0  0  0
 70173  1  0  0  0  0
 70174  1  0  0  0  0
 71175  1  0  0  0  0
 72 73  1  0  0  0  0
 72 74  2  0  0  0  0
 73176  1  0  0  0  0
 73177  1  0  0  0  0
 75 76  1  0  0  0  0
 76 77  2  0  0  0  0
 76 78  1  0  0  0  0
 78 79  1  0  0  0  0
 78178  1  0  0  0  0
 78179  1  0  0  0  0
 79 80  1  0  0  0  0
 79180  1  0  0  0  0
 79181  1  0  0  0  0
 80 81  1  0  0  0  0
 80182  1  0  0  0  0
 80183  1  0  0  0  0
 81 82  1  0  0  0  0
 81184  1  0  0  0  0
 81185  1  0  0  0  0
 82 83  1  0  0  0  0
 82186  1  0  0  0  0
 82187  1  0  0  0  0
 83 84  1  0  0  0  0
 83188  1  0  0  0  0
 83189  1  0  0  0  0
 84 85  1  0  0  0  0
 84190  1  0  0  0  0
 84191  1  0  0  0  0
 85 86  1  0  0  0  0
 85192  1  0  0  0  0
 85193  1  0  0  0  0
 86 87  1  0  0  0  0
 86194  1  0  0  0  0
 86195  1  0  0  0  0
 87 88  1  0  0  0  0
 87196  1  0  0  0  0
 87197  1  0  0  0  0
 88 89  1  0  0  0  0
 88198  1  0  0  0  0
 88199  1  0  0  0  0
 89 90  1  0  0  0  0
 89200  1  0  0  0  0
 89201  1  0  0  0  0
 90 91  1  0  0  0  0
 90202  1  0  0  0  0
 90203  1  0  0  0  0
 91 92  1  0  0  0  0
 91204  1  0  0  0  0
 91205  1  0  0  0  0
 92206  1  0  0  0  0
 92207  1  0  0  0  0
 92208  1  0  0  0  0
M  END
>  <DRUGBANK_ID>
DB15423

>  <COMMON_NAME>
Disaccharide tripeptide glycerol dipalmitoyl

>  <CAS_NUMBER>
130114-83-9

>  <UNII>
6PHSP9EORV

$$$$
