
 OpenBabel10282417133D

 35 35  0  0  0  0  0  0  0  0999 V2000
   -1.0259    0.7977    2.4744 O   0  0  0  0  0  0  0  0  0  0  0  0
    0.6377    1.1773    4.9941 O   0  0  0  0  0  0  0  0  0  0  0  0
    0.7995   -0.7325    1.0849 O   0  0  0  0  0  0  0  0  0  0  0  0
    1.3447   -2.5486    3.2266 O   0  0  0  0  0  0  0  0  0  0  0  0
    3.1731    8.0317    4.7706 O   0  0  0  0  0  0  0  0  0  0  0  0
   -0.0764    7.9994    1.6689 O   0  0  0  0  0  0  0  0  0  0  0  0
    4.0931    4.0980    4.1053 O   0  5  0  0  0  0  0  0  0  0  0  0
    4.2222    5.7619    5.4827 O   0  0  0  0  0  0  0  0  0  0  0  0
    1.6299    3.8987    2.7329 N   0  0  0  0  0  0  0  0  0  0  0  0
    0.9069    6.0257    2.2156 N   0  0  0  0  0  0  0  0  0  0  0  0
    1.5664    7.9850    3.2232 N   0  0  0  0  0  0  0  0  0  0  0  0
    3.7059    5.2020    4.5087 N   0  3  0  0  0  0  0  0  0  0  0  0
    0.3884    1.0916    2.5378 C   0  0  1  0  0  0  0  0  0  0  0  0
    0.5536    1.9509    3.7975 C   0  0  2  0  0  0  0  0  0  0  0  0
    1.1551   -0.2459    2.4007 C   0  0  1  0  0  0  0  0  0  0  0  0
    1.7600    2.8653    3.7550 C   0  0  0  0  0  0  0  0  0  0  0  0
    0.7763   -1.2725    3.4872 C   0  0  0  0  0  0  0  0  0  0  0  0
    1.7887    5.2530    2.9463 C   0  0  0  0  0  0  0  0  0  0  0  0
    2.6306    5.8922    3.8019 C   0  0  0  0  0  0  0  0  0  0  0  0
    2.5084    7.3546    3.9862 C   0  0  0  0  0  0  0  0  0  0  0  0
    0.7485    7.3771    2.3229 C   0  0  0  0  0  0  0  0  0  0  0  0
    1.7168    3.5984    1.7619 H   0  0  0  0  0  0  0  0  0  0  0  0
    0.2524    5.5664    1.5908 H   0  0  0  0  0  0  0  0  0  0  0  0
    1.4664    8.9813    3.3468 H   0  0  0  0  0  0  0  0  0  0  0  0
   -1.2437    0.2721    3.2580 H   0  0  0  0  0  0  0  0  0  0  0  0
   -0.2124    0.7346    5.1414 H   0  0  0  0  0  0  0  0  0  0  0  0
    0.8234   -1.6990    1.0668 H   0  0  0  0  0  0  0  0  0  0  0  0
    0.7953   -2.9800    2.5535 H   0  0  0  0  0  0  0  0  0  0  0  0
    0.5909    1.6964    1.6445 H   0  0  0  0  0  0  0  0  0  0  0  0
   -0.3368    2.5835    3.9078 H   0  0  0  0  0  0  0  0  0  0  0  0
    2.2437   -0.1121    2.3855 H   0  0  0  0  0  0  0  0  0  0  0  0
    1.7946    3.3412    4.7446 H   0  0  0  0  0  0  0  0  0  0  0  0
    2.6726    2.2768    3.6298 H   0  0  0  0  0  0  0  0  0  0  0  0
    1.1478   -0.9611    4.4647 H   0  0  0  0  0  0  0  0  0  0  0  0
   -0.3052   -1.4153    3.5681 H   0  0  0  0  0  0  0  0  0  0  0  0
  1 25  1  0  0  0  0
  2 26  1  0  0  0  0
  3 27  1  0  0  0  0
  4 17  1  0  0  0  0
  4 28  1  0  0  0  0
  5 20  2  0  0  0  0
  6 21  2  0  0  0  0
  7 12  1  0  0  0  0
  8 12  2  0  0  0  0
  9 16  1  0  0  0  0
  9 18  1  0  0  0  0
  9 22  1  0  0  0  0
 10 18  1  0  0  0  0
 10 21  1  0  0  0  0
 10 23  1  0  0  0  0
 11 20  1  0  0  0  0
 11 21  1  0  0  0  0
 11 24  1  0  0  0  0
 12 19  1  0  0  0  0
 13  1  1  0  0  0  0
 13 14  1  0  0  0  0
 13 29  1  6  0  0  0
 14  2  1  0  0  0  0
 14 16  1  0  0  0  0
 14 30  1  1  0  0  0
 15 17  1  0  0  0  0
 15 31  1  1  0  0  0
 15 13  1  0  0  0  0
 15  3  1  0  0  0  0
 16 32  1  0  0  0  0
 16 33  1  0  0  0  0
 17 34  1  0  0  0  0
 17 35  1  0  0  0  0
 18 19  2  0  0  0  0
 19 20  1  0  0  0  0
M  CHG  2   7  -1  12   1
M  END
>  <DRUGBANK_ID>
DB04162

>  <SECONDARY_ACCESSION_NUMBERS>
EXPT01887

>  <COMMON_NAME>
5-Nitro-6-ribityl-amino-2,4(1H,3H)-pyrimidinedione

$$$$
