
 OpenBabel10282417143D

 91 93  0  0  0  0  0  0  0  0999 V2000
  -11.8694    6.3120    2.4327 S   0  0  0  0  0  0  0  0  0  0  0  0
  -10.4660    7.1168    2.6409 O   0  0  0  0  0  0  0  0  0  0  0  0
   -5.3502   11.1242    3.2669 O   0  0  0  0  0  0  0  0  0  0  0  0
   -7.0300   13.8507    4.5295 O   0  0  0  0  0  0  0  0  0  0  0  0
  -11.4805    5.2152    1.3330 O   0  0  0  0  0  0  0  0  0  0  0  0
  -12.8139    7.2419    1.8107 O   0  0  0  0  0  0  0  0  0  0  0  0
  -12.1682    5.6292    3.6511 O   0  0  0  0  0  0  0  0  0  0  0  0
   -2.3120    7.8153    4.1036 O   0  0  0  0  0  0  0  0  0  0  0  0
   -3.1797    5.2243    5.0758 O   0  0  0  0  0  0  0  0  0  0  0  0
   -8.1926    0.9909    3.2509 O   0  0  0  0  0  0  0  0  0  0  0  0
   -7.5663   10.5393    3.1929 N   0  0  0  0  0  0  0  0  0  0  0  0
   -7.7551   12.1703    5.7911 N   0  0  0  0  0  0  0  0  0  0  0  0
   -4.2784    8.5458    3.3436 N   0  0  0  0  0  0  0  0  0  0  0  0
   -9.7128    8.7247    8.7979 N   0  0  0  0  0  0  0  0  0  0  0  0
  -10.7539    8.9636    6.7298 N   0  0  0  0  0  0  0  0  0  0  0  0
  -10.8699    7.0349    7.6519 N   0  0  0  0  0  0  0  0  0  0  0  0
   -9.7912   10.6066    2.3443 C   0  0  2  0  0  0  0  0  0  0  0  0
   -8.7365    9.6889    2.9428 C   0  0  2  0  0  0  0  0  0  0  0  0
   -9.5618   11.9190    3.0826 C   0  0  0  0  0  0  0  0  0  0  0  0
   -7.9981   11.9789    3.2547 C   0  0  1  0  0  0  0  0  0  0  0  0
   -9.0931    8.6238    3.9569 C   0  0  0  0  0  0  0  0  0  0  0  0
  -11.1740    9.9683    2.3296 C   0  0  0  0  0  0  0  0  0  0  0  0
  -10.4585    8.0091    3.7353 C   0  0  1  0  0  0  0  0  0  0  0  0
  -11.4648    9.1693    3.5938 C   0  0  0  0  0  0  0  0  0  0  0  0
   -6.1971   10.2337    3.1415 C   0  0  0  0  0  0  0  0  0  0  0  0
   -7.5257   12.7245    4.5595 C   0  0  0  0  0  0  0  0  0  0  0  0
   -5.7266    8.7466    2.8907 C   0  0  1  0  0  0  0  0  0  0  0  0
   -5.9032    8.4163    1.3444 C   0  0  1  0  0  0  0  0  0  0  0  0
   -5.7172    6.9516    1.0063 C   0  0  0  0  0  0  0  0  0  0  0  0
   -8.5253   11.0113    5.9948 C   0  0  0  0  0  0  0  0  0  0  0  0
   -7.2590    8.6137    0.7045 C   0  0  0  0  0  0  0  0  0  0  0  0
   -3.5121    7.5541    3.9471 C   0  0  0  0  0  0  0  0  0  0  0  0
   -7.7599    9.8255    6.5976 C   0  0  0  0  0  0  0  0  0  0  0  0
   -6.8257    6.0829    1.6875 C   0  0  0  0  0  0  0  0  0  0  0  0
   -4.0625    6.1321    4.4419 C   0  0  1  0  0  0  0  0  0  0  0  0
   -7.6863    9.9972    8.0981 C   0  0  0  0  0  0  0  0  0  0  0  0
   -4.5702    5.3758    3.2502 C   0  0  0  0  0  0  0  0  0  0  0  0
   -9.0771   10.0595    8.7763 C   0  0  0  0  0  0  0  0  0  0  0  0
   -5.4938    4.1703    3.3679 C   0  0  0  0  0  0  0  0  0  0  0  0
   -6.5142    4.0810    4.3305 C   0  0  0  0  0  0  0  0  0  0  0  0
   -5.5063    3.2349    2.3088 C   0  0  0  0  0  0  0  0  0  0  0  0
  -10.4357    8.2999    7.8399 C   0  0  0  0  0  0  0  0  0  0  0  0
   -7.4190    3.0094    4.3171 C   0  0  0  0  0  0  0  0  0  0  0  0
   -6.4351    2.1952    2.2701 C   0  0  0  0  0  0  0  0  0  0  0  0
   -7.3523    2.0621    3.2998 C   0  0  0  0  0  0  0  0  0  0  0  0
   -9.5264   10.7962    1.2907 H   0  0  0  0  0  0  0  0  0  0  0  0
   -8.6308    9.0479    2.1392 H   0  0  0  0  0  0  0  0  0  0  0  0
   -7.5118   12.7297    6.5984 H   0  0  0  0  0  0  0  0  0  0  0  0
   -3.7016    9.3745    3.1872 H   0  0  0  0  0  0  0  0  0  0  0  0
  -10.4499    8.3602    5.9998 H   0  0  0  0  0  0  0  0  0  0  0  0
  -10.1901    9.7800    6.6976 H   0  0  0  0  0  0  0  0  0  0  0  0
  -11.2105    6.5877    8.4909 H   0  0  0  0  0  0  0  0  0  0  0  0
  -11.4523    6.8430    6.8425 H   0  0  0  0  0  0  0  0  0  0  0  0
  -10.8634    4.5765    1.7392 H   0  0  0  0  0  0  0  0  0  0  0  0
   -3.5451    4.3269    4.9423 H   0  0  0  0  0  0  0  0  0  0  0  0
   -8.6670    0.9184    4.0948 H   0  0  0  0  0  0  0  0  0  0  0  0
   -9.9499   12.7652    2.5078 H   0  0  0  0  0  0  0  0  0  0  0  0
  -10.1199   11.9164    4.0229 H   0  0  0  0  0  0  0  0  0  0  0  0
   -7.5562   12.5039    2.3987 H   0  0  0  0  0  0  0  0  0  0  0  0
   -9.2081    9.0932    4.8919 H   0  0  0  0  0  0  0  0  0  0  0  0
   -8.2957    7.8927    4.1148 H   0  0  0  0  0  0  0  0  0  0  0  0
  -11.2049    9.2759    1.4757 H   0  0  0  0  0  0  0  0  0  0  0  0
  -11.9502   10.7134    2.1507 H   0  0  0  0  0  0  0  0  0  0  0  0
  -10.6925    7.3888    4.6018 H   0  0  0  0  0  0  0  0  0  0  0  0
  -12.4837    8.7803    3.5781 H   0  0  0  0  0  0  0  0  0  0  0  0
  -11.4353    9.8495    4.4507 H   0  0  0  0  0  0  0  0  0  0  0  0
   -6.3033    8.1208    3.5660 H   0  0  0  0  0  0  0  0  0  0  0  0
   -5.1953    9.0364    0.7830 H   0  0  0  0  0  0  0  0  0  0  0  0
   -5.7839    6.7545   -0.0656 H   0  0  0  0  0  0  0  0  0  0  0  0
   -4.6671    6.7238    1.2162 H   0  0  0  0  0  0  0  0  0  0  0  0
   -9.4427   11.3427    6.4783 H   0  0  0  0  0  0  0  0  0  0  0  0
   -8.9000   10.7577    5.0406 H   0  0  0  0  0  0  0  0  0  0  0  0
   -7.5665    9.6522    0.7014 H   0  0  0  0  0  0  0  0  0  0  0  0
   -7.3660    8.2264   -0.3075 H   0  0  0  0  0  0  0  0  0  0  0  0
   -7.9522    7.9564    1.2258 H   0  0  0  0  0  0  0  0  0  0  0  0
   -8.2101    8.8372    6.4399 H   0  0  0  0  0  0  0  0  0  0  0  0
   -6.7791    9.7158    6.1170 H   0  0  0  0  0  0  0  0  0  0  0  0
   -7.8663    6.1621    1.3869 H   0  0  0  0  0  0  0  0  0  0  0  0
   -6.6019    5.0652    1.4261 H   0  0  0  0  0  0  0  0  0  0  0  0
   -6.9175    6.2600    2.7731 H   0  0  0  0  0  0  0  0  0  0  0  0
   -4.8808    6.3489    5.1345 H   0  0  0  0  0  0  0  0  0  0  0  0
   -7.1091    9.1682    8.5184 H   0  0  0  0  0  0  0  0  0  0  0  0
   -7.1277   10.9208    8.2751 H   0  0  0  0  0  0  0  0  0  0  0  0
   -5.1570    6.1858    2.9256 H   0  0  0  0  0  0  0  0  0  0  0  0
   -3.8244    5.2203    2.4585 H   0  0  0  0  0  0  0  0  0  0  0  0
   -8.9212   10.3833    9.8072 H   0  0  0  0  0  0  0  0  0  0  0  0
   -9.7191   10.8413    8.3506 H   0  0  0  0  0  0  0  0  0  0  0  0
   -6.6690    4.8758    5.0581 H   0  0  0  0  0  0  0  0  0  0  0  0
   -4.8794    3.3918    1.4294 H   0  0  0  0  0  0  0  0  0  0  0  0
   -8.1769    2.9440    5.0926 H   0  0  0  0  0  0  0  0  0  0  0  0
   -6.4516    1.5070    1.4291 H   0  0  0  0  0  0  0  0  0  0  0  0
  1  2  1  0  0  0  0
  1  5  1  0  0  0  0
  1  6  2  0  0  0  0
  1  7  2  0  0  0  0
  3 25  2  0  0  0  0
  4 26  2  0  0  0  0
  5 54  1  0  0  0  0
  8 32  2  0  0  0  0
  9 55  1  0  0  0  0
 10 45  1  0  0  0  0
 10 56  1  0  0  0  0
 11 18  1  0  0  0  0
 11 20  1  0  0  0  0
 11 25  1  0  0  0  0
 12 26  1  0  0  0  0
 12 30  1  0  0  0  0
 12 48  1  0  0  0  0
 13 32  1  0  0  0  0
 13 49  1  0  0  0  0
 14 38  1  0  0  0  0
 14 42  2  0  0  0  0
 15 42  1  0  0  0  0
 15 50  1  0  0  0  0
 15 51  1  0  0  0  0
 16 42  1  0  0  0  0
 16 52  1  0  0  0  0
 16 53  1  0  0  0  0
 17 18  1  0  0  0  0
 17 19  1  0  0  0  0
 17 22  1  0  0  0  0
 17 46  1  6  0  0  0
 18 21  1  0  0  0  0
 18 47  1  6  0  0  0
 19 20  1  0  0  0  0
 19 57  1  0  0  0  0
 19 58  1  0  0  0  0
 20 26  1  0  0  0  0
 20 59  1  6  0  0  0
 21 23  1  0  0  0  0
 21 60  1  0  0  0  0
 21 61  1  0  0  0  0
 22 24  1  0  0  0  0
 22 62  1  0  0  0  0
 22 63  1  0  0  0  0
 23  2  1  0  0  0  0
 23 24  1  0  0  0  0
 23 64  1  1  0  0  0
 24 65  1  0  0  0  0
 24 66  1  0  0  0  0
 27 28  1  0  0  0  0
 27 67  1  1  0  0  0
 27 25  1  0  0  0  0
 27 13  1  0  0  0  0
 28 29  1  0  0  0  0
 28 31  1  0  0  0  0
 28 68  1  6  0  0  0
 29 34  1  0  0  0  0
 29 69  1  0  0  0  0
 29 70  1  0  0  0  0
 30 33  1  0  0  0  0
 30 71  1  0  0  0  0
 30 72  1  0  0  0  0
 31 73  1  0  0  0  0
 31 74  1  0  0  0  0
 31 75  1  0  0  0  0
 33 36  1  0  0  0  0
 33 76  1  0  0  0  0
 33 77  1  0  0  0  0
 34 78  1  0  0  0  0
 34 79  1  0  0  0  0
 34 80  1  0  0  0  0
 35 37  1  0  0  0  0
 35 81  1  1  0  0  0
 35 32  1  0  0  0  0
 35  9  1  0  0  0  0
 36 38  1  0  0  0  0
 36 82  1  0  0  0  0
 36 83  1  0  0  0  0
 37 39  1  0  0  0  0
 37 84  1  0  0  0  0
 37 85  1  0  0  0  0
 38 86  1  0  0  0  0
 38 87  1  0  0  0  0
 39 40  2  0  0  0  0
 39 41  1  0  0  0  0
 40 43  1  0  0  0  0
 40 88  1  0  0  0  0
 41 44  2  0  0  0  0
 41 89  1  0  0  0  0
 43 45  2  0  0  0  0
 43 90  1  0  0  0  0
 44 45  1  0  0  0  0
 44 91  1  0  0  0  0
M  END
>  <DRUGBANK_ID>
DB04391

>  <SECONDARY_ACCESSION_NUMBERS>
EXPT00444

>  <COMMON_NAME>
Aeruginosin 98-B

$$$$
