
 OpenBabel10282417123D

 22 22  0  0  1  0  0  0  0  0999 V2000
    1.1235   -0.0450   -0.1614 C   0  0  0  0  0  0  0  0  0  0  0  0
    0.4848    1.2272   -0.7701 C   0  0  2  0  0  0  0  0  0  0  0  0
    1.4061    2.4464   -0.9575 C   0  0  1  0  0  0  0  0  0  0  0  0
    1.8142    3.0442    0.3938 C   0  0  1  0  0  0  0  0  0  0  0  0
    0.5532    3.3420    1.2150 C   0  0  2  0  0  0  0  0  0  0  0  0
   -0.2832    2.0753    1.2878 C   0  0  0  0  0  0  0  0  0  0  0  0
    0.6108   -1.2212   -0.7788 O   0  0  0  0  0  0  0  0  0  0  0  0
    2.5359    2.1374   -1.7705 O   0  0  0  0  0  0  0  0  0  0  0  0
    2.7495    2.1826    1.0555 O   0  0  0  0  0  0  0  0  0  0  0  0
   -0.2449    4.3533    0.5975 O   0  0  0  0  0  0  0  0  0  0  0  0
   -0.5689    1.5057    2.3390 O   0  0  0  0  0  0  0  0  0  0  0  0
   -0.6413    1.5850    0.0656 O   0  0  0  0  0  0  0  0  0  0  0  0
    0.0955    0.9686   -1.7620 H   0  0  0  0  0  0  0  0  0  0  0  0
    0.8387    3.2174   -1.4968 H   0  0  0  0  0  0  0  0  0  0  0  0
    2.3613    3.9779    0.2153 H   0  0  0  0  0  0  0  0  0  0  0  0
    0.8063    3.6542    2.2343 H   0  0  0  0  0  0  0  0  0  0  0  0
    0.8670   -0.1478    0.8985 H   0  0  0  0  0  0  0  0  0  0  0  0
    2.2118   -0.0743   -0.2435 H   0  0  0  0  0  0  0  0  0  0  0  0
    0.9102   -1.2234   -1.7036 H   0  0  0  0  0  0  0  0  0  0  0  0
    3.1834    1.6544   -1.2257 H   0  0  0  0  0  0  0  0  0  0  0  0
    2.2986    1.4151    1.4495 H   0  0  0  0  0  0  0  0  0  0  0  0
    0.2568    5.1850    0.5774 H   0  0  0  0  0  0  0  0  0  0  0  0
  1 17  1  0  0  0  0
  1 18  1  0  0  0  0
  2  1  1  0  0  0  0
  2 13  1  6  0  0  0
  3  2  1  0  0  0  0
  3  8  1  0  0  0  0
  3 14  1  6  0  0  0
  4  3  1  0  0  0  0
  4  9  1  0  0  0  0
  4 15  1  6  0  0  0
  5  4  1  0  0  0  0
  5 16  1  1  0  0  0
  5 10  1  0  0  0  0
  6  5  1  0  0  0  0
  7  1  1  0  0  0  0
  7 19  1  0  0  0  0
  8 20  1  0  0  0  0
  9 21  1  0  0  0  0
 10 22  1  0  0  0  0
 11  6  2  0  0  0  0
 12  2  1  0  0  0  0
 12  6  1  0  0  0  0
M  END
>  <DRUGBANK_ID>
DB01885

>  <SECONDARY_ACCESSION_NUMBERS>
EXPT00035

>  <COMMON_NAME>
D-Galctopyranosyl-1-On

>  <CAS_NUMBER>
15892-28-1

$$$$
