
 OpenBabel10282417133D

 33 33  0  0  0  0  0  0  0  0999 V2000
    1.1847    2.6296    0.3973 C   0  0  0  0  0  0  0  0  0  0  0  0
    0.5811    1.2603    0.8303 C   0  0  2  0  0  0  0  0  0  0  0  0
    1.0652    0.1077   -0.1067 C   0  0  0  0  0  0  0  0  0  0  0  0
    1.0746    0.4310   -1.5353 N   0  0  0  0  0  0  0  0  0  0  0  0
    0.3908    1.4075   -2.2082 C   0  0  0  0  0  0  0  0  0  0  0  0
    0.9733    1.4411   -3.4468 C   0  0  0  0  0  0  0  0  0  0  0  0
    1.8847    0.4349   -3.5442 N   0  0  0  0  0  0  0  0  0  0  0  0
    1.9272   -0.1965   -2.3745 N   0  0  0  0  0  0  0  0  0  0  0  0
   -0.9869    1.2543    0.9492 C   0  0  1  0  0  0  0  0  0  0  0  0
   -1.5937   -0.0313    1.4201 N   0  0  0  0  0  0  0  0  0  0  0  0
   -2.3784   -0.2112    2.5298 C   0  0  0  0  0  0  0  0  0  0  0  0
   -2.7851   -1.3574    3.0724 C   0  0  0  0  0  0  0  0  0  0  0  0
   -3.6120   -1.2939    4.2910 C   0  0  0  0  0  0  0  0  0  0  0  0
   -4.0660   -2.3094    4.8059 O   0  0  0  0  0  0  0  0  0  0  0  0
   -1.5913    2.5076    1.6240 C   0  0  0  0  0  0  0  0  0  0  0  0
   -2.0933    3.4527    1.0146 O   0  0  0  0  0  0  0  0  0  0  0  0
   -1.5840    2.4982    2.9690 O   0  0  0  0  0  0  0  0  0  0  0  0
    1.2980    0.9259    2.5551 S   0  0  0  0  0  5  0  0  0  0  0  0
    2.7709    0.8081    2.2426 O   0  0  0  0  0  0  0  0  0  0  0  0
    0.9517    2.2049    3.2845 O   0  0  0  0  0  0  0  0  0  0  0  0
    1.7341    2.5747   -0.5464 H   0  0  0  0  0  0  0  0  0  0  0  0
    1.9247    3.0518    1.0799 H   0  0  0  0  0  0  0  0  0  0  0  0
    0.4048    3.3786    0.2387 H   0  0  0  0  0  0  0  0  0  0  0  0
    2.0792   -0.2367    0.1326 H   0  0  0  0  0  0  0  0  0  0  0  0
    0.4330   -0.7845   -0.0335 H   0  0  0  0  0  0  0  0  0  0  0  0
   -0.3194    2.0733   -1.7468 H   0  0  0  0  0  0  0  0  0  0  0  0
    0.7921    2.1508   -4.2397 H   0  0  0  0  0  0  0  0  0  0  0  0
   -1.3723    1.3244   -0.0762 H   0  0  0  0  0  0  0  0  0  0  0  0
   -1.2508   -0.8852    0.9939 H   0  0  0  0  0  0  0  0  0  0  0  0
   -2.6933    0.7069    3.0098 H   0  0  0  0  0  0  0  0  0  0  0  0
   -2.5338   -2.3242    2.6697 H   0  0  0  0  0  0  0  0  0  0  0  0
   -3.8128   -0.2888    4.7048 H   0  0  0  0  0  0  0  0  0  0  0  0
   -1.3988    3.3941    3.3022 H   0  0  0  0  0  0  0  0  0  0  0  0
  1 21  1  0  0  0  0
  1 22  1  0  0  0  0
  1 23  1  0  0  0  0
  2  9  1  0  0  0  0
  2 18  1  1  0  0  0
  2  3  1  0  0  0  0
  2  1  1  0  0  0  0
  3  4  1  0  0  0  0
  3 24  1  0  0  0  0
  3 25  1  0  0  0  0
  4  5  1  0  0  0  0
  5  6  2  0  0  0  0
  5 26  1  0  0  0  0
  6  7  1  0  0  0  0
  6 27  1  0  0  0  0
  7  8  2  0  0  0  0
  8  4  1  0  0  0  0
  9 10  1  0  0  0  0
  9 15  1  0  0  0  0
  9 28  1  6  0  0  0
 10 11  1  0  0  0  0
 10 29  1  0  0  0  0
 11 12  2  0  0  0  0
 11 30  1  0  0  0  0
 12 13  1  0  0  0  0
 12 31  1  0  0  0  0
 13 14  2  0  0  0  0
 13 32  1  0  0  0  0
 15 16  2  0  0  0  0
 15 17  1  0  0  0  0
 17 33  1  0  0  0  0
 18 19  2  0  0  0  0
 18 20  2  0  0  0  0
M  RAD  1  18   2
M  END
>  <DRUGBANK_ID>
DB03445

>  <SECONDARY_ACCESSION_NUMBERS>
EXPT03016

>  <COMMON_NAME>
Tazobactam trans-enamine intermediate

>  <SYNONYMS>
Tazobactam Trans-Enamine Intermediate

$$$$
