276
 OpenBabel10282417103D

 47 50  0  0  0  0  0  0  0  0999 V2000
    1.0567    0.0679    0.0700 S   0  0  0  0  0  0  0  0  0  0  0  0
    4.3576   -2.6313   -3.2568 O   0  0  0  0  0  0  0  0  0  0  0  0
    0.6148   -1.0602    0.8537 O   0  0  0  0  0  0  0  0  0  0  0  0
    0.5632    1.4013    0.3704 O   0  0  0  0  0  0  0  0  0  0  0  0
    3.7279   -1.4951   -6.0154 N   0  0  0  0  0  0  0  0  0  0  0  0
    3.7090    0.1786   -9.8377 N   0  0  0  0  0  0  0  0  0  0  0  0
    0.6128   -0.2308   -1.4978 N   0  0  0  0  0  0  0  0  0  0  0  0
    3.6752   -0.8758   -7.2865 C   0  0  0  0  0  0  0  0  0  0  0  0
    3.6904    0.5293   -7.4519 C   0  0  0  0  0  0  0  0  0  0  0  0
    3.7014   -1.7459   -8.3970 C   0  0  0  0  0  0  0  0  0  0  0  0
    3.6622    0.9977   -8.7696 C   0  0  0  0  0  0  0  0  0  0  0  0
    3.7201   -1.1556   -9.6619 C   0  0  0  0  0  0  0  0  0  0  0  0
    3.0046   -1.2381   -4.8445 C   0  0  0  0  0  0  0  0  0  0  0  0
    3.6939    1.4691   -6.3847 C   0  0  0  0  0  0  0  0  0  0  0  0
    3.6564   -3.1601   -8.2705 C   0  0  0  0  0  0  0  0  0  0  0  0
    3.3244   -1.7914   -3.5966 C   0  0  0  0  0  0  0  0  0  0  0  0
    1.4629   -0.5636   -2.5780 C   0  0  0  0  0  0  0  0  0  0  0  0
    1.8313   -0.4604   -4.9380 C   0  0  0  0  0  0  0  0  0  0  0  0
    3.5568    2.3690   -8.9694 C   0  0  0  0  0  0  0  0  0  0  0  0
    3.7121   -1.9976  -10.7662 C   0  0  0  0  0  0  0  0  0  0  0  0
    2.5067   -1.4846   -2.4938 C   0  0  0  0  0  0  0  0  0  0  0  0
    1.1288   -0.0432   -3.8157 C   0  0  0  0  0  0  0  0  0  0  0  0
    3.5138    2.8247   -6.6050 C   0  0  0  0  0  0  0  0  0  0  0  0
    3.6158   -3.9783   -9.3900 C   0  0  0  0  0  0  0  0  0  0  0  0
    3.4494    3.2776   -7.9087 C   0  0  0  0  0  0  0  0  0  0  0  0
    3.6497   -3.3920  -10.6448 C   0  0  0  0  0  0  0  0  0  0  0  0
    2.8400    0.1312    0.1245 C   0  0  0  0  0  0  0  0  0  0  0  0
    5.2451   -3.0985   -4.2589 C   0  0  0  0  0  0  0  0  0  0  0  0
    4.6735   -1.8166   -5.9092 H   0  0  0  0  0  0  0  0  0  0  0  0
   -0.3947   -0.2784   -1.6524 H   0  0  0  0  0  0  0  0  0  0  0  0
    3.7789    1.1468   -5.3512 H   0  0  0  0  0  0  0  0  0  0  0  0
    3.6058   -3.6308   -7.2896 H   0  0  0  0  0  0  0  0  0  0  0  0
    1.4912   -0.1028   -5.9082 H   0  0  0  0  0  0  0  0  0  0  0  0
    3.5283    2.7413   -9.9897 H   0  0  0  0  0  0  0  0  0  0  0  0
    3.7267   -1.5501  -11.7560 H   0  0  0  0  0  0  0  0  0  0  0  0
    2.7027   -2.0106   -1.5674 H   0  0  0  0  0  0  0  0  0  0  0  0
    0.3311    0.6854   -3.9369 H   0  0  0  0  0  0  0  0  0  0  0  0
    3.4169    3.5027   -5.7612 H   0  0  0  0  0  0  0  0  0  0  0  0
    3.5387   -5.0566   -9.2779 H   0  0  0  0  0  0  0  0  0  0  0  0
    3.3232    4.3371   -8.1067 H   0  0  0  0  0  0  0  0  0  0  0  0
    3.6089   -4.0120  -11.5354 H   0  0  0  0  0  0  0  0  0  0  0  0
    3.1333    0.4296    1.1320 H   0  0  0  0  0  0  0  0  0  0  0  0
    3.2558   -0.8588   -0.0466 H   0  0  0  0  0  0  0  0  0  0  0  0
    3.1983    0.8607   -0.6024 H   0  0  0  0  0  0  0  0  0  0  0  0
    4.6963   -3.6064   -5.0596 H   0  0  0  0  0  0  0  0  0  0  0  0
    5.8747   -2.2757   -4.6191 H   0  0  0  0  0  0  0  0  0  0  0  0
    5.9303   -3.8372   -3.8399 H   0  0  0  0  0  0  0  0  0  0  0  0
  1  3  2  0  0  0  0
  1  4  2  0  0  0  0
  1  7  1  0  0  0  0
  1 27  1  0  0  0  0
  2 16  1  0  0  0  0
  2 28  1  0  0  0  0
  5  8  1  0  0  0  0
  5 13  1  0  0  0  0
  5 29  1  0  0  0  0
  6 11  2  0  0  0  0
  6 12  1  0  0  0  0
  7 17  1  0  0  0  0
  7 30  1  0  0  0  0
  8  9  2  0  0  0  0
  8 10  1  0  0  0  0
  9 11  1  0  0  0  0
  9 14  1  0  0  0  0
 10 12  1  0  0  0  0
 10 15  2  0  0  0  0
 11 19  1  0  0  0  0
 12 20  2  0  0  0  0
 13 16  2  0  0  0  0
 13 18  1  0  0  0  0
 14 23  2  0  0  0  0
 14 31  1  0  0  0  0
 15 24  1  0  0  0  0
 15 32  1  0  0  0  0
 16 21  1  0  0  0  0
 17 21  2  0  0  0  0
 17 22  1  0  0  0  0
 18 22  2  0  0  0  0
 18 33  1  0  0  0  0
 19 25  2  0  0  0  0
 19 34  1  0  0  0  0
 20 26  1  0  0  0  0
 20 35  1  0  0  0  0
 21 36  1  0  0  0  0
 22 37  1  0  0  0  0
 23 25  1  0  0  0  0
 23 38  1  0  0  0  0
 24 26  2  0  0  0  0
 24 39  1  0  0  0  0
 25 40  1  0  0  0  0
 26 41  1  0  0  0  0
 27 42  1  0  0  0  0
 27 43  1  0  0  0  0
 27 44  1  0  0  0  0
 28 45  1  0  0  0  0
 28 46  1  0  0  0  0
 28 47  1  0  0  0  0
M  END
>  <DRUGBANK_ID>
DB00276

>  <SECONDARY_ACCESSION_NUMBERS>
APRD00064

>  <COMMON_NAME>
Amsacrine

>  <CAS_NUMBER>
51264-14-3

>  <UNII>
00DPD30SOY

>  <SYNONYMS>
4'-(9-Acridinylamino)-3'-methoxymethanesulfonanilide; 4'-(9-Acridinylamino)methanesulfon-m-anisidide; 4'-(9-Acridinylamino)methanesulfon-meta-anisidide; 4'-(9-Acridinylamino)methanesulphon-m-anisidide; Acridinyl anisidide; Amsacrina; Amsacrine; Amsacrinum; m-AMSA; mAMSA

$$$$
