
 OpenBabel10282417153D

 56 58  0  0  0  0  0  0  0  0999 V2000
   -1.1808    1.4658    0.0427 C   0  0  0  0  0  0  0  0  0  0  0  0
   -2.3681    0.7297   -0.1368 C   0  0  0  0  0  0  0  0  0  0  0  0
   -2.3777   -0.6277    0.1522 C   0  0  0  0  0  0  0  0  0  0  0  0
   -1.1692   -1.1834    0.5637 C   0  0  0  0  0  0  0  0  0  0  0  0
    0.0599   -0.5220    0.3354 C   0  0  0  0  0  0  0  0  0  0  0  0
    0.0671    0.8453    0.1368 C   0  0  0  0  0  0  0  0  0  0  0  0
    1.3085   -1.1487    0.2540 C   0  0  0  0  0  0  0  0  0  0  0  0
    2.4370   -0.5044   -0.0302 N   0  0  0  0  0  0  0  0  0  0  0  0
    2.3550    0.8191   -0.0788 C   0  0  0  0  0  0  0  0  0  0  0  0
    1.2205    1.5276    0.0146 N   0  0  0  0  0  0  0  0  0  0  0  0
    3.5381    1.4851   -0.2226 N   0  0  0  0  0  0  0  0  0  0  0  0
    1.4422   -2.5133    0.3557 N   0  0  0  0  0  0  0  0  0  0  0  0
   -3.6136   -1.5016    0.0755 C   0  0  0  0  0  0  0  0  0  0  0  0
   -3.6454   -2.6131   -1.0189 C   0  0  0  0  0  0  0  0  0  0  0  0
   -2.5775   -3.6954   -0.9776 C   0  0  0  0  0  0  0  0  0  0  0  0
   -2.8233   -5.0470   -0.7105 C   0  0  0  0  0  0  0  0  0  0  0  0
   -1.7628   -5.9970   -0.7058 C   0  0  0  0  0  0  0  0  0  0  0  0
   -0.4270   -5.5931   -0.8309 C   0  0  0  0  0  0  0  0  0  0  0  0
   -0.2192   -4.2681   -1.1514 C   0  0  0  0  0  0  0  0  0  0  0  0
   -1.2680   -3.3630   -1.3003 C   0  0  0  0  0  0  0  0  0  0  0  0
    0.7531   -6.5324   -0.7972 C   0  0  0  0  0  0  0  0  0  0  0  0
    2.0249   -5.9810   -0.6569 N   0  0  0  0  0  0  0  0  0  0  0  0
    0.5783   -7.7374   -0.9213 O   0  0  0  0  0  0  0  0  0  0  0  0
    3.2817   -6.7443   -0.7896 C   0  0  3  0  0  0  0  0  0  0  0  0
    4.1441   -6.2847   -2.0040 C   0  0  0  0  0  0  0  0  0  0  0  0
    4.6853   -4.8672   -1.9248 C   0  0  0  0  0  0  0  0  0  0  0  0
    4.1135   -6.6010    0.4963 C   0  0  0  0  0  0  0  0  0  0  0  0
    4.3027   -7.7458    1.1887 O   0  0  0  0  0  0  0  0  0  0  0  0
    4.5455   -5.5317    0.9104 O   0  0  0  0  0  0  0  0  0  0  0  0
    6.1368   -4.5947   -1.8216 C   0  0  0  0  0  0  0  0  0  0  0  0
    3.8759   -3.7932   -1.9109 C   0  0  0  0  0  0  0  0  0  0  0  0
    6.6621   -3.4860   -1.6969 O   0  0  0  0  0  0  0  0  0  0  0  0
    6.8916   -5.6928   -1.9414 O   0  0  0  0  0  0  0  0  0  0  0  0
   -1.2277    2.5503    0.0718 H   0  0  0  0  0  0  0  0  0  0  0  0
   -3.2684    1.2405   -0.4706 H   0  0  0  0  0  0  0  0  0  0  0  0
   -1.1751   -2.2078    0.9205 H   0  0  0  0  0  0  0  0  0  0  0  0
    3.5302    2.4777   -0.0770 H   0  0  0  0  0  0  0  0  0  0  0  0
    4.3737    0.9243   -0.1632 H   0  0  0  0  0  0  0  0  0  0  0  0
    0.7066   -3.0482    0.7878 H   0  0  0  0  0  0  0  0  0  0  0  0
    2.3708   -2.8869    0.2274 H   0  0  0  0  0  0  0  0  0  0  0  0
   -3.7581   -1.9577    1.0622 H   0  0  0  0  0  0  0  0  0  0  0  0
   -4.4869   -0.8526   -0.0842 H   0  0  0  0  0  0  0  0  0  0  0  0
   -4.6308   -3.0951   -0.9663 H   0  0  0  0  0  0  0  0  0  0  0  0
   -3.5989   -2.1380   -2.0082 H   0  0  0  0  0  0  0  0  0  0  0  0
   -3.8440   -5.3883   -0.5467 H   0  0  0  0  0  0  0  0  0  0  0  0
   -1.9991   -7.0568   -0.6425 H   0  0  0  0  0  0  0  0  0  0  0  0
    0.7764   -3.8951   -1.3184 H   0  0  0  0  0  0  0  0  0  0  0  0
   -1.0151   -2.3525   -1.6121 H   0  0  0  0  0  0  0  0  0  0  0  0
    2.1439   -5.0232   -0.3545 H   0  0  0  0  0  0  0  0  0  0  0  0
    3.0218   -7.7968   -0.9396 H   0  0  0  0  0  0  0  0  0  0  0  0
    4.9667   -7.0018   -2.1172 H   0  0  0  0  0  0  0  0  0  0  0  0
    3.5521   -6.3754   -2.9247 H   0  0  0  0  0  0  0  0  0  0  0  0
    3.8305   -8.5274    0.8443 H   0  0  0  0  0  0  0  0  0  0  0  0
    2.8094   -3.8955   -2.0434 H   0  0  0  0  0  0  0  0  0  0  0  0
    4.2419   -2.7824   -1.7467 H   0  0  0  0  0  0  0  0  0  0  0  0
    7.8106   -5.3523   -1.8789 H   0  0  0  0  0  0  0  0  0  0  0  0
  1  2  1  0  0  0  0
  1  6  2  0  0  0  0
  1 34  1  0  0  0  0
  2  3  2  0  0  0  0
  2 35  1  0  0  0  0
  3  4  1  0  0  0  0
  3 13  1  0  0  0  0
  4  5  2  0  0  0  0
  4 36  1  0  0  0  0
  5  6  1  0  0  0  0
  5  7  1  0  0  0  0
  6 10  1  0  0  0  0
  7  8  2  0  0  0  0
  7 12  1  0  0  0  0
  8  9  1  0  0  0  0
  9 10  2  0  0  0  0
  9 11  1  0  0  0  0
 11 37  1  0  0  0  0
 11 38  1  0  0  0  0
 12 39  1  0  0  0  0
 12 40  1  0  0  0  0
 13 14  1  0  0  0  0
 13 41  1  0  0  0  0
 13 42  1  0  0  0  0
 14 15  1  0  0  0  0
 14 43  1  0  0  0  0
 14 44  1  0  0  0  0
 16 17  1  0  0  0  0
 16 15  2  0  0  0  0
 16 45  1  0  0  0  0
 17 18  2  0  0  0  0
 17 46  1  0  0  0  0
 18 19  1  0  0  0  0
 18 21  1  0  0  0  0
 19 20  2  0  0  0  0
 19 47  1  0  0  0  0
 20 15  1  0  0  0  0
 20 48  1  0  0  0  0
 21 22  1  0  0  0  0
 21 23  2  0  0  0  0
 22 24  1  0  0  0  0
 22 49  1  0  0  0  0
 24 25  1  0  0  0  0
 24 27  1  0  0  0  0
 24 50  1  0  0  0  0
 25 26  1  0  0  0  0
 25 51  1  0  0  0  0
 25 52  1  0  0  0  0
 26 30  1  0  0  0  0
 26 31  2  0  0  0  0
 27 28  1  0  0  0  0
 27 29  2  0  0  0  0
 28 53  1  0  0  0  0
 30 32  2  0  0  0  0
 30 33  1  0  0  0  0
 31 54  1  0  0  0  0
 31 55  1  0  0  0  0
 33 56  1  0  0  0  0
M  END
>  <DRUGBANK_ID>
DB05616

>  <COMMON_NAME>
4'-Methylene-5,8,10-trideazaaminopterin

>  <CAS_NUMBER>
238074-89-0

>  <UNII>
8Y3RH62XPB

$$$$
