HWG
 OpenBabel10282417173D

 57 59  0  0  0  0  0  0  0  0999 V2000
    1.3155    0.3739   -0.0005 C   0  0  0  0  0  0  0  0  0  0  0  0
    1.2701   -1.0593    0.0047 C   0  0  0  0  0  0  0  0  0  0  0  0
    0.0480   -1.7145    0.0032 C   0  0  0  0  0  0  0  0  0  0  0  0
   -1.0248   -0.8145    0.0015 C   0  0  0  0  0  0  0  0  0  0  0  0
   -1.0667    0.5687   -0.0013 C   0  0  0  0  0  0  0  0  0  0  0  0
    0.1486    1.1797   -0.0072 C   0  0  0  0  0  0  0  0  0  0  0  0
   -3.2629   -8.4768   -0.9435 C   0  0  0  0  0  0  0  0  0  0  0  0
   -3.3937   -9.8521   -0.8681 C   0  0  0  0  0  0  0  0  0  0  0  0
   -2.5595  -10.5381    0.0003 C   0  0  0  0  0  0  0  0  0  0  0  0
   -1.6773   -9.8458    0.8609 C   0  0  0  0  0  0  0  0  0  0  0  0
   -1.5445   -8.4551    0.8076 C   0  0  0  0  0  0  0  0  0  0  0  0
   -2.3025   -7.7862   -0.1519 C   0  0  0  0  0  0  0  0  0  0  0  0
   -2.6557  -11.9068   -0.0289 O   0  0  0  0  0  0  0  0  0  0  0  0
   -1.5135  -12.4965    0.5986 C   0  0  0  0  0  0  0  0  0  0  0  0
   -1.2928  -11.8568    1.9558 C   0  0  0  0  0  0  0  0  0  0  0  0
   -0.9056  -10.4935    1.7940 O   0  0  0  0  0  0  0  0  0  0  0  0
    2.6262    1.0929    0.0081 C   0  0  0  0  0  0  0  0  0  0  0  0
   -2.4301    1.2089   -0.0044 C   0  0  0  0  0  0  0  0  0  0  0  0
   -0.7265   -7.6892    1.8065 C   0  0  0  0  0  0  0  0  0  0  0  0
   -0.1038   -3.2792   -0.0059 C   0  0  0  0  0  0  0  0  0  0  0  0
   -2.4805   -6.3453   -0.0616 C   0  0  0  0  0  0  0  0  0  0  0  0
   -1.4005   -3.9452   -0.0033 N   0  0  0  0  0  0  0  0  0  0  0  0
   -1.4136   -5.4408   -0.1337 N   0  0  0  0  0  0  0  0  0  0  0  0
    0.9325   -3.9558   -0.0210 O   0  0  0  0  0  0  0  0  0  0  0  0
   -3.6998   -6.2019    0.1218 O   0  0  0  0  0  0  0  0  0  0  0  0
   -2.6683   -3.2029   -0.0164 C   0  0  0  0  0  0  0  0  0  0  0  0
   -2.7925   -2.4952    1.4028 C   0  0  0  0  0  0  0  0  0  0  0  0
   -2.7847   -2.4854   -1.4266 C   0  0  0  0  0  0  0  0  0  0  0  0
   -3.9934   -3.9151   -0.0215 C   0  0  0  0  0  0  0  0  0  0  0  0
    2.1952   -1.6327    0.0094 H   0  0  0  0  0  0  0  0  0  0  0  0
   -2.0284   -1.1344   -0.0012 H   0  0  0  0  0  0  0  0  0  0  0  0
    0.1992    2.2638   -0.0155 H   0  0  0  0  0  0  0  0  0  0  0  0
   -3.9804   -7.9158   -1.5483 H   0  0  0  0  0  0  0  0  0  0  0  0
   -4.1409  -10.3664   -1.4666 H   0  0  0  0  0  0  0  0  0  0  0  0
   -0.6428  -12.3632   -0.0574 H   0  0  0  0  0  0  0  0  0  0  0  0
   -1.7062  -13.5662    0.7055 H   0  0  0  0  0  0  0  0  0  0  0  0
   -2.1974  -11.8908    2.5750 H   0  0  0  0  0  0  0  0  0  0  0  0
   -0.4836  -12.3593    2.4911 H   0  0  0  0  0  0  0  0  0  0  0  0
    2.6929    1.7292   -0.8797 H   0  0  0  0  0  0  0  0  0  0  0  0
    2.6879    1.7108    0.9092 H   0  0  0  0  0  0  0  0  0  0  0  0
    3.4611    0.3904    0.0031 H   0  0  0  0  0  0  0  0  0  0  0  0
   -2.5818    1.8226    0.8848 H   0  0  0  0  0  0  0  0  0  0  0  0
   -2.5967    1.7764   -0.9215 H   0  0  0  0  0  0  0  0  0  0  0  0
   -3.2376    0.4553    0.0223 H   0  0  0  0  0  0  0  0  0  0  0  0
    0.0210   -7.0897    1.2839 H   0  0  0  0  0  0  0  0  0  0  0  0
   -1.3653   -7.0320    2.4105 H   0  0  0  0  0  0  0  0  0  0  0  0
   -0.1761   -8.3358    2.4902 H   0  0  0  0  0  0  0  0  0  0  0  0
   -0.4618   -5.8060   -0.2048 H   0  0  0  0  0  0  0  0  0  0  0  0
   -1.9393   -1.9170    1.7711 H   0  0  0  0  0  0  0  0  0  0  0  0
   -3.6712   -1.8432    1.4316 H   0  0  0  0  0  0  0  0  0  0  0  0
   -2.8711   -3.2447    2.2004 H   0  0  0  0  0  0  0  0  0  0  0  0
   -2.8634   -3.2277   -2.2302 H   0  0  0  0  0  0  0  0  0  0  0  0
   -3.6626   -1.8315   -1.4521 H   0  0  0  0  0  0  0  0  0  0  0  0
   -1.9302   -1.9030   -1.7845 H   0  0  0  0  0  0  0  0  0  0  0  0
   -4.0673   -4.5022   -0.9426 H   0  0  0  0  0  0  0  0  0  0  0  0
   -4.0808   -4.4595    0.9226 H   0  0  0  0  0  0  0  0  0  0  0  0
   -4.8566   -3.2511   -0.0312 H   0  0  0  0  0  0  0  0  0  0  0  0
  1  2  2  0  0  0  0
  1  6  1  0  0  0  0
  1 17  1  0  0  0  0
  2  3  1  0  0  0  0
  2 30  1  0  0  0  0
  3  4  2  0  0  0  0
  3 20  1  0  0  0  0
  4  5  1  0  0  0  0
  4 31  1  0  0  0  0
  5  6  2  0  0  0  0
  5 18  1  0  0  0  0
  6 32  1  0  0  0  0
  7  8  2  0  0  0  0
  7 12  1  0  0  0  0
  7 33  1  0  0  0  0
  8  9  1  0  0  0  0
  8 34  1  0  0  0  0
  9 10  2  0  0  0  0
  9 13  1  0  0  0  0
 10 11  1  0  0  0  0
 10 16  1  0  0  0  0
 11 12  2  0  0  0  0
 11 19  1  0  0  0  0
 12 21  1  0  0  0  0
 13 14  1  0  0  0  0
 14 15  1  0  0  0  0
 14 35  1  0  0  0  0
 14 36  1  0  0  0  0
 15 16  1  0  0  0  0
 15 37  1  0  0  0  0
 15 38  1  0  0  0  0
 17 39  1  0  0  0  0
 17 40  1  0  0  0  0
 17 41  1  0  0  0  0
 18 42  1  0  0  0  0
 18 43  1  0  0  0  0
 18 44  1  0  0  0  0
 19 45  1  0  0  0  0
 19 46  1  0  0  0  0
 19 47  1  0  0  0  0
 20 22  1  0  0  0  0
 20 24  2  0  0  0  0
 21 23  1  0  0  0  0
 21 25  2  0  0  0  0
 22 23  1  0  0  0  0
 22 26  1  0  0  0  0
 23 48  1  0  0  0  0
 26 27  1  0  0  0  0
 26 28  1  0  0  0  0
 26 29  1  0  0  0  0
 27 49  1  0  0  0  0
 27 50  1  0  0  0  0
 27 51  1  0  0  0  0
 28 52  1  0  0  0  0
 28 53  1  0  0  0  0
 28 54  1  0  0  0  0
 29 55  1  0  0  0  0
 29 56  1  0  0  0  0
 29 57  1  0  0  0  0
M  END
>  <DRUGBANK_ID>
DB07929

>  <COMMON_NAME>
N-(TERT-BUTYL)-3,5-DIMETHYL-N'-[(5-METHYL-2,3-DIHYDRO-1,4-BENZODIOXIN-6-YL)CARBONYL]BENZOHYDRAZIDE

$$$$
