
 OpenBabel10282417223D

 64 68  0  0  0  0  0  0  0  0999 V2000
    0.6330    0.3059   -0.3441 C   0  0  0  0  0  0  0  0  0  0  0  0
    0.4452    1.3945    0.6628 C   0  0  0  0  0  0  0  0  0  0  0  0
    1.0829    2.4871   -0.0290 N   0  0  0  0  0  0  0  0  0  0  0  0
    2.5293    2.2647   -0.0114 C   0  0  0  0  0  0  0  0  0  0  0  0
    2.9119    2.8182    1.3026 C   0  0  0  0  0  0  0  0  0  0  0  0
    2.1028    4.0951    1.3009 C   0  0  0  0  0  0  0  0  0  0  0  0
    0.8185    3.7783    0.5492 C   0  0  0  0  0  0  0  0  0  0  0  0
   -0.4829    0.9714   -1.7053 O   0  0  0  0  0  0  0  0  0  0  0  0
   -0.7685    2.6021   -2.6282 C   0  0  0  0  0  0  0  0  0  0  0  0
   -2.1131    3.5023   -3.6159 C   0  0  0  0  0  0  0  0  0  0  0  0
   -3.8403    4.8971   -4.0193 C   0  0  0  0  0  0  0  0  0  0  0  0
   -5.6288    5.6348   -3.7806 O   0  0  0  0  0  0  0  0  0  0  0  0
   -6.2355    7.2863   -3.2605 C   0  0  0  0  0  0  0  0  0  0  0  0
   -4.8942    7.6924   -3.3075 C   0  0  0  0  0  0  0  0  0  0  0  0
   -4.1331    8.7217   -3.5649 C   0  0  0  0  0  0  0  0  0  0  0  0
   -2.7287    8.4044   -3.9481 C   0  0  0  0  0  0  0  0  0  0  0  0
   -2.3963    9.0587   -5.1617 O   0  0  0  0  0  0  0  0  0  0  0  0
   -3.1609    8.5750   -6.2668 C   0  0  0  0  0  0  0  0  0  0  0  0
   -2.9182    7.1257   -6.5448 C   0  0  0  0  0  0  0  0  0  0  0  0
   -3.8501    6.1353   -6.7298 C   0  0  0  0  0  0  0  0  0  0  0  0
   -3.1967    4.8994   -6.7301 C   0  0  0  0  0  0  0  0  0  0  0  0
   -1.8733    5.1969   -6.8541 C   0  0  0  0  0  0  0  0  0  0  0  0
   -1.6694    6.5655   -6.7262 O   0  0  0  0  0  0  0  0  0  0  0  0
   -0.8207    4.2905   -7.2484 C   0  0  0  0  0  0  0  0  0  0  0  0
   -0.9762    3.4743   -8.3326 C   0  0  0  0  0  0  0  0  0  0  0  0
    0.1928    2.9254   -8.7815 C   0  0  0  0  0  0  0  0  0  0  0  0
    1.2451    2.6984   -7.9806 N   0  0  0  0  0  0  0  0  0  0  0  0
    1.1735    3.2943   -6.7954 C   0  0  0  0  0  0  0  0  0  0  0  0
    1.9308    2.8653   -5.7460 N   0  0  0  0  0  0  0  0  0  0  0  0
    1.2134    2.7082   -4.4662 C   0  0  0  0  0  0  0  0  0  0  0  0
    2.0887    2.1127   -3.6006 C   0  0  0  0  0  0  0  0  0  0  0  0
    1.0577    1.9987   -2.6966 C   0  0  0  0  0  0  0  0  0  0  0  0
   -0.5857    3.2669   -4.3995 C   0  0  0  0  0  0  0  0  0  0  0  0
    0.2540    4.2141   -6.4854 N   0  0  0  0  0  0  0  0  0  0  0  0
    0.3966   -0.6813    0.3121 H   0  0  0  0  0  0  0  0  0  0  0  0
    1.8081   -0.0588   -0.2853 H   0  0  0  0  0  0  0  0  0  0  0  0
   -0.6318    1.3846    0.7221 H   0  0  0  0  0  0  0  0  0  0  0  0
    0.8431    1.2974    1.6866 H   0  0  0  0  0  0  0  0  0  0  0  0
    3.0381    2.7114   -0.8657 H   0  0  0  0  0  0  0  0  0  0  0  0
    2.8579    1.2355   -0.0480 H   0  0  0  0  0  0  0  0  0  0  0  0
    2.6293    2.1262    2.1072 H   0  0  0  0  0  0  0  0  0  0  0  0
    3.9860    2.9329    1.3314 H   0  0  0  0  0  0  0  0  0  0  0  0
    1.9107    4.4522    2.3062 H   0  0  0  0  0  0  0  0  0  0  0  0
    2.6620    4.8625    0.7584 H   0  0  0  0  0  0  0  0  0  0  0  0
   -0.0639    3.7665    1.1937 H   0  0  0  0  0  0  0  0  0  0  0  0
    0.6256    4.5176   -0.2379 H   0  0  0  0  0  0  0  0  0  0  0  0
   -3.9977    6.0451   -4.7045 H   0  0  0  0  0  0  0  0  0  0  0  0
   -4.7976    4.9855   -5.0386 H   0  0  0  0  0  0  0  0  0  0  0  0
   -6.7419    7.0936   -2.3196 H   0  0  0  0  0  0  0  0  0  0  0  0
   -6.6934    8.4912   -3.4310 H   0  0  0  0  0  0  0  0  0  0  0  0
   -4.3854    6.7947   -3.2621 H   0  0  0  0  0  0  0  0  0  0  0  0
   -4.5569    9.6951   -3.5190 H   0  0  0  0  0  0  0  0  0  0  0  0
   -2.5284    7.3274   -4.0668 H   0  0  0  0  0  0  0  0  0  0  0  0
   -2.0954    8.7508   -3.1424 H   0  0  0  0  0  0  0  0  0  0  0  0
   -2.9230    9.1523   -7.1572 H   0  0  0  0  0  0  0  0  0  0  0  0
   -4.2303    8.7592   -6.0587 H   0  0  0  0  0  0  0  0  0  0  0  0
   -4.9095    6.2523   -6.5982 H   0  0  0  0  0  0  0  0  0  0  0  0
   -3.6505    3.9196   -6.6717 H   0  0  0  0  0  0  0  0  0  0  0  0
   -1.9224    3.3325   -8.8314 H   0  0  0  0  0  0  0  0  0  0  0  0
    0.3332    2.7231   -9.8393 H   0  0  0  0  0  0  0  0  0  0  0  0
    2.9565    2.8942   -5.8625 H   0  0  0  0  0  0  0  0  0  0  0  0
    3.2715    1.9417   -3.6382 H   0  0  0  0  0  0  0  0  0  0  0  0
    1.8560    1.3529   -1.9595 H   0  0  0  0  0  0  0  0  0  0  0  0
   -0.7066    2.4940   -5.2077 H   0  0  0  0  0  0  0  0  0  0  0  0
  1  2  1  0  0  0  0
  1  8  1  0  0  0  0
  1 35  1  0  0  0  0
  1 36  1  0  0  0  0
  2  3  1  0  0  0  0
  2 37  1  0  0  0  0
  2 38  1  0  0  0  0
  3  4  1  0  0  0  0
  3  7  1  0  0  0  0
  4  5  1  0  0  0  0
  4 39  1  0  0  0  0
  4 40  1  0  0  0  0
  5  6  1  0  0  0  0
  5 41  1  0  0  0  0
  5 42  1  0  0  0  0
  6  7  1  0  0  0  0
  6 43  1  0  0  0  0
  6 44  1  0  0  0  0
  7 45  1  0  0  0  0
  7 46  1  0  0  0  0
  8  9  1  0  0  0  0
  9 10  2  0  0  0  0
  9 32  1  0  0  0  0
 10 11  1  0  0  0  0
 10 33  1  0  0  0  0
 11 12  1  0  0  0  0
 11 47  1  0  0  0  0
 11 48  1  0  0  0  0
 12 13  1  0  0  0  0
 13 14  1  0  0  0  0
 13 49  1  0  0  0  0
 13 50  1  0  0  0  0
 14 15  2  0  0  0  0
 14 51  1  0  0  0  0
 15 16  1  0  0  0  0
 15 52  1  0  0  0  0
 16 17  1  0  0  0  0
 16 53  1  0  0  0  0
 16 54  1  0  0  0  0
 17 18  1  0  0  0  0
 18 19  1  0  0  0  0
 18 55  1  0  0  0  0
 18 56  1  0  0  0  0
 19 20  2  0  0  0  0
 19 23  1  0  0  0  0
 20 21  1  0  0  0  0
 20 57  1  0  0  0  0
 21 22  2  0  0  0  0
 21 58  1  0  0  0  0
 22 23  1  0  0  0  0
 22 24  1  0  0  0  0
 24 25  2  0  0  0  0
 24 34  1  0  0  0  0
 25 26  1  0  0  0  0
 25 59  1  0  0  0  0
 26 27  2  0  0  0  0
 26 60  1  0  0  0  0
 27 28  1  0  0  0  0
 28 29  1  0  0  0  0
 28 34  2  0  0  0  0
 29 30  1  0  0  0  0
 29 61  1  0  0  0  0
 30 31  1  0  0  0  0
 30 33  2  0  0  0  0
 31 32  2  0  0  0  0
 31 62  1  0  0  0  0
 32 63  1  0  0  0  0
 33 64  1  0  0  0  0
M  END
>  <DRUGBANK_ID>
DB15294

>  <COMMON_NAME>
SB-1578

>  <CAS_NUMBER>
937273-04-6

>  <UNII>
4T71DC0G0A

$$$$
