JNH
 OpenBabel10282417173D

 49 51  0  0  0  0  0  0  0  0999 V2000
   -1.0914    0.5466    0.1707 N   0  0  0  0  0  0  0  0  0  0  0  0
   -0.9052   -0.8596   -0.2171 C   0  0  1  0  0  0  0  0  0  0  0  0
    0.5438   -1.1248    0.2209 C   0  0  0  0  0  0  0  0  0  0  0  0
    1.2521    0.1784   -0.1338 C   0  0  0  0  0  0  0  0  0  0  0  0
    0.1793    1.2562    0.0446 C   0  0  0  0  0  0  0  0  0  0  0  0
   -2.3147    1.1030    0.5098 C   0  0  0  0  0  0  0  0  0  0  0  0
   -2.3896    2.5770    0.9666 C   0  0  1  0  0  0  0  0  0  0  0  0
   -3.3702    0.4494    0.4990 O   0  0  0  0  0  0  0  0  0  0  0  0
   -3.3920    3.2637    0.1233 N   0  0  0  0  0  0  0  0  0  0  0  0
   -2.8475    2.6447    2.4426 C   0  0  0  0  0  0  0  0  0  0  0  0
    0.0548    0.5694    4.8723 C   0  0  0  0  0  0  0  0  0  0  0  0
   -0.9962   -0.1241    4.2653 C   0  0  0  0  0  0  0  0  0  0  0  0
   -1.9601    0.5587    3.5332 C   0  0  0  0  0  0  0  0  0  0  0  0
   -1.8791    1.9478    3.3666 C   0  0  0  0  0  0  0  0  0  0  0  0
   -0.8418    2.6518    3.9812 C   0  0  0  0  0  0  0  0  0  0  0  0
    0.1355    1.9616    4.6991 C   0  0  0  0  0  0  0  0  0  0  0  0
    2.8712   -1.4846    7.3346 C   0  0  0  0  0  0  0  0  0  0  0  0
    2.7165   -1.8561    6.0002 C   0  0  0  0  0  0  0  0  0  0  0  0
    1.7995   -1.1855    5.1909 C   0  0  0  0  0  0  0  0  0  0  0  0
    1.0164   -0.1458    5.7112 C   0  0  0  0  0  0  0  0  0  0  0  0
    1.1502    0.1829    7.0693 C   0  0  0  0  0  0  0  0  0  0  0  0
    2.0967   -0.4570    7.8676 C   0  0  0  0  0  0  0  0  0  0  0  0
   -1.8935   -1.8988    0.3501 C   0  0  0  0  0  0  0  0  0  0  0  0
   -1.9752   -3.1239   -0.4568 N   0  0  0  0  0  0  0  0  0  0  0  0
   -0.9459   -0.8746   -1.3157 H   0  0  0  0  0  0  0  0  0  0  0  0
   -1.4302    3.0815    0.8403 H   0  0  0  0  0  0  0  0  0  0  0  0
    0.6012   -1.2781    1.3071 H   0  0  0  0  0  0  0  0  0  0  0  0
    0.9980   -1.9931   -0.2662 H   0  0  0  0  0  0  0  0  0  0  0  0
    2.1282    0.3630    0.4975 H   0  0  0  0  0  0  0  0  0  0  0  0
    1.6004    0.1459   -1.1732 H   0  0  0  0  0  0  0  0  0  0  0  0
    0.3654    1.8719    0.9263 H   0  0  0  0  0  0  0  0  0  0  0  0
    0.1376    1.9008   -0.8417 H   0  0  0  0  0  0  0  0  0  0  0  0
   -3.4514    4.2477    0.3589 H   0  0  0  0  0  0  0  0  0  0  0  0
   -3.1414    3.1694   -0.8578 H   0  0  0  0  0  0  0  0  0  0  0  0
   -2.9523    3.6932    2.7520 H   0  0  0  0  0  0  0  0  0  0  0  0
   -3.8426    2.1964    2.5738 H   0  0  0  0  0  0  0  0  0  0  0  0
   -1.0740   -1.2042    4.3666 H   0  0  0  0  0  0  0  0  0  0  0  0
   -2.7672   -0.0087    3.0721 H   0  0  0  0  0  0  0  0  0  0  0  0
   -0.7852    3.7349    3.9045 H   0  0  0  0  0  0  0  0  0  0  0  0
    0.9724    2.5158    5.1201 H   0  0  0  0  0  0  0  0  0  0  0  0
    3.5883   -2.0047    7.9632 H   0  0  0  0  0  0  0  0  0  0  0  0
    3.3128   -2.6639    5.5854 H   0  0  0  0  0  0  0  0  0  0  0  0
    1.6927   -1.4796    4.1489 H   0  0  0  0  0  0  0  0  0  0  0  0
    0.4968    0.9317    7.5140 H   0  0  0  0  0  0  0  0  0  0  0  0
    2.2233   -0.1550    8.9034 H   0  0  0  0  0  0  0  0  0  0  0  0
   -1.6544   -2.1417    1.3909 H   0  0  0  0  0  0  0  0  0  0  0  0
   -2.9137   -1.5355    0.3418 H   0  0  0  0  0  0  0  0  0  0  0  0
   -2.8320   -3.6006   -0.1596 H   0  0  0  0  0  0  0  0  0  0  0  0
   -2.1872   -2.8411   -1.4168 H   0  0  0  0  0  0  0  0  0  0  0  0
  1  2  1  0  0  0  0
  1  5  1  0  0  0  0
  1  6  1  0  0  0  0
  2  3  1  0  0  0  0
  2 25  1  6  0  0  0
  2 23  1  0  0  0  0
  3  4  1  0  0  0  0
  3 27  1  0  0  0  0
  3 28  1  0  0  0  0
  4  5  1  0  0  0  0
  4 29  1  0  0  0  0
  4 30  1  0  0  0  0
  5 31  1  0  0  0  0
  5 32  1  0  0  0  0
  6  7  1  0  0  0  0
  6  8  2  0  0  0  0
  7  9  1  0  0  0  0
  7 10  1  0  0  0  0
  7 26  1  6  0  0  0
  9 33  1  0  0  0  0
  9 34  1  0  0  0  0
 10 14  1  0  0  0  0
 10 35  1  0  0  0  0
 10 36  1  0  0  0  0
 11 12  1  0  0  0  0
 11 16  2  0  0  0  0
 11 20  1  0  0  0  0
 12 13  2  0  0  0  0
 12 37  1  0  0  0  0
 13 14  1  0  0  0  0
 13 38  1  0  0  0  0
 14 15  2  0  0  0  0
 15 16  1  0  0  0  0
 15 39  1  0  0  0  0
 16 40  1  0  0  0  0
 17 18  1  0  0  0  0
 17 22  2  0  0  0  0
 17 41  1  0  0  0  0
 18 19  2  0  0  0  0
 18 42  1  0  0  0  0
 19 20  1  0  0  0  0
 19 43  1  0  0  0  0
 20 21  2  0  0  0  0
 21 22  1  0  0  0  0
 21 44  1  0  0  0  0
 22 45  1  0  0  0  0
 23 24  1  0  0  0  0
 23 46  1  0  0  0  0
 23 47  1  0  0  0  0
 24 48  1  0  0  0  0
 24 49  1  0  0  0  0
M  END
>  <DRUGBANK_ID>
DB08024

>  <COMMON_NAME>
1-[2-(S)-AMINO-3-BIPHENYL-4-YL-PROPIONYL]-PYRROLIDINE-2-(S)-CARBONITRILE

$$$$
