C00
 OpenBabel10282417163D

 40 43  0  0  0  0  0  0  0  0999 V2000
    1.9502    1.0402   -0.0015 C   0  0  0  0  0  0  0  0  0  0  0  0
    2.2106   -0.3373   -0.0015 C   0  0  0  0  0  0  0  0  0  0  0  0
   -0.1383   -0.7266    0.0278 C   0  0  0  0  0  0  0  0  0  0  0  0
   -0.4344    0.6235    0.0030 C   0  0  0  0  0  0  0  0  0  0  0  0
    0.4422    3.0361   -0.0110 C   0  0  0  0  0  0  0  0  0  0  0  0
   -1.9347    0.7032   -0.0136 C   0  0  0  0  0  0  0  0  0  0  0  0
   -3.7736   -1.0822    0.0447 C   0  0  0  0  0  0  0  0  0  0  0  0
   -4.1937   -2.0134    1.0252 C   0  0  0  0  0  0  0  0  0  0  0  0
   -5.4117   -2.7451    0.9314 C   0  0  0  0  0  0  0  0  0  0  0  0
   -6.2139   -2.5448   -0.1879 C   0  0  0  0  0  0  0  0  0  0  0  0
   -5.9166   -1.4982   -1.0592 C   0  0  0  0  0  0  0  0  0  0  0  0
   -4.6891   -0.8157   -0.9798 C   0  0  0  0  0  0  0  0  0  0  0  0
   -6.3877   -3.7228    4.4332 C   0  0  0  0  0  0  0  0  0  0  0  0
   -1.3736   -2.7116    0.0379 O   0  0  0  0  0  0  0  0  0  0  0  0
   -1.3757   -1.4861    0.0659 C   0  0  0  0  0  0  0  0  0  0  0  0
    1.1524   -1.2357    0.0103 C   0  0  0  0  0  0  0  0  0  0  0  0
   -2.4179   -0.5996    0.0637 N   0  0  0  0  0  0  0  0  0  0  0  0
   -2.5488    1.7492   -0.0820 O   0  0  0  0  0  0  0  0  0  0  0  0
    0.6224    1.5479   -0.0059 C   0  0  0  0  0  0  0  0  0  0  0  0
   -4.4177   -0.0040   -2.0442 O   0  0  0  0  0  0  0  0  0  0  0  0
   -5.8950   -3.5769    2.0487 C   0  0  0  0  0  0  0  0  0  0  0  0
   -6.0936   -2.9682    3.2994 C   0  0  0  0  0  0  0  0  0  0  0  0
   -6.2298   -4.9344    1.9273 C   0  0  0  0  0  0  0  0  0  0  0  0
   -6.6316   -5.6704    3.0497 C   0  0  0  0  0  0  0  0  0  0  0  0
   -6.5806   -5.0927    4.3157 C   0  0  0  0  0  0  0  0  0  0  0  0
    2.8076    1.7176    0.0013 H   0  0  0  0  0  0  0  0  0  0  0  0
    3.2360   -0.7049   -0.0054 H   0  0  0  0  0  0  0  0  0  0  0  0
   -0.0879    3.3539   -0.9116 H   0  0  0  0  0  0  0  0  0  0  0  0
   -0.0921    3.3597    0.8853 H   0  0  0  0  0  0  0  0  0  0  0  0
    1.4128    3.5541   -0.0098 H   0  0  0  0  0  0  0  0  0  0  0  0
   -3.5713   -2.1743    1.9050 H   0  0  0  0  0  0  0  0  0  0  0  0
   -7.0993   -3.1571   -0.3536 H   0  0  0  0  0  0  0  0  0  0  0  0
   -6.6490   -1.2269   -1.8161 H   0  0  0  0  0  0  0  0  0  0  0  0
   -6.4698   -3.2366    5.4007 H   0  0  0  0  0  0  0  0  0  0  0  0
    1.3219   -2.3072    0.0088 H   0  0  0  0  0  0  0  0  0  0  0  0
   -3.4943    0.2818   -1.9791 H   0  0  0  0  0  0  0  0  0  0  0  0
   -6.0061   -1.8876    3.3921 H   0  0  0  0  0  0  0  0  0  0  0  0
   -6.1658   -5.4417    0.9672 H   0  0  0  0  0  0  0  0  0  0  0  0
   -6.9745   -6.6967    2.9428 H   0  0  0  0  0  0  0  0  0  0  0  0
   -6.7061   -5.7041    5.2050 H   0  0  0  0  0  0  0  0  0  0  0  0
  1  2  2  0  0  0  0
  1 19  1  0  0  0  0
  1 26  1  0  0  0  0
  2 16  1  0  0  0  0
  2 27  1  0  0  0  0
  3  4  1  0  0  0  0
  3 15  1  0  0  0  0
  3 16  2  0  0  0  0
  4  6  1  0  0  0  0
  4 19  2  0  0  0  0
  5 19  1  0  0  0  0
  5 28  1  0  0  0  0
  5 29  1  0  0  0  0
  5 30  1  0  0  0  0
  6 17  1  0  0  0  0
  6 18  2  0  0  0  0
  7  8  2  0  0  0  0
  7 12  1  0  0  0  0
  7 17  1  0  0  0  0
  8  9  1  0  0  0  0
  8 31  1  0  0  0  0
  9 10  2  0  0  0  0
  9 21  1  0  0  0  0
 10 11  1  0  0  0  0
 10 32  1  0  0  0  0
 11 12  2  0  0  0  0
 11 33  1  0  0  0  0
 12 20  1  0  0  0  0
 13 22  2  0  0  0  0
 13 25  1  0  0  0  0
 13 34  1  0  0  0  0
 14 15  2  0  0  0  0
 15 17  1  0  0  0  0
 16 35  1  0  0  0  0
 20 36  1  0  0  0  0
 21 22  1  0  0  0  0
 21 23  2  0  0  0  0
 22 37  1  0  0  0  0
 23 24  1  0  0  0  0
 23 38  1  0  0  0  0
 24 25  2  0  0  0  0
 24 39  1  0  0  0  0
 25 40  1  0  0  0  0
M  END
>  <DRUGBANK_ID>
DB07507

>  <COMMON_NAME>
2-(4-hydroxybiphenyl-3-yl)-4-methyl-1H-isoindole-1,3(2H)-dione

$$$$
