
 OpenBabel10282417123D

 37 36  0  0  0  0  0  0  0  0999 V2000
    1.1228   -0.1753   -0.0287 C   0  0  0  0  0  0  0  0  0  0  0  0
   -0.5561   -1.0695   -6.0492 C   0  0  0  0  0  0  0  0  0  0  0  0
    0.3174    0.0681    0.9458 N   0  0  0  0  0  0  0  0  0  0  0  0
   -1.0345   -1.2561   -7.1522 O   0  0  0  0  0  0  0  0  0  0  0  0
    0.5979   -0.6598   -1.1654 N   0  0  0  0  0  0  0  0  0  0  0  0
   -1.2755   -0.9625   -4.7018 C   0  0  1  0  0  0  0  0  0  0  0  0
    2.4417   -0.0593    0.0368 N   0  0  0  0  0  0  0  0  0  0  0  0
   -2.7507   -0.7524   -4.7408 N   0  0  0  0  0  0  0  0  0  0  0  0
    1.1686   -0.7776   -2.5144 C   0  0  0  0  0  0  0  0  0  0  0  0
   -0.8106   -2.1716   -3.7645 C   0  0  0  0  0  0  0  0  0  0  0  0
    0.6744   -2.0725   -3.2146 C   0  0  0  0  0  0  0  0  0  0  0  0
    0.7802   -0.9030   -5.8769 O   0  0  0  0  0  0  0  0  0  0  0  0
   -3.5584    0.3265   -4.4343 C   0  0  0  0  0  0  0  0  0  0  0  0
   -4.7707    0.2029   -4.6460 O   0  0  0  0  0  0  0  0  0  0  0  0
   -3.0586    1.6720   -3.8656 C   0  0  0  0  0  0  0  0  0  0  0  0
   -0.4127    1.5067   -2.5619 O   0  0  0  0  0  0  0  0  0  0  0  0
   -2.7488    1.7211   -2.3804 C   0  0  0  0  0  0  0  0  0  0  0  0
   -1.4838    1.0433   -2.2640 C   0  0  0  0  0  0  0  0  0  0  0  0
   -1.7542   -0.2520   -2.0432 O   0  0  0  0  0  0  0  0  0  0  0  0
    0.8474    0.3705    1.7651 H   0  0  0  0  0  0  0  0  0  0  0  0
   -0.3995   -0.5704   -0.9676 H   0  0  0  0  0  0  0  0  0  0  0  0
   -0.8978   -0.0064   -4.3610 H   0  0  0  0  0  0  0  0  0  0  0  0
    2.9047    0.2076    0.8877 H   0  0  0  0  0  0  0  0  0  0  0  0
    2.9920   -0.1299   -0.7993 H   0  0  0  0  0  0  0  0  0  0  0  0
   -3.2958   -1.4984   -5.1666 H   0  0  0  0  0  0  0  0  0  0  0  0
    0.9722    0.0646   -3.1840 H   0  0  0  0  0  0  0  0  0  0  0  0
    2.2582   -0.7744   -2.4632 H   0  0  0  0  0  0  0  0  0  0  0  0
   -0.9461   -3.1304   -4.2849 H   0  0  0  0  0  0  0  0  0  0  0  0
   -1.4720   -2.3240   -2.8953 H   0  0  0  0  0  0  0  0  0  0  0  0
    1.3440   -2.2483   -4.0595 H   0  0  0  0  0  0  0  0  0  0  0  0
    0.8521   -2.8924   -2.5101 H   0  0  0  0  0  0  0  0  0  0  0  0
    1.2100   -1.0382   -6.7449 H   0  0  0  0  0  0  0  0  0  0  0  0
   -2.2282    2.0242   -4.4893 H   0  0  0  0  0  0  0  0  0  0  0  0
   -3.8668    2.4027   -3.9821 H   0  0  0  0  0  0  0  0  0  0  0  0
   -2.4996    2.7033   -1.9753 H   0  0  0  0  0  0  0  0  0  0  0  0
   -3.4579    1.2043   -1.7280 H   0  0  0  0  0  0  0  0  0  0  0  0
   -0.9468   -0.6396   -2.3982 H   0  0  0  0  0  0  0  0  0  0  0  0
  1  3  2  0  0  0  0
  1  5  1  0  0  0  0
  1  7  1  0  0  0  0
  2  6  1  0  0  0  0
  2  4  2  0  0  0  0
  3 20  1  0  0  0  0
  5  9  1  0  0  0  0
  5 21  1  0  0  0  0
  6 10  1  0  0  0  0
  6  8  1  0  0  0  0
  6 22  1  1  0  0  0
  7 23  1  0  0  0  0
  7 24  1  0  0  0  0
  8 13  1  0  0  0  0
  8 25  1  0  0  0  0
  9 11  1  0  0  0  0
  9 26  1  0  0  0  0
  9 27  1  0  0  0  0
 10 11  1  0  0  0  0
 10 28  1  0  0  0  0
 10 29  1  0  0  0  0
 11 30  1  0  0  0  0
 11 31  1  0  0  0  0
 12  2  1  0  0  0  0
 12 32  1  0  0  0  0
 14 13  2  0  0  0  0
 15 13  1  0  0  0  0
 15 33  1  0  0  0  0
 15 34  1  0  0  0  0
 17 15  1  0  0  0  0
 17 35  1  0  0  0  0
 17 36  1  0  0  0  0
 18 16  2  0  0  0  0
 18 17  1  0  0  0  0
 19 18  1  0  0  0  0
 19 37  1  0  0  0  0
M  END
>  <DRUGBANK_ID>
DB02501

>  <SECONDARY_ACCESSION_NUMBERS>
EXPT02979

>  <COMMON_NAME>
N(2)-succinyl-L-arginine

>  <SYNONYMS>
N2-Succinyl-L-arginine; Succinyl-arginine; Succinylarginine

$$$$
