PFA
 OpenBabel10282417133D

 48 50  0  0  0  0  0  0  0  0999 V2000
    1.0807   -0.0678    0.0418 O   0  0  0  0  0  0  0  0  0  0  0  0
    2.3067    0.0325    0.0254 C   0  0  0  0  0  0  0  0  0  0  0  0
    3.0555   -1.1126    0.0212 N   0  0  0  0  0  0  0  0  0  0  0  0
    4.4103   -1.1349    0.0074 C   0  0  0  0  0  0  0  0  0  0  0  0
    5.0995   -2.1489    0.0118 O   0  0  0  0  0  0  0  0  0  0  0  0
    3.0278    1.2313   -0.0334 N   0  0  0  0  0  0  0  0  0  0  0  0
    4.4035    1.3200   -0.0754 N   0  0  0  0  0  0  0  0  0  0  0  0
    5.0666    0.2086   -0.0263 C   0  0  0  0  0  0  0  0  0  0  0  0
    2.3589    2.4804   -0.0081 C   0  0  0  0  0  0  0  0  0  0  0  0
    1.4479    2.7587    1.0040 C   0  0  0  0  0  0  0  0  0  0  0  0
    0.7159    3.9599    1.0357 C   0  0  0  0  0  0  0  0  0  0  0  0
   -0.2180    4.0832    2.1987 C   0  0  0  0  0  0  0  0  0  0  0  0
    2.5558    3.4264   -1.0114 C   0  0  0  0  0  0  0  0  0  0  0  0
    1.8310    4.6414   -1.0149 C   0  0  0  0  0  0  0  0  0  0  0  0
    2.0514    5.5692   -2.1824 C   0  0  0  0  0  0  0  0  0  0  0  0
    0.9203    4.9366    0.0338 C   0  0  0  0  0  0  0  0  0  0  0  0
    0.3110    6.1870   -0.0651 O   0  0  0  0  0  0  0  0  0  0  0  0
   -0.5378    6.6461    0.9111 C   0  0  0  0  0  0  0  0  0  0  0  0
   -0.0979    6.9570    2.1972 C   0  0  0  0  0  0  0  0  0  0  0  0
   -1.8900    6.7563    0.6080 C   0  0  0  0  0  0  0  0  0  0  0  0
   -2.8317    7.0452    1.6183 C   0  0  0  0  0  0  0  0  0  0  0  0
   -4.2933    7.2126    1.2633 C   0  0  0  0  0  0  0  0  0  0  0  0
   -4.4331    8.3991    0.3106 C   0  0  0  0  0  0  0  0  0  0  0  0
   -4.8671    5.9344    0.6569 C   0  0  0  0  0  0  0  0  0  0  0  0
   -2.3903    7.1819    2.9380 C   0  0  0  0  0  0  0  0  0  0  0  0
   -1.0313    7.1327    3.2318 C   0  0  0  0  0  0  0  0  0  0  0  0
   -3.3155    7.3508    3.9293 O   0  0  0  0  0  0  0  0  0  0  0  0
    2.5523   -1.9859    0.0151 H   0  0  0  0  0  0  0  0  0  0  0  0
    6.1672    0.1936   -0.0131 H   0  0  0  0  0  0  0  0  0  0  0  0
    1.3123    2.0403    1.8107 H   0  0  0  0  0  0  0  0  0  0  0  0
    0.2102    4.7900    2.9052 H   0  0  0  0  0  0  0  0  0  0  0  0
   -1.2210    4.3449    1.8560 H   0  0  0  0  0  0  0  0  0  0  0  0
   -0.3206    3.1727    2.7905 H   0  0  0  0  0  0  0  0  0  0  0  0
    3.2306    3.1920   -1.8323 H   0  0  0  0  0  0  0  0  0  0  0  0
    3.1071    5.8535   -2.2373 H   0  0  0  0  0  0  0  0  0  0  0  0
    1.7673    5.0713   -3.1171 H   0  0  0  0  0  0  0  0  0  0  0  0
    1.4639    6.4877   -2.1121 H   0  0  0  0  0  0  0  0  0  0  0  0
    0.9585    6.8605    2.4338 H   0  0  0  0  0  0  0  0  0  0  0  0
   -2.2177    6.5756   -0.4129 H   0  0  0  0  0  0  0  0  0  0  0  0
   -4.8817    7.4423    2.1602 H   0  0  0  0  0  0  0  0  0  0  0  0
   -3.9019    8.2248   -0.6316 H   0  0  0  0  0  0  0  0  0  0  0  0
   -5.4833    8.5854    0.0743 H   0  0  0  0  0  0  0  0  0  0  0  0
   -4.0126    9.3064    0.7610 H   0  0  0  0  0  0  0  0  0  0  0  0
   -4.7681    5.0938    1.3532 H   0  0  0  0  0  0  0  0  0  0  0  0
   -5.9284    6.0649    0.4260 H   0  0  0  0  0  0  0  0  0  0  0  0
   -4.3558    5.6582   -0.2710 H   0  0  0  0  0  0  0  0  0  0  0  0
   -0.6830    7.1429    4.2603 H   0  0  0  0  0  0  0  0  0  0  0  0
   -2.8719    7.4514    4.7860 H   0  0  0  0  0  0  0  0  0  0  0  0
  1  2  2  0  0  0  0
  2  3  1  0  0  0  0
  2  6  1  0  0  0  0
  3  4  1  0  0  0  0
  3 28  1  0  0  0  0
  4  5  2  0  0  0  0
  4  8  1  0  0  0  0
  6  7  1  0  0  0  0
  6  9  1  0  0  0  0
  7  8  2  0  0  0  0
  8 29  1  0  0  0  0
  9 10  2  0  0  0  0
  9 13  1  0  0  0  0
 10 11  1  0  0  0  0
 10 30  1  0  0  0  0
 11 12  1  0  0  0  0
 11 16  2  0  0  0  0
 12 31  1  0  0  0  0
 12 32  1  0  0  0  0
 12 33  1  0  0  0  0
 13 14  2  0  0  0  0
 13 34  1  0  0  0  0
 14 15  1  0  0  0  0
 14 16  1  0  0  0  0
 15 35  1  0  0  0  0
 15 36  1  0  0  0  0
 15 37  1  0  0  0  0
 16 17  1  0  0  0  0
 17 18  1  0  0  0  0
 18 19  2  0  0  0  0
 18 20  1  0  0  0  0
 19 26  1  0  0  0  0
 19 38  1  0  0  0  0
 20 21  2  0  0  0  0
 20 39  1  0  0  0  0
 21 22  1  0  0  0  0
 21 25  1  0  0  0  0
 22 23  1  0  0  0  0
 22 24  1  0  0  0  0
 22 40  1  0  0  0  0
 23 41  1  0  0  0  0
 23 42  1  0  0  0  0
 23 43  1  0  0  0  0
 24 44  1  0  0  0  0
 24 45  1  0  0  0  0
 24 46  1  0  0  0  0
 25 26  2  0  0  0  0
 25 27  1  0  0  0  0
 26 47  1  0  0  0  0
 27 48  1  0  0  0  0
M  END
>  <DRUGBANK_ID>
DB03181

>  <SECONDARY_ACCESSION_NUMBERS>
EXPT02554

>  <COMMON_NAME>
2-[4-(4-Hydroxy-3-Isopropyl-Phenoxy)-3,5-Dimethyl-Phenyl]-2h-[1,2,4]Triazine-3,5-Dione

$$$$
