1534
 OpenBabel10282417113D

 29 28  0  0  1  0  0  0  0  0999 V2000
    0.2611   -0.5970   -0.2305 Cl  0  0  0  0  0  0  0  0  0  0  0  0
    2.7913   -2.0537    0.2289 Cl  0  0  0  0  0  0  0  0  0  0  0  0
    2.5737   -0.3284   -1.9419 Cl  0  0  0  0  0  0  0  0  0  0  0  0
    2.2290    2.0328    1.0831 O   0  0  0  0  0  0  0  0  0  0  0  0
    5.1977    0.5042   -0.9006 O   0  0  0  0  0  0  0  0  0  0  0  0
    2.2802    0.1043    2.3144 O   0  0  0  0  0  0  0  0  0  0  0  0
    5.5089    1.2108    0.3117 C   0  0  0  0  0  0  0  0  0  0  0  0
    4.7245    2.6101    0.3954 C   0  0  0  0  0  0  0  0  0  0  0  0
    3.1370    2.8583    0.3173 C   0  0  3  0  0  0  0  0  0  0  0  0
    7.0184    1.4417    0.1750 C   0  0  0  0  0  0  0  0  0  0  0  0
    5.4537    0.2201    1.5214 C   0  0  0  0  0  0  0  0  0  0  0  0
    2.5582    2.7533   -1.0675 C   0  0  0  0  0  0  0  0  0  0  0  0
    2.4500    0.6248    0.9848 C   0  0  3  0  0  0  0  0  0  0  0  0
    2.0278   -0.4387   -0.1823 C   0  0  0  0  0  0  0  0  0  0  0  0
    4.3425    0.6889   -1.2385 H   0  0  0  0  0  0  0  0  0  0  0  0
    1.3658   -0.2060    2.3996 H   0  0  0  0  0  0  0  0  0  0  0  0
    5.1167    3.2196   -0.4372 H   0  0  0  0  0  0  0  0  0  0  0  0
    5.0767    3.1165    1.3063 H   0  0  0  0  0  0  0  0  0  0  0  0
    2.9657    3.9022    0.6319 H   0  0  0  0  0  0  0  0  0  0  0  0
    7.4378    1.8961    1.0746 H   0  0  0  0  0  0  0  0  0  0  0  0
    7.5129    0.4681    0.0239 H   0  0  0  0  0  0  0  0  0  0  0  0
    7.2667    2.0327   -0.7089 H   0  0  0  0  0  0  0  0  0  0  0  0
    5.6670    0.7299    2.4619 H   0  0  0  0  0  0  0  0  0  0  0  0
    4.5614   -0.3797    1.6894 H   0  0  0  0  0  0  0  0  0  0  0  0
    6.1575   -0.6041    1.3572 H   0  0  0  0  0  0  0  0  0  0  0  0
    1.4667    2.8716   -1.0906 H   0  0  0  0  0  0  0  0  0  0  0  0
    3.0596    3.2660   -1.8802 H   0  0  0  0  0  0  0  0  0  0  0  0
    2.6937    1.7321   -1.2765 H   0  0  0  0  0  0  0  0  0  0  0  0
    3.4815    0.6442    0.8520 H   0  0  0  0  0  0  0  0  0  0  0  0
  1 14  1  0  0  0  0
  2 14  1  0  0  0  0
  3 14  1  0  0  0  0
  4  9  1  0  0  0  0
  4 13  1  0  0  0  0
  5  7  1  0  0  0  0
  5 15  1  0  0  0  0
  6 13  1  0  0  0  0
  6 16  1  0  0  0  0
  7  8  1  0  0  0  0
  7 10  1  0  0  0  0
  7 11  1  0  0  0  0
  8  9  1  0  0  0  0
  8 17  1  0  0  0  0
  8 18  1  0  0  0  0
  9 12  1  0  0  0  0
  9 19  1  0  0  0  0
 10 20  1  0  0  0  0
 10 21  1  0  0  0  0
 10 22  1  0  0  0  0
 11 23  1  0  0  0  0
 11 24  1  0  0  0  0
 11 25  1  0  0  0  0
 12 26  1  0  0  0  0
 12 27  1  0  0  0  0
 12 28  1  0  0  0  0
 13 14  1  0  0  0  0
 13 29  1  0  0  0  0
M  END
>  <DRUGBANK_ID>
DB01534

>  <COMMON_NAME>
Chlorhexadol

>  <CAS_NUMBER>
3563-58-4

>  <UNII>
W8RD4N93R2

>  <SYNONYMS>
Chloralodol; Chloralodolum; Cloralodol

$$$$
