HM4
 OpenBabel10282417163D

 38 39  0  0  0  0  0  0  0  0999 V2000
   -1.1309   -0.0073   -0.1607 S   0  0  0  0  0  0  0  0  0  0  0  0
    1.3406   -0.6908   -0.1769 N   0  0  0  0  0  0  0  0  0  0  0  0
   -0.1499   -2.5222   -0.4695 N   0  0  0  0  0  0  0  0  0  0  0  0
   -2.4091   -5.1970   -1.0110 N   0  0  0  0  0  0  0  0  0  0  0  0
    0.1344   -4.7236    1.6864 N   0  0  0  0  0  0  0  0  0  0  0  0
    0.0229    1.2390   -0.0207 C   0  0  0  0  0  0  0  0  0  0  0  0
    1.2862    0.6923   -0.0336 C   0  0  0  0  0  0  0  0  0  0  0  0
    0.1160   -1.1704   -0.2895 C   0  0  0  0  0  0  0  0  0  0  0  0
   -1.4254   -3.0942   -0.3772 C   0  0  0  0  0  0  0  0  0  0  0  0
   -1.5090   -4.5861   -0.1838 C   0  0  0  0  0  0  0  0  0  0  0  0
   -2.5539   -6.5354   -0.9268 C   0  0  0  0  0  0  0  0  0  0  0  0
   -1.8055   -7.3323   -0.0841 C   0  0  0  0  0  0  0  0  0  0  0  0
   -0.8924   -6.7059    0.7656 C   0  0  0  0  0  0  0  0  0  0  0  0
   -0.7614   -5.2996    0.7594 C   0  0  0  0  0  0  0  0  0  0  0  0
    0.0858   -3.4292    2.1726 C   0  0  0  0  0  0  0  0  0  0  0  0
    2.0669   -3.6677    3.5601 C   0  0  0  0  0  0  0  0  0  0  0  0
    1.1619   -4.3955    4.5634 C   0  0  0  0  0  0  0  0  0  0  0  0
    3.0148   -4.5512    2.7480 C   0  0  0  0  0  0  0  0  0  0  0  0
    2.9134   -2.6528    4.3465 C   0  0  0  0  0  0  0  0  0  0  0  0
   -2.4982   -2.4967   -0.4139 O   0  0  0  0  0  0  0  0  0  0  0  0
   -0.9119   -2.7109    2.1484 O   0  0  0  0  0  0  0  0  0  0  0  0
    1.2503   -2.9198    2.6482 O   0  0  0  0  0  0  0  0  0  0  0  0
    0.6796   -3.0958   -0.4033 H   0  0  0  0  0  0  0  0  0  0  0  0
    0.6974   -5.3836    2.1965 H   0  0  0  0  0  0  0  0  0  0  0  0
   -0.2774    2.2739    0.0530 H   0  0  0  0  0  0  0  0  0  0  0  0
    2.2005    1.2708    0.0380 H   0  0  0  0  0  0  0  0  0  0  0  0
   -3.3066   -6.9614   -1.5855 H   0  0  0  0  0  0  0  0  0  0  0  0
   -1.9421   -8.4108   -0.0872 H   0  0  0  0  0  0  0  0  0  0  0  0
   -0.3232   -7.3381    1.4461 H   0  0  0  0  0  0  0  0  0  0  0  0
    0.4469   -5.0779    4.0992 H   0  0  0  0  0  0  0  0  0  0  0  0
    1.7400   -4.9756    5.2803 H   0  0  0  0  0  0  0  0  0  0  0  0
    0.5356   -3.6658    5.0953 H   0  0  0  0  0  0  0  0  0  0  0  0
    3.6355   -3.9300    2.0893 H   0  0  0  0  0  0  0  0  0  0  0  0
    3.6549   -5.1492    3.3972 H   0  0  0  0  0  0  0  0  0  0  0  0
    2.5116   -5.2353    2.0659 H   0  0  0  0  0  0  0  0  0  0  0  0
    3.5429   -2.0484    3.6832 H   0  0  0  0  0  0  0  0  0  0  0  0
    2.2816   -1.9465    4.8981 H   0  0  0  0  0  0  0  0  0  0  0  0
    3.5606   -3.1682    5.0643 H   0  0  0  0  0  0  0  0  0  0  0  0
  1  6  1  0  0  0  0
  1  8  1  0  0  0  0
  2  7  1  0  0  0  0
  2  8  2  0  0  0  0
  3  8  1  0  0  0  0
  3  9  1  0  0  0  0
  3 23  1  0  0  0  0
  4 11  2  0  0  0  0
  4 10  1  0  0  0  0
  5 14  1  0  0  0  0
  5 15  1  0  0  0  0
  5 24  1  0  0  0  0
  6  7  2  0  0  0  0
  6 25  1  0  0  0  0
  7 26  1  0  0  0  0
  9 10  1  0  0  0  0
  9 20  2  0  0  0  0
 10 14  2  0  0  0  0
 11 12  1  0  0  0  0
 11 27  1  0  0  0  0
 12 13  2  0  0  0  0
 12 28  1  0  0  0  0
 13 14  1  0  0  0  0
 13 29  1  0  0  0  0
 15 22  1  0  0  0  0
 15 21  2  0  0  0  0
 16 22  1  0  0  0  0
 16 17  1  0  0  0  0
 16 18  1  0  0  0  0
 16 19  1  0  0  0  0
 17 30  1  0  0  0  0
 17 31  1  0  0  0  0
 17 32  1  0  0  0  0
 18 33  1  0  0  0  0
 18 34  1  0  0  0  0
 18 35  1  0  0  0  0
 19 36  1  0  0  0  0
 19 37  1  0  0  0  0
 19 38  1  0  0  0  0
M  END
>  <DRUGBANK_ID>
DB07902

>  <COMMON_NAME>
TERT-BUTYL {2-[(1,3-THIAZOL-2-YLAMINO)CARBONYL]PYRIDIN-3-YL}CARBAMATE

$$$$
