
 OpenBabel10282417103D

 59 61  0  0  0  0  0  0  0  0999 V2000
    1.4519    5.3567    1.1583 C   0  0  0  0  0  0  0  0  0  0  0  0
    1.2624    4.2003    0.1457 C   0  0  0  0  0  0  0  0  0  0  0  0
    3.7089    6.1279    0.3171 C   0  0  0  0  0  0  0  0  0  0  0  0
    2.3843    6.4296    0.6294 C   0  0  0  0  0  0  0  0  0  0  0  0
    4.6261    7.0527   -0.1903 C   0  0  0  0  0  0  0  0  0  0  0  0
    4.1929    8.3388   -0.4337 C   0  0  0  0  0  0  0  0  0  0  0  0
    2.8768    8.6802   -0.1170 C   0  0  0  0  0  0  0  0  0  0  0  0
    1.9850    7.7422    0.4300 C   0  0  0  0  0  0  0  0  0  0  0  0
    4.1215    4.8351    0.5729 N   0  0  0  0  0  0  0  0  0  0  0  0
    5.1685    4.7063    1.5493 C   0  0  0  0  0  0  0  0  0  0  0  0
    5.4394    3.2996    3.4238 O   0  0  0  0  0  0  0  0  0  0  0  0
    4.6062    4.1374    2.8319 C   0  0  0  0  0  0  0  0  0  0  0  0
    3.4860    4.2942    3.3196 O   0  0  0  0  0  0  0  0  0  0  0  0
    3.7341    3.8602   -0.3311 C   0  0  0  0  0  0  0  0  0  0  0  0
    4.3615    3.5764   -1.3486 O   0  0  0  0  0  0  0  0  0  0  0  0
    2.4162    3.1679    0.0758 C   0  0  1  0  0  0  0  0  0  0  0  0
    2.5381    2.4987    1.4025 N   0  0  0  0  0  0  0  0  0  0  0  0
    2.0415   -0.3437    1.2660 O   0  0  0  0  0  0  0  0  0  0  0  0
    3.0668    0.2118    0.8905 C   0  0  0  0  0  0  0  0  0  0  0  0
    3.9458   -0.2596   -0.0307 O   0  0  0  0  0  0  0  0  0  0  0  0
    3.5953   -1.5494   -0.5192 C   0  0  0  0  0  0  0  0  0  0  0  0
    3.7351   -2.5868    0.5843 C   0  0  0  0  0  0  0  0  0  0  0  0
    3.5992    1.4829    1.4910 C   0  0  2  0  0  0  0  0  0  0  0  0
    4.0451    1.0608    2.9229 C   0  0  0  0  0  0  0  0  0  0  0  0
    5.5153    0.3856    2.9113 C   0  0  0  0  0  0  0  0  0  0  0  0
    6.7301    0.8701    2.0013 C   0  0  0  0  0  0  0  0  0  0  0  0
    8.0449    2.5954    0.7291 C   0  0  0  0  0  0  0  0  0  0  0  0
    7.2563    2.1748    1.8074 C   0  0  0  0  0  0  0  0  0  0  0  0
    7.4709   -0.0751    1.2962 C   0  0  0  0  0  0  0  0  0  0  0  0
    8.3533    0.3111    0.2518 C   0  0  0  0  0  0  0  0  0  0  0  0
    8.5664    1.6448   -0.0950 C   0  0  0  0  0  0  0  0  0  0  0  0
    2.1755    2.4197   -0.6946 H   0  0  0  0  0  0  0  0  0  0  0  0
    0.4823    5.7853    1.4281 H   0  0  0  0  0  0  0  0  0  0  0  0
    1.8186    4.9927    2.1170 H   0  0  0  0  0  0  0  0  0  0  0  0
    1.0997    4.6327   -0.8501 H   0  0  0  0  0  0  0  0  0  0  0  0
    0.3474    3.6498    0.3994 H   0  0  0  0  0  0  0  0  0  0  0  0
    5.6440    6.7568   -0.4379 H   0  0  0  0  0  0  0  0  0  0  0  0
    4.8688    9.0612   -0.8817 H   0  0  0  0  0  0  0  0  0  0  0  0
    2.5330    9.6895   -0.3175 H   0  0  0  0  0  0  0  0  0  0  0  0
    0.9717    8.0416    0.6748 H   0  0  0  0  0  0  0  0  0  0  0  0
    5.9563    4.1360    1.0743 H   0  0  0  0  0  0  0  0  0  0  0  0
    5.5734    5.6572    1.8986 H   0  0  0  0  0  0  0  0  0  0  0  0
    5.4774    2.6231    2.7197 H   0  0  0  0  0  0  0  0  0  0  0  0
    2.6328    3.2079    2.1292 H   0  0  0  0  0  0  0  0  0  0  0  0
    2.5838   -1.5181   -0.9386 H   0  0  0  0  0  0  0  0  0  0  0  0
    4.2857   -1.7828   -1.3346 H   0  0  0  0  0  0  0  0  0  0  0  0
    3.0894   -2.3744    1.4421 H   0  0  0  0  0  0  0  0  0  0  0  0
    3.4713   -3.5773    0.2153 H   0  0  0  0  0  0  0  0  0  0  0  0
    4.7568   -2.5897    0.9763 H   0  0  0  0  0  0  0  0  0  0  0  0
    4.4717    1.8302    0.9335 H   0  0  0  0  0  0  0  0  0  0  0  0
    4.0016    1.8457    3.6834 H   0  0  0  0  0  0  0  0  0  0  0  0
    3.2757    0.4186    3.3866 H   0  0  0  0  0  0  0  0  0  0  0  0
    5.8601    0.3322    3.9520 H   0  0  0  0  0  0  0  0  0  0  0  0
    5.2890   -0.6485    2.6135 H   0  0  0  0  0  0  0  0  0  0  0  0
    8.2438    3.6587    0.5802 H   0  0  0  0  0  0  0  0  0  0  0  0
    7.1560    3.0146    2.4774 H   0  0  0  0  0  0  0  0  0  0  0  0
    7.4005   -1.1291    1.5550 H   0  0  0  0  0  0  0  0  0  0  0  0
    8.8778   -0.4469   -0.3185 H   0  0  0  0  0  0  0  0  0  0  0  0
    9.1862    1.9498   -0.9322 H   0  0  0  0  0  0  0  0  0  0  0  0
  1  2  1  0  0  0  0
  1 33  1  0  0  0  0
  1 34  1  0  0  0  0
  2 16  1  0  0  0  0
  2 35  1  0  0  0  0
  2 36  1  0  0  0  0
  4  1  1  0  0  0  0
  4  3  1  0  0  0  0
  5  3  2  0  0  0  0
  5  6  1  0  0  0  0
  5 37  1  0  0  0  0
  6  7  2  0  0  0  0
  6 38  1  0  0  0  0
  7  8  1  0  0  0  0
  7 39  1  0  0  0  0
  8  4  2  0  0  0  0
  8 40  1  0  0  0  0
  9  3  1  0  0  0  0
  9 10  1  0  0  0  0
 10 12  1  0  0  0  0
 10 41  1  0  0  0  0
 10 42  1  0  0  0  0
 11 43  1  0  0  0  0
 12 11  1  0  0  0  0
 12 13  2  0  0  0  0
 14  9  1  0  0  0  0
 14 15  2  0  0  0  0
 16 14  1  0  0  0  0
 16 17  1  0  0  0  0
 16 32  1  6  0  0  0
 17 44  1  0  0  0  0
 19 18  2  0  0  0  0
 19 20  1  0  0  0  0
 20 21  1  0  0  0  0
 21 22  1  0  0  0  0
 21 45  1  0  0  0  0
 21 46  1  0  0  0  0
 22 47  1  0  0  0  0
 22 48  1  0  0  0  0
 22 49  1  0  0  0  0
 23 24  1  0  0  0  0
 23 50  1  6  0  0  0
 23 19  1  0  0  0  0
 23 17  1  0  0  0  0
 24 25  1  0  0  0  0
 24 51  1  0  0  0  0
 24 52  1  0  0  0  0
 25 26  1  0  0  0  0
 25 53  1  0  0  0  0
 25 54  1  0  0  0  0
 26 29  1  0  0  0  0
 27 28  1  0  0  0  0
 27 31  2  0  0  0  0
 27 55  1  0  0  0  0
 28 26  2  0  0  0  0
 28 56  1  0  0  0  0
 29 30  2  0  0  0  0
 29 57  1  0  0  0  0
 30 31  1  0  0  0  0
 30 58  1  0  0  0  0
 31 59  1  0  0  0  0
M  END
>  <DRUGBANK_ID>
DB00542

>  <SECONDARY_ACCESSION_NUMBERS>
APRD00063

>  <COMMON_NAME>
Benazepril

>  <CAS_NUMBER>
86541-75-5

>  <UNII>
UDM7Q7QWP8

>  <SYNONYMS>
Bénazépril; Benazepril; Benazeprilum

$$$$
