
 OpenBabel10282417233D

 47 52  0  0  0  0  0  0  0  0999 V2000
    1.4194   -0.4682   -0.1614 C   0  0  0  0  0  0  0  0  0  0  0  0
    0.9098   -1.5183   -1.0639 N   0  0  0  0  0  0  0  0  0  0  0  0
    1.1236   -2.8645   -0.6125 C   0  0  0  0  0  0  0  0  0  0  0  0
    0.4908   -3.7308   -1.5240 C   0  0  0  0  0  0  0  0  0  0  0  0
    0.6206   -5.1146   -1.2830 C   0  0  0  0  0  0  0  0  0  0  0  0
    1.3236   -5.6355   -0.1993 C   0  0  0  0  0  0  0  0  0  0  0  0
    1.8754   -4.7800    0.7296 C   0  0  0  0  0  0  0  0  0  0  0  0
    1.7698   -3.3883    0.5568 C   0  0  0  0  0  0  0  0  0  0  0  0
   -0.1861   -2.8957   -2.4281 C   0  0  0  0  0  0  0  0  0  0  0  0
   -0.0278   -1.5659   -2.1946 C   0  0  0  0  0  0  0  0  0  0  0  0
   -0.8753   -0.6848   -2.9396 C   0  0  0  0  0  0  0  0  0  0  0  0
   -1.8439   -0.9232   -3.9274 C   0  0  0  0  0  0  0  0  0  0  0  0
   -2.4354    0.4538   -4.3909 C   0  0  0  0  0  0  0  0  0  0  0  0
   -3.3012    1.2821   -5.2626 C   0  0  0  0  0  0  0  0  0  0  0  0
   -2.7352    2.4232   -5.9620 C   0  0  0  0  0  0  0  0  0  0  0  0
   -1.4284    2.8037   -5.7269 C   0  0  0  0  0  0  0  0  0  0  0  0
   -0.8286    2.3454   -4.5688 C   0  0  0  0  0  0  0  0  0  0  0  0
   -1.4029    1.2559   -3.8973 C   0  0  0  0  0  0  0  0  0  0  0  0
   -1.0370    0.6419   -2.7458 N   0  0  0  0  0  0  0  0  0  0  0  0
   -0.5014    1.2634   -1.5909 C   0  0  0  0  0  0  0  0  0  0  0  0
   -1.2490    0.7716   -0.3157 C   0  0  0  0  0  0  0  0  0  0  0  0
   -1.5455   -0.6759   -0.0105 C   0  0  0  0  0  0  0  0  0  0  0  0
   -1.7416   -1.7539    0.3112 N   0  0  0  0  0  0  0  0  0  0  0  0
   -1.8398   -2.3590   -4.3011 C   0  0  0  0  0  0  0  0  0  0  0  0
   -1.0631   -3.3328   -3.4702 C   0  0  0  0  0  0  0  0  0  0  0  0
   -1.2462   -4.6751   -3.9889 C   0  0  0  0  0  0  0  0  0  0  0  0
   -1.0570   -5.8224   -3.5987 O   0  0  0  0  0  0  0  0  0  0  0  0
   -1.7338   -4.4639   -5.2539 N   0  0  0  0  0  0  0  0  0  0  0  0
   -2.4022   -3.1729   -5.4446 C   0  0  0  0  0  0  0  0  0  0  0  0
    0.9695   -0.5768    0.8376 H   0  0  0  0  0  0  0  0  0  0  0  0
    1.2377    0.5627   -0.4004 H   0  0  0  0  0  0  0  0  0  0  0  0
    2.5067   -0.4831   -0.0856 H   0  0  0  0  0  0  0  0  0  0  0  0
    0.1639   -5.8389   -1.9330 H   0  0  0  0  0  0  0  0  0  0  0  0
    1.4037   -6.7154   -0.1000 H   0  0  0  0  0  0  0  0  0  0  0  0
    2.3882   -5.2122    1.5879 H   0  0  0  0  0  0  0  0  0  0  0  0
    2.1739   -2.7527    1.3435 H   0  0  0  0  0  0  0  0  0  0  0  0
   -4.3573    1.5508   -4.9974 H   0  0  0  0  0  0  0  0  0  0  0  0
   -3.3092    3.0514   -6.6572 H   0  0  0  0  0  0  0  0  0  0  0  0
   -0.9000    3.5045   -6.3697 H   0  0  0  0  0  0  0  0  0  0  0  0
    0.1501    2.7022   -4.2703 H   0  0  0  0  0  0  0  0  0  0  0  0
    0.5588    1.0874   -1.8073 H   0  0  0  0  0  0  0  0  0  0  0  0
   -0.5659    2.3493   -1.6583 H   0  0  0  0  0  0  0  0  0  0  0  0
   -0.7132    1.1662    0.5495 H   0  0  0  0  0  0  0  0  0  0  0  0
   -2.2438    1.2078   -0.3469 H   0  0  0  0  0  0  0  0  0  0  0  0
   -1.7857   -5.2808   -5.8560 H   0  0  0  0  0  0  0  0  0  0  0  0
   -3.4636   -3.4037   -5.3253 H   0  0  0  0  0  0  0  0  0  0  0  0
   -2.1397   -2.8457   -6.4484 H   0  0  0  0  0  0  0  0  0  0  0  0
  1  2  1  0  0  0  0
  1 30  1  0  0  0  0
  1 31  1  0  0  0  0
  1 32  1  0  0  0  0
  2  3  1  0  0  0  0
  2 10  1  0  0  0  0
  3  4  2  0  0  0  0
  3  8  1  0  0  0  0
  4  5  1  0  0  0  0
  4  9  1  0  0  0  0
  5  6  2  0  0  0  0
  5 33  1  0  0  0  0
  6  7  1  0  0  0  0
  6 34  1  0  0  0  0
  7  8  2  0  0  0  0
  7 35  1  0  0  0  0
  8 36  1  0  0  0  0
  9 10  2  0  0  0  0
  9 25  1  0  0  0  0
 10 11  1  0  0  0  0
 11 12  2  0  0  0  0
 11 19  1  0  0  0  0
 12 13  1  0  0  0  0
 12 24  1  0  0  0  0
 13 14  2  0  0  0  0
 13 18  1  0  0  0  0
 14 15  1  0  0  0  0
 14 37  1  0  0  0  0
 15 16  2  0  0  0  0
 15 38  1  0  0  0  0
 16 17  1  0  0  0  0
 16 39  1  0  0  0  0
 17 18  2  0  0  0  0
 17 40  1  0  0  0  0
 18 19  1  0  0  0  0
 19 20  1  0  0  0  0
 20 21  1  0  0  0  0
 20 41  1  0  0  0  0
 20 42  1  0  0  0  0
 21 22  1  0  0  0  0
 21 43  1  0  0  0  0
 21 44  1  0  0  0  0
 22 23  3  0  0  0  0
 24 25  2  0  0  0  0
 24 29  1  0  0  0  0
 25 26  1  0  0  0  0
 26 27  2  0  0  0  0
 26 28  1  0  0  0  0
 28 29  1  0  0  0  0
 28 45  1  0  0  0  0
 29 46  1  0  0  0  0
 29 47  1  0  0  0  0
M  END
>  <DRUGBANK_ID>
DB17029

>  <COMMON_NAME>
Go-6976

>  <CAS_NUMBER>
136194-77-9

>  <UNII>
B9IQO7JZ16

>  <SYNONYMS>
12h-indolo(2,3-a)pyrrolo(3,4-c)carbazole-12-propanenitrile, 5,6,7,13-tetrahydro-13-methyl-5-oxo-

$$$$
