1533
 OpenBabel10282417113D

 40 41  0  0  1  0  0  0  0  0999 V2000
   -1.0563    0.0229    0.0094 S   0  0  0  0  0  0  0  0  0  0  0  0
    1.3547    4.7134    1.3215 S   0  0  0  0  0  0  0  0  0  0  0  0
   -2.5104    5.0305   -1.2527 N   0  0  0  0  0  0  0  0  0  0  0  0
   -1.8148    4.6351   -0.0040 C   0  0  3  0  0  0  0  0  0  0  0  0
   -2.8784    6.4652   -1.2695 C   0  0  0  0  0  0  0  0  0  0  0  0
   -1.7939    4.6296   -2.4845 C   0  0  0  0  0  0  0  0  0  0  0  0
   -1.3953    3.1743    0.0379 C   0  0  0  0  0  0  0  0  0  0  0  0
   -2.6335    4.9374    1.2652 C   0  0  0  0  0  0  0  0  0  0  0  0
   -0.1196    2.6909    0.0793 C   0  0  0  0  0  0  0  0  0  0  0  0
   -1.7502    7.4916   -1.1074 C   0  0  0  0  0  0  0  0  0  0  0  0
   -0.4130    5.2330   -2.7203 C   0  0  0  0  0  0  0  0  0  0  0  0
    0.1466    1.2641    0.0490 C   0  0  0  0  0  0  0  0  0  0  0  0
    0.9882    3.6218    0.0319 C   0  0  0  0  0  0  0  0  0  0  0  0
    1.4064    0.6658    0.0397 C   0  0  0  0  0  0  0  0  0  0  0  0
    1.9469    3.7414   -0.9700 C   0  0  0  0  0  0  0  0  0  0  0  0
    1.3843   -0.7517    0.0069 C   0  0  0  0  0  0  0  0  0  0  0  0
    2.8715    4.7983   -0.7464 C   0  0  0  0  0  0  0  0  0  0  0  0
    0.1005   -1.2338   -0.0045 C   0  0  0  0  0  0  0  0  0  0  0  0
    2.6214    5.4497    0.4378 C   0  0  0  0  0  0  0  0  0  0  0  0
   -0.9332    5.2568    0.0719 H   0  0  0  0  0  0  0  0  0  0  0  0
   -3.4294    6.6855   -2.1922 H   0  0  0  0  0  0  0  0  0  0  0  0
   -3.6145    6.6496   -0.4786 H   0  0  0  0  0  0  0  0  0  0  0  0
   -1.6994    3.5366   -2.5036 H   0  0  0  0  0  0  0  0  0  0  0  0
   -2.4196    4.8581   -3.3560 H   0  0  0  0  0  0  0  0  0  0  0  0
   -2.2426    2.4934    0.0164 H   0  0  0  0  0  0  0  0  0  0  0  0
   -2.0744    4.6469    2.1623 H   0  0  0  0  0  0  0  0  0  0  0  0
   -2.8281    6.0096    1.3739 H   0  0  0  0  0  0  0  0  0  0  0  0
   -3.5952    4.4132    1.2763 H   0  0  0  0  0  0  0  0  0  0  0  0
   -1.1797    7.6205   -2.0252 H   0  0  0  0  0  0  0  0  0  0  0  0
   -2.1563    8.4796   -0.8805 H   0  0  0  0  0  0  0  0  0  0  0  0
   -1.0504    7.2410   -0.3059 H   0  0  0  0  0  0  0  0  0  0  0  0
    0.1543    5.3081   -1.7984 H   0  0  0  0  0  0  0  0  0  0  0  0
    0.1643    4.6389   -3.4327 H   0  0  0  0  0  0  0  0  0  0  0  0
   -0.4633    6.2360   -3.1385 H   0  0  0  0  0  0  0  0  0  0  0  0
    2.3269    1.2350    0.0581 H   0  0  0  0  0  0  0  0  0  0  0  0
    1.9377    3.1230   -1.8602 H   0  0  0  0  0  0  0  0  0  0  0  0
    2.2702   -1.3739    0.0001 H   0  0  0  0  0  0  0  0  0  0  0  0
    3.6616    5.0774   -1.4326 H   0  0  0  0  0  0  0  0  0  0  0  0
   -0.2116   -2.2685   -0.0196 H   0  0  0  0  0  0  0  0  0  0  0  0
    3.1451    6.3044    0.8428 H   0  0  0  0  0  0  0  0  0  0  0  0
  1 12  1  0  0  0  0
  1 18  1  0  0  0  0
  2 13  1  0  0  0  0
  2 19  1  0  0  0  0
  3  4  1  0  0  0  0
  3  5  1  0  0  0  0
  3  6  1  0  0  0  0
  4  7  1  0  0  0  0
  4  8  1  0  0  0  0
  4 20  1  0  0  0  0
  5 10  1  0  0  0  0
  5 21  1  0  0  0  0
  5 22  1  0  0  0  0
  6 11  1  0  0  0  0
  6 23  1  0  0  0  0
  6 24  1  0  0  0  0
  7  9  2  0  0  0  0
  7 25  1  0  0  0  0
  8 26  1  0  0  0  0
  8 27  1  0  0  0  0
  8 28  1  0  0  0  0
  9 12  1  0  0  0  0
  9 13  1  0  0  0  0
 10 29  1  0  0  0  0
 10 30  1  0  0  0  0
 10 31  1  0  0  0  0
 11 32  1  0  0  0  0
 11 33  1  0  0  0  0
 11 34  1  0  0  0  0
 12 14  2  0  0  0  0
 13 15  2  0  0  0  0
 14 16  1  0  0  0  0
 14 35  1  0  0  0  0
 15 17  1  0  0  0  0
 15 36  1  0  0  0  0
 16 18  2  0  0  0  0
 16 37  1  0  0  0  0
 17 19  2  0  0  0  0
 17 38  1  0  0  0  0
 18 39  1  0  0  0  0
 19 40  1  0  0  0  0
M  END
>  <DRUGBANK_ID>
DB01533

>  <COMMON_NAME>
Diethylthiambutene

>  <CAS_NUMBER>
86-14-6

>  <UNII>
2Z91X9052O

>  <SYNONYMS>
Diethylthiambutene

$$$$
