
 OpenBabel10282417203D

 13 12  0  0  0  0  0  0  0  0999 V2000
    0.9162    0.0479    0.0267 C   0  0  0  0  0  0  0  0  0  0  0  0
    0.5142    0.2906    1.4899 C   0  0  0  0  0  0  0  0  0  0  0  0
    0.8927    1.5826    1.9653 O   0  0  0  0  0  0  0  0  0  0  0  0
    2.2887    1.7570    2.1195 N   0  3  0  0  0  0  0  0  0  0  0  0
    3.0160    0.7970    1.8804 O   0  0  0  0  0  0  0  0  0  0  0  0
    2.5813    2.8953    2.4882 O   0  5  0  0  0  0  0  0  0  0  0  0
    0.4301    1.1064   -0.8592 N   0  0  0  0  0  0  0  0  0  0  0  0
    0.5204   -0.9168   -0.3071 H   0  0  0  0  0  0  0  0  0  0  0  0
    2.0016   -0.0100   -0.0868 H   0  0  0  0  0  0  0  0  0  0  0  0
   -0.5823    0.2619    1.5482 H   0  0  0  0  0  0  0  0  0  0  0  0
    0.8703   -0.5032    2.1576 H   0  0  0  0  0  0  0  0  0  0  0  0
   -0.5880    1.1454   -0.8304 H   0  0  0  0  0  0  0  0  0  0  0  0
    0.7522    2.0147   -0.5215 H   0  0  0  0  0  0  0  0  0  0  0  0
  1  2  1  0  0  0  0
  1  7  1  0  0  0  0
  1  8  1  0  0  0  0
  1  9  1  0  0  0  0
  2  3  1  0  0  0  0
  2 10  1  0  0  0  0
  2 11  1  0  0  0  0
  3  4  1  0  0  0  0
  4  5  2  0  0  0  0
  4  6  1  0  0  0  0
  7 12  1  0  0  0  0
  7 13  1  0  0  0  0
M  CHG  2   4   1   6  -1
M  END
>  <DRUGBANK_ID>
DB13585

>  <COMMON_NAME>
Aminoethyl nitrate

>  <CAS_NUMBER>
646-02-6

>  <UNII>
S1IA7R2J48

>  <SYNONYMS>
2-aminoethyl nitrate; Aminoethyl nitrate; Itramin

$$$$
