
 OpenBabel10282417103D

 78 85  0  0  0  0  0  0  0  0999 V2000
   -4.0117    1.4620   -3.5074 C   0  0  2  0  0  0  0  0  0  0  0  0
   -2.4701    1.9721   -3.8713 C   0  0  1  0  0  0  0  0  0  0  0  0
   -2.2753    3.3402   -3.2151 C   0  0  0  0  0  0  0  0  0  0  0  0
   -2.9174    3.7131   -1.9815 C   0  0  0  0  0  0  0  0  0  0  0  0
   -4.4623    1.6126   -1.9524 C   0  0  1  0  0  0  0  0  0  0  0  0
   -4.1321    2.9688   -1.3397 C   0  0  2  0  0  0  0  0  0  0  0  0
   -0.8026   -0.9487    0.2083 C   0  0  1  0  0  0  0  0  0  0  0  0
   -0.7127    0.6946   -2.2277 C   0  0  1  0  0  0  0  0  0  0  0  0
   -0.7622   -1.0237    1.6154 O   0  0  0  0  0  0  0  0  0  0  0  0
   -1.7341   -0.2787   -1.6686 C   0  0  1  0  0  0  0  0  0  0  0  0
   -1.9625   -0.1620   -0.1817 C   0  0  1  0  0  0  0  0  0  0  0  0
    0.4740    0.0028   -1.8656 O   0  0  0  0  0  0  0  0  0  0  0  0
   -1.1644    1.0906   -3.6333 O   0  0  0  0  0  0  0  0  0  0  0  0
    0.4262   -0.2101   -0.3951 C   0  0  2  0  0  0  0  0  0  0  0  0
   -5.4718    3.5692   -1.4872 C   0  0  0  0  0  0  0  0  0  0  0  0
    0.3082   -1.8961    1.9191 C   0  0  2  0  0  0  0  0  0  0  0  0
   -5.2299    0.3089   -1.7122 C   0  0  0  0  0  0  0  0  0  0  0  0
   -1.3680    4.2281   -3.8379 C   0  0  0  0  0  0  0  0  0  0  0  0
   -2.4921    4.8992   -1.3359 C   0  0  0  0  0  0  0  0  0  0  0  0
   -8.0157    4.2475   -2.2114 C   0  0  0  0  0  0  0  0  0  0  0  0
   -5.1285   -0.5385   -2.7795 O   0  0  0  0  0  0  0  0  0  0  0  0
    0.3485   -1.9948    3.4167 C   0  0  0  0  0  0  0  0  0  0  0  0
   -4.2776   -0.0250   -3.8309 C   0  0  0  0  0  0  0  0  0  0  0  0
    1.5373   -1.3567    1.4150 O   0  0  0  0  0  0  0  0  0  0  0  0
   -6.9062    4.9355   -2.7508 C   0  0  0  0  0  0  0  0  0  0  0  0
   -7.8585    3.1886   -1.3135 C   0  0  0  0  0  0  0  0  0  0  0  0
   -1.0541    5.4054   -3.1978 C   0  0  0  0  0  0  0  0  0  0  0  0
   -1.5739    5.7153   -1.9668 C   0  0  0  0  0  0  0  0  0  0  0  0
   -5.6367    4.5738   -2.4062 C   0  0  0  0  0  0  0  0  0  0  0  0
   -6.5736    2.9059   -0.9070 C   0  0  0  0  0  0  0  0  0  0  0  0
    1.7304   -1.5025    4.3068 S   0  0  0  0  0  0  0  0  0  0  0  0
    1.5474   -1.1089    0.0102 C   0  0  0  0  0  0  0  0  0  0  0  0
   -0.2064    6.3635   -3.6607 O   0  0  0  0  0  0  0  0  0  0  0  0
   -1.1007    6.9000   -1.4921 O   0  0  0  0  0  0  0  0  0  0  0  0
   -0.1169    7.2153   -2.5005 C   0  0  0  0  0  0  0  0  0  0  0  0
   -0.6338   -2.4888    4.2654 C   0  0  0  0  0  0  0  0  0  0  0  0
   -5.7289   -0.0460   -0.6232 O   0  0  0  0  0  0  0  0  0  0  0  0
    1.0365   -1.9705    5.7900 C   0  0  0  0  0  0  0  0  0  0  0  0
   -0.2295   -2.4829    5.6331 C   0  0  0  0  0  0  0  0  0  0  0  0
   -2.7544    0.3838   -2.1242 O   0  0  0  0  0  0  0  0  0  0  0  0
   -3.1624   -0.7642    0.2888 O   0  0  0  0  0  0  0  0  0  0  0  0
   -9.2250    4.6890   -2.6464 O   0  0  0  0  0  0  0  0  0  0  0  0
   -8.7737    2.3272   -0.7778 O   0  0  0  0  0  0  0  0  0  0  0  0
   -6.8914    5.9688   -3.6452 O   0  0  0  0  0  0  0  0  0  0  0  0
  -10.1354    2.6030   -1.0100 C   0  0  0  0  0  0  0  0  0  0  0  0
   -8.1623    6.4779   -3.9818 C   0  0  0  0  0  0  0  0  0  0  0  0
   -3.8814    1.2698   -1.0721 H   0  0  0  0  0  0  0  0  0  0  0  0
   -4.7307    2.0645   -4.0805 H   0  0  0  0  0  0  0  0  0  0  0  0
   -0.6731    1.6641   -1.7097 H   0  0  0  0  0  0  0  0  0  0  0  0
   -0.9574   -1.9619   -0.2044 H   0  0  0  0  0  0  0  0  0  0  0  0
    0.4843    0.7768    0.0896 H   0  0  0  0  0  0  0  0  0  0  0  0
   -2.4733    2.1063   -4.9676 H   0  0  0  0  0  0  0  0  0  0  0  0
   -3.9054    2.9341   -0.2530 H   0  0  0  0  0  0  0  0  0  0  0  0
   -1.8363   -1.2729   -2.1076 H   0  0  0  0  0  0  0  0  0  0  0  0
   -1.9722    0.8773    0.1851 H   0  0  0  0  0  0  0  0  0  0  0  0
    0.1125   -2.8930    1.4975 H   0  0  0  0  0  0  0  0  0  0  0  0
   -0.9044    3.9972   -4.7943 H   0  0  0  0  0  0  0  0  0  0  0  0
   -2.9094    5.2024   -0.3795 H   0  0  0  0  0  0  0  0  0  0  0  0
   -3.3625   -0.6386   -3.9003 H   0  0  0  0  0  0  0  0  0  0  0  0
   -4.7801   -0.1931   -4.7815 H   0  0  0  0  0  0  0  0  0  0  0  0
   -4.7915    5.0432   -2.9009 H   0  0  0  0  0  0  0  0  0  0  0  0
   -6.4244    2.0662   -0.2230 H   0  0  0  0  0  0  0  0  0  0  0  0
    2.4742   -0.6152   -0.2765 H   0  0  0  0  0  0  0  0  0  0  0  0
    1.4645   -2.0464   -0.5527 H   0  0  0  0  0  0  0  0  0  0  0  0
   -0.2334    8.2616   -2.8052 H   0  0  0  0  0  0  0  0  0  0  0  0
    0.8805    7.0862   -2.0625 H   0  0  0  0  0  0  0  0  0  0  0  0
   -1.5982   -2.8512    3.9242 H   0  0  0  0  0  0  0  0  0  0  0  0
    1.5952   -1.8471    6.7062 H   0  0  0  0  0  0  0  0  0  0  0  0
   -0.8321   -2.8379    6.4602 H   0  0  0  0  0  0  0  0  0  0  0  0
   -2.4785    1.3099   -1.9436 H   0  0  0  0  0  0  0  0  0  0  0  0
   -3.3254   -0.4283    1.1920 H   0  0  0  0  0  0  0  0  0  0  0  0
   -9.9659    4.3772   -2.1367 H   0  0  0  0  0  0  0  0  0  0  0  0
  -10.3733    3.5814   -0.5772 H   0  0  0  0  0  0  0  0  0  0  0  0
  -10.3561    2.5303   -2.0821 H   0  0  0  0  0  0  0  0  0  0  0  0
  -10.7718    1.8794   -0.5034 H   0  0  0  0  0  0  0  0  0  0  0  0
   -8.7302    5.7180   -4.5299 H   0  0  0  0  0  0  0  0  0  0  0  0
   -8.6748    6.8409   -3.0823 H   0  0  0  0  0  0  0  0  0  0  0  0
   -8.0318    7.3253   -4.6471 H   0  0  0  0  0  0  0  0  0  0  0  0
  1 48  1  6  0  0  0
  2  1  1  0  0  0  0
  2 13  1  0  0  0  0
  2 52  1  6  0  0  0
  3  2  1  0  0  0  0
  3  4  2  0  0  0  0
  4  6  1  0  0  0  0
  5  1  1  0  0  0  0
  5 47  1  1  0  0  0
  6  5  1  0  0  0  0
  6 15  1  0  0  0  0
  6 53  1  1  0  0  0
  7 14  1  0  0  0  0
  7 50  1  6  0  0  0
  8 49  1  1  0  0  0
  8 13  1  0  0  0  0
  9  7  1  0  0  0  0
 10  8  1  0  0  0  0
 10 40  1  0  0  0  0
 10 54  1  6  0  0  0
 11 10  1  0  0  0  0
 11  7  1  0  0  0  0
 11 55  1  1  0  0  0
 11 41  1  0  0  0  0
 12  8  1  0  0  0  0
 14 12  1  0  0  0  0
 14 51  1  1  0  0  0
 16 24  1  0  0  0  0
 16 22  1  0  0  0  0
 16  9  1  0  0  0  0
 16 56  1  6  0  0  0
 17  5  1  0  0  0  0
 18  3  1  0  0  0  0
 18 57  1  0  0  0  0
 19  4  1  0  0  0  0
 19 58  1  0  0  0  0
 20 26  2  0  0  0  0
 21 23  1  0  0  0  0
 21 17  1  0  0  0  0
 23  1  1  0  0  0  0
 23 59  1  0  0  0  0
 23 60  1  0  0  0  0
 24 32  1  0  0  0  0
 25 29  2  0  0  0  0
 25 20  1  0  0  0  0
 26 30  1  0  0  0  0
 27 18  2  0  0  0  0
 28 19  2  0  0  0  0
 28 27  1  0  0  0  0
 29 15  1  0  0  0  0
 29 61  1  0  0  0  0
 30 15  2  0  0  0  0
 30 62  1  0  0  0  0
 31 22  1  0  0  0  0
 32 14  1  0  0  0  0
 32 63  1  0  0  0  0
 32 64  1  0  0  0  0
 33 27  1  0  0  0  0
 34 28  1  0  0  0  0
 35 33  1  0  0  0  0
 35 34  1  0  0  0  0
 35 65  1  0  0  0  0
 35 66  1  0  0  0  0
 36 22  2  0  0  0  0
 36 67  1  0  0  0  0
 37 17  2  0  0  0  0
 38 31  1  0  0  0  0
 38 39  2  0  0  0  0
 38 68  1  0  0  0  0
 39 36  1  0  0  0  0
 39 69  1  0  0  0  0
 40 70  1  0  0  0  0
 41 71  1  0  0  0  0
 42 20  1  0  0  0  0
 42 72  1  0  0  0  0
 43 26  1  0  0  0  0
 44 25  1  0  0  0  0
 45 43  1  0  0  0  0
 45 73  1  0  0  0  0
 45 74  1  0  0  0  0
 45 75  1  0  0  0  0
 46 44  1  0  0  0  0
 46 76  1  0  0  0  0
 46 77  1  0  0  0  0
 46 78  1  0  0  0  0
M  END
>  <DRUGBANK_ID>
DB00444

>  <SECONDARY_ACCESSION_NUMBERS>
APRD00649

>  <COMMON_NAME>
Teniposide

>  <CAS_NUMBER>
29767-20-2

>  <UNII>
957E6438QA

>  <SYNONYMS>
4'-demethylepipodophyllotoxin 9-(4,6-O-(R)-2-thenylidene-beta-D-glucopyranoside); Epidophyllotoxin; Teniposid; Teniposide; TÃ©niposide; Teniposido; Teniposidum

$$$$
