
 OpenBabel10282417123D

 32 32  0  0  1  0  0  0  0  0999 V2000
    0.4624    1.1704   -0.3440 C   0  0  0  0  0  0  0  0  0  0  0  0
   -1.5518   -0.1758   -0.2829 C   0  0  0  0  0  0  0  0  0  0  0  0
    2.8635   -0.0016   -0.3158 C   0  0  0  0  0  0  0  0  0  0  0  0
    1.3639   -0.0088    0.1624 C   0  0  2  0  0  0  0  0  0  0  0  0
   -0.7612   -1.3609    0.2400 C   0  0  2  0  0  0  0  0  0  0  0  0
    0.6988   -1.3151   -0.2567 C   0  0  2  0  0  0  0  0  0  0  0  0
   -1.7452    2.3240   -0.4056 C   0  0  0  0  0  0  0  0  0  0  0  0
   -0.9600    1.1283    0.1483 C   0  0  2  0  0  0  0  0  0  0  0  0
   -1.4268   -2.5225   -0.2467 O   0  0  0  0  0  0  0  0  0  0  0  0
    1.4616   -2.4122    0.2403 O   0  0  0  0  0  0  0  0  0  0  0  0
   -1.6564    3.4895   -0.0043 O   0  0  0  0  0  0  0  0  0  0  0  0
   -2.6912    1.9715   -1.2886 O   0  0  0  0  0  0  0  0  0  0  0  0
   -0.9378    1.1827    1.5803 O   0  0  0  0  0  0  0  0  0  0  0  0
    2.4459    2.3879    0.1337 O   0  0  0  0  0  0  0  0  0  0  0  0
    3.5989    0.8529    1.7761 O   0  0  0  0  0  0  0  0  0  0  0  0
    4.4899    2.7560    0.7629 O   0  0  0  0  0  0  0  0  0  0  0  0
    3.7445    1.4921    0.2686 P   0  0  0  0  0  0  0  0  0  0  0  0
    1.3952    0.0301    1.2601 H   0  0  0  0  0  0  0  0  0  0  0  0
   -0.7810   -1.3952    1.3358 H   0  0  0  0  0  0  0  0  0  0  0  0
    0.7133   -1.3993   -1.3504 H   0  0  0  0  0  0  0  0  0  0  0  0
    0.6737    2.1346    0.0942 H   0  0  0  0  0  0  0  0  0  0  0  0
    0.5773    1.2836   -1.4301 H   0  0  0  0  0  0  0  0  0  0  0  0
   -1.5656   -0.2120   -1.3812 H   0  0  0  0  0  0  0  0  0  0  0  0
   -2.5863   -0.2289    0.0627 H   0  0  0  0  0  0  0  0  0  0  0  0
    3.4120   -0.9027   -0.0230 H   0  0  0  0  0  0  0  0  0  0  0  0
    2.8766    0.0337   -1.4118 H   0  0  0  0  0  0  0  0  0  0  0  0
   -1.4425   -2.4552   -1.2167 H   0  0  0  0  0  0  0  0  0  0  0  0
    1.7265   -2.1996    1.1516 H   0  0  0  0  0  0  0  0  0  0  0  0
   -3.3597    2.6844   -1.2682 H   0  0  0  0  0  0  0  0  0  0  0  0
   -1.3864    2.0071    1.8521 H   0  0  0  0  0  0  0  0  0  0  0  0
    2.5405    3.1378   -0.4749 H   0  0  0  0  0  0  0  0  0  0  0  0
    3.8254   -0.0934    1.8621 H   0  0  0  0  0  0  0  0  0  0  0  0
  1 21  1  0  0  0  0
  1 22  1  0  0  0  0
  2 23  1  0  0  0  0
  2 24  1  0  0  0  0
  3 25  1  0  0  0  0
  3 26  1  0  0  0  0
  4  1  1  0  0  0  0
  4  3  1  0  0  0  0
  4 18  1  1  0  0  0
  5  2  1  0  0  0  0
  5  9  1  0  0  0  0
  5 19  1  1  0  0  0
  6  4  1  0  0  0  0
  6  5  1  0  0  0  0
  6 20  1  6  0  0  0
  6 10  1  0  0  0  0
  8  1  1  0  0  0  0
  8  2  1  0  0  0  0
  8 13  1  1  0  0  0
  8  7  1  0  0  0  0
  9 27  1  0  0  0  0
 10 28  1  0  0  0  0
 11  7  2  0  0  0  0
 12  7  1  0  0  0  0
 12 29  1  0  0  0  0
 13 30  1  0  0  0  0
 14 31  1  0  0  0  0
 15 32  1  0  0  0  0
 17  3  1  0  0  0  0
 17 14  1  0  0  0  0
 17 15  1  0  0  0  0
 17 16  2  0  0  0  0
M  END
>  <DRUGBANK_ID>
DB02592

>  <SECONDARY_ACCESSION_NUMBERS>
EXPT01018

>  <COMMON_NAME>
Carbaphosphonate

$$$$
