TPD
 OpenBabel10282417133D

 29 30  0  0  0  0  0  0  0  0999 V2000
    0.1360    1.2711    0.0005 C   0  0  0  0  0  0  0  0  0  0  0  0
    1.9863   -3.5775    1.2567 C   0  0  0  0  0  0  0  0  0  0  0  0
    1.3189   -4.0091    2.5045 C   0  0  0  0  0  0  0  0  0  0  0  0
    1.1458   -5.2981    2.9534 C   0  0  0  0  0  0  0  0  0  0  0  0
    0.3626   -5.3446    4.1362 C   0  0  0  0  0  0  0  0  0  0  0  0
   -0.0363   -4.0917    4.5462 C   0  0  0  0  0  0  0  0  0  0  0  0
   -0.9547    3.2274   -1.2993 O   0  0  0  0  0  0  0  0  0  0  0  0
   -0.9889    3.2637    1.2468 O   0  0  0  0  0  0  0  0  0  0  0  0
    1.1112    3.8518   -0.0358 N   0  0  0  0  0  0  0  0  0  0  0  0
   -0.3488    2.9810   -0.0192 S   0  0  0  0  0  0  0  0  0  0  0  0
    1.4099    0.7495   -0.0123 C   0  0  0  0  0  0  0  0  0  0  0  0
    1.4109   -0.6532   -0.1084 C   0  0  0  0  0  0  0  0  0  0  0  0
    0.1468   -1.2068   -0.0578 C   0  0  0  0  0  0  0  0  0  0  0  0
   -1.0538    0.0258    0.0002 S   0  0  0  0  0  0  0  0  0  0  0  0
   -0.3269   -2.9325   -0.0824 S   0  0  0  0  0  0  0  0  0  0  0  0
   -1.1599   -3.1798    1.0677 O   0  0  0  0  0  0  0  0  0  0  0  0
   -0.8075   -3.1984   -1.4203 O   0  0  0  0  0  0  0  0  0  0  0  0
    1.1261   -3.8161    0.0807 N   0  0  0  0  0  0  0  0  0  0  0  0
    0.6469   -2.8569    3.5839 S   0  0  0  0  0  0  0  0  0  0  0  0
    2.9077   -4.1587    1.1192 H   0  0  0  0  0  0  0  0  0  0  0  0
    2.3226   -2.5457    1.3293 H   0  0  0  0  0  0  0  0  0  0  0  0
    1.5359   -6.1618    2.4298 H   0  0  0  0  0  0  0  0  0  0  0  0
    0.0810   -6.2562    4.6443 H   0  0  0  0  0  0  0  0  0  0  0  0
   -0.6757   -3.8379    5.3796 H   0  0  0  0  0  0  0  0  0  0  0  0
    1.6405    3.6540   -0.8860 H   0  0  0  0  0  0  0  0  0  0  0  0
    0.9158    4.8509    0.0469 H   0  0  0  0  0  0  0  0  0  0  0  0
    2.3014    1.3610    0.0046 H   0  0  0  0  0  0  0  0  0  0  0  0
    2.3138   -1.2377   -0.1931 H   0  0  0  0  0  0  0  0  0  0  0  0
    0.9396   -4.8066   -0.0805 H   0  0  0  0  0  0  0  0  0  0  0  0
  1 10  1  0  0  0  0
  1 11  2  0  0  0  0
  1 14  1  0  0  0  0
  2  3  1  0  0  0  0
  2 18  1  0  0  0  0
  2 20  1  0  0  0  0
  2 21  1  0  0  0  0
  3  4  2  0  0  0  0
  3 19  1  0  0  0  0
  4  5  1  0  0  0  0
  4 22  1  0  0  0  0
  5  6  2  0  0  0  0
  5 23  1  0  0  0  0
  6 19  1  0  0  0  0
  6 24  1  0  0  0  0
  7 10  2  0  0  0  0
  8 10  2  0  0  0  0
  9 10  1  0  0  0  0
  9 25  1  0  0  0  0
  9 26  1  0  0  0  0
 11 12  1  0  0  0  0
 11 27  1  0  0  0  0
 12 13  2  0  0  0  0
 12 28  1  0  0  0  0
 13 14  1  0  0  0  0
 13 15  1  0  0  0  0
 15 16  2  0  0  0  0
 15 17  2  0  0  0  0
 15 18  1  0  0  0  0
 18 29  1  0  0  0  0
M  END
>  <DRUGBANK_ID>
DB02986

>  <SECONDARY_ACCESSION_NUMBERS>
EXPT03089

>  <COMMON_NAME>
N-(2-Thienylmethyl)-2,5-Thiophenedisulfonamide

$$$$
