10U
 OpenBabel10282417163D

 56 58  0  0  0  0  0  0  0  0999 V2000
   -1.1023    0.5379    0.0807 N   0  0  0  0  0  0  0  0  0  0  0  0
   -2.3072    1.0077    0.5771 C   0  0  0  0  0  0  0  0  0  0  0  0
   -3.2847    0.2597    0.6642 O   0  0  0  0  0  0  0  0  0  0  0  0
   -2.4060    2.5006    0.9753 C   0  0  0  0  0  0  0  0  0  0  0  0
   -0.8897   -0.8702   -0.2185 C   0  0  0  0  0  0  0  0  0  0  0  0
    0.5445   -1.1116    0.2187 C   0  0  0  0  0  0  0  0  0  0  0  0
    1.2442    0.1887   -0.1664 C   0  0  0  0  0  0  0  0  0  0  0  0
    0.1590    1.2763   -0.0444 C   0  0  1  0  0  0  0  0  0  0  0  0
    0.2002    2.2055   -1.2804 C   0  0  0  0  0  0  0  0  0  0  0  0
   -0.9482    2.2690   -2.0406 N   0  0  0  0  0  0  0  0  0  0  0  0
   -1.0095    3.0161   -3.2868 C   0  0  0  0  0  0  0  0  0  0  0  0
   -1.2138    2.1125   -4.4799 C   0  0  0  0  0  0  0  0  0  0  0  0
   -1.9566    2.5340   -5.5925 C   0  0  0  0  0  0  0  0  0  0  0  0
   -2.1719    1.6696   -6.6752 C   0  0  0  0  0  0  0  0  0  0  0  0
   -1.5627    0.4101   -6.7089 C   0  0  0  0  0  0  0  0  0  0  0  0
   -1.6349   -0.4742   -7.9175 C   0  0  0  0  0  0  0  0  0  0  0  0
   -0.9878   -1.5955   -7.9127 N   0  0  0  0  0  0  0  0  0  0  0  0
   -2.3403   -0.1093   -9.0220 N   0  0  0  0  0  0  0  0  0  0  0  0
   -0.8023   -0.0026   -5.6107 C   0  0  0  0  0  0  0  0  0  0  0  0
   -0.6258    0.8417   -4.5150 C   0  0  0  0  0  0  0  0  0  0  0  0
    1.2103    2.8597   -1.5478 O   0  0  0  0  0  0  0  0  0  0  0  0
   -3.3994    3.1982    0.1391 N   0  0  0  0  0  0  0  0  0  0  0  0
   -3.5079    4.6140    0.4839 C   0  0  0  0  0  0  0  0  0  0  0  0
   -2.3614    5.4753   -0.0455 C   0  0  0  0  0  0  0  0  0  0  0  0
   -2.9149    6.8934    0.0137 C   0  0  0  0  0  0  0  0  0  0  0  0
   -4.4226    6.7585   -0.1949 C   0  0  0  0  0  0  0  0  0  0  0  0
   -4.7271    5.2604   -0.1781 C   0  0  0  0  0  0  0  0  0  0  0  0
    0.3220    1.8789    0.8547 H   0  0  0  0  0  0  0  0  0  0  0  0
   -2.7092    2.5308    2.0278 H   0  0  0  0  0  0  0  0  0  0  0  0
   -1.4416    3.0009    0.8967 H   0  0  0  0  0  0  0  0  0  0  0  0
   -0.9812   -0.9904   -1.3041 H   0  0  0  0  0  0  0  0  0  0  0  0
   -1.6046   -1.5314    0.2778 H   0  0  0  0  0  0  0  0  0  0  0  0
    0.5907   -1.2533    1.3058 H   0  0  0  0  0  0  0  0  0  0  0  0
    0.9953   -1.9892   -0.2550 H   0  0  0  0  0  0  0  0  0  0  0  0
    2.0974    0.3894    0.4918 H   0  0  0  0  0  0  0  0  0  0  0  0
    1.6339    0.1135   -1.1882 H   0  0  0  0  0  0  0  0  0  0  0  0
   -1.6800    1.5874   -1.8607 H   0  0  0  0  0  0  0  0  0  0  0  0
   -1.8576    3.7027   -3.1886 H   0  0  0  0  0  0  0  0  0  0  0  0
   -0.0992    3.6063   -3.4300 H   0  0  0  0  0  0  0  0  0  0  0  0
   -2.3713    3.5397   -5.6394 H   0  0  0  0  0  0  0  0  0  0  0  0
   -2.8131    2.0073   -7.4809 H   0  0  0  0  0  0  0  0  0  0  0  0
   -1.1053   -2.0759   -8.8047 H   0  0  0  0  0  0  0  0  0  0  0  0
   -2.3229   -0.6679   -9.8629 H   0  0  0  0  0  0  0  0  0  0  0  0
   -2.7878    0.7917   -9.1027 H   0  0  0  0  0  0  0  0  0  0  0  0
   -0.3298   -0.9822   -5.6025 H   0  0  0  0  0  0  0  0  0  0  0  0
   -0.0066    0.5003   -3.6901 H   0  0  0  0  0  0  0  0  0  0  0  0
   -3.1546    3.0983   -0.8445 H   0  0  0  0  0  0  0  0  0  0  0  0
   -3.6018    4.7358    1.5716 H   0  0  0  0  0  0  0  0  0  0  0  0
   -1.4457    5.3723    0.5445 H   0  0  0  0  0  0  0  0  0  0  0  0
   -2.1242    5.2184   -1.0851 H   0  0  0  0  0  0  0  0  0  0  0  0
   -2.4521    7.5395   -0.7392 H   0  0  0  0  0  0  0  0  0  0  0  0
   -2.7156    7.3382    0.9957 H   0  0  0  0  0  0  0  0  0  0  0  0
   -4.7363    7.2063   -1.1443 H   0  0  0  0  0  0  0  0  0  0  0  0
   -4.9631    7.2793    0.6034 H   0  0  0  0  0  0  0  0  0  0  0  0
   -4.8538    4.9057   -1.2086 H   0  0  0  0  0  0  0  0  0  0  0  0
   -5.6548    5.0425    0.3619 H   0  0  0  0  0  0  0  0  0  0  0  0
  1  2  1  0  0  0  0
  2  4  1  0  0  0  0
  2  3  2  0  0  0  0
  4 22  1  0  0  0  0
  4 29  1  0  0  0  0
  4 30  1  0  0  0  0
  5  1  1  0  0  0  0
  5 31  1  0  0  0  0
  5 32  1  0  0  0  0
  6  7  1  0  0  0  0
  6  5  1  0  0  0  0
  6 33  1  0  0  0  0
  6 34  1  0  0  0  0
  7  8  1  0  0  0  0
  7 35  1  0  0  0  0
  7 36  1  0  0  0  0
  8  1  1  0  0  0  0
  8 28  1  1  0  0  0
  8  9  1  0  0  0  0
  9 10  1  0  0  0  0
 10 37  1  0  0  0  0
 11 10  1  0  0  0  0
 11 12  1  0  0  0  0
 11 38  1  0  0  0  0
 11 39  1  0  0  0  0
 12 20  2  0  0  0  0
 12 13  1  0  0  0  0
 13 14  2  0  0  0  0
 13 40  1  0  0  0  0
 14 15  1  0  0  0  0
 14 41  1  0  0  0  0
 15 16  1  0  0  0  0
 16 18  1  0  0  0  0
 16 17  2  0  0  0  0
 17 42  1  0  0  0  0
 18 43  1  0  0  0  0
 18 44  1  0  0  0  0
 19 15  2  0  0  0  0
 19 45  1  0  0  0  0
 20 19  1  0  0  0  0
 20 46  1  0  0  0  0
 21  9  2  0  0  0  0
 22 23  1  0  0  0  0
 22 47  1  0  0  0  0
 23 27  1  0  0  0  0
 23 48  1  0  0  0  0
 24 23  1  0  0  0  0
 24 25  1  0  0  0  0
 24 49  1  0  0  0  0
 24 50  1  0  0  0  0
 25 26  1  0  0  0  0
 25 51  1  0  0  0  0
 25 52  1  0  0  0  0
 26 53  1  0  0  0  0
 26 54  1  0  0  0  0
 27 26  1  0  0  0  0
 27 55  1  0  0  0  0
 27 56  1  0  0  0  0
M  END
>  <DRUGBANK_ID>
DB06845

>  <COMMON_NAME>
(S)-N-(4-carbamimidoylbenzyl)-1-(2-(cyclopentylamino)ethanoyl)pyrrolidine-2-carboxamide

$$$$
