
 OpenBabel10282417193D

 49 52  0  0  0  0  0  0  0  0999 V2000
    0.5734   -0.2206   -2.7303 C   0  0  0  0  0  0  0  0  0  0  0  0
    1.6620   -0.0361   -0.2643 C   0  0  0  0  0  0  0  0  0  0  0  0
    3.1078   -0.0198    0.0909 C   0  0  0  0  0  0  0  0  0  0  0  0
    3.9559   -0.6037   -0.8609 C   0  0  0  0  0  0  0  0  0  0  0  0
    3.4876   -1.2541   -2.0918 C   0  0  0  0  0  0  0  0  0  0  0  0
    3.9136   -0.4444   -3.2258 N   0  0  0  0  0  0  0  0  0  0  0  0
    4.9527   -1.0000   -3.9154 C   0  0  0  0  0  0  0  0  0  0  0  0
    5.1458   -0.3974   -5.2368 C   0  0  0  0  0  0  0  0  0  0  0  0
    4.2119   -0.7422   -6.1956 C   0  0  0  0  0  0  0  0  0  0  0  0
    2.7599   -1.5280   -5.3970 C   0  0  2  0  0  0  0  0  0  0  0  0
    1.4678   -1.1925   -3.9817 O   0  0  0  0  0  0  0  0  0  0  0  0
    5.4928   -2.0533   -3.5973 O   0  0  0  0  0  0  0  0  0  0  0  0
    5.7913    0.8280   -5.3789 C   0  0  0  0  0  0  0  0  0  0  0  0
    5.7034    1.5739   -6.5622 C   0  0  0  0  0  0  0  0  0  0  0  0
    5.2762    0.9480   -7.7116 C   0  0  0  0  0  0  0  0  0  0  0  0
    4.5954   -0.2893   -7.5737 C   0  0  0  0  0  0  0  0  0  0  0  0
    5.4229    1.5929   -8.8894 F   0  0  0  0  0  0  0  0  0  0  0  0
    3.3912    0.9046   -3.5281 C   0  0  0  0  0  0  0  0  0  0  0  0
    3.4938   -3.0373   -5.1945 C   0  0  0  0  0  0  0  0  0  0  0  0
    3.9990    0.5518    1.0149 C   0  0  0  0  0  0  0  0  0  0  0  0
    5.2763    0.2797    0.5118 N   0  0  0  0  0  0  0  0  0  0  0  0
    5.2364   -0.3898   -0.6387 N   0  0  0  0  0  0  0  0  0  0  0  0
   -0.6200   -0.8342   -1.7487 C   0  0  0  0  0  0  0  0  0  0  0  0
   -0.3563   -1.3775   -0.5090 N   0  0  0  0  0  0  0  0  0  0  0  0
    0.8680   -1.1433    0.0298 C   0  0  0  0  0  0  0  0  0  0  0  0
    1.3862    0.4909   -1.6399 C   0  0  0  0  0  0  0  0  0  0  0  0
   -1.9859   -0.1690   -1.3904 N   0  0  0  0  0  0  0  0  0  0  0  0
    6.6370    0.5574    0.9382 C   0  0  0  0  0  0  0  0  0  0  0  0
    3.7593    1.2953    2.2428 C   0  0  0  0  0  0  0  0  0  0  0  0
    3.5977    1.8618    3.2058 N   0  0  0  0  0  0  0  0  0  0  0  0
    3.7921   -2.2995   -2.1228 H   0  0  0  0  0  0  0  0  0  0  0  0
    2.4218   -1.4286   -2.0989 H   0  0  0  0  0  0  0  0  0  0  0  0
    2.2995   -1.9148   -6.3396 H   0  0  0  0  0  0  0  0  0  0  0  0
    6.1246    1.2935   -4.4601 H   0  0  0  0  0  0  0  0  0  0  0  0
    5.9401    2.6315   -6.5661 H   0  0  0  0  0  0  0  0  0  0  0  0
    4.7036   -0.8791   -8.5165 H   0  0  0  0  0  0  0  0  0  0  0  0
    2.3196    0.9596   -3.6693 H   0  0  0  0  0  0  0  0  0  0  0  0
    3.7350    1.5805   -2.7534 H   0  0  0  0  0  0  0  0  0  0  0  0
    3.7054    1.2941   -4.4911 H   0  0  0  0  0  0  0  0  0  0  0  0
    3.5951   -3.8208   -5.9860 H   0  0  0  0  0  0  0  0  0  0  0  0
    4.5954   -2.9545   -5.1940 H   0  0  0  0  0  0  0  0  0  0  0  0
    2.8930   -3.5476   -4.4677 H   0  0  0  0  0  0  0  0  0  0  0  0
    1.3067   -2.0783    0.3819 H   0  0  0  0  0  0  0  0  0  0  0  0
    0.9869    1.4989   -1.2970 H   0  0  0  0  0  0  0  0  0  0  0  0
   -2.4103   -0.8305   -0.6860 H   0  0  0  0  0  0  0  0  0  0  0  0
   -2.0751    0.6445   -0.7434 H   0  0  0  0  0  0  0  0  0  0  0  0
    6.8295    1.6295    0.9708 H   0  0  0  0  0  0  0  0  0  0  0  0
    6.8504    0.0535    1.8795 H   0  0  0  0  0  0  0  0  0  0  0  0
    7.3323    0.1344    0.1871 H   0  0  0  0  0  0  0  0  0  0  0  0
  1 11  1  0  0  0  0
  1 23  2  0  0  0  0
  1 26  1  0  0  0  0
  2  3  1  0  0  0  0
  2 25  1  0  0  0  0
  2 26  2  0  0  0  0
  3  4  1  0  0  0  0
  3 20  2  0  0  0  0
  4  5  1  0  0  0  0
  4 22  2  0  0  0  0
  5  6  1  0  0  0  0
  5 31  1  0  0  0  0
  5 32  1  0  0  0  0
  6  7  1  0  0  0  0
  6 18  1  0  0  0  0
  7  8  1  0  0  0  0
  7 12  2  0  0  0  0
  8  9  2  0  0  0  0
  8 13  1  0  0  0  0
  9 10  1  0  0  0  0
  9 16  1  0  0  0  0
 10 11  1  0  0  0  0
 10 33  1  6  0  0  0
 10 19  1  0  0  0  0
 13 14  2  0  0  0  0
 13 34  1  0  0  0  0
 14 15  1  0  0  0  0
 14 35  1  0  0  0  0
 15 16  2  0  0  0  0
 15 17  1  0  0  0  0
 16 36  1  0  0  0  0
 18 37  1  0  0  0  0
 18 38  1  0  0  0  0
 18 39  1  0  0  0  0
 19 40  1  0  0  0  0
 19 41  1  0  0  0  0
 19 42  1  0  0  0  0
 20 21  1  0  0  0  0
 20 29  1  0  0  0  0
 21 22  1  0  0  0  0
 21 28  1  0  0  0  0
 23 24  1  0  0  0  0
 23 27  1  0  0  0  0
 24 25  2  0  0  0  0
 25 43  1  0  0  0  0
 26 44  1  0  0  0  0
 27 45  1  0  0  0  0
 27 46  1  0  0  0  0
 28 47  1  0  0  0  0
 28 48  1  0  0  0  0
 28 49  1  0  0  0  0
 29 30  3  0  0  0  0
M  END
>  <DRUGBANK_ID>
DB12130

>  <COMMON_NAME>
Lorlatinib

>  <CAS_NUMBER>
1454846-35-5

>  <UNII>
OSP71S83EU

>  <SYNONYMS>
Lorlatinib

$$$$
