
 OpenBabel10282417113D

183184  0  0  0  0  0  0  0  0999 V2000
   -6.7286  -21.1261   -7.3703 N   0  0  0  0  0  0  0  0  0  0  0  0
   -5.6032  -18.9416   -7.1181 C   0  0  2  0  0  0  0  0  0  0  0  0
  -11.3556  -11.5917   -0.2406 C   0  0  1  0  0  0  0  0  0  0  0  0
  -10.9968  -12.2090   -1.5845 C   0  0  0  0  0  0  0  0  0  0  0  0
   -4.0496  -22.5726   -3.9938 N   0  0  0  0  0  0  0  0  0  0  0  0
   -3.0704  -19.9326   -1.9702 N   0  0  0  0  0  0  0  0  0  0  0  0
  -10.9886  -10.1539   -0.2229 N   0  0  0  0  0  0  0  0  0  0  0  0
   -4.9960  -25.1311   -6.2818 N   0  0  0  0  0  0  0  0  0  0  0  0
   -7.7094  -23.2856   -7.4086 C   0  0  0  0  0  0  0  0  0  0  0  0
   -7.6160  -27.1395   -7.1048 N   0  0  0  0  0  0  0  0  0  0  0  0
   -4.3325  -16.6956   -2.7279 N   0  0  0  0  0  0  0  0  0  0  0  0
   -3.1239  -21.9951   -3.2115 C   0  0  0  0  0  0  0  0  0  0  0  0
   -4.0770  -24.6649   -5.3098 C   0  0  0  0  0  0  0  0  0  0  0  0
   -4.0351  -18.9352   -1.7063 C   0  0  0  0  0  0  0  0  0  0  0  0
   -6.8642  -26.7160   -6.0499 C   0  0  0  0  0  0  0  0  0  0  0  0
   -5.1995  -15.6442   -2.3786 C   0  0  0  0  0  0  0  0  0  0  0  0
  -11.9509   -9.1917   -0.2347 C   0  0  0  0  0  0  0  0  0  0  0  0
   -4.8183  -16.7091   -6.4145 C   0  0  0  0  0  0  0  0  0  0  0  0
   -3.3678  -21.3631   -1.8583 C   0  0  1  0  0  0  0  0  0  0  0  0
   -3.6871  -23.1831   -5.3034 C   0  0  2  0  0  0  0  0  0  0  0  0
   -8.1964  -13.8102   -3.1288 C   0  0  0  0  0  0  0  0  0  0  0  0
  -10.0992  -13.2984   -1.6094 N   0  0  0  0  0  0  0  0  0  0  0  0
   -7.4301  -14.9866   -3.3082 N   0  0  0  0  0  0  0  0  0  0  0  0
   -8.4869  -25.5503   -7.0902 C   0  0  1  0  0  0  0  0  0  0  0  0
   -3.5951  -17.4266   -1.6806 C   0  0  1  0  0  0  0  0  0  0  0  0
   -5.3937  -26.5633   -6.2971 C   0  0  2  0  0  0  0  0  0  0  0  0
   -5.9709  -14.9045   -3.5066 C   0  0  1  0  0  0  0  0  0  0  0  0
  -12.3475   -6.8897   -1.1883 N   0  0  0  0  0  0  0  0  0  0  0  0
   -9.7120  -13.9261   -2.8974 C   0  0  1  0  0  0  0  0  0  0  0  0
   -4.3396  -14.8972   -5.5819 N   0  0  0  0  0  0  0  0  0  0  0  0
  -11.5259   -7.6885   -0.3831 C   0  0  1  0  0  0  0  0  0  0  0  0
  -13.2533   -5.8394   -0.8635 C   0  0  0  0  0  0  0  0  0  0  0  0
  -11.5283  -11.7129   -2.5803 O   0  0  0  0  0  0  0  0  0  0  0  0
   -8.9910  -24.1971   -7.9700 O   0  0  0  0  0  0  0  0  0  0  0  0
   -3.5467  -25.3754   -4.4529 O   0  0  0  0  0  0  0  0  0  0  0  0
   -2.1106  -21.8068   -3.8386 O   0  0  0  0  0  0  0  0  0  0  0  0
   -5.2038  -19.2363   -1.4835 O   0  0  0  0  0  0  0  0  0  0  0  0
   -7.3449  -26.2168   -5.0279 O   0  0  0  0  0  0  0  0  0  0  0  0
   -5.3622  -15.2754   -1.2139 O   0  0  0  0  0  0  0  0  0  0  0  0
   -2.6008  -22.0665   -0.7489 C   0  0  0  0  0  0  0  0  0  0  0  0
  -13.1516   -9.5161   -0.1066 O   0  0  0  0  0  0  0  0  0  0  0  0
   -7.7337  -12.6664   -3.1550 O   0  0  0  0  0  0  0  0  0  0  0  0
   -3.9876  -15.2411   -6.5158 O   0  0  0  0  0  0  0  0  0  0  0  0
   -2.1810  -23.0945   -5.5868 C   0  0  0  0  0  0  0  0  0  0  0  0
   -4.1839  -17.0476   -7.4094 C   0  0  2  0  0  0  0  0  0  0  0  0
  -12.8696  -11.7962   -0.0021 C   0  0  2  0  0  0  0  0  0  0  0  0
  -13.8494   -5.2432   -1.7544 O   0  0  0  0  0  0  0  0  0  0  0  0
   -5.5230  -13.4622   -3.5474 C   0  0  0  0  0  0  0  0  0  0  0  0
   -4.1010  -13.5389   -4.0443 C   0  0  0  0  0  0  0  0  0  0  0  0
   -9.5327  -26.6773   -5.6570 C   0  0  0  0  0  0  0  0  0  0  0  0
   -4.6851  -27.3291   -5.2024 C   0  0  0  0  0  0  0  0  0  0  0  0
   -2.0970  -17.3213   -1.8607 C   0  0  0  0  0  0  0  0  0  0  0  0
  -10.4316  -13.2390   -4.0517 C   0  0  0  0  0  0  0  0  0  0  0  0
  -11.6938   -6.9375    0.7754 C   0  0  0  0  0  0  0  0  0  0  0  0
   -1.1239  -21.9771   -0.9136 C   0  0  0  0  0  0  0  0  0  0  0  0
   -4.7039  -29.3712   -6.4757 N   0  0  0  0  0  0  0  0  0  0  0  0
   -9.4782   -7.6897    2.1813 N   0  0  0  0  0  0  0  0  0  0  0  0
  -10.4668  -15.2528   -5.3699 N   0  0  0  0  0  0  0  0  0  0  0  0
  -11.4361  -28.3732   -5.3172 N   0  0  0  0  0  0  0  0  0  0  0  0
   -1.8791  -19.1777   -0.2993 N   0  0  0  0  0  0  0  0  0  0  0  0
   -5.0375  -15.3037   -7.8632 O   0  0  0  0  0  0  0  0  0  0  0  0
  -13.1882  -11.1712    1.2300 O   0  0  0  0  0  0  0  0  0  0  0  0
   -1.7975  -23.6851   -6.8918 C   0  0  0  0  0  0  0  0  0  0  0  0
  -13.5758   -5.3355    0.5721 C   0  0  0  0  0  0  0  0  0  0  0  0
   -5.0570  -28.7742   -5.1967 C   0  0  0  0  0  0  0  0  0  0  0  0
   -1.4212  -17.8761   -0.6179 C   0  0  0  0  0  0  0  0  0  0  0  0
  -11.0505  -26.9502   -5.3498 C   0  0  0  0  0  0  0  0  0  0  0  0
  -10.7123   -8.0945    2.4770 C   0  0  0  0  0  0  0  0  0  0  0  0
  -10.0893  -13.8475   -5.3702 C   0  0  0  0  0  0  0  0  0  0  0  0
   -2.5269  -16.1958   -6.3465 C   0  0  0  0  0  0  0  0  0  0  0  0
  -13.2415  -13.1987    0.1101 C   0  0  0  0  0  0  0  0  0  0  0  0
   -0.2926  -21.8309    0.1386 C   0  0  0  0  0  0  0  0  0  0  0  0
   -0.4647  -22.1766   -2.0669 C   0  0  0  0  0  0  0  0  0  0  0  0
  -12.0950   -6.5897    3.7330 C   0  0  3  0  0  0  0  0  0  0  0  0
  -14.3174   -6.5120    1.4923 C   0  0  0  0  0  0  0  0  0  0  0  0
  -12.5440   -8.0138    4.3459 C   0  0  0  0  0  0  0  0  0  0  0  0
  -12.0053   -7.0361    2.4078 C   0  0  0  0  0  0  0  0  0  0  0  0
   -2.5334  -22.9679   -7.9932 C   0  0  0  0  0  0  0  0  0  0  0  0
   -0.3117  -23.5632   -7.0973 C   0  0  0  0  0  0  0  0  0  0  0  0
  -13.3700   -7.9879    1.5595 C   0  0  0  0  0  0  0  0  0  0  0  0
  -10.5491   -6.2657    4.1181 C   0  0  0  0  0  0  0  0  0  0  0  0
  -11.5002   -9.2700    4.3267 C   0  0  0  0  0  0  0  0  0  0  0  0
    1.0701  -22.0040   -0.0030 C   0  0  0  0  0  0  0  0  0  0  0  0
    0.8271  -22.4761   -2.2583 C   0  0  0  0  0  0  0  0  0  0  0  0
    1.6391  -22.2652   -1.2214 C   0  0  0  0  0  0  0  0  0  0  0  0
   -4.6654  -17.8280   -7.8313 H   0  0  0  0  0  0  0  0  0  0  0  0
   -7.5424  -22.2202   -8.0805 H   0  0  0  0  0  0  0  0  0  0  0  0
  -10.8307  -12.0822    0.5668 H   0  0  0  0  0  0  0  0  0  0  0  0
   -5.0022  -22.5777   -3.7044 H   0  0  0  0  0  0  0  0  0  0  0  0
   -2.0374  -19.6984   -1.9679 H   0  0  0  0  0  0  0  0  0  0  0  0
  -10.0242   -9.8931   -0.3770 H   0  0  0  0  0  0  0  0  0  0  0  0
   -5.4131  -24.5194   -6.9764 H   0  0  0  0  0  0  0  0  0  0  0  0
   -7.3262  -27.6878   -7.9371 H   0  0  0  0  0  0  0  0  0  0  0  0
   -4.1872  -17.0201   -3.6796 H   0  0  0  0  0  0  0  0  0  0  0  0
   -4.4217  -21.4525   -1.6764 H   0  0  0  0  0  0  0  0  0  0  0  0
   -4.2153  -22.6580   -6.0883 H   0  0  0  0  0  0  0  0  0  0  0  0
   -9.6671  -13.6783   -0.7667 H   0  0  0  0  0  0  0  0  0  0  0  0
   -7.8349  -15.9209   -3.2722 H   0  0  0  0  0  0  0  0  0  0  0  0
   -9.1258  -27.2032   -7.1389 H   0  0  0  0  0  0  0  0  0  0  0  0
   -3.8563  -16.9991   -0.7001 H   0  0  0  0  0  0  0  0  0  0  0  0
   -5.1440  -26.9916   -7.2649 H   0  0  0  0  0  0  0  0  0  0  0  0
   -5.7320  -15.3631   -4.4556 H   0  0  0  0  0  0  0  0  0  0  0  0
  -12.2328   -7.2238   -2.1139 H   0  0  0  0  0  0  0  0  0  0  0  0
   -9.9928  -14.9753   -2.8837 H   0  0  0  0  0  0  0  0  0  0  0  0
   -3.9499  -15.1972   -4.8242 H   0  0  0  0  0  0  0  0  0  0  0  0
  -10.4811   -7.5556   -0.2841 H   0  0  0  0  0  0  0  0  0  0  0  0
   -2.8710  -21.6406    0.2243 H   0  0  0  0  0  0  0  0  0  0  0  0
   -2.8823  -23.1256   -0.7226 H   0  0  0  0  0  0  0  0  0  0  0  0
   -1.8820  -22.0287   -5.6045 H   0  0  0  0  0  0  0  0  0  0  0  0
   -1.6342  -23.5953   -4.7686 H   0  0  0  0  0  0  0  0  0  0  0  0
   -3.1466  -16.1026   -8.2146 H   0  0  0  0  0  0  0  0  0  0  0  0
  -13.4245  -11.3013   -0.8196 H   0  0  0  0  0  0  0  0  0  0  0  0
   -6.0565  -12.9174   -4.3310 H   0  0  0  0  0  0  0  0  0  0  0  0
   -5.7692  -12.9826   -2.5743 H   0  0  0  0  0  0  0  0  0  0  0  0
   -3.7714  -12.3199   -3.8337 H   0  0  0  0  0  0  0  0  0  0  0  0
   -3.5263  -13.8539   -3.0187 H   0  0  0  0  0  0  0  0  0  0  0  0
   -9.0358  -27.3375   -4.7950 H   0  0  0  0  0  0  0  0  0  0  0  0
   -9.3447  -25.7187   -5.4196 H   0  0  0  0  0  0  0  0  0  0  0  0
   -3.6024  -27.2344   -5.3515 H   0  0  0  0  0  0  0  0  0  0  0  0
   -4.9405  -26.8804   -4.2308 H   0  0  0  0  0  0  0  0  0  0  0  0
   -1.8470  -17.9201   -2.7359 H   0  0  0  0  0  0  0  0  0  0  0  0
   -1.7287  -16.3099   -2.0439 H   0  0  0  0  0  0  0  0  0  0  0  0
  -11.5164  -13.3127   -3.8914 H   0  0  0  0  0  0  0  0  0  0  0  0
  -10.1589  -12.1726   -4.0582 H   0  0  0  0  0  0  0  0  0  0  0  0
  -11.6744   -5.8476    1.0398 H   0  0  0  0  0  0  0  0  0  0  0  0
  -12.7160   -6.6238    1.1441 H   0  0  0  0  0  0  0  0  0  0  0  0
   -4.9743  -30.3519   -6.4785 H   0  0  0  0  0  0  0  0  0  0  0  0
   -5.2025  -28.9072   -7.2289 H   0  0  0  0  0  0  0  0  0  0  0  0
   -9.1578   -8.1807    2.9526 H   0  0  0  0  0  0  0  0  0  0  0  0
   -9.4614   -8.0668    1.2840 H   0  0  0  0  0  0  0  0  0  0  0  0
  -10.2183  -15.6722   -6.2616 H   0  0  0  0  0  0  0  0  0  0  0  0
   -9.9726  -15.7490   -4.6359 H   0  0  0  0  0  0  0  0  0  0  0  0
  -12.4448  -28.4635   -5.1733 H   0  0  0  0  0  0  0  0  0  0  0  0
  -11.2055  -28.8018   -6.2114 H   0  0  0  0  0  0  0  0  0  0  0  0
   -1.4842  -19.6421    0.4806 H   0  0  0  0  0  0  0  0  0  0  0  0
   -2.9007  -19.2361   -0.1974 H   0  0  0  0  0  0  0  0  0  0  0  0
   -4.5694  -14.4446   -7.1691 H   0  0  0  0  0  0  0  0  0  0  0  0
  -12.8329  -10.3921    0.7847 H   0  0  0  0  0  0  0  0  0  0  0  0
   -2.0770  -24.7337   -6.8828 H   0  0  0  0  0  0  0  0  0  0  0  0
  -12.6851   -4.8483    1.0217 H   0  0  0  0  0  0  0  0  0  0  0  0
  -14.1839   -4.5121    0.6599 H   0  0  0  0  0  0  0  0  0  0  0  0
   -4.5344  -29.2805   -4.3899 H   0  0  0  0  0  0  0  0  0  0  0  0
   -6.1273  -28.8633   -5.0225 H   0  0  0  0  0  0  0  0  0  0  0  0
   -0.3550  -17.9256   -0.7714 H   0  0  0  0  0  0  0  0  0  0  0  0
   -1.6569  -17.2584    0.2327 H   0  0  0  0  0  0  0  0  0  0  0  0
  -11.3219  -26.5186   -4.3728 H   0  0  0  0  0  0  0  0  0  0  0  0
  -11.5995  -26.4452   -6.1185 H   0  0  0  0  0  0  0  0  0  0  0  0
  -10.9961   -7.8327    3.4548 H   0  0  0  0  0  0  0  0  0  0  0  0
  -11.5910   -8.8649    2.3560 H   0  0  0  0  0  0  0  0  0  0  0  0
  -10.6121  -13.3192   -6.1633 H   0  0  0  0  0  0  0  0  0  0  0  0
   -9.0193  -13.7469   -5.5373 H   0  0  0  0  0  0  0  0  0  0  0  0
   -2.2921  -17.1169   -6.3754 H   0  0  0  0  0  0  0  0  0  0  0  0
   -1.4346  -15.5798   -6.2412 H   0  0  0  0  0  0  0  0  0  0  0  0
   -2.7614  -15.8434   -5.2943 H   0  0  0  0  0  0  0  0  0  0  0  0
  -14.3058  -13.2829    0.2891 H   0  0  0  0  0  0  0  0  0  0  0  0
  -12.9822  -13.6960   -0.8119 H   0  0  0  0  0  0  0  0  0  0  0  0
  -12.7003  -13.6428    0.9374 H   0  0  0  0  0  0  0  0  0  0  0  0
   -0.7144  -21.5686    1.0832 H   0  0  0  0  0  0  0  0  0  0  0  0
   -0.8671  -22.1271   -2.9725 H   0  0  0  0  0  0  0  0  0  0  0  0
  -12.7417   -5.7965    3.5187 H   0  0  0  0  0  0  0  0  0  0  0  0
  -14.2108   -6.2378    2.5111 H   0  0  0  0  0  0  0  0  0  0  0  0
  -15.1046   -6.9102    0.9781 H   0  0  0  0  0  0  0  0  0  0  0  0
  -12.5984   -7.7241    5.3388 H   0  0  0  0  0  0  0  0  0  0  0  0
  -13.4280   -8.3464    3.8549 H   0  0  0  0  0  0  0  0  0  0  0  0
  -11.2625   -8.1330    1.2833 H   0  0  0  0  0  0  0  0  0  0  0  0
  -10.7424   -6.4321    1.8513 H   0  0  0  0  0  0  0  0  0  0  0  0
   -2.2654  -21.9121   -7.9984 H   0  0  0  0  0  0  0  0  0  0  0  0
   -2.2826  -23.4052   -8.9507 H   0  0  0  0  0  0  0  0  0  0  0  0
   -3.6082  -23.0487   -7.8553 H   0  0  0  0  0  0  0  0  0  0  0  0
    0.2271  -24.0756   -6.3033 H   0  0  0  0  0  0  0  0  0  0  0  0
   -0.0373  -24.0060   -8.0511 H   0  0  0  0  0  0  0  0  0  0  0  0
   -0.0158  -22.5148   -7.0997 H   0  0  0  0  0  0  0  0  0  0  0  0
  -13.5603   -8.7772    2.1568 H   0  0  0  0  0  0  0  0  0  0  0  0
  -13.2249   -8.0019    0.4699 H   0  0  0  0  0  0  0  0  0  0  0  0
  -10.1213   -5.5583    3.4405 H   0  0  0  0  0  0  0  0  0  0  0  0
  -10.6585   -6.0857    5.1222 H   0  0  0  0  0  0  0  0  0  0  0  0
   -9.8131   -7.1453    4.1194 H   0  0  0  0  0  0  0  0  0  0  0  0
  -10.5053   -8.9352    4.6502 H   0  0  0  0  0  0  0  0  0  0  0  0
  -11.8797  -10.0815    4.8196 H   0  0  0  0  0  0  0  0  0  0  0  0
  -11.2855   -9.7672    3.3687 H   0  0  0  0  0  0  0  0  0  0  0  0
    1.6906  -21.9631    0.8634 H   0  0  0  0  0  0  0  0  0  0  0  0
    1.1822  -22.8870   -3.1784 H   0  0  0  0  0  0  0  0  0  0  0  0
    2.6961  -22.3095   -1.3741 H   0  0  0  0  0  0  0  0  0  0  0  0
  1 87  1  0  0  0  0
  2  1  1  0  0  0  0
  2 86  1  1  0  0  0
  2 45  1  0  0  0  0
  3  4  1  0  0  0  0
  3  7  1  0  0  0  0
  3 88  1  1  0  0  0
  4 22  1  0  0  0  0
  5 20  1  0  0  0  0
  5 89  1  0  0  0  0
  6 14  1  0  0  0  0
  6 19  1  0  0  0  0
  6 90  1  0  0  0  0
  7 91  1  0  0  0  0
  8 26  1  0  0  0  0
  8 92  1  0  0  0  0
  9  1  1  0  0  0  0
 10 24  1  0  0  0  0
 10 93  1  0  0  0  0
 11 16  1  0  0  0  0
 11 94  1  0  0  0  0
 12  5  1  0  0  0  0
 13  8  1  0  0  0  0
 14 25  1  0  0  0  0
 15 10  1  0  0  0  0
 16 27  1  0  0  0  0
 17  7  1  0  0  0  0
 18  2  1  0  0  0  0
 19 12  1  0  0  0  0
 19 40  1  0  0  0  0
 19 95  1  1  0  0  0
 20 13  1  0  0  0  0
 20 44  1  0  0  0  0
 20 96  1  6  0  0  0
 21 23  1  0  0  0  0
 22 97  1  0  0  0  0
 23 98  1  0  0  0  0
 24  9  1  0  0  0  0
 24 50  1  0  0  0  0
 24 99  1  6  0  0  0
 25 11  1  0  0  0  0
 25100  1  1  0  0  0
 25 52  1  0  0  0  0
 26 15  1  0  0  0  0
 26 51  1  0  0  0  0
 26101  1  6  0  0  0
 27 23  1  0  0  0  0
 27 48  1  0  0  0  0
 27102  1  6  0  0  0
 28103  1  0  0  0  0
 29 22  1  0  0  0  0
 29 21  1  0  0  0  0
 29 53  1  0  0  0  0
 29104  1  1  0  0  0
 30 18  1  0  0  0  0
 30105  1  0  0  0  0
 31 28  1  0  0  0  0
 31 17  1  0  0  0  0
 31 54  1  0  0  0  0
 31106  1  6  0  0  0
 32 28  1  0  0  0  0
 33  4  2  0  0  0  0
 34  9  2  0  0  0  0
 35 13  2  0  0  0  0
 36 12  2  0  0  0  0
 37 14  2  0  0  0  0
 38 15  2  0  0  0  0
 39 16  2  0  0  0  0
 40107  1  0  0  0  0
 40108  1  0  0  0  0
 41 17  2  0  0  0  0
 42 21  2  0  0  0  0
 43 18  2  0  0  0  0
 44109  1  0  0  0  0
 44110  1  0  0  0  0
 45111  1  1  0  0  0
 45 70  1  0  0  0  0
 45 61  1  0  0  0  0
 46112  1  6  0  0  0
 46 62  1  0  0  0  0
 46  3  1  0  0  0  0
 47 32  2  0  0  0  0
 48 49  1  0  0  0  0
 48113  1  0  0  0  0
 48114  1  0  0  0  0
 49 30  1  0  0  0  0
 49115  1  0  0  0  0
 49116  1  0  0  0  0
 50117  1  0  0  0  0
 50118  1  0  0  0  0
 51119  1  0  0  0  0
 51120  1  0  0  0  0
 52121  1  0  0  0  0
 52122  1  0  0  0  0
 53123  1  0  0  0  0
 53124  1  0  0  0  0
 54125  1  0  0  0  0
 54126  1  0  0  0  0
 55 40  1  0  0  0  0
 56 65  1  0  0  0  0
 56127  1  0  0  0  0
 56128  1  0  0  0  0
 57 68  1  0  0  0  0
 57129  1  0  0  0  0
 57130  1  0  0  0  0
 58 69  1  0  0  0  0
 58131  1  0  0  0  0
 58132  1  0  0  0  0
 59 67  1  0  0  0  0
 59133  1  0  0  0  0
 59134  1  0  0  0  0
 60 66  1  0  0  0  0
 60135  1  0  0  0  0
 60136  1  0  0  0  0
 61137  1  0  0  0  0
 62138  1  0  0  0  0
 63 44  1  0  0  0  0
 63139  1  0  0  0  0
 64 32  1  0  0  0  0
 64140  1  0  0  0  0
 64141  1  0  0  0  0
 65 51  1  0  0  0  0
 65142  1  0  0  0  0
 65143  1  0  0  0  0
 66 52  1  0  0  0  0
 66144  1  0  0  0  0
 66145  1  0  0  0  0
 67 50  1  0  0  0  0
 67146  1  0  0  0  0
 67147  1  0  0  0  0
 68 54  1  0  0  0  0
 68148  1  0  0  0  0
 68149  1  0  0  0  0
 69 53  1  0  0  0  0
 69150  1  0  0  0  0
 69151  1  0  0  0  0
 70152  1  0  0  0  0
 70153  1  0  0  0  0
 70154  1  0  0  0  0
 71 46  1  0  0  0  0
 71155  1  0  0  0  0
 71156  1  0  0  0  0
 71157  1  0  0  0  0
 72 55  2  0  0  0  0
 72158  1  0  0  0  0
 73 55  1  0  0  0  0
 73159  1  0  0  0  0
 74 77  1  0  0  0  0
 74160  1  0  0  0  0
 75 64  1  0  0  0  0
 75161  1  0  0  0  0
 75162  1  0  0  0  0
 76 74  1  0  0  0  0
 76163  1  0  0  0  0
 76164  1  0  0  0  0
 77 80  1  0  0  0  0
 77165  1  0  0  0  0
 77166  1  0  0  0  0
 78 63  1  0  0  0  0
 78167  1  0  0  0  0
 78168  1  0  0  0  0
 78169  1  0  0  0  0
 79 63  1  0  0  0  0
 79170  1  0  0  0  0
 79171  1  0  0  0  0
 79172  1  0  0  0  0
 80 75  1  0  0  0  0
 80173  1  0  0  0  0
 80174  1  0  0  0  0
 81 74  1  0  0  0  0
 81175  1  0  0  0  0
 81176  1  0  0  0  0
 81177  1  0  0  0  0
 82 76  1  0  0  0  0
 82178  1  0  0  0  0
 82179  1  0  0  0  0
 82180  1  0  0  0  0
 83 72  1  0  0  0  0
 83181  1  0  0  0  0
 84 73  2  0  0  0  0
 84182  1  0  0  0  0
 85 83  2  0  0  0  0
 85 84  1  0  0  0  0
 85183  1  0  0  0  0
M  END
>  <DRUGBANK_ID>
DB00781

>  <SECONDARY_ACCESSION_NUMBERS>
APRD01190

>  <COMMON_NAME>
Polymyxin B

>  <CAS_NUMBER>
1404-26-8

>  <UNII>
J2VZ07J96K

>  <SYNONYMS>
Polimixina B; Polymyxin B; Polymyxine B; Polymyxinum B

$$$$
