
 OpenBabel10282417193D

 43 45  0  0  1  0  0  0  0  0999 V2000
    2.7538   -1.3569    9.2577 C   0  0  0  0  0  0  0  0  0  0  0  0
    4.4618    2.1939    1.8694 C   0  0  0  0  0  0  0  0  0  0  0  0
    3.2408    2.0112    2.5279 C   0  0  0  0  0  0  0  0  0  0  0  0
    4.8008   -0.1982    1.7955 C   0  0  0  0  0  0  0  0  0  0  0  0
   -2.6912    0.3047    6.2951 C   0  0  0  0  0  0  0  0  0  0  0  0
   -1.5797    2.5907    5.5157 C   0  0  0  0  0  0  0  0  0  0  0  0
   -1.0230   -0.4401    7.9694 C   0  0  0  0  0  0  0  0  0  0  0  0
    5.2084    1.0871    1.4602 C   0  0  0  0  0  0  0  0  0  0  0  0
   -2.8473    1.8022    5.9061 C   0  0  2  0  0  0  0  0  0  0  0  0
    3.6832   -0.3540    2.6056 C   0  0  0  0  0  0  0  0  0  0  0  0
    2.9066    0.7453    3.0149 C   0  0  0  0  0  0  0  0  0  0  0  0
    1.0301   -0.2143    6.1822 C   0  0  0  0  0  0  0  0  0  0  0  0
    3.3822   -0.1225    5.7897 C   0  0  0  0  0  0  0  0  0  0  0  0
    2.1504    0.0836    5.2812 C   0  0  0  0  0  0  0  0  0  0  0  0
    1.2040   -0.5639    7.4745 C   0  0  0  0  0  0  0  0  0  0  0  0
   -0.3750   -0.1669    5.7127 C   0  0  0  0  0  0  0  0  0  0  0  0
    3.6188   -0.6277    7.1489 C   0  0  0  0  0  0  0  0  0  0  0  0
    3.4038   -1.5808    3.0757 F   0  0  0  0  0  0  0  0  0  0  0  0
    4.5137    0.1251    5.0976 F   0  0  0  0  0  0  0  0  0  0  0  0
    6.8963    1.3555    0.2812 I   0  0  0  0  0  0  0  0  0  0  0  0
    0.1703   -0.7254    8.3689 N   0  0  0  0  0  0  0  0  0  0  0  0
    1.9146    0.6233    4.0095 N   0  0  0  0  0  0  0  0  0  0  0  0
    2.4965   -0.7769    7.9530 N   0  0  0  0  0  0  0  0  0  0  0  0
   -1.3401   -0.0809    6.6925 N   0  0  0  0  0  0  0  0  0  0  0  0
   -1.1311    3.3966    6.6034 O   0  0  0  0  0  0  0  0  0  0  0  0
   -3.4781    2.4923    7.0024 O   0  0  0  0  0  0  0  0  0  0  0  0
   -0.6441   -0.1084    4.5109 O   0  0  0  0  0  0  0  0  0  0  0  0
    4.7719   -0.8841    7.5145 O   0  0  0  0  0  0  0  0  0  0  0  0
   -3.5603    1.8453    5.0730 H   0  0  0  0  0  0  0  0  0  0  0  0
    1.9072   -1.2888    9.9408 H   0  0  0  0  0  0  0  0  0  0  0  0
    3.6123   -0.8522    9.7165 H   0  0  0  0  0  0  0  0  0  0  0  0
    3.0288   -2.4080    9.1097 H   0  0  0  0  0  0  0  0  0  0  0  0
    4.8315    3.2045    1.7090 H   0  0  0  0  0  0  0  0  0  0  0  0
    2.6167    2.8735    2.7443 H   0  0  0  0  0  0  0  0  0  0  0  0
    5.3566   -1.0786    1.4936 H   0  0  0  0  0  0  0  0  0  0  0  0
   -2.9692   -0.3145    5.4329 H   0  0  0  0  0  0  0  0  0  0  0  0
   -3.3936    0.0598    7.1032 H   0  0  0  0  0  0  0  0  0  0  0  0
   -0.7248    1.9954    5.2402 H   0  0  0  0  0  0  0  0  0  0  0  0
   -1.7515    3.2112    4.6307 H   0  0  0  0  0  0  0  0  0  0  0  0
   -1.8762   -0.5000    8.6662 H   0  0  0  0  0  0  0  0  0  0  0  0
    0.9444    0.7309    3.7104 H   0  0  0  0  0  0  0  0  0  0  0  0
   -1.7790    4.1207    6.6808 H   0  0  0  0  0  0  0  0  0  0  0  0
   -2.8028    2.5354    7.7080 H   0  0  0  0  0  0  0  0  0  0  0  0
  1 30  1  0  0  0  0
  1 31  1  0  0  0  0
  1 32  1  0  0  0  0
  2 33  1  0  0  0  0
  3  2  2  0  0  0  0
  3 34  1  0  0  0  0
  4 35  1  0  0  0  0
  5 36  1  0  0  0  0
  5 37  1  0  0  0  0
  6 38  1  0  0  0  0
  6 39  1  0  0  0  0
  7 40  1  0  0  0  0
  8  2  1  0  0  0  0
  8  4  2  0  0  0  0
  9 26  1  0  0  0  0
  9 29  1  6  0  0  0
  9  6  1  0  0  0  0
  9  5  1  0  0  0  0
 10  4  1  0  0  0  0
 11  3  1  0  0  0  0
 11 10  2  0  0  0  0
 14 12  1  0  0  0  0
 14 13  2  0  0  0  0
 15 12  2  0  0  0  0
 16 12  1  0  0  0  0
 17 13  1  0  0  0  0
 18 10  1  0  0  0  0
 19 13  1  0  0  0  0
 20  8  1  0  0  0  0
 21  7  2  0  0  0  0
 21 15  1  0  0  0  0
 22 11  1  0  0  0  0
 22 14  1  0  0  0  0
 22 41  1  0  0  0  0
 23  1  1  0  0  0  0
 23 15  1  0  0  0  0
 23 17  1  0  0  0  0
 24  5  1  0  0  0  0
 24  7  1  0  0  0  0
 24 16  1  0  0  0  0
 25  6  1  0  0  0  0
 25 42  1  0  0  0  0
 26 43  1  0  0  0  0
 27 16  2  0  0  0  0
 28 17  2  0  0  0  0
M  END
>  <DRUGBANK_ID>
DB12241

>  <COMMON_NAME>
TAK-733

>  <CAS_NUMBER>
1035555-63-5

>  <UNII>
5J61HSP0QJ

>  <SYNONYMS>
(R)-3-(2,3-DIHYDROXYPROPYL)-6-FLUORO-5-(2-FLUORO-4-IODOPHENYLAMINO)-8-METHYLPYRIDO(2,3-D)PYRIMIDINE-4,7(3H,8H)-DIONE; 3-[(2R)-2,3-dihydroxypropyl]-6-fluoro-5-[(2-fluoro-4-iodophenyl)amino]-8-methylpyrido[2,3-d]pyrimidine-4,7(3H,8H)-dione

$$$$
