DLG
 OpenBabel10282417133D

 41 41  0  0  0  0  0  0  0  0999 V2000
    0.7373    1.1858   -0.5291 C   0  0  2  0  0  0  0  0  0  0  0  0
    1.5077   -0.0913   -0.1139 C   0  0  1  0  0  0  0  0  0  0  0  0
    0.8036   -1.3912   -0.4864 C   0  0  0  0  0  0  0  0  0  0  0  0
   -0.6963   -1.4541   -0.2457 C   0  0  2  0  0  0  0  0  0  0  0  0
   -1.4175   -0.1451   -0.6487 C   0  0  1  0  0  0  0  0  0  0  0  0
   -2.8083   -0.0187    0.0534 C   0  0  0  0  0  0  0  0  0  0  0  0
    1.1848    2.4138    0.1196 O   0  0  0  0  0  0  0  0  0  0  0  0
    2.8396   -0.1329   -0.6605 O   0  0  0  0  0  0  0  0  0  0  0  0
   -1.0568   -2.0323    1.0171 O   0  0  0  0  0  0  0  0  0  0  0  0
   -0.6916    1.1071   -0.5845 O   0  0  0  0  0  0  0  0  0  0  0  0
   -3.4889    1.1829   -0.3132 O   0  0  0  0  0  0  0  0  0  0  0  0
    1.3279    2.5436    1.5407 C   0  0  0  0  0  0  0  0  0  0  0  0
    0.0168    2.6871    2.3190 C   0  0  0  0  0  0  0  0  0  0  0  0
   -0.7754    1.4172    2.2989 C   0  0  0  0  0  0  0  0  0  0  0  0
   -0.0040    0.2097    2.7798 C   0  0  0  0  0  0  0  0  0  0  0  0
   -0.1432   -0.1474    4.2136 C   0  0  0  0  0  0  0  0  0  0  0  0
   -1.6037   -0.3159    4.5456 C   0  0  0  0  0  0  0  0  0  0  0  0
    1.0302    1.3810   -1.5665 H   0  0  0  0  0  0  0  0  0  0  0  0
    1.7237   -0.0974    0.9411 H   0  0  0  0  0  0  0  0  0  0  0  0
   -1.0990   -2.2180   -0.9125 H   0  0  0  0  0  0  0  0  0  0  0  0
   -1.6301   -0.2416   -1.7158 H   0  0  0  0  0  0  0  0  0  0  0  0
    0.9444   -1.5339   -1.5620 H   0  0  0  0  0  0  0  0  0  0  0  0
    1.3147   -2.2235    0.0111 H   0  0  0  0  0  0  0  0  0  0  0  0
   -3.4474   -0.8590   -0.2335 H   0  0  0  0  0  0  0  0  0  0  0  0
   -2.7562   -0.0356    1.1483 H   0  0  0  0  0  0  0  0  0  0  0  0
    2.7926    0.0646   -1.6162 H   0  0  0  0  0  0  0  0  0  0  0  0
   -0.2821   -2.3821    1.4706 H   0  0  0  0  0  0  0  0  0  0  0  0
   -2.9269    1.9202   -0.0097 H   0  0  0  0  0  0  0  0  0  0  0  0
    1.9921    1.7753    1.9435 H   0  0  0  0  0  0  0  0  0  0  0  0
    1.8807    3.4729    1.7292 H   0  0  0  0  0  0  0  0  0  0  0  0
    0.1827    2.9514    3.3661 H   0  0  0  0  0  0  0  0  0  0  0  0
   -0.5967    3.4715    1.8587 H   0  0  0  0  0  0  0  0  0  0  0  0
   -1.7840    1.5358    2.6885 H   0  0  0  0  0  0  0  0  0  0  0  0
   -1.0041    1.2497    1.2882 H   0  0  0  0  0  0  0  0  0  0  0  0
   -0.3915   -0.6179    2.2191 H   0  0  0  0  0  0  0  0  0  0  0  0
    1.0539    0.2198    2.5811 H   0  0  0  0  0  0  0  0  0  0  0  0
    0.3950   -1.0910    4.3723 H   0  0  0  0  0  0  0  0  0  0  0  0
    0.3501    0.6301    4.8042 H   0  0  0  0  0  0  0  0  0  0  0  0
   -2.0234   -1.1550    3.9760 H   0  0  0  0  0  0  0  0  0  0  0  0
   -1.7241   -0.4820    5.6091 H   0  0  0  0  0  0  0  0  0  0  0  0
   -2.1882    0.5695    4.2887 H   0  0  0  0  0  0  0  0  0  0  0  0
  1  2  1  0  0  0  0
  1  7  1  0  0  0  0
  1 10  1  0  0  0  0
  1 18  1  6  0  0  0
  2  3  1  0  0  0  0
  2  8  1  0  0  0  0
  2 19  1  1  0  0  0
  3  4  1  0  0  0  0
  3 22  1  0  0  0  0
  3 23  1  0  0  0  0
  4  5  1  0  0  0  0
  4 20  1  6  0  0  0
  4  9  1  0  0  0  0
  5 10  1  0  0  0  0
  5 21  1  6  0  0  0
  5  6  1  0  0  0  0
  6 11  1  0  0  0  0
  6 24  1  0  0  0  0
  6 25  1  0  0  0  0
  7 12  1  0  0  0  0
  8 26  1  0  0  0  0
  9 27  1  0  0  0  0
 11 28  1  0  0  0  0
 12 13  1  0  0  0  0
 12 29  1  0  0  0  0
 12 30  1  0  0  0  0
 13 14  1  0  0  0  0
 13 31  1  0  0  0  0
 13 32  1  0  0  0  0
 14 15  1  0  0  0  0
 14 33  1  0  0  0  0
 14 34  1  0  0  0  0
 15 16  1  0  0  0  0
 15 35  1  0  0  0  0
 15 36  1  0  0  0  0
 16 17  1  0  0  0  0
 16 37  1  0  0  0  0
 16 38  1  0  0  0  0
 17 39  1  0  0  0  0
 17 40  1  0  0  0  0
 17 41  1  0  0  0  0
M  END
>  <DRUGBANK_ID>
DB03772

>  <SECONDARY_ACCESSION_NUMBERS>
EXPT01217

>  <COMMON_NAME>
2-Hexyloxy-6-Hydroxymethyl-Tetrahydro-Pyran-3,5-Diol

$$$$
