
 OpenBabel10282417193D

 66 67  0  0  0  0  0  0  0  0999 V2000
    2.4526   -0.6935   -0.0269 C   0  0  0  0  0  0  0  0  0  0  0  0
    2.4324    0.6946    0.0400 C   0  0  0  0  0  0  0  0  0  0  0  0
    1.2099    1.3705    0.0684 C   0  0  0  0  0  0  0  0  0  0  0  0
    0.0148    0.6509    0.0285 C   0  0  0  0  0  0  0  0  0  0  0  0
    0.0420   -0.7510    0.0151 C   0  0  0  0  0  0  0  0  0  0  0  0
    1.2694   -1.4213   -0.0432 C   0  0  0  0  0  0  0  0  0  0  0  0
   -1.1454    1.3848   -0.0055 O   0  0  0  0  0  0  0  0  0  0  0  0
   -2.3494    0.6489   -0.3325 C   0  0  3  0  0  0  0  0  0  0  0  0
   -2.3872   -0.6732    0.4500 C   0  0  0  0  0  0  0  0  0  0  0  0
   -1.2256   -1.5509    0.0119 C   0  0  0  0  0  0  0  0  0  0  0  0
   -2.3983    0.4145   -1.8693 C   0  0  0  0  0  0  0  0  0  0  0  0
   -3.5257   -0.5105   -2.3531 C   0  0  0  0  0  0  0  0  0  0  0  0
   -4.8957    0.0805   -2.2073 C   0  0  0  0  0  0  0  0  0  0  0  0
   -5.6778    0.4708   -3.2060 C   0  0  0  0  0  0  0  0  0  0  0  0
   -6.9105    1.3043   -2.9169 C   0  0  0  0  0  0  0  0  0  0  0  0
   -6.8674    2.7073   -3.5449 C   0  0  0  0  0  0  0  0  0  0  0  0
   -6.8105    2.6535   -5.0450 C   0  0  0  0  0  0  0  0  0  0  0  0
   -7.8181    2.9671   -5.8667 C   0  0  0  0  0  0  0  0  0  0  0  0
   -7.7623    2.5945   -7.3348 C   0  0  0  0  0  0  0  0  0  0  0  0
   -8.8887    1.6480   -7.7993 C   0  0  0  0  0  0  0  0  0  0  0  0
  -10.2587    2.2507   -7.6512 C   0  0  0  0  0  0  0  0  0  0  0  0
  -11.0518    2.6869   -8.6404 C   0  0  0  0  0  0  0  0  0  0  0  0
  -12.3048    3.4595   -8.3391 C   0  0  0  0  0  0  0  0  0  0  0  0
   -5.3277    0.0615   -4.6039 C   0  0  0  0  0  0  0  0  0  0  0  0
   -9.0000    3.7042   -5.3170 C   0  0  0  0  0  0  0  0  0  0  0  0
  -10.7188    2.4023  -10.0694 C   0  0  0  0  0  0  0  0  0  0  0  0
   -3.5215    1.5299    0.1320 C   0  0  0  0  0  0  0  0  0  0  0  0
    3.6637   -1.3179   -0.0707 O   0  0  0  0  0  0  0  0  0  0  0  0
    3.3662    1.2486    0.0595 H   0  0  0  0  0  0  0  0  0  0  0  0
    1.1942    2.4564    0.1084 H   0  0  0  0  0  0  0  0  0  0  0  0
    1.2800   -2.5051   -0.1016 H   0  0  0  0  0  0  0  0  0  0  0  0
   -2.3020   -0.4663    1.5240 H   0  0  0  0  0  0  0  0  0  0  0  0
   -3.3336   -1.2060    0.3069 H   0  0  0  0  0  0  0  0  0  0  0  0
   -1.1454   -2.4131    0.6798 H   0  0  0  0  0  0  0  0  0  0  0  0
   -1.3852   -1.9423   -1.0003 H   0  0  0  0  0  0  0  0  0  0  0  0
   -2.4119    1.3771   -2.4000 H   0  0  0  0  0  0  0  0  0  0  0  0
   -1.4535   -0.0351   -2.2069 H   0  0  0  0  0  0  0  0  0  0  0  0
   -3.3010   -0.7461   -3.3972 H   0  0  0  0  0  0  0  0  0  0  0  0
   -3.5154   -1.4732   -1.8397 H   0  0  0  0  0  0  0  0  0  0  0  0
   -5.3070    0.2059   -1.2145 H   0  0  0  0  0  0  0  0  0  0  0  0
   -7.8092    0.7525   -3.2141 H   0  0  0  0  0  0  0  0  0  0  0  0
   -7.0126    1.4661   -1.8314 H   0  0  0  0  0  0  0  0  0  0  0  0
   -7.7589    3.2373   -3.1925 H   0  0  0  0  0  0  0  0  0  0  0  0
   -6.0099    3.2806   -3.1800 H   0  0  0  0  0  0  0  0  0  0  0  0
   -5.8981    2.2632   -5.4829 H   0  0  0  0  0  0  0  0  0  0  0  0
   -7.7441    3.5090   -7.9380 H   0  0  0  0  0  0  0  0  0  0  0  0
   -6.8155    2.0757   -7.5541 H   0  0  0  0  0  0  0  0  0  0  0  0
   -8.6854    1.3850   -8.8435 H   0  0  0  0  0  0  0  0  0  0  0  0
   -8.8588    0.7073   -7.2386 H   0  0  0  0  0  0  0  0  0  0  0  0
  -10.6139    2.3743   -6.6329 H   0  0  0  0  0  0  0  0  0  0  0  0
  -12.2965    4.4219   -8.8626 H   0  0  0  0  0  0  0  0  0  0  0  0
  -13.1867    2.8926   -8.6454 H   0  0  0  0  0  0  0  0  0  0  0  0
  -12.4028    3.6841   -7.2692 H   0  0  0  0  0  0  0  0  0  0  0  0
   -4.4482    0.6189   -4.9474 H   0  0  0  0  0  0  0  0  0  0  0  0
   -5.1032   -1.0090   -4.6276 H   0  0  0  0  0  0  0  0  0  0  0  0
   -6.1542    0.1890   -5.3008 H   0  0  0  0  0  0  0  0  0  0  0  0
   -9.6081    3.0335   -4.6984 H   0  0  0  0  0  0  0  0  0  0  0  0
   -8.6655    4.5488   -4.7081 H   0  0  0  0  0  0  0  0  0  0  0  0
   -9.6125    4.1522   -6.0983 H   0  0  0  0  0  0  0  0  0  0  0  0
   -9.7793    2.8842  -10.3574 H   0  0  0  0  0  0  0  0  0  0  0  0
  -10.6145    1.3179  -10.1983 H   0  0  0  0  0  0  0  0  0  0  0  0
  -11.5072    2.7370  -10.7457 H   0  0  0  0  0  0  0  0  0  0  0  0
   -3.3908    1.9078    1.1479 H   0  0  0  0  0  0  0  0  0  0  0  0
   -3.6638    2.3909   -0.5324 H   0  0  0  0  0  0  0  0  0  0  0  0
   -4.4509    0.9695    0.1824 H   0  0  0  0  0  0  0  0  0  0  0  0
    3.5171   -2.2777   -0.1033 H   0  0  0  0  0  0  0  0  0  0  0  0
  1  2  2  0  0  0  0
  1  6  1  0  0  0  0
  1 28  1  0  0  0  0
  2  3  1  0  0  0  0
  2 29  1  0  0  0  0
  3  4  2  0  0  0  0
  3 30  1  0  0  0  0
  4  5  1  0  0  0  0
  4  7  1  0  0  0  0
  5  6  2  0  0  0  0
  5 10  1  0  0  0  0
  6 31  1  0  0  0  0
  7  8  1  0  0  0  0
  8  9  1  0  0  0  0
  8 11  1  0  0  0  0
  8 27  1  0  0  0  0
  9 10  1  0  0  0  0
  9 32  1  0  0  0  0
  9 33  1  0  0  0  0
 10 34  1  0  0  0  0
 10 35  1  0  0  0  0
 11 12  1  0  0  0  0
 11 36  1  0  0  0  0
 11 37  1  0  0  0  0
 12 13  1  0  0  0  0
 12 38  1  0  0  0  0
 12 39  1  0  0  0  0
 13 14  2  0  0  0  0
 13 40  1  0  0  0  0
 14 15  1  0  0  0  0
 14 24  1  0  0  0  0
 15 16  1  0  0  0  0
 15 41  1  0  0  0  0
 15 42  1  0  0  0  0
 16 17  1  0  0  0  0
 16 43  1  0  0  0  0
 16 44  1  0  0  0  0
 17 18  2  0  0  0  0
 17 45  1  0  0  0  0
 18 19  1  0  0  0  0
 18 25  1  0  0  0  0
 19 20  1  0  0  0  0
 19 46  1  0  0  0  0
 19 47  1  0  0  0  0
 20 21  1  0  0  0  0
 20 48  1  0  0  0  0
 20 49  1  0  0  0  0
 21 22  2  0  0  0  0
 21 50  1  0  0  0  0
 22 23  1  0  0  0  0
 22 26  1  0  0  0  0
 23 51  1  0  0  0  0
 23 52  1  0  0  0  0
 23 53  1  0  0  0  0
 24 54  1  0  0  0  0
 24 55  1  0  0  0  0
 24 56  1  0  0  0  0
 25 57  1  0  0  0  0
 25 58  1  0  0  0  0
 25 59  1  0  0  0  0
 26 60  1  0  0  0  0
 26 61  1  0  0  0  0
 26 62  1  0  0  0  0
 27 63  1  0  0  0  0
 27 64  1  0  0  0  0
 27 65  1  0  0  0  0
 28 66  1  0  0  0  0
M  END
>  <DRUGBANK_ID>
DB12647

>  <COMMON_NAME>
Tocotrienol

>  <CAS_NUMBER>
6829-55-6

>  <UNII>
0867I0N41V

$$$$
