
 OpenBabel10282417213D

 64 67  0  0  0  0  0  0  0  0999 V2000
    2.2170    0.1039   -0.1695 F   0  0  0  0  0  0  0  0  0  0  0  0
   -5.6674   -2.3916    4.8913 F   0  0  0  0  0  0  0  0  0  0  0  0
   -3.4403    0.0460   -4.9498 O   0  0  0  0  0  0  0  0  0  0  0  0
   -6.2308    0.0410   -4.2965 O   0  0  0  0  0  0  0  0  0  0  0  0
   -7.4722   -2.2205   -3.6079 O   0  0  0  0  0  0  0  0  0  0  0  0
   -3.7450   -0.6600   -0.7936 N   0  0  0  0  0  0  0  0  0  0  0  0
   -1.5065   -1.6571   -2.5547 N   0  0  0  0  0  0  0  0  0  0  0  0
   -3.3523   -0.0027    0.4529 C   0  0  0  0  0  0  0  0  0  0  0  0
   -4.0210   -1.1331   -4.5658 C   0  0  0  0  0  0  0  0  0  0  0  0
   -3.3188   -2.2949   -4.2023 C   0  0  0  0  0  0  0  0  0  0  0  0
   -1.8161    0.1369    0.7542 C   0  0  0  0  0  0  0  0  0  0  0  0
   -4.1227   -0.5976    1.5852 C   0  0  0  0  0  0  0  0  0  0  0  0
   -5.4423   -1.1024   -4.3219 C   0  0  0  0  0  0  0  0  0  0  0  0
   -6.1328   -2.2948   -3.9454 C   0  0  0  0  0  0  0  0  0  0  0  0
   -1.8569   -2.3001   -3.8288 C   0  0  0  0  0  0  0  0  0  0  0  0
   -3.4745   -2.1040   -0.9869 C   0  0  0  0  0  0  0  0  0  0  0  0
   -3.2707    0.1027   -1.9219 C   0  0  0  0  0  0  0  0  0  0  0  0
   -4.0352   -3.4847   -3.9462 C   0  0  0  0  0  0  0  0  0  0  0  0
   -2.0609   -2.4349   -1.4557 C   0  0  0  0  0  0  0  0  0  0  0  0
   -1.8115   -0.2363   -2.2521 C   0  0  0  0  0  0  0  0  0  0  0  0
   -5.4230   -3.4921   -3.8625 C   0  0  0  0  0  0  0  0  0  0  0  0
   -1.1420    1.3473    0.4742 C   0  0  0  0  0  0  0  0  0  0  0  0
   -3.7503   -0.1527    2.8533 C   0  0  0  0  0  0  0  0  0  0  0  0
   -1.0290   -0.9994    1.0365 C   0  0  0  0  0  0  0  0  0  0  0  0
   -5.1326   -1.5804    1.4492 C   0  0  0  0  0  0  0  0  0  0  0  0
    0.2477    1.3457    0.2575 C   0  0  0  0  0  0  0  0  0  0  0  0
   -4.2646   -0.7595    3.9498 C   0  0  0  0  0  0  0  0  0  0  0  0
    0.3117   -1.0345    0.6134 C   0  0  0  0  0  0  0  0  0  0  0  0
   -5.6105   -2.2293    2.5498 C   0  0  0  0  0  0  0  0  0  0  0  0
    0.9452    0.1411    0.2518 C   0  0  0  0  0  0  0  0  0  0  0  0
   -5.1814   -1.8076    3.8120 C   0  0  0  0  0  0  0  0  0  0  0  0
   -2.0834    0.4512   -4.9237 C   0  0  0  0  0  0  0  0  0  0  0  0
   -5.6471    1.3384   -4.3991 C   0  0  0  0  0  0  0  0  0  0  0  0
   -8.1330   -3.4579   -3.3158 C   0  0  0  0  0  0  0  0  0  0  0  0
   -3.7428    1.0251    0.3676 H   0  0  0  0  0  0  0  0  0  0  0  0
   -1.2456   -1.9686   -4.6686 H   0  0  0  0  0  0  0  0  0  0  0  0
   -1.5172   -3.3408   -3.7275 H   0  0  0  0  0  0  0  0  0  0  0  0
   -3.6405   -2.7094   -0.0946 H   0  0  0  0  0  0  0  0  0  0  0  0
   -4.2265   -2.4897   -1.6763 H   0  0  0  0  0  0  0  0  0  0  0  0
   -3.9489   -0.1997   -2.6764 H   0  0  0  0  0  0  0  0  0  0  0  0
   -3.4829    1.1784   -1.8704 H   0  0  0  0  0  0  0  0  0  0  0  0
   -3.5111   -4.3984   -3.6652 H   0  0  0  0  0  0  0  0  0  0  0  0
   -1.4517   -2.1074   -0.6644 H   0  0  0  0  0  0  0  0  0  0  0  0
   -1.8017   -3.4958   -1.4336 H   0  0  0  0  0  0  0  0  0  0  0  0
   -1.2407   -0.0554   -1.3717 H   0  0  0  0  0  0  0  0  0  0  0  0
   -1.2806    0.5645   -2.7717 H   0  0  0  0  0  0  0  0  0  0  0  0
   -5.9009   -4.4343   -3.6181 H   0  0  0  0  0  0  0  0  0  0  0  0
   -1.7035    2.2526    0.2530 H   0  0  0  0  0  0  0  0  0  0  0  0
   -3.0062    0.6428    2.9365 H   0  0  0  0  0  0  0  0  0  0  0  0
   -1.5178   -1.9497    1.2622 H   0  0  0  0  0  0  0  0  0  0  0  0
   -5.5039   -1.8961    0.4659 H   0  0  0  0  0  0  0  0  0  0  0  0
    0.7650    2.2499   -0.0438 H   0  0  0  0  0  0  0  0  0  0  0  0
   -3.9349   -0.4327    4.9302 H   0  0  0  0  0  0  0  0  0  0  0  0
    0.7971   -1.9886    0.4017 H   0  0  0  0  0  0  0  0  0  0  0  0
   -6.3039   -3.0593    2.4475 H   0  0  0  0  0  0  0  0  0  0  0  0
   -1.3707   -0.1604   -4.4028 H   0  0  0  0  0  0  0  0  0  0  0  0
   -1.6512    0.4743   -5.9130 H   0  0  0  0  0  0  0  0  0  0  0  0
   -2.0321    1.4427   -4.4464 H   0  0  0  0  0  0  0  0  0  0  0  0
   -5.1157    1.6296   -3.4853 H   0  0  0  0  0  0  0  0  0  0  0  0
   -5.0188    1.4425   -5.2839 H   0  0  0  0  0  0  0  0  0  0  0  0
   -6.4460    2.0729   -4.5405 H   0  0  0  0  0  0  0  0  0  0  0  0
   -8.0732   -4.1363   -4.1742 H   0  0  0  0  0  0  0  0  0  0  0  0
   -7.7283   -3.9381   -2.4144 H   0  0  0  0  0  0  0  0  0  0  0  0
   -9.1943   -3.2664   -3.1273 H   0  0  0  0  0  0  0  0  0  0  0  0
  1 30  1  0  0  0  0
  2 31  1  0  0  0  0
  3  9  1  0  0  0  0
  3 32  1  0  0  0  0
  4 13  1  0  0  0  0
  4 33  1  0  0  0  0
  5 14  1  0  0  0  0
  5 34  1  0  0  0  0
  6  8  1  0  0  0  0
  6 16  1  0  0  0  0
  6 17  1  0  0  0  0
  7 15  1  0  0  0  0
  7 19  1  0  0  0  0
  7 20  1  0  0  0  0
  8 11  1  0  0  0  0
  8 12  1  0  0  0  0
  8 35  1  0  0  0  0
  9 10  1  0  0  0  0
  9 13  2  0  0  0  0
 10 15  1  0  0  0  0
 10 18  2  0  0  0  0
 11 22  2  0  0  0  0
 11 24  1  0  0  0  0
 12 23  2  0  0  0  0
 12 25  1  0  0  0  0
 13 14  1  0  0  0  0
 14 21  2  0  0  0  0
 15 36  1  0  0  0  0
 15 37  1  0  0  0  0
 16 19  1  0  0  0  0
 16 38  1  0  0  0  0
 16 39  1  0  0  0  0
 17 20  1  0  0  0  0
 17 40  1  0  0  0  0
 17 41  1  0  0  0  0
 18 21  1  0  0  0  0
 18 42  1  0  0  0  0
 19 43  1  0  0  0  0
 19 44  1  0  0  0  0
 20 45  1  0  0  0  0
 20 46  1  0  0  0  0
 21 47  1  0  0  0  0
 22 26  1  0  0  0  0
 22 48  1  0  0  0  0
 23 27  1  0  0  0  0
 23 49  1  0  0  0  0
 24 28  2  0  0  0  0
 24 50  1  0  0  0  0
 25 29  2  0  0  0  0
 25 51  1  0  0  0  0
 26 30  2  0  0  0  0
 26 52  1  0  0  0  0
 27 31  2  0  0  0  0
 27 53  1  0  0  0  0
 28 30  1  0  0  0  0
 28 54  1  0  0  0  0
 29 31  1  0  0  0  0
 29 55  1  0  0  0  0
 32 56  1  0  0  0  0
 32 57  1  0  0  0  0
 32 58  1  0  0  0  0
 33 59  1  0  0  0  0
 33 60  1  0  0  0  0
 33 61  1  0  0  0  0
 34 62  1  0  0  0  0
 34 63  1  0  0  0  0
 34 64  1  0  0  0  0
M  END
>  <DRUGBANK_ID>
DB14065

>  <COMMON_NAME>
Lomerizine

>  <CAS_NUMBER>
101477-55-8

>  <UNII>
DEE37CY4VO

>  <SYNONYMS>
Lomerazine; Lomerizine

$$$$
