1427
 OpenBabel10282417113D

 23 24  0  0  0  0  0  0  0  0999 V2000
    0.9262   -0.0857   -0.0223 O   0  0  0  0  0  0  0  0  0  0  0  0
    2.9328   -1.1742   -0.0487 N   0  0  0  0  0  0  0  0  0  0  0  0
    2.1649    2.4480   -0.0033 N   0  0  0  0  0  0  0  0  0  0  0  0
    9.1654   -0.2044   -1.2044 N   0  0  0  0  0  0  0  0  0  0  0  0
    4.9688   -0.0199   -0.3848 C   0  0  0  0  0  0  0  0  0  0  0  0
    6.4144   -0.0624   -0.6846 C   0  0  0  0  0  0  0  0  0  0  0  0
    4.2404    1.2278   -0.2067 C   0  0  0  0  0  0  0  0  0  0  0  0
    4.2893   -1.1751   -0.2627 C   0  0  0  0  0  0  0  0  0  0  0  0
    2.9008    1.2837   -0.1135 C   0  0  0  0  0  0  0  0  0  0  0  0
    2.1574   -0.0401   -0.0651 C   0  0  0  0  0  0  0  0  0  0  0  0
    6.8890   -0.6381   -1.8667 C   0  0  0  0  0  0  0  0  0  0  0  0
    7.3353    0.4966    0.2020 C   0  0  0  0  0  0  0  0  0  0  0  0
    8.2587   -0.7399   -2.0472 C   0  0  0  0  0  0  0  0  0  0  0  0
    8.6808    0.4390   -0.1216 C   0  0  0  0  0  0  0  0  0  0  0  0
    2.4325   -2.0463    0.0724 H   0  0  0  0  0  0  0  0  0  0  0  0
    1.1859    2.3228   -0.2682 H   0  0  0  0  0  0  0  0  0  0  0  0
    2.6073    3.2915   -0.3507 H   0  0  0  0  0  0  0  0  0  0  0  0
    4.8244    2.1389   -0.1371 H   0  0  0  0  0  0  0  0  0  0  0  0
    4.7532   -2.1541   -0.3509 H   0  0  0  0  0  0  0  0  0  0  0  0
    6.2150   -1.0007   -2.6356 H   0  0  0  0  0  0  0  0  0  0  0  0
    7.0180    0.9772    1.1209 H   0  0  0  0  0  0  0  0  0  0  0  0
    8.6749   -1.2703   -2.8993 H   0  0  0  0  0  0  0  0  0  0  0  0
    9.4263    0.9307    0.4966 H   0  0  0  0  0  0  0  0  0  0  0  0
  1 10  2  0  0  0  0
  2  8  1  0  0  0  0
  2 10  1  0  0  0  0
  2 15  1  0  0  0  0
  3  9  1  0  0  0  0
  3 16  1  0  0  0  0
  3 17  1  0  0  0  0
  4 13  2  0  0  0  0
  4 14  1  0  0  0  0
  5  6  1  0  0  0  0
  5  7  1  0  0  0  0
  5  8  2  0  0  0  0
  6 11  2  0  0  0  0
  6 12  1  0  0  0  0
  7  9  2  0  0  0  0
  7 18  1  0  0  0  0
  8 19  1  0  0  0  0
  9 10  1  0  0  0  0
 11 13  1  0  0  0  0
 11 20  1  0  0  0  0
 12 14  2  0  0  0  0
 12 21  1  0  0  0  0
 13 22  1  0  0  0  0
 14 23  1  0  0  0  0
M  END
>  <DRUGBANK_ID>
DB01427

>  <COMMON_NAME>
Amrinone

>  <CAS_NUMBER>
60719-84-8

>  <UNII>
JUT23379TN

>  <SYNONYMS>
Amrinona; Amrinone; Amrinonum; Inamrinone

$$$$
