F1G
 OpenBabel10282417163D

 29 30  0  0  0  0  0  0  0  0999 V2000
    0.9593   -0.0572    0.0604 F   0  0  0  0  0  0  0  0  0  0  0  0
    2.3171   -0.1573    0.1355 C   0  0  0  0  0  0  0  0  0  0  0  0
    2.7626   -0.2495   -1.1493 F   0  0  0  0  0  0  0  0  0  0  0  0
    2.7617    1.0358    0.6109 F   0  0  0  0  0  0  0  0  0  0  0  0
    2.7448   -1.3284    0.9793 C   0  0  0  0  0  0  0  0  0  0  0  0
    3.4880   -1.3857    2.1872 C   0  0  0  0  0  0  0  0  0  0  0  0
    3.4927   -2.6757    2.4737 C   0  0  0  0  0  0  0  0  0  0  0  0
    2.8366   -3.4023    1.5802 N   0  0  0  0  0  0  0  0  0  0  0  0
    2.6824   -4.8328    1.7281 C   0  0  0  0  0  0  0  0  0  0  0  0
    2.3545   -2.6083    0.6041 N   0  0  0  0  0  0  0  0  0  0  0  0
    4.2580   -3.1279    3.8016 S   0  0  0  0  0  0  0  0  0  0  0  0
    4.1977   -0.6514    3.1954 C   0  0  0  0  0  0  0  0  0  0  0  0
    4.6745   -1.5384    4.2134 C   0  0  0  0  0  0  0  0  0  0  0  0
    5.4290   -1.3598    5.4710 C   0  0  0  0  0  0  0  0  0  0  0  0
    5.8242   -0.2660    5.8451 O   0  0  0  0  0  0  0  0  0  0  0  0
    5.7396   -2.4440    6.3204 N   0  0  0  0  0  0  0  0  0  0  0  0
    5.4881   -3.9101    6.3308 C   0  0  0  0  0  0  0  0  0  0  0  0
    6.7241   -4.7635    6.0710 C   0  0  0  0  0  0  0  0  0  0  0  0
    7.7142   -4.8839    7.5760 S   0  0  0  0  0  0  0  0  0  0  0  0
    3.6872   -5.2736    1.8044 H   0  0  0  0  0  0  0  0  0  0  0  0
    2.1750   -5.0191    2.6861 H   0  0  0  0  0  0  0  0  0  0  0  0
    2.1310   -5.2755    0.9081 H   0  0  0  0  0  0  0  0  0  0  0  0
    4.3712    0.4203    3.2320 H   0  0  0  0  0  0  0  0  0  0  0  0
    6.2309   -2.1109    7.1413 H   0  0  0  0  0  0  0  0  0  0  0  0
    4.9467   -4.1636    7.2466 H   0  0  0  0  0  0  0  0  0  0  0  0
    4.7947   -4.2639    5.5923 H   0  0  0  0  0  0  0  0  0  0  0  0
    6.4102   -5.7732    5.7751 H   0  0  0  0  0  0  0  0  0  0  0  0
    7.3216   -4.3593    5.2458 H   0  0  0  0  0  0  0  0  0  0  0  0
    7.9060   -3.5665    7.7173 H   0  0  0  0  0  0  0  0  0  0  0  0
  1  2  1  0  0  0  0
  2  3  1  0  0  0  0
  2  4  1  0  0  0  0
  2  5  1  0  0  0  0
  5  6  1  0  0  0  0
  5 10  2  0  0  0  0
  6  7  2  0  0  0  0
  6 12  1  0  0  0  0
  7  8  1  0  0  0  0
  7 11  1  0  0  0  0
  8  9  1  0  0  0  0
  8 10  1  0  0  0  0
  9 20  1  0  0  0  0
  9 21  1  0  0  0  0
  9 22  1  0  0  0  0
 11 13  1  0  0  0  0
 12 13  2  0  0  0  0
 12 23  1  0  0  0  0
 13 14  1  0  0  0  0
 14 15  2  0  0  0  0
 14 16  1  0  0  0  0
 16 17  1  0  0  0  0
 16 24  1  0  0  0  0
 17 18  1  0  0  0  0
 17 25  1  0  0  0  0
 17 26  1  0  0  0  0
 18 19  1  0  0  0  0
 18 27  1  0  0  0  0
 18 28  1  0  0  0  0
 19 29  1  0  0  0  0
M  END
>  <DRUGBANK_ID>
DB07733

>  <COMMON_NAME>
1-METHYL-3-TRIFLUOROMETHYL-1H-THIENO[2,3-C]PYRAZOLE-5-CARBOXYLIC ACID (2-MERCAPTO-ETHYL)-AMIDE

$$$$
