
 OpenBabel10282417193D

 88 90  0  0  1  0  0  0  0  0999 V2000
   -7.9286   -8.1204   -5.2327 C   0  0  0  0  0  0  0  0  0  0  0  0
   -8.5171   -7.0376   -4.4002 C   0  0  0  0  0  0  0  0  0  0  0  0
   -9.8630   -7.1575   -5.0881 C   0  0  0  0  0  0  0  0  0  0  0  0
   -8.5389   -6.9579   -2.6911 C   0  0  0  0  0  0  0  0  0  0  0  0
   -7.1944   -6.9691   -1.4209 N   0  0  0  0  0  0  0  0  0  0  0  0
   -7.5090   -5.9258   -0.5504 C   0  0  0  0  0  0  0  0  0  0  0  0
   -7.4594   -5.7151    0.8936 C   0  0  2  0  0  0  0  0  0  0  0  0
   -7.8558   -4.1990    0.8928 C   0  0  2  0  0  0  0  0  0  0  0  0
   -8.7363   -3.5456   -0.4469 C   0  0  0  0  0  0  0  0  0  0  0  0
   -8.2770   -3.5105   -2.1260 C   0  0  0  0  0  0  0  0  0  0  0  0
   -9.2397   -3.4416   -3.1289 C   0  0  0  0  0  0  0  0  0  0  0  0
   -8.8992   -3.7003   -4.5203 C   0  0  0  0  0  0  0  0  0  0  0  0
   -7.6236   -4.0391   -4.9874 C   0  0  0  0  0  0  0  0  0  0  0  0
   -6.6504   -4.1156   -4.0646 C   0  0  0  0  0  0  0  0  0  0  0  0
   -7.0558   -3.9978   -2.7171 C   0  0  0  0  0  0  0  0  0  0  0  0
   -6.5123   -3.2061    1.2042 N   0  0  0  0  0  0  0  0  0  0  0  0
   -5.0860   -2.9751    1.0742 C   0  0  0  0  0  0  0  0  0  0  0  0
   -4.6663   -2.0477    1.7897 O   0  0  0  0  0  0  0  0  0  0  0  0
   -3.8533   -3.9759    0.2608 C   0  0  2  0  0  0  0  0  0  0  0  0
   -2.6786   -4.6283    1.3503 C   0  0  0  0  0  0  0  0  0  0  0  0
   -2.3066   -6.2369    1.7617 C   0  0  0  0  0  0  0  0  0  0  0  0
   -1.4488   -6.8650    1.1310 O   0  0  0  0  0  0  0  0  0  0  0  0
   -2.9941   -7.0066    2.7350 N   0  0  0  0  0  0  0  0  0  0  0  0
   -3.7165   -4.0891   -1.6127 N   0  0  0  0  0  0  0  0  0  0  0  0
   -4.0543   -5.0393   -3.0916 C   0  0  0  0  0  0  0  0  0  0  0  0
   -3.7284   -4.2954   -4.0272 O   0  0  0  0  0  0  0  0  0  0  0  0
   -4.7876   -6.8064   -3.5991 C   0  0  0  0  0  0  0  0  0  0  0  0
   -4.7180   -7.8176   -4.5334 C   0  0  0  0  0  0  0  0  0  0  0  0
   -5.6389   -9.2799   -4.5293 C   0  0  0  0  0  0  0  0  0  0  0  0
   -6.8838   -9.7321   -3.5629 C   0  0  0  0  0  0  0  0  0  0  0  0
   -8.2896  -10.5373   -3.2105 C   0  0  0  0  0  0  0  0  0  0  0  0
   -9.1774  -10.5186   -1.9735 C   0  0  0  0  0  0  0  0  0  0  0  0
   -8.8216   -9.8785   -0.8823 C   0  0  0  0  0  0  0  0  0  0  0  0
   -7.8585   -9.0893   -1.3663 C   0  0  0  0  0  0  0  0  0  0  0  0
   -6.9066   -8.7655   -2.8057 C   0  0  0  0  0  0  0  0  0  0  0  0
   -5.9728   -7.3035   -3.0999 N   0  0  0  0  0  0  0  0  0  0  0  0
   -6.2367   -5.5538    1.5596 O   0  0  0  0  0  0  0  0  0  0  0  0
   -5.8357   -8.1137   -1.0028 C   0  0  0  0  0  0  0  0  0  0  0  0
   -5.6741   -9.3604   -0.9874 O   0  0  0  0  0  0  0  0  0  0  0  0
   -4.5402   -7.7901   -1.3157 N   0  0  0  0  0  0  0  0  0  0  0  0
   -4.0264   -6.7383   -0.6265 C   0  0  0  0  0  0  0  0  0  0  0  0
   -4.3882   -7.2346    0.7598 C   0  0  0  0  0  0  0  0  0  0  0  0
   -2.6576   -6.4684   -1.1969 C   0  0  0  0  0  0  0  0  0  0  0  0
   -5.0106   -5.7564   -0.9748 C   0  0  0  0  0  0  0  0  0  0  0  0
   -8.4122   -9.0774   -5.0580 H   0  0  0  0  0  0  0  0  0  0  0  0
   -6.9418   -7.8985   -4.9894 H   0  0  0  0  0  0  0  0  0  0  0  0
   -7.7907   -8.0726   -6.3124 H   0  0  0  0  0  0  0  0  0  0  0  0
   -7.9148   -6.2230   -4.7506 H   0  0  0  0  0  0  0  0  0  0  0  0
  -10.3969   -8.0012   -4.6387 H   0  0  0  0  0  0  0  0  0  0  0  0
  -10.4085   -6.2313   -5.0980 H   0  0  0  0  0  0  0  0  0  0  0  0
   -9.7325   -7.4426   -6.1570 H   0  0  0  0  0  0  0  0  0  0  0  0
   -9.0296   -5.9880   -2.5480 H   0  0  0  0  0  0  0  0  0  0  0  0
   -9.3328   -7.6183   -2.3408 H   0  0  0  0  0  0  0  0  0  0  0  0
   -6.8170   -5.2167   -0.8377 H   0  0  0  0  0  0  0  0  0  0  0  0
   -8.0762   -5.2168   -1.0330 H   0  0  0  0  0  0  0  0  0  0  0  0
   -7.8611   -6.6296    1.3163 H   0  0  0  0  0  0  0  0  0  0  0  0
   -8.4615   -4.2092    1.8267 H   0  0  0  0  0  0  0  0  0  0  0  0
   -9.6931   -4.1216   -0.3860 H   0  0  0  0  0  0  0  0  0  0  0  0
   -8.8793   -2.5040   -0.1767 H   0  0  0  0  0  0  0  0  0  0  0  0
  -10.2810   -3.3175   -2.8529 H   0  0  0  0  0  0  0  0  0  0  0  0
   -9.6643   -3.7202   -5.2817 H   0  0  0  0  0  0  0  0  0  0  0  0
   -7.3943   -4.5403   -5.9362 H   0  0  0  0  0  0  0  0  0  0  0  0
   -5.8751   -4.8291   -4.3609 H   0  0  0  0  0  0  0  0  0  0  0  0
   -6.8884   -5.0626   -2.5421 H   0  0  0  0  0  0  0  0  0  0  0  0
   -6.8778   -2.4838    1.8278 H   0  0  0  0  0  0  0  0  0  0  0  0
   -4.3417   -4.8481    0.5506 H   0  0  0  0  0  0  0  0  0  0  0  0
   -1.7466   -4.2311    0.9656 H   0  0  0  0  0  0  0  0  0  0  0  0
   -2.9359   -4.2305    2.3400 H   0  0  0  0  0  0  0  0  0  0  0  0
   -3.9638   -6.8270    3.0114 H   0  0  0  0  0  0  0  0  0  0  0  0
   -2.9764   -8.0195    2.5077 H   0  0  0  0  0  0  0  0  0  0  0  0
   -3.4715   -3.1335   -1.8728 H   0  0  0  0  0  0  0  0  0  0  0  0
   -4.4354   -7.4689   -5.5297 H   0  0  0  0  0  0  0  0  0  0  0  0
   -5.8344   -9.6829   -5.5427 H   0  0  0  0  0  0  0  0  0  0  0  0
   -8.8914  -10.8446   -4.0622 H   0  0  0  0  0  0  0  0  0  0  0  0
  -10.1694  -10.9434   -1.9313 H   0  0  0  0  0  0  0  0  0  0  0  0
   -9.1898   -9.6641    0.1260 H   0  0  0  0  0  0  0  0  0  0  0  0
   -7.6240   -8.5494   -0.4052 H   0  0  0  0  0  0  0  0  0  0  0  0
   -5.9533   -4.7575    1.0760 H   0  0  0  0  0  0  0  0  0  0  0  0
   -4.0161   -8.6521   -1.2060 H   0  0  0  0  0  0  0  0  0  0  0  0
   -3.7920   -8.1099    0.9174 H   0  0  0  0  0  0  0  0  0  0  0  0
   -4.4089   -6.3881    1.4147 H   0  0  0  0  0  0  0  0  0  0  0  0
   -5.4118   -7.5949    0.9989 H   0  0  0  0  0  0  0  0  0  0  0  0
   -2.6808   -6.4277   -2.2852 H   0  0  0  0  0  0  0  0  0  0  0  0
   -2.2276   -5.5197   -0.8849 H   0  0  0  0  0  0  0  0  0  0  0  0
   -1.9700   -7.2772   -1.0341 H   0  0  0  0  0  0  0  0  0  0  0  0
   -5.4207   -5.8029   -1.9288 H   0  0  0  0  0  0  0  0  0  0  0  0
   -5.6575   -6.1718   -0.2901 H   0  0  0  0  0  0  0  0  0  0  0  0
   -5.2927   -4.7226   -0.7916 H   0  0  0  0  0  0  0  0  0  0  0  0
  1  2  1  0  0  0  0
  1 45  1  0  0  0  0
  1 46  1  0  0  0  0
  1 47  1  0  0  0  0
  2  3  1  0  0  0  0
  2  4  1  0  0  0  0
  2 48  1  0  0  0  0
  3 49  1  0  0  0  0
  3 50  1  0  0  0  0
  3 51  1  0  0  0  0
  4  5  1  0  0  0  0
  4 52  1  0  0  0  0
  4 53  1  0  0  0  0
  5  6  1  0  0  0  0
  5 38  1  0  0  0  0
  6 54  1  0  0  0  0
  6 55  1  0  0  0  0
  7 37  1  0  0  0  0
  7 56  1  1  0  0  0
  7  8  1  0  0  0  0
  7  6  1  0  0  0  0
  8 57  1  1  0  0  0
  8 16  1  0  0  0  0
  8  9  1  0  0  0  0
  9 10  1  0  0  0  0
  9 58  1  0  0  0  0
  9 59  1  0  0  0  0
 10 11  2  0  0  0  0
 10 15  1  0  0  0  0
 11 12  1  0  0  0  0
 11 60  1  0  0  0  0
 12 13  2  0  0  0  0
 12 61  1  0  0  0  0
 13 14  1  0  0  0  0
 13 62  1  0  0  0  0
 14 15  2  0  0  0  0
 14 63  1  0  0  0  0
 15 64  1  0  0  0  0
 16 17  1  0  0  0  0
 16 65  1  0  0  0  0
 17 18  2  0  0  0  0
 19 24  1  0  0  0  0
 19 66  1  1  0  0  0
 19 20  1  0  0  0  0
 19 17  1  0  0  0  0
 20 21  1  0  0  0  0
 20 67  1  0  0  0  0
 20 68  1  0  0  0  0
 21 22  2  0  0  0  0
 21 23  1  0  0  0  0
 23 69  1  0  0  0  0
 23 70  1  0  0  0  0
 24 25  1  0  0  0  0
 24 71  1  0  0  0  0
 25 26  2  0  0  0  0
 25 27  1  0  0  0  0
 27 28  2  0  0  0  0
 27 36  1  0  0  0  0
 28 29  1  0  0  0  0
 28 72  1  0  0  0  0
 29 30  2  0  0  0  0
 29 73  1  0  0  0  0
 30 31  1  0  0  0  0
 30 35  1  0  0  0  0
 31 32  2  0  0  0  0
 31 74  1  0  0  0  0
 32 33  1  0  0  0  0
 32 75  1  0  0  0  0
 33 34  2  0  0  0  0
 33 76  1  0  0  0  0
 34 35  1  0  0  0  0
 34 77  1  0  0  0  0
 35 36  2  0  0  0  0
 37 78  1  0  0  0  0
 38 39  2  0  0  0  0
 38 40  1  0  0  0  0
 40 41  1  0  0  0  0
 40 79  1  0  0  0  0
 41 42  1  0  0  0  0
 41 43  1  0  0  0  0
 41 44  1  0  0  0  0
 42 80  1  0  0  0  0
 42 81  1  0  0  0  0
 42 82  1  0  0  0  0
 43 83  1  0  0  0  0
 43 84  1  0  0  0  0
 43 85  1  0  0  0  0
 44 86  1  0  0  0  0
 44 87  1  0  0  0  0
 44 88  1  0  0  0  0
M  END
>  <DRUGBANK_ID>
DB12178

>  <COMMON_NAME>
Telinavir

>  <CAS_NUMBER>
143224-34-4

>  <UNII>
IZF55EH3CG

>  <SYNONYMS>
Telinavir

$$$$
