
 OpenBabel10282417103D

293298  0  0  1  0  0  0  0  0999 V2000
    6.4505    5.3246   12.8093 C   0  0  0  0  0  0  0  0  0  0  0  0
    7.3664    4.0996   12.6755 C   0  0  2  0  0  0  0  0  0  0  0  0
    6.7812    6.3565   13.3681 O   0  0  0  0  0  0  0  0  0  0  0  0
    6.8329    2.8487   12.0250 C   0  0  0  0  0  0  0  0  0  0  0  0
    8.2078    3.8448   13.8443 N   0  0  0  0  0  0  0  0  0  0  0  0
    5.7866    2.1189   12.8648 C   0  0  0  0  0  0  0  0  0  0  0  0
    4.5328    2.9173   13.2027 C   0  0  0  0  0  0  0  0  0  0  0  0
    5.3368    0.9011   12.0906 C   0  0  0  0  0  0  0  0  0  0  0  0
    5.2653    5.2909   12.1815 O   0  0  0  0  0  0  0  0  0  0  0  0
    9.5628    4.0638   14.0009 C   0  0  0  0  0  0  0  0  0  0  0  0
   10.1003    3.8117   15.0772 O   0  0  0  0  0  0  0  0  0  0  0  0
   10.3800    4.5291   12.8040 C   0  0  2  0  0  0  0  0  0  0  0  0
   11.8303    4.9145   13.1225 C   0  0  0  0  0  0  0  0  0  0  0  0
    9.6949    5.6692   12.3408 N   0  0  0  0  0  0  0  0  0  0  0  0
   12.6791    5.2789   11.9175 C   0  0  0  0  0  0  0  0  0  0  0  0
   12.1905    5.1938   10.6140 C   0  0  0  0  0  0  0  0  0  0  0  0
   14.0024    5.6903   12.0637 C   0  0  0  0  0  0  0  0  0  0  0  0
   14.7806    5.9963   10.9315 C   0  0  0  0  0  0  0  0  0  0  0  0
   14.2295    5.9111    9.6544 C   0  0  0  0  0  0  0  0  0  0  0  0
   12.9207    5.5363    9.4961 C   0  0  0  0  0  0  0  0  0  0  0  0
   14.9203    6.1496    8.5096 O   0  0  0  0  0  0  0  0  0  0  0  0
   11.4814    9.1825   10.0466 C   0  0  0  0  0  0  0  0  0  0  0  0
    9.2704    5.7625   11.0437 C   0  0  0  0  0  0  0  0  0  0  0  0
   11.6763   10.3559    9.8676 O   0  0  0  0  0  0  0  0  0  0  0  0
   11.2302    8.6599   11.3576 C   0  0  0  0  0  0  0  0  0  0  0  0
    9.1101    4.8692   10.2239 O   0  0  0  0  0  0  0  0  0  0  0  0
    9.9138    8.0516   11.6537 C   0  0  0  0  0  0  0  0  0  0  0  0
    8.9909    7.1299   10.7499 C   0  0  2  0  0  0  0  0  0  0  0  0
   11.2589    8.2820    9.1262 O   0  0  0  0  0  0  0  0  0  0  0  0
    7.3527    7.2255   10.3560 N   0  0  0  0  0  0  0  0  0  0  0  0
    2.2836    7.0545    8.4196 C   0  0  0  0  0  0  0  0  0  0  0  0
    6.6926    6.7016    9.1896 C   0  0  0  0  0  0  0  0  0  0  0  0
    1.5362    6.1178    8.6107 O   0  0  0  0  0  0  0  0  0  0  0  0
    2.9738    7.8486    9.5013 C   0  0  0  0  0  0  0  0  0  0  0  0
    7.2980    6.0203    8.3526 O   0  0  0  0  0  0  0  0  0  0  0  0
    4.3498    7.3454    9.8103 C   0  0  0  0  0  0  0  0  0  0  0  0
    5.1699    7.2966    8.6022 C   0  0  2  0  0  0  0  0  0  0  0  0
    2.6010    7.4182    7.1789 O   0  0  0  0  0  0  0  0  0  0  0  0
    4.8981    6.6664    7.2715 N   0  0  0  0  0  0  0  0  0  0  0  0
    4.6605    7.1545    5.9576 C   0  0  0  0  0  0  0  0  0  0  0  0
    4.3494    6.3461    5.0822 O   0  0  0  0  0  0  0  0  0  0  0  0
    4.5253    8.6378    5.5774 C   0  0  1  0  0  0  0  0  0  0  0  0
    5.2954    9.2571    4.4296 N   0  0  0  0  0  0  0  0  0  0  0  0
    4.9608   10.5384    4.0323 C   0  0  0  0  0  0  0  0  0  0  0  0
    3.6543   10.5249    4.5460 C   0  0  0  0  0  0  0  0  0  0  0  0
    3.2103    9.0714    5.0397 C   0  0  0  0  0  0  0  0  0  0  0  0
    6.3769    8.7627    3.8747 C   0  0  0  0  0  0  0  0  0  0  0  0
    7.2989    9.6013    2.8619 C   0  0  1  0  0  0  0  0  0  0  0  0
    6.6375    7.6279    4.2657 O   0  0  0  0  0  0  0  0  0  0  0  0
    8.8701   10.0561    3.0726 N   0  0  0  0  0  0  0  0  0  0  0  0
    7.1528    8.6204    1.7134 C   0  0  2  0  0  0  0  0  0  0  0  0
    8.3152    8.5909    0.7970 C   0  0  0  0  0  0  0  0  0  0  0  0
    6.1179    9.0896    0.7926 C   0  0  0  0  0  0  0  0  0  0  0  0
    8.8145    9.8221    0.0855 C   0  0  0  0  0  0  0  0  0  0  0  0
   12.4467    7.6632    5.9879 C   0  0  0  0  0  0  0  0  0  0  0  0
   10.0598    9.3441    2.7924 C   0  0  0  0  0  0  0  0  0  0  0  0
   12.4678    6.5129    6.3661 O   0  0  0  0  0  0  0  0  0  0  0  0
   13.1040    8.2295    4.4790 C   0  0  0  0  0  0  0  0  0  0  0  0
   10.0766    8.1770    2.3772 O   0  0  0  0  0  0  0  0  0  0  0  0
   12.2977    8.4793    3.1280 C   0  0  0  0  0  0  0  0  0  0  0  0
   11.4565    9.8251    2.7992 C   0  0  2  0  0  0  0  0  0  0  0  0
   11.8825    8.4911    6.9163 O   0  0  0  0  0  0  0  0  0  0  0  0
   11.6253   10.4536    3.9615 N   0  0  0  0  0  0  0  0  0  0  0  0
   13.3464   14.6278    8.1854 C   0  0  0  0  0  0  0  0  0  0  0  0
   11.4193   11.6374    4.4410 C   0  0  0  0  0  0  0  0  0  0  0  0
   13.4529   14.8207    9.3763 O   0  0  0  0  0  0  0  0  0  0  0  0
   13.8975   13.4215    7.4139 C   0  0  0  0  0  0  0  0  0  0  0  0
   11.0918   12.2615    3.4622 O   0  0  0  0  0  0  0  0  0  0  0  0
   13.0889   12.1480    7.3735 C   0  0  0  0  0  0  0  0  0  0  0  0
   11.8070   12.0900    6.1739 C   0  0  2  0  0  0  0  0  0  0  0  0
   12.6238   15.4958    7.4832 O   0  0  0  0  0  0  0  0  0  0  0  0
   10.7552   11.8933    7.0963 N   0  0  0  0  0  0  0  0  0  0  0  0
    9.1751   12.3566    7.8481 C   0  0  0  0  0  0  0  0  0  0  0  0
    8.3359   11.2193    9.0333 C   0  0  2  0  0  0  0  0  0  0  0  0
    8.6378   13.4783    8.0295 O   0  0  0  0  0  0  0  0  0  0  0  0
    7.7219   11.9523   10.2257 C   0  0  0  0  0  0  0  0  0  0  0  0
    8.6789    9.7899    9.1916 N   0  0  0  0  0  0  0  0  0  0  0  0
    7.3410   11.1458   11.4196 C   0  0  0  0  0  0  0  0  0  0  0  0
    7.7366    9.8908   11.6016 C   0  0  0  0  0  0  0  0  0  0  0  0
    6.5254   11.3755   12.4505 C   0  0  0  0  0  0  0  0  0  0  0  0
    6.5453   10.5379   13.6390 C   0  0  0  0  0  0  0  0  0  0  0  0
    7.6133    8.9458   12.6003 C   0  0  0  0  0  0  0  0  0  0  0  0
    7.1537    9.3186   13.7555 C   0  0  0  0  0  0  0  0  0  0  0  0
    8.8442    7.6525    4.6442 O   0  0  0  0  0  0  0  0  0  0  0  0
    6.2861    9.5132    8.5562 N   0  0  0  0  0  0  0  0  0  0  0  0
    9.7306    7.6798    6.5467 O   0  0  0  0  0  0  0  0  0  0  0  0
    9.1166    7.7321    8.4534 O   0  0  0  0  0  0  0  0  0  0  0  0
    7.1240    8.6157    7.8147 C   0  0  2  0  0  0  0  0  0  0  0  0
    8.6947    7.8203    5.9303 C   0  0  0  0  0  0  0  0  0  0  0  0
    8.3259    8.6365    8.5978 C   0  0  0  0  0  0  0  0  0  0  0  0
    7.6084    8.6455    6.4885 C   0  0  0  0  0  0  0  0  0  0  0  0
    5.5120   10.5166    8.1630 C   0  0  0  0  0  0  0  0  0  0  0  0
    4.5999   10.7265    8.9382 O   0  0  0  0  0  0  0  0  0  0  0  0
    7.2006   11.3867    6.7988 N   0  0  0  0  0  0  0  0  0  0  0  0
    5.8280   11.1342    6.8432 C   0  0  0  0  0  0  0  0  0  0  0  0
   10.7357    9.8562    5.8133 C   0  0  0  0  0  0  0  0  0  0  0  0
    8.1083   10.9107    5.9495 C   0  0  0  0  0  0  0  0  0  0  0  0
   12.7359   10.2126    5.8927 C   0  0  0  0  0  0  0  0  0  0  0  0
    9.5589   10.5420    6.4937 C   0  0  1  0  0  0  0  0  0  0  0  0
    7.7466   10.5475    4.8639 O   0  0  0  0  0  0  0  0  0  0  0  0
   13.6098    9.6668    6.5846 O   0  0  0  0  0  0  0  0  0  0  0  0
   13.5226   11.2113    5.0070 N   0  0  0  0  0  0  0  0  0  0  0  0
   10.2295   10.7272    8.2156 N   0  0  0  0  0  0  0  0  0  0  0  0
   10.8502   12.2590    8.9420 C   0  0  0  0  0  0  0  0  0  0  0  0
   10.8283   12.5262   10.1780 O   0  0  0  0  0  0  0  0  0  0  0  0
   11.7580   14.2541    6.0246 N   0  0  0  0  0  0  0  0  0  0  0  0
   10.9955   13.7778    7.6425 C   0  0  0  0  0  0  0  0  0  0  0  0
   11.4955   14.1662    4.6716 C   0  0  0  0  0  0  0  0  0  0  0  0
   12.4722   14.0907    3.9140 O   0  0  0  0  0  0  0  0  0  0  0  0
    8.9315   13.0929    4.7903 N   0  0  0  0  0  0  0  0  0  0  0  0
   10.0197   13.8882    4.3058 C   0  0  0  0  0  0  0  0  0  0  0  0
    7.9219   13.5897    5.5519 C   0  0  0  0  0  0  0  0  0  0  0  0
    6.7683   13.1784    5.6103 O   0  0  0  0  0  0  0  0  0  0  0  0
    9.0995   15.5700    6.8794 N   0  0  0  0  0  0  0  0  0  0  0  0
    8.0474   14.8528    6.2599 C   0  0  0  0  0  0  0  0  0  0  0  0
    9.9778   16.4351    6.3113 C   0  0  0  0  0  0  0  0  0  0  0  0
   10.8593   16.9134    7.0178 O   0  0  0  0  0  0  0  0  0  0  0  0
    9.4376   16.2907    3.7082 N   0  0  0  0  0  0  0  0  0  0  0  0
    9.7360   16.9988    4.9206 C   0  0  0  0  0  0  0  0  0  0  0  0
    8.2558   15.8502    3.2067 C   0  0  0  0  0  0  0  0  0  0  0  0
    8.4251   15.0279    2.3070 O   0  0  0  0  0  0  0  0  0  0  0  0
    6.8793   16.4545    3.6972 C   0  0  1  0  0  0  0  0  0  0  0  0
    5.6640   15.6006    3.7294 N   0  0  0  0  0  0  0  0  0  0  0  0
    4.6606   16.2104    4.6108 C   0  0  0  0  0  0  0  0  0  0  0  0
    5.3619   17.2524    5.4614 C   0  0  0  0  0  0  0  0  0  0  0  0
    6.7833   17.0985    5.1021 C   0  0  0  0  0  0  0  0  0  0  0  0
    6.8282   14.4954   -1.3492 C   0  0  0  0  0  0  0  0  0  0  0  0
    5.5590   14.4500    2.9911 C   0  0  0  0  0  0  0  0  0  0  0  0
    8.0549   14.2422   -1.6398 N   0  0  0  0  0  0  0  0  0  0  0  0
    6.5140   14.0187    2.3439 O   0  0  0  0  0  0  0  0  0  0  0  0
    6.2050   14.1065   -0.2218 N   0  0  0  0  0  0  0  0  0  0  0  0
    4.4357   13.4145    2.9959 C   0  0  1  0  0  0  0  0  0  0  0  0
    6.0767   15.1733   -2.2271 N   0  0  0  0  0  0  0  0  0  0  0  0
    3.0377   13.7593    3.2220 N   0  0  0  0  0  0  0  0  0  0  0  0
    4.8507   14.4276    0.1727 C   0  0  0  0  0  0  0  0  0  0  0  0
    4.5986   12.4752    1.7121 C   0  0  0  0  0  0  0  0  0  0  0  0
    4.0856   13.1600    0.4733 C   0  0  0  0  0  0  0  0  0  0  0  0
    2.1355   13.4428    4.2273 C   0  0  0  0  0  0  0  0  0  0  0  0
    0.9624   13.7836    4.1010 O   0  0  0  0  0  0  0  0  0  0  0  0
    2.5635   12.6391    5.4711 C   0  0  1  0  0  0  0  0  0  0  0  0
    2.3529   12.9378    6.8563 N   0  0  0  0  0  0  0  0  0  0  0  0
    2.5404   11.8841    7.7854 C   0  0  0  0  0  0  0  0  0  0  0  0
    2.4285   10.6814    6.9684 C   0  0  0  0  0  0  0  0  0  0  0  0
    1.7513   11.2137    5.5902 C   0  0  0  0  0  0  0  0  0  0  0  0
    2.1801   14.1911    7.2108 C   0  0  0  0  0  0  0  0  0  0  0  0
    1.7899   14.4281    8.6780 C   0  0  1  0  0  0  0  0  0  0  0  0
    2.3201   14.9982    6.3013 O   0  0  0  0  0  0  0  0  0  0  0  0
    2.6674   15.5573    9.1833 C   0  0  0  0  0  0  0  0  0  0  0  0
    0.3300   14.6319    8.8396 N   0  0  0  0  0  0  0  0  0  0  0  0
    2.4174   16.8597    8.4637 C   0  0  0  0  0  0  0  0  0  0  0  0
    1.4631   16.9931    7.4321 C   0  0  0  0  0  0  0  0  0  0  0  0
    3.0518   18.0085    8.8747 C   0  0  0  0  0  0  0  0  0  0  0  0
    2.5910   19.2246    8.3692 C   0  0  0  0  0  0  0  0  0  0  0  0
    1.1153   18.1582    6.8166 C   0  0  0  0  0  0  0  0  0  0  0  0
    1.6834   19.2957    7.3042 C   0  0  0  0  0  0  0  0  0  0  0  0
    8.0104    4.3920   11.8956 H   0  0  0  0  0  0  0  0  0  0  0  0
    6.4461    3.1135   11.0284 H   0  0  0  0  0  0  0  0  0  0  0  0
    7.6897    2.1823   11.8258 H   0  0  0  0  0  0  0  0  0  0  0  0
    7.7457    3.5049   14.6738 H   0  0  0  0  0  0  0  0  0  0  0  0
    6.2563    1.8259   13.8084 H   0  0  0  0  0  0  0  0  0  0  0  0
    3.9865    3.1685   12.2820 H   0  0  0  0  0  0  0  0  0  0  0  0
    3.8042    2.3917   13.8136 H   0  0  0  0  0  0  0  0  0  0  0  0
    4.8073    3.7888   13.7989 H   0  0  0  0  0  0  0  0  0  0  0  0
    6.1759    0.2272   11.9107 H   0  0  0  0  0  0  0  0  0  0  0  0
    4.5663    0.3812   12.6616 H   0  0  0  0  0  0  0  0  0  0  0  0
    4.9111    1.1991   11.1241 H   0  0  0  0  0  0  0  0  0  0  0  0
    5.1040    4.4343   11.7538 H   0  0  0  0  0  0  0  0  0  0  0  0
   10.3315    3.7723   12.0260 H   0  0  0  0  0  0  0  0  0  0  0  0
   11.8525    5.7639   13.8259 H   0  0  0  0  0  0  0  0  0  0  0  0
   12.2858    4.0538   13.6117 H   0  0  0  0  0  0  0  0  0  0  0  0
    9.5802    6.3967   13.0303 H   0  0  0  0  0  0  0  0  0  0  0  0
   11.2114    4.8309   10.3904 H   0  0  0  0  0  0  0  0  0  0  0  0
   14.4392    5.7521   13.0568 H   0  0  0  0  0  0  0  0  0  0  0  0
   15.8132    6.2931   11.0664 H   0  0  0  0  0  0  0  0  0  0  0  0
   12.4470    5.4818    8.5206 H   0  0  0  0  0  0  0  0  0  0  0  0
   15.8306    6.4007    8.7067 H   0  0  0  0  0  0  0  0  0  0  0  0
   11.2363    9.5691   11.9949 H   0  0  0  0  0  0  0  0  0  0  0  0
   11.9787    7.9282   11.4812 H   0  0  0  0  0  0  0  0  0  0  0  0
    9.5072    8.9706   11.5262 H   0  0  0  0  0  0  0  0  0  0  0  0
    9.9023    7.9701   12.7362 H   0  0  0  0  0  0  0  0  0  0  0  0
    9.6652    7.2131    9.9598 H   0  0  0  0  0  0  0  0  0  0  0  0
   10.5848    8.3384    8.4229 H   0  0  0  0  0  0  0  0  0  0  0  0
    6.7158    7.3657   11.1330 H   0  0  0  0  0  0  0  0  0  0  0  0
    2.4286    7.7253   10.4272 H   0  0  0  0  0  0  0  0  0  0  0  0
    2.9730    8.9229    9.2736 H   0  0  0  0  0  0  0  0  0  0  0  0
    4.4483    6.3365   10.1647 H   0  0  0  0  0  0  0  0  0  0  0  0
    4.8172    8.0411   10.5415 H   0  0  0  0  0  0  0  0  0  0  0  0
    4.9081    8.2870    8.2517 H   0  0  0  0  0  0  0  0  0  0  0  0
    2.5490    6.6638    6.5315 H   0  0  0  0  0  0  0  0  0  0  0  0
    5.2351    5.7201    7.2673 H   0  0  0  0  0  0  0  0  0  0  0  0
    4.7025    9.1320    6.5167 H   0  0  0  0  0  0  0  0  0  0  0  0
    4.8396   10.6284    2.9913 H   0  0  0  0  0  0  0  0  0  0  0  0
    5.5536   11.3670    4.4556 H   0  0  0  0  0  0  0  0  0  0  0  0
    3.0707   11.1293    3.8359 H   0  0  0  0  0  0  0  0  0  0  0  0
    3.9216   11.1094    5.4119 H   0  0  0  0  0  0  0  0  0  0  0  0
    2.8242    8.4531    4.2491 H   0  0  0  0  0  0  0  0  0  0  0  0
    2.3803    8.9604    5.7526 H   0  0  0  0  0  0  0  0  0  0  0  0
    6.8154   10.5846    2.7140 H   0  0  0  0  0  0  0  0  0  0  0  0
    8.8685   10.6370    3.8764 H   0  0  0  0  0  0  0  0  0  0  0  0
    7.0381    7.6092    2.1314 H   0  0  0  0  0  0  0  0  0  0  0  0
    8.7638    8.9801    1.5854 H   0  0  0  0  0  0  0  0  0  0  0  0
    8.8536    7.6429    0.7489 H   0  0  0  0  0  0  0  0  0  0  0  0
    6.2294    8.4285   -0.0639 H   0  0  0  0  0  0  0  0  0  0  0  0
    5.1472    9.0568    1.2554 H   0  0  0  0  0  0  0  0  0  0  0  0
    6.3777   10.1196    0.5159 H   0  0  0  0  0  0  0  0  0  0  0  0
    8.6160   10.7644    0.6429 H   0  0  0  0  0  0  0  0  0  0  0  0
    9.9033    9.7973   -0.0496 H   0  0  0  0  0  0  0  0  0  0  0  0
    8.2613    9.7898   -0.8259 H   0  0  0  0  0  0  0  0  0  0  0  0
   13.8090    7.4396    4.2992 H   0  0  0  0  0  0  0  0  0  0  0  0
   13.8046    9.0707    4.4783 H   0  0  0  0  0  0  0  0  0  0  0  0
   11.6660    7.6012    3.2264 H   0  0  0  0  0  0  0  0  0  0  0  0
   12.9273    8.4607    2.2567 H   0  0  0  0  0  0  0  0  0  0  0  0
   11.7470   10.5892    2.0901 H   0  0  0  0  0  0  0  0  0  0  0  0
   10.9325    8.2530    6.9493 H   0  0  0  0  0  0  0  0  0  0  0  0
   11.8261    9.6700    4.4835 H   0  0  0  0  0  0  0  0  0  0  0  0
   14.8488   13.1711    7.8610 H   0  0  0  0  0  0  0  0  0  0  0  0
   14.1844   13.6405    6.3828 H   0  0  0  0  0  0  0  0  0  0  0  0
   12.8518   11.7462    8.3865 H   0  0  0  0  0  0  0  0  0  0  0  0
   13.8899   11.4309    7.2321 H   0  0  0  0  0  0  0  0  0  0  0  0
   11.0086   12.6849    5.9909 H   0  0  0  0  0  0  0  0  0  0  0  0
   11.7718   15.8625    7.8643 H   0  0  0  0  0  0  0  0  0  0  0  0
   11.1645   10.9903    7.5132 H   0  0  0  0  0  0  0  0  0  0  0  0
    7.4502   11.0556    8.5677 H   0  0  0  0  0  0  0  0  0  0  0  0
    8.4634   12.7049   10.4689 H   0  0  0  0  0  0  0  0  0  0  0  0
    6.8218   12.4433    9.8291 H   0  0  0  0  0  0  0  0  0  0  0  0
    9.4820    9.8457    9.8040 H   0  0  0  0  0  0  0  0  0  0  0  0
    8.2759    9.5343   10.8366 H   0  0  0  0  0  0  0  0  0  0  0  0
    5.8323   12.1770   12.3210 H   0  0  0  0  0  0  0  0  0  0  0  0
    6.0324   10.8450   14.5131 H   0  0  0  0  0  0  0  0  0  0  0  0
    7.9719    7.9404   12.5485 H   0  0  0  0  0  0  0  0  0  0  0  0
    7.2187    8.5610   14.5230 H   0  0  0  0  0  0  0  0  0  0  0  0
    8.0084    7.7033    4.1647 H   0  0  0  0  0  0  0  0  0  0  0  0
    6.0527    9.2833    9.5204 H   0  0  0  0  0  0  0  0  0  0  0  0
    6.6417    7.7678    7.4324 H   0  0  0  0  0  0  0  0  0  0  0  0
    6.7920    8.9267    5.9184 H   0  0  0  0  0  0  0  0  0  0  0  0
    8.1433    9.4275    6.8600 H   0  0  0  0  0  0  0  0  0  0  0  0
    7.3203   12.2841    7.2148 H   0  0  0  0  0  0  0  0  0  0  0  0
    5.7787   10.4256    6.0912 H   0  0  0  0  0  0  0  0  0  0  0  0
    5.2617   12.0034    6.5878 H   0  0  0  0  0  0  0  0  0  0  0  0
   10.6542    8.8511    5.4053 H   0  0  0  0  0  0  0  0  0  0  0  0
   10.1017    9.8887    4.9243 H   0  0  0  0  0  0  0  0  0  0  0  0
    9.6070   11.4981    5.9060 H   0  0  0  0  0  0  0  0  0  0  0  0
   13.2097   11.8991    4.2952 H   0  0  0  0  0  0  0  0  0  0  0  0
   14.3988   11.5830    5.3455 H   0  0  0  0  0  0  0  0  0  0  0  0
   10.1442    9.7646    8.5719 H   0  0  0  0  0  0  0  0  0  0  0  0
   12.6517   13.8154    5.8753 H   0  0  0  0  0  0  0  0  0  0  0  0
   10.1190   13.8017    6.9800 H   0  0  0  0  0  0  0  0  0  0  0  0
   10.8785   14.5315    8.3810 H   0  0  0  0  0  0  0  0  0  0  0  0
    8.8163   12.2494    4.2545 H   0  0  0  0  0  0  0  0  0  0  0  0
    9.7659   14.7180    4.8499 H   0  0  0  0  0  0  0  0  0  0  0  0
    9.9283   13.8389    3.2194 H   0  0  0  0  0  0  0  0  0  0  0  0
    9.2553   15.2145    7.8182 H   0  0  0  0  0  0  0  0  0  0  0  0
    7.9117   15.2779    5.3131 H   0  0  0  0  0  0  0  0  0  0  0  0
    7.1991   14.9082    6.9557 H   0  0  0  0  0  0  0  0  0  0  0  0
   10.2129   15.7758    3.2912 H   0  0  0  0  0  0  0  0  0  0  0  0
    8.9003   17.5921    5.1337 H   0  0  0  0  0  0  0  0  0  0  0  0
   10.5300   17.6761    4.6644 H   0  0  0  0  0  0  0  0  0  0  0  0
    6.7439   17.2717    2.9887 H   0  0  0  0  0  0  0  0  0  0  0  0
    4.2124   15.4419    5.2262 H   0  0  0  0  0  0  0  0  0  0  0  0
    3.9145   16.7435    4.0223 H   0  0  0  0  0  0  0  0  0  0  0  0
    5.2359   17.1015    6.5451 H   0  0  0  0  0  0  0  0  0  0  0  0
    5.1548   18.2910    5.2229 H   0  0  0  0  0  0  0  0  0  0  0  0
    7.0882   16.5456    5.9575 H   0  0  0  0  0  0  0  0  0  0  0  0
    7.2915   18.0349    5.2571 H   0  0  0  0  0  0  0  0  0  0  0  0
    8.5041   13.7176   -0.8845 H   0  0  0  0  0  0  0  0  0  0  0  0
    6.7983   13.7486    0.5398 H   0  0  0  0  0  0  0  0  0  0  0  0
    4.7830   12.8589    3.8387 H   0  0  0  0  0  0  0  0  0  0  0  0
    5.1269   15.4460   -2.0691 H   0  0  0  0  0  0  0  0  0  0  0  0
    6.4983   15.4586   -3.0934 H   0  0  0  0  0  0  0  0  0  0  0  0
    2.6075   14.2680    2.4632 H   0  0  0  0  0  0  0  0  0  0  0  0
    4.2912   14.9705   -0.5742 H   0  0  0  0  0  0  0  0  0  0  0  0
    4.8281   15.1273    1.0088 H   0  0  0  0  0  0  0  0  0  0  0  0
    5.6387   12.1302    1.5454 H   0  0  0  0  0  0  0  0  0  0  0  0
    4.0047   11.5593    1.7599 H   0  0  0  0  0  0  0  0  0  0  0  0
    4.1190   12.4713   -0.3772 H   0  0  0  0  0  0  0  0  0  0  0  0
    3.0331   13.3837    0.6564 H   0  0  0  0  0  0  0  0  0  0  0  0
    3.6745   12.8019    5.4278 H   0  0  0  0  0  0  0  0  0  0  0  0
    1.8006   11.7586    8.5546 H   0  0  0  0  0  0  0  0  0  0  0  0
    3.5005   12.1382    8.2354 H   0  0  0  0  0  0  0  0  0  0  0  0
    2.1059    9.7778    7.4829 H   0  0  0  0  0  0  0  0  0  0  0  0
    3.4809   10.4356    6.9115 H   0  0  0  0  0  0  0  0  0  0  0  0
    0.6705   11.2640    5.5058 H   0  0  0  0  0  0  0  0  0  0  0  0
    1.7124   10.5142    4.7065 H   0  0  0  0  0  0  0  0  0  0  0  0
    2.0039   13.5499    9.2904 H   0  0  0  0  0  0  0  0  0  0  0  0
    2.4441   15.6942   10.2482 H   0  0  0  0  0  0  0  0  0  0  0  0
    3.7257   15.2586    9.1103 H   0  0  0  0  0  0  0  0  0  0  0  0
    0.1487   14.8985    9.8045 H   0  0  0  0  0  0  0  0  0  0  0  0
    0.0513   15.4808    8.3508 H   0  0  0  0  0  0  0  0  0  0  0  0
    0.9117   16.1726    6.9929 H   0  0  0  0  0  0  0  0  0  0  0  0
    3.8464   17.9705    9.6132 H   0  0  0  0  0  0  0  0  0  0  0  0
    2.9047   20.1468    8.8365 H   0  0  0  0  0  0  0  0  0  0  0  0
    0.3707   18.1115    6.0300 H   0  0  0  0  0  0  0  0  0  0  0  0
    1.4029   20.2360    6.8572 H   0  0  0  0  0  0  0  0  0  0  0  0
  2  5  1  0  0  0  0
  2156  1  6  0  0  0
  2  4  1  0  0  0  0
  2  1  1  0  0  0  0
  3  1  2  0  0  0  0
  4157  1  0  0  0  0
  4158  1  0  0  0  0
  5159  1  0  0  0  0
  6  4  1  0  0  0  0
  6160  1  0  0  0  0
  7  6  1  0  0  0  0
  7161  1  0  0  0  0
  7162  1  0  0  0  0
  7163  1  0  0  0  0
  8  6  1  0  0  0  0
  8164  1  0  0  0  0
  8165  1  0  0  0  0
  8166  1  0  0  0  0
  9  1  1  0  0  0  0
  9167  1  0  0  0  0
 10  5  1  0  0  0  0
 11 10  2  0  0  0  0
 12 14  1  0  0  0  0
 12168  1  6  0  0  0
 12 13  1  0  0  0  0
 12 10  1  0  0  0  0
 13169  1  0  0  0  0
 13170  1  0  0  0  0
 14171  1  0  0  0  0
 15 13  1  0  0  0  0
 16 15  2  0  0  0  0
 16172  1  0  0  0  0
 17 15  1  0  0  0  0
 17173  1  0  0  0  0
 18 17  2  0  0  0  0
 18174  1  0  0  0  0
 19 18  1  0  0  0  0
 20 16  1  0  0  0  0
 20 19  2  0  0  0  0
 20175  1  0  0  0  0
 21 19  1  0  0  0  0
 21176  1  0  0  0  0
 23 14  1  0  0  0  0
 24 22  2  0  0  0  0
 25 22  1  0  0  0  0
 25177  1  0  0  0  0
 25178  1  0  0  0  0
 26 23  2  0  0  0  0
 27 25  1  0  0  0  0
 27179  1  0  0  0  0
 27180  1  0  0  0  0
 28 30  1  0  0  0  0
 28181  1  6  0  0  0
 28 27  1  0  0  0  0
 28 23  1  0  0  0  0
 29 22  1  0  0  0  0
 29182  1  0  0  0  0
 30183  1  0  0  0  0
 32 30  1  0  0  0  0
 33 31  2  0  0  0  0
 34 31  1  0  0  0  0
 34184  1  0  0  0  0
 34185  1  0  0  0  0
 35 32  2  0  0  0  0
 36 34  1  0  0  0  0
 36186  1  0  0  0  0
 36187  1  0  0  0  0
 37 39  1  0  0  0  0
 37188  1  6  0  0  0
 37 36  1  0  0  0  0
 37 32  1  0  0  0  0
 38 31  1  0  0  0  0
 38189  1  0  0  0  0
 39190  1  0  0  0  0
 40 39  1  0  0  0  0
 41 40  2  0  0  0  0
 42 40  1  0  0  0  0
 42 43  1  0  0  0  0
 42191  1  1  0  0  0
 44 43  1  0  0  0  0
 44192  1  0  0  0  0
 44193  1  0  0  0  0
 45 44  1  0  0  0  0
 45194  1  0  0  0  0
 45195  1  0  0  0  0
 46 42  1  0  0  0  0
 46 45  1  0  0  0  0
 46196  1  0  0  0  0
 46197  1  0  0  0  0
 47 43  1  0  0  0  0
 48 47  1  0  0  0  0
 48 50  1  0  0  0  0
 48198  1  6  0  0  0
 49 47  2  0  0  0  0
 50199  1  0  0  0  0
 51 53  1  0  0  0  0
 51200  1  1  0  0  0
 51 52  1  0  0  0  0
 51 48  1  0  0  0  0
 52201  1  0  0  0  0
 52202  1  0  0  0  0
 53203  1  0  0  0  0
 53204  1  0  0  0  0
 53205  1  0  0  0  0
 54 52  1  0  0  0  0
 54206  1  0  0  0  0
 54207  1  0  0  0  0
 54208  1  0  0  0  0
 56 50  1  0  0  0  0
 57 55  2  0  0  0  0
 58 55  1  0  0  0  0
 58209  1  0  0  0  0
 58210  1  0  0  0  0
 59 56  2  0  0  0  0
 60 58  1  0  0  0  0
 60211  1  0  0  0  0
 60212  1  0  0  0  0
 61 63  1  0  0  0  0
 61213  1  6  0  0  0
 61 60  1  0  0  0  0
 61 56  1  0  0  0  0
 62 55  1  0  0  0  0
 62214  1  0  0  0  0
 63215  1  0  0  0  0
 65 63  1  0  0  0  0
 66 64  2  0  0  0  0
 67 64  1  0  0  0  0
 67216  1  0  0  0  0
 67217  1  0  0  0  0
 68 65  2  0  0  0  0
 69 67  1  0  0  0  0
 69218  1  0  0  0  0
 69219  1  0  0  0  0
 70 72  1  0  0  0  0
 70220  1  6  0  0  0
 70 69  1  0  0  0  0
 70 65  1  0  0  0  0
 71 64  1  0  0  0  0
 71221  1  0  0  0  0
 72222  1  0  0  0  0
 73 72  1  0  0  0  0
 74 77  1  0  0  0  0
 74223  1  6  0  0  0
 74 76  1  0  0  0  0
 74 73  1  0  0  0  0
 75 73  2  0  0  0  0
 76224  1  0  0  0  0
 76225  1  0  0  0  0
 77226  1  0  0  0  0
 78 76  1  0  0  0  0
 79 78  2  0  0  0  0
 79227  1  0  0  0  0
 80 78  1  0  0  0  0
 80228  1  0  0  0  0
 81 80  2  0  0  0  0
 81229  1  0  0  0  0
 82 79  1  0  0  0  0
 82230  1  0  0  0  0
 83 81  1  0  0  0  0
 83 82  2  0  0  0  0
 83231  1  0  0  0  0
 84232  1  0  0  0  0
 85233  1  0  0  0  0
 88 85  1  0  0  0  0
 88234  1  1  0  0  0
 89 84  1  0  0  0  0
 89 86  2  0  0  0  0
 90 77  1  0  0  0  0
 90 87  2  0  0  0  0
 90 88  1  0  0  0  0
 91 88  1  0  0  0  0
 91 89  1  0  0  0  0
 91235  1  0  0  0  0
 91236  1  0  0  0  0
 92 85  1  0  0  0  0
 93 92  2  0  0  0  0
 94237  1  0  0  0  0
 95 92  1  0  0  0  0
 95 94  1  0  0  0  0
 95238  1  0  0  0  0
 95239  1  0  0  0  0
 96240  1  0  0  0  0
 96241  1  0  0  0  0
 97 94  1  0  0  0  0
 98 96  1  0  0  0  0
 99103  1  0  0  0  0
 99242  1  6  0  0  0
 99 97  1  0  0  0  0
 99 96  1  0  0  0  0
100 97  2  0  0  0  0
101 98  2  0  0  0  0
102 98  1  0  0  0  0
102243  1  0  0  0  0
102244  1  0  0  0  0
103245  1  0  0  0  0
104103  1  0  0  0  0
105104  2  0  0  0  0
106246  1  0  0  0  0
107104  1  0  0  0  0
107106  1  0  0  0  0
107247  1  0  0  0  0
107248  1  0  0  0  0
108106  1  0  0  0  0
109108  2  0  0  0  0
110249  1  0  0  0  0
111108  1  0  0  0  0
111110  1  0  0  0  0
111250  1  0  0  0  0
111251  1  0  0  0  0
112110  1  0  0  0  0
113112  2  0  0  0  0
114252  1  0  0  0  0
115112  1  0  0  0  0
115114  1  0  0  0  0
115253  1  0  0  0  0
115254  1  0  0  0  0
116114  1  0  0  0  0
117116  2  0  0  0  0
118255  1  0  0  0  0
119116  1  0  0  0  0
119118  1  0  0  0  0
119256  1  0  0  0  0
119257  1  0  0  0  0
120118  1  0  0  0  0
121120  2  0  0  0  0
122120  1  0  0  0  0
122123  1  0  0  0  0
122258  1  6  0  0  0
124123  1  0  0  0  0
124259  1  0  0  0  0
124260  1  0  0  0  0
125124  1  0  0  0  0
125261  1  0  0  0  0
125262  1  0  0  0  0
126122  1  0  0  0  0
126125  1  0  0  0  0
126263  1  0  0  0  0
126264  1  0  0  0  0
128123  1  0  0  0  0
129127  2  0  0  0  0
129265  1  0  0  0  0
130128  2  0  0  0  0
131127  1  0  0  0  0
131266  1  0  0  0  0
132134  1  0  0  0  0
132267  1  1  0  0  0
132136  1  0  0  0  0
132128  1  0  0  0  0
133127  1  0  0  0  0
133268  1  0  0  0  0
133269  1  0  0  0  0
134270  1  0  0  0  0
135131  1  0  0  0  0
135271  1  0  0  0  0
135272  1  0  0  0  0
136273  1  0  0  0  0
136274  1  0  0  0  0
137135  1  0  0  0  0
137136  1  0  0  0  0
137275  1  0  0  0  0
137276  1  0  0  0  0
138134  1  0  0  0  0
139138  2  0  0  0  0
140138  1  0  0  0  0
140141  1  0  0  0  0
140277  1  6  0  0  0
142141  1  0  0  0  0
142278  1  0  0  0  0
142279  1  0  0  0  0
143142  1  0  0  0  0
143280  1  0  0  0  0
143281  1  0  0  0  0
144140  1  0  0  0  0
144143  1  0  0  0  0
144282  1  0  0  0  0
144283  1  0  0  0  0
145141  1  0  0  0  0
146145  1  0  0  0  0
146149  1  0  0  0  0
146284  1  1  0  0  0
147145  2  0  0  0  0
148146  1  0  0  0  0
148285  1  0  0  0  0
148286  1  0  0  0  0
149287  1  0  0  0  0
149288  1  0  0  0  0
150148  1  0  0  0  0
151150  2  0  0  0  0
151289  1  0  0  0  0
152150  1  0  0  0  0
152290  1  0  0  0  0
153152  2  0  0  0  0
153291  1  0  0  0  0
154151  1  0  0  0  0
154292  1  0  0  0  0
155153  1  0  0  0  0
155154  2  0  0  0  0
155293  1  0  0  0  0
M  END
>  <DRUGBANK_ID>
DB00006

>  <SECONDARY_ACCESSION_NUMBERS>
BTD00076; EXPT03302; BIOD00076; DB02351

>  <COMMON_NAME>
Bivalirudin

>  <CAS_NUMBER>
128270-60-0

>  <UNII>
TN9BEX005G

>  <SYNONYMS>
Bivalirudin; Bivalirudina; Bivalirudinum

$$$$
