
 OpenBabel10282417233D

 69 72  0  0  0  0  0  0  0  0999 V2000
    4.8135    0.0496    0.6723 C   0  0  1  0  0  0  0  0  0  0  0  0
    4.2034    1.4527    0.6171 C   0  0  0  0  0  0  0  0  0  0  0  0
    2.7013    1.4145    0.7771 C   0  0  0  0  0  0  0  0  0  0  0  0
    4.1080   -1.0441   -0.1461 C   0  0  0  0  0  0  0  0  0  0  0  0
    2.6114   -0.9453   -0.0883 C   0  0  0  0  0  0  0  0  0  0  0  0
    1.9038   -2.0756    0.0630 C   0  0  0  0  0  0  0  0  0  0  0  0
    0.4184   -2.1316    0.1425 C   0  0  0  0  0  0  0  0  0  0  0  0
   -0.2744   -0.8385   -0.3054 C   0  0  1  0  0  0  0  0  0  0  0  0
   -1.7027   -0.7758    0.2368 C   0  0  2  0  0  0  0  0  0  0  0  0
   -2.6799   -1.9097   -0.0420 C   0  0  0  0  0  0  0  0  0  0  0  0
   -4.0134   -1.3322    0.4627 C   0  0  0  0  0  0  0  0  0  0  0  0
   -3.8047    0.1686    0.3583 C   0  0  0  0  0  0  0  0  0  0  0  0
   -2.4476    0.4903   -0.2261 C   0  0  2  0  0  0  0  0  0  0  0  0
   -2.6482    0.6133   -1.7464 C   0  0  0  0  0  0  0  0  0  0  0  0
   -1.7441    1.7120    0.3520 C   0  0  0  0  0  0  0  0  0  0  0  0
   -0.2788    1.7295   -0.0811 C   0  0  0  0  0  0  0  0  0  0  0  0
    0.4751    0.4099    0.2395 C   0  0  2  0  0  0  0  0  0  0  0  0
    1.9746    0.4449   -0.2030 C   0  0  1  0  0  0  0  0  0  0  0  0
    2.0610    0.9318   -1.6714 C   0  0  0  0  0  0  0  0  0  0  0  0
   -4.6424    1.0035    0.6701 O   0  0  0  0  0  0  0  0  0  0  0  0
    6.2236    0.0936    0.3764 O   0  0  0  0  0  0  0  0  0  0  0  0
    6.7432    0.3621   -0.8384 C   0  0  0  0  0  0  0  0  0  0  0  0
    5.8166    0.7960   -1.9483 C   0  0  0  0  0  0  0  0  0  0  0  0
    6.0129    2.2373   -2.3778 C   0  0  0  0  0  0  0  0  0  0  0  0
    7.3702    2.3917   -3.0352 C   0  0  0  0  0  0  0  0  0  0  0  0
    7.5071    1.4569   -4.2436 C   0  0  0  0  0  0  0  0  0  0  0  0
    6.4703    1.7658   -5.3258 C   0  0  0  0  0  0  0  0  0  0  0  0
    6.6348    3.1936   -5.8175 C   0  0  0  0  0  0  0  0  0  0  0  0
    7.9571    0.2478   -1.0191 O   0  0  0  0  0  0  0  0  0  0  0  0
    0.4678    0.3135    1.3368 H   0  0  0  0  0  0  0  0  0  0  0  0
   -0.2797   -0.8173   -1.4026 H   0  0  0  0  0  0  0  0  0  0  0  0
   -1.6068   -0.7409    1.3364 H   0  0  0  0  0  0  0  0  0  0  0  0
    4.7563   -0.2672    1.7227 H   0  0  0  0  0  0  0  0  0  0  0  0
    4.4089    1.9971   -0.2997 H   0  0  0  0  0  0  0  0  0  0  0  0
    4.6724    2.0859    1.3800 H   0  0  0  0  0  0  0  0  0  0  0  0
    2.3339    2.4388    0.6531 H   0  0  0  0  0  0  0  0  0  0  0  0
    2.4909    1.1260    1.8152 H   0  0  0  0  0  0  0  0  0  0  0  0
    4.4787   -2.0182    0.2006 H   0  0  0  0  0  0  0  0  0  0  0  0
    4.3863   -1.0611   -1.2018 H   0  0  0  0  0  0  0  0  0  0  0  0
    2.4216   -3.0309    0.1421 H   0  0  0  0  0  0  0  0  0  0  0  0
    0.1606   -2.3654    1.1817 H   0  0  0  0  0  0  0  0  0  0  0  0
    0.0644   -2.9645   -0.4757 H   0  0  0  0  0  0  0  0  0  0  0  0
   -2.4201   -2.8300    0.4899 H   0  0  0  0  0  0  0  0  0  0  0  0
   -2.7295   -2.1491   -1.1096 H   0  0  0  0  0  0  0  0  0  0  0  0
   -4.1861   -1.5923    1.5104 H   0  0  0  0  0  0  0  0  0  0  0  0
   -4.8485   -1.6453   -0.1662 H   0  0  0  0  0  0  0  0  0  0  0  0
   -3.2573    1.4951   -1.9766 H   0  0  0  0  0  0  0  0  0  0  0  0
   -1.7071    0.7058   -2.2942 H   0  0  0  0  0  0  0  0  0  0  0  0
   -3.1830   -0.2459   -2.1641 H   0  0  0  0  0  0  0  0  0  0  0  0
   -2.2300    2.6360    0.0171 H   0  0  0  0  0  0  0  0  0  0  0  0
   -1.7969    1.7149    1.4476 H   0  0  0  0  0  0  0  0  0  0  0  0
   -0.2572    1.9264   -1.1572 H   0  0  0  0  0  0  0  0  0  0  0  0
    0.2151    2.5810    0.3968 H   0  0  0  0  0  0  0  0  0  0  0  0
    1.7023    1.9583   -1.7890 H   0  0  0  0  0  0  0  0  0  0  0  0
    3.0618    0.9543   -2.0779 H   0  0  0  0  0  0  0  0  0  0  0  0
    1.4953    0.2817   -2.3469 H   0  0  0  0  0  0  0  0  0  0  0  0
    5.8553    0.0646   -2.7595 H   0  0  0  0  0  0  0  0  0  0  0  0
    4.7947    0.7317   -1.6577 H   0  0  0  0  0  0  0  0  0  0  0  0
    5.2000    2.5256   -3.0596 H   0  0  0  0  0  0  0  0  0  0  0  0
    5.9261    2.9258   -1.5302 H   0  0  0  0  0  0  0  0  0  0  0  0
    7.5249    3.4375   -3.3087 H   0  0  0  0  0  0  0  0  0  0  0  0
    8.1588    2.1827   -2.3090 H   0  0  0  0  0  0  0  0  0  0  0  0
    8.5192    1.5410   -4.6467 H   0  0  0  0  0  0  0  0  0  0  0  0
    7.4117    0.4052   -3.9485 H   0  0  0  0  0  0  0  0  0  0  0  0
    6.5899    1.0633   -6.1563 H   0  0  0  0  0  0  0  0  0  0  0  0
    5.4476    1.6162   -4.9571 H   0  0  0  0  0  0  0  0  0  0  0  0
    7.6490    3.3368   -6.2017 H   0  0  0  0  0  0  0  0  0  0  0  0
    5.9142    3.4211   -6.6033 H   0  0  0  0  0  0  0  0  0  0  0  0
    6.4712    3.9223   -5.0172 H   0  0  0  0  0  0  0  0  0  0  0  0
  1  2  1  0  0  0  0
  1  4  1  0  0  0  0
  1 21  1  0  0  0  0
  1 33  1  1  0  0  0
  2  3  1  0  0  0  0
  2 34  1  0  0  0  0
  2 35  1  0  0  0  0
  3 18  1  0  0  0  0
  3 36  1  0  0  0  0
  3 37  1  0  0  0  0
  4  5  1  0  0  0  0
  4 38  1  0  0  0  0
  4 39  1  0  0  0  0
  5  6  2  0  0  0  0
  5 18  1  0  0  0  0
  6  7  1  0  0  0  0
  6 40  1  0  0  0  0
  7  8  1  0  0  0  0
  7 41  1  0  0  0  0
  7 42  1  0  0  0  0
  8  9  1  0  0  0  0
  8 17  1  0  0  0  0
  8 31  1  6  0  0  0
  9 10  1  0  0  0  0
  9 13  1  0  0  0  0
  9 32  1  1  0  0  0
 10 11  1  0  0  0  0
 10 43  1  0  0  0  0
 10 44  1  0  0  0  0
 11 12  1  0  0  0  0
 11 45  1  0  0  0  0
 11 46  1  0  0  0  0
 12 13  1  0  0  0  0
 12 20  2  0  0  0  0
 13 14  1  6  0  0  0
 13 15  1  0  0  0  0
 14 47  1  0  0  0  0
 14 48  1  0  0  0  0
 14 49  1  0  0  0  0
 15 16  1  0  0  0  0
 15 50  1  0  0  0  0
 15 51  1  0  0  0  0
 16 17  1  0  0  0  0
 16 52  1  0  0  0  0
 16 53  1  0  0  0  0
 17 18  1  0  0  0  0
 17 30  1  1  0  0  0
 18 19  1  6  0  0  0
 19 54  1  0  0  0  0
 19 55  1  0  0  0  0
 19 56  1  0  0  0  0
 21 22  1  0  0  0  0
 22 23  1  0  0  0  0
 22 29  2  0  0  0  0
 23 24  1  0  0  0  0
 23 57  1  0  0  0  0
 23 58  1  0  0  0  0
 24 25  1  0  0  0  0
 24 59  1  0  0  0  0
 24 60  1  0  0  0  0
 25 26  1  0  0  0  0
 25 61  1  0  0  0  0
 25 62  1  0  0  0  0
 26 27  1  0  0  0  0
 26 63  1  0  0  0  0
 26 64  1  0  0  0  0
 27 28  1  0  0  0  0
 27 65  1  0  0  0  0
 27 66  1  0  0  0  0
 28 67  1  0  0  0  0
 28 68  1  0  0  0  0
 28 69  1  0  0  0  0
M  END
>  <DRUGBANK_ID>
DB16625

>  <COMMON_NAME>
Prasterone enantate

>  <CAS_NUMBER>
23983-43-9

>  <UNII>
2W8I1S6T5L

>  <SYNONYMS>
Dehydroepiandrosterone enanthate; DHEA enantate; DHEA enanthate; Prasterone enanthate

$$$$
