
 OpenBabel10282417203D

 71 75  0  0  1  0  0  0  0  0999 V2000
    0.9197   -0.2609    0.1611 C   0  0  0  0  0  0  0  0  0  0  0  0
    0.4497   -0.0744   -1.2867 C   0  0  0  0  0  0  0  0  0  0  0  0
    0.7140   -1.3044   -2.1460 C   0  0  0  0  0  0  0  0  0  0  0  0
   -1.0941    0.1470   -1.3718 C   0  0  0  0  0  0  0  0  0  0  0  0
   -1.5772    1.2695   -0.4995 C   0  0  0  0  0  0  0  0  0  0  0  0
   -1.9858    0.9708    0.7998 C   0  0  0  0  0  0  0  0  0  0  0  0
   -2.1871    1.9918    1.7151 C   0  0  0  0  0  0  0  0  0  0  0  0
   -1.9789    3.3271    1.3560 C   0  0  0  0  0  0  0  0  0  0  0  0
   -1.5628    3.6225    0.0522 C   0  0  0  0  0  0  0  0  0  0  0  0
   -1.4294    2.6025   -0.8922 C   0  0  0  0  0  0  0  0  0  0  0  0
   -2.1952    4.4080    2.1923 O   0  0  0  0  0  0  0  0  0  0  0  0
   -2.6252    4.1604    3.4848 C   0  0  0  0  0  0  0  0  0  0  0  0
   -1.8059    3.4679    4.3671 C   0  0  0  0  0  0  0  0  0  0  0  0
   -2.2710    3.1970    5.6513 C   0  0  0  0  0  0  0  0  0  0  0  0
   -3.5121    3.6840    6.0539 C   0  0  0  0  0  0  0  0  0  0  0  0
   -4.2422    4.4175    5.1198 C   0  0  0  0  0  0  0  0  0  0  0  0
   -3.8278    4.6628    3.8416 N   0  0  0  0  0  0  0  0  0  0  0  0
   -4.0765    3.4712    7.4200 C   0  0  0  0  0  0  0  0  0  0  0  0
   -5.1429    3.9228    7.7455 O   0  0  0  0  0  0  0  0  0  0  0  0
   -3.3244    2.7314    8.3112 N   0  0  0  0  0  0  0  0  0  0  0  0
    1.2403    1.0452   -1.7716 N   0  0  0  0  0  0  0  0  0  0  0  0
    2.7242    0.8495   -1.7524 C   0  0  0  0  0  0  0  0  0  0  0  0
    3.2974    0.0833   -2.9185 C   0  0  1  0  0  0  0  0  0  0  0  0
    2.5832    0.5335   -4.1966 C   0  0  0  0  0  0  0  0  0  0  0  0
    2.8875    1.8693   -4.5769 O   0  0  0  0  0  0  0  0  0  0  0  0
    2.5881    3.0278   -3.9482 C   0  0  0  0  0  0  0  0  0  0  0  0
    2.4354    3.4559   -2.6352 C   0  0  0  0  0  0  0  0  0  0  0  0
    2.5485    4.7338   -2.1406 C   0  0  0  0  0  0  0  0  0  0  0  0
    2.5640    5.7737   -3.0306 C   0  0  0  0  0  0  0  0  0  0  0  0
    2.4986    5.4153   -4.3901 C   0  0  0  0  0  0  0  0  0  0  0  0
    2.3925    4.0938   -4.7900 C   0  0  0  0  0  0  0  0  0  0  0  0
    1.7163    4.1263   -6.0089 C   0  0  0  0  0  0  0  0  0  0  0  0
    0.7636    3.2741   -6.5780 C   0  0  0  0  0  0  0  0  0  0  0  0
    0.4213    3.4409   -7.8999 C   0  0  0  0  0  0  0  0  0  0  0  0
    1.1798    4.3193   -8.6643 C   0  0  0  0  0  0  0  0  0  0  0  0
    2.0743    5.2588   -8.0690 C   0  0  0  0  0  0  0  0  0  0  0  0
    2.1695    5.2538   -6.6603 C   0  0  0  0  0  0  0  0  0  0  0  0
    2.5498    6.0979   -5.6046 N   0  0  0  0  0  0  0  0  0  0  0  0
    4.7104    0.3073   -3.0070 O   0  0  0  0  0  0  0  0  0  0  0  0
    0.4867   -1.1531    0.5987 H   0  0  0  0  0  0  0  0  0  0  0  0
    0.6957    0.6222    0.7740 H   0  0  0  0  0  0  0  0  0  0  0  0
    1.9986   -0.3993    0.2476 H   0  0  0  0  0  0  0  0  0  0  0  0
    0.1125   -2.1566   -1.8424 H   0  0  0  0  0  0  0  0  0  0  0  0
    0.5077   -1.1025   -3.2054 H   0  0  0  0  0  0  0  0  0  0  0  0
    1.7302   -1.6499   -2.0222 H   0  0  0  0  0  0  0  0  0  0  0  0
   -1.4361    0.3006   -2.4050 H   0  0  0  0  0  0  0  0  0  0  0  0
   -1.5757   -0.7859   -1.0423 H   0  0  0  0  0  0  0  0  0  0  0  0
   -2.0835   -0.0615    1.1282 H   0  0  0  0  0  0  0  0  0  0  0  0
   -2.4733    1.6928    2.7149 H   0  0  0  0  0  0  0  0  0  0  0  0
   -1.3176    4.6413   -0.2377 H   0  0  0  0  0  0  0  0  0  0  0  0
   -1.1469    2.8431   -1.9149 H   0  0  0  0  0  0  0  0  0  0  0  0
   -0.8411    3.0964    4.0410 H   0  0  0  0  0  0  0  0  0  0  0  0
   -1.6408    2.6070    6.3038 H   0  0  0  0  0  0  0  0  0  0  0  0
   -5.2105    4.8465    5.3728 H   0  0  0  0  0  0  0  0  0  0  0  0
   -2.4268    2.3198    8.1297 H   0  0  0  0  0  0  0  0  0  0  0  0
   -3.7141    2.6010    9.2366 H   0  0  0  0  0  0  0  0  0  0  0  0
    0.8575    1.4317   -2.6414 H   0  0  0  0  0  0  0  0  0  0  0  0
    3.3596    1.7317   -1.8316 H   0  0  0  0  0  0  0  0  0  0  0  0
    3.0829    0.6860   -0.7406 H   0  0  0  0  0  0  0  0  0  0  0  0
    3.2192   -0.9805   -2.7506 H   0  0  0  0  0  0  0  0  0  0  0  0
    2.9149   -0.1384   -4.9998 H   0  0  0  0  0  0  0  0  0  0  0  0
    1.4938    0.4318   -4.2113 H   0  0  0  0  0  0  0  0  0  0  0  0
    2.1316    2.8900   -1.7856 H   0  0  0  0  0  0  0  0  0  0  0  0
    2.5771    4.8170   -1.0524 H   0  0  0  0  0  0  0  0  0  0  0  0
    2.5073    6.7707   -2.6203 H   0  0  0  0  0  0  0  0  0  0  0  0
    0.2657    2.5541   -5.9402 H   0  0  0  0  0  0  0  0  0  0  0  0
   -0.3907    2.8501   -8.3131 H   0  0  0  0  0  0  0  0  0  0  0  0
    1.0297    4.2889   -9.7429 H   0  0  0  0  0  0  0  0  0  0  0  0
    2.6385    5.9227   -8.7148 H   0  0  0  0  0  0  0  0  0  0  0  0
    2.6920    7.0952   -5.6277 H   0  0  0  0  0  0  0  0  0  0  0  0
    4.8333    1.2382   -3.2716 H   0  0  0  0  0  0  0  0  0  0  0  0
  1  2  1  0  0  0  0
  1 40  1  0  0  0  0
  1 41  1  0  0  0  0
  1 42  1  0  0  0  0
  2  3  1  0  0  0  0
  2  4  1  0  0  0  0
  2 21  1  0  0  0  0
  3 43  1  0  0  0  0
  3 44  1  0  0  0  0
  3 45  1  0  0  0  0
  4  5  1  0  0  0  0
  4 46  1  0  0  0  0
  4 47  1  0  0  0  0
  5  6  2  0  0  0  0
  5 10  1  0  0  0  0
  6  7  1  0  0  0  0
  6 48  1  0  0  0  0
  7  8  2  0  0  0  0
  7 49  1  0  0  0  0
  8  9  1  0  0  0  0
  8 11  1  0  0  0  0
  9 10  2  0  0  0  0
  9 50  1  0  0  0  0
 10 51  1  0  0  0  0
 11 12  1  0  0  0  0
 12 13  2  0  0  0  0
 12 17  1  0  0  0  0
 13 14  1  0  0  0  0
 13 52  1  0  0  0  0
 14 15  2  0  0  0  0
 14 53  1  0  0  0  0
 15 16  1  0  0  0  0
 15 18  1  0  0  0  0
 16 17  2  0  0  0  0
 16 54  1  0  0  0  0
 18 19  2  0  0  0  0
 18 20  1  0  0  0  0
 20 55  1  0  0  0  0
 20 56  1  0  0  0  0
 21 22  1  0  0  0  0
 21 57  1  0  0  0  0
 22 23  1  0  0  0  0
 22 58  1  0  0  0  0
 22 59  1  0  0  0  0
 23 24  1  0  0  0  0
 23 39  1  0  0  0  0
 23 60  1  1  0  0  0
 24 25  1  0  0  0  0
 24 61  1  0  0  0  0
 24 62  1  0  0  0  0
 25 26  1  0  0  0  0
 26 27  2  0  0  0  0
 26 31  1  0  0  0  0
 27 28  1  0  0  0  0
 27 63  1  0  0  0  0
 28 29  2  0  0  0  0
 28 64  1  0  0  0  0
 29 30  1  0  0  0  0
 29 65  1  0  0  0  0
 30 31  2  0  0  0  0
 30 38  1  0  0  0  0
 31 32  1  0  0  0  0
 32 33  1  0  0  0  0
 32 37  2  0  0  0  0
 33 34  2  0  0  0  0
 33 66  1  0  0  0  0
 34 35  1  0  0  0  0
 34 67  1  0  0  0  0
 35 36  2  0  0  0  0
 35 68  1  0  0  0  0
 36 37  1  0  0  0  0
 36 69  1  0  0  0  0
 37 38  1  0  0  0  0
 38 70  1  0  0  0  0
 39 71  1  0  0  0  0
M  END
>  <DRUGBANK_ID>
DB12858

>  <COMMON_NAME>
LY-377604

>  <CAS_NUMBER>
204592-94-9

>  <UNII>
OCC6TB3P6K

$$$$
