
 OpenBabel10282417133D

 36 38  0  0  1  0  0  0  0  0999 V2000
    0.9905    0.1186   -0.0212 C   0  0  0  0  0  0  0  0  0  0  0  0
   -0.7588    4.1087    1.0801 C   0  0  0  0  0  0  0  0  0  0  0  0
    1.2519    4.7403   -2.7616 C   0  0  0  0  0  0  0  0  0  0  0  0
    0.4934    0.3368   -1.4800 C   0  0  2  0  0  0  0  0  0  0  0  0
    0.5681    5.4263   -0.8402 C   0  0  0  0  0  0  0  0  0  0  0  0
    1.6479    0.2318   -2.4945 C   0  0  2  0  0  0  0  0  0  0  0  0
    1.9439    1.6813   -2.8320 C   0  0  2  0  0  0  0  0  0  0  0  0
    0.2050    6.0997    0.3255 C   0  0  0  0  0  0  0  0  0  0  0  0
    0.2325    4.0887   -0.9077 C   0  0  0  0  0  0  0  0  0  0  0  0
    0.5821    2.3383   -2.6738 C   0  0  2  0  0  0  0  0  0  0  0  0
    0.7566    7.6705    0.5864 Cl  0  0  0  0  0  0  0  0  0  0  0  0
   -0.5263    5.4077    1.1945 N   0  3  0  0  0  0  0  0  0  0  0  0
   -0.3704    3.3622    0.0455 N   0  0  0  0  0  0  0  0  0  0  0  0
    1.2311    5.8065   -1.9856 N   0  0  0  0  0  0  0  0  0  0  0  0
    0.6671    3.6753   -2.1436 N   0  0  0  0  0  0  0  0  0  0  0  0
    1.2722   -0.5077   -3.6597 O   0  0  0  0  0  0  0  0  0  0  0  0
    2.4904    1.8828   -4.1275 O   0  0  0  0  0  0  0  0  0  0  0  0
    0.0226   -3.3696    0.4154 O   0  0  0  0  0  0  0  0  0  0  0  0
    0.2107   -2.1415   -1.6324 O   0  0  0  0  0  0  0  0  0  0  0  0
    1.6841   -3.7256   -1.1863 O   0  0  0  0  0  0  0  0  0  0  0  0
    0.5913   -1.1555    0.5307 O   0  0  0  0  0  0  0  0  0  0  0  0
   -0.1457    1.5811   -1.7198 O   0  0  0  0  0  0  0  0  0  0  0  0
    1.1680   -2.5118   -0.3754 P   0  0  0  0  0  0  0  0  0  0  0  0
   -0.3583   -0.2958   -1.6927 H   0  0  0  0  0  0  0  0  0  0  0  0
    2.5350   -0.2715   -2.0957 H   0  0  0  0  0  0  0  0  0  0  0  0
    2.6527    2.0853   -2.0985 H   0  0  0  0  0  0  0  0  0  0  0  0
    0.0171    2.3685   -3.6138 H   0  0  0  0  0  0  0  0  0  0  0  0
    0.6116    0.8938    0.6488 H   0  0  0  0  0  0  0  0  0  0  0  0
    2.0850    0.1559    0.0365 H   0  0  0  0  0  0  0  0  0  0  0  0
   -1.2678    3.5991    1.8940 H   0  0  0  0  0  0  0  0  0  0  0  0
    1.6867    4.6724   -3.7547 H   0  0  0  0  0  0  0  0  0  0  0  0
   -0.8993    5.9085    2.0016 H   0  0  0  0  0  0  0  0  0  0  0  0
    0.4273   -0.1791   -4.0176 H   0  0  0  0  0  0  0  0  0  0  0  0
    2.1036    1.2246   -4.7385 H   0  0  0  0  0  0  0  0  0  0  0  0
    0.3864   -3.9932    1.0625 H   0  0  0  0  0  0  0  0  0  0  0  0
    0.7429   -2.1711   -2.4578 H   0  0  0  0  0  0  0  0  0  0  0  0
  1 28  1  0  0  0  0
  1 29  1  0  0  0  0
  2 30  1  0  0  0  0
  3 31  1  0  0  0  0
  4  1  1  0  0  0  0
  4 24  1  6  0  0  0
  6  4  1  0  0  0  0
  6 16  1  0  0  0  0
  6 25  1  1  0  0  0
  7  6  1  0  0  0  0
  7 17  1  0  0  0  0
  7 26  1  1  0  0  0
  8  5  2  0  0  0  0
  9  5  1  0  0  0  0
 10  7  1  0  0  0  0
 10 27  1  6  0  0  0
 10 15  1  0  0  0  0
 11  8  1  0  0  0  0
 12  2  2  0  0  0  0
 12  8  1  0  0  0  0
 12 32  1  0  0  0  0
 13  2  1  0  0  0  0
 13  9  2  0  0  0  0
 14  3  2  0  0  0  0
 14  5  1  0  0  0  0
 15  3  1  0  0  0  0
 15  9  1  0  0  0  0
 16 33  1  0  0  0  0
 17 34  1  0  0  0  0
 18 35  1  0  0  0  0
 19 36  1  0  0  0  0
 21  1  1  0  0  0  0
 22  4  1  0  0  0  0
 22 10  1  0  0  0  0
 23 18  1  0  0  0  0
 23 19  1  0  0  0  0
 23 20  2  0  0  0  0
 23 21  1  0  0  0  0
M  CHG  1  12   1
M  END
>  <DRUGBANK_ID>
DB03948

>  <SECONDARY_ACCESSION_NUMBERS>
EXPT01004

>  <COMMON_NAME>
6-Chloropurine Riboside, 5'-Monophosphate

$$$$
