
 OpenBabel10282417203D

 64 67  0  0  0  0  0  0  0  0999 V2000
    0.9605   -0.0267    0.4164 C   0  0  0  0  0  0  0  0  0  0  0  0
    0.4598    1.3977    0.6337 C   0  0  0  0  0  0  0  0  0  0  0  0
    0.8349    2.4890   -0.3494 C   0  0  0  0  0  0  0  0  0  0  0  0
    0.6137    3.7833   -0.1667 N   0  0  0  0  0  0  0  0  0  0  0  0
    1.0919    4.4276   -1.3009 C   0  0  0  0  0  0  0  0  0  0  0  0
    1.0673    5.7707   -1.6919 C   0  0  0  0  0  0  0  0  0  0  0  0
    1.6024    6.1340   -2.9131 N   0  0  0  0  0  0  0  0  0  0  0  0
    2.1466    5.1999   -3.7336 C   0  0  0  0  0  0  0  0  0  0  0  0
    2.1995    3.8629   -3.4115 C   0  0  0  0  0  0  0  0  0  0  0  0
    1.6607    3.5289   -2.1689 C   0  0  0  0  0  0  0  0  0  0  0  0
    1.4719    2.3247   -1.5548 N   0  0  0  0  0  0  0  0  0  0  0  0
    1.8209    1.1620   -2.1887 C   0  0  0  0  0  0  0  0  0  0  0  0
    3.1332    1.0385   -2.5925 C   0  0  0  0  0  0  0  0  0  0  0  0
    3.4119   -0.0823   -3.3193 C   0  0  0  0  0  0  0  0  0  0  0  0
    2.4666   -1.1359   -3.3475 C   0  0  0  0  0  0  0  0  0  0  0  0
    1.1799   -0.9683   -2.9228 C   0  0  0  0  0  0  0  0  0  0  0  0
    0.8178    0.2452   -2.4686 C   0  0  0  0  0  0  0  0  0  0  0  0
    2.6548   -2.5709   -3.6680 C   0  0  0  0  0  0  0  0  0  0  0  0
    2.7000   -3.3536   -2.2403 C   0  0  0  0  0  0  0  0  0  0  0  0
    1.5077   -4.0124   -1.8826 N   0  0  0  0  0  0  0  0  0  0  0  0
    1.2572   -5.3261   -2.2239 C   0  0  0  0  0  0  0  0  0  0  0  0
    0.1120   -5.6858   -2.1567 O   0  0  0  0  0  0  0  0  0  0  0  0
    2.2668   -6.2406   -2.6682 N   0  0  0  0  0  0  0  0  0  0  0  0
    3.9577   -6.4865   -2.9130 S   0  0  0  0  0  0  0  0  0  0  0  0
    4.3866   -7.4503   -1.9543 O   0  0  0  0  0  0  0  0  0  0  0  0
    4.0388   -6.8175   -4.3464 O   0  0  0  0  0  0  0  0  0  0  0  0
    5.0826   -4.9976   -2.7121 C   0  0  0  0  0  0  0  0  0  0  0  0
    5.9042   -4.6585   -1.6311 C   0  0  0  0  0  0  0  0  0  0  0  0
    6.2454   -3.2660   -1.2951 C   0  0  0  0  0  0  0  0  0  0  0  0
    5.8038   -2.1755   -2.0176 C   0  0  0  0  0  0  0  0  0  0  0  0
    5.3249   -2.6008   -3.2500 C   0  0  0  0  0  0  0  0  0  0  0  0
    4.9398   -3.9763   -3.6081 C   0  0  0  0  0  0  0  0  0  0  0  0
    5.8217   -0.7058   -1.5502 C   0  0  0  0  0  0  0  0  0  0  0  0
    2.7202    5.6046   -5.0624 C   0  0  0  0  0  0  0  0  0  0  0  0
    0.4548    6.8115   -0.8225 C   0  0  0  0  0  0  0  0  0  0  0  0
    0.4229   -0.4933   -0.4021 H   0  0  0  0  0  0  0  0  0  0  0  0
    0.7085   -0.6992    1.2383 H   0  0  0  0  0  0  0  0  0  0  0  0
    2.0407   -0.0791    0.2393 H   0  0  0  0  0  0  0  0  0  0  0  0
   -0.6346    1.3611    0.6530 H   0  0  0  0  0  0  0  0  0  0  0  0
    0.8021    1.7066    1.6261 H   0  0  0  0  0  0  0  0  0  0  0  0
    2.6150    3.1310   -4.0967 H   0  0  0  0  0  0  0  0  0  0  0  0
    3.8953    1.7897   -2.3630 H   0  0  0  0  0  0  0  0  0  0  0  0
    4.4058   -0.0800   -3.7499 H   0  0  0  0  0  0  0  0  0  0  0  0
    0.5030   -1.8144   -2.9334 H   0  0  0  0  0  0  0  0  0  0  0  0
   -0.2200    0.3874   -2.2170 H   0  0  0  0  0  0  0  0  0  0  0  0
    1.9053   -2.9829   -4.3532 H   0  0  0  0  0  0  0  0  0  0  0  0
    3.4431   -2.5139   -4.4204 H   0  0  0  0  0  0  0  0  0  0  0  0
    3.2612   -4.2447   -2.2164 H   0  0  0  0  0  0  0  0  0  0  0  0
    3.1420   -2.8517   -1.3656 H   0  0  0  0  0  0  0  0  0  0  0  0
    0.7578   -3.4790   -1.4639 H   0  0  0  0  0  0  0  0  0  0  0  0
    1.7850   -7.1234   -2.8842 H   0  0  0  0  0  0  0  0  0  0  0  0
    6.3250   -5.4434   -1.0218 H   0  0  0  0  0  0  0  0  0  0  0  0
    6.9219   -3.0435   -0.4764 H   0  0  0  0  0  0  0  0  0  0  0  0
    5.0560   -1.8063   -3.9254 H   0  0  0  0  0  0  0  0  0  0  0  0
    4.1783   -4.2035   -4.3753 H   0  0  0  0  0  0  0  0  0  0  0  0
    5.9823    0.0009   -2.3792 H   0  0  0  0  0  0  0  0  0  0  0  0
    4.8935   -0.3672   -1.0433 H   0  0  0  0  0  0  0  0  0  0  0  0
    6.6225   -0.4753   -0.8433 H   0  0  0  0  0  0  0  0  0  0  0  0
    3.7830    5.3368   -5.1050 H   0  0  0  0  0  0  0  0  0  0  0  0
    2.2046    5.0724   -5.8713 H   0  0  0  0  0  0  0  0  0  0  0  0
    2.6210    6.6777   -5.2285 H   0  0  0  0  0  0  0  0  0  0  0  0
   -0.5959    6.5636   -0.6396 H   0  0  0  0  0  0  0  0  0  0  0  0
    0.9799    6.8356    0.1372 H   0  0  0  0  0  0  0  0  0  0  0  0
    0.5137    7.7954   -1.2895 H   0  0  0  0  0  0  0  0  0  0  0  0
  1  2  1  0  0  0  0
  1 36  1  0  0  0  0
  1 37  1  0  0  0  0
  1 38  1  0  0  0  0
  2  3  1  0  0  0  0
  2 39  1  0  0  0  0
  2 40  1  0  0  0  0
  3  4  2  0  0  0  0
  3 11  1  0  0  0  0
  4  5  1  0  0  0  0
  5  6  2  0  0  0  0
  5 10  1  0  0  0  0
  6  7  1  0  0  0  0
  6 35  1  0  0  0  0
  7  8  2  0  0  0  0
  8  9  1  0  0  0  0
  8 34  1  0  0  0  0
  9 10  2  0  0  0  0
  9 41  1  0  0  0  0
 10 11  1  0  0  0  0
 11 12  1  0  0  0  0
 12 13  2  0  0  0  0
 12 17  1  0  0  0  0
 13 14  1  0  0  0  0
 13 42  1  0  0  0  0
 14 15  2  0  0  0  0
 14 43  1  0  0  0  0
 15 16  1  0  0  0  0
 15 18  1  0  0  0  0
 16 17  2  0  0  0  0
 16 44  1  0  0  0  0
 17 45  1  0  0  0  0
 18 19  1  0  0  0  0
 18 46  1  0  0  0  0
 18 47  1  0  0  0  0
 19 20  1  0  0  0  0
 19 48  1  0  0  0  0
 19 49  1  0  0  0  0
 20 21  1  0  0  0  0
 20 50  1  0  0  0  0
 21 22  2  0  0  0  0
 21 23  1  0  0  0  0
 23 24  1  0  0  0  0
 23 51  1  0  0  0  0
 24 25  2  0  0  0  0
 24 26  2  0  0  0  0
 24 27  1  0  0  0  0
 27 28  2  0  0  0  0
 27 32  1  0  0  0  0
 28 29  1  0  0  0  0
 28 52  1  0  0  0  0
 29 30  2  0  0  0  0
 29 53  1  0  0  0  0
 30 31  1  0  0  0  0
 30 33  1  0  0  0  0
 31 32  2  0  0  0  0
 31 54  1  0  0  0  0
 32 55  1  0  0  0  0
 33 56  1  0  0  0  0
 33 57  1  0  0  0  0
 33 58  1  0  0  0  0
 34 59  1  0  0  0  0
 34 60  1  0  0  0  0
 34 61  1  0  0  0  0
 35 62  1  0  0  0  0
 35 63  1  0  0  0  0
 35 64  1  0  0  0  0
M  END
>  <DRUGBANK_ID>
DB12836

>  <COMMON_NAME>
Grapiprant

>  <CAS_NUMBER>
415903-37-6

>  <UNII>
J9F5ZPH7NB

>  <SYNONYMS>
Grapiprant

$$$$
