1210
 OpenBabel10282417113D

 46 47  0  0  1  0  0  0  0  0999 V2000
    0.9621    0.0144    0.0598 O   0  0  0  0  0  0  0  0  0  0  0  0
    2.4763    2.2388    0.9799 O   0  0  0  0  0  0  0  0  0  0  0  0
   -0.2367   -5.5470    2.1797 O   0  0  0  0  0  0  0  0  0  0  0  0
    5.0542    0.6559   -1.1982 N   0  0  0  0  0  0  0  0  0  0  0  0
    6.5273    0.6488   -1.1784 C   0  0  0  0  0  0  0  0  0  0  0  0
    1.9456   -2.0694    2.0462 C   0  0  0  0  0  0  0  0  0  0  0  0
    0.8035   -2.2463    1.0817 C   0  0  0  0  0  0  0  0  0  0  0  0
    4.4488    1.4372   -0.1109 C   0  0  0  0  0  0  0  0  0  0  0  0
    2.4250   -3.3337    2.7184 C   0  0  0  0  0  0  0  0  0  0  0  0
    2.9132    1.4735   -0.1586 C   0  0  1  0  0  0  0  0  0  0  0  0
    1.2547   -4.0599    3.3149 C   0  0  0  0  0  0  0  0  0  0  0  0
    0.0348   -3.4294    1.1496 C   0  0  0  0  0  0  0  0  0  0  0  0
    7.0602   -0.0184    0.1005 C   0  0  0  0  0  0  0  0  0  0  0  0
    6.9936   -0.1796   -2.3895 C   0  0  0  0  0  0  0  0  0  0  0  0
    7.0705    2.0757   -1.3193 C   0  0  0  0  0  0  0  0  0  0  0  0
    0.4242   -1.2513    0.1543 C   0  0  0  0  0  0  0  0  0  0  0  0
    2.3845    0.0557   -0.0173 C   0  0  0  0  0  0  0  0  0  0  0  0
    0.3156   -4.4570    2.1993 C   0  0  0  0  0  0  0  0  0  0  0  0
   -1.0375   -3.6467    0.2767 C   0  0  0  0  0  0  0  0  0  0  0  0
   -0.6747   -1.4677   -0.6901 C   0  0  0  0  0  0  0  0  0  0  0  0
   -1.3913   -2.6645   -0.6434 C   0  0  0  0  0  0  0  0  0  0  0  0
    1.5100    2.1210    1.0319 H   0  0  0  0  0  0  0  0  0  0  0  0
    4.7390   -0.3129   -1.1583 H   0  0  0  0  0  0  0  0  0  0  0  0
    1.6785   -1.2995    2.7807 H   0  0  0  0  0  0  0  0  0  0  0  0
    2.8479   -1.8056    1.5087 H   0  0  0  0  0  0  0  0  0  0  0  0
    4.7875    2.4759   -0.1187 H   0  0  0  0  0  0  0  0  0  0  0  0
    4.7494    1.0307    0.8646 H   0  0  0  0  0  0  0  0  0  0  0  0
    3.1772   -3.0750    3.4713 H   0  0  0  0  0  0  0  0  0  0  0  0
    2.9235   -3.9607    1.9654 H   0  0  0  0  0  0  0  0  0  0  0  0
    2.5407    1.9657   -1.0582 H   0  0  0  0  0  0  0  0  0  0  0  0
    0.7179   -3.4291    4.0311 H   0  0  0  0  0  0  0  0  0  0  0  0
    1.6157   -4.9543    3.8283 H   0  0  0  0  0  0  0  0  0  0  0  0
    6.6765   -1.0411    0.2034 H   0  0  0  0  0  0  0  0  0  0  0  0
    8.1533   -0.0683    0.0888 H   0  0  0  0  0  0  0  0  0  0  0  0
    6.7817    0.5339    1.0034 H   0  0  0  0  0  0  0  0  0  0  0  0
    6.6351    0.2482   -3.3333 H   0  0  0  0  0  0  0  0  0  0  0  0
    8.0882   -0.2130   -2.4362 H   0  0  0  0  0  0  0  0  0  0  0  0
    6.6358   -1.2152   -2.3362 H   0  0  0  0  0  0  0  0  0  0  0  0
    6.6843    2.5526   -2.2283 H   0  0  0  0  0  0  0  0  0  0  0  0
    6.7990    2.7079   -0.4682 H   0  0  0  0  0  0  0  0  0  0  0  0
    8.1626    2.0764   -1.3704 H   0  0  0  0  0  0  0  0  0  0  0  0
    2.8059   -0.2016    0.9420 H   0  0  0  0  0  0  0  0  0  0  0  0
    2.7392   -0.6152   -0.8077 H   0  0  0  0  0  0  0  0  0  0  0  0
   -1.6127   -4.5695    0.3312 H   0  0  0  0  0  0  0  0  0  0  0  0
   -0.9801   -0.6935   -1.3918 H   0  0  0  0  0  0  0  0  0  0  0  0
   -2.2401   -2.8216   -1.3049 H   0  0  0  0  0  0  0  0  0  0  0  0
  1 16  1  0  0  0  0
  1 17  1  0  0  0  0
  2 22  1  0  0  0  0
  3 18  2  0  0  0  0
  4  5  1  0  0  0  0
  4  8  1  0  0  0  0
  4 23  1  0  0  0  0
  5 13  1  0  0  0  0
  5 14  1  0  0  0  0
  5 15  1  0  0  0  0
  6  7  1  0  0  0  0
  6  9  1  0  0  0  0
  6 24  1  0  0  0  0
  6 25  1  0  0  0  0
  7 12  2  0  0  0  0
  7 16  1  0  0  0  0
  8 10  1  0  0  0  0
  8 26  1  0  0  0  0
  8 27  1  0  0  0  0
  9 11  1  0  0  0  0
  9 28  1  0  0  0  0
  9 29  1  0  0  0  0
 10  2  1  0  0  0  0
 10 17  1  0  0  0  0
 10 30  1  6  0  0  0
 11 18  1  0  0  0  0
 11 31  1  0  0  0  0
 11 32  1  0  0  0  0
 12 18  1  0  0  0  0
 12 19  1  0  0  0  0
 13 33  1  0  0  0  0
 13 34  1  0  0  0  0
 13 35  1  0  0  0  0
 14 36  1  0  0  0  0
 14 37  1  0  0  0  0
 14 38  1  0  0  0  0
 15 39  1  0  0  0  0
 15 40  1  0  0  0  0
 15 41  1  0  0  0  0
 16 20  2  0  0  0  0
 17 42  1  0  0  0  0
 17 43  1  0  0  0  0
 19 21  2  0  0  0  0
 19 44  1  0  0  0  0
 20 21  1  0  0  0  0
 20 45  1  0  0  0  0
 21 46  1  0  0  0  0
M  END
>  <DRUGBANK_ID>
DB01210

>  <SECONDARY_ACCESSION_NUMBERS>
APRD00165

>  <COMMON_NAME>
Levobunolol

>  <CAS_NUMBER>
47141-42-4

>  <UNII>
G6317AOI7K

>  <SYNONYMS>
(-)-Bunolol; (S)-5-(3-((1,1-dimethylethyl)amino)-2-hydroxypropoxy)-3,4-dihydro-1(2H)-naphthalenone; Levobunolol; Levobunololum

$$$$
