
 OpenBabel10282417243D

105104  0  0  1  0  0  0  0  0999 V2000
   -0.4288   -1.7280   -0.4668 C   0  0  0  0  0  0  0  0  0  0  0  0
   -1.5987   -1.2203    0.3929 C   0  0  0  0  0  0  0  0  0  0  0  0
   -2.4459   -2.3970    0.8719 C   0  0  0  0  0  0  0  0  0  0  0  0
   -1.0585   -0.2648    1.5399 C   0  0  2  0  0  0  0  0  0  0  0  0
    0.4363   -0.1921    1.6098 N   0  0  0  0  0  0  0  0  0  0  0  0
    1.1789   -0.0558    2.7678 C   0  0  0  0  0  0  0  0  0  0  0  0
    2.6710   -0.2283    2.6053 C   0  0  0  0  0  0  0  0  0  0  0  0
    0.7128    0.0409    3.8995 O   0  0  0  0  0  0  0  0  0  0  0  0
   -1.6190   -0.6271    2.9315 C   0  0  0  0  0  0  0  0  0  0  0  0
   -2.4382    0.1049    3.4939 O   0  0  0  0  0  0  0  0  0  0  0  0
   -1.2127   -1.7919    3.5520 N   0  0  0  0  0  0  0  0  0  0  0  0
   -0.2946   -2.8797    3.0638 C   0  0  1  0  0  0  0  0  0  0  0  0
    1.0500   -3.0706    3.7587 C   0  0  0  0  0  0  0  0  0  0  0  0
    1.0516   -3.2581    5.1464 O   0  0  0  0  0  0  0  0  0  0  0  0
   -1.0033   -4.2532    2.8840 C   0  0  0  0  0  0  0  0  0  0  0  0
   -0.9367   -4.9265    1.8541 O   0  0  0  0  0  0  0  0  0  0  0  0
   -1.7744   -4.7252    3.8917 N   0  0  0  0  0  0  0  0  0  0  0  0
   -1.5381   -4.3527    5.2597 C   0  0  1  0  0  0  0  0  0  0  0  0
   -2.8004   -3.7743    5.9629 C   0  0  0  0  0  0  0  0  0  0  0  0
   -3.7030   -4.8207    6.5672 C   0  0  0  0  0  0  0  0  0  0  0  0
   -2.8057   -5.3889    7.6609 C   0  0  0  0  0  0  0  0  0  0  0  0
   -2.8394   -4.9724    9.0112 N   0  0  0  0  0  0  0  0  0  0  0  0
   -3.0957   -5.9604    9.8993 C   0  0  0  0  0  0  0  0  0  0  0  0
   -2.3170   -5.8234   10.9706 N   0  0  0  0  0  0  0  0  0  0  0  0
   -3.9256   -6.9367    9.7798 N   0  0  0  0  0  0  0  0  0  0  0  0
   -0.5804   -5.4484    5.8993 C   0  0  0  0  0  0  0  0  0  0  0  0
    0.3527   -5.1736    6.6629 O   0  0  0  0  0  0  0  0  0  0  0  0
   -0.9579   -6.7750    5.9055 N   0  0  0  0  0  0  0  0  0  0  0  0
   -2.3174   -7.3323    5.6279 C   0  0  1  0  0  0  0  0  0  0  0  0
   -2.3004   -8.3005    4.4423 C   0  0  0  0  0  0  0  0  0  0  0  0
   -1.9117   -9.6791    4.8906 C   0  0  0  0  0  0  0  0  0  0  0  0
   -3.0208  -10.2536    5.7628 C   0  0  0  0  0  0  0  0  0  0  0  0
   -4.3694  -10.5768    5.4395 N   0  0  0  0  0  0  0  0  0  0  0  0
   -4.7516  -11.6501    6.2136 C   0  0  0  0  0  0  0  0  0  0  0  0
   -6.0972  -11.6970    6.3063 N   0  0  0  0  0  0  0  0  0  0  0  0
   -3.9874  -12.4926    6.7247 N   0  0  0  0  0  0  0  0  0  0  0  0
   -3.3553   -7.7815    6.9233 C   0  0  0  0  0  0  0  0  0  0  0  0
   -4.5833   -7.5655    6.8635 O   0  0  0  0  0  0  0  0  0  0  0  0
   -2.7752   -8.5735    7.9601 N   0  0  0  0  0  0  0  0  0  0  0  0
   -1.4269   -9.3461    7.9792 C   0  0  1  0  0  0  0  0  0  0  0  0
   -0.6426   -9.0084    9.2381 C   0  0  0  0  0  0  0  0  0  0  0  0
   -1.3303   -9.4952   10.5091 C   0  0  0  0  0  0  0  0  0  0  0  0
   -1.6637  -10.9690   10.5001 C   0  0  0  0  0  0  0  0  0  0  0  0
   -0.4242  -11.7228   10.2306 N   0  0  0  0  0  0  0  0  0  0  0  0
   -0.2029  -12.8932   10.8494 C   0  0  0  0  0  0  0  0  0  0  0  0
    0.9002  -13.5452   10.4454 N   0  0  0  0  0  0  0  0  0  0  0  0
   -0.9394  -13.2832   11.8225 N   0  0  0  0  0  0  0  0  0  0  0  0
   -1.2929  -11.0314    7.6291 C   0  0  0  0  0  0  0  0  0  0  0  0
   -0.7995  -11.6065    6.5043 N   0  0  0  0  0  0  0  0  0  0  0  0
   -1.9000  -11.9212    8.2129 O   0  0  0  0  0  0  0  0  0  0  0  0
    0.3933   -2.1305    0.1365 H   0  0  0  0  0  0  0  0  0  0  0  0
   -0.0226   -0.8935   -1.0449 H   0  0  0  0  0  0  0  0  0  0  0  0
   -0.7169   -2.5291   -1.1489 H   0  0  0  0  0  0  0  0  0  0  0  0
   -2.2831   -0.6597   -0.2543 H   0  0  0  0  0  0  0  0  0  0  0  0
   -1.7897   -2.9460    1.4747 H   0  0  0  0  0  0  0  0  0  0  0  0
   -3.2890   -2.1591    1.5274 H   0  0  0  0  0  0  0  0  0  0  0  0
   -2.7111   -3.1540    0.1314 H   0  0  0  0  0  0  0  0  0  0  0  0
   -1.3950    0.7492    1.2799 H   0  0  0  0  0  0  0  0  0  0  0  0
    0.9182    0.0060    0.7426 H   0  0  0  0  0  0  0  0  0  0  0  0
    3.1481    0.5220    3.2344 H   0  0  0  0  0  0  0  0  0  0  0  0
    3.0143   -1.2038    2.9663 H   0  0  0  0  0  0  0  0  0  0  0  0
    2.9933   -0.1518    1.5700 H   0  0  0  0  0  0  0  0  0  0  0  0
   -1.6450   -1.8416    4.4630 H   0  0  0  0  0  0  0  0  0  0  0  0
    0.0184   -2.5948    2.0659 H   0  0  0  0  0  0  0  0  0  0  0  0
    1.6015   -3.8804    3.2727 H   0  0  0  0  0  0  0  0  0  0  0  0
    1.6370   -2.1895    3.6610 H   0  0  0  0  0  0  0  0  0  0  0  0
    0.6333   -2.4741    5.5474 H   0  0  0  0  0  0  0  0  0  0  0  0
   -2.1302   -5.6399    3.6527 H   0  0  0  0  0  0  0  0  0  0  0  0
   -0.9666   -3.4509    5.2688 H   0  0  0  0  0  0  0  0  0  0  0  0
   -2.4622   -3.1540    6.8067 H   0  0  0  0  0  0  0  0  0  0  0  0
   -3.3498   -3.1110    5.2928 H   0  0  0  0  0  0  0  0  0  0  0  0
   -4.6650   -4.4743    6.9375 H   0  0  0  0  0  0  0  0  0  0  0  0
   -4.0234   -5.4247    5.7039 H   0  0  0  0  0  0  0  0  0  0  0  0
   -2.4358   -6.3779    7.7055 H   0  0  0  0  0  0  0  0  0  0  0  0
   -1.8341   -5.0432    7.4153 H   0  0  0  0  0  0  0  0  0  0  0  0
   -1.8816   -4.6464    9.1621 H   0  0  0  0  0  0  0  0  0  0  0  0
   -2.7888   -6.1834   11.7874 H   0  0  0  0  0  0  0  0  0  0  0  0
   -2.0811   -4.8483   11.1032 H   0  0  0  0  0  0  0  0  0  0  0  0
   -3.8685   -7.5455   10.5936 H   0  0  0  0  0  0  0  0  0  0  0  0
   -0.3771   -7.2025    6.6200 H   0  0  0  0  0  0  0  0  0  0  0  0
   -2.8228   -6.5226    5.1460 H   0  0  0  0  0  0  0  0  0  0  0  0
   -3.3104   -8.3606    4.0288 H   0  0  0  0  0  0  0  0  0  0  0  0
   -1.6139   -7.9386    3.6749 H   0  0  0  0  0  0  0  0  0  0  0  0
   -1.6495  -10.3505    4.0875 H   0  0  0  0  0  0  0  0  0  0  0  0
   -0.9641   -9.4722    5.4213 H   0  0  0  0  0  0  0  0  0  0  0  0
   -2.9395  -10.5015    6.8003 H   0  0  0  0  0  0  0  0  0  0  0  0
   -3.2629   -9.3126    6.0474 H   0  0  0  0  0  0  0  0  0  0  0  0
   -4.9433   -9.7656    5.7224 H   0  0  0  0  0  0  0  0  0  0  0  0
   -6.3507  -12.6737    6.3151 H   0  0  0  0  0  0  0  0  0  0  0  0
   -6.4992  -11.2177    5.5194 H   0  0  0  0  0  0  0  0  0  0  0  0
   -4.4650  -13.1360    7.3787 H   0  0  0  0  0  0  0  0  0  0  0  0
   -3.4462   -8.6939    8.7322 H   0  0  0  0  0  0  0  0  0  0  0  0
   -0.8637   -8.8592    7.2055 H   0  0  0  0  0  0  0  0  0  0  0  0
    0.3524   -9.4547    9.1236 H   0  0  0  0  0  0  0  0  0  0  0  0
   -0.4818   -7.9239    9.3089 H   0  0  0  0  0  0  0  0  0  0  0  0
   -0.7021   -9.2840   11.3743 H   0  0  0  0  0  0  0  0  0  0  0  0
   -2.2700   -8.9559   10.6333 H   0  0  0  0  0  0  0  0  0  0  0  0
   -2.1337  -11.2851   11.4278 H   0  0  0  0  0  0  0  0  0  0  0  0
   -2.5216  -11.0793    9.8231 H   0  0  0  0  0  0  0  0  0  0  0  0
   -0.1108  -11.7442    9.2688 H   0  0  0  0  0  0  0  0  0  0  0  0
    1.2195  -14.3467   10.9657 H   0  0  0  0  0  0  0  0  0  0  0  0
    1.4590  -13.2651    9.6528 H   0  0  0  0  0  0  0  0  0  0  0  0
   -0.5768  -14.1460   12.2040 H   0  0  0  0  0  0  0  0  0  0  0  0
   -1.4885  -12.3565    6.3038 H   0  0  0  0  0  0  0  0  0  0  0  0
   -0.4724  -11.1891    5.6577 H   0  0  0  0  0  0  0  0  0  0  0  0
  1  2  1  0  0  0  0
  1 51  1  0  0  0  0
  1 52  1  0  0  0  0
  1 53  1  0  0  0  0
  2  3  1  0  0  0  0
  2 54  1  0  0  0  0
  3 55  1  0  0  0  0
  3 56  1  0  0  0  0
  3 57  1  0  0  0  0
  4  9  1  0  0  0  0
  4 58  1  6  0  0  0
  4  5  1  0  0  0  0
  4  2  1  0  0  0  0
  5  6  1  0  0  0  0
  5 59  1  0  0  0  0
  6  7  1  0  0  0  0
  6  8  2  0  0  0  0
  7 60  1  0  0  0  0
  7 61  1  0  0  0  0
  7 62  1  0  0  0  0
  9 10  2  0  0  0  0
  9 11  1  0  0  0  0
 11 63  1  0  0  0  0
 12 11  1  0  0  0  0
 12 13  1  0  0  0  0
 12 15  1  0  0  0  0
 12 64  1  6  0  0  0
 13 14  1  0  0  0  0
 13 65  1  0  0  0  0
 13 66  1  0  0  0  0
 14 67  1  0  0  0  0
 15 16  2  0  0  0  0
 15 17  1  0  0  0  0
 17 68  1  0  0  0  0
 18 17  1  0  0  0  0
 18 19  1  0  0  0  0
 18 26  1  0  0  0  0
 18 69  1  6  0  0  0
 19 20  1  0  0  0  0
 19 70  1  0  0  0  0
 19 71  1  0  0  0  0
 20 21  1  0  0  0  0
 20 72  1  0  0  0  0
 20 73  1  0  0  0  0
 21 22  1  0  0  0  0
 21 74  1  0  0  0  0
 21 75  1  0  0  0  0
 22 23  1  0  0  0  0
 22 76  1  0  0  0  0
 23 24  1  0  0  0  0
 23 25  2  0  0  0  0
 24 77  1  0  0  0  0
 24 78  1  0  0  0  0
 25 79  1  0  0  0  0
 26 27  2  0  0  0  0
 26 28  1  0  0  0  0
 28 80  1  0  0  0  0
 29 28  1  0  0  0  0
 29 30  1  0  0  0  0
 29 37  1  0  0  0  0
 29 81  1  6  0  0  0
 30 31  1  0  0  0  0
 30 82  1  0  0  0  0
 30 83  1  0  0  0  0
 31 32  1  0  0  0  0
 31 84  1  0  0  0  0
 31 85  1  0  0  0  0
 32 33  1  0  0  0  0
 32 86  1  0  0  0  0
 32 87  1  0  0  0  0
 33 34  1  0  0  0  0
 33 88  1  0  0  0  0
 34 35  1  0  0  0  0
 34 36  2  0  0  0  0
 35 89  1  0  0  0  0
 35 90  1  0  0  0  0
 36 91  1  0  0  0  0
 37 38  2  0  0  0  0
 37 39  1  0  0  0  0
 39 92  1  0  0  0  0
 40 39  1  0  0  0  0
 40 41  1  0  0  0  0
 40 48  1  0  0  0  0
 40 93  1  6  0  0  0
 41 42  1  0  0  0  0
 41 94  1  0  0  0  0
 41 95  1  0  0  0  0
 42 43  1  0  0  0  0
 42 96  1  0  0  0  0
 42 97  1  0  0  0  0
 43 44  1  0  0  0  0
 43 98  1  0  0  0  0
 43 99  1  0  0  0  0
 44 45  1  0  0  0  0
 44100  1  0  0  0  0
 45 46  1  0  0  0  0
 45 47  2  0  0  0  0
 46101  1  0  0  0  0
 46102  1  0  0  0  0
 47103  1  0  0  0  0
 48 49  1  0  0  0  0
 48 50  2  0  0  0  0
 49104  1  0  0  0  0
 49105  1  0  0  0  0
M  END
>  <DRUGBANK_ID>
DB18345

>  <COMMON_NAME>
CN-105

>  <CAS_NUMBER>
1632243-07-2

>  <UNII>
W525NLS74J

>  <SYNONYMS>
Ac-VSRRR- NH2

$$$$
