
 OpenBabel10282417213D

 50 52  0  0  0  0  0  0  0  0999 V2000
    0.9934   -0.0820    0.0614 C   0  0  0  0  0  0  0  0  0  0  0  0
    0.4726    1.2075    0.6982 C   0  0  0  0  0  0  0  0  0  0  0  0
    0.9411    2.3115   -0.0951 O   0  0  0  0  0  0  0  0  0  0  0  0
   -1.0552    1.2553    0.6344 C   0  0  0  0  0  0  0  0  0  0  0  0
    0.9786    1.3679    2.1591 C   0  0  0  0  0  0  0  0  0  0  0  0
    0.5100    0.3137    3.0627 N   0  0  0  0  0  0  0  0  0  0  0  0
    1.4744   -0.5330    3.5879 C   0  0  0  0  0  0  0  0  0  0  0  0
    2.4883    0.0582    4.1831 N   0  0  0  0  0  0  0  0  0  0  0  0
    3.3486   -0.7588    4.7808 C   0  0  0  0  0  0  0  0  0  0  0  0
    4.4671   -0.1401    5.4913 C   0  0  0  0  0  0  0  0  0  0  0  0
    5.7157   -0.4689    5.0622 N   0  0  0  0  0  0  0  0  0  0  0  0
    6.7866    0.1308    5.6518 C   0  0  0  0  0  0  0  0  0  0  0  0
    8.1793   -0.2278    5.1566 C   0  0  0  0  0  0  0  0  0  0  0  0
    8.4782   -1.5491    5.3067 F   0  0  0  0  0  0  0  0  0  0  0  0
    8.3643    0.0555    3.8349 F   0  0  0  0  0  0  0  0  0  0  0  0
    9.1716    0.4463    5.8122 F   0  0  0  0  0  0  0  0  0  0  0  0
    6.6302    1.0615    6.6795 C   0  0  0  0  0  0  0  0  0  0  0  0
    5.3503    1.3764    7.1242 C   0  0  0  0  0  0  0  0  0  0  0  0
    4.2541    0.7714    6.5230 C   0  0  0  0  0  0  0  0  0  0  0  0
    3.2576   -2.0783    4.7886 N   0  0  0  0  0  0  0  0  0  0  0  0
    2.2332   -2.5989    4.1320 C   0  0  0  0  0  0  0  0  0  0  0  0
    2.1770   -3.9995    4.0511 N   0  0  0  0  0  0  0  0  0  0  0  0
    3.0695   -4.8854    4.6847 C   0  0  0  0  0  0  0  0  0  0  0  0
    3.2278   -4.8255    6.0722 C   0  0  0  0  0  0  0  0  0  0  0  0
    4.1882   -5.6082    6.7105 C   0  0  0  0  0  0  0  0  0  0  0  0
    4.3224   -5.5221    8.2238 C   0  0  0  0  0  0  0  0  0  0  0  0
    4.1089   -6.7173    8.8469 F   0  0  0  0  0  0  0  0  0  0  0  0
    5.5486   -5.0927    8.6381 F   0  0  0  0  0  0  0  0  0  0  0  0
    3.4275   -4.6585    8.7965 F   0  0  0  0  0  0  0  0  0  0  0  0
    5.0058   -6.4426    6.0101 N   0  0  0  0  0  0  0  0  0  0  0  0
    4.8486   -6.4852    4.6688 C   0  0  0  0  0  0  0  0  0  0  0  0
    3.8955   -5.7515    3.9713 C   0  0  0  0  0  0  0  0  0  0  0  0
    1.2889   -1.8552    3.5348 N   0  0  0  0  0  0  0  0  0  0  0  0
    0.6613   -0.1678   -0.9796 H   0  0  0  0  0  0  0  0  0  0  0  0
    0.6473   -0.9669    0.6030 H   0  0  0  0  0  0  0  0  0  0  0  0
    2.0891   -0.0919    0.0400 H   0  0  0  0  0  0  0  0  0  0  0  0
    1.9132    2.2783   -0.1344 H   0  0  0  0  0  0  0  0  0  0  0  0
   -1.5149    0.4388    1.1975 H   0  0  0  0  0  0  0  0  0  0  0  0
   -1.4297    2.2063    1.0301 H   0  0  0  0  0  0  0  0  0  0  0  0
   -1.4075    1.1890   -0.4012 H   0  0  0  0  0  0  0  0  0  0  0  0
    2.0751    1.4555    2.1337 H   0  0  0  0  0  0  0  0  0  0  0  0
    0.6330    2.3347    2.5473 H   0  0  0  0  0  0  0  0  0  0  0  0
   -0.3548   -0.1532    2.8451 H   0  0  0  0  0  0  0  0  0  0  0  0
    7.4942    1.5401    7.1324 H   0  0  0  0  0  0  0  0  0  0  0  0
    5.2083    2.0933    7.9285 H   0  0  0  0  0  0  0  0  0  0  0  0
    3.2452    1.0083    6.8500 H   0  0  0  0  0  0  0  0  0  0  0  0
    1.5181   -4.3582    3.3806 H   0  0  0  0  0  0  0  0  0  0  0  0
    2.5993   -4.1544    6.6519 H   0  0  0  0  0  0  0  0  0  0  0  0
    5.5501   -7.1361    4.1510 H   0  0  0  0  0  0  0  0  0  0  0  0
    3.8574   -5.8208    2.8903 H   0  0  0  0  0  0  0  0  0  0  0  0
  1  2  1  0  0  0  0
  1 34  1  0  0  0  0
  1 35  1  0  0  0  0
  1 36  1  0  0  0  0
  2  3  1  0  0  0  0
  2  4  1  0  0  0  0
  2  5  1  0  0  0  0
  3 37  1  0  0  0  0
  4 38  1  0  0  0  0
  4 39  1  0  0  0  0
  4 40  1  0  0  0  0
  5  6  1  0  0  0  0
  5 41  1  0  0  0  0
  5 42  1  0  0  0  0
  6  7  1  0  0  0  0
  6 43  1  0  0  0  0
  7  8  2  0  0  0  0
  7 33  1  0  0  0  0
  8  9  1  0  0  0  0
  9 10  1  0  0  0  0
  9 20  2  0  0  0  0
 10 11  2  0  0  0  0
 10 19  1  0  0  0  0
 11 12  1  0  0  0  0
 12 13  1  0  0  0  0
 12 17  2  0  0  0  0
 13 14  1  0  0  0  0
 13 15  1  0  0  0  0
 13 16  1  0  0  0  0
 17 18  1  0  0  0  0
 17 44  1  0  0  0  0
 18 19  2  0  0  0  0
 18 45  1  0  0  0  0
 19 46  1  0  0  0  0
 20 21  1  0  0  0  0
 21 22  1  0  0  0  0
 21 33  2  0  0  0  0
 22 23  1  0  0  0  0
 22 47  1  0  0  0  0
 23 24  2  0  0  0  0
 23 32  1  0  0  0  0
 24 25  1  0  0  0  0
 24 48  1  0  0  0  0
 25 26  1  0  0  0  0
 25 30  2  0  0  0  0
 26 27  1  0  0  0  0
 26 28  1  0  0  0  0
 26 29  1  0  0  0  0
 30 31  1  0  0  0  0
 31 32  2  0  0  0  0
 31 49  1  0  0  0  0
 32 50  1  0  0  0  0
M  END
>  <DRUGBANK_ID>
DB13874

>  <COMMON_NAME>
Enasidenib

>  <CAS_NUMBER>
1446502-11-9

>  <UNII>
3T1SS4E7AG

>  <SYNONYMS>
2-Methyl-1-(4-(6-(trifluoromethyl)pyridin-2-yl)-6-(2-(trifluoromethyl)pyridin-4-ylamino)-1,3,5-triazin-2-ylamino)propan-2-ol; Enasidenib

$$$$
