
 OpenBabel10282417193D

 30 31  0  0  0  0  0  0  0  0999 V2000
    1.3851   -1.3673   -0.7230 C   0  0  0  0  0  0  0  0  0  0  0  0
    0.2157   -1.8665    0.1123 C   0  0  0  0  0  0  0  0  0  0  0  0
   -1.0321   -1.3645   -0.4629 N   0  0  0  0  0  0  0  0  0  0  0  0
   -1.0952   -0.0433   -0.2808 C   0  0  0  0  0  0  0  0  0  0  0  0
   -0.1424    0.9294    0.0108 C   0  0  0  0  0  0  0  0  0  0  0  0
   -1.2470    1.9135    0.1210 C   0  0  0  0  0  0  0  0  0  0  0  0
   -1.4502    3.0935    0.1450 O   0  0  0  0  0  0  0  0  0  0  0  0
   -2.0232    0.7294    0.6094 C   0  0  0  0  0  0  0  0  0  0  0  0
   -2.4536    0.5147    1.7219 O   0  0  0  0  0  0  0  0  0  0  0  0
    1.1587    0.9487    0.3291 N   0  0  0  0  0  0  0  0  0  0  0  0
    2.0764   -0.1225   -0.1436 C   0  0  0  0  0  0  0  0  0  0  0  0
    1.5801    1.5644    1.6355 C   0  0  0  0  0  0  0  0  0  0  0  0
    1.3545    0.6796    2.8560 C   0  0  0  0  0  0  0  0  0  0  0  0
    2.1807   -0.8426    3.3182 P   0  0  0  0  0  0  0  0  0  0  0  0
    2.3435   -1.0894    4.7773 O   0  0  0  0  0  0  0  0  0  0  0  0
    1.0105   -1.8252    2.8393 O   0  0  0  0  0  0  0  0  0  0  0  0
    3.1813   -1.6903    2.4056 O   0  0  0  0  0  0  0  0  0  0  0  0
    2.1059   -2.1741   -0.8685 H   0  0  0  0  0  0  0  0  0  0  0  0
    1.0161   -1.0903   -1.7169 H   0  0  0  0  0  0  0  0  0  0  0  0
    0.2383   -2.9201    0.4095 H   0  0  0  0  0  0  0  0  0  0  0  0
    0.2048   -1.3441    1.0483 H   0  0  0  0  0  0  0  0  0  0  0  0
   -1.8141   -1.9563   -0.1660 H   0  0  0  0  0  0  0  0  0  0  0  0
    2.7544   -0.4064    0.6586 H   0  0  0  0  0  0  0  0  0  0  0  0
    2.7286    0.3005   -0.9141 H   0  0  0  0  0  0  0  0  0  0  0  0
    2.6207    1.8972    1.6175 H   0  0  0  0  0  0  0  0  0  0  0  0
    0.9783    2.4788    1.7897 H   0  0  0  0  0  0  0  0  0  0  0  0
    1.4760    1.3053    3.7515 H   0  0  0  0  0  0  0  0  0  0  0  0
    0.2701    0.4963    2.8905 H   0  0  0  0  0  0  0  0  0  0  0  0
    0.1664   -1.3464    2.7891 H   0  0  0  0  0  0  0  0  0  0  0  0
    2.9661   -2.6210    2.6791 H   0  0  0  0  0  0  0  0  0  0  0  0
  1  2  1  0  0  0  0
  1 11  1  0  0  0  0
  1 18  1  0  0  0  0
  1 19  1  0  0  0  0
  2  3  1  0  0  0  0
  2 20  1  0  0  0  0
  2 21  1  0  0  0  0
  3  4  1  0  0  0  0
  3 22  1  0  0  0  0
  4  5  2  0  0  0  0
  4  8  1  0  0  0  0
  5  6  1  0  0  0  0
  5 10  1  0  0  0  0
  6  7  2  0  0  0  0
  6  8  1  0  0  0  0
  8  9  2  0  0  0  0
 10 11  1  0  0  0  0
 10 12  1  0  0  0  0
 11 23  1  0  0  0  0
 11 24  1  0  0  0  0
 12 13  1  0  0  0  0
 12 25  1  0  0  0  0
 12 26  1  0  0  0  0
 13 14  1  0  0  0  0
 13 27  1  0  0  0  0
 13 28  1  0  0  0  0
 14 15  2  0  0  0  0
 14 16  1  0  0  0  0
 14 17  1  0  0  0  0
 16 29  1  0  0  0  0
 17 30  1  0  0  0  0
M  END
>  <DRUGBANK_ID>
DB12365

>  <COMMON_NAME>
Perzinfotel

>  <CAS_NUMBER>
144912-63-0

>  <UNII>
FX5AUU7Z8T

>  <SYNONYMS>
Perzinfotel

$$$$
