
 OpenBabel10282417243D

 46 45  0  0  0  0  0  0  0  0999 V2000
    0.9365   -0.0382    0.0671 Cl  0  0  0  0  0  0  0  0  0  0  0  0
    0.9199    0.0552   -0.0232 Cl  0  0  0  0  0  0  0  0  0  0  0  0
    1.0487    0.0858   -0.0166 C   0  0  0  0  0  0  0  0  0  0  0  0
    0.5420    1.5162    0.0708 C   0  0  0  0  0  0  0  0  0  0  0  0
    1.0320    2.2811   -1.0849 N   0  0  0  0  0  0  0  0  0  0  0  0
    0.5420    3.6644   -1.0004 C   0  0  0  0  0  0  0  0  0  0  0  0
    1.0487    4.3039    0.2821 C   0  0  0  0  0  0  0  0  0  0  0  0
    2.5020    2.2811   -1.0849 C   0  0  0  0  0  0  0  0  0  0  0  0
    3.0087    2.9205    0.1975 C   0  0  0  0  0  0  0  0  0  0  0  0
    2.5020    2.1296    1.3926 C   0  0  0  0  0  0  0  0  0  0  0  0
    2.9920    0.7463    1.3080 N   0  0  0  0  0  0  0  0  0  0  0  0
    3.8371    0.1991    2.3791 C   0  0  0  0  0  0  0  0  0  0  0  0
    4.9970   -0.4468    2.1058 C   0  0  0  0  0  0  0  0  0  0  0  0
    5.8077   -0.8625    3.1812 C   0  0  0  0  0  0  0  0  0  0  0  0
    5.5157   -0.6740    4.4431 N   0  0  0  0  0  0  0  0  0  0  0  0
    4.3476   -0.0368    4.7291 C   0  0  0  0  0  0  0  0  0  0  0  0
    4.0427    0.1809    6.1040 C   0  0  0  0  0  0  0  0  0  0  0  0
    2.8823    0.8564    6.3933 C   0  0  0  0  0  0  0  0  0  0  0  0
    2.4470    1.1735    8.0400 Cl  0  0  0  0  0  0  0  0  0  0  0  0
    2.0028    1.3312    5.3870 C   0  0  0  0  0  0  0  0  0  0  0  0
    2.2905    1.1152    4.0837 C   0  0  0  0  0  0  0  0  0  0  0  0
    3.4671    0.4302    3.7108 C   0  0  0  0  0  0  0  0  0  0  0  0
    2.2665   -0.0382    0.0671 H   0  0  0  0  0  0  0  0  0  0  0  0
    2.2499    0.0552   -0.0232 H   0  0  0  0  0  0  0  0  0  0  0  0
    0.6920   -0.3644   -0.9194 H   0  0  0  0  0  0  0  0  0  0  0  0
    0.6920   -0.4710    0.8246 H   0  0  0  0  0  0  0  0  0  0  0  0
    2.1187    0.0858   -0.0166 H   0  0  0  0  0  0  0  0  0  0  0  0
   -0.5280    1.5162    0.0708 H   0  0  0  0  0  0  0  0  0  0  0  0
    0.8987    1.9663    0.9736 H   0  0  0  0  0  0  0  0  0  0  0  0
    0.8987    4.2212   -1.8416 H   0  0  0  0  0  0  0  0  0  0  0  0
   -0.5280    3.6644   -1.0004 H   0  0  0  0  0  0  0  0  0  0  0  0
    2.1187    4.3039    0.2821 H   0  0  0  0  0  0  0  0  0  0  0  0
    0.6920    5.3108    0.3436 H   0  0  0  0  0  0  0  0  0  0  0  0
    0.6920    3.7471    1.1233 H   0  0  0  0  0  0  0  0  0  0  0  0
    2.8587    1.2741   -1.1465 H   0  0  0  0  0  0  0  0  0  0  0  0
    2.8587    2.8378   -1.9262 H   0  0  0  0  0  0  0  0  0  0  0  0
    4.0787    2.9205    0.1975 H   0  0  0  0  0  0  0  0  0  0  0  0
    2.6520    3.9275    0.2591 H   0  0  0  0  0  0  0  0  0  0  0  0
    2.8587    2.5798    2.2954 H   0  0  0  0  0  0  0  0  0  0  0  0
    1.4320    2.1296    1.3926 H   0  0  0  0  0  0  0  0  0  0  0  0
    2.7456    0.1661    0.5061 H   0  0  0  0  0  0  0  0  0  0  0  0
    5.2910   -0.6372    1.0947 H   0  0  0  0  0  0  0  0  0  0  0  0
    6.7233   -1.3659    2.9506 H   0  0  0  0  0  0  0  0  0  0  0  0
    4.6918   -0.1678    6.8799 H   0  0  0  0  0  0  0  0  0  0  0  0
    1.1130    1.8597    5.6589 H   0  0  0  0  0  0  0  0  0  0  0  0
    1.6198    1.4668    3.3277 H   0  0  0  0  0  0  0  0  0  0  0  0
  1 23  1  0  0  0  0
  2 24  1  0  0  0  0
  3  4  1  0  0  0  0
  3 25  1  0  0  0  0
  3 26  1  0  0  0  0
  3 27  1  0  0  0  0
  4  5  1  0  0  0  0
  4 28  1  0  0  0  0
  4 29  1  0  0  0  0
  5  6  1  0  0  0  0
  5  8  1  0  0  0  0
  6  7  1  0  0  0  0
  6 30  1  0  0  0  0
  6 31  1  0  0  0  0
  7 32  1  0  0  0  0
  7 33  1  0  0  0  0
  7 34  1  0  0  0  0
  8  9  1  0  0  0  0
  8 35  1  0  0  0  0
  8 36  1  0  0  0  0
  9 10  1  0  0  0  0
  9 37  1  0  0  0  0
  9 38  1  0  0  0  0
 10 11  1  0  0  0  0
 10 39  1  0  0  0  0
 10 40  1  0  0  0  0
 11 12  1  0  0  0  0
 11 41  1  0  0  0  0
 12 13  2  0  0  0  0
 12 22  1  0  0  0  0
 13 14  1  0  0  0  0
 13 42  1  0  0  0  0
 14 15  2  0  0  0  0
 14 43  1  0  0  0  0
 15 16  1  0  0  0  0
 16 17  2  0  0  0  0
 16 22  1  0  0  0  0
 17 18  1  0  0  0  0
 17 44  1  0  0  0  0
 18 19  1  0  0  0  0
 18 20  2  0  0  0  0
 20 21  1  0  0  0  0
 20 45  1  0  0  0  0
 21 22  2  0  0  0  0
 21 46  1  0  0  0  0
M  END
>  <DRUGBANK_ID>
DB17749

>  <COMMON_NAME>
AQ-13

>  <CAS_NUMBER>
169815-40-1

>  <UNII>
PKT9732S5K

>  <SYNONYMS>
1,3-propanediamine, n'-(7-chloro-4-quinolinyl)-n,n-diethyl-, dihydrochloride

$$$$
