W33
 OpenBabel10282417173D

 45 47  0  0  0  0  0  0  0  0999 V2000
   -1.1951    0.3608   -0.3261 O   0  0  0  0  0  0  0  0  0  0  0  0
    0.0572    0.9194   -0.1432 N   0  0  0  0  0  0  0  0  0  0  0  0
    0.8842   -0.1255   -0.0335 C   0  0  0  0  0  0  0  0  0  0  0  0
    2.3397    0.0540    0.0163 C   0  0  0  0  0  0  0  0  0  0  0  0
    0.1928   -1.3464   -0.0361 C   0  0  0  0  0  0  0  0  0  0  0  0
   -1.1076   -0.9962   -0.2135 C   0  0  0  0  0  0  0  0  0  0  0  0
   -2.3427   -1.8056   -0.2417 C   0  0  0  0  0  0  0  0  0  0  0  0
   -3.1666   -1.5189    0.9739 C   0  0  0  0  0  0  0  0  0  0  0  0
   -3.5965   -0.0769    0.9281 C   0  0  0  0  0  0  0  0  0  0  0  0
   -4.6279    0.3559   -0.0996 C   0  0  0  0  0  0  0  0  0  0  0  0
   -5.9636   -0.3479    0.1626 C   0  0  0  0  0  0  0  0  0  0  0  0
   -6.7287    0.1463    1.3139 O   0  0  0  0  0  0  0  0  0  0  0  0
   -6.2507   -0.0470    2.5924 C   0  0  0  0  0  0  0  0  0  0  0  0
   -6.8198   -1.0285    3.4071 C   0  0  0  0  0  0  0  0  0  0  0  0
   -6.2601   -1.3267    4.6715 C   0  0  0  0  0  0  0  0  0  0  0  0
   -5.0369   -0.7572    5.0399 C   0  0  0  0  0  0  0  0  0  0  0  0
   -4.5131    0.2518    4.2485 C   0  0  0  0  0  0  0  0  0  0  0  0
   -5.2738    0.7646    3.1954 C   0  0  0  0  0  0  0  0  0  0  0  0
   -4.7977    2.3148    2.5815 Cl  0  0  0  0  0  0  0  0  0  0  0  0
   -4.3922   -0.9557    6.3370 C   0  0  0  0  0  0  0  0  0  0  0  0
   -3.9063    0.0377    7.0468 N   0  0  0  0  0  0  0  0  0  0  0  0
   -3.3002   -0.6192    8.1959 C   0  0  0  0  0  0  0  0  0  0  0  0
   -3.7662   -2.0578    8.1228 C   0  0  0  0  0  0  0  0  0  0  0  0
   -4.2697   -2.2127    6.7969 O   0  0  0  0  0  0  0  0  0  0  0  0
    2.6757    0.6019   -0.8681 H   0  0  0  0  0  0  0  0  0  0  0  0
    2.6451    0.5871    0.9189 H   0  0  0  0  0  0  0  0  0  0  0  0
    2.8234   -0.9280    0.0098 H   0  0  0  0  0  0  0  0  0  0  0  0
    0.5647   -2.3528    0.0515 H   0  0  0  0  0  0  0  0  0  0  0  0
   -2.9241   -1.6086   -1.1443 H   0  0  0  0  0  0  0  0  0  0  0  0
   -2.0951   -2.8694   -0.2282 H   0  0  0  0  0  0  0  0  0  0  0  0
   -4.0352   -2.1847    1.0522 H   0  0  0  0  0  0  0  0  0  0  0  0
   -2.6060   -1.6792    1.9095 H   0  0  0  0  0  0  0  0  0  0  0  0
   -4.0338   -0.0816    1.8747 H   0  0  0  0  0  0  0  0  0  0  0  0
   -2.8086    0.6659    1.0585 H   0  0  0  0  0  0  0  0  0  0  0  0
   -4.7913    1.4380   -0.0436 H   0  0  0  0  0  0  0  0  0  0  0  0
   -4.2481    0.1778   -1.1155 H   0  0  0  0  0  0  0  0  0  0  0  0
   -6.5872   -0.1537   -0.7224 H   0  0  0  0  0  0  0  0  0  0  0  0
   -5.8420   -1.4398    0.1751 H   0  0  0  0  0  0  0  0  0  0  0  0
   -7.7443   -1.5106    3.0996 H   0  0  0  0  0  0  0  0  0  0  0  0
   -6.7912   -1.9657    5.3702 H   0  0  0  0  0  0  0  0  0  0  0  0
   -3.5194    0.6483    4.4637 H   0  0  0  0  0  0  0  0  0  0  0  0
   -3.6043   -0.1399    9.1329 H   0  0  0  0  0  0  0  0  0  0  0  0
   -2.2102   -0.5420    8.1160 H   0  0  0  0  0  0  0  0  0  0  0  0
   -2.9468   -2.7547    8.3234 H   0  0  0  0  0  0  0  0  0  0  0  0
   -4.5786   -2.2559    8.8292 H   0  0  0  0  0  0  0  0  0  0  0  0
  1  2  1  0  0  0  0
  1  6  1  0  0  0  0
  2  3  2  0  0  0  0
  3  4  1  0  0  0  0
  3  5  1  0  0  0  0
  4 25  1  0  0  0  0
  4 26  1  0  0  0  0
  4 27  1  0  0  0  0
  5  6  2  0  0  0  0
  5 28  1  0  0  0  0
  6  7  1  0  0  0  0
  7  8  1  0  0  0  0
  7 29  1  0  0  0  0
  7 30  1  0  0  0  0
  8  9  1  0  0  0  0
  8 31  1  0  0  0  0
  8 32  1  0  0  0  0
  9 10  1  0  0  0  0
  9 33  1  0  0  0  0
  9 34  1  0  0  0  0
 10 11  1  0  0  0  0
 10 35  1  0  0  0  0
 10 36  1  0  0  0  0
 11 12  1  0  0  0  0
 11 37  1  0  0  0  0
 11 38  1  0  0  0  0
 12 13  1  0  0  0  0
 13 14  2  0  0  0  0
 13 18  1  0  0  0  0
 14 15  1  0  0  0  0
 14 39  1  0  0  0  0
 15 16  2  0  0  0  0
 15 40  1  0  0  0  0
 16 17  1  0  0  0  0
 16 20  1  0  0  0  0
 17 18  2  0  0  0  0
 17 41  1  0  0  0  0
 18 19  1  0  0  0  0
 20 21  2  0  0  0  0
 20 24  1  0  0  0  0
 21 22  1  0  0  0  0
 22 23  1  0  0  0  0
 22 42  1  0  0  0  0
 22 43  1  0  0  0  0
 23 24  1  0  0  0  0
 23 44  1  0  0  0  0
 23 45  1  0  0  0  0
M  END
>  <DRUGBANK_ID>
DB08719

>  <COMMON_NAME>
5-(5-(6-CHLORO-4-(4,5-DIHYDRO-2-OXAZOLYL)PHENOXY)PENTYL)-3-METHYL ISOXAZOLE

>  <UNII>
IVZ08DAW25

$$$$
