
 OpenBabel10282417183D

 32 33  0  0  0  0  0  0  0  0999 V2000
   -1.8538    0.7674    0.0325 S   0  0  0  0  0  0  0  0  0  0  0  0
    3.3190    1.8335   -0.0485 O   0  0  0  0  0  0  0  0  0  0  0  0
   -4.7929   -3.2832   -0.1137 O   0  0  0  0  0  0  0  0  0  0  0  0
   -2.6183   -3.6619   -0.0629 O   0  0  0  0  0  0  0  0  0  0  0  0
   -0.9643   -1.6319    0.0537 N   0  0  0  0  0  0  0  0  0  0  0  0
   -3.3364   -1.4464   -0.0343 N   0  0  0  0  0  0  0  0  0  0  0  0
   -0.1215    0.5616   -0.0245 C   0  0  0  0  0  0  0  0  0  0  0  0
    0.1221   -0.8137   -0.0521 C   0  0  0  0  0  0  0  0  0  0  0  0
   -2.0596   -0.9348    0.0169 C   0  0  0  0  0  0  0  0  0  0  0  0
    0.9558    1.4851   -0.0431 C   0  0  0  0  0  0  0  0  0  0  0  0
    2.2562    0.9801   -0.2340 C   0  0  0  0  0  0  0  0  0  0  0  0
    1.4189   -1.2835   -0.2368 C   0  0  0  0  0  0  0  0  0  0  0  0
    2.4230   -0.3673   -0.5141 C   0  0  0  0  0  0  0  0  0  0  0  0
   -3.5046   -2.8245   -0.0682 C   0  0  0  0  0  0  0  0  0  0  0  0
    4.6559    1.2792    0.0089 C   0  0  0  0  0  0  0  0  0  0  0  0
    5.0336    0.5111    1.3029 C   0  0  0  0  0  0  0  0  0  0  0  0
   -5.9560   -2.4587   -0.1300 C   0  0  0  0  0  0  0  0  0  0  0  0
    4.2503   -0.7584    1.6018 C   0  0  0  0  0  0  0  0  0  0  0  0
   -4.1036   -0.8030   -0.0667 H   0  0  0  0  0  0  0  0  0  0  0  0
    0.7891    2.5524    0.0688 H   0  0  0  0  0  0  0  0  0  0  0  0
    1.6236   -2.3483   -0.1913 H   0  0  0  0  0  0  0  0  0  0  0  0
    3.3840   -0.7718   -0.7973 H   0  0  0  0  0  0  0  0  0  0  0  0
    4.8827    0.7079   -0.9001 H   0  0  0  0  0  0  0  0  0  0  0  0
    5.3340    2.1437   -0.0402 H   0  0  0  0  0  0  0  0  0  0  0  0
    6.0937    0.2327    1.2472 H   0  0  0  0  0  0  0  0  0  0  0  0
    4.9083    1.1797    2.1594 H   0  0  0  0  0  0  0  0  0  0  0  0
   -6.0060   -1.8591    0.7811 H   0  0  0  0  0  0  0  0  0  0  0  0
   -5.9637   -1.8404   -1.0298 H   0  0  0  0  0  0  0  0  0  0  0  0
   -6.8268   -3.1220   -0.1573 H   0  0  0  0  0  0  0  0  0  0  0  0
    4.3845   -1.4911    0.7978 H   0  0  0  0  0  0  0  0  0  0  0  0
    4.5494   -1.2630    2.5203 H   0  0  0  0  0  0  0  0  0  0  0  0
    3.1987   -0.5108    1.7544 H   0  0  0  0  0  0  0  0  0  0  0  0
  1  7  1  0  0  0  0
  1  9  1  0  0  0  0
  2 11  1  0  0  0  0
  2 15  1  0  0  0  0
  3 14  1  0  0  0  0
  3 17  1  0  0  0  0
  4 14  2  0  0  0  0
  5  8  1  0  0  0  0
  5  9  2  0  0  0  0
  6  9  1  0  0  0  0
  6 14  1  0  0  0  0
  6 19  1  0  0  0  0
  7  8  1  0  0  0  0
  7 10  2  0  0  0  0
  8 12  2  0  0  0  0
 10 11  1  0  0  0  0
 10 20  1  0  0  0  0
 11 13  2  0  0  0  0
 12 13  1  0  0  0  0
 12 21  1  0  0  0  0
 13 22  1  0  0  0  0
 15 16  1  0  0  0  0
 15 23  1  0  0  0  0
 15 24  1  0  0  0  0
 16 18  1  0  0  0  0
 16 25  1  0  0  0  0
 16 26  1  0  0  0  0
 17 27  1  0  0  0  0
 17 28  1  0  0  0  0
 17 29  1  0  0  0  0
 18 30  1  0  0  0  0
 18 31  1  0  0  0  0
 18 32  1  0  0  0  0
M  END
>  <DRUGBANK_ID>
DB11472

>  <COMMON_NAME>
Tioxidazole

>  <CAS_NUMBER>
61570-90-9

>  <UNII>
NZW046NI85

>  <SYNONYMS>
Tioxidazol; Tioxidazole; Tioxidazolum

$$$$
