
 OpenBabel10282417133D

 22 22  0  0  0  0  0  0  0  0999 V2000
    2.3056   -0.0430    0.0379 O   0  0  0  0  0  0  0  0  0  0  0  0
   -3.9047    0.8917    1.2124 C   0  0  0  0  0  0  0  0  0  0  0  0
   -3.3609    0.1658   -0.0337 C   0  0  0  0  0  0  0  0  0  0  0  0
   -1.8555    0.0396   -0.0951 C   0  0  0  0  0  0  0  0  0  0  0  0
   -1.1946   -1.1943   -0.0093 C   0  0  0  0  0  0  0  0  0  0  0  0
    0.2087   -1.2466    0.0108 C   0  0  0  0  0  0  0  0  0  0  0  0
    0.9441   -0.0639   -0.0081 C   0  0  0  0  0  0  0  0  0  0  0  0
    0.3048    1.1574   -0.1014 C   0  0  0  0  0  0  0  0  0  0  0  0
   -1.0783    1.1965   -0.2235 C   0  0  0  0  0  0  0  0  0  0  0  0
   -3.4456    2.3238    1.4292 C   0  0  0  0  0  0  0  0  0  0  0  0
   -4.3713    3.2720    1.1789 O   0  0  0  0  0  0  0  0  0  0  0  0
   -2.3347    2.6400    1.8365 O   0  0  0  0  0  0  0  0  0  0  0  0
    2.6358   -0.9528   -0.0050 H   0  0  0  0  0  0  0  0  0  0  0  0
   -5.0009    0.8772    1.1777 H   0  0  0  0  0  0  0  0  0  0  0  0
   -3.6278    0.3376    2.1170 H   0  0  0  0  0  0  0  0  0  0  0  0
   -3.7100    0.6569   -0.9502 H   0  0  0  0  0  0  0  0  0  0  0  0
   -3.8014   -0.8423   -0.0503 H   0  0  0  0  0  0  0  0  0  0  0  0
   -1.7574   -2.1243    0.0402 H   0  0  0  0  0  0  0  0  0  0  0  0
    0.7060   -2.2101    0.0584 H   0  0  0  0  0  0  0  0  0  0  0  0
    0.8672    2.0853   -0.0748 H   0  0  0  0  0  0  0  0  0  0  0  0
   -1.5434    2.1682   -0.3622 H   0  0  0  0  0  0  0  0  0  0  0  0
   -5.2789    2.9540    1.0334 H   0  0  0  0  0  0  0  0  0  0  0  0
  1  7  1  0  0  0  0
  1 13  1  0  0  0  0
  2  3  1  0  0  0  0
  2 10  1  0  0  0  0
  2 14  1  0  0  0  0
  2 15  1  0  0  0  0
  3  4  1  0  0  0  0
  3 16  1  0  0  0  0
  3 17  1  0  0  0  0
  4  5  1  0  0  0  0
  4  9  2  0  0  0  0
  5  6  2  0  0  0  0
  5 18  1  0  0  0  0
  6  7  1  0  0  0  0
  6 19  1  0  0  0  0
  7  8  2  0  0  0  0
  8  9  1  0  0  0  0
  8 20  1  0  0  0  0
  9 21  1  0  0  0  0
 10 11  1  0  0  0  0
 10 12  2  0  0  0  0
 11 22  1  0  0  0  0
M  END
>  <DRUGBANK_ID>
DB03897

>  <SECONDARY_ACCESSION_NUMBERS>
EXPT01773

>  <COMMON_NAME>
Phloretic acid

>  <CAS_NUMBER>
501-97-3

>  <UNII>
6QNC6P18SR

>  <SYNONYMS>
3-(4-Hydroxyphenyl)propionic acid; 3-(p-hydroxyphenyl)propionic acid; 4-Hydroxyphenylpropionic acid; Desaminotyrosine; Dihydro-p-coumaric acid; Hydroxyphenyl propionic acid; p-Hydroxyhydrocinnamic acid; p-hydroxyphenylpropionic acid; Phloretic acid; Phloretinic acid; Î²-(p-hydroxyphenyl)propionic acid

$$$$
