
 OpenBabel10282417133D

 32 32  0  0  0  0  0  0  0  0999 V2000
    0.9550   -0.0783    0.0429 C   0  0  0  0  0  0  0  0  0  0  0  0
    5.4963   -2.5386   -2.8556 C   0  0  0  0  0  0  0  0  0  0  0  0
   -0.3488   -0.0783    0.0429 C   0  0  0  0  0  0  0  0  0  0  0  0
    4.7445   -2.0952   -3.9597 C   0  0  0  0  0  0  0  0  0  0  0  0
    5.0352   -3.5912   -2.0669 C   0  0  0  0  0  0  0  0  0  0  0  0
    4.2074   -4.5273   -2.7136 C   0  0  0  0  0  0  0  0  0  0  0  0
    3.8679   -2.9944   -4.5623 C   0  0  0  0  0  0  0  0  0  0  0  0
    6.8984   -1.5883   -2.4311 Cl  0  0  0  0  0  0  0  0  0  0  0  0
    2.8897   -0.9168   -0.9955 N   0  0  0  0  0  0  0  0  0  0  0  0
    3.6961   -4.2411   -3.9982 C   0  0  0  0  0  0  0  0  0  0  0  0
    3.1061   -2.5564   -6.0404 Cl  0  0  0  0  0  0  0  0  0  0  0  0
    2.4750   -0.0783    0.0429 C   0  0  0  0  0  0  0  0  0  0  0  0
    5.4215   -3.8182   -0.7660 O   0  0  0  0  0  0  0  0  0  0  0  0
    5.0046   -1.5480    0.3397 C   0  0  0  0  0  0  0  0  0  0  0  0
    4.3105   -0.8172   -0.8018 C   0  0  0  0  0  0  0  0  0  0  0  0
    4.8367   -3.0661    0.3400 C   0  0  0  0  0  0  0  0  0  0  0  0
    2.1980   -2.2034   -0.9591 C   0  0  0  0  0  0  0  0  0  0  0  0
   -1.4141   -0.0771    0.0362 H   0  0  0  0  0  0  0  0  0  0  0  0
    4.8059   -1.0735   -4.3085 H   0  0  0  0  0  0  0  0  0  0  0  0
    3.9603   -5.4620   -2.2354 H   0  0  0  0  0  0  0  0  0  0  0  0
    3.1222   -5.0001   -4.5379 H   0  0  0  0  0  0  0  0  0  0  0  0
    2.7784    0.9721   -0.0712 H   0  0  0  0  0  0  0  0  0  0  0  0
    2.7451   -0.3994    1.0577 H   0  0  0  0  0  0  0  0  0  0  0  0
    6.0730   -1.3208    0.2911 H   0  0  0  0  0  0  0  0  0  0  0  0
    4.6853   -1.1214    1.3057 H   0  0  0  0  0  0  0  0  0  0  0  0
    4.6253   -1.0782   -1.7578 H   0  0  0  0  0  0  0  0  0  0  0  0
    4.6416    0.2357   -0.7930 H   0  0  0  0  0  0  0  0  0  0  0  0
    5.3643   -3.4083    1.2423 H   0  0  0  0  0  0  0  0  0  0  0  0
    3.8147   -3.3808    0.5721 H   0  0  0  0  0  0  0  0  0  0  0  0
    2.1654   -2.6532    0.0362 H   0  0  0  0  0  0  0  0  0  0  0  0
    1.1427   -2.1203   -1.2543 H   0  0  0  0  0  0  0  0  0  0  0  0
    2.5905   -2.9006   -1.6830 H   0  0  0  0  0  0  0  0  0  0  0  0
  1  3  3  0  0  0  0
  1 12  1  0  0  0  0
  2  4  1  0  0  0  0
  2  5  2  0  0  0  0
  2  8  1  0  0  0  0
  3 18  1  0  0  0  0
  4  7  2  0  0  0  0
  4 19  1  0  0  0  0
  5  6  1  0  0  0  0
  5 13  1  0  0  0  0
  6 10  2  0  0  0  0
  6 20  1  0  0  0  0
  7 10  1  0  0  0  0
  7 11  1  0  0  0  0
  9 12  1  0  0  0  0
  9 15  1  0  0  0  0
  9 17  1  0  0  0  0
 10 21  1  0  0  0  0
 12 22  1  0  0  0  0
 12 23  1  0  0  0  0
 13 16  1  0  0  0  0
 14 15  1  0  0  0  0
 14 16  1  0  0  0  0
 14 24  1  0  0  0  0
 14 25  1  0  0  0  0
 15 26  1  0  0  0  0
 15 27  1  0  0  0  0
 16 28  1  0  0  0  0
 16 29  1  0  0  0  0
 17 30  1  0  0  0  0
 17 31  1  0  0  0  0
 17 32  1  0  0  0  0
M  END
>  <DRUGBANK_ID>
DB04017

>  <SECONDARY_ACCESSION_NUMBERS>
EXPT02182; DB14032

>  <COMMON_NAME>
Clorgiline

>  <CAS_NUMBER>
17780-72-2

>  <UNII>
LYJ16FZU9Q

>  <SYNONYMS>
Clorgilina; Clorgiline; Clorgilinum; Clorgyline

$$$$
