1423
 OpenBabel10282417113D

 28 28  0  0  1  0  0  0  0  0999 V2000
    1.1481   -0.0576    0.0541 S   0  0  0  0  0  0  0  0  0  0  0  0
    4.8384   -0.4438   -1.8593 S   0  0  0  0  0  0  0  0  0  0  0  0
    1.0357    2.4729   -2.8866 O   0  0  0  0  0  0  0  0  0  0  0  0
    3.4871   -0.4700    1.0494 O   0  0  0  0  0  0  0  0  0  0  0  0
   -0.0423    4.0908    2.4758 O   0  0  0  0  0  0  0  0  0  0  0  0
    1.6080    2.6872    1.8697 O   0  0  0  0  0  0  0  0  0  0  0  0
    0.4311    3.0018   -0.8236 N   0  0  0  0  0  0  0  0  0  0  0  0
    0.4567    0.5669   -1.5041 C   0  0  3  0  0  0  0  0  0  0  0  0
    0.6725    2.0578   -1.7821 C   0  0  0  0  0  0  0  0  0  0  0  0
    0.8584   -0.3471   -2.6546 C   0  0  0  0  0  0  0  0  0  0  0  0
   -0.3285    2.8651    0.4080 C   0  0  0  0  0  0  0  0  0  0  0  0
    2.9171   -0.0087    0.0604 C   0  0  0  0  0  0  0  0  0  0  0  0
    3.6231    0.4997   -1.0899 C   0  0  0  0  0  0  0  0  0  0  0  0
    3.5598    1.7440   -1.6760 C   0  0  0  0  0  0  0  0  0  0  0  0
    0.5126    3.1801    1.6430 C   0  0  0  0  0  0  0  0  0  0  0  0
    4.1836    1.7837   -2.9504 C   0  0  0  0  0  0  0  0  0  0  0  0
    4.9975    0.6922   -3.1377 C   0  0  0  0  0  0  0  0  0  0  0  0
   -0.8939    4.4735    2.1948 H   0  0  0  0  0  0  0  0  0  0  0  0
    0.7593    3.9284   -1.0804 H   0  0  0  0  0  0  0  0  0  0  0  0
   -0.6361    0.4823   -1.4183 H   0  0  0  0  0  0  0  0  0  0  0  0
    0.4859   -1.3635   -2.4892 H   0  0  0  0  0  0  0  0  0  0  0  0
    0.4590    0.0107   -3.6078 H   0  0  0  0  0  0  0  0  0  0  0  0
    1.9372   -0.4138   -2.7842 H   0  0  0  0  0  0  0  0  0  0  0  0
   -1.1718    3.5554    0.3254 H   0  0  0  0  0  0  0  0  0  0  0  0
   -0.7476    1.8646    0.5063 H   0  0  0  0  0  0  0  0  0  0  0  0
    2.9778    2.5543   -1.2686 H   0  0  0  0  0  0  0  0  0  0  0  0
    4.0747    2.5993   -3.6559 H   0  0  0  0  0  0  0  0  0  0  0  0
    5.6715    0.5145   -3.9647 H   0  0  0  0  0  0  0  0  0  0  0  0
  1  8  1  0  0  0  0
  1 12  1  0  0  0  0
  2 13  1  0  0  0  0
  2 17  1  0  0  0  0
  3  9  2  0  0  0  0
  4 12  2  0  0  0  0
  5 15  1  0  0  0  0
  5 18  1  0  0  0  0
  6 15  2  0  0  0  0
  7  9  1  0  0  0  0
  7 11  1  0  0  0  0
  7 19  1  0  0  0  0
  8  9  1  0  0  0  0
  8 10  1  0  0  0  0
  8 20  1  0  0  0  0
 10 21  1  0  0  0  0
 10 22  1  0  0  0  0
 10 23  1  0  0  0  0
 11 15  1  0  0  0  0
 11 24  1  0  0  0  0
 11 25  1  0  0  0  0
 12 13  1  0  0  0  0
 13 14  2  0  0  0  0
 14 16  1  0  0  0  0
 14 26  1  0  0  0  0
 16 17  2  0  0  0  0
 16 27  1  0  0  0  0
 17 28  1  0  0  0  0
M  END
>  <DRUGBANK_ID>
DB01423

>  <COMMON_NAME>
Stepronin

>  <CAS_NUMBER>
72324-18-6

>  <UNII>
0NOY894QRB

>  <SYNONYMS>
Stepronin; Stepronine; Stepronino; Steproninum; Tiofacic

$$$$
