
 OpenBabel10282417203D

 45 48  0  0  0  0  0  0  0  0999 V2000
    1.0576    0.2421    0.0205 C   0  0  0  0  0  0  0  0  0  0  0  0
    0.5539    0.6408    1.3274 N   0  0  0  0  0  0  0  0  0  0  0  0
   -0.9115    0.6110    1.3164 C   0  0  0  0  0  0  0  0  0  0  0  0
    1.0426   -0.2586    2.3752 C   0  0  0  0  0  0  0  0  0  0  0  0
    0.4933   -1.6814    2.3286 C   0  0  0  0  0  0  0  0  0  0  0  0
    1.0355   -2.5565    1.2586 C   0  0  0  0  0  0  0  0  0  0  0  0
    1.8993   -3.5877    1.2917 C   0  0  0  0  0  0  0  0  0  0  0  0
    2.3607   -3.9059   -0.1423 C   0  0  0  0  0  0  0  0  0  0  0  0
    2.0463   -3.0270   -1.3156 C   0  0  0  0  0  0  0  0  0  0  0  0
    2.3975   -3.2076   -2.6582 C   0  0  0  0  0  0  0  0  0  0  0  0
    3.1377   -4.3242   -2.9240 C   0  0  0  0  0  0  0  0  0  0  0  0
    3.4521   -5.2346   -1.8370 C   0  0  0  0  0  0  0  0  0  0  0  0
    3.0960   -5.0396   -0.4143 C   0  0  0  0  0  0  0  0  0  0  0  0
    3.2680   -6.0111    0.5912 O   0  0  0  0  0  0  0  0  0  0  0  0
    3.8451   -5.7931    2.1185 C   0  0  0  0  0  0  0  0  0  0  0  0
    2.9278   -4.9904    3.3924 C   0  0  0  0  0  0  0  0  0  0  0  0
    2.1259   -4.0846    2.6681 C   0  0  0  0  0  0  0  0  0  0  0  0
    1.3068   -3.7175    3.6261 O   0  0  0  0  0  0  0  0  0  0  0  0
    1.5191   -4.1358    4.8634 C   0  0  0  0  0  0  0  0  0  0  0  0
    2.7522   -4.8352    5.1942 C   0  0  0  0  0  0  0  0  0  0  0  0
    2.3978   -4.5053    6.9183 C   0  0  0  0  0  0  0  0  0  0  0  0
    1.1474   -4.2242    7.5767 C   0  0  0  0  0  0  0  0  0  0  0  0
    0.4869   -4.8354    6.6728 C   0  0  0  0  0  0  0  0  0  0  0  0
    0.4363   -3.8932    5.6803 C   0  0  0  0  0  0  0  0  0  0  0  0
    0.8185    0.9532   -0.7689 H   0  0  0  0  0  0  0  0  0  0  0  0
    0.5355   -0.6427   -0.3123 H   0  0  0  0  0  0  0  0  0  0  0  0
    2.1403    0.0568    0.0270 H   0  0  0  0  0  0  0  0  0  0  0  0
   -1.3253   -0.3871    1.1289 H   0  0  0  0  0  0  0  0  0  0  0  0
   -1.3016    0.9601    2.2774 H   0  0  0  0  0  0  0  0  0  0  0  0
   -1.2988    1.2471    0.5220 H   0  0  0  0  0  0  0  0  0  0  0  0
    2.1435   -0.2754    2.4186 H   0  0  0  0  0  0  0  0  0  0  0  0
    0.7401    0.1421    3.3544 H   0  0  0  0  0  0  0  0  0  0  0  0
    0.7289   -1.9756    3.3250 H   0  0  0  0  0  0  0  0  0  0  0  0
   -0.5909   -1.7715    2.2880 H   0  0  0  0  0  0  0  0  0  0  0  0
    0.5659   -2.3304    0.3222 H   0  0  0  0  0  0  0  0  0  0  0  0
    1.4805   -2.1060   -1.2380 H   0  0  0  0  0  0  0  0  0  0  0  0
    2.0999   -2.4811   -3.4268 H   0  0  0  0  0  0  0  0  0  0  0  0
    3.4616   -4.4707   -3.9623 H   0  0  0  0  0  0  0  0  0  0  0  0
    4.0116   -6.1048   -2.1799 H   0  0  0  0  0  0  0  0  0  0  0  0
    4.7618   -5.2361    1.9095 H   0  0  0  0  0  0  0  0  0  0  0  0
    4.0879   -6.8327    2.3780 H   0  0  0  0  0  0  0  0  0  0  0  0
    2.6488   -5.3150    7.7308 H   0  0  0  0  0  0  0  0  0  0  0  0
    0.5174   -3.3698    7.9673 H   0  0  0  0  0  0  0  0  0  0  0  0
    0.9797   -5.8618    6.4594 H   0  0  0  0  0  0  0  0  0  0  0  0
    0.1027   -2.8432    5.7720 H   0  0  0  0  0  0  0  0  0  0  0  0
  1  2  1  0  0  0  0
  1 25  1  0  0  0  0
  1 26  1  0  0  0  0
  1 27  1  0  0  0  0
  2  3  1  0  0  0  0
  2  4  1  0  0  0  0
  3 28  1  0  0  0  0
  3 29  1  0  0  0  0
  3 30  1  0  0  0  0
  4  5  1  0  0  0  0
  4 31  1  0  0  0  0
  4 32  1  0  0  0  0
  5 33  1  0  0  0  0
  5 34  1  0  0  0  0
  6  5  1  0  0  0  0
  6  7  2  3  0  0  0
  6 35  1  0  0  0  0
  7  8  1  0  0  0  0
  7 17  1  0  0  0  0
  8  9  2  0  0  0  0
  8 13  1  0  0  0  0
  9 10  1  0  0  0  0
  9 36  1  0  0  0  0
 10 11  2  0  0  0  0
 10 37  1  0  0  0  0
 11 12  1  0  0  0  0
 11 38  1  0  0  0  0
 12 13  2  0  0  0  0
 12 39  1  0  0  0  0
 13 14  1  0  0  0  0
 14 15  1  0  0  0  0
 15 16  1  0  0  0  0
 15 40  1  0  0  0  0
 15 41  1  0  0  0  0
 16 17  2  0  0  0  0
 16 20  1  0  0  0  0
 17 18  1  0  0  0  0
 18 19  1  0  0  0  0
 19 20  1  0  0  0  0
 19 24  2  0  0  0  0
 20 21  2  0  0  0  0
 21 22  1  0  0  0  0
 21 42  1  0  0  0  0
 22 23  2  0  0  0  0
 22 43  1  0  0  0  0
 23 24  1  0  0  0  0
 23 44  1  0  0  0  0
 24 45  1  0  0  0  0
M  END
>  <DRUGBANK_ID>
DB13463

>  <COMMON_NAME>
Oxetorone

>  <CAS_NUMBER>
26020-55-3

>  <UNII>
T3XOS33TIQ

>  <SYNONYMS>
Oxetorone

$$$$
