
 OpenBabel10282417233D

 38 40  0  0  1  0  0  0  0  0999 V2000
    0.9185   -0.0260   -0.0126 C   0  0  0  0  0  0  0  0  0  0  0  0
    0.2796   -0.4414    1.5934 S   0  0  0  0  0  0  0  0  0  0  0  0
    0.8099    0.4937    2.5646 O   0  0  0  0  0  0  0  0  0  0  0  0
   -1.1600   -0.5844    1.4685 O   0  0  0  0  0  0  0  0  0  0  0  0
    0.9110   -2.0835    1.9546 C   0  0  0  0  0  0  0  0  0  0  0  0
    2.0483   -2.3127    2.7351 C   0  0  0  0  0  0  0  0  0  0  0  0
    2.9549   -1.2427    3.2316 C   0  0  2  0  0  0  0  0  0  0  0  0
    3.4580   -0.6223    2.0480 O   0  0  0  0  0  0  0  0  0  0  0  0
    4.0247   -1.9750    4.0478 C   0  0  0  0  0  0  0  0  0  0  0  0
    5.2581   -1.6549    3.5745 F   0  0  0  0  0  0  0  0  0  0  0  0
    3.9849   -1.5588    5.3389 F   0  0  0  0  0  0  0  0  0  0  0  0
    3.7607   -3.5000    3.9363 C   0  0  0  0  0  0  0  0  0  0  0  0
    2.5048   -3.6066    3.0767 C   0  0  0  0  0  0  0  0  0  0  0  0
    1.7753   -4.7176    2.6183 C   0  0  0  0  0  0  0  0  0  0  0  0
    2.2047   -6.0009    2.9138 O   0  0  0  0  0  0  0  0  0  0  0  0
    1.4579   -7.0906    2.4804 C   0  0  0  0  0  0  0  0  0  0  0  0
    1.2440   -7.3914    1.1218 C   0  0  0  0  0  0  0  0  0  0  0  0
    0.4943   -8.5242    0.7495 C   0  0  0  0  0  0  0  0  0  0  0  0
   -0.0005   -9.3795    1.7361 C   0  0  0  0  0  0  0  0  0  0  0  0
    0.2451   -9.0894    3.0736 C   0  0  0  0  0  0  0  0  0  0  0  0
   -0.2176   -9.9229    4.0142 F   0  0  0  0  0  0  0  0  0  0  0  0
    0.9642   -7.9577    3.4551 C   0  0  0  0  0  0  0  0  0  0  0  0
    0.2315   -8.8136   -0.6287 C   0  0  0  0  0  0  0  0  0  0  0  0
    0.0061   -9.0593   -1.7464 N   0  0  0  0  0  0  0  0  0  0  0  0
    0.6031   -4.4687    1.8680 C   0  0  0  0  0  0  0  0  0  0  0  0
    0.1811   -3.1787    1.5254 C   0  0  0  0  0  0  0  0  0  0  0  0
    0.5555    0.9739   -0.2676 H   0  0  0  0  0  0  0  0  0  0  0  0
    0.5423   -0.7411   -0.7469 H   0  0  0  0  0  0  0  0  0  0  0  0
    2.0080   -0.0203   -0.0051 H   0  0  0  0  0  0  0  0  0  0  0  0
    2.4032   -0.5510    3.8719 H   0  0  0  0  0  0  0  0  0  0  0  0
    4.0351   -1.2749    1.6112 H   0  0  0  0  0  0  0  0  0  0  0  0
    4.6251   -3.9942    3.4774 H   0  0  0  0  0  0  0  0  0  0  0  0
    3.6069   -3.9172    4.9382 H   0  0  0  0  0  0  0  0  0  0  0  0
    1.6295   -6.7278    0.3497 H   0  0  0  0  0  0  0  0  0  0  0  0
   -0.5678  -10.2728    1.4828 H   0  0  0  0  0  0  0  0  0  0  0  0
    1.1287   -7.7659    4.5102 H   0  0  0  0  0  0  0  0  0  0  0  0
   -0.0408   -5.2730    1.5264 H   0  0  0  0  0  0  0  0  0  0  0  0
   -0.7272   -3.0503    0.9397 H   0  0  0  0  0  0  0  0  0  0  0  0
  1  2  1  0  0  0  0
  1 27  1  0  0  0  0
  1 28  1  0  0  0  0
  1 29  1  0  0  0  0
  2  3  2  0  0  0  0
  2  4  2  0  0  0  0
  2  5  1  0  0  0  0
  5  6  2  0  0  0  0
  5 26  1  0  0  0  0
  6 13  1  0  0  0  0
  7  6  1  0  0  0  0
  7  8  1  0  0  0  0
  7  9  1  0  0  0  0
  7 30  1  1  0  0  0
  8 31  1  0  0  0  0
  9 10  1  0  0  0  0
  9 11  1  0  0  0  0
  9 12  1  0  0  0  0
 12 13  1  0  0  0  0
 12 32  1  0  0  0  0
 12 33  1  0  0  0  0
 13 14  2  0  0  0  0
 14 15  1  0  0  0  0
 14 25  1  0  0  0  0
 15 16  1  0  0  0  0
 16 17  2  0  0  0  0
 16 22  1  0  0  0  0
 17 18  1  0  0  0  0
 17 34  1  0  0  0  0
 18 19  2  0  0  0  0
 18 23  1  0  0  0  0
 19 20  1  0  0  0  0
 19 35  1  0  0  0  0
 20 21  1  0  0  0  0
 20 22  2  0  0  0  0
 22 36  1  0  0  0  0
 23 24  3  0  0  0  0
 25 26  2  0  0  0  0
 25 37  1  0  0  0  0
 26 38  1  0  0  0  0
M  END
>  <DRUGBANK_ID>
DB16055

>  <COMMON_NAME>
PT-2385

>  <CAS_NUMBER>
1672665-49-4

>  <UNII>
6O16716DXP

$$$$
