1354
 OpenBabel10282417113D

 36 37  0  0  0  0  0  0  0  0999 V2000
   -2.4134   -1.1565    0.0322 O   0  0  0  0  0  0  0  0  0  0  0  0
    2.4203   -1.1314   -0.2348 O   0  0  0  0  0  0  0  0  0  0  0  0
   -0.0047    2.6191    0.0007 O   0  0  0  0  0  0  0  0  0  0  0  0
   -1.1518    0.6810    0.0208 N   0  0  0  0  0  0  0  0  0  0  0  0
    1.1572    0.6923   -0.0097 N   0  0  0  0  0  0  0  0  0  0  0  0
    0.0050   -1.5140   -0.0835 C   0  0  0  0  0  0  0  0  0  0  0  0
    0.0385   -2.5008    1.1230 C   0  0  0  0  0  0  0  0  0  0  0  0
   -1.1212   -3.4813    1.2294 C   0  0  0  0  0  0  0  0  0  0  0  0
   -0.7862   -4.9414    1.5088 C   0  0  0  0  0  0  0  0  0  0  0  0
   -0.0068   -2.2545   -1.4495 C   0  0  0  0  0  0  0  0  0  0  0  0
   -0.2666   -5.2074    2.9128 C   0  0  0  0  0  0  0  0  0  0  0  0
    1.1667   -4.7508    3.1140 C   0  0  0  0  0  0  0  0  0  0  0  0
    1.0153   -2.4236    2.0528 C   0  0  0  0  0  0  0  0  0  0  0  0
    1.3053   -3.2476    3.2593 C   0  0  0  0  0  0  0  0  0  0  0  0
   -1.2780   -0.6764    0.0157 C   0  0  0  0  0  0  0  0  0  0  0  0
    1.2870   -0.6583   -0.1100 C   0  0  0  0  0  0  0  0  0  0  0  0
    0.0398   -1.2877   -2.6345 C   0  0  0  0  0  0  0  0  0  0  0  0
   -0.0002    1.3963    0.0068 C   0  0  0  0  0  0  0  0  0  0  0  0
   -2.0132    1.2082    0.0368 H   0  0  0  0  0  0  0  0  0  0  0  0
    2.0152    1.2238   -0.0440 H   0  0  0  0  0  0  0  0  0  0  0  0
   -1.6885   -3.4959    0.2932 H   0  0  0  0  0  0  0  0  0  0  0  0
   -1.8256   -3.1055    1.9837 H   0  0  0  0  0  0  0  0  0  0  0  0
   -0.0816   -5.3155    0.7565 H   0  0  0  0  0  0  0  0  0  0  0  0
   -1.7102   -5.5213    1.3843 H   0  0  0  0  0  0  0  0  0  0  0  0
    0.8495   -2.9388   -1.5146 H   0  0  0  0  0  0  0  0  0  0  0  0
   -0.9061   -2.8697   -1.5650 H   0  0  0  0  0  0  0  0  0  0  0  0
   -0.9220   -4.7419    3.6585 H   0  0  0  0  0  0  0  0  0  0  0  0
   -0.3031   -6.2884    3.0885 H   0  0  0  0  0  0  0  0  0  0  0  0
    1.5447   -5.2029    4.0385 H   0  0  0  0  0  0  0  0  0  0  0  0
    1.8057   -5.1211    2.3018 H   0  0  0  0  0  0  0  0  0  0  0  0
    1.7734   -1.6474    1.9746 H   0  0  0  0  0  0  0  0  0  0  0  0
    2.3581   -3.0572    3.5118 H   0  0  0  0  0  0  0  0  0  0  0  0
    0.7157   -2.8675    4.0991 H   0  0  0  0  0  0  0  0  0  0  0  0
    0.9478   -0.6771   -2.6211 H   0  0  0  0  0  0  0  0  0  0  0  0
    0.0279   -1.8373   -3.5778 H   0  0  0  0  0  0  0  0  0  0  0  0
   -0.8214   -0.6125   -2.6238 H   0  0  0  0  0  0  0  0  0  0  0  0
  1 15  2  0  0  0  0
  2 16  2  0  0  0  0
  3 18  2  0  0  0  0
  4 15  1  0  0  0  0
  4 18  1  0  0  0  0
  4 19  1  0  0  0  0
  5 16  1  0  0  0  0
  5 18  1  0  0  0  0
  5 20  1  0  0  0  0
  6  7  1  0  0  0  0
  6 10  1  0  0  0  0
  6 15  1  0  0  0  0
  6 16  1  0  0  0  0
  7  8  1  0  0  0  0
  7 13  2  0  0  0  0
  8  9  1  0  0  0  0
  8 21  1  0  0  0  0
  8 22  1  0  0  0  0
  9 11  1  0  0  0  0
  9 23  1  0  0  0  0
  9 24  1  0  0  0  0
 10 17  1  0  0  0  0
 10 25  1  0  0  0  0
 10 26  1  0  0  0  0
 11 12  1  0  0  0  0
 11 27  1  0  0  0  0
 11 28  1  0  0  0  0
 12 14  1  0  0  0  0
 12 29  1  0  0  0  0
 12 30  1  0  0  0  0
 13 14  1  0  0  0  0
 13 31  1  0  0  0  0
 14 32  1  0  0  0  0
 14 33  1  0  0  0  0
 17 34  1  0  0  0  0
 17 35  1  0  0  0  0
 17 36  1  0  0  0  0
M  END
>  <DRUGBANK_ID>
DB01354

>  <COMMON_NAME>
Heptabarbital

>  <CAS_NUMBER>
509-86-4

>  <UNII>
V10R70ML23

>  <SYNONYMS>
Heptabarb; Heptabarbe; Heptabarbital; Heptabarbitone; Heptabarbo; Heptabarbum

$$$$
