
 OpenBabel10282417213D

  2  1  0  0  0  0  0  0  0  0999 V2000
    0.9647    0.0467   -0.0596 O   0  5  0  0  0  0  0  0  0  0  0  0
    1.9045    0.0467   -0.0596 H   0  0  0  0  0  0  0  0  0  0  0  0
  2  1  1  0  0  0  0
M  CHG  1   1  -1
M  END
>  <DRUGBANK_ID>
DB14522

>  <COMMON_NAME>
Hydroxide ion

>  <CAS_NUMBER>
14280-30-9

>  <UNII>
9159UV381P

>  <SYNONYMS>
Hydroxide; Oxidanide

$$$$
