1002
 OpenBabel10282417113D

 49 50  0  0  1  0  0  0  0  0999 V2000
    0.9962   -0.4730   -0.0143 O   0  0  0  0  0  0  0  0  0  0  0  0
    2.1931    2.3784    0.3276 N   0  0  0  0  0  0  0  0  0  0  0  0
    3.0567   -1.3717   -0.2961 N   0  0  0  0  0  0  0  0  0  0  0  0
    2.7260    1.0477    0.8386 C   0  0  1  0  0  0  0  0  0  0  0  0
    2.5376    1.0410    2.3834 C   0  0  0  0  0  0  0  0  0  0  0  0
    2.9268    3.5015    0.9658 C   0  0  0  0  0  0  0  0  0  0  0  0
    3.4301    2.1362    2.9843 C   0  0  0  0  0  0  0  0  0  0  0  0
    2.9154    3.4693    2.4842 C   0  0  0  0  0  0  0  0  0  0  0  0
    2.2621    2.6250   -1.1243 C   0  0  0  0  0  0  0  0  0  0  0  0
    2.2322   -0.3096    0.1774 C   0  0  0  0  0  0  0  0  0  0  0  0
    3.6751    2.7429   -1.7840 C   0  0  0  0  0  0  0  0  0  0  0  0
    4.4472    1.4591   -1.7858 C   0  0  0  0  0  0  0  0  0  0  0  0
    4.5074   -1.5638   -0.4015 C   0  0  0  0  0  0  0  0  0  0  0  0
    3.5093    0.5320   -2.4951 C   0  0  0  0  0  0  0  0  0  0  0  0
    5.3319   -1.2564    0.6964 C   0  0  0  0  0  0  0  0  0  0  0  0
    5.1797   -1.9349   -1.6397 C   0  0  0  0  0  0  0  0  0  0  0  0
    6.7107   -1.0544    0.5575 C   0  0  0  0  0  0  0  0  0  0  0  0
    6.5814   -1.7076   -1.7321 C   0  0  0  0  0  0  0  0  0  0  0  0
    4.7822   -0.9701    2.0359 C   0  0  0  0  0  0  0  0  0  0  0  0
    4.5464   -2.3241   -2.9929 C   0  0  0  0  0  0  0  0  0  0  0  0
    7.3324   -1.2553   -0.6544 C   0  0  0  0  0  0  0  0  0  0  0  0
    2.5100   -1.9453   -0.9306 H   0  0  0  0  0  0  0  0  0  0  0  0
    3.7758    1.1246    0.6397 H   0  0  0  0  0  0  0  0  0  0  0  0
    2.7911    0.0877    2.8504 H   0  0  0  0  0  0  0  0  0  0  0  0
    1.4895    1.1830    2.6635 H   0  0  0  0  0  0  0  0  0  0  0  0
    2.5027    4.4577    0.6333 H   0  0  0  0  0  0  0  0  0  0  0  0
    3.9795    3.4953    0.6565 H   0  0  0  0  0  0  0  0  0  0  0  0
    3.4288    2.0942    4.0758 H   0  0  0  0  0  0  0  0  0  0  0  0
    4.4808    2.0141    2.6741 H   0  0  0  0  0  0  0  0  0  0  0  0
    1.8956    3.6216    2.8470 H   0  0  0  0  0  0  0  0  0  0  0  0
    3.5412    4.2822    2.8669 H   0  0  0  0  0  0  0  0  0  0  0  0
    1.5950    1.9140   -1.6170 H   0  0  0  0  0  0  0  0  0  0  0  0
    1.7510    3.5676   -1.3566 H   0  0  0  0  0  0  0  0  0  0  0  0
    3.5402    2.9974   -2.8413 H   0  0  0  0  0  0  0  0  0  0  0  0
    4.2835    3.5425   -1.3600 H   0  0  0  0  0  0  0  0  0  0  0  0
    5.4062    1.5012   -2.3115 H   0  0  0  0  0  0  0  0  0  0  0  0
    4.7731    1.1405   -0.7964 H   0  0  0  0  0  0  0  0  0  0  0  0
    3.5399    0.6444   -3.5707 H   0  0  0  0  0  0  0  0  0  0  0  0
    3.8115   -0.4234   -2.2312 H   0  0  0  0  0  0  0  0  0  0  0  0
    2.4759    0.4634   -2.1742 H   0  0  0  0  0  0  0  0  0  0  0  0
    7.2829   -0.6747    1.4019 H   0  0  0  0  0  0  0  0  0  0  0  0
    7.0993   -1.8133   -2.6853 H   0  0  0  0  0  0  0  0  0  0  0  0
    4.4782    0.0362    1.8920 H   0  0  0  0  0  0  0  0  0  0  0  0
    3.9561   -1.6319    2.3038 H   0  0  0  0  0  0  0  0  0  0  0  0
    5.4818   -0.8479    2.8608 H   0  0  0  0  0  0  0  0  0  0  0  0
    3.8623   -3.1624   -2.8977 H   0  0  0  0  0  0  0  0  0  0  0  0
    4.0061   -1.5441   -3.5405 H   0  0  0  0  0  0  0  0  0  0  0  0
    5.3241   -2.5613   -3.7320 H   0  0  0  0  0  0  0  0  0  0  0  0
    8.3944   -1.0517   -0.7527 H   0  0  0  0  0  0  0  0  0  0  0  0
  1 10  2  0  0  0  0
  2  4  1  0  0  0  0
  2  6  1  0  0  0  0
  2  9  1  0  0  0  0
  3 10  1  0  0  0  0
  3 13  1  0  0  0  0
  3 22  1  0  0  0  0
  4  5  1  0  0  0  0
  4 10  1  0  0  0  0
  4 23  1  6  0  0  0
  5  7  1  0  0  0  0
  5 24  1  0  0  0  0
  5 25  1  0  0  0  0
  6  8  1  0  0  0  0
  6 26  1  0  0  0  0
  6 27  1  0  0  0  0
  7  8  1  0  0  0  0
  7 28  1  0  0  0  0
  7 29  1  0  0  0  0
  8 30  1  0  0  0  0
  8 31  1  0  0  0  0
  9 11  1  0  0  0  0
  9 32  1  0  0  0  0
  9 33  1  0  0  0  0
 11 12  1  0  0  0  0
 11 34  1  0  0  0  0
 11 35  1  0  0  0  0
 12 14  1  0  0  0  0
 12 36  1  0  0  0  0
 12 37  1  0  0  0  0
 13 15  2  0  0  0  0
 13 16  1  0  0  0  0
 14 38  1  0  0  0  0
 14 39  1  0  0  0  0
 14 40  1  0  0  0  0
 15 17  1  0  0  0  0
 15 19  1  0  0  0  0
 16 18  2  0  0  0  0
 16 20  1  0  0  0  0
 17 21  2  0  0  0  0
 17 41  1  0  0  0  0
 18 21  1  0  0  0  0
 18 42  1  0  0  0  0
 19 43  1  0  0  0  0
 19 44  1  0  0  0  0
 19 45  1  0  0  0  0
 20 46  1  0  0  0  0
 20 47  1  0  0  0  0
 20 48  1  0  0  0  0
 21 49  1  0  0  0  0
M  END
>  <DRUGBANK_ID>
DB01002

>  <SECONDARY_ACCESSION_NUMBERS>
APRD00110

>  <COMMON_NAME>
Levobupivacaine

>  <CAS_NUMBER>
27262-47-1

>  <UNII>
A5H73K9U3W

>  <SYNONYMS>
(-)-bupivacaine; (S)-1-butyl-2',6'-pipecoloxylidide; (S)-bupivacaine; L-(-)-1-Butyl-2',6'-pipecoloxylidide; L-(−)-bupivacaine; Levobupivacaína; Levobupivacaine

$$$$
