
 OpenBabel10282417143D

 93 97  0  0  0  0  0  0  0  0999 V2000
    3.5474    0.5052    1.7781 P   0  0  1  0  0  0  0  0  0  0  0  0
    2.2437    1.0301    2.5831 O   0  0  0  0  0  0  0  0  0  0  0  0
    4.6727    1.4976    1.7571 O   0  0  0  0  0  0  0  0  0  0  0  0
    3.2794   -2.7621    5.5870 O   0  0  0  0  0  0  0  0  0  0  0  0
   -0.5790    1.3170   -0.2122 O   0  0  0  0  0  0  0  0  0  0  0  0
    1.3756    2.4013   -0.4488 O   0  0  0  0  0  0  0  0  0  0  0  0
    6.1145   -4.8437    0.8843 O   0  0  0  0  0  0  0  0  0  0  0  0
    1.4384    0.1802    0.1210 N   0  0  0  0  0  0  0  0  0  0  0  0
    5.1275   -3.2580    4.3366 N   0  0  0  0  0  0  0  0  0  0  0  0
    8.8928   -5.0412    5.8567 N   0  0  0  0  0  0  0  0  0  0  0  0
    5.8675   -6.0478    2.8148 N   0  0  0  0  0  0  0  0  0  0  0  0
    3.1312   -1.8499    3.3200 C   0  0  1  0  0  0  0  0  0  0  0  0
    4.0525   -0.7407    2.9186 C   0  0  0  0  0  0  0  0  0  0  0  0
    2.9176    0.1193    0.1243 C   0  0  2  0  0  0  0  0  0  0  0  0
    2.5042   -2.5791    2.0573 C   0  0  0  0  0  0  0  0  0  0  0  0
    3.4958   -3.5085    1.3504 C   0  0  0  0  0  0  0  0  0  0  0  0
    3.8862   -2.6113    4.5176 C   0  0  0  0  0  0  0  0  0  0  0  0
    3.4621   -1.0875   -0.6524 C   0  0  0  0  0  0  0  0  0  0  0  0
    3.6249   -4.5263    2.4201 C   0  0  0  0  0  0  0  0  0  0  0  0
    6.0258   -3.4666    3.0553 C   0  0  1  0  0  0  0  0  0  0  0  0
    3.0156   -1.2874   -2.0764 C   0  0  0  0  0  0  0  0  0  0  0  0
    7.4415   -3.0202    3.2404 C   0  0  0  0  0  0  0  0  0  0  0  0
    2.8546   -5.6760    2.7209 C   0  0  0  0  0  0  0  0  0  0  0  0
    8.1608   -4.0482    4.0272 C   0  0  0  0  0  0  0  0  0  0  0  0
    0.7707    1.3344   -0.1680 C   0  0  0  0  0  0  0  0  0  0  0  0
    6.0764   -4.8527    2.1152 C   0  0  0  0  0  0  0  0  0  0  0  0
    2.9082   -2.5960   -2.5924 C   0  0  0  0  0  0  0  0  0  0  0  0
    2.6255   -0.2066   -2.8616 C   0  0  0  0  0  0  0  0  0  0  0  0
    8.4741   -5.4314    3.7052 C   0  0  0  0  0  0  0  0  0  0  0  0
    8.4768   -3.8484    5.3489 C   0  0  0  0  0  0  0  0  0  0  0  0
    8.7626   -6.0434    4.9200 C   0  0  0  0  0  0  0  0  0  0  0  0
    2.1904   -5.5984    3.9484 C   0  0  0  0  0  0  0  0  0  0  0  0
    2.8795   -6.7178    1.8535 C   0  0  0  0  0  0  0  0  0  0  0  0
    2.4059   -2.8075   -3.8729 C   0  0  0  0  0  0  0  0  0  0  0  0
    2.0701   -0.4246   -4.1132 C   0  0  0  0  0  0  0  0  0  0  0  0
    8.3765   -6.2879    2.5616 C   0  0  0  0  0  0  0  0  0  0  0  0
    2.0012   -1.7163   -4.6383 C   0  0  0  0  0  0  0  0  0  0  0  0
    1.0975   -6.3579    4.0641 C   0  0  0  0  0  0  0  0  0  0  0  0
    1.7812   -7.4940    1.9741 C   0  0  0  0  0  0  0  0  0  0  0  0
    8.9152   -7.4352    5.0296 C   0  0  0  0  0  0  0  0  0  0  0  0
    0.8773   -7.2791    3.0438 C   0  0  0  0  0  0  0  0  0  0  0  0
    8.2364   -7.6762    2.7302 C   0  0  0  0  0  0  0  0  0  0  0  0
   -1.3750    0.1455    0.0375 C   0  0  0  0  0  0  0  0  0  0  0  0
    8.5696   -8.2452    3.9399 C   0  0  0  0  0  0  0  0  0  0  0  0
   -1.1467   -0.9525   -0.9617 C   0  0  0  0  0  0  0  0  0  0  0  0
   -1.3014   -2.2846   -0.5581 C   0  0  0  0  0  0  0  0  0  0  0  0
   -0.7979   -0.6767   -2.2828 C   0  0  0  0  0  0  0  0  0  0  0  0
   -1.0376   -3.3278   -1.4400 C   0  0  0  0  0  0  0  0  0  0  0  0
   -0.6674   -1.7224   -3.1863 C   0  0  0  0  0  0  0  0  0  0  0  0
   -0.7041   -3.0443   -2.7552 C   0  0  0  0  0  0  0  0  0  0  0  0
    0.9159   -0.6842    0.1770 H   0  0  0  0  0  0  0  0  0  0  0  0
    5.2374   -3.9737    5.0560 H   0  0  0  0  0  0  0  0  0  0  0  0
    9.2080   -5.1722    6.8043 H   0  0  0  0  0  0  0  0  0  0  0  0
    6.0248   -6.0929    3.8148 H   0  0  0  0  0  0  0  0  0  0  0  0
    5.7905   -6.9399    2.3415 H   0  0  0  0  0  0  0  0  0  0  0  0
    1.7994    0.3867    3.1668 H   0  0  0  0  0  0  0  0  0  0  0  0
    2.2310   -1.4460    3.8065 H   0  0  0  0  0  0  0  0  0  0  0  0
    5.0278   -1.0763    2.5943 H   0  0  0  0  0  0  0  0  0  0  0  0
    4.2815   -0.2203    3.8619 H   0  0  0  0  0  0  0  0  0  0  0  0
    3.2592    0.9975   -0.4279 H   0  0  0  0  0  0  0  0  0  0  0  0
    1.6517   -3.2096    2.3522 H   0  0  0  0  0  0  0  0  0  0  0  0
    2.0375   -1.8655    1.4043 H   0  0  0  0  0  0  0  0  0  0  0  0
    3.2137   -3.9673    0.3996 H   0  0  0  0  0  0  0  0  0  0  0  0
    4.3928   -2.9298    1.0944 H   0  0  0  0  0  0  0  0  0  0  0  0
    4.5521   -1.1467   -0.5894 H   0  0  0  0  0  0  0  0  0  0  0  0
    3.0525   -1.9696   -0.2029 H   0  0  0  0  0  0  0  0  0  0  0  0
    4.4442   -4.7718    2.9906 H   0  0  0  0  0  0  0  0  0  0  0  0
    3.3138   -3.9541    3.2302 H   0  0  0  0  0  0  0  0  0  0  0  0
    5.6251   -2.7408    2.3801 H   0  0  0  0  0  0  0  0  0  0  0  0
    7.8877   -2.8660    2.2554 H   0  0  0  0  0  0  0  0  0  0  0  0
    7.3934   -2.0454    3.7470 H   0  0  0  0  0  0  0  0  0  0  0  0
    3.1584   -3.4642   -1.9831 H   0  0  0  0  0  0  0  0  0  0  0  0
    2.6663    0.8090   -2.4796 H   0  0  0  0  0  0  0  0  0  0  0  0
    8.3992   -2.9496    5.9513 H   0  0  0  0  0  0  0  0  0  0  0  0
    2.4262   -4.8307    4.6893 H   0  0  0  0  0  0  0  0  0  0  0  0
    3.6427   -6.7816    1.0799 H   0  0  0  0  0  0  0  0  0  0  0  0
    2.2360   -3.8197   -4.2319 H   0  0  0  0  0  0  0  0  0  0  0  0
    1.5858    0.4067   -4.6186 H   0  0  0  0  0  0  0  0  0  0  0  0
    8.1051   -5.9060    1.5769 H   0  0  0  0  0  0  0  0  0  0  0  0
    1.5034   -1.8783   -5.5900 H   0  0  0  0  0  0  0  0  0  0  0  0
    0.4295   -6.1262    4.8805 H   0  0  0  0  0  0  0  0  0  0  0  0
    1.5893   -8.1850    1.1703 H   0  0  0  0  0  0  0  0  0  0  0  0
    9.2588   -7.8873    5.9498 H   0  0  0  0  0  0  0  0  0  0  0  0
   -0.0367   -7.8403    3.0730 H   0  0  0  0  0  0  0  0  0  0  0  0
    7.8044   -8.2843    1.9310 H   0  0  0  0  0  0  0  0  0  0  0  0
   -1.1841   -0.1946    1.0600 H   0  0  0  0  0  0  0  0  0  0  0  0
   -2.4308    0.4359   -0.0258 H   0  0  0  0  0  0  0  0  0  0  0  0
    8.5898   -9.3291    4.0197 H   0  0  0  0  0  0  0  0  0  0  0  0
   -1.6063   -2.5127    0.4585 H   0  0  0  0  0  0  0  0  0  0  0  0
   -0.5761    0.3385   -2.6129 H   0  0  0  0  0  0  0  0  0  0  0  0
   -1.1072   -4.3584   -1.1086 H   0  0  0  0  0  0  0  0  0  0  0  0
   -0.4535   -1.4994   -4.2257 H   0  0  0  0  0  0  0  0  0  0  0  0
   -0.4401   -3.8426   -3.4430 H   0  0  0  0  0  0  0  0  0  0  0  0
  1 13  1  0  0  0  0
  1  3  2  6  0  0  0
  1  2  1  0  0  0  0
  2 56  1  0  0  0  0
  4 17  2  0  0  0  0
  5 25  1  0  0  0  0
  5 43  1  0  0  0  0
  6 25  2  0  0  0  0
  7 26  2  0  0  0  0
  8 25  1  0  0  0  0
  8 51  1  0  0  0  0
  9 17  1  0  0  0  0
  9 52  1  0  0  0  0
 10 30  1  0  0  0  0
 10 31  1  0  0  0  0
 10 53  1  0  0  0  0
 11 26  1  0  0  0  0
 11 54  1  0  0  0  0
 11 55  1  0  0  0  0
 12 13  1  0  0  0  0
 12 15  1  0  0  0  0
 12 17  1  0  0  0  0
 12 57  1  1  0  0  0
 13 58  1  0  0  0  0
 13 59  1  0  0  0  0
 14 18  1  0  0  0  0
 14 60  1  6  0  0  0
 14  8  1  0  0  0  0
 14  1  1  0  0  0  0
 15 16  1  0  0  0  0
 15 61  1  0  0  0  0
 15 62  1  0  0  0  0
 16 19  1  0  0  0  0
 16 63  1  0  0  0  0
 16 64  1  0  0  0  0
 18 21  1  0  0  0  0
 18 65  1  0  0  0  0
 18 66  1  0  0  0  0
 19 23  1  0  0  0  0
 19 67  1  0  0  0  0
 19 68  1  0  0  0  0
 20  9  1  0  0  0  0
 20 22  1  0  0  0  0
 20 26  1  0  0  0  0
 20 69  1  6  0  0  0
 21 27  2  0  0  0  0
 21 28  1  0  0  0  0
 22 24  1  0  0  0  0
 22 70  1  0  0  0  0
 22 71  1  0  0  0  0
 23 32  2  0  0  0  0
 23 33  1  0  0  0  0
 24 29  1  0  0  0  0
 24 30  2  0  0  0  0
 27 34  1  0  0  0  0
 27 72  1  0  0  0  0
 28 35  2  0  0  0  0
 28 73  1  0  0  0  0
 29 31  1  0  0  0  0
 29 36  2  0  0  0  0
 30 74  1  0  0  0  0
 31 40  2  0  0  0  0
 32 38  1  0  0  0  0
 32 75  1  0  0  0  0
 33 39  2  0  0  0  0
 33 76  1  0  0  0  0
 34 37  2  0  0  0  0
 34 77  1  0  0  0  0
 35 37  1  0  0  0  0
 35 78  1  0  0  0  0
 36 42  1  0  0  0  0
 36 79  1  0  0  0  0
 37 80  1  0  0  0  0
 38 41  2  0  0  0  0
 38 81  1  0  0  0  0
 39 41  1  0  0  0  0
 39 82  1  0  0  0  0
 40 44  1  0  0  0  0
 40 83  1  0  0  0  0
 41 84  1  0  0  0  0
 42 44  2  0  0  0  0
 42 85  1  0  0  0  0
 43 45  1  0  0  0  0
 43 86  1  0  0  0  0
 43 87  1  0  0  0  0
 44 88  1  0  0  0  0
 45 46  2  0  0  0  0
 45 47  1  0  0  0  0
 46 48  1  0  0  0  0
 46 89  1  0  0  0  0
 47 49  2  0  0  0  0
 47 90  1  0  0  0  0
 48 50  2  0  0  0  0
 48 91  1  0  0  0  0
 49 50  1  0  0  0  0
 49 92  1  0  0  0  0
 50 93  1  0  0  0  0
M  END
>  <DRUGBANK_ID>
DB04318

>  <SECONDARY_ACCESSION_NUMBERS>
EXPT02827

>  <COMMON_NAME>
NÎ±-[(2S)-2-{[(S)-[(1S)-1-{[(Benzyloxy)carbonyl]amino}-2-phenylethyl](hydroxy)phosphoryl]methyl}-5-phenylpentanoyl]-L-tryptophanamide

$$$$
