BL4
 OpenBabel10282417163D

 38 41  0  0  0  0  0  0  0  0999 V2000
    1.7599   -0.2946    1.7100 O   0  0  0  0  0  0  0  0  0  0  0  0
    2.7789   -0.1810    0.9875 C   0  0  0  0  0  0  0  0  0  0  0  0
    3.6132    1.0763    1.0110 C   0  0  2  0  0  0  0  0  0  0  0  0
    3.7302    0.7968    2.4168 O   0  0  0  0  0  0  0  0  0  0  0  0
    3.3207    2.5767    1.2362 C   0  0  0  0  0  0  0  0  0  0  0  0
    4.1880    3.4222    0.3044 C   0  0  0  0  0  0  0  0  0  0  0  0
    4.9818    2.4393   -0.4362 N   0  0  0  0  0  0  0  0  0  0  0  0
    5.8907    2.9382   -1.3844 C   0  0  0  0  0  0  0  0  0  0  0  0
    7.0499    3.5838   -0.9222 C   0  0  0  0  0  0  0  0  0  0  0  0
    8.0426    4.0318   -1.8001 C   0  0  0  0  0  0  0  0  0  0  0  0
    7.8113    4.0185   -3.1693 C   0  0  0  0  0  0  0  0  0  0  0  0
    6.6236    3.4752   -3.6520 C   0  0  0  0  0  0  0  0  0  0  0  0
    5.7302    2.8340   -2.7731 C   0  0  0  0  0  0  0  0  0  0  0  0
    4.4748    1.1457   -0.3133 C   0  0  0  0  0  0  0  0  0  0  0  0
    4.5714    0.1580   -1.1635 N   0  0  0  0  0  0  0  0  0  0  0  0
    3.9229   -1.0835   -0.9052 C   0  0  0  0  0  0  0  0  0  0  0  0
    3.2713   -1.3746    0.2992 C   0  0  0  0  0  0  0  0  0  0  0  0
    3.7784   -2.0481   -1.9092 C   0  0  0  0  0  0  0  0  0  0  0  0
    3.0582   -3.2424   -1.6748 C   0  0  0  0  0  0  0  0  0  0  0  0
    2.5342   -3.5400   -0.4121 C   0  0  0  0  0  0  0  0  0  0  0  0
    2.6919   -2.6323    0.6277 C   0  0  0  0  0  0  0  0  0  0  0  0
    2.0563   -2.9369    1.9704 C   0  0  0  0  0  0  0  0  0  0  0  0
    2.7621    0.8346    2.6963 H   0  0  0  0  0  0  0  0  0  0  0  0
    2.2791    2.8902    1.3280 H   0  0  0  0  0  0  0  0  0  0  0  0
    3.7312    2.8451    2.2296 H   0  0  0  0  0  0  0  0  0  0  0  0
    3.5918    4.0373   -0.3788 H   0  0  0  0  0  0  0  0  0  0  0  0
    4.7482    4.1340    0.9356 H   0  0  0  0  0  0  0  0  0  0  0  0
    7.2139    3.6813    0.1473 H   0  0  0  0  0  0  0  0  0  0  0  0
    8.9899    4.3923   -1.4087 H   0  0  0  0  0  0  0  0  0  0  0  0
    8.5577    4.4148   -3.8543 H   0  0  0  0  0  0  0  0  0  0  0  0
    6.4029    3.5369   -4.7161 H   0  0  0  0  0  0  0  0  0  0  0  0
    4.9101    2.2632   -3.2001 H   0  0  0  0  0  0  0  0  0  0  0  0
    4.1459   -1.8475   -2.9144 H   0  0  0  0  0  0  0  0  0  0  0  0
    2.8833   -3.9431   -2.4890 H   0  0  0  0  0  0  0  0  0  0  0  0
    1.9275   -4.4332   -0.2604 H   0  0  0  0  0  0  0  0  0  0  0  0
    2.4557   -2.3241    2.7886 H   0  0  0  0  0  0  0  0  0  0  0  0
    0.9743   -2.7742    1.9136 H   0  0  0  0  0  0  0  0  0  0  0  0
    2.2395   -3.9726    2.2793 H   0  0  0  0  0  0  0  0  0  0  0  0
  2  1  2  0  0  0  0
  3  2  1  0  0  0  0
  3  5  1  0  0  0  0
  3  4  1  1  0  0  0
  4 23  1  0  0  0  0
  5 24  1  0  0  0  0
  5 25  1  0  0  0  0
  6  5  1  0  0  0  0
  6 26  1  0  0  0  0
  6 27  1  0  0  0  0
  7  6  1  0  0  0  0
  7 14  1  0  0  0  0
  8  7  1  0  0  0  0
  9  8  1  0  0  0  0
  9 28  1  0  0  0  0
 10  9  2  0  0  0  0
 10 29  1  0  0  0  0
 11 10  1  0  0  0  0
 11 12  2  0  0  0  0
 11 30  1  0  0  0  0
 12 13  1  0  0  0  0
 12 31  1  0  0  0  0
 13  8  2  0  0  0  0
 13 32  1  0  0  0  0
 14  3  1  0  0  0  0
 15 14  2  0  0  0  0
 15 16  1  0  0  0  0
 16 17  1  0  0  0  0
 17  2  1  0  0  0  0
 17 21  2  0  0  0  0
 18 16  2  0  0  0  0
 18 19  1  0  0  0  0
 18 33  1  0  0  0  0
 19 20  2  0  0  0  0
 19 34  1  0  0  0  0
 20 21  1  0  0  0  0
 20 35  1  0  0  0  0
 21 22  1  0  0  0  0
 22 36  1  0  0  0  0
 22 37  1  0  0  0  0
 22 38  1  0  0  0  0
M  END
>  <DRUGBANK_ID>
DB07468

>  <COMMON_NAME>
(3aS)-3a-hydroxy-5-methyl-1-phenyl-1,2,3,3a-tetrahydro-4H-pyrrolo[2,3-b]quinolin-4-one

$$$$
