
 OpenBabel10282417203D

 45 48  0  0  0  0  0  0  0  0999 V2000
    1.4848   -0.3795    0.1352 C   0  0  0  0  0  0  0  0  0  0  0  0
   -4.4075    2.7648    3.3144 C   0  0  0  0  0  0  0  0  0  0  0  0
    0.5535   -1.4139    0.1401 C   0  0  0  0  0  0  0  0  0  0  0  0
    1.0432    0.9275    0.2509 C   0  0  0  0  0  0  0  0  0  0  0  0
   -3.4428    3.3300    2.5153 C   0  0  0  0  0  0  0  0  0  0  0  0
   -4.8788    1.4847    3.0244 C   0  0  0  0  0  0  0  0  0  0  0  0
   -0.8246   -1.1481    0.1768 C   0  0  0  0  0  0  0  0  0  0  0  0
   -0.3195    1.1789    0.3463 C   0  0  0  0  0  0  0  0  0  0  0  0
   -2.9686    2.6159    1.4254 C   0  0  0  0  0  0  0  0  0  0  0  0
   -4.3590    0.7534    1.9444 C   0  0  0  0  0  0  0  0  0  0  0  0
   -3.0142    1.2650   -4.0372 C   0  0  0  0  0  0  0  0  0  0  0  0
   -1.0416    0.4286   -2.8824 C   0  0  0  0  0  0  0  0  0  0  0  0
   -2.3740    2.6617   -4.0520 C   0  0  0  0  0  0  0  0  0  0  0  0
   -0.4842    1.8585   -2.8296 C   0  0  0  0  0  0  0  0  0  0  0  0
   -2.4279    2.7060   -1.6731 C   0  0  0  0  0  0  0  0  0  0  0  0
   -2.5706    0.4770   -2.7752 C   0  0  3  0  0  0  0  0  0  0  0  0
   -1.2979    0.1801    0.2054 C   0  0  0  0  0  0  0  0  0  0  0  0
   -3.3985    1.3161    1.0928 C   0  0  0  0  0  0  0  0  0  0  0  0
   -3.0039    1.2784   -1.5021 C   0  0  3  0  0  0  0  0  0  0  0  0
   -2.7722    0.5431   -0.0945 C   0  0  0  0  0  0  0  0  0  0  0  0
   -1.5608    2.8730   -2.8559 N   0  0  3  0  0  0  0  0  0  0  0  0
   -3.5003   -0.7070   -0.2368 O   0  0  0  0  0  0  0  0  0  0  0  0
    2.5445   -0.5709    0.0202 H   0  0  0  0  0  0  0  0  0  0  0  0
   -4.7717    3.3170    4.1739 H   0  0  0  0  0  0  0  0  0  0  0  0
    0.9022   -2.4399    0.0398 H   0  0  0  0  0  0  0  0  0  0  0  0
    1.7286    1.7663    0.1786 H   0  0  0  0  0  0  0  0  0  0  0  0
   -3.0231    4.3123    2.7165 H   0  0  0  0  0  0  0  0  0  0  0  0
   -5.6415    1.0442    3.6572 H   0  0  0  0  0  0  0  0  0  0  0  0
   -1.5170   -1.9808    0.0768 H   0  0  0  0  0  0  0  0  0  0  0  0
   -0.5661    2.2289    0.3979 H   0  0  0  0  0  0  0  0  0  0  0  0
   -2.1987    3.1395    0.8931 H   0  0  0  0  0  0  0  0  0  0  0  0
   -4.7014   -0.2714    1.8108 H   0  0  0  0  0  0  0  0  0  0  0  0
   -4.1038    1.3533   -4.0754 H   0  0  0  0  0  0  0  0  0  0  0  0
   -2.6919    0.7231   -4.9346 H   0  0  0  0  0  0  0  0  0  0  0  0
   -0.7413   -0.0577   -3.8159 H   0  0  0  0  0  0  0  0  0  0  0  0
   -0.6057   -0.1986   -2.1159 H   0  0  0  0  0  0  0  0  0  0  0  0
   -1.7400    2.7968   -4.9357 H   0  0  0  0  0  0  0  0  0  0  0  0
   -3.1433    3.4399   -4.1096 H   0  0  0  0  0  0  0  0  0  0  0  0
    0.2050    2.0111   -3.6655 H   0  0  0  0  0  0  0  0  0  0  0  0
    0.1387    2.0263   -1.9514 H   0  0  0  0  0  0  0  0  0  0  0  0
   -1.8088    3.0378   -0.8613 H   0  0  0  0  0  0  0  0  0  0  0  0
   -3.2554    3.4296   -1.6956 H   0  0  0  0  0  0  0  0  0  0  0  0
   -3.0093   -0.5260   -2.7902 H   0  0  0  0  0  0  0  0  0  0  0  0
   -4.1003    1.3781   -1.5944 H   0  0  0  0  0  0  0  0  0  0  0  0
   -4.4282   -0.4840   -0.4191 H   0  0  0  0  0  0  0  0  0  0  0  0
  1 23  1  0  0  0  0
  2 24  1  0  0  0  0
  3  1  2  0  0  0  0
  3 25  1  0  0  0  0
  4  1  1  0  0  0  0
  4 26  1  0  0  0  0
  5  2  2  0  0  0  0
  5 27  1  0  0  0  0
  6  2  1  0  0  0  0
  6 28  1  0  0  0  0
  7  3  1  0  0  0  0
  7 29  1  0  0  0  0
  8  4  2  0  0  0  0
  8 30  1  0  0  0  0
  9  5  1  0  0  0  0
  9 31  1  0  0  0  0
 10  6  2  0  0  0  0
 10 32  1  0  0  0  0
 11 33  1  0  0  0  0
 11 34  1  0  0  0  0
 12 35  1  0  0  0  0
 12 36  1  0  0  0  0
 13 11  1  0  0  0  0
 13 37  1  0  0  0  0
 13 38  1  0  0  0  0
 14 12  1  0  0  0  0
 14 39  1  0  0  0  0
 14 40  1  0  0  0  0
 15 41  1  0  0  0  0
 15 42  1  0  0  0  0
 16 11  1  0  0  0  0
 16 12  1  0  0  0  0
 16 43  1  0  0  0  0
 17  7  2  0  0  0  0
 17  8  1  0  0  0  0
 18  9  2  0  0  0  0
 18 10  1  0  0  0  0
 19 15  1  0  0  0  0
 19 16  1  0  0  0  0
 19 44  1  0  0  0  0
 20 17  1  0  0  0  0
 20 18  1  0  0  0  0
 20 19  1  0  0  0  0
 21 13  1  0  0  0  0
 21 14  1  0  0  0  0
 21 15  1  0  0  0  0
 22 20  1  0  0  0  0
 22 45  1  0  0  0  0
M  END
>  <DRUGBANK_ID>
DB13713

>  <COMMON_NAME>
Quifenadine

>  <CAS_NUMBER>
10447-39-9

>  <UNII>
W9A18RJ49B

>  <SYNONYMS>
Quifenadine

$$$$
