
 OpenBabel10282417183D

 16  7  0  0  0  0  0  0  0  0999 V2000
    1.0673    0.0214    0.0708 O   0  0  0  0  0  0  0  0  0  0  0  0
    0.9055   -0.0020   -0.0327 O   0  5  0  0  0  0  0  0  0  0  0  0
    1.0495    0.0618   -0.0610 O   0  5  0  0  0  0  0  0  0  0  0  0
    1.0738    0.0040    0.0673 O   0  5  0  0  0  0  0  0  0  0  0  0
    1.0567    0.0823   -0.0015 O   0  5  0  0  0  0  0  0  0  0  0  0
    0.9814   -0.0572   -0.0799 O   0  5  0  0  0  0  0  0  0  0  0  0
    0.9189   -0.0492   -0.0316 Al  0  1  0  0  0  0  0  0  0  0  0  0
    1.0042    0.0503   -0.0863 Al  0  1  0  0  0  0  0  0  0  0  0  0
    1.0815    0.0578    0.0049 Cl  0  5  0  0  0  0  0  0  0  0  0  0
    0.7339   -0.1746    0.9930 H   0  0  0  0  0  0  0  0  0  0  0  0
    2.0673    0.0214    0.0708 H   0  0  0  0  0  0  0  0  0  0  0  0
    1.9055   -0.0020   -0.0327 H   0  0  0  0  0  0  0  0  0  0  0  0
    2.0495    0.0618   -0.0610 H   0  0  0  0  0  0  0  0  0  0  0  0
    2.0738    0.0040    0.0673 H   0  0  0  0  0  0  0  0  0  0  0  0
    2.0567    0.0823   -0.0015 H   0  0  0  0  0  0  0  0  0  0  0  0
    1.9814   -0.0572   -0.0799 H   0  0  0  0  0  0  0  0  0  0  0  0
  1 10  1  0  0  0  0
  1 11  1  0  0  0  0
  2 12  1  0  0  0  0
  3 13  1  0  0  0  0
  4 14  1  0  0  0  0
  5 15  1  0  0  0  0
  6 16  1  0  0  0  0
M  CHG  8   2  -1   3  -1   4  -1   5  -1   6  -1   7   3   8   3   9  -1
M  END
>  <DRUGBANK_ID>
DB11573

>  <COMMON_NAME>
Aluminum chlorohydrate

>  <CAS_NUMBER>
12359-72-7

>  <UNII>
HPN8MZW13M

>  <SYNONYMS>
Alchlordrate; Aluminium chlorohydrate; Aluminum chlorhydrate; Aluminum chlorohydrate; Aluminum chlorohydrate dihydrate; Aluminum hydroxychloride

$$$$
