
 OpenBabel10282417243D

 64 66  0  0  0  0  0  0  0  0999 V2000
    1.2831    0.3560    0.5080 C   0  0  0  0  0  0  0  0  0  0  0  0
    0.8504   -1.1142    0.6278 C   0  0  0  0  0  0  0  0  0  0  0  0
    1.3162   -2.5151    1.0162 N   0  0  0  0  0  0  0  0  0  0  0  0
    0.6466   -3.8936    0.4841 C   0  0  0  0  0  0  0  0  0  0  0  0
    0.8313   -4.6206   -0.9563 C   0  0  0  0  0  0  0  0  0  0  0  0
    2.7023   -2.5138    0.6072 C   0  0  0  0  0  0  0  0  0  0  0  0
    2.9714   -2.6616   -0.9310 C   0  0  0  0  0  0  0  0  0  0  0  0
    2.1737   -2.0553   -2.0398 O   0  0  0  0  0  0  0  0  0  0  0  0
    0.8130   -1.9353   -2.3066 C   0  0  0  0  0  0  0  0  0  0  0  0
    0.3811   -1.5763   -3.5617 C   0  0  0  0  0  0  0  0  0  0  0  0
   -1.0105   -1.2972   -3.7989 C   0  0  0  0  0  0  0  0  0  0  0  0
   -1.9097   -1.1460   -2.7395 C   0  0  0  0  0  0  0  0  0  0  0  0
   -3.2192   -0.6055   -2.5220 C   0  0  0  0  0  0  0  0  0  0  0  0
   -4.2627   -0.5293   -3.3880 C   0  0  0  0  0  0  0  0  0  0  0  0
   -5.4859   -0.0680   -2.8768 C   0  0  0  0  0  0  0  0  0  0  0  0
   -5.6590    0.3465   -1.5077 C   0  0  0  0  0  0  0  0  0  0  0  0
   -6.9877    0.2849   -1.0785 O   0  0  0  0  0  0  0  0  0  0  0  0
   -7.2788    0.1390    0.3363 C   0  0  0  0  0  0  0  0  0  0  0  0
   -7.1911   -1.2890    1.0256 C   0  0  0  0  0  0  0  0  0  0  0  0
   -5.9160   -2.0194    0.9194 N   0  0  0  0  0  0  0  0  0  0  0  0
   -5.6740   -3.1381    1.8164 C   0  0  0  0  0  0  0  0  0  0  0  0
   -6.5036   -4.3299    1.3790 C   0  0  0  0  0  0  0  0  0  0  0  0
   -5.6014   -2.4621   -0.4340 C   0  0  0  0  0  0  0  0  0  0  0  0
   -6.5065   -3.1545   -1.4227 C   0  0  0  0  0  0  0  0  0  0  0  0
   -4.5743    0.2703   -0.6180 C   0  0  0  0  0  0  0  0  0  0  0  0
   -3.4354   -0.3105   -1.1508 C   0  0  0  0  0  0  0  0  0  0  0  0
   -2.4083   -1.0767   -0.4196 C   0  0  0  0  0  0  0  0  0  0  0  0
   -2.3695   -1.2928    0.7539 O   0  0  0  0  0  0  0  0  0  0  0  0
   -1.4872   -1.5099   -1.5263 C   0  0  0  0  0  0  0  0  0  0  0  0
   -0.2725   -2.0791   -1.4349 C   0  0  0  0  0  0  0  0  0  0  0  0
    0.9354    0.9274    1.3572 H   0  0  0  0  0  0  0  0  0  0  0  0
    0.7698    0.7831   -0.3916 H   0  0  0  0  0  0  0  0  0  0  0  0
    2.3447    0.4780    0.2796 H   0  0  0  0  0  0  0  0  0  0  0  0
   -0.2136   -1.0091    0.7513 H   0  0  0  0  0  0  0  0  0  0  0  0
    1.2041   -1.1566   -0.3693 H   0  0  0  0  0  0  0  0  0  0  0  0
    0.9749   -4.6605    1.1856 H   0  0  0  0  0  0  0  0  0  0  0  0
   -0.4475   -3.8707    0.6608 H   0  0  0  0  0  0  0  0  0  0  0  0
    1.8418   -4.9705   -1.1373 H   0  0  0  0  0  0  0  0  0  0  0  0
    0.1992   -5.5065   -1.0638 H   0  0  0  0  0  0  0  0  0  0  0  0
    0.5461   -4.0940   -1.8665 H   0  0  0  0  0  0  0  0  0  0  0  0
    3.1521   -1.5833    0.9804 H   0  0  0  0  0  0  0  0  0  0  0  0
    3.1923   -3.2961    1.1988 H   0  0  0  0  0  0  0  0  0  0  0  0
    4.0063   -2.3006   -1.0438 H   0  0  0  0  0  0  0  0  0  0  0  0
    3.1200   -3.7106   -1.1636 H   0  0  0  0  0  0  0  0  0  0  0  0
    1.1099   -1.5400   -4.3643 H   0  0  0  0  0  0  0  0  0  0  0  0
   -1.3453   -1.1400   -4.8108 H   0  0  0  0  0  0  0  0  0  0  0  0
   -4.1447   -0.9653   -4.3735 H   0  0  0  0  0  0  0  0  0  0  0  0
   -6.3594   -0.2329   -3.5031 H   0  0  0  0  0  0  0  0  0  0  0  0
   -6.7296    0.8945    0.9055 H   0  0  0  0  0  0  0  0  0  0  0  0
   -8.3368    0.4277    0.4233 H   0  0  0  0  0  0  0  0  0  0  0  0
   -7.4173   -1.1199    2.0915 H   0  0  0  0  0  0  0  0  0  0  0  0
   -8.0085   -1.9120    0.6510 H   0  0  0  0  0  0  0  0  0  0  0  0
   -4.6043   -3.3930    1.7374 H   0  0  0  0  0  0  0  0  0  0  0  0
   -5.8346   -2.8753    2.8660 H   0  0  0  0  0  0  0  0  0  0  0  0
   -6.1365   -4.7087    0.4261 H   0  0  0  0  0  0  0  0  0  0  0  0
   -6.4124   -5.1783    2.0468 H   0  0  0  0  0  0  0  0  0  0  0  0
   -7.5534   -4.0454    1.2547 H   0  0  0  0  0  0  0  0  0  0  0  0
   -5.6721   -1.5608   -0.9277 H   0  0  0  0  0  0  0  0  0  0  0  0
   -4.5510   -2.7476   -0.5318 H   0  0  0  0  0  0  0  0  0  0  0  0
   -7.5414   -2.8354   -1.2898 H   0  0  0  0  0  0  0  0  0  0  0  0
   -6.2035   -2.8412   -2.4303 H   0  0  0  0  0  0  0  0  0  0  0  0
   -6.4059   -4.2311   -1.4013 H   0  0  0  0  0  0  0  0  0  0  0  0
   -4.6961    0.2557    0.4661 H   0  0  0  0  0  0  0  0  0  0  0  0
   -0.2937   -2.4788   -0.4737 H   0  0  0  0  0  0  0  0  0  0  0  0
  1  2  1  0  0  0  0
  1 31  1  0  0  0  0
  1 32  1  0  0  0  0
  1 33  1  0  0  0  0
  2  3  1  0  0  0  0
  2 34  1  0  0  0  0
  2 35  1  0  0  0  0
  3  4  1  0  0  0  0
  3  6  1  0  0  0  0
  4  5  1  0  0  0  0
  4 36  1  0  0  0  0
  4 37  1  0  0  0  0
  5 38  1  0  0  0  0
  5 39  1  0  0  0  0
  5 40  1  0  0  0  0
  6  7  1  0  0  0  0
  6 41  1  0  0  0  0
  6 42  1  0  0  0  0
  7  8  1  0  0  0  0
  7 43  1  0  0  0  0
  7 44  1  0  0  0  0
  8  9  1  0  0  0  0
  9 10  2  0  0  0  0
  9 30  1  0  0  0  0
 10 11  1  0  0  0  0
 10 45  1  0  0  0  0
 11 12  2  0  0  0  0
 11 46  1  0  0  0  0
 12 13  1  0  0  0  0
 12 29  1  0  0  0  0
 13 14  2  0  0  0  0
 13 26  1  0  0  0  0
 14 15  1  0  0  0  0
 14 47  1  0  0  0  0
 15 16  2  0  0  0  0
 15 48  1  0  0  0  0
 16 17  1  0  0  0  0
 16 25  1  0  0  0  0
 17 18  1  0  0  0  0
 18 19  1  0  0  0  0
 18 49  1  0  0  0  0
 18 50  1  0  0  0  0
 19 20  1  0  0  0  0
 19 51  1  0  0  0  0
 19 52  1  0  0  0  0
 20 21  1  0  0  0  0
 20 23  1  0  0  0  0
 21 22  1  0  0  0  0
 21 53  1  0  0  0  0
 21 54  1  0  0  0  0
 22 55  1  0  0  0  0
 22 56  1  0  0  0  0
 22 57  1  0  0  0  0
 23 24  1  0  0  0  0
 23 58  1  0  0  0  0
 23 59  1  0  0  0  0
 24 60  1  0  0  0  0
 24 61  1  0  0  0  0
 24 62  1  0  0  0  0
 25 26  2  0  0  0  0
 25 63  1  0  0  0  0
 26 27  1  0  0  0  0
 27 28  2  0  0  0  0
 27 29  1  0  0  0  0
 29 30  2  0  0  0  0
 30 64  1  0  0  0  0
M  END
>  <DRUGBANK_ID>
DB17965

>  <COMMON_NAME>
Tilorone

>  <CAS_NUMBER>
27591-97-5

>  <UNII>
O6W7VEW6KS

$$$$
