JNK
 OpenBabel10282417173D

 56 59  0  0  0  0  0  0  0  0999 V2000
   -7.5521    0.6655    3.2816 C   0  0  0  0  0  0  0  0  0  0  0  0
   -8.2609   -0.2503    3.9043 C   0  0  0  0  0  0  0  0  0  0  0  0
   -6.5223    0.0376    1.8344 C   0  0  0  0  0  0  0  0  0  0  0  0
   -7.7362    2.4755    3.6952 C   0  0  0  0  0  0  0  0  0  0  0  0
   -6.6786   -0.1744    4.5446 C   0  0  0  0  0  0  0  0  0  0  0  0
   -8.9701    0.5827    2.5695 C   0  0  0  0  0  0  0  0  0  0  0  0
   -5.7248    1.3126    0.8624 C   0  0  0  0  0  0  0  0  0  0  0  0
   -6.9221    3.5677    2.5539 C   0  0  0  0  0  0  0  0  0  0  0  0
   -5.6734    0.8985    3.9212 C   0  0  0  0  0  0  0  0  0  0  0  0
   -7.9153    1.6612    1.7663 C   0  0  0  0  0  0  0  0  0  0  0  0
   -4.3004    0.9612    0.5751 N   0  0  0  0  0  0  0  0  0  0  0  0
   -6.0259    3.0098    1.1492 N   0  0  0  0  0  0  0  0  0  0  0  0
   -4.3329    0.7755    3.8633 N   0  0  0  0  0  0  0  0  0  0  0  0
   -6.2480    1.7594    2.6753 N   0  0  0  0  0  0  0  0  0  0  0  0
   -3.4406    1.8229   -0.1307 C   0  0  0  0  0  0  0  0  0  0  0  0
   -3.6508    1.8434    3.3298 C   0  0  0  0  0  0  0  0  0  0  0  0
   -2.6835    2.8034    0.4925 C   0  0  0  0  0  0  0  0  0  0  0  0
   -3.3569    1.8502   -1.4897 C   0  0  0  0  0  0  0  0  0  0  0  0
   -2.1536    1.7809    3.3495 C   0  0  1  0  0  0  0  0  0  0  0  0
   -4.1629    2.9163    3.0171 O   0  0  0  0  0  0  0  0  0  0  0  0
   -1.8775    3.7877   -0.0551 C   0  0  0  0  0  0  0  0  0  0  0  0
   -2.5530    2.8243   -2.1210 C   0  0  0  0  0  0  0  0  0  0  0  0
   -1.7210    3.3019    3.3908 C   0  0  0  0  0  0  0  0  0  0  0  0
   -1.8676    0.9401    4.5723 C   0  0  0  0  0  0  0  0  0  0  0  0
   -1.8223    3.7820   -1.4062 C   0  0  0  0  0  0  0  0  0  0  0  0
   -2.1955    3.9811    4.6608 C   0  0  0  0  0  0  0  0  0  0  0  0
   -2.3561    1.7086    5.8144 C   0  0  0  0  0  0  0  0  0  0  0  0
   -1.8526    3.1610    5.8890 C   0  0  1  0  0  0  0  0  0  0  0  0
   -0.4536    3.2266    6.1963 O   0  0  0  0  0  0  0  0  0  0  0  0
    0.4387    2.6821    5.2426 C   0  0  0  0  0  0  0  0  0  0  0  0
   -1.0668    4.6937   -2.0247 F   0  0  0  0  0  0  0  0  0  0  0  0
   -1.7220    1.2924    2.4644 H   0  0  0  0  0  0  0  0  0  0  0  0
   -2.3861    3.6424    6.7204 H   0  0  0  0  0  0  0  0  0  0  0  0
   -6.0417   -0.9421    1.9412 H   0  0  0  0  0  0  0  0  0  0  0  0
   -8.5111    2.8367    4.3546 H   0  0  0  0  0  0  0  0  0  0  0  0
   -6.2984   -0.9743    5.1698 H   0  0  0  0  0  0  0  0  0  0  0  0
  -10.0538    0.6598    2.5152 H   0  0  0  0  0  0  0  0  0  0  0  0
   -6.8641    4.6433    2.6764 H   0  0  0  0  0  0  0  0  0  0  0  0
   -8.2639    2.5074    1.1642 H   0  0  0  0  0  0  0  0  0  0  0  0
   -4.1702   -0.0257    0.4030 H   0  0  0  0  0  0  0  0  0  0  0  0
   -3.9673    0.0132    4.3872 H   0  0  0  0  0  0  0  0  0  0  0  0
   -2.7739    2.8513    1.5219 H   0  0  0  0  0  0  0  0  0  0  0  0
   -3.9675    1.1562   -2.0464 H   0  0  0  0  0  0  0  0  0  0  0  0
   -1.3695    4.5189    0.5703 H   0  0  0  0  0  0  0  0  0  0  0  0
   -2.5120    2.8517   -3.1957 H   0  0  0  0  0  0  0  0  0  0  0  0
   -0.6931    3.3929    3.0593 H   0  0  0  0  0  0  0  0  0  0  0  0
   -2.1393    3.9975    2.6546 H   0  0  0  0  0  0  0  0  0  0  0  0
   -2.3246   -0.0516    4.5123 H   0  0  0  0  0  0  0  0  0  0  0  0
   -0.8604    0.5605    4.5497 H   0  0  0  0  0  0  0  0  0  0  0  0
   -1.8011    4.9990    4.6989 H   0  0  0  0  0  0  0  0  0  0  0  0
   -3.2896    4.1184    4.6060 H   0  0  0  0  0  0  0  0  0  0  0  0
   -2.0870    1.1486    6.7055 H   0  0  0  0  0  0  0  0  0  0  0  0
   -3.4588    1.7603    5.8261 H   0  0  0  0  0  0  0  0  0  0  0  0
    0.2831    1.6300    5.1138 H   0  0  0  0  0  0  0  0  0  0  0  0
    0.4211    3.2184    4.3115 H   0  0  0  0  0  0  0  0  0  0  0  0
    1.4770    2.7364    5.5351 H   0  0  0  0  0  0  0  0  0  0  0  0
  1  2  1  0  0  0  0
  1  3  2  0  0  0  0
  1  4  1  0  0  0  0
  2  5  1  0  0  0  0
  2  6  2  0  0  0  0
  3  7  1  0  0  0  0
  3 34  1  0  0  0  0
  4  8  2  0  0  0  0
  4 35  1  0  0  0  0
  5  9  2  0  0  0  0
  5 36  1  0  0  0  0
  6 10  1  0  0  0  0
  6 37  1  0  0  0  0
  7 11  1  0  0  0  0
  7 12  2  0  0  0  0
  8 12  1  0  0  0  0
  8 38  1  0  0  0  0
  9 13  1  0  0  0  0
  9 14  1  0  0  0  0
 10 14  2  0  0  0  0
 10 39  1  0  0  0  0
 11 15  1  0  0  0  0
 11 40  1  0  0  0  0
 13 16  1  0  0  0  0
 13 41  1  0  0  0  0
 15 17  2  0  0  0  0
 15 18  1  0  0  0  0
 16 20  2  0  0  0  0
 17 21  1  0  0  0  0
 17 42  1  0  0  0  0
 18 22  2  0  0  0  0
 18 43  1  0  0  0  0
 19 23  1  0  0  0  0
 19 24  1  0  0  0  0
 19 32  1  6  0  0  0
 19 16  1  0  0  0  0
 21 25  2  0  0  0  0
 21 44  1  0  0  0  0
 22 25  1  0  0  0  0
 22 45  1  0  0  0  0
 23 26  1  0  0  0  0
 23 46  1  0  0  0  0
 23 47  1  0  0  0  0
 24 27  1  0  0  0  0
 24 48  1  0  0  0  0
 24 49  1  0  0  0  0
 25 31  1  0  0  0  0
 26 28  1  0  0  0  0
 26 50  1  0  0  0  0
 26 51  1  0  0  0  0
 27 28  1  0  0  0  0
 27 52  1  0  0  0  0
 27 53  1  0  0  0  0
 28 29  1  0  0  0  0
 28 33  1  1  0  0  0
 29 30  1  0  0  0  0
 30 54  1  0  0  0  0
 30 55  1  0  0  0  0
 30 56  1  0  0  0  0
M  END
>  <DRUGBANK_ID>
DB08025

>  <COMMON_NAME>
N-{2'-[(4-FLUOROPHENYL)AMINO]-4,4'-BIPYRIDIN-2-YL}-4-METHOXYCYCLOHEXANECARBOXAMIDE

$$$$
