
 OpenBabel10282417143D

 24 24  0  0  1  0  0  0  0  0999 V2000
    0.8958   -0.2244    0.0679 N   0  0  0  0  0  0  0  0  0  0  0  0
    0.3418   -0.1967    1.4520 C   0  0  1  0  0  0  0  0  0  0  0  0
    0.8552    1.0389    2.2277 C   0  0  0  0  0  0  0  0  0  0  0  0
    0.4920    2.4033    1.6635 C   0  0  0  0  0  0  0  0  0  0  0  0
   -0.3890    2.5713    0.5833 C   0  0  0  0  0  0  0  0  0  0  0  0
   -0.7720    3.8067    0.1119 C   0  0  0  0  0  0  0  0  0  0  0  0
   -1.6574    3.8615   -0.8926 F   0  0  0  0  0  0  0  0  0  0  0  0
   -0.2161    4.9408    0.6536 C   0  0  0  0  0  0  0  0  0  0  0  0
   -0.5778    6.1338    0.1076 O   0  0  0  0  0  0  0  0  0  0  0  0
    0.7016    4.8282    1.7004 C   0  0  0  0  0  0  0  0  0  0  0  0
    1.0387    3.5644    2.2200 C   0  0  0  0  0  0  0  0  0  0  0  0
   -1.2198   -0.3305    1.5308 C   0  0  0  0  0  0  0  0  0  0  0  0
   -1.6741   -1.4984    2.0303 O   0  0  0  0  0  0  0  0  0  0  0  0
   -2.0477    0.5247    1.2296 O   0  0  0  0  0  0  0  0  0  0  0  0
    0.6291    0.6293   -0.4292 H   0  0  0  0  0  0  0  0  0  0  0  0
    1.9128   -0.1124    0.1225 H   0  0  0  0  0  0  0  0  0  0  0  0
    0.7562   -1.0897    1.9341 H   0  0  0  0  0  0  0  0  0  0  0  0
    0.5058    0.9699    3.2672 H   0  0  0  0  0  0  0  0  0  0  0  0
    1.9546    0.9804    2.2722 H   0  0  0  0  0  0  0  0  0  0  0  0
   -0.8455    1.7612    0.0348 H   0  0  0  0  0  0  0  0  0  0  0  0
   -0.1009    6.8484    0.5499 H   0  0  0  0  0  0  0  0  0  0  0  0
    1.1701    5.7100    2.1225 H   0  0  0  0  0  0  0  0  0  0  0  0
    1.7425    3.4949    3.0487 H   0  0  0  0  0  0  0  0  0  0  0  0
   -0.9967   -2.1605    2.2387 H   0  0  0  0  0  0  0  0  0  0  0  0
  1 15  1  0  0  0  0
  1 16  1  0  0  0  0
  2  1  1  0  0  0  0
  2  3  1  0  0  0  0
  2 12  1  0  0  0  0
  2 17  1  1  0  0  0
  3  4  1  0  0  0  0
  3 18  1  0  0  0  0
  3 19  1  0  0  0  0
  4  5  2  0  0  0  0
  4 11  1  0  0  0  0
  5  6  1  0  0  0  0
  5 20  1  0  0  0  0
  6  7  1  0  0  0  0
  6  8  2  0  0  0  0
  8  9  1  0  0  0  0
  8 10  1  0  0  0  0
  9 21  1  0  0  0  0
 10 11  2  0  0  0  0
 10 22  1  0  0  0  0
 11 23  1  0  0  0  0
 12 13  1  0  0  0  0
 12 14  2  0  0  0  0
 13 24  1  0  0  0  0
M  END
>  <DRUGBANK_ID>
DB04436

>  <SECONDARY_ACCESSION_NUMBERS>
EXPT03275

>  <COMMON_NAME>
3-Fluoro-L-tyrosine

>  <CAS_NUMBER>
7423-96-3

>  <UNII>
174NRG3M2X

>  <SYNONYMS>
3-fluoro-L-tyrosine; L-m-Fluorotyrosine

$$$$
