
 OpenBabel10282417103D

 26 26  0  0  0  0  0  0  0  0999 V2000
   -0.2538    1.5645    0.1189 C   0  0  0  0  0  0  0  0  0  0  0  0
    1.0867   -0.7331   -0.1068 S   0  0  0  0  0  0  0  0  0  0  0  0
   -1.3137    0.7758   -0.5964 C   0  0  0  0  0  0  0  0  0  0  0  0
   -0.9673   -0.9148   -0.0809 S   0  0  0  0  0  0  0  0  0  0  0  0
    1.1804    1.0901   -0.0710 C   0  0  2  0  0  0  0  0  0  0  0  0
    2.1302    1.6047    1.0342 C   0  0  0  0  0  0  0  0  0  0  0  0
    1.8511    3.0547    1.5053 C   0  0  0  0  0  0  0  0  0  0  0  0
    0.5534    3.2905    2.3189 C   0  0  0  0  0  0  0  0  0  0  0  0
    0.3493    2.2677    3.4393 C   0  0  0  0  0  0  0  0  0  0  0  0
    1.3452    2.5422    4.5288 C   0  0  0  0  0  0  0  0  0  0  0  0
    2.5612    2.4766    4.3719 O   0  0  0  0  0  0  0  0  0  0  0  0
    0.7956    2.9088    5.6991 O   0  0  0  0  0  0  0  0  0  0  0  0
   -0.5174    1.4644    1.1736 H   0  0  0  0  0  0  0  0  0  0  0  0
   -0.3255    2.6127   -0.1911 H   0  0  0  0  0  0  0  0  0  0  0  0
   -2.2953    1.1171   -0.2427 H   0  0  0  0  0  0  0  0  0  0  0  0
   -1.2542    0.9045   -1.6767 H   0  0  0  0  0  0  0  0  0  0  0  0
    1.5546    1.4369   -1.0413 H   0  0  0  0  0  0  0  0  0  0  0  0
    2.1345    0.9308    1.8994 H   0  0  0  0  0  0  0  0  0  0  0  0
    3.1629    1.5606    0.6580 H   0  0  0  0  0  0  0  0  0  0  0  0
    2.6921    3.3716    2.1327 H   0  0  0  0  0  0  0  0  0  0  0  0
    1.8731    3.7267    0.6399 H   0  0  0  0  0  0  0  0  0  0  0  0
    0.5472    4.3094    2.7182 H   0  0  0  0  0  0  0  0  0  0  0  0
   -0.3324    3.3128    1.6811 H   0  0  0  0  0  0  0  0  0  0  0  0
   -0.6811    2.3188    3.8088 H   0  0  0  0  0  0  0  0  0  0  0  0
    0.4743    1.2262    3.1202 H   0  0  0  0  0  0  0  0  0  0  0  0
   -0.1790    2.8995    5.7074 H   0  0  0  0  0  0  0  0  0  0  0  0
  1  3  1  0  0  0  0
  1 13  1  0  0  0  0
  1 14  1  0  0  0  0
  2  4  1  0  0  0  0
  3  4  1  0  0  0  0
  3 15  1  0  0  0  0
  3 16  1  0  0  0  0
  5  1  1  0  0  0  0
  5  2  1  0  0  0  0
  5 17  1  6  0  0  0
  5  6  1  0  0  0  0
  6  7  1  0  0  0  0
  6 18  1  0  0  0  0
  6 19  1  0  0  0  0
  7  8  1  0  0  0  0
  7 20  1  0  0  0  0
  7 21  1  0  0  0  0
  8  9  1  0  0  0  0
  8 22  1  0  0  0  0
  8 23  1  0  0  0  0
  9 10  1  0  0  0  0
  9 24  1  0  0  0  0
  9 25  1  0  0  0  0
 10 12  1  0  0  0  0
 10 11  2  0  0  0  0
 12 26  1  0  0  0  0
M  END
>  <DRUGBANK_ID>
DB00166

>  <SECONDARY_ACCESSION_NUMBERS>
NUTR00035

>  <COMMON_NAME>
Lipoic acid

>  <CAS_NUMBER>
1200-22-2

>  <UNII>
VLL71EBS9Z

>  <SYNONYMS>
(+)-alpha-Lipoic acid; (R)-(+)-Lipoate; (R)-(+)-lipoic acid; (R)-1,2-Dithiolane-3-pentanoic acid; (R)-1,2-dithiolane-3-valeric acid; (R)-6,8-thioctic acid; (R)-lipoic acid; Alpha lipoic acid; alpha-Lipoic acid; alpha-Liponsäure; D-thioctic acid; Lipoic acid; R-(+)-thioctic acid; R-alpha-lipoic acid; Thioctic acid; Thioctic acid D-form; α-lipoic acid

$$$$
