74M
 OpenBabel10282417163D

 59 60  0  0  0  0  0  0  0  0999 V2000
   -6.0511    0.4276    2.9124 C   0  0  1  0  0  0  0  0  0  0  0  0
   -6.0236   -0.2531    4.1470 O   0  0  0  0  0  0  0  0  0  0  0  0
   -5.3420   -1.2425    3.4097 C   0  0  2  0  0  0  0  0  0  0  0  0
   -3.7908   -1.5270    3.2329 C   0  0  0  0  0  0  0  0  0  0  0  0
   -2.9648   -0.9534    3.9684 O   0  0  0  0  0  0  0  0  0  0  0  0
   -3.2489   -2.4038    2.1681 N   0  0  0  0  0  0  0  0  0  0  0  0
   -3.8616   -2.9160    0.8554 C   0  0  2  0  0  0  0  0  0  0  0  0
   -3.0414   -3.2641   -0.6174 C   0  0  0  0  0  0  0  0  0  0  0  0
   -2.5873   -4.4055   -0.7535 O   0  0  0  0  0  0  0  0  0  0  0  0
   -4.6503   -1.8423    0.2784 C   0  0  2  0  0  0  0  0  0  0  0  0
   -3.6441   -0.6862    0.3357 C   0  0  0  0  0  0  0  0  0  0  0  0
   -5.8437   -1.3504    0.8830 C   0  0  0  0  0  0  0  0  0  0  0  0
   -2.8426    0.1550    1.4527 C   0  0  0  0  0  0  0  0  0  0  0  0
   -3.1043   -2.3210   -1.7770 N   0  0  0  0  0  0  0  0  0  0  0  0
   -2.7660   -0.7418   -2.0711 C   0  0  2  0  0  0  0  0  0  0  0  0
   -2.4923    0.7481   -1.2605 C   0  0  0  0  0  0  0  0  0  0  0  0
   -1.3850    0.8860   -0.7328 O   0  0  0  0  0  0  0  0  0  0  0  0
   -3.7495   -0.4834   -3.1846 C   0  0  0  0  0  0  0  0  0  0  0  0
   -3.5552   -1.7126   -4.0598 C   0  0  0  0  0  0  0  0  0  0  0  0
   -3.3409   -2.9107   -3.1007 C   0  0  0  0  0  0  0  0  0  0  0  0
   -3.6475    1.5954   -0.9868 O   0  0  0  0  0  0  0  0  0  0  0  0
   -4.1517    2.1158    0.3921 C   0  0  0  0  0  0  0  0  0  0  0  0
   -7.1841    1.3191    0.6366 N   0  0  0  0  0  0  0  0  0  0  0  0
   -8.0630    1.5660   -0.5446 C   0  0  0  0  0  0  0  0  0  0  0  0
   -8.3904    3.0660   -0.5960 C   0  0  0  0  0  0  0  0  0  0  0  0
   -7.2080    3.9794   -0.9401 C   0  0  0  0  0  0  0  0  0  0  0  0
   -7.3311    0.5293    1.8263 C   0  0  0  0  0  0  0  0  0  0  0  0
   -8.3349   -0.2254    1.9377 O   0  0  0  0  0  0  0  0  0  0  0  0
   -5.4948    1.3554    2.9322 H   0  0  0  0  0  0  0  0  0  0  0  0
   -5.8709   -2.1742    3.2980 H   0  0  0  0  0  0  0  0  0  0  0  0
   -4.5106   -3.7533    1.1277 H   0  0  0  0  0  0  0  0  0  0  0  0
   -5.0714   -2.1089   -0.7106 H   0  0  0  0  0  0  0  0  0  0  0  0
   -1.7583   -0.8859   -2.4942 H   0  0  0  0  0  0  0  0  0  0  0  0
   -2.2372   -2.3119    2.0619 H   0  0  0  0  0  0  0  0  0  0  0  0
   -2.7357   -1.1297   -0.0304 H   0  0  0  0  0  0  0  0  0  0  0  0
   -4.2277   -0.1336   -0.3939 H   0  0  0  0  0  0  0  0  0  0  0  0
   -6.2806   -0.6483    0.1954 H   0  0  0  0  0  0  0  0  0  0  0  0
   -6.5585   -2.0145    1.3535 H   0  0  0  0  0  0  0  0  0  0  0  0
   -5.3238   -0.7274    1.5526 H   0  0  0  0  0  0  0  0  0  0  0  0
   -1.9632   -0.3798    1.8072 H   0  0  0  0  0  0  0  0  0  0  0  0
   -2.3122    1.0350    1.0825 H   0  0  0  0  0  0  0  0  0  0  0  0
   -3.4002    0.6046    2.2765 H   0  0  0  0  0  0  0  0  0  0  0  0
   -4.7733   -0.4469   -2.7904 H   0  0  0  0  0  0  0  0  0  0  0  0
   -3.5383    0.4679   -3.6785 H   0  0  0  0  0  0  0  0  0  0  0  0
   -4.3997   -1.8476   -4.7398 H   0  0  0  0  0  0  0  0  0  0  0  0
   -2.6536   -1.5611   -4.6661 H   0  0  0  0  0  0  0  0  0  0  0  0
   -4.2140   -3.5735   -3.0822 H   0  0  0  0  0  0  0  0  0  0  0  0
   -2.4667   -3.4960   -3.4062 H   0  0  0  0  0  0  0  0  0  0  0  0
   -4.6079    1.2834    0.9444 H   0  0  0  0  0  0  0  0  0  0  0  0
   -3.4225    2.6339    1.0153 H   0  0  0  0  0  0  0  0  0  0  0  0
   -5.0275    2.7617    0.3908 H   0  0  0  0  0  0  0  0  0  0  0  0
   -6.2672    1.4996    0.2974 H   0  0  0  0  0  0  0  0  0  0  0  0
   -7.5199    1.3125   -1.4782 H   0  0  0  0  0  0  0  0  0  0  0  0
   -8.9528    0.9333   -0.5111 H   0  0  0  0  0  0  0  0  0  0  0  0
   -9.1839    3.2601   -1.3258 H   0  0  0  0  0  0  0  0  0  0  0  0
   -8.7609    3.3495    0.3927 H   0  0  0  0  0  0  0  0  0  0  0  0
   -6.8091    3.7888   -1.9419 H   0  0  0  0  0  0  0  0  0  0  0  0
   -7.5116    5.0301   -0.8877 H   0  0  0  0  0  0  0  0  0  0  0  0
   -6.3922    3.8816   -0.2294 H   0  0  0  0  0  0  0  0  0  0  0  0
  1  2  1  0  0  0  0
  1  3  1  0  0  0  0
  1 27  1  0  0  0  0
  1 29  1  6  0  0  0
  2  3  1  0  0  0  0
  3 30  1  6  0  0  0
  3  4  1  0  0  0  0
  4  5  2  0  0  0  0
  4  6  1  0  0  0  0
  6 34  1  0  0  0  0
  7 31  1  1  0  0  0
  7  8  1  0  0  0  0
  7  6  1  0  0  0  0
  8  9  2  0  0  0  0
  8 14  1  0  0  0  0
 10 12  1  0  0  0  0
 10 32  1  6  0  0  0
 10 11  1  0  0  0  0
 10  7  1  0  0  0  0
 11 13  1  0  0  0  0
 11 35  1  0  0  0  0
 11 36  1  0  0  0  0
 12 37  1  0  0  0  0
 12 38  1  0  0  0  0
 12 39  1  0  0  0  0
 13 40  1  0  0  0  0
 13 41  1  0  0  0  0
 13 42  1  0  0  0  0
 14 15  1  0  0  0  0
 14 20  1  0  0  0  0
 15 18  1  0  0  0  0
 15 33  1  6  0  0  0
 15 16  1  0  0  0  0
 16 17  2  0  0  0  0
 16 21  1  0  0  0  0
 18 19  1  0  0  0  0
 18 43  1  0  0  0  0
 18 44  1  0  0  0  0
 19 20  1  0  0  0  0
 19 45  1  0  0  0  0
 19 46  1  0  0  0  0
 20 47  1  0  0  0  0
 20 48  1  0  0  0  0
 21 22  1  0  0  0  0
 22 49  1  0  0  0  0
 22 50  1  0  0  0  0
 22 51  1  0  0  0  0
 23 24  1  0  0  0  0
 23 27  1  0  0  0  0
 23 52  1  0  0  0  0
 24 25  1  0  0  0  0
 24 53  1  0  0  0  0
 24 54  1  0  0  0  0
 25 26  1  0  0  0  0
 25 55  1  0  0  0  0
 25 56  1  0  0  0  0
 26 57  1  0  0  0  0
 26 58  1  0  0  0  0
 26 59  1  0  0  0  0
 27 28  2  0  0  0  0
M  END
>  <DRUGBANK_ID>
DB07223

>  <COMMON_NAME>
CA-074 methyl ester

>  <CAS_NUMBER>
147859-80-1

>  <SYNONYMS>
(S)-methyl 1-((2S,3S)-3-methyl-2-((2S,3S)-3-(propylcarbamoyl)oxirane-2-carboxamido)pentanoyl)pyrrolidine-2-carboxylate; CA 074 Me ester; CA 074 methyl ester; L-Proline, 1-[N-[[3-[(propylamino)carbonyl]oxiranyl]carbonyl]-L-isoleucyl]-, methyl ester, (2S-trans)-; L-Proline, N-[[(2S,3S)-3-[(propylamino)carbonyl]oxiranyl]carbonyl]-L-isoleucyl-, methyl ester; Methyl (2S)-1-[(2S,3S)-3-methyl-2-[[(2S,3S)-3-(propylcarbamoyl)oxirane-2-carbonyl]amino]pentanoyl]pyrrolidine-2-carboxylate; Methyl N-({(2s,3s)-3-[(propylamino)carbonyl]oxiran-2-Yl}carbonyl)-L-isoleucyl-L-prolinate

$$$$
