
 OpenBabel10282417153D

220227  0  0  0  0  0  0  0  0999 V2000
   16.0692   13.1512   -3.6958 N   0  0  0  0  0  0  0  0  0  0  0  0
   18.0612   12.9375   -8.3793 N   0  0  0  0  0  0  0  0  0  0  0  0
   14.7705   12.5383   -3.9096 C   0  0  0  0  0  0  0  0  0  0  0  0
   17.9536   11.6027   -8.2249 C   0  0  0  0  0  0  0  0  0  0  0  0
   15.5584   15.5713   -5.1230 C   0  0  0  0  0  0  0  0  0  0  0  0
   17.1847   11.2220   -7.2316 N   0  0  0  0  0  0  0  0  0  0  0  0
   17.6368   13.7983   -7.4432 C   0  0  0  0  0  0  0  0  0  0  0  0
    6.0743   13.0556   -9.9937 C   0  0  0  0  0  0  0  0  0  0  0  0
   16.5052   14.7094   -4.0273 C   0  0  2  0  0  0  0  0  0  0  0  0
   16.1771   12.0559   -6.6307 C   0  0  2  0  0  0  0  0  0  0  0  0
    4.3794   15.7699  -11.3967 C   0  0  0  0  0  0  0  0  0  0  0  0
   12.0091   10.1495   -3.8416 C   0  0  0  0  0  0  0  0  0  0  0  0
    8.5508    9.8619   -3.9139 C   0  0  0  0  0  0  0  0  0  0  0  0
    4.8498   18.7884   -9.0916 C   0  0  0  0  0  0  0  0  0  0  0  0
    7.4667   11.7241   -6.9163 C   0  0  0  0  0  0  0  0  0  0  0  0
    2.3148   18.4934   -7.2604 C   0  0  0  0  0  0  0  0  0  0  0  0
   14.7419   12.5242   -7.2090 C   0  0  0  0  0  0  0  0  0  0  0  0
    4.4198   14.8025  -10.4068 N   0  0  0  0  0  0  0  0  0  0  0  0
    4.7217   13.3703  -10.6322 C   0  0  1  0  0  0  0  0  0  0  0  0
    6.1436   11.9852   -9.0935 N   0  0  0  0  0  0  0  0  0  0  0  0
    7.5411   10.6244   -6.0857 N   0  0  0  0  0  0  0  0  0  0  0  0
    4.4667   17.5508   -9.5926 N   0  0  0  0  0  0  0  0  0  0  0  0
    9.6602   10.5942   -3.5360 N   0  0  0  0  0  0  0  0  0  0  0  0
    3.6217   18.4714   -6.8211 N   0  0  0  0  0  0  0  0  0  0  0  0
   13.2040   10.6362   -3.2702 N   0  0  0  0  0  0  0  0  0  0  0  0
   16.9732   13.1930   -6.2920 C   0  0  0  0  0  0  0  0  0  0  0  0
   16.0320   16.2145   -6.2667 N   0  0  0  0  0  0  0  0  0  0  0  0
    7.4000   11.5063   -8.4481 C   0  0  1  0  0  0  0  0  0  0  0  0
    7.4195   10.6019   -4.6076 C   0  0  2  0  0  0  0  0  0  0  0  0
    4.8153   18.9590   -7.5690 C   0  0  2  0  0  0  0  0  0  0  0  0
    4.0525   17.2191  -10.9895 C   0  0  2  0  0  0  0  0  0  0  0  0
   10.8467   10.0242   -2.8862 C   0  0  1  0  0  0  0  0  0  0  0  0
    2.8969   15.2598   -7.2324 C   0  0  0  0  0  0  0  0  0  0  0  0
   14.5123   10.8502   -3.9828 C   0  0  1  0  0  0  0  0  0  0  0  0
    1.1509   18.0199   -6.3399 C   0  0  2  0  0  0  0  0  0  0  0  0
   14.9251   18.2451   -7.1461 C   0  0  0  0  0  0  0  0  0  0  0  0
    1.3900   16.7938   -5.5655 N   0  0  0  0  0  0  0  0  0  0  0  0
   13.7967   11.5989   -7.6083 N   0  0  0  0  0  0  0  0  0  0  0  0
    2.0582   16.5954   -4.4026 C   0  0  0  0  0  0  0  0  0  0  0  0
   15.0707   16.7244   -7.3137 C   0  0  1  0  0  0  0  0  0  0  0  0
    2.8122   14.2868   -6.3155 N   0  0  0  0  0  0  0  0  0  0  0  0
   13.7632   13.2276   -4.0920 O   0  0  0  0  0  0  0  0  0  0  0  0
   18.3974   10.7244   -8.9028 O   0  0  0  0  0  0  0  0  0  0  0  0
   14.3368   15.5940   -4.9407 O   0  0  0  0  0  0  0  0  0  0  0  0
   -0.0743   17.8282   -7.2848 C   0  0  0  0  0  0  0  0  0  0  0  0
    7.0364   13.7274  -10.3669 O   0  0  0  0  0  0  0  0  0  0  0  0
    5.3539   19.6833   -9.7667 O   0  0  0  0  0  0  0  0  0  0  0  0
    4.4361   15.5077  -12.5989 O   0  0  0  0  0  0  0  0  0  0  0  0
   11.8352    9.6822   -4.9692 O   0  0  0  0  0  0  0  0  0  0  0  0
    7.5146   12.8817   -6.5143 O   0  0  0  0  0  0  0  0  0  0  0  0
    2.0817   18.8443   -8.4073 O   0  0  0  0  0  0  0  0  0  0  0  0
    8.3923    8.6572   -3.7203 O   0  0  0  0  0  0  0  0  0  0  0  0
   14.4882   13.7261   -7.1987 O   0  0  0  0  0  0  0  0  0  0  0  0
   -2.7107   15.4529   -5.8820 C   0  0  0  0  0  0  0  0  0  0  0  0
   17.9646   15.0053   -7.4501 O   0  0  0  0  0  0  0  0  0  0  0  0
    5.1915   20.4027   -7.2206 C   0  0  0  0  0  0  0  0  0  0  0  0
    7.1527   11.8699   -3.8167 C   0  0  0  0  0  0  0  0  0  0  0  0
    8.5707   12.3196   -8.9692 C   0  0  0  0  0  0  0  0  0  0  0  0
   -1.2836   17.3039   -6.5658 C   0  0  0  0  0  0  0  0  0  0  0  0
    2.5066   17.4317  -11.3192 C   0  0  0  0  0  0  0  0  0  0  0  0
   -1.5938   15.9339   -6.5755 C   0  0  0  0  0  0  0  0  0  0  0  0
    1.9169   15.5511   -7.9135 O   0  0  0  0  0  0  0  0  0  0  0  0
   15.0071   19.0650   -8.0558 O   0  0  0  0  0  0  0  0  0  0  0  0
   10.7355    8.5166   -2.6266 C   0  0  0  0  0  0  0  0  0  0  0  0
    2.6649   21.0820  -10.4242 N   0  0  0  0  0  0  0  0  0  0  0  0
    2.1860   15.4777   -3.9132 O   0  0  0  0  0  0  0  0  0  0  0  0
   -3.5133   16.3689   -5.1639 C   0  0  0  0  0  0  0  0  0  0  0  0
   12.4209   11.7502   -7.6893 C   0  0  0  0  0  0  0  0  0  0  0  0
    4.0078   15.9872   -7.4097 N   0  0  0  0  0  0  0  0  0  0  0  0
   -3.1664   17.7268   -5.1289 C   0  0  0  0  0  0  0  0  0  0  0  0
   14.6162   18.6526   -5.8799 N   0  0  0  0  0  0  0  0  0  0  0  0
   17.2559   12.4109   -3.2433 C   0  0  0  0  0  0  0  0  0  0  0  0
    3.7860   13.7763   -5.4639 C   0  0  0  0  0  0  0  0  0  0  0  0
    9.8534   12.0137   -8.3219 C   0  0  0  0  0  0  0  0  0  0  0  0
    5.8909   12.5208   -4.2409 C   0  0  0  0  0  0  0  0  0  0  0  0
    5.6029   20.4838   -5.7810 C   0  0  0  0  0  0  0  0  0  0  0  0
   -2.0654   18.1932   -5.8334 C   0  0  0  0  0  0  0  0  0  0  0  0
    6.2019   20.4536   -3.0838 C   0  0  0  0  0  0  0  0  0  0  0  0
    2.0000   18.8564  -11.2300 C   0  0  0  0  0  0  0  0  0  0  0  0
   16.1482    7.2364   -6.9240 N   0  0  0  0  0  0  0  0  0  0  0  0
    6.6227   20.5105   -1.4197 Cl  0  0  0  0  0  0  0  0  0  0  0  0
    4.8662   12.9843  -12.1161 C   0  0  0  0  0  0  0  0  0  0  0  0
   11.6896   10.5971   -8.0573 C   0  0  0  0  0  0  0  0  0  0  0  0
   11.8246   12.9566   -7.4122 C   0  0  0  0  0  0  0  0  0  0  0  0
    3.5570   12.5631   -4.8268 C   0  0  0  0  0  0  0  0  0  0  0  0
    4.9730   14.4411   -5.2328 C   0  0  0  0  0  0  0  0  0  0  0  0
    4.7776   21.1631   -4.8856 C   0  0  0  0  0  0  0  0  0  0  0  0
    6.7448   19.8053   -5.3306 C   0  0  0  0  0  0  0  0  0  0  0  0
   10.5109   13.0870   -7.7131 C   0  0  0  0  0  0  0  0  0  0  0  0
    6.0420   13.8085   -4.6993 C   0  0  0  0  0  0  0  0  0  0  0  0
   10.3829   10.7378   -8.4183 C   0  0  0  0  0  0  0  0  0  0  0  0
    4.6314   11.9138   -4.2307 C   0  0  0  0  0  0  0  0  0  0  0  0
    7.0089   19.7411   -3.9698 C   0  0  0  0  0  0  0  0  0  0  0  0
    5.0837   21.1561   -3.5335 C   0  0  0  0  0  0  0  0  0  0  0  0
   18.0799   14.5735   -4.2394 C   0  0  0  0  0  0  0  0  0  0  0  0
    5.1222   11.5924  -12.2845 O   0  0  0  0  0  0  0  0  0  0  0  0
    2.8961   19.8499  -10.9112 C   0  0  0  0  0  0  0  0  0  0  0  0
   18.4971   13.3230   -3.4288 C   0  0  0  0  0  0  0  0  0  0  0  0
   14.3052   10.0356   -5.2971 C   0  0  0  0  0  0  0  0  0  0  0  0
   11.9675    7.8459   -2.0359 C   0  0  0  0  0  0  0  0  0  0  0  0
    2.6078   17.7918   -3.7191 C   0  0  0  0  0  0  0  0  0  0  0  0
    1.3986   21.4606  -10.4794 C   0  0  0  0  0  0  0  0  0  0  0  0
   15.6846    5.8917   -6.7985 C   0  0  0  0  0  0  0  0  0  0  0  0
   15.4123   16.4006   -8.7801 C   0  0  0  0  0  0  0  0  0  0  0  0
   -3.0582   14.0919   -5.8948 C   0  0  0  0  0  0  0  0  0  0  0  0
   16.4093    7.7478   -5.5796 C   0  0  0  0  0  0  0  0  0  0  0  0
   -4.6573   15.9070   -4.5044 C   0  0  0  0  0  0  0  0  0  0  0  0
    0.7177   19.3341  -11.4289 C   0  0  0  0  0  0  0  0  0  0  0  0
   15.3131    9.6476   -6.3369 C   0  0  0  0  0  0  0  0  0  0  0  0
   16.6350    9.1740   -5.7383 C   0  0  0  0  0  0  0  0  0  0  0  0
   12.3163    8.5098   -0.7156 C   0  0  0  0  0  0  0  0  0  0  0  0
   11.6531    6.3653   -1.8465 C   0  0  0  0  0  0  0  0  0  0  0  0
   14.4348    5.8557   -5.9156 C   0  0  0  0  0  0  0  0  0  0  0  0
   15.3704    5.4210   -8.2054 C   0  0  0  0  0  0  0  0  0  0  0  0
    0.4265   20.6713  -11.0787 C   0  0  0  0  0  0  0  0  0  0  0  0
   -4.2053   13.6497   -5.2353 C   0  0  0  0  0  0  0  0  0  0  0  0
   -5.0050   14.5571   -4.5456 C   0  0  0  0  0  0  0  0  0  0  0  0
   18.6078   13.2586   -9.1416 H   0  0  0  0  0  0  0  0  0  0  0  0
   17.0730   10.2553   -7.4798 H   0  0  0  0  0  0  0  0  0  0  0  0
   16.3927   15.2654   -3.0940 H   0  0  0  0  0  0  0  0  0  0  0  0
   16.0042   11.6302   -5.6357 H   0  0  0  0  0  0  0  0  0  0  0  0
    4.3286   15.0709   -9.4382 H   0  0  0  0  0  0  0  0  0  0  0  0
    3.9463   12.7794  -10.1387 H   0  0  0  0  0  0  0  0  0  0  0  0
    5.2880   11.5660   -8.7527 H   0  0  0  0  0  0  0  0  0  0  0  0
    7.7825    9.7261   -6.4862 H   0  0  0  0  0  0  0  0  0  0  0  0
    4.7401   16.7646   -9.0280 H   0  0  0  0  0  0  0  0  0  0  0  0
    9.7836   11.5280   -3.9194 H   0  0  0  0  0  0  0  0  0  0  0  0
    3.8377   18.1375   -5.9014 H   0  0  0  0  0  0  0  0  0  0  0  0
   13.1066   11.2042   -2.4408 H   0  0  0  0  0  0  0  0  0  0  0  0
   17.7264   12.7788   -5.6204 H   0  0  0  0  0  0  0  0  0  0  0  0
   16.2387   13.8054   -5.8645 H   0  0  0  0  0  0  0  0  0  0  0  0
   17.0144   16.2534   -6.5336 H   0  0  0  0  0  0  0  0  0  0  0  0
    7.5123   10.4374   -8.6669 H   0  0  0  0  0  0  0  0  0  0  0  0
    6.5556    9.9421   -4.4426 H   0  0  0  0  0  0  0  0  0  0  0  0
    5.6215   18.2870   -7.2336 H   0  0  0  0  0  0  0  0  0  0  0  0
    4.6544   17.8329  -11.6725 H   0  0  0  0  0  0  0  0  0  0  0  0
   11.0374   10.6145   -1.9880 H   0  0  0  0  0  0  0  0  0  0  0  0
   15.2894   10.3695   -3.3902 H   0  0  0  0  0  0  0  0  0  0  0  0
    0.9468   18.8149   -5.6203 H   0  0  0  0  0  0  0  0  0  0  0  0
    1.0250   15.9443   -5.9883 H   0  0  0  0  0  0  0  0  0  0  0  0
   13.9584   10.6200   -7.7194 H   0  0  0  0  0  0  0  0  0  0  0  0
   14.0786   16.2901   -7.1365 H   0  0  0  0  0  0  0  0  0  0  0  0
    1.8771   13.9148   -6.1940 H   0  0  0  0  0  0  0  0  0  0  0  0
   -0.3270   18.7867   -7.7583 H   0  0  0  0  0  0  0  0  0  0  0  0
    0.1411   17.1582   -8.1296 H   0  0  0  0  0  0  0  0  0  0  0  0
    6.0312   20.7758   -7.8205 H   0  0  0  0  0  0  0  0  0  0  0  0
    4.3371   21.0578   -7.4226 H   0  0  0  0  0  0  0  0  0  0  0  0
    7.0744   11.6887   -2.7382 H   0  0  0  0  0  0  0  0  0  0  0  0
    7.9959   12.5639   -3.9380 H   0  0  0  0  0  0  0  0  0  0  0  0
    8.7165   12.1909  -10.0465 H   0  0  0  0  0  0  0  0  0  0  0  0
    8.3942   13.3861   -8.7692 H   0  0  0  0  0  0  0  0  0  0  0  0
    2.2984   17.0726  -12.3369 H   0  0  0  0  0  0  0  0  0  0  0  0
    1.9269   16.7833  -10.6428 H   0  0  0  0  0  0  0  0  0  0  0  0
   -0.9599   15.2411   -7.1283 H   0  0  0  0  0  0  0  0  0  0  0  0
    9.8834    8.3455   -1.9606 H   0  0  0  0  0  0  0  0  0  0  0  0
   10.5357    7.9949   -3.5766 H   0  0  0  0  0  0  0  0  0  0  0  0
    4.8308   16.0125   -6.8415 H   0  0  0  0  0  0  0  0  0  0  0  0
    3.7313   16.9410   -7.6124 H   0  0  0  0  0  0  0  0  0  0  0  0
   -3.7547   18.4373   -4.5557 H   0  0  0  0  0  0  0  0  0  0  0  0
   14.4247   17.9712   -5.1537 H   0  0  0  0  0  0  0  0  0  0  0  0
   14.4753   19.6372   -5.7147 H   0  0  0  0  0  0  0  0  0  0  0  0
   17.3650   11.4913   -3.8243 H   0  0  0  0  0  0  0  0  0  0  0  0
   17.1455   12.0902   -2.2023 H   0  0  0  0  0  0  0  0  0  0  0  0
   -1.8145   19.2507   -5.8114 H   0  0  0  0  0  0  0  0  0  0  0  0
   15.3971    7.6783   -7.4460 H   0  0  0  0  0  0  0  0  0  0  0  0
    3.9355   13.2128  -12.6430 H   0  0  0  0  0  0  0  0  0  0  0  0
    5.6852   13.5369  -12.6005 H   0  0  0  0  0  0  0  0  0  0  0  0
   12.1270    9.6031   -8.1175 H   0  0  0  0  0  0  0  0  0  0  0  0
   12.3549   13.8139   -7.0259 H   0  0  0  0  0  0  0  0  0  0  0  0
    2.5662   12.1192   -4.7958 H   0  0  0  0  0  0  0  0  0  0  0  0
    5.1508   15.4848   -5.3644 H   0  0  0  0  0  0  0  0  0  0  0  0
    3.8981   21.6903   -5.2502 H   0  0  0  0  0  0  0  0  0  0  0  0
    7.4158   19.3135   -6.0351 H   0  0  0  0  0  0  0  0  0  0  0  0
   10.0388   14.0523   -7.5529 H   0  0  0  0  0  0  0  0  0  0  0  0
    7.0130   14.2950   -4.7910 H   0  0  0  0  0  0  0  0  0  0  0  0
    9.8205    9.9044   -8.8288 H   0  0  0  0  0  0  0  0  0  0  0  0
    4.4903   10.9258   -3.8058 H   0  0  0  0  0  0  0  0  0  0  0  0
    7.8423   19.1437   -3.6110 H   0  0  0  0  0  0  0  0  0  0  0  0
    4.4431   21.6950   -2.8431 H   0  0  0  0  0  0  0  0  0  0  0  0
   18.4753   14.3958   -5.2424 H   0  0  0  0  0  0  0  0  0  0  0  0
   18.6514   15.4865   -4.0530 H   0  0  0  0  0  0  0  0  0  0  0  0
    6.0662   11.4687  -12.0755 H   0  0  0  0  0  0  0  0  0  0  0  0
    3.9239   19.6529  -11.1153 H   0  0  0  0  0  0  0  0  0  0  0  0
   19.2834   12.7493   -3.9543 H   0  0  0  0  0  0  0  0  0  0  0  0
   18.9298   13.6288   -2.4764 H   0  0  0  0  0  0  0  0  0  0  0  0
   13.9082    9.0370   -5.0697 H   0  0  0  0  0  0  0  0  0  0  0  0
   13.4904   10.5437   -5.7857 H   0  0  0  0  0  0  0  0  0  0  0  0
   12.8150    7.9196   -2.7297 H   0  0  0  0  0  0  0  0  0  0  0  0
    3.2100   18.4205   -4.3564 H   0  0  0  0  0  0  0  0  0  0  0  0
    1.7622   18.3736   -3.3662 H   0  0  0  0  0  0  0  0  0  0  0  0
    3.2594   17.4611   -2.9108 H   0  0  0  0  0  0  0  0  0  0  0  0
    1.2236   22.4585  -10.0972 H   0  0  0  0  0  0  0  0  0  0  0  0
   16.5299    5.3514   -6.3792 H   0  0  0  0  0  0  0  0  0  0  0  0
   15.4798   15.3260   -8.9713 H   0  0  0  0  0  0  0  0  0  0  0  0
   14.6238   16.7844   -9.4483 H   0  0  0  0  0  0  0  0  0  0  0  0
   16.3472   16.8686   -9.1026 H   0  0  0  0  0  0  0  0  0  0  0  0
   -2.4471   13.3688   -6.4305 H   0  0  0  0  0  0  0  0  0  0  0  0
   17.2923    7.2929   -5.1496 H   0  0  0  0  0  0  0  0  0  0  0  0
   15.5879    7.7347   -4.8672 H   0  0  0  0  0  0  0  0  0  0  0  0
   -5.2964   16.6040   -3.9684 H   0  0  0  0  0  0  0  0  0  0  0  0
   -0.0460   18.7137  -11.8850 H   0  0  0  0  0  0  0  0  0  0  0  0
   14.8169    9.0751   -7.1224 H   0  0  0  0  0  0  0  0  0  0  0  0
   15.4442   10.3348   -7.1216 H   0  0  0  0  0  0  0  0  0  0  0  0
   17.5784    9.2076   -6.2987 H   0  0  0  0  0  0  0  0  0  0  0  0
   16.8591    9.6902   -4.8062 H   0  0  0  0  0  0  0  0  0  0  0  0
   11.4633    8.4583   -0.0312 H   0  0  0  0  0  0  0  0  0  0  0  0
   13.1793    8.0279   -0.2567 H   0  0  0  0  0  0  0  0  0  0  0  0
   12.5647    9.5660   -0.8492 H   0  0  0  0  0  0  0  0  0  0  0  0
   11.4099    5.8910   -2.8052 H   0  0  0  0  0  0  0  0  0  0  0  0
   12.5102    5.8446   -1.4151 H   0  0  0  0  0  0  0  0  0  0  0  0
   10.7914    6.2349   -1.1831 H   0  0  0  0  0  0  0  0  0  0  0  0
   13.6111    6.4464   -6.3417 H   0  0  0  0  0  0  0  0  0  0  0  0
   14.1373    4.8254   -5.7686 H   0  0  0  0  0  0  0  0  0  0  0  0
   14.5914    6.2440   -4.9050 H   0  0  0  0  0  0  0  0  0  0  0  0
   16.2232    5.5674   -8.8802 H   0  0  0  0  0  0  0  0  0  0  0  0
   15.1362    4.3607   -8.1507 H   0  0  0  0  0  0  0  0  0  0  0  0
   14.5144    5.9530   -8.6455 H   0  0  0  0  0  0  0  0  0  0  0  0
   -0.5384   21.1125  -11.2819 H   0  0  0  0  0  0  0  0  0  0  0  0
   -4.4807   12.5990   -5.2687 H   0  0  0  0  0  0  0  0  0  0  0  0
   -5.9043   14.2177   -4.0399 H   0  0  0  0  0  0  0  0  0  0  0  0
  2  7  1  0  0  0  0
  2  4  1  0  0  0  0
  2118  1  0  0  0  0
  3  1  1  0  0  0  0
  4  6  1  0  0  0  0
  6 10  1  0  0  0  0
  6119  1  0  0  0  0
  7 26  1  0  0  0  0
  8 20  1  0  0  0  0
  9  1  1  0  0  0  0
  9 95  1  0  0  0  0
  9120  1  1  0  0  0
  9  5  1  0  0  0  0
 10 17  1  0  0  0  0
 10 26  1  0  0  0  0
 10121  1  1  0  0  0
 11 18  1  0  0  0  0
 12 25  1  0  0  0  0
 13 23  1  0  0  0  0
 14 22  1  0  0  0  0
 15 21  1  0  0  0  0
 16 24  1  0  0  0  0
 17 38  1  0  0  0  0
 18122  1  0  0  0  0
 19 18  1  0  0  0  0
 19  8  1  0  0  0  0
 19 82  1  0  0  0  0
 19123  1  1  0  0  0
 20124  1  0  0  0  0
 21125  1  0  0  0  0
 22126  1  0  0  0  0
 23127  1  0  0  0  0
 24128  1  0  0  0  0
 25129  1  0  0  0  0
 26130  1  0  0  0  0
 26131  1  0  0  0  0
 27  5  1  0  0  0  0
 27132  1  0  0  0  0
 28 20  1  0  0  0  0
 28 15  1  0  0  0  0
 28 58  1  0  0  0  0
 28133  1  6  0  0  0
 29 57  1  0  0  0  0
 29134  1  1  0  0  0
 29 13  1  0  0  0  0
 29 21  1  0  0  0  0
 30 56  1  0  0  0  0
 30135  1  1  0  0  0
 30 14  1  0  0  0  0
 30 24  1  0  0  0  0
 31 60  1  0  0  0  0
 31136  1  6  0  0  0
 31 11  1  0  0  0  0
 31 22  1  0  0  0  0
 32 23  1  0  0  0  0
 32 12  1  0  0  0  0
 32 64  1  0  0  0  0
 32137  1  1  0  0  0
 33 41  1  0  0  0  0
 34 25  1  0  0  0  0
 34  3  1  0  0  0  0
 34 99  1  0  0  0  0
 34138  1  1  0  0  0
 35 45  1  0  0  0  0
 35139  1  1  0  0  0
 35 37  1  0  0  0  0
 35 16  1  0  0  0  0
 36 40  1  0  0  0  0
 37140  1  0  0  0  0
 38 68  1  0  0  0  0
 38141  1  0  0  0  0
 39 37  1  0  0  0  0
 40 27  1  0  0  0  0
 40104  1  0  0  0  0
 40142  1  1  0  0  0
 41 73  1  0  0  0  0
 41143  1  0  0  0  0
 42  3  2  0  0  0  0
 43  4  2  0  0  0  0
 44  5  2  0  0  0  0
 45144  1  0  0  0  0
 45145  1  0  0  0  0
 46  8  2  0  0  0  0
 47 14  2  0  0  0  0
 48 11  2  0  0  0  0
 49 12  2  0  0  0  0
 50 15  2  0  0  0  0
 51 16  2  0  0  0  0
 52 13  2  0  0  0  0
 53 17  2  0  0  0  0
 54 61  2  0  0  0  0
 55  7  2  0  0  0  0
 56146  1  0  0  0  0
 56147  1  0  0  0  0
 57148  1  0  0  0  0
 57149  1  0  0  0  0
 58150  1  0  0  0  0
 58151  1  0  0  0  0
 59 45  1  0  0  0  0
 60152  1  0  0  0  0
 60153  1  0  0  0  0
 61 59  1  0  0  0  0
 61154  1  0  0  0  0
 62 33  2  0  0  0  0
 63 36  2  0  0  0  0
 64155  1  0  0  0  0
 64156  1  0  0  0  0
 65 97  2  0  0  0  0
 66 39  2  0  0  0  0
 67 70  2  0  0  0  0
 67 54  1  0  0  0  0
 68 83  1  0  0  0  0
 68 84  2  0  0  0  0
 69 33  1  0  0  0  0
 69157  1  0  0  0  0
 69158  1  0  0  0  0
 70 77  1  0  0  0  0
 70159  1  0  0  0  0
 71 36  1  0  0  0  0
 71160  1  0  0  0  0
 71161  1  0  0  0  0
 72  1  1  0  0  0  0
 72162  1  0  0  0  0
 72163  1  0  0  0  0
 73 85  2  0  0  0  0
 73 86  1  0  0  0  0
 74 58  1  0  0  0  0
 75 57  1  0  0  0  0
 76 56  1  0  0  0  0
 77 59  2  0  0  0  0
 77164  1  0  0  0  0
 78 93  1  0  0  0  0
 78 94  2  0  0  0  0
 79 60  1  0  0  0  0
 80106  1  0  0  0  0
 80165  1  0  0  0  0
 81 78  1  0  0  0  0
 82166  1  0  0  0  0
 82167  1  0  0  0  0
 83 91  2  0  0  0  0
 83168  1  0  0  0  0
 84 89  1  0  0  0  0
 84169  1  0  0  0  0
 85 92  1  0  0  0  0
 85170  1  0  0  0  0
 86 90  2  0  0  0  0
 86171  1  0  0  0  0
 87 76  2  0  0  0  0
 87172  1  0  0  0  0
 88 76  1  0  0  0  0
 88173  1  0  0  0  0
 89 74  2  0  0  0  0
 89174  1  0  0  0  0
 90 75  1  0  0  0  0
 90175  1  0  0  0  0
 91 74  1  0  0  0  0
 91176  1  0  0  0  0
 92 75  2  0  0  0  0
 92177  1  0  0  0  0
 93 88  2  0  0  0  0
 93178  1  0  0  0  0
 94 87  1  0  0  0  0
 94179  1  0  0  0  0
 95180  1  0  0  0  0
 95181  1  0  0  0  0
 96 82  1  0  0  0  0
 96182  1  0  0  0  0
 97 79  1  0  0  0  0
 97183  1  0  0  0  0
 98 72  1  0  0  0  0
 98 95  1  0  0  0  0
 98184  1  0  0  0  0
 98185  1  0  0  0  0
 99186  1  0  0  0  0
 99187  1  0  0  0  0
100 64  1  0  0  0  0
100188  1  0  0  0  0
101 39  1  0  0  0  0
101189  1  0  0  0  0
101190  1  0  0  0  0
101191  1  0  0  0  0
102115  2  0  0  0  0
102 65  1  0  0  0  0
102192  1  0  0  0  0
103 80  1  0  0  0  0
103193  1  0  0  0  0
104194  1  0  0  0  0
104195  1  0  0  0  0
104196  1  0  0  0  0
105 54  1  0  0  0  0
105197  1  0  0  0  0
106110  1  0  0  0  0
106198  1  0  0  0  0
106199  1  0  0  0  0
107 67  1  0  0  0  0
107200  1  0  0  0  0
108 79  2  0  0  0  0
108201  1  0  0  0  0
109 99  1  0  0  0  0
109202  1  0  0  0  0
109203  1  0  0  0  0
110109  1  0  0  0  0
110204  1  0  0  0  0
110205  1  0  0  0  0
111100  1  0  0  0  0
111206  1  0  0  0  0
111207  1  0  0  0  0
111208  1  0  0  0  0
112100  1  0  0  0  0
112209  1  0  0  0  0
112210  1  0  0  0  0
112211  1  0  0  0  0
113103  1  0  0  0  0
113212  1  0  0  0  0
113213  1  0  0  0  0
113214  1  0  0  0  0
114103  1  0  0  0  0
114215  1  0  0  0  0
114216  1  0  0  0  0
114217  1  0  0  0  0
115108  1  0  0  0  0
115218  1  0  0  0  0
116105  2  0  0  0  0
116219  1  0  0  0  0
117107  2  0  0  0  0
117116  1  0  0  0  0
117220  1  0  0  0  0
M  END
>  <DRUGBANK_ID>
DB06699

>  <COMMON_NAME>
Degarelix

>  <CAS_NUMBER>
214766-78-6

>  <UNII>
SX0XJI3A11

>  <SYNONYMS>
Degarelix

$$$$
