1230
 OpenBabel10282417113D

 21 22  0  0  1  0  0  0  0  0999 V2000
   -0.2810    1.1276    0.0493 O   0  0  0  0  0  0  0  0  0  0  0  0
   -0.5241   -2.3252    0.2613 O   0  0  0  0  0  0  0  0  0  0  0  0
    1.0557   -0.7011   -0.0264 N   0  0  0  0  0  0  0  0  0  0  0  0
    1.9969    1.4218   -0.1712 N   0  0  0  0  0  0  0  0  0  0  0  0
   -1.1867    0.0121   -0.1180 C   0  0  3  0  0  0  0  0  0  0  0  0
   -2.4739    0.0393    0.7021 C   0  0  0  0  0  0  0  0  0  0  0  0
   -0.2272   -1.1497    0.0864 C   0  0  0  0  0  0  0  0  0  0  0  0
   -3.3929    1.0911    0.5318 C   0  0  0  0  0  0  0  0  0  0  0  0
   -2.8884   -1.0478    1.4953 C   0  0  0  0  0  0  0  0  0  0  0  0
    0.9598    0.5772   -0.0479 C   0  0  0  0  0  0  0  0  0  0  0  0
   -4.6612    1.0519    1.1337 C   0  0  0  0  0  0  0  0  0  0  0  0
   -4.1743   -1.1153    2.0417 C   0  0  0  0  0  0  0  0  0  0  0  0
   -5.0504   -0.0504    1.8906 C   0  0  0  0  0  0  0  0  0  0  0  0
    2.9212    1.0223   -0.2885 H   0  0  0  0  0  0  0  0  0  0  0  0
    1.9003    2.4251   -0.1811 H   0  0  0  0  0  0  0  0  0  0  0  0
   -1.4837    0.0010   -1.1756 H   0  0  0  0  0  0  0  0  0  0  0  0
   -3.1446    1.9425   -0.0990 H   0  0  0  0  0  0  0  0  0  0  0  0
   -2.2394   -1.8979    1.6890 H   0  0  0  0  0  0  0  0  0  0  0  0
   -5.3618    1.8712    0.9897 H   0  0  0  0  0  0  0  0  0  0  0  0
   -4.4892   -2.0133    2.5693 H   0  0  0  0  0  0  0  0  0  0  0  0
   -6.0306   -0.0853    2.3595 H   0  0  0  0  0  0  0  0  0  0  0  0
  1  5  1  0  0  0  0
  1 10  1  0  0  0  0
  2  7  2  0  0  0  0
  3  7  1  0  0  0  0
  3 10  2  0  0  0  0
  4 10  1  0  0  0  0
  4 14  1  0  0  0  0
  4 15  1  0  0  0  0
  5  6  1  0  0  0  0
  5  7  1  0  0  0  0
  5 16  1  0  0  0  0
  6  8  2  0  0  0  0
  6  9  1  0  0  0  0
  8 11  1  0  0  0  0
  8 17  1  0  0  0  0
  9 12  2  0  0  0  0
  9 18  1  0  0  0  0
 11 13  2  0  0  0  0
 11 19  1  0  0  0  0
 12 13  1  0  0  0  0
 12 20  1  0  0  0  0
 13 21  1  0  0  0  0
M  END
>  <DRUGBANK_ID>
DB01230

>  <SECONDARY_ACCESSION_NUMBERS>
APRD01169

>  <COMMON_NAME>
Pemoline

>  <CAS_NUMBER>
2152-34-3

>  <UNII>
7GAQ2332NK

>  <SYNONYMS>
pemolina; Pemoline

$$$$
