M28
 OpenBabel10282417173D

 26 26  0  0  0  0  0  0  0  0999 V2000
    1.4306   -0.2884    0.0384 C   0  0  0  0  0  0  0  0  0  0  0  0
    0.5310   -1.3591    0.0402 C   0  0  0  0  0  0  0  0  0  0  0  0
   -0.8474   -1.1142   -0.0221 C   0  0  0  0  0  0  0  0  0  0  0  0
   -1.3247    0.1961   -0.1395 C   0  0  0  0  0  0  0  0  0  0  0  0
   -0.3930    1.2367   -0.2543 C   0  0  0  0  0  0  0  0  0  0  0  0
    0.9714    1.0140   -0.1222 C   0  0  0  0  0  0  0  0  0  0  0  0
    3.1735   -0.5151    0.2071 S   0  0  0  0  0  0  0  0  0  0  0  0
    3.7985   -0.1143   -1.0298 O   0  0  0  0  0  0  0  0  0  0  0  0
    3.5762    0.0211    1.4876 O   0  0  0  0  0  0  0  0  0  0  0  0
    3.3786   -2.1845    0.2949 N   0  0  0  0  0  0  0  0  0  0  0  0
   -2.8021    0.5188   -0.1719 C   0  0  0  0  0  0  0  0  0  0  0  0
   -3.3339    1.2869    1.0474 C   0  0  0  0  0  0  0  0  0  0  0  0
   -2.7698    2.6774    1.2291 C   0  0  0  0  0  0  0  0  0  0  0  0
   -3.2827    3.7124    0.8530 O   0  0  0  0  0  0  0  0  0  0  0  0
   -1.5495    2.6833    1.8036 O   0  0  0  0  0  0  0  0  0  0  0  0
    0.8783   -2.3853    0.1005 H   0  0  0  0  0  0  0  0  0  0  0  0
   -1.5360   -1.9563    0.0176 H   0  0  0  0  0  0  0  0  0  0  0  0
   -0.7315    2.2565   -0.4081 H   0  0  0  0  0  0  0  0  0  0  0  0
    1.6553    1.8590   -0.1470 H   0  0  0  0  0  0  0  0  0  0  0  0
    3.1323   -2.6278   -0.5887 H   0  0  0  0  0  0  0  0  0  0  0  0
    4.3505   -2.3762    0.5467 H   0  0  0  0  0  0  0  0  0  0  0  0
   -3.0058    1.0759   -1.0949 H   0  0  0  0  0  0  0  0  0  0  0  0
   -3.3729   -0.4165   -0.2580 H   0  0  0  0  0  0  0  0  0  0  0  0
   -4.4175    1.4141    0.9266 H   0  0  0  0  0  0  0  0  0  0  0  0
   -3.1906    0.7190    1.9722 H   0  0  0  0  0  0  0  0  0  0  0  0
   -1.1474    3.5496    1.5822 H   0  0  0  0  0  0  0  0  0  0  0  0
  1  7  1  0  0  0  0
  1  2  2  0  0  0  0
  1  6  1  0  0  0  0
  2  3  1  0  0  0  0
  2 16  1  0  0  0  0
  3  4  2  0  0  0  0
  3 17  1  0  0  0  0
  4  5  1  0  0  0  0
  4 11  1  0  0  0  0
  5  6  2  0  0  0  0
  5 18  1  0  0  0  0
  6 19  1  0  0  0  0
  7  8  2  0  0  0  0
  7  9  2  0  0  0  0
  7 10  1  0  0  0  0
 10 20  1  0  0  0  0
 10 21  1  0  0  0  0
 11 12  1  0  0  0  0
 11 22  1  0  0  0  0
 11 23  1  0  0  0  0
 12 13  1  0  0  0  0
 12 24  1  0  0  0  0
 12 25  1  0  0  0  0
 13 14  2  0  0  0  0
 13 15  1  0  0  0  0
 15 26  1  0  0  0  0
M  END
>  <DRUGBANK_ID>
DB08156

>  <COMMON_NAME>
3-[4-(AMINOSULFONYL)PHENYL]PROPANOIC ACID

>  <UNII>
U9RZF328WH

$$$$
