
 OpenBabel10282417153D

 39 42  0  0  0  0  0  0  0  0999 V2000
    0.5819   -0.6944    0.5723 C   0  0  0  0  0  0  0  0  0  0  0  0
   -1.5010   -1.8972    0.7554 C   0  0  0  0  0  0  0  0  0  0  0  0
   -0.2156   -1.8123    0.9407 N   0  0  0  0  0  0  0  0  0  0  0  0
    2.7530    0.1200   -0.1621 C   0  0  0  0  0  0  0  0  0  0  0  0
    2.3923    1.4299    0.1414 C   0  0  0  0  0  0  0  0  0  0  0  0
    1.1184    1.6878    0.6512 C   0  0  0  0  0  0  0  0  0  0  0  0
    1.8574   -0.9331    0.0489 C   0  0  0  0  0  0  0  0  0  0  0  0
    0.2158    0.6311    0.8899 C   0  0  0  0  0  0  0  0  0  0  0  0
   -1.1069    0.9185    1.2861 N   0  0  0  0  0  0  0  0  0  0  0  0
   -2.3344   -0.8233    0.0786 C   0  0  0  0  0  0  0  0  0  0  0  0
   -2.1897    0.5157    0.4836 C   0  0  0  0  0  0  0  0  0  0  0  0
   -3.0307    1.4927   -0.0862 C   0  0  0  0  0  0  0  0  0  0  0  0
   -4.0200    1.1454   -1.0106 C   0  0  0  0  0  0  0  0  0  0  0  0
   -4.1599   -0.1763   -1.4027 C   0  0  0  0  0  0  0  0  0  0  0  0
   -3.3115   -1.1427   -0.8703 C   0  0  0  0  0  0  0  0  0  0  0  0
   -2.1632   -3.0185    1.2870 N   0  0  0  0  0  0  0  0  0  0  0  0
   -2.0180   -3.3872    2.7061 C   0  0  0  0  0  0  0  0  0  0  0  0
   -1.6393   -4.8809    2.8504 C   0  0  0  0  0  0  0  0  0  0  0  0
   -2.5634   -5.8022    2.1471 N   0  0  0  0  0  0  0  0  0  0  0  0
   -2.6205   -5.3875    0.7367 C   0  0  0  0  0  0  0  0  0  0  0  0
   -3.0433   -3.9198    0.5511 C   0  0  0  0  0  0  0  0  0  0  0  0
    4.3275   -0.2010   -0.7836 Cl  0  0  0  0  0  0  0  0  0  0  0  0
    3.0906    2.2483   -0.0242 H   0  0  0  0  0  0  0  0  0  0  0  0
    0.8245    2.7180    0.8342 H   0  0  0  0  0  0  0  0  0  0  0  0
    2.1560   -1.9536   -0.1715 H   0  0  0  0  0  0  0  0  0  0  0  0
   -1.2428    1.6928    1.9160 H   0  0  0  0  0  0  0  0  0  0  0  0
   -2.8870    2.5442    0.1484 H   0  0  0  0  0  0  0  0  0  0  0  0
   -4.6572    1.9055   -1.4548 H   0  0  0  0  0  0  0  0  0  0  0  0
   -4.9070   -0.4673   -2.1362 H   0  0  0  0  0  0  0  0  0  0  0  0
   -3.4254   -2.1391   -1.2612 H   0  0  0  0  0  0  0  0  0  0  0  0
   -1.2875   -2.7620    3.2302 H   0  0  0  0  0  0  0  0  0  0  0  0
   -2.9861   -3.2220    3.2003 H   0  0  0  0  0  0  0  0  0  0  0  0
   -0.6245   -5.0401    2.4674 H   0  0  0  0  0  0  0  0  0  0  0  0
   -1.6296   -5.1583    3.9099 H   0  0  0  0  0  0  0  0  0  0  0  0
   -3.4946   -5.6929    2.5481 H   0  0  0  0  0  0  0  0  0  0  0  0
   -1.6385   -5.5413    0.2711 H   0  0  0  0  0  0  0  0  0  0  0  0
   -3.3274   -6.0283    0.1981 H   0  0  0  0  0  0  0  0  0  0  0  0
   -4.0753   -3.7701    0.8928 H   0  0  0  0  0  0  0  0  0  0  0  0
   -2.9960   -3.7625   -0.5218 H   0  0  0  0  0  0  0  0  0  0  0  0
  1  7  2  0  0  0  0
  1  8  1  0  0  0  0
  2  3  2  0  0  0  0
  2 16  1  0  0  0  0
  3  1  1  0  0  0  0
  4  5  2  0  0  0  0
  4 22  1  0  0  0  0
  5  6  1  0  0  0  0
  5 23  1  0  0  0  0
  6  8  2  0  0  0  0
  6 24  1  0  0  0  0
  7  4  1  0  0  0  0
  7 25  1  0  0  0  0
  8  9  1  0  0  0  0
  9 11  1  0  0  0  0
  9 26  1  0  0  0  0
 10 11  2  0  0  0  0
 10  2  1  0  0  0  0
 11 12  1  0  0  0  0
 12 13  2  0  0  0  0
 12 27  1  0  0  0  0
 13 14  1  0  0  0  0
 13 28  1  0  0  0  0
 14 15  2  0  0  0  0
 14 29  1  0  0  0  0
 15 10  1  0  0  0  0
 15 30  1  0  0  0  0
 16 17  1  0  0  0  0
 16 21  1  0  0  0  0
 17 18  1  0  0  0  0
 17 31  1  0  0  0  0
 17 32  1  0  0  0  0
 18 19  1  0  0  0  0
 18 33  1  0  0  0  0
 18 34  1  0  0  0  0
 19 20  1  0  0  0  0
 19 35  1  0  0  0  0
 20 21  1  0  0  0  0
 20 36  1  0  0  0  0
 20 37  1  0  0  0  0
 21 38  1  0  0  0  0
 21 39  1  0  0  0  0
M  END
>  <DRUGBANK_ID>
DB05766

>  <COMMON_NAME>
Norclozapine

>  <CAS_NUMBER>
6104-71-8

>  <UNII>
1I9001LWY8

>  <SYNONYMS>
Demethylclozapine; Desmethylclozapine; N-Desmethylclozapine

$$$$
