
 OpenBabel10282417153D

 70 73  0  0  1  0  0  0  0  0999 V2000
   -2.4823    0.6819   -0.1784 C   0  0  0  0  0  0  0  0  0  0  0  0
   -1.3267    1.4091    0.0636 C   0  0  0  0  0  0  0  0  0  0  0  0
   -0.0933    0.7558    0.0938 C   0  0  0  0  0  0  0  0  0  0  0  0
    1.1344    1.4935    0.2274 C   0  0  0  0  0  0  0  0  0  0  0  0
    2.4270    0.8055   -0.0190 C   0  0  0  0  0  0  0  0  0  0  0  0
    2.4036   -0.5444   -0.1059 C   0  0  0  0  0  0  0  0  0  0  0  0
    3.6978   -1.4123   -0.1886 C   0  0  1  0  0  0  0  0  0  0  0  0
    4.2793   -1.9526    1.2252 C   0  0  0  0  0  0  0  0  0  0  0  0
    3.4020   -2.8683    2.0307 C   0  0  0  0  0  0  0  0  0  0  0  0
    5.5506   -2.7686    0.9996 C   0  0  0  0  0  0  0  0  0  0  0  0
    3.7160   -2.3117   -1.4341 N   0  0  0  0  0  0  0  0  0  0  0  0
    4.6785   -1.9604   -2.4411 C   0  0  0  0  0  0  0  0  0  0  0  0
    4.7113   -2.6916   -3.7422 C   0  0  0  0  0  0  0  0  0  0  0  0
    3.5420   -2.9297   -4.4699 C   0  0  0  0  0  0  0  0  0  0  0  0
    3.5129   -3.9507   -5.4154 C   0  0  0  0  0  0  0  0  0  0  0  0
    4.7038   -4.5309   -5.8499 C   0  0  0  0  0  0  0  0  0  0  0  0
    5.9156   -4.0747   -5.3164 C   0  0  0  0  0  0  0  0  0  0  0  0
    5.9187   -3.2147   -4.2124 C   0  0  0  0  0  0  0  0  0  0  0  0
    4.6542   -5.6354   -6.8615 C   0  0  0  0  0  0  0  0  0  0  0  0
    5.5495   -1.0967   -2.2805 O   0  0  0  0  0  0  0  0  0  0  0  0
    2.6605   -3.3557   -1.7152 C   0  0  0  0  0  0  0  0  0  0  0  0
    2.5553   -4.6036   -0.8330 C   0  0  0  0  0  0  0  0  0  0  0  0
    1.8262   -4.2647    0.4222 C   0  0  0  0  0  0  0  0  0  0  0  0
    0.5313   -3.6938    0.6529 N   0  0  0  0  0  0  0  0  0  0  0  0
    1.1981   -1.2556   -0.0698 O   0  0  0  0  0  0  0  0  0  0  0  0
   -0.0139   -0.6105    0.0108 C   0  0  0  0  0  0  0  0  0  0  0  0
   -1.2131   -1.3384    0.0429 C   0  0  0  0  0  0  0  0  0  0  0  0
   -2.4377   -0.6956   -0.0752 C   0  0  0  0  0  0  0  0  0  0  0  0
   -3.8909   -1.6108   -0.0525 Cl  0  0  0  0  0  0  0  0  0  0  0  0
    3.6499    1.6849   -0.0919 C   0  0  0  0  0  0  0  0  0  0  0  0
    3.6627    2.5130   -1.3535 C   0  0  0  0  0  0  0  0  0  0  0  0
    2.6928    3.4989   -1.5669 C   0  0  0  0  0  0  0  0  0  0  0  0
    2.4909    4.0618   -2.8126 C   0  0  0  0  0  0  0  0  0  0  0  0
    3.4341    3.8429   -3.7988 C   0  0  0  0  0  0  0  0  0  0  0  0
    4.5315    3.0194   -3.5416 C   0  0  0  0  0  0  0  0  0  0  0  0
    4.5960    2.2787   -2.3621 C   0  0  0  0  0  0  0  0  0  0  0  0
    1.0354    2.6804    0.5987 O   0  0  0  0  0  0  0  0  0  0  0  0
   -3.4044    1.1919   -0.4276 H   0  0  0  0  0  0  0  0  0  0  0  0
   -1.3753    2.4851    0.2060 H   0  0  0  0  0  0  0  0  0  0  0  0
    4.5052   -0.7161   -0.4085 H   0  0  0  0  0  0  0  0  0  0  0  0
    4.4283   -1.1009    1.9025 H   0  0  0  0  0  0  0  0  0  0  0  0
    3.5928   -3.8071    1.5079 H   0  0  0  0  0  0  0  0  0  0  0  0
    3.5739   -3.2511    3.0326 H   0  0  0  0  0  0  0  0  0  0  0  0
    2.4023   -2.4297    2.0465 H   0  0  0  0  0  0  0  0  0  0  0  0
    6.4211   -2.1317    0.8790 H   0  0  0  0  0  0  0  0  0  0  0  0
    5.7224   -3.4604    1.8362 H   0  0  0  0  0  0  0  0  0  0  0  0
    5.4373   -3.4056    0.1154 H   0  0  0  0  0  0  0  0  0  0  0  0
    2.6124   -2.4418   -4.1888 H   0  0  0  0  0  0  0  0  0  0  0  0
    2.5549   -4.3080   -5.7876 H   0  0  0  0  0  0  0  0  0  0  0  0
    6.8601   -4.4181   -5.7312 H   0  0  0  0  0  0  0  0  0  0  0  0
    6.8559   -2.9784   -3.7124 H   0  0  0  0  0  0  0  0  0  0  0  0
    4.1305   -6.5035   -6.4438 H   0  0  0  0  0  0  0  0  0  0  0  0
    4.1255   -5.2997   -7.7585 H   0  0  0  0  0  0  0  0  0  0  0  0
    5.6584   -5.9568   -7.1515 H   0  0  0  0  0  0  0  0  0  0  0  0
    1.7060   -2.8370   -1.8251 H   0  0  0  0  0  0  0  0  0  0  0  0
    2.8470   -3.8413   -2.6549 H   0  0  0  0  0  0  0  0  0  0  0  0
    2.0309   -5.4355   -1.2999 H   0  0  0  0  0  0  0  0  0  0  0  0
    3.5843   -4.9248   -0.6074 H   0  0  0  0  0  0  0  0  0  0  0  0
    2.0973   -4.9108    1.2558 H   0  0  0  0  0  0  0  0  0  0  0  0
    2.2956   -3.3123    0.4393 H   0  0  0  0  0  0  0  0  0  0  0  0
    0.5883   -3.2000    1.5652 H   0  0  0  0  0  0  0  0  0  0  0  0
    0.5545   -2.8710    0.0412 H   0  0  0  0  0  0  0  0  0  0  0  0
   -1.2587   -2.4155    0.1472 H   0  0  0  0  0  0  0  0  0  0  0  0
    3.7165    2.3057    0.8060 H   0  0  0  0  0  0  0  0  0  0  0  0
    4.5745    1.1058   -0.0734 H   0  0  0  0  0  0  0  0  0  0  0  0
    2.0516    3.8421   -0.7681 H   0  0  0  0  0  0  0  0  0  0  0  0
    1.6216    4.6913   -2.9740 H   0  0  0  0  0  0  0  0  0  0  0  0
    3.3273    4.3442   -4.7531 H   0  0  0  0  0  0  0  0  0  0  0  0
    5.3348    2.9443   -4.2663 H   0  0  0  0  0  0  0  0  0  0  0  0
    5.3822    1.5360   -2.2352 H   0  0  0  0  0  0  0  0  0  0  0  0
  1 28  2  0  0  0  0
  1 38  1  0  0  0  0
  2  1  1  0  0  0  0
  2 39  1  0  0  0  0
  3  2  2  0  0  0  0
  3  4  1  0  0  0  0
  4  5  1  0  0  0  0
  4 37  2  0  0  0  0
  5  6  2  0  0  0  0
  5 30  1  0  0  0  0
  6  7  1  0  0  0  0
  6 25  1  0  0  0  0
  7  8  1  0  0  0  0
  7 11  1  0  0  0  0
  7 40  1  6  0  0  0
  8  9  1  0  0  0  0
  8 10  1  0  0  0  0
  8 41  1  0  0  0  0
  9 42  1  0  0  0  0
  9 43  1  0  0  0  0
  9 44  1  0  0  0  0
 10 45  1  0  0  0  0
 10 46  1  0  0  0  0
 10 47  1  0  0  0  0
 11 12  1  0  0  0  0
 11 21  1  0  0  0  0
 12 13  1  0  0  0  0
 12 20  2  0  0  0  0
 13 14  2  0  0  0  0
 14 15  1  0  0  0  0
 14 48  1  0  0  0  0
 15 16  2  0  0  0  0
 15 49  1  0  0  0  0
 16 17  1  0  0  0  0
 16 19  1  0  0  0  0
 17 18  2  0  0  0  0
 17 50  1  0  0  0  0
 18 13  1  0  0  0  0
 18 51  1  0  0  0  0
 19 52  1  0  0  0  0
 19 53  1  0  0  0  0
 19 54  1  0  0  0  0
 21 22  1  0  0  0  0
 21 55  1  0  0  0  0
 21 56  1  0  0  0  0
 22 23  1  0  0  0  0
 22 57  1  0  0  0  0
 22 58  1  0  0  0  0
 23 24  1  0  0  0  0
 23 59  1  0  0  0  0
 23 60  1  0  0  0  0
 24 61  1  0  0  0  0
 24 62  1  0  0  0  0
 25 26  1  0  0  0  0
 26  3  1  0  0  0  0
 27 26  2  0  0  0  0
 27 63  1  0  0  0  0
 28 27  1  0  0  0  0
 28 29  1  0  0  0  0
 30 31  1  0  0  0  0
 30 64  1  0  0  0  0
 30 65  1  0  0  0  0
 31 36  2  0  0  0  0
 32 31  1  0  0  0  0
 32 66  1  0  0  0  0
 33 32  2  0  0  0  0
 33 67  1  0  0  0  0
 34 33  1  0  0  0  0
 34 68  1  0  0  0  0
 35 34  2  0  0  0  0
 35 69  1  0  0  0  0
 36 35  1  0  0  0  0
 36 70  1  0  0  0  0
M  END
>  <DRUGBANK_ID>
DB05546

>  <COMMON_NAME>
SB-743921

>  <CAS_NUMBER>
618430-39-0

>  <UNII>
24DSZ1VN92

$$$$
