
 OpenBabel10282417203D

 47 49  0  0  0  0  0  0  0  0999 V2000
   -0.7703    1.2412    0.4104 C   0  0  0  0  0  0  0  0  0  0  0  0
    0.6605    1.1734   -0.0490 C   0  0  0  0  0  0  0  0  0  0  0  0
    1.3660   -0.0659    0.2788 N   0  0  0  0  0  0  0  0  0  0  0  0
    0.6393   -1.2445   -0.2084 C   0  0  0  0  0  0  0  0  0  0  0  0
   -0.7996   -1.2687    0.2936 C   0  0  0  0  0  0  0  0  0  0  0  0
   -1.5401    0.0143   -0.0984 C   0  0  3  0  0  0  0  0  0  0  0  0
   -2.9583    0.0197    0.4683 C   0  0  0  0  0  0  0  0  0  0  0  0
   -3.7060    1.2734    0.0787 C   0  0  0  0  0  0  0  0  0  0  0  0
   -3.9931    1.5562   -1.2653 C   0  0  0  0  0  0  0  0  0  0  0  0
   -4.6128    2.7601   -1.6089 C   0  0  0  0  0  0  0  0  0  0  0  0
   -4.9468    3.6634   -0.6096 C   0  0  0  0  0  0  0  0  0  0  0  0
   -4.6644    3.4048    0.7233 C   0  0  0  0  0  0  0  0  0  0  0  0
   -4.0366    2.2082    1.0694 C   0  0  0  0  0  0  0  0  0  0  0  0
   -5.5513    4.8161   -0.9401 F   0  0  0  0  0  0  0  0  0  0  0  0
    2.7438   -0.0491   -0.2680 C   0  0  0  0  0  0  0  0  0  0  0  0
    2.9338   -0.0195   -1.8280 C   0  0  3  0  0  0  0  0  0  0  0  0
    2.3909    1.2413   -2.4904 C   0  0  0  0  0  0  0  0  0  0  0  0
    2.8869    2.5011   -2.1114 C   0  0  0  0  0  0  0  0  0  0  0  0
    2.2528    3.6729   -2.5240 C   0  0  0  0  0  0  0  0  0  0  0  0
    1.1061    3.6027   -3.3102 C   0  0  0  0  0  0  0  0  0  0  0  0
    0.5836    2.3677   -3.6893 C   0  0  0  0  0  0  0  0  0  0  0  0
    1.2370    1.1886   -3.3062 C   0  0  0  0  0  0  0  0  0  0  0  0
    0.3150    5.0546   -3.7835 Cl  0  0  0  0  0  0  0  0  0  0  0  0
    4.3241   -0.1453   -2.1313 O   0  0  0  0  0  0  0  0  0  0  0  0
   -1.1992    2.1548   -0.0254 H   0  0  0  0  0  0  0  0  0  0  0  0
   -0.8220    1.3359    1.4977 H   0  0  0  0  0  0  0  0  0  0  0  0
    0.5375    1.2515   -1.1143 H   0  0  0  0  0  0  0  0  0  0  0  0
    1.2088    2.0563    0.2961 H   0  0  0  0  0  0  0  0  0  0  0  0
    1.1498   -2.1556    0.1251 H   0  0  0  0  0  0  0  0  0  0  0  0
    0.6100   -1.2727   -1.3035 H   0  0  0  0  0  0  0  0  0  0  0  0
   -0.8064   -1.3914    1.3824 H   0  0  0  0  0  0  0  0  0  0  0  0
   -1.3083   -2.1384   -0.1389 H   0  0  0  0  0  0  0  0  0  0  0  0
   -1.5822    0.0513   -1.1987 H   0  0  0  0  0  0  0  0  0  0  0  0
   -3.5171   -0.8593    0.1301 H   0  0  0  0  0  0  0  0  0  0  0  0
   -2.8946   -0.0513    1.5617 H   0  0  0  0  0  0  0  0  0  0  0  0
   -3.7137    0.8598   -2.0517 H   0  0  0  0  0  0  0  0  0  0  0  0
   -4.8269    2.9966   -2.6452 H   0  0  0  0  0  0  0  0  0  0  0  0
   -4.9204    4.1309    1.4858 H   0  0  0  0  0  0  0  0  0  0  0  0
   -3.7810    2.0217    2.1093 H   0  0  0  0  0  0  0  0  0  0  0  0
    3.2871    0.7927    0.1855 H   0  0  0  0  0  0  0  0  0  0  0  0
    3.2744   -0.9281    0.1254 H   0  0  0  0  0  0  0  0  0  0  0  0
    2.4617   -0.9050   -2.2653 H   0  0  0  0  0  0  0  0  0  0  0  0
    3.7182    2.5803   -1.4152 H   0  0  0  0  0  0  0  0  0  0  0  0
    2.6374    4.6325   -2.1904 H   0  0  0  0  0  0  0  0  0  0  0  0
   -0.3565    2.3173   -4.2341 H   0  0  0  0  0  0  0  0  0  0  0  0
    0.7546    0.2349   -3.5212 H   0  0  0  0  0  0  0  0  0  0  0  0
    4.7561    0.6823   -1.8679 H   0  0  0  0  0  0  0  0  0  0  0  0
  1  2  1  0  0  0  0
  1  6  1  0  0  0  0
  1 25  1  0  0  0  0
  1 26  1  0  0  0  0
  2  3  1  0  0  0  0
  2 27  1  0  0  0  0
  2 28  1  0  0  0  0
  3  4  1  0  0  0  0
  3 15  1  0  0  0  0
  4  5  1  0  0  0  0
  4 29  1  0  0  0  0
  4 30  1  0  0  0  0
  5  6  1  0  0  0  0
  5 31  1  0  0  0  0
  5 32  1  0  0  0  0
  6  7  1  0  0  0  0
  6 33  1  0  0  0  0
  7  8  1  0  0  0  0
  7 34  1  0  0  0  0
  7 35  1  0  0  0  0
  8  9  2  0  0  0  0
  8 13  1  0  0  0  0
  9 10  1  0  0  0  0
  9 36  1  0  0  0  0
 10 11  2  0  0  0  0
 10 37  1  0  0  0  0
 11 12  1  0  0  0  0
 11 14  1  0  0  0  0
 12 13  2  0  0  0  0
 12 38  1  0  0  0  0
 13 39  1  0  0  0  0
 15 16  1  0  0  0  0
 15 40  1  0  0  0  0
 15 41  1  0  0  0  0
 16 17  1  0  0  0  0
 16 24  1  0  0  0  0
 16 42  1  0  0  0  0
 17 18  2  0  0  0  0
 17 22  1  0  0  0  0
 18 19  1  0  0  0  0
 18 43  1  0  0  0  0
 19 20  2  0  0  0  0
 19 44  1  0  0  0  0
 20 21  1  0  0  0  0
 20 23  1  0  0  0  0
 21 22  2  0  0  0  0
 21 45  1  0  0  0  0
 22 46  1  0  0  0  0
 24 47  1  0  0  0  0
M  END
>  <DRUGBANK_ID>
DB12869

>  <COMMON_NAME>
Eliprodil

>  <CAS_NUMBER>
119431-25-3

>  <UNII>
YW62A6TW29

>  <SYNONYMS>
Eliprodil

$$$$
