F19
 OpenBabel10282417163D

 35 36  0  0  0  0  0  0  0  0999 V2000
    1.1596   -1.4016    0.0528 C   0  0  0  0  0  0  0  0  0  0  0  0
    2.3476   -0.6988    0.1258 C   0  0  0  0  0  0  0  0  0  0  0  0
    2.3357    0.6969    0.1085 C   0  0  0  0  0  0  0  0  0  0  0  0
    1.1511    1.4141    0.0509 C   0  0  0  0  0  0  0  0  0  0  0  0
   -0.0494    0.7147    0.0176 C   0  0  0  0  0  0  0  0  0  0  0  0
   -0.0472   -0.7049    0.0180 C   0  0  0  0  0  0  0  0  0  0  0  0
   -1.2591   -1.3944    0.0023 C   0  0  0  0  0  0  0  0  0  0  0  0
   -2.4603   -0.6898   -0.0138 C   0  0  0  0  0  0  0  0  0  0  0  0
   -2.4596    0.7044   -0.0209 C   0  0  0  0  0  0  0  0  0  0  0  0
   -1.2585    1.4067   -0.0099 C   0  0  0  0  0  0  0  0  0  0  0  0
    3.8199    1.5983    0.0569 S   0  0  0  0  0  0  0  0  0  0  0  0
    3.8307    2.4365   -1.1287 O   0  0  0  0  0  0  0  0  0  0  0  0
    4.0803    2.2118    1.3304 O   0  0  0  0  0  0  0  0  0  0  0  0
    5.2643    0.4886   -2.6737 C   0  0  0  0  0  0  0  0  0  0  0  0
    6.4528    1.2544   -2.6351 O   0  0  0  0  0  0  0  0  0  0  0  0
    5.1332   -0.3671   -1.4231 C   0  0  0  0  0  0  0  0  0  0  0  0
    4.9854    0.4162   -0.1664 N   0  0  0  0  0  0  0  0  0  0  0  0
    7.4724    1.1775   -0.5437 O   0  0  0  0  0  0  0  0  0  0  0  0
    7.5583    3.2129   -2.0954 O   0  0  0  0  0  0  0  0  0  0  0  0
    6.6011    2.2386   -1.2201 P   0  0  0  0  0  0  0  0  0  0  0  0
    6.7493    3.2228    0.1949 O   0  0  0  0  0  0  0  0  0  0  0  0
    1.1949   -2.4879    0.0420 H   0  0  0  0  0  0  0  0  0  0  0  0
    3.2676   -1.2683    0.1960 H   0  0  0  0  0  0  0  0  0  0  0  0
    1.1728    2.5026    0.0466 H   0  0  0  0  0  0  0  0  0  0  0  0
   -1.2768   -2.4815    0.0166 H   0  0  0  0  0  0  0  0  0  0  0  0
   -3.4007   -1.2322   -0.0187 H   0  0  0  0  0  0  0  0  0  0  0  0
   -3.3980    1.2499   -0.0314 H   0  0  0  0  0  0  0  0  0  0  0  0
   -1.2728    2.4940   -0.0156 H   0  0  0  0  0  0  0  0  0  0  0  0
    5.3031   -0.1578   -3.5550 H   0  0  0  0  0  0  0  0  0  0  0  0
    4.4095    1.1448   -2.8358 H   0  0  0  0  0  0  0  0  0  0  0  0
    6.0306   -0.9875   -1.3060 H   0  0  0  0  0  0  0  0  0  0  0  0
    4.2965   -1.0492   -1.5577 H   0  0  0  0  0  0  0  0  0  0  0  0
    5.8578    0.5379    0.3825 H   0  0  0  0  0  0  0  0  0  0  0  0
    8.2350    2.6408   -2.5085 H   0  0  0  0  0  0  0  0  0  0  0  0
    5.8769    3.5086    0.5270 H   0  0  0  0  0  0  0  0  0  0  0  0
  1  2  2  0  0  0  0
  1  6  1  0  0  0  0
  1 22  1  0  0  0  0
  2  3  1  0  0  0  0
  2 23  1  0  0  0  0
  3  4  2  0  0  0  0
  3 11  1  0  0  0  0
  4  5  1  0  0  0  0
  4 24  1  0  0  0  0
  5  6  2  0  0  0  0
  5 10  1  0  0  0  0
  6  7  1  0  0  0  0
  7  8  2  0  0  0  0
  7 25  1  0  0  0  0
  8  9  1  0  0  0  0
  8 26  1  0  0  0  0
  9 10  2  0  0  0  0
  9 27  1  0  0  0  0
 10 28  1  0  0  0  0
 11 12  2  0  0  0  0
 11 13  2  0  0  0  0
 11 17  1  0  0  0  0
 14 15  1  0  0  0  0
 14 16  1  0  0  0  0
 14 29  1  0  0  0  0
 14 30  1  0  0  0  0
 15 20  1  0  0  0  0
 16 17  1  0  0  0  0
 16 31  1  0  0  0  0
 16 32  1  0  0  0  0
 17 33  1  0  0  0  0
 18 20  2  0  0  0  0
 19 20  1  0  0  0  0
 19 34  1  0  0  0  0
 20 21  1  0  0  0  0
 21 35  1  0  0  0  0
M  END
>  <DRUGBANK_ID>
DB07732

>  <COMMON_NAME>
2-[(2-NAPHTHYLSULFONYL)AMINO]ETHYL DIHYDROGEN PHOSPHATE

$$$$
