
 OpenBabel10282417153D

 11 10  0  0  0  0  0  0  0  0999 V2000
    0.9624   -0.0927    0.0351 N   0  0  0  0  0  0  0  0  0  0  0  0
    0.3140   -1.2636    0.2802 C   0  0  0  0  0  0  0  0  0  0  0  0
   -1.0302   -1.2993    0.2038 N   0  0  0  0  0  0  0  0  0  0  0  0
    1.0067   -2.3289    0.5244 N   0  0  0  0  0  0  0  0  0  0  0  0
    0.3410    1.1518   -0.1307 N   0  0  0  0  0  0  0  0  0  0  0  0
    1.9761   -0.1437    0.1397 H   0  0  0  0  0  0  0  0  0  0  0  0
   -1.5255   -2.1276    0.5005 H   0  0  0  0  0  0  0  0  0  0  0  0
   -1.5661   -0.4490    0.2379 H   0  0  0  0  0  0  0  0  0  0  0  0
    0.3765   -3.1189    0.6529 H   0  0  0  0  0  0  0  0  0  0  0  0
    0.5969    1.5270   -1.0476 H   0  0  0  0  0  0  0  0  0  0  0  0
   -0.6704    1.0787   -0.1541 H   0  0  0  0  0  0  0  0  0  0  0  0
  1  2  1  0  0  0  0
  1  5  1  0  0  0  0
  1  6  1  0  0  0  0
  2  3  1  0  0  0  0
  2  4  2  0  0  0  0
  3  7  1  0  0  0  0
  3  8  1  0  0  0  0
  4  9  1  0  0  0  0
  5 10  1  0  0  0  0
  5 11  1  0  0  0  0
M  END
>  <DRUGBANK_ID>
DB05383

>  <SECONDARY_ACCESSION_NUMBERS>
EXPT00459; DB02533

>  <COMMON_NAME>
Pimagedine

>  <CAS_NUMBER>
79-17-4

>  <UNII>
SCQ4EZQ113

>  <SYNONYMS>
Aminate base; Aminoguanidine; Guanyl hydrazine; Hydrazinecarboximidamide; Monoaminoguanidine; Pimagedine

$$$$
