
 OpenBabel10282417153D

 38 40  0  0  1  0  0  0  0  0999 V2000
    7.1856    2.8409    6.1892 C   0  0  0  0  0  0  0  0  0  0  0  0
    5.1543    3.0240    2.3654 C   0  0  0  0  0  0  0  0  0  0  0  0
    5.7742    3.0147    3.6062 C   0  0  0  0  0  0  0  0  0  0  0  0
    8.8325    4.3801    5.1355 C   0  0  0  0  0  0  0  0  0  0  0  0
    6.7435    4.6332    1.5393 C   0  0  0  0  0  0  0  0  0  0  0  0
    2.9375    5.4855   -1.6892 C   0  0  0  0  0  0  0  0  0  0  0  0
    7.6897    3.6881    5.0590 C   0  0  0  0  0  0  0  0  0  0  0  0
    5.6141    3.8474    1.3346 C   0  0  0  0  0  0  0  0  0  0  0  0
    6.9356    3.7510    3.8091 C   0  0  0  0  0  0  0  0  0  0  0  0
    2.0947    6.0568   -0.5384 C   0  0  2  0  0  0  0  0  0  0  0  0
    7.4039    4.5499    2.7634 C   0  0  0  0  0  0  0  0  0  0  0  0
    9.3581    5.2130    4.0378 C   0  0  0  0  0  0  0  0  0  0  0  0
    2.6459    5.6896    0.8389 C   0  0  1  0  0  0  0  0  0  0  0  0
    2.6856    4.1585    1.0503 C   0  0  2  0  0  0  0  0  0  0  0  0
    3.6509    3.4600    0.0503 C   0  0  2  0  0  0  0  0  0  0  0  0
    0.7395    5.6053   -0.6294 O   0  0  0  0  0  0  0  0  0  0  0  0
   10.4202    5.7984    4.1556 O   0  0  0  0  0  0  0  0  0  0  0  0
    3.9217    6.3222    1.0153 O   0  0  0  0  0  0  0  0  0  0  0  0
    1.4082    3.5086    1.0741 O   0  0  0  0  0  0  0  0  0  0  0  0
    4.9824    3.9996    0.1252 O   0  0  0  0  0  0  0  0  0  0  0  0
    8.5870    5.2974    2.8893 O   0  0  0  0  0  0  0  0  0  0  0  0
    2.9972    3.6683   -1.6574 S   0  0  0  0  0  0  0  0  0  0  0  0
    2.0951    7.1491   -0.6285 H   0  0  0  0  0  0  0  0  0  0  0  0
    1.9984    6.1063    1.6181 H   0  0  0  0  0  0  0  0  0  0  0  0
    3.0343    4.0467    2.0745 H   0  0  0  0  0  0  0  0  0  0  0  0
    3.6882    2.3728    0.1833 H   0  0  0  0  0  0  0  0  0  0  0  0
    6.2045    3.1924    6.5277 H   0  0  0  0  0  0  0  0  0  0  0  0
    7.0957    1.7923    5.8824 H   0  0  0  0  0  0  0  0  0  0  0  0
    7.8607    2.8710    7.0493 H   0  0  0  0  0  0  0  0  0  0  0  0
    4.2698    2.4014    2.2710 H   0  0  0  0  0  0  0  0  0  0  0  0
    5.3264    2.4058    4.3860 H   0  0  0  0  0  0  0  0  0  0  0  0
    9.4487    4.3625    6.0256 H   0  0  0  0  0  0  0  0  0  0  0  0
    7.1066    5.3117    0.7718 H   0  0  0  0  0  0  0  0  0  0  0  0
    2.4888    5.7670   -2.6455 H   0  0  0  0  0  0  0  0  0  0  0  0
    3.9634    5.8649   -1.6766 H   0  0  0  0  0  0  0  0  0  0  0  0
    0.6053    5.2165   -1.5112 H   0  0  0  0  0  0  0  0  0  0  0  0
    4.5707    5.9053    0.4159 H   0  0  0  0  0  0  0  0  0  0  0  0
    0.9568    3.7012    0.2309 H   0  0  0  0  0  0  0  0  0  0  0  0
  1 27  1  0  0  0  0
  1 28  1  0  0  0  0
  1 29  1  0  0  0  0
  2 30  1  0  0  0  0
  3  2  2  0  0  0  0
  3 31  1  0  0  0  0
  4 32  1  0  0  0  0
  5 33  1  0  0  0  0
  6 34  1  0  0  0  0
  6 35  1  0  0  0  0
  7  1  1  0  0  0  0
  7  4  2  0  0  0  0
  8  2  1  0  0  0  0
  8  5  2  0  0  0  0
  9  3  1  0  0  0  0
  9  7  1  0  0  0  0
 10  6  1  0  0  0  0
 10 23  1  6  0  0  0
 10 16  1  0  0  0  0
 11  5  1  0  0  0  0
 11  9  2  0  0  0  0
 12  4  1  0  0  0  0
 13 10  1  0  0  0  0
 13 18  1  0  0  0  0
 13 24  1  1  0  0  0
 14 13  1  0  0  0  0
 14 25  1  1  0  0  0
 14 19  1  0  0  0  0
 15 14  1  0  0  0  0
 15 26  1  1  0  0  0
 15 20  1  0  0  0  0
 16 36  1  0  0  0  0
 17 12  2  0  0  0  0
 18 37  1  0  0  0  0
 19 38  1  0  0  0  0
 20  8  1  0  0  0  0
 21 11  1  0  0  0  0
 21 12  1  0  0  0  0
 22  6  1  0  0  0  0
 22 15  1  0  0  0  0
M  END
>  <DRUGBANK_ID>
DB06609

>  <COMMON_NAME>
Odiparcil

>  <CAS_NUMBER>
137215-12-4

>  <UNII>
FIK1414ZI8

>  <SYNONYMS>
Odiparcil

$$$$
