
 OpenBabel10282417243D

142146  0  0  1  0  0  0  0  0999 V2000
  -10.1735   -4.8643   -4.9648 C   0  0  0  0  0  0  0  0  0  0  0  0
   -8.5159   -3.8476   -3.1857 C   0  0  0  0  0  0  0  0  0  0  0  0
   -9.8303   -5.7155   -3.7705 C   0  0  0  0  0  0  0  0  0  0  0  0
   -6.5597   -2.6106   -1.6816 C   0  0  0  0  0  0  0  0  0  0  0  0
   -4.2601   -1.2825   -0.3900 N   0  0  0  0  0  0  0  0  0  0  0  0
   -2.3842   -0.0427    0.7196 C   0  0  0  0  0  0  0  0  0  0  0  0
   -1.4339    1.3053    1.6805 O   0  0  0  0  0  0  0  0  0  0  0  0
   -0.2142    0.5809    2.1680 C   0  0  2  0  0  0  0  0  0  0  0  0
    1.4435    0.7883    1.5568 C   0  0  0  0  0  0  0  0  0  0  0  0
    1.3575    1.9838    0.7098 C   0  0  0  0  0  0  0  0  0  0  0  0
    2.4685    2.9402    1.0521 C   0  0  0  0  0  0  0  0  0  0  0  0
    3.8089    2.2837    0.8053 C   0  0  0  0  0  0  0  0  0  0  0  0
    3.9241    1.8973   -0.5960 N   0  0  0  0  0  0  0  0  0  0  0  0
   -0.0194    0.1715    3.5475 N   0  0  0  0  0  0  0  0  0  0  0  0
   -0.8030   -0.5146    2.6316 C   0  0  0  0  0  0  0  0  0  0  0  0
   -0.6289   -0.6397    1.3152 O   0  0  0  0  0  0  0  0  0  0  0  0
   -2.1188   -0.9368    3.0653 C   0  0  0  0  0  0  0  0  0  0  0  0
   -2.2003   -0.7269    4.5016 C   0  0  0  0  0  0  0  0  0  0  0  0
   -3.4351   -1.0122    5.0112 C   0  0  0  0  0  0  0  0  0  0  0  0
   -3.7950   -1.2201    6.6180 C   0  0  0  0  0  0  0  0  0  0  0  0
   -5.4393   -1.9958    6.6327 N   0  0  0  0  0  0  0  0  0  0  0  0
   -5.8742   -2.5067    5.0626 C   0  0  0  0  0  0  0  0  0  0  0  0
   -7.1516   -2.7041    4.5074 C   0  0  0  0  0  0  0  0  0  0  0  0
   -7.2965   -2.6021    3.1171 C   0  0  0  0  0  0  0  0  0  0  0  0
   -6.1514   -2.2545    2.2899 C   0  0  0  0  0  0  0  0  0  0  0  0
   -4.9388   -1.2523    2.8343 C   0  0  0  0  0  0  0  0  0  0  0  0
   -4.4002   -1.5804    4.1596 C   0  0  0  0  0  0  0  0  0  0  0  0
   -3.0877   -0.1269    2.3506 N   0  0  0  0  0  0  0  0  0  0  0  0
   -4.0878   -1.1737    1.2988 C   0  0  0  0  0  0  0  0  0  0  0  0
   -3.9555   -2.3934    1.2967 O   0  0  0  0  0  0  0  0  0  0  0  0
   -5.3391   -0.1380    0.8777 C   0  0  2  0  0  0  0  0  0  0  0  0
   -6.9207   -0.5029    1.5755 C   0  0  0  0  0  0  0  0  0  0  0  0
   -6.9017   -0.3278    2.8962 C   0  0  0  0  0  0  0  0  0  0  0  0
   -7.7669    0.2487    3.5032 C   0  0  0  0  0  0  0  0  0  0  0  0
   -7.6216    0.3697    4.8547 C   0  0  0  0  0  0  0  0  0  0  0  0
   -6.6866   -0.1882    5.6861 C   0  0  0  0  0  0  0  0  0  0  0  0
   -6.5449   -0.0965    6.9782 O   0  0  0  0  0  0  0  0  0  0  0  0
   -5.6346   -0.7000    5.1121 C   0  0  0  0  0  0  0  0  0  0  0  0
   -3.9395   -3.3360    5.5197 I   0  0  0  0  0  0  0  0  0  0  0  0
   -6.2437   -1.0021    3.8856 C   0  0  0  0  0  0  0  0  0  0  0  0
   -5.3419   -0.1145   -0.9175 N   0  0  0  0  0  0  0  0  0  0  0  0
   -6.1649   -0.7160   -1.6970 C   0  0  0  0  0  0  0  0  0  0  0  0
   -7.3341   -1.3809   -1.3586 O   0  0  0  0  0  0  0  0  0  0  0  0
   -5.9288   -0.7036   -3.0941 C   0  0  0  0  0  0  0  0  0  0  0  0
   -5.9321   -2.8636   -3.4917 C   0  0  0  0  0  0  0  0  0  0  0  0
   -6.8078   -4.2524   -2.5867 S   0  0  0  0  0  0  0  0  0  0  0  0
   -7.9879   -3.7869   -0.2785 S   0  0  0  0  0  0  0  0  0  0  0  0
   -9.5969   -4.0100   -0.0350 C   0  0  0  0  0  0  0  0  0  0  0  0
  -10.6735   -3.1963   -0.6183 C   0  0  0  0  0  0  0  0  0  0  0  0
  -10.5393   -3.1349   -1.9884 N   0  0  0  0  0  0  0  0  0  0  0  0
   -8.7835   -3.4001   -2.1655 C   0  0  0  0  0  0  0  0  0  0  0  0
  -10.4573   -3.8725   -2.3245 O   0  0  0  0  0  0  0  0  0  0  0  0
  -10.6625   -1.7397   -0.3591 C   0  0  0  0  0  0  0  0  0  0  0  0
  -11.6215   -1.2515    0.2160 O   0  0  0  0  0  0  0  0  0  0  0  0
   -9.6626   -0.9058   -0.6523 N   0  0  0  0  0  0  0  0  0  0  0  0
   -8.7808   -1.2582   -1.3917 C   0  0  1  0  0  0  0  0  0  0  0  0
   -8.3319   -0.8170   -2.7832 C   0  0  1  0  0  0  0  0  0  0  0  0
   -8.0419    0.5297   -2.4210 C   0  0  0  0  0  0  0  0  0  0  0  0
   -7.3249   -1.6841   -3.6025 O   0  0  0  0  0  0  0  0  0  0  0  0
   -6.9698   -1.1854   -0.0172 C   0  0  0  0  0  0  0  0  0  0  0  0
   -6.1098   -2.7100    0.0357 N   0  0  0  0  0  0  0  0  0  0  0  0
   -6.8981    0.1198   -0.1946 O   0  0  0  0  0  0  0  0  0  0  0  0
   -4.7707   -0.5492   -3.4540 N   0  0  0  0  0  0  0  0  0  0  0  0
   -4.8560    0.4656   -4.3302 C   0  0  0  0  0  0  0  0  0  0  0  0
   -3.8034    0.9602   -4.6836 O   0  0  0  0  0  0  0  0  0  0  0  0
   -6.1604    1.0651   -4.9250 C   0  0  2  0  0  0  0  0  0  0  0  0
   -5.8327    1.9690   -6.0077 N   0  0  0  0  0  0  0  0  0  0  0  0
   -6.8264    1.9460   -3.9424 C   0  0  0  0  0  0  0  0  0  0  0  0
   -8.2084    2.4435   -4.4475 C   0  0  0  0  0  0  0  0  0  0  0  0
   -9.2532    1.6039   -4.9122 C   0  0  0  0  0  0  0  0  0  0  0  0
  -10.3978    2.1624   -5.4244 C   0  0  0  0  0  0  0  0  0  0  0  0
  -10.5284    3.5423   -5.5260 C   0  0  0  0  0  0  0  0  0  0  0  0
  -11.6803    4.0765   -6.0607 N   0  0  0  0  0  0  0  0  0  0  0  0
   -9.4855    4.3486   -5.0696 C   0  0  0  0  0  0  0  0  0  0  0  0
   -9.5630    6.4290   -5.2419 I   0  0  0  0  0  0  0  0  0  0  0  0
   -8.3505    3.7963   -4.5177 C   0  0  0  0  0  0  0  0  0  0  0  0
  -10.3278   -5.3171   -6.5472 H   0  0  0  0  0  0  0  0  0  0  0  0
  -11.5662   -5.1576   -6.1407 H   0  0  0  0  0  0  0  0  0  0  0  0
  -10.9826   -6.2116   -5.9541 H   0  0  0  0  0  0  0  0  0  0  0  0
  -10.1233   -4.6038   -3.6162 H   0  0  0  0  0  0  0  0  0  0  0  0
   -9.2430   -6.0655   -4.5298 H   0  0  0  0  0  0  0  0  0  0  0  0
  -10.4330   -6.3043   -3.0316 H   0  0  0  0  0  0  0  0  0  0  0  0
  -10.2912   -7.2482   -4.3593 H   0  0  0  0  0  0  0  0  0  0  0  0
   -7.9074   -2.4914   -2.5987 H   0  0  0  0  0  0  0  0  0  0  0  0
   -3.1506   -0.4624    0.5782 H   0  0  0  0  0  0  0  0  0  0  0  0
    1.4506    0.4823    3.1644 H   0  0  0  0  0  0  0  0  0  0  0  0
    2.4037    0.2453    1.4276 H   0  0  0  0  0  0  0  0  0  0  0  0
    0.8503    0.0502    1.2457 H   0  0  0  0  0  0  0  0  0  0  0  0
    1.4163    1.6959   -0.3301 H   0  0  0  0  0  0  0  0  0  0  0  0
    0.4028    2.4647    0.8610 H   0  0  0  0  0  0  0  0  0  0  0  0
    2.3830    3.8308    0.4384 H   0  0  0  0  0  0  0  0  0  0  0  0
    2.3878    3.2352    2.0956 H   0  0  0  0  0  0  0  0  0  0  0  0
    4.6049    2.9686    1.0643 H   0  0  0  0  0  0  0  0  0  0  0  0
    3.9025    1.4053    1.4376 H   0  0  0  0  0  0  0  0  0  0  0  0
    4.8174    1.4414   -0.7585 H   0  0  0  0  0  0  0  0  0  0  0  0
    3.1782    1.2403   -0.8334 H   0  0  0  0  0  0  0  0  0  0  0  0
   -0.1847    0.3357    4.5356 H   0  0  0  0  0  0  0  0  0  0  0  0
   -2.1754   -1.9769    2.7644 H   0  0  0  0  0  0  0  0  0  0  0  0
   -1.4510   -1.2797    5.0204 H   0  0  0  0  0  0  0  0  0  0  0  0
   -2.2426    0.2931    4.7886 H   0  0  0  0  0  0  0  0  0  0  0  0
   -3.0923   -1.8709    7.1948 H   0  0  0  0  0  0  0  0  0  0  0  0
   -5.7412   -2.6562    7.2716 H   0  0  0  0  0  0  0  0  0  0  0  0
   -7.8556   -2.9045    5.1789 H   0  0  0  0  0  0  0  0  0  0  0  0
   -8.2181   -2.5967    2.6898 H   0  0  0  0  0  0  0  0  0  0  0  0
   -5.9454   -1.7896    1.4547 H   0  0  0  0  0  0  0  0  0  0  0  0
   -4.2147   -0.8509    2.7372 H   0  0  0  0  0  0  0  0  0  0  0  0
   -3.4248    0.8024    2.5264 H   0  0  0  0  0  0  0  0  0  0  0  0
   -5.3082    0.8345    1.1021 H   0  0  0  0  0  0  0  0  0  0  0  0
   -7.7487   -0.2667    0.9992 H   0  0  0  0  0  0  0  0  0  0  0  0
   -7.2669   -2.0173    1.1376 H   0  0  0  0  0  0  0  0  0  0  0  0
   -8.4419    0.6516    2.8514 H   0  0  0  0  0  0  0  0  0  0  0  0
   -8.3028    0.9930    5.2972 H   0  0  0  0  0  0  0  0  0  0  0  0
   -7.1891    0.4556    7.3935 H   0  0  0  0  0  0  0  0  0  0  0  0
   -5.3534   -2.4655    3.4557 H   0  0  0  0  0  0  0  0  0  0  0  0
   -4.3870   -0.0565   -1.1257 H   0  0  0  0  0  0  0  0  0  0  0  0
   -6.8199   -0.2791   -3.4951 H   0  0  0  0  0  0  0  0  0  0  0  0
   -5.2845   -3.2450   -2.7972 H   0  0  0  0  0  0  0  0  0  0  0  0
   -6.0899   -2.8648   -4.4534 H   0  0  0  0  0  0  0  0  0  0  0  0
   -9.6076   -3.8663    1.0092 H   0  0  0  0  0  0  0  0  0  0  0  0
   -9.5467   -5.0306   -0.3263 H   0  0  0  0  0  0  0  0  0  0  0  0
  -11.6092   -3.6861   -0.4106 H   0  0  0  0  0  0  0  0  0  0  0  0
   -9.9362   -2.8889   -2.7325 H   0  0  0  0  0  0  0  0  0  0  0  0
   -9.4724    0.0363   -0.4695 H   0  0  0  0  0  0  0  0  0  0  0  0
   -8.6223   -2.2045   -1.4430 H   0  0  0  0  0  0  0  0  0  0  0  0
   -9.0581   -0.9574   -3.4176 H   0  0  0  0  0  0  0  0  0  0  0  0
   -7.0440    0.7525   -1.8541 H   0  0  0  0  0  0  0  0  0  0  0  0
   -8.0660    0.8726   -3.4580 H   0  0  0  0  0  0  0  0  0  0  0  0
   -8.7317    1.0927   -1.9653 H   0  0  0  0  0  0  0  0  0  0  0  0
   -6.3612   -1.8567   -2.7666 H   0  0  0  0  0  0  0  0  0  0  0  0
   -5.3288   -2.5901    0.4837 H   0  0  0  0  0  0  0  0  0  0  0  0
   -6.6016   -3.5697   -0.3128 H   0  0  0  0  0  0  0  0  0  0  0  0
   -4.0141   -1.0032   -2.9850 H   0  0  0  0  0  0  0  0  0  0  0  0
   -6.8015    0.2604   -5.3008 H   0  0  0  0  0  0  0  0  0  0  0  0
   -5.4728    2.8510   -5.6253 H   0  0  0  0  0  0  0  0  0  0  0  0
   -6.7100    2.1554   -6.4831 H   0  0  0  0  0  0  0  0  0  0  0  0
   -6.7693    1.3957   -3.0680 H   0  0  0  0  0  0  0  0  0  0  0  0
   -6.2898    2.6562   -3.4283 H   0  0  0  0  0  0  0  0  0  0  0  0
   -9.1696    0.5203   -4.8710 H   0  0  0  0  0  0  0  0  0  0  0  0
  -11.1912    1.5142   -5.7551 H   0  0  0  0  0  0  0  0  0  0  0  0
  -11.7733    5.0844   -6.1197 H   0  0  0  0  0  0  0  0  0  0  0  0
  -12.4171    3.4694   -6.3847 H   0  0  0  0  0  0  0  0  0  0  0  0
   -7.5561    4.4235   -4.1636 H   0  0  0  0  0  0  0  0  0  0  0  0
  1  2  1  0  0  0  0
  1 77  1  0  0  0  0
  1 78  1  0  0  0  0
  1 79  1  0  0  0  0
  2  3  1  0  0  0  0
  2 80  1  0  0  0  0
  3 81  1  0  0  0  0
  3 82  1  0  0  0  0
  3 83  1  0  0  0  0
  4  2  1  0  0  0  0
  4  5  1  0  0  0  0
  4 51  1  0  0  0  0
  4 84  1  0  0  0  0
  5  6  1  0  0  0  0
  5 85  1  0  0  0  0
  6  7  2  0  0  0  0
  8  6  1  0  0  0  0
  8 14  1  0  0  0  0
  8 86  1  1  0  0  0
  8  9  1  0  0  0  0
  9 10  1  0  0  0  0
  9 87  1  0  0  0  0
  9 88  1  0  0  0  0
 10 11  1  0  0  0  0
 10 89  1  0  0  0  0
 10 90  1  0  0  0  0
 11 12  1  0  0  0  0
 11 91  1  0  0  0  0
 11 92  1  0  0  0  0
 12 13  1  0  0  0  0
 12 93  1  0  0  0  0
 12 94  1  0  0  0  0
 13 95  1  0  0  0  0
 13 96  1  0  0  0  0
 14 15  1  0  0  0  0
 14 97  1  0  0  0  0
 15 16  2  0  0  0  0
 17 15  1  0  0  0  0
 17 18  1  0  0  0  0
 17 28  1  0  0  0  0
 17 98  1  0  0  0  0
 18 19  1  0  0  0  0
 18 99  1  0  0  0  0
 18100  1  0  0  0  0
 19 20  2  0  0  0  0
 19 27  1  0  0  0  0
 20 21  1  0  0  0  0
 20101  1  0  0  0  0
 21 22  1  0  0  0  0
 21102  1  0  0  0  0
 22 23  2  0  0  0  0
 22 27  1  0  0  0  0
 23 24  1  0  0  0  0
 23103  1  0  0  0  0
 24 25  2  0  0  0  0
 24104  1  0  0  0  0
 25 26  1  0  0  0  0
 25105  1  0  0  0  0
 26 27  2  0  0  0  0
 26106  1  0  0  0  0
 28 29  1  0  0  0  0
 28107  1  0  0  0  0
 29 30  2  0  0  0  0
 31 29  1  0  0  0  0
 31 41  1  0  0  0  0
 31108  1  1  0  0  0
 31 32  1  0  0  0  0
 32 33  1  0  0  0  0
 32109  1  0  0  0  0
 32110  1  0  0  0  0
 33 34  2  0  0  0  0
 33 40  1  0  0  0  0
 34 35  1  0  0  0  0
 34111  1  0  0  0  0
 35 36  2  0  0  0  0
 35112  1  0  0  0  0
 36 37  1  0  0  0  0
 36 38  1  0  0  0  0
 37113  1  0  0  0  0
 38 39  1  0  0  0  0
 38 40  2  0  0  0  0
 40114  1  0  0  0  0
 41 42  1  0  0  0  0
 41115  1  0  0  0  0
 42 43  2  0  0  0  0
 44 42  1  0  0  0  0
 44 45  1  0  0  0  0
 44 63  1  0  0  0  0
 44116  1  0  0  0  0
 45 46  1  0  0  0  0
 45117  1  0  0  0  0
 45118  1  0  0  0  0
 46 47  1  0  0  0  0
 47 48  1  0  0  0  0
 48119  1  0  0  0  0
 48120  1  0  0  0  0
 49 48  1  0  0  0  0
 49 50  1  0  0  0  0
 49 53  1  0  0  0  0
 49121  1  0  0  0  0
 50 51  1  0  0  0  0
 50122  1  0  0  0  0
 51 52  2  0  0  0  0
 53 54  2  0  0  0  0
 53 55  1  0  0  0  0
 55123  1  0  0  0  0
 56 55  1  0  0  0  0
 56 57  1  0  0  0  0
 56 60  1  0  0  0  0
 56124  1  6  0  0  0
 57 58  1  0  0  0  0
 57 59  1  0  0  0  0
 57125  1  6  0  0  0
 58126  1  0  0  0  0
 58127  1  0  0  0  0
 58128  1  0  0  0  0
 59129  1  0  0  0  0
 60 61  1  0  0  0  0
 60 62  2  0  0  0  0
 61130  1  0  0  0  0
 61131  1  0  0  0  0
 63 64  1  0  0  0  0
 63132  1  0  0  0  0
 64 65  2  0  0  0  0
 66 68  1  0  0  0  0
 66133  1  6  0  0  0
 66 67  1  0  0  0  0
 66 64  1  0  0  0  0
 67134  1  0  0  0  0
 67135  1  0  0  0  0
 68 69  1  0  0  0  0
 68136  1  0  0  0  0
 68137  1  0  0  0  0
 69 70  2  0  0  0  0
 69 76  1  0  0  0  0
 70 71  1  0  0  0  0
 70138  1  0  0  0  0
 71 72  2  0  0  0  0
 71139  1  0  0  0  0
 72 73  1  0  0  0  0
 72 74  1  0  0  0  0
 73140  1  0  0  0  0
 73141  1  0  0  0  0
 74 75  1  0  0  0  0
 74 76  2  0  0  0  0
 76142  1  0  0  0  0
M  END
>  <DRUGBANK_ID>
DB18206

>  <COMMON_NAME>
AP-102

>  <CAS_NUMBER>
846569-60-6

>  <UNII>
EW91FWW4HC

>  <SYNONYMS>
H-(4-amino-3-iodo)-d-phe-c(cys-(3-iodo)-tyr-d-trp-lys-val-cys)-thr-nh2; H-(4-amino-3-iodo)-D-Phe-c[Cys-(3-iodo)-Tyr-D-Trp-Lys-Val-Cys]-Thr-NH2; L-threoninamide, 4-amino-3-iodo-d-phenylalanyl-l-cysteinyl-3-iodo-l-tyrosyl-d-tryptophyl-l-lysyl-l-valyl-l-cysteinyl-, cyclic (2->7)-disulfide

$$$$
