
 OpenBabel10282417143D

 30 29  0  0  1  0  0  0  0  0999 V2000
   -5.1812   -7.7076    4.8239 N   0  0  0  0  0  0  0  0  0  0  0  0
   -5.6523   -7.4627    3.4646 C   0  0  0  0  0  0  0  0  0  0  0  0
   -5.0961   -6.1394    2.9336 C   0  0  0  0  0  0  0  0  0  0  0  0
   -3.5696   -6.1486    2.8795 C   0  0  0  0  0  0  0  0  0  0  0  0
   -3.0693   -7.2880    1.9983 C   0  0  0  0  0  0  0  0  0  0  0  0
   -3.5414   -7.1314    0.5506 C   0  0  0  0  0  0  0  0  0  0  0  0
   -2.9682   -5.8661   -0.0902 C   0  0  0  0  0  0  0  0  0  0  0  0
   -1.4291   -5.8479   -0.0760 C   0  0  2  0  0  0  0  0  0  0  0  0
   -0.9687   -5.0386   -1.2119 N   0  0  0  0  0  0  0  0  0  0  0  0
   -0.8224   -7.2719   -0.1797 C   0  0  0  0  0  0  0  0  0  0  0  0
   -0.0330   -7.6339    0.8601 O   0  0  0  0  0  0  0  0  0  0  0  0
   -1.0251   -8.0402   -1.1170 O   0  0  0  0  0  0  0  0  0  0  0  0
   -4.1620   -7.7591    4.8324 H   0  0  0  0  0  0  0  0  0  0  0  0
   -5.4147   -6.8995    5.3994 H   0  0  0  0  0  0  0  0  0  0  0  0
   -5.3659   -8.3059    2.8256 H   0  0  0  0  0  0  0  0  0  0  0  0
   -6.7435   -7.4393    3.4496 H   0  0  0  0  0  0  0  0  0  0  0  0
   -5.5103   -5.9485    1.9363 H   0  0  0  0  0  0  0  0  0  0  0  0
   -5.4323   -5.3003    3.5500 H   0  0  0  0  0  0  0  0  0  0  0  0
   -3.2004   -5.1822    2.5189 H   0  0  0  0  0  0  0  0  0  0  0  0
   -3.1341   -6.2486    3.8791 H   0  0  0  0  0  0  0  0  0  0  0  0
   -1.9872   -7.3009    2.0871 H   0  0  0  0  0  0  0  0  0  0  0  0
   -3.3666   -8.2720    2.3724 H   0  0  0  0  0  0  0  0  0  0  0  0
   -3.2577   -8.0131   -0.0325 H   0  0  0  0  0  0  0  0  0  0  0  0
   -4.6341   -7.1194    0.4803 H   0  0  0  0  0  0  0  0  0  0  0  0
   -3.3646   -5.7806   -1.1091 H   0  0  0  0  0  0  0  0  0  0  0  0
   -3.3495   -4.9697    0.4219 H   0  0  0  0  0  0  0  0  0  0  0  0
   -1.0784   -5.3783    0.8534 H   0  0  0  0  0  0  0  0  0  0  0  0
   -0.1571   -5.4845   -1.6413 H   0  0  0  0  0  0  0  0  0  0  0  0
   -0.6986   -4.1050   -0.9190 H   0  0  0  0  0  0  0  0  0  0  0  0
    0.0310   -6.9952    1.5953 H   0  0  0  0  0  0  0  0  0  0  0  0
  1  2  1  0  0  0  0
  1 13  1  0  0  0  0
  1 14  1  0  0  0  0
  2  3  1  0  0  0  0
  2 15  1  0  0  0  0
  2 16  1  0  0  0  0
  3  4  1  0  0  0  0
  3 17  1  0  0  0  0
  3 18  1  0  0  0  0
  4  5  1  0  0  0  0
  4 19  1  0  0  0  0
  4 20  1  0  0  0  0
  5  6  1  0  0  0  0
  5 21  1  0  0  0  0
  5 22  1  0  0  0  0
  6  7  1  0  0  0  0
  6 23  1  0  0  0  0
  6 24  1  0  0  0  0
  7 25  1  0  0  0  0
  7 26  1  0  0  0  0
  8 10  1  0  0  0  0
  8 27  1  1  0  0  0
  8  9  1  0  0  0  0
  8  7  1  0  0  0  0
  9 28  1  0  0  0  0
  9 29  1  0  0  0  0
 10 11  1  0  0  0  0
 10 12  2  0  0  0  0
 11 30  1  0  0  0  0
M  END
>  <DRUGBANK_ID>
DB04486

>  <SECONDARY_ACCESSION_NUMBERS>
EXPT01745

>  <COMMON_NAME>
(2s)-2,8-Diaminooctanoic Acid

$$$$
