
 OpenBabel10282417123D

 45 48  0  0  0  0  0  0  0  0999 V2000
    0.9230    0.0488   -0.0260 C   0  0  0  0  0  0  0  0  0  0  0  0
    0.2986    0.3222   -1.7157 S   0  0  0  0  0  0  0  0  0  0  0  0
    0.8726    1.9841   -2.0309 C   0  0  0  0  0  0  0  0  0  0  0  0
    0.0388    3.0744   -1.7933 C   0  0  0  0  0  0  0  0  0  0  0  0
    0.4779    4.3723   -2.0700 C   0  0  0  0  0  0  0  0  0  0  0  0
    1.7694    4.5938   -2.5535 C   0  0  0  0  0  0  0  0  0  0  0  0
    2.6425    3.5207   -2.7498 C   0  0  0  0  0  0  0  0  0  0  0  0
    3.9663    3.7763   -3.1845 N   0  0  0  0  0  0  0  0  0  0  0  0
    4.9368    2.7773   -3.2616 C   0  0  0  0  0  0  0  0  0  0  0  0
    5.9412    2.7460   -2.3688 N   0  0  0  0  0  0  0  0  0  0  0  0
    6.7792    1.6913   -2.4544 C   0  0  0  0  0  0  0  0  0  0  0  0
    6.6706    0.7147   -3.4211 C   0  0  0  0  0  0  0  0  0  0  0  0
    7.6006   -0.3829   -3.5502 C   0  0  0  0  0  0  0  0  0  0  0  0
    7.4075   -1.3035   -4.5106 C   0  0  0  0  0  0  0  0  0  0  0  0
    6.2526   -1.2060   -5.4569 C   0  0  0  0  0  0  0  0  0  0  0  0
    6.0796   -2.0884   -6.3066 O   0  0  0  0  0  0  0  0  0  0  0  0
    5.4297   -0.1110   -5.3222 N   0  0  0  0  0  0  0  0  0  0  0  0
    4.3117    0.0644   -6.2328 C   0  0  0  0  0  0  0  0  0  0  0  0
    5.6199    0.8509   -4.3025 C   0  0  0  0  0  0  0  0  0  0  0  0
    4.7576    1.8645   -4.2229 N   0  0  0  0  0  0  0  0  0  0  0  0
    8.3954   -2.3833   -4.6363 C   0  0  0  0  0  0  0  0  0  0  0  0
    9.1948   -2.4946   -5.7899 C   0  0  0  0  0  0  0  0  0  0  0  0
    9.0402   -1.4368   -7.1560 Cl  0  0  0  0  0  0  0  0  0  0  0  0
   10.2008   -3.4577   -5.8581 C   0  0  0  0  0  0  0  0  0  0  0  0
   10.4538   -4.2853   -4.7670 C   0  0  0  0  0  0  0  0  0  0  0  0
    9.6833   -4.1754   -3.6131 C   0  0  0  0  0  0  0  0  0  0  0  0
    8.6194   -3.2769   -3.5710 C   0  0  0  0  0  0  0  0  0  0  0  0
    7.5894   -3.3416   -2.1749 Cl  0  0  0  0  0  0  0  0  0  0  0  0
    2.1420    2.2143   -2.5680 C   0  0  0  0  0  0  0  0  0  0  0  0
    0.5784   -0.9334    0.3159 H   0  0  0  0  0  0  0  0  0  0  0  0
    0.5414    0.7987    0.6733 H   0  0  0  0  0  0  0  0  0  0  0  0
    2.0164    0.0484   -0.0002 H   0  0  0  0  0  0  0  0  0  0  0  0
   -0.9674    2.9200   -1.4141 H   0  0  0  0  0  0  0  0  0  0  0  0
   -0.1870    5.2145   -1.8990 H   0  0  0  0  0  0  0  0  0  0  0  0
    2.0874    5.6100   -2.7748 H   0  0  0  0  0  0  0  0  0  0  0  0
    4.3626    4.6157   -2.7840 H   0  0  0  0  0  0  0  0  0  0  0  0
    7.5658    1.6509   -1.7026 H   0  0  0  0  0  0  0  0  0  0  0  0
    8.4371   -0.4315   -2.8598 H   0  0  0  0  0  0  0  0  0  0  0  0
    3.3725    0.0195   -5.6733 H   0  0  0  0  0  0  0  0  0  0  0  0
    4.4031    1.0246   -6.7503 H   0  0  0  0  0  0  0  0  0  0  0  0
    4.2915   -0.7234   -6.9919 H   0  0  0  0  0  0  0  0  0  0  0  0
   10.8062   -3.5463   -6.7566 H   0  0  0  0  0  0  0  0  0  0  0  0
   11.2460   -5.0259   -4.8215 H   0  0  0  0  0  0  0  0  0  0  0  0
    9.9098   -4.7951   -2.7493 H   0  0  0  0  0  0  0  0  0  0  0  0
    2.7471    1.3526   -2.8361 H   0  0  0  0  0  0  0  0  0  0  0  0
  1  2  1  0  0  0  0
  1 30  1  0  0  0  0
  1 31  1  0  0  0  0
  1 32  1  0  0  0  0
  2  3  1  0  0  0  0
  3  4  2  0  0  0  0
  3 29  1  0  0  0  0
  4  5  1  0  0  0  0
  4 33  1  0  0  0  0
  5  6  2  0  0  0  0
  5 34  1  0  0  0  0
  6  7  1  0  0  0  0
  6 35  1  0  0  0  0
  7  8  1  0  0  0  0
  7 29  2  0  0  0  0
  8  9  1  0  0  0  0
  8 36  1  0  0  0  0
  9 10  2  0  0  0  0
  9 20  1  0  0  0  0
 10 11  1  0  0  0  0
 11 12  2  0  0  0  0
 11 37  1  0  0  0  0
 12 13  1  0  0  0  0
 12 19  1  0  0  0  0
 13 14  2  0  0  0  0
 13 38  1  0  0  0  0
 14 15  1  0  0  0  0
 14 21  1  0  0  0  0
 15 16  2  0  0  0  0
 15 17  1  0  0  0  0
 17 18  1  0  0  0  0
 17 19  1  0  0  0  0
 18 39  1  0  0  0  0
 18 40  1  0  0  0  0
 18 41  1  0  0  0  0
 19 20  2  0  0  0  0
 21 22  2  0  0  0  0
 21 27  1  0  0  0  0
 22 23  1  0  0  0  0
 22 24  1  0  0  0  0
 24 25  2  0  0  0  0
 24 42  1  0  0  0  0
 25 26  1  0  0  0  0
 25 43  1  0  0  0  0
 26 27  2  0  0  0  0
 26 44  1  0  0  0  0
 27 28  1  0  0  0  0
 29 45  1  0  0  0  0
M  END
>  <DRUGBANK_ID>
DB02567

>  <SECONDARY_ACCESSION_NUMBERS>
EXPT02468

>  <COMMON_NAME>
PD173955

>  <SYNONYMS>
6-(2,6-dichlorophenyl)-8-methyl-2-{[3-(methylthio)phenyl]amino}pyrido[2,3-d]pyrimidin-7(8H)-one

$$$$
