219
 OpenBabel10282417133D

 39 40  0  0  0  0  0  0  0  0999 V2000
    1.7099   -0.1564   -0.0302 C   0  0  0  0  0  0  0  0  0  0  0  0
    0.9343   -1.3578   -0.0040 C   0  0  0  0  0  0  0  0  0  0  0  0
   -0.3529   -1.2124    0.2133 C   0  0  0  0  0  0  0  0  0  0  0  0
   -0.6526    0.0979    0.5976 C   0  0  0  0  0  0  0  0  0  0  0  0
   -0.0759    1.3983    0.5151 C   0  0  0  0  0  0  0  0  0  0  0  0
    1.1922    1.2277    0.0793 C   0  0  0  0  0  0  0  0  0  0  0  0
   -1.9129    0.1380    0.4713 C   0  0  0  0  0  0  0  0  0  0  0  0
   -1.0115    2.5930    0.4595 O   0  0  0  0  0  0  0  0  0  0  0  0
   -2.5891    2.5715    1.2186 P   0  0  1  0  0  0  0  0  0  0  0  0
   -3.6893    1.2227    0.8042 O   0  0  0  0  0  0  0  0  0  0  0  0
   -2.4026    2.9360    2.6702 O   0  0  0  0  0  0  0  0  0  0  0  0
   -3.8571    0.3736   -0.7118 C   0  0  0  0  0  0  0  0  0  0  0  0
   -1.9514    0.9371   -0.4752 O   0  0  0  0  0  0  0  0  0  0  0  0
   -3.7362    3.6396    0.8535 O   0  0  0  0  0  0  0  0  0  0  0  0
   -4.9809    0.8803   -1.4209 C   0  0  0  0  0  0  0  0  0  0  0  0
   -5.0169    2.3131   -1.0245 C   0  0  0  0  0  0  0  0  0  0  0  0
   -6.2786    2.9733   -1.3689 C   0  0  0  0  0  0  0  0  0  0  0  0
   -7.3798    2.0633   -0.7945 C   0  0  0  0  0  0  0  0  0  0  0  0
   -7.2671    0.5830   -1.2077 C   0  0  0  0  0  0  0  0  0  0  0  0
   -5.9857    0.0003   -0.7598 C   0  0  0  0  0  0  0  0  0  0  0  0
    2.7712   -0.3155   -0.0824 H   0  0  0  0  0  0  0  0  0  0  0  0
    1.2863   -2.3766   -0.1016 H   0  0  0  0  0  0  0  0  0  0  0  0
   -1.1496   -1.9712    0.0905 H   0  0  0  0  0  0  0  0  0  0  0  0
    1.8276    2.0698   -0.1541 H   0  0  0  0  0  0  0  0  0  0  0  0
   -2.6487   -0.4841    1.0598 H   0  0  0  0  0  0  0  0  0  0  0  0
   -3.1363    0.4526   -1.5728 H   0  0  0  0  0  0  0  0  0  0  0  0
   -3.8082   -0.7235   -0.5038 H   0  0  0  0  0  0  0  0  0  0  0  0
   -4.4552    3.2312    1.4254 H   0  0  0  0  0  0  0  0  0  0  0  0
   -4.8554    0.7436   -2.5084 H   0  0  0  0  0  0  0  0  0  0  0  0
   -5.1597    2.2750    0.0457 H   0  0  0  0  0  0  0  0  0  0  0  0
   -4.0979    2.8699   -1.2685 H   0  0  0  0  0  0  0  0  0  0  0  0
   -6.2684    3.9493   -0.8662 H   0  0  0  0  0  0  0  0  0  0  0  0
   -6.2953    3.0988   -2.4478 H   0  0  0  0  0  0  0  0  0  0  0  0
   -7.3336    2.1096    0.3081 H   0  0  0  0  0  0  0  0  0  0  0  0
   -8.3324    2.4530   -1.1213 H   0  0  0  0  0  0  0  0  0  0  0  0
   -8.0479   -0.0339   -0.7774 H   0  0  0  0  0  0  0  0  0  0  0  0
   -7.2603    0.5048   -2.2981 H   0  0  0  0  0  0  0  0  0  0  0  0
   -5.8205   -1.0488   -1.0574 H   0  0  0  0  0  0  0  0  0  0  0  0
   -5.8714    0.0099    0.3413 H   0  0  0  0  0  0  0  0  0  0  0  0
  1  2  1  0  0  0  0
  1  6  2  0  0  0  0
  1 21  1  0  0  0  0
  2  3  2  0  0  0  0
  2 22  1  0  0  0  0
  3  4  1  0  0  0  0
  3 23  1  0  0  0  0
  4  5  2  0  0  0  0
  4  7  1  0  0  0  0
  5  6  1  0  0  0  0
  5  8  1  0  0  0  0
  6 24  1  0  0  0  0
  7 13  2  0  0  0  0
  7 25  1  0  0  0  0
  9  8  1  0  0  0  0
  9 10  1  0  0  0  0
  9 11  2  1  0  0  0
  9 14  1  0  0  0  0
 10 12  1  0  0  0  0
 12 15  1  0  0  0  0
 12 26  1  0  0  0  0
 12 27  1  0  0  0  0
 14 28  1  0  0  0  0
 15 16  1  0  0  0  0
 15 20  1  0  0  0  0
 15 29  1  0  0  0  0
 16 17  1  0  0  0  0
 16 30  1  0  0  0  0
 16 31  1  0  0  0  0
 17 18  1  0  0  0  0
 17 32  1  0  0  0  0
 17 33  1  0  0  0  0
 18 19  1  0  0  0  0
 18 34  1  0  0  0  0
 18 35  1  0  0  0  0
 19 20  1  0  0  0  0
 19 36  1  0  0  0  0
 19 37  1  0  0  0  0
 20 38  1  0  0  0  0
 20 39  1  0  0  0  0
M  END
>  <DRUGBANK_ID>
DB03114

>  <SECONDARY_ACCESSION_NUMBERS>
EXPT00088

>  <COMMON_NAME>
PAS219

$$$$
