2BC
 OpenBabel10282417163D

 37 39  0  0  0  0  0  0  0  0999 V2000
   -1.0805   -1.0049    0.0183 C   0  0  0  0  0  0  0  0  0  0  0  0
    0.1188   -0.3076   -0.1409 C   0  0  0  0  0  0  0  0  0  0  0  0
    1.3285   -1.0334   -0.2774 C   0  0  0  0  0  0  0  0  0  0  0  0
    2.5535   -0.4161   -0.1566 C   0  0  0  0  0  0  0  0  0  0  0  0
    2.5542    0.9570   -0.0247 C   0  0  0  0  0  0  0  0  0  0  0  0
    1.3386    1.6902   -0.0067 C   0  0  0  0  0  0  0  0  0  0  0  0
    0.0681    1.0518   -0.0669 C   0  0  0  0  0  0  0  0  0  0  0  0
   -1.2476    1.6300   -0.0278 C   0  0  0  0  0  0  0  0  0  0  0  0
   -2.4463    0.8352   -0.0287 C   0  0  0  0  0  0  0  0  0  0  0  0
   -2.3880   -0.5517    0.0149 C   0  0  0  0  0  0  0  0  0  0  0  0
   -3.6419   -1.4489    0.0085 C   0  0  0  0  0  0  0  0  0  0  0  0
   -4.7322   -0.8525   -0.0650 O   0  0  0  0  0  0  0  0  0  0  0  0
   -3.7165   -2.8723   -0.0004 N   0  0  0  0  0  0  0  0  0  0  0  0
   -2.7920   -3.7900    0.5186 N   0  0  0  0  0  0  0  0  0  0  0  0
   -1.6492   -3.7137   -0.0764 C   0  0  0  0  0  0  0  0  0  0  0  0
   -0.3094   -4.2648    0.2820 C   0  0  0  0  0  0  0  0  0  0  0  0
    0.1037   -5.1255   -0.7318 C   0  0  0  0  0  0  0  0  0  0  0  0
    1.3889   -5.6541   -0.7325 C   0  0  0  0  0  0  0  0  0  0  0  0
    1.7774   -7.0140   -1.9870 Br  0  0  0  0  0  0  0  0  0  0  0  0
    2.3421   -5.2237    0.1895 C   0  0  0  0  0  0  0  0  0  0  0  0
    3.6085   -5.7446    0.1833 O   0  0  0  0  0  0  0  0  0  0  0  0
    1.9986   -4.2583    1.1368 C   0  0  0  0  0  0  0  0  0  0  0  0
    3.3854   -3.5158    2.2354 Br  0  0  0  0  0  0  0  0  0  0  0  0
    0.6614   -3.7901    1.2199 C   0  0  0  0  0  0  0  0  0  0  0  0
    0.4672   -2.8387    2.1943 O   0  0  0  0  0  0  0  0  0  0  0  0
   -0.8761   -1.9695    0.3370 H   0  0  0  0  0  0  0  0  0  0  0  0
    1.3311   -2.0952   -0.4769 H   0  0  0  0  0  0  0  0  0  0  0  0
    3.4640   -1.0156   -0.1605 H   0  0  0  0  0  0  0  0  0  0  0  0
    3.5118    1.4650    0.0458 H   0  0  0  0  0  0  0  0  0  0  0  0
    1.3890    2.7663    0.0893 H   0  0  0  0  0  0  0  0  0  0  0  0
   -1.3421    2.7104   -0.0020 H   0  0  0  0  0  0  0  0  0  0  0  0
   -3.4156    1.3324   -0.0312 H   0  0  0  0  0  0  0  0  0  0  0  0
   -4.6863   -3.2075    0.0242 H   0  0  0  0  0  0  0  0  0  0  0  0
   -1.6156   -3.0735   -0.9796 H   0  0  0  0  0  0  0  0  0  0  0  0
   -0.5936   -5.3728   -1.5311 H   0  0  0  0  0  0  0  0  0  0  0  0
    3.6221   -6.5105   -0.4179 H   0  0  0  0  0  0  0  0  0  0  0  0
   -0.0985   -2.0842    1.9754 H   0  0  0  0  0  0  0  0  0  0  0  0
  1  2  2  0  0  0  0
  1 10  1  0  0  0  0
  1 26  1  0  0  0  0
  2  3  1  0  0  0  0
  2  7  1  0  0  0  0
  3  4  2  0  0  0  0
  3 27  1  0  0  0  0
  4  5  1  0  0  0  0
  4 28  1  0  0  0  0
  5  6  2  0  0  0  0
  5 29  1  0  0  0  0
  6  7  1  0  0  0  0
  6 30  1  0  0  0  0
  7  8  2  0  0  0  0
  8  9  1  0  0  0  0
  8 31  1  0  0  0  0
  9 10  2  0  0  0  0
  9 32  1  0  0  0  0
 10 11  1  0  0  0  0
 11 12  2  0  0  0  0
 11 13  1  0  0  0  0
 13 14  1  0  0  0  0
 13 33  1  0  0  0  0
 14 15  2  0  0  0  0
 15 16  1  0  0  0  0
 15 34  1  0  0  0  0
 16 17  2  0  0  0  0
 16 24  1  0  0  0  0
 17 18  1  0  0  0  0
 17 35  1  0  0  0  0
 18 19  1  0  0  0  0
 18 20  2  0  0  0  0
 20 21  1  0  0  0  0
 20 22  1  0  0  0  0
 21 36  1  0  0  0  0
 22 23  1  0  0  0  0
 22 24  2  0  0  0  0
 24 25  1  0  0  0  0
 25 37  1  0  0  0  0
M  END
>  <DRUGBANK_ID>
DB06949

>  <COMMON_NAME>
N'-[(1E)-(3,5-dibromo-2,4-dihydroxyphenyl)methylidene]naphthalene-2-carbohydrazide

$$$$
