
 OpenBabel10282417243D

 55 56  0  0  1  0  0  0  0  0999 V2000
    1.1243   -2.1262    1.4783 C   0  0  0  0  0  0  0  0  0  0  0  0
    0.5304   -1.5583    0.2088 C   0  0  2  0  0  0  0  0  0  0  0  0
    1.1516   -0.2913   -0.1557 N   0  0  0  0  0  0  0  0  0  0  0  0
    1.8909   -0.1268   -1.3011 C   0  0  0  0  0  0  0  0  0  0  0  0
    2.6273    0.8580   -1.3912 O   0  0  0  0  0  0  0  0  0  0  0  0
    1.7151   -1.1873   -2.4442 C   0  0  0  0  0  0  0  0  0  0  0  0
    0.6490   -1.7790   -2.5885 O   0  0  0  0  0  0  0  0  0  0  0  0
    2.6993   -1.4239   -3.3695 N   0  0  0  0  0  0  0  0  0  0  0  0
    3.9190   -0.7568   -3.4840 C   0  0  0  0  0  0  0  0  0  0  0  0
    4.7681   -0.5653   -2.3959 C   0  0  0  0  0  0  0  0  0  0  0  0
    4.4690   -1.0973   -1.1998 F   0  0  0  0  0  0  0  0  0  0  0  0
    5.9587    0.1333   -2.5361 C   0  0  0  0  0  0  0  0  0  0  0  0
    6.3355    0.6073   -3.7925 C   0  0  0  0  0  0  0  0  0  0  0  0
    5.5102    0.3920   -4.8983 C   0  0  0  0  0  0  0  0  0  0  0  0
    4.3126   -0.2955   -4.7386 C   0  0  0  0  0  0  0  0  0  0  0  0
    3.5091   -0.4687   -5.8002 F   0  0  0  0  0  0  0  0  0  0  0  0
   -1.0046   -1.4784    0.1786 C   0  0  0  0  0  0  0  0  0  0  0  0
   -1.6793   -2.0796   -0.6570 O   0  0  0  0  0  0  0  0  0  0  0  0
   -1.6641   -0.7173    1.0929 N   0  0  0  0  0  0  0  0  0  0  0  0
   -1.1213    0.1085    2.1511 C   0  0  1  0  0  0  0  0  0  0  0  0
   -1.4449    1.5895    1.9374 C   0  0  0  0  0  0  0  0  0  0  0  0
   -2.9207    1.8544    1.9461 C   0  0  0  0  0  0  0  0  0  0  0  0
   -3.2996    2.9377    2.6467 O   0  0  0  0  0  0  0  0  0  0  0  0
   -3.7324    1.1271    1.3854 O   0  0  0  0  0  0  0  0  0  0  0  0
   -1.4182   -0.5883    3.5030 C   0  0  0  0  0  0  0  0  0  0  0  0
   -0.5753   -1.2877    4.0812 O   0  0  0  0  0  0  0  0  0  0  0  0
   -2.7660   -0.4281    4.1519 C   0  0  0  0  0  0  0  0  0  0  0  0
   -3.2191    0.8530    4.5295 O   0  0  0  0  0  0  0  0  0  0  0  0
   -2.4376    1.7492    5.2060 C   0  0  0  0  0  0  0  0  0  0  0  0
   -1.0426    1.8615    5.1922 C   0  0  0  0  0  0  0  0  0  0  0  0
   -0.2423    1.0682    4.4871 F   0  0  0  0  0  0  0  0  0  0  0  0
   -0.3827    2.9609    5.7142 C   0  0  0  0  0  0  0  0  0  0  0  0
    0.9399    3.0598    5.5283 F   0  0  0  0  0  0  0  0  0  0  0  0
   -1.0805    3.9864    6.3035 C   0  0  0  0  0  0  0  0  0  0  0  0
   -2.4648    3.9041    6.3372 C   0  0  0  0  0  0  0  0  0  0  0  0
   -3.1550    4.9279    6.8503 F   0  0  0  0  0  0  0  0  0  0  0  0
   -3.1406    2.8136    5.7832 C   0  0  0  0  0  0  0  0  0  0  0  0
   -4.4784    2.8628    5.6862 F   0  0  0  0  0  0  0  0  0  0  0  0
    0.5883   -1.8403    2.3654 H   0  0  0  0  0  0  0  0  0  0  0  0
    2.1668   -1.8258    1.6120 H   0  0  0  0  0  0  0  0  0  0  0  0
    1.0580   -3.2151    1.4430 H   0  0  0  0  0  0  0  0  0  0  0  0
    0.8148   -2.3066   -0.5225 H   0  0  0  0  0  0  0  0  0  0  0  0
    1.3054    0.4380    0.5287 H   0  0  0  0  0  0  0  0  0  0  0  0
    2.3305   -1.8984   -4.1861 H   0  0  0  0  0  0  0  0  0  0  0  0
    6.5804    0.2927   -1.6617 H   0  0  0  0  0  0  0  0  0  0  0  0
    7.2783    1.1337   -3.9093 H   0  0  0  0  0  0  0  0  0  0  0  0
    5.7879    0.7609   -5.8803 H   0  0  0  0  0  0  0  0  0  0  0  0
   -2.6757   -0.7087    0.9522 H   0  0  0  0  0  0  0  0  0  0  0  0
   -0.0307    0.0955    2.0909 H   0  0  0  0  0  0  0  0  0  0  0  0
   -0.9145    2.2210    2.6531 H   0  0  0  0  0  0  0  0  0  0  0  0
   -1.0759    1.9143    0.9560 H   0  0  0  0  0  0  0  0  0  0  0  0
   -2.6169    3.3540    3.2013 H   0  0  0  0  0  0  0  0  0  0  0  0
   -3.4843   -0.8711    3.4484 H   0  0  0  0  0  0  0  0  0  0  0  0
   -2.7936   -1.0659    5.0423 H   0  0  0  0  0  0  0  0  0  0  0  0
   -0.5474    4.8463    6.6847 H   0  0  0  0  0  0  0  0  0  0  0  0
  1 39  1  0  0  0  0
  1 40  1  0  0  0  0
  1 41  1  0  0  0  0
  2 17  1  0  0  0  0
  2 42  1  6  0  0  0
  2  3  1  0  0  0  0
  2  1  1  0  0  0  0
  3  4  1  0  0  0  0
  3 43  1  0  0  0  0
  4  5  2  0  0  0  0
  4  6  1  0  0  0  0
  6  7  2  0  0  0  0
  6  8  1  0  0  0  0
  8  9  1  0  0  0  0
  8 44  1  0  0  0  0
  9 10  2  0  0  0  0
  9 15  1  0  0  0  0
 10 11  1  0  0  0  0
 10 12  1  0  0  0  0
 12 13  2  0  0  0  0
 12 45  1  0  0  0  0
 13 14  1  0  0  0  0
 13 46  1  0  0  0  0
 14 15  2  0  0  0  0
 14 47  1  0  0  0  0
 15 16  1  0  0  0  0
 17 18  2  0  0  0  0
 17 19  1  0  0  0  0
 19 48  1  0  0  0  0
 20 19  1  0  0  0  0
 20 21  1  0  0  0  0
 20 25  1  0  0  0  0
 20 49  1  6  0  0  0
 21 22  1  0  0  0  0
 21 50  1  0  0  0  0
 21 51  1  0  0  0  0
 22 23  1  0  0  0  0
 22 24  2  0  0  0  0
 23 52  1  0  0  0  0
 25 26  2  0  0  0  0
 25 27  1  0  0  0  0
 27 28  1  0  0  0  0
 27 53  1  0  0  0  0
 27 54  1  0  0  0  0
 28 29  1  0  0  0  0
 29 30  2  0  0  0  0
 29 37  1  0  0  0  0
 30 31  1  0  0  0  0
 30 32  1  0  0  0  0
 32 33  1  0  0  0  0
 32 34  2  0  0  0  0
 34 35  1  0  0  0  0
 34 55  1  0  0  0  0
 35 36  1  0  0  0  0
 35 37  2  0  0  0  0
 37 38  1  0  0  0  0
M  END
>  <DRUGBANK_ID>
DB18073

>  <COMMON_NAME>
IDN-7314

>  <CAS_NUMBER>
254750-11-3

>  <UNII>
WLA1SUY9N8

>  <SYNONYMS>
(s)-3-((s)-2-(2-((2,6-difluorophenyl)amino)-2-oxoacetamido)propanamido)-4-oxo-5-(2,3,5,6-tetrafluorophenoxy)pentanoic acid; L-alaninamide, n-(2,6-difluorophenyl)-2-oxoglycyl-n-((1s)-1-(carboxymethyl)-2-oxo-3-(2,3,5,6-tetrafluorophenoxy)propyl)-; N-(2,6-difluorophenyl)-2-oxoglycyl-n-((1s)-1-(carboxymethyl)-2-oxo-3-(2,3,5,6-tetrafluorophenoxy)propyl)-l-alaninamide

$$$$
