DZ2
 OpenBabel10282417163D

 27 28  0  0  0  0  0  0  0  0999 V2000
   -1.2122   -1.9462    0.0231 C   0  0  0  0  0  0  0  0  0  0  0  0
   -1.2879   -0.5353    0.0397 C   0  0  0  0  0  0  0  0  0  0  0  0
   -2.9828    0.3147    0.0440 Br  0  0  0  0  0  0  0  0  0  0  0  0
   -0.1327    0.2523    0.0080 C   0  0  0  0  0  0  0  0  0  0  0  0
   -0.1526    1.6152    0.0969 O   0  0  0  0  0  0  0  0  0  0  0  0
    1.0819   -0.3659   -0.1933 C   0  0  0  0  0  0  0  0  0  0  0  0
    2.6943    0.6163   -0.3539 Br  0  0  0  0  0  0  0  0  0  0  0  0
    1.1258   -1.7472   -0.3374 C   0  0  0  0  0  0  0  0  0  0  0  0
    0.0353   -2.5711   -0.0815 C   0  0  0  0  0  0  0  0  0  0  0  0
    0.1697   -3.9775    0.0658 N   0  0  0  0  0  0  0  0  0  0  0  0
    1.2970   -4.7909    0.2014 C   0  0  0  0  0  0  0  0  0  0  0  0
    1.1451   -6.0155    0.2855 O   0  0  0  0  0  0  0  0  0  0  0  0
    2.6828   -4.2487    0.2818 C   0  0  0  0  0  0  0  0  0  0  0  0
    2.9877   -3.2490    1.2288 C   0  0  0  0  0  0  0  0  0  0  0  0
    4.1833   -2.5292    1.1279 C   0  0  0  0  0  0  0  0  0  0  0  0
    4.4732   -1.1957    2.1770 Cl  0  0  0  0  0  0  0  0  0  0  0  0
    5.1106   -2.8351    0.1362 C   0  0  0  0  0  0  0  0  0  0  0  0
    4.8696   -3.9101   -0.7219 C   0  0  0  0  0  0  0  0  0  0  0  0
    3.6627   -4.6231   -0.6521 C   0  0  0  0  0  0  0  0  0  0  0  0
    3.4425   -5.8941   -1.7993 Cl  0  0  0  0  0  0  0  0  0  0  0  0
   -2.1292   -2.5306    0.0739 H   0  0  0  0  0  0  0  0  0  0  0  0
   -1.0755    1.9154    0.1172 H   0  0  0  0  0  0  0  0  0  0  0  0
    2.0575   -2.1604   -0.6816 H   0  0  0  0  0  0  0  0  0  0  0  0
   -0.6857   -4.5250    0.1316 H   0  0  0  0  0  0  0  0  0  0  0  0
    2.2317   -2.9237    1.9412 H   0  0  0  0  0  0  0  0  0  0  0  0
    6.0173   -2.2436    0.0235 H   0  0  0  0  0  0  0  0  0  0  0  0
    5.6210   -4.1717   -1.4650 H   0  0  0  0  0  0  0  0  0  0  0  0
  1  2  2  0  0  0  0
  1  9  1  0  0  0  0
  1 21  1  0  0  0  0
  2  3  1  0  0  0  0
  2  4  1  0  0  0  0
  4  5  1  0  0  0  0
  4  6  2  0  0  0  0
  5 22  1  0  0  0  0
  6  7  1  0  0  0  0
  6  8  1  0  0  0  0
  8  9  2  0  0  0  0
  8 23  1  0  0  0  0
  9 10  1  0  0  0  0
 10 11  1  0  0  0  0
 10 24  1  0  0  0  0
 11 12  2  0  0  0  0
 11 13  1  0  0  0  0
 13 14  2  0  0  0  0
 13 19  1  0  0  0  0
 14 15  1  0  0  0  0
 14 25  1  0  0  0  0
 15 16  1  0  0  0  0
 15 17  2  0  0  0  0
 17 18  1  0  0  0  0
 17 26  1  0  0  0  0
 18 19  2  0  0  0  0
 18 27  1  0  0  0  0
 19 20  1  0  0  0  0
M  END
>  <DRUGBANK_ID>
DB07694

>  <COMMON_NAME>
2,5-dichloro-N-(3,5-dibromo-4-hydroxyphenyl)benzamide

$$$$
