
 OpenBabel10282417203D

 73 75  0  0  1  0  0  0  0  0999 V2000
   -2.6061   -0.7385   -3.2582 C   0  0  0  0  0  0  0  0  0  0  0  0
   -2.7483   -0.3273   -4.7753 C   0  0  2  0  0  0  0  0  0  0  0  0
   -1.6422   -0.9510   -5.6762 C   0  0  0  0  0  0  0  0  0  0  0  0
   -0.4293   -0.1250   -5.9055 O   0  0  0  0  0  0  0  0  0  0  0  0
   -0.3717    1.3332   -5.6816 C   0  0  1  0  0  0  0  0  0  0  0  0
   -1.5825    1.9208   -4.8724 C   0  0  1  0  0  0  0  0  0  0  0  0
   -2.8370    1.1810   -5.2305 C   0  0  1  0  0  0  0  0  0  0  0  0
   -3.1256    1.2342   -6.6912 N   0  0  0  0  0  0  0  0  0  0  0  0
   -3.0400    2.5807   -7.2451 C   0  0  0  0  0  0  0  0  0  0  0  0
   -1.6405    1.9153   -3.4296 O   0  0  0  0  0  0  0  0  0  0  0  0
    0.9101    1.8996   -5.1790 O   0  0  0  0  0  0  0  0  0  0  0  0
    0.9843    1.8941   -3.7336 C   0  0  1  0  0  0  0  0  0  0  0  0
    1.1812    0.4055   -3.3612 C   0  0  1  0  0  0  0  0  0  0  0  0
    1.0075    0.0924   -1.9153 C   0  0  0  0  0  0  0  0  0  0  0  0
    1.9495    0.9325   -1.1600 C   0  0  1  0  0  0  0  0  0  0  0  0
    2.1305    2.4044   -1.4197 C   0  0  2  0  0  0  0  0  0  0  0  0
    1.9224    2.8464   -2.9141 C   0  0  2  0  0  0  0  0  0  0  0  0
    1.6392    4.2627   -3.0098 O   0  0  0  0  0  0  0  0  0  0  0  0
    3.4997    2.6704   -0.9748 O   0  0  0  0  0  0  0  0  0  0  0  0
    4.6715    1.9574   -1.5733 C   0  0  2  0  0  0  0  0  0  0  0  0
    5.0578    2.4206   -3.0133 C   0  0  1  0  0  0  0  0  0  0  0  0
    4.4431    1.5156   -4.0985 C   0  0  0  0  0  0  0  0  0  0  0  0
    4.7122    0.0526   -3.8680 C   0  0  0  0  0  0  0  0  0  0  0  0
    4.4312   -0.3967   -2.4268 C   0  0  2  0  0  0  0  0  0  0  0  0
    4.8417    0.5124   -1.3812 O   0  0  0  0  0  0  0  0  0  0  0  0
    4.5539   -1.8935   -2.0990 C   0  0  0  0  0  0  0  0  0  0  0  0
    4.7567   -2.5637   -3.3769 N   0  0  0  0  0  0  0  0  0  0  0  0
    5.0388   -3.9575   -3.2282 C   0  0  0  0  0  0  0  0  0  0  0  0
    4.8754    3.8773   -3.2040 N   0  0  0  0  0  0  0  0  0  0  0  0
    2.1704    0.2822    0.1177 N   0  0  0  0  0  0  0  0  0  0  0  0
    0.3039   -0.6571   -3.7860 N   0  0  0  0  0  0  0  0  0  0  0  0
   -4.0234   -0.9026   -5.1139 O   0  0  0  0  0  0  0  0  0  0  0  0
   -1.6128   -0.9739   -2.8811 H   0  0  0  0  0  0  0  0  0  0  0  0
   -3.1304   -1.6798   -3.0528 H   0  0  0  0  0  0  0  0  0  0  0  0
   -2.9996    0.0074   -2.5597 H   0  0  0  0  0  0  0  0  0  0  0  0
   -1.3153   -1.9093   -5.2384 H   0  0  0  0  0  0  0  0  0  0  0  0
   -2.0378   -1.2594   -6.6486 H   0  0  0  0  0  0  0  0  0  0  0  0
   -0.3864    1.6944   -6.7165 H   0  0  0  0  0  0  0  0  0  0  0  0
   -1.5867    2.9884   -5.1085 H   0  0  0  0  0  0  0  0  0  0  0  0
   -3.6694    1.6494   -4.6955 H   0  0  0  0  0  0  0  0  0  0  0  0
   -2.4334    0.6722   -7.1990 H   0  0  0  0  0  0  0  0  0  0  0  0
   -2.0436    3.0283   -7.1558 H   0  0  0  0  0  0  0  0  0  0  0  0
   -3.2415    2.5264   -8.3158 H   0  0  0  0  0  0  0  0  0  0  0  0
   -3.7667    3.2328   -6.7624 H   0  0  0  0  0  0  0  0  0  0  0  0
   -1.2346    1.1204   -3.0569 H   0  0  0  0  0  0  0  0  0  0  0  0
    0.1321    2.4433   -3.4246 H   0  0  0  0  0  0  0  0  0  0  0  0
    2.0835    0.0795   -3.8554 H   0  0  0  0  0  0  0  0  0  0  0  0
   -0.0121    0.2106   -1.5543 H   0  0  0  0  0  0  0  0  0  0  0  0
    1.2819   -0.9745   -1.7819 H   0  0  0  0  0  0  0  0  0  0  0  0
    2.8037    0.7394   -1.6842 H   0  0  0  0  0  0  0  0  0  0  0  0
    1.4251    2.9451   -0.7760 H   0  0  0  0  0  0  0  0  0  0  0  0
    2.8294    2.9031   -3.4276 H   0  0  0  0  0  0  0  0  0  0  0  0
    0.7883    4.4786   -2.6355 H   0  0  0  0  0  0  0  0  0  0  0  0
    5.4592    2.3656   -0.9274 H   0  0  0  0  0  0  0  0  0  0  0  0
    6.1304    2.2462   -3.1231 H   0  0  0  0  0  0  0  0  0  0  0  0
    3.3709    1.5079   -4.1399 H   0  0  0  0  0  0  0  0  0  0  0  0
    4.6841    1.8412   -5.1125 H   0  0  0  0  0  0  0  0  0  0  0  0
    3.9967   -0.4762   -4.5228 H   0  0  0  0  0  0  0  0  0  0  0  0
    5.7053   -0.2169   -4.2088 H   0  0  0  0  0  0  0  0  0  0  0  0
    3.3656   -0.4894   -2.4651 H   0  0  0  0  0  0  0  0  0  0  0  0
    5.2934   -2.0926   -1.3206 H   0  0  0  0  0  0  0  0  0  0  0  0
    3.5919   -2.2589   -1.6828 H   0  0  0  0  0  0  0  0  0  0  0  0
    3.9218   -2.4467   -3.9562 H   0  0  0  0  0  0  0  0  0  0  0  0
    4.1413   -4.4950   -2.9177 H   0  0  0  0  0  0  0  0  0  0  0  0
    5.3664   -4.3225   -4.2031 H   0  0  0  0  0  0  0  0  0  0  0  0
    5.8455   -4.0966   -2.5079 H   0  0  0  0  0  0  0  0  0  0  0  0
    4.6576    4.1026   -4.1722 H   0  0  0  0  0  0  0  0  0  0  0  0
    4.0645    4.2120   -2.6630 H   0  0  0  0  0  0  0  0  0  0  0  0
    3.0656    0.6087    0.4958 H   0  0  0  0  0  0  0  0  0  0  0  0
    1.4254    0.4547    0.7590 H   0  0  0  0  0  0  0  0  0  0  0  0
    0.6902   -1.1575   -4.5909 H   0  0  0  0  0  0  0  0  0  0  0  0
   -0.4453   -0.1851   -4.1984 H   0  0  0  0  0  0  0  0  0  0  0  0
   -4.4265   -0.2752   -5.7473 H   0  0  0  0  0  0  0  0  0  0  0  0
  1 33  1  0  0  0  0
  1 34  1  0  0  0  0
  1 35  1  0  0  0  0
  2  1  1  0  0  0  0
  2  3  1  0  0  0  0
  2  7  1  0  0  0  0
  2 32  1  6  0  0  0
  3  4  1  0  0  0  0
  3 36  1  0  0  0  0
  3 37  1  0  0  0  0
  4  5  1  0  0  0  0
  5  6  1  0  0  0  0
  5 11  1  0  0  0  0
  5 38  1  6  0  0  0
  6  7  1  0  0  0  0
  6 10  1  0  0  0  0
  6 39  1  6  0  0  0
  7  8  1  0  0  0  0
  7 40  1  1  0  0  0
  8  9  1  0  0  0  0
  8 41  1  0  0  0  0
  9 42  1  0  0  0  0
  9 43  1  0  0  0  0
  9 44  1  0  0  0  0
 10 45  1  0  0  0  0
 12 13  1  0  0  0  0
 12 17  1  0  0  0  0
 12 46  1  1  0  0  0
 12 11  1  0  0  0  0
 13 14  1  0  0  0  0
 13 31  1  0  0  0  0
 13 47  1  6  0  0  0
 14 15  1  0  0  0  0
 14 48  1  0  0  0  0
 14 49  1  0  0  0  0
 15 16  1  0  0  0  0
 15 30  1  0  0  0  0
 15 50  1  6  0  0  0
 16 17  1  0  0  0  0
 16 51  1  1  0  0  0
 16 19  1  0  0  0  0
 17 52  1  6  0  0  0
 17 18  1  0  0  0  0
 18 53  1  0  0  0  0
 20 19  1  0  0  0  0
 20 21  1  0  0  0  0
 20 25  1  0  0  0  0
 20 54  1  1  0  0  0
 21 22  1  0  0  0  0
 21 29  1  0  0  0  0
 21 55  1  6  0  0  0
 22 23  1  0  0  0  0
 22 56  1  0  0  0  0
 22 57  1  0  0  0  0
 23 24  1  0  0  0  0
 23 58  1  0  0  0  0
 23 59  1  0  0  0  0
 24 25  1  0  0  0  0
 24 60  1  1  0  0  0
 24 26  1  0  0  0  0
 26 27  1  0  0  0  0
 26 61  1  0  0  0  0
 26 62  1  0  0  0  0
 27 28  1  0  0  0  0
 27 63  1  0  0  0  0
 28 64  1  0  0  0  0
 28 65  1  0  0  0  0
 28 66  1  0  0  0  0
 29 67  1  0  0  0  0
 29 68  1  0  0  0  0
 30 69  1  0  0  0  0
 30 70  1  0  0  0  0
 31 71  1  0  0  0  0
 31 72  1  0  0  0  0
 32 73  1  0  0  0  0
M  END
>  <DRUGBANK_ID>
DB13274

>  <COMMON_NAME>
Micronomicin

>  <CAS_NUMBER>
52093-21-7

>  <UNII>
S9AZ0R40QV

>  <SYNONYMS>
Micronomicin

$$$$
