1439
 OpenBabel10282417113D

 53 55  0  0  1  0  0  0  0  0999 V2000
   -0.8696   -0.0952    0.6624 S   0  0  0  0  0  0  0  0  0  0  0  0
   -0.1340    2.4958   -5.0787 O   0  0  0  0  0  0  0  0  0  0  0  0
   -2.4074    2.5493   -1.2941 N   0  0  0  0  0  0  0  0  0  0  0  0
   -2.3186    1.8928   -5.5773 N   0  0  0  0  0  0  0  0  0  0  0  0
   -2.7565    2.0423   -4.1806 C   0  0  3  0  0  0  0  0  0  0  0  0
   -2.2735    0.8856   -3.2720 C   0  0  3  0  0  0  0  0  0  0  0  0
   -2.4578    3.4267   -3.5987 C   0  0  0  0  0  0  0  0  0  0  0  0
   -2.7271    1.2054   -1.8390 C   0  0  0  0  0  0  0  0  0  0  0  0
   -3.0227    3.5453   -2.1879 C   0  0  0  0  0  0  0  0  0  0  0  0
   -0.7878    0.5241   -3.3127 C   0  0  0  0  0  0  0  0  0  0  0  0
   -0.9953    2.9680   -1.0949 C   0  0  0  0  0  0  0  0  0  0  0  0
   -0.2318    2.5753    0.1679 C   0  0  0  0  0  0  0  0  0  0  0  0
   -3.3635    1.8565   -6.5389 C   0  0  0  0  0  0  0  0  0  0  0  0
   -0.9736    2.0956   -5.9110 C   0  0  0  0  0  0  0  0  0  0  0  0
   -0.4378    1.9213   -7.3144 C   0  0  0  0  0  0  0  0  0  0  0  0
    0.2091    1.1546    0.2190 C   0  0  0  0  0  0  0  0  0  0  0  0
   -4.2104    2.9502   -6.7337 C   0  0  0  0  0  0  0  0  0  0  0  0
   -3.5482    0.7235   -7.3167 C   0  0  0  0  0  0  0  0  0  0  0  0
   -0.6183    0.5738   -7.9690 C   0  0  0  0  0  0  0  0  0  0  0  0
   -5.0768    2.9718   -7.8299 C   0  0  0  0  0  0  0  0  0  0  0  0
   -4.2715    0.8101   -8.5040 C   0  0  0  0  0  0  0  0  0  0  0  0
    1.4840    0.6545    0.0470 C   0  0  0  0  0  0  0  0  0  0  0  0
   -5.0519    1.9308   -8.7553 C   0  0  0  0  0  0  0  0  0  0  0  0
    1.4959   -0.7692    0.0225 C   0  0  0  0  0  0  0  0  0  0  0  0
    0.2292   -1.2930    0.1477 C   0  0  0  0  0  0  0  0  0  0  0  0
   -3.8566    1.9532   -4.1782 H   0  0  0  0  0  0  0  0  0  0  0  0
   -2.7946   -0.0265   -3.6066 H   0  0  0  0  0  0  0  0  0  0  0  0
   -1.3822    3.6069   -3.5753 H   0  0  0  0  0  0  0  0  0  0  0  0
   -2.8618    4.2221   -4.2277 H   0  0  0  0  0  0  0  0  0  0  0  0
   -2.4435    0.3758   -1.2028 H   0  0  0  0  0  0  0  0  0  0  0  0
   -3.8265    1.1179   -1.8260 H   0  0  0  0  0  0  0  0  0  0  0  0
   -4.1120    3.4245   -2.1807 H   0  0  0  0  0  0  0  0  0  0  0  0
   -2.8436    4.5566   -1.8053 H   0  0  0  0  0  0  0  0  0  0  0  0
   -0.5454   -0.2779   -2.6137 H   0  0  0  0  0  0  0  0  0  0  0  0
   -0.4834    0.1712   -4.3007 H   0  0  0  0  0  0  0  0  0  0  0  0
   -0.1458    1.3602   -3.0603 H   0  0  0  0  0  0  0  0  0  0  0  0
   -1.0179    4.0656   -1.0042 H   0  0  0  0  0  0  0  0  0  0  0  0
   -0.3546    2.8302   -1.9641 H   0  0  0  0  0  0  0  0  0  0  0  0
   -0.7939    2.8699    1.0577 H   0  0  0  0  0  0  0  0  0  0  0  0
    0.6754    3.2025    0.1685 H   0  0  0  0  0  0  0  0  0  0  0  0
   -0.8070    2.7448   -7.9278 H   0  0  0  0  0  0  0  0  0  0  0  0
    0.6523    2.0533   -7.2294 H   0  0  0  0  0  0  0  0  0  0  0  0
   -4.1862    3.8049   -6.0655 H   0  0  0  0  0  0  0  0  0  0  0  0
   -3.0275   -0.1980   -7.0676 H   0  0  0  0  0  0  0  0  0  0  0  0
   -1.6131    0.4693   -8.3667 H   0  0  0  0  0  0  0  0  0  0  0  0
   -0.0015    0.4798   -8.8634 H   0  0  0  0  0  0  0  0  0  0  0  0
   -0.4209   -0.2576   -7.2848 H   0  0  0  0  0  0  0  0  0  0  0  0
   -5.7295    3.8247   -7.9923 H   0  0  0  0  0  0  0  0  0  0  0  0
   -4.1781    0.0226   -9.2477 H   0  0  0  0  0  0  0  0  0  0  0  0
    2.3564    1.2824   -0.0884 H   0  0  0  0  0  0  0  0  0  0  0  0
   -5.6453    1.9828   -9.6636 H   0  0  0  0  0  0  0  0  0  0  0  0
    2.3785   -1.3751   -0.1246 H   0  0  0  0  0  0  0  0  0  0  0  0
   -0.0866   -2.3226    0.0631 H   0  0  0  0  0  0  0  0  0  0  0  0
  1 16  1  0  0  0  0
  1 25  1  0  0  0  0
  2 14  2  0  0  0  0
  3  8  1  0  0  0  0
  3  9  1  0  0  0  0
  3 11  1  0  0  0  0
  4  5  1  0  0  0  0
  4 13  1  0  0  0  0
  4 14  1  0  0  0  0
  5  6  1  0  0  0  0
  5  7  1  0  0  0  0
  5 26  1  0  0  0  0
  6  8  1  0  0  0  0
  6 10  1  0  0  0  0
  6 27  1  0  0  0  0
  7  9  1  0  0  0  0
  7 28  1  0  0  0  0
  7 29  1  0  0  0  0
  8 30  1  0  0  0  0
  8 31  1  0  0  0  0
  9 32  1  0  0  0  0
  9 33  1  0  0  0  0
 10 34  1  0  0  0  0
 10 35  1  0  0  0  0
 10 36  1  0  0  0  0
 11 12  1  0  0  0  0
 11 37  1  0  0  0  0
 11 38  1  0  0  0  0
 12 16  1  0  0  0  0
 12 39  1  0  0  0  0
 12 40  1  0  0  0  0
 13 17  2  0  0  0  0
 13 18  1  0  0  0  0
 14 15  1  0  0  0  0
 15 19  1  0  0  0  0
 15 41  1  0  0  0  0
 15 42  1  0  0  0  0
 16 22  2  0  0  0  0
 17 20  1  0  0  0  0
 17 43  1  0  0  0  0
 18 21  2  0  0  0  0
 18 44  1  0  0  0  0
 19 45  1  0  0  0  0
 19 46  1  0  0  0  0
 19 47  1  0  0  0  0
 20 23  2  0  0  0  0
 20 48  1  0  0  0  0
 21 23  1  0  0  0  0
 21 49  1  0  0  0  0
 22 24  1  0  0  0  0
 22 50  1  0  0  0  0
 23 51  1  0  0  0  0
 24 25  2  0  0  0  0
 24 52  1  0  0  0  0
 25 53  1  0  0  0  0
M  END
>  <DRUGBANK_ID>
DB01439

>  <COMMON_NAME>
3-Methylthiofentanyl

>  <CAS_NUMBER>
86052-04-2

>  <UNII>
C9C204973M

>  <SYNONYMS>
3-Methyl-thiofentanyl

$$$$
