
 OpenBabel10282417143D

 46 49  0  0  0  0  0  0  0  0999 V2000
    2.5482    1.8790   -0.0465 C   0  0  0  0  0  0  0  0  0  0  0  0
   -0.5972    2.0593    0.3789 C   0  0  0  0  0  0  0  0  0  0  0  0
    3.6792   -0.2208    0.2026 C   0  0  0  0  0  0  0  0  0  0  0  0
    1.5971   -1.7556    0.2481 C   0  0  0  0  0  0  0  0  0  0  0  0
    3.9293    1.2763    0.2726 C   0  0  0  0  0  0  0  0  0  0  0  0
   -2.1090   -0.4004    0.1248 C   0  0  0  0  0  0  0  0  0  0  0  0
    0.0992   -1.7437   -0.0941 C   0  0  0  0  0  0  0  0  0  0  0  0
   -2.0281    2.1251   -0.1657 C   0  0  0  0  0  0  0  0  0  0  0  0
    4.5130   -1.0707    0.4777 O   0  0  0  0  0  0  0  0  0  0  0  0
   -2.7911    0.8220   -0.0475 C   0  0  0  0  0  0  0  0  0  0  0  0
   -2.8632   -1.5752    0.1962 C   0  0  0  0  0  0  0  0  0  0  0  0
   -4.2059    0.8281   -0.1505 C   0  0  0  0  0  0  0  0  0  0  0  0
   -4.2499   -1.5568    0.1077 C   0  0  0  0  0  0  0  0  0  0  0  0
    0.1184    0.8198   -0.1612 C   0  0  2  0  0  0  0  0  0  0  0  0
    0.0607    0.8477   -1.2573 H   0  0  0  0  0  0  0  0  0  0  0  0
   -0.6090   -0.4473    0.3768 C   0  0  1  0  0  0  0  0  0  0  0  0
   -0.5173   -0.4361    1.4744 H   0  0  0  0  0  0  0  0  0  0  0  0
    2.2800   -0.5100   -0.2990 C   0  0  2  0  0  0  0  0  0  0  0  0
    2.3671   -0.5682   -1.8344 C   0  0  0  0  0  0  0  0  0  0  0  0
    1.5838    0.7409    0.2795 C   0  0  1  0  0  0  0  0  0  0  0  0
    1.5772    0.6682    1.3811 H   0  0  0  0  0  0  0  0  0  0  0  0
   -7.0422   -2.5017   -1.0790 O   0  0  0  0  0  0  0  0  0  0  0  0
   -7.0547   -2.1972    1.4154 O   0  0  0  0  0  0  0  0  0  0  0  0
   -8.7556   -1.1638    0.0140 O   0  0  0  0  0  0  0  0  0  0  0  0
   -7.2226   -1.6563    0.0801 S   0  0  0  0  0  0  0  0  0  0  0  0
   -6.3209   -0.2940   -0.0855 O   0  0  0  0  0  0  0  0  0  0  0  0
   -4.9422   -0.3611   -0.0460 C   0  0  0  0  0  0  0  0  0  0  0  0
    2.3636    2.7728    0.5573 H   0  0  0  0  0  0  0  0  0  0  0  0
    2.4838    2.1757   -1.0991 H   0  0  0  0  0  0  0  0  0  0  0  0
   -0.6197    2.0257    1.4761 H   0  0  0  0  0  0  0  0  0  0  0  0
   -0.0607    2.9726    0.0986 H   0  0  0  0  0  0  0  0  0  0  0  0
    2.0591   -2.6639   -0.1568 H   0  0  0  0  0  0  0  0  0  0  0  0
    1.7185   -1.8142    1.3379 H   0  0  0  0  0  0  0  0  0  0  0  0
    4.2588    1.5415    1.2802 H   0  0  0  0  0  0  0  0  0  0  0  0
    4.6725    1.5689   -0.4730 H   0  0  0  0  0  0  0  0  0  0  0  0
   -0.0474   -1.8706   -1.1739 H   0  0  0  0  0  0  0  0  0  0  0  0
   -0.3401   -2.6281    0.3779 H   0  0  0  0  0  0  0  0  0  0  0  0
   -2.5616    2.9212    0.3662 H   0  0  0  0  0  0  0  0  0  0  0  0
   -1.9895    2.4025   -1.2271 H   0  0  0  0  0  0  0  0  0  0  0  0
   -2.3996   -2.5440    0.3508 H   0  0  0  0  0  0  0  0  0  0  0  0
   -4.7247    1.7742   -0.2979 H   0  0  0  0  0  0  0  0  0  0  0  0
   -4.7458   -2.5184    0.1837 H   0  0  0  0  0  0  0  0  0  0  0  0
    2.9323   -1.4541   -2.1468 H   0  0  0  0  0  0  0  0  0  0  0  0
    1.3848   -0.6194   -2.3101 H   0  0  0  0  0  0  0  0  0  0  0  0
    2.8884    0.2960   -2.2575 H   0  0  0  0  0  0  0  0  0  0  0  0
   -9.3102   -1.9682    0.1026 H   0  0  0  0  0  0  0  0  0  0  0  0
  1 28  1  0  0  0  0
  1 29  1  0  0  0  0
  2  8  1  0  0  0  0
  2 30  1  0  0  0  0
  2 31  1  0  0  0  0
  3  9  2  0  0  0  0
  3  5  1  0  0  0  0
  4  7  1  0  0  0  0
  4 32  1  0  0  0  0
  4 33  1  0  0  0  0
  5  1  1  0  0  0  0
  5 34  1  0  0  0  0
  5 35  1  0  0  0  0
  6 10  2  0  0  0  0
  6 11  1  0  0  0  0
  7 36  1  0  0  0  0
  7 37  1  0  0  0  0
  8 10  1  0  0  0  0
  8 38  1  0  0  0  0
  8 39  1  0  0  0  0
 10 12  1  0  0  0  0
 11 13  2  0  0  0  0
 11 40  1  0  0  0  0
 12 27  2  0  0  0  0
 12 41  1  0  0  0  0
 13 27  1  0  0  0  0
 13 42  1  0  0  0  0
 14 16  1  0  0  0  0
 14  2  1  0  0  0  0
 14 15  1  6  0  0  0
 16  6  1  0  0  0  0
 16  7  1  0  0  0  0
 16 17  1  1  0  0  0
 18  3  1  0  0  0  0
 18  4  1  0  0  0  0
 18 19  1  6  0  0  0
 19 43  1  0  0  0  0
 19 44  1  0  0  0  0
 19 45  1  0  0  0  0
 20 14  1  0  0  0  0
 20 18  1  0  0  0  0
 20  1  1  0  0  0  0
 20 21  1  1  0  0  0
 24 46  1  0  0  0  0
 25 22  2  0  0  0  0
 25 23  2  0  0  0  0
 25 24  1  0  0  0  0
 25 26  1  0  0  0  0
 27 26  1  0  0  0  0
M  END
>  <DRUGBANK_ID>
DB04574

>  <COMMON_NAME>
Estrone sulfate

>  <CAS_NUMBER>
481-97-0

>  <UNII>
QTL48N278K

>  <SYNONYMS>
Estra-1,3,5 (10)-triene-17-one-3-yl-sulfate; Estrone 3-sulfate; Estrone bisulfate; Estrone hemisulfate; Estrone hydrogen sulfate; Estrone sulphate; Estrone-3-sulphate; Estrone, hydrogen sulfate

$$$$
