1482
 OpenBabel10282417113D

 48 50  0  0  1  0  0  0  0  0999 V2000
    1.1596   -0.0158    0.6857 O   0  0  0  0  0  0  0  0  0  0  0  0
    5.0514   -2.2506   -0.0515 O   0  0  0  0  0  0  0  0  0  0  0  0
    2.7175    2.5635    0.0682 N   0  0  0  0  0  0  0  0  0  0  0  0
    0.3624    1.3751   -1.3767 N   0  0  0  0  0  0  0  0  0  0  0  0
    5.1408    0.0449   -0.0021 N   0  0  0  0  0  0  0  0  0  0  0  0
    3.0645   -1.1243    0.0577 N   0  0  0  0  0  0  0  0  0  0  0  0
    4.9475    2.4935   -0.0368 N   0  0  0  0  0  0  0  0  0  0  0  0
   -0.2864    0.8438   -2.5588 C   0  0  3  0  0  0  0  0  0  0  0  0
    1.3759    3.1357    0.0282 C   0  0  0  0  0  0  0  0  0  0  0  0
    0.5672    2.8069   -1.2481 C   0  0  0  0  0  0  0  0  0  0  0  0
    3.0802    1.2391    0.1690 C   0  0  0  0  0  0  0  0  0  0  0  0
    0.5372    1.1980   -3.8224 C   0  0  0  0  0  0  0  0  0  0  0  0
    4.4373    1.2298    0.0291 C   0  0  0  0  0  0  0  0  0  0  0  0
   -0.4152   -0.6807   -2.3580 C   0  0  0  0  0  0  0  0  0  0  0  0
    3.8893    3.2825    0.0009 C   0  0  0  0  0  0  0  0  0  0  0  0
    2.3409    0.0270    0.3340 C   0  0  0  0  0  0  0  0  0  0  0  0
    1.9723    0.6852   -3.8283 C   0  0  0  0  0  0  0  0  0  0  0  0
    4.4549   -1.1703   -0.0127 C   0  0  0  0  0  0  0  0  0  0  0  0
    6.5847    0.0229   -0.0257 C   0  0  0  0  0  0  0  0  0  0  0  0
    2.3276   -2.3752    0.0493 C   0  0  0  0  0  0  0  0  0  0  0  0
    2.2491   -0.6895   -3.8856 C   0  0  0  0  0  0  0  0  0  0  0  0
    3.0547    1.5695   -3.7380 C   0  0  0  0  0  0  0  0  0  0  0  0
    3.5469   -1.1778   -3.7624 C   0  0  0  0  0  0  0  0  0  0  0  0
    4.3650    1.0837   -3.6955 C   0  0  0  0  0  0  0  0  0  0  0  0
    4.6091   -0.2884   -3.6918 C   0  0  0  0  0  0  0  0  0  0  0  0
    1.2756    0.9318   -1.3755 H   0  0  0  0  0  0  0  0  0  0  0  0
   -1.2994    1.2519   -2.6186 H   0  0  0  0  0  0  0  0  0  0  0  0
    0.8559    2.8088    0.9338 H   0  0  0  0  0  0  0  0  0  0  0  0
    1.4808    4.2279    0.0847 H   0  0  0  0  0  0  0  0  0  0  0  0
   -0.4081    3.3013   -1.2028 H   0  0  0  0  0  0  0  0  0  0  0  0
    1.1172    3.2160   -2.0993 H   0  0  0  0  0  0  0  0  0  0  0  0
    0.0174    0.8369   -4.7134 H   0  0  0  0  0  0  0  0  0  0  0  0
    0.5525    2.2915   -3.9212 H   0  0  0  0  0  0  0  0  0  0  0  0
   -1.0247   -0.9543   -1.4918 H   0  0  0  0  0  0  0  0  0  0  0  0
   -0.8426   -1.1476   -3.2509 H   0  0  0  0  0  0  0  0  0  0  0  0
    0.5493   -1.1547   -2.1608 H   0  0  0  0  0  0  0  0  0  0  0  0
    3.9147    4.3669   -0.0221 H   0  0  0  0  0  0  0  0  0  0  0  0
    6.9431    0.5235   -0.9279 H   0  0  0  0  0  0  0  0  0  0  0  0
    6.9610    0.5199    0.8722 H   0  0  0  0  0  0  0  0  0  0  0  0
    6.9659   -1.0027   -0.0275 H   0  0  0  0  0  0  0  0  0  0  0  0
    1.6839   -2.4287    0.9320 H   0  0  0  0  0  0  0  0  0  0  0  0
    1.6897   -2.4083   -0.8384 H   0  0  0  0  0  0  0  0  0  0  0  0
    2.9783   -3.2513    0.0307 H   0  0  0  0  0  0  0  0  0  0  0  0
    1.4500   -1.4163   -3.9975 H   0  0  0  0  0  0  0  0  0  0  0  0
    2.8959    2.6444   -3.6998 H   0  0  0  0  0  0  0  0  0  0  0  0
    3.7193   -2.2506   -3.7316 H   0  0  0  0  0  0  0  0  0  0  0  0
    5.1998    1.7783   -3.6531 H   0  0  0  0  0  0  0  0  0  0  0  0
    5.6262   -0.6661   -3.6441 H   0  0  0  0  0  0  0  0  0  0  0  0
  1 16  2  0  0  0  0
  2 18  2  0  0  0  0
  3  9  1  0  0  0  0
  3 11  1  0  0  0  0
  3 15  1  0  0  0  0
  4  8  1  0  0  0  0
  4 10  1  0  0  0  0
  4 26  1  0  0  0  0
  5 13  1  0  0  0  0
  5 18  1  0  0  0  0
  5 19  1  0  0  0  0
  6 16  1  0  0  0  0
  6 18  1  0  0  0  0
  6 20  1  0  0  0  0
  7 13  1  0  0  0  0
  7 15  2  0  0  0  0
  8 12  1  0  0  0  0
  8 14  1  0  0  0  0
  8 27  1  0  0  0  0
  9 10  1  0  0  0  0
  9 28  1  0  0  0  0
  9 29  1  0  0  0  0
 10 30  1  0  0  0  0
 10 31  1  0  0  0  0
 11 13  2  0  0  0  0
 11 16  1  0  0  0  0
 12 17  1  0  0  0  0
 12 32  1  0  0  0  0
 12 33  1  0  0  0  0
 14 34  1  0  0  0  0
 14 35  1  0  0  0  0
 14 36  1  0  0  0  0
 15 37  1  0  0  0  0
 17 21  2  0  0  0  0
 17 22  1  0  0  0  0
 19 38  1  0  0  0  0
 19 39  1  0  0  0  0
 19 40  1  0  0  0  0
 20 41  1  0  0  0  0
 20 42  1  0  0  0  0
 20 43  1  0  0  0  0
 21 23  1  0  0  0  0
 21 44  1  0  0  0  0
 22 24  2  0  0  0  0
 22 45  1  0  0  0  0
 23 25  2  0  0  0  0
 23 46  1  0  0  0  0
 24 25  1  0  0  0  0
 24 47  1  0  0  0  0
 25 48  1  0  0  0  0
M  END
>  <DRUGBANK_ID>
DB01482

>  <COMMON_NAME>
Fenethylline

>  <CAS_NUMBER>
3736-08-1

>  <UNII>
YZ0N7VL5R3

>  <SYNONYMS>
Amfetyline; Fenethylline; Fenetilina; Fenetillina; Fenetylline; Fenetyllinum

$$$$
