483
 OpenBabel10282417103D

 99 96  0  0  0  0  0  0  0  0999 V2000
    0.9375   -0.0740    0.0249 O   0  0  0  0  0  0  0  0  0  0  0  0
    2.2884    2.2996   -0.0736 O   0  0  0  0  0  0  0  0  0  0  0  0
    2.4067   -2.5163   -0.3108 O   0  0  0  0  0  0  0  0  0  0  0  0
    2.0399    2.1874    1.3270 N   0  3  0  0  0  0  0  0  0  0  0  0
    1.0293    0.1278   -1.3862 N   0  3  0  0  0  0  0  0  0  0  0  0
    0.6443   -0.6416    0.8742 N   0  3  0  0  0  0  0  0  0  0  0  0
    0.5947    1.9189    1.3198 C   0  0  0  0  0  0  0  0  0  0  0  0
    0.5255    1.5044   -1.4969 C   0  0  0  0  0  0  0  0  0  0  0  0
    0.2376   -2.0264    0.5953 C   0  0  0  0  0  0  0  0  0  0  0  0
    0.2275    1.1553    0.0578 C   0  0  0  0  0  0  0  0  0  0  0  0
    2.3951    2.9901    0.1478 C   0  0  0  0  0  0  0  0  0  0  0  0
    2.3951    2.9258    2.5475 C   0  0  0  0  0  0  0  0  0  0  0  0
    0.8779    2.2758   -0.2355 C   0  0  0  0  0  0  0  0  0  0  0  0
    1.0167   -2.5525   -0.5991 C   0  0  0  0  0  0  0  0  0  0  0  0
    0.4137   -0.5273   -0.2232 C   0  0  0  0  0  0  0  0  0  0  0  0
    0.6886   -0.6182   -2.6061 C   0  0  0  0  0  0  0  0  0  0  0  0
    0.3656    0.1970   -0.3006 C   0  0  0  0  0  0  0  0  0  0  0  0
   -0.1092   -0.1328    2.0293 C   0  0  0  0  0  0  0  0  0  0  0  0
    2.3575   -0.0740    0.0249 C   0  0  0  0  0  0  0  0  0  0  0  0
    3.0089    1.0827    0.0559 C   0  0  0  0  0  0  0  0  0  0  0  0
    3.0369   -1.2806   -0.0074 C   0  0  0  0  0  0  0  0  0  0  0  0
    1.6351    4.3060    0.1831 C   0  0  0  0  0  0  0  0  0  0  0  0
    2.0279    2.0958    3.7668 C   0  0  0  0  0  0  0  0  0  0  0  0
   -1.0962   -0.5527   -0.3964 C   0  0  0  0  0  0  0  0  0  0  0  0
    1.3252    0.0591   -3.8087 C   0  0  0  0  0  0  0  0  0  0  0  0
   -1.1222    0.1583   -0.6093 C   0  0  0  0  0  0  0  0  0  0  0  0
    0.1790   -0.9999    3.2440 C   0  0  0  0  0  0  0  0  0  0  0  0
    4.3736    1.1129    0.2122 C   0  0  0  0  0  0  0  0  0  0  0  0
    4.4160   -1.1700    0.2893 C   0  0  0  0  0  0  0  0  0  0  0  0
    5.1030   -0.0430    0.2477 C   0  0  0  0  0  0  0  0  0  0  0  0
    2.0832   -0.6041    1.1727 C   0  0  0  0  0  0  0  0  0  0  0  0
    2.3714   -1.4712    2.3874 C   0  0  0  0  0  0  0  0  0  0  0  0
    2.7749    0.9148    1.2929 C   0  0  0  0  0  0  0  0  0  0  0  0
    2.4077    0.0848    2.5122 C   0  0  0  0  0  0  0  0  0  0  0  0
    2.4895    0.1524   -1.2187 C   0  0  0  0  0  0  0  0  0  0  0  0
    3.1262    0.8298   -2.4213 C   0  0  0  0  0  0  0  0  0  0  0  0
    0.9546   -0.0873    0.0180 I   0  5  0  0  0  0  0  0  0  0  0  0
    0.9389   -0.0306    0.0730 I   0  5  0  0  0  0  0  0  0  0  0  0
    0.9566   -0.0400   -0.0808 I   0  5  0  0  0  0  0  0  0  0  0  0
    0.0597    2.8452    1.3446 H   0  0  0  0  0  0  0  0  0  0  0  0
    0.3362    1.3346    2.1781 H   0  0  0  0  0  0  0  0  0  0  0  0
   -0.5373    1.4864   -1.6188 H   0  0  0  0  0  0  0  0  0  0  0  0
    0.9737    1.9812   -2.3434 H   0  0  0  0  0  0  0  0  0  0  0  0
   -0.8097   -2.0537    0.3780 H   0  0  0  0  0  0  0  0  0  0  0  0
    0.4405   -2.6368    1.4503 H   0  0  0  0  0  0  0  0  0  0  0  0
    0.4860    1.7396   -0.8005 H   0  0  0  0  0  0  0  0  0  0  0  0
   -0.8245    0.9599    0.0526 H   0  0  0  0  0  0  0  0  0  0  0  0
    3.4470    3.1856    0.1531 H   0  0  0  0  0  0  0  0  0  0  0  0
    2.1366    2.4526   -0.7405 H   0  0  0  0  0  0  0  0  0  0  0  0
    3.4470    3.1213    2.5527 H   0  0  0  0  0  0  0  0  0  0  0  0
    1.8601    3.8521    2.5723 H   0  0  0  0  0  0  0  0  0  0  0  0
    0.4298    1.7989    0.6111 H   0  0  0  0  0  0  0  0  0  0  0  0
    0.5112    3.2778   -0.3160 H   0  0  0  0  0  0  0  0  0  0  0  0
    0.8139   -1.9421   -1.4542 H   0  0  0  0  0  0  0  0  0  0  0  0
    0.7207   -3.5605   -0.8021 H   0  0  0  0  0  0  0  0  0  0  0  0
    0.7804   -1.5293   -0.1426 H   0  0  0  0  0  0  0  0  0  0  0  0
    0.6617    0.0158    0.6648 H   0  0  0  0  0  0  0  0  0  0  0  0
    1.0553   -1.6202   -2.5256 H   0  0  0  0  0  0  0  0  0  0  0  0
   -0.3743   -0.6361   -2.7280 H   0  0  0  0  0  0  0  0  0  0  0  0
    0.6616    1.2050   -0.0976 H   0  0  0  0  0  0  0  0  0  0  0  0
    0.9141   -0.1734   -1.1414 H   0  0  0  0  0  0  0  0  0  0  0  0
    0.1868    0.8752    2.2323 H   0  0  0  0  0  0  0  0  0  0  0  0
   -1.1565   -0.1601    1.8120 H   0  0  0  0  0  0  0  0  0  0  0  0
    1.8936    4.8435    1.0715 H   0  0  0  0  0  0  0  0  0  0  0  0
    1.8936    4.8903   -0.6752 H   0  0  0  0  0  0  0  0  0  0  0  0
    0.5831    4.1105    0.1779 H   0  0  0  0  0  0  0  0  0  0  0  0
    2.5629    1.1695    3.7420 H   0  0  0  0  0  0  0  0  0  0  0  0
    2.2863    2.6333    4.6551 H   0  0  0  0  0  0  0  0  0  0  0  0
    0.9759    1.9004    3.7615 H   0  0  0  0  0  0  0  0  0  0  0  0
   -1.3443   -1.0958   -1.2843 H   0  0  0  0  0  0  0  0  0  0  0  0
   -1.5444   -1.0296    0.4502 H   0  0  0  0  0  0  0  0  0  0  0  0
   -1.4629    0.4492   -0.4769 H   0  0  0  0  0  0  0  0  0  0  0  0
    2.3880    0.0771   -3.6868 H   0  0  0  0  0  0  0  0  0  0  0  0
    1.0771   -0.4839   -4.6967 H   0  0  0  0  0  0  0  0  0  0  0  0
    0.9585    1.0611   -3.8893 H   0  0  0  0  0  0  0  0  0  0  0  0
   -1.6707    0.5286    0.2315 H   0  0  0  0  0  0  0  0  0  0  0  0
   -1.3251    0.7686   -1.4643 H   0  0  0  0  0  0  0  0  0  0  0  0
   -1.4182   -0.8497   -0.8123 H   0  0  0  0  0  0  0  0  0  0  0  0
    1.2264   -0.9726    3.4613 H   0  0  0  0  0  0  0  0  0  0  0  0
   -0.3695   -0.6296    4.0848 H   0  0  0  0  0  0  0  0  0  0  0  0
   -0.1170   -2.0079    3.0410 H   0  0  0  0  0  0  0  0  0  0  0  0
    4.8727    2.0546    0.3075 H   0  0  0  0  0  0  0  0  0  0  0  0
    4.9386   -2.0616    0.5666 H   0  0  0  0  0  0  0  0  0  0  0  0
    6.1730   -0.0348    0.2421 H   0  0  0  0  0  0  0  0  0  0  0  0
    2.6317   -0.9745    0.3319 H   0  0  0  0  0  0  0  0  0  0  0  0
    2.3792    0.4039    1.3757 H   0  0  0  0  0  0  0  0  0  0  0  0
    2.0754   -2.4792    2.1844 H   0  0  0  0  0  0  0  0  0  0  0  0
    3.4187   -1.4440    2.6047 H   0  0  0  0  0  0  0  0  0  0  0  0
    1.8229   -1.1009    3.2282 H   0  0  0  0  0  0  0  0  0  0  0  0
    2.5164    0.3773    0.4046 H   0  0  0  0  0  0  0  0  0  0  0  0
    3.8269    1.1103    1.2982 H   0  0  0  0  0  0  0  0  0  0  0  0
    1.3558   -0.1107    2.5070 H   0  0  0  0  0  0  0  0  0  0  0  0
    2.9427   -0.8415    2.4874 H   0  0  0  0  0  0  0  0  0  0  0  0
    2.6662    0.6223    3.4006 H   0  0  0  0  0  0  0  0  0  0  0  0
    2.7376    0.6955   -0.3307 H   0  0  0  0  0  0  0  0  0  0  0  0
    2.8562   -0.8495   -1.1382 H   0  0  0  0  0  0  0  0  0  0  0  0
    2.7594    1.8318   -2.5019 H   0  0  0  0  0  0  0  0  0  0  0  0
    4.1890    0.8477   -2.2994 H   0  0  0  0  0  0  0  0  0  0  0  0
    2.8781    0.2868   -3.3093 H   0  0  0  0  0  0  0  0  0  0  0  0
  1 10  1  0  0  0  0
  1 19  1  0  0  0  0
  2 13  1  0  0  0  0
  2 20  1  0  0  0  0
  3 14  1  0  0  0  0
  3 21  1  0  0  0  0
  4  7  1  0  0  0  0
  4 11  1  0  0  0  0
  4 12  1  0  0  0  0
  4 33  1  0  0  0  0
  5  8  1  0  0  0  0
  5 15  1  0  0  0  0
  5 16  1  0  0  0  0
  5 35  1  0  0  0  0
  6  9  1  0  0  0  0
  6 17  1  0  0  0  0
  6 18  1  0  0  0  0
  6 31  1  0  0  0  0
  7 10  1  0  0  0  0
  7 40  1  0  0  0  0
  7 41  1  0  0  0  0
  8 13  1  0  0  0  0
  8 42  1  0  0  0  0
  8 43  1  0  0  0  0
  9 14  1  0  0  0  0
  9 44  1  0  0  0  0
  9 45  1  0  0  0  0
 10 46  1  0  0  0  0
 10 47  1  0  0  0  0
 11 22  1  0  0  0  0
 11 48  1  0  0  0  0
 11 49  1  0  0  0  0
 12 23  1  0  0  0  0
 12 50  1  0  0  0  0
 12 51  1  0  0  0  0
 13 52  1  0  0  0  0
 13 53  1  0  0  0  0
 14 54  1  0  0  0  0
 14 55  1  0  0  0  0
 15 24  1  0  0  0  0
 15 56  1  0  0  0  0
 15 57  1  0  0  0  0
 16 25  1  0  0  0  0
 16 58  1  0  0  0  0
 16 59  1  0  0  0  0
 17 26  1  0  0  0  0
 17 60  1  0  0  0  0
 17 61  1  0  0  0  0
 18 27  1  0  0  0  0
 18 62  1  0  0  0  0
 18 63  1  0  0  0  0
 19 20  2  0  0  0  0
 19 21  1  0  0  0  0
 20 28  1  0  0  0  0
 21 29  2  0  0  0  0
 22 64  1  0  0  0  0
 22 65  1  0  0  0  0
 22 66  1  0  0  0  0
 23 67  1  0  0  0  0
 23 68  1  0  0  0  0
 23 69  1  0  0  0  0
 24 70  1  0  0  0  0
 24 71  1  0  0  0  0
 24 72  1  0  0  0  0
 25 73  1  0  0  0  0
 25 74  1  0  0  0  0
 25 75  1  0  0  0  0
 26 76  1  0  0  0  0
 26 77  1  0  0  0  0
 26 78  1  0  0  0  0
 27 79  1  0  0  0  0
 27 80  1  0  0  0  0
 27 81  1  0  0  0  0
 28 30  2  0  0  0  0
 28 82  1  0  0  0  0
 29 30  1  0  0  0  0
 29 83  1  0  0  0  0
 30 84  1  0  0  0  0
 31 32  1  0  0  0  0
 31 85  1  0  0  0  0
 31 86  1  0  0  0  0
 32 87  1  0  0  0  0
 32 88  1  0  0  0  0
 32 89  1  0  0  0  0
 33 34  1  0  0  0  0
 33 90  1  0  0  0  0
 33 91  1  0  0  0  0
 34 92  1  0  0  0  0
 34 93  1  0  0  0  0
 34 94  1  0  0  0  0
 35 36  1  0  0  0  0
 35 95  1  0  0  0  0
 35 96  1  0  0  0  0
 36 97  1  0  0  0  0
 36 98  1  0  0  0  0
 36 99  1  0  0  0  0
M  CHG  6   4   1   5   1   6   1  37  -1  38  -1  39  -1
M  END
>  <DRUGBANK_ID>
DB00483

>  <SECONDARY_ACCESSION_NUMBERS>
APRD00712

>  <COMMON_NAME>
Gallamine triethiodide

>  <CAS_NUMBER>
65-29-2

>  <UNII>
Q3254X40X2

>  <SYNONYMS>
Gallamin triethiodid; Gallamine triethiodide; Gallamini Triethiodidum; Tri√©thiodure de Gallamine; Trietioduro de galamina

$$$$
