
 OpenBabel10282417223D

315324  0  0  0  0  0  0  0  0999 V2000
   -8.3665    5.2223   25.6344 O   0  0  0  0  0  0  0  0  0  0  0  0
   -5.4335    4.9372   27.6457 O   0  0  0  0  0  0  0  0  0  0  0  0
   -7.7160    7.4856   22.6113 O   0  0  0  0  0  0  0  0  0  0  0  0
   -6.5465    3.2675   22.7137 O   0  0  0  0  0  0  0  0  0  0  0  0
   -5.0141    9.7755   26.3526 O   0  0  0  0  0  0  0  0  0  0  0  0
   -5.8005    8.5409   17.5282 O   0  0  0  0  0  0  0  0  0  0  0  0
   -9.8075    7.8535   26.0998 O   0  0  0  0  0  0  0  0  0  0  0  0
  -10.9549    5.2662   19.4547 O   0  0  0  0  0  0  0  0  0  0  0  0
   -3.7441    7.9564   23.3325 O   0  0  0  0  0  0  0  0  0  0  0  0
  -12.7691    9.4333   16.0447 O   0  0  0  0  0  0  0  0  0  0  0  0
   -9.0236    8.8885   20.9171 O   0  0  0  0  0  0  0  0  0  0  0  0
   -9.2992   10.7914   20.1495 O   0  0  0  0  0  0  0  0  0  0  0  0
   -8.7780   10.9767   16.3348 O   0  0  0  0  0  0  0  0  0  0  0  0
   -7.0973   12.0699   25.1952 O   0  0  0  0  0  0  0  0  0  0  0  0
   -5.9835    6.0612   14.9854 O   0  0  0  0  0  0  0  0  0  0  0  0
   -7.3795    6.9597   12.8133 O   0  0  0  0  0  0  0  0  0  0  0  0
   -6.5638    8.0403   15.6323 O   0  0  0  0  0  0  0  0  0  0  0  0
   -5.7355   10.4836   19.1209 O   0  0  0  0  0  0  0  0  0  0  0  0
   -5.8451   11.9845   12.1255 O   0  0  0  0  0  0  0  0  0  0  0  0
   -1.3104   11.3681   11.4286 O   0  0  0  0  0  0  0  0  0  0  0  0
   -7.4176   10.5904   10.2524 O   0  0  0  0  0  0  0  0  0  0  0  0
   -6.7542    9.0170   11.4517 O   0  0  0  0  0  0  0  0  0  0  0  0
  -10.3270   13.0389   21.4645 O   0  0  0  0  0  0  0  0  0  0  0  0
   -2.0967   12.5162    7.0554 O   0  0  0  0  0  0  0  0  0  0  0  0
   -2.7575   12.8020    9.1712 O   0  0  0  0  0  0  0  0  0  0  0  0
   -1.7676   14.2236   16.4270 O   0  0  0  0  0  0  0  0  0  0  0  0
   -4.5347   14.6425   21.0704 O   0  0  0  0  0  0  0  0  0  0  0  0
  -13.7272   15.3575   17.7118 O   0  0  0  0  0  0  0  0  0  0  0  0
   -8.7486    4.2393   23.1045 N   0  0  0  0  0  0  0  0  0  0  0  0
   -7.4071    3.8173   26.7856 N   0  0  0  0  0  0  0  0  0  0  0  0
   -6.1450    7.7649   20.7069 N   0  0  0  0  0  0  0  0  0  0  0  0
   -5.6646    4.2340   24.4465 N   0  0  0  0  0  0  0  0  0  0  0  0
   -8.7477    6.5098   24.4029 N   0  0  0  0  0  0  0  0  0  0  0  0
   -8.4078    7.4353   18.3916 N   0  0  0  0  0  0  0  0  0  0  0  0
   -3.9952    7.7718   26.3971 N   0  0  0  0  0  0  0  0  0  0  0  0
   -5.8098    8.3390   24.4785 N   0  0  0  0  0  0  0  0  0  0  0  0
   -7.4933    8.4916   19.5826 N   0  0  0  0  0  0  0  0  0  0  0  0
  -11.6982    6.8668   18.0947 N   0  0  0  0  0  0  0  0  0  0  0  0
   -7.2200    9.1631   21.6925 N   0  0  0  0  0  0  0  0  0  0  0  0
   -9.1983   10.0540   18.2945 N   0  0  0  0  0  0  0  0  0  0  0  0
  -13.9911    8.2469   22.0643 N   0  0  0  0  0  0  0  0  0  0  0  0
   -7.6567    9.3210   17.2545 N   0  0  0  0  0  0  0  0  0  0  0  0
   -2.9901   12.0843   23.8753 N   0  0  0  0  0  0  0  0  0  0  0  0
  -10.8518    8.2744   15.7055 N   0  0  0  0  0  0  0  0  0  0  0  0
   -8.7112   11.4718   23.6699 N   0  0  0  0  0  0  0  0  0  0  0  0
   -8.0592    9.7850   14.9215 N   0  0  0  0  0  0  0  0  0  0  0  0
   -5.8470   11.7886   20.9496 N   0  0  0  0  0  0  0  0  0  0  0  0
   -5.8396    8.5488   13.4247 N   0  0  0  0  0  0  0  0  0  0  0  0
   -4.5440   10.5387   11.3074 N   0  0  0  0  0  0  0  0  0  0  0  0
   -9.2899   15.1962   24.7124 N   0  0  0  0  0  0  0  0  0  0  0  0
   -9.0422   12.7287   19.6148 N   0  0  0  0  0  0  0  0  0  0  0  0
   -1.3274    9.3275   12.6999 N   0  0  0  0  0  0  0  0  0  0  0  0
   -1.0158   10.3405    9.7861 N   0  0  0  0  0  0  0  0  0  0  0  0
   -6.7517   14.7789   21.1842 N   0  0  0  0  0  0  0  0  0  0  0  0
   -7.2060   14.8014   17.9802 N   0  0  0  0  0  0  0  0  0  0  0  0
   -8.7752    3.4700   25.8313 C   0  0  1  0  0  0  0  0  0  0  0  0
  -10.0029    4.2869   26.6496 C   0  0  0  0  0  0  0  0  0  0  0  0
   -7.8235    5.0261   21.6365 C   0  0  1  0  0  0  0  0  0  0  0  0
   -9.5629    3.7576   27.9673 C   0  0  0  0  0  0  0  0  0  0  0  0
   -7.9911    3.8561   28.0786 C   0  0  0  0  0  0  0  0  0  0  0  0
   -8.6452    4.3520   24.7790 C   0  0  0  0  0  0  0  0  0  0  0  0
   -9.6393    3.4030   22.4577 C   0  0  0  0  0  0  0  0  0  0  0  0
   -8.7560    4.7367   20.6082 C   0  0  0  0  0  0  0  0  0  0  0  0
   -9.3129    3.4663   20.9622 C   0  0  0  0  0  0  0  0  0  0  0  0
   -6.1303    4.5427   26.6956 C   0  0  0  0  0  0  0  0  0  0  0  0
   -7.4354    6.8840   21.6369 C   0  0  0  0  0  0  0  0  0  0  0  0
   -5.6408    5.2054   25.4891 C   0  0  2  0  0  0  0  0  0  0  0  0
   -6.3695    6.4939   25.7699 C   0  0  0  0  0  0  0  0  0  0  0  0
   -6.3085    7.6918   26.8420 C   0  0  0  0  0  0  0  0  0  0  0  0
   -5.4171    7.4534   19.2812 C   0  0  0  0  0  0  0  0  0  0  0  0
   -6.5885    4.1949   23.5267 C   0  0  0  0  0  0  0  0  0  0  0  0
   -7.3635    5.7334   23.6043 C   0  0  2  0  0  0  0  0  0  0  0  0
   -5.8657    6.1781   22.7666 C   0  0  0  0  0  0  0  0  0  0  0  0
   -5.0580    8.5919   26.6812 C   0  0  0  0  0  0  0  0  0  0  0  0
   -6.6412    7.6501   18.1052 C   0  0  0  0  0  0  0  0  0  0  0  0
   -5.5884    5.9449   21.0557 C   0  0  0  0  0  0  0  0  0  0  0  0
   -8.8633    7.5473   25.3706 C   0  0  0  0  0  0  0  0  0  0  0  0
   -7.7003    8.4577   25.0009 C   0  0  2  0  0  0  0  0  0  0  0  0
   -9.9684    7.4461   19.5827 C   0  0  1  0  0  0  0  0  0  0  0  0
   -7.1264    6.5897   19.7006 C   0  0  0  0  0  0  0  0  0  0  0  0
   -8.6975    8.9017   24.0026 C   0  0  2  0  0  0  0  0  0  0  0  0
  -11.0015    8.6951   20.6343 C   0  0  0  0  0  0  0  0  0  0  0  0
   -9.7988    8.2304   22.9619 C   0  0  0  0  0  0  0  0  0  0  0  0
  -10.8657    6.4123   19.0507 C   0  0  0  0  0  0  0  0  0  0  0  0
  -12.0995    9.6150   20.3145 C   0  0  0  0  0  0  0  0  0  0  0  0
   -7.4916    9.6680   23.8907 C   0  0  0  0  0  0  0  0  0  0  0  0
   -4.8692    8.4814   23.3784 C   0  0  0  0  0  0  0  0  0  0  0  0
  -13.0461    8.4652   20.1461 C   0  0  0  0  0  0  0  0  0  0  0  0
  -10.8485    7.2337   23.1183 C   0  0  0  0  0  0  0  0  0  0  0  0
   -5.5123    9.1106   22.1609 C   0  0  2  0  0  0  0  0  0  0  0  0
   -7.8517    9.6295   18.4596 C   0  0  0  0  0  0  0  0  0  0  0  0
  -13.3388    7.3939   21.1467 C   0  0  0  0  0  0  0  0  0  0  0  0
   -5.4829   10.3761   22.6291 C   0  0  0  0  0  0  0  0  0  0  0  0
  -11.8404    8.3204   17.8491 C   0  0  0  0  0  0  0  0  0  0  0  0
   -4.3007   10.9061   22.9192 C   0  0  0  0  0  0  0  0  0  0  0  0
  -11.8770    8.7127   16.4596 C   0  0  0  0  0  0  0  0  0  0  0  0
   -8.4935    9.5532   21.7965 C   0  0  0  0  0  0  0  0  0  0  0  0
   -3.3435   10.8638   21.9840 C   0  0  0  0  0  0  0  0  0  0  0  0
   -4.1726   11.5514   24.0970 C   0  0  0  0  0  0  0  0  0  0  0  0
   -9.0917   10.8200   22.3292 C   0  0  2  0  0  0  0  0  0  0  0  0
   -2.5430   11.7618   22.5989 C   0  0  0  0  0  0  0  0  0  0  0  0
   -9.5897    8.1283   16.3170 C   0  0  1  0  0  0  0  0  0  0  0  0
   -3.2224   10.3345   20.6670 C   0  0  0  0  0  0  0  0  0  0  0  0
   -8.3594   11.0243   21.1078 C   0  0  0  0  0  0  0  0  0  0  0  0
   -1.4776   12.1215   21.8465 C   0  0  0  0  0  0  0  0  0  0  0  0
   -9.0217    6.5744   16.3163 C   0  0  0  0  0  0  0  0  0  0  0  0
   -2.2197   10.7489   19.8927 C   0  0  0  0  0  0  0  0  0  0  0  0
   -1.3679   11.6431   20.5074 C   0  0  0  0  0  0  0  0  0  0  0  0
   -8.9983    9.8413   15.8480 C   0  0  0  0  0  0  0  0  0  0  0  0
   -7.3704   12.0141   23.9959 C   0  0  0  0  0  0  0  0  0  0  0  0
   -6.3623   12.5252   22.5943 C   0  0  2  0  0  0  0  0  0  0  0  0
   -8.3460    6.3681   15.0755 C   0  0  0  0  0  0  0  0  0  0  0  0
   -8.3381    8.9536   13.8734 C   0  0  1  0  0  0  0  0  0  0  0  0
   -7.5977   13.1953   22.4726 C   0  0  0  0  0  0  0  0  0  0  0  0
   -9.0863    9.9343   13.0719 C   0  0  0  0  0  0  0  0  0  0  0  0
   -7.9884   14.2459   23.3547 C   0  0  0  0  0  0  0  0  0  0  0  0
   -5.4114    9.9688   13.6177 C   0  0  1  0  0  0  0  0  0  0  0  0
   -7.1717    8.0813   13.3121 C   0  0  0  0  0  0  0  0  0  0  0  0
   -3.7542    8.2621   10.2781 C   0  0  2  0  0  0  0  0  0  0  0  0
   -3.4925    9.5459   11.1072 C   0  0  1  0  0  0  0  0  0  0  0  0
   -6.9259    6.9131   15.3730 C   0  0  0  0  0  0  0  0  0  0  0  0
   -4.2822   10.1743   14.5744 C   0  0  0  0  0  0  0  0  0  0  0  0
   -6.3401   11.3955   19.6710 C   0  0  0  0  0  0  0  0  0  0  0  0
   -7.5380   15.5866   23.3690 C   0  0  0  0  0  0  0  0  0  0  0  0
   -5.2279   10.9357   12.3769 C   0  0  0  0  0  0  0  0  0  0  0  0
   -8.0448   10.8520   12.5722 C   0  0  0  0  0  0  0  0  0  0  0  0
   -3.7514    8.7167    8.8617 C   0  0  0  0  0  0  0  0  0  0  0  0
   -7.4926   12.1947   19.0444 C   0  0  2  0  0  0  0  0  0  0  0  0
   -3.0481    9.5539   14.0912 C   0  0  0  0  0  0  0  0  0  0  0  0
   -9.1620   14.0561   24.0476 C   0  0  0  0  0  0  0  0  0  0  0  0
   -5.0348    7.4383   10.3788 C   0  0  0  0  0  0  0  0  0  0  0  0
   -8.4366   16.1468   24.2050 C   0  0  0  0  0  0  0  0  0  0  0  0
   -1.9351   10.5136   10.7565 C   0  0  0  0  0  0  0  0  0  0  0  0
   -2.5790    8.2284   14.0416 C   0  0  0  0  0  0  0  0  0  0  0  0
   -6.4147   13.1276   19.2262 C   0  0  0  0  0  0  0  0  0  0  0  0
   -4.1163   10.2162    8.7534 C   0  0  0  0  0  0  0  0  0  0  0  0
   -6.6835   16.5036   22.6041 C   0  0  0  0  0  0  0  0  0  0  0  0
   -2.2394   10.2234   13.2519 C   0  0  0  0  0  0  0  0  0  0  0  0
   -1.5530    8.0808   13.1237 C   0  0  0  0  0  0  0  0  0  0  0  0
   -7.4018   10.0304   11.4365 C   0  0  0  0  0  0  0  0  0  0  0  0
   -8.2577   17.5049   24.3453 C   0  0  0  0  0  0  0  0  0  0  0  0
   -5.1853   13.3251   18.3392 C   0  0  0  0  0  0  0  0  0  0  0  0
   -3.0089    7.1126   14.6846 C   0  0  0  0  0  0  0  0  0  0  0  0
   -6.5386   17.8132   22.5845 C   0  0  0  0  0  0  0  0  0  0  0  0
   -9.4119   13.4602   20.7305 C   0  0  0  0  0  0  0  0  0  0  0  0
   -7.3270   18.2835   23.5475 C   0  0  0  0  0  0  0  0  0  0  0  0
   -0.8690    6.9441   12.7355 C   0  0  0  0  0  0  0  0  0  0  0  0
   -8.5156   14.7937   20.9560 C   0  0  2  0  0  0  0  0  0  0  0  0
   -1.4757   10.6886    8.5103 C   0  0  0  0  0  0  0  0  0  0  0  0
   -2.2447    5.9717   14.4795 C   0  0  0  0  0  0  0  0  0  0  0  0
   -1.1970    5.8794   13.5381 C   0  0  0  0  0  0  0  0  0  0  0  0
   -8.7680   15.4006   19.7053 C   0  0  0  0  0  0  0  0  0  0  0  0
   -4.0483   12.7939   18.8127 C   0  0  0  0  0  0  0  0  0  0  0  0
   -5.0314   14.3174   17.3118 C   0  0  0  0  0  0  0  0  0  0  0  0
   -2.1255   12.1486    8.3485 C   0  0  0  0  0  0  0  0  0  0  0  0
   -2.9357   13.0393   18.0941 C   0  0  0  0  0  0  0  0  0  0  0  0
   -3.9189   14.7662   16.7634 C   0  0  0  0  0  0  0  0  0  0  0  0
  -10.1013   15.5692   19.2350 C   0  0  0  0  0  0  0  0  0  0  0  0
   -2.8932   14.0048   17.1036 C   0  0  0  0  0  0  0  0  0  0  0  0
   -5.5931   14.9785   20.5239 C   0  0  0  0  0  0  0  0  0  0  0  0
  -10.1407   15.7748   17.8733 C   0  0  0  0  0  0  0  0  0  0  0  0
  -11.1573   15.1831   20.0401 C   0  0  0  0  0  0  0  0  0  0  0  0
   -6.0099   15.5645   19.1509 C   0  0  0  0  0  0  0  0  0  0  0  0
  -11.3769   15.7384   17.3400 C   0  0  0  0  0  0  0  0  0  0  0  0
  -12.3383   14.9507   19.4672 C   0  0  0  0  0  0  0  0  0  0  0  0
  -12.4509   15.3305   18.1523 C   0  0  0  0  0  0  0  0  0  0  0  0
   -9.0004    9.8867   19.8724 H   0  0  0  0  0  0  0  0  0  0  0  0
   -6.0059    6.2452   14.0161 H   0  0  0  0  0  0  0  0  0  0  0  0
   -6.8483   11.3516   10.4572 H   0  0  0  0  0  0  0  0  0  0  0  0
   -1.7151   11.7920    6.5335 H   0  0  0  0  0  0  0  0  0  0  0  0
   -1.2280   13.4858   16.7306 H   0  0  0  0  0  0  0  0  0  0  0  0
  -13.6861   15.7173   16.8196 H   0  0  0  0  0  0  0  0  0  0  0  0
   -6.3927    8.7414   20.4377 H   0  0  0  0  0  0  0  0  0  0  0  0
   -4.9459    3.5753   24.1957 H   0  0  0  0  0  0  0  0  0  0  0  0
   -9.6311    5.8887   24.3997 H   0  0  0  0  0  0  0  0  0  0  0  0
   -8.8092    8.3291   18.1351 H   0  0  0  0  0  0  0  0  0  0  0  0
   -4.1415    6.7799   26.4301 H   0  0  0  0  0  0  0  0  0  0  0  0
   -3.2288    8.1144   25.8259 H   0  0  0  0  0  0  0  0  0  0  0  0
   -5.1645    7.7448   24.9749 H   0  0  0  0  0  0  0  0  0  0  0  0
   -8.4676    8.4094   19.8295 H   0  0  0  0  0  0  0  0  0  0  0  0
  -12.4870    6.2393   18.1144 H   0  0  0  0  0  0  0  0  0  0  0  0
   -7.5511    8.4588   21.0775 H   0  0  0  0  0  0  0  0  0  0  0  0
   -9.1370   10.9059   17.6765 H   0  0  0  0  0  0  0  0  0  0  0  0
   -9.7725   10.6371   18.9111 H   0  0  0  0  0  0  0  0  0  0  0  0
  -14.2928    7.7148   22.8523 H   0  0  0  0  0  0  0  0  0  0  0  0
  -13.3259    8.9632   22.3750 H   0  0  0  0  0  0  0  0  0  0  0  0
   -6.6824    9.2986   16.9538 H   0  0  0  0  0  0  0  0  0  0  0  0
   -2.5934   12.6271   24.6071 H   0  0  0  0  0  0  0  0  0  0  0  0
  -10.7901    8.8553   14.9062 H   0  0  0  0  0  0  0  0  0  0  0  0
   -9.0932   11.1000   24.5244 H   0  0  0  0  0  0  0  0  0  0  0  0
   -7.1902    9.8031   15.4396 H   0  0  0  0  0  0  0  0  0  0  0  0
   -5.1723   11.0472   20.8666 H   0  0  0  0  0  0  0  0  0  0  0  0
   -5.2352    8.0101   12.8306 H   0  0  0  0  0  0  0  0  0  0  0  0
   -4.7907   11.2030   10.5933 H   0  0  0  0  0  0  0  0  0  0  0  0
   -9.9968   15.2663   25.4095 H   0  0  0  0  0  0  0  0  0  0  0  0
   -9.6883   11.9724   19.8628 H   0  0  0  0  0  0  0  0  0  0  0  0
   -0.7796    9.3902   11.8441 H   0  0  0  0  0  0  0  0  0  0  0  0
   -0.3175   11.0201   10.1016 H   0  0  0  0  0  0  0  0  0  0  0  0
   -6.3054   14.5389   22.0935 H   0  0  0  0  0  0  0  0  0  0  0  0
   -7.2767   15.0168   17.0002 H   0  0  0  0  0  0  0  0  0  0  0  0
   -7.0132   13.7937   17.6852 H   0  0  0  0  0  0  0  0  0  0  0  0
   -8.8199    2.6260   25.1972 H   0  0  0  0  0  0  0  0  0  0  0  0
  -10.0524    5.4193   26.8018 H   0  0  0  0  0  0  0  0  0  0  0  0
  -10.9607    4.1288   26.1439 H   0  0  0  0  0  0  0  0  0  0  0  0
   -6.8868    4.5594   21.3920 H   0  0  0  0  0  0  0  0  0  0  0  0
  -10.0785    4.2284   28.8025 H   0  0  0  0  0  0  0  0  0  0  0  0
   -9.8498    2.7168   27.8571 H   0  0  0  0  0  0  0  0  0  0  0  0
   -7.6363    4.6654   28.7315 H   0  0  0  0  0  0  0  0  0  0  0  0
   -7.5962    2.8939   28.3551 H   0  0  0  0  0  0  0  0  0  0  0  0
  -10.5866    3.8750   22.7257 H   0  0  0  0  0  0  0  0  0  0  0  0
   -9.2997    2.4628   22.8316 H   0  0  0  0  0  0  0  0  0  0  0  0
   -9.4460    5.4961   20.8682 H   0  0  0  0  0  0  0  0  0  0  0  0
   -8.2566    4.7163   19.6288 H   0  0  0  0  0  0  0  0  0  0  0  0
  -10.1890    3.4299   20.3439 H   0  0  0  0  0  0  0  0  0  0  0  0
   -8.4689    2.8678   20.6231 H   0  0  0  0  0  0  0  0  0  0  0  0
   -4.6767    5.6349   25.2371 H   0  0  0  0  0  0  0  0  0  0  0  0
   -6.3382    6.7260   24.7570 H   0  0  0  0  0  0  0  0  0  0  0  0
   -7.3277    6.5825   25.5327 H   0  0  0  0  0  0  0  0  0  0  0  0
   -7.0746    8.4851   26.8164 H   0  0  0  0  0  0  0  0  0  0  0  0
   -6.8020    7.3272   27.7163 H   0  0  0  0  0  0  0  0  0  0  0  0
   -4.5396    8.0949   19.3270 H   0  0  0  0  0  0  0  0  0  0  0  0
   -5.1009    6.4259   19.1153 H   0  0  0  0  0  0  0  0  0  0  0  0
   -8.3042    5.9095   22.9964 H   0  0  0  0  0  0  0  0  0  0  0  0
   -5.9412    7.2022   22.7494 H   0  0  0  0  0  0  0  0  0  0  0  0
   -4.9863    6.1954   23.3841 H   0  0  0  0  0  0  0  0  0  0  0  0
   -4.6827    6.7142   21.1036 H   0  0  0  0  0  0  0  0  0  0  0  0
   -5.0055    5.0957   20.8793 H   0  0  0  0  0  0  0  0  0  0  0  0
   -7.8168    9.3718   25.6964 H   0  0  0  0  0  0  0  0  0  0  0  0
   -9.5579    7.0335   20.4502 H   0  0  0  0  0  0  0  0  0  0  0  0
   -7.0013    5.9666   18.7905 H   0  0  0  0  0  0  0  0  0  0  0  0
   -8.0928    6.3941   19.9882 H   0  0  0  0  0  0  0  0  0  0  0  0
   -9.4528    9.5677   24.3054 H   0  0  0  0  0  0  0  0  0  0  0  0
  -11.3927    8.1914   21.5015 H   0  0  0  0  0  0  0  0  0  0  0  0
  -10.6313    9.5097   21.2263 H   0  0  0  0  0  0  0  0  0  0  0  0
  -10.4378    9.0562   22.8406 H   0  0  0  0  0  0  0  0  0  0  0  0
   -9.4137    7.6575   22.0940 H   0  0  0  0  0  0  0  0  0  0  0  0
  -12.3590   10.3215   21.1332 H   0  0  0  0  0  0  0  0  0  0  0  0
  -11.5673   10.2546   19.6011 H   0  0  0  0  0  0  0  0  0  0  0  0
   -7.4908   10.3005   23.1221 H   0  0  0  0  0  0  0  0  0  0  0  0
   -6.8225   10.1451   24.6259 H   0  0  0  0  0  0  0  0  0  0  0  0
   -6.8211    9.1026   23.4127 H   0  0  0  0  0  0  0  0  0  0  0  0
  -13.8906    8.7315   19.5474 H   0  0  0  0  0  0  0  0  0  0  0  0
  -12.4554    7.7386   19.6735 H   0  0  0  0  0  0  0  0  0  0  0  0
  -11.3677    7.3645   24.0296 H   0  0  0  0  0  0  0  0  0  0  0  0
  -10.7470    6.2862   22.5374 H   0  0  0  0  0  0  0  0  0  0  0  0
   -9.9933    6.9996   23.5013 H   0  0  0  0  0  0  0  0  0  0  0  0
   -4.9141    9.0684   21.2647 H   0  0  0  0  0  0  0  0  0  0  0  0
  -13.8476    6.6070   20.5839 H   0  0  0  0  0  0  0  0  0  0  0  0
  -12.4758    6.8249   21.5437 H   0  0  0  0  0  0  0  0  0  0  0  0
   -6.2971   10.6667   22.0708 H   0  0  0  0  0  0  0  0  0  0  0  0
   -5.9721   10.8108   23.3957 H   0  0  0  0  0  0  0  0  0  0  0  0
  -12.7583    8.7722   18.1559 H   0  0  0  0  0  0  0  0  0  0  0  0
  -11.0688    8.8923   18.3686 H   0  0  0  0  0  0  0  0  0  0  0  0
   -4.9046   11.7134   24.9012 H   0  0  0  0  0  0  0  0  0  0  0  0
  -10.1454   10.9835   22.1481 H   0  0  0  0  0  0  0  0  0  0  0  0
   -9.9621    7.9884   17.2811 H   0  0  0  0  0  0  0  0  0  0  0  0
   -3.9861    9.8713   20.0326 H   0  0  0  0  0  0  0  0  0  0  0  0
   -7.8366   11.8551   21.0156 H   0  0  0  0  0  0  0  0  0  0  0  0
   -7.4993   10.5331   20.6851 H   0  0  0  0  0  0  0  0  0  0  0  0
   -0.7649   12.7490   22.3147 H   0  0  0  0  0  0  0  0  0  0  0  0
   -8.2400    6.1923   17.0046 H   0  0  0  0  0  0  0  0  0  0  0  0
   -9.8148    5.8439   16.5103 H   0  0  0  0  0  0  0  0  0  0  0  0
   -2.3494   10.5522   18.8198 H   0  0  0  0  0  0  0  0  0  0  0  0
   -0.6051   12.0633   19.8866 H   0  0  0  0  0  0  0  0  0  0  0  0
   -5.5034   13.1227   22.9152 H   0  0  0  0  0  0  0  0  0  0  0  0
   -8.2346    5.3621   14.7235 H   0  0  0  0  0  0  0  0  0  0  0  0
   -9.1154    6.7117   14.3828 H   0  0  0  0  0  0  0  0  0  0  0  0
   -9.1157    8.3382   14.2286 H   0  0  0  0  0  0  0  0  0  0  0  0
   -7.5506   13.2417   21.4488 H   0  0  0  0  0  0  0  0  0  0  0  0
   -8.5017   12.6925   22.3574 H   0  0  0  0  0  0  0  0  0  0  0  0
   -9.5867    9.3610   12.3208 H   0  0  0  0  0  0  0  0  0  0  0  0
   -9.8018   10.4871   13.7164 H   0  0  0  0  0  0  0  0  0  0  0  0
   -6.1903   10.4088   14.1806 H   0  0  0  0  0  0  0  0  0  0  0  0
   -2.9591    7.5302   10.5321 H   0  0  0  0  0  0  0  0  0  0  0  0
   -3.6413    8.9979   12.0195 H   0  0  0  0  0  0  0  0  0  0  0  0
   -4.1910   11.2752   14.6234 H   0  0  0  0  0  0  0  0  0  0  0  0
   -4.5503    9.7785   15.5429 H   0  0  0  0  0  0  0  0  0  0  0  0
   -8.4217   11.7650   12.1638 H   0  0  0  0  0  0  0  0  0  0  0  0
   -7.4885   11.3057   13.4323 H   0  0  0  0  0  0  0  0  0  0  0  0
   -2.7973    8.2955    8.5040 H   0  0  0  0  0  0  0  0  0  0  0  0
   -4.5060    8.2753    8.2361 H   0  0  0  0  0  0  0  0  0  0  0  0
   -7.6356   11.9819   18.0129 H   0  0  0  0  0  0  0  0  0  0  0  0
   -9.8327   13.1851   24.1019 H   0  0  0  0  0  0  0  0  0  0  0  0
   -5.0540    6.6101    9.6632 H   0  0  0  0  0  0  0  0  0  0  0  0
   -5.2255    6.9789   11.3457 H   0  0  0  0  0  0  0  0  0  0  0  0
   -5.8481    8.0635   10.0302 H   0  0  0  0  0  0  0  0  0  0  0  0
   -7.1171   13.8104   19.5748 H   0  0  0  0  0  0  0  0  0  0  0  0
   -6.0031   13.2541   20.1776 H   0  0  0  0  0  0  0  0  0  0  0  0
   -3.5742   10.8538    9.4531 H   0  0  0  0  0  0  0  0  0  0  0  0
   -3.8786   10.6646    7.8044 H   0  0  0  0  0  0  0  0  0  0  0  0
   -5.1467   10.4160    8.9847 H   0  0  0  0  0  0  0  0  0  0  0  0
   -6.1289   16.3898   21.6899 H   0  0  0  0  0  0  0  0  0  0  0  0
   -2.6026   11.1701   12.8073 H   0  0  0  0  0  0  0  0  0  0  0  0
   -8.8323   17.9777   25.0958 H   0  0  0  0  0  0  0  0  0  0  0  0
   -3.8232    7.2517   15.3746 H   0  0  0  0  0  0  0  0  0  0  0  0
   -5.8538   18.2451   21.8467 H   0  0  0  0  0  0  0  0  0  0  0  0
   -7.1996   19.3289   23.6854 H   0  0  0  0  0  0  0  0  0  0  0  0
   -0.0785    6.9471   11.9818 H   0  0  0  0  0  0  0  0  0  0  0  0
   -9.0366   15.3745   21.7029 H   0  0  0  0  0  0  0  0  0  0  0  0
   -0.9730   10.2436    7.6575 H   0  0  0  0  0  0  0  0  0  0  0  0
   -2.1772    9.9246    8.4453 H   0  0  0  0  0  0  0  0  0  0  0  0
   -2.4765    5.1404   15.1170 H   0  0  0  0  0  0  0  0  0  0  0  0
   -0.6129    4.9732   13.4464 H   0  0  0  0  0  0  0  0  0  0  0  0
   -8.1663   16.2604   19.6229 H   0  0  0  0  0  0  0  0  0  0  0  0
   -8.6414   14.5574   19.0644 H   0  0  0  0  0  0  0  0  0  0  0  0
   -4.0415   12.2686   19.7469 H   0  0  0  0  0  0  0  0  0  0  0  0
   -5.6424   15.2079   17.1284 H   0  0  0  0  0  0  0  0  0  0  0  0
   -2.0558   12.4988   18.3289 H   0  0  0  0  0  0  0  0  0  0  0  0
   -3.9975   15.6630   16.1733 H   0  0  0  0  0  0  0  0  0  0  0  0
   -9.2162   15.9303   17.3111 H   0  0  0  0  0  0  0  0  0  0  0  0
  -11.0601   14.9107   21.0839 H   0  0  0  0  0  0  0  0  0  0  0  0
   -6.4641   16.4931   19.3727 H   0  0  0  0  0  0  0  0  0  0  0  0
   -4.9791   15.7360   18.8796 H   0  0  0  0  0  0  0  0  0  0  0  0
  -11.4582   16.0580   16.3181 H   0  0  0  0  0  0  0  0  0  0  0  0
  -13.1233   14.5796   20.1039 H   0  0  0  0  0  0  0  0  0  0  0  0
  1 61  2  0  0  0  0
  2 65  2  0  0  0  0
  3 66  2  0  0  0  0
  4 71  2  0  0  0  0
  5 74  2  0  0  0  0
  6 75  2  0  0  0  0
  7 77  2  0  0  0  0
  8 84  2  0  0  0  0
  9 87  2  0  0  0  0
 10 96  2  0  0  0  0
 11 97  2  0  0  0  0
 12104  1  0  0  0  0
 12167  1  0  0  0  0
 13109  2  0  0  0  0
 14110  2  0  0  0  0
 15121  1  0  0  0  0
 15168  1  0  0  0  0
 16118  2  0  0  0  0
 17121  2  0  0  0  0
 18123  2  0  0  0  0
 19125  2  0  0  0  0
 20133  2  0  0  0  0
 21140  1  0  0  0  0
 21169  1  0  0  0  0
 22140  2  0  0  0  0
 23145  2  0  0  0  0
 24155  1  0  0  0  0
 24170  1  0  0  0  0
 25155  2  0  0  0  0
 26159  1  0  0  0  0
 26171  1  0  0  0  0
 27160  2  0  0  0  0
 28166  1  0  0  0  0
 28172  1  0  0  0  0
 29 58  1  0  0  0  0
 29 61  1  0  0  0  0
 29 62  1  0  0  0  0
 30 56  1  0  0  0  0
 30 60  1  0  0  0  0
 30 65  1  0  0  0  0
 31 66  1  0  0  0  0
 31 70  1  0  0  0  0
 31173  1  0  0  0  0
 32 67  1  0  0  0  0
 32 71  1  0  0  0  0
 32174  1  0  0  0  0
 33 72  1  0  0  0  0
 33 77  1  0  0  0  0
 33175  1  0  0  0  0
 34 75  1  0  0  0  0
 34 79  1  0  0  0  0
 34176  1  0  0  0  0
 35 74  1  0  0  0  0
 35177  1  0  0  0  0
 35178  1  0  0  0  0
 36 87  1  0  0  0  0
 36179  1  0  0  0  0
 37 80  1  0  0  0  0
 37 91  1  0  0  0  0
 37180  1  0  0  0  0
 38 84  1  0  0  0  0
 38 94  1  0  0  0  0
 38181  1  0  0  0  0
 39 90  1  0  0  0  0
 39 97  1  0  0  0  0
 39182  1  0  0  0  0
 40 91  1  0  0  0  0
 40183  1  0  0  0  0
 40184  1  0  0  0  0
 41 92  1  0  0  0  0
 41185  1  0  0  0  0
 41186  1  0  0  0  0
 42 91  2  0  0  0  0
 42187  1  0  0  0  0
 43 99  1  0  0  0  0
 43101  1  0  0  0  0
 43188  1  0  0  0  0
 44 96  1  0  0  0  0
 44102  1  0  0  0  0
 44189  1  0  0  0  0
 45100  1  0  0  0  0
 45110  1  0  0  0  0
 45190  1  0  0  0  0
 46109  1  0  0  0  0
 46113  1  0  0  0  0
 46191  1  0  0  0  0
 47111  1  0  0  0  0
 47123  1  0  0  0  0
 47192  1  0  0  0  0
 48117  1  0  0  0  0
 48118  1  0  0  0  0
 48193  1  0  0  0  0
 49125  1  0  0  0  0
 49194  1  0  0  0  0
 50130  1  0  0  0  0
 50132  1  0  0  0  0
 50195  1  0  0  0  0
 51128  1  0  0  0  0
 51145  1  0  0  0  0
 51196  1  0  0  0  0
 52138  1  0  0  0  0
 52139  1  0  0  0  0
 52197  1  0  0  0  0
 53133  1  0  0  0  0
 53149  1  0  0  0  0
 53198  1  0  0  0  0
 54148  1  0  0  0  0
 54160  1  0  0  0  0
 54199  1  0  0  0  0
 55163  1  0  0  0  0
 55200  1  0  0  0  0
 55201  1  0  0  0  0
 56 57  1  0  0  0  0
 56 61  1  0  0  0  0
 56202  1  6  0  0  0
 57 59  1  0  0  0  0
 57203  1  0  0  0  0
 57204  1  0  0  0  0
 58 63  1  0  0  0  0
 58205  1  6  0  0  0
 58 66  1  0  0  0  0
 59 60  1  0  0  0  0
 59206  1  0  0  0  0
 59207  1  0  0  0  0
 60208  1  0  0  0  0
 60209  1  0  0  0  0
 62 64  1  0  0  0  0
 62210  1  0  0  0  0
 62211  1  0  0  0  0
 63 64  1  0  0  0  0
 63212  1  0  0  0  0
 63213  1  0  0  0  0
 64214  1  0  0  0  0
 64215  1  0  0  0  0
 65 67  1  0  0  0  0
 67 68  1  0  0  0  0
 67216  1  1  0  0  0
 68 69  1  0  0  0  0
 68217  1  0  0  0  0
 68218  1  0  0  0  0
 69 74  1  0  0  0  0
 69219  1  0  0  0  0
 69220  1  0  0  0  0
 70 75  1  0  0  0  0
 70221  1  0  0  0  0
 70222  1  0  0  0  0
 71 72  1  0  0  0  0
 72 73  1  0  0  0  0
 72223  1  6  0  0  0
 73 76  1  0  0  0  0
 73224  1  0  0  0  0
 73225  1  0  0  0  0
 76 80  1  0  0  0  0
 76226  1  0  0  0  0
 76227  1  0  0  0  0
 77 78  1  0  0  0  0
 78 36  1  0  0  0  0
 78228  1  1  0  0  0
 79 82  1  0  0  0  0
 79 84  1  0  0  0  0
 79229  1  1  0  0  0
 80230  1  0  0  0  0
 80231  1  0  0  0  0
 81 86  1  0  0  0  0
 81232  1  1  0  0  0
 81 83  1  0  0  0  0
 81 78  1  0  0  0  0
 82 85  1  0  0  0  0
 82233  1  0  0  0  0
 82234  1  0  0  0  0
 83 89  1  0  0  0  0
 83235  1  0  0  0  0
 83236  1  0  0  0  0
 85 88  1  0  0  0  0
 85237  1  0  0  0  0
 85238  1  0  0  0  0
 86239  1  0  0  0  0
 86240  1  0  0  0  0
 86241  1  0  0  0  0
 87 90  1  0  0  0  0
 88 92  1  0  0  0  0
 88242  1  0  0  0  0
 88243  1  0  0  0  0
 89244  1  0  0  0  0
 89245  1  0  0  0  0
 89246  1  0  0  0  0
 90 93  1  0  0  0  0
 90247  1  6  0  0  0
 92248  1  0  0  0  0
 92249  1  0  0  0  0
 93 95  1  0  0  0  0
 93250  1  0  0  0  0
 93251  1  0  0  0  0
 94 96  1  0  0  0  0
 94252  1  0  0  0  0
 94253  1  0  0  0  0
 95 98  1  0  0  0  0
 95 99  2  0  0  0  0
 97100  1  0  0  0  0
 98101  2  0  0  0  0
 98103  1  0  0  0  0
 99254  1  0  0  0  0
100104  1  0  0  0  0
100255  1  6  0  0  0
101105  1  0  0  0  0
102106  1  0  0  0  0
102109  1  0  0  0  0
102256  1  1  0  0  0
103107  2  0  0  0  0
103257  1  0  0  0  0
104258  1  0  0  0  0
104259  1  0  0  0  0
105108  2  0  0  0  0
105260  1  0  0  0  0
106112  1  0  0  0  0
106261  1  0  0  0  0
106262  1  0  0  0  0
107108  1  0  0  0  0
107263  1  0  0  0  0
108264  1  0  0  0  0
110111  1  0  0  0  0
111114  1  0  0  0  0
111265  1  1  0  0  0
112121  1  0  0  0  0
112266  1  0  0  0  0
112267  1  0  0  0  0
113115  1  0  0  0  0
113118  1  0  0  0  0
113268  1  1  0  0  0
114116  1  0  0  0  0
114269  1  0  0  0  0
114270  1  0  0  0  0
115126  1  0  0  0  0
115271  1  0  0  0  0
115272  1  0  0  0  0
116124  1  0  0  0  0
116130  2  0  0  0  0
117122  1  0  0  0  0
117125  1  0  0  0  0
117273  1  1  0  0  0
119131  1  0  0  0  0
119274  1  1  0  0  0
119127  1  0  0  0  0
119120  1  0  0  0  0
120 49  1  0  0  0  0
120133  1  0  0  0  0
120275  1  1  0  0  0
122129  1  0  0  0  0
122276  1  0  0  0  0
122277  1  0  0  0  0
123128  1  0  0  0  0
124132  2  0  0  0  0
124137  1  0  0  0  0
126140  1  0  0  0  0
126278  1  0  0  0  0
126279  1  0  0  0  0
127136  1  0  0  0  0
127280  1  0  0  0  0
127281  1  0  0  0  0
128135  1  0  0  0  0
128282  1  6  0  0  0
129134  1  0  0  0  0
129138  2  0  0  0  0
130283  1  0  0  0  0
131284  1  0  0  0  0
131285  1  0  0  0  0
131286  1  0  0  0  0
132141  1  0  0  0  0
134139  2  0  0  0  0
134143  1  0  0  0  0
135142  1  0  0  0  0
135287  1  0  0  0  0
135288  1  0  0  0  0
136289  1  0  0  0  0
136290  1  0  0  0  0
136291  1  0  0  0  0
137144  2  0  0  0  0
137292  1  0  0  0  0
138293  1  0  0  0  0
139147  1  0  0  0  0
141146  2  0  0  0  0
141294  1  0  0  0  0
142153  2  0  0  0  0
142154  1  0  0  0  0
143150  2  0  0  0  0
143295  1  0  0  0  0
144146  1  0  0  0  0
144296  1  0  0  0  0
145148  1  0  0  0  0
146297  1  0  0  0  0
147151  2  0  0  0  0
147298  1  0  0  0  0
148152  1  0  0  0  0
148299  1  1  0  0  0
149155  1  0  0  0  0
149300  1  0  0  0  0
149301  1  0  0  0  0
150151  1  0  0  0  0
150302  1  0  0  0  0
151303  1  0  0  0  0
152158  1  0  0  0  0
152304  1  0  0  0  0
152305  1  0  0  0  0
153156  1  0  0  0  0
153306  1  0  0  0  0
154157  2  0  0  0  0
154307  1  0  0  0  0
156159  2  0  0  0  0
156308  1  0  0  0  0
157159  1  0  0  0  0
157309  1  0  0  0  0
158161  2  0  0  0  0
158162  1  0  0  0  0
160163  1  0  0  0  0
161164  1  0  0  0  0
161310  1  0  0  0  0
162165  2  0  0  0  0
162311  1  0  0  0  0
163312  1  0  0  0  0
163313  1  0  0  0  0
164166  2  0  0  0  0
164314  1  0  0  0  0
165166  1  0  0  0  0
165315  1  0  0  0  0
M  END
>  <DRUGBANK_ID>
DB15272

>  <COMMON_NAME>
Edratide

>  <CAS_NUMBER>
433922-67-9

>  <UNII>
38PLP07BKC

>  <SYNONYMS>
Edratide

$$$$
