
 OpenBabel10282417203D

 37 39  0  0  0  0  0  0  0  0999 V2000
    1.0254   -0.0432   -0.0088 C   0  0  0  0  0  0  0  0  0  0  0  0
    0.5599    1.4132   -0.0668 C   0  0  0  0  0  0  0  0  0  0  0  0
    1.0524    2.1293   -1.2597 N   0  0  0  0  0  0  0  0  0  0  0  0
    1.5664    1.5161   -2.4008 C   0  0  0  0  0  0  0  0  0  0  0  0
    1.8901    2.1019   -3.5641 C   0  0  0  0  0  0  0  0  0  0  0  0
    1.6483    3.5641   -3.6215 C   0  0  0  0  0  0  0  0  0  0  0  0
    1.8967    4.2301   -4.6201 O   0  0  0  0  0  0  0  0  0  0  0  0
    1.0862    4.2312   -2.4286 C   0  0  0  0  0  0  0  0  0  0  0  0
    0.8102    5.5779   -2.4248 C   0  0  0  0  0  0  0  0  0  0  0  0
    0.2688    6.2384   -1.3679 N   0  0  0  0  0  0  0  0  0  0  0  0
    0.0396    5.5329   -0.2459 C   0  0  0  0  0  0  0  0  0  0  0  0
    0.3050    4.2013   -0.1703 N   0  0  0  0  0  0  0  0  0  0  0  0
    0.7990    3.5430   -1.2636 C   0  0  0  0  0  0  0  0  0  0  0  0
   -0.5378    6.1494    0.8429 N   0  0  0  0  0  0  0  0  0  0  0  0
   -1.6917    7.0280    0.7406 C   0  0  0  0  0  0  0  0  0  0  0  0
   -1.3201    8.2580    1.5636 C   0  0  0  0  0  0  0  0  0  0  0  0
   -0.4588    7.6809    2.6766 C   0  0  0  0  0  0  0  0  0  0  0  0
    0.2330    6.4530    2.0449 C   0  0  0  0  0  0  0  0  0  0  0  0
    2.4405    1.3377   -4.7062 C   0  0  0  0  0  0  0  0  0  0  0  0
    2.7576    1.7799   -5.8016 O   0  0  0  0  0  0  0  0  0  0  0  0
    2.5898    0.0180   -4.4689 O   0  0  0  0  0  0  0  0  0  0  0  0
    0.6403   -0.6201   -0.8580 H   0  0  0  0  0  0  0  0  0  0  0  0
    0.6682   -0.5395    0.8971 H   0  0  0  0  0  0  0  0  0  0  0  0
    2.1199   -0.1018   -0.0222 H   0  0  0  0  0  0  0  0  0  0  0  0
   -0.5375    1.4247   -0.0581 H   0  0  0  0  0  0  0  0  0  0  0  0
    0.9113    1.9081    0.8464 H   0  0  0  0  0  0  0  0  0  0  0  0
    1.7235    0.4466   -2.3022 H   0  0  0  0  0  0  0  0  0  0  0  0
    1.0194    6.1830   -3.3055 H   0  0  0  0  0  0  0  0  0  0  0  0
   -2.5264    6.5169    1.2393 H   0  0  0  0  0  0  0  0  0  0  0  0
   -2.0117    7.2872   -0.2718 H   0  0  0  0  0  0  0  0  0  0  0  0
   -0.7406    8.9652    0.9604 H   0  0  0  0  0  0  0  0  0  0  0  0
   -2.1979    8.7888    1.9525 H   0  0  0  0  0  0  0  0  0  0  0  0
    0.2546    8.4185    3.0633 H   0  0  0  0  0  0  0  0  0  0  0  0
   -1.0890    7.3768    3.5224 H   0  0  0  0  0  0  0  0  0  0  0  0
    1.2862    6.6796    1.8473 H   0  0  0  0  0  0  0  0  0  0  0  0
    0.1739    5.6120    2.7434 H   0  0  0  0  0  0  0  0  0  0  0  0
    2.9574   -0.3266   -5.3135 H   0  0  0  0  0  0  0  0  0  0  0  0
  1  2  1  0  0  0  0
  1 22  1  0  0  0  0
  1 23  1  0  0  0  0
  1 24  1  0  0  0  0
  2  3  1  0  0  0  0
  2 25  1  0  0  0  0
  2 26  1  0  0  0  0
  3  4  1  0  0  0  0
  3 13  1  0  0  0  0
  4  5  2  0  0  0  0
  4 27  1  0  0  0  0
  5  6  1  0  0  0  0
  5 19  1  0  0  0  0
  6  7  2  0  0  0  0
  6  8  1  0  0  0  0
  8  9  2  0  0  0  0
  8 13  1  0  0  0  0
  9 10  1  0  0  0  0
  9 28  1  0  0  0  0
 10 11  2  0  0  0  0
 11 12  1  0  0  0  0
 11 14  1  0  0  0  0
 12 13  2  0  0  0  0
 14 15  1  0  0  0  0
 14 18  1  0  0  0  0
 15 16  1  0  0  0  0
 15 29  1  0  0  0  0
 15 30  1  0  0  0  0
 16 17  1  0  0  0  0
 16 31  1  0  0  0  0
 16 32  1  0  0  0  0
 17 18  1  0  0  0  0
 17 33  1  0  0  0  0
 17 34  1  0  0  0  0
 18 35  1  0  0  0  0
 18 36  1  0  0  0  0
 19 20  2  0  0  0  0
 19 21  1  0  0  0  0
 21 37  1  0  0  0  0
M  END
>  <DRUGBANK_ID>
DB13744

>  <COMMON_NAME>
Piromidic acid

>  <CAS_NUMBER>
19562-30-2

>  <UNII>
3I12WH4EWF

>  <SYNONYMS>
Piromidic acid

$$$$
