
 OpenBabel10282417223D

 62 66  0  0  0  0  0  0  0  0999 V2000
    0.1830    1.2603    0.0301 C   0  0  0  0  0  0  0  0  0  0  0  0
    0.8343    0.0203    0.0122 C   0  0  0  0  0  0  0  0  0  0  0  0
    0.1444   -1.1820    0.0092 C   0  0  0  0  0  0  0  0  0  0  0  0
   -1.2532   -1.2180    0.0020 C   0  0  0  0  0  0  0  0  0  0  0  0
   -1.9261    0.0109    0.0340 C   0  0  0  0  0  0  0  0  0  0  0  0
   -1.2159    1.2346    0.0562 C   0  0  0  0  0  0  0  0  0  0  0  0
   -1.9513   -2.4421    0.0487 N   0  0  0  0  0  0  0  0  0  0  0  0
   -1.3407   -3.7012    0.0311 C   0  0  0  0  0  0  0  0  0  0  0  0
   -0.5156   -3.9520    1.0583 N   0  0  0  0  0  0  0  0  0  0  0  0
    0.2202   -5.0767    1.0802 C   0  0  0  0  0  0  0  0  0  0  0  0
    0.1623   -5.9482   -0.0057 C   0  0  0  0  0  0  0  0  0  0  0  0
   -0.7537   -5.6066   -0.9897 C   0  0  0  0  0  0  0  0  0  0  0  0
   -1.5586   -4.5272   -1.0086 N   0  0  0  0  0  0  0  0  0  0  0  0
   -0.6984   -6.5684   -1.9653 N   0  0  0  0  0  0  0  0  0  0  0  0
    0.2392   -7.5164   -1.6346 C   0  0  0  0  0  0  0  0  0  0  0  0
    0.7928   -7.1549   -0.4227 C   0  0  0  0  0  0  0  0  0  0  0  0
    0.9270    2.4182   -0.0335 N   0  0  0  0  0  0  0  0  0  0  0  0
    1.0567   -5.3256    2.1544 O   0  0  0  0  0  0  0  0  0  0  0  0
    1.0147   -4.4704    3.2362 C   0  0  0  0  0  0  0  0  0  0  0  0
   -0.1267   -4.1846    3.9743 C   0  0  0  0  0  0  0  0  0  0  0  0
   -0.0193   -3.4102    5.1358 C   0  0  0  0  0  0  0  0  0  0  0  0
    1.2383   -2.9907    5.6053 C   0  0  0  0  0  0  0  0  0  0  0  0
    2.3986   -3.3479    4.9094 C   0  0  0  0  0  0  0  0  0  0  0  0
    2.2488   -4.0124    3.6860 C   0  0  0  0  0  0  0  0  0  0  0  0
    3.6844   -3.1040    5.4804 N   0  0  0  0  0  0  0  0  0  0  0  0
    4.8693   -3.5502    4.9211 C   0  0  0  0  0  0  0  0  0  0  0  0
    6.1098   -3.2857    5.6956 C   0  0  0  0  0  0  0  0  0  0  0  0
    7.2709   -3.6704    5.1363 C   0  0  0  0  0  0  0  0  0  0  0  0
    4.9829   -4.1552    3.8514 O   0  0  0  0  0  0  0  0  0  0  0  0
    1.7831    2.6143   -1.2113 C   0  0  0  0  0  0  0  0  0  0  0  0
    3.1403    3.2091   -0.7946 C   0  0  0  0  0  0  0  0  0  0  0  0
    2.9560    4.4762   -0.0504 N   0  0  0  0  0  0  0  0  0  0  0  0
    2.1804    4.1694    1.1774 C   0  0  0  0  0  0  0  0  0  0  0  0
    0.7764    3.5699    0.8553 C   0  0  0  0  0  0  0  0  0  0  0  0
    4.2466    5.0758    0.2643 C   0  0  0  0  0  0  0  0  0  0  0  0
    2.1778   -0.0297    0.0004 F   0  0  0  0  0  0  0  0  0  0  0  0
    0.7441   -2.0851   -0.0015 H   0  0  0  0  0  0  0  0  0  0  0  0
   -3.0136    0.0365    0.0250 H   0  0  0  0  0  0  0  0  0  0  0  0
   -1.7747    2.1670    0.0398 H   0  0  0  0  0  0  0  0  0  0  0  0
   -2.9009   -2.4600   -0.2821 H   0  0  0  0  0  0  0  0  0  0  0  0
   -1.2669   -6.5596   -2.7999 H   0  0  0  0  0  0  0  0  0  0  0  0
    0.4304   -8.3609   -2.2855 H   0  0  0  0  0  0  0  0  0  0  0  0
    1.5688   -7.6995    0.1018 H   0  0  0  0  0  0  0  0  0  0  0  0
   -1.0960   -4.5463    3.6457 H   0  0  0  0  0  0  0  0  0  0  0  0
   -0.9212   -3.1616    5.6911 H   0  0  0  0  0  0  0  0  0  0  0  0
    1.2800   -2.4010    6.5178 H   0  0  0  0  0  0  0  0  0  0  0  0
    3.0877   -4.2235    3.0380 H   0  0  0  0  0  0  0  0  0  0  0  0
    3.7022   -2.6808    6.4007 H   0  0  0  0  0  0  0  0  0  0  0  0
    6.0753   -2.8101    6.6639 H   0  0  0  0  0  0  0  0  0  0  0  0
    8.2296   -3.5231    5.6149 H   0  0  0  0  0  0  0  0  0  0  0  0
    7.2935   -4.1542    4.1577 H   0  0  0  0  0  0  0  0  0  0  0  0
    1.2757    3.2978   -1.9030 H   0  0  0  0  0  0  0  0  0  0  0  0
    1.9609    1.6824   -1.7604 H   0  0  0  0  0  0  0  0  0  0  0  0
    3.7350    3.3818   -1.6986 H   0  0  0  0  0  0  0  0  0  0  0  0
    3.6840    2.4800   -0.1767 H   0  0  0  0  0  0  0  0  0  0  0  0
    2.7401    3.4544    1.7980 H   0  0  0  0  0  0  0  0  0  0  0  0
    2.0487    5.0807    1.7718 H   0  0  0  0  0  0  0  0  0  0  0  0
    0.1571    4.3342    0.3722 H   0  0  0  0  0  0  0  0  0  0  0  0
    0.2966    3.2856    1.7993 H   0  0  0  0  0  0  0  0  0  0  0  0
    4.1077    6.0234    0.7954 H   0  0  0  0  0  0  0  0  0  0  0  0
    4.8755    4.4200    0.8754 H   0  0  0  0  0  0  0  0  0  0  0  0
    4.7886    5.3123   -0.6590 H   0  0  0  0  0  0  0  0  0  0  0  0
  1  6  1  0  0  0  0
  1 17  1  0  0  0  0
  2  1  2  0  0  0  0
  2 36  1  0  0  0  0
  3  2  1  0  0  0  0
  3 37  1  0  0  0  0
  4  3  2  0  0  0  0
  4  7  1  0  0  0  0
  5  4  1  0  0  0  0
  5 38  1  0  0  0  0
  6  5  2  0  0  0  0
  6 39  1  0  0  0  0
  7  8  1  0  0  0  0
  7 40  1  0  0  0  0
  8 13  1  0  0  0  0
  9  8  2  0  0  0  0
 10  9  1  0  0  0  0
 10 18  1  0  0  0  0
 11 10  2  0  0  0  0
 11 16  1  0  0  0  0
 12 11  1  0  0  0  0
 12 14  1  0  0  0  0
 13 12  2  0  0  0  0
 14 15  1  0  0  0  0
 14 41  1  0  0  0  0
 15 16  2  0  0  0  0
 15 42  1  0  0  0  0
 16 43  1  0  0  0  0
 17 34  1  0  0  0  0
 18 19  1  0  0  0  0
 19 24  1  0  0  0  0
 20 19  2  0  0  0  0
 20 44  1  0  0  0  0
 21 20  1  0  0  0  0
 21 45  1  0  0  0  0
 22 21  2  0  0  0  0
 22 46  1  0  0  0  0
 23 22  1  0  0  0  0
 23 25  1  0  0  0  0
 24 23  2  0  0  0  0
 24 47  1  0  0  0  0
 25 26  1  0  0  0  0
 25 48  1  0  0  0  0
 26 27  1  0  0  0  0
 26 29  2  0  0  0  0
 27 28  2  0  0  0  0
 27 49  1  0  0  0  0
 28 50  1  0  0  0  0
 28 51  1  0  0  0  0
 30 17  1  0  0  0  0
 30 52  1  0  0  0  0
 30 53  1  0  0  0  0
 31 30  1  0  0  0  0
 31 54  1  0  0  0  0
 31 55  1  0  0  0  0
 32 31  1  0  0  0  0
 32 35  1  0  0  0  0
 33 32  1  0  0  0  0
 33 56  1  0  0  0  0
 33 57  1  0  0  0  0
 34 33  1  0  0  0  0
 34 58  1  0  0  0  0
 34 59  1  0  0  0  0
 35 60  1  0  0  0  0
 35 61  1  0  0  0  0
 35 62  1  0  0  0  0
M  END
>  <DRUGBANK_ID>
DB15327

>  <COMMON_NAME>
Abivertinib

>  <CAS_NUMBER>
1557267-42-1

>  <UNII>
CER0OPG92L

>  <SYNONYMS>
Abivertinib

$$$$
