TLX
 OpenBabel10282417173D

 43 44  0  0  0  0  0  0  0  0999 V2000
    0.3739    0.8833    1.8189 N   0  0  0  0  0  0  0  0  0  0  0  0
    0.5765    0.6270    0.3923 C   0  0  0  0  0  0  0  0  0  0  0  0
    0.8180   -0.7998   -0.0388 C   0  0  0  0  0  0  0  0  0  0  0  0
   -0.0993   -1.7581    0.7189 C   0  0  0  0  0  0  0  0  0  0  0  0
   -0.3969   -1.2997    2.0577 N   0  0  2  0  0  0  0  0  0  0  0  0
   -1.2512   -2.1226    2.8800 C   0  0  0  0  0  0  0  0  0  0  0  0
   -1.1964   -1.3490    4.1870 C   0  0  0  0  0  0  0  0  0  0  0  0
   -0.9758    0.1097    3.7903 C   0  0  0  0  0  0  0  0  0  0  0  0
   -0.7531    0.0862    2.2711 C   0  0  1  0  0  0  0  0  0  0  0  0
    0.2469    2.3161    2.1472 C   0  0  0  0  0  0  0  0  0  0  0  0
   -0.9069    3.1736    1.5241 C   0  0  2  0  0  0  0  0  0  0  0  0
   -0.8853    3.1726   -0.0071 C   0  0  0  0  0  0  0  0  0  0  0  0
   -2.0060    3.8193   -0.8013 C   0  0  0  0  0  0  0  0  0  0  0  0
   -2.0362    5.3137   -0.6082 C   0  0  0  0  0  0  0  0  0  0  0  0
   -1.7989    3.4416   -2.2802 C   0  0  0  0  0  0  0  0  0  0  0  0
   -0.7990    4.5491    2.0219 N   0  0  0  0  0  0  0  0  0  0  0  0
   -1.6930    0.3785    1.7723 H   0  0  0  0  0  0  0  0  0  0  0  0
   -1.8713    2.7720    1.8642 H   0  0  0  0  0  0  0  0  0  0  0  0
    1.3276    1.2995   -0.0352 H   0  0  0  0  0  0  0  0  0  0  0  0
   -0.3637    0.7511   -0.1145 H   0  0  0  0  0  0  0  0  0  0  0  0
    0.5614   -0.8529   -1.1106 H   0  0  0  0  0  0  0  0  0  0  0  0
    1.8734   -1.0622    0.0468 H   0  0  0  0  0  0  0  0  0  0  0  0
   -1.0005   -1.9599    0.1254 H   0  0  0  0  0  0  0  0  0  0  0  0
    0.4483   -2.7018    0.7993 H   0  0  0  0  0  0  0  0  0  0  0  0
   -0.8359   -3.1262    2.9975 H   0  0  0  0  0  0  0  0  0  0  0  0
   -2.2829   -2.2010    2.5128 H   0  0  0  0  0  0  0  0  0  0  0  0
   -0.3339   -1.6859    4.7758 H   0  0  0  0  0  0  0  0  0  0  0  0
   -2.0939   -1.4804    4.7963 H   0  0  0  0  0  0  0  0  0  0  0  0
   -0.1063    0.4947    4.3368 H   0  0  0  0  0  0  0  0  0  0  0  0
   -1.8342    0.7351    4.0641 H   0  0  0  0  0  0  0  0  0  0  0  0
    0.1736    2.4187    3.2400 H   0  0  0  0  0  0  0  0  0  0  0  0
    1.2094    2.7933    1.9120 H   0  0  0  0  0  0  0  0  0  0  0  0
    0.1070    3.4649   -0.3805 H   0  0  0  0  0  0  0  0  0  0  0  0
   -1.0795    2.1730   -0.3266 H   0  0  0  0  0  0  0  0  0  0  0  0
   -2.9571    3.3787   -0.4729 H   0  0  0  0  0  0  0  0  0  0  0  0
   -1.0534    5.7453   -0.8231 H   0  0  0  0  0  0  0  0  0  0  0  0
   -2.7851    5.7703   -1.2544 H   0  0  0  0  0  0  0  0  0  0  0  0
   -2.3103    5.5602    0.4196 H   0  0  0  0  0  0  0  0  0  0  0  0
   -1.8031    2.3509   -2.4179 H   0  0  0  0  0  0  0  0  0  0  0  0
   -2.5932    3.8536   -2.9054 H   0  0  0  0  0  0  0  0  0  0  0  0
   -0.8327    3.8049   -2.6497 H   0  0  0  0  0  0  0  0  0  0  0  0
   -0.8222    4.5771    3.0266 H   0  0  0  0  0  0  0  0  0  0  0  0
    0.1076    4.9435    1.7286 H   0  0  0  0  0  0  0  0  0  0  0  0
  1  2  1  0  0  0  0
  1  9  1  0  0  0  0
  1 10  1  0  0  0  0
  2  3  1  0  0  0  0
  2 19  1  0  0  0  0
  2 20  1  0  0  0  0
  3  4  1  0  0  0  0
  3 21  1  0  0  0  0
  3 22  1  0  0  0  0
  4 23  1  0  0  0  0
  4 24  1  0  0  0  0
  5  4  1  6  0  0  0
  5  6  1  0  0  0  0
  5  9  1  0  0  0  0
  6  7  1  0  0  0  0
  6 25  1  0  0  0  0
  6 26  1  0  0  0  0
  7  8  1  0  0  0  0
  7 27  1  0  0  0  0
  7 28  1  0  0  0  0
  8  9  1  0  0  0  0
  8 29  1  0  0  0  0
  8 30  1  0  0  0  0
  9 17  1  6  0  0  0
 10 31  1  0  0  0  0
 10 32  1  0  0  0  0
 11 16  1  0  0  0  0
 11 18  1  1  0  0  0
 11 12  1  0  0  0  0
 11 10  1  0  0  0  0
 12 13  1  0  0  0  0
 12 33  1  0  0  0  0
 12 34  1  0  0  0  0
 13 14  1  0  0  0  0
 13 15  1  0  0  0  0
 13 35  1  0  0  0  0
 14 36  1  0  0  0  0
 14 37  1  0  0  0  0
 14 38  1  0  0  0  0
 15 39  1  0  0  0  0
 15 40  1  0  0  0  0
 15 41  1  0  0  0  0
 16 42  1  0  0  0  0
 16 43  1  0  0  0  0
M  END
>  <DRUGBANK_ID>
DB08629

>  <COMMON_NAME>
N1-(2-AMINO-4-METHYLPENTYL)OCTAHYDRO-PYRROLO[1,2-A] PYRIMIDINE

$$$$
