
 OpenBabel10282417133D

 25 24  0  0  0  0  0  0  0  0999 V2000
    8.8002   -4.0325   -6.1654 S   0  0  0  0  0  0  0  0  0  0  0  0
    3.8441   -5.4568   -2.5255 O   0  0  0  0  0  0  0  0  0  0  0  0
    4.7905   -6.4625   -0.7542 O   0  0  0  0  0  0  0  0  0  0  0  0
    7.5878   -4.8978   -4.0203 N   0  0  0  0  0  0  0  0  0  0  0  0
    4.8679   -3.6240    0.1916 N   0  0  0  0  0  0  0  0  0  0  0  0
    8.6494   -6.5004   -5.2900 N   0  0  0  0  0  0  0  0  0  0  0  0
    6.8571   -4.0864   -1.1681 C   0  0  0  0  0  0  0  0  0  0  0  0
    7.4969   -5.3960   -1.6212 C   0  0  0  0  0  0  0  0  0  0  0  0
    5.3109   -4.0783   -1.1326 C   0  0  1  0  0  0  0  0  0  0  0  0
    7.0830   -5.8122   -3.0240 C   0  0  0  0  0  0  0  0  0  0  0  0
    4.6253   -5.4426   -1.4160 C   0  0  0  0  0  0  0  0  0  0  0  0
    8.3202   -5.2108   -5.1050 C   0  0  0  0  0  0  0  0  0  0  0  0
    7.3195   -3.9205   -3.9662 H   0  0  0  0  0  0  0  0  0  0  0  0
    3.8530   -3.6584    0.2608 H   0  0  0  0  0  0  0  0  0  0  0  0
    5.1793   -2.6776    0.3875 H   0  0  0  0  0  0  0  0  0  0  0  0
    9.2143   -6.7575   -6.0852 H   0  0  0  0  0  0  0  0  0  0  0  0
    8.3488   -7.2510   -4.6891 H   0  0  0  0  0  0  0  0  0  0  0  0
    3.8646   -4.6545   -3.0798 H   0  0  0  0  0  0  0  0  0  0  0  0
    7.2733   -3.8366   -0.1816 H   0  0  0  0  0  0  0  0  0  0  0  0
    7.2074   -3.2666   -1.8127 H   0  0  0  0  0  0  0  0  0  0  0  0
    7.2406   -6.1856   -0.9060 H   0  0  0  0  0  0  0  0  0  0  0  0
    8.5898   -5.3051   -1.5783 H   0  0  0  0  0  0  0  0  0  0  0  0
    4.9598   -3.3498   -1.8747 H   0  0  0  0  0  0  0  0  0  0  0  0
    6.0159   -5.8241   -3.2058 H   0  0  0  0  0  0  0  0  0  0  0  0
    7.4008   -6.8410   -3.1794 H   0  0  0  0  0  0  0  0  0  0  0  0
  1 12  2  0  0  0  0
  2 11  1  0  0  0  0
  2 18  1  0  0  0  0
  3 11  2  0  0  0  0
  4 10  1  0  0  0  0
  4 12  1  0  0  0  0
  4 13  1  0  0  0  0
  5 14  1  0  0  0  0
  5 15  1  0  0  0  0
  6 12  1  0  0  0  0
  6 16  1  0  0  0  0
  6 17  1  0  0  0  0
  7  8  1  0  0  0  0
  7 19  1  0  0  0  0
  7 20  1  0  0  0  0
  8 10  1  0  0  0  0
  8 21  1  0  0  0  0
  8 22  1  0  0  0  0
  9 11  1  0  0  0  0
  9 23  1  6  0  0  0
  9  7  1  0  0  0  0
  9  5  1  0  0  0  0
 10 24  1  0  0  0  0
 10 25  1  0  0  0  0
M  END
>  <DRUGBANK_ID>
DB03953

>  <SECONDARY_ACCESSION_NUMBERS>
EXPT02866

>  <COMMON_NAME>
Thiocitrulline

>  <CAS_NUMBER>
156719-37-8

>  <SYNONYMS>
L-thiocitrulline; Thiocitrulline

$$$$
