
 OpenBabel10282417193D

 44 46  0  0  0  0  0  0  0  0999 V2000
   -1.1392    0.1242   -0.0792 S   0  0  0  0  0  0  0  0  0  0  0  0
    1.2335   -0.7290    0.0162 C   0  0  0  0  0  0  0  0  0  0  0  0
    1.3980    0.6731   -0.0250 C   0  0  0  0  0  0  0  0  0  0  0  0
    0.1435    1.3022   -0.1315 C   0  0  0  0  0  0  0  0  0  0  0  0
   -0.1410    2.7525   -0.2429 C   0  0  0  0  0  0  0  0  0  0  0  0
    0.7399    3.5744    0.0245 O   0  0  0  0  0  0  0  0  0  0  0  0
   -2.5500    3.8356    1.3425 C   0  0  0  0  0  0  0  0  0  0  0  0
   -1.9911    4.3925    0.0314 C   0  0  2  0  0  0  0  0  0  0  0  0
   -2.3327    5.9439    0.0145 C   0  0  0  0  0  0  0  0  0  0  0  0
   -1.9232    6.5989    1.3999 C   0  0  0  0  0  0  0  0  0  0  0  0
   -2.4637    5.8243    2.6017 C   0  0  0  0  0  0  0  0  0  0  0  0
   -1.9979    4.4512    2.5286 N   0  0  0  0  0  0  0  0  0  0  0  0
   -1.4601    3.1864   -0.6578 N   0  0  0  0  0  0  0  0  0  0  0  0
    0.1574   -3.4430    1.0394 C   0  0  0  0  0  0  0  0  0  0  0  0
   -0.0545   -4.8191    1.0100 C   0  0  0  0  0  0  0  0  0  0  0  0
   -0.7620   -5.4065   -0.0281 C   0  0  0  0  0  0  0  0  0  0  0  0
   -1.2263   -4.6091   -1.0736 C   0  0  0  0  0  0  0  0  0  0  0  0
   -1.0251   -3.2232   -1.0502 C   0  0  0  0  0  0  0  0  0  0  0  0
   -0.3795   -2.6160    0.0308 C   0  0  0  0  0  0  0  0  0  0  0  0
    0.4336   -5.5871    1.9940 F   0  0  0  0  0  0  0  0  0  0  0  0
   -0.0550   -1.1839    0.0065 C   0  0  0  0  0  0  0  0  0  0  0  0
    2.6261    1.3471   -0.0043 N   0  0  0  0  0  0  0  0  0  0  0  0
    3.9103    0.9009    0.0135 C   0  0  0  0  0  0  0  0  0  0  0  0
    4.8610    1.7064    0.0150 O   0  0  0  0  0  0  0  0  0  0  0  0
    4.2179   -0.4045    0.0243 N   0  0  0  0  0  0  0  0  0  0  0  0
    1.9799   -1.4922    0.0415 H   0  0  0  0  0  0  0  0  0  0  0  0
   -3.6481    3.9097    1.3259 H   0  0  0  0  0  0  0  0  0  0  0  0
   -2.3562    2.7649    1.4359 H   0  0  0  0  0  0  0  0  0  0  0  0
   -0.9984    4.7912   -0.1200 H   0  0  0  0  0  0  0  0  0  0  0  0
   -1.8134    6.5172   -0.7679 H   0  0  0  0  0  0  0  0  0  0  0  0
   -3.4007    6.1333   -0.1155 H   0  0  0  0  0  0  0  0  0  0  0  0
   -0.8267    6.6609    1.4851 H   0  0  0  0  0  0  0  0  0  0  0  0
   -2.2932    7.6291    1.4643 H   0  0  0  0  0  0  0  0  0  0  0  0
   -2.1212    6.2609    3.5459 H   0  0  0  0  0  0  0  0  0  0  0  0
   -3.5602    5.8547    2.6140 H   0  0  0  0  0  0  0  0  0  0  0  0
   -2.3079    3.9274    3.3425 H   0  0  0  0  0  0  0  0  0  0  0  0
   -2.0900    2.3896   -0.6610 H   0  0  0  0  0  0  0  0  0  0  0  0
    0.7650   -3.0377    1.8458 H   0  0  0  0  0  0  0  0  0  0  0  0
   -0.9357   -6.4783   -0.0225 H   0  0  0  0  0  0  0  0  0  0  0  0
   -1.7422   -5.0661   -1.9138 H   0  0  0  0  0  0  0  0  0  0  0  0
   -1.3374   -2.6263   -1.9038 H   0  0  0  0  0  0  0  0  0  0  0  0
    2.5641    2.3657   -0.0024 H   0  0  0  0  0  0  0  0  0  0  0  0
    3.5878   -1.1731   -0.0156 H   0  0  0  0  0  0  0  0  0  0  0  0
    5.1911   -0.6698    0.0183 H   0  0  0  0  0  0  0  0  0  0  0  0
  1 21  1  0  0  0  0
  1  4  1  0  0  0  0
  2  3  1  0  0  0  0
  2 26  1  0  0  0  0
  3  4  2  0  0  0  0
  3 22  1  0  0  0  0
  4  5  1  0  0  0  0
  5 13  1  0  0  0  0
  5  6  2  0  0  0  0
  7  8  1  0  0  0  0
  7 12  1  0  0  0  0
  7 27  1  0  0  0  0
  7 28  1  0  0  0  0
  8  9  1  0  0  0  0
  8 13  1  0  0  0  0
  8 29  1  1  0  0  0
  9 10  1  0  0  0  0
  9 30  1  0  0  0  0
  9 31  1  0  0  0  0
 10 11  1  0  0  0  0
 10 32  1  0  0  0  0
 10 33  1  0  0  0  0
 11 12  1  0  0  0  0
 11 34  1  0  0  0  0
 11 35  1  0  0  0  0
 12 36  1  0  0  0  0
 13 37  1  0  0  0  0
 14 15  2  0  0  0  0
 14 19  1  0  0  0  0
 14 38  1  0  0  0  0
 15 16  1  0  0  0  0
 15 20  1  0  0  0  0
 16 17  2  0  0  0  0
 16 39  1  0  0  0  0
 17 18  1  0  0  0  0
 17 40  1  0  0  0  0
 18 19  2  0  0  0  0
 18 41  1  0  0  0  0
 19 21  1  0  0  0  0
 21  2  2  0  0  0  0
 22 23  1  0  0  0  0
 22 42  1  0  0  0  0
 23 24  2  0  0  0  0
 23 25  1  0  0  0  0
 25 43  1  0  0  0  0
 25 44  1  0  0  0  0
M  END
>  <DRUGBANK_ID>
DB12242

>  <COMMON_NAME>
AZD-7762

>  <CAS_NUMBER>
860352-01-8

>  <UNII>
5D822Y3L1H

$$$$
