
 OpenBabel10282417183D

 30 29  0  0  1  0  0  0  0  0999 V2000
    1.0938   -2.6127    0.7131 C   0  0  0  0  0  0  0  0  0  0  0  0
    0.8855   -2.8741   -0.9897 S   0  0  0  0  0  0  0  0  0  0  0  0
    1.6905   -1.7699   -1.4789 O   0  0  0  0  0  0  0  0  0  0  0  0
    1.1579   -4.2582   -1.3014 O   0  0  0  0  0  0  0  0  0  0  0  0
   -0.7403   -2.5846   -1.1053 O   0  0  0  0  0  0  0  0  0  0  0  0
   -1.4591   -2.9117   -2.3044 C   0  0  0  0  0  0  0  0  0  0  0  0
   -1.3047   -1.8149   -3.3589 C   0  0  1  0  0  0  0  0  0  0  0  0
    0.1895   -1.7134   -3.7443 C   0  0  2  0  0  0  0  0  0  0  0  0
    0.7531   -0.7563   -4.7534 C   0  0  0  0  0  0  0  0  0  0  0  0
   -0.1977   -0.5961   -5.7662 O   0  0  0  0  0  0  0  0  0  0  0  0
   -0.5184   -1.8969   -6.7025 S   0  0  0  0  0  0  0  0  0  0  0  0
    0.3919   -1.8887   -7.7942 O   0  0  0  0  0  0  0  0  0  0  0  0
   -0.6636   -3.1147   -5.8889 O   0  0  0  0  0  0  0  0  0  0  0  0
   -2.1572   -1.3928   -7.1779 C   0  0  0  0  0  0  0  0  0  0  0  0
    0.8589   -2.9733   -3.8652 O   0  0  0  0  0  0  0  0  0  0  0  0
   -2.2690   -2.0632   -4.3729 O   0  0  0  0  0  0  0  0  0  0  0  0
    2.1834   -2.5783    0.8274 H   0  0  0  0  0  0  0  0  0  0  0  0
    0.6533   -3.4160    1.2846 H   0  0  0  0  0  0  0  0  0  0  0  0
    0.6950   -1.6216    0.9471 H   0  0  0  0  0  0  0  0  0  0  0  0
   -1.1831   -3.8962   -2.7126 H   0  0  0  0  0  0  0  0  0  0  0  0
   -2.5365   -3.0023   -2.0929 H   0  0  0  0  0  0  0  0  0  0  0  0
   -1.5817   -0.8426   -2.9409 H   0  0  0  0  0  0  0  0  0  0  0  0
    0.5340   -1.2095   -2.8708 H   0  0  0  0  0  0  0  0  0  0  0  0
    0.9695    0.1975   -4.2443 H   0  0  0  0  0  0  0  0  0  0  0  0
    1.7197   -1.0956   -5.1553 H   0  0  0  0  0  0  0  0  0  0  0  0
   -2.7732   -1.0871   -6.3280 H   0  0  0  0  0  0  0  0  0  0  0  0
   -2.0557   -0.5511   -7.8551 H   0  0  0  0  0  0  0  0  0  0  0  0
   -2.6256   -2.2610   -7.6395 H   0  0  0  0  0  0  0  0  0  0  0  0
    0.5945   -3.4124   -4.6994 H   0  0  0  0  0  0  0  0  0  0  0  0
   -2.0476   -2.9299   -4.7747 H   0  0  0  0  0  0  0  0  0  0  0  0
  1  2  1  0  0  0  0
  1 17  1  0  0  0  0
  1 18  1  0  0  0  0
  1 19  1  0  0  0  0
  2  3  2  0  0  0  0
  2  4  2  0  0  0  0
  2  5  1  0  0  0  0
  5  6  1  0  0  0  0
  6  7  1  0  0  0  0
  6 20  1  0  0  0  0
  6 21  1  0  0  0  0
  7 16  1  0  0  0  0
  7 22  1  1  0  0  0
  8 15  1  0  0  0  0
  8 23  1  1  0  0  0
  8  9  1  0  0  0  0
  8  7  1  0  0  0  0
  9 10  1  0  0  0  0
  9 24  1  0  0  0  0
  9 25  1  0  0  0  0
 10 11  1  0  0  0  0
 11 12  2  0  0  0  0
 11 13  2  0  0  0  0
 11 14  1  0  0  0  0
 14 26  1  0  0  0  0
 14 27  1  0  0  0  0
 14 28  1  0  0  0  0
 15 29  1  0  0  0  0
 16 30  1  0  0  0  0
M  END
>  <DRUGBANK_ID>
DB11678

>  <COMMON_NAME>
Treosulfan

>  <CAS_NUMBER>
299-75-2

>  <UNII>
CO61ER3EPI

>  <SYNONYMS>
DIHYDROXYBUSULFAN; OVASTAT; Treosulfan

$$$$
