
 OpenBabel10282417193D

 44 46  0  0  1  0  0  0  0  0999 V2000
    3.0115   -0.7360    0.0393 C   0  0  0  0  0  0  0  0  0  0  0  0
    1.6626   -0.2294    0.1170 N   0  0  0  0  0  0  0  0  0  0  0  0
    0.4990   -0.9438    0.1758 C   0  0  0  0  0  0  0  0  0  0  0  0
   -0.5162   -0.0174    0.0373 C   0  0  0  0  0  0  0  0  0  0  0  0
    0.1345    1.2264    0.0079 C   0  0  0  0  0  0  0  0  0  0  0  0
    1.4652    1.1041    0.0184 N   0  0  0  0  0  0  0  0  0  0  0  0
   -2.1996   -0.2342   -0.0063 Cl  0  0  0  0  0  0  0  0  0  0  0  0
    0.3500   -2.4137    0.2080 C   0  0  0  0  0  0  0  0  0  0  0  0
   -0.3709   -3.0836   -0.7765 C   0  0  0  0  0  0  0  0  0  0  0  0
   -0.3375   -4.4388   -0.5303 C   0  0  0  0  0  0  0  0  0  0  0  0
    0.4069   -4.6147    0.6232 O   0  0  0  0  0  0  0  0  0  0  0  0
    0.8241   -3.3793    1.0572 C   0  0  0  0  0  0  0  0  0  0  0  0
    1.7281   -3.1343    2.4959 Cl  0  0  0  0  0  0  0  0  0  0  0  0
   -0.8937   -5.6217   -1.1888 C   0  0  0  0  0  0  0  0  0  0  0  0
   -0.7585   -6.7667   -0.7644 O   0  0  0  0  0  0  0  0  0  0  0  0
   -1.6214   -5.4973   -2.3607 N   0  0  0  0  0  0  0  0  0  0  0  0
   -1.9276   -4.3061   -3.1531 C   0  0  1  0  0  0  0  0  0  0  0  0
   -1.2061   -4.2089   -4.4918 C   0  0  0  0  0  0  0  0  0  0  0  0
   -1.7399   -5.2213   -5.4428 C   0  0  0  0  0  0  0  0  0  0  0  0
   -1.3992   -6.5656   -5.2419 C   0  0  0  0  0  0  0  0  0  0  0  0
   -1.9361   -7.5479   -6.0537 C   0  0  0  0  0  0  0  0  0  0  0  0
   -2.7682   -7.1740   -7.1008 C   0  0  0  0  0  0  0  0  0  0  0  0
   -3.1124   -5.8398   -7.3022 C   0  0  0  0  0  0  0  0  0  0  0  0
   -2.6222   -4.8536   -6.4615 C   0  0  0  0  0  0  0  0  0  0  0  0
   -3.9193   -5.4921   -8.3125 F   0  0  0  0  0  0  0  0  0  0  0  0
   -3.2276   -8.1188   -7.9289 F   0  0  0  0  0  0  0  0  0  0  0  0
   -3.4145   -3.9387   -3.1684 C   0  0  0  0  0  0  0  0  0  0  0  0
   -3.9508   -3.9277   -1.8073 N   0  0  0  0  0  0  0  0  0  0  0  0
    3.4909   -0.3334   -0.8574 H   0  0  0  0  0  0  0  0  0  0  0  0
    3.5322   -0.4103    0.9403 H   0  0  0  0  0  0  0  0  0  0  0  0
    3.0077   -1.8254   -0.0237 H   0  0  0  0  0  0  0  0  0  0  0  0
   -0.3076    2.2139   -0.0226 H   0  0  0  0  0  0  0  0  0  0  0  0
   -0.8096   -2.4987   -1.5581 H   0  0  0  0  0  0  0  0  0  0  0  0
   -2.0027   -6.3835   -2.6730 H   0  0  0  0  0  0  0  0  0  0  0  0
   -1.4914   -3.4828   -2.6662 H   0  0  0  0  0  0  0  0  0  0  0  0
   -1.3141   -3.1919   -4.8940 H   0  0  0  0  0  0  0  0  0  0  0  0
   -0.1254   -4.3618   -4.3610 H   0  0  0  0  0  0  0  0  0  0  0  0
   -0.7241   -6.8469   -4.4343 H   0  0  0  0  0  0  0  0  0  0  0  0
   -1.6938   -8.5895   -5.8776 H   0  0  0  0  0  0  0  0  0  0  0  0
   -2.9309   -3.8207   -6.6050 H   0  0  0  0  0  0  0  0  0  0  0  0
   -3.5188   -2.9323   -3.5907 H   0  0  0  0  0  0  0  0  0  0  0  0
   -3.9874   -4.6359   -3.7820 H   0  0  0  0  0  0  0  0  0  0  0  0
   -4.9532   -3.7530   -1.8349 H   0  0  0  0  0  0  0  0  0  0  0  0
   -3.8260   -4.8530   -1.3926 H   0  0  0  0  0  0  0  0  0  0  0  0
  1  2  1  0  0  0  0
  1 29  1  0  0  0  0
  1 30  1  0  0  0  0
  1 31  1  0  0  0  0
  2  3  1  0  0  0  0
  2  6  1  0  0  0  0
  3  4  2  0  0  0  0
  3  8  1  0  0  0  0
  4  5  1  0  0  0  0
  4  7  1  0  0  0  0
  5  6  2  0  0  0  0
  5 32  1  0  0  0  0
  8  9  1  0  0  0  0
  8 12  2  0  0  0  0
  9 10  2  0  0  0  0
  9 33  1  0  0  0  0
 10 11  1  0  0  0  0
 10 14  1  0  0  0  0
 11 12  1  0  0  0  0
 12 13  1  0  0  0  0
 14 15  2  0  0  0  0
 14 16  1  0  0  0  0
 16 34  1  0  0  0  0
 17 16  1  0  0  0  0
 17 18  1  0  0  0  0
 17 27  1  0  0  0  0
 17 35  1  1  0  0  0
 18 19  1  0  0  0  0
 18 36  1  0  0  0  0
 18 37  1  0  0  0  0
 19 20  2  0  0  0  0
 19 24  1  0  0  0  0
 20 21  1  0  0  0  0
 20 38  1  0  0  0  0
 21 22  2  0  0  0  0
 21 39  1  0  0  0  0
 22 23  1  0  0  0  0
 22 26  1  0  0  0  0
 23 24  2  0  0  0  0
 23 25  1  0  0  0  0
 24 40  1  0  0  0  0
 27 28  1  0  0  0  0
 27 41  1  0  0  0  0
 27 42  1  0  0  0  0
 28 43  1  0  0  0  0
 28 44  1  0  0  0  0
M  END
>  <DRUGBANK_ID>
DB11969

>  <COMMON_NAME>
Uprosertib

>  <CAS_NUMBER>
1047634-65-0

>  <UNII>
ZXM835LQ5E

>  <SYNONYMS>
Uprosertib

$$$$
