
 OpenBabel10282417143D

 22 22  0  0  0  0  0  0  0  0999 V2000
    0.9769   -0.8021   -0.2731 O   0  0  0  0  0  0  0  0  0  0  0  0
    0.2955   -0.7744   -1.4317 C   0  0  0  0  0  0  0  0  0  0  0  0
    0.8943   -0.8819   -2.5001 O   0  0  0  0  0  0  0  0  0  0  0  0
   -1.2130   -0.5727   -1.3184 C   0  0  0  0  0  0  0  0  0  0  0  0
   -1.9094   -1.7033   -1.6034 N   0  0  0  0  0  0  0  0  0  0  0  0
   -3.2544   -1.6539   -1.5031 C   0  0  0  0  0  0  0  0  0  0  0  0
   -3.9755   -0.5287   -1.1411 C   0  0  0  0  0  0  0  0  0  0  0  0
   -3.2768    0.6382   -0.8650 C   0  0  0  0  0  0  0  0  0  0  0  0
   -1.8716    0.6460   -0.9640 C   0  0  0  0  0  0  0  0  0  0  0  0
   -1.1321    1.8885   -0.4583 C   0  0  0  0  0  0  0  0  0  0  0  0
   -0.0456    1.5474    0.9743 P   0  0  0  0  0  0  0  0  0  0  0  0
   -0.7652    0.1024    1.1218 O   0  0  0  0  0  0  0  0  0  0  0  0
    1.2258    1.4938   -0.0776 O   0  0  0  0  0  0  0  0  0  0  0  0
    0.8736    1.2589    2.1864 O   0  0  0  0  0  0  0  0  0  0  0  0
    1.7761   -0.2158   -0.3004 H   0  0  0  0  0  0  0  0  0  0  0  0
   -3.7598   -2.5862   -1.7354 H   0  0  0  0  0  0  0  0  0  0  0  0
   -5.0580   -0.5675   -1.0713 H   0  0  0  0  0  0  0  0  0  0  0  0
   -3.8309    1.5164   -0.5351 H   0  0  0  0  0  0  0  0  0  0  0  0
   -0.6201    2.3146   -1.3278 H   0  0  0  0  0  0  0  0  0  0  0  0
   -1.8414    2.6629   -0.1430 H   0  0  0  0  0  0  0  0  0  0  0  0
   -1.2840   -0.0137    1.9370 H   0  0  0  0  0  0  0  0  0  0  0  0
    1.1650    1.8937   -0.9675 H   0  0  0  0  0  0  0  0  0  0  0  0
  1  2  1  0  0  0  0
  1 15  1  0  0  0  0
  2  3  2  0  0  0  0
  2  4  1  0  0  0  0
  4  5  2  0  0  0  0
  4  9  1  0  0  0  0
  5  6  1  0  0  0  0
  6  7  2  0  0  0  0
  6 16  1  0  0  0  0
  7  8  1  0  0  0  0
  7 17  1  0  0  0  0
  8  9  2  0  0  0  0
  8 18  1  0  0  0  0
  9 10  1  0  0  0  0
 10 11  1  0  0  0  0
 10 19  1  0  0  0  0
 10 20  1  0  0  0  0
 11 12  1  0  0  0  0
 11 13  1  0  0  0  0
 11 14  2  0  0  0  0
 12 21  1  0  0  0  0
 13 22  1  0  0  0  0
M  END
>  <DRUGBANK_ID>
DB04406

>  <SECONDARY_ACCESSION_NUMBERS>
EXPT02615

>  <COMMON_NAME>
3-(Phosphonomethyl)Pyridine-2-Carboxylic Acid

$$$$
