
 OpenBabel10282417123D

 29 29  0  0  1  0  0  0  0  0999 V2000
    1.1303    0.2886   -0.1649 N   0  0  0  0  0  0  0  0  0  0  0  0
    0.4827   -0.6050   -1.1595 C   0  0  1  0  0  0  0  0  0  0  0  0
    0.9626   -2.0402   -1.0419 C   0  0  0  0  0  0  0  0  0  0  0  0
    0.5643   -2.7478    0.2192 C   0  0  0  0  0  0  0  0  0  0  0  0
    0.6685   -4.1030    0.1709 C   0  0  0  0  0  0  0  0  0  0  0  0
    0.4379   -4.8016    1.3308 C   0  0  0  0  0  0  0  0  0  0  0  0
    0.1096   -4.2265    2.5817 C   0  0  0  0  0  0  0  0  0  0  0  0
   -0.1799   -4.8591    3.7838 O   0  0  0  0  0  0  0  0  0  0  0  0
   -0.1818   -6.5885    3.8293 P   0  0  0  0  0  0  0  0  0  0  0  0
    0.9354   -6.7711    2.6788 O   0  0  0  0  0  0  0  0  0  0  0  0
    0.8822   -6.4505    5.0711 O   0  0  0  0  0  0  0  0  0  0  0  0
   -0.1835   -8.1363    3.8700 O   0  0  0  0  0  0  0  0  0  0  0  0
    0.0283   -2.8644    2.6291 C   0  0  0  0  0  0  0  0  0  0  0  0
    0.1603   -2.1631    1.4391 C   0  0  0  0  0  0  0  0  0  0  0  0
   -1.0763   -0.6017   -1.1333 C   0  0  0  0  0  0  0  0  0  0  0  0
   -1.6360   -0.0848   -2.2558 O   0  0  0  0  0  0  0  0  0  0  0  0
   -1.7838   -1.0565   -0.2625 O   0  0  0  0  0  0  0  0  0  0  0  0
    0.8535    0.0280    0.7790 H   0  0  0  0  0  0  0  0  0  0  0  0
    2.1301    0.0650   -0.1364 H   0  0  0  0  0  0  0  0  0  0  0  0
    0.8197   -0.2324   -2.1300 H   0  0  0  0  0  0  0  0  0  0  0  0
    0.6057   -2.6106   -1.9150 H   0  0  0  0  0  0  0  0  0  0  0  0
    2.0620   -2.0821   -1.0982 H   0  0  0  0  0  0  0  0  0  0  0  0
    0.9275   -4.6483   -0.7357 H   0  0  0  0  0  0  0  0  0  0  0  0
    0.6385   -5.8235    1.0853 H   0  0  0  0  0  0  0  0  0  0  0  0
    0.4525   -7.3583    2.0528 H   0  0  0  0  0  0  0  0  0  0  0  0
    0.8734   -5.5533    5.4419 H   0  0  0  0  0  0  0  0  0  0  0  0
   -0.1701   -2.3286    3.5507 H   0  0  0  0  0  0  0  0  0  0  0  0
   -0.1827   -1.1432    1.5143 H   0  0  0  0  0  0  0  0  0  0  0  0
   -1.0054    0.3008   -2.8846 H   0  0  0  0  0  0  0  0  0  0  0  0
  1 18  1  0  0  0  0
  1 19  1  0  0  0  0
  2  1  1  0  0  0  0
  2  3  1  0  0  0  0
  2 15  1  0  0  0  0
  2 20  1  6  0  0  0
  3  4  1  0  0  0  0
  3 21  1  0  0  0  0
  3 22  1  0  0  0  0
  4  5  2  0  0  0  0
  4 14  1  0  0  0  0
  5  6  1  0  0  0  0
  5 23  1  0  0  0  0
  6  7  2  0  0  0  0
  6 24  1  0  0  0  0
  7  8  1  0  0  0  0
  7 13  1  0  0  0  0
  8  9  1  0  0  0  0
  9 10  1  0  0  0  0
  9 11  1  0  0  0  0
  9 12  2  0  0  0  0
 10 25  1  0  0  0  0
 11 26  1  0  0  0  0
 13 14  2  0  0  0  0
 13 27  1  0  0  0  0
 14 28  1  0  0  0  0
 15 16  1  0  0  0  0
 15 17  2  0  0  0  0
 16 29  1  0  0  0  0
M  END
>  <DRUGBANK_ID>
DB01962

>  <SECONDARY_ACCESSION_NUMBERS>
EXPT02687

>  <COMMON_NAME>
Phosphonotyrosine

>  <CAS_NUMBER>
21820-51-9

>  <UNII>
2R86C98KDX

$$$$
