
 OpenBabel10282417173D

 87 92  0  0  0  0  0  0  0  0999 V2000
   -1.2075    0.8712   -0.2127 C   0  0  0  0  0  0  0  0  0  0  0  0
   -0.7382   -0.4623   -0.1923 C   0  0  0  0  0  0  0  0  0  0  0  0
    0.7126   -0.4634   -0.2422 C   0  0  0  0  0  0  0  0  0  0  0  0
    1.1736    0.8735   -0.3021 C   0  0  0  0  0  0  0  0  0  0  0  0
   -0.0218    1.8452   -0.2069 C   0  0  0  0  0  0  0  0  0  0  0  0
    1.6199   -1.5092   -0.1223 C   0  0  0  0  0  0  0  0  0  0  0  0
    2.9890   -1.2157   -0.0622 C   0  0  0  0  0  0  0  0  0  0  0  0
    3.4431    0.1088   -0.1365 C   0  0  0  0  0  0  0  0  0  0  0  0
    2.5371    1.1614   -0.2959 C   0  0  0  0  0  0  0  0  0  0  0  0
   -2.5584    1.1771   -0.0844 C   0  0  0  0  0  0  0  0  0  0  0  0
   -3.4606    0.1205   -0.0123 C   0  0  0  0  0  0  0  0  0  0  0  0
   -3.0050   -1.2081   -0.0166 C   0  0  0  0  0  0  0  0  0  0  0  0
   -1.6377   -1.5060   -0.0738 C   0  0  0  0  0  0  0  0  0  0  0  0
   -0.0392    2.7729   -1.4320 C   0  0  0  0  0  0  0  0  0  0  0  0
    0.0552    4.1341   -1.1993 N   0  0  0  0  0  0  0  0  0  0  0  0
   -0.0901    2.3347   -2.5808 O   0  0  0  0  0  0  0  0  0  0  0  0
   -0.0291    5.0850   -2.3013 C   0  0  0  0  0  0  0  0  0  0  0  0
   -1.2748    5.9630   -2.2579 C   0  0  0  0  0  0  0  0  0  0  0  0
   -1.2793    6.7151   -1.1301 F   0  0  0  0  0  0  0  0  0  0  0  0
   -1.3115    6.8039   -3.3125 F   0  0  0  0  0  0  0  0  0  0  0  0
   -2.4096    5.2319   -2.2604 F   0  0  0  0  0  0  0  0  0  0  0  0
   -0.0856    2.6188    1.1245 C   0  0  0  0  0  0  0  0  0  0  0  0
   -0.2156    1.7196    2.3628 C   0  0  0  0  0  0  0  0  0  0  0  0
    1.1015    1.0269    2.7619 C   0  0  0  0  0  0  0  0  0  0  0  0
    2.3912    1.8714    2.7197 C   0  0  0  0  0  0  0  0  0  0  0  0
    2.4787    2.8468    3.7992 N   0  0  0  0  0  0  0  0  0  0  0  0
    3.7055    3.6332    3.6854 C   0  0  0  0  0  0  0  0  0  0  0  0
    3.7517    4.5623    4.8936 C   0  0  0  0  0  0  0  0  0  0  0  0
    2.5144    5.4725    4.9715 C   0  0  0  0  0  0  0  0  0  0  0  0
    1.2594    4.6627    4.9383 C   0  0  0  0  0  0  0  0  0  0  0  0
    1.3373    3.7496    3.7738 C   0  0  0  0  0  0  0  0  0  0  0  0
    2.4403    6.2346    6.1884 N   0  0  0  0  0  0  0  0  0  0  0  0
    2.3939    7.6102    6.1905 C   0  0  0  0  0  0  0  0  0  0  0  0
    2.4317    8.2670    7.5284 C   0  0  0  0  0  0  0  0  0  0  0  0
    2.3743    8.2849    5.1798 O   0  0  0  0  0  0  0  0  0  0  0  0
    3.2913    7.8325    8.5566 C   0  0  0  0  0  0  0  0  0  0  0  0
    3.3913    8.6030    9.7276 C   0  0  0  0  0  0  0  0  0  0  0  0
    2.6684    9.7809    9.8735 C   0  0  0  0  0  0  0  0  0  0  0  0
    1.8304   10.2079    8.8480 C   0  0  0  0  0  0  0  0  0  0  0  0
    1.6838    9.4391    7.6915 C   0  0  0  0  0  0  0  0  0  0  0  0
    4.1356    6.6453    8.4538 C   0  0  0  0  0  0  0  0  0  0  0  0
    5.0852    6.5326    7.4286 C   0  0  0  0  0  0  0  0  0  0  0  0
    5.8443    5.3779    7.2984 C   0  0  0  0  0  0  0  0  0  0  0  0
    5.6888    4.3307    8.2124 C   0  0  0  0  0  0  0  0  0  0  0  0
    4.7812    4.4646    9.2725 C   0  0  0  0  0  0  0  0  0  0  0  0
    3.9690    5.5878    9.3575 C   0  0  0  0  0  0  0  0  0  0  0  0
    6.4389    3.0413    8.0341 C   0  0  0  0  0  0  0  0  0  0  0  0
    7.2659    2.7761    9.0794 F   0  0  0  0  0  0  0  0  0  0  0  0
    5.6004    1.9736    7.9313 F   0  0  0  0  0  0  0  0  0  0  0  0
    7.2147    3.0157    6.9157 F   0  0  0  0  0  0  0  0  0  0  0  0
    1.2851   -2.5359   -0.0204 H   0  0  0  0  0  0  0  0  0  0  0  0
    3.7104   -2.0208    0.0625 H   0  0  0  0  0  0  0  0  0  0  0  0
    4.5054    0.3200   -0.0234 H   0  0  0  0  0  0  0  0  0  0  0  0
    2.9005    2.1851   -0.2989 H   0  0  0  0  0  0  0  0  0  0  0  0
   -2.9052    2.2040   -0.0178 H   0  0  0  0  0  0  0  0  0  0  0  0
   -4.5265    0.3270    0.0454 H   0  0  0  0  0  0  0  0  0  0  0  0
   -3.7289   -2.0182    0.0196 H   0  0  0  0  0  0  0  0  0  0  0  0
   -1.3014   -2.5359   -0.0338 H   0  0  0  0  0  0  0  0  0  0  0  0
    0.0178    4.5295   -0.2679 H   0  0  0  0  0  0  0  0  0  0  0  0
    0.8674    5.7085   -2.2351 H   0  0  0  0  0  0  0  0  0  0  0  0
    0.0015    4.5505   -3.2533 H   0  0  0  0  0  0  0  0  0  0  0  0
    0.7826    3.2817    1.1815 H   0  0  0  0  0  0  0  0  0  0  0  0
   -0.9414    3.3117    1.1371 H   0  0  0  0  0  0  0  0  0  0  0  0
   -0.6876    2.2939    3.1592 H   0  0  0  0  0  0  0  0  0  0  0  0
   -0.9951    0.9664    2.2505 H   0  0  0  0  0  0  0  0  0  0  0  0
    0.9973    0.5400    3.7345 H   0  0  0  0  0  0  0  0  0  0  0  0
    1.2458    0.1860    2.0914 H   0  0  0  0  0  0  0  0  0  0  0  0
    3.2497    1.1868    2.7470 H   0  0  0  0  0  0  0  0  0  0  0  0
    2.4950    2.4215    1.7848 H   0  0  0  0  0  0  0  0  0  0  0  0
    3.7303    4.2114    2.7503 H   0  0  0  0  0  0  0  0  0  0  0  0
    4.5851    2.9769    3.6834 H   0  0  0  0  0  0  0  0  0  0  0  0
    4.6567    5.1673    4.8273 H   0  0  0  0  0  0  0  0  0  0  0  0
    3.8141    3.9401    5.7962 H   0  0  0  0  0  0  0  0  0  0  0  0
    2.5284    6.1438    4.1049 H   0  0  0  0  0  0  0  0  0  0  0  0
    1.1268    4.0612    5.8484 H   0  0  0  0  0  0  0  0  0  0  0  0
    0.3647    5.2908    4.8415 H   0  0  0  0  0  0  0  0  0  0  0  0
    0.4540    3.1906    3.9737 H   0  0  0  0  0  0  0  0  0  0  0  0
    1.2691    4.3202    2.8407 H   0  0  0  0  0  0  0  0  0  0  0  0
    2.3799    5.7120    7.0522 H   0  0  0  0  0  0  0  0  0  0  0  0
    4.0811    8.3008   10.5148 H   0  0  0  0  0  0  0  0  0  0  0  0
    2.7742   10.3668   10.7825 H   0  0  0  0  0  0  0  0  0  0  0  0
    1.3110   11.1575    8.9387 H   0  0  0  0  0  0  0  0  0  0  0  0
    1.0040    9.7649    6.9073 H   0  0  0  0  0  0  0  0  0  0  0  0
    5.1682    7.3104    6.6685 H   0  0  0  0  0  0  0  0  0  0  0  0
    6.5177    5.2841    6.4479 H   0  0  0  0  0  0  0  0  0  0  0  0
    4.6918    3.6826   10.0238 H   0  0  0  0  0  0  0  0  0  0  0  0
    3.1875    5.6295   10.1157 H   0  0  0  0  0  0  0  0  0  0  0  0
  1  2  1  0  0  0  0
  1  5  1  0  0  0  0
  1 10  2  0  0  0  0
  2  3  1  0  0  0  0
  2 13  2  0  0  0  0
  3  4  1  0  0  0  0
  3  6  2  0  0  0  0
  4  5  1  0  0  0  0
  4  9  2  0  0  0  0
  6  7  1  0  0  0  0
  6 51  1  0  0  0  0
  7  8  2  0  0  0  0
  7 52  1  0  0  0  0
  8  9  1  0  0  0  0
  8 53  1  0  0  0  0
  9 54  1  0  0  0  0
 10 11  1  0  0  0  0
 10 55  1  0  0  0  0
 11 12  2  0  0  0  0
 11 56  1  0  0  0  0
 12 13  1  0  0  0  0
 12 57  1  0  0  0  0
 13 58  1  0  0  0  0
 14  5  1  0  0  0  0
 14 15  1  0  0  0  0
 14 16  2  0  0  0  0
 15 17  1  0  0  0  0
 15 59  1  0  0  0  0
 17 18  1  0  0  0  0
 17 60  1  0  0  0  0
 17 61  1  0  0  0  0
 18 19  1  0  0  0  0
 18 20  1  0  0  0  0
 18 21  1  0  0  0  0
 22 23  1  0  0  0  0
 22  5  1  0  0  0  0
 22 62  1  0  0  0  0
 22 63  1  0  0  0  0
 23 24  1  0  0  0  0
 23 64  1  0  0  0  0
 23 65  1  0  0  0  0
 24 25  1  0  0  0  0
 24 66  1  0  0  0  0
 24 67  1  0  0  0  0
 25 26  1  0  0  0  0
 25 68  1  0  0  0  0
 25 69  1  0  0  0  0
 26 27  1  0  0  0  0
 26 31  1  0  0  0  0
 27 28  1  0  0  0  0
 27 70  1  0  0  0  0
 27 71  1  0  0  0  0
 28 29  1  0  0  0  0
 28 72  1  0  0  0  0
 28 73  1  0  0  0  0
 29 30  1  0  0  0  0
 29 32  1  0  0  0  0
 29 74  1  0  0  0  0
 30 31  1  0  0  0  0
 30 75  1  0  0  0  0
 30 76  1  0  0  0  0
 31 77  1  0  0  0  0
 31 78  1  0  0  0  0
 32 33  1  0  0  0  0
 32 79  1  0  0  0  0
 33 34  1  0  0  0  0
 33 35  2  0  0  0  0
 34 36  2  0  0  0  0
 34 40  1  0  0  0  0
 36 37  1  0  0  0  0
 36 41  1  0  0  0  0
 37 38  2  0  0  0  0
 37 80  1  0  0  0  0
 38 39  1  0  0  0  0
 38 81  1  0  0  0  0
 39 40  2  0  0  0  0
 39 82  1  0  0  0  0
 40 83  1  0  0  0  0
 41 42  2  0  0  0  0
 41 46  1  0  0  0  0
 42 43  1  0  0  0  0
 42 84  1  0  0  0  0
 43 44  2  0  0  0  0
 43 85  1  0  0  0  0
 44 45  1  0  0  0  0
 44 47  1  0  0  0  0
 45 46  2  0  0  0  0
 45 86  1  0  0  0  0
 46 87  1  0  0  0  0
 47 48  1  0  0  0  0
 47 49  1  0  0  0  0
 47 50  1  0  0  0  0
M  END
>  <DRUGBANK_ID>
DB08827

>  <COMMON_NAME>
Lomitapide

>  <CAS_NUMBER>
182431-12-5

>  <UNII>
82KUB0583F

>  <SYNONYMS>
Lomitapida; Lomitapide; Lomitapidum

$$$$
