ZZA
 OpenBabel10282417173D

 22 23  0  0  0  0  0  0  0  0999 V2000
    0.7922    0.0293   -0.0211 O   0  0  0  0  0  0  0  0  0  0  0  0
    0.2374   -0.9082   -0.8143 C   0  0  0  0  0  0  0  0  0  0  0  0
    0.9448   -1.6866   -1.4452 O   0  0  0  0  0  0  0  0  0  0  0  0
   -1.1990   -0.9284   -0.8027 C   0  0  0  0  0  0  0  0  0  0  0  0
   -2.1248    0.1335   -0.8367 C   0  0  0  0  0  0  0  0  0  0  0  0
   -3.3897   -0.2888   -0.9611 N   0  0  0  0  0  0  0  0  0  0  0  0
   -3.2958   -1.6393   -0.8808 N   0  0  0  0  0  0  0  0  0  0  0  0
   -1.9922   -2.0569   -0.7919 C   0  0  0  0  0  0  0  0  0  0  0  0
   -4.4384   -2.4670   -0.8414 C   0  0  0  0  0  0  0  0  0  0  0  0
   -4.5890   -3.3810    0.2090 C   0  0  0  0  0  0  0  0  0  0  0  0
   -5.7495   -4.1537    0.2893 C   0  0  0  0  0  0  0  0  0  0  0  0
   -6.7391   -4.0341   -0.6871 C   0  0  0  0  0  0  0  0  0  0  0  0
   -6.5796   -3.1287   -1.7382 C   0  0  0  0  0  0  0  0  0  0  0  0
   -5.4200   -2.3538   -1.8304 C   0  0  0  0  0  0  0  0  0  0  0  0
    1.7543   -0.1459   -0.0936 H   0  0  0  0  0  0  0  0  0  0  0  0
   -1.9225    1.1987   -0.8341 H   0  0  0  0  0  0  0  0  0  0  0  0
   -1.7408   -3.1071   -0.7845 H   0  0  0  0  0  0  0  0  0  0  0  0
   -3.8462   -3.4558    0.9990 H   0  0  0  0  0  0  0  0  0  0  0  0
   -5.8954   -4.8324    1.1262 H   0  0  0  0  0  0  0  0  0  0  0  0
   -7.6370   -4.6455   -0.6283 H   0  0  0  0  0  0  0  0  0  0  0  0
   -7.3669   -3.0212   -2.4803 H   0  0  0  0  0  0  0  0  0  0  0  0
   -5.2702   -1.7093   -2.6937 H   0  0  0  0  0  0  0  0  0  0  0  0
  1  2  1  0  0  0  0
  1 15  1  0  0  0  0
  2  3  2  0  0  0  0
  2  4  1  0  0  0  0
  4  5  1  0  0  0  0
  4  8  2  0  0  0  0
  5  6  2  0  0  0  0
  5 16  1  0  0  0  0
  6  7  1  0  0  0  0
  7  8  1  0  0  0  0
  7  9  1  0  0  0  0
  8 17  1  0  0  0  0
  9 10  1  0  0  0  0
  9 14  2  0  0  0  0
 10 11  2  0  0  0  0
 10 18  1  0  0  0  0
 11 12  1  0  0  0  0
 11 19  1  0  0  0  0
 12 13  2  0  0  0  0
 12 20  1  0  0  0  0
 13 14  1  0  0  0  0
 13 21  1  0  0  0  0
 14 22  1  0  0  0  0
M  END
>  <DRUGBANK_ID>
DB08790

>  <COMMON_NAME>
1-PHENYL-1H-PYRAZOLE-4-CARBOXYLIC ACID

$$$$
