
 OpenBabel10282417123D

 20 22  0  0  0  0  0  0  0  0999 V2000
    0.9704    0.0827    0.0063 C   0  0  0  0  0  0  0  0  0  0  0  0
    0.6255   -3.6280    0.7064 C   0  0  0  0  0  0  0  0  0  0  0  0
    0.9877   -2.3909    0.1511 C   0  0  0  0  0  0  0  0  0  0  0  0
   -0.2804   -3.6903    1.7646 C   0  0  0  0  0  0  0  0  0  0  0  0
   -1.2827    1.1056    2.2683 C   0  0  0  0  0  0  0  0  0  0  0  0
    0.4708   -1.1743    0.6392 C   0  0  0  0  0  0  0  0  0  0  0  0
   -0.8223   -2.5036    2.2371 C   0  0  0  0  0  0  0  0  0  0  0  0
   -0.4560   -1.2615    1.6717 C   0  0  0  0  0  0  0  0  0  0  0  0
   -1.9822   -0.6370    3.3341 C   0  0  0  0  0  0  0  0  0  0  0  0
   -2.1266    1.5058    3.2051 N   0  0  0  0  0  0  0  0  0  0  0  0
   -2.5777    0.3852    3.8889 N   0  0  0  0  0  0  0  0  0  0  0  0
   -1.1540   -0.2444    2.3285 N   0  0  0  0  0  0  0  0  0  0  0  0
   -2.0075   -2.3441    3.5831 S   0  0  0  0  0  0  0  0  0  0  0  0
    0.7198    0.9751    0.5700 H   0  0  0  0  0  0  0  0  0  0  0  0
    0.5681    0.1824   -1.0057 H   0  0  0  0  0  0  0  0  0  0  0  0
    2.0644    0.0620   -0.0357 H   0  0  0  0  0  0  0  0  0  0  0  0
    1.0660   -4.5410    0.3094 H   0  0  0  0  0  0  0  0  0  0  0  0
    1.7021   -2.3814   -0.6729 H   0  0  0  0  0  0  0  0  0  0  0  0
   -0.5469   -4.6491    2.1990 H   0  0  0  0  0  0  0  0  0  0  0  0
   -0.7918    1.7632    1.5714 H   0  0  0  0  0  0  0  0  0  0  0  0
  1 14  1  0  0  0  0
  1 15  1  0  0  0  0
  1 16  1  0  0  0  0
  2 17  1  0  0  0  0
  3  2  2  0  0  0  0
  3 18  1  0  0  0  0
  4  2  1  0  0  0  0
  4 19  1  0  0  0  0
  5 20  1  0  0  0  0
  6  1  1  0  0  0  0
  6  3  1  0  0  0  0
  7  4  2  0  0  0  0
  8  6  2  0  0  0  0
  8  7  1  0  0  0  0
 10  5  2  0  0  0  0
 11  9  2  0  0  0  0
 11 10  1  0  0  0  0
 12  5  1  0  0  0  0
 12  8  1  0  0  0  0
 12  9  1  0  0  0  0
 13  7  1  0  0  0  0
 13  9  1  0  0  0  0
M  END
>  <DRUGBANK_ID>
DB02891

>  <SECONDARY_ACCESSION_NUMBERS>
EXPT00658

>  <COMMON_NAME>
Tricyclazole

>  <CAS_NUMBER>
41814-78-2

>  <UNII>
R7U3MEU7VR

>  <SYNONYMS>
2,7,8,9-tricyclazole; 5-methyl-1,2,4-triazolo(3,4-b)(1,3)benzothiazole; 5-methyl-1,2,4-triazolo(3,4-b)benzothiazole; Beam; Tricyclazone

$$$$
