
 OpenBabel10282417213D

 13 12  0  0  0  0  0  0  0  0999 V2000
   -0.6790    1.1930    0.0010 B   0  0  0  0  0  0  0  0  0  0  0  0
   -2.7886   -2.4639    0.0040 B   0  0  0  0  0  0  0  0  0  0  0  0
   -0.6810   -1.1920    0.0010 B   0  0  0  0  0  0  0  0  0  0  0  0
    1.3460   -0.0010   -0.0020 B   0  0  0  0  0  0  0  0  0  0  0  0
   -1.4021    2.5072    0.0042 O   0  5  0  0  0  0  0  0  0  0  0  0
   -3.5133   -3.7773    0.0072 O   0  5  0  0  0  0  0  0  0  0  0  0
   -1.3890    0.0010   -0.0020 O   0  0  0  0  0  0  0  0  0  0  0  0
    0.7010    1.1550    0.0010 O   0  0  0  0  0  0  0  0  0  0  0  0
   -1.3676   -2.4364    0.0040 O   0  0  0  0  0  0  0  0  0  0  0  0
    2.7672   -0.0020   -0.0086 O   0  0  0  0  0  0  0  0  0  0  0  0
    0.7000   -1.1550    0.0010 O   0  0  0  0  0  0  0  0  0  0  0  0
    0.9214    0.0500   -0.0364 Na  0  3  0  0  0  0  0  0  0  0  0  0
    0.9373   -0.0478    0.0615 Na  0  3  0  0  0  0  0  0  0  0  0  0
  5  1  1  0  0  0  0
  6  2  1  0  0  0  0
  7  1  1  0  0  0  0
  7  3  1  0  0  0  0
  8  1  1  0  0  0  0
  8  4  1  0  0  0  0
  9  2  1  0  0  0  0
  9  3  1  0  0  0  0
 10  2  1  0  0  0  0
 10  4  1  0  0  0  0
 11  3  1  0  0  0  0
 11  4  1  0  0  0  0
M  CHG  4   5  -1   6  -1  12   1  13   1
M  END
>  <DRUGBANK_ID>
DB14505

>  <SECONDARY_ACCESSION_NUMBERS>
DBSALT002513

>  <COMMON_NAME>
Sodium borate

>  <CAS_NUMBER>
1330-43-4

>  <UNII>
8191EN8ZMD

>  <SYNONYMS>
Borax; Sodium borate anhydrous

$$$$
