
 OpenBabel10282417123D

 76 80  0  0  1  0  0  0  0  0999 V2000
   -0.7561    1.1644    0.0844 C   0  0  0  0  0  0  0  0  0  0  0  0
   -1.3879   -0.0623   -0.0393 C   0  0  0  0  0  0  0  0  0  0  0  0
    0.6186    1.2168   -0.0279 C   0  0  0  0  0  0  0  0  0  0  0  0
    0.7318   -1.1243    0.0614 C   0  0  0  0  0  0  0  0  0  0  0  0
    3.9968   -2.7128   -1.2424 C   0  0  0  0  0  0  0  0  0  0  0  0
    4.8459   -7.2343    4.5677 C   0  0  0  0  0  0  0  0  0  0  0  0
    9.1242   -4.0818    1.1270 C   0  0  0  0  0  0  0  0  0  0  0  0
    5.5581   -3.1513    3.8749 C   0  0  0  0  0  0  0  0  0  0  0  0
   -0.6423   -1.2362   -0.0478 C   0  0  0  0  0  0  0  0  0  0  0  0
    4.4255   -1.2371   -1.1520 C   0  0  2  0  0  0  0  0  0  0  0  0
    5.4734   -6.4381    5.8204 C   0  0  2  0  0  0  0  0  0  0  0  0
    6.9579   -4.8879    1.8635 C   0  0  0  0  0  0  0  0  0  0  0  0
    4.8777   -0.7898    0.2303 C   0  0  2  0  0  0  0  0  0  0  0  0
    4.3709   -5.5556    6.2620 C   0  0  2  0  0  0  0  0  0  0  0  0
    3.5607   -0.3652    0.9516 C   0  0  2  0  0  0  0  0  0  0  0  0
    4.6325   -4.2001    5.6254 C   0  0  2  0  0  0  0  0  0  0  0  0
    7.2532   -5.5431    0.6258 C   0  0  0  0  0  0  0  0  0  0  0  0
   -1.2979   -2.5644   -0.1893 C   0  0  0  0  0  0  0  0  0  0  0  0
    7.8512   -3.9277    2.8667 C   0  0  0  0  0  0  0  0  0  0  0  0
    2.8061    0.1915   -0.2220 C   0  0  2  0  0  0  0  0  0  0  0  0
    6.2748   -4.0677    5.6036 C   0  0  2  0  0  0  0  0  0  0  0  0
    6.4295   -6.5903    0.1196 N   0  0  0  0  0  0  0  0  0  0  0  0
   -0.6540   -3.6805   -0.2055 N   0  0  0  0  0  0  0  0  0  0  0  0
    8.4925   -5.1262    0.3085 N   0  0  0  0  0  0  0  0  0  0  0  0
    8.8975   -3.3640    2.3064 N   0  0  0  0  0  0  0  0  0  0  0  0
    5.2896   -4.6510    3.1562 N   0  0  0  0  0  0  0  0  0  0  0  0
    1.3465    0.0826   -0.0457 N   0  3  0  0  0  0  0  0  0  0  0  0
    6.9431   -3.3488    4.2238 N   0  0  0  0  0  0  0  0  0  0  0  0
    5.8432    0.2331    0.3053 O   0  0  0  0  0  0  0  0  0  0  0  0
    4.6012   -5.5444    7.6471 O   0  0  0  0  0  0  0  0  0  0  0  0
    3.7167    0.5791    2.0054 O   0  0  0  0  0  0  0  0  0  0  0  0
    4.9727   -1.5288    7.8366 O   0  0  0  0  0  0  0  0  0  0  0  0
    3.7115   -3.5871    8.4967 O   0  0  0  0  0  0  0  0  0  0  0  0
    5.9227   -3.0595    9.2736 O   0  0  0  0  0  0  0  0  0  0  0  0
    4.2856   -2.3214    2.0510 O   0  0  0  0  0  0  0  0  0  0  0  0
    3.7806   -4.7276    1.4762 O   0  0  0  0  0  0  0  0  0  0  0  0
    7.6069   -6.7884    2.6842 O   0  0  0  0  0  0  0  0  0  0  0  0
    6.8902   -5.6507    4.3521 O   0  0  0  0  0  0  0  0  0  0  0  0
    3.5125   -3.0977    0.0339 O   0  0  0  0  0  0  0  0  0  0  0  0
    5.2698   -7.1670    3.2680 O   0  0  0  0  0  0  0  0  0  0  0  0
    3.2360   -0.4587   -1.4229 O   0  0  0  0  0  0  0  0  0  0  0  0
    6.6361   -5.4220    6.1760 O   0  0  0  0  0  0  0  0  0  0  0  0
    4.2143   -3.0347    6.2649 O   0  0  0  0  0  0  0  0  0  0  0  0
    6.0519   -3.7832    2.2819 O   0  0  0  0  0  0  0  0  0  0  0  0
    5.0685   -3.0471    7.7693 P   0  0  0  0  0  0  0  0  0  0  0  0
    4.7822   -3.4405    1.1579 P   0  0  3  0  0  0  0  0  0  0  0  0
    6.3075   -6.0311    3.0207 P   0  0  3  0  0  0  0  0  0  0  0  0
   -2.9858   -2.8005   -0.3959 S   0  5  0  0  0  0  0  0  0  0  0  0
    5.1886   -1.0235   -1.8986 H   0  0  0  0  0  0  0  0  0  0  0  0
    5.8052   -7.2422    6.4652 H   0  0  0  0  0  0  0  0  0  0  0  0
    5.5399   -1.5796    0.5399 H   0  0  0  0  0  0  0  0  0  0  0  0
    3.3688   -5.9211    6.0518 H   0  0  0  0  0  0  0  0  0  0  0  0
    2.9036   -1.1379    1.3682 H   0  0  0  0  0  0  0  0  0  0  0  0
    3.9860   -4.1617    4.7256 H   0  0  0  0  0  0  0  0  0  0  0  0
    3.0719    1.2458   -0.3243 H   0  0  0  0  0  0  0  0  0  0  0  0
    6.7880   -3.3903    6.2835 H   0  0  0  0  0  0  0  0  0  0  0  0
   -1.3381    2.0651    0.2359 H   0  0  0  0  0  0  0  0  0  0  0  0
   -2.4725   -0.1082   -0.1183 H   0  0  0  0  0  0  0  0  0  0  0  0
    1.1437    2.1636   -0.1076 H   0  0  0  0  0  0  0  0  0  0  0  0
    1.3549   -1.9877    0.2383 H   0  0  0  0  0  0  0  0  0  0  0  0
    3.1766   -2.7573   -1.9646 H   0  0  0  0  0  0  0  0  0  0  0  0
    4.7332   -3.4653   -1.5618 H   0  0  0  0  0  0  0  0  0  0  0  0
    3.8464   -6.8846    4.3261 H   0  0  0  0  0  0  0  0  0  0  0  0
    4.7994   -8.2959    4.8392 H   0  0  0  0  0  0  0  0  0  0  0  0
   10.0554   -3.7254    0.7394 H   0  0  0  0  0  0  0  0  0  0  0  0
    5.0591   -2.2243    4.2799 H   0  0  0  0  0  0  0  0  0  0  0  0
    5.7450   -7.0314    0.7619 H   0  0  0  0  0  0  0  0  0  0  0  0
    6.9629   -7.3309   -0.3364 H   0  0  0  0  0  0  0  0  0  0  0  0
    0.3466   -3.6207   -0.1134 H   0  0  0  0  0  0  0  0  0  0  0  0
    5.4888    1.0218   -0.1021 H   0  0  0  0  0  0  0  0  0  0  0  0
    5.5391   -5.2781    7.7829 H   0  0  0  0  0  0  0  0  0  0  0  0
    4.4134    1.2051    1.7584 H   0  0  0  0  0  0  0  0  0  0  0  0
    3.2709   -4.2628    7.9376 H   0  0  0  0  0  0  0  0  0  0  0  0
    6.7650   -2.5813    9.1827 H   0  0  0  0  0  0  0  0  0  0  0  0
    2.8188   -4.5101    1.4706 H   0  0  0  0  0  0  0  0  0  0  0  0
    7.7043   -5.1693    4.4700 H   0  0  0  0  0  0  0  0  0  0  0  0
  1 57  1  0  0  0  0
  2  1  2  0  0  0  0
  2 58  1  0  0  0  0
  3  1  1  0  0  0  0
  3 59  1  0  0  0  0
  4 60  1  0  0  0  0
  5 61  1  0  0  0  0
  5 62  1  0  0  0  0
  6 63  1  0  0  0  0
  6 64  1  0  0  0  0
  7 65  1  0  0  0  0
  8 66  1  0  0  0  0
  9  2  1  0  0  0  0
  9  4  2  0  0  0  0
 10 49  1  6  0  0  0
 10  5  1  0  0  0  0
 11  6  1  0  0  0  0
 11 50  1  1  0  0  0
 13 10  1  0  0  0  0
 13 29  1  0  0  0  0
 13 51  1  1  0  0  0
 14 11  1  0  0  0  0
 14 30  1  0  0  0  0
 14 52  1  6  0  0  0
 15 13  1  0  0  0  0
 15 31  1  0  0  0  0
 15 53  1  1  0  0  0
 16 14  1  0  0  0  0
 16 43  1  0  0  0  0
 16 54  1  6  0  0  0
 17 12  2  0  0  0  0
 18  9  1  0  0  0  0
 19 12  1  0  0  0  0
 20 15  1  0  0  0  0
 20 27  1  0  0  0  0
 20 55  1  6  0  0  0
 21 16  1  0  0  0  0
 21 56  1  1  0  0  0
 21 28  1  0  0  0  0
 22 17  1  0  0  0  0
 22 67  1  0  0  0  0
 22 68  1  0  0  0  0
 23 18  2  0  0  0  0
 23 69  1  0  0  0  0
 24  7  2  0  0  0  0
 24 17  1  0  0  0  0
 25  7  1  0  0  0  0
 25 19  2  0  0  0  0
 26  8  2  0  0  0  0
 26 12  1  0  0  0  0
 27  3  2  0  0  0  0
 27  4  1  0  0  0  0
 28  8  1  0  0  0  0
 28 19  1  0  0  0  0
 29 70  1  0  0  0  0
 30 71  1  0  0  0  0
 31 72  1  0  0  0  0
 33 73  1  0  0  0  0
 34 74  1  0  0  0  0
 36 75  1  0  0  0  0
 38 76  1  0  0  0  0
 39  5  1  0  0  0  0
 40  6  1  0  0  0  0
 41 10  1  0  0  0  0
 41 20  1  0  0  0  0
 42 11  1  0  0  0  0
 42 21  1  0  0  0  0
 45 32  2  0  0  0  0
 45 33  1  0  0  0  0
 45 34  1  0  0  0  0
 45 43  1  0  0  0  0
 46 35  2  0  0  0  0
 46 36  1  0  0  0  0
 46 39  1  0  0  0  0
 46 44  1  0  0  0  0
 47 37  2  0  0  0  0
 47 38  1  0  0  0  0
 47 40  1  0  0  0  0
 47 44  1  0  0  0  0
 48 18  1  0  0  0  0
M  CHG  2  27   1  48  -1
M  END
>  <DRUGBANK_ID>
DB01763

>  <SECONDARY_ACCESSION_NUMBERS>
EXPT03005

>  <COMMON_NAME>
7-thionicotinamide-adenine-dinucleotide phosphate

>  <UNII>
62T938ZGDD

>  <SYNONYMS>
TATP

$$$$
