
 OpenBabel10282417153D

 70 73  0  0  1  0  0  0  0  0999 V2000
   -2.2357  -12.0238   -0.6465 C   0  0  0  0  0  0  0  0  0  0  0  0
   -1.5435  -11.1550   -1.6626 C   0  0  2  0  0  0  0  0  0  0  0  0
   -1.4523   -9.6684   -1.3060 C   0  0  0  0  0  0  0  0  0  0  0  0
   -0.2705   -9.0354   -2.0189 C   0  0  0  0  0  0  0  0  0  0  0  0
   -0.5676   -8.5260   -3.4340 C   0  0  1  0  0  0  0  0  0  0  0  0
   -1.3976   -9.4347   -4.3445 C   0  0  0  0  0  0  0  0  0  0  0  0
   -2.0691   -8.9948   -5.2780 O   0  0  0  0  0  0  0  0  0  0  0  0
   -1.2990  -10.9255   -4.0788 C   0  0  0  0  0  0  0  0  0  0  0  0
   -2.2262  -11.3298   -2.9789 N   0  0  0  0  0  0  0  0  0  0  0  0
   -3.8932  -10.6972   -3.2800 S   0  0  0  0  0  0  0  0  0  0  0  0
   -3.8314   -9.2423   -3.1555 O   0  0  0  0  0  0  0  0  0  0  0  0
   -4.2944  -11.3133   -4.5169 O   0  0  0  0  0  0  0  0  0  0  0  0
   -5.0301  -11.1839   -1.9498 C   0  0  0  0  0  0  0  0  0  0  0  0
   -4.8350  -10.7330   -0.6391 C   0  0  0  0  0  0  0  0  0  0  0  0
   -5.5532  -11.3414    0.3819 C   0  0  0  0  0  0  0  0  0  0  0  0
   -6.6398  -12.1259    0.0376 C   0  0  0  0  0  0  0  0  0  0  0  0
   -6.8806  -12.3653   -1.3110 C   0  0  0  0  0  0  0  0  0  0  0  0
   -6.0593  -11.9811   -2.3151 N   0  0  0  0  0  0  0  0  0  0  0  0
   -1.1079   -7.1669   -3.3527 N   0  0  0  0  0  0  0  0  0  0  0  0
   -0.5992   -6.0165   -3.9012 C   0  0  0  0  0  0  0  0  0  0  0  0
   -1.2108   -4.9554   -3.7734 O   0  0  0  0  0  0  0  0  0  0  0  0
    0.7815   -6.0817   -4.5707 C   0  0  2  0  0  0  0  0  0  0  0  0
    1.9119   -5.7822   -3.5741 C   0  0  0  0  0  0  0  0  0  0  0  0
    2.5187   -7.0618   -2.9637 C   0  0  0  0  0  0  0  0  0  0  0  0
    3.1273   -7.9904   -4.0174 C   0  0  0  0  0  0  0  0  0  0  0  0
    3.5664   -6.7302   -1.9118 C   0  0  0  0  0  0  0  0  0  0  0  0
    0.8557   -5.2561   -5.7591 N   0  0  0  0  0  0  0  0  0  0  0  0
    1.0765   -5.6854   -7.0555 C   0  0  0  0  0  0  0  0  0  0  0  0
    1.1685   -4.8224   -7.9284 O   0  0  0  0  0  0  0  0  0  0  0  0
    1.3311   -7.0966   -7.3321 C   0  0  0  0  0  0  0  0  0  0  0  0
    2.3244   -7.6697   -8.1080 C   0  0  0  0  0  0  0  0  0  0  0  0
    2.2071   -9.0769   -7.9897 C   0  0  0  0  0  0  0  0  0  0  0  0
    2.9131  -10.1982   -8.4647 C   0  0  0  0  0  0  0  0  0  0  0  0
    2.4892  -11.4868   -8.1006 C   0  0  0  0  0  0  0  0  0  0  0  0
    1.3666  -11.6668   -7.3003 C   0  0  0  0  0  0  0  0  0  0  0  0
    0.6290  -10.5623   -6.8730 C   0  0  0  0  0  0  0  0  0  0  0  0
    1.0873   -9.2904   -7.2046 C   0  0  0  0  0  0  0  0  0  0  0  0
    0.5412   -8.1003   -6.8159 O   0  0  0  0  0  0  0  0  0  0  0  0
   -2.1999  -11.6216    0.3678 H   0  0  0  0  0  0  0  0  0  0  0  0
   -2.0057  -13.0890   -0.6782 H   0  0  0  0  0  0  0  0  0  0  0  0
   -3.2433  -12.0975   -0.9667 H   0  0  0  0  0  0  0  0  0  0  0  0
   -0.5202  -11.5654   -1.7031 H   0  0  0  0  0  0  0  0  0  0  0  0
   -2.3434   -9.1016   -1.5597 H   0  0  0  0  0  0  0  0  0  0  0  0
   -1.3369   -9.5320   -0.2282 H   0  0  0  0  0  0  0  0  0  0  0  0
    0.0768   -8.2064   -1.3916 H   0  0  0  0  0  0  0  0  0  0  0  0
    0.5660   -9.7455   -2.0641 H   0  0  0  0  0  0  0  0  0  0  0  0
    0.3907   -8.5226   -3.9398 H   0  0  0  0  0  0  0  0  0  0  0  0
   -1.5206  -11.5120   -4.9731 H   0  0  0  0  0  0  0  0  0  0  0  0
   -0.2441  -11.1469   -3.8462 H   0  0  0  0  0  0  0  0  0  0  0  0
   -4.0144  -10.0757   -0.3803 H   0  0  0  0  0  0  0  0  0  0  0  0
   -5.2587  -11.2112    1.4216 H   0  0  0  0  0  0  0  0  0  0  0  0
   -7.3005  -12.5152    0.8038 H   0  0  0  0  0  0  0  0  0  0  0  0
   -7.7797  -12.8857   -1.6253 H   0  0  0  0  0  0  0  0  0  0  0  0
   -2.0701   -7.0696   -3.0388 H   0  0  0  0  0  0  0  0  0  0  0  0
    0.8997   -7.0770   -4.9355 H   0  0  0  0  0  0  0  0  0  0  0  0
    2.7176   -5.2243   -4.0657 H   0  0  0  0  0  0  0  0  0  0  0  0
    1.5348   -5.1408   -2.7659 H   0  0  0  0  0  0  0  0  0  0  0  0
    1.7355   -7.5974   -2.4385 H   0  0  0  0  0  0  0  0  0  0  0  0
    3.9339   -7.4861   -4.5550 H   0  0  0  0  0  0  0  0  0  0  0  0
    3.5148   -8.9031   -3.5564 H   0  0  0  0  0  0  0  0  0  0  0  0
    2.4046   -8.3249   -4.7608 H   0  0  0  0  0  0  0  0  0  0  0  0
    3.1374   -6.1126   -1.1167 H   0  0  0  0  0  0  0  0  0  0  0  0
    3.9444   -7.6505   -1.4526 H   0  0  0  0  0  0  0  0  0  0  0  0
    4.4073   -6.1952   -2.3599 H   0  0  0  0  0  0  0  0  0  0  0  0
    0.6906   -4.2615   -5.6572 H   0  0  0  0  0  0  0  0  0  0  0  0
    3.0753   -7.1180   -8.6519 H   0  0  0  0  0  0  0  0  0  0  0  0
    3.7790  -10.0715   -9.1050 H   0  0  0  0  0  0  0  0  0  0  0  0
    3.0293  -12.3566   -8.4680 H   0  0  0  0  0  0  0  0  0  0  0  0
    1.0418  -12.6714   -7.0329 H   0  0  0  0  0  0  0  0  0  0  0  0
   -0.2913  -10.6934   -6.3435 H   0  0  0  0  0  0  0  0  0  0  0  0
  1 39  1  0  0  0  0
  1 40  1  0  0  0  0
  1 41  1  0  0  0  0
  2  1  1  0  0  0  0
  2  3  1  0  0  0  0
  2  9  1  0  0  0  0
  2 42  1  6  0  0  0
  3  4  1  0  0  0  0
  3 43  1  0  0  0  0
  3 44  1  0  0  0  0
  4  5  1  0  0  0  0
  4 45  1  0  0  0  0
  4 46  1  0  0  0  0
  5  6  1  0  0  0  0
  5 19  1  0  0  0  0
  5 47  1  6  0  0  0
  6  7  2  0  0  0  0
  6  8  1  0  0  0  0
  8  9  1  0  0  0  0
  8 48  1  0  0  0  0
  8 49  1  0  0  0  0
  9 10  1  0  0  0  0
 10 11  2  0  0  0  0
 10 12  2  0  0  0  0
 10 13  1  0  0  0  0
 13 14  2  0  0  0  0
 13 18  1  0  0  0  0
 14 15  1  0  0  0  0
 14 50  1  0  0  0  0
 15 16  2  0  0  0  0
 15 51  1  0  0  0  0
 16 17  1  0  0  0  0
 16 52  1  0  0  0  0
 17 18  2  0  0  0  0
 17 53  1  0  0  0  0
 19 20  1  0  0  0  0
 19 54  1  0  0  0  0
 20 21  2  0  0  0  0
 22 27  1  0  0  0  0
 22 55  1  6  0  0  0
 22 23  1  0  0  0  0
 22 20  1  0  0  0  0
 23 24  1  0  0  0  0
 23 56  1  0  0  0  0
 23 57  1  0  0  0  0
 24 25  1  0  0  0  0
 24 26  1  0  0  0  0
 24 58  1  0  0  0  0
 25 59  1  0  0  0  0
 25 60  1  0  0  0  0
 25 61  1  0  0  0  0
 26 62  1  0  0  0  0
 26 63  1  0  0  0  0
 26 64  1  0  0  0  0
 27 28  1  0  0  0  0
 27 65  1  0  0  0  0
 28 29  2  0  0  0  0
 28 30  1  0  0  0  0
 30 31  2  0  0  0  0
 30 38  1  0  0  0  0
 31 32  1  0  0  0  0
 31 66  1  0  0  0  0
 32 33  2  0  0  0  0
 32 37  1  0  0  0  0
 33 34  1  0  0  0  0
 33 67  1  0  0  0  0
 34 35  2  0  0  0  0
 34 68  1  0  0  0  0
 35 36  1  0  0  0  0
 35 69  1  0  0  0  0
 36 37  2  0  0  0  0
 36 70  1  0  0  0  0
 37 38  1  0  0  0  0
M  END
>  <DRUGBANK_ID>
DB06367

>  <COMMON_NAME>
Relacatib

>  <CAS_NUMBER>
362505-84-8

>  <UNII>
BL51M8CB8R

>  <SYNONYMS>
Relacatib

$$$$
