
 OpenBabel10282417183D

126128  0  0  0  0  0  0  0  0999 V2000
  -17.5140   -1.3281   -5.6465 N   0  0  0  0  0  0  0  0  0  0  0  0
  -18.5571   -0.7439   -4.9273 C   0  0  0  0  0  0  0  0  0  0  0  0
  -20.7671    1.8453   -3.9423 C   0  0  0  0  0  0  0  0  0  0  0  0
  -26.2011    3.0200   -0.1313 C   0  0  0  0  0  0  0  0  0  0  0  0
  -23.2487    1.9902   -3.7796 N   0  0  0  0  0  0  0  0  0  0  0  0
  -26.1302    4.6281    1.7816 N   0  0  0  0  0  0  0  0  0  0  0  0
  -18.5213    0.7563   -4.5459 C   0  0  1  0  0  0  0  0  0  0  0  0
  -24.0802    2.7105   -2.9212 C   0  0  0  0  0  0  0  0  0  0  0  0
  -27.2711    5.2562    2.2945 C   0  0  0  0  0  0  0  0  0  0  0  0
  -19.8327    1.3993   -4.8885 N   0  0  0  0  0  0  0  0  0  0  0  0
  -29.3214    7.8170    3.3018 C   0  0  0  0  0  0  0  0  0  0  0  0
  -17.4300   -2.7727   -6.0075 C   0  0  2  0  0  0  0  0  0  0  0  0
  -25.2761    2.2138   -0.8035 N   0  0  0  0  0  0  0  0  0  0  0  0
  -26.0533    3.1747    1.3982 C   0  0  1  0  0  0  0  0  0  0  0  0
  -22.0317    2.5213   -4.4781 C   0  0  1  0  0  0  0  0  0  0  0  0
  -28.3793    7.4189    2.3757 N   0  0  0  0  0  0  0  0  0  0  0  0
  -25.2795    1.9848   -2.2883 C   0  0  1  0  0  0  0  0  0  0  0  0
  -30.6991    9.8850    3.0904 C   0  0  0  0  0  0  0  0  0  0  0  0
  -14.9676   -0.0984   -1.7045 N   0  0  0  0  0  0  0  0  0  0  0  0
  -23.3105    8.8865    5.1156 C   0  0  0  0  0  0  0  0  0  0  0  0
  -18.0972   -3.8290   -5.1193 C   0  0  0  0  0  0  0  0  0  0  0  0
  -18.2723    0.8234   -3.0310 C   0  0  0  0  0  0  0  0  0  0  0  0
  -17.0176    0.2367   -2.5489 C   0  0  0  0  0  0  0  0  0  0  0  0
  -30.6411    8.3830    2.7784 C   0  0  2  0  0  0  0  0  0  0  0  0
  -16.8691   -1.0929   -2.2561 N   0  0  0  0  0  0  0  0  0  0  0  0
  -30.1126   10.2587    4.4342 C   0  0  0  0  0  0  0  0  0  0  0  0
  -27.1284    6.7171    2.7541 C   0  0  1  0  0  0  0  0  0  0  0  0
  -15.6114   -1.2436   -1.7535 C   0  0  0  0  0  0  0  0  0  0  0  0
  -23.3135   10.1397    5.4013 N   0  0  0  0  0  0  0  0  0  0  0  0
  -15.8442    0.8350   -2.1741 C   0  0  0  0  0  0  0  0  0  0  0  0
  -19.4907   -1.3947   -4.4491 O   0  0  0  0  0  0  0  0  0  0  0  0
  -27.1722    3.5528   -0.6661 O   0  0  0  0  0  0  0  0  0  0  0  0
  -20.6092    1.8193   -2.7235 O   0  0  0  0  0  0  0  0  0  0  0  0
  -23.9619    3.9065   -2.6560 O   0  0  0  0  0  0  0  0  0  0  0  0
  -28.3533    4.7054    2.4948 O   0  0  0  0  0  0  0  0  0  0  0  0
  -29.1625    7.7804    4.5220 O   0  0  0  0  0  0  0  0  0  0  0  0
  -26.5343    2.5747   -2.9524 C   0  0  0  0  0  0  0  0  0  0  0  0
  -17.5566   -4.8010   -4.5909 O   0  0  0  0  0  0  0  0  0  0  0  0
  -29.0979   10.9172    4.6070 O   0  0  0  0  0  0  0  0  0  0  0  0
  -24.3154    8.2559    4.4790 N   0  0  0  0  0  0  0  0  0  0  0  0
  -22.2384    8.1605    5.4428 N   0  0  0  0  0  0  0  0  0  0  0  0
  -16.3935   -0.6208   -6.2753 C   0  0  0  0  0  0  0  0  0  0  0  0
  -27.1604    2.3397    2.0839 C   0  0  0  0  0  0  0  0  0  0  0  0
  -21.8751    4.0589   -4.3366 C   0  0  2  0  0  0  0  0  0  0  0  0
  -26.6398    2.4014   -4.4304 C   0  0  0  0  0  0  0  0  0  0  0  0
  -31.7447    7.6804    3.4792 N   0  0  0  0  0  0  0  0  0  0  0  0
  -19.4284   -3.6614   -5.0374 O   0  0  0  0  0  0  0  0  0  0  0  0
  -26.9009    2.1011   -7.1589 C   0  0  0  0  0  0  0  0  0  0  0  0
  -30.7999    9.7458    5.4767 O   0  0  0  0  0  0  0  0  0  0  0  0
  -26.7197    1.1211   -4.9744 C   0  0  0  0  0  0  0  0  0  0  0  0
  -26.6956    3.5342   -5.2540 C   0  0  0  0  0  0  0  0  0  0  0  0
  -26.8228    3.3806   -6.6248 C   0  0  0  0  0  0  0  0  0  0  0  0
  -26.8461    0.9686   -6.3478 C   0  0  0  0  0  0  0  0  0  0  0  0
  -15.9057   -2.9817   -6.1034 C   0  0  0  0  0  0  0  0  0  0  0  0
  -27.0364    1.9995   -8.5105 O   0  0  0  0  0  0  0  0  0  0  0  0
  -15.4157   -1.6971   -6.7610 C   0  0  0  0  0  0  0  0  0  0  0  0
  -26.8778    6.7573    4.2779 C   0  0  0  0  0  0  0  0  0  0  0  0
  -24.3938    6.8545    4.1276 C   0  0  0  0  0  0  0  0  0  0  0  0
  -22.8558    4.7872   -5.2751 C   0  0  0  0  0  0  0  0  0  0  0  0
  -27.1857    0.8701    1.6930 C   0  0  0  0  0  0  0  0  0  0  0  0
  -27.0466    2.4421    3.6111 C   0  0  0  0  0  0  0  0  0  0  0  0
  -20.4643    4.6291   -4.4661 C   0  0  0  0  0  0  0  0  0  0  0  0
  -25.5791    6.1904    4.7907 C   0  0  0  0  0  0  0  0  0  0  0  0
  -22.6477    4.3877   -6.7279 C   0  0  0  0  0  0  0  0  0  0  0  0
  -22.1161    2.1923   -5.5174 H   0  0  0  0  0  0  0  0  0  0  0  0
  -23.3867    0.9907   -3.8712 H   0  0  0  0  0  0  0  0  0  0  0  0
  -25.4449    5.2193    1.3240 H   0  0  0  0  0  0  0  0  0  0  0  0
  -17.7448    1.2840   -5.1069 H   0  0  0  0  0  0  0  0  0  0  0  0
  -20.1226    1.3013   -5.8558 H   0  0  0  0  0  0  0  0  0  0  0  0
  -17.8506   -2.8951   -7.0141 H   0  0  0  0  0  0  0  0  0  0  0  0
  -24.4080    1.9709   -0.3390 H   0  0  0  0  0  0  0  0  0  0  0  0
  -25.0595    2.8172    1.6956 H   0  0  0  0  0  0  0  0  0  0  0  0
  -28.7147    7.2097    1.4402 H   0  0  0  0  0  0  0  0  0  0  0  0
  -25.1867    0.9057   -2.4564 H   0  0  0  0  0  0  0  0  0  0  0  0
  -30.1143   10.4223    2.3337 H   0  0  0  0  0  0  0  0  0  0  0  0
  -31.7208   10.2740    3.0342 H   0  0  0  0  0  0  0  0  0  0  0  0
  -18.2865    1.8770   -2.7235 H   0  0  0  0  0  0  0  0  0  0  0  0
  -19.0756    0.2993   -2.4936 H   0  0  0  0  0  0  0  0  0  0  0  0
  -30.7463    8.2004    1.7045 H   0  0  0  0  0  0  0  0  0  0  0  0
  -17.5628   -1.8224   -2.3763 H   0  0  0  0  0  0  0  0  0  0  0  0
  -26.3333    7.2022    2.1832 H   0  0  0  0  0  0  0  0  0  0  0  0
  -15.2268   -2.2023   -1.4380 H   0  0  0  0  0  0  0  0  0  0  0  0
  -24.1803   10.5757    5.0847 H   0  0  0  0  0  0  0  0  0  0  0  0
  -15.6154    1.8926   -2.2084 H   0  0  0  0  0  0  0  0  0  0  0  0
  -27.4328    2.1343   -2.5051 H   0  0  0  0  0  0  0  0  0  0  0  0
  -26.5597    3.6574   -2.7656 H   0  0  0  0  0  0  0  0  0  0  0  0
  -25.1171    8.8302    4.2380 H   0  0  0  0  0  0  0  0  0  0  0  0
  -22.1749    7.1657    5.3438 H   0  0  0  0  0  0  0  0  0  0  0  0
  -21.5129    8.6326    5.9594 H   0  0  0  0  0  0  0  0  0  0  0  0
  -15.9223    0.0609   -5.5654 H   0  0  0  0  0  0  0  0  0  0  0  0
  -16.7687   -0.0453   -7.1302 H   0  0  0  0  0  0  0  0  0  0  0  0
  -28.1347    2.7116    1.7414 H   0  0  0  0  0  0  0  0  0  0  0  0
  -22.0802    4.3303   -3.2989 H   0  0  0  0  0  0  0  0  0  0  0  0
  -31.5911    6.6717    3.4130 H   0  0  0  0  0  0  0  0  0  0  0  0
  -31.6081    7.8758    4.4832 H   0  0  0  0  0  0  0  0  0  0  0  0
  -19.7017   -3.7544   -4.1015 H   0  0  0  0  0  0  0  0  0  0  0  0
  -30.1917    9.8306    6.2422 H   0  0  0  0  0  0  0  0  0  0  0  0
  -26.6998    0.2512   -4.3229 H   0  0  0  0  0  0  0  0  0  0  0  0
  -26.6387    4.5362   -4.8283 H   0  0  0  0  0  0  0  0  0  0  0  0
  -26.8665    4.2534   -7.2680 H   0  0  0  0  0  0  0  0  0  0  0  0
  -26.9073   -0.0331   -6.7564 H   0  0  0  0  0  0  0  0  0  0  0  0
  -15.4529   -3.0778   -5.1071 H   0  0  0  0  0  0  0  0  0  0  0  0
  -15.6213   -3.8714   -6.6769 H   0  0  0  0  0  0  0  0  0  0  0  0
  -27.1467    1.0631   -8.7376 H   0  0  0  0  0  0  0  0  0  0  0  0
  -14.3774   -1.4621   -6.4995 H   0  0  0  0  0  0  0  0  0  0  0  0
  -15.4525   -1.7950   -7.8538 H   0  0  0  0  0  0  0  0  0  0  0  0
  -26.9243    7.8024    4.6111 H   0  0  0  0  0  0  0  0  0  0  0  0
  -27.6661    6.2029    4.8067 H   0  0  0  0  0  0  0  0  0  0  0  0
  -23.5156    6.2822    4.4188 H   0  0  0  0  0  0  0  0  0  0  0  0
  -24.4510    6.7644    3.0410 H   0  0  0  0  0  0  0  0  0  0  0  0
  -23.8968    4.5714   -5.0112 H   0  0  0  0  0  0  0  0  0  0  0  0
  -22.7362    5.8700   -5.1595 H   0  0  0  0  0  0  0  0  0  0  0  0
  -26.2684    0.3720    2.0094 H   0  0  0  0  0  0  0  0  0  0  0  0
  -28.0403    0.3848    2.1788 H   0  0  0  0  0  0  0  0  0  0  0  0
  -27.3163    0.7373    0.6152 H   0  0  0  0  0  0  0  0  0  0  0  0
  -26.9716    3.4640    3.9875 H   0  0  0  0  0  0  0  0  0  0  0  0
  -27.9290    2.0078    4.0874 H   0  0  0  0  0  0  0  0  0  0  0  0
  -26.1456    1.9330    3.9592 H   0  0  0  0  0  0  0  0  0  0  0  0
  -20.4914    5.7035   -4.2471 H   0  0  0  0  0  0  0  0  0  0  0  0
  -19.7908    4.1909   -3.7220 H   0  0  0  0  0  0  0  0  0  0  0  0
  -20.0453    4.4735   -5.4578 H   0  0  0  0  0  0  0  0  0  0  0  0
  -25.5470    6.3301    5.8809 H   0  0  0  0  0  0  0  0  0  0  0  0
  -25.5556    5.1113    4.6185 H   0  0  0  0  0  0  0  0  0  0  0  0
  -22.9341    3.3463   -6.9017 H   0  0  0  0  0  0  0  0  0  0  0  0
  -23.2661    4.9926   -7.3907 H   0  0  0  0  0  0  0  0  0  0  0  0
  -21.6003    4.5037   -7.0153 H   0  0  0  0  0  0  0  0  0  0  0  0
  2  1  1  0  0  0  0
  3 10  1  0  0  0  0
  4 13  1  0  0  0  0
  5 15  1  0  0  0  0
  5 66  1  0  0  0  0
  6 67  1  0  0  0  0
  7  2  1  0  0  0  0
  7 10  1  0  0  0  0
  7 68  1  6  0  0  0
  8  5  1  0  0  0  0
  9  6  1  0  0  0  0
 10 69  1  0  0  0  0
 11 16  1  0  0  0  0
 12  1  1  0  0  0  0
 12 70  1  6  0  0  0
 12 21  1  0  0  0  0
 13 71  1  0  0  0  0
 14  6  1  0  0  0  0
 14  4  1  0  0  0  0
 14 72  1  1  0  0  0
 15  3  1  0  0  0  0
 15 65  1  6  0  0  0
 16 73  1  0  0  0  0
 17 13  1  0  0  0  0
 17  8  1  0  0  0  0
 17 74  1  6  0  0  0
 18 75  1  0  0  0  0
 18 76  1  0  0  0  0
 19 30  1  0  0  0  0
 19 28  2  0  0  0  0
 20 40  1  0  0  0  0
 22  7  1  0  0  0  0
 22 77  1  0  0  0  0
 22 78  1  0  0  0  0
 23 22  1  0  0  0  0
 24 46  1  0  0  0  0
 24 79  1  6  0  0  0
 24 11  1  0  0  0  0
 24 18  1  0  0  0  0
 25 23  1  0  0  0  0
 25 80  1  0  0  0  0
 26 18  1  0  0  0  0
 27 16  1  0  0  0  0
 27  9  1  0  0  0  0
 27 81  1  6  0  0  0
 28 25  1  0  0  0  0
 28 82  1  0  0  0  0
 29 20  2  0  0  0  0
 29 83  1  0  0  0  0
 30 23  2  0  0  0  0
 30 84  1  0  0  0  0
 31  2  2  0  0  0  0
 32  4  2  0  0  0  0
 33  3  2  0  0  0  0
 34  8  2  0  0  0  0
 35  9  2  0  0  0  0
 36 11  2  0  0  0  0
 37 17  1  0  0  0  0
 37 85  1  0  0  0  0
 37 86  1  0  0  0  0
 38 21  2  0  0  0  0
 39 26  2  0  0  0  0
 40 58  1  0  0  0  0
 40 87  1  0  0  0  0
 41 20  1  0  0  0  0
 41 88  1  0  0  0  0
 41 89  1  0  0  0  0
 42  1  1  0  0  0  0
 42 90  1  0  0  0  0
 42 91  1  0  0  0  0
 43 14  1  0  0  0  0
 43 92  1  0  0  0  0
 44 62  1  0  0  0  0
 44 93  1  1  0  0  0
 44 59  1  0  0  0  0
 44 15  1  0  0  0  0
 45 37  1  0  0  0  0
 46 94  1  0  0  0  0
 46 95  1  0  0  0  0
 47 21  1  0  0  0  0
 47 96  1  0  0  0  0
 48 53  1  0  0  0  0
 49 26  1  0  0  0  0
 49 97  1  0  0  0  0
 50 45  1  0  0  0  0
 50 98  1  0  0  0  0
 51 45  2  0  0  0  0
 51 99  1  0  0  0  0
 52 51  1  0  0  0  0
 52 48  2  0  0  0  0
 52100  1  0  0  0  0
 53 50  2  0  0  0  0
 53101  1  0  0  0  0
 54 12  1  0  0  0  0
 54 56  1  0  0  0  0
 54102  1  0  0  0  0
 54103  1  0  0  0  0
 55 48  1  0  0  0  0
 55104  1  0  0  0  0
 56 42  1  0  0  0  0
 56105  1  0  0  0  0
 56106  1  0  0  0  0
 57 27  1  0  0  0  0
 57107  1  0  0  0  0
 57108  1  0  0  0  0
 58 63  1  0  0  0  0
 58109  1  0  0  0  0
 58110  1  0  0  0  0
 59111  1  0  0  0  0
 59112  1  0  0  0  0
 60 43  1  0  0  0  0
 60113  1  0  0  0  0
 60114  1  0  0  0  0
 60115  1  0  0  0  0
 61 43  1  0  0  0  0
 61116  1  0  0  0  0
 61117  1  0  0  0  0
 61118  1  0  0  0  0
 62119  1  0  0  0  0
 62120  1  0  0  0  0
 62121  1  0  0  0  0
 63 57  1  0  0  0  0
 63122  1  0  0  0  0
 63123  1  0  0  0  0
 64 59  1  0  0  0  0
 64124  1  0  0  0  0
 64125  1  0  0  0  0
 64126  1  0  0  0  0
M  END
>  <DRUGBANK_ID>
DB11720

>  <COMMON_NAME>
Angiotensin 1-7

>  <CAS_NUMBER>
51833-78-4

>  <UNII>
IJ3FUK8MOF

>  <SYNONYMS>
Angiotensin (1-7); Angiotensin I (1-7); Angiotensin II (1-7) heptapeptide

$$$$
