
 OpenBabel10282417213D

 50 53  0  0  0  0  0  0  0  0999 V2000
    2.0198   -0.3736    0.0402 C   0  0  0  0  0  0  0  0  0  0  0  0
    1.7158    1.1590   -0.2394 C   0  0  0  0  0  0  0  0  0  0  0  0
    0.4108    1.6242    0.1494 O   0  0  0  0  0  0  0  0  0  0  0  0
    0.9258   -1.1844    0.1581 N   0  0  0  0  0  0  0  0  0  0  0  0
   -0.5905    0.6980    0.1258 C   0  0  0  0  0  0  0  0  0  0  0  0
   -0.3684   -0.6812    0.1179 C   0  0  0  0  0  0  0  0  0  0  0  0
    2.7173    2.0044    0.5542 C   0  0  0  0  0  0  0  0  0  0  0  0
    1.8130    1.4239   -1.7749 C   0  0  0  0  0  0  0  0  0  0  0  0
    3.1350   -0.8974    0.0686 O   0  0  0  0  0  0  0  0  0  0  0  0
    1.0722    1.1431   -6.8406 C   0  0  0  0  0  0  0  0  0  0  0  0
    7.0481    4.2118    2.0757 C   0  0  0  0  0  0  0  0  0  0  0  0
    1.7894    1.9936   -5.9920 O   0  0  0  0  0  0  0  0  0  0  0  0
    5.6867    4.4882    2.2515 O   0  0  0  0  0  0  0  0  0  0  0  0
    0.3081    0.2293   -6.5270 O   0  0  0  0  0  0  0  0  0  0  0  0
    7.5631    3.3437    1.3696 O   0  0  0  0  0  0  0  0  0  0  0  0
    4.0687    1.8060    0.2742 C   0  0  0  0  0  0  0  0  0  0  0  0
    2.3640    3.0295    1.4508 C   0  0  0  0  0  0  0  0  0  0  0  0
    0.9822    0.6792   -2.6119 C   0  0  0  0  0  0  0  0  0  0  0  0
    2.6287    2.3934   -2.3983 C   0  0  0  0  0  0  0  0  0  0  0  0
    1.7519    1.8263   -4.5853 C   0  0  0  0  0  0  0  0  0  0  0  0
    4.6952    3.6701    1.6524 C   0  0  0  0  0  0  0  0  0  0  0  0
    2.5890    2.6078   -3.7896 C   0  0  0  0  0  0  0  0  0  0  0  0
    5.0301    2.6403    0.7864 C   0  0  0  0  0  0  0  0  0  0  0  0
    3.3484    3.8881    1.9696 C   0  0  0  0  0  0  0  0  0  0  0  0
    0.9340    0.8912   -3.9742 C   0  0  0  0  0  0  0  0  0  0  0  0
   -1.8873    1.1988    0.0770 C   0  0  0  0  0  0  0  0  0  0  0  0
   -1.4358   -1.5648    0.0164 C   0  0  0  0  0  0  0  0  0  0  0  0
    7.9161    5.1122    2.8752 C   0  0  0  0  0  0  0  0  0  0  0  0
    1.3224    1.4353   -8.2763 C   0  0  0  0  0  0  0  0  0  0  0  0
   -2.9620    0.3157    0.0061 C   0  0  0  0  0  0  0  0  0  0  0  0
   -2.7352   -1.0620   -0.0347 C   0  0  0  0  0  0  0  0  0  0  0  0
    1.1182   -2.1751    0.2141 H   0  0  0  0  0  0  0  0  0  0  0  0
    4.3986    1.0363   -0.4220 H   0  0  0  0  0  0  0  0  0  0  0  0
    1.3216    3.1803    1.7327 H   0  0  0  0  0  0  0  0  0  0  0  0
    0.3203   -0.0930   -2.2429 H   0  0  0  0  0  0  0  0  0  0  0  0
    3.3266    3.0013   -1.8262 H   0  0  0  0  0  0  0  0  0  0  0  0
    3.2112    3.3908   -4.2158 H   0  0  0  0  0  0  0  0  0  0  0  0
    6.0251    2.4318    0.4296 H   0  0  0  0  0  0  0  0  0  0  0  0
    3.0396    4.7232    2.5935 H   0  0  0  0  0  0  0  0  0  0  0  0
    0.2141    0.2796   -4.4941 H   0  0  0  0  0  0  0  0  0  0  0  0
   -2.0559    2.2727    0.0727 H   0  0  0  0  0  0  0  0  0  0  0  0
   -1.2666   -2.6354   -0.0510 H   0  0  0  0  0  0  0  0  0  0  0  0
    7.7597    6.1512    2.5887 H   0  0  0  0  0  0  0  0  0  0  0  0
    7.7696    4.9385    3.9414 H   0  0  0  0  0  0  0  0  0  0  0  0
    8.9522    4.8453    2.6290 H   0  0  0  0  0  0  0  0  0  0  0  0
    1.0336    2.4574   -8.5187 H   0  0  0  0  0  0  0  0  0  0  0  0
    2.3577    1.2160   -8.5390 H   0  0  0  0  0  0  0  0  0  0  0  0
    0.6778    0.7572   -8.8505 H   0  0  0  0  0  0  0  0  0  0  0  0
   -3.9768    0.7029   -0.0261 H   0  0  0  0  0  0  0  0  0  0  0  0
   -3.5748   -1.7472   -0.1081 H   0  0  0  0  0  0  0  0  0  0  0  0
  2  1  1  0  0  0  0
  3  2  1  0  0  0  0
  3  5  1  0  0  0  0
  4  1  1  0  0  0  0
  4 32  1  0  0  0  0
  5  6  2  0  0  0  0
  6  4  1  0  0  0  0
  7  2  1  0  0  0  0
  8  2  1  0  0  0  0
  9  1  2  0  0  0  0
 10 12  1  0  0  0  0
 11 13  1  0  0  0  0
 12 20  1  0  0  0  0
 13 21  1  0  0  0  0
 14 10  2  0  0  0  0
 15 11  2  0  0  0  0
 16  7  1  0  0  0  0
 16 33  1  0  0  0  0
 17  7  2  0  0  0  0
 17 34  1  0  0  0  0
 18  8  1  0  0  0  0
 18 35  1  0  0  0  0
 19  8  2  0  0  0  0
 19 36  1  0  0  0  0
 20 22  2  0  0  0  0
 21 24  2  0  0  0  0
 22 19  1  0  0  0  0
 22 37  1  0  0  0  0
 23 16  2  0  0  0  0
 23 21  1  0  0  0  0
 23 38  1  0  0  0  0
 24 17  1  0  0  0  0
 24 39  1  0  0  0  0
 25 18  2  0  0  0  0
 25 20  1  0  0  0  0
 25 40  1  0  0  0  0
 26  5  1  0  0  0  0
 26 30  2  0  0  0  0
 26 41  1  0  0  0  0
 27  6  1  0  0  0  0
 27 42  1  0  0  0  0
 28 11  1  0  0  0  0
 28 43  1  0  0  0  0
 28 44  1  0  0  0  0
 28 45  1  0  0  0  0
 29 10  1  0  0  0  0
 29 46  1  0  0  0  0
 29 47  1  0  0  0  0
 29 48  1  0  0  0  0
 30 31  1  0  0  0  0
 30 49  1  0  0  0  0
 31 27  2  0  0  0  0
 31 50  1  0  0  0  0
M  END
>  <DRUGBANK_ID>
DB14654

>  <SECONDARY_ACCESSION_NUMBERS>
DBSALT001265

>  <COMMON_NAME>
Bisoxatin acetate

>  <CAS_NUMBER>
14008-48-1

>  <UNII>
79W5LFS83K

>  <SYNONYMS>
Bisoxatin acetate

$$$$
