
 OpenBabel10282417213D

119118  0  0  0  0  0  0  0  0999 V2000
    1.0815   -0.4017    0.7209 C   0  0  0  0  0  0  0  0  0  0  0  0
    3.4304    2.5951   -1.9352 C   0  0  0  0  0  0  0  0  0  0  0  0
   -7.5728   -4.2305  -13.7927 C   0  0  0  0  0  0  0  0  0  0  0  0
   -7.8255   -1.8300  -14.3419 C   0  0  0  0  0  0  0  0  0  0  0  0
    0.6087    0.2398   -0.5298 C   0  0  0  0  0  0  0  0  0  0  0  0
    2.6379    1.4291   -2.3952 C   0  0  0  0  0  0  0  0  0  0  0  0
    1.1311   -0.6928   -1.6854 C   0  0  0  0  0  0  0  0  0  0  0  0
    1.1644    1.9674   -2.5257 C   0  0  0  0  0  0  0  0  0  0  0  0
    0.3138   -1.8788   -2.0644 C   0  0  0  0  0  0  0  0  0  0  0  0
    0.7675    2.6501   -3.7885 C   0  0  0  0  0  0  0  0  0  0  0  0
   -1.1763   -1.5605   -2.1584 C   0  0  0  0  0  0  0  0  0  0  0  0
    1.2673    1.9212   -5.0333 C   0  0  0  0  0  0  0  0  0  0  0  0
   -1.5598   -0.7413   -3.3566 C   0  0  0  0  0  0  0  0  0  0  0  0
    0.5415    0.6421   -5.3349 C   0  0  0  0  0  0  0  0  0  0  0  0
   -1.0190   -1.5461   -4.5715 C   0  0  0  0  0  0  0  0  0  0  0  0
   -0.9562    1.0503   -5.4140 C   0  0  0  0  0  0  0  0  0  0  0  0
   -1.7325   -2.7742   -4.8783 C   0  0  0  0  0  0  0  0  0  0  0  0
   -1.3344    1.8258   -6.5832 C   0  0  0  0  0  0  0  0  0  0  0  0
   -3.2453   -2.5082   -4.9550 C   0  0  0  0  0  0  0  0  0  0  0  0
   -0.8257    1.1435   -7.8641 C   0  0  0  0  0  0  0  0  0  0  0  0
   -3.6187   -1.6197   -6.1193 C   0  0  0  0  0  0  0  0  0  0  0  0
   -1.5052   -0.1815   -8.1234 C   0  0  0  0  0  0  0  0  0  0  0  0
   -3.0591   -2.3938   -7.3374 C   0  0  0  0  0  0  0  0  0  0  0  0
   -3.0037    0.2034   -8.1747 C   0  0  0  0  0  0  0  0  0  0  0  0
   -3.7500   -3.6267   -7.6575 C   0  0  0  0  0  0  0  0  0  0  0  0
   -3.4026    0.9845   -9.3283 C   0  0  0  0  0  0  0  0  0  0  0  0
   -5.2655   -3.3791   -7.7417 C   0  0  0  0  0  0  0  0  0  0  0  0
   -2.9050    0.3150  -10.6202 C   0  0  0  0  0  0  0  0  0  0  0  0
   -5.6363   -2.5005   -8.9028 C   0  0  0  0  0  0  0  0  0  0  0  0
   -3.5852   -0.9993  -10.8801 C   0  0  0  0  0  0  0  0  0  0  0  0
   -5.0857   -3.2442  -10.1647 C   0  0  0  0  0  0  0  0  0  0  0  0
   -5.1117   -0.6603  -10.9378 C   0  0  0  0  0  0  0  0  0  0  0  0
   -5.9175   -4.3124  -10.6890 C   0  0  0  0  0  0  0  0  0  0  0  0
   -5.6022   -0.1402  -12.2014 C   0  0  0  0  0  0  0  0  0  0  0  0
   -7.3565   -3.8174  -10.9225 C   0  0  0  0  0  0  0  0  0  0  0  0
   -5.1963   -1.0634  -13.3646 C   0  0  0  0  0  0  0  0  0  0  0  0
   -7.7450   -2.6930  -11.9410 C   0  0  0  0  0  0  0  0  0  0  0  0
   -5.6741   -2.5470  -13.5175 C   0  0  0  0  0  0  0  0  0  0  0  0
   -7.1754   -2.8131  -13.3590 N   0  3  0  0  0  0  0  0  0  0  0  0
    0.7655   -1.4394    0.6762 H   0  0  0  0  0  0  0  0  0  0  0  0
    0.6882    0.1181    1.5871 H   0  0  0  0  0  0  0  0  0  0  0  0
    2.1752   -0.3215    0.7098 H   0  0  0  0  0  0  0  0  0  0  0  0
    3.0780    2.8223   -0.9218 H   0  0  0  0  0  0  0  0  0  0  0  0
    4.4859    2.3499   -1.9060 H   0  0  0  0  0  0  0  0  0  0  0  0
    3.2087    3.4099   -2.6176 H   0  0  0  0  0  0  0  0  0  0  0  0
   -8.6681   -4.2898  -13.7411 H   0  0  0  0  0  0  0  0  0  0  0  0
   -7.2104   -4.4286  -14.7981 H   0  0  0  0  0  0  0  0  0  0  0  0
   -7.1415   -4.9547  -13.0994 H   0  0  0  0  0  0  0  0  0  0  0  0
   -7.5445   -0.8105  -14.0720 H   0  0  0  0  0  0  0  0  0  0  0  0
   -7.4302   -2.0609  -15.3399 H   0  0  0  0  0  0  0  0  0  0  0  0
   -8.9073   -1.9301  -14.3091 H   0  0  0  0  0  0  0  0  0  0  0  0
   -0.4587    0.4859   -0.5552 H   0  0  0  0  0  0  0  0  0  0  0  0
    1.0767    1.2302   -0.4194 H   0  0  0  0  0  0  0  0  0  0  0  0
    2.8551    0.7228   -1.5792 H   0  0  0  0  0  0  0  0  0  0  0  0
    3.0388    0.9067   -3.2711 H   0  0  0  0  0  0  0  0  0  0  0  0
    1.2701   -0.2544   -2.6691 H   0  0  0  0  0  0  0  0  0  0  0  0
    2.1312   -1.0650   -1.4481 H   0  0  0  0  0  0  0  0  0  0  0  0
    0.9421    2.6621   -1.7114 H   0  0  0  0  0  0  0  0  0  0  0  0
    0.3526    1.2501   -2.4518 H   0  0  0  0  0  0  0  0  0  0  0  0
    0.7926   -2.2297   -2.9900 H   0  0  0  0  0  0  0  0  0  0  0  0
    0.5131   -2.6770   -1.3750 H   0  0  0  0  0  0  0  0  0  0  0  0
    1.1018    3.6694   -3.7563 H   0  0  0  0  0  0  0  0  0  0  0  0
   -0.3234    2.7471   -3.6905 H   0  0  0  0  0  0  0  0  0  0  0  0
   -1.7203   -2.4939   -2.2388 H   0  0  0  0  0  0  0  0  0  0  0  0
   -1.5266   -1.0439   -1.2691 H   0  0  0  0  0  0  0  0  0  0  0  0
    2.3285    1.6994   -4.9614 H   0  0  0  0  0  0  0  0  0  0  0  0
    1.1183    2.5673   -5.8900 H   0  0  0  0  0  0  0  0  0  0  0  0
   -2.6493   -0.5504   -3.3956 H   0  0  0  0  0  0  0  0  0  0  0  0
   -1.2171    0.2722   -3.1732 H   0  0  0  0  0  0  0  0  0  0  0  0
    0.8728   -0.0920   -4.6072 H   0  0  0  0  0  0  0  0  0  0  0  0
    0.9223    0.1575   -6.2542 H   0  0  0  0  0  0  0  0  0  0  0  0
   -0.9403   -1.1080   -5.5608 H   0  0  0  0  0  0  0  0  0  0  0  0
    0.0424   -1.7800   -4.4740 H   0  0  0  0  0  0  0  0  0  0  0  0
   -1.2868    1.5871   -4.5233 H   0  0  0  0  0  0  0  0  0  0  0  0
   -1.7532    0.3144   -5.3957 H   0  0  0  0  0  0  0  0  0  0  0  0
   -1.2442   -3.1514   -5.7847 H   0  0  0  0  0  0  0  0  0  0  0  0
   -1.4754   -3.5399   -4.1401 H   0  0  0  0  0  0  0  0  0  0  0  0
   -0.9663    2.8507   -6.4761 H   0  0  0  0  0  0  0  0  0  0  0  0
   -2.4184    1.9560   -6.4822 H   0  0  0  0  0  0  0  0  0  0  0  0
   -3.7732   -3.4276   -5.0545 H   0  0  0  0  0  0  0  0  0  0  0  0
   -3.6217   -2.0236   -4.0502 H   0  0  0  0  0  0  0  0  0  0  0  0
    0.2493    0.9485   -7.8244 H   0  0  0  0  0  0  0  0  0  0  0  0
   -0.9936    1.7745   -8.7053 H   0  0  0  0  0  0  0  0  0  0  0  0
   -4.7105   -1.4310   -6.1594 H   0  0  0  0  0  0  0  0  0  0  0  0
   -3.2993   -0.6118   -5.9121 H   0  0  0  0  0  0  0  0  0  0  0  0
   -1.1464   -0.9082   -7.4136 H   0  0  0  0  0  0  0  0  0  0  0  0
   -1.1252   -0.6652   -9.0458 H   0  0  0  0  0  0  0  0  0  0  0  0
   -2.9750   -1.9471   -8.3260 H   0  0  0  0  0  0  0  0  0  0  0  0
   -1.9894   -2.6025   -7.2360 H   0  0  0  0  0  0  0  0  0  0  0  0
   -3.3265    0.7218   -7.2663 H   0  0  0  0  0  0  0  0  0  0  0  0
   -3.7993   -0.5383   -8.1483 H   0  0  0  0  0  0  0  0  0  0  0  0
   -3.2527   -3.9879   -8.5585 H   0  0  0  0  0  0  0  0  0  0  0  0
   -3.4940   -4.3935   -6.9172 H   0  0  0  0  0  0  0  0  0  0  0  0
   -3.0326    2.0108   -9.2221 H   0  0  0  0  0  0  0  0  0  0  0  0
   -4.4804    1.1051   -9.2121 H   0  0  0  0  0  0  0  0  0  0  0  0
   -5.7877   -4.3031   -7.8575 H   0  0  0  0  0  0  0  0  0  0  0  0
   -5.6516   -2.8998   -6.8400 H   0  0  0  0  0  0  0  0  0  0  0  0
   -1.8310    0.1208  -10.5919 H   0  0  0  0  0  0  0  0  0  0  0  0
   -3.0906    0.9456  -11.4615 H   0  0  0  0  0  0  0  0  0  0  0  0
   -6.7306   -2.3184   -8.9105 H   0  0  0  0  0  0  0  0  0  0  0  0
   -5.3198   -1.4804   -8.7001 H   0  0  0  0  0  0  0  0  0  0  0  0
   -3.2260   -1.7394  -10.1693 H   0  0  0  0  0  0  0  0  0  0  0  0
   -3.1770   -1.4659  -11.8001 H   0  0  0  0  0  0  0  0  0  0  0  0
   -4.8865   -2.7322  -11.0892 H   0  0  0  0  0  0  0  0  0  0  0  0
   -4.0497   -3.5855  -10.0235 H   0  0  0  0  0  0  0  0  0  0  0  0
   -5.4241   -0.0190  -10.1006 H   0  0  0  0  0  0  0  0  0  0  0  0
   -5.8699   -1.4040  -10.7691 H   0  0  0  0  0  0  0  0  0  0  0  0
   -5.4421   -4.7018  -11.5986 H   0  0  0  0  0  0  0  0  0  0  0  0
   -5.8457   -5.1286   -9.9618 H   0  0  0  0  0  0  0  0  0  0  0  0
   -5.1963    0.8741  -12.2826 H   0  0  0  0  0  0  0  0  0  0  0  0
   -6.6882   -0.0040  -12.1174 H   0  0  0  0  0  0  0  0  0  0  0  0
   -7.9427   -4.7074  -11.1175 H   0  0  0  0  0  0  0  0  0  0  0  0
   -7.7483   -3.4658   -9.9668 H   0  0  0  0  0  0  0  0  0  0  0  0
   -4.1070   -1.1259  -13.3773 H   0  0  0  0  0  0  0  0  0  0  0  0
   -5.4225   -0.5103  -14.2683 H   0  0  0  0  0  0  0  0  0  0  0  0
   -8.8382   -2.7657  -12.0551 H   0  0  0  0  0  0  0  0  0  0  0  0
   -7.6173   -1.6770  -11.5860 H   0  0  0  0  0  0  0  0  0  0  0  0
   -5.1158   -3.2786  -12.9450 H   0  0  0  0  0  0  0  0  0  0  0  0
   -5.4326   -2.8274  -14.5550 H   0  0  0  0  0  0  0  0  0  0  0  0
  1 40  1  0  0  0  0
  1 41  1  0  0  0  0
  1 42  1  0  0  0  0
  2 43  1  0  0  0  0
  2 44  1  0  0  0  0
  2 45  1  0  0  0  0
  3 46  1  0  0  0  0
  3 47  1  0  0  0  0
  3 48  1  0  0  0  0
  4 49  1  0  0  0  0
  4 50  1  0  0  0  0
  4 51  1  0  0  0  0
  5  1  1  0  0  0  0
  5 52  1  0  0  0  0
  5 53  1  0  0  0  0
  6  2  1  0  0  0  0
  6 54  1  0  0  0  0
  6 55  1  0  0  0  0
  7  5  1  0  0  0  0
  7 56  1  0  0  0  0
  7 57  1  0  0  0  0
  8  6  1  0  0  0  0
  8 58  1  0  0  0  0
  8 59  1  0  0  0  0
  9  7  1  0  0  0  0
  9 60  1  0  0  0  0
  9 61  1  0  0  0  0
 10  8  1  0  0  0  0
 10 62  1  0  0  0  0
 10 63  1  0  0  0  0
 11  9  1  0  0  0  0
 11 64  1  0  0  0  0
 11 65  1  0  0  0  0
 12 10  1  0  0  0  0
 12 66  1  0  0  0  0
 12 67  1  0  0  0  0
 13 11  1  0  0  0  0
 13 68  1  0  0  0  0
 13 69  1  0  0  0  0
 14 12  1  0  0  0  0
 14 70  1  0  0  0  0
 14 71  1  0  0  0  0
 15 13  1  0  0  0  0
 15 72  1  0  0  0  0
 15 73  1  0  0  0  0
 16 14  1  0  0  0  0
 16 74  1  0  0  0  0
 16 75  1  0  0  0  0
 17 15  1  0  0  0  0
 17 76  1  0  0  0  0
 17 77  1  0  0  0  0
 18 16  1  0  0  0  0
 18 78  1  0  0  0  0
 18 79  1  0  0  0  0
 19 17  1  0  0  0  0
 19 80  1  0  0  0  0
 19 81  1  0  0  0  0
 20 18  1  0  0  0  0
 20 82  1  0  0  0  0
 20 83  1  0  0  0  0
 21 19  1  0  0  0  0
 21 84  1  0  0  0  0
 21 85  1  0  0  0  0
 22 20  1  0  0  0  0
 22 86  1  0  0  0  0
 22 87  1  0  0  0  0
 23 21  1  0  0  0  0
 23 88  1  0  0  0  0
 23 89  1  0  0  0  0
 24 22  1  0  0  0  0
 24 90  1  0  0  0  0
 24 91  1  0  0  0  0
 25 23  1  0  0  0  0
 25 92  1  0  0  0  0
 25 93  1  0  0  0  0
 26 24  1  0  0  0  0
 26 94  1  0  0  0  0
 26 95  1  0  0  0  0
 27 25  1  0  0  0  0
 27 96  1  0  0  0  0
 27 97  1  0  0  0  0
 28 26  1  0  0  0  0
 28 98  1  0  0  0  0
 28 99  1  0  0  0  0
 29 27  1  0  0  0  0
 29100  1  0  0  0  0
 29101  1  0  0  0  0
 30 28  1  0  0  0  0
 30102  1  0  0  0  0
 30103  1  0  0  0  0
 31 29  1  0  0  0  0
 31104  1  0  0  0  0
 31105  1  0  0  0  0
 32 30  1  0  0  0  0
 32106  1  0  0  0  0
 32107  1  0  0  0  0
 33 31  1  0  0  0  0
 33108  1  0  0  0  0
 33109  1  0  0  0  0
 34 32  1  0  0  0  0
 34110  1  0  0  0  0
 34111  1  0  0  0  0
 35 33  1  0  0  0  0
 35112  1  0  0  0  0
 35113  1  0  0  0  0
 36 34  1  0  0  0  0
 36114  1  0  0  0  0
 36115  1  0  0  0  0
 37 35  1  0  0  0  0
 37116  1  0  0  0  0
 37117  1  0  0  0  0
 38 36  1  0  0  0  0
 38118  1  0  0  0  0
 38119  1  0  0  0  0
 39  3  1  0  0  0  0
 39  4  1  0  0  0  0
 39 37  1  0  0  0  0
 39 38  1  0  0  0  0
M  CHG  1  39   1
M  END
>  <DRUGBANK_ID>
DB14143

>  <COMMON_NAME>
Distearyldimonium

>  <CAS_NUMBER>
14357-21-2

>  <UNII>
251IW5I21C

>  <SYNONYMS>
Dimethyldioctadecylammonium; Dimethyldistearylammonium; Dioctadecyldimethylammonium; Dioctadecyldimethylammonium ion; Distearyldimethylammonium

$$$$
