
 OpenBabel10282417133D

 32 32  0  0  1  0  0  0  0  0999 V2000
    1.4166   -0.2607    0.0831 C   0  0  0  0  0  0  0  0  0  0  0  0
    0.7411    0.5227    1.2156 C   0  0  2  0  0  0  0  0  0  0  0  0
   -0.6923    0.4163    0.9710 O   0  0  0  0  0  0  0  0  0  0  0  0
   -1.3326    1.3646    0.0782 C   0  0  2  0  0  0  0  0  0  0  0  0
   -1.2911    0.8902   -1.3796 C   0  0  0  0  0  0  0  0  0  0  0  0
   -1.7901   -0.4419   -1.4672 O   0  0  0  0  0  0  0  0  0  0  0  0
   -0.8884    2.8223    0.2693 C   0  0  1  0  0  0  0  0  0  0  0  0
   -1.5394    3.3269    1.4481 O   0  0  0  0  0  0  0  0  0  0  0  0
    0.6458    2.9799    0.3165 C   0  0  2  0  0  0  0  0  0  0  0  0
    1.2519    2.8529   -0.9538 O   0  0  0  0  0  0  0  0  0  0  0  0
    1.2744    2.0571    1.3615 C   0  0  1  0  0  0  0  0  0  0  0  0
    1.0499    2.8566    2.5500 O   0  0  0  0  0  0  0  0  0  0  0  0
    1.0843   -0.3427    2.3577 O   0  0  0  0  0  0  0  0  0  0  0  0
    0.5045    0.2424    3.8790 P   0  0  0  0  0  0  0  0  0  0  0  0
    1.9162    1.0291    3.9746 O   0  0  0  0  0  0  0  0  0  0  0  0
   -0.5291    1.2651    3.1481 O   0  0  0  0  0  0  0  0  0  0  0  0
   -0.0144    0.7661    5.2406 O   0  0  0  0  0  0  0  0  0  0  0  0
    1.2481    0.1172   -0.9167 H   0  0  0  0  0  0  0  0  0  0  0  0
    1.0166   -1.2847    0.0638 H   0  0  0  0  0  0  0  0  0  0  0  0
    2.4951   -0.3314    0.2361 H   0  0  0  0  0  0  0  0  0  0  0  0
   -2.3926    1.3082    0.3686 H   0  0  0  0  0  0  0  0  0  0  0  0
   -1.8928    1.5368   -2.0251 H   0  0  0  0  0  0  0  0  0  0  0  0
   -0.2971    0.8719   -1.8110 H   0  0  0  0  0  0  0  0  0  0  0  0
   -1.3557   -0.9552   -0.7607 H   0  0  0  0  0  0  0  0  0  0  0  0
   -1.2800    3.4344   -0.5497 H   0  0  0  0  0  0  0  0  0  0  0  0
   -1.0648    3.0087    2.2411 H   0  0  0  0  0  0  0  0  0  0  0  0
    0.8462    4.0186    0.6243 H   0  0  0  0  0  0  0  0  0  0  0  0
    1.1917    1.9284   -1.2616 H   0  0  0  0  0  0  0  0  0  0  0  0
    2.3635    2.0136    1.2942 H   0  0  0  0  0  0  0  0  0  0  0  0
    0.4429    2.4077    3.1702 H   0  0  0  0  0  0  0  0  0  0  0  0
    2.5054    0.5855    4.6131 H   0  0  0  0  0  0  0  0  0  0  0  0
   -1.2360    0.7528    2.6908 H   0  0  0  0  0  0  0  0  0  0  0  0
  1 18  1  0  0  0  0
  1 19  1  0  0  0  0
  1 20  1  0  0  0  0
  2  1  1  0  0  0  0
  2  3  1  0  0  0  0
  2 11  1  0  0  0  0
  2 13  1  1  0  0  0
  3  4  1  0  0  0  0
  4  5  1  0  0  0  0
  4  7  1  0  0  0  0
  4 21  1  1  0  0  0
  5  6  1  0  0  0  0
  5 22  1  0  0  0  0
  5 23  1  0  0  0  0
  6 24  1  0  0  0  0
  7  9  1  0  0  0  0
  7 25  1  6  0  0  0
  7  8  1  0  0  0  0
  8 26  1  0  0  0  0
  9 10  1  0  0  0  0
  9 11  1  0  0  0  0
  9 27  1  1  0  0  0
 10 28  1  0  0  0  0
 11 12  1  0  0  0  0
 11 29  1  6  0  0  0
 12 30  1  0  0  0  0
 13 14  1  0  0  0  0
 14 15  1  0  0  0  0
 14 16  1  0  0  0  0
 14 17  2  0  0  0  0
 15 31  1  0  0  0  0
 16 32  1  0  0  0  0
M  END
>  <DRUGBANK_ID>
DB04195

>  <SECONDARY_ACCESSION_NUMBERS>
EXPT01677

>  <COMMON_NAME>
Heptulose-2-Phosphate

$$$$
