
 OpenBabel10282417133D

 13 13  0  0  0  0  0  0  0  0999 V2000
   -4.6071   -0.0393   -0.0064 O   0  0  0  0  0  0  0  0  0  0  0  0
   -3.2447    0.0087   -0.0080 C   0  0  0  0  0  0  0  0  0  0  0  0
   -2.5569    1.2195   -0.0074 C   0  0  0  0  0  0  0  0  0  0  0  0
   -1.1589    1.2143   -0.0027 C   0  0  0  0  0  0  0  0  0  0  0  0
   -0.4680    0.0008   -0.0003 C   0  0  0  0  0  0  0  0  0  0  0  0
    1.6110   -0.0062    0.0076 I   0  0  0  0  0  0  0  0  0  0  0  0
   -1.1638   -1.2087   -0.0045 C   0  0  0  0  0  0  0  0  0  0  0  0
   -2.5594   -1.2011   -0.0092 C   0  0  0  0  0  0  0  0  0  0  0  0
   -4.9549    0.8669    0.0146 H   0  0  0  0  0  0  0  0  0  0  0  0
   -3.0842    2.1680   -0.0116 H   0  0  0  0  0  0  0  0  0  0  0  0
   -0.6229    2.1602   -0.0013 H   0  0  0  0  0  0  0  0  0  0  0  0
   -0.6386   -2.1597   -0.0042 H   0  0  0  0  0  0  0  0  0  0  0  0
   -3.1115   -2.1369   -0.0133 H   0  0  0  0  0  0  0  0  0  0  0  0
  1  2  1  0  0  0  0
  1  9  1  0  0  0  0
  2  3  2  0  0  0  0
  2  8  1  0  0  0  0
  3  4  1  0  0  0  0
  3 10  1  0  0  0  0
  4  5  2  0  0  0  0
  4 11  1  0  0  0  0
  5  6  1  0  0  0  0
  5  7  1  0  0  0  0
  7  8  2  0  0  0  0
  7 12  1  0  0  0  0
  8 13  1  0  0  0  0
M  END
>  <DRUGBANK_ID>
DB03002

>  <SECONDARY_ACCESSION_NUMBERS>
EXPT01906

>  <COMMON_NAME>
p-Iodophenol

>  <CAS_NUMBER>
540-38-5

>  <UNII>
BH194BAK0B

>  <SYNONYMS>
4-iodophenol

$$$$
