
 OpenBabel10282417123D

 47 46  0  0  0  0  0  0  0  0999 V2000
    2.5911   -2.3048   -3.2885 C   0  0  0  0  0  0  0  0  0  0  0  0
    1.8238   -1.4558   -2.5767 C   0  0  0  0  0  0  0  0  0  0  0  0
    1.8686    0.0181   -2.8938 C   0  0  0  0  0  0  0  0  0  0  0  0
    0.9313   -1.9548   -1.4444 C   0  0  2  0  0  0  0  0  0  0  0  0
    0.0485   -0.9298   -0.6710 C   0  0  0  0  0  0  0  0  0  0  0  0
   -0.0536    0.2697   -0.8611 O   0  0  0  0  0  0  0  0  0  0  0  0
   -0.6317   -1.4630    0.3698 O   0  0  0  0  0  0  0  0  0  0  0  0
    1.7136   -2.7374   -0.4895 N   0  0  0  0  0  0  0  0  0  0  0  0
    2.6050   -2.2181    0.2653 C   0  0  0  0  0  0  0  0  0  0  0  0
    3.0645   -0.7324    0.2943 C   0  0  3  0  0  0  0  0  0  0  0  0
    2.6595    0.1942    1.4692 C   0  0  0  0  0  0  0  0  0  0  0  0
    3.2423    0.0786    3.2055 S   0  0  0  0  0  0  0  0  0  0  0  0
    4.3566   -0.4325   -0.3988 N   0  0  0  0  0  0  0  0  0  0  0  0
    5.4596   -0.6856    0.1865 C   0  0  0  0  0  0  0  0  0  0  0  0
    5.5246   -1.3285    1.5088 C   0  0  0  0  0  0  0  0  0  0  0  0
    6.0125   -2.7529    1.5450 C   0  0  0  0  0  0  0  0  0  0  0  0
    7.5092   -2.7371    1.5102 C   0  0  0  0  0  0  0  0  0  0  0  0
    8.0627   -1.8029    2.5923 C   0  0  3  0  0  0  0  0  0  0  0  0
    7.8321   -2.3660    4.0089 C   0  0  0  0  0  0  0  0  0  0  0  0
    8.6869   -2.7486    4.7711 O   0  0  0  0  0  0  0  0  0  0  0  0
    6.5215   -2.4008    4.3622 O   0  0  0  0  0  0  0  0  0  0  0  0
    9.4788   -1.6068    2.2811 N   0  0  0  0  0  0  0  0  0  0  0  0
    6.6254   -0.3136   -0.3593 O   0  0  0  0  0  0  0  0  0  0  0  0
    3.1002   -3.1350    1.1007 O   0  0  0  0  0  0  0  0  0  0  0  0
    0.2137   -2.6595   -1.8834 H   0  0  0  0  0  0  0  0  0  0  0  0
    3.2408   -1.9440   -4.0798 H   0  0  0  0  0  0  0  0  0  0  0  0
    2.6077   -3.3724   -3.0858 H   0  0  0  0  0  0  0  0  0  0  0  0
    0.8696    0.3759   -3.1471 H   0  0  0  0  0  0  0  0  0  0  0  0
    2.2460    0.6303   -2.0711 H   0  0  0  0  0  0  0  0  0  0  0  0
    2.5334    0.2348   -3.7331 H   0  0  0  0  0  0  0  0  0  0  0  0
   -1.1235   -0.6939    0.7273 H   0  0  0  0  0  0  0  0  0  0  0  0
    2.4076   -0.2856   -0.4304 H   0  0  0  0  0  0  0  0  0  0  0  0
    2.8548    1.2319    1.1684 H   0  0  0  0  0  0  0  0  0  0  0  0
    1.5807    0.0859    1.5853 H   0  0  0  0  0  0  0  0  0  0  0  0
    3.3925   -1.2530    3.2709 H   0  0  0  0  0  0  0  0  0  0  0  0
    5.8769   -0.6264    2.2588 H   0  0  0  0  0  0  0  0  0  0  0  0
    4.5187   -1.4278    1.8028 H   0  0  0  0  0  0  0  0  0  0  0  0
    5.6460   -3.2413    2.4565 H   0  0  0  0  0  0  0  0  0  0  0  0
    5.6094   -3.3559    0.7240 H   0  0  0  0  0  0  0  0  0  0  0  0
    7.8826   -3.7590    1.6164 H   0  0  0  0  0  0  0  0  0  0  0  0
    7.7985   -2.4110    0.5042 H   0  0  0  0  0  0  0  0  0  0  0  0
    7.6610   -0.7882    2.5787 H   0  0  0  0  0  0  0  0  0  0  0  0
    6.4873   -2.8664    5.2259 H   0  0  0  0  0  0  0  0  0  0  0  0
    9.8858   -1.0365    3.0225 H   0  0  0  0  0  0  0  0  0  0  0  0
    9.9385   -2.5140    2.3473 H   0  0  0  0  0  0  0  0  0  0  0  0
    7.3987   -0.4537    0.2135 H   0  0  0  0  0  0  0  0  0  0  0  0
    3.6747   -2.8673    1.8141 H   0  0  0  0  0  0  0  0  0  0  0  0
  1  2  2  0  0  0  0
  1 26  1  0  0  0  0
  1 27  1  0  0  0  0
  2  3  1  0  0  0  0
  3 28  1  0  0  0  0
  3 29  1  0  0  0  0
  3 30  1  0  0  0  0
  4  8  1  0  0  0  0
  4 25  1  6  0  0  0
  4  5  1  0  0  0  0
  4  2  1  0  0  0  0
  5  6  2  0  0  0  0
  5  7  1  0  0  0  0
  7 31  1  0  0  0  0
  8  9  2  3  0  0  0
  9 10  1  0  0  0  0
  9 24  1  0  0  0  0
 10 11  1  0  0  0  0
 10 13  1  0  0  0  0
 10 32  1  0  0  0  0
 11 12  1  0  0  0  0
 11 33  1  0  0  0  0
 11 34  1  0  0  0  0
 12 35  1  0  0  0  0
 13 14  2  3  0  0  0
 14 15  1  0  0  0  0
 14 23  1  0  0  0  0
 15 16  1  0  0  0  0
 15 36  1  0  0  0  0
 15 37  1  0  0  0  0
 16 17  1  0  0  0  0
 16 38  1  0  0  0  0
 16 39  1  0  0  0  0
 17 18  1  0  0  0  0
 17 40  1  0  0  0  0
 17 41  1  0  0  0  0
 18 19  1  0  0  0  0
 18 22  1  0  0  0  0
 18 42  1  0  0  0  0
 19 20  2  0  0  0  0
 19 21  1  0  0  0  0
 21 43  1  0  0  0  0
 22 44  1  0  0  0  0
 22 45  1  0  0  0  0
 23 46  1  0  0  0  0
 24 47  1  0  0  0  0
M  END
>  <DRUGBANK_ID>
DB02582

>  <SECONDARY_ACCESSION_NUMBERS>
EXPT00870

>  <COMMON_NAME>
(6Z)-6-{[(1Z)-1-{[(1R)-1-Carboxy-2-methyl-2-propen-1-yl]imino}-1-hydroxy-3-sulfanyl-2-propanyl]imino}-6-hydroxynorleucine

$$$$
