
 OpenBabel10282417153D

 51 53  0  0  0  0  0  0  0  0999 V2000
    1.0617    0.1231   -0.1364 O   0  0  0  0  0  0  0  0  0  0  0  0
    2.3009    0.0605   -0.2215 C   0  0  0  0  0  0  0  0  0  0  0  0
    3.0869    0.9661    0.6535 C   0  0  0  0  0  0  0  0  0  0  0  0
    4.2446    1.6475    0.2950 C   0  0  0  0  0  0  0  0  0  0  0  0
    4.8981    1.6169   -0.9123 O   0  0  0  0  0  0  0  0  0  0  0  0
    6.0435    2.5053   -0.7693 C   0  0  0  0  0  0  0  0  0  0  0  0
    6.0533    3.1370    0.6104 C   0  0  0  0  0  0  0  0  0  0  0  0
    4.8591    2.5062    1.2045 C   0  0  0  0  0  0  0  0  0  0  0  0
    4.3812    2.7340    2.4880 C   0  0  0  0  0  0  0  0  0  0  0  0
    5.0953    3.5401    3.3597 N   0  0  0  0  0  0  0  0  0  0  0  0
    3.2126    2.0582    2.8520 C   0  0  0  0  0  0  0  0  0  0  0  0
    2.5465    2.2748    4.4345 Cl  0  0  0  0  0  0  0  0  0  0  0  0
    2.5659    1.2004    1.9479 C   0  0  0  0  0  0  0  0  0  0  0  0
    2.9412   -0.8769   -1.0164 N   0  0  0  0  0  0  0  0  0  0  0  0
    2.1492   -1.8582   -1.7939 C   0  0  0  0  0  0  0  0  0  0  0  0
    1.3623   -2.8036   -0.8916 C   0  0  0  0  0  0  0  0  0  0  0  0
    2.2797   -3.8793   -0.3646 C   0  0  0  0  0  0  0  0  0  0  0  0
    3.0823   -4.6516   -1.3093 N   0  0  0  0  0  0  0  0  0  0  0  0
    4.0098   -5.6338   -0.7055 C   0  0  0  0  0  0  0  0  0  0  0  0
    5.0650   -5.1179    0.3033 C   0  0  0  0  0  0  0  0  0  0  0  0
    4.6228   -4.3878    1.5804 C   0  0  0  0  0  0  0  0  0  0  0  0
    3.8829   -5.1496    2.5323 O   0  0  0  0  0  0  0  0  0  0  0  0
    2.6714   -5.7653    2.1343 C   0  0  0  0  0  0  0  0  0  0  0  0
    3.8405   -3.7592   -2.1757 C   0  0  0  0  0  0  0  0  0  0  0  0
    2.9398   -2.7085   -2.8060 C   0  0  0  0  0  0  0  0  0  0  0  0
    6.0140    3.2840   -1.5423 H   0  0  0  0  0  0  0  0  0  0  0  0
    6.9640    1.9308   -0.9279 H   0  0  0  0  0  0  0  0  0  0  0  0
    5.9371    4.2247    0.5663 H   0  0  0  0  0  0  0  0  0  0  0  0
    6.9536    2.8778    1.1750 H   0  0  0  0  0  0  0  0  0  0  0  0
    5.9040    4.0615    3.0528 H   0  0  0  0  0  0  0  0  0  0  0  0
    4.7120    3.7354    4.2768 H   0  0  0  0  0  0  0  0  0  0  0  0
    1.6455    0.7070    2.2596 H   0  0  0  0  0  0  0  0  0  0  0  0
    3.9499   -0.9613   -0.9449 H   0  0  0  0  0  0  0  0  0  0  0  0
    1.4232   -1.2604   -2.3541 H   0  0  0  0  0  0  0  0  0  0  0  0
    0.9466   -2.2838   -0.0174 H   0  0  0  0  0  0  0  0  0  0  0  0
    0.5191   -3.2669   -1.4103 H   0  0  0  0  0  0  0  0  0  0  0  0
    2.9189   -3.3000    0.2772 H   0  0  0  0  0  0  0  0  0  0  0  0
    1.6281   -4.5364    0.1923 H   0  0  0  0  0  0  0  0  0  0  0  0
    3.4601   -6.5014   -0.3386 H   0  0  0  0  0  0  0  0  0  0  0  0
    4.5701   -6.1140   -1.5240 H   0  0  0  0  0  0  0  0  0  0  0  0
    5.6765   -5.9719    0.6187 H   0  0  0  0  0  0  0  0  0  0  0  0
    5.7561   -4.4626   -0.2445 H   0  0  0  0  0  0  0  0  0  0  0  0
    5.5397   -4.0853    2.1007 H   0  0  0  0  0  0  0  0  0  0  0  0
    4.1859   -3.4019    1.4204 H   0  0  0  0  0  0  0  0  0  0  0  0
    1.8925   -5.0406    1.9118 H   0  0  0  0  0  0  0  0  0  0  0  0
    2.8224   -6.4832    1.3380 H   0  0  0  0  0  0  0  0  0  0  0  0
    2.2701   -6.3643    2.9504 H   0  0  0  0  0  0  0  0  0  0  0  0
    4.3048   -4.3658   -2.9640 H   0  0  0  0  0  0  0  0  0  0  0  0
    4.6435   -3.2616   -1.6246 H   0  0  0  0  0  0  0  0  0  0  0  0
    2.2118   -3.2488   -3.4290 H   0  0  0  0  0  0  0  0  0  0  0  0
    3.5435   -2.0841   -3.4656 H   0  0  0  0  0  0  0  0  0  0  0  0
  1  2  2  0  0  0  0
  2  3  1  0  0  0  0
  2 14  1  0  0  0  0
  3  4  2  0  0  0  0
  3 13  1  0  0  0  0
  4  5  1  0  0  0  0
  4  8  1  0  0  0  0
  5  6  1  0  0  0  0
  6  7  1  0  0  0  0
  6 26  1  0  0  0  0
  6 27  1  0  0  0  0
  7  8  1  0  0  0  0
  7 28  1  0  0  0  0
  7 29  1  0  0  0  0
  8  9  2  0  0  0  0
  9 10  1  0  0  0  0
  9 11  1  0  0  0  0
 10 30  1  0  0  0  0
 10 31  1  0  0  0  0
 11 12  1  0  0  0  0
 11 13  2  0  0  0  0
 13 32  1  0  0  0  0
 14 15  1  0  0  0  0
 14 33  1  0  0  0  0
 15 16  1  0  0  0  0
 15 25  1  0  0  0  0
 15 34  1  0  0  0  0
 16 17  1  0  0  0  0
 16 35  1  0  0  0  0
 16 36  1  0  0  0  0
 17 18  1  0  0  0  0
 17 37  1  0  0  0  0
 17 38  1  0  0  0  0
 18 19  1  0  0  0  0
 18 24  1  0  0  0  0
 19 20  1  0  0  0  0
 19 39  1  0  0  0  0
 19 40  1  0  0  0  0
 20 21  1  0  0  0  0
 20 41  1  0  0  0  0
 20 42  1  0  0  0  0
 21 22  1  0  0  0  0
 21 43  1  0  0  0  0
 21 44  1  0  0  0  0
 22 23  1  0  0  0  0
 23 45  1  0  0  0  0
 23 46  1  0  0  0  0
 23 47  1  0  0  0  0
 24 25  1  0  0  0  0
 24 48  1  0  0  0  0
 24 49  1  0  0  0  0
 25 50  1  0  0  0  0
 25 51  1  0  0  0  0
M  END
>  <DRUGBANK_ID>
DB06480

>  <COMMON_NAME>
Prucalopride

>  <CAS_NUMBER>
179474-81-8

>  <UNII>
0A09IUW5TP

>  <SYNONYMS>
Prucaloprida; Prucalopride

$$$$
