
 OpenBabel10282417123D

 34 35  0  0  0  0  0  0  0  0999 V2000
    0.2844    2.8652    2.4217 O   0  0  0  0  0  0  0  0  0  0  0  0
    0.0932    3.1317    1.0412 C   0  0  0  0  0  0  0  0  0  0  0  0
    1.1308    2.4484    0.1500 C   0  0  2  0  0  0  0  0  0  0  0  0
    2.3270    1.8361    0.8758 C   0  0  1  0  0  0  0  0  0  0  0  0
    2.0391    0.5712    1.4831 O   0  0  0  0  0  0  0  0  0  0  0  0
    3.3534    1.7946   -0.2591 C   0  0  1  0  0  0  0  0  0  0  0  0
    3.0986    0.7287   -1.2058 O   0  0  0  0  0  0  0  0  0  0  0  0
    3.0926    3.1241   -0.9798 C   0  0  1  0  0  0  0  0  0  0  0  0
    1.6664    3.3551   -0.8415 O   0  0  0  0  0  0  0  0  0  0  0  0
    3.8775    4.2337   -0.4772 N   0  0  0  0  0  0  0  0  0  0  0  0
    5.2601    4.1098   -0.5913 C   0  0  0  0  0  0  0  0  0  0  0  0
    5.8193    3.1229   -1.0545 O   0  0  0  0  0  0  0  0  0  0  0  0
    5.9892    5.1632   -0.1141 N   0  0  0  0  0  0  0  0  0  0  0  0
    5.4893    6.1701    0.6476 C   0  0  0  0  0  0  0  0  0  0  0  0
    4.0274    6.2908    0.6810 C   0  0  0  0  0  0  0  0  0  0  0  0
    3.2945    5.3513    0.0776 C   0  0  0  0  0  0  0  0  0  0  0  0
    1.5143   -0.5518    0.2763 P   0  0  0  0  0  0  0  0  0  0  0  0
    2.9905   -1.2435    0.1884 O   0  0  0  0  0  0  0  0  0  0  0  0
    0.7261   -1.3237    1.3260 O   0  0  0  0  0  0  0  0  0  0  0  0
    0.9895   -1.6748   -0.9304 O   0  0  0  0  0  0  0  0  0  0  0  0
    6.2069    6.9563    1.2739 O   0  0  0  0  0  0  0  0  0  0  0  0
    0.2631    1.8983    2.5685 H   0  0  0  0  0  0  0  0  0  0  0  0
   -0.9116    2.7885    0.7692 H   0  0  0  0  0  0  0  0  0  0  0  0
    0.1115    4.2153    0.8949 H   0  0  0  0  0  0  0  0  0  0  0  0
    0.5886    1.6862   -0.4213 H   0  0  0  0  0  0  0  0  0  0  0  0
    2.6917    2.5102    1.6606 H   0  0  0  0  0  0  0  0  0  0  0  0
    4.3595    1.6305    0.1331 H   0  0  0  0  0  0  0  0  0  0  0  0
    2.3382    0.9795   -1.7716 H   0  0  0  0  0  0  0  0  0  0  0  0
    3.3025    3.0247   -2.0527 H   0  0  0  0  0  0  0  0  0  0  0  0
    6.9924    5.0703   -0.1609 H   0  0  0  0  0  0  0  0  0  0  0  0
    3.5964    7.1414    1.1890 H   0  0  0  0  0  0  0  0  0  0  0  0
    2.2133    5.4413    0.0355 H   0  0  0  0  0  0  0  0  0  0  0  0
    3.5414   -0.7148   -0.4325 H   0  0  0  0  0  0  0  0  0  0  0  0
    1.6768   -2.3697   -0.9482 H   0  0  0  0  0  0  0  0  0  0  0  0
  1  2  1  0  0  0  0
  1 22  1  0  0  0  0
  2 23  1  0  0  0  0
  2 24  1  0  0  0  0
  3  9  1  0  0  0  0
  3  4  1  0  0  0  0
  3 25  1  6  0  0  0
  3  2  1  0  0  0  0
  4  6  1  0  0  0  0
  4  5  1  0  0  0  0
  4 26  1  1  0  0  0
  5 17  1  0  0  0  0
  6  7  1  0  0  0  0
  6  8  1  0  0  0  0
  6 27  1  1  0  0  0
  7 28  1  0  0  0  0
  8  9  1  0  0  0  0
  8 10  1  0  0  0  0
  8 29  1  6  0  0  0
 10 11  1  0  0  0  0
 10 16  1  0  0  0  0
 11 12  2  0  0  0  0
 11 13  1  0  0  0  0
 13 14  1  0  0  0  0
 13 30  1  0  0  0  0
 14 15  1  0  0  0  0
 14 21  2  0  0  0  0
 15 16  2  0  0  0  0
 15 31  1  0  0  0  0
 16 32  1  0  0  0  0
 17 18  1  0  0  0  0
 17 19  2  0  0  0  0
 17 20  1  0  0  0  0
 18 33  1  0  0  0  0
 20 34  1  0  0  0  0
M  END
>  <DRUGBANK_ID>
DB02714

>  <SECONDARY_ACCESSION_NUMBERS>
EXPT03160

>  <COMMON_NAME>
3'-Uridinemonophosphate

>  <CAS_NUMBER>
84-53-7

>  <UNII>
ZI74VYB8VZ

>  <SYNONYMS>
3'-UMP; 3'-Uridylic acid; Uridine 3'-monophosphate; Uridine 3'-phosphate

$$$$
