
 OpenBabel10282417133D

 32 32  0  0  0  0  0  0  0  0999 V2000
    1.0853   -0.0302   -0.1333 C   0  0  0  0  0  0  0  0  0  0  0  0
    0.2946    1.1611   -0.7068 N   0  3  0  0  0  0  0  0  0  0  0  0
   -0.5127    1.7061    0.5095 C   0  0  0  0  0  0  0  0  0  0  0  0
   -0.4834    0.6899   -1.9481 C   0  0  0  0  0  0  0  0  0  0  0  0
    1.0514    2.4183   -1.0962 C   0  0  0  0  0  0  0  0  0  0  0  0
    2.3207    2.6861   -0.6337 C   0  0  0  0  0  0  0  0  0  0  0  0
    2.6836    4.0121   -0.3772 C   0  0  0  0  0  0  0  0  0  0  0  0
    1.7638    5.0522   -0.5719 C   0  0  0  0  0  0  0  0  0  0  0  0
    0.5208    4.8288   -1.1524 C   0  0  0  0  0  0  0  0  0  0  0  0
    0.2021    3.4993   -1.4738 C   0  0  0  0  0  0  0  0  0  0  0  0
   -0.5057    5.9336   -1.4436 C   0  0  0  0  0  0  0  0  0  0  0  0
   -1.0437    5.6143   -2.7347 O   0  0  0  0  0  0  0  0  0  0  0  0
   -1.5849    5.8424   -0.5091 O   0  0  0  0  0  0  0  0  0  0  0  0
    0.1502    7.3602   -1.4299 C   0  0  0  0  0  0  0  0  0  0  0  0
    0.5420    7.7194   -0.1844 F   0  0  0  0  0  0  0  0  0  0  0  0
    1.2575    7.3522   -2.2203 F   0  0  0  0  0  0  0  0  0  0  0  0
   -0.6679    8.3215   -1.9032 F   0  0  0  0  0  0  0  0  0  0  0  0
    0.6978   -0.9660   -0.5532 H   0  0  0  0  0  0  0  0  0  0  0  0
    0.8839   -0.1007    0.9438 H   0  0  0  0  0  0  0  0  0  0  0  0
    2.1549    0.0389   -0.3108 H   0  0  0  0  0  0  0  0  0  0  0  0
   -0.9731    2.6760    0.2996 H   0  0  0  0  0  0  0  0  0  0  0  0
   -1.2860    0.9988    0.7821 H   0  0  0  0  0  0  0  0  0  0  0  0
    0.2241    1.8817    1.3096 H   0  0  0  0  0  0  0  0  0  0  0  0
   -1.4610    1.1745   -1.9666 H   0  0  0  0  0  0  0  0  0  0  0  0
    0.0937    0.9354   -2.8523 H   0  0  0  0  0  0  0  0  0  0  0  0
   -0.6191   -0.3954   -1.9308 H   0  0  0  0  0  0  0  0  0  0  0  0
    3.0258    1.9131   -0.3421 H   0  0  0  0  0  0  0  0  0  0  0  0
    3.6545    4.2426    0.0453 H   0  0  0  0  0  0  0  0  0  0  0  0
    2.0775    6.0475   -0.2481 H   0  0  0  0  0  0  0  0  0  0  0  0
   -0.8174    3.3115   -1.8017 H   0  0  0  0  0  0  0  0  0  0  0  0
   -0.2742    5.5708   -3.3356 H   0  0  0  0  0  0  0  0  0  0  0  0
   -2.1200    5.0721   -0.7516 H   0  0  0  0  0  0  0  0  0  0  0  0
  1  2  1  0  0  0  0
  1 18  1  0  0  0  0
  1 19  1  0  0  0  0
  1 20  1  0  0  0  0
  2  3  1  0  0  0  0
  2  4  1  0  0  0  0
  2  5  1  0  0  0  0
  3 21  1  0  0  0  0
  3 22  1  0  0  0  0
  3 23  1  0  0  0  0
  4 24  1  0  0  0  0
  4 25  1  0  0  0  0
  4 26  1  0  0  0  0
  5  6  2  0  0  0  0
  5 10  1  0  0  0  0
  6  7  1  0  0  0  0
  6 27  1  0  0  0  0
  7  8  2  0  0  0  0
  7 28  1  0  0  0  0
  8  9  1  0  0  0  0
  8 29  1  0  0  0  0
  9 10  2  0  0  0  0
  9 11  1  0  0  0  0
 10 30  1  0  0  0  0
 11 12  1  0  0  0  0
 11 13  1  0  0  0  0
 11 14  1  0  0  0  0
 12 31  1  0  0  0  0
 13 32  1  0  0  0  0
 14 15  1  0  0  0  0
 14 16  1  0  0  0  0
 14 17  1  0  0  0  0
M  CHG  1   2   1
M  END
>  <DRUGBANK_ID>
DB03359

>  <SECONDARY_ACCESSION_NUMBERS>
EXPT02285

>  <COMMON_NAME>
M-(N,N,N-Trimethylammonio)-2,2,2-Trifluoro-1,1-Dihydroxyethylbenzene

$$$$
