
 OpenBabel10282417203D

 30 30  0  0  0  0  0  0  0  0999 V2000
    0.9469   -0.2031    0.0381 C   0  0  0  0  0  0  0  0  0  0  0  0
   -1.5166   -0.4194    2.9427 C   0  0  0  0  0  0  0  0  0  0  0  0
    3.5566    4.2877    2.2647 C   0  0  0  0  0  0  0  0  0  0  0  0
   -1.1985    3.8519    0.7228 C   0  0  0  0  0  0  0  0  0  0  0  0
   -0.3870    4.9500    0.9489 C   0  0  0  0  0  0  0  0  0  0  0  0
   -0.7276    2.5876    1.0451 C   0  0  0  0  0  0  0  0  0  0  0  0
    0.8984    4.7643    1.4582 C   0  0  0  0  0  0  0  0  0  0  0  0
    0.9715    1.0305    2.2040 C   0  0  0  0  0  0  0  0  0  0  0  0
    0.4702   -0.2505    1.5000 C   0  0  3  0  0  0  0  0  0  0  0  0
    0.5252    2.3768    1.6476 C   0  0  0  0  0  0  0  0  0  0  0  0
    1.3662    3.4914    1.8007 C   0  0  0  0  0  0  0  0  0  0  0  0
   -0.9692   -0.5500    1.5976 N   0  0  0  0  0  0  0  0  0  0  0  0
    2.6220    3.2217    2.2768 O   0  0  0  0  0  0  0  0  0  0  0  0
    0.5902    0.6870   -0.4915 H   0  0  0  0  0  0  0  0  0  0  0  0
    0.6229   -1.0777   -0.5297 H   0  0  0  0  0  0  0  0  0  0  0  0
    2.0438   -0.1688    0.0085 H   0  0  0  0  0  0  0  0  0  0  0  0
   -1.2759    0.5271    3.4364 H   0  0  0  0  0  0  0  0  0  0  0  0
   -2.6096   -0.4549    2.8962 H   0  0  0  0  0  0  0  0  0  0  0  0
   -1.1774   -1.2472    3.5700 H   0  0  0  0  0  0  0  0  0  0  0  0
    3.6610    4.7213    1.2643 H   0  0  0  0  0  0  0  0  0  0  0  0
    3.2695    5.0419    3.0018 H   0  0  0  0  0  0  0  0  0  0  0  0
    4.5309    3.8831    2.5540 H   0  0  0  0  0  0  0  0  0  0  0  0
   -2.1931    3.9643    0.3013 H   0  0  0  0  0  0  0  0  0  0  0  0
   -0.7500    5.9415    0.7058 H   0  0  0  0  0  0  0  0  0  0  0  0
   -1.3912    1.7823    0.7753 H   0  0  0  0  0  0  0  0  0  0  0  0
    1.5161    5.6467    1.5861 H   0  0  0  0  0  0  0  0  0  0  0  0
    0.7247    1.0083    3.2732 H   0  0  0  0  0  0  0  0  0  0  0  0
    2.0683    0.9639    2.1868 H   0  0  0  0  0  0  0  0  0  0  0  0
    0.9781   -1.1032    1.9694 H   0  0  0  0  0  0  0  0  0  0  0  0
   -1.5052    0.0171    0.9530 H   0  0  0  0  0  0  0  0  0  0  0  0
  1 14  1  0  0  0  0
  1 15  1  0  0  0  0
  1 16  1  0  0  0  0
  2 17  1  0  0  0  0
  2 18  1  0  0  0  0
  2 19  1  0  0  0  0
  3 20  1  0  0  0  0
  3 21  1  0  0  0  0
  3 22  1  0  0  0  0
  4 23  1  0  0  0  0
  5  4  2  0  0  0  0
  5 24  1  0  0  0  0
  6  4  1  0  0  0  0
  6 25  1  0  0  0  0
  7  5  1  0  0  0  0
  7 26  1  0  0  0  0
  8 27  1  0  0  0  0
  8 28  1  0  0  0  0
  9  1  1  0  0  0  0
  9  8  1  0  0  0  0
  9 29  1  0  0  0  0
 10  6  2  0  0  0  0
 10  8  1  0  0  0  0
 11  7  2  0  0  0  0
 11 10  1  0  0  0  0
 12  2  1  0  0  0  0
 12  9  1  0  0  0  0
 12 30  1  0  0  0  0
 13  3  1  0  0  0  0
 13 11  1  0  0  0  0
M  END
>  <DRUGBANK_ID>
DB13624

>  <COMMON_NAME>
Methoxyphenamine

>  <CAS_NUMBER>
93-30-1

>  <UNII>
J3Z5SRI26Z

>  <SYNONYMS>
2-Methoxymethamphetamine; Méthoxyphénamine; Methoxyphenamine; Methoxyphenaminum; Metoxifenamina

$$$$
