
 OpenBabel10282417133D

 63 65  0  0  0  0  0  0  0  0999 V2000
    4.2362    0.3484   -5.0795 O   0  0  0  0  0  0  0  0  0  0  0  0
   -1.2546    0.7112   -5.2701 O   0  0  0  0  0  0  0  0  0  0  0  0
   -0.0521   -0.2398   -6.8904 O   0  0  0  0  0  0  0  0  0  0  0  0
    3.5337   -2.0123   -1.7823 N   0  0  0  0  0  0  0  0  0  0  0  0
    2.2574    1.0090   -5.8207 N   0  0  0  0  0  0  0  0  0  0  0  0
    5.7344   -1.9225   -1.0266 N   0  0  0  0  0  0  0  0  0  0  0  0
    4.3362   -3.5593   -0.2556 N   0  0  0  0  0  0  0  0  0  0  0  0
    2.7014    0.1918   -2.3910 C   0  0  1  0  0  0  0  0  0  0  0  0
    1.2735   -0.3551   -2.2977 C   0  0  0  0  0  0  0  0  0  0  0  0
    3.6713   -0.9369   -2.7381 C   0  0  0  0  0  0  0  0  0  0  0  0
    1.1590   -1.6038   -1.4396 C   0  0  0  0  0  0  0  0  0  0  0  0
    2.2021   -2.6346   -1.8561 C   0  0  0  0  0  0  0  0  0  0  0  0
    2.8080    1.3410   -3.4059 C   0  0  0  0  0  0  0  0  0  0  0  0
    3.1539    0.8748   -4.8203 C   0  0  0  0  0  0  0  0  0  0  0  0
    4.5312   -2.5328   -1.0123 C   0  0  0  0  0  0  0  0  0  0  0  0
    0.9742    1.6970   -5.8064 C   0  0  1  0  0  0  0  0  0  0  0  0
    1.0200    2.9168   -6.7495 C   0  0  0  0  0  0  0  0  0  0  0  0
   -0.1328    0.6358   -6.0311 C   0  0  0  0  0  0  0  0  0  0  0  0
    1.1343    2.5782   -8.2094 C   0  0  0  0  0  0  0  0  0  0  0  0
    2.1992    2.9935   -9.0146 C   0  0  0  0  0  0  0  0  0  0  0  0
    0.1138    1.8191   -8.7849 C   0  0  0  0  0  0  0  0  0  0  0  0
    2.2465    2.5928  -10.3562 C   0  0  0  0  0  0  0  0  0  0  0  0
    0.2131    1.3266  -10.0696 C   0  0  0  0  0  0  0  0  0  0  0  0
    1.2637    1.7414  -10.8686 C   0  0  0  0  0  0  0  0  0  0  0  0
   -1.2043    1.2511   -3.9532 C   0  0  0  0  0  0  0  0  0  0  0  0
    1.2553    1.3293  -12.2335 C   0  0  0  0  0  0  0  0  0  0  0  0
    1.1715    0.9493  -13.3601 C   0  0  0  0  0  0  0  0  0  0  0  0
    1.1080    0.4597  -14.7000 C   0  0  0  0  0  0  0  0  0  0  0  0
    0.0724   -0.3857  -15.1012 C   0  0  0  0  0  0  0  0  0  0  0  0
    2.1220    0.8061  -15.5916 C   0  0  0  0  0  0  0  0  0  0  0  0
    0.0663   -0.9015  -16.3976 C   0  0  0  0  0  0  0  0  0  0  0  0
    2.1127    0.2920  -16.8858 C   0  0  0  0  0  0  0  0  0  0  0  0
    1.0878   -0.5647  -17.2868 C   0  0  0  0  0  0  0  0  0  0  0  0
    2.5403    0.5803   -6.7018 H   0  0  0  0  0  0  0  0  0  0  0  0
    6.5124   -2.2879   -0.5008 H   0  0  0  0  0  0  0  0  0  0  0  0
    5.9659   -1.1736   -1.6585 H   0  0  0  0  0  0  0  0  0  0  0  0
    5.1920   -3.7823    0.2466 H   0  0  0  0  0  0  0  0  0  0  0  0
    2.9428    0.5958   -1.3973 H   0  0  0  0  0  0  0  0  0  0  0  0
    0.6229    0.4089   -1.8556 H   0  0  0  0  0  0  0  0  0  0  0  0
    0.9229   -0.6088   -3.3054 H   0  0  0  0  0  0  0  0  0  0  0  0
    3.4223   -1.3596   -3.7178 H   0  0  0  0  0  0  0  0  0  0  0  0
    4.6759   -0.5196   -2.8029 H   0  0  0  0  0  0  0  0  0  0  0  0
    1.2978   -1.3257   -0.3898 H   0  0  0  0  0  0  0  0  0  0  0  0
    0.1474   -2.0145   -1.5441 H   0  0  0  0  0  0  0  0  0  0  0  0
    2.1013   -3.5264   -1.2346 H   0  0  0  0  0  0  0  0  0  0  0  0
    1.9982   -2.9459   -2.8915 H   0  0  0  0  0  0  0  0  0  0  0  0
    3.6043    2.0302   -3.1072 H   0  0  0  0  0  0  0  0  0  0  0  0
    1.8996    1.9365   -3.3512 H   0  0  0  0  0  0  0  0  0  0  0  0
    0.8357    2.1351   -4.8299 H   0  0  0  0  0  0  0  0  0  0  0  0
    0.1189    3.5233   -6.6103 H   0  0  0  0  0  0  0  0  0  0  0  0
    1.8692    3.5530   -6.4535 H   0  0  0  0  0  0  0  0  0  0  0  0
    2.9774    3.6480   -8.6260 H   0  0  0  0  0  0  0  0  0  0  0  0
   -0.7811    1.5675   -8.2275 H   0  0  0  0  0  0  0  0  0  0  0  0
    3.0438    2.9537  -11.0005 H   0  0  0  0  0  0  0  0  0  0  0  0
   -0.5545    0.6484  -10.4310 H   0  0  0  0  0  0  0  0  0  0  0  0
   -0.2953    0.9411   -3.4730 H   0  0  0  0  0  0  0  0  0  0  0  0
   -1.2254    2.3391   -3.9826 H   0  0  0  0  0  0  0  0  0  0  0  0
   -2.0345    0.8591   -3.3615 H   0  0  0  0  0  0  0  0  0  0  0  0
   -0.7231   -0.6556  -14.4105 H   0  0  0  0  0  0  0  0  0  0  0  0
    2.9257    1.4667  -15.2758 H   0  0  0  0  0  0  0  0  0  0  0  0
   -0.7294   -1.5717  -16.7120 H   0  0  0  0  0  0  0  0  0  0  0  0
    2.9093    0.5543  -17.5756 H   0  0  0  0  0  0  0  0  0  0  0  0
    1.0871   -0.9718  -18.2942 H   0  0  0  0  0  0  0  0  0  0  0  0
  1 14  2  0  0  0  0
  2 18  1  0  0  0  0
  2 25  1  0  0  0  0
  3 18  2  0  0  0  0
  4 10  1  0  0  0  0
  4 12  1  0  0  0  0
  4 15  1  0  0  0  0
  5 14  1  0  0  0  0
  5 34  1  0  0  0  0
  6 15  1  0  0  0  0
  6 35  1  0  0  0  0
  6 36  1  0  0  0  0
  7 15  2  0  0  0  0
  7 37  1  0  0  0  0
  8  9  1  0  0  0  0
  8 10  1  0  0  0  0
  8 38  1  1  0  0  0
  8 13  1  0  0  0  0
  9 11  1  0  0  0  0
  9 39  1  0  0  0  0
  9 40  1  0  0  0  0
 10 41  1  0  0  0  0
 10 42  1  0  0  0  0
 11 12  1  0  0  0  0
 11 43  1  0  0  0  0
 11 44  1  0  0  0  0
 12 45  1  0  0  0  0
 12 46  1  0  0  0  0
 13 14  1  0  0  0  0
 13 47  1  0  0  0  0
 13 48  1  0  0  0  0
 16  5  1  0  0  0  0
 16 17  1  0  0  0  0
 16 18  1  0  0  0  0
 16 49  1  1  0  0  0
 17 19  1  0  0  0  0
 17 50  1  0  0  0  0
 17 51  1  0  0  0  0
 19 20  2  0  0  0  0
 19 21  1  0  0  0  0
 20 22  1  0  0  0  0
 20 52  1  0  0  0  0
 21 23  2  0  0  0  0
 21 53  1  0  0  0  0
 22 24  2  0  0  0  0
 22 54  1  0  0  0  0
 23 24  1  0  0  0  0
 23 55  1  0  0  0  0
 24 26  1  0  0  0  0
 25 56  1  0  0  0  0
 25 57  1  0  0  0  0
 25 58  1  0  0  0  0
 26 27  3  0  0  0  0
 27 28  1  0  0  0  0
 28 29  2  0  0  0  0
 28 30  1  0  0  0  0
 29 31  1  0  0  0  0
 29 59  1  0  0  0  0
 30 32  2  0  0  0  0
 30 60  1  0  0  0  0
 31 33  2  0  0  0  0
 31 61  1  0  0  0  0
 32 33  1  0  0  0  0
 32 62  1  0  0  0  0
 33 63  1  0  0  0  0
M  END
>  <DRUGBANK_ID>
DB03453

>  <SECONDARY_ACCESSION_NUMBERS>
EXPT01490

>  <COMMON_NAME>
Methyl (2S)-2-[[2-[(3R)-1-carbamimidoylpiperidin-3-yl]acetyl]amino]-3-[4-(2-phenylethynyl)phenyl]propanoate

>  <CAS_NUMBER>
193744-04-6

>  <SYNONYMS>
Methyl N-{[(3R)-1-carbamimidoyl-3-piperidinyl]acetyl}-4-(phenylethynyl)-L-phenylalaninate

$$$$
