
 OpenBabel10282417133D

 15 14  0  0  0  0  0  0  0  0999 V2000
    2.6033   -3.6753   -0.2205 C   0  0  0  0  0  0  0  0  0  0  0  0
    2.0899   -2.6787    0.7762 C   0  0  0  0  0  0  0  0  0  0  0  0
    0.2711   -0.9573    0.8875 C   0  0  0  0  0  0  0  0  0  0  0  0
    0.5949   -2.4252    0.6041 C   0  0  2  0  0  0  0  0  0  0  0  0
   -0.8531   -0.5306    0.2774 O   0  0  0  0  0  0  0  0  0  0  0  0
    2.0641   -4.8987   -0.0866 O   0  0  0  0  0  0  0  0  0  0  0  0
    0.8936   -0.2121    1.6293 O   0  0  0  0  0  0  0  0  0  0  0  0
    3.4655   -3.4608   -1.0588 O   0  0  0  0  0  0  0  0  0  0  0  0
   -0.1591   -3.2670    1.4775 O   0  0  0  0  0  0  0  0  0  0  0  0
    2.3393   -3.0327    1.7823 H   0  0  0  0  0  0  0  0  0  0  0  0
    2.6623   -1.7595    0.6015 H   0  0  0  0  0  0  0  0  0  0  0  0
    0.2844   -2.6423   -0.4250 H   0  0  0  0  0  0  0  0  0  0  0  0
   -0.9754    0.3949    0.5774 H   0  0  0  0  0  0  0  0  0  0  0  0
    2.4916   -5.4544   -0.7722 H   0  0  0  0  0  0  0  0  0  0  0  0
    0.1218   -3.0764    2.3902 H   0  0  0  0  0  0  0  0  0  0  0  0
  1  2  1  0  0  0  0
  2 10  1  0  0  0  0
  2 11  1  0  0  0  0
  4  9  1  0  0  0  0
  4 12  1  6  0  0  0
  4  3  1  0  0  0  0
  4  2  1  0  0  0  0
  5  3  1  0  0  0  0
  5 13  1  0  0  0  0
  6  1  1  0  0  0  0
  6 14  1  0  0  0  0
  7  3  2  0  0  0  0
  8  1  2  0  0  0  0
  9 15  1  0  0  0  0
M  END
>  <DRUGBANK_ID>
DB03499

>  <SECONDARY_ACCESSION_NUMBERS>
EXPT02188

>  <COMMON_NAME>
D-Malic acid

>  <CAS_NUMBER>
636-61-3

>  <UNII>
P750Y95K96

>  <SYNONYMS>
(+)-D-malic acid; (R)-2-hydroxybutanedioic acid; (R)-malic acid

$$$$
