14A
 OpenBabel10282417163D

 54 55  0  0  0  0  0  0  0  0999 V2000
   -0.0034    0.6349   -0.0064 N   0  0  0  0  0  0  0  0  0  0  0  0
   -0.3146    1.0651   -1.1632 C   0  0  0  0  0  0  0  0  0  0  0  0
    0.5419    1.2873   -2.1546 N   0  0  0  0  0  0  0  0  0  0  0  0
   -1.6320    0.9393   -1.1176 N   0  0  0  0  0  0  0  0  0  0  0  0
   -2.1350   -0.3737   -0.4649 O   0  0  0  0  0  0  0  0  0  0  0  0
   -1.3064   -0.9569    0.6603 C   0  0  0  0  0  0  0  0  0  0  0  0
    0.0266   -1.8410    0.1893 C   0  0  0  0  0  0  0  0  0  0  0  0
    1.2634   -1.2227   -0.7093 C   0  0  0  0  0  0  0  0  0  0  0  0
    2.2307    0.0456    0.0630 O   0  0  0  0  0  0  0  0  0  0  0  0
    1.8757    1.2670    1.1542 C   0  0  0  0  0  0  0  0  0  0  0  0
    0.9296    1.0427    2.1952 C   0  0  0  0  0  0  0  0  0  0  0  0
   -0.1342    2.0041    2.4781 C   0  0  0  0  0  0  0  0  0  0  0  0
   -0.1660    3.2833    1.9223 C   0  0  0  0  0  0  0  0  0  0  0  0
    0.8101    3.5902    0.9711 C   0  0  0  0  0  0  0  0  0  0  0  0
    1.7022    2.5429    0.5434 C   0  0  0  0  0  0  0  0  0  0  0  0
   -1.5695    1.5177    3.3497 Cl  0  0  0  0  0  0  0  0  0  0  0  0
    0.8712    5.0131    0.4783 C   0  0  0  0  0  0  0  0  0  0  0  0
    0.0772    5.7982    1.0069 O   0  0  0  0  0  0  0  0  0  0  0  0
    1.8614    5.4560   -0.4186 N   0  0  0  0  0  0  0  0  0  0  0  0
    2.7868    4.6554   -1.1928 C   0  0  0  0  0  0  0  0  0  0  0  0
    2.4575    4.6874   -2.6443 C   0  0  0  0  0  0  0  0  0  0  0  0
    3.4486    4.7931   -3.5337 C   0  0  0  0  0  0  0  0  0  0  0  0
    2.1137    6.8852   -0.5919 C   0  0  0  0  0  0  0  0  0  0  0  0
    2.1572    7.7471    0.6641 C   0  0  0  0  0  0  0  0  0  0  0  0
    2.0806    9.1725    0.1324 C   0  0  0  0  0  0  0  0  0  0  0  0
    1.5710    9.0758   -1.3094 C   0  0  0  0  0  0  0  0  0  0  0  0
    1.1652    7.6215   -1.5225 C   0  0  0  0  0  0  0  0  0  0  0  0
    0.8709    0.2423    0.1624 H   0  0  0  0  0  0  0  0  0  0  0  0
    0.3430    1.9926   -2.8459 H   0  0  0  0  0  0  0  0  0  0  0  0
    1.5496    1.2190   -1.9430 H   0  0  0  0  0  0  0  0  0  0  0  0
   -2.0497    1.1174   -2.0051 H   0  0  0  0  0  0  0  0  0  0  0  0
   -1.0942   -0.1751    1.3903 H   0  0  0  0  0  0  0  0  0  0  0  0
   -1.9287   -1.5474    1.3582 H   0  0  0  0  0  0  0  0  0  0  0  0
    0.5304   -2.2127    1.0852 H   0  0  0  0  0  0  0  0  0  0  0  0
   -0.4187   -2.6943   -0.3487 H   0  0  0  0  0  0  0  0  0  0  0  0
    2.0003   -1.9303   -1.1351 H   0  0  0  0  0  0  0  0  0  0  0  0
    0.8263   -0.8726   -1.6767 H   0  0  0  0  0  0  0  0  0  0  0  0
    0.7498    0.0265    2.5146 H   0  0  0  0  0  0  0  0  0  0  0  0
   -0.9585    3.9908    2.2005 H   0  0  0  0  0  0  0  0  0  0  0  0
    1.8291    2.4992   -0.5210 H   0  0  0  0  0  0  0  0  0  0  0  0
    3.8055    4.9410   -0.9217 H   0  0  0  0  0  0  0  0  0  0  0  0
    2.8434    3.6204   -0.9975 H   0  0  0  0  0  0  0  0  0  0  0  0
    1.4250    4.5502   -2.9617 H   0  0  0  0  0  0  0  0  0  0  0  0
    3.2671    4.7809   -4.5991 H   0  0  0  0  0  0  0  0  0  0  0  0
    4.4739    4.8692   -3.1799 H   0  0  0  0  0  0  0  0  0  0  0  0
    3.1203    6.9666   -1.0318 H   0  0  0  0  0  0  0  0  0  0  0  0
    1.3045    7.6008    1.3268 H   0  0  0  0  0  0  0  0  0  0  0  0
    3.0562    7.5541    1.2580 H   0  0  0  0  0  0  0  0  0  0  0  0
    1.4010    9.7668    0.7508 H   0  0  0  0  0  0  0  0  0  0  0  0
    3.0665    9.6471    0.1666 H   0  0  0  0  0  0  0  0  0  0  0  0
    0.7390    9.7576   -1.5030 H   0  0  0  0  0  0  0  0  0  0  0  0
    2.3840    9.3426   -1.9966 H   0  0  0  0  0  0  0  0  0  0  0  0
    1.2855    7.3232   -2.5700 H   0  0  0  0  0  0  0  0  0  0  0  0
    0.1199    7.4554   -1.2455 H   0  0  0  0  0  0  0  0  0  0  0  0
  1  2  2  0  0  0  0
  1 28  1  0  0  0  0
  2  3  1  0  0  0  0
  2  4  1  0  0  0  0
  3 29  1  0  0  0  0
  3 30  1  0  0  0  0
  4  5  1  0  0  0  0
  4 31  1  0  0  0  0
  5  6  1  0  0  0  0
  6  7  1  0  0  0  0
  6 32  1  0  0  0  0
  6 33  1  0  0  0  0
  7  8  1  0  0  0  0
  7 34  1  0  0  0  0
  7 35  1  0  0  0  0
  8  9  1  0  0  0  0
  8 36  1  0  0  0  0
  8 37  1  0  0  0  0
  9 10  1  0  0  0  0
 10 11  2  0  0  0  0
 10 15  1  0  0  0  0
 11 12  1  0  0  0  0
 11 38  1  0  0  0  0
 12 13  2  0  0  0  0
 12 16  1  0  0  0  0
 13 14  1  0  0  0  0
 13 39  1  0  0  0  0
 14 15  2  0  0  0  0
 14 17  1  0  0  0  0
 15 40  1  0  0  0  0
 17 18  2  0  0  0  0
 17 19  1  0  0  0  0
 19 20  1  0  0  0  0
 19 23  1  0  0  0  0
 20 21  1  0  0  0  0
 20 41  1  0  0  0  0
 20 42  1  0  0  0  0
 21 22  2  0  0  0  0
 21 43  1  0  0  0  0
 22 44  1  0  0  0  0
 22 45  1  0  0  0  0
 23 24  1  0  0  0  0
 23 27  1  0  0  0  0
 23 46  1  0  0  0  0
 24 25  1  0  0  0  0
 24 47  1  0  0  0  0
 24 48  1  0  0  0  0
 25 26  1  0  0  0  0
 25 49  1  0  0  0  0
 25 50  1  0  0  0  0
 26 27  1  0  0  0  0
 26 51  1  0  0  0  0
 26 52  1  0  0  0  0
 27 53  1  0  0  0  0
 27 54  1  0  0  0  0
M  END
>  <DRUGBANK_ID>
DB06859

>  <COMMON_NAME>
N-ALLYL-5-AMIDINOAMINOOXY-PROPYLOXY-3-CHLORO-N-CYCLOPENTYLBENZAMIDE

$$$$
