645
 OpenBabel10282417103D

 48 49  0  0  0  0  0  0  0  0999 V2000
    1.0768   -0.0099   -0.0017 O   0  0  0  0  0  0  0  0  0  0  0  0
    5.4385    1.7770    4.3957 O   0  0  0  0  0  0  0  0  0  0  0  0
    5.1319    0.9395   -1.2335 N   0  0  0  0  0  0  0  0  0  0  0  0
    6.3526    0.1680   -1.0695 C   0  0  0  0  0  0  0  0  0  0  0  0
    5.3258    2.3747   -1.4983 C   0  0  0  0  0  0  0  0  0  0  0  0
    7.2593    0.7525    0.0195 C   0  0  0  0  0  0  0  0  0  0  0  0
    6.1937    3.0690   -0.4286 C   0  0  0  0  0  0  0  0  0  0  0  0
    7.4592    2.2691   -0.1265 C   0  0  0  0  0  0  0  0  0  0  0  0
    4.0250    0.3029   -1.9467 C   0  0  0  0  0  0  0  0  0  0  0  0
    3.1562   -0.6393   -1.0926 C   0  0  0  0  0  0  0  0  0  0  0  0
    2.3262    0.0350    0.0004 C   0  0  0  0  0  0  0  0  0  0  0  0
    3.0227    0.5462    1.2022 C   0  0  0  0  0  0  0  0  0  0  0  0
    2.7976    0.0212    2.4298 C   0  0  0  0  0  0  0  0  0  0  0  0
    4.0459    1.4621    1.1473 C   0  0  0  0  0  0  0  0  0  0  0  0
    3.5269    2.4167    5.9648 C   0  0  0  0  0  0  0  0  0  0  0  0
    4.7650    1.1938    3.3731 C   0  0  0  0  0  0  0  0  0  0  0  0
    3.7728    0.2420    3.4216 C   0  0  0  0  0  0  0  0  0  0  0  0
    4.9926    1.7026    2.1529 C   0  0  0  0  0  0  0  0  0  0  0  0
    4.8796    1.7034    5.7123 C   0  0  0  0  0  0  0  0  0  0  0  0
    2.3042    1.8279    5.2599 C   0  0  0  0  0  0  0  0  0  0  0  0
    2.0332    0.3650    5.6702 C   0  0  0  0  0  0  0  0  0  0  0  0
    6.8991    0.1461   -2.0149 H   0  0  0  0  0  0  0  0  0  0  0  0
    6.1259   -0.8699   -0.7902 H   0  0  0  0  0  0  0  0  0  0  0  0
    4.3480    2.8838   -1.4862 H   0  0  0  0  0  0  0  0  0  0  0  0
    5.7506    2.5379   -2.4847 H   0  0  0  0  0  0  0  0  0  0  0  0
    8.2388    0.2607   -0.0180 H   0  0  0  0  0  0  0  0  0  0  0  0
    6.8748    0.4821    1.0100 H   0  0  0  0  0  0  0  0  0  0  0  0
    5.6314    3.2832    0.4807 H   0  0  0  0  0  0  0  0  0  0  0  0
    6.4287    4.0947   -0.7234 H   0  0  0  0  0  0  0  0  0  0  0  0
    7.9582    2.6628    0.7683 H   0  0  0  0  0  0  0  0  0  0  0  0
    8.1294    2.4368   -0.9715 H   0  0  0  0  0  0  0  0  0  0  0  0
    4.4130   -0.2442   -2.8132 H   0  0  0  0  0  0  0  0  0  0  0  0
    3.3436    1.0679   -2.3360 H   0  0  0  0  0  0  0  0  0  0  0  0
    3.7347   -1.4576   -0.6445 H   0  0  0  0  0  0  0  0  0  0  0  0
    2.4411   -1.1343   -1.7700 H   0  0  0  0  0  0  0  0  0  0  0  0
    1.8684   -0.5010    2.6268 H   0  0  0  0  0  0  0  0  0  0  0  0
    4.0321    2.0751    0.2815 H   0  0  0  0  0  0  0  0  0  0  0  0
    3.3132    2.3861    7.0389 H   0  0  0  0  0  0  0  0  0  0  0  0
    3.6164    3.4733    5.6808 H   0  0  0  0  0  0  0  0  0  0  0  0
    3.7162   -0.3102    4.3206 H   0  0  0  0  0  0  0  0  0  0  0  0
    5.8993    2.2827    2.0390 H   0  0  0  0  0  0  0  0  0  0  0  0
    4.8739    0.6611    6.0338 H   0  0  0  0  0  0  0  0  0  0  0  0
    5.6127    2.2018    6.3611 H   0  0  0  0  0  0  0  0  0  0  0  0
    1.3938    2.3991    5.4562 H   0  0  0  0  0  0  0  0  0  0  0  0
    2.4368    2.0096    4.1873 H   0  0  0  0  0  0  0  0  0  0  0  0
    1.5335    0.2999    6.6298 H   0  0  0  0  0  0  0  0  0  0  0  0
    1.4318   -0.1471    4.9087 H   0  0  0  0  0  0  0  0  0  0  0  0
    2.9222   -0.2497    5.8554 H   0  0  0  0  0  0  0  0  0  0  0  0
  1 11  2  0  0  0  0
  2 16  1  0  0  0  0
  2 19  1  0  0  0  0
  3  4  1  0  0  0  0
  3  5  1  0  0  0  0
  3  9  1  0  0  0  0
  4  6  1  0  0  0  0
  4 22  1  0  0  0  0
  4 23  1  0  0  0  0
  5  7  1  0  0  0  0
  5 24  1  0  0  0  0
  5 25  1  0  0  0  0
  6  8  1  0  0  0  0
  6 26  1  0  0  0  0
  6 27  1  0  0  0  0
  7  8  1  0  0  0  0
  7 28  1  0  0  0  0
  7 29  1  0  0  0  0
  8 30  1  0  0  0  0
  8 31  1  0  0  0  0
  9 10  1  0  0  0  0
  9 32  1  0  0  0  0
  9 33  1  0  0  0  0
 10 11  1  0  0  0  0
 10 34  1  0  0  0  0
 10 35  1  0  0  0  0
 11 12  1  0  0  0  0
 12 13  2  0  0  0  0
 12 14  1  0  0  0  0
 13 17  1  0  0  0  0
 13 36  1  0  0  0  0
 14 18  2  0  0  0  0
 14 37  1  0  0  0  0
 15 19  1  0  0  0  0
 15 20  1  0  0  0  0
 15 38  1  0  0  0  0
 15 39  1  0  0  0  0
 16 17  2  0  0  0  0
 16 18  1  0  0  0  0
 17 40  1  0  0  0  0
 18 41  1  0  0  0  0
 19 42  1  0  0  0  0
 19 43  1  0  0  0  0
 20 21  1  0  0  0  0
 20 44  1  0  0  0  0
 20 45  1  0  0  0  0
 21 46  1  0  0  0  0
 21 47  1  0  0  0  0
 21 48  1  0  0  0  0
M  END
>  <DRUGBANK_ID>
DB00645

>  <SECONDARY_ACCESSION_NUMBERS>
APRD00940

>  <COMMON_NAME>
Dyclonine

>  <CAS_NUMBER>
586-60-7

>  <UNII>
078A24Q30O

>  <SYNONYMS>
1-(4-Butoxyphenyl)-3-(1-piperidinyl)-1-propanone; 2-(1-piperidyl)ethyl p-butoxyphenyl ketone; 3-piperidino-4'-butoxypropiophenone; 4-butoxy-β-piperidinopropiophenone; 4-n-butoxy-β-(1-piperidyl)propiophenone; 4'-butoxy-3-piperidinopropiophenone; Diclonina; Dyclocaine; Dyclonin; Dyclonine; Dycloninum

$$$$
