1075
 OpenBabel10282417113D

 40 41  0  0  0  0  0  0  0  0999 V2000
    0.9552    0.1153   -0.0753 O   0  0  0  0  0  0  0  0  0  0  0  0
    2.3374    0.2661    2.6003 N   0  0  0  0  0  0  0  0  0  0  0  0
    0.5550   -0.7707   -1.1494 C   0  0  0  0  0  0  0  0  0  0  0  0
    0.9080   -0.0778   -2.4461 C   0  0  0  0  0  0  0  0  0  0  0  0
    0.9964   -2.2377   -1.0189 C   0  0  0  0  0  0  0  0  0  0  0  0
    2.3580    0.2323    0.1396 C   0  0  0  0  0  0  0  0  0  0  0  0
    2.7613    0.9988    1.3846 C   0  0  0  0  0  0  0  0  0  0  0  0
    0.5929    1.2867   -2.5918 C   0  0  0  0  0  0  0  0  0  0  0  0
    2.3050   -2.6261   -0.6953 C   0  0  0  0  0  0  0  0  0  0  0  0
    1.6424   -0.7213   -3.4454 C   0  0  0  0  0  0  0  0  0  0  0  0
    0.1175   -3.2854   -1.3384 C   0  0  0  0  0  0  0  0  0  0  0  0
    2.8723    0.9306    3.7754 C   0  0  0  0  0  0  0  0  0  0  0  0
    0.8797    0.1517    2.6894 C   0  0  0  0  0  0  0  0  0  0  0  0
    1.0465    1.9970   -3.6959 C   0  0  0  0  0  0  0  0  0  0  0  0
    2.6675   -3.9174   -0.3739 C   0  0  0  0  0  0  0  0  0  0  0  0
    2.1237   -0.0020   -4.5293 C   0  0  0  0  0  0  0  0  0  0  0  0
    0.5134   -4.6155   -1.1572 C   0  0  0  0  0  0  0  0  0  0  0  0
    1.8139    1.3497   -4.6610 C   0  0  0  0  0  0  0  0  0  0  0  0
    1.7626   -4.9355   -0.6287 C   0  0  0  0  0  0  0  0  0  0  0  0
   -0.5448   -0.7701   -1.0844 H   0  0  0  0  0  0  0  0  0  0  0  0
    2.7448   -0.7270    0.4247 H   0  0  0  0  0  0  0  0  0  0  0  0
    2.8719    0.6068   -0.7514 H   0  0  0  0  0  0  0  0  0  0  0  0
    3.8626    1.0126    1.3722 H   0  0  0  0  0  0  0  0  0  0  0  0
    2.4042    2.0306    1.3604 H   0  0  0  0  0  0  0  0  0  0  0  0
    0.0443    1.8070   -1.8060 H   0  0  0  0  0  0  0  0  0  0  0  0
    3.1373   -1.9294   -0.7355 H   0  0  0  0  0  0  0  0  0  0  0  0
    1.8882   -1.7774   -3.3697 H   0  0  0  0  0  0  0  0  0  0  0  0
   -0.8538   -3.0715   -1.7771 H   0  0  0  0  0  0  0  0  0  0  0  0
    2.5461    1.9734    3.8199 H   0  0  0  0  0  0  0  0  0  0  0  0
    2.5517    0.4148    4.6852 H   0  0  0  0  0  0  0  0  0  0  0  0
    3.9669    0.8988    3.7595 H   0  0  0  0  0  0  0  0  0  0  0  0
    0.3942    1.1237    2.5540 H   0  0  0  0  0  0  0  0  0  0  0  0
    0.4767   -0.5565    1.9594 H   0  0  0  0  0  0  0  0  0  0  0  0
    0.5730   -0.2709    3.6498 H   0  0  0  0  0  0  0  0  0  0  0  0
    0.8282    3.0572   -3.7824 H   0  0  0  0  0  0  0  0  0  0  0  0
    3.6579   -4.1122    0.0213 H   0  0  0  0  0  0  0  0  0  0  0  0
    2.7592   -0.5007   -5.2536 H   0  0  0  0  0  0  0  0  0  0  0  0
   -0.1645   -5.4237   -1.4294 H   0  0  0  0  0  0  0  0  0  0  0  0
    2.1801    1.9009   -5.5203 H   0  0  0  0  0  0  0  0  0  0  0  0
    2.0696   -5.9591   -0.4696 H   0  0  0  0  0  0  0  0  0  0  0  0
  1  3  1  0  0  0  0
  1  6  1  0  0  0  0
  2  7  1  0  0  0  0
  2 12  1  0  0  0  0
  2 13  1  0  0  0  0
  3  4  1  0  0  0  0
  3  5  1  0  0  0  0
  3 20  1  0  0  0  0
  4  8  2  0  0  0  0
  4 10  1  0  0  0  0
  5  9  2  0  0  0  0
  5 11  1  0  0  0  0
  6  7  1  0  0  0  0
  6 21  1  0  0  0  0
  6 22  1  0  0  0  0
  7 23  1  0  0  0  0
  7 24  1  0  0  0  0
  8 14  1  0  0  0  0
  8 25  1  0  0  0  0
  9 15  1  0  0  0  0
  9 26  1  0  0  0  0
 10 16  2  0  0  0  0
 10 27  1  0  0  0  0
 11 17  2  0  0  0  0
 11 28  1  0  0  0  0
 12 29  1  0  0  0  0
 12 30  1  0  0  0  0
 12 31  1  0  0  0  0
 13 32  1  0  0  0  0
 13 33  1  0  0  0  0
 13 34  1  0  0  0  0
 14 18  2  0  0  0  0
 14 35  1  0  0  0  0
 15 19  2  0  0  0  0
 15 36  1  0  0  0  0
 16 18  1  0  0  0  0
 16 37  1  0  0  0  0
 17 19  1  0  0  0  0
 17 38  1  0  0  0  0
 18 39  1  0  0  0  0
 19 40  1  0  0  0  0
M  END
>  <DRUGBANK_ID>
DB01075

>  <SECONDARY_ACCESSION_NUMBERS>
APRD00587; DB06975

>  <COMMON_NAME>
Diphenhydramine

>  <CAS_NUMBER>
58-73-1

>  <UNII>
8GTS82S83M

>  <SYNONYMS>
2-(benzhydryloxy)-N,N-dimethylethylamine; 2-diphenylmethoxy-N,N-demthylethanamine; Difenhidramina; Diphenhydramine; Diphenhydraminum; N-(2-(diphenylmethoxy)ethyl)-N,N-dimethylamine; O-benzhydryldimethylaminoethanol; α-(2-dimethylaminoethoxy)diphenylmethane; β-dimethylaminoethanol diphenylmethyl ether; β-dimethylaminoethyl benzhydryl ether

$$$$
