
 OpenBabel10282417113D

  3  2  0  0  0  0  0  0  0  0999 V2000
    0.9594   -0.0809    0.0425 S   0  0  0  0  0  0  0  0  0  0  0  0
    2.9732   -0.0809    0.0425 Se  0  0  0  0  0  0  0  0  0  0  0  0
    3.6444   -1.4027   -1.3204 S   0  0  0  0  0  0  0  0  0  0  0  0
  1  2  2  0  0  0  0
  2  3  2  0  0  0  0
M  END
>  <DRUGBANK_ID>
DB00971

>  <SECONDARY_ACCESSION_NUMBERS>
APRD01323

>  <COMMON_NAME>
Selenium Sulfide

>  <CAS_NUMBER>
7488-56-4

>  <UNII>
Z69D9E381Q

>  <SYNONYMS>
Selenii disulfidum; Selenium disulfide; Selenium disulphide; Selenium Sulfide; Selenium sulfide, micronized; Selenium sulphide; Selenium sulphide, micronized; Selenium(IV) disulfide; Selenium(IV) disulphide; Selenium(IV) sulfide; Selenium(IV) sulphide

$$$$
