
 OpenBabel10282417193D

 56 59  0  0  1  0  0  0  0  0999 V2000
   -4.0027   -1.1355    0.5115 C   0  0  0  0  0  0  0  0  0  0  0  0
   -4.5598    0.0202   -0.0038 C   0  0  0  0  0  0  0  0  0  0  0  0
   -3.7209    1.1022   -0.2677 C   0  0  0  0  0  0  0  0  0  0  0  0
   -2.6401   -1.3566    0.4692 C   0  0  0  0  0  0  0  0  0  0  0  0
   -1.7794   -0.2913    0.2280 C   0  0  0  0  0  0  0  0  0  0  0  0
   -2.3376    0.9718   -0.0654 C   0  0  0  0  0  0  0  0  0  0  0  0
   -1.4820    2.2108   -0.1664 C   0  0  0  0  0  0  0  0  0  0  0  0
   -0.1235    2.0129    0.4926 C   0  0  0  0  0  0  0  0  0  0  0  0
   -0.3074   -0.4799    0.5194 C   0  0  2  0  0  0  0  0  0  0  0  0
    0.4934    0.7143   -0.0349 C   0  0  2  0  0  0  0  0  0  0  0  0
    1.8176   -1.9360    0.4521 C   0  0  0  0  0  0  0  0  0  0  0  0
    0.3090   -1.8535    0.1364 C   0  0  0  0  0  0  0  0  0  0  0  0
    2.5685   -0.7440   -0.1608 C   0  0  1  0  0  0  0  0  0  0  0  0
    1.9328    0.5502    0.3957 C   0  0  1  0  0  0  0  0  0  0  0  0
    2.8797    1.6584   -0.0149 C   0  0  0  0  0  0  0  0  0  0  0  0
    4.2404    0.9915    0.0259 C   0  0  0  0  0  0  0  0  0  0  0  0
    4.0150   -0.5125    0.3203 C   0  0  2  0  0  0  0  0  0  0  0  0
    2.5400   -0.8850   -1.7030 C   0  0  0  0  0  0  0  0  0  0  0  0
    0.4364    0.7348   -1.1311 H   0  0  0  0  0  0  0  0  0  0  0  0
    1.9530    0.5100    1.4983 H   0  0  0  0  0  0  0  0  0  0  0  0
    4.9696   -1.3390   -0.3368 O   0  0  0  0  0  0  0  0  0  0  0  0
   -5.8763    0.1555   -0.3420 O   0  0  0  0  0  0  0  0  0  0  0  0
   -0.2476   -0.4344    1.6180 H   0  0  0  0  0  0  0  0  0  0  0  0
   -6.6951   -1.0226   -0.2832 C   0  0  0  0  0  0  0  0  0  0  0  0
   -6.5079   -2.0294   -1.4417 C   0  0  0  0  0  0  0  0  0  0  0  0
   -5.1615   -2.7359   -1.5597 C   0  0  0  0  0  0  0  0  0  0  0  0
    6.2962   -0.8394   -0.1861 C   0  0  0  0  0  0  0  0  0  0  0  0
   -4.6140   -1.9639    0.8506 H   0  0  0  0  0  0  0  0  0  0  0  0
   -4.1441    2.0464   -0.5947 H   0  0  0  0  0  0  0  0  0  0  0  0
   -2.2740   -2.3571    0.6580 H   0  0  0  0  0  0  0  0  0  0  0  0
   -1.3469    2.4715   -1.2228 H   0  0  0  0  0  0  0  0  0  0  0  0
   -1.9872    3.0485    0.3278 H   0  0  0  0  0  0  0  0  0  0  0  0
   -0.2373    1.9561    1.5844 H   0  0  0  0  0  0  0  0  0  0  0  0
    0.5072    2.8819    0.2834 H   0  0  0  0  0  0  0  0  0  0  0  0
    2.2187   -2.8897    0.0884 H   0  0  0  0  0  0  0  0  0  0  0  0
    1.9414   -1.9463    1.5434 H   0  0  0  0  0  0  0  0  0  0  0  0
   -0.1795   -2.6623    0.6930 H   0  0  0  0  0  0  0  0  0  0  0  0
    0.1259   -2.0701   -0.9229 H   0  0  0  0  0  0  0  0  0  0  0  0
    2.8396    2.5216    0.6553 H   0  0  0  0  0  0  0  0  0  0  0  0
    2.6666    2.0117   -1.0304 H   0  0  0  0  0  0  0  0  0  0  0  0
    4.8900    1.4337    0.7875 H   0  0  0  0  0  0  0  0  0  0  0  0
    4.7129    1.1492   -0.9484 H   0  0  0  0  0  0  0  0  0  0  0  0
    4.0789   -0.7032    1.4014 H   0  0  0  0  0  0  0  0  0  0  0  0
    3.0028   -1.8311   -2.0081 H   0  0  0  0  0  0  0  0  0  0  0  0
    1.5270   -0.8842   -2.1136 H   0  0  0  0  0  0  0  0  0  0  0  0
    3.0835   -0.0798   -2.2040 H   0  0  0  0  0  0  0  0  0  0  0  0
   -6.6419   -1.4937    0.7056 H   0  0  0  0  0  0  0  0  0  0  0  0
   -7.7264   -0.6533   -0.3540 H   0  0  0  0  0  0  0  0  0  0  0  0
   -7.2732   -2.8071   -1.3371 H   0  0  0  0  0  0  0  0  0  0  0  0
   -6.6854   -1.5105   -2.3885 H   0  0  0  0  0  0  0  0  0  0  0  0
   -4.9412   -3.3183   -0.6582 H   0  0  0  0  0  0  0  0  0  0  0  0
   -5.1313   -3.4418   -2.3914 H   0  0  0  0  0  0  0  0  0  0  0  0
   -4.3622   -2.0185   -1.7620 H   0  0  0  0  0  0  0  0  0  0  0  0
    6.4307    0.0666   -0.7854 H   0  0  0  0  0  0  0  0  0  0  0  0
    6.5069   -0.6199    0.8650 H   0  0  0  0  0  0  0  0  0  0  0  0
    7.0069   -1.5729   -0.5652 H   0  0  0  0  0  0  0  0  0  0  0  0
  1  2  1  0  0  0  0
  1  4  2  0  0  0  0
  1 28  1  0  0  0  0
  2  3  2  0  0  0  0
  2 22  1  0  0  0  0
  3  6  1  0  0  0  0
  3 29  1  0  0  0  0
  4 30  1  0  0  0  0
  5  9  1  0  0  0  0
  5  4  1  0  0  0  0
  5  6  2  0  0  0  0
  6  7  1  0  0  0  0
  7  8  1  0  0  0  0
  7 31  1  0  0  0  0
  7 32  1  0  0  0  0
  8 10  1  0  0  0  0
  8 33  1  0  0  0  0
  8 34  1  0  0  0  0
  9 10  1  0  0  0  0
  9 23  1  1  0  0  0
  9 12  1  0  0  0  0
 10 19  1  6  0  0  0
 10 14  1  0  0  0  0
 11 12  1  0  0  0  0
 11 35  1  0  0  0  0
 11 36  1  0  0  0  0
 12 37  1  0  0  0  0
 12 38  1  0  0  0  0
 13 14  1  0  0  0  0
 13 18  1  6  0  0  0
 13 11  1  0  0  0  0
 14 15  1  0  0  0  0
 14 20  1  1  0  0  0
 15 16  1  0  0  0  0
 15 39  1  0  0  0  0
 15 40  1  0  0  0  0
 16 17  1  0  0  0  0
 16 41  1  0  0  0  0
 16 42  1  0  0  0  0
 17 13  1  0  0  0  0
 17 43  1  1  0  0  0
 17 21  1  0  0  0  0
 18 44  1  0  0  0  0
 18 45  1  0  0  0  0
 18 46  1  0  0  0  0
 21 27  1  0  0  0  0
 22 24  1  0  0  0  0
 24 25  1  0  0  0  0
 24 47  1  0  0  0  0
 24 48  1  0  0  0  0
 25 26  1  0  0  0  0
 25 49  1  0  0  0  0
 25 50  1  0  0  0  0
 26 51  1  0  0  0  0
 26 52  1  0  0  0  0
 26 53  1  0  0  0  0
 27 54  1  0  0  0  0
 27 55  1  0  0  0  0
 27 56  1  0  0  0  0
M  END
>  <DRUGBANK_ID>
DB12487

>  <COMMON_NAME>
Promestriene

>  <CAS_NUMBER>
39219-28-8

>  <UNII>
GXM4PER6WZ

>  <SYNONYMS>
Promestriano; Promestriene; Promestrieno; Promestrienum

$$$$
