IOA
 OpenBabel10282417133D

 34 35  0  0  0  0  0  0  0  0999 V2000
    1.2128   -0.3120    0.2113 C   0  0  0  0  0  0  0  0  0  0  0  0
    0.3455   -1.3744    0.0633 C   0  0  0  0  0  0  0  0  0  0  0  0
   -1.0016   -1.1190   -0.0214 C   0  0  0  0  0  0  0  0  0  0  0  0
   -1.4603    0.2023   -0.0173 C   0  0  0  0  0  0  0  0  0  0  0  0
   -0.5333    1.2693   -0.0024 C   0  0  0  0  0  0  0  0  0  0  0  0
    0.8462    1.0197    0.0154 C   0  0  0  0  0  0  0  0  0  0  0  0
    1.8103    2.1631   -0.2114 C   0  0  0  0  0  0  0  0  0  0  0  0
    1.3737    3.3118   -0.3084 O   0  0  0  0  0  0  0  0  0  0  0  0
    3.1690    1.9934   -0.3863 N   0  0  0  0  0  0  0  0  0  0  0  0
    3.9784    0.7991   -0.4057 C   0  0  0  0  0  0  0  0  0  0  0  0
   -2.0685   -2.5207   -0.0071 S   0  0  0  0  0  0  0  0  0  0  0  0
   -2.9190   -2.3261    1.4323 N   0  0  0  0  0  0  0  0  0  0  0  0
   -2.9885   -2.4145   -1.1020 O   0  0  0  0  0  0  0  0  0  0  0  0
   -1.2600   -3.7080    0.2147 O   0  0  0  0  0  0  0  0  0  0  0  0
    4.6022    0.4343   -1.7025 C   0  0  0  0  0  0  0  0  0  0  0  0
    5.2608    1.3923   -2.4547 C   0  0  0  0  0  0  0  0  0  0  0  0
    5.9320    0.9986   -3.5966 C   0  0  0  0  0  0  0  0  0  0  0  0
    5.9760   -0.3381   -3.9923 C   0  0  0  0  0  0  0  0  0  0  0  0
    5.3249   -1.3106   -3.2395 C   0  0  0  0  0  0  0  0  0  0  0  0
    4.6043   -0.9122   -2.1261 C   0  0  0  0  0  0  0  0  0  0  0  0
    3.8935   -1.8392   -1.4609 F   0  0  0  0  0  0  0  0  0  0  0  0
    6.5803    1.9268   -4.3065 F   0  0  0  0  0  0  0  0  0  0  0  0
    2.1590   -0.6512    0.5835 H   0  0  0  0  0  0  0  0  0  0  0  0
    0.7577   -2.3814    0.0784 H   0  0  0  0  0  0  0  0  0  0  0  0
   -2.5255    0.4124   -0.0445 H   0  0  0  0  0  0  0  0  0  0  0  0
   -0.8976    2.2969    0.0242 H   0  0  0  0  0  0  0  0  0  0  0  0
    3.6500    2.8725   -0.5438 H   0  0  0  0  0  0  0  0  0  0  0  0
    4.6812    0.8129    0.4313 H   0  0  0  0  0  0  0  0  0  0  0  0
    3.3679   -0.0423   -0.2678 H   0  0  0  0  0  0  0  0  0  0  0  0
   -3.6217   -3.0676    1.4787 H   0  0  0  0  0  0  0  0  0  0  0  0
   -2.2994   -2.3766    2.2423 H   0  0  0  0  0  0  0  0  0  0  0  0
    5.2527    2.4333   -2.1548 H   0  0  0  0  0  0  0  0  0  0  0  0
    6.5174   -0.6093   -4.8902 H   0  0  0  0  0  0  0  0  0  0  0  0
    5.3800   -2.3627   -3.5023 H   0  0  0  0  0  0  0  0  0  0  0  0
  1  2  2  0  0  0  0
  1  6  1  0  0  0  0
  1 23  1  0  0  0  0
  2  3  1  0  0  0  0
  2 24  1  0  0  0  0
  3  4  2  0  0  0  0
  3 11  1  0  0  0  0
  4  5  1  0  0  0  0
  4 25  1  0  0  0  0
  5  6  2  0  0  0  0
  5 26  1  0  0  0  0
  6  7  1  0  0  0  0
  7  8  2  0  0  0  0
  7  9  1  0  0  0  0
  9 10  1  0  0  0  0
  9 27  1  0  0  0  0
 10 15  1  0  0  0  0
 10 28  1  0  0  0  0
 10 29  1  0  0  0  0
 11 12  1  0  0  0  0
 11 13  2  0  0  0  0
 11 14  2  0  0  0  0
 12 30  1  0  0  0  0
 12 31  1  0  0  0  0
 15 16  2  0  0  0  0
 15 20  1  0  0  0  0
 16 17  1  0  0  0  0
 16 32  1  0  0  0  0
 17 18  2  0  0  0  0
 17 22  1  0  0  0  0
 18 19  1  0  0  0  0
 18 33  1  0  0  0  0
 19 20  2  0  0  0  0
 19 34  1  0  0  0  0
 20 21  1  0  0  0  0
M  END
>  <DRUGBANK_ID>
DB03039

>  <SECONDARY_ACCESSION_NUMBERS>
EXPT01900

>  <COMMON_NAME>
4-(Aminosulfonyl)-N-[(2,5-Difluorophenyl)Methyl]-Benzamide

$$$$
