
 OpenBabel10282417133D

 42 41  0  0  0  0  0  0  0  0999 V2000
   -4.5310    0.2678   -2.5974 O   0  0  0  0  0  0  0  0  0  0  0  0
    0.8388    4.2317    1.3814 O   0  0  0  0  0  0  0  0  0  0  0  0
   -2.5442   -0.0618   -3.5822 O   0  0  0  0  0  0  0  0  0  0  0  0
   -5.9658    4.5337   -3.1833 O   0  0  0  0  0  0  0  0  0  0  0  0
   -3.6215    0.9399    1.8845 O   0  0  0  0  0  0  0  0  0  0  0  0
   -3.8990    2.4817    3.4862 O   0  0  0  0  0  0  0  0  0  0  0  0
   -4.2409    3.0953   -3.1956 N   0  0  0  0  0  0  0  0  0  0  0  0
   -1.1687    3.3733    1.7726 N   0  0  0  0  0  0  0  0  0  0  0  0
   -5.4420    2.6188   -0.3731 N   0  0  0  0  0  0  0  0  0  0  0  0
   -1.5841    1.3477   -0.8098 C   0  0  0  0  0  0  0  0  0  0  0  0
   -2.7604    2.1623   -1.3642 C   0  0  0  0  0  0  0  0  0  0  0  0
   -0.2910    2.0349   -1.1340 C   0  0  0  0  0  0  0  0  0  0  0  0
   -3.1171    2.1792   -2.8232 C   0  0  1  0  0  0  0  0  0  0  0  0
   -0.2207    3.4901   -0.6306 C   0  0  0  0  0  0  0  0  0  0  0  0
   -0.1675    3.7071    0.8943 C   0  0  0  0  0  0  0  0  0  0  0  0
   -3.3850    0.7263   -3.1318 C   0  0  0  0  0  0  0  0  0  0  0  0
   -2.5901    3.1755    1.5485 C   0  0  2  0  0  0  0  0  0  0  0  0
   -5.1964    3.8229   -2.5314 C   0  0  0  0  0  0  0  0  0  0  0  0
   -3.2678    4.4977    1.2539 C   0  0  0  0  0  0  0  0  0  0  0  0
   -5.2086    3.9076   -1.0262 C   0  0  0  0  0  0  0  0  0  0  0  0
   -3.4086    2.1815    2.3997 C   0  0  0  0  0  0  0  0  0  0  0  0
   -4.3699    3.2039   -4.1921 H   0  0  0  0  0  0  0  0  0  0  0  0
   -0.9493    3.6675    2.7169 H   0  0  0  0  0  0  0  0  0  0  0  0
   -5.2948    2.6369    0.6329 H   0  0  0  0  0  0  0  0  0  0  0  0
   -6.3835    2.2738   -0.5313 H   0  0  0  0  0  0  0  0  0  0  0  0
   -4.4993   -0.7062   -2.6783 H   0  0  0  0  0  0  0  0  0  0  0  0
   -3.2900    0.6650    1.0059 H   0  0  0  0  0  0  0  0  0  0  0  0
   -1.5708    1.2576    0.2832 H   0  0  0  0  0  0  0  0  0  0  0  0
   -1.6757    0.2977   -1.0918 H   0  0  0  0  0  0  0  0  0  0  0  0
   -2.6430    3.2143   -1.1267 H   0  0  0  0  0  0  0  0  0  0  0  0
   -3.5935    1.7342   -0.8279 H   0  0  0  0  0  0  0  0  0  0  0  0
    0.5224    1.4557   -0.6898 H   0  0  0  0  0  0  0  0  0  0  0  0
   -0.1822    2.0009   -2.2221 H   0  0  0  0  0  0  0  0  0  0  0  0
   -2.2521    2.5382   -3.3916 H   0  0  0  0  0  0  0  0  0  0  0  0
    0.7214    3.8856   -1.0369 H   0  0  0  0  0  0  0  0  0  0  0  0
   -0.9680    4.1560   -1.0763 H   0  0  0  0  0  0  0  0  0  0  0  0
   -2.6620    2.6972    0.6265 H   0  0  0  0  0  0  0  0  0  0  0  0
   -4.3358    4.3364    1.1447 H   0  0  0  0  0  0  0  0  0  0  0  0
   -3.1732    5.2717    2.0045 H   0  0  0  0  0  0  0  0  0  0  0  0
   -2.8406    4.9144    0.3274 H   0  0  0  0  0  0  0  0  0  0  0  0
   -4.2181    4.3151   -0.8704 H   0  0  0  0  0  0  0  0  0  0  0  0
   -5.8739    4.6784   -0.6240 H   0  0  0  0  0  0  0  0  0  0  0  0
  1 16  1  0  0  0  0
  1 26  1  0  0  0  0
  2 15  2  0  0  0  0
  3 16  2  0  0  0  0
  4 18  2  0  0  0  0
  5 21  1  0  0  0  0
  5 27  1  0  0  0  0
  6 21  2  0  0  0  0
  7 18  1  0  0  0  0
  7 22  1  0  0  0  0
  8 15  1  0  0  0  0
  8 23  1  0  0  0  0
  9 20  1  0  0  0  0
  9 24  1  0  0  0  0
  9 25  1  0  0  0  0
 10 11  1  0  0  0  0
 10 12  1  0  0  0  0
 10 28  1  0  0  0  0
 10 29  1  0  0  0  0
 11 13  1  0  0  0  0
 11 30  1  0  0  0  0
 11 31  1  0  0  0  0
 12 14  1  0  0  0  0
 12 32  1  0  0  0  0
 12 33  1  0  0  0  0
 13  7  1  0  0  0  0
 13 16  1  0  0  0  0
 13 34  1  6  0  0  0
 14 15  1  0  0  0  0
 14 35  1  0  0  0  0
 14 36  1  0  0  0  0
 17 21  1  0  0  0  0
 17 37  1  6  0  0  0
 17 19  1  0  0  0  0
 17  8  1  0  0  0  0
 18 20  1  0  0  0  0
 19 38  1  0  0  0  0
 19 39  1  0  0  0  0
 19 40  1  0  0  0  0
 20 41  1  0  0  0  0
 20 42  1  0  0  0  0
M  END
>  <DRUGBANK_ID>
DB03927

>  <SECONDARY_ACCESSION_NUMBERS>
EXPT02774

>  <COMMON_NAME>
Glycyl-L-alpha-amino-epsilon-pimelyl-D-alanine

$$$$
