
 OpenBabel10282417183D

 45 50  0  0  1  0  0  0  0  0999 V2000
    2.6980   -1.5603   -1.2266 C   0  0  0  0  0  0  0  0  0  0  0  0
    3.7039   -1.1841   -0.3235 C   0  0  0  0  0  0  0  0  0  0  0  0
    3.4838   -0.1961    0.6566 C   0  0  0  0  0  0  0  0  0  0  0  0
    2.2410    0.4021    0.7207 C   0  0  0  0  0  0  0  0  0  0  0  0
    1.2547    0.0241   -0.1912 C   0  0  0  0  0  0  0  0  0  0  0  0
    1.4569   -0.9488   -1.1659 C   0  0  0  0  0  0  0  0  0  0  0  0
   -0.0062    0.7909    0.0794 C   0  0  1  0  0  0  0  0  0  0  0  0
   -0.4580    1.5729   -1.1545 C   0  0  0  0  0  0  0  0  0  0  0  0
   -1.8336    1.1642   -1.4997 O   0  0  0  0  0  0  0  0  0  0  0  0
   -2.1855    0.1729   -0.6037 C   0  0  0  0  0  0  0  0  0  0  0  0
   -1.1759   -0.0890    0.3105 C   0  0  0  0  0  0  0  0  0  0  0  0
   -1.2889   -1.0625    1.2926 C   0  0  0  0  0  0  0  0  0  0  0  0
   -2.4542   -1.7743    1.3279 C   0  0  0  0  0  0  0  0  0  0  0  0
   -3.4909   -1.5307    0.4461 C   0  0  0  0  0  0  0  0  0  0  0  0
   -3.3881   -0.5449   -0.5476 C   0  0  0  0  0  0  0  0  0  0  0  0
   -4.5448   -2.3636    0.7446 O   0  0  0  0  0  0  0  0  0  0  0  0
   -4.1480   -2.8083    2.0723 C   0  0  0  0  0  0  0  0  0  0  0  0
   -2.7256   -2.7484    2.2397 O   0  0  0  0  0  0  0  0  0  0  0  0
    0.3430    1.5932    1.3518 C   0  0  0  0  0  0  0  0  0  0  0  0
   -0.4382    2.1946    2.0553 O   0  0  0  0  0  0  0  0  0  0  0  0
    1.7139    1.3570    1.6174 N   0  0  0  0  0  0  0  0  0  0  0  0
    2.3878    1.9061    2.7916 C   0  0  0  0  0  0  0  0  0  0  0  0
    1.6712    1.4895    4.0397 C   0  0  0  0  0  0  0  0  0  0  0  0
    1.3548    0.2312    4.5020 C   0  0  0  0  0  0  0  0  0  0  0  0
    0.5823    0.4052    5.6617 C   0  0  0  0  0  0  0  0  0  0  0  0
    0.4764    1.7646    5.8817 C   0  0  0  0  0  0  0  0  0  0  0  0
    1.1633    2.4435    4.8944 O   0  0  0  0  0  0  0  0  0  0  0  0
   -0.2394    2.4979    6.9654 C   0  0  0  0  0  0  0  0  0  0  0  0
    0.5901    3.2404    7.7434 F   0  0  0  0  0  0  0  0  0  0  0  0
   -1.2187    3.3220    6.5161 F   0  0  0  0  0  0  0  0  0  0  0  0
   -0.8499    1.6144    7.8108 F   0  0  0  0  0  0  0  0  0  0  0  0
    2.8810   -2.3311   -1.9726 H   0  0  0  0  0  0  0  0  0  0  0  0
    4.6695   -1.6811   -0.3870 H   0  0  0  0  0  0  0  0  0  0  0  0
    4.2858    0.0575    1.3380 H   0  0  0  0  0  0  0  0  0  0  0  0
    0.6627   -1.2302   -1.8544 H   0  0  0  0  0  0  0  0  0  0  0  0
   -0.3952    2.6683   -1.0736 H   0  0  0  0  0  0  0  0  0  0  0  0
    0.1898    1.3374   -2.0157 H   0  0  0  0  0  0  0  0  0  0  0  0
   -0.5047   -1.2430    2.0114 H   0  0  0  0  0  0  0  0  0  0  0  0
   -4.2068   -0.3324   -1.2262 H   0  0  0  0  0  0  0  0  0  0  0  0
   -4.5098   -3.8169    2.3230 H   0  0  0  0  0  0  0  0  0  0  0  0
   -4.5939   -2.1244    2.8071 H   0  0  0  0  0  0  0  0  0  0  0  0
    3.4124    1.5222    2.8400 H   0  0  0  0  0  0  0  0  0  0  0  0
    2.4407    2.9958    2.6952 H   0  0  0  0  0  0  0  0  0  0  0  0
    1.6196   -0.6929    4.0116 H   0  0  0  0  0  0  0  0  0  0  0  0
    0.1266   -0.3589    6.2747 H   0  0  0  0  0  0  0  0  0  0  0  0
  1  2  2  0  0  0  0
  1  6  1  0  0  0  0
  1 32  1  0  0  0  0
  2  3  1  0  0  0  0
  2 33  1  0  0  0  0
  3  4  2  0  0  0  0
  3 34  1  0  0  0  0
  4  5  1  0  0  0  0
  4 21  1  0  0  0  0
  5  6  2  0  0  0  0
  6 35  1  0  0  0  0
  7  5  1  6  0  0  0
  7  8  1  0  0  0  0
  7 11  1  0  0  0  0
  7 19  1  0  0  0  0
  8  9  1  0  0  0  0
  8 36  1  0  0  0  0
  8 37  1  0  0  0  0
  9 10  1  0  0  0  0
 10 11  2  0  0  0  0
 10 15  1  0  0  0  0
 11 12  1  0  0  0  0
 12 13  2  0  0  0  0
 12 38  1  0  0  0  0
 13 14  1  0  0  0  0
 13 18  1  0  0  0  0
 14 15  2  0  0  0  0
 14 16  1  0  0  0  0
 15 39  1  0  0  0  0
 16 17  1  0  0  0  0
 17 18  1  0  0  0  0
 17 40  1  0  0  0  0
 17 41  1  0  0  0  0
 19 21  1  0  0  0  0
 19 20  2  0  0  0  0
 21 22  1  0  0  0  0
 22 23  1  0  0  0  0
 22 42  1  0  0  0  0
 22 43  1  0  0  0  0
 23 24  2  0  0  0  0
 23 27  1  0  0  0  0
 24 25  1  0  0  0  0
 24 44  1  0  0  0  0
 25 26  2  0  0  0  0
 25 45  1  0  0  0  0
 26 27  1  0  0  0  0
 26 28  1  0  0  0  0
 28 29  1  0  0  0  0
 28 30  1  0  0  0  0
 28 31  1  0  0  0  0
M  END
>  <DRUGBANK_ID>
DB11769

>  <COMMON_NAME>
Funapide

>  <CAS_NUMBER>
1259933-16-8

>  <UNII>
A5595LHJ2L

>  <SYNONYMS>
Funapide

$$$$
