904
 OpenBabel10282417113D

 41 44  0  0  1  0  0  0  0  0999 V2000
    1.2160   -0.0918   -0.2269 O   0  0  0  0  0  0  0  0  0  0  0  0
    4.9631    2.4241    0.5702 N   0  0  0  0  0  0  0  0  0  0  0  0
    4.8396   -2.4642   -1.9071 N   0  0  0  0  0  0  0  0  0  0  0  0
    5.3669   -4.6090   -2.1171 N   0  0  0  0  0  0  0  0  0  0  0  0
    3.3123   -1.2867   -0.2982 C   0  0  3  0  0  0  0  0  0  0  0  0
    4.3295   -1.3062    0.8564 C   0  0  0  0  0  0  0  0  0  0  0  0
    5.3123   -0.1228    0.7379 C   0  0  0  0  0  0  0  0  0  0  0  0
    4.5184    1.1267    0.4972 C   0  0  0  0  0  0  0  0  0  0  0  0
    3.1879    1.1629    0.1165 C   0  0  0  0  0  0  0  0  0  0  0  0
    2.4461   -0.0514   -0.1362 C   0  0  0  0  0  0  0  0  0  0  0  0
    4.0019   -1.2898   -1.6856 C   0  0  0  0  0  0  0  0  0  0  0  0
    2.7864    2.5065    0.0248 C   0  0  0  0  0  0  0  0  0  0  0  0
    3.9141    3.2903    0.2942 C   0  0  0  0  0  0  0  0  0  0  0  0
    6.3236    2.8038    0.8844 C   0  0  0  0  0  0  0  0  0  0  0  0
    1.5590    3.1149   -0.2939 C   0  0  0  0  0  0  0  0  0  0  0  0
    3.8359    4.6913    0.2499 C   0  0  0  0  0  0  0  0  0  0  0  0
    4.3768   -3.7599   -1.9450 C   0  0  0  0  0  0  0  0  0  0  0  0
    6.2008   -2.5151   -2.0875 C   0  0  0  0  0  0  0  0  0  0  0  0
    1.4751    4.5021   -0.3307 C   0  0  0  0  0  0  0  0  0  0  0  0
    2.5994    5.2762   -0.0626 C   0  0  0  0  0  0  0  0  0  0  0  0
    6.4985   -3.8538   -2.2178 C   0  0  0  0  0  0  0  0  0  0  0  0
    2.9578   -4.1532   -1.7867 C   0  0  0  0  0  0  0  0  0  0  0  0
    2.6353   -2.1329   -0.1605 H   0  0  0  0  0  0  0  0  0  0  0  0
    4.8605   -2.2631    0.8717 H   0  0  0  0  0  0  0  0  0  0  0  0
    3.7826   -1.2331    1.8078 H   0  0  0  0  0  0  0  0  0  0  0  0
    5.9899   -0.2892   -0.1064 H   0  0  0  0  0  0  0  0  0  0  0  0
    5.9231   -0.0599    1.6401 H   0  0  0  0  0  0  0  0  0  0  0  0
    3.2613   -1.2679   -2.4938 H   0  0  0  0  0  0  0  0  0  0  0  0
    4.6233   -0.3999   -1.8490 H   0  0  0  0  0  0  0  0  0  0  0  0
    6.5738    2.4034    1.8701 H   0  0  0  0  0  0  0  0  0  0  0  0
    6.9865    2.3832    0.1226 H   0  0  0  0  0  0  0  0  0  0  0  0
    6.4235    3.8897    0.8950 H   0  0  0  0  0  0  0  0  0  0  0  0
    0.6855    2.5018   -0.5041 H   0  0  0  0  0  0  0  0  0  0  0  0
    4.6962    5.3195    0.4524 H   0  0  0  0  0  0  0  0  0  0  0  0
    6.8496   -1.6493   -2.1109 H   0  0  0  0  0  0  0  0  0  0  0  0
    0.5237    4.9687   -0.5705 H   0  0  0  0  0  0  0  0  0  0  0  0
    2.5133    6.3592   -0.0952 H   0  0  0  0  0  0  0  0  0  0  0  0
    7.4599   -4.3278   -2.3770 H   0  0  0  0  0  0  0  0  0  0  0  0
    2.6415   -4.7364   -2.6514 H   0  0  0  0  0  0  0  0  0  0  0  0
    2.8540   -4.7568   -0.8802 H   0  0  0  0  0  0  0  0  0  0  0  0
    2.2689   -3.3106   -1.7196 H   0  0  0  0  0  0  0  0  0  0  0  0
  1 10  2  0  0  0  0
  2  8  1  0  0  0  0
  2 13  1  0  0  0  0
  2 14  1  0  0  0  0
  3 11  1  0  0  0  0
  3 17  1  0  0  0  0
  3 18  1  0  0  0  0
  4 17  2  0  0  0  0
  4 21  1  0  0  0  0
  5  6  1  0  0  0  0
  5 10  1  0  0  0  0
  5 11  1  0  0  0  0
  5 23  1  0  0  0  0
  6  7  1  0  0  0  0
  6 24  1  0  0  0  0
  6 25  1  0  0  0  0
  7  8  1  0  0  0  0
  7 26  1  0  0  0  0
  7 27  1  0  0  0  0
  8  9  2  0  0  0  0
  9 10  1  0  0  0  0
  9 12  1  0  0  0  0
 11 28  1  0  0  0  0
 11 29  1  0  0  0  0
 12 13  1  0  0  0  0
 12 15  2  0  0  0  0
 13 16  2  0  0  0  0
 14 30  1  0  0  0  0
 14 31  1  0  0  0  0
 14 32  1  0  0  0  0
 15 19  1  0  0  0  0
 15 33  1  0  0  0  0
 16 20  1  0  0  0  0
 16 34  1  0  0  0  0
 17 22  1  0  0  0  0
 18 21  2  0  0  0  0
 18 35  1  0  0  0  0
 19 20  2  0  0  0  0
 19 36  1  0  0  0  0
 20 37  1  0  0  0  0
 21 38  1  0  0  0  0
 22 39  1  0  0  0  0
 22 40  1  0  0  0  0
 22 41  1  0  0  0  0
M  END
>  <DRUGBANK_ID>
DB00904

>  <SECONDARY_ACCESSION_NUMBERS>
APRD00481

>  <COMMON_NAME>
Ondansetron

>  <CAS_NUMBER>
99614-02-5

>  <UNII>
4AF302ESOS

>  <SYNONYMS>
Ondansetron

$$$$
