
 OpenBabel10282417123D

 81 84  0  0  0  0  0  0  0  0999 V2000
    1.5021   -0.2075    0.0519 C   0  0  0  0  0  0  0  0  0  0  0  0
    0.6547   -1.3106    0.1018 C   0  0  0  0  0  0  0  0  0  0  0  0
   -0.7339   -1.1887    0.0835 C   0  0  0  0  0  0  0  0  0  0  0  0
   -1.2890    0.0812    0.2236 C   0  0  0  0  0  0  0  0  0  0  0  0
   -0.3824    1.1577    0.3774 C   0  0  0  0  0  0  0  0  0  0  0  0
    0.9761    1.0636    0.0859 C   0  0  0  0  0  0  0  0  0  0  0  0
   -1.0816   -3.5621    0.0376 C   0  0  0  0  0  0  0  0  0  0  0  0
   -0.3516   -3.9124   -1.2354 C   0  0  0  0  0  0  0  0  0  0  0  0
    1.8080    2.2872   -0.2536 C   0  0  0  0  0  0  0  0  0  0  0  0
    1.4727    3.0127   -1.5945 C   0  0  1  0  0  0  0  0  0  0  0  0
    0.0246    3.5096   -1.6181 C   0  0  0  0  0  0  0  0  0  0  0  0
   -0.2597    4.8414   -1.7708 N   0  0  0  0  0  0  0  0  0  0  0  0
    2.4274    4.0936   -1.8875 N   0  0  0  0  0  0  0  0  0  0  0  0
    3.1352    4.1075   -3.0690 C   0  0  0  0  0  0  0  0  0  0  0  0
    4.0274    5.3001   -3.2762 C   0  0  0  0  0  0  0  0  0  0  0  0
    3.0723    3.2132   -3.9098 O   0  0  0  0  0  0  0  0  0  0  0  0
   -0.8927    2.6931   -1.5072 O   0  0  0  0  0  0  0  0  0  0  0  0
   -1.6526    5.3222   -1.6447 C   0  0  1  0  0  0  0  0  0  0  0  0
   -1.7962    6.6185   -2.4531 C   0  0  0  0  0  0  0  0  0  0  0  0
   -2.9383    7.5309   -2.0276 C   0  0  0  0  0  0  0  0  0  0  0  0
   -4.3065    6.9158   -2.1709 C   0  0  0  0  0  0  0  0  0  0  0  0
   -4.4941    5.7215   -1.2695 C   0  0  0  0  0  0  0  0  0  0  0  0
   -4.0157    4.4571   -1.7866 N   0  0  0  0  0  0  0  0  0  0  0  0
   -2.7110    4.3294   -2.2378 C   0  0  0  0  0  0  0  0  0  0  0  0
   -4.9771    3.4331   -2.2187 C   0  0  0  0  0  0  0  0  0  0  0  0
   -5.9314    2.9443   -1.1523 C   0  0  0  0  0  0  0  0  0  0  0  0
   -2.4468    3.5324   -3.1426 O   0  0  0  0  0  0  0  0  0  0  0  0
   -1.5733   -2.2481   -0.1022 O   0  0  0  0  0  0  0  0  0  0  0  0
   -6.6678    3.7869   -0.3185 C   0  0  0  0  0  0  0  0  0  0  0  0
   -7.4101    3.3293    0.7497 C   0  0  0  0  0  0  0  0  0  0  0  0
   -7.4672    1.9790    1.0204 C   0  0  0  0  0  0  0  0  0  0  0  0
   -6.8949    1.1010    0.1001 C   0  0  0  0  0  0  0  0  0  0  0  0
   -6.1470    1.5786   -0.9925 C   0  0  0  0  0  0  0  0  0  0  0  0
   -8.2205    1.5156    2.1681 C   0  0  0  0  0  0  0  0  0  0  0  0
   -9.6021    1.7379    2.1605 C   0  0  0  0  0  0  0  0  0  0  0  0
  -10.4077    1.2086    3.1540 C   0  0  0  0  0  0  0  0  0  0  0  0
   -9.8336    0.4536    4.1721 C   0  0  0  0  0  0  0  0  0  0  0  0
   -8.4513    0.2582    4.2140 C   0  0  0  0  0  0  0  0  0  0  0  0
   -7.6349    0.8297    3.2388 C   0  0  0  0  0  0  0  0  0  0  0  0
   -3.0050    0.5689   -0.0548 P   0  0  0  0  0  0  0  0  0  0  0  0
   -3.3578   -0.9748    0.3442 O   0  0  0  0  0  0  0  0  0  0  0  0
   -2.9495    1.7739    0.8812 O   0  0  0  0  0  0  0  0  0  0  0  0
   -4.4653    0.5011    0.5804 O   0  0  0  0  0  0  0  0  0  0  0  0
    0.9276   -4.3054   -1.0668 O   0  0  0  0  0  0  0  0  0  0  0  0
   -0.8517   -3.7923   -2.3645 O   0  0  0  0  0  0  0  0  0  0  0  0
    2.5694   -0.3723   -0.0302 H   0  0  0  0  0  0  0  0  0  0  0  0
    1.1424   -2.2633    0.0801 H   0  0  0  0  0  0  0  0  0  0  0  0
   -0.8035    2.1455    0.5587 H   0  0  0  0  0  0  0  0  0  0  0  0
   -0.4919   -3.6724    0.9541 H   0  0  0  0  0  0  0  0  0  0  0  0
   -1.9395   -4.2394    0.1333 H   0  0  0  0  0  0  0  0  0  0  0  0
    1.7448    2.9915    0.5819 H   0  0  0  0  0  0  0  0  0  0  0  0
    2.8567    1.9679   -0.3149 H   0  0  0  0  0  0  0  0  0  0  0  0
    1.5196    2.2804   -2.4119 H   0  0  0  0  0  0  0  0  0  0  0  0
    0.4972    5.5068   -1.8297 H   0  0  0  0  0  0  0  0  0  0  0  0
    2.5012    4.8649   -1.2390 H   0  0  0  0  0  0  0  0  0  0  0  0
    5.0629    4.9559   -3.3537 H   0  0  0  0  0  0  0  0  0  0  0  0
    3.7425    5.7988   -4.2077 H   0  0  0  0  0  0  0  0  0  0  0  0
    3.9540    6.0187   -2.4570 H   0  0  0  0  0  0  0  0  0  0  0  0
   -1.8270    5.4901   -0.5715 H   0  0  0  0  0  0  0  0  0  0  0  0
   -0.8765    7.2069   -2.3868 H   0  0  0  0  0  0  0  0  0  0  0  0
   -1.9295    6.3547   -3.5105 H   0  0  0  0  0  0  0  0  0  0  0  0
   -2.7958    7.8509   -0.9889 H   0  0  0  0  0  0  0  0  0  0  0  0
   -2.9209    8.4332   -2.6474 H   0  0  0  0  0  0  0  0  0  0  0  0
   -5.0488    7.6685   -1.8682 H   0  0  0  0  0  0  0  0  0  0  0  0
   -4.5381    6.6495   -3.2089 H   0  0  0  0  0  0  0  0  0  0  0  0
   -4.1217    5.8664   -0.2500 H   0  0  0  0  0  0  0  0  0  0  0  0
   -5.5632    5.6992   -1.2585 H   0  0  0  0  0  0  0  0  0  0  0  0
   -5.5372    3.8159   -3.0743 H   0  0  0  0  0  0  0  0  0  0  0  0
   -4.4087    2.5613   -2.5771 H   0  0  0  0  0  0  0  0  0  0  0  0
   -6.7352    4.8499   -0.4214 H   0  0  0  0  0  0  0  0  0  0  0  0
   -7.9472    4.0547    1.3530 H   0  0  0  0  0  0  0  0  0  0  0  0
   -6.9007    0.0296    0.3055 H   0  0  0  0  0  0  0  0  0  0  0  0
   -5.6025    0.8574   -1.6040 H   0  0  0  0  0  0  0  0  0  0  0  0
  -10.0454    2.3068    1.3455 H   0  0  0  0  0  0  0  0  0  0  0  0
  -11.4800    1.3595    3.1017 H   0  0  0  0  0  0  0  0  0  0  0  0
  -10.4687    0.0132    4.9337 H   0  0  0  0  0  0  0  0  0  0  0  0
   -8.0139   -0.3633    4.9904 H   0  0  0  0  0  0  0  0  0  0  0  0
   -6.5528    0.7210    3.3086 H   0  0  0  0  0  0  0  0  0  0  0  0
   -3.5993   -1.5011   -0.4431 H   0  0  0  0  0  0  0  0  0  0  0  0
   -4.5611    1.3991    0.9665 H   0  0  0  0  0  0  0  0  0  0  0  0
    1.2503   -4.2672   -0.1446 H   0  0  0  0  0  0  0  0  0  0  0  0
  1  2  1  0  0  0  0
  1  6  2  0  0  0  0
  1 46  1  0  0  0  0
  2  3  2  0  0  0  0
  2 47  1  0  0  0  0
  3  4  1  0  0  0  0
  3 28  1  0  0  0  0
  4  5  2  0  0  0  0
  4 40  1  0  0  0  0
  5  6  1  0  0  0  0
  5 48  1  0  0  0  0
  6  9  1  0  0  0  0
  7  8  1  0  0  0  0
  7 28  1  0  0  0  0
  7 49  1  0  0  0  0
  7 50  1  0  0  0  0
  8 44  1  0  0  0  0
  8 45  2  0  0  0  0
  9 51  1  0  0  0  0
  9 52  1  0  0  0  0
 10  9  1  0  0  0  0
 10 11  1  0  0  0  0
 10 13  1  0  0  0  0
 10 53  1  6  0  0  0
 11 12  1  0  0  0  0
 11 17  2  0  0  0  0
 12 54  1  0  0  0  0
 13 55  1  0  0  0  0
 14 13  1  0  0  0  0
 14 15  1  0  0  0  0
 14 16  2  0  0  0  0
 15 56  1  0  0  0  0
 15 57  1  0  0  0  0
 15 58  1  0  0  0  0
 18 12  1  0  0  0  0
 18 19  1  0  0  0  0
 18 24  1  0  0  0  0
 18 59  1  1  0  0  0
 19 20  1  0  0  0  0
 19 60  1  0  0  0  0
 19 61  1  0  0  0  0
 20 21  1  0  0  0  0
 20 62  1  0  0  0  0
 20 63  1  0  0  0  0
 21 22  1  0  0  0  0
 21 64  1  0  0  0  0
 21 65  1  0  0  0  0
 22 23  1  0  0  0  0
 22 66  1  0  0  0  0
 22 67  1  0  0  0  0
 24 23  1  0  0  0  0
 24 27  2  0  0  0  0
 25 23  1  0  0  0  0
 25 26  1  0  0  0  0
 25 68  1  0  0  0  0
 25 69  1  0  0  0  0
 26 29  1  0  0  0  0
 26 33  2  0  0  0  0
 29 30  2  0  0  0  0
 29 70  1  0  0  0  0
 30 31  1  0  0  0  0
 30 71  1  0  0  0  0
 31 32  2  0  0  0  0
 31 34  1  0  0  0  0
 32 33  1  0  0  0  0
 32 72  1  0  0  0  0
 33 73  1  0  0  0  0
 34 35  1  0  0  0  0
 34 39  2  0  0  0  0
 35 36  2  0  0  0  0
 35 74  1  0  0  0  0
 36 37  1  0  0  0  0
 36 75  1  0  0  0  0
 37 38  2  0  0  0  0
 37 76  1  0  0  0  0
 38 39  1  0  0  0  0
 38 77  1  0  0  0  0
 39 78  1  0  0  0  0
 41 40  1  0  0  0  0
 41 79  1  0  0  0  0
 42 40  2  0  0  0  0
 43 40  1  0  0  0  0
 43 80  1  0  0  0  0
 44 81  1  0  0  0  0
M  END
>  <DRUGBANK_ID>
DB01908

>  <SECONDARY_ACCESSION_NUMBERS>
EXPT00200

>  <COMMON_NAME>
RU85493

$$$$
