55F
 OpenBabel10282417163D

 42 45  0  0  0  0  0  0  0  0999 V2000
    2.2937   -0.6763    0.0082 C   0  0  0  0  0  0  0  0  0  0  0  0
    2.2870    0.7033   -0.0052 C   0  0  0  0  0  0  0  0  0  0  0  0
    1.1422    1.4176    0.0007 N   0  0  0  0  0  0  0  0  0  0  0  0
   -0.0023    0.7115    0.0144 C   0  0  0  0  0  0  0  0  0  0  0  0
    0.0020   -0.7072    0.0195 C   0  0  0  0  0  0  0  0  0  0  0  0
    1.1551   -1.4042    0.0195 N   0  0  0  0  0  0  0  0  0  0  0  0
   -1.2136    1.3862    0.0190 C   0  0  0  0  0  0  0  0  0  0  0  0
   -2.4220    0.6969    0.0079 C   0  0  0  0  0  0  0  0  0  0  0  0
   -2.4231   -0.6943   -0.0079 C   0  0  0  0  0  0  0  0  0  0  0  0
   -1.2084   -1.3873    0.0136 C   0  0  0  0  0  0  0  0  0  0  0  0
   -3.6847   -1.3997   -0.0844 C   0  0  0  0  0  0  0  0  0  0  0  0
   -4.7347   -1.3603   -0.9788 C   0  0  0  0  0  0  0  0  0  0  0  0
   -5.7299   -2.2527   -0.5894 N   0  0  0  0  0  0  0  0  0  0  0  0
   -5.3152   -2.7997    0.5386 C   0  0  0  0  0  0  0  0  0  0  0  0
   -4.0883   -2.2932    0.8639 N   0  0  0  0  0  0  0  0  0  0  0  0
   -4.7049   -0.5808   -2.2127 C   0  0  0  0  0  0  0  0  0  0  0  0
   -3.7340   -0.8649   -3.1757 C   0  0  0  0  0  0  0  0  0  0  0  0
   -3.8036   -0.2291   -4.4090 C   0  0  0  0  0  0  0  0  0  0  0  0
   -4.6979    0.8132   -4.5650 C   0  0  0  0  0  0  0  0  0  0  0  0
   -5.5431    1.1489   -3.5116 C   0  0  0  0  0  0  0  0  0  0  0  0
   -5.5957    0.4348   -2.3508 N   0  0  0  0  0  0  0  0  0  0  0  0
   -6.0117   -3.7406    1.2685 N   0  0  0  0  0  0  0  0  0  0  0  0
   -6.3935    2.3777   -3.6322 C   0  0  0  0  0  0  0  0  0  0  0  0
   -4.6974    1.5195   -5.7038 F   0  0  0  0  0  0  0  0  0  0  0  0
   -5.6745   -4.3521    2.4452 C   0  0  0  0  0  0  0  0  0  0  0  0
   -6.4432   -5.1809    2.9559 O   0  0  0  0  0  0  0  0  0  0  0  0
   -4.3765   -4.0297    3.1305 C   0  0  0  0  0  0  0  0  0  0  0  0
    3.2208   -1.2379    0.0119 H   0  0  0  0  0  0  0  0  0  0  0  0
    3.2051    1.2787   -0.0194 H   0  0  0  0  0  0  0  0  0  0  0  0
   -1.2190    2.4726    0.0192 H   0  0  0  0  0  0  0  0  0  0  0  0
   -3.3590    1.2520   -0.0018 H   0  0  0  0  0  0  0  0  0  0  0  0
   -1.1882   -2.4752   -0.0098 H   0  0  0  0  0  0  0  0  0  0  0  0
   -3.5339   -2.4988    1.6720 H   0  0  0  0  0  0  0  0  0  0  0  0
   -2.9311   -1.5670   -2.9760 H   0  0  0  0  0  0  0  0  0  0  0  0
   -3.1641   -0.5295   -5.2309 H   0  0  0  0  0  0  0  0  0  0  0  0
   -6.9087   -4.0162    0.8822 H   0  0  0  0  0  0  0  0  0  0  0  0
   -5.7541    3.2610   -3.7470 H   0  0  0  0  0  0  0  0  0  0  0  0
   -7.0496    2.3029   -4.5044 H   0  0  0  0  0  0  0  0  0  0  0  0
   -7.0096    2.5198   -2.7403 H   0  0  0  0  0  0  0  0  0  0  0  0
   -3.5411   -4.3046    2.4792 H   0  0  0  0  0  0  0  0  0  0  0  0
   -4.3614   -2.9702    3.4043 H   0  0  0  0  0  0  0  0  0  0  0  0
   -4.2624   -4.6002    4.0547 H   0  0  0  0  0  0  0  0  0  0  0  0
  1 28  1  0  0  0  0
  2  1  1  0  0  0  0
  2 29  1  0  0  0  0
  3  2  2  0  0  0  0
  4  3  1  0  0  0  0
  4  5  1  0  0  0  0
  5  6  1  0  0  0  0
  6  1  2  0  0  0  0
  7  4  2  0  0  0  0
  7 30  1  0  0  0  0
  8  7  1  0  0  0  0
  8  9  2  0  0  0  0
  8 31  1  0  0  0  0
  9 10  1  0  0  0  0
 10  5  2  0  0  0  0
 10 32  1  0  0  0  0
 11  9  1  0  0  0  0
 11 15  1  0  0  0  0
 12 11  2  0  0  0  0
 13 12  1  0  0  0  0
 13 14  2  0  0  0  0
 14 22  1  0  0  0  0
 14 15  1  0  0  0  0
 15 33  1  0  0  0  0
 16 12  1  0  0  0  0
 16 17  1  0  0  0  0
 17 34  1  0  0  0  0
 18 17  2  0  0  0  0
 18 35  1  0  0  0  0
 19 18  1  0  0  0  0
 20 19  2  0  0  0  0
 20 21  1  0  0  0  0
 21 16  2  0  0  0  0
 22 25  1  0  0  0  0
 22 36  1  0  0  0  0
 23 20  1  0  0  0  0
 23 37  1  0  0  0  0
 23 38  1  0  0  0  0
 23 39  1  0  0  0  0
 24 19  1  0  0  0  0
 25 26  2  0  0  0  0
 27 25  1  0  0  0  0
 27 40  1  0  0  0  0
 27 41  1  0  0  0  0
 27 42  1  0  0  0  0
M  END
>  <DRUGBANK_ID>
DB07152

>  <COMMON_NAME>
N-[4-(5-fluoro-6-methylpyridin-2-yl)-5-quinoxalin-6-yl-1H-imidazol-2-yl]acetamide

>  <UNII>
3QF3J56NXP

$$$$
