
 OpenBabel10282417133D

 22 21  0  0  1  0  0  0  0  0999 V2000
    0.8951    2.5480   -0.3858 C   0  0  0  0  0  0  0  0  0  0  0  0
    1.0348    0.0105   -0.0356 C   0  0  0  0  0  0  0  0  0  0  0  0
    0.4110    1.3433    0.4537 C   0  0  2  0  0  0  0  0  0  0  0  0
    1.7575    0.1079   -1.3448 C   0  0  0  0  0  0  0  0  0  0  0  0
   -1.1368    1.2878    0.5234 C   0  0  1  0  0  0  0  0  0  0  0  0
   -1.6713    0.2391    1.5324 C   0  0  0  0  0  0  0  0  0  0  0  0
   -1.6442    2.6251    0.9391 N   0  0  0  0  0  0  0  0  0  0  0  0
    2.9697    0.1459   -1.4964 O   0  0  0  0  0  0  0  0  0  0  0  0
    0.9111    0.2662   -2.3819 O   0  0  0  0  0  0  0  0  0  0  0  0
   -2.3573    0.4750    2.5173 O   0  0  0  0  0  0  0  0  0  0  0  0
   -1.3508   -1.0322    1.2292 O   0  0  0  0  0  0  0  0  0  0  0  0
    0.7689    1.5034    1.4827 H   0  0  0  0  0  0  0  0  0  0  0  0
   -1.5557    1.0656   -0.4636 H   0  0  0  0  0  0  0  0  0  0  0  0
    0.7669    2.3829   -1.4577 H   0  0  0  0  0  0  0  0  0  0  0  0
    1.9545    2.7445   -0.1936 H   0  0  0  0  0  0  0  0  0  0  0  0
    0.3467    3.4692   -0.1805 H   0  0  0  0  0  0  0  0  0  0  0  0
    1.7409   -0.3546    0.7207 H   0  0  0  0  0  0  0  0  0  0  0  0
    0.3118   -0.7954   -0.1720 H   0  0  0  0  0  0  0  0  0  0  0  0
   -2.6612    2.5874    1.0115 H   0  0  0  0  0  0  0  0  0  0  0  0
   -1.3236    2.8098    1.8931 H   0  0  0  0  0  0  0  0  0  0  0  0
    1.4715    0.5857   -3.1196 H   0  0  0  0  0  0  0  0  0  0  0  0
   -1.7199   -1.5901    1.9444 H   0  0  0  0  0  0  0  0  0  0  0  0
  1 14  1  0  0  0  0
  1 15  1  0  0  0  0
  1 16  1  0  0  0  0
  2 17  1  0  0  0  0
  2 18  1  0  0  0  0
  3 12  1  1  0  0  0
  3  2  1  0  0  0  0
  3  1  1  0  0  0  0
  4  2  1  0  0  0  0
  5  3  1  0  0  0  0
  5  7  1  0  0  0  0
  5 13  1  6  0  0  0
  6  5  1  0  0  0  0
  7 19  1  0  0  0  0
  7 20  1  0  0  0  0
  8  4  2  0  0  0  0
  9  4  1  0  0  0  0
  9 21  1  0  0  0  0
 10  6  2  0  0  0  0
 11  6  1  0  0  0  0
 11 22  1  0  0  0  0
M  END
>  <DRUGBANK_ID>
DB03810

>  <SECONDARY_ACCESSION_NUMBERS>
EXPT02042

>  <COMMON_NAME>
3-Methylglutamic acid

>  <CAS_NUMBER>
6070-75-3

>  <SYNONYMS>
(2S,3R)-2-azanyl-3-methyl-pentanedioic acid; (3R)-3-methyl-L-glutamic acid

$$$$
