
 OpenBabel10282417123D

 61 64  0  0  1  0  0  0  0  0999 V2000
    1.0520   -0.0297   -0.0550 C   0  0  0  0  0  0  0  0  0  0  0  0
   -2.3094   -4.1125    1.7467 C   0  0  0  0  0  0  0  0  0  0  0  0
   -2.9613    0.1708    2.5030 C   0  0  0  0  0  0  0  0  0  0  0  0
   -1.8498    4.1985    1.2674 C   0  0  0  0  0  0  0  0  0  0  0  0
    0.4454   -3.5622   -1.6040 C   0  0  0  0  0  0  0  0  0  0  0  0
    0.6173    1.0197   -1.1017 C   0  0  2  0  0  0  0  0  0  0  0  0
   -1.7862   -5.5222    1.4378 C   0  0  2  0  0  0  0  0  0  0  0  0
   -2.7716    2.8162    2.5929 C   0  0  0  0  0  0  0  0  0  0  0  0
    1.3833    2.3261   -1.1771 C   0  0  2  0  0  0  0  0  0  0  0  0
   -2.3397   -6.7444    2.1632 C   0  0  2  0  0  0  0  0  0  0  0  0
    0.5752    3.2569   -0.3110 C   0  0  2  0  0  0  0  0  0  0  0  0
   -1.5480   -6.7934    3.4551 C   0  0  2  0  0  0  0  0  0  0  0  0
   -3.4484    2.1444    3.6252 C   0  0  0  0  0  0  0  0  0  0  0  0
   -2.2172    2.0539    1.5868 C   0  0  0  0  0  0  0  0  0  0  0  0
   -0.8540    2.7330   -0.4752 C   0  0  2  0  0  0  0  0  0  0  0  0
   -0.2090   -6.1597    3.0468 C   0  0  1  0  0  0  0  0  0  0  0  0
   -4.0002    2.7951    4.7030 N   0  0  0  0  0  0  0  0  0  0  0  0
   -3.5406    0.7927    3.5539 N   0  0  0  0  0  0  0  0  0  0  0  0
   -2.2569    0.7058    1.4920 N   0  0  0  0  0  0  0  0  0  0  0  0
   -2.5244    4.1615    2.3862 N   0  0  0  0  0  0  0  0  0  0  0  0
   -1.6289    2.9432    0.7389 N   0  0  0  0  0  0  0  0  0  0  0  0
    1.3569    2.8390   -2.5281 O   0  0  0  0  0  0  0  0  0  0  0  0
   -2.0418   -7.9202    1.3753 O   0  0  0  0  0  0  0  0  0  0  0  0
    0.6889    4.6149   -0.7354 O   0  0  0  0  0  0  0  0  0  0  0  0
   -1.4177   -8.1107    3.9825 O   0  0  0  0  0  0  0  0  0  0  0  0
    0.7972   -7.1303    2.8360 O   0  0  0  0  0  0  0  0  0  0  0  0
   -0.2132   -1.1465   -2.5556 O   0  0  0  0  0  0  0  0  0  0  0  0
    1.6205   -2.3310   -3.2919 O   0  0  0  0  0  0  0  0  0  0  0  0
   -0.8239   -2.3167    0.6047 O   0  0  0  0  0  0  0  0  0  0  0  0
   -1.8906   -3.0431   -1.7011 O   0  0  0  0  0  0  0  0  0  0  0  0
    0.5277   -1.3791   -0.3513 O   0  0  0  0  0  0  0  0  0  0  0  0
   -2.4132   -3.3575    0.5081 O   0  0  0  0  0  0  0  0  0  0  0  0
   -0.7649    1.3490   -0.8636 O   0  0  0  0  0  0  0  0  0  0  0  0
   -0.3732   -5.4969    1.7814 O   0  0  0  0  0  0  0  0  0  0  0  0
    1.1044   -1.8814   -1.9031 P   0  0  3  0  0  0  0  0  0  0  0  0
   -1.0240   -3.4570   -0.5183 P   0  0  3  0  0  0  0  0  0  0  0  0
    0.6922    0.6225   -2.1065 H   0  0  0  0  0  0  0  0  0  0  0  0
   -1.8457   -5.7099    0.3624 H   0  0  0  0  0  0  0  0  0  0  0  0
    2.4339    2.2283   -0.8926 H   0  0  0  0  0  0  0  0  0  0  0  0
   -3.4225   -6.7343    2.3059 H   0  0  0  0  0  0  0  0  0  0  0  0
    0.9178    3.1794    0.7262 H   0  0  0  0  0  0  0  0  0  0  0  0
   -2.0496   -6.1767    4.2080 H   0  0  0  0  0  0  0  0  0  0  0  0
   -1.3956    3.2547   -1.2733 H   0  0  0  0  0  0  0  0  0  0  0  0
    0.1313   -5.4501    3.8095 H   0  0  0  0  0  0  0  0  0  0  0  0
    0.6814    0.2296    0.9417 H   0  0  0  0  0  0  0  0  0  0  0  0
    2.1419   -0.1190   -0.0134 H   0  0  0  0  0  0  0  0  0  0  0  0
   -1.6078   -3.5667    2.3945 H   0  0  0  0  0  0  0  0  0  0  0  0
   -3.2846   -4.0919    2.2371 H   0  0  0  0  0  0  0  0  0  0  0  0
   -3.0734   -0.9136    2.4738 H   0  0  0  0  0  0  0  0  0  0  0  0
   -1.4697    5.1008    0.7918 H   0  0  0  0  0  0  0  0  0  0  0  0
    0.1883   -4.0871   -2.5309 H   0  0  0  0  0  0  0  0  0  0  0  0
    1.2092   -4.1485   -1.0838 H   0  0  0  0  0  0  0  0  0  0  0  0
   -3.9848    3.8084    4.7134 H   0  0  0  0  0  0  0  0  0  0  0  0
   -4.5368    2.2638    5.3678 H   0  0  0  0  0  0  0  0  0  0  0  0
    0.4824    2.6695   -2.9300 H   0  0  0  0  0  0  0  0  0  0  0  0
   -1.1016   -7.9212    1.1353 H   0  0  0  0  0  0  0  0  0  0  0  0
    0.6929    4.6093   -1.7157 H   0  0  0  0  0  0  0  0  0  0  0  0
   -0.8729   -8.6192    3.3521 H   0  0  0  0  0  0  0  0  0  0  0  0
    0.7074   -7.3864    1.9064 H   0  0  0  0  0  0  0  0  0  0  0  0
   -0.9233   -0.8661   -1.9349 H   0  0  0  0  0  0  0  0  0  0  0  0
    0.0640   -2.0472    0.8581 H   0  0  0  0  0  0  0  0  0  0  0  0
  1 45  1  0  0  0  0
  1 46  1  0  0  0  0
  2 47  1  0  0  0  0
  2 48  1  0  0  0  0
  3 49  1  0  0  0  0
  4 50  1  0  0  0  0
  5 51  1  0  0  0  0
  5 52  1  0  0  0  0
  6  1  1  0  0  0  0
  6 37  1  6  0  0  0
  7  2  1  0  0  0  0
  7 38  1  6  0  0  0
  9  6  1  0  0  0  0
  9 22  1  0  0  0  0
  9 39  1  1  0  0  0
 10  7  1  0  0  0  0
 10 23  1  0  0  0  0
 10 40  1  1  0  0  0
 11  9  1  0  0  0  0
 11 24  1  0  0  0  0
 11 41  1  1  0  0  0
 12 10  1  0  0  0  0
 12 25  1  0  0  0  0
 12 42  1  1  0  0  0
 13  8  2  0  0  0  0
 14  8  1  0  0  0  0
 15 11  1  0  0  0  0
 15 43  1  6  0  0  0
 15 21  1  0  0  0  0
 16 12  1  0  0  0  0
 16 26  1  0  0  0  0
 16 44  1  1  0  0  0
 17 13  1  0  0  0  0
 17 53  1  0  0  0  0
 17 54  1  0  0  0  0
 18  3  2  0  0  0  0
 18 13  1  0  0  0  0
 19  3  1  0  0  0  0
 19 14  2  0  0  0  0
 20  4  2  0  0  0  0
 20  8  1  0  0  0  0
 21  4  1  0  0  0  0
 21 14  1  0  0  0  0
 22 55  1  0  0  0  0
 23 56  1  0  0  0  0
 24 57  1  0  0  0  0
 25 58  1  0  0  0  0
 26 59  1  0  0  0  0
 27 60  1  0  0  0  0
 29 61  1  0  0  0  0
 31  1  1  0  0  0  0
 32  2  1  0  0  0  0
 33  6  1  0  0  0  0
 33 15  1  0  0  0  0
 34  7  1  0  0  0  0
 34 16  1  0  0  0  0
 35  5  1  0  0  0  0
 35 27  1  0  0  0  0
 35 28  2  0  0  0  0
 35 31  1  0  0  0  0
 36  5  1  0  0  0  0
 36 29  1  0  0  0  0
 36 30  2  0  0  0  0
 36 32  1  0  0  0  0
M  END
>  <DRUGBANK_ID>
DB01975

>  <SECONDARY_ACCESSION_NUMBERS>
EXPT00439

>  <COMMON_NAME>
AMPCPR

>  <SYNONYMS>
alpha-beta methylene ADP-ribose

$$$$
