PG2
 OpenBabel10282417123D

 57 57  0  0  0  0  0  0  0  0999 V2000
    3.0881    0.3321   -3.5568 C   0  0  0  0  0  0  0  0  0  0  0  0
    2.5551    1.6973   -3.9211 C   0  0  0  0  0  0  0  0  0  0  0  0
    1.8222    1.7371   -5.2524 C   0  0  0  0  0  0  0  0  0  0  0  0
    0.5699    0.8872   -5.2489 C   0  0  0  0  0  0  0  0  0  0  0  0
   -0.3959    1.3940   -4.2060 C   0  0  0  0  0  0  0  0  0  0  0  0
   -1.6256    1.8345   -4.4918 C   0  0  0  0  0  0  0  0  0  0  0  0
   -2.1985    1.7665   -5.8745 C   0  0  0  0  0  0  0  0  0  0  0  0
   -3.2914    0.7172   -5.9305 C   0  0  1  0  0  0  0  0  0  0  0  0
   -3.7394    0.3609   -7.3682 C   0  0  2  0  0  0  0  0  0  0  0  0
   -3.0376   -0.9404   -7.7832 C   0  0  0  0  0  0  0  0  0  0  0  0
   -2.2776   -1.3106   -6.5453 C   0  0  0  0  0  0  0  0  0  0  0  0
   -2.8430   -0.6171   -5.3347 C   0  0  2  0  0  0  0  0  0  0  0  0
   -3.9709   -1.4231   -4.8288 C   0  0  0  0  0  0  0  0  0  0  0  0
   -5.2746   -1.0996   -4.8736 C   0  0  0  0  0  0  0  0  0  0  0  0
   -6.2850   -2.0192   -4.3216 C   0  0  2  0  0  0  0  0  0  0  0  0
   -6.1453   -1.9926   -2.7941 C   0  0  0  0  0  0  0  0  0  0  0  0
   -6.8645   -3.1490   -2.1235 C   0  0  0  0  0  0  0  0  0  0  0  0
   -6.2749   -4.5199   -2.4819 C   0  0  0  0  0  0  0  0  0  0  0  0
   -4.7724   -4.6230   -2.1936 C   0  0  0  0  0  0  0  0  0  0  0  0
   -4.5208   -4.5112   -0.7023 C   0  0  0  0  0  0  0  0  0  0  0  0
    2.1878   -0.6237   -3.2581 O   0  0  0  0  0  0  0  0  0  0  0  0
    4.2936    0.0976   -3.4906 O   0  0  0  0  0  0  0  0  0  0  0  0
   -3.4183    1.4210   -8.2552 O   0  0  0  0  0  0  0  0  0  0  0  0
   -1.3697   -2.1328   -6.5097 O   0  0  0  0  0  0  0  0  0  0  0  0
   -6.0297   -3.2546   -4.9710 O   0  0  0  0  0  0  0  0  0  0  0  0
   -4.1228    1.1582   -5.3674 H   0  0  0  0  0  0  0  0  0  0  0  0
   -4.8251    0.2209   -7.4067 H   0  0  0  0  0  0  0  0  0  0  0  0
   -2.0936   -0.5808   -4.5425 H   0  0  0  0  0  0  0  0  0  0  0  0
   -7.2963   -1.7237   -4.6098 H   0  0  0  0  0  0  0  0  0  0  0  0
    1.9557    2.0938   -3.0954 H   0  0  0  0  0  0  0  0  0  0  0  0
    3.4133    2.3748   -4.0020 H   0  0  0  0  0  0  0  0  0  0  0  0
    1.5445    2.7748   -5.4931 H   0  0  0  0  0  0  0  0  0  0  0  0
    2.4754    1.3970   -6.0634 H   0  0  0  0  0  0  0  0  0  0  0  0
    0.1892    0.9039   -6.2665 H   0  0  0  0  0  0  0  0  0  0  0  0
    0.7764   -0.1745   -5.1059 H   0  0  0  0  0  0  0  0  0  0  0  0
   -0.0977    1.4169   -3.1578 H   0  0  0  0  0  0  0  0  0  0  0  0
   -2.2779    2.1650   -3.6827 H   0  0  0  0  0  0  0  0  0  0  0  0
   -2.5727    2.7529   -6.1516 H   0  0  0  0  0  0  0  0  0  0  0  0
   -1.4686    1.5089   -6.6366 H   0  0  0  0  0  0  0  0  0  0  0  0
   -3.7712   -1.7343   -7.9680 H   0  0  0  0  0  0  0  0  0  0  0  0
   -2.3693   -0.8285   -8.6370 H   0  0  0  0  0  0  0  0  0  0  0  0
   -3.6479   -2.3512   -4.3610 H   0  0  0  0  0  0  0  0  0  0  0  0
   -5.6706   -0.1825   -5.2943 H   0  0  0  0  0  0  0  0  0  0  0  0
   -5.0938   -1.9858   -2.4733 H   0  0  0  0  0  0  0  0  0  0  0  0
   -6.5315   -1.0354   -2.4146 H   0  0  0  0  0  0  0  0  0  0  0  0
   -6.8178   -3.0016   -1.0390 H   0  0  0  0  0  0  0  0  0  0  0  0
   -7.9244   -3.1093   -2.3910 H   0  0  0  0  0  0  0  0  0  0  0  0
   -6.8159   -5.2966   -1.9359 H   0  0  0  0  0  0  0  0  0  0  0  0
   -6.4690   -4.7703   -3.5264 H   0  0  0  0  0  0  0  0  0  0  0  0
   -4.3894   -5.5752   -2.5749 H   0  0  0  0  0  0  0  0  0  0  0  0
   -4.1913   -3.8523   -2.7108 H   0  0  0  0  0  0  0  0  0  0  0  0
   -5.0685   -5.2986   -0.1775 H   0  0  0  0  0  0  0  0  0  0  0  0
   -3.4565   -4.6027   -0.4795 H   0  0  0  0  0  0  0  0  0  0  0  0
   -4.8536   -3.5444   -0.3115 H   0  0  0  0  0  0  0  0  0  0  0  0
    1.2403   -0.3997   -3.2935 H   0  0  0  0  0  0  0  0  0  0  0  0
   -3.7043    1.1654   -9.1483 H   0  0  0  0  0  0  0  0  0  0  0  0
   -5.1702   -3.5902   -4.6647 H   0  0  0  0  0  0  0  0  0  0  0  0
  1  2  1  0  0  0  0
  1 21  1  0  0  0  0
  1 22  2  0  0  0  0
  2  3  1  0  0  0  0
  2 30  1  0  0  0  0
  2 31  1  0  0  0  0
  3  4  1  0  0  0  0
  3 32  1  0  0  0  0
  3 33  1  0  0  0  0
  4  5  1  0  0  0  0
  4 34  1  0  0  0  0
  4 35  1  0  0  0  0
  5  6  2  0  0  0  0
  5 36  1  0  0  0  0
  6  7  1  0  0  0  0
  6 37  1  0  0  0  0
  7 38  1  0  0  0  0
  7 39  1  0  0  0  0
  8  9  1  0  0  0  0
  8 12  1  0  0  0  0
  8 26  1  1  0  0  0
  8  7  1  0  0  0  0
  9 10  1  0  0  0  0
  9 27  1  6  0  0  0
  9 23  1  0  0  0  0
 10 11  1  0  0  0  0
 10 40  1  0  0  0  0
 10 41  1  0  0  0  0
 11 12  1  0  0  0  0
 11 24  2  0  0  0  0
 12 28  1  1  0  0  0
 12 13  1  0  0  0  0
 13 14  2  0  0  0  0
 13 42  1  0  0  0  0
 14 43  1  0  0  0  0
 15 25  1  0  0  0  0
 15 29  1  6  0  0  0
 15 16  1  0  0  0  0
 15 14  1  0  0  0  0
 16 17  1  0  0  0  0
 16 44  1  0  0  0  0
 16 45  1  0  0  0  0
 17 18  1  0  0  0  0
 17 46  1  0  0  0  0
 17 47  1  0  0  0  0
 18 19  1  0  0  0  0
 18 48  1  0  0  0  0
 18 49  1  0  0  0  0
 19 20  1  0  0  0  0
 19 50  1  0  0  0  0
 19 51  1  0  0  0  0
 20 52  1  0  0  0  0
 20 53  1  0  0  0  0
 20 54  1  0  0  0  0
 21 55  1  0  0  0  0
 23 56  1  0  0  0  0
 25 57  1  0  0  0  0
M  END
>  <DRUGBANK_ID>
DB02056

>  <SECONDARY_ACCESSION_NUMBERS>
EXPT02562; DB08863

>  <COMMON_NAME>
Prostaglandin D2

>  <CAS_NUMBER>
41598-07-6

>  <UNII>
RXY07S6CZ2

>  <SYNONYMS>
(5Z,13E,15S)-9alpha,15-Dihydroxy-11-oxoprosta-5,13-dienoate; (5Z,13E)-(15S)-9alpha,15-Dihydroxy-11-oxoprosta-5,13-dienoate; 11-Dehydroprostaglandin F2-alpha; PGD2

$$$$
