FRV
 OpenBabel10282417163D

 47 50  0  0  0  0  0  0  0  0999 V2000
    1.3585   -0.2266   -0.0074 C   0  0  0  0  0  0  0  0  0  0  0  0
   -0.8312   -6.3780    3.1597 N   0  0  0  0  0  0  0  0  0  0  0  0
   -1.1907   -5.1035    3.7653 C   0  0  0  0  0  0  0  0  0  0  0  0
   -0.7664   -7.5676    3.8718 C   0  0  0  0  0  0  0  0  0  0  0  0
   -0.9793   -7.7186    5.3392 C   0  0  0  0  0  0  0  0  0  0  0  0
   -2.4803   -4.4042    3.3594 C   0  0  0  0  0  0  0  0  0  0  0  0
   -1.5951   -5.8524   -0.2497 C   0  0  0  0  0  0  0  0  0  0  0  0
   -0.6044   -5.7492    0.6990 C   0  0  0  0  0  0  0  0  0  0  0  0
   -0.6016   -6.6653    1.8265 C   0  0  0  0  0  0  0  0  0  0  0  0
   -0.4402   -8.0380    1.8075 C   0  0  0  0  0  0  0  0  0  0  0  0
   -1.5775   -4.8829   -1.2100 C   0  0  0  0  0  0  0  0  0  0  0  0
    0.4876   -1.3304   -0.0220 C   0  0  0  0  0  0  0  0  0  0  0  0
    0.2241   -3.8249   -0.2378 C   0  0  0  0  0  0  0  0  0  0  0  0
    0.3676   -4.8040    0.6748 N   0  0  0  0  0  0  0  0  0  0  0  0
   -1.0062    4.7631    2.2385 C   0  0  0  0  0  0  0  0  0  0  0  0
   -0.8910   -1.0630   -0.0223 C   0  0  0  0  0  0  0  0  0  0  0  0
   -1.3929    0.2358    0.0186 C   0  0  0  0  0  0  0  0  0  0  0  0
   -0.5137    1.3107    0.0952 C   0  0  0  0  0  0  0  0  0  0  0  0
   -2.6118    2.7814    0.5868 O   0  0  0  0  0  0  0  0  0  0  0  0
   -1.1957    2.9273    0.3482 S   0  0  0  0  0  0  0  0  0  0  0  0
   -0.6787    3.8089   -0.6795 O   0  0  0  0  0  0  0  0  0  0  0  0
   -0.5428    3.4130    1.8471 N   0  0  0  0  0  0  0  0  0  0  0  0
    0.8638    1.0937    0.0231 C   0  0  0  0  0  0  0  0  0  0  0  0
    0.9771   -2.6505   -0.1025 N   0  0  0  0  0  0  0  0  0  0  0  0
   -0.7163   -3.8555   -1.1974 N   0  0  0  0  0  0  0  0  0  0  0  0
   -0.5443   -8.5823    3.0565 N   0  0  0  0  0  0  0  0  0  0  0  0
   -1.1675   -3.7418    3.1194 C   0  0  0  0  0  0  0  0  0  0  0  0
    2.4358   -0.3796   -0.0037 H   0  0  0  0  0  0  0  0  0  0  0  0
   -0.9773   -5.0803    4.8292 H   0  0  0  0  0  0  0  0  0  0  0  0
   -1.8033   -8.4136    5.5350 H   0  0  0  0  0  0  0  0  0  0  0  0
   -0.0755   -8.1267    5.8027 H   0  0  0  0  0  0  0  0  0  0  0  0
   -1.2214   -6.7892    5.8549 H   0  0  0  0  0  0  0  0  0  0  0  0
   -3.0338   -4.7964    2.5128 H   0  0  0  0  0  0  0  0  0  0  0  0
   -3.1147   -3.9892    4.1339 H   0  0  0  0  0  0  0  0  0  0  0  0
   -2.3456   -6.6302   -0.2339 H   0  0  0  0  0  0  0  0  0  0  0  0
   -0.2548   -8.6577    0.9389 H   0  0  0  0  0  0  0  0  0  0  0  0
   -2.2902   -4.8789   -2.0272 H   0  0  0  0  0  0  0  0  0  0  0  0
   -2.0918    4.7658    2.3792 H   0  0  0  0  0  0  0  0  0  0  0  0
   -0.5484    5.0510    3.1891 H   0  0  0  0  0  0  0  0  0  0  0  0
   -0.7256    5.5020    1.4836 H   0  0  0  0  0  0  0  0  0  0  0  0
   -1.6141   -1.8735   -0.0286 H   0  0  0  0  0  0  0  0  0  0  0  0
   -2.4695    0.3867   -0.0067 H   0  0  0  0  0  0  0  0  0  0  0  0
   -0.7645    2.7228    2.5678 H   0  0  0  0  0  0  0  0  0  0  0  0
    1.5520    1.9364   -0.0143 H   0  0  0  0  0  0  0  0  0  0  0  0
    1.9382   -2.8239    0.1418 H   0  0  0  0  0  0  0  0  0  0  0  0
   -0.8758   -2.8923    3.7242 H   0  0  0  0  0  0  0  0  0  0  0  0
   -0.8711   -3.5940    2.1017 H   0  0  0  0  0  0  0  0  0  0  0  0
  1 28  1  0  0  0  0
  2  4  1  0  0  0  0
  2  3  1  0  0  0  0
  3  6  1  0  0  0  0
  3 27  1  0  0  0  0
  3 29  1  0  0  0  0
  4 26  2  0  0  0  0
  4  5  1  0  0  0  0
  5 30  1  0  0  0  0
  5 31  1  0  0  0  0
  5 32  1  0  0  0  0
  6 27  1  0  0  0  0
  6 33  1  0  0  0  0
  6 34  1  0  0  0  0
  7 35  1  0  0  0  0
  8 14  1  0  0  0  0
  8  7  2  0  0  0  0
  8  9  1  0  0  0  0
  9  2  1  0  0  0  0
  9 10  2  0  0  0  0
 10 36  1  0  0  0  0
 11  7  1  0  0  0  0
 11 37  1  0  0  0  0
 12 16  1  0  0  0  0
 12  1  2  0  0  0  0
 13 25  1  0  0  0  0
 13 24  1  0  0  0  0
 14 13  2  0  0  0  0
 15 38  1  0  0  0  0
 15 39  1  0  0  0  0
 15 40  1  0  0  0  0
 16 17  2  0  0  0  0
 16 41  1  0  0  0  0
 17 18  1  0  0  0  0
 17 42  1  0  0  0  0
 18 23  2  0  0  0  0
 18 20  1  0  0  0  0
 20 22  1  0  0  0  0
 20 21  2  0  0  0  0
 20 19  2  0  0  0  0
 22 15  1  0  0  0  0
 22 43  1  0  0  0  0
 23  1  1  0  0  0  0
 23 44  1  0  0  0  0
 24 12  1  0  0  0  0
 24 45  1  0  0  0  0
 25 11  2  0  0  0  0
 26 10  1  0  0  0  0
 27 46  1  0  0  0  0
 27 47  1  0  0  0  0
M  END
>  <DRUGBANK_ID>
DB07791

>  <COMMON_NAME>
4-{[4-(1-CYCLOPROPYL-2-METHYL-1H-IMIDAZOL-5-YL)PYRIMIDIN-2-YL]AMINO}-N-METHYLBENZENESULFONAMIDE

$$$$
