
 OpenBabel10282417133D

 24 24  0  0  1  0  0  0  0  0999 V2000
   -0.0254    0.3895    4.5816 O   0  0  0  0  0  0  0  0  0  0  0  0
    0.8357    0.9362    3.5871 C   0  0  0  0  0  0  0  0  0  0  0  0
    1.0856    0.0044    2.3739 C   0  0  1  0  0  0  0  0  0  0  0  0
    2.5127   -0.1576    2.2249 O   0  0  0  0  0  0  0  0  0  0  0  0
    2.9073   -0.9281    1.0860 C   0  0  1  0  0  0  0  0  0  0  0  0
    4.7290   -1.0067    0.9988 S   0  0  0  0  0  0  0  0  0  0  0  0
    2.3005   -2.3416    1.1467 C   0  0  2  0  0  0  0  0  0  0  0  0
    2.5855   -3.1473   -0.0110 O   0  0  0  0  0  0  0  0  0  0  0  0
    0.7756   -2.2173    1.2584 C   0  0  1  0  0  0  0  0  0  0  0  0
    0.2125   -3.5297    1.3386 O   0  0  0  0  0  0  0  0  0  0  0  0
    0.3869   -1.3660    2.4693 C   0  0  2  0  0  0  0  0  0  0  0  0
   -1.4527   -1.2035    2.5202 S   0  0  0  0  0  0  0  0  0  0  0  0
   -0.8828    0.2129    4.1477 H   0  0  0  0  0  0  0  0  0  0  0  0
    0.3718    1.8669    3.2420 H   0  0  0  0  0  0  0  0  0  0  0  0
    1.7714    1.2047    4.0862 H   0  0  0  0  0  0  0  0  0  0  0  0
    0.7461    0.5377    1.4749 H   0  0  0  0  0  0  0  0  0  0  0  0
    2.5873   -0.4161    0.1707 H   0  0  0  0  0  0  0  0  0  0  0  0
    4.8159   -1.1924   -0.3268 H   0  0  0  0  0  0  0  0  0  0  0  0
    2.6749   -2.8887    2.0223 H   0  0  0  0  0  0  0  0  0  0  0  0
    2.1912   -2.7266   -0.7934 H   0  0  0  0  0  0  0  0  0  0  0  0
    0.3878   -1.7613    0.3373 H   0  0  0  0  0  0  0  0  0  0  0  0
    0.6891   -4.0754    0.6782 H   0  0  0  0  0  0  0  0  0  0  0  0
    0.7045   -1.8857    3.3827 H   0  0  0  0  0  0  0  0  0  0  0  0
   -1.6075   -1.8038    3.7140 H   0  0  0  0  0  0  0  0  0  0  0  0
  1  2  1  0  0  0  0
  1 13  1  0  0  0  0
  2 14  1  0  0  0  0
  2 15  1  0  0  0  0
  3  4  1  0  0  0  0
  3 11  1  0  0  0  0
  3 16  1  6  0  0  0
  3  2  1  0  0  0  0
  4  5  1  0  0  0  0
  5  7  1  0  0  0  0
  5 17  1  6  0  0  0
  5  6  1  0  0  0  0
  6 18  1  0  0  0  0
  7  8  1  0  0  0  0
  7  9  1  0  0  0  0
  7 19  1  1  0  0  0
  8 20  1  0  0  0  0
  9 11  1  0  0  0  0
  9 21  1  6  0  0  0
  9 10  1  0  0  0  0
 10 22  1  0  0  0  0
 11 23  1  1  0  0  0
 11 12  1  0  0  0  0
 12 24  1  0  0  0  0
M  END
>  <DRUGBANK_ID>
DB03857

>  <SECONDARY_ACCESSION_NUMBERS>
EXPT02958

>  <COMMON_NAME>
1,4-dithio-beta-D-glucopyranose

>  <SYNONYMS>
1,4-deoxy-1,4-dithio-beta-D-glucopyranose

$$$$
