
 OpenBabel10282417173D

 57 58  0  0  0  0  0  0  0  0999 V2000
    0.8893   -0.1465   -0.2122 C   0  0  0  0  0  0  0  0  0  0  0  0
    0.6247   -0.3593    1.2864 C   0  0  0  0  0  0  0  0  0  0  0  0
    1.0170    0.8166    2.2648 C   0  0  3  0  0  0  0  0  0  0  0  0
    0.3208    2.1538    1.7908 C   0  0  0  0  0  0  0  0  0  0  0  0
   -1.1299    2.0960    1.8759 O   0  0  0  0  0  0  0  0  0  0  0  0
   -1.8029    1.3736    0.9490 C   0  0  0  0  0  0  0  0  0  0  0  0
   -1.4157    0.8958   -0.0901 O   0  0  0  0  0  0  0  0  0  0  0  0
   -3.2284    1.3196    1.2002 C   0  0  0  0  0  0  0  0  0  0  0  0
   -3.8443    2.5504    1.0999 C   0  0  0  0  0  0  0  0  0  0  0  0
   -5.2125    2.6147    0.9232 C   0  0  0  0  0  0  0  0  0  0  0  0
   -5.9708    1.4276    0.8562 C   0  0  0  0  0  0  0  0  0  0  0  0
   -5.3186    0.1715    0.8577 C   0  0  0  0  0  0  0  0  0  0  0  0
   -3.9393    0.1207    1.0864 C   0  0  0  0  0  0  0  0  0  0  0  0
   -5.8957   -1.0543    0.5959 O   0  0  0  0  0  0  0  0  0  0  0  0
   -7.2568   -1.0517    0.1594 C   0  0  0  0  0  0  0  0  0  0  0  0
   -7.3372    1.3943    0.8018 O   0  0  0  0  0  0  0  0  0  0  0  0
   -8.0837    2.5906    0.8743 C   0  0  0  0  0  0  0  0  0  0  0  0
   -5.8501    3.8073    0.7461 O   0  0  0  0  0  0  0  0  0  0  0  0
   -5.0721    4.9889    0.7543 C   0  0  0  0  0  0  0  0  0  0  0  0
    0.4818    0.4648    3.7040 C   0  0  0  0  0  0  0  0  0  0  0  0
    0.4749   -0.8624    4.1647 C   0  0  0  0  0  0  0  0  0  0  0  0
    0.1730   -1.1704    5.4906 C   0  0  0  0  0  0  0  0  0  0  0  0
   -0.0931   -0.1550    6.4012 C   0  0  0  0  0  0  0  0  0  0  0  0
   -0.0891    1.1678    5.9806 C   0  0  0  0  0  0  0  0  0  0  0  0
    0.1294    1.4689    4.6365 C   0  0  0  0  0  0  0  0  0  0  0  0
    2.5270    0.9094    2.3335 N   0  0  0  0  0  0  0  0  0  0  0  0
    3.1951    1.2342    1.0748 C   0  0  0  0  0  0  0  0  0  0  0  0
    3.0223    1.8633    3.3266 C   0  0  0  0  0  0  0  0  0  0  0  0
    0.7575    0.8920   -0.5318 H   0  0  0  0  0  0  0  0  0  0  0  0
    0.2398   -0.7859   -0.8141 H   0  0  0  0  0  0  0  0  0  0  0  0
    1.8875   -0.4422   -0.5125 H   0  0  0  0  0  0  0  0  0  0  0  0
   -0.4373   -0.5939    1.4458 H   0  0  0  0  0  0  0  0  0  0  0  0
    1.1248   -1.2943    1.5541 H   0  0  0  0  0  0  0  0  0  0  0  0
    0.6247    2.9871    2.4384 H   0  0  0  0  0  0  0  0  0  0  0  0
    0.6297    2.4842    0.7957 H   0  0  0  0  0  0  0  0  0  0  0  0
   -3.2118    3.4309    1.0784 H   0  0  0  0  0  0  0  0  0  0  0  0
   -3.4144   -0.8336    1.1054 H   0  0  0  0  0  0  0  0  0  0  0  0
   -7.9124   -0.7742    0.9915 H   0  0  0  0  0  0  0  0  0  0  0  0
   -7.4072   -0.4090   -0.7191 H   0  0  0  0  0  0  0  0  0  0  0  0
   -7.5507   -2.0618   -0.1359 H   0  0  0  0  0  0  0  0  0  0  0  0
   -7.8672    3.1365    1.7983 H   0  0  0  0  0  0  0  0  0  0  0  0
   -7.9230    3.1889   -0.0269 H   0  0  0  0  0  0  0  0  0  0  0  0
   -9.1407    2.3203    0.8935 H   0  0  0  0  0  0  0  0  0  0  0  0
   -4.5635    5.1070    1.7159 H   0  0  0  0  0  0  0  0  0  0  0  0
   -4.3654    4.9946   -0.0822 H   0  0  0  0  0  0  0  0  0  0  0  0
   -5.7604    5.8251    0.6264 H   0  0  0  0  0  0  0  0  0  0  0  0
    0.7328   -1.6876    3.5101 H   0  0  0  0  0  0  0  0  0  0  0  0
    0.1914   -2.2076    5.8116 H   0  0  0  0  0  0  0  0  0  0  0  0
   -0.2963   -0.3946    7.4394 H   0  0  0  0  0  0  0  0  0  0  0  0
   -0.2243    1.9727    6.6983 H   0  0  0  0  0  0  0  0  0  0  0  0
    0.0744    2.5179    4.3605 H   0  0  0  0  0  0  0  0  0  0  0  0
    2.7842    2.1292    0.5999 H   0  0  0  0  0  0  0  0  0  0  0  0
    4.2702    1.3867    1.2106 H   0  0  0  0  0  0  0  0  0  0  0  0
    3.1893    0.3993    0.3887 H   0  0  0  0  0  0  0  0  0  0  0  0
    2.7172    2.8855    3.0868 H   0  0  0  0  0  0  0  0  0  0  0  0
    2.7135    1.6159    4.3429 H   0  0  0  0  0  0  0  0  0  0  0  0
    4.1174    1.8392    3.3531 H   0  0  0  0  0  0  0  0  0  0  0  0
  1  2  1  0  0  0  0
  1 29  1  0  0  0  0
  1 30  1  0  0  0  0
  1 31  1  0  0  0  0
  2  3  1  0  0  0  0
  2 32  1  0  0  0  0
  2 33  1  0  0  0  0
  3  4  1  0  0  0  0
  3 20  1  0  0  0  0
  3 26  1  0  0  0  0
  4  5  1  0  0  0  0
  4 34  1  0  0  0  0
  4 35  1  0  0  0  0
  5  6  1  0  0  0  0
  6  7  2  0  0  0  0
  6  8  1  0  0  0  0
  8  9  2  0  0  0  0
  8 13  1  0  0  0  0
  9 10  1  0  0  0  0
  9 36  1  0  0  0  0
 10 11  2  0  0  0  0
 10 18  1  0  0  0  0
 11 12  1  0  0  0  0
 11 16  1  0  0  0  0
 12 13  2  0  0  0  0
 12 14  1  0  0  0  0
 13 37  1  0  0  0  0
 14 15  1  0  0  0  0
 15 38  1  0  0  0  0
 15 39  1  0  0  0  0
 15 40  1  0  0  0  0
 16 17  1  0  0  0  0
 17 41  1  0  0  0  0
 17 42  1  0  0  0  0
 17 43  1  0  0  0  0
 18 19  1  0  0  0  0
 19 44  1  0  0  0  0
 19 45  1  0  0  0  0
 19 46  1  0  0  0  0
 20 21  2  0  0  0  0
 20 25  1  0  0  0  0
 21 22  1  0  0  0  0
 21 47  1  0  0  0  0
 22 23  2  0  0  0  0
 22 48  1  0  0  0  0
 23 24  1  0  0  0  0
 23 49  1  0  0  0  0
 24 25  2  0  0  0  0
 24 50  1  0  0  0  0
 25 51  1  0  0  0  0
 26 27  1  0  0  0  0
 26 28  1  0  0  0  0
 27 52  1  0  0  0  0
 27 53  1  0  0  0  0
 27 54  1  0  0  0  0
 28 55  1  0  0  0  0
 28 56  1  0  0  0  0
 28 57  1  0  0  0  0
M  END
>  <DRUGBANK_ID>
DB09089

>  <COMMON_NAME>
Trimebutine

>  <CAS_NUMBER>
39133-31-8

>  <UNII>
QZ1OJ92E5R

>  <SYNONYMS>
2-Dimethylamino-2-phenylbutyl 3,4,5-trimethoxybenzoat; Trim√©butine; Trimebutine; Trimebutino

$$$$
