
 OpenBabel10282417123D

 19 19  0  0  0  0  0  0  0  0999 V2000
    1.0068   -0.0657    0.0415 O   0  0  0  0  0  0  0  0  0  0  0  0
    2.2329   -0.0818    0.0399 C   0  0  0  0  0  0  0  0  0  0  0  0
    2.9738    0.8521    0.6869 N   0  0  0  0  0  0  0  0  0  0  0  0
    4.4167    0.9532    0.6308 C   0  0  0  0  0  0  0  0  0  0  0  0
    4.8668    2.2395   -0.0175 C   0  0  0  0  0  0  0  0  0  0  0  0
    4.2274    3.4454    0.3115 C   0  0  0  0  0  0  0  0  0  0  0  0
    4.6363    4.6536   -0.2435 C   0  0  0  0  0  0  0  0  0  0  0  0
    5.7317    4.6853   -1.0976 C   0  0  0  0  0  0  0  0  0  0  0  0
    6.4203    3.5083   -1.3894 C   0  0  0  0  0  0  0  0  0  0  0  0
    5.9704    2.2834   -0.8829 C   0  0  0  0  0  0  0  0  0  0  0  0
    2.8221   -0.8611   -0.4637 H   0  0  0  0  0  0  0  0  0  0  0  0
    2.4333    1.5818    1.1318 H   0  0  0  0  0  0  0  0  0  0  0  0
    4.7797    0.9406    1.6646 H   0  0  0  0  0  0  0  0  0  0  0  0
    4.8233    0.0781    0.1127 H   0  0  0  0  0  0  0  0  0  0  0  0
    3.3921    3.4568    1.0052 H   0  0  0  0  0  0  0  0  0  0  0  0
    4.1011    5.5650    0.0064 H   0  0  0  0  0  0  0  0  0  0  0  0
    6.0477    5.6291   -1.5331 H   0  0  0  0  0  0  0  0  0  0  0  0
    7.3115    3.5509   -2.0112 H   0  0  0  0  0  0  0  0  0  0  0  0
    6.4942    1.3741   -1.1721 H   0  0  0  0  0  0  0  0  0  0  0  0
  1  2  2  0  0  0  0
  2  3  1  0  0  0  0
  2 11  1  0  0  0  0
  3  4  1  0  0  0  0
  3 12  1  0  0  0  0
  4  5  1  0  0  0  0
  4 13  1  0  0  0  0
  4 14  1  0  0  0  0
  5  6  2  0  0  0  0
  5 10  1  0  0  0  0
  6  7  1  0  0  0  0
  6 15  1  0  0  0  0
  7  8  2  0  0  0  0
  7 16  1  0  0  0  0
  8  9  1  0  0  0  0
  8 17  1  0  0  0  0
  9 10  2  0  0  0  0
  9 18  1  0  0  0  0
 10 19  1  0  0  0  0
M  END
>  <DRUGBANK_ID>
DB02481

>  <SECONDARY_ACCESSION_NUMBERS>
EXPT00729

>  <COMMON_NAME>
N-Benzylformamide

>  <CAS_NUMBER>
6343-54-0

>  <UNII>
L363D92ELK

$$$$
