
 OpenBabel10282417203D

 57 60  0  0  1  0  0  0  0  0999 V2000
   -6.1017   -9.4283    2.1491 C   0  0  0  0  0  0  0  0  0  0  0  0
   -5.6214   -8.0125    2.4807 C   0  0  2  0  0  0  0  0  0  0  0  0
   -4.0968   -6.9166    1.7893 C   0  0  0  0  0  0  0  0  0  0  0  0
   -5.0970   -6.3033    2.3438 C   0  0  1  0  0  0  0  0  0  0  0  0
   -5.5372   -4.9659    2.7348 C   0  0  2  0  0  0  0  0  0  0  0  0
   -5.6690   -3.9021    1.6536 C   0  0  0  0  0  0  0  0  0  0  0  0
   -6.4797   -2.7241    2.2329 C   0  0  1  0  0  0  0  0  0  0  0  0
   -5.8926   -2.2167    3.5656 C   0  0  0  0  0  0  0  0  0  0  0  0
   -5.9271   -0.9007    3.8561 C   0  0  0  0  0  0  0  0  0  0  0  0
   -5.1833   -0.3171    5.0157 C   0  0  0  0  0  0  0  0  0  0  0  0
   -5.3264    0.8611    5.3168 O   0  0  0  0  0  0  0  0  0  0  0  0
   -4.3232   -1.2210    5.8548 C   0  0  0  0  0  0  0  0  0  0  0  0
   -4.0498   -2.3873    5.2147 C   0  0  0  0  0  0  0  0  0  0  0  0
   -5.2568   -3.1597    4.6441 C   0  0  2  0  0  0  0  0  0  0  0  0
   -4.7757   -4.5423    4.0743 C   0  0  1  0  0  0  0  0  0  0  0  0
   -4.4244   -5.5353    5.2986 C   0  0  2  0  0  0  0  0  0  0  0  0
   -3.6494   -6.7531    4.7789 C   0  0  0  0  0  0  0  0  0  0  0  0
   -4.3529   -7.3894    3.5872 C   0  0  2  0  0  0  0  0  0  0  0  0
   -5.5558   -8.0390    4.0278 C   0  0  1  0  0  0  0  0  0  0  0  0
   -6.6112   -7.2659    4.8963 C   0  0  0  0  0  0  0  0  0  0  0  0
   -6.7444   -7.6678    6.0735 O   0  0  0  0  0  0  0  0  0  0  0  0
   -7.5039   -5.9014    4.5201 C   0  0  0  0  0  0  0  0  0  0  0  0
   -7.6885   -4.6056    4.0377 O   0  0  0  0  0  0  0  0  0  0  0  0
   -5.0730   -9.1966    4.7251 O   0  0  0  0  0  0  0  0  0  0  0  0
   -3.3518   -8.7325    2.6829 C   0  0  0  0  0  0  0  0  0  0  0  0
   -5.2551   -5.6994    6.4528 O   0  0  0  0  0  0  0  0  0  0  0  0
   -3.5071   -4.3195    3.5214 F   0  0  0  0  0  0  0  0  0  0  0  0
   -6.1917   -3.2747    5.8977 C   0  0  0  0  0  0  0  0  0  0  0  0
   -5.0261   -1.1398    7.5188 Cl  0  0  0  0  0  0  0  0  0  0  0  0
   -6.5124   -1.7322    1.2994 F   0  0  0  0  0  0  0  0  0  0  0  0
   -5.9016  -10.1609    2.9446 H   0  0  0  0  0  0  0  0  0  0  0  0
   -5.7127   -9.7591    1.2062 H   0  0  0  0  0  0  0  0  0  0  0  0
   -7.2005   -9.4259    2.1022 H   0  0  0  0  0  0  0  0  0  0  0  0
   -6.6293   -7.4966    2.4007 H   0  0  0  0  0  0  0  0  0  0  0  0
   -3.9032   -6.1962    0.9628 H   0  0  0  0  0  0  0  0  0  0  0  0
   -3.2605   -6.3862    2.4497 H   0  0  0  0  0  0  0  0  0  0  0  0
   -5.6238   -6.5149    1.2893 H   0  0  0  0  0  0  0  0  0  0  0  0
   -6.5681   -5.3478    2.6549 H   0  0  0  0  0  0  0  0  0  0  0  0
   -4.6744   -3.5984    1.3407 H   0  0  0  0  0  0  0  0  0  0  0  0
   -6.1739   -4.2821    0.7371 H   0  0  0  0  0  0  0  0  0  0  0  0
   -7.5349   -3.0113    2.3608 H   0  0  0  0  0  0  0  0  0  0  0  0
   -6.5177   -0.1987    3.2840 H   0  0  0  0  0  0  0  0  0  0  0  0
   -3.3650   -2.3268    4.3510 H   0  0  0  0  0  0  0  0  0  0  0  0
   -3.6439   -5.0200    5.8604 H   0  0  0  0  0  0  0  0  0  0  0  0
   -3.4423   -7.4872    5.5627 H   0  0  0  0  0  0  0  0  0  0  0  0
   -2.6649   -6.3945    4.4662 H   0  0  0  0  0  0  0  0  0  0  0  0
   -8.3048   -6.3291    3.9552 H   0  0  0  0  0  0  0  0  0  0  0  0
   -7.7932   -5.6313    5.5328 H   0  0  0  0  0  0  0  0  0  0  0  0
   -6.8760   -4.1510    3.8547 H   0  0  0  0  0  0  0  0  0  0  0  0
   -4.7574   -8.9331    5.6175 H   0  0  0  0  0  0  0  0  0  0  0  0
   -3.2163   -9.6586    3.2190 H   0  0  0  0  0  0  0  0  0  0  0  0
   -3.8930   -9.0577    1.7451 H   0  0  0  0  0  0  0  0  0  0  0  0
   -2.4573   -8.3477    2.1584 H   0  0  0  0  0  0  0  0  0  0  0  0
   -6.1400   -6.1096    6.4874 H   0  0  0  0  0  0  0  0  0  0  0  0
   -7.1183   -3.8229    5.9077 H   0  0  0  0  0  0  0  0  0  0  0  0
   -5.6365   -3.5975    6.7918 H   0  0  0  0  0  0  0  0  0  0  0  0
   -6.6236   -2.2986    6.0789 H   0  0  0  0  0  0  0  0  0  0  0  0
  1 31  1  0  0  0  0
  1 32  1  0  0  0  0
  1 33  1  0  0  0  0
  2  1  1  0  0  0  0
  2  3  1  0  0  0  0
  2 19  1  0  0  0  0
  2 34  1  6  0  0  0
  3 35  1  0  0  0  0
  3 36  1  0  0  0  0
  4  3  1  0  0  0  0
  4  5  1  0  0  0  0
  4 18  1  0  0  0  0
  4 37  1  1  0  0  0
  5  6  1  0  0  0  0
  5 15  1  0  0  0  0
  5 38  1  1  0  0  0
  6  7  1  0  0  0  0
  6 39  1  0  0  0  0
  6 40  1  0  0  0  0
  7  8  1  0  0  0  0
  7 30  1  0  0  0  0
  7 41  1  1  0  0  0
  8  9  2  0  0  0  0
  8 14  1  0  0  0  0
  9 10  1  0  0  0  0
  9 42  1  0  0  0  0
 10 11  2  0  0  0  0
 10 12  1  0  0  0  0
 12 13  2  0  0  0  0
 12 29  1  0  0  0  0
 13 14  1  0  0  0  0
 13 43  1  0  0  0  0
 14 15  1  0  0  0  0
 14 28  1  1  0  0  0
 15 16  1  0  0  0  0
 15 27  1  6  0  0  0
 16 17  1  0  0  0  0
 16 26  1  0  0  0  0
 16 44  1  1  0  0  0
 17 18  1  0  0  0  0
 17 45  1  0  0  0  0
 17 46  1  0  0  0  0
 18 19  1  0  0  0  0
 18 25  1  1  0  0  0
 19 20  1  1  0  0  0
 19 24  1  0  0  0  0
 20 21  2  0  0  0  0
 20 22  1  0  0  0  0
 22 23  1  0  0  0  0
 22 47  1  0  0  0  0
 22 48  1  0  0  0  0
 23 49  1  0  0  0  0
 24 50  1  0  0  0  0
 25 51  1  0  0  0  0
 25 52  1  0  0  0  0
 25 53  1  0  0  0  0
 26 54  1  0  0  0  0
 28 55  1  0  0  0  0
 28 56  1  0  0  0  0
 28 57  1  0  0  0  0
M  END
>  <DRUGBANK_ID>
DB13728

>  <COMMON_NAME>
Halometasone

>  <CAS_NUMBER>
50629-82-8

>  <UNII>
J69Z9UU41Z

>  <SYNONYMS>
Halometasone

$$$$
