
 OpenBabel10282417153D

 86 91  0  0  0  0  0  0  0  0999 V2000
    0.8830    0.0274    0.0971 C   0  0  0  0  0  0  0  0  0  0  0  0
    0.2815   -1.2238   -0.2458 O   0  0  0  0  0  0  0  0  0  0  0  0
    0.6329   -1.6811   -1.4863 C   0  0  0  0  0  0  0  0  0  0  0  0
   -0.3739   -2.1576   -2.3184 C   0  0  0  0  0  0  0  0  0  0  0  0
   -0.0674   -2.7333   -3.5490 C   0  0  0  0  0  0  0  0  0  0  0  0
    1.2597   -2.8404   -3.9443 C   0  0  0  0  0  0  0  0  0  0  0  0
    2.2544   -2.2824   -3.1542 C   0  0  0  0  0  0  0  0  0  0  0  0
    1.9515   -1.8278   -1.8665 C   0  0  0  0  0  0  0  0  0  0  0  0
    2.8428   -1.6678   -0.8312 O   0  0  0  0  0  0  0  0  0  0  0  0
    4.1507   -1.5880   -1.2706 C   0  0  0  0  0  0  0  0  0  0  0  0
    1.5136   -3.3094   -5.3374 C   0  0  0  0  0  0  0  0  0  0  0  0
    0.7047   -4.2844   -6.0555 N   0  0  0  0  0  0  0  0  0  0  0  0
   -0.5682   -4.4363   -5.3346 C   0  0  0  0  0  0  0  0  0  0  0  0
   -1.0961   -3.2075   -4.5413 C   0  0  0  0  0  0  0  0  0  0  0  0
    0.5020   -3.8861   -7.5011 C   0  0  0  0  0  0  0  0  0  0  0  0
   -0.3135   -2.5745   -7.8905 C   0  0  0  0  0  0  0  0  0  0  0  0
    0.2769   -1.1898   -7.6538 C   0  0  0  0  0  0  0  0  0  0  0  0
   -0.3093    0.0282   -7.9123 C   0  0  0  0  0  0  0  0  0  0  0  0
    0.2796    1.2194   -7.3710 C   0  0  0  0  0  0  0  0  0  0  0  0
    1.2825    1.1305   -6.3964 C   0  0  0  0  0  0  0  0  0  0  0  0
    1.5355   -0.1195   -6.0017 C   0  0  0  0  0  0  0  0  0  0  0  0
    1.4593   -1.0380   -7.0120 C   0  0  0  0  0  0  0  0  0  0  0  0
    2.0711    2.1711   -5.8746 N   0  0  0  0  0  0  0  0  0  0  0  0
    3.2088    2.1764   -5.0165 C   0  0  0  0  0  0  0  0  0  0  0  0
    3.6420    3.2631   -4.6754 O   0  0  0  0  0  0  0  0  0  0  0  0
    4.0289    0.9645   -4.5603 C   0  0  0  0  0  0  0  0  0  0  0  0
    4.3280   -0.0469   -5.5211 C   0  0  0  0  0  0  0  0  0  0  0  0
    4.9758   -1.2357   -5.1612 C   0  0  0  0  0  0  0  0  0  0  0  0
    5.6329   -1.2860   -3.9403 C   0  0  0  0  0  0  0  0  0  0  0  0
    5.6814   -0.1151   -3.1457 C   0  0  0  0  0  0  0  0  0  0  0  0
    4.6884    0.8707   -3.2812 C   0  0  0  0  0  0  0  0  0  0  0  0
    4.1147    1.2953   -1.9260 N   0  0  0  0  0  0  0  0  0  0  0  0
    4.9240    2.0343   -0.9280 C   0  0  0  0  0  0  0  0  0  0  0  0
    4.8625    3.2011   -1.3045 O   0  0  0  0  0  0  0  0  0  0  0  0
    5.4633    1.7784    0.8045 C   0  0  0  0  0  0  0  0  0  0  0  0
    5.0749    2.9317    1.9308 C   0  0  0  0  0  0  0  0  0  0  0  0
    3.6753    3.0753    2.4109 C   0  0  0  0  0  0  0  0  0  0  0  0
    2.7159    4.2822    2.2451 C   0  0  0  0  0  0  0  0  0  0  0  0
    1.9142    4.4063    1.0624 C   0  0  0  0  0  0  0  0  0  0  0  0
    1.9876    3.3945    0.1875 C   0  0  0  0  0  0  0  0  0  0  0  0
    2.8614    2.4092    0.5982 C   0  0  0  0  0  0  0  0  0  0  0  0
    3.2351    1.9825    1.9087 C   0  0  0  0  0  0  0  0  0  0  0  0
    3.9419    0.7314    2.0476 N   0  0  0  0  0  0  0  0  0  0  0  0
    5.0765    0.6110    1.3329 C   0  0  0  0  0  0  0  0  0  0  0  0
    6.0641   -2.4393   -3.3036 O   0  0  0  0  0  0  0  0  0  0  0  0
    5.7849   -3.7337   -3.8712 C   0  0  0  0  0  0  0  0  0  0  0  0
    4.8963   -2.4006   -5.8607 O   0  0  0  0  0  0  0  0  0  0  0  0
    4.6420   -2.3746   -7.2411 C   0  0  0  0  0  0  0  0  0  0  0  0
    0.5379    0.2813    1.1008 H   0  0  0  0  0  0  0  0  0  0  0  0
    0.5684    0.8079   -0.6025 H   0  0  0  0  0  0  0  0  0  0  0  0
    1.9738    0.0230    0.1582 H   0  0  0  0  0  0  0  0  0  0  0  0
   -1.3922   -2.1474   -1.9604 H   0  0  0  0  0  0  0  0  0  0  0  0
    3.2488   -2.2513   -3.5694 H   0  0  0  0  0  0  0  0  0  0  0  0
    4.5351   -2.5548   -1.5675 H   0  0  0  0  0  0  0  0  0  0  0  0
    4.0392   -0.9596   -2.1177 H   0  0  0  0  0  0  0  0  0  0  0  0
    4.8421   -1.0869   -0.5941 H   0  0  0  0  0  0  0  0  0  0  0  0
    2.5639   -3.3089   -5.6255 H   0  0  0  0  0  0  0  0  0  0  0  0
    0.9940   -2.4648   -5.6991 H   0  0  0  0  0  0  0  0  0  0  0  0
   -1.3350   -4.7946   -6.0225 H   0  0  0  0  0  0  0  0  0  0  0  0
   -0.3774   -5.2343   -4.6086 H   0  0  0  0  0  0  0  0  0  0  0  0
   -1.3525   -2.3783   -5.2149 H   0  0  0  0  0  0  0  0  0  0  0  0
   -1.9980   -3.4952   -4.0052 H   0  0  0  0  0  0  0  0  0  0  0  0
    1.4710   -3.8618   -8.0240 H   0  0  0  0  0  0  0  0  0  0  0  0
   -0.0247   -4.7367   -7.9589 H   0  0  0  0  0  0  0  0  0  0  0  0
   -0.5792   -2.6455   -8.9486 H   0  0  0  0  0  0  0  0  0  0  0  0
   -1.2591   -2.6330   -7.3396 H   0  0  0  0  0  0  0  0  0  0  0  0
   -1.1703    0.0506   -8.5667 H   0  0  0  0  0  0  0  0  0  0  0  0
   -0.0916    2.1775   -7.7038 H   0  0  0  0  0  0  0  0  0  0  0  0
    2.0349   -0.3452   -5.0752 H   0  0  0  0  0  0  0  0  0  0  0  0
    2.1004   -1.8738   -6.9574 H   0  0  0  0  0  0  0  0  0  0  0  0
    1.8429    3.1016   -6.2115 H   0  0  0  0  0  0  0  0  0  0  0  0
    3.8982    0.0168   -6.5153 H   0  0  0  0  0  0  0  0  0  0  0  0
    6.1675   -0.1522   -2.1769 H   0  0  0  0  0  0  0  0  0  0  0  0
    3.4128    1.9817   -2.2474 H   0  0  0  0  0  0  0  0  0  0  0  0
    5.6085    2.8785    2.9284 H   0  0  0  0  0  0  0  0  0  0  0  0
    2.5333    5.0249    3.0136 H   0  0  0  0  0  0  0  0  0  0  0  0
    1.3271    5.2788    0.7690 H   0  0  0  0  0  0  0  0  0  0  0  0
    1.8693    3.4734   -0.8984 H   0  0  0  0  0  0  0  0  0  0  0  0
    3.7286    3.1810    0.3367 H   0  0  0  0  0  0  0  0  0  0  0  0
    5.7312   -0.2743    1.4695 H   0  0  0  0  0  0  0  0  0  0  0  0
    4.7184   -3.9451   -4.0551 H   0  0  0  0  0  0  0  0  0  0  0  0
    6.3746   -3.8440   -4.7816 H   0  0  0  0  0  0  0  0  0  0  0  0
    6.1178   -4.5164   -3.1792 H   0  0  0  0  0  0  0  0  0  0  0  0
    3.5925   -2.4011   -7.4360 H   0  0  0  0  0  0  0  0  0  0  0  0
    5.0791   -1.5079   -7.7275 H   0  0  0  0  0  0  0  0  0  0  0  0
    4.9722   -3.3166   -7.6766 H   0  0  0  0  0  0  0  0  0  0  0  0
  1  2  1  0  0  0  0
  1 49  1  0  0  0  0
  1 50  1  0  0  0  0
  1 51  1  0  0  0  0
  2  3  1  0  0  0  0
  3  4  2  0  0  0  0
  3  8  1  0  0  0  0
  4  5  1  0  0  0  0
  4 52  1  0  0  0  0
  5  6  2  0  0  0  0
  5 14  1  0  0  0  0
  6  7  1  0  0  0  0
  6 11  1  0  0  0  0
  7  8  2  0  0  0  0
  7 53  1  0  0  0  0
  8  9  1  0  0  0  0
  9 10  1  0  0  0  0
 10 54  1  0  0  0  0
 10 55  1  0  0  0  0
 10 56  1  0  0  0  0
 11 12  1  0  0  0  0
 11 57  1  0  0  0  0
 11 58  1  0  0  0  0
 12 13  1  0  0  0  0
 12 15  1  0  0  0  0
 13 14  1  0  0  0  0
 13 59  1  0  0  0  0
 13 60  1  0  0  0  0
 14 61  1  0  0  0  0
 14 62  1  0  0  0  0
 15 16  1  0  0  0  0
 15 63  1  0  0  0  0
 15 64  1  0  0  0  0
 16 17  1  0  0  0  0
 16 65  1  0  0  0  0
 16 66  1  0  0  0  0
 17 18  2  0  0  0  0
 17 22  1  0  0  0  0
 18 19  1  0  0  0  0
 18 67  1  0  0  0  0
 19 20  2  0  0  0  0
 19 68  1  0  0  0  0
 20 21  1  0  0  0  0
 20 23  1  0  0  0  0
 21 22  2  0  0  0  0
 21 69  1  0  0  0  0
 22 70  1  0  0  0  0
 23 24  1  0  0  0  0
 23 71  1  0  0  0  0
 24 25  2  0  0  0  0
 24 26  1  0  0  0  0
 26 27  2  0  0  0  0
 26 31  1  0  0  0  0
 27 28  1  0  0  0  0
 27 72  1  0  0  0  0
 28 29  2  0  0  0  0
 28 47  1  0  0  0  0
 29 30  1  0  0  0  0
 29 45  1  0  0  0  0
 30 31  2  0  0  0  0
 30 73  1  0  0  0  0
 31 32  1  0  0  0  0
 32 33  1  0  0  0  0
 32 74  1  0  0  0  0
 33 34  2  0  0  0  0
 33 35  1  0  0  0  0
 35 36  1  0  0  0  0
 35 44  2  0  0  0  0
 36 37  2  0  0  0  0
 36 75  1  0  0  0  0
 37 38  1  0  0  0  0
 37 42  1  0  0  0  0
 38 39  2  0  0  0  0
 38 76  1  0  0  0  0
 39 40  1  0  0  0  0
 39 77  1  0  0  0  0
 40 41  2  0  0  0  0
 40 78  1  0  0  0  0
 41 42  1  0  0  0  0
 41 79  1  0  0  0  0
 42 43  2  0  0  0  0
 43 44  1  0  0  0  0
 44 80  1  0  0  0  0
 45 46  1  0  0  0  0
 46 81  1  0  0  0  0
 46 82  1  0  0  0  0
 46 83  1  0  0  0  0
 47 48  1  0  0  0  0
 48 84  1  0  0  0  0
 48 85  1  0  0  0  0
 48 86  1  0  0  0  0
M  END
>  <DRUGBANK_ID>
DB06240

>  <COMMON_NAME>
Tariquidar

>  <CAS_NUMBER>
206873-63-4

>  <UNII>
J58862DTVD

>  <SYNONYMS>
Tariquidar

$$$$
