661
 OpenBabel10282417103D

 71 72  0  0  1  0  0  0  0  0999 V2000
    1.0415   -0.1489    0.1758 O   0  0  0  0  0  0  0  0  0  0  0  0
   -1.2919    1.6755    0.2590 O   0  0  0  0  0  0  0  0  0  0  0  0
    3.4017   -6.4421   -5.8410 O   0  0  0  0  0  0  0  0  0  0  0  0
    1.0101   -5.4487   -7.1515 O   0  0  0  0  0  0  0  0  0  0  0  0
    4.3469    0.8281   -5.9663 N   0  0  0  0  0  0  0  0  0  0  0  0
    2.9785   -1.8709   -4.2600 N   0  0  0  0  0  0  0  0  0  0  0  0
    0.6781   -0.3825   -4.7359 C   0  0  3  0  0  0  0  0  0  0  0  0
   -0.5332   -1.1230   -5.4791 C   0  0  0  0  0  0  0  0  0  0  0  0
    1.0021    0.9685   -5.4682 C   0  0  0  0  0  0  0  0  0  0  0  0
    2.1675    1.8313   -4.9087 C   0  0  0  0  0  0  0  0  0  0  0  0
    0.1202    0.1100   -3.3582 C   0  0  0  0  0  0  0  0  0  0  0  0
    3.5949    1.2075   -4.7272 C   0  0  0  0  0  0  0  0  0  0  0  0
   -1.8896   -0.4418   -5.6778 C   0  0  0  0  0  0  0  0  0  0  0  0
   -0.1875   -1.3570   -6.9235 C   0  0  0  0  0  0  0  0  0  0  0  0
    1.9354   -1.1960   -4.4758 C   0  0  0  0  0  0  0  0  0  0  0  0
    0.7440   -0.2692   -2.1692 C   0  0  0  0  0  0  0  0  0  0  0  0
   -0.9342    1.0411   -3.2570 C   0  0  0  0  0  0  0  0  0  0  0  0
    5.3957   -0.2359   -5.7823 C   0  0  0  0  0  0  0  0  0  0  0  0
    0.3684    0.2650   -0.9416 C   0  0  0  0  0  0  0  0  0  0  0  0
    3.4734    0.2892   -6.9613 C   0  0  0  0  0  0  0  0  0  0  0  0
   -1.3591    1.5385   -2.0340 C   0  0  0  0  0  0  0  0  0  0  0  0
    5.1283   -1.7025   -5.2939 C   0  0  0  0  0  0  0  0  0  0  0  0
   -0.7281    1.1342   -0.8627 C   0  0  0  0  0  0  0  0  0  0  0  0
    4.2052   -2.7933   -6.0982 C   0  0  0  0  0  0  0  0  0  0  0  0
    4.2798   -4.1214   -5.7267 C   0  0  0  0  0  0  0  0  0  0  0  0
    3.0047   -2.5707   -6.8246 C   0  0  0  0  0  0  0  0  0  0  0  0
    3.2943   -5.1221   -6.1034 C   0  0  0  0  0  0  0  0  0  0  0  0
    2.4612   -0.0260    0.0904 C   0  0  0  0  0  0  0  0  0  0  0  0
    1.9756   -3.5117   -7.0187 C   0  0  0  0  0  0  0  0  0  0  0  0
    2.1110   -4.7667   -6.7371 C   0  0  0  0  0  0  0  0  0  0  0  0
   -0.7493    1.2324    1.4909 C   0  0  0  0  0  0  0  0  0  0  0  0
    4.6477   -6.7744   -5.2943 C   0  0  0  0  0  0  0  0  0  0  0  0
    1.2569   -6.7723   -7.5123 C   0  0  0  0  0  0  0  0  0  0  0  0
   -0.6923   -2.0823   -4.9657 H   0  0  0  0  0  0  0  0  0  0  0  0
    1.1137    0.7947   -6.5319 H   0  0  0  0  0  0  0  0  0  0  0  0
    0.1175    1.6213   -5.4865 H   0  0  0  0  0  0  0  0  0  0  0  0
    2.2570    2.7142   -5.5515 H   0  0  0  0  0  0  0  0  0  0  0  0
    1.8348    2.2110   -3.9329 H   0  0  0  0  0  0  0  0  0  0  0  0
    4.2002    1.9243   -4.1662 H   0  0  0  0  0  0  0  0  0  0  0  0
    3.5066    0.3963   -4.0072 H   0  0  0  0  0  0  0  0  0  0  0  0
   -1.7626    0.4994   -6.2281 H   0  0  0  0  0  0  0  0  0  0  0  0
   -2.5386   -1.0759   -6.2969 H   0  0  0  0  0  0  0  0  0  0  0  0
   -2.4416   -0.2838   -4.7565 H   0  0  0  0  0  0  0  0  0  0  0  0
    0.8062   -1.6537   -6.7995 H   0  0  0  0  0  0  0  0  0  0  0  0
   -0.8055   -2.1255   -7.3981 H   0  0  0  0  0  0  0  0  0  0  0  0
   -0.0882   -0.5023   -7.5960 H   0  0  0  0  0  0  0  0  0  0  0  0
    1.5521   -0.9911   -2.1708 H   0  0  0  0  0  0  0  0  0  0  0  0
   -1.4600    1.4272   -4.1259 H   0  0  0  0  0  0  0  0  0  0  0  0
    5.8821   -0.3866   -6.7496 H   0  0  0  0  0  0  0  0  0  0  0  0
    6.1485    0.2150   -5.1250 H   0  0  0  0  0  0  0  0  0  0  0  0
    2.9034   -0.3147   -6.2966 H   0  0  0  0  0  0  0  0  0  0  0  0
    2.7326    0.8921   -7.4762 H   0  0  0  0  0  0  0  0  0  0  0  0
    3.9515   -0.3370   -7.7257 H   0  0  0  0  0  0  0  0  0  0  0  0
   -2.1785    2.2540   -2.0107 H   0  0  0  0  0  0  0  0  0  0  0  0
    6.0826   -2.2078   -5.0984 H   0  0  0  0  0  0  0  0  0  0  0  0
    4.8864   -1.5373   -4.2226 H   0  0  0  0  0  0  0  0  0  0  0  0
    5.0806   -4.3736   -5.0368 H   0  0  0  0  0  0  0  0  0  0  0  0
    2.5963   -1.6590   -7.1308 H   0  0  0  0  0  0  0  0  0  0  0  0
    2.8582   -0.2551    1.0822 H   0  0  0  0  0  0  0  0  0  0  0  0
    2.8962   -0.7505   -0.6043 H   0  0  0  0  0  0  0  0  0  0  0  0
    2.7629    0.9936   -0.1746 H   0  0  0  0  0  0  0  0  0  0  0  0
    0.9706   -3.2738   -7.3754 H   0  0  0  0  0  0  0  0  0  0  0  0
   -0.8232    0.1430    1.5885 H   0  0  0  0  0  0  0  0  0  0  0  0
    0.2791    1.5924    1.5964 H   0  0  0  0  0  0  0  0  0  0  0  0
   -1.3348    1.6702    2.2993 H   0  0  0  0  0  0  0  0  0  0  0  0
    5.4650   -6.3603   -5.8968 H   0  0  0  0  0  0  0  0  0  0  0  0
    4.6713   -6.4141   -4.2627 H   0  0  0  0  0  0  0  0  0  0  0  0
    4.7109   -7.8555   -5.3200 H   0  0  0  0  0  0  0  0  0  0  0  0
    2.1810   -6.8516   -8.0947 H   0  0  0  0  0  0  0  0  0  0  0  0
    1.2703   -7.3398   -6.5857 H   0  0  0  0  0  0  0  0  0  0  0  0
    0.4274   -7.1090   -8.1355 H   0  0  0  0  0  0  0  0  0  0  0  0
  1 19  1  0  0  0  0
  1 28  1  0  0  0  0
  2 23  1  0  0  0  0
  2 31  1  0  0  0  0
  3 27  1  0  0  0  0
  3 32  1  0  0  0  0
  4 30  1  0  0  0  0
  4 33  1  0  0  0  0
  5 12  1  0  0  0  0
  5 18  1  0  0  0  0
  5 20  1  0  0  0  0
  6 15  3  0  0  0  0
  7  8  1  0  0  0  0
  7  9  1  0  0  0  0
  7 11  1  0  0  0  0
  7 15  1  0  0  0  0
  8 13  1  0  0  0  0
  8 14  1  0  0  0  0
  8 34  1  0  0  0  0
  9 10  1  0  0  0  0
  9 35  1  0  0  0  0
  9 36  1  0  0  0  0
 10 12  1  0  0  0  0
 10 37  1  0  0  0  0
 10 38  1  0  0  0  0
 11 16  2  0  0  0  0
 11 17  1  0  0  0  0
 12 39  1  0  0  0  0
 12 40  1  0  0  0  0
 13 41  1  0  0  0  0
 13 42  1  0  0  0  0
 13 43  1  0  0  0  0
 14 44  1  0  0  0  0
 14 45  1  0  0  0  0
 14 46  1  0  0  0  0
 16 19  1  0  0  0  0
 16 47  1  0  0  0  0
 17 21  2  0  0  0  0
 17 48  1  0  0  0  0
 18 22  1  0  0  0  0
 18 49  1  0  0  0  0
 18 50  1  0  0  0  0
 19 23  2  0  0  0  0
 20 51  1  0  0  0  0
 20 52  1  0  0  0  0
 20 53  1  0  0  0  0
 21 23  1  0  0  0  0
 21 54  1  0  0  0  0
 22 24  1  0  0  0  0
 22 55  1  0  0  0  0
 22 56  1  0  0  0  0
 24 25  2  0  0  0  0
 24 26  1  0  0  0  0
 25 27  1  0  0  0  0
 25 57  1  0  0  0  0
 26 29  2  0  0  0  0
 26 58  1  0  0  0  0
 27 30  2  0  0  0  0
 28 59  1  0  0  0  0
 28 60  1  0  0  0  0
 28 61  1  0  0  0  0
 29 30  1  0  0  0  0
 29 62  1  0  0  0  0
 31 63  1  0  0  0  0
 31 64  1  0  0  0  0
 31 65  1  0  0  0  0
 32 66  1  0  0  0  0
 32 67  1  0  0  0  0
 32 68  1  0  0  0  0
 33 69  1  0  0  0  0
 33 70  1  0  0  0  0
 33 71  1  0  0  0  0
M  END
>  <DRUGBANK_ID>
DB00661

>  <SECONDARY_ACCESSION_NUMBERS>
APRD00335

>  <COMMON_NAME>
Verapamil

>  <CAS_NUMBER>
52-53-9

>  <UNII>
CJ0O37KU29

>  <SYNONYMS>
Iproveratril; VÃ©rapamil; Verapamil; Verapamilo; Verapamilum

$$$$
