CIU
 OpenBabel10282417123D

 34 35  0  0  0  0  0  0  0  0999 V2000
   -1.4921    0.3393   -0.0836 C   0  0  0  0  0  0  0  0  0  0  0  0
   -1.1042   -1.0473    0.4617 C   0  0  0  0  0  0  0  0  0  0  0  0
    0.3118   -1.3479   -0.0009 C   0  0  0  0  0  0  0  0  0  0  0  0
    1.3264   -0.2875    0.4579 C   0  0  0  0  0  0  0  0  0  0  0  0
    0.9131    1.1162    0.0213 C   0  0  0  0  0  0  0  0  0  0  0  0
   -0.5256    1.4282    0.3900 C   0  0  0  0  0  0  0  0  0  0  0  0
    0.8028   -2.6962    0.2142 N   0  0  0  0  0  0  0  0  0  0  0  0
    1.1383   -3.6779   -0.6724 C   0  0  0  0  0  0  0  0  0  0  0  0
    1.4679   -4.7706   -0.2247 O   0  0  0  0  0  0  0  0  0  0  0  0
    1.0308   -3.5171   -2.0298 N   0  0  0  0  0  0  0  0  0  0  0  0
    0.9418   -2.3639   -2.8326 C   0  0  0  0  0  0  0  0  0  0  0  0
   -0.1106    2.0246   -4.6848 I   0  0  0  0  0  0  0  0  0  0  0  0
    1.7383   -1.2547   -2.5568 C   0  0  0  0  0  0  0  0  0  0  0  0
    1.4371   -0.0053   -3.1023 C   0  0  0  0  0  0  0  0  0  0  0  0
    0.3860    0.1280   -3.9969 C   0  0  0  0  0  0  0  0  0  0  0  0
   -0.3083   -1.0068   -4.4126 C   0  0  0  0  0  0  0  0  0  0  0  0
   -0.0206   -2.2628   -3.8414 C   0  0  0  0  0  0  0  0  0  0  0  0
   -1.4917    0.3159   -1.1856 H   0  0  0  0  0  0  0  0  0  0  0  0
   -2.5115    0.5885    0.2179 H   0  0  0  0  0  0  0  0  0  0  0  0
   -1.1847   -1.0849    1.5498 H   0  0  0  0  0  0  0  0  0  0  0  0
   -1.7883   -1.7965    0.0424 H   0  0  0  0  0  0  0  0  0  0  0  0
    0.1380   -1.2576   -1.0515 H   0  0  0  0  0  0  0  0  0  0  0  0
    1.4249   -0.3176    1.5476 H   0  0  0  0  0  0  0  0  0  0  0  0
    2.3344   -0.4961    0.0799 H   0  0  0  0  0  0  0  0  0  0  0  0
    1.6121    1.8588    0.4204 H   0  0  0  0  0  0  0  0  0  0  0  0
    0.9723    1.2313   -1.0558 H   0  0  0  0  0  0  0  0  0  0  0  0
   -0.8015    2.3851   -0.0677 H   0  0  0  0  0  0  0  0  0  0  0  0
   -0.5949    1.5374    1.4748 H   0  0  0  0  0  0  0  0  0  0  0  0
    0.9102   -3.0002    1.1759 H   0  0  0  0  0  0  0  0  0  0  0  0
    1.0909   -4.4012   -2.5206 H   0  0  0  0  0  0  0  0  0  0  0  0
    2.5013   -1.3347   -1.7901 H   0  0  0  0  0  0  0  0  0  0  0  0
    1.9811    0.8665   -2.7487 H   0  0  0  0  0  0  0  0  0  0  0  0
   -1.0914   -0.9199   -5.1615 H   0  0  0  0  0  0  0  0  0  0  0  0
   -0.6205   -3.1206   -4.1321 H   0  0  0  0  0  0  0  0  0  0  0  0
  1  2  1  0  0  0  0
  1  6  1  0  0  0  0
  1 18  1  0  0  0  0
  1 19  1  0  0  0  0
  2  3  1  0  0  0  0
  2 20  1  0  0  0  0
  2 21  1  0  0  0  0
  3  4  1  0  0  0  0
  3  7  1  0  0  0  0
  3 22  1  0  0  0  0
  4  5  1  0  0  0  0
  4 23  1  0  0  0  0
  4 24  1  0  0  0  0
  5  6  1  0  0  0  0
  5 25  1  0  0  0  0
  5 26  1  0  0  0  0
  6 27  1  0  0  0  0
  6 28  1  0  0  0  0
  7  8  1  0  0  0  0
  7 29  1  0  0  0  0
  8  9  2  0  0  0  0
  8 10  1  0  0  0  0
 10 11  1  0  0  0  0
 10 30  1  0  0  0  0
 11 13  2  0  0  0  0
 11 17  1  0  0  0  0
 12 15  1  0  0  0  0
 13 14  1  0  0  0  0
 13 31  1  0  0  0  0
 14 15  2  0  0  0  0
 14 32  1  0  0  0  0
 15 16  1  0  0  0  0
 16 17  2  0  0  0  0
 16 33  1  0  0  0  0
 17 34  1  0  0  0  0
M  END
>  <DRUGBANK_ID>
DB02029

>  <SECONDARY_ACCESSION_NUMBERS>
EXPT00923

>  <COMMON_NAME>
N-Cyclohexyl-N'-(4-Iodophenyl)Urea

$$$$
