
 OpenBabel10282417183D

 49 46  0  0  1  0  0  0  0  0999 V2000
    0.9183   -1.2219   -0.9264 Cu  0  2  0  0  0  0  0  0  0  0  0  0
    5.2298   -4.8324   -4.4830 O   0  0  0  0  0  0  0  0  0  0  0  0
    4.6766   -3.5305   -4.3592 C   0  0  0  0  0  0  0  0  0  0  0  0
    3.1520   -3.4866   -4.4365 C   0  0  1  0  0  0  0  0  0  0  0  0
    2.6446   -3.9960   -3.2266 O   0  0  0  0  0  0  0  0  0  0  0  0
    2.5233   -2.1058   -4.4077 C   0  0  1  0  0  0  0  0  0  0  0  0
    3.0268   -1.2017   -5.3633 O   0  0  0  0  0  0  0  0  0  0  0  0
    0.9669   -2.1630   -4.3690 C   0  0  2  0  0  0  0  0  0  0  0  0
    0.4725   -2.0364   -2.9142 O   0  0  0  0  0  0  0  0  0  0  0  0
    0.3371   -3.4205   -5.0342 C   0  0  1  0  0  0  0  0  0  0  0  0
   -1.0967   -3.2644   -4.8383 O   0  0  0  0  0  0  0  0  0  0  0  0
    0.7772   -3.4105   -6.5441 C   0  0  0  0  0  0  0  0  0  0  0  0
    1.4732   -4.4441   -6.8926 O   0  5  0  0  0  0  0  0  0  0  0  0
    0.5499   -2.3788   -7.1779 O   0  0  0  0  0  0  0  0  0  0  0  0
    5.2040   -6.8158   -2.7334 O   0  0  0  0  0  0  0  0  0  0  0  0
    4.7428   -5.9510   -1.6974 C   0  0  0  0  0  0  0  0  0  0  0  0
    3.2350   -6.1191   -1.6170 C   0  0  1  0  0  0  0  0  0  0  0  0
    3.1713   -7.4652   -1.1741 O   0  0  0  0  0  0  0  0  0  0  0  0
    2.5380   -5.0435   -0.6901 C   0  0  1  0  0  0  0  0  0  0  0  0
    2.9911   -3.6294   -0.8063 O   0  0  0  0  0  0  0  0  0  0  0  0
    0.9836   -4.9843   -0.8360 C   0  0  2  0  0  0  0  0  0  0  0  0
    0.5176   -3.8191    0.0060 O   0  0  0  0  0  0  0  0  0  0  0  0
    0.3044   -6.2907   -0.3760 C   0  0  1  0  0  0  0  0  0  0  0  0
   -1.1195   -6.0863   -0.3046 O   0  0  0  0  0  0  0  0  0  0  0  0
    0.5645   -7.5179   -1.2884 C   0  0  0  0  0  0  0  0  0  0  0  0
    0.8769   -8.5810   -0.6831 O   0  5  0  0  0  0  0  0  0  0  0  0
    0.6079   -7.2687   -2.5266 O   0  0  0  0  0  0  0  0  0  0  0  0
    4.7471   -5.5677   -4.0557 H   0  0  0  0  0  0  0  0  0  0  0  0
    5.0069   -3.1231   -3.3982 H   0  0  0  0  0  0  0  0  0  0  0  0
    5.1163   -2.9685   -5.1739 H   0  0  0  0  0  0  0  0  0  0  0  0
    2.8497   -4.1738   -5.2159 H   0  0  0  0  0  0  0  0  0  0  0  0
    3.2950   -4.6817   -3.0938 H   0  0  0  0  0  0  0  0  0  0  0  0
    2.8124   -1.6545   -3.4481 H   0  0  0  0  0  0  0  0  0  0  0  0
    3.8384   -1.5668   -5.7576 H   0  0  0  0  0  0  0  0  0  0  0  0
    0.5503   -1.2690   -4.8412 H   0  0  0  0  0  0  0  0  0  0  0  0
   -0.3271   -2.6226   -3.0350 H   0  0  0  0  0  0  0  0  0  0  0  0
    0.6047   -4.3694   -4.5505 H   0  0  0  0  0  0  0  0  0  0  0  0
   -1.3839   -4.0066   -4.2769 H   0  0  0  0  0  0  0  0  0  0  0  0
    4.7857   -7.6872   -2.5565 H   0  0  0  0  0  0  0  0  0  0  0  0
    5.2033   -6.2561   -0.7569 H   0  0  0  0  0  0  0  0  0  0  0  0
    5.0782   -4.9442   -1.9358 H   0  0  0  0  0  0  0  0  0  0  0  0
    2.7634   -6.1687   -2.6083 H   0  0  0  0  0  0  0  0  0  0  0  0
    2.6824   -7.9800   -1.8693 H   0  0  0  0  0  0  0  0  0  0  0  0
    2.7893   -5.2923    0.3410 H   0  0  0  0  0  0  0  0  0  0  0  0
    3.8966   -3.6511   -1.1689 H   0  0  0  0  0  0  0  0  0  0  0  0
    0.6615   -4.7010   -1.8452 H   0  0  0  0  0  0  0  0  0  0  0  0
    0.5298   -4.2331    0.9007 H   0  0  0  0  0  0  0  0  0  0  0  0
    0.6653   -6.5209    0.6332 H   0  0  0  0  0  0  0  0  0  0  0  0
   -1.2959   -5.3494    0.2855 H   0  0  0  0  0  0  0  0  0  0  0  0
  2  3  1  0  0  0  0
  2 28  1  0  0  0  0
  3  4  1  0  0  0  0
  3 29  1  0  0  0  0
  3 30  1  0  0  0  0
  4  5  1  0  0  0  0
  4  6  1  0  0  0  0
  4 31  1  6  0  0  0
  5 32  1  0  0  0  0
  6  7  1  0  0  0  0
  6 33  1  1  0  0  0
  7 34  1  0  0  0  0
  8 10  1  0  0  0  0
  8 35  1  6  0  0  0
  8  9  1  0  0  0  0
  8  6  1  0  0  0  0
  9 36  1  0  0  0  0
 10 11  1  0  0  0  0
 10 12  1  0  0  0  0
 10 37  1  1  0  0  0
 11 38  1  0  0  0  0
 12 13  1  0  0  0  0
 12 14  2  0  0  0  0
 15 16  1  0  0  0  0
 15 39  1  0  0  0  0
 16 17  1  0  0  0  0
 16 40  1  0  0  0  0
 16 41  1  0  0  0  0
 17 18  1  0  0  0  0
 17 19  1  0  0  0  0
 17 42  1  6  0  0  0
 18 43  1  0  0  0  0
 19 20  1  0  0  0  0
 19 44  1  1  0  0  0
 20 45  1  0  0  0  0
 21 23  1  0  0  0  0
 21 46  1  6  0  0  0
 21 22  1  0  0  0  0
 21 19  1  0  0  0  0
 22 47  1  0  0  0  0
 23 24  1  0  0  0  0
 23 25  1  0  0  0  0
 23 48  1  1  0  0  0
 24 49  1  0  0  0  0
 25 26  1  0  0  0  0
 25 27  2  0  0  0  0
M  CHG  3   1   2  13  -1  26  -1
M  END
>  <DRUGBANK_ID>
DB11246

>  <COMMON_NAME>
Copper gluconate

>  <CAS_NUMBER>
527-09-3

>  <UNII>
RV823G6G67

>  <SYNONYMS>
Copper gluconate

$$$$
