
 OpenBabel10282417103D

124127  0  0  0  0  0  0  0  0999 V2000
   38.2630  -26.4346   13.1926 C   0  0  2  0  0  0  0  0  0  0  0  0
   40.2816  -26.9826   14.4445 C   0  0  0  0  0  0  0  0  0  0  0  0
   42.3142  -27.2780   15.5330 C   0  0  0  0  0  0  0  0  0  0  0  0
   42.6254  -28.8233   16.1997 N   0  0  0  0  0  0  0  0  0  0  0  0
   36.6276  -25.9304   13.2309 O   0  0  0  0  0  0  0  0  0  0  0  0
   40.9618  -28.8514   13.6598 O   0  0  0  0  0  0  0  0  0  0  0  0
   41.3681  -29.9725   14.1266 C   0  0  0  0  0  0  0  0  0  0  0  0
   41.8992  -27.8881   13.3047 C   0  0  2  0  0  0  0  0  0  0  0  0
   36.8404  -24.4949   12.7212 C   0  0  1  0  0  0  0  0  0  0  0  0
   42.3793  -29.9947   15.2379 C   0  0  2  0  0  0  0  0  0  0  0  0
   40.9588  -26.9223   12.7680 C   0  0  0  0  0  0  0  0  0  0  0  0
   43.1179  -28.0884   12.5102 C   0  0  1  0  0  0  0  0  0  0  0  0
   37.0070  -25.5147   11.3102 C   0  0  1  0  0  0  0  0  0  0  0  0
   45.0080  -27.1036   15.0595 C   0  0  0  0  0  0  0  0  0  0  0  0
   43.9311  -29.0487   13.2272 C   0  0  2  0  0  0  0  0  0  0  0  0
   44.2236  -28.5972   14.5663 C   0  0  0  0  0  0  0  0  0  0  0  0
   40.7654  -25.1183   12.9457 C   0  0  0  0  0  0  0  0  0  0  0  0
   37.0208  -23.0074   11.9511 C   0  0  2  0  0  0  0  0  0  0  0  0
   43.5061  -25.0711   15.0541 C   0  0  0  0  0  0  0  0  0  0  0  0
   38.6330  -25.2272   11.6724 C   0  0  2  0  0  0  0  0  0  0  0  0
   42.4424  -24.8851   14.3139 C   0  0  0  0  0  0  0  0  0  0  0  0
   37.0780  -23.6452   10.6700 C   0  0  0  0  0  0  0  0  0  0  0  0
   44.5672  -25.8564   14.4092 C   0  0  1  0  0  0  0  0  0  0  0  0
   41.4344  -26.4088   15.4983 O   0  0  0  0  0  0  0  0  0  0  0  0
   43.5721  -27.7137   16.2477 O   0  0  0  0  0  0  0  0  0  0  0  0
   41.2180  -30.9066   13.3597 O   0  0  0  0  0  0  0  0  0  0  0  0
   38.2106  -23.8819   14.9925 C   0  0  2  0  0  0  0  0  0  0  0  0
   39.7882  -23.9390   12.6552 C   0  0  1  0  0  0  0  0  0  0  0  0
   39.5230  -26.0688   12.2852 C   0  0  0  0  0  0  0  0  0  0  0  0
   37.0963  -26.8044   11.6227 O   0  0  0  0  0  0  0  0  0  0  0  0
   38.6901  -24.0363   13.5995 C   0  0  0  0  0  0  0  0  0  0  0  0
   45.5003  -26.8886   16.2085 O   0  0  0  0  0  0  0  0  0  0  0  0
   38.7845  -22.5458   14.9199 C   0  0  2  0  0  0  0  0  0  0  0  0
   40.9736  -24.7361   15.0421 C   0  0  0  0  0  0  0  0  0  0  0  0
   39.5938  -25.5053   14.4222 C   0  0  2  0  0  0  0  0  0  0  0  0
   40.1025  -22.3604   14.2164 C   0  0  0  0  0  0  0  0  0  0  0  0
   41.6971  -28.2807   16.9176 C   0  0  0  0  0  0  0  0  0  0  0  0
   44.8027  -30.0659   13.3341 O   0  0  0  0  0  0  0  0  0  0  0  0
   40.1405  -22.5981   12.8245 C   0  0  0  0  0  0  0  0  0  0  0  0
   37.2755  -21.7090   12.3933 O   0  0  0  0  0  0  0  0  0  0  0  0
   40.2779  -25.0410   10.8177 O   0  0  0  0  0  0  0  0  0  0  0  0
   38.9712  -22.1974   16.5478 Cl  0  0  0  0  0  0  0  0  0  0  0  0
   38.4248  -25.1005   15.9184 O   0  0  0  0  0  0  0  0  0  0  0  0
   39.3462  -28.2412   12.3503 C   0  0  0  0  0  0  0  0  0  0  0  0
   42.6167  -27.3966   11.3303 C   0  0  0  0  0  0  0  0  0  0  0  0
   42.1444  -31.1182   16.0564 C   0  0  0  0  0  0  0  0  0  0  0  0
   35.5455  -24.9044    9.9094 C   0  0  0  0  0  0  0  0  0  0  0  0
   42.6520  -25.2593   12.8248 C   0  0  0  0  0  0  0  0  0  0  0  0
   45.8944  -25.6363   13.8622 C   0  0  0  0  0  0  0  0  0  0  0  0
   39.6804  -26.4860   16.3078 C   0  0  0  0  0  0  0  0  0  0  0  0
   40.5797  -23.5434   10.3709 C   0  0  0  0  0  0  0  0  0  0  0  0
   36.0211  -21.1540   12.0118 C   0  0  0  0  0  0  0  0  0  0  0  0
   38.1370  -26.9723   15.2966 C   0  0  0  0  0  0  0  0  0  0  0  0
   41.3488  -29.2952   17.7625 C   0  0  0  0  0  0  0  0  0  0  0  0
   46.6278  -25.0235   14.9865 C   0  0  0  0  0  0  0  0  0  0  0  0
   41.0404  -30.5144   16.9193 C   0  0  0  0  0  0  0  0  0  0  0  0
   39.4256  -23.8655   11.4073 H   0  0  0  0  0  0  0  0  0  0  0  0
   43.2176  -30.3686   14.6236 H   0  0  0  0  0  0  0  0  0  0  0  0
   36.7276  -24.1849   13.7230 H   0  0  0  0  0  0  0  0  0  0  0  0
   42.2666  -27.1845   13.9745 H   0  0  0  0  0  0  0  0  0  0  0  0
   44.0723  -27.6250   12.3599 H   0  0  0  0  0  0  0  0  0  0  0  0
   35.7593  -24.7646   11.3978 H   0  0  0  0  0  0  0  0  0  0  0  0
   43.0806  -29.6432   12.9832 H   0  0  0  0  0  0  0  0  0  0  0  0
   44.3461  -29.4935   15.5454 H   0  0  0  0  0  0  0  0  0  0  0  0
   43.1424  -28.4337   14.5429 H   0  0  0  0  0  0  0  0  0  0  0  0
   41.2806  -24.2409   13.1935 H   0  0  0  0  0  0  0  0  0  0  0  0
   36.4769  -22.8158   12.8099 H   0  0  0  0  0  0  0  0  0  0  0  0
   43.1782  -25.0387   16.0661 H   0  0  0  0  0  0  0  0  0  0  0  0
   38.2892  -24.2995   11.6367 H   0  0  0  0  0  0  0  0  0  0  0  0
   37.3287  -22.9306    9.8666 H   0  0  0  0  0  0  0  0  0  0  0  0
   37.9194  -24.0674   10.1555 H   0  0  0  0  0  0  0  0  0  0  0  0
   44.1911  -25.7125   13.4769 H   0  0  0  0  0  0  0  0  0  0  0  0
   37.1870  -24.0494   15.1887 H   0  0  0  0  0  0  0  0  0  0  0  0
   39.5370  -27.1229   13.2372 H   0  0  0  0  0  0  0  0  0  0  0  0
   39.2008  -26.6777   11.4003 H   0  0  0  0  0  0  0  0  0  0  0  0
   35.9935  -26.4981   11.0779 H   0  0  0  0  0  0  0  0  0  0  0  0
   38.1492  -24.8298   13.4000 H   0  0  0  0  0  0  0  0  0  0  0  0
   38.1968  -23.5220   12.9960 H   0  0  0  0  0  0  0  0  0  0  0  0
   38.0900  -21.9710   14.3169 H   0  0  0  0  0  0  0  0  0  0  0  0
   41.1774  -24.0745   15.8225 H   0  0  0  0  0  0  0  0  0  0  0  0
   40.1611  -24.1885   14.8842 H   0  0  0  0  0  0  0  0  0  0  0  0
   38.3994  -25.5325   14.5026 H   0  0  0  0  0  0  0  0  0  0  0  0
   40.9148  -22.9548   14.4807 H   0  0  0  0  0  0  0  0  0  0  0  0
   40.5309  -21.4443   14.2444 H   0  0  0  0  0  0  0  0  0  0  0  0
   41.9871  -27.3532   17.4709 H   0  0  0  0  0  0  0  0  0  0  0  0
   41.0558  -28.1822   16.0490 H   0  0  0  0  0  0  0  0  0  0  0  0
   44.6429  -30.4874   12.5129 H   0  0  0  0  0  0  0  0  0  0  0  0
   41.1397  -22.6973   12.4187 H   0  0  0  0  0  0  0  0  0  0  0  0
   39.3403  -22.0921   12.3108 H   0  0  0  0  0  0  0  0  0  0  0  0
   39.6619  -28.4751   11.4399 H   0  0  0  0  0  0  0  0  0  0  0  0
   38.8174  -28.5767   13.3626 H   0  0  0  0  0  0  0  0  0  0  0  0
   38.2609  -27.8250   12.1864 H   0  0  0  0  0  0  0  0  0  0  0  0
   42.9824  -26.3982   11.2281 H   0  0  0  0  0  0  0  0  0  0  0  0
   42.0930  -27.7449   10.5378 H   0  0  0  0  0  0  0  0  0  0  0  0
   41.5828  -27.1464   11.3517 H   0  0  0  0  0  0  0  0  0  0  0  0
   42.9121  -31.7539   16.4562 H   0  0  0  0  0  0  0  0  0  0  0  0
   42.0725  -31.8536   15.2773 H   0  0  0  0  0  0  0  0  0  0  0  0
   34.2617  -24.4324   10.0544 H   0  0  0  0  0  0  0  0  0  0  0  0
   35.4563  -23.8041    9.0240 H   0  0  0  0  0  0  0  0  0  0  0  0
   35.1404  -25.5008    9.0043 H   0  0  0  0  0  0  0  0  0  0  0  0
   43.3712  -24.9535   12.2263 H   0  0  0  0  0  0  0  0  0  0  0  0
   42.6934  -26.2467   12.9554 H   0  0  0  0  0  0  0  0  0  0  0  0
   41.9688  -25.3853   11.9285 H   0  0  0  0  0  0  0  0  0  0  0  0
   46.3307  -26.6014   13.5189 H   0  0  0  0  0  0  0  0  0  0  0  0
   45.7990  -25.0100   12.9925 H   0  0  0  0  0  0  0  0  0  0  0  0
   39.6319  -27.7104   16.3253 H   0  0  0  0  0  0  0  0  0  0  0  0
   40.4902  -26.1234   16.8516 H   0  0  0  0  0  0  0  0  0  0  0  0
   38.7005  -26.4155   16.8436 H   0  0  0  0  0  0  0  0  0  0  0  0
   39.6917  -23.4779    9.8082 H   0  0  0  0  0  0  0  0  0  0  0  0
   40.1655  -22.7117   10.9897 H   0  0  0  0  0  0  0  0  0  0  0  0
   41.6003  -23.3918   10.4491 H   0  0  0  0  0  0  0  0  0  0  0  0
   36.1845  -21.1693   10.9507 H   0  0  0  0  0  0  0  0  0  0  0  0
   35.1427  -21.8057   12.2679 H   0  0  0  0  0  0  0  0  0  0  0  0
   35.9727  -20.2191   12.5062 H   0  0  0  0  0  0  0  0  0  0  0  0
   37.3653  -26.9730   14.6733 H   0  0  0  0  0  0  0  0  0  0  0  0
   38.7998  -27.0245   14.5130 H   0  0  0  0  0  0  0  0  0  0  0  0
   39.0377  -27.7358   14.9908 H   0  0  0  0  0  0  0  0  0  0  0  0
   41.9570  -29.4644   18.6004 H   0  0  0  0  0  0  0  0  0  0  0  0
   40.6951  -28.5072   18.0707 H   0  0  0  0  0  0  0  0  0  0  0  0
   46.7389  -25.6714   15.8425 H   0  0  0  0  0  0  0  0  0  0  0  0
   47.6227  -24.8401   14.6760 H   0  0  0  0  0  0  0  0  0  0  0  0
   46.0878  -24.1488   15.3278 H   0  0  0  0  0  0  0  0  0  0  0  0
   40.6879  -31.3111   17.4976 H   0  0  0  0  0  0  0  0  0  0  0  0
   40.1938  -30.1032   16.3651 H   0  0  0  0  0  0  0  0  0  0  0  0
  1 30  1  1  0  0  0
  2  1  1  0  0  0  0
  3  2  1  0  0  0  0
  4  3  1  0  0  0  0
  5  1  1  0  0  0  0
  6  7  1  0  0  0  0
  7 10  1  0  0  0  0
  8  6  1  0  0  0  0
  8 60  1  1  0  0  0
  8 11  1  0  0  0  0
  9  5  1  0  0  0  0
  9 18  1  0  0  0  0
  9 59  1  6  0  0  0
 10  4  1  0  0  0  0
 10 58  1  6  0  0  0
 12  8  1  0  0  0  0
 12 61  1  1  0  0  0
 12 45  1  0  0  0  0
 13  1  1  0  0  0  0
 13 47  1  0  0  0  0
 13 62  1  1  0  0  0
 14 23  1  0  0  0  0
 14 16  1  0  0  0  0
 15 12  1  0  0  0  0
 15 38  1  0  0  0  0
 15 63  1  1  0  0  0
 16 15  1  0  0  0  0
 16 64  1  0  0  0  0
 16 65  1  0  0  0  0
 17 11  2  0  0  0  0
 17 66  1  0  0  0  0
 18 22  1  0  0  0  0
 18 40  1  0  0  0  0
 18 67  1  6  0  0  0
 19 21  2  0  0  0  0
 19 68  1  0  0  0  0
 20  9  1  0  0  0  0
 20 41  1  0  0  0  0
 20 69  1  6  0  0  0
 21 34  1  0  0  0  0
 22 13  1  0  0  0  0
 22 70  1  0  0  0  0
 22 71  1  0  0  0  0
 23 19  1  0  0  0  0
 23 49  1  0  0  0  0
 23 72  1  6  0  0  0
 24  2  2  0  0  0  0
 25  3  2  0  0  0  0
 26  7  2  0  0  0  0
 27 31  1  0  0  0  0
 27 73  1  6  0  0  0
 27 43  1  0  0  0  0
 28 57  1  6  0  0  0
 28 17  1  0  0  0  0
 29 20  1  0  0  0  0
 29 74  1  0  0  0  0
 29 75  1  0  0  0  0
 30 76  1  0  0  0  0
 31 28  1  0  0  0  0
 31 77  1  0  0  0  0
 31 78  1  0  0  0  0
 32 14  2  0  0  0  0
 33 36  1  0  0  0  0
 33 27  1  0  0  0  0
 33 79  1  6  0  0  0
 33 42  1  0  0  0  0
 34 35  1  0  0  0  0
 34 80  1  0  0  0  0
 34 81  1  0  0  0  0
 35 29  1  0  0  0  0
 35 50  1  0  0  0  0
 35 82  1  1  0  0  0
 36 39  1  0  0  0  0
 36 83  1  0  0  0  0
 36 84  1  0  0  0  0
 37  4  1  0  0  0  0
 37 85  1  0  0  0  0
 37 86  1  0  0  0  0
 38 87  1  0  0  0  0
 39 28  1  0  0  0  0
 39 88  1  0  0  0  0
 39 89  1  0  0  0  0
 44 11  1  0  0  0  0
 44 90  1  0  0  0  0
 44 91  1  0  0  0  0
 44 92  1  0  0  0  0
 45 93  1  0  0  0  0
 45 94  1  0  0  0  0
 45 95  1  0  0  0  0
 46 10  1  0  0  0  0
 46 96  1  0  0  0  0
 46 97  1  0  0  0  0
 47 98  1  0  0  0  0
 47 99  1  0  0  0  0
 47100  1  0  0  0  0
 48101  1  0  0  0  0
 48102  1  0  0  0  0
 48103  1  0  0  0  0
 48 21  1  0  0  0  0
 49104  1  0  0  0  0
 49105  1  0  0  0  0
 50106  1  0  0  0  0
 50107  1  0  0  0  0
 50108  1  0  0  0  0
 51 41  1  0  0  0  0
 51109  1  0  0  0  0
 51110  1  0  0  0  0
 51111  1  0  0  0  0
 52 40  1  0  0  0  0
 52112  1  0  0  0  0
 52113  1  0  0  0  0
 52114  1  0  0  0  0
 53 43  1  0  0  0  0
 53115  1  0  0  0  0
 53116  1  0  0  0  0
 53117  1  0  0  0  0
 54 37  1  0  0  0  0
 54118  1  0  0  0  0
 54119  1  0  0  0  0
 55 49  1  0  0  0  0
 55120  1  0  0  0  0
 55121  1  0  0  0  0
 55122  1  0  0  0  0
 56 46  1  0  0  0  0
 56 54  1  0  0  0  0
 56123  1  0  0  0  0
 56124  1  0  0  0  0
M  END
>  <DRUGBANK_ID>
DB00337

>  <SECONDARY_ACCESSION_NUMBERS>
APRD01182

>  <COMMON_NAME>
Pimecrolimus

>  <CAS_NUMBER>
137071-32-0

>  <UNII>
7KYV510875

>  <SYNONYMS>
33-Epi-chloro-33-desoxyascomycin; Pimecrolimus; Pimecrolimusum

$$$$
