
 OpenBabel10282417203D

 44 46  0  0  0  0  0  0  0  0999 V2000
    0.9634    0.0982   -0.0658 C   0  0  0  0  0  0  0  0  0  0  0  0
   -0.3847    0.1191    2.1248 C   0  0  0  0  0  0  0  0  0  0  0  0
    4.2372   -8.3486    5.0161 C   0  0  0  0  0  0  0  0  0  0  0  0
    7.2056   -2.2196    5.7811 C   0  0  0  0  0  0  0  0  0  0  0  0
    4.6963   -8.2426    3.7064 C   0  0  0  0  0  0  0  0  0  0  0  0
    3.5345   -7.2882    5.5870 C   0  0  0  0  0  0  0  0  0  0  0  0
    7.4324   -3.0778    4.7054 C   0  0  0  0  0  0  0  0  0  0  0  0
    5.9087   -1.7994    6.0537 C   0  0  0  0  0  0  0  0  0  0  0  0
    4.4620   -7.0787    2.9704 C   0  0  0  0  0  0  0  0  0  0  0  0
    3.2944   -6.1177    4.8469 C   0  0  0  0  0  0  0  0  0  0  0  0
    6.3577   -3.5375    3.9151 C   0  0  0  0  0  0  0  0  0  0  0  0
    4.8396   -2.2660    5.2790 C   0  0  0  0  0  0  0  0  0  0  0  0
    0.7370   -1.9409    1.3567 C   0  0  0  0  0  0  0  0  0  0  0  0
    1.6889   -2.7589    0.5318 C   0  0  0  0  0  0  0  0  0  0  0  0
    0.4402   -0.6465    1.1303 C   0  0  0  0  0  0  0  0  0  0  0  0
    3.7977   -5.9903    3.5424 C   0  0  0  0  0  0  0  0  0  0  0  0
    5.0416   -3.1304    4.1956 C   0  0  0  0  0  0  0  0  0  0  0  0
    2.9403   -3.2019    1.2960 C   0  0  0  0  0  0  0  0  0  0  0  0
    3.0093   -4.6700    1.6219 C   0  0  0  0  0  0  0  0  0  0  0  0
    3.2726   -2.5350    2.6232 C   0  0  0  0  0  0  0  0  0  0  0  0
    3.7781   -4.7778    2.7984 N   0  0  0  0  0  0  0  0  0  0  0  0
    3.8946   -3.5184    3.4245 N   0  0  0  0  0  0  0  0  0  0  0  0
    2.5017   -5.5662    0.9538 O   0  0  0  0  0  0  0  0  0  0  0  0
    3.1405   -1.3436    2.8868 O   0  0  0  0  0  0  0  0  0  0  0  0
    0.6126    1.1326   -0.1004 H   0  0  0  0  0  0  0  0  0  0  0  0
    0.6247   -0.3912   -0.9861 H   0  0  0  0  0  0  0  0  0  0  0  0
    2.0588    0.1224   -0.0594 H   0  0  0  0  0  0  0  0  0  0  0  0
   -1.3626   -0.3535    2.2570 H   0  0  0  0  0  0  0  0  0  0  0  0
    0.1234    0.1575    3.0956 H   0  0  0  0  0  0  0  0  0  0  0  0
   -0.5535    1.1516    1.8052 H   0  0  0  0  0  0  0  0  0  0  0  0
    4.4210   -9.2592    5.5832 H   0  0  0  0  0  0  0  0  0  0  0  0
    8.0309   -1.8824    6.4069 H   0  0  0  0  0  0  0  0  0  0  0  0
    5.2599   -9.0569    3.2599 H   0  0  0  0  0  0  0  0  0  0  0  0
    3.1870   -7.3749    6.6152 H   0  0  0  0  0  0  0  0  0  0  0  0
    8.4557   -3.3782    4.4831 H   0  0  0  0  0  0  0  0  0  0  0  0
    5.7222   -1.1077    6.8714 H   0  0  0  0  0  0  0  0  0  0  0  0
    4.8493   -7.0040    1.9585 H   0  0  0  0  0  0  0  0  0  0  0  0
    2.6803   -5.3406    5.2958 H   0  0  0  0  0  0  0  0  0  0  0  0
    6.5883   -4.1769    3.0672 H   0  0  0  0  0  0  0  0  0  0  0  0
    3.8291   -1.9712    5.5481 H   0  0  0  0  0  0  0  0  0  0  0  0
    0.3447   -2.4247    2.2499 H   0  0  0  0  0  0  0  0  0  0  0  0
    1.1394   -3.6043    0.1009 H   0  0  0  0  0  0  0  0  0  0  0  0
    2.0202   -2.1853   -0.3450 H   0  0  0  0  0  0  0  0  0  0  0  0
    3.7992   -3.0197    0.6301 H   0  0  0  0  0  0  0  0  0  0  0  0
  1 25  1  0  0  0  0
  1 26  1  0  0  0  0
  1 27  1  0  0  0  0
  2 28  1  0  0  0  0
  2 29  1  0  0  0  0
  2 30  1  0  0  0  0
  3 31  1  0  0  0  0
  4 32  1  0  0  0  0
  5  3  2  0  0  0  0
  5 33  1  0  0  0  0
  6  3  1  0  0  0  0
  6 34  1  0  0  0  0
  7  4  2  0  0  0  0
  7 35  1  0  0  0  0
  8  4  1  0  0  0  0
  8 36  1  0  0  0  0
  9  5  1  0  0  0  0
  9 37  1  0  0  0  0
 10  6  2  0  0  0  0
 10 38  1  0  0  0  0
 11  7  1  0  0  0  0
 11 39  1  0  0  0  0
 12  8  2  0  0  0  0
 12 40  1  0  0  0  0
 13 41  1  0  0  0  0
 14 13  1  0  0  0  0
 14 42  1  0  0  0  0
 14 43  1  0  0  0  0
 15  1  1  0  0  0  0
 15  2  1  0  0  0  0
 15 13  2  0  0  0  0
 16  9  2  0  0  0  0
 16 10  1  0  0  0  0
 17 11  2  0  0  0  0
 17 12  1  0  0  0  0
 18 14  1  0  0  0  0
 18 44  1  0  0  0  0
 19 18  1  0  0  0  0
 20 18  1  0  0  0  0
 21 16  1  0  0  0  0
 21 19  1  0  0  0  0
 22 17  1  0  0  0  0
 22 20  1  0  0  0  0
 22 21  1  0  0  0  0
 23 19  2  0  0  0  0
 24 20  2  0  0  0  0
M  END
>  <DRUGBANK_ID>
DB13364

>  <COMMON_NAME>
Feprazone

>  <CAS_NUMBER>
30748-29-9

>  <UNII>
7BVX6J0CGR

>  <SYNONYMS>
Feprazone

$$$$
