AHT
 OpenBabel10282417163D

 33 33  0  0  0  0  0  0  0  0999 V2000
    0.4562    3.5850    2.8226 N   0  0  0  0  0  0  0  0  0  0  0  0
    1.8789    3.3929    2.5246 C   0  0  2  0  0  0  0  0  0  0  0  0
    2.2579    3.7622    1.0694 C   0  0  0  0  0  0  0  0  0  0  0  0
    2.4043    1.9799    2.9161 C   0  0  0  0  0  0  0  0  0  0  0  0
    3.9207    1.9566    2.8506 C   0  0  0  0  0  0  0  0  0  0  0  0
    4.6255    1.2497    1.8600 C   0  0  0  0  0  0  0  0  0  0  0  0
    4.6345    2.7833    3.7265 C   0  0  0  0  0  0  0  0  0  0  0  0
    6.0057    1.4268    1.7140 C   0  0  0  0  0  0  0  0  0  0  0  0
    6.0056    2.9596    3.5819 C   0  0  0  0  0  0  0  0  0  0  0  0
    6.6811    2.2892    2.5692 C   0  0  0  0  0  0  0  0  0  0  0  0
    8.0182    2.5236    2.4533 O   0  0  0  0  0  0  0  0  0  0  0  0
    1.9493    2.6955    0.0077 C   0  0  0  0  0  0  0  0  0  0  0  0
    0.4810    2.3079   -0.0993 C   0  0  2  0  0  0  0  0  0  0  0  0
    0.3330    1.2313   -0.9888 O   0  0  0  0  0  0  0  0  0  0  0  0
   -0.3227    3.3941   -0.5930 N   0  0  0  0  0  0  0  0  0  0  0  0
    2.3698    4.1344    3.1662 H   0  0  0  0  0  0  0  0  0  0  0  0
    0.1037    1.9462    0.8543 H   0  0  0  0  0  0  0  0  0  0  0  0
   -0.1419    2.8537    2.4542 H   0  0  0  0  0  0  0  0  0  0  0  0
    0.1237    4.4676    2.4365 H   0  0  0  0  0  0  0  0  0  0  0  0
    1.8020    4.7214    0.7955 H   0  0  0  0  0  0  0  0  0  0  0  0
    3.3388    3.9591    1.0375 H   0  0  0  0  0  0  0  0  0  0  0  0
    2.0936    1.7233    3.9364 H   0  0  0  0  0  0  0  0  0  0  0  0
    1.9739    1.2007    2.2749 H   0  0  0  0  0  0  0  0  0  0  0  0
    4.1078    0.5925    1.1652 H   0  0  0  0  0  0  0  0  0  0  0  0
    4.1081    3.3397    4.5004 H   0  0  0  0  0  0  0  0  0  0  0  0
    6.5281    0.9028    0.9172 H   0  0  0  0  0  0  0  0  0  0  0  0
    6.5378    3.6353    4.2411 H   0  0  0  0  0  0  0  0  0  0  0  0
    8.3626    2.0017    1.7099 H   0  0  0  0  0  0  0  0  0  0  0  0
    2.3266    3.0370   -0.9649 H   0  0  0  0  0  0  0  0  0  0  0  0
    2.5249    1.7861    0.1969 H   0  0  0  0  0  0  0  0  0  0  0  0
   -0.6003    0.9740   -0.8868 H   0  0  0  0  0  0  0  0  0  0  0  0
   -0.1298    4.2316   -0.0465 H   0  0  0  0  0  0  0  0  0  0  0  0
    0.0254    3.6100   -1.5281 H   0  0  0  0  0  0  0  0  0  0  0  0
  1 18  1  0  0  0  0
  1 19  1  0  0  0  0
  2  4  1  0  0  0  0
  2 16  1  1  0  0  0
  2  3  1  0  0  0  0
  2  1  1  0  0  0  0
  3 12  1  0  0  0  0
  3 20  1  0  0  0  0
  3 21  1  0  0  0  0
  4  5  1  0  0  0  0
  4 22  1  0  0  0  0
  4 23  1  0  0  0  0
  5  6  2  0  0  0  0
  5  7  1  0  0  0  0
  6  8  1  0  0  0  0
  6 24  1  0  0  0  0
  7  9  2  0  0  0  0
  7 25  1  0  0  0  0
  8 10  2  0  0  0  0
  8 26  1  0  0  0  0
  9 10  1  0  0  0  0
  9 27  1  0  0  0  0
 10 11  1  0  0  0  0
 11 28  1  0  0  0  0
 12 29  1  0  0  0  0
 12 30  1  0  0  0  0
 13 15  1  0  0  0  0
 13 17  1  1  0  0  0
 13 14  1  0  0  0  0
 13 12  1  0  0  0  0
 14 31  1  0  0  0  0
 15 32  1  0  0  0  0
 15 33  1  0  0  0  0
M  END
>  <DRUGBANK_ID>
DB07353

>  <COMMON_NAME>
4-(2,5-DIAMINO-5-HYDROXY-PENTYL)-PHENOL

$$$$
