PSK
 OpenBabel10282417173D

 27 26  0  0  0  0  0  0  0  0999 V2000
   -1.1436    0.0685    2.8830 C   0  0  0  0  0  0  0  0  0  0  0  0
    0.3726    0.2425    2.8776 C   0  0  0  0  0  0  0  0  0  0  0  0
    1.0444   -1.0072    2.2844 C   0  0  2  0  0  0  0  0  0  0  0  0
    0.6906   -1.0774    0.9062 O   0  0  0  0  0  0  0  0  0  0  0  0
    0.6066   -2.2761    3.0271 C   0  0  1  0  0  0  0  0  0  0  0  0
    1.0138   -3.5683    2.3436 C   0  0  0  0  0  0  0  0  0  0  0  0
    1.0814   -2.1646    4.4601 C   0  0  0  0  0  0  0  0  0  0  0  0
    0.2585   -2.1233    5.3894 O   0  0  0  0  0  0  0  0  0  0  0  0
    2.5467   -2.1529    4.7682 C   0  0  0  0  0  0  0  0  0  0  0  0
    3.3175   -3.7770    4.6075 P   0  0  1  0  0  0  0  0  0  0  0  0
    4.2724   -3.9263    5.7580 O   0  0  0  0  0  0  0  0  0  0  0  0
    2.0240   -4.7341    4.8289 O   0  0  0  0  0  0  0  0  0  0  0  0
    2.1331   -0.8879    2.3227 H   0  0  0  0  0  0  0  0  0  0  0  0
   -0.4854   -2.3570    3.0544 H   0  0  0  0  0  0  0  0  0  0  0  0
    3.7139   -4.2500    3.3331 H   0  0  0  0  0  0  0  0  0  0  0  0
   -1.4917   -0.2195    1.8856 H   0  0  0  0  0  0  0  0  0  0  0  0
   -1.6600    0.9746    3.1954 H   0  0  0  0  0  0  0  0  0  0  0  0
   -1.4503   -0.7148    3.5830 H   0  0  0  0  0  0  0  0  0  0  0  0
    0.6310    1.1204    2.2743 H   0  0  0  0  0  0  0  0  0  0  0  0
    0.7293    0.4389    3.8971 H   0  0  0  0  0  0  0  0  0  0  0  0
    1.0530   -1.8918    0.5222 H   0  0  0  0  0  0  0  0  0  0  0  0
    2.0949   -3.6357    2.2350 H   0  0  0  0  0  0  0  0  0  0  0  0
    0.6402   -4.4295    2.9052 H   0  0  0  0  0  0  0  0  0  0  0  0
    0.5710   -3.6519    1.3485 H   0  0  0  0  0  0  0  0  0  0  0  0
    3.0610   -1.3436    4.2414 H   0  0  0  0  0  0  0  0  0  0  0  0
    2.6297   -1.8962    5.8322 H   0  0  0  0  0  0  0  0  0  0  0  0
    1.2352   -4.3607    5.2798 H   0  0  0  0  0  0  0  0  0  0  0  0
  1  2  1  0  0  0  0
  1 16  1  0  0  0  0
  1 17  1  0  0  0  0
  1 18  1  0  0  0  0
  2 19  1  0  0  0  0
  2 20  1  0  0  0  0
  3  5  1  0  0  0  0
  3 13  1  1  0  0  0
  3  4  1  0  0  0  0
  3  2  1  0  0  0  0
  4 21  1  0  0  0  0
  5  6  1  0  0  0  0
  5  7  1  0  0  0  0
  5 14  1  1  0  0  0
  6 22  1  0  0  0  0
  6 23  1  0  0  0  0
  6 24  1  0  0  0  0
  7  8  2  0  0  0  0
  7  9  1  0  0  0  0
  9 10  1  0  0  0  0
  9 25  1  0  0  0  0
  9 26  1  0  0  0  0
 10 11  2  0  0  0  0
 10 12  1  0  0  0  0
 10 15  1  6  0  0  0
 12 27  1  0  0  0  0
M  END
>  <DRUGBANK_ID>
DB08431

>  <COMMON_NAME>
[(3R,4S)-4-HYDROXY-3-METHYL-2-OXOHEXYL]PHOSPHONIC ACID

$$$$
