
 OpenBabel10282417243D

 55 58  0  0  0  0  0  0  0  0999 V2000
   -1.2832   -0.0507   -3.8626 C   0  0  0  0  0  0  0  0  0  0  0  0
    0.1859   -0.4679   -3.8362 C   0  0  0  0  0  0  0  0  0  0  0  0
    0.2987   -1.9962   -3.8072 C   0  0  0  0  0  0  0  0  0  0  0  0
    0.7304   -0.0079   -5.0725 O   0  0  0  0  0  0  0  0  0  0  0  0
    0.9685    0.1366   -2.6233 C   0  0  1  0  0  0  0  0  0  0  0  0
    2.5022    0.0169   -2.8008 C   0  0  0  0  0  0  0  0  0  0  0  0
    3.0612    0.9651   -3.8674 C   0  0  0  0  0  0  0  0  0  0  0  0
    2.5906    2.4075   -3.6535 C   0  0  1  0  0  0  0  0  0  0  0  0
    1.0837    2.5404   -3.4224 C   0  0  0  0  0  0  0  0  0  0  0  0
    0.6134    1.6045   -2.3150 C   0  0  0  0  0  0  0  0  0  0  0  0
    3.2573    2.9656   -2.4776 N   0  0  0  0  0  0  0  0  0  0  0  0
    4.1871    3.9574   -2.6089 C   0  0  0  0  0  0  0  0  0  0  0  0
    3.6823    5.2576   -3.1264 C   0  0  0  0  0  0  0  0  0  0  0  0
    4.5336    6.2880   -3.2084 C   0  0  0  0  0  0  0  0  0  0  0  0
    5.8691    6.0876   -2.8361 C   0  0  0  0  0  0  0  0  0  0  0  0
    6.8759    6.9358   -2.8262 N   0  0  0  0  0  0  0  0  0  0  0  0
    7.9310    6.2086   -2.3594 C   0  0  0  0  0  0  0  0  0  0  0  0
    7.5790    4.8980   -2.0817 C   0  0  0  0  0  0  0  0  0  0  0  0
    8.4246    3.8222   -1.5913 C   0  0  0  0  0  0  0  0  0  0  0  0
    8.6451    2.6707   -2.3537 C   0  0  0  0  0  0  0  0  0  0  0  0
    9.6095    1.7408   -1.9615 C   0  0  0  0  0  0  0  0  0  0  0  0
   10.3830    1.9756   -0.8262 C   0  0  0  0  0  0  0  0  0  0  0  0
   10.2043    3.1462   -0.0778 C   0  0  0  0  0  0  0  0  0  0  0  0
    9.1737    4.0293   -0.4274 C   0  0  0  0  0  0  0  0  0  0  0  0
   11.1869    3.5367    0.9936 C   0  0  0  0  0  0  0  0  0  0  0  0
   11.8071    4.7161    0.7012 F   0  0  0  0  0  0  0  0  0  0  0  0
   10.6158    3.7062    2.2152 F   0  0  0  0  0  0  0  0  0  0  0  0
   12.1895    2.6301    1.1641 F   0  0  0  0  0  0  0  0  0  0  0  0
    6.2350    4.8267   -2.3842 N   0  0  0  0  0  0  0  0  0  0  0  0
    5.4140    3.7363   -2.2325 N   0  0  0  0  0  0  0  0  0  0  0  0
   -1.7789   -0.4610   -4.7483 H   0  0  0  0  0  0  0  0  0  0  0  0
   -1.3864    1.0353   -3.9661 H   0  0  0  0  0  0  0  0  0  0  0  0
   -1.8126   -0.3734   -2.9637 H   0  0  0  0  0  0  0  0  0  0  0  0
   -0.1602   -2.4379   -4.6967 H   0  0  0  0  0  0  0  0  0  0  0  0
    1.3413   -2.3295   -3.8145 H   0  0  0  0  0  0  0  0  0  0  0  0
   -0.1836   -2.4086   -2.9156 H   0  0  0  0  0  0  0  0  0  0  0  0
    0.3420   -0.5125   -5.8057 H   0  0  0  0  0  0  0  0  0  0  0  0
    0.6887   -0.4365   -1.7270 H   0  0  0  0  0  0  0  0  0  0  0  0
    2.9872    0.2405   -1.8421 H   0  0  0  0  0  0  0  0  0  0  0  0
    2.7965   -1.0105   -3.0331 H   0  0  0  0  0  0  0  0  0  0  0  0
    4.1550    0.9005   -3.8815 H   0  0  0  0  0  0  0  0  0  0  0  0
    2.7735    0.6402   -4.8711 H   0  0  0  0  0  0  0  0  0  0  0  0
    2.8501    2.9815   -4.5527 H   0  0  0  0  0  0  0  0  0  0  0  0
    0.8286    3.5725   -3.1537 H   0  0  0  0  0  0  0  0  0  0  0  0
    0.5444    2.3350   -4.3525 H   0  0  0  0  0  0  0  0  0  0  0  0
   -0.4605    1.7300   -2.1421 H   0  0  0  0  0  0  0  0  0  0  0  0
    1.0791    1.8978   -1.3638 H   0  0  0  0  0  0  0  0  0  0  0  0
    3.4789    2.2858   -1.7588 H   0  0  0  0  0  0  0  0  0  0  0  0
    2.6338    5.3438   -3.3596 H   0  0  0  0  0  0  0  0  0  0  0  0
    4.2071    7.2633   -3.5338 H   0  0  0  0  0  0  0  0  0  0  0  0
    8.9103    6.6583   -2.2522 H   0  0  0  0  0  0  0  0  0  0  0  0
    8.0956    2.5107   -3.2786 H   0  0  0  0  0  0  0  0  0  0  0  0
    9.7965    0.8600   -2.5706 H   0  0  0  0  0  0  0  0  0  0  0  0
   11.1572    1.2624   -0.5482 H   0  0  0  0  0  0  0  0  0  0  0  0
    8.9979    4.9198    0.1768 H   0  0  0  0  0  0  0  0  0  0  0  0
  1  2  1  0  0  0  0
  1 31  1  0  0  0  0
  1 32  1  0  0  0  0
  1 33  1  0  0  0  0
  2  3  1  0  0  0  0
  2  4  1  0  0  0  0
  3 34  1  0  0  0  0
  3 35  1  0  0  0  0
  3 36  1  0  0  0  0
  4 37  1  0  0  0  0
  5  6  1  0  0  0  0
  5 10  1  0  0  0  0
  5 38  1  1  0  0  0
  5  2  1  0  0  0  0
  6  7  1  0  0  0  0
  6 39  1  0  0  0  0
  6 40  1  0  0  0  0
  7 41  1  0  0  0  0
  7 42  1  0  0  0  0
  8  7  1  0  0  0  0
  8  9  1  0  0  0  0
  8 11  1  0  0  0  0
  8 43  1  6  0  0  0
  9 10  1  0  0  0  0
  9 44  1  0  0  0  0
  9 45  1  0  0  0  0
 10 46  1  0  0  0  0
 10 47  1  0  0  0  0
 11 12  1  0  0  0  0
 11 48  1  0  0  0  0
 12 13  1  0  0  0  0
 12 30  2  0  0  0  0
 13 14  2  0  0  0  0
 13 49  1  0  0  0  0
 14 15  1  0  0  0  0
 14 50  1  0  0  0  0
 15 16  2  0  0  0  0
 15 29  1  0  0  0  0
 16 17  1  0  0  0  0
 17 18  2  0  0  0  0
 17 51  1  0  0  0  0
 18 19  1  0  0  0  0
 18 29  1  0  0  0  0
 19 20  2  0  0  0  0
 19 24  1  0  0  0  0
 20 21  1  0  0  0  0
 20 52  1  0  0  0  0
 21 22  2  0  0  0  0
 21 53  1  0  0  0  0
 22 23  1  0  0  0  0
 22 54  1  0  0  0  0
 23 24  2  0  0  0  0
 23 25  1  0  0  0  0
 24 55  1  0  0  0  0
 25 26  1  0  0  0  0
 25 27  1  0  0  0  0
 25 28  1  0  0  0  0
 29 30  1  0  0  0  0
M  END
>  <DRUGBANK_ID>
DB18109

>  <COMMON_NAME>
TP-3654

>  <CAS_NUMBER>
1361951-15-6

>  <UNII>
EOB0N7BOY4

>  <SYNONYMS>
2-(4-((3-(3-(trifluoromethyl)phenyl)imidazo(1,2-b)pyridazin-6-yl)amino)cyclohexyl)propan-2-ol; 2-(trans-4-((3-(3-(trifluoromethyl)phenyl)imidazo[1,2-b]pyridazin6-yl)amino)cyclohexyl)propan-2-ol hydrochloride; 4-((3-(3-(trifluoromethyl)phenyl)imidazo(1,2-b)pyridazin-6-yl)amino) -trans-cyclohexyl)propan-2-ol

$$$$
