
 OpenBabel10282417193D

 17 18  0  0  0  0  0  0  0  0999 V2000
   -0.3263    0.6359    0.0145 C   0  0  0  0  0  0  0  0  0  0  0  0
   -1.0364    1.8221    0.0075 C   0  0  0  0  0  0  0  0  0  0  0  0
   -2.4306    1.7309    0.0010 C   0  0  0  0  0  0  0  0  0  0  0  0
   -3.0713    0.4768    0.0052 C   0  0  0  0  0  0  0  0  0  0  0  0
   -2.3279   -0.7090    0.0129 C   0  0  0  0  0  0  0  0  0  0  0  0
   -0.9455   -0.6091    0.0142 C   0  0  0  0  0  0  0  0  0  0  0  0
    0.0182   -1.7262    0.0045 C   0  0  0  0  0  0  0  0  0  0  0  0
   -0.2524   -2.9095   -0.0028 O   0  0  0  0  0  0  0  0  0  0  0  0
    1.3169   -1.2054    0.0045 N   0  0  0  0  0  0  0  0  0  0  0  0
    1.4053    0.4577   -0.0054 S   0  0  0  0  0  0  0  0  0  0  0  0
    1.9399    0.9012    1.2580 O   0  0  0  0  0  0  0  0  0  0  0  0
    1.9023    0.8880   -1.2889 O   0  0  0  0  0  0  0  0  0  0  0  0
   -0.5343    2.7845    0.0005 H   0  0  0  0  0  0  0  0  0  0  0  0
   -3.0320    2.6387   -0.0113 H   0  0  0  0  0  0  0  0  0  0  0  0
   -4.1594    0.4318   -0.0016 H   0  0  0  0  0  0  0  0  0  0  0  0
   -2.8209   -1.6772    0.0128 H   0  0  0  0  0  0  0  0  0  0  0  0
    2.1515   -1.7782    0.0133 H   0  0  0  0  0  0  0  0  0  0  0  0
  1  2  1  0  0  0  0
  1  6  2  0  0  0  0
  1 10  1  0  0  0  0
  2  3  2  0  0  0  0
  2 13  1  0  0  0  0
  3  4  1  0  0  0  0
  3 14  1  0  0  0  0
  4  5  2  0  0  0  0
  4 15  1  0  0  0  0
  5  6  1  0  0  0  0
  5 16  1  0  0  0  0
  6  7  1  0  0  0  0
  7  8  2  0  0  0  0
  7  9  1  0  0  0  0
  9 10  1  0  0  0  0
  9 17  1  0  0  0  0
 10 11  2  0  0  0  0
 10 12  2  0  0  0  0
M  END
>  <DRUGBANK_ID>
DB12418

>  <COMMON_NAME>
Saccharin

>  <CAS_NUMBER>
81-07-2

>  <UNII>
FST467XS7D

>  <SYNONYMS>
Saccharin

$$$$
