
 OpenBabel10282417243D

 58 57  0  0  1  0  0  0  0  0999 V2000
    1.0263    0.0576    0.0774 Cr  0  1  0  0  0  0  0  0  0  0  0  0
    0.9429   -0.0247   -0.0783 N   0  0  0  0  0  0  0  0  0  0  0  0
    0.4529   -1.3779    0.2210 C   0  0  1  0  0  0  0  0  0  0  0  0
    0.9596   -1.8096    1.5875 C   0  0  0  0  0  0  0  0  0  0  0  0
    0.4529   -0.8419    2.6446 C   0  0  0  0  0  0  0  0  0  0  0  0
   -0.1078   -1.1036    3.8589 C   0  0  0  0  0  0  0  0  0  0  0  0
   -0.2149    0.0783    4.5983 N   0  0  0  0  0  0  0  0  0  0  0  0
    0.2755    1.0136    3.8275 C   0  0  0  0  0  0  0  0  0  0  0  0
    0.6887    0.5162    2.6104 N   0  0  0  0  0  0  0  0  0  0  0  0
   -1.0671   -1.3779    0.2210 C   0  0  0  0  0  0  0  0  0  0  0  0
   -1.7771   -2.2083   -0.6861 O   0  5  0  0  0  0  0  0  0  0  0  0
   -1.7026   -0.6348    1.0329 O   0  0  0  0  0  0  0  0  0  0  0  0
    1.0419   -0.0902    0.0106 N   0  0  0  0  0  0  0  0  0  0  0  0
    0.5519   -1.4693    0.1477 C   0  0  1  0  0  0  0  0  0  0  0  0
    1.0586   -2.0596    1.4535 C   0  0  0  0  0  0  0  0  0  0  0  0
    0.5519   -1.2238    2.6177 C   0  0  0  0  0  0  0  0  0  0  0  0
    0.0291   -1.6374    3.8063 C   0  0  0  0  0  0  0  0  0  0  0  0
   -0.1024   -0.5483    4.6732 N   0  0  0  0  0  0  0  0  0  0  0  0
    0.3368    0.4834    4.0007 C   0  0  0  0  0  0  0  0  0  0  0  0
    0.7389    0.1378    2.7286 N   0  0  0  0  0  0  0  0  0  0  0  0
   -0.9681   -1.4693    0.1477 C   0  0  0  0  0  0  0  0  0  0  0  0
   -1.6781   -2.1865   -0.8513 O   0  5  0  0  0  0  0  0  0  0  0  0
   -1.6035   -0.8274    1.0417 O   0  0  0  0  0  0  0  0  0  0  0  0
    0.9758    0.0683   -0.0689 N   0  0  0  0  0  0  0  0  0  0  0  0
    0.4858    0.9250    1.0206 C   0  0  1  0  0  0  0  0  0  0  0  0
    0.9924    2.3435    0.8168 C   0  0  0  0  0  0  0  0  0  0  0  0
    0.4858    2.8762   -0.5136 C   0  0  0  0  0  0  0  0  0  0  0  0
   -0.0083    2.1700   -1.5693 C   0  0  0  0  0  0  0  0  0  0  0  0
   -0.2402    3.0278   -2.6489 N   0  0  0  0  0  0  0  0  0  0  0  0
    0.1129    4.2146   -2.2291 C   0  0  0  0  0  0  0  0  0  0  0  0
    0.5803    4.1863   -0.9330 N   0  0  0  0  0  0  0  0  0  0  0  0
   -1.0342    0.9250    1.0206 C   0  0  0  0  0  0  0  0  0  0  0  0
   -1.7442    0.4678    2.1622 O   0  5  0  0  0  0  0  0  0  0  0  0
   -1.6697    1.3341   -0.0011 O   0  0  0  0  0  0  0  0  0  0  0  0
    0.6029    0.6246    0.6311 H   0  0  0  0  0  0  0  0  0  0  0  0
    1.9629   -0.0247   -0.0783 H   0  0  0  0  0  0  0  0  0  0  0  0
    0.8096   -2.0591   -0.5231 H   0  0  0  0  0  0  0  0  0  0  0  0
    0.6029   -2.7946    1.8054 H   0  0  0  0  0  0  0  0  0  0  0  0
    2.0296   -1.8096    1.5875 H   0  0  0  0  0  0  0  0  0  0  0  0
   -0.4197   -2.0699    4.1963 H   0  0  0  0  0  0  0  0  0  0  0  0
    0.3475    2.0435    4.1084 H   0  0  0  0  0  0  0  0  0  0  0  0
    1.0896    1.0475    1.8375 H   0  0  0  0  0  0  0  0  0  0  0  0
    0.7019    0.4707    0.7918 H   0  0  0  0  0  0  0  0  0  0  0  0
    2.0619   -0.0902    0.0106 H   0  0  0  0  0  0  0  0  0  0  0  0
    0.9086   -2.0576   -0.6718 H   0  0  0  0  0  0  0  0  0  0  0  0
    0.7019   -3.0634    1.5533 H   0  0  0  0  0  0  0  0  0  0  0  0
    2.1286   -2.0596    1.4535 H   0  0  0  0  0  0  0  0  0  0  0  0
   -0.2407   -2.6459    4.0412 H   0  0  0  0  0  0  0  0  0  0  0  0
    0.3789    1.4785    4.3918 H   0  0  0  0  0  0  0  0  0  0  0  0
    1.1029    0.7650    2.0113 H   0  0  0  0  0  0  0  0  0  0  0  0
    0.6358    0.4258   -0.9616 H   0  0  0  0  0  0  0  0  0  0  0  0
    1.9958    0.0683   -0.0689 H   0  0  0  0  0  0  0  0  0  0  0  0
    0.8424    0.5500    1.9571 H   0  0  0  0  0  0  0  0  0  0  0  0
    0.6358    2.9670    1.6098 H   0  0  0  0  0  0  0  0  0  0  0  0
    2.0624    2.3435    0.8168 H   0  0  0  0  0  0  0  0  0  0  0  0
   -0.1916    1.1158   -1.5716 H   0  0  0  0  0  0  0  0  0  0  0  0
    0.0468    5.1029   -2.8220 H   0  0  0  0  0  0  0  0  0  0  0  0
    0.9273    4.9778   -0.3912 H   0  0  0  0  0  0  0  0  0  0  0  0
  2 35  1  0  0  0  0
  2 36  1  0  0  0  0
  3  2  1  0  0  0  0
  3  4  1  0  0  0  0
  3 10  1  0  0  0  0
  3 37  1  6  0  0  0
  4  5  1  0  0  0  0
  4 38  1  0  0  0  0
  4 39  1  0  0  0  0
  5  6  2  0  0  0  0
  5  9  1  0  0  0  0
  6  7  1  0  0  0  0
  6 40  1  0  0  0  0
  7  8  2  0  0  0  0
  8  9  1  0  0  0  0
  8 41  1  0  0  0  0
  9 42  1  0  0  0  0
 10 11  1  0  0  0  0
 10 12  2  0  0  0  0
 13 43  1  0  0  0  0
 13 44  1  0  0  0  0
 14 13  1  0  0  0  0
 14 15  1  0  0  0  0
 14 21  1  0  0  0  0
 14 45  1  6  0  0  0
 15 16  1  0  0  0  0
 15 46  1  0  0  0  0
 15 47  1  0  0  0  0
 16 17  2  0  0  0  0
 16 20  1  0  0  0  0
 17 18  1  0  0  0  0
 17 48  1  0  0  0  0
 18 19  2  0  0  0  0
 19 20  1  0  0  0  0
 19 49  1  0  0  0  0
 20 50  1  0  0  0  0
 21 22  1  0  0  0  0
 21 23  2  0  0  0  0
 24 51  1  0  0  0  0
 24 52  1  0  0  0  0
 25 24  1  0  0  0  0
 25 26  1  0  0  0  0
 25 32  1  0  0  0  0
 25 53  1  1  0  0  0
 26 27  1  0  0  0  0
 26 54  1  0  0  0  0
 26 55  1  0  0  0  0
 27 28  2  0  0  0  0
 27 31  1  0  0  0  0
 28 29  1  0  0  0  0
 28 56  1  0  0  0  0
 29 30  2  0  0  0  0
 30 31  1  0  0  0  0
 30 57  1  0  0  0  0
 31 58  1  0  0  0  0
 32 33  1  0  0  0  0
 32 34  2  0  0  0  0
M  CHG  4   1   3  11  -1  22  -1  33  -1
M  END
>  <DRUGBANK_ID>
DB18516

>  <COMMON_NAME>
Chromium histidinate

>  <CAS_NUMBER>
18984-90-2

>  <UNII>
1BY3EP7D99

>  <SYNONYMS>
Chromium, tris(histidinato)-; Chromium, tris(l-histidinato-n,o)-; Chromium, tris(l-histidinato)-

$$$$
