DA8
 OpenBabel10282417163D

 67 68  0  0  0  0  0  0  0  0999 V2000
   -7.2907    2.7547    1.0117 C   0  0  0  0  0  0  0  0  0  0  0  0
   -7.9119    1.4002    1.3521 C   0  0  0  0  0  0  0  0  0  0  0  0
   -7.6236    0.2977    0.2844 C   0  0  0  0  0  0  0  0  0  0  0  0
   -6.2021   -0.1705    0.2489 C   0  0  0  0  0  0  0  0  0  0  0  0
   -6.1688   -0.5818    1.6707 C   0  0  0  0  0  0  0  0  0  0  0  0
   -6.5954   -1.9744    1.8829 C   0  0  0  0  0  0  0  0  0  0  0  0
   -5.6069   -2.6680    1.1049 O   0  0  0  0  0  0  0  0  0  0  0  0
   -4.2773   -2.4430    1.6908 C   0  0  2  0  0  0  0  0  0  0  0  0
   -4.5046   -2.5548    3.1197 O   0  0  0  0  0  0  0  0  0  0  0  0
   -4.7787   -1.4998    4.0896 C   0  0  2  0  0  0  0  0  0  0  0  0
   -5.9952   -1.5924    5.0120 C   0  0  0  0  0  0  0  0  0  0  0  0
   -7.0486   -0.7956    4.5214 O   0  0  0  0  0  0  0  0  0  0  0  0
   -4.3079    0.0406    3.7319 C   0  0  2  0  0  0  0  0  0  0  0  0
   -4.9090    1.1064    4.4508 O   0  0  0  0  0  0  0  0  0  0  0  0
   -3.6633    0.3567    2.1455 C   0  0  0  0  0  0  0  0  0  0  0  0
   -3.2446   -1.0633    1.2760 C   0  0  1  0  0  0  0  0  0  0  0  0
   -1.7538   -1.2971    1.0556 O   0  0  0  0  0  0  0  0  0  0  0  0
   -0.5860   -1.5043    1.9892 C   0  0  2  0  0  0  0  0  0  0  0  0
   -0.5829   -2.7978    2.7155 O   0  0  0  0  0  0  0  0  0  0  0  0
   -1.8187   -2.9078    3.3885 C   0  0  1  0  0  0  0  0  0  0  0  0
   -2.6042   -4.2816    3.7204 C   0  0  0  0  0  0  0  0  0  0  0  0
   -1.9476   -1.5560    4.1904 C   0  0  1  0  0  0  0  0  0  0  0  0
   -2.2000   -1.6053    5.5592 O   0  0  0  0  0  0  0  0  0  0  0  0
   -1.4184   -0.1397    3.7508 C   0  0  1  0  0  0  0  0  0  0  0  0
   -1.5982    1.1329    4.4017 O   0  0  0  0  0  0  0  0  0  0  0  0
   -0.2269   -0.2657    2.9108 C   0  0  2  0  0  0  0  0  0  0  0  0
   -0.0317    0.9425    2.1485 O   0  0  0  0  0  0  0  0  0  0  0  0
   -5.7687    2.8897    1.1076 C   0  0  0  0  0  0  0  0  0  0  0  0
   -3.7550   -3.3281    1.2933 H   0  0  0  0  0  0  0  0  0  0  0  0
   -4.1476   -1.9271    4.8774 H   0  0  0  0  0  0  0  0  0  0  0  0
   -3.5077    0.0467    4.4357 H   0  0  0  0  0  0  0  0  0  0  0  0
   -3.5373   -0.8697    0.2253 H   0  0  0  0  0  0  0  0  0  0  0  0
    0.2897   -1.5816    1.3467 H   0  0  0  0  0  0  0  0  0  0  0  0
   -2.3688   -2.8184    2.4782 H   0  0  0  0  0  0  0  0  0  0  0  0
   -2.8497   -1.4166    3.6848 H   0  0  0  0  0  0  0  0  0  0  0  0
   -1.9939    0.0498    2.9032 H   0  0  0  0  0  0  0  0  0  0  0  0
    0.5517   -0.3650    3.6671 H   0  0  0  0  0  0  0  0  0  0  0  0
   -5.1973    4.1861    0.5892 C   0  0  0  0  0  0  0  0  0  0  0  0
   -7.7318    3.4918    1.6869 H   0  0  0  0  0  0  0  0  0  0  0  0
   -7.6023    2.9749   -0.0088 H   0  0  0  0  0  0  0  0  0  0  0  0
   -7.6756    1.1707    2.4034 H   0  0  0  0  0  0  0  0  0  0  0  0
   -8.9983    1.4601    1.4240 H   0  0  0  0  0  0  0  0  0  0  0  0
   -8.2189   -0.5775    0.5672 H   0  0  0  0  0  0  0  0  0  0  0  0
   -7.9364    0.5652   -0.7151 H   0  0  0  0  0  0  0  0  0  0  0  0
   -5.9667   -1.0031   -0.4252 H   0  0  0  0  0  0  0  0  0  0  0  0
   -5.4620    0.5544   -0.0831 H   0  0  0  0  0  0  0  0  0  0  0  0
   -5.1570   -0.7236    1.9159 H   0  0  0  0  0  0  0  0  0  0  0  0
   -6.2861    0.2097    2.3860 H   0  0  0  0  0  0  0  0  0  0  0  0
   -6.5434   -2.3330    2.8947 H   0  0  0  0  0  0  0  0  0  0  0  0
   -7.6474   -2.1502    1.6708 H   0  0  0  0  0  0  0  0  0  0  0  0
   -6.3308   -2.6288    5.1290 H   0  0  0  0  0  0  0  0  0  0  0  0
   -5.7156   -1.1930    5.9967 H   0  0  0  0  0  0  0  0  0  0  0  0
   -6.5889   -0.0083    4.1699 H   0  0  0  0  0  0  0  0  0  0  0  0
   -5.6419    1.5981    3.9809 H   0  0  0  0  0  0  0  0  0  0  0  0
   -4.4164    0.9146    1.6095 H   0  0  0  0  0  0  0  0  0  0  0  0
   -2.9280    1.1769    2.0265 H   0  0  0  0  0  0  0  0  0  0  0  0
   -3.7180   -4.2843    3.6839 H   0  0  0  0  0  0  0  0  0  0  0  0
   -2.4247   -5.0362    2.9388 H   0  0  0  0  0  0  0  0  0  0  0  0
   -2.4448   -4.6682    4.7198 H   0  0  0  0  0  0  0  0  0  0  0  0
   -1.4818   -2.1446    5.9301 H   0  0  0  0  0  0  0  0  0  0  0  0
   -2.4951    1.3360    4.7619 H   0  0  0  0  0  0  0  0  0  0  0  0
   -0.8919    1.2394    1.7879 H   0  0  0  0  0  0  0  0  0  0  0  0
   -5.4092    2.7049    2.1251 H   0  0  0  0  0  0  0  0  0  0  0  0
   -5.2920    2.2004    0.4324 H   0  0  0  0  0  0  0  0  0  0  0  0
   -5.5074    5.0327    1.1975 H   0  0  0  0  0  0  0  0  0  0  0  0
   -4.1010    4.1171    0.5979 H   0  0  0  0  0  0  0  0  0  0  0  0
   -5.5034    4.3255   -0.4518 H   0  0  0  0  0  0  0  0  0  0  0  0
  1  2  1  0  0  0  0
  1 28  1  0  0  0  0
  1 39  1  0  0  0  0
  1 40  1  0  0  0  0
  2  3  1  0  0  0  0
  2 41  1  0  0  0  0
  2 42  1  0  0  0  0
  3  4  1  0  0  0  0
  3 43  1  0  0  0  0
  3 44  1  0  0  0  0
  4  5  1  0  0  0  0
  4 45  1  0  0  0  0
  4 46  1  0  0  0  0
  5  6  1  0  0  0  0
  5 47  1  0  0  0  0
  5 48  1  0  0  0  0
  6  7  1  0  0  0  0
  6 49  1  0  0  0  0
  6 50  1  0  0  0  0
  8  9  1  0  0  0  0
  8 16  1  0  0  0  0
  8 29  1  6  0  0  0
  8  7  1  0  0  0  0
  9 10  1  0  0  0  0
 10 13  1  0  0  0  0
 10 30  1  1  0  0  0
 10 11  1  0  0  0  0
 11 12  1  0  0  0  0
 11 51  1  0  0  0  0
 11 52  1  0  0  0  0
 12 53  1  0  0  0  0
 13 14  1  0  0  0  0
 13 15  1  0  0  0  0
 13 31  1  1  0  0  0
 14 54  1  0  0  0  0
 15 16  1  0  0  0  0
 15 55  1  0  0  0  0
 15 56  1  0  0  0  0
 16 32  1  6  0  0  0
 16 17  1  0  0  0  0
 18 19  1  0  0  0  0
 18 26  1  0  0  0  0
 18 33  1  6  0  0  0
 18 17  1  0  0  0  0
 19 20  1  0  0  0  0
 20 21  1  0  0  0  0
 20 22  1  0  0  0  0
 20 34  1  6  0  0  0
 21 57  1  0  0  0  0
 21 58  1  0  0  0  0
 21 59  1  0  0  0  0
 22 23  1  0  0  0  0
 22 24  1  0  0  0  0
 22 35  1  6  0  0  0
 23 60  1  0  0  0  0
 24 25  1  0  0  0  0
 24 26  1  0  0  0  0
 24 36  1  6  0  0  0
 25 61  1  0  0  0  0
 26 27  1  0  0  0  0
 26 37  1  1  0  0  0
 27 62  1  0  0  0  0
 28 38  1  0  0  0  0
 28 63  1  0  0  0  0
 28 64  1  0  0  0  0
 38 65  1  0  0  0  0
 38 66  1  0  0  0  0
 38 67  1  0  0  0  0
M  END
>  <DRUGBANK_ID>
DB07633

>  <COMMON_NAME>
octyl 3-deoxy-2-O-(6-deoxy-alpha-L-galactopyranosyl)-beta-D-xylo-hexopyranoside

$$$$
