
 OpenBabel10282417153D

 53 57  0  0  0  0  0  0  0  0999 V2000
   -2.0520   -1.4913    0.0228 N   0  0  0  0  0  0  0  0  0  0  0  0
   -1.5969    1.1290   -0.1843 N   0  0  0  0  0  0  0  0  0  0  0  0
    0.7555   -0.1807    0.1296 C   0  0  0  0  0  0  0  0  0  0  0  0
   -0.2485   -0.3210    1.3776 C   0  0  3  0  0  0  0  0  0  0  0  0
   -0.0524   -0.4043   -1.1725 C   0  0  3  0  0  0  0  0  0  0  0  0
    1.7415   -1.3428    0.1376 C   0  0  0  0  0  0  0  0  0  0  0  0
    1.7451    1.1391    0.1138 C   0  0  0  0  0  0  0  0  0  0  0  0
   -1.2934   -1.4106    1.2854 C   0  0  0  0  0  0  0  0  0  0  0  0
   -1.1685   -1.4553   -1.1629 C   0  0  0  0  0  0  0  0  0  0  0  0
   -1.2185    0.7134    1.5926 C   0  0  0  0  0  0  0  0  0  0  0  0
   -0.7981    0.7721   -1.3713 C   0  0  0  0  0  0  0  0  0  0  0  0
    3.0746   -0.7573   -0.3782 C   0  0  0  0  0  0  0  0  0  0  0  0
    3.1762    0.6412    0.1965 C   0  0  0  0  0  0  0  0  0  0  0  0
   -3.2169   -0.5205   -0.0567 C   0  0  0  0  0  0  0  0  0  0  0  0
   -2.9584    2.8990   -0.0792 C   0  0  0  0  0  0  0  0  0  0  0  0
   -3.2653    1.1645   -0.0996 C   0  0  0  0  0  0  0  0  0  0  0  0
   -1.5842    4.2454   -0.2163 C   0  0  0  0  0  0  0  0  0  0  0  0
   -2.1186    2.3388   -1.3806 C   0  0  0  0  0  0  0  0  0  0  0  0
   -1.6909    2.4306    0.7607 C   0  0  0  0  0  0  0  0  0  0  0  0
   -0.3004    4.4477   -1.1546 C   0  0  0  0  0  0  0  0  0  0  0  0
    0.0036    3.8200    0.1030 C   0  0  0  0  0  0  0  0  0  0  0  0
    0.3157   -0.2050    2.3030 H   0  0  0  0  0  0  0  0  0  0  0  0
    0.5270   -0.3645   -2.1056 H   0  0  0  0  0  0  0  0  0  0  0  0
    1.7803   -1.7545    1.1490 H   0  0  0  0  0  0  0  0  0  0  0  0
    1.3801   -2.1751   -0.4808 H   0  0  0  0  0  0  0  0  0  0  0  0
    1.6853    1.7694   -0.8020 H   0  0  0  0  0  0  0  0  0  0  0  0
    1.5937    1.8299    0.9586 H   0  0  0  0  0  0  0  0  0  0  0  0
   -2.0357   -1.2882    2.1021 H   0  0  0  0  0  0  0  0  0  0  0  0
   -0.7303   -2.3029    1.4954 H   0  0  0  0  0  0  0  0  0  0  0  0
   -0.6236   -2.3795   -1.2745 H   0  0  0  0  0  0  0  0  0  0  0  0
   -1.8080   -1.3685   -2.0667 H   0  0  0  0  0  0  0  0  0  0  0  0
   -2.1946    0.7772    2.1775 H   0  0  0  0  0  0  0  0  0  0  0  0
   -0.6327    1.5414    2.2590 H   0  0  0  0  0  0  0  0  0  0  0  0
   -1.5217    0.6009   -2.2387 H   0  0  0  0  0  0  0  0  0  0  0  0
   -0.0781    1.5651   -1.5761 H   0  0  0  0  0  0  0  0  0  0  0  0
    3.9464   -1.3524   -0.1031 H   0  0  0  0  0  0  0  0  0  0  0  0
    3.0925   -0.6749   -1.4745 H   0  0  0  0  0  0  0  0  0  0  0  0
    3.5093    0.6238    1.2379 H   0  0  0  0  0  0  0  0  0  0  0  0
    3.9011    1.2804   -0.3362 H   0  0  0  0  0  0  0  0  0  0  0  0
   -3.7802   -0.8240   -0.9484 H   0  0  0  0  0  0  0  0  0  0  0  0
   -3.8506   -0.7273    0.8135 H   0  0  0  0  0  0  0  0  0  0  0  0
   -3.7647    3.0436   -0.8957 H   0  0  0  0  0  0  0  0  0  0  0  0
   -3.5206    3.0325    0.9075 H   0  0  0  0  0  0  0  0  0  0  0  0
   -4.3060    1.2194   -0.4255 H   0  0  0  0  0  0  0  0  0  0  0  0
   -2.0841    5.0883    0.1689 H   0  0  0  0  0  0  0  0  0  0  0  0
   -1.4242    2.3634   -2.2501 H   0  0  0  0  0  0  0  0  0  0  0  0
   -2.3857    3.2981   -1.9299 H   0  0  0  0  0  0  0  0  0  0  0  0
   -1.9830    2.8910    1.7280 H   0  0  0  0  0  0  0  0  0  0  0  0
   -0.5359    2.1405    0.8225 H   0  0  0  0  0  0  0  0  0  0  0  0
   -0.0617    3.8544   -2.0478 H   0  0  0  0  0  0  0  0  0  0  0  0
    0.1876    5.3919   -1.2170 H   0  0  0  0  0  0  0  0  0  0  0  0
    0.5154    3.9168    1.0601 H   0  0  0  0  0  0  0  0  0  0  0  0
    0.3907    2.8563   -0.1966 H   0  0  0  0  0  0  0  0  0  0  0  0
  1  8  1  0  0  0  0
  1  9  1  0  0  0  0
  1 14  1  0  0  0  0
  2 10  1  0  0  0  0
  2 11  1  0  0  0  0
  2 15  1  0  0  0  0
  3  4  1  0  0  0  0
  3  5  1  0  0  0  0
  3  6  1  0  0  0  0
  3  7  1  0  0  0  0
  4  8  1  0  0  0  0
  4 10  1  0  0  0  0
  4 22  1  0  0  0  0
  5  9  1  0  0  0  0
  5 11  1  0  0  0  0
  5 23  1  0  0  0  0
  6 12  1  0  0  0  0
  6 24  1  0  0  0  0
  6 25  1  0  0  0  0
  7 13  1  0  0  0  0
  7 26  1  0  0  0  0
  7 27  1  0  0  0  0
  8 28  1  0  0  0  0
  8 29  1  0  0  0  0
  9 30  1  0  0  0  0
  9 31  1  0  0  0  0
 10 32  1  0  0  0  0
 10 33  1  0  0  0  0
 11 34  1  0  0  0  0
 11 35  1  0  0  0  0
 12 13  1  0  0  0  0
 12 36  1  0  0  0  0
 12 37  1  0  0  0  0
 13 38  1  0  0  0  0
 13 39  1  0  0  0  0
 14 16  1  0  0  0  0
 14 40  1  0  0  0  0
 14 41  1  0  0  0  0
 15 17  1  0  0  0  0
 15 42  1  0  0  0  0
 15 43  1  0  0  0  0
 16 18  1  0  0  0  0
 16 19  1  0  0  0  0
 16 44  1  0  0  0  0
 17 20  1  0  0  0  0
 17 21  1  0  0  0  0
 17 45  1  0  0  0  0
 18 19  1  0  0  0  0
 18 46  1  0  0  0  0
 18 47  1  0  0  0  0
 19 48  1  0  0  0  0
 19 49  1  0  0  0  0
 20 21  1  0  0  0  0
 20 50  1  0  0  0  0
 20 51  1  0  0  0  0
 21 52  1  0  0  0  0
 21 53  1  0  0  0  0
M  END
>  <DRUGBANK_ID>
DB06200

>  <COMMON_NAME>
Tedisamil

>  <CAS_NUMBER>
90961-53-8

>  <UNII>
A5VAY2U3R8

>  <SYNONYMS>
Tedisamil

$$$$
