
 OpenBabel10282417123D

 28 27  0  0  0  0  0  0  0  0999 V2000
   -0.7651   -1.8207   -0.7001 C   0  0  0  0  0  0  0  0  0  0  0  0
   -0.5541   -2.6627    0.1734 O   0  0  0  0  0  0  0  0  0  0  0  0
    0.2336   -0.6994   -1.1122 C   0  0  1  0  0  0  0  0  0  0  0  0
   -0.4592    0.3958   -1.8112 N   0  0  0  0  0  0  0  0  0  0  0  0
    1.0163   -0.0569    0.0519 C   0  0  0  0  0  0  0  0  0  0  0  0
    1.4293   -1.0180    1.1606 C   0  0  0  0  0  0  0  0  0  0  0  0
    2.2689   -2.1692    0.6270 C   0  0  0  0  0  0  0  0  0  0  0  0
    3.6072   -1.6919    0.2460 N   0  0  0  0  0  0  0  0  0  0  0  0
    4.7526   -2.0924    0.8084 C   0  0  0  0  0  0  0  0  0  0  0  0
    5.9110   -1.5611    0.4051 N   0  0  0  0  0  0  0  0  0  0  0  0
    4.7805   -3.0122    1.7737 N   0  3  0  0  0  0  0  0  0  0  0  0
   -1.9090   -1.9244   -1.4217 N   0  0  0  0  0  0  0  0  0  0  0  0
    0.9467   -1.1491   -1.8166 H   0  0  0  0  0  0  0  0  0  0  0  0
   -0.9202    0.0508   -2.6478 H   0  0  0  0  0  0  0  0  0  0  0  0
   -1.1988    0.7475   -1.1981 H   0  0  0  0  0  0  0  0  0  0  0  0
    1.9172    0.4305   -0.3505 H   0  0  0  0  0  0  0  0  0  0  0  0
    0.4314    0.7509    0.5099 H   0  0  0  0  0  0  0  0  0  0  0  0
    1.9795   -0.4781    1.9392 H   0  0  0  0  0  0  0  0  0  0  0  0
    0.5332   -1.3908    1.6681 H   0  0  0  0  0  0  0  0  0  0  0  0
    2.3164   -2.9466    1.3888 H   0  0  0  0  0  0  0  0  0  0  0  0
    1.8499   -2.6486   -0.2615 H   0  0  0  0  0  0  0  0  0  0  0  0
    3.6665   -1.0017   -0.4937 H   0  0  0  0  0  0  0  0  0  0  0  0
    6.7855   -1.8477    0.8254 H   0  0  0  0  0  0  0  0  0  0  0  0
    5.9624   -0.8517   -0.3150 H   0  0  0  0  0  0  0  0  0  0  0  0
    3.9360   -3.4504    2.1132 H   0  0  0  0  0  0  0  0  0  0  0  0
    5.6417   -3.3162    2.2016 H   0  0  0  0  0  0  0  0  0  0  0  0
   -2.0877   -1.4132   -2.2700 H   0  0  0  0  0  0  0  0  0  0  0  0
   -2.5597   -2.6496   -1.1470 H   0  0  0  0  0  0  0  0  0  0  0  0
  2  1  2  0  0  0  0
  3  4  1  0  0  0  0
  3 13  1  6  0  0  0
  3  5  1  0  0  0  0
  3  1  1  0  0  0  0
  4 14  1  0  0  0  0
  4 15  1  0  0  0  0
  5 16  1  0  0  0  0
  5 17  1  0  0  0  0
  6  5  1  0  0  0  0
  6 18  1  0  0  0  0
  6 19  1  0  0  0  0
  7  6  1  0  0  0  0
  7 20  1  0  0  0  0
  7 21  1  0  0  0  0
  8  7  1  0  0  0  0
  8 22  1  0  0  0  0
  9  8  1  0  0  0  0
 10  9  1  0  0  0  0
 10 23  1  0  0  0  0
 10 24  1  0  0  0  0
 11  9  2  0  0  0  0
 11 25  1  0  0  0  0
 11 26  1  0  0  0  0
 12  1  1  0  0  0  0
 12 27  1  0  0  0  0
 12 28  1  0  0  0  0
M  CHG  1  11   1
M  END
>  <DRUGBANK_ID>
DB02299

>  <SECONDARY_ACCESSION_NUMBERS>
EXPT00385

>  <COMMON_NAME>
Arginineamide

>  <SYNONYMS>
L-arginine amide(1+)

$$$$
