298
 OpenBabel10282417103D

 51 54  0  0  0  0  0  0  0  0999 V2000
   -1.4109    0.0237    0.2570 N   0  0  0  0  0  0  0  0  0  0  0  0
    1.3415   -0.2542   -0.8956 N   0  0  0  0  0  0  0  0  0  0  0  0
    2.2694    1.7703    1.8611 N   0  0  0  0  0  0  0  0  0  0  0  0
    0.4025    2.7999    2.3501 N   0  0  0  0  0  0  0  0  0  0  0  0
    1.1820    3.6552    1.6032 N   0  0  0  0  0  0  0  0  0  0  0  0
   -0.8382   -1.2449   -0.2435 C   0  0  0  0  0  0  0  0  0  0  0  0
   -0.8492    1.1351   -0.5466 C   0  0  0  0  0  0  0  0  0  0  0  0
   -1.3039    0.2193    1.7359 C   0  0  0  0  0  0  0  0  0  0  0  0
    0.7137   -1.3743   -0.1735 C   0  0  0  0  0  0  0  0  0  0  0  0
    0.6835    1.0572   -0.6260 C   0  0  0  0  0  0  0  0  0  0  0  0
    0.0678    0.3167    2.5800 C   0  0  0  0  0  0  0  0  0  0  0  0
    3.2566    0.8077    1.4212 C   0  0  0  0  0  0  0  0  0  0  0  0
    0.9522    1.5963    2.3816 C   0  0  0  0  0  0  0  0  0  0  0  0
    4.4698    1.4883    0.6684 C   0  0  0  0  0  0  0  0  0  0  0  0
    4.0362    2.4357   -0.4901 C   0  0  0  0  0  0  0  0  0  0  0  0
    3.3186    3.5392    0.2534 C   0  0  0  0  0  0  0  0  0  0  0  0
    2.2777    3.0311    1.2429 C   0  0  0  0  0  0  0  0  0  0  0  0
    2.5426   -0.4185   -1.5878 C   0  0  0  0  0  0  0  0  0  0  0  0
    2.5453   -0.8800   -2.8562 C   0  0  0  0  0  0  0  0  0  0  0  0
    3.8502   -0.4538   -1.0862 C   0  0  0  0  0  0  0  0  0  0  0  0
    3.7443   -0.9855   -3.6373 C   0  0  0  0  0  0  0  0  0  0  0  0
    1.2792   -1.5216   -3.3183 C   0  0  0  0  0  0  0  0  0  0  0  0
    5.0002   -0.1712   -1.8722 C   0  0  0  0  0  0  0  0  0  0  0  0
    4.9596   -0.4775   -3.1632 C   0  0  0  0  0  0  0  0  0  0  0  0
   -1.3238   -2.0962    0.2419 H   0  0  0  0  0  0  0  0  0  0  0  0
   -1.1386   -1.3147   -1.2981 H   0  0  0  0  0  0  0  0  0  0  0  0
   -1.2475    1.1507   -1.5660 H   0  0  0  0  0  0  0  0  0  0  0  0
   -1.1751    2.0854   -0.0884 H   0  0  0  0  0  0  0  0  0  0  0  0
   -1.9402    1.0774    2.0039 H   0  0  0  0  0  0  0  0  0  0  0  0
   -1.8740   -0.6333    2.1509 H   0  0  0  0  0  0  0  0  0  0  0  0
    1.0420   -1.3818    0.8613 H   0  0  0  0  0  0  0  0  0  0  0  0
    1.0447   -2.3365   -0.5666 H   0  0  0  0  0  0  0  0  0  0  0  0
    0.8240    1.0877    0.4081 H   0  0  0  0  0  0  0  0  0  0  0  0
    1.1521    1.9699   -0.9950 H   0  0  0  0  0  0  0  0  0  0  0  0
   -0.2512    0.3036    3.6336 H   0  0  0  0  0  0  0  0  0  0  0  0
    0.6182   -0.6174    2.4866 H   0  0  0  0  0  0  0  0  0  0  0  0
    2.6735    0.1509    0.8059 H   0  0  0  0  0  0  0  0  0  0  0  0
    3.5722    0.1068    2.1962 H   0  0  0  0  0  0  0  0  0  0  0  0
    5.2516    0.7854    0.3751 H   0  0  0  0  0  0  0  0  0  0  0  0
    5.0320    2.0882    1.3828 H   0  0  0  0  0  0  0  0  0  0  0  0
    4.9049    2.8252   -1.0544 H   0  0  0  0  0  0  0  0  0  0  0  0
    3.3937    2.0480   -1.2986 H   0  0  0  0  0  0  0  0  0  0  0  0
    4.1059    4.0525    0.8103 H   0  0  0  0  0  0  0  0  0  0  0  0
    2.9018    4.2512   -0.4668 H   0  0  0  0  0  0  0  0  0  0  0  0
    4.0649   -0.7590   -0.0833 H   0  0  0  0  0  0  0  0  0  0  0  0
    3.7363   -1.5173   -4.5629 H   0  0  0  0  0  0  0  0  0  0  0  0
    0.9593   -1.0738   -4.2456 H   0  0  0  0  0  0  0  0  0  0  0  0
    1.4347   -2.6007   -3.3176 H   0  0  0  0  0  0  0  0  0  0  0  0
    0.4495   -1.3613   -2.6322 H   0  0  0  0  0  0  0  0  0  0  0  0
    5.9423    0.1836   -1.4228 H   0  0  0  0  0  0  0  0  0  0  0  0
    5.8904   -0.4871   -3.7355 H   0  0  0  0  0  0  0  0  0  0  0  0
  1  6  1  0  0  0  0
  1  7  1  0  0  0  0
  1  8  1  0  0  0  0
  2  9  1  0  0  0  0
  2 10  1  0  0  0  0
  2 18  1  0  0  0  0
  3 12  1  0  0  0  0
  3 13  1  0  0  0  0
  3 17  1  0  0  0  0
  4  5  1  0  0  0  0
  4 13  2  0  0  0  0
  5 17  2  0  0  0  0
  6  9  1  0  0  0  0
  6 25  1  0  0  0  0
  6 26  1  0  0  0  0
  7 10  1  0  0  0  0
  7 27  1  0  0  0  0
  7 28  1  0  0  0  0
  8 11  1  0  0  0  0
  8 29  1  0  0  0  0
  8 30  1  0  0  0  0
  9 31  1  0  0  0  0
  9 32  1  0  0  0  0
 10 33  1  0  0  0  0
 10 34  1  0  0  0  0
 11 13  1  0  0  0  0
 11 35  1  0  0  0  0
 11 36  1  0  0  0  0
 12 14  1  0  0  0  0
 12 37  1  0  0  0  0
 12 38  1  0  0  0  0
 14 15  1  0  0  0  0
 14 39  1  0  0  0  0
 14 40  1  0  0  0  0
 15 16  1  0  0  0  0
 15 41  1  0  0  0  0
 15 42  1  0  0  0  0
 16 17  1  0  0  0  0
 16 43  1  0  0  0  0
 16 44  1  0  0  0  0
 18 19  1  0  0  0  0
 18 20  2  0  0  0  0
 19 21  2  0  0  0  0
 19 22  1  0  0  0  0
 20 23  1  0  0  0  0
 20 45  1  0  0  0  0
 21 24  1  0  0  0  0
 21 46  1  0  0  0  0
 22 47  1  0  0  0  0
 22 48  1  0  0  0  0
 22 49  1  0  0  0  0
 23 24  2  0  0  0  0
 23 50  1  0  0  0  0
 24 51  1  0  0  0  0
M  END
>  <DRUGBANK_ID>
DB00298

>  <SECONDARY_ACCESSION_NUMBERS>
APRD00902

>  <COMMON_NAME>
Dapiprazole

>  <CAS_NUMBER>
72822-12-9

>  <UNII>
5RNZ8GJO7K

>  <SYNONYMS>
5,6,7,8-Tetrahydro-3-(2-(4-(o-tolyl)-1-piperazinyl)ethyl)-s-triazolo(4,3-a)pyridine; Dapiprazol; Dapiprazole; Dapiprazolum

$$$$
