
 OpenBabel10282417203D

 54 56  0  0  0  0  0  0  0  0999 V2000
   -2.3213   -0.0801    0.1804 C   0  0  0  0  0  0  0  0  0  0  0  0
   -0.8670   -0.0051   -0.2130 N   0  3  0  0  0  0  0  0  0  0  0  0
   -0.1220    1.2852    0.2164 C   0  0  0  0  0  0  0  0  0  0  0  0
    1.3231    1.2716   -0.2826 C   0  0  0  0  0  0  0  0  0  0  0  0
    2.0884    0.0226    0.1633 C   0  0  0  0  0  0  0  0  0  0  0  0
    1.3129   -1.2507   -0.1684 C   0  0  0  0  0  0  0  0  0  0  0  0
   -0.1036   -1.2172    0.4342 C   0  0  3  0  0  0  0  0  0  0  0  0
   -0.0086   -1.1344    2.0401 C   0  0  0  0  0  0  0  0  0  0  0  0
   -1.2525   -1.0971    2.7815 O   0  0  0  0  0  0  0  0  0  0  0  0
   -1.9574    0.0832    2.9099 C   0  0  0  0  0  0  0  0  0  0  0  0
   -1.4898    1.1864    2.7274 O   0  0  0  0  0  0  0  0  0  0  0  0
   -3.5255   -0.1705    3.0822 C   0  0  0  0  0  0  0  0  0  0  0  0
   -4.2051   -1.4232    2.4576 C   0  0  0  0  0  0  0  0  0  0  0  0
   -3.5909   -2.6860    2.4990 C   0  0  0  0  0  0  0  0  0  0  0  0
   -4.2955   -3.8593    2.2522 C   0  0  0  0  0  0  0  0  0  0  0  0
   -5.6352   -3.8044    1.9031 C   0  0  0  0  0  0  0  0  0  0  0  0
   -6.2663   -2.5717    1.7854 C   0  0  0  0  0  0  0  0  0  0  0  0
   -5.5515   -1.3903    2.0167 C   0  0  0  0  0  0  0  0  0  0  0  0
   -3.6097   -0.1256    4.5796 C   0  0  0  0  0  0  0  0  0  0  0  0
   -3.5128    1.1206    5.2107 C   0  0  0  0  0  0  0  0  0  0  0  0
   -3.4049    1.1761    6.5845 C   0  0  0  0  0  0  0  0  0  0  0  0
   -3.4027   -0.0060    7.3251 C   0  0  0  0  0  0  0  0  0  0  0  0
   -3.4503   -1.2454    6.7015 C   0  0  0  0  0  0  0  0  0  0  0  0
   -3.4834   -1.3008    5.3296 C   0  0  0  0  0  0  0  0  0  0  0  0
   -4.2327    0.9395    2.4862 O   0  0  0  0  0  0  0  0  0  0  0  0
   -1.0601   -0.0257   -1.7213 C   0  0  0  0  0  0  0  0  0  0  0  0
   -2.8813   -0.8465   -0.3668 H   0  0  0  0  0  0  0  0  0  0  0  0
   -2.3139   -0.5838    1.0918 H   0  0  0  0  0  0  0  0  0  0  0  0
   -2.7888    0.9024    0.2188 H   0  0  0  0  0  0  0  0  0  0  0  0
   -0.6954    2.1556   -0.1101 H   0  0  0  0  0  0  0  0  0  0  0  0
   -0.0360    1.3180    1.2948 H   0  0  0  0  0  0  0  0  0  0  0  0
    1.3387    1.3467   -1.3717 H   0  0  0  0  0  0  0  0  0  0  0  0
    1.8431    2.1563    0.1044 H   0  0  0  0  0  0  0  0  0  0  0  0
    3.0771   -0.0005   -0.3051 H   0  0  0  0  0  0  0  0  0  0  0  0
    2.2824    0.0681    1.2420 H   0  0  0  0  0  0  0  0  0  0  0  0
    1.2676   -1.3661   -1.2578 H   0  0  0  0  0  0  0  0  0  0  0  0
    1.8580   -2.1279    0.1990 H   0  0  0  0  0  0  0  0  0  0  0  0
   -0.6642   -2.1136    0.1375 H   0  0  0  0  0  0  0  0  0  0  0  0
    0.4858   -2.0603    2.3641 H   0  0  0  0  0  0  0  0  0  0  0  0
    0.6255   -0.3241    2.3995 H   0  0  0  0  0  0  0  0  0  0  0  0
   -2.5757   -2.8129    2.8542 H   0  0  0  0  0  0  0  0  0  0  0  0
   -3.8032   -4.8152    2.4094 H   0  0  0  0  0  0  0  0  0  0  0  0
   -6.1888   -4.7249    1.7407 H   0  0  0  0  0  0  0  0  0  0  0  0
   -7.3316   -2.5341    1.5628 H   0  0  0  0  0  0  0  0  0  0  0  0
   -6.0988   -0.4560    1.8904 H   0  0  0  0  0  0  0  0  0  0  0  0
   -3.4373    2.0375    4.6217 H   0  0  0  0  0  0  0  0  0  0  0  0
   -3.3216    2.1416    7.0708 H   0  0  0  0  0  0  0  0  0  0  0  0
   -3.3420    0.0345    8.4048 H   0  0  0  0  0  0  0  0  0  0  0  0
   -3.4514   -2.1743    7.2613 H   0  0  0  0  0  0  0  0  0  0  0  0
   -3.3617   -2.2777    4.8749 H   0  0  0  0  0  0  0  0  0  0  0  0
   -5.0268    1.0866    3.0357 H   0  0  0  0  0  0  0  0  0  0  0  0
   -0.1117   -0.0231   -2.2424 H   0  0  0  0  0  0  0  0  0  0  0  0
   -1.6374   -0.9212   -1.9788 H   0  0  0  0  0  0  0  0  0  0  0  0
   -1.6469    0.8693   -1.9725 H   0  0  0  0  0  0  0  0  0  0  0  0
  1  2  1  0  0  0  0
  1 27  1  0  0  0  0
  1 28  1  0  0  0  0
  1 29  1  0  0  0  0
  2  3  1  0  0  0  0
  2  7  1  0  0  0  0
  2 26  1  0  0  0  0
  3  4  1  0  0  0  0
  3 30  1  0  0  0  0
  3 31  1  0  0  0  0
  4  5  1  0  0  0  0
  4 32  1  0  0  0  0
  4 33  1  0  0  0  0
  5  6  1  0  0  0  0
  5 34  1  0  0  0  0
  5 35  1  0  0  0  0
  6  7  1  0  0  0  0
  6 36  1  0  0  0  0
  6 37  1  0  0  0  0
  7  8  1  0  0  0  0
  7 38  1  0  0  0  0
  8  9  1  0  0  0  0
  8 39  1  0  0  0  0
  8 40  1  0  0  0  0
  9 10  1  0  0  0  0
 10 11  2  0  0  0  0
 10 12  1  0  0  0  0
 12 13  1  0  0  0  0
 12 19  1  0  0  0  0
 12 25  1  0  0  0  0
 13 14  2  0  0  0  0
 13 18  1  0  0  0  0
 14 15  1  0  0  0  0
 14 41  1  0  0  0  0
 15 16  2  0  0  0  0
 15 42  1  0  0  0  0
 16 17  1  0  0  0  0
 16 43  1  0  0  0  0
 17 18  2  0  0  0  0
 17 44  1  0  0  0  0
 18 45  1  0  0  0  0
 19 20  2  0  0  0  0
 19 24  1  0  0  0  0
 20 21  1  0  0  0  0
 20 46  1  0  0  0  0
 21 22  2  0  0  0  0
 21 47  1  0  0  0  0
 22 23  1  0  0  0  0
 22 48  1  0  0  0  0
 23 24  2  0  0  0  0
 23 49  1  0  0  0  0
 24 50  1  0  0  0  0
 25 51  1  0  0  0  0
 26 52  1  0  0  0  0
 26 53  1  0  0  0  0
 26 54  1  0  0  0  0
M  CHG  1   2   1
M  END
>  <DRUGBANK_ID>
DB13542

>  <COMMON_NAME>
Bevonium

>  <CAS_NUMBER>
33371-53-8

>  <UNII>
34B0471E08

$$$$
