
 OpenBabel10282417213D

 49 50  0  0  0  0  0  0  0  0999 V2000
    2.1542    0.0481   -0.0379 O   0  0  0  0  0  0  0  0  0  0  0  0
    8.1297   -8.4621   -0.7031 O   0  0  0  0  0  0  0  0  0  0  0  0
    7.0491   -4.1455   -3.1004 O   0  0  0  0  0  0  0  0  0  0  0  0
   -3.3255    0.1682    0.0344 O   0  0  0  0  0  0  0  0  0  0  0  0
    1.3633   -2.3791    1.6626 O   0  0  0  0  0  0  0  0  0  0  0  0
    7.0901   -6.1654   -2.0089 N   0  0  0  0  0  0  0  0  0  0  0  0
    5.6745   -4.4292   -1.3498 N   0  0  0  0  0  0  0  0  0  0  0  0
    4.9147   -2.9758    1.2342 N   0  0  0  0  0  0  0  0  0  0  0  0
    6.6265   -4.8940   -2.2163 C   0  0  0  0  0  0  0  0  0  0  0  0
    6.2266   -7.2893   -1.6571 C   0  0  0  0  0  0  0  0  0  0  0  0
    8.4645   -6.5887   -2.2857 C   0  0  0  0  0  0  0  0  0  0  0  0
    0.7997   -0.0086   -0.1775 C   0  0  0  0  0  0  0  0  0  0  0  0
    6.8084   -7.9856   -0.4157 C   0  0  0  0  0  0  0  0  0  0  0  0
    8.9950   -7.3557   -1.0531 C   0  0  0  0  0  0  0  0  0  0  0  0
    0.0423   -1.1707   -0.3460 C   0  0  0  0  0  0  0  0  0  0  0  0
    0.1559    1.2160   -0.0413 C   0  0  0  0  0  0  0  0  0  0  0  0
   -1.9696    0.0864   -0.0517 C   0  0  0  0  0  0  0  0  0  0  0  0
   -1.3383   -1.1398   -0.1857 C   0  0  0  0  0  0  0  0  0  0  0  0
   -1.2353    1.2664   -0.0135 C   0  0  0  0  0  0  0  0  0  0  0  0
    2.6918   -1.9570    1.3503 C   0  0  3  0  0  0  0  0  0  0  0  0
    2.8575   -1.1875    0.0125 C   0  0  0  0  0  0  0  0  0  0  0  0
    5.2890   -5.0149   -0.0762 C   0  0  0  0  0  0  0  0  0  0  0  0
    3.4807   -3.2468    1.2744 C   0  0  0  0  0  0  0  0  0  0  0  0
    5.6455   -4.2224    1.1720 C   0  0  0  0  0  0  0  0  0  0  0  0
   -3.6915   -0.7278   -0.0514 H   0  0  0  0  0  0  0  0  0  0  0  0
    0.8551   -1.5700    1.8491 H   0  0  0  0  0  0  0  0  0  0  0  0
    5.3249   -3.5101   -1.5884 H   0  0  0  0  0  0  0  0  0  0  0  0
    5.1625   -2.4371    0.4069 H   0  0  0  0  0  0  0  0  0  0  0  0
    6.2314   -7.9677   -2.5150 H   0  0  0  0  0  0  0  0  0  0  0  0
    5.1856   -6.9749   -1.5400 H   0  0  0  0  0  0  0  0  0  0  0  0
    8.4263   -7.2701   -3.1433 H   0  0  0  0  0  0  0  0  0  0  0  0
    9.1113   -5.7414   -2.5322 H   0  0  0  0  0  0  0  0  0  0  0  0
    6.9112   -7.3362    0.4622 H   0  0  0  0  0  0  0  0  0  0  0  0
    6.1600   -8.8110   -0.1150 H   0  0  0  0  0  0  0  0  0  0  0  0
    9.9844   -7.7778   -1.2455 H   0  0  0  0  0  0  0  0  0  0  0  0
    9.0778   -6.6848   -0.1871 H   0  0  0  0  0  0  0  0  0  0  0  0
    0.5028   -2.1442   -0.4887 H   0  0  0  0  0  0  0  0  0  0  0  0
    0.7417    2.1263    0.0581 H   0  0  0  0  0  0  0  0  0  0  0  0
   -1.8830   -2.0780   -0.1491 H   0  0  0  0  0  0  0  0  0  0  0  0
   -1.7408    2.2226    0.0615 H   0  0  0  0  0  0  0  0  0  0  0  0
    3.0270   -1.3413    2.1882 H   0  0  0  0  0  0  0  0  0  0  0  0
    2.6372   -1.7942   -0.8766 H   0  0  0  0  0  0  0  0  0  0  0  0
    3.9128   -0.9052   -0.0942 H   0  0  0  0  0  0  0  0  0  0  0  0
    5.8234   -5.9160    0.1020 H   0  0  0  0  0  0  0  0  0  0  0  0
    4.2390   -5.3086   -0.1505 H   0  0  0  0  0  0  0  0  0  0  0  0
    3.2278   -3.8966    2.1233 H   0  0  0  0  0  0  0  0  0  0  0  0
    3.1213   -3.7800    0.3831 H   0  0  0  0  0  0  0  0  0  0  0  0
    6.7199   -4.0119    1.1888 H   0  0  0  0  0  0  0  0  0  0  0  0
    5.4319   -4.8305    2.0617 H   0  0  0  0  0  0  0  0  0  0  0  0
  1 12  1  0  0  0  0
  1 21  1  0  0  0  0
  2 13  1  0  0  0  0
  2 14  1  0  0  0  0
  3  9  2  0  0  0  0
  4 17  1  0  0  0  0
  4 25  1  0  0  0  0
  5 20  1  0  0  0  0
  5 26  1  0  0  0  0
  6  9  1  0  0  0  0
  6 10  1  0  0  0  0
  6 11  1  0  0  0  0
  7  9  1  0  0  0  0
  7 22  1  0  0  0  0
  7 27  1  0  0  0  0
  8 23  1  0  0  0  0
  8 24  1  0  0  0  0
  8 28  1  0  0  0  0
 10 13  1  0  0  0  0
 10 29  1  0  0  0  0
 10 30  1  0  0  0  0
 11 14  1  0  0  0  0
 11 31  1  0  0  0  0
 11 32  1  0  0  0  0
 12 15  2  0  0  0  0
 12 16  1  0  0  0  0
 13 33  1  0  0  0  0
 13 34  1  0  0  0  0
 14 35  1  0  0  0  0
 14 36  1  0  0  0  0
 15 18  1  0  0  0  0
 15 37  1  0  0  0  0
 16 19  2  0  0  0  0
 16 38  1  0  0  0  0
 17 18  2  0  0  0  0
 17 19  1  0  0  0  0
 18 39  1  0  0  0  0
 19 40  1  0  0  0  0
 20 21  1  0  0  0  0
 20 23  1  0  0  0  0
 20 41  1  0  0  0  0
 21 42  1  0  0  0  0
 21 43  1  0  0  0  0
 22 24  1  0  0  0  0
 22 44  1  0  0  0  0
 22 45  1  0  0  0  0
 23 46  1  0  0  0  0
 23 47  1  0  0  0  0
 24 48  1  0  0  0  0
 24 49  1  0  0  0  0
M  END
>  <DRUGBANK_ID>
DB13781

>  <COMMON_NAME>
Xamoterol

>  <CAS_NUMBER>
81801-12-9

>  <UNII>
7HE0JQL703

>  <SYNONYMS>
Xamoterol; Xamoterolum

$$$$
