
 OpenBabel10282417243D

 31 32  0  0  1  0  0  0  0  0999 V2000
    0.8399    0.0603   -0.0318 O   0  0  0  0  0  0  0  0  0  0  0  0
    0.4499    0.0735    1.3366 C   0  0  0  0  0  0  0  0  0  0  0  0
    1.0572   -1.0855    2.1499 C   0  0  1  0  0  0  0  0  0  0  0  0
   -0.0051   -1.8073    2.8219 O   0  0  0  0  0  0  0  0  0  0  0  0
    0.0480   -3.1854    2.4272 C   0  0  2  0  0  0  0  0  0  0  0  0
    0.8866   -3.2548    1.1449 C   0  0  2  0  0  0  0  0  0  0  0  0
    1.5089   -4.5137    0.9279 O   0  0  0  0  0  0  0  0  0  0  0  0
    1.8598   -2.1117    1.3381 C   0  0  2  0  0  0  0  0  0  0  0  0
    3.0238   -2.5437    2.0528 O   0  0  0  0  0  0  0  0  0  0  0  0
   -1.3026   -3.6555    2.2159 N   0  0  0  0  0  0  0  0  0  0  0  0
   -2.1561   -2.9295    1.2943 C   0  0  0  0  0  0  0  0  0  0  0  0
   -2.9143   -3.9026    0.4313 C   0  0  0  0  0  0  0  0  0  0  0  0
   -3.6490   -4.8667    1.3190 C   0  0  0  0  0  0  0  0  0  0  0  0
   -4.6930   -5.4053    0.9764 O   0  0  0  0  0  0  0  0  0  0  0  0
   -3.0240   -5.1832    2.4997 N   0  0  0  0  0  0  0  0  0  0  0  0
   -1.7882   -4.7458    2.9032 C   0  0  0  0  0  0  0  0  0  0  0  0
   -1.1766   -5.3349    3.7921 O   0  0  0  0  0  0  0  0  0  0  0  0
    1.8037    0.2068   -0.0684 H   0  0  0  0  0  0  0  0  0  0  0  0
    0.7803    1.0312    1.7562 H   0  0  0  0  0  0  0  0  0  0  0  0
   -0.6446    0.0715    1.3704 H   0  0  0  0  0  0  0  0  0  0  0  0
    1.6624   -0.6523    2.9548 H   0  0  0  0  0  0  0  0  0  0  0  0
    0.5322   -3.7547    3.2304 H   0  0  0  0  0  0  0  0  0  0  0  0
    0.2813   -3.0489    0.2575 H   0  0  0  0  0  0  0  0  0  0  0  0
    2.2171   -4.6114    1.5883 H   0  0  0  0  0  0  0  0  0  0  0  0
    2.2253   -1.7507    0.3763 H   0  0  0  0  0  0  0  0  0  0  0  0
    2.7613   -2.8914    2.9206 H   0  0  0  0  0  0  0  0  0  0  0  0
   -1.5592   -2.2785    0.6501 H   0  0  0  0  0  0  0  0  0  0  0  0
   -2.8149   -2.2823    1.8821 H   0  0  0  0  0  0  0  0  0  0  0  0
   -2.2293   -4.4795   -0.2017 H   0  0  0  0  0  0  0  0  0  0  0  0
   -3.6215   -3.3650   -0.2046 H   0  0  0  0  0  0  0  0  0  0  0  0
   -3.4194   -5.9540    3.0177 H   0  0  0  0  0  0  0  0  0  0  0  0
  1  2  1  0  0  0  0
  1 18  1  0  0  0  0
  2 19  1  0  0  0  0
  2 20  1  0  0  0  0
  3  2  1  0  0  0  0
  3  4  1  0  0  0  0
  3 21  1  1  0  0  0
  5  4  1  0  0  0  0
  5 22  1  1  0  0  0
  5 10  1  0  0  0  0
  6  5  1  0  0  0  0
  6  7  1  0  0  0  0
  6  8  1  0  0  0  0
  6 23  1  6  0  0  0
  7 24  1  0  0  0  0
  8  3  1  0  0  0  0
  8  9  1  0  0  0  0
  8 25  1  6  0  0  0
  9 26  1  0  0  0  0
 10 11  1  0  0  0  0
 10 16  1  0  0  0  0
 11 12  1  0  0  0  0
 11 27  1  0  0  0  0
 11 28  1  0  0  0  0
 12 13  1  0  0  0  0
 12 29  1  0  0  0  0
 12 30  1  0  0  0  0
 13 14  2  0  0  0  0
 13 15  1  0  0  0  0
 15 16  1  0  0  0  0
 15 31  1  0  0  0  0
 16 17  2  0  0  0  0
M  END
>  <DRUGBANK_ID>
DB17822

>  <COMMON_NAME>
Dihydrouridine

>  <CAS_NUMBER>
5627-05-4

>  <UNII>
0D5FR359JO

>  <SYNONYMS>
1-[(2R,3R,4S,5R)-3,4-dihydroxy-5-(hydroxymethyl)oxolan-2-yl]-1,3-diazinane-2,4-dione; 2,4(1h,3h)-pyrimidinedione, dihydro-1-.beta.-d-ribofuranosyl-; 5,6-dihydrouridine; Hydrouracil, 1-.beta.-d-ribofuranosyl-; Uridine, 5,6-dihydro-

$$$$
