
 OpenBabel10282417103D

 28 27  0  0  0  0  0  0  0  0999 V2000
    0.9917    0.0191    0.0162 C   0  0  0  0  0  0  0  0  0  0  0  0
    0.7965    0.8177   -1.2795 C   0  0  0  0  0  0  0  0  0  0  0  0
    0.5024    0.0810   -2.3596 O   0  0  0  0  0  0  0  0  0  0  0  0
    0.9663    2.0110   -1.3754 O   0  0  0  0  0  0  0  0  0  0  0  0
    0.4296   -1.4221    0.2635 C   0  0  1  0  0  0  0  0  0  0  0  0
    0.9564   -1.9734    1.6188 C   0  0  0  0  0  0  0  0  0  0  0  0
    0.4886   -1.1766    2.7449 N   0  0  0  0  0  0  0  0  0  0  0  0
   -1.1229   -1.5311    0.2546 C   0  0  0  0  0  0  0  0  0  0  0  0
   -1.7680   -1.1543   -1.0811 C   0  0  0  0  0  0  0  0  0  0  0  0
   -1.3671   -2.1188   -2.2219 C   0  0  0  0  0  0  0  0  0  0  0  0
   -3.2829   -1.0652   -1.0268 C   0  0  0  0  0  0  0  0  0  0  0  0
    0.6035    0.6780    0.7976 H   0  0  0  0  0  0  0  0  0  0  0  0
    2.0825   -0.0429    0.1172 H   0  0  0  0  0  0  0  0  0  0  0  0
    0.3693   -0.8137   -2.0402 H   0  0  0  0  0  0  0  0  0  0  0  0
    0.8343   -2.1035   -0.4954 H   0  0  0  0  0  0  0  0  0  0  0  0
    0.6159   -3.0082    1.7567 H   0  0  0  0  0  0  0  0  0  0  0  0
    2.0523   -2.0026    1.6157 H   0  0  0  0  0  0  0  0  0  0  0  0
    0.8571   -1.5457    3.6197 H   0  0  0  0  0  0  0  0  0  0  0  0
    0.8353   -0.2215    2.6748 H   0  0  0  0  0  0  0  0  0  0  0  0
   -1.4232   -2.5568    0.5126 H   0  0  0  0  0  0  0  0  0  0  0  0
   -1.5283   -0.8885    1.0473 H   0  0  0  0  0  0  0  0  0  0  0  0
   -1.4920   -0.1163   -1.2758 H   0  0  0  0  0  0  0  0  0  0  0  0
   -1.8162   -3.1032   -2.0876 H   0  0  0  0  0  0  0  0  0  0  0  0
   -1.6703   -1.6963   -3.1860 H   0  0  0  0  0  0  0  0  0  0  0  0
   -0.2995   -2.3478   -2.3139 H   0  0  0  0  0  0  0  0  0  0  0  0
   -3.6087   -0.3867   -0.2325 H   0  0  0  0  0  0  0  0  0  0  0  0
   -3.6408   -0.6507   -1.9775 H   0  0  0  0  0  0  0  0  0  0  0  0
   -3.7302   -2.0484   -0.8762 H   0  0  0  0  0  0  0  0  0  0  0  0
  1  2  1  0  0  0  0
  1  5  1  0  0  0  0
  1 12  1  0  0  0  0
  1 13  1  0  0  0  0
  2  3  1  0  0  0  0
  2  4  2  0  0  0  0
  3 14  1  0  0  0  0
  5  6  1  0  0  0  0
  5  8  1  0  0  0  0
  5 15  1  6  0  0  0
  6  7  1  0  0  0  0
  6 16  1  0  0  0  0
  6 17  1  0  0  0  0
  7 18  1  0  0  0  0
  7 19  1  0  0  0  0
  8  9  1  0  0  0  0
  8 20  1  0  0  0  0
  8 21  1  0  0  0  0
  9 10  1  0  0  0  0
  9 11  1  0  0  0  0
  9 22  1  0  0  0  0
 10 23  1  0  0  0  0
 10 24  1  0  0  0  0
 10 25  1  0  0  0  0
 11 26  1  0  0  0  0
 11 27  1  0  0  0  0
 11 28  1  0  0  0  0
M  END
>  <DRUGBANK_ID>
DB00230

>  <SECONDARY_ACCESSION_NUMBERS>
APRD01198

>  <COMMON_NAME>
Pregabalin

>  <CAS_NUMBER>
148553-50-8

>  <UNII>
55JG375S6M

>  <SYNONYMS>
(S)-3-Isobutyl GABA; 3-Isobutyl GABA; Pregabalin; Pregabalina

$$$$
