
 OpenBabel10282417203D

 50 51  0  0  0  0  0  0  0  0999 V2000
    2.3336    0.6861    0.3807 C   0  0  0  0  0  0  0  0  0  0  0  0
    2.8261   -0.5440    0.2503 C   0  0  0  0  0  0  0  0  0  0  0  0
    1.9507   -1.7214    0.1676 C   0  0  0  0  0  0  0  0  0  0  0  0
    0.5421   -1.7363    0.0721 C   0  0  0  0  0  0  0  0  0  0  0  0
    0.0946   -0.5154   -0.2035 C   0  0  0  0  0  0  0  0  0  0  0  0
    1.0154    0.6099    0.1247 C   0  0  0  0  0  0  0  0  0  0  0  0
   -1.1482   -0.5266   -0.9784 C   0  0  0  0  0  0  0  0  0  0  0  0
   -2.1659   -0.5207   -1.6093 N   0  0  0  0  0  0  0  0  0  0  0  0
   -0.2723   -2.8379    0.1097 O   0  0  0  0  0  0  0  0  0  0  0  0
   -1.7652   -2.7323    0.0728 C   0  0  0  0  0  0  0  0  0  0  0  0
   -2.5563   -1.7765    1.1752 C   0  0  3  0  0  0  0  0  0  0  0  0
   -2.3781   -0.1328    1.4166 C   0  0  0  0  0  0  0  0  0  0  0  0
   -3.0090    0.8449    0.4501 N   0  0  0  0  0  0  0  0  0  0  0  0
   -2.4180    2.1825    0.2248 C   0  0  0  0  0  0  0  0  0  0  0  0
   -0.9340    2.2598   -0.0533 C   0  0  0  0  0  0  0  0  0  0  0  0
   -0.2804    1.7219   -1.5672 N   0  0  0  0  0  0  0  0  0  0  0  0
    0.8662    2.0961   -2.2727 C   0  0  0  0  0  0  0  0  0  0  0  0
    1.4265    1.3151   -3.0388 O   0  0  0  0  0  0  0  0  0  0  0  0
    1.3208    3.4824   -1.9906 C   0  0  0  0  0  0  0  0  0  0  0  0
    0.1176    4.3969   -2.0325 C   0  0  0  0  0  0  0  0  0  0  0  0
    0.2367    5.7400   -1.7807 C   0  0  0  0  0  0  0  0  0  0  0  0
   -0.9351    6.5089   -1.7263 C   0  0  0  0  0  0  0  0  0  0  0  0
   -2.2034    5.9186   -1.7742 C   0  0  0  0  0  0  0  0  0  0  0  0
   -2.3369    4.5931   -1.9838 C   0  0  0  0  0  0  0  0  0  0  0  0
   -1.1932    3.9108   -2.2692 C   0  0  0  0  0  0  0  0  0  0  0  0
   -3.3852    6.5726   -1.7095 O   0  0  0  0  0  0  0  0  0  0  0  0
   -3.9690   -1.9766    1.0033 O   0  0  0  0  0  0  0  0  0  0  0  0
    2.8209    1.6743    0.3815 H   0  0  0  0  0  0  0  0  0  0  0  0
    3.8999   -0.5616    0.1638 H   0  0  0  0  0  0  0  0  0  0  0  0
    2.4674   -2.6562    0.0863 H   0  0  0  0  0  0  0  0  0  0  0  0
    0.8979    1.6702    0.0053 H   0  0  0  0  0  0  0  0  0  0  0  0
   -2.1083   -2.6213   -0.9733 H   0  0  0  0  0  0  0  0  0  0  0  0
   -2.1511   -3.7638    0.1698 H   0  0  0  0  0  0  0  0  0  0  0  0
   -2.2785   -2.2381    2.1308 H   0  0  0  0  0  0  0  0  0  0  0  0
   -2.8429    0.1555    2.3673 H   0  0  0  0  0  0  0  0  0  0  0  0
   -1.3208    0.0206    1.6348 H   0  0  0  0  0  0  0  0  0  0  0  0
   -3.0586    0.4693   -0.5038 H   0  0  0  0  0  0  0  0  0  0  0  0
   -2.8836    2.5775   -0.6629 H   0  0  0  0  0  0  0  0  0  0  0  0
   -2.6508    2.8417    1.0706 H   0  0  0  0  0  0  0  0  0  0  0  0
   -0.4401    3.2067    0.1925 H   0  0  0  0  0  0  0  0  0  0  0  0
   -0.6167    1.6863    0.8361 H   0  0  0  0  0  0  0  0  0  0  0  0
   -0.3874    0.8085   -1.9900 H   0  0  0  0  0  0  0  0  0  0  0  0
    1.8092    3.4704   -1.0043 H   0  0  0  0  0  0  0  0  0  0  0  0
    2.0803    3.7613   -2.7242 H   0  0  0  0  0  0  0  0  0  0  0  0
    1.2241    6.1818   -1.6875 H   0  0  0  0  0  0  0  0  0  0  0  0
   -0.8393    7.5801   -1.6582 H   0  0  0  0  0  0  0  0  0  0  0  0
   -3.2921    4.0788   -1.9897 H   0  0  0  0  0  0  0  0  0  0  0  0
   -1.4411    2.9014   -2.5745 H   0  0  0  0  0  0  0  0  0  0  0  0
   -3.2074    7.5139   -1.8094 H   0  0  0  0  0  0  0  0  0  0  0  0
   -4.2382   -1.3397    0.3123 H   0  0  0  0  0  0  0  0  0  0  0  0
  1  2  2  0  0  0  0
  1  6  1  0  0  0  0
  1 28  1  0  0  0  0
  2  3  1  0  0  0  0
  2 29  1  0  0  0  0
  3  4  2  0  0  0  0
  3 30  1  0  0  0  0
  4  5  1  0  0  0  0
  4  9  1  0  0  0  0
  5  6  2  0  0  0  0
  5  7  1  0  0  0  0
  6 31  1  0  0  0  0
  7  8  3  0  0  0  0
  9 10  1  0  0  0  0
 10 11  1  0  0  0  0
 10 32  1  0  0  0  0
 10 33  1  0  0  0  0
 11 12  1  0  0  0  0
 11 27  1  0  0  0  0
 11 34  1  0  0  0  0
 12 13  1  0  0  0  0
 12 35  1  0  0  0  0
 12 36  1  0  0  0  0
 13 14  1  0  0  0  0
 13 37  1  0  0  0  0
 14 15  1  0  0  0  0
 14 38  1  0  0  0  0
 14 39  1  0  0  0  0
 15 16  1  0  0  0  0
 15 40  1  0  0  0  0
 15 41  1  0  0  0  0
 16 17  1  0  0  0  0
 16 42  1  0  0  0  0
 17 18  2  0  0  0  0
 17 19  1  0  0  0  0
 19 20  1  0  0  0  0
 19 43  1  0  0  0  0
 19 44  1  0  0  0  0
 20 21  2  0  0  0  0
 20 25  1  0  0  0  0
 21 22  1  0  0  0  0
 21 45  1  0  0  0  0
 22 23  2  0  0  0  0
 22 46  1  0  0  0  0
 23 24  1  0  0  0  0
 23 26  1  0  0  0  0
 24 25  2  0  0  0  0
 24 47  1  0  0  0  0
 25 48  1  0  0  0  0
 26 49  1  0  0  0  0
 27 50  1  0  0  0  0
M  END
>  <DRUGBANK_ID>
DB13757

>  <COMMON_NAME>
Epanolol

>  <CAS_NUMBER>
86880-51-5

>  <UNII>
9KGC55KP6A

>  <SYNONYMS>
Epanolol

$$$$
