
 OpenBabel10282417223D

 14 11  0  0  0  0  0  0  0  0999 V2000
   -0.3288    1.1144   -0.4810 C   0  0  0  0  0  0  0  0  0  0  0  0
   -0.8539    0.6506    0.5192 O   0  5  0  0  0  0  0  0  0  0  0  0
   -0.4278    0.2752   -1.3418 O   0  5  0  0  0  0  0  0  0  0  0  0
    0.7869    1.6829   -0.3549 O   0  0  0  0  0  0  0  0  0  0  0  0
    1.9410   -0.9442   -0.7730 N   0  3  0  0  0  0  0  0  0  0  0  0
    1.1903   -0.1088    1.3165 N   0  3  0  0  0  0  0  0  0  0  0  0
    2.0702    0.0728   -0.6054 H   0  0  0  0  0  0  0  0  0  0  0  0
    1.0564   -0.8218   -1.3536 H   0  0  0  0  0  0  0  0  0  0  0  0
    1.6599   -1.5938   -0.0051 H   0  0  0  0  0  0  0  0  0  0  0  0
    2.8845   -1.0312   -1.1000 H   0  0  0  0  0  0  0  0  0  0  0  0
    0.9858    0.4062    0.4329 H   0  0  0  0  0  0  0  0  0  0  0  0
    0.3621   -0.6324    0.9111 H   0  0  0  0  0  0  0  0  0  0  0  0
    0.7467    0.7104    1.7302 H   0  0  0  0  0  0  0  0  0  0  0  0
    2.2042   -0.0859    1.2251 H   0  0  0  0  0  0  0  0  0  0  0  0
  1  2  1  0  0  0  0
  1  3  1  0  0  0  0
  1  4  2  0  0  0  0
  5  7  1  0  0  0  0
  5  8  1  0  0  0  0
  5  9  1  0  0  0  0
  5 10  1  0  0  0  0
  6 11  1  0  0  0  0
  6 12  1  0  0  0  0
  6 13  1  0  0  0  0
  6 14  1  0  0  0  0
M  CHG  4   2  -1   3  -1   5   1   6   1
M  END
>  <DRUGBANK_ID>
DB15926

>  <COMMON_NAME>
Ammonium carbonate

>  <CAS_NUMBER>
506-87-6

>  <UNII>
PDP691CN28

>  <SYNONYMS>
Carbonic acid, diammonium salt; Crystal ammonia; Diammonium carbonate

$$$$
