
 OpenBabel10282417243D

 19 17  0  0  0  0  0  0  0  0999 V2000
    1.0617   -0.0619   -0.0487 Ga  0  1  0  0  0  0  0  0  0  0  0  0
    0.9929   -0.0586   -0.0808 O   0  0  0  0  0  0  0  0  0  0  0  0
    0.5196   -1.0976    0.7635 C   0  0  0  0  0  0  0  0  0  0  0  0
    1.0263   -2.4363    0.2522 C   0  0  0  0  0  0  0  0  0  0  0  0
    2.5463   -2.4363    0.2522 C   0  0  0  0  0  0  0  0  0  0  0  0
    3.2563   -3.3907    1.0276 O   0  5  0  0  0  0  0  0  0  0  0  0
    3.1817   -1.5821   -0.4419 O   0  0  0  0  0  0  0  0  0  0  0  0
    1.0263   -0.8711    2.1785 C   0  0  0  0  0  0  0  0  0  0  0  0
    0.5196    0.4677    2.6899 C   0  0  0  0  0  0  0  0  0  0  0  0
   -0.2968    0.5215    3.8505 O   0  5  0  0  0  0  0  0  0  0  0  0
    0.8266    1.5388    2.0787 O   0  0  0  0  0  0  0  0  0  0  0  0
   -1.0004   -1.0976    0.7635 C   0  0  0  0  0  0  0  0  0  0  0  0
   -1.7104   -0.1432   -0.0120 O   0  5  0  0  0  0  0  0  0  0  0  0
   -1.6358   -1.9518    1.4576 O   0  0  0  0  0  0  0  0  0  0  0  0
    1.9929   -0.0586   -0.0808 H   0  0  0  0  0  0  0  0  0  0  0  0
    0.6696   -3.2193    0.8883 H   0  0  0  0  0  0  0  0  0  0  0  0
    0.6696   -2.5958   -0.7440 H   0  0  0  0  0  0  0  0  0  0  0  0
    0.6696   -1.6540    2.8147 H   0  0  0  0  0  0  0  0  0  0  0  0
    2.0963   -0.8711    2.1785 H   0  0  0  0  0  0  0  0  0  0  0  0
  2  3  1  0  0  0  0
  2 15  1  0  0  0  0
  3  4  1  0  0  0  0
  3  8  1  0  0  0  0
  3 12  1  0  0  0  0
  4  5  1  0  0  0  0
  4 16  1  0  0  0  0
  4 17  1  0  0  0  0
  5  6  1  0  0  0  0
  5  7  2  0  0  0  0
  8  9  1  0  0  0  0
  8 18  1  0  0  0  0
  8 19  1  0  0  0  0
  9 10  1  0  0  0  0
  9 11  2  0  0  0  0
 12 13  1  0  0  0  0
 12 14  2  0  0  0  0
M  CHG  4   1   3   6  -1  10  -1  13  -1
M  END
>  <DRUGBANK_ID>
DB17893

>  <COMMON_NAME>
Gallium citrate

>  <CAS_NUMBER>
27905-02-8

>  <UNII>
HT6C49L0ZP

>  <SYNONYMS>
2-hydroxy-1,2,3-propanetricarboxylic acid gallium salt (1:1); Citric acid, gallium salt (1:1); Gallium citrate

$$$$
