
 OpenBabel10282417203D

 14 13  0  0  0  0  0  0  0  0999 V2000
    0.9798   -0.0765    0.0966 C   0  0  0  0  0  0  0  0  0  0  0  0
    0.4759   -1.4747    0.3549 C   0  0  0  0  0  0  0  0  0  0  0  0
    0.4968    0.9337    1.1182 C   0  0  0  0  0  0  0  0  0  0  0  0
    0.9589   -2.0532    1.6700 C   0  0  0  0  0  0  0  0  0  0  0  0
    0.5578    0.3135   -1.1496 F   0  0  0  0  0  0  0  0  0  0  0  0
    2.3427   -0.0664    0.0302 F   0  0  0  0  0  0  0  0  0  0  0  0
   -0.8870   -1.5079    0.2965 F   0  0  0  0  0  0  0  0  0  0  0  0
    0.8980   -2.2841   -0.6697 F   0  0  0  0  0  0  0  0  0  0  0  0
    0.8511    2.1947    0.7704 F   0  0  0  0  0  0  0  0  0  0  0  0
   -0.8473    0.9199    1.2515 F   0  0  0  0  0  0  0  0  0  0  0  0
    1.0287    0.7184    2.3412 F   0  0  0  0  0  0  0  0  0  0  0  0
    0.4271   -1.4153    2.7353 F   0  0  0  0  0  0  0  0  0  0  0  0
    0.6047   -3.3553    1.7955 F   0  0  0  0  0  0  0  0  0  0  0  0
    2.3030   -1.9927    1.7895 F   0  0  0  0  0  0  0  0  0  0  0  0
  2  1  1  0  0  0  0
  3  1  1  0  0  0  0
  4  2  1  0  0  0  0
  5  1  1  0  0  0  0
  6  1  1  0  0  0  0
  7  2  1  0  0  0  0
  8  2  1  0  0  0  0
  9  3  1  0  0  0  0
 10  3  1  0  0  0  0
 11  3  1  0  0  0  0
 12  4  1  0  0  0  0
 13  4  1  0  0  0  0
 14  4  1  0  0  0  0
M  END
>  <DRUGBANK_ID>
DB12821

>  <SECONDARY_ACCESSION_NUMBERS>
DB05392

>  <COMMON_NAME>
Perflubutane

>  <CAS_NUMBER>
355-25-9

>  <UNII>
SE4TWR0K2C

>  <SYNONYMS>
Decafluorobutane; Perflubutane; perflubutano; Sonazoid

$$$$
