
 OpenBabel10282417203D

 59 63  0  0  0  0  0  0  0  0999 V2000
    1.1219   -1.9099    0.0267 C   0  0  2  0  0  0  0  0  0  0  0  0
   -0.1458   -1.1502   -0.0351 C   0  0  0  0  0  0  0  0  0  0  0  0
    2.4841   -1.8162    0.6253 C   0  0  2  0  0  0  0  0  0  0  0  0
    1.1938   -3.0926   -1.0045 C   0  0  0  0  0  0  0  0  0  0  0  0
   -0.0243    0.1931   -0.0544 C   0  0  0  0  0  0  0  0  0  0  0  0
   -1.4331   -1.6546    0.1921 C   0  0  0  0  0  0  0  0  0  0  0  0
    2.1632   -3.4031    1.3348 N   0  0  0  0  0  0  0  0  0  0  0  0
    2.4938    0.0249    0.6549 C   0  0  0  0  0  0  0  0  0  0  0  0
    0.2749   -4.0689   -0.3433 C   0  0  2  0  0  0  0  0  0  0  0  0
    1.1678    0.8797    0.1775 C   0  0  0  0  0  0  0  0  0  0  0  0
   -1.1465    0.9888   -0.1067 C   0  0  0  0  0  0  0  0  0  0  0  0
   -2.5509   -0.8967    0.0007 C   0  0  0  0  0  0  0  0  0  0  0  0
    0.7047   -4.0187    1.1479 C   0  0  0  0  0  0  0  0  0  0  0  0
    2.7260   -4.2624    2.3801 C   0  0  0  0  0  0  0  0  0  0  0  0
    0.7515    2.2139    0.0401 C   0  0  0  0  0  0  0  0  0  0  0  0
   -0.6501    2.2588   -0.0942 N   0  0  0  0  0  0  0  0  0  0  0  0
   -2.4416    0.4629   -0.1427 C   0  0  0  0  0  0  0  0  0  0  0  0
    0.8159   -1.9507    1.0982 H   0  0  0  0  0  0  0  0  0  0  0  0
    3.2168   -2.0102   -0.1824 H   0  0  0  0  0  0  0  0  0  0  0  0
   -0.5674   -5.2621   -0.7780 C   0  0  0  0  0  0  0  0  0  0  0  0
   -2.0146   -4.8994   -0.6931 N   0  0  0  0  0  0  0  0  0  0  0  0
   -2.7698   -4.6420   -1.8278 C   0  0  0  0  0  0  0  0  0  0  0  0
   -4.0253   -4.1175   -1.6420 O   0  0  0  0  0  0  0  0  0  0  0  0
   -4.6877   -3.8392   -0.3993 C   0  0  0  0  0  0  0  0  0  0  0  0
   -2.3680   -4.8656   -2.9397 O   0  0  0  0  0  0  0  0  0  0  0  0
   -4.7255   -4.9830    0.5576 C   0  0  0  0  0  0  0  0  0  0  0  0
   -4.8798   -6.2811    0.0736 C   0  0  0  0  0  0  0  0  0  0  0  0
   -4.8357   -7.3469    0.9547 C   0  0  0  0  0  0  0  0  0  0  0  0
   -4.8436   -7.1044    2.3266 C   0  0  0  0  0  0  0  0  0  0  0  0
   -4.7894   -5.8006    2.8154 C   0  0  0  0  0  0  0  0  0  0  0  0
   -4.5975   -4.7500    1.9323 C   0  0  0  0  0  0  0  0  0  0  0  0
   -1.5395    3.4043   -0.1202 C   0  0  0  0  0  0  0  0  0  0  0  0
    2.1776   -3.5631   -1.1512 H   0  0  0  0  0  0  0  0  0  0  0  0
    0.9232   -2.6610   -1.9700 H   0  0  0  0  0  0  0  0  0  0  0  0
   -1.6048   -2.6668    0.5261 H   0  0  0  0  0  0  0  0  0  0  0  0
    3.2983    0.3134   -0.0548 H   0  0  0  0  0  0  0  0  0  0  0  0
    2.7943    0.4756    1.6047 H   0  0  0  0  0  0  0  0  0  0  0  0
   -0.5245   -3.4194   -0.6164 H   0  0  0  0  0  0  0  0  0  0  0  0
   -3.5135   -1.3619   -0.0123 H   0  0  0  0  0  0  0  0  0  0  0  0
    0.5650   -4.9929    1.6304 H   0  0  0  0  0  0  0  0  0  0  0  0
    0.0257   -3.4088    1.7626 H   0  0  0  0  0  0  0  0  0  0  0  0
    3.7937   -4.2883    2.5896 H   0  0  0  0  0  0  0  0  0  0  0  0
    2.1380   -4.1750    3.3060 H   0  0  0  0  0  0  0  0  0  0  0  0
    2.5281   -5.3358    2.1133 H   0  0  0  0  0  0  0  0  0  0  0  0
    1.2724    3.1575    0.0958 H   0  0  0  0  0  0  0  0  0  0  0  0
   -3.3510    1.0427   -0.1944 H   0  0  0  0  0  0  0  0  0  0  0  0
   -0.3314   -5.5639   -1.7964 H   0  0  0  0  0  0  0  0  0  0  0  0
   -0.4493   -6.1062   -0.0945 H   0  0  0  0  0  0  0  0  0  0  0  0
   -2.3770   -4.6266    0.2048 H   0  0  0  0  0  0  0  0  0  0  0  0
   -4.1971   -3.0144    0.0887 H   0  0  0  0  0  0  0  0  0  0  0  0
   -5.7127   -3.5124   -0.6183 H   0  0  0  0  0  0  0  0  0  0  0  0
   -4.9767   -6.4552   -0.9965 H   0  0  0  0  0  0  0  0  0  0  0  0
   -4.8227   -8.3595    0.5655 H   0  0  0  0  0  0  0  0  0  0  0  0
   -4.8913   -7.9386    3.0182 H   0  0  0  0  0  0  0  0  0  0  0  0
   -4.8932   -5.6029    3.8781 H   0  0  0  0  0  0  0  0  0  0  0  0
   -4.3571   -3.7606    2.3200 H   0  0  0  0  0  0  0  0  0  0  0  0
   -2.0948    3.3938   -1.0662 H   0  0  0  0  0  0  0  0  0  0  0  0
   -2.2623    3.3189    0.7039 H   0  0  0  0  0  0  0  0  0  0  0  0
   -0.9705    4.3241   -0.0190 H   0  0  0  0  0  0  0  0  0  0  0  0
  1  2  1  0  0  0  0
  1  3  1  0  0  0  0
  1  4  1  0  0  0  0
  1 18  1  1  0  0  0
  2  5  2  0  0  0  0
  2  6  1  0  0  0  0
  3  7  1  0  0  0  0
  3  8  1  0  0  0  0
  3 19  1  6  0  0  0
  4  9  1  0  0  0  0
  4 33  1  0  0  0  0
  4 34  1  0  0  0  0
  5 10  1  0  0  0  0
  5 11  1  0  0  0  0
  6 12  2  0  0  0  0
  6 35  1  0  0  0  0
  7 13  1  0  0  0  0
  7 14  1  0  0  0  0
  8 10  1  0  0  0  0
  8 36  1  0  0  0  0
  8 37  1  0  0  0  0
  9 13  1  0  0  0  0
  9 20  1  0  0  0  0
  9 38  1  1  0  0  0
 10 15  2  0  0  0  0
 11 16  1  0  0  0  0
 11 17  2  0  0  0  0
 12 17  1  0  0  0  0
 12 39  1  0  0  0  0
 13 40  1  0  0  0  0
 13 41  1  0  0  0  0
 14 42  1  0  0  0  0
 14 43  1  0  0  0  0
 14 44  1  0  0  0  0
 15 16  1  0  0  0  0
 15 45  1  0  0  0  0
 16 32  1  0  0  0  0
 17 46  1  0  0  0  0
 20 21  1  0  0  0  0
 20 47  1  0  0  0  0
 20 48  1  0  0  0  0
 21 22  1  0  0  0  0
 21 49  1  0  0  0  0
 22 23  1  0  0  0  0
 22 25  2  0  0  0  0
 23 24  1  0  0  0  0
 24 26  1  0  0  0  0
 24 50  1  0  0  0  0
 24 51  1  0  0  0  0
 26 27  2  0  0  0  0
 26 31  1  0  0  0  0
 27 28  1  0  0  0  0
 27 52  1  0  0  0  0
 28 29  2  0  0  0  0
 28 53  1  0  0  0  0
 29 30  1  0  0  0  0
 29 54  1  0  0  0  0
 30 31  2  0  0  0  0
 30 55  1  0  0  0  0
 31 56  1  0  0  0  0
 32 57  1  0  0  0  0
 32 58  1  0  0  0  0
 32 59  1  0  0  0  0
M  END
>  <DRUGBANK_ID>
DB13520

>  <COMMON_NAME>
Metergoline

>  <CAS_NUMBER>
17692-51-2

>  <UNII>
1501393LY5

>  <SYNONYMS>
Metergolina; Metergoline; Metergolinum

$$$$
