
 OpenBabel10282417183D

 39 42  0  0  0  0  0  0  0  0999 V2000
   -0.8500    1.8572   -0.3185 C   0  0  0  0  0  0  0  0  0  0  0  0
   -1.5699    0.6441    0.0987 C   0  0  0  0  0  0  0  0  0  0  0  0
   -1.2417   -0.5928   -0.4492 C   0  0  0  0  0  0  0  0  0  0  0  0
   -0.0463   -0.7755   -1.3458 C   0  0  0  0  0  0  0  0  0  0  0  0
    0.4127    2.1314   -0.6425 C   0  0  0  0  0  0  0  0  0  0  0  0
    1.2221   -0.3558   -0.6553 C   0  0  0  0  0  0  0  0  0  0  0  0
    1.4846    1.0271   -0.3467 C   0  0  0  0  0  0  0  0  0  0  0  0
   -2.0916   -1.6706   -0.1687 C   0  0  0  0  0  0  0  0  0  0  0  0
   -3.2668   -1.4813    0.5639 C   0  0  0  0  0  0  0  0  0  0  0  0
   -3.6222   -0.2339    1.0379 C   0  0  0  0  0  0  0  0  0  0  0  0
   -2.7503    0.8139    0.8335 C   0  0  0  0  0  0  0  0  0  0  0  0
    2.6300    1.1946    0.4567 C   0  0  0  0  0  0  0  0  0  0  0  0
    3.4672    0.0973    0.8597 C   0  0  0  0  0  0  0  0  0  0  0  0
    3.1921   -1.2166    0.4921 C   0  0  0  0  0  0  0  0  0  0  0  0
    2.0596   -1.4417   -0.2555 C   0  0  0  0  0  0  0  0  0  0  0  0
   -1.8054    2.9509   -0.5805 C   0  0  0  0  0  0  0  0  0  0  0  0
   -1.9758    3.1700   -2.0331 N   0  0  0  0  0  0  0  0  0  0  0  0
   -1.0627    4.2979   -2.0778 C   0  0  0  0  0  0  0  0  0  0  0  0
    0.4687    3.6587   -1.3966 C   0  0  0  0  0  0  0  0  0  0  0  0
   -1.3917    2.3196   -3.1147 C   0  0  0  0  0  0  0  0  0  0  0  0
    0.0181   -1.8224   -1.6684 H   0  0  0  0  0  0  0  0  0  0  0  0
   -0.1097   -0.2289   -2.2850 H   0  0  0  0  0  0  0  0  0  0  0  0
   -1.8455   -2.6583   -0.5390 H   0  0  0  0  0  0  0  0  0  0  0  0
   -3.9229   -2.3203    0.7654 H   0  0  0  0  0  0  0  0  0  0  0  0
   -4.5507   -0.0380    1.5578 H   0  0  0  0  0  0  0  0  0  0  0  0
   -3.0676    1.7783    1.2185 H   0  0  0  0  0  0  0  0  0  0  0  0
    2.8855    2.1672    0.8679 H   0  0  0  0  0  0  0  0  0  0  0  0
    4.3371    0.2624    1.4952 H   0  0  0  0  0  0  0  0  0  0  0  0
    3.8204   -2.0535    0.7990 H   0  0  0  0  0  0  0  0  0  0  0  0
    1.7932   -2.4711   -0.5064 H   0  0  0  0  0  0  0  0  0  0  0  0
   -2.7274    3.1031   -0.0279 H   0  0  0  0  0  0  0  0  0  0  0  0
   -1.3119    3.7941   -0.0313 H   0  0  0  0  0  0  0  0  0  0  0  0
   -1.1408    4.6784   -3.1087 H   0  0  0  0  0  0  0  0  0  0  0  0
   -1.5744    5.0773   -1.4765 H   0  0  0  0  0  0  0  0  0  0  0  0
    0.6959    4.3774   -0.6012 H   0  0  0  0  0  0  0  0  0  0  0  0
    1.2456    3.7056   -2.1592 H   0  0  0  0  0  0  0  0  0  0  0  0
   -0.5451    2.8238   -3.6242 H   0  0  0  0  0  0  0  0  0  0  0  0
   -0.9866    1.3455   -2.8732 H   0  0  0  0  0  0  0  0  0  0  0  0
   -2.1106    2.2013   -3.9295 H   0  0  0  0  0  0  0  0  0  0  0  0
  1  5  2  0  0  0  0
  1  2  1  0  0  0  0
  1 16  1  0  0  0  0
  2  3  1  0  0  0  0
  2 11  2  0  0  0  0
  3  4  1  0  0  0  0
  3  8  2  0  0  0  0
  4  6  1  0  0  0  0
  4 21  1  0  0  0  0
  4 22  1  0  0  0  0
  5  7  1  0  0  0  0
  5 19  1  0  0  0  0
  6  7  1  0  0  0  0
  6 15  2  0  0  0  0
  7 12  2  0  0  0  0
  8  9  1  0  0  0  0
  8 23  1  0  0  0  0
  9 10  2  0  0  0  0
  9 24  1  0  0  0  0
 10 11  1  0  0  0  0
 10 25  1  0  0  0  0
 11 26  1  0  0  0  0
 12 13  1  0  0  0  0
 12 27  1  0  0  0  0
 13 14  2  0  0  0  0
 13 28  1  0  0  0  0
 14 15  1  0  0  0  0
 14 29  1  0  0  0  0
 15 30  1  0  0  0  0
 16 17  1  0  0  0  0
 16 31  1  0  0  0  0
 16 32  1  0  0  0  0
 17 18  1  0  0  0  0
 17 20  1  0  0  0  0
 18 19  1  0  0  0  0
 18 33  1  0  0  0  0
 18 34  1  0  0  0  0
 19 35  1  0  0  0  0
 19 36  1  0  0  0  0
 20 37  1  0  0  0  0
 20 38  1  0  0  0  0
 20 39  1  0  0  0  0
M  END
>  <DRUGBANK_ID>
DB09304

>  <COMMON_NAME>
Setiptiline

>  <CAS_NUMBER>
57262-94-9

>  <UNII>
7L38105Z6E

>  <SYNONYMS>
Setiptilina; Setiptiline; Setiptilinum

$$$$
