216
 OpenBabel10282417163D

 60 62  0  0  0  0  0  0  0  0999 V2000
    1.2053    0.1077   -0.1237 O   0  0  0  0  0  0  0  0  0  0  0  0
    5.5387    0.2263   -1.0945 O   0  0  0  0  0  0  0  0  0  0  0  0
    2.4352    0.9013   -2.9603 O   0  0  0  0  0  0  0  0  0  0  0  0
    3.1259   -1.1554   -0.3269 N   0  0  0  0  0  0  0  0  0  0  0  0
    3.2808    1.0872    0.1818 N   0  0  0  0  0  0  0  0  0  0  0  0
    2.4303   -0.0007    0.0406 C   0  0  0  0  0  0  0  0  0  0  0  0
    3.7079   -1.2254   -1.7209 C   0  0  1  0  0  0  0  0  0  0  0  0
    4.5414    0.0382   -2.0944 C   0  0  1  0  0  0  0  0  0  0  0  0
    3.6487    1.2743   -2.2850 C   0  0  2  0  0  0  0  0  0  0  0  0
    3.3749    2.0350   -0.9588 C   0  0  1  0  0  0  0  0  0  0  0  0
    3.5306   -2.0056    0.7851 C   0  0  0  0  0  0  0  0  0  0  0  0
    2.9812   -3.3907    0.7454 C   0  0  0  0  0  0  0  0  0  0  0  0
    3.6763   -4.4545    1.1803 C   0  0  0  0  0  0  0  0  0  0  0  0
    4.5828   -2.4330   -2.0886 C   0  0  0  0  0  0  0  0  0  0  0  0
    3.8406   -3.7362   -2.2006 C   0  0  0  0  0  0  0  0  0  0  0  0
    2.5725   -3.8593   -2.7849 C   0  0  0  0  0  0  0  0  0  0  0  0
    1.8257   -5.0224   -2.5908 C   0  0  0  0  0  0  0  0  0  0  0  0
    2.3493   -6.0702   -1.8388 C   0  0  0  0  0  0  0  0  0  0  0  0
    3.6657   -6.0114   -1.3948 C   0  0  0  0  0  0  0  0  0  0  0  0
    4.4133   -4.8508   -1.5865 C   0  0  0  0  0  0  0  0  0  0  0  0
    2.1511    2.9356   -1.1886 C   0  0  0  0  0  0  0  0  0  0  0  0
    1.8596    3.8921   -0.0786 C   0  0  0  0  0  0  0  0  0  0  0  0
    2.8217    4.8260    0.3197 C   0  0  0  0  0  0  0  0  0  0  0  0
    2.5056    5.7782    1.2778 C   0  0  0  0  0  0  0  0  0  0  0  0
    1.2182    5.8216    1.8103 C   0  0  0  0  0  0  0  0  0  0  0  0
    0.2589    4.8871    1.4204 C   0  0  0  0  0  0  0  0  0  0  0  0
    0.5906    3.8958    0.5071 C   0  0  0  0  0  0  0  0  0  0  0  0
    3.6947    1.5125    1.5286 C   0  0  0  0  0  0  0  0  0  0  0  0
    5.1983    1.6093    1.5950 C   0  0  0  0  0  0  0  0  0  0  0  0
    5.9035    2.7178    1.8558 C   0  0  0  0  0  0  0  0  0  0  0  0
    2.8386   -1.2514   -2.3801 H   0  0  0  0  0  0  0  0  0  0  0  0
    5.0858   -0.1149   -3.0317 H   0  0  0  0  0  0  0  0  0  0  0  0
    4.1531    1.9711   -2.9661 H   0  0  0  0  0  0  0  0  0  0  0  0
    4.2633    2.6493   -0.7701 H   0  0  0  0  0  0  0  0  0  0  0  0
    5.0053    0.1686   -0.2764 H   0  0  0  0  0  0  0  0  0  0  0  0
    1.8270    0.5126   -2.2940 H   0  0  0  0  0  0  0  0  0  0  0  0
    4.6191   -1.9850    0.8686 H   0  0  0  0  0  0  0  0  0  0  0  0
    3.1126   -1.5794    1.7049 H   0  0  0  0  0  0  0  0  0  0  0  0
    1.9862   -3.5509    0.3321 H   0  0  0  0  0  0  0  0  0  0  0  0
    3.2541   -5.4532    1.1059 H   0  0  0  0  0  0  0  0  0  0  0  0
    4.7242   -4.3851    1.4567 H   0  0  0  0  0  0  0  0  0  0  0  0
    5.0594   -2.2696   -3.0641 H   0  0  0  0  0  0  0  0  0  0  0  0
    5.4002   -2.4962   -1.3587 H   0  0  0  0  0  0  0  0  0  0  0  0
    2.1078   -3.0329   -3.3175 H   0  0  0  0  0  0  0  0  0  0  0  0
    0.8118   -5.0871   -2.9751 H   0  0  0  0  0  0  0  0  0  0  0  0
    1.7189   -6.9058   -1.5496 H   0  0  0  0  0  0  0  0  0  0  0  0
    4.0596   -6.7930   -0.7507 H   0  0  0  0  0  0  0  0  0  0  0  0
    5.3593   -4.7334   -1.0585 H   0  0  0  0  0  0  0  0  0  0  0  0
    2.3128    3.5411   -2.0935 H   0  0  0  0  0  0  0  0  0  0  0  0
    1.2537    2.3417   -1.3963 H   0  0  0  0  0  0  0  0  0  0  0  0
    3.8171    4.8158   -0.1177 H   0  0  0  0  0  0  0  0  0  0  0  0
    3.2553    6.5009    1.5840 H   0  0  0  0  0  0  0  0  0  0  0  0
    0.9584    6.5913    2.5294 H   0  0  0  0  0  0  0  0  0  0  0  0
   -0.7529    4.9388    1.8109 H   0  0  0  0  0  0  0  0  0  0  0  0
   -0.1447    3.1393    0.2348 H   0  0  0  0  0  0  0  0  0  0  0  0
    3.2209    2.4591    1.7929 H   0  0  0  0  0  0  0  0  0  0  0  0
    3.3640    0.7677    2.2597 H   0  0  0  0  0  0  0  0  0  0  0  0
    5.7723    0.7027    1.4149 H   0  0  0  0  0  0  0  0  0  0  0  0
    6.9910    2.6926    1.8345 H   0  0  0  0  0  0  0  0  0  0  0  0
    5.4257    3.6627    2.0870 H   0  0  0  0  0  0  0  0  0  0  0  0
  1  6  2  0  0  0  0
  2 35  1  0  0  0  0
  3 36  1  0  0  0  0
  4  6  1  0  0  0  0
  4  7  1  0  0  0  0
  4 11  1  0  0  0  0
  5  6  1  0  0  0  0
  5 10  1  0  0  0  0
  5 28  1  0  0  0  0
  7  8  1  0  0  0  0
  7 14  1  0  0  0  0
  7 31  1  6  0  0  0
  8  9  1  0  0  0  0
  8 32  1  6  0  0  0
  8  2  1  0  0  0  0
  9  3  1  0  0  0  0
  9 10  1  0  0  0  0
  9 33  1  6  0  0  0
 10 21  1  0  0  0  0
 10 34  1  1  0  0  0
 11 12  1  0  0  0  0
 11 37  1  0  0  0  0
 11 38  1  0  0  0  0
 12 13  2  0  0  0  0
 12 39  1  0  0  0  0
 13 40  1  0  0  0  0
 13 41  1  0  0  0  0
 14 15  1  0  0  0  0
 14 42  1  0  0  0  0
 14 43  1  0  0  0  0
 15 16  2  0  0  0  0
 15 20  1  0  0  0  0
 16 17  1  0  0  0  0
 16 44  1  0  0  0  0
 17 18  2  0  0  0  0
 17 45  1  0  0  0  0
 18 19  1  0  0  0  0
 18 46  1  0  0  0  0
 19 20  2  0  0  0  0
 19 47  1  0  0  0  0
 20 48  1  0  0  0  0
 21 22  1  0  0  0  0
 21 49  1  0  0  0  0
 21 50  1  0  0  0  0
 22 23  2  0  0  0  0
 22 27  1  0  0  0  0
 23 24  1  0  0  0  0
 23 51  1  0  0  0  0
 24 25  2  0  0  0  0
 24 52  1  0  0  0  0
 25 26  1  0  0  0  0
 25 53  1  0  0  0  0
 26 27  2  0  0  0  0
 26 54  1  0  0  0  0
 27 55  1  0  0  0  0
 28 29  1  0  0  0  0
 28 56  1  0  0  0  0
 28 57  1  0  0  0  0
 29 30  2  0  0  0  0
 29 58  1  0  0  0  0
 30 59  1  0  0  0  0
 30 60  1  0  0  0  0
M  END
>  <DRUGBANK_ID>
DB06910

>  <COMMON_NAME>
[4-R-(4-ALPHA,6-BETA,7-BETA]-HEXAHYDRO-5,6-DI(HYDROXY)-1,3-DI(ALLYL)-4,7-BISPHENYLMETHYL)-2H-1,3-DIAZEPINONE

$$$$
