
 OpenBabel10282417113D

 54 57  0  0  0  0  0  0  0  0999 V2000
    1.2058   -0.5622    0.5262 C   0  0  0  0  0  0  0  0  0  0  0  0
    0.2767   -1.6377    1.5629 C   0  0  2  0  0  0  0  0  0  0  0  0
    0.4036   -3.2290    2.6462 C   0  0  0  0  0  0  0  0  0  0  0  0
    1.6191   -2.8337    3.5062 C   0  0  0  0  0  0  0  0  0  0  0  0
    2.5728   -2.4625    2.4039 C   0  0  1  0  0  0  0  0  0  0  0  0
    1.9691   -3.0316    0.8994 C   0  0  0  0  0  0  0  0  0  0  0  0
    0.7158   -2.5868    0.5027 C   0  0  0  0  0  0  0  0  0  0  0  0
   -0.3045   -2.8344   -0.6024 C   0  0  0  0  0  0  0  0  0  0  0  0
   -1.8148   -2.2264   -0.4018 C   0  0  0  0  0  0  0  0  0  0  0  0
   -1.8775   -0.6585   -0.0682 C   0  0  2  0  0  0  0  0  0  0  0  0
   -1.1462   -0.7061    1.4318 C   0  0  2  0  0  0  0  0  0  0  0  0
   -0.9717    0.8116    1.7693 C   0  0  0  0  0  0  0  0  0  0  0  0
   -2.3470    1.3698    1.9175 C   0  0  0  0  0  0  0  0  0  0  0  0
   -3.0518    1.3123    0.5870 C   0  0  1  0  0  0  0  0  0  0  0  0
   -3.2876    0.5833   -0.5326 C   0  0  1  0  0  0  0  0  0  0  0  0
   -3.9958    2.4582   -0.3846 C   0  0  0  0  0  0  0  0  0  0  0  0
   -4.8936    2.7164    0.8599 C   0  0  0  0  0  0  0  0  0  0  0  0
   -4.8454    1.2802    0.7574 C   0  0  1  0  0  0  0  0  0  0  0  0
   -5.8334    0.9647   -0.6079 C   0  0  0  0  0  0  0  0  0  0  0  0
   -5.3789    0.6404    1.8810 O   0  0  0  0  0  0  0  0  0  0  0  0
   -1.9489    1.9748   -0.8018 C   0  0  0  0  0  0  0  0  0  0  0  0
    2.6508   -1.0462    2.6153 O   0  0  0  0  0  0  0  0  0  0  0  0
    0.9956    0.4829    0.6965 H   0  0  0  0  0  0  0  0  0  0  0  0
    0.8807   -0.6417   -0.5379 H   0  0  0  0  0  0  0  0  0  0  0  0
    2.3025   -0.5821    0.4634 H   0  0  0  0  0  0  0  0  0  0  0  0
    0.5080   -4.0167    3.4622 H   0  0  0  0  0  0  0  0  0  0  0  0
    0.5665   -4.1350    1.9971 H   0  0  0  0  0  0  0  0  0  0  0  0
    2.1885   -3.4366    4.2607 H   0  0  0  0  0  0  0  0  0  0  0  0
    1.0716   -2.2074    4.2456 H   0  0  0  0  0  0  0  0  0  0  0  0
    3.5769   -2.8642    2.5356 H   0  0  0  0  0  0  0  0  0  0  0  0
    2.2327   -4.0380    0.5571 H   0  0  0  0  0  0  0  0  0  0  0  0
   -0.3563   -3.9106   -0.7924 H   0  0  0  0  0  0  0  0  0  0  0  0
    0.0937   -2.3759   -1.5189 H   0  0  0  0  0  0  0  0  0  0  0  0
   -2.2361   -2.7864    0.4446 H   0  0  0  0  0  0  0  0  0  0  0  0
   -2.3869   -2.4690   -1.2978 H   0  0  0  0  0  0  0  0  0  0  0  0
   -1.1497   -0.3478   -0.8127 H   0  0  0  0  0  0  0  0  0  0  0  0
   -1.8048   -1.1402    2.1912 H   0  0  0  0  0  0  0  0  0  0  0  0
   -0.5320    1.4009    0.9546 H   0  0  0  0  0  0  0  0  0  0  0  0
   -0.3519    1.0489    2.6354 H   0  0  0  0  0  0  0  0  0  0  0  0
   -2.2980    2.4270    2.2030 H   0  0  0  0  0  0  0  0  0  0  0  0
   -2.8985    0.8422    2.6930 H   0  0  0  0  0  0  0  0  0  0  0  0
   -4.0692   -0.1954   -0.6218 H   0  0  0  0  0  0  0  0  0  0  0  0
   -4.4778    3.0198   -1.2230 H   0  0  0  0  0  0  0  0  0  0  0  0
   -3.2787    3.3052   -0.1499 H   0  0  0  0  0  0  0  0  0  0  0  0
   -5.8809    3.1712    0.7557 H   0  0  0  0  0  0  0  0  0  0  0  0
   -4.3976    3.1516    1.7449 H   0  0  0  0  0  0  0  0  0  0  0  0
   -5.9065   -0.0990   -0.8357 H   0  0  0  0  0  0  0  0  0  0  0  0
   -6.8379    1.3689   -0.4804 H   0  0  0  0  0  0  0  0  0  0  0  0
   -5.4620    1.4200   -1.5520 H   0  0  0  0  0  0  0  0  0  0  0  0
   -6.3240    0.8800    1.8916 H   0  0  0  0  0  0  0  0  0  0  0  0
   -1.0577    1.3996   -1.0177 H   0  0  0  0  0  0  0  0  0  0  0  0
   -2.4958    1.9374   -1.8100 H   0  0  0  0  0  0  0  0  0  0  0  0
   -1.6325    3.0105   -0.7006 H   0  0  0  0  0  0  0  0  0  0  0  0
    2.3135   -0.8470    3.5144 H   0  0  0  0  0  0  0  0  0  0  0  0
  1 23  1  0  0  0  0
  1 24  1  0  0  0  0
  1 25  1  0  0  0  0
  2  1  1  1  0  0  0
  2  3  1  0  0  0  0
  2  7  1  0  0  0  0
  2 11  1  0  0  0  0
  3  4  1  0  0  0  0
  3 26  1  0  0  0  0
  3 27  1  0  0  0  0
  4  5  1  0  0  0  0
  4 28  1  0  0  0  0
  4 29  1  0  0  0  0
  5  6  1  0  0  0  0
  5 30  1  1  0  0  0
  5 22  1  0  0  0  0
  6  7  2  0  0  0  0
  6 31  1  0  0  0  0
  7  8  1  0  0  0  0
  8  9  1  0  0  0  0
  8 32  1  0  0  0  0
  8 33  1  0  0  0  0
  9 34  1  0  0  0  0
  9 35  1  0  0  0  0
 10  9  1  0  0  0  0
 10 11  1  0  0  0  0
 10 15  1  0  0  0  0
 10 36  1  6  0  0  0
 11 12  1  0  0  0  0
 11 37  1  1  0  0  0
 12 13  1  0  0  0  0
 12 38  1  0  0  0  0
 12 39  1  0  0  0  0
 13 14  1  0  0  0  0
 13 40  1  0  0  0  0
 13 41  1  0  0  0  0
 14 15  1  0  0  0  0
 14 18  1  0  0  0  0
 14 21  1  6  0  0  0
 15 16  1  0  0  0  0
 15 42  1  1  0  0  0
 16 17  1  0  0  0  0
 16 43  1  0  0  0  0
 16 44  1  0  0  0  0
 17 18  1  0  0  0  0
 17 45  1  0  0  0  0
 17 46  1  0  0  0  0
 18 19  1  0  0  0  0
 18 20  1  1  0  0  0
 19 47  1  0  0  0  0
 19 48  1  0  0  0  0
 19 49  1  0  0  0  0
 20 50  1  0  0  0  0
 21 51  1  0  0  0  0
 21 52  1  0  0  0  0
 21 53  1  0  0  0  0
 22 54  1  0  0  0  0
M  END
>  <DRUGBANK_ID>
DB01474

>  <COMMON_NAME>
17alpha-methyl-3beta,17beta-dihydroxyandrost-4-ene

>  <CAS_NUMBER>
571-03-9

>  <UNII>
83255K3MTP

>  <SYNONYMS>
17-Methylandrost-4-ene-3beta,17beta-diol

$$$$
