
 OpenBabel10282417103D

 65 66  0  0  1  0  0  0  0  0999 V2000
    1.3337    0.0140    0.1842 C   0  0  0  0  0  0  0  0  0  0  0  0
    1.5261    2.5052   -0.6865 C   0  0  0  0  0  0  0  0  0  0  0  0
   -2.8911    5.7697    3.2695 C   0  0  0  0  0  0  0  0  0  0  0  0
   -3.7387    3.5389    2.9786 C   0  0  0  0  0  0  0  0  0  0  0  0
   -2.7109    0.3471   -4.0620 C   0  0  0  0  0  0  0  0  0  0  0  0
   -2.2976   -0.3079   -0.9094 C   0  0  0  0  0  0  0  0  0  0  0  0
   -6.5793   -0.0064    0.2769 C   0  0  0  0  0  0  0  0  0  0  0  0
   -2.9091    1.9850    0.8226 C   0  0  0  0  0  0  0  0  0  0  0  0
   -3.9702    1.2352   -2.0111 C   0  0  0  0  0  0  0  0  0  0  0  0
   -3.1816    5.6760   -1.9890 C   0  0  0  0  0  0  0  0  0  0  0  0
   -1.9695    3.2360   -2.6491 C   0  0  0  0  0  0  0  0  0  0  0  0
    0.9490    1.5177    0.3564 C   0  0  0  0  0  0  0  0  0  0  0  0
   -2.5412    4.4426    2.6732 C   0  0  0  0  0  0  0  0  0  0  0  0
   -1.8833    0.3585   -2.7612 C   0  0  2  0  0  0  0  0  0  0  0  0
   -4.9574    1.9080    0.7819 C   0  0  0  0  0  0  0  0  0  0  0  0
   -6.3144    2.1621    1.0249 C   0  0  0  0  0  0  0  0  0  0  0  0
   -4.4969    0.5822    0.6209 C   0  0  0  0  0  0  0  0  0  0  0  0
   -0.9327    1.5316   -0.9392 C   0  0  0  0  0  0  0  0  0  0  0  0
   -2.9816    5.3062    0.3501 C   0  0  0  0  0  0  0  0  0  0  0  0
   -6.8478    3.3277    1.5645 N   0  0  0  0  0  0  0  0  0  0  0  0
   -7.1386    1.1591    0.6915 N   0  0  0  0  0  0  0  0  0  0  0  0
   -5.2949   -0.4379    0.3227 N   0  0  0  0  0  0  0  0  0  0  0  0
   -3.9561    2.7524    0.5884 N   0  0  0  0  0  0  0  0  0  0  0  0
   -3.1052    0.6043    0.4284 N   0  0  0  0  0  0  0  0  0  0  0  0
   -0.1621    0.8804   -1.6353 O   0  0  0  0  0  0  0  0  0  0  0  0
   -4.1072    5.6177    0.5251 O   0  0  0  0  0  0  0  0  0  0  0  0
   -3.7793    3.8003   -4.6438 O   0  0  0  0  0  0  0  0  0  0  0  0
   -2.5248    1.7461   -1.2207 O   0  0  0  0  0  0  0  0  0  0  0  0
   -2.3107    5.4390   -0.8531 O   0  0  0  0  0  0  0  0  0  0  0  0
   -1.3254    1.9694   -3.1053 O   0  0  0  0  0  0  0  0  0  0  0  0
   -4.5309    2.1923   -2.8244 O   0  0  0  0  0  0  0  0  0  0  0  0
   -4.1562    4.6536   -2.2041 O   0  0  0  0  0  0  0  0  0  0  0  0
   -0.4669    1.7560    0.3269 O   0  0  0  0  0  0  0  0  0  0  0  0
   -2.1128    4.7333    1.2806 O   0  0  0  0  0  0  0  0  0  0  0  0
   -3.6474    3.4719   -3.1921 P   0  0  0  0  0  0  0  0  0  0  0  0
   -0.9844   -0.2174   -3.0638 H   0  0  0  0  0  0  0  0  0  0  0  0
    1.0303   -0.4836   -0.7473 H   0  0  0  0  0  0  0  0  0  0  0  0
    0.8566   -0.6080    0.9523 H   0  0  0  0  0  0  0  0  0  0  0  0
    2.4155   -0.0983    0.2072 H   0  0  0  0  0  0  0  0  0  0  0  0
    1.2798    2.2916   -1.7371 H   0  0  0  0  0  0  0  0  0  0  0  0
    1.0512    3.4856   -0.5372 H   0  0  0  0  0  0  0  0  0  0  0  0
    2.6041    2.5362   -0.6651 H   0  0  0  0  0  0  0  0  0  0  0  0
   -3.6646    6.2452    2.6623 H   0  0  0  0  0  0  0  0  0  0  0  0
   -3.2947    5.6525    4.2742 H   0  0  0  0  0  0  0  0  0  0  0  0
   -2.0099    6.4035    3.2459 H   0  0  0  0  0  0  0  0  0  0  0  0
   -3.5417    2.4735    2.8422 H   0  0  0  0  0  0  0  0  0  0  0  0
   -4.1352    3.5394    3.9921 H   0  0  0  0  0  0  0  0  0  0  0  0
   -4.5392    3.8978    2.3521 H   0  0  0  0  0  0  0  0  0  0  0  0
   -2.8909    1.3841   -4.3764 H   0  0  0  0  0  0  0  0  0  0  0  0
   -2.1312   -0.0236   -4.9023 H   0  0  0  0  0  0  0  0  0  0  0  0
   -3.6602   -0.1649   -4.0358 H   0  0  0  0  0  0  0  0  0  0  0  0
   -2.8849   -1.2212   -0.8791 H   0  0  0  0  0  0  0  0  0  0  0  0
   -1.3811   -0.5200   -0.3066 H   0  0  0  0  0  0  0  0  0  0  0  0
   -7.2426   -0.6776   -0.2435 H   0  0  0  0  0  0  0  0  0  0  0  0
   -2.0056    2.5691    0.9053 H   0  0  0  0  0  0  0  0  0  0  0  0
   -3.9177    0.1571   -2.2946 H   0  0  0  0  0  0  0  0  0  0  0  0
   -4.8200    0.9837   -1.4009 H   0  0  0  0  0  0  0  0  0  0  0  0
   -2.5436    5.6997   -2.8853 H   0  0  0  0  0  0  0  0  0  0  0  0
   -3.6176    6.6733   -1.9438 H   0  0  0  0  0  0  0  0  0  0  0  0
   -1.2733    4.0580   -2.8159 H   0  0  0  0  0  0  0  0  0  0  0  0
   -2.0058    3.4187   -1.5543 H   0  0  0  0  0  0  0  0  0  0  0  0
    1.2698    1.8179    1.3569 H   0  0  0  0  0  0  0  0  0  0  0  0
   -1.6798    3.9660    3.1622 H   0  0  0  0  0  0  0  0  0  0  0  0
   -6.2552    4.0715    1.9125 H   0  0  0  0  0  0  0  0  0  0  0  0
   -7.7574    3.2380    1.9906 H   0  0  0  0  0  0  0  0  0  0  0  0
  1 37  1  0  0  0  0
  1 38  1  0  0  0  0
  1 39  1  0  0  0  0
  2 40  1  0  0  0  0
  2 41  1  0  0  0  0
  2 42  1  0  0  0  0
  3 43  1  0  0  0  0
  3 44  1  0  0  0  0
  3 45  1  0  0  0  0
  4 46  1  0  0  0  0
  4 47  1  0  0  0  0
  4 48  1  0  0  0  0
  5 49  1  0  0  0  0
  5 50  1  0  0  0  0
  5 51  1  0  0  0  0
  6 52  1  0  0  0  0
  6 53  1  0  0  0  0
  7 54  1  0  0  0  0
  8 55  1  0  0  0  0
  9 56  1  0  0  0  0
  9 57  1  0  0  0  0
 10 58  1  0  0  0  0
 10 59  1  0  0  0  0
 11 60  1  0  0  0  0
 11 61  1  0  0  0  0
 12  1  1  0  0  0  0
 12  2  1  0  0  0  0
 12 62  1  0  0  0  0
 13  3  1  0  0  0  0
 13  4  1  0  0  0  0
 13 63  1  0  0  0  0
 14 36  1  6  0  0  0
 14  6  1  0  0  0  0
 14  5  1  0  0  0  0
 16 15  2  0  0  0  0
 17 15  1  0  0  0  0
 20 16  1  0  0  0  0
 20 64  1  0  0  0  0
 20 65  1  0  0  0  0
 21  7  2  0  0  0  0
 21 16  1  0  0  0  0
 22  7  1  0  0  0  0
 22 17  2  0  0  0  0
 23  8  2  0  0  0  0
 23 15  1  0  0  0  0
 24  6  1  0  0  0  0
 24  8  1  0  0  0  0
 24 17  1  0  0  0  0
 25 18  2  0  0  0  0
 26 19  2  0  0  0  0
 28  9  1  0  0  0  0
 28 18  1  0  0  0  0
 29 10  1  0  0  0  0
 29 19  1  0  0  0  0
 30 11  1  0  0  0  0
 30 14  1  0  0  0  0
 31  9  1  0  0  0  0
 32 10  1  0  0  0  0
 33 12  1  0  0  0  0
 33 18  1  0  0  0  0
 34 13  1  0  0  0  0
 34 19  1  0  0  0  0
 35 11  1  0  0  0  0
 35 27  2  0  0  0  0
 35 31  1  0  0  0  0
 35 32  1  0  0  0  0
M  END
>  <DRUGBANK_ID>
DB00300

>  <SECONDARY_ACCESSION_NUMBERS>
APRD01248; DB13426

>  <COMMON_NAME>
Tenofovir disoproxil

>  <CAS_NUMBER>
201341-05-1

>  <UNII>
F4YU4LON7I

>  <SYNONYMS>
Bis(POC)PMPA; Tenofovir bis(isopropyloxycarbonyloxymethyl) ester

$$$$
