
 OpenBabel10282417203D

 49 47  0  0  0  0  0  0  0  0999 V2000
   -1.0999   -0.9227    1.2697 Ca  0  2  0  0  0  0  0  0  0  0  0  0
    0.9929   -0.3391    0.7092 O   0  0  0  0  0  0  0  0  0  0  0  0
    1.5640    1.0047   -0.0611 O   0  0  0  0  0  0  0  0  0  0  0  0
    2.1444    1.5440   -4.4374 O   0  5  0  0  0  0  0  0  0  0  0  0
    2.1742   -4.1074   -1.1335 O   0  5  0  0  0  0  0  0  0  0  0  0
    2.8294    0.0464   -3.2524 O   0  0  0  0  0  0  0  0  0  0  0  0
    2.1278   -2.7881    0.6502 O   0  0  0  0  0  0  0  0  0  0  0  0
    3.7936   -1.2873    1.4678 O   0  0  0  0  0  0  0  0  0  0  0  0
    3.8398    1.8695    1.1815 O   0  0  0  0  0  0  0  0  0  0  0  0
    1.7862    0.2583   -1.5978 O   0  0  0  0  0  0  0  0  0  0  0  0
    2.5377   -1.1527   -1.5009 N   0  0  0  0  0  0  0  0  0  0  0  0
    2.2877    0.2086    1.4622 N   0  0  0  0  0  0  0  0  0  0  0  0
    0.5528    1.5696   -2.0489 C   0  0  0  0  0  0  0  0  0  0  0  0
    0.5694   -2.1809   -0.9657 C   0  0  0  0  0  0  0  0  0  0  0  0
   -0.0397    1.1710   -0.2675 C   0  0  0  0  0  0  0  0  0  0  0  0
    0.2819   -0.5599   -0.8358 C   0  0  0  0  0  0  0  0  0  0  0  0
    1.9486    1.0108   -3.3143 C   0  0  0  0  0  0  0  0  0  0  0  0
    1.7716   -3.0861   -0.5081 C   0  0  0  0  0  0  0  0  0  0  0  0
   -0.1698    2.1028   -3.0319 C   0  0  0  0  0  0  0  0  0  0  0  0
   -0.2558   -2.9697   -1.7933 C   0  0  0  0  0  0  0  0  0  0  0  0
   -1.1120    1.7794    0.1479 C   0  0  0  0  0  0  0  0  0  0  0  0
   -0.9896   -0.3916   -1.5260 C   0  0  0  0  0  0  0  0  0  0  0  0
   -1.1989    2.6768   -2.4114 C   0  0  0  0  0  0  0  0  0  0  0  0
   -1.3349   -2.4484   -2.4871 C   0  0  0  0  0  0  0  0  0  0  0  0
   -1.6493    2.4925   -0.9706 C   0  0  0  0  0  0  0  0  0  0  0  0
   -1.7898   -1.2043   -2.2617 C   0  0  0  0  0  0  0  0  0  0  0  0
    3.0537   -0.8568    0.5172 C   0  0  0  0  0  0  0  0  0  0  0  0
    3.4700    0.9646    0.4601 C   0  0  0  0  0  0  0  0  0  0  0  0
    3.7538    0.7070   -1.0828 C   0  0  0  0  0  0  0  0  0  0  0  0
    4.4294   -0.7968   -0.5885 C   0  0  0  0  0  0  0  0  0  0  0  0
    2.1010   -0.3260   -0.6248 C   0  0  0  0  0  0  0  0  0  0  0  0
    3.0991   -0.4599   -2.0995 H   0  0  0  0  0  0  0  0  0  0  0  0
    2.0022   -0.9679   -2.3659 H   0  0  0  0  0  0  0  0  0  0  0  0
    2.1419    1.0640    2.0223 H   0  0  0  0  0  0  0  0  0  0  0  0
    3.4401    0.1553    1.9305 H   0  0  0  0  0  0  0  0  0  0  0  0
    0.1358    1.9728   -4.0759 H   0  0  0  0  0  0  0  0  0  0  0  0
   -0.0343   -4.0338   -1.8831 H   0  0  0  0  0  0  0  0  0  0  0  0
   -1.3867    1.5681    1.1129 H   0  0  0  0  0  0  0  0  0  0  0  0
   -1.3884    0.5425   -1.7465 H   0  0  0  0  0  0  0  0  0  0  0  0
   -1.6977    3.3607   -3.0549 H   0  0  0  0  0  0  0  0  0  0  0  0
   -1.8587   -3.0028   -3.2368 H   0  0  0  0  0  0  0  0  0  0  0  0
   -2.6680    2.7981   -0.8496 H   0  0  0  0  0  0  0  0  0  0  0  0
   -2.6654   -0.7281   -2.6904 H   0  0  0  0  0  0  0  0  0  0  0  0
    3.4453    1.3467   -1.9165 H   0  0  0  0  0  0  0  0  0  0  0  0
    3.2648    2.0119   -0.8562 H   0  0  0  0  0  0  0  0  0  0  0  0
    4.8896    1.0424   -0.8043 H   0  0  0  0  0  0  0  0  0  0  0  0
    3.8719   -2.0341   -0.8185 H   0  0  0  0  0  0  0  0  0  0  0  0
    4.3418   -1.2087   -1.9521 H   0  0  0  0  0  0  0  0  0  0  0  0
    5.4378   -0.8560   -0.5643 H   0  0  0  0  0  0  0  0  0  0  0  0
  2 15  1  0  0  0  0
  2 27  1  0  0  0  0
  3 16  1  0  0  0  0
  3 28  1  0  0  0  0
  4 17  1  0  0  0  0
  5 18  1  0  0  0  0
  6 17  2  0  0  0  0
  7 18  2  0  0  0  0
  8 27  2  0  0  0  0
  9 28  2  0  0  0  0
 10 31  2  0  0  0  0
 11 31  1  0  0  0  0
 11 32  1  0  0  0  0
 11 33  1  0  0  0  0
 12 31  1  0  0  0  0
 12 34  1  0  0  0  0
 12 35  1  0  0  0  0
 13 15  1  0  0  0  0
 13 17  1  0  0  0  0
 13 19  2  0  0  0  0
 14 16  1  0  0  0  0
 14 18  1  0  0  0  0
 14 20  2  0  0  0  0
 15 21  2  0  0  0  0
 16 22  2  0  0  0  0
 19 23  1  0  0  0  0
 19 36  1  0  0  0  0
 20 24  1  0  0  0  0
 20 37  1  0  0  0  0
 21 25  1  0  0  0  0
 21 38  1  0  0  0  0
 22 26  1  0  0  0  0
 22 39  1  0  0  0  0
 23 25  2  0  0  0  0
 23 40  1  0  0  0  0
 24 26  2  0  0  0  0
 24 41  1  0  0  0  0
 25 42  1  0  0  0  0
 26 43  1  0  0  0  0
 27 29  1  0  0  0  0
 28 30  1  0  0  0  0
 29 44  1  0  0  0  0
 29 45  1  0  0  0  0
 29 46  1  0  0  0  0
 30 47  1  0  0  0  0
 30 48  1  0  0  0  0
 30 49  1  0  0  0  0
M  CHG  3   1   2   4  -1   5  -1
M  END
>  <DRUGBANK_ID>
DB13612

>  <COMMON_NAME>
Carbaspirin calcium

>  <CAS_NUMBER>
5749-67-7

>  <UNII>
N667F17JP1

>  <SYNONYMS>
Carbasalate calcium; Carbasalato calcico; Carbasalatum calcicum; Carbaspirin calcium

$$$$
