
 OpenBabel10282417183D

 39 39  0  0  0  0  0  0  0  0999 V2000
    1.0158   -0.1145   -0.0479 O   0  0  0  0  0  0  0  0  0  0  0  0
    2.9642   -0.5832    1.0274 O   0  0  0  0  0  0  0  0  0  0  0  0
   -3.4791    3.7281   -5.0323 O   0  0  0  0  0  0  0  0  0  0  0  0
   -1.9965    2.3176   -4.0963 N   0  0  0  0  0  0  0  0  0  0  0  0
    3.0996   -0.2193   -2.3394 N   0  0  0  0  0  0  0  0  0  0  0  0
    0.2699    0.4565   -1.0868 C   0  0  0  0  0  0  0  0  0  0  0  0
   -1.2871    1.6538   -3.0790 C   0  0  0  0  0  0  0  0  0  0  0  0
    2.4056   -0.0865    0.0549 C   0  0  0  0  0  0  0  0  0  0  0  0
    0.3774    0.0820   -2.4219 C   0  0  0  0  0  0  0  0  0  0  0  0
   -0.7195    1.3193   -0.7157 C   0  0  0  0  0  0  0  0  0  0  0  0
   -0.2834    0.7711   -3.4355 C   0  0  0  0  0  0  0  0  0  0  0  0
   -1.5454    1.8049   -1.7114 C   0  0  0  0  0  0  0  0  0  0  0  0
    3.1896    0.5508   -1.0902 C   0  0  0  0  0  0  0  0  0  0  0  0
   -3.0296    3.2225   -4.0155 C   0  0  0  0  0  0  0  0  0  0  0  0
    3.6449    0.4405   -3.5175 C   0  0  0  0  0  0  0  0  0  0  0  0
    3.2837   -1.6655   -2.2314 C   0  0  0  0  0  0  0  0  0  0  0  0
   -3.6054    3.5697   -2.6691 C   0  0  0  0  0  0  0  0  0  0  0  0
    5.1550    0.5589   -3.4945 C   0  0  0  0  0  0  0  0  0  0  0  0
    4.6842   -2.0806   -1.8486 C   0  0  0  0  0  0  0  0  0  0  0  0
   -1.6951    2.1679   -5.0557 H   0  0  0  0  0  0  0  0  0  0  0  0
    0.9901   -0.7539   -2.7124 H   0  0  0  0  0  0  0  0  0  0  0  0
   -0.9256    1.5681    0.3196 H   0  0  0  0  0  0  0  0  0  0  0  0
   -0.0227    0.5435   -4.4667 H   0  0  0  0  0  0  0  0  0  0  0  0
   -2.4188    2.2687   -1.3053 H   0  0  0  0  0  0  0  0  0  0  0  0
    2.8378    1.5824   -1.2175 H   0  0  0  0  0  0  0  0  0  0  0  0
    4.2295    0.6194   -0.7586 H   0  0  0  0  0  0  0  0  0  0  0  0
    3.3190   -0.0889   -4.4234 H   0  0  0  0  0  0  0  0  0  0  0  0
    3.2055    1.4434   -3.6085 H   0  0  0  0  0  0  0  0  0  0  0  0
    2.5818   -2.0728   -1.4904 H   0  0  0  0  0  0  0  0  0  0  0  0
    2.9778   -2.1479   -3.1697 H   0  0  0  0  0  0  0  0  0  0  0  0
   -4.0530    2.6686   -2.2331 H   0  0  0  0  0  0  0  0  0  0  0  0
   -2.8247    4.0164   -2.0423 H   0  0  0  0  0  0  0  0  0  0  0  0
   -4.4001    4.3071   -2.7412 H   0  0  0  0  0  0  0  0  0  0  0  0
    5.6242   -0.4044   -3.6754 H   0  0  0  0  0  0  0  0  0  0  0  0
    5.5179    1.2096   -4.2896 H   0  0  0  0  0  0  0  0  0  0  0  0
    5.5062    0.9473   -2.5347 H   0  0  0  0  0  0  0  0  0  0  0  0
    5.0587   -1.4827   -1.0138 H   0  0  0  0  0  0  0  0  0  0  0  0
    4.7183   -3.1337   -1.5708 H   0  0  0  0  0  0  0  0  0  0  0  0
    5.3618   -1.9788   -2.6911 H   0  0  0  0  0  0  0  0  0  0  0  0
  1  6  1  0  0  0  0
  1  8  1  0  0  0  0
  2  8  2  0  0  0  0
  3 14  2  0  0  0  0
  4  7  1  0  0  0  0
  4 14  1  0  0  0  0
  4 20  1  0  0  0  0
  5 13  1  0  0  0  0
  5 15  1  0  0  0  0
  5 16  1  0  0  0  0
  6  9  2  0  0  0  0
  6 10  1  0  0  0  0
  7 11  2  0  0  0  0
  7 12  1  0  0  0  0
  8 13  1  0  0  0  0
  9 11  1  0  0  0  0
  9 21  1  0  0  0  0
 10 12  2  0  0  0  0
 10 22  1  0  0  0  0
 11 23  1  0  0  0  0
 12 24  1  0  0  0  0
 13 25  1  0  0  0  0
 13 26  1  0  0  0  0
 14 17  1  0  0  0  0
 15 18  1  0  0  0  0
 15 27  1  0  0  0  0
 15 28  1  0  0  0  0
 16 19  1  0  0  0  0
 16 29  1  0  0  0  0
 16 30  1  0  0  0  0
 17 31  1  0  0  0  0
 17 32  1  0  0  0  0
 17 33  1  0  0  0  0
 18 34  1  0  0  0  0
 18 35  1  0  0  0  0
 18 36  1  0  0  0  0
 19 37  1  0  0  0  0
 19 38  1  0  0  0  0
 19 39  1  0  0  0  0
M  END
>  <DRUGBANK_ID>
DB09288

>  <COMMON_NAME>
Propacetamol

>  <CAS_NUMBER>
66532-85-2

>  <UNII>
5CHW4JMR82

>  <SYNONYMS>
Propacetamol

$$$$
