
 OpenBabel10282417123D

 38 39  0  0  1  0  0  0  0  0999 V2000
    1.0991    0.0838    0.0281 C   0  0  0  0  0  0  0  0  0  0  0  0
    0.7170   -1.0292    0.9405 C   0  0  0  0  0  0  0  0  0  0  0  0
    1.2412   -2.2518    0.8126 C   0  0  0  0  0  0  0  0  0  0  0  0
    0.7301   -3.3421    1.4865 N   0  0  0  0  0  0  0  0  0  0  0  0
    0.9682   -4.6766    0.9561 C   0  0  2  0  0  0  0  0  0  0  0  0
    2.3859   -4.8851    0.9455 O   0  0  0  0  0  0  0  0  0  0  0  0
    2.7664   -5.6729   -0.2370 C   0  0  2  0  0  0  0  0  0  0  0  0
    4.2542   -5.3033   -0.5258 C   0  0  0  0  0  0  0  0  0  0  0  0
    5.2230   -5.8208    0.4461 O   0  0  0  0  0  0  0  0  0  0  0  0
    4.8587   -5.2628    2.0426 P   0  0  1  0  0  0  0  0  0  0  0  0
    3.5842   -6.2470    2.2444 O   0  0  0  0  0  0  0  0  0  0  0  0
    6.0782   -6.0586    2.5238 O   0  0  0  0  0  0  0  0  0  0  0  0
    4.4945   -4.7048    3.6391 O   0  0  0  0  0  0  0  0  0  0  0  0
    5.1465   -5.4832    4.8862 P   0  0  0  0  0  0  0  0  0  0  0  0
    6.6962   -5.1129    4.7493 O   0  0  0  0  0  0  0  0  0  0  0  0
    4.6086   -4.5089    6.0308 O   0  0  0  0  0  0  0  0  0  0  0  0
    4.8346   -6.9196    5.1194 O   0  0  0  0  0  0  0  0  0  0  0  0
    1.6901   -5.2576   -1.1805 C   0  0  0  0  0  0  0  0  0  0  0  0
    0.6584   -4.7413   -0.4958 C   0  0  0  0  0  0  0  0  0  0  0  0
   -0.1719   -3.1866    2.5312 C   0  0  0  0  0  0  0  0  0  0  0  0
   -0.6781   -4.1150    3.1524 O   0  0  0  0  0  0  0  0  0  0  0  0
   -0.5098   -1.8874    2.8223 N   0  0  0  0  0  0  0  0  0  0  0  0
   -0.3167   -0.8364    1.9757 C   0  0  0  0  0  0  0  0  0  0  0  0
   -0.9638    0.2116    2.0677 O   0  0  0  0  0  0  0  0  0  0  0  0
    0.7182    1.0501    0.3650 H   0  0  0  0  0  0  0  0  0  0  0  0
    0.6997   -0.1020   -0.9772 H   0  0  0  0  0  0  0  0  0  0  0  0
    2.1882    0.1549   -0.0451 H   0  0  0  0  0  0  0  0  0  0  0  0
    2.0183   -2.4480    0.0790 H   0  0  0  0  0  0  0  0  0  0  0  0
    0.4898   -5.4568    1.5619 H   0  0  0  0  0  0  0  0  0  0  0  0
    2.6911   -6.7530   -0.0300 H   0  0  0  0  0  0  0  0  0  0  0  0
    4.5605   -5.6608   -1.5123 H   0  0  0  0  0  0  0  0  0  0  0  0
    4.3470   -4.2122   -0.5007 H   0  0  0  0  0  0  0  0  0  0  0  0
    2.8307   -5.6180    2.1754 H   0  0  0  0  0  0  0  0  0  0  0  0
    7.0238   -5.7000    4.0212 H   0  0  0  0  0  0  0  0  0  0  0  0
    3.6669   -4.3538    5.8393 H   0  0  0  0  0  0  0  0  0  0  0  0
    1.7356   -5.3555   -2.2539 H   0  0  0  0  0  0  0  0  0  0  0  0
   -0.2378   -4.3069   -0.9122 H   0  0  0  0  0  0  0  0  0  0  0  0
   -1.2191   -1.7657    3.5306 H   0  0  0  0  0  0  0  0  0  0  0  0
  1  2  1  0  0  0  0
  1 25  1  0  0  0  0
  1 26  1  0  0  0  0
  1 27  1  0  0  0  0
  2  3  2  0  0  0  0
  2 23  1  0  0  0  0
  3  4  1  0  0  0  0
  3 28  1  0  0  0  0
  4 20  1  0  0  0  0
  5  4  1  0  0  0  0
  5  6  1  0  0  0  0
  5 19  1  0  0  0  0
  5 29  1  1  0  0  0
  6  7  1  0  0  0  0
  7  8  1  0  0  0  0
  7 18  1  0  0  0  0
  7 30  1  1  0  0  0
  8  9  1  0  0  0  0
  8 31  1  0  0  0  0
  8 32  1  0  0  0  0
 10  9  1  0  0  0  0
 10 11  1  0  0  0  0
 10 12  2  1  0  0  0
 10 13  1  0  0  0  0
 11 33  1  0  0  0  0
 13 14  1  0  0  0  0
 14 15  1  0  0  0  0
 14 16  1  0  0  0  0
 14 17  2  0  0  0  0
 15 34  1  0  0  0  0
 16 35  1  0  0  0  0
 18 19  2  0  0  0  0
 18 36  1  0  0  0  0
 19 37  1  0  0  0  0
 20 21  2  0  0  0  0
 20 22  1  0  0  0  0
 22 23  1  0  0  0  0
 22 38  1  0  0  0  0
 23 24  2  0  0  0  0
M  END
>  <DRUGBANK_ID>
DB02569

>  <SECONDARY_ACCESSION_NUMBERS>
EXPT01096

>  <COMMON_NAME>
2',3'-Dehydro-2',3'-Deoxy-Thymidine 5'-Diphosphate

$$$$
