
 OpenBabel10282417183D

166162  0  0  0  0  0  0  0  0999 V2000
    1.0407    0.0401   -0.0821 C   0  0  0  0  0  0  0  0  0  0  0  0
    0.5341   -0.5136   -1.4038 C   0  0  0  0  0  0  0  0  0  0  0  0
    1.0407   -1.9352   -1.5852 C   0  0  0  0  0  0  0  0  0  0  0  0
    0.5341   -2.8030   -0.4448 C   0  0  0  0  0  0  0  0  0  0  0  0
   -0.9859   -2.8030   -0.4448 C   0  0  0  0  0  0  0  0  0  0  0  0
   -1.4926   -3.3567   -1.7666 C   0  0  0  0  0  0  0  0  0  0  0  0
    0.5341    1.4616    0.0993 C   0  0  0  0  0  0  0  0  0  0  0  0
    1.0407    2.3295   -1.0411 C   0  0  0  0  0  0  0  0  0  0  0  0
    0.5341    1.7758   -2.3629 C   0  0  0  0  0  0  0  0  0  0  0  0
   -0.9859    1.7758   -2.3629 C   0  0  0  0  0  0  0  0  0  0  0  0
   -1.4926    3.1973   -2.1815 C   0  0  0  0  0  0  0  0  0  0  0  0
   -0.9859    4.0652   -3.3219 C   0  0  0  0  0  0  0  0  0  0  0  0
   -1.4926    3.5115   -4.6437 C   0  0  0  0  0  0  0  0  0  0  0  0
   -3.0126    3.5115   -4.6437 C   0  0  0  0  0  0  0  0  0  0  0  0
   -3.5193    4.9330   -4.4623 C   0  0  0  0  0  0  0  0  0  0  0  0
   -4.2500    5.9658   -7.6761 O   0  0  0  0  0  0  0  0  0  0  0  0
   -3.5193    5.2472   -6.9245 C   0  0  0  0  0  0  0  0  0  0  0  0
   -3.1762    3.9271   -7.3195 O   0  5  0  0  0  0  0  0  0  0  0  0
   -0.9859   -4.7783   -1.9480 C   0  0  0  0  0  0  0  0  0  0  0  0
   -3.0126    5.8009   -5.6027 C   0  0  0  0  0  0  0  0  0  0  0  0
    1.0599   -0.0427    0.0677 C   0  0  0  0  0  0  0  0  0  0  0  0
    0.5532    1.3834   -0.0732 C   0  0  0  0  0  0  0  0  0  0  0  0
    1.0599    1.9744   -1.3787 C   0  0  0  0  0  0  0  0  0  0  0  0
    0.5532    1.1393   -2.5433 C   0  0  0  0  0  0  0  0  0  0  0  0
   -0.9668    1.1393   -2.5433 C   0  0  0  0  0  0  0  0  0  0  0  0
   -1.4735    2.5654   -2.6842 C   0  0  0  0  0  0  0  0  0  0  0  0
    0.5532   -0.6337    1.3733 C   0  0  0  0  0  0  0  0  0  0  0  0
    1.0599    0.2014    2.5379 C   0  0  0  0  0  0  0  0  0  0  0  0
    0.5532    1.6275    2.3969 C   0  0  0  0  0  0  0  0  0  0  0  0
   -0.9668    1.6275    2.3969 C   0  0  0  0  0  0  0  0  0  0  0  0
   -1.4735    1.0365    3.7025 C   0  0  0  0  0  0  0  0  0  0  0  0
   -0.9668    1.8716    4.8671 C   0  0  0  0  0  0  0  0  0  0  0  0
   -1.4735    3.2977    4.7261 C   0  0  0  0  0  0  0  0  0  0  0  0
   -2.9935    3.2977    4.7261 C   0  0  0  0  0  0  0  0  0  0  0  0
   -3.5001    2.7067    6.0316 C   0  0  0  0  0  0  0  0  0  0  0  0
   -4.2308    5.4753    7.9630 O   0  0  0  0  0  0  0  0  0  0  0  0
   -3.5002    4.9680    7.0553 C   0  0  0  0  0  0  0  0  0  0  0  0
   -3.1571    5.7333    5.9095 O   0  5  0  0  0  0  0  0  0  0  0  0
   -0.9668    3.1565   -3.9898 C   0  0  0  0  0  0  0  0  0  0  0  0
   -2.9935    3.5418    7.1962 C   0  0  0  0  0  0  0  0  0  0  0  0
    1.0791   -0.0607    0.0076 C   0  0  0  0  0  0  0  0  0  0  0  0
    0.5724    0.3885    1.3685 C   0  0  0  0  0  0  0  0  0  0  0  0
    1.0791    1.7917    1.6598 C   0  0  0  0  0  0  0  0  0  0  0  0
    0.5724    2.7456    0.5903 C   0  0  0  0  0  0  0  0  0  0  0  0
   -0.9476    2.7456    0.5903 C   0  0  0  0  0  0  0  0  0  0  0  0
   -1.4543    3.1948    1.9511 C   0  0  0  0  0  0  0  0  0  0  0  0
    0.5724   -1.4639   -0.2837 C   0  0  0  0  0  0  0  0  0  0  0  0
    1.0791   -2.4177    0.7858 C   0  0  0  0  0  0  0  0  0  0  0  0
    0.5724   -1.9685    2.1466 C   0  0  0  0  0  0  0  0  0  0  0  0
   -0.9476   -1.9685    2.1466 C   0  0  0  0  0  0  0  0  0  0  0  0
   -1.4543   -3.3716    1.8553 C   0  0  0  0  0  0  0  0  0  0  0  0
   -0.9476   -4.3255    2.9248 C   0  0  0  0  0  0  0  0  0  0  0  0
   -1.4543   -3.8762    4.2856 C   0  0  0  0  0  0  0  0  0  0  0  0
   -2.9743   -3.8762    4.2856 C   0  0  0  0  0  0  0  0  0  0  0  0
   -3.4810   -5.2794    3.9943 C   0  0  0  0  0  0  0  0  0  0  0  0
   -4.2116   -6.5588    7.1182 O   0  0  0  0  0  0  0  0  0  0  0  0
   -3.4810   -5.7839    6.4246 C   0  0  0  0  0  0  0  0  0  0  0  0
   -3.1379   -4.4985    6.9210 O   0  5  0  0  0  0  0  0  0  0  0  0
   -0.9476    4.5980    2.2424 C   0  0  0  0  0  0  0  0  0  0  0  0
   -2.9743   -6.2332    5.0638 C   0  0  0  0  0  0  0  0  0  0  0  0
    1.0675    0.0737    0.0024 Al  0  1  0  0  0  0  0  0  0  0  0  0
    0.6841   -0.5709    0.7207 H   0  0  0  0  0  0  0  0  0  0  0  0
    2.1107    0.0401   -0.0821 H   0  0  0  0  0  0  0  0  0  0  0  0
   -0.5359   -0.5136   -1.4038 H   0  0  0  0  0  0  0  0  0  0  0  0
    0.8907    0.0973   -2.2066 H   0  0  0  0  0  0  0  0  0  0  0  0
    0.6841   -2.3249   -2.5157 H   0  0  0  0  0  0  0  0  0  0  0  0
    2.1107   -1.9352   -1.5852 H   0  0  0  0  0  0  0  0  0  0  0  0
    0.8907   -3.8037   -0.5725 H   0  0  0  0  0  0  0  0  0  0  0  0
    0.8907   -2.4133    0.4856 H   0  0  0  0  0  0  0  0  0  0  0  0
   -1.3426   -3.4140    0.3579 H   0  0  0  0  0  0  0  0  0  0  0  0
   -1.3426   -1.8023   -0.3172 H   0  0  0  0  0  0  0  0  0  0  0  0
   -2.5626   -3.3567   -1.7666 H   0  0  0  0  0  0  0  0  0  0  0  0
   -1.1359   -2.7458   -2.5694 H   0  0  0  0  0  0  0  0  0  0  0  0
   -0.5359    1.4616    0.0993 H   0  0  0  0  0  0  0  0  0  0  0  0
    0.8907    1.8514    1.0298 H   0  0  0  0  0  0  0  0  0  0  0  0
    0.6841    3.3302   -0.9134 H   0  0  0  0  0  0  0  0  0  0  0  0
    2.1107    2.3295   -1.0411 H   0  0  0  0  0  0  0  0  0  0  0  0
    0.8907    2.3867   -3.1657 H   0  0  0  0  0  0  0  0  0  0  0  0
    0.8907    0.7751   -2.4906 H   0  0  0  0  0  0  0  0  0  0  0  0
   -1.3426    1.3860   -3.2933 H   0  0  0  0  0  0  0  0  0  0  0  0
   -1.3426    1.1649   -1.5601 H   0  0  0  0  0  0  0  0  0  0  0  0
   -2.5626    3.1973   -2.1815 H   0  0  0  0  0  0  0  0  0  0  0  0
   -1.1359    3.5871   -1.2510 H   0  0  0  0  0  0  0  0  0  0  0  0
   -1.3426    5.0659   -3.1942 H   0  0  0  0  0  0  0  0  0  0  0  0
    0.0841    4.0652   -3.3219 H   0  0  0  0  0  0  0  0  0  0  0  0
   -1.1359    4.1224   -5.4465 H   0  0  0  0  0  0  0  0  0  0  0  0
   -1.1359    2.5108   -4.7714 H   0  0  0  0  0  0  0  0  0  0  0  0
   -3.3693    3.1217   -5.5741 H   0  0  0  0  0  0  0  0  0  0  0  0
   -3.3693    2.9006   -3.8409 H   0  0  0  0  0  0  0  0  0  0  0  0
   -4.5893    4.9330   -4.4623 H   0  0  0  0  0  0  0  0  0  0  0  0
   -3.1626    5.3228   -3.5318 H   0  0  0  0  0  0  0  0  0  0  0  0
   -1.3426   -5.3892   -1.1452 H   0  0  0  0  0  0  0  0  0  0  0  0
   -1.3426   -5.1680   -2.8785 H   0  0  0  0  0  0  0  0  0  0  0  0
    0.0841   -4.7783   -1.9480 H   0  0  0  0  0  0  0  0  0  0  0  0
   -3.3693    6.8016   -5.4750 H   0  0  0  0  0  0  0  0  0  0  0  0
   -1.9426    5.8009   -5.6027 H   0  0  0  0  0  0  0  0  0  0  0  0
    0.7032   -0.6306   -0.7521 H   0  0  0  0  0  0  0  0  0  0  0  0
    2.1299   -0.0427    0.0677 H   0  0  0  0  0  0  0  0  0  0  0  0
   -0.5168    1.3834   -0.0732 H   0  0  0  0  0  0  0  0  0  0  0  0
    0.9099    1.9713    0.7466 H   0  0  0  0  0  0  0  0  0  0  0  0
    0.7032    2.9783   -1.4779 H   0  0  0  0  0  0  0  0  0  0  0  0
    2.1299    1.9744   -1.3787 H   0  0  0  0  0  0  0  0  0  0  0  0
    0.9099    1.5554   -3.4623 H   0  0  0  0  0  0  0  0  0  0  0  0
    0.9099    0.1354   -2.4441 H   0  0  0  0  0  0  0  0  0  0  0  0
   -1.3235    0.5514   -3.3631 H   0  0  0  0  0  0  0  0  0  0  0  0
   -1.3235    0.7233   -1.6243 H   0  0  0  0  0  0  0  0  0  0  0  0
   -2.5435    2.5654   -2.6842 H   0  0  0  0  0  0  0  0  0  0  0  0
   -1.1168    3.1533   -1.8644 H   0  0  0  0  0  0  0  0  0  0  0  0
   -0.5168   -0.6337    1.3733 H   0  0  0  0  0  0  0  0  0  0  0  0
    0.9099   -1.6376    1.4725 H   0  0  0  0  0  0  0  0  0  0  0  0
    0.7032   -0.2147    3.4569 H   0  0  0  0  0  0  0  0  0  0  0  0
    2.1299    0.2014    2.5379 H   0  0  0  0  0  0  0  0  0  0  0  0
    0.9099    2.2154    3.2167 H   0  0  0  0  0  0  0  0  0  0  0  0
    0.9099    2.0435    1.4779 H   0  0  0  0  0  0  0  0  0  0  0  0
   -1.3235    2.6314    2.2977 H   0  0  0  0  0  0  0  0  0  0  0  0
   -1.3235    1.0396    1.5771 H   0  0  0  0  0  0  0  0  0  0  0  0
   -2.5435    1.0365    3.7025 H   0  0  0  0  0  0  0  0  0  0  0  0
   -1.1168    0.0326    3.8017 H   0  0  0  0  0  0  0  0  0  0  0  0
   -1.3235    1.4556    5.7861 H   0  0  0  0  0  0  0  0  0  0  0  0
    0.1032    1.8716    4.8671 H   0  0  0  0  0  0  0  0  0  0  0  0
   -1.1168    3.8856    5.5459 H   0  0  0  0  0  0  0  0  0  0  0  0
   -1.1168    3.7138    3.8071 H   0  0  0  0  0  0  0  0  0  0  0  0
   -3.3501    4.3016    4.6269 H   0  0  0  0  0  0  0  0  0  0  0  0
   -3.3501    2.7099    3.9063 H   0  0  0  0  0  0  0  0  0  0  0  0
   -4.5701    2.7067    6.0316 H   0  0  0  0  0  0  0  0  0  0  0  0
   -3.1435    1.7028    6.1309 H   0  0  0  0  0  0  0  0  0  0  0  0
   -1.3235    2.5686   -4.8096 H   0  0  0  0  0  0  0  0  0  0  0  0
   -1.3235    4.1604   -4.0890 H   0  0  0  0  0  0  0  0  0  0  0  0
    0.1032    3.1565   -3.9898 H   0  0  0  0  0  0  0  0  0  0  0  0
   -3.3502    3.1258    8.1153 H   0  0  0  0  0  0  0  0  0  0  0  0
   -1.9235    3.5418    7.1962 H   0  0  0  0  0  0  0  0  0  0  0  0
    0.7224    0.6107   -0.7452 H   0  0  0  0  0  0  0  0  0  0  0  0
    2.1491   -0.0607    0.0076 H   0  0  0  0  0  0  0  0  0  0  0  0
   -0.4976    0.3885    1.3685 H   0  0  0  0  0  0  0  0  0  0  0  0
    0.9291   -0.2829    2.1213 H   0  0  0  0  0  0  0  0  0  0  0  0
    0.7224    2.1080    2.6177 H   0  0  0  0  0  0  0  0  0  0  0  0
    2.1491    1.7917    1.6598 H   0  0  0  0  0  0  0  0  0  0  0  0
    0.9291    3.7333    0.7954 H   0  0  0  0  0  0  0  0  0  0  0  0
    0.9291    2.4293   -0.3677 H   0  0  0  0  0  0  0  0  0  0  0  0
   -1.3043    3.4170   -0.1626 H   0  0  0  0  0  0  0  0  0  0  0  0
   -1.3043    1.7578    0.3852 H   0  0  0  0  0  0  0  0  0  0  0  0
   -2.5243    3.1949    1.9511 H   0  0  0  0  0  0  0  0  0  0  0  0
   -1.0976    2.5234    2.7040 H   0  0  0  0  0  0  0  0  0  0  0  0
   -0.4976   -1.4639   -0.2837 H   0  0  0  0  0  0  0  0  0  0  0  0
    0.9291   -1.7801   -1.2416 H   0  0  0  0  0  0  0  0  0  0  0  0
    0.7224   -3.4055    0.5807 H   0  0  0  0  0  0  0  0  0  0  0  0
    2.1491   -2.4177    0.7858 H   0  0  0  0  0  0  0  0  0  0  0  0
    0.9291   -2.6399    2.8995 H   0  0  0  0  0  0  0  0  0  0  0  0
    0.9291   -0.9807    2.3517 H   0  0  0  0  0  0  0  0  0  0  0  0
   -1.3043   -1.6522    3.1046 H   0  0  0  0  0  0  0  0  0  0  0  0
   -1.3043   -1.2970    1.3938 H   0  0  0  0  0  0  0  0  0  0  0  0
   -2.5243   -3.3716    1.8553 H   0  0  0  0  0  0  0  0  0  0  0  0
   -1.0976   -3.6879    0.8974 H   0  0  0  0  0  0  0  0  0  0  0  0
   -1.3043   -5.3132    2.7197 H   0  0  0  0  0  0  0  0  0  0  0  0
    0.1224   -4.3255    2.9248 H   0  0  0  0  0  0  0  0  0  0  0  0
   -1.0976   -4.5477    5.0385 H   0  0  0  0  0  0  0  0  0  0  0  0
   -1.0976   -2.8885    4.4907 H   0  0  0  0  0  0  0  0  0  0  0  0
   -3.3310   -3.5599    5.2436 H   0  0  0  0  0  0  0  0  0  0  0  0
   -3.3309   -3.2047    3.5328 H   0  0  0  0  0  0  0  0  0  0  0  0
   -4.5510   -5.2794    3.9943 H   0  0  0  0  0  0  0  0  0  0  0  0
   -3.1243   -5.5956    3.0364 H   0  0  0  0  0  0  0  0  0  0  0  0
   -1.3043    5.2695    1.4896 H   0  0  0  0  0  0  0  0  0  0  0  0
   -1.3043    4.9143    3.2004 H   0  0  0  0  0  0  0  0  0  0  0  0
    0.1224    4.5980    2.2424 H   0  0  0  0  0  0  0  0  0  0  0  0
   -3.3310   -7.2210    4.8587 H   0  0  0  0  0  0  0  0  0  0  0  0
   -1.9043   -6.2332    5.0638 H   0  0  0  0  0  0  0  0  0  0  0  0
  1  2  1  0  0  0  0
  1 62  1  0  0  0  0
  1 63  1  0  0  0  0
  2  3  1  0  0  0  0
  2 64  1  0  0  0  0
  2 65  1  0  0  0  0
  3  4  1  0  0  0  0
  3 66  1  0  0  0  0
  3 67  1  0  0  0  0
  4  5  1  0  0  0  0
  4 68  1  0  0  0  0
  4 69  1  0  0  0  0
  5  6  1  0  0  0  0
  5 70  1  0  0  0  0
  5 71  1  0  0  0  0
  6 19  1  0  0  0  0
  6 72  1  0  0  0  0
  6 73  1  0  0  0  0
  7  1  1  0  0  0  0
  7  8  1  0  0  0  0
  7 74  1  0  0  0  0
  7 75  1  0  0  0  0
  8  9  1  0  0  0  0
  8 76  1  0  0  0  0
  8 77  1  0  0  0  0
  9 10  1  0  0  0  0
  9 78  1  0  0  0  0
  9 79  1  0  0  0  0
 10 11  1  0  0  0  0
 10 80  1  0  0  0  0
 10 81  1  0  0  0  0
 11 12  1  0  0  0  0
 11 82  1  0  0  0  0
 11 83  1  0  0  0  0
 12 13  1  0  0  0  0
 12 84  1  0  0  0  0
 12 85  1  0  0  0  0
 13 14  1  0  0  0  0
 13 86  1  0  0  0  0
 13 87  1  0  0  0  0
 14 15  1  0  0  0  0
 14 88  1  0  0  0  0
 14 89  1  0  0  0  0
 15 20  1  0  0  0  0
 15 90  1  0  0  0  0
 15 91  1  0  0  0  0
 17 16  2  0  0  0  0
 17 18  1  0  0  0  0
 19 92  1  0  0  0  0
 19 93  1  0  0  0  0
 19 94  1  0  0  0  0
 20 17  1  0  0  0  0
 20 95  1  0  0  0  0
 20 96  1  0  0  0  0
 21 22  1  0  0  0  0
 21 97  1  0  0  0  0
 21 98  1  0  0  0  0
 22 23  1  0  0  0  0
 22 99  1  0  0  0  0
 22100  1  0  0  0  0
 23 24  1  0  0  0  0
 23101  1  0  0  0  0
 23102  1  0  0  0  0
 24 25  1  0  0  0  0
 24103  1  0  0  0  0
 24104  1  0  0  0  0
 25 26  1  0  0  0  0
 25105  1  0  0  0  0
 25106  1  0  0  0  0
 26 39  1  0  0  0  0
 26107  1  0  0  0  0
 26108  1  0  0  0  0
 27 21  1  0  0  0  0
 27 28  1  0  0  0  0
 27109  1  0  0  0  0
 27110  1  0  0  0  0
 28 29  1  0  0  0  0
 28111  1  0  0  0  0
 28112  1  0  0  0  0
 29 30  1  0  0  0  0
 29113  1  0  0  0  0
 29114  1  0  0  0  0
 30 31  1  0  0  0  0
 30115  1  0  0  0  0
 30116  1  0  0  0  0
 31 32  1  0  0  0  0
 31117  1  0  0  0  0
 31118  1  0  0  0  0
 32 33  1  0  0  0  0
 32119  1  0  0  0  0
 32120  1  0  0  0  0
 33 34  1  0  0  0  0
 33121  1  0  0  0  0
 33122  1  0  0  0  0
 34 35  1  0  0  0  0
 34123  1  0  0  0  0
 34124  1  0  0  0  0
 35 40  1  0  0  0  0
 35125  1  0  0  0  0
 35126  1  0  0  0  0
 37 36  2  0  0  0  0
 37 38  1  0  0  0  0
 39127  1  0  0  0  0
 39128  1  0  0  0  0
 39129  1  0  0  0  0
 40 37  1  0  0  0  0
 40130  1  0  0  0  0
 40131  1  0  0  0  0
 41 42  1  0  0  0  0
 41132  1  0  0  0  0
 41133  1  0  0  0  0
 42 43  1  0  0  0  0
 42134  1  0  0  0  0
 42135  1  0  0  0  0
 43 44  1  0  0  0  0
 43136  1  0  0  0  0
 43137  1  0  0  0  0
 44 45  1  0  0  0  0
 44138  1  0  0  0  0
 44139  1  0  0  0  0
 45 46  1  0  0  0  0
 45140  1  0  0  0  0
 45141  1  0  0  0  0
 46 59  1  0  0  0  0
 46142  1  0  0  0  0
 46143  1  0  0  0  0
 47 41  1  0  0  0  0
 47 48  1  0  0  0  0
 47144  1  0  0  0  0
 47145  1  0  0  0  0
 48 49  1  0  0  0  0
 48146  1  0  0  0  0
 48147  1  0  0  0  0
 49 50  1  0  0  0  0
 49148  1  0  0  0  0
 49149  1  0  0  0  0
 50 51  1  0  0  0  0
 50150  1  0  0  0  0
 50151  1  0  0  0  0
 51 52  1  0  0  0  0
 51152  1  0  0  0  0
 51153  1  0  0  0  0
 52 53  1  0  0  0  0
 52154  1  0  0  0  0
 52155  1  0  0  0  0
 53 54  1  0  0  0  0
 53156  1  0  0  0  0
 53157  1  0  0  0  0
 54 55  1  0  0  0  0
 54158  1  0  0  0  0
 54159  1  0  0  0  0
 55 60  1  0  0  0  0
 55160  1  0  0  0  0
 55161  1  0  0  0  0
 57 56  2  0  0  0  0
 57 58  1  0  0  0  0
 59162  1  0  0  0  0
 59163  1  0  0  0  0
 59164  1  0  0  0  0
 60 57  1  0  0  0  0
 60165  1  0  0  0  0
 60166  1  0  0  0  0
M  CHG  4  18  -1  38  -1  58  -1  61   3
M  END
>  <DRUGBANK_ID>
DB11290

>  <COMMON_NAME>
Aluminium tristearate

>  <CAS_NUMBER>
637-12-7

>  <UNII>
U6XF9NP8HM

>  <SYNONYMS>
Aluminium stearate; Aluminum stearate; Aluminum(III) stearate

$$$$
