
 OpenBabel10282417173D

 53 55  0  0  0  0  0  0  0  0999 V2000
    1.0775   -0.2905    0.3525 N   0  0  0  0  0  0  0  0  0  0  0  0
    0.2831   -1.4221    0.0547 C   0  0  0  0  0  0  0  0  0  0  0  0
    0.5110    4.1298   -0.4809 N   0  0  0  0  0  0  0  0  0  0  0  0
    0.3546    1.0996    0.0006 C   0  0  0  0  0  0  0  0  0  0  0  0
    0.6265    1.6666   -1.4082 C   0  0  0  0  0  0  0  0  0  0  0  0
   -0.4248    2.1841    0.8257 C   0  0  0  0  0  0  0  0  0  0  0  0
   -0.9680   -1.3639   -0.1104 O   0  0  0  0  0  0  0  0  0  0  0  0
    2.5580   -0.4453    0.5956 C   0  0  0  0  0  0  0  0  0  0  0  0
    0.1705    3.5899    0.8379 C   0  0  0  0  0  0  0  0  0  0  0  0
    1.0472    3.1448   -1.4225 C   0  0  0  0  0  0  0  0  0  0  0  0
    1.3619    5.3750   -0.3602 C   0  0  0  0  0  0  0  0  0  0  0  0
    2.6744    5.4190    0.5346 C   0  0  0  0  0  0  0  0  0  0  0  0
    3.8342    4.6214   -0.0215 C   0  0  0  0  0  0  0  0  0  0  0  0
    0.8969   -2.7715   -0.1022 C   0  0  0  0  0  0  0  0  0  0  0  0
    3.2697    0.6297    1.0220 C   0  0  0  0  0  0  0  0  0  0  0  0
    3.4219   -1.5495    0.4504 C   0  0  0  0  0  0  0  0  0  0  0  0
    5.0145    4.9967   -0.6119 C   0  0  0  0  0  0  0  0  0  0  0  0
    3.6462    3.2835   -0.0212 C   0  0  0  0  0  0  0  0  0  0  0  0
    4.6994    0.7171    1.0808 C   0  0  0  0  0  0  0  0  0  0  0  0
    4.8252   -1.4694    0.2899 C   0  0  0  0  0  0  0  0  0  0  0  0
    5.8795    4.0213   -1.1858 C   0  0  0  0  0  0  0  0  0  0  0  0
    4.2108    2.4297   -0.9878 C   0  0  0  0  0  0  0  0  0  0  0  0
    5.4600   -0.2955    0.5553 C   0  0  0  0  0  0  0  0  0  0  0  0
    5.4506    2.7311   -1.4391 C   0  0  0  0  0  0  0  0  0  0  0  0
    1.6973   -2.8903   -1.4102 C   0  0  0  0  0  0  0  0  0  0  0  0
    6.7471   -0.1166    0.2326 F   0  0  0  0  0  0  0  0  0  0  0  0
   -0.6032    0.6189   -0.1618 H   0  0  0  0  0  0  0  0  0  0  0  0
    1.4205    1.0746   -1.8771 H   0  0  0  0  0  0  0  0  0  0  0  0
   -0.2681    1.5626   -2.0295 H   0  0  0  0  0  0  0  0  0  0  0  0
   -1.3822    2.3396    0.2777 H   0  0  0  0  0  0  0  0  0  0  0  0
   -0.7268    1.8752    1.8274 H   0  0  0  0  0  0  0  0  0  0  0  0
   -0.5546    4.2870    1.2861 H   0  0  0  0  0  0  0  0  0  0  0  0
    1.0151    3.5481    1.5194 H   0  0  0  0  0  0  0  0  0  0  0  0
    2.0365    3.0113   -1.1396 H   0  0  0  0  0  0  0  0  0  0  0  0
    1.2000    3.5421   -2.4344 H   0  0  0  0  0  0  0  0  0  0  0  0
    1.6272    5.7282   -1.3650 H   0  0  0  0  0  0  0  0  0  0  0  0
    0.6920    6.1472    0.0462 H   0  0  0  0  0  0  0  0  0  0  0  0
    2.9924    6.4523    0.6814 H   0  0  0  0  0  0  0  0  0  0  0  0
    2.4148    5.0652    1.5464 H   0  0  0  0  0  0  0  0  0  0  0  0
    1.4238   -2.9774    0.8362 H   0  0  0  0  0  0  0  0  0  0  0  0
    0.1176   -3.5363   -0.1030 H   0  0  0  0  0  0  0  0  0  0  0  0
    2.6299    1.4692    1.1285 H   0  0  0  0  0  0  0  0  0  0  0  0
    3.1289   -2.5744    0.3450 H   0  0  0  0  0  0  0  0  0  0  0  0
    5.2960    6.0361   -0.6129 H   0  0  0  0  0  0  0  0  0  0  0  0
    2.8166    3.0317    0.6145 H   0  0  0  0  0  0  0  0  0  0  0  0
    5.2026    1.6650    1.2708 H   0  0  0  0  0  0  0  0  0  0  0  0
    5.3854   -2.3257   -0.0696 H   0  0  0  0  0  0  0  0  0  0  0  0
    6.8895    4.2734   -1.4707 H   0  0  0  0  0  0  0  0  0  0  0  0
    3.7775    1.4601   -1.2399 H   0  0  0  0  0  0  0  0  0  0  0  0
    6.0461    1.9450   -1.8950 H   0  0  0  0  0  0  0  0  0  0  0  0
    2.3568   -2.0407   -1.6334 H   0  0  0  0  0  0  0  0  0  0  0  0
    2.3255   -3.7876   -1.3816 H   0  0  0  0  0  0  0  0  0  0  0  0
    1.0356   -2.9378   -2.2739 H   0  0  0  0  0  0  0  0  0  0  0  0
  2  1  1  0  0  0  0
  4  1  1  0  0  0  0
  4 27  1  0  0  0  0
  5  4  1  0  0  0  0
  5 28  1  0  0  0  0
  5 29  1  0  0  0  0
  6  4  1  0  0  0  0
  6 30  1  0  0  0  0
  6 31  1  0  0  0  0
  7  2  2  0  0  0  0
  8  1  1  0  0  0  0
  9  3  1  0  0  0  0
  9  6  1  0  0  0  0
  9 32  1  0  0  0  0
  9 33  1  0  0  0  0
 10  3  1  0  0  0  0
 10  5  1  0  0  0  0
 10 34  1  0  0  0  0
 10 35  1  0  0  0  0
 11  3  1  0  0  0  0
 11 36  1  0  0  0  0
 11 37  1  0  0  0  0
 12 11  1  0  0  0  0
 12 38  1  0  0  0  0
 12 39  1  0  0  0  0
 13 12  1  0  0  0  0
 14  2  1  0  0  0  0
 14 25  1  0  0  0  0
 14 40  1  0  0  0  0
 14 41  1  0  0  0  0
 15  8  1  0  0  0  0
 15 42  1  0  0  0  0
 16  8  2  0  0  0  0
 16 43  1  0  0  0  0
 17 13  1  0  0  0  0
 17 44  1  0  0  0  0
 18 13  2  0  0  0  0
 18 45  1  0  0  0  0
 19 15  2  0  0  0  0
 19 46  1  0  0  0  0
 20 16  1  0  0  0  0
 20 47  1  0  0  0  0
 21 17  2  0  0  0  0
 21 48  1  0  0  0  0
 22 18  1  0  0  0  0
 22 49  1  0  0  0  0
 23 19  1  0  0  0  0
 23 20  2  0  0  0  0
 23 26  1  0  0  0  0
 24 21  1  0  0  0  0
 24 22  2  0  0  0  0
 24 50  1  0  0  0  0
 25 51  1  0  0  0  0
 25 52  1  0  0  0  0
 25 53  1  0  0  0  0
M  END
>  <DRUGBANK_ID>
DB09177

>  <COMMON_NAME>
p-Fluorofentanyl

>  <CAS_NUMBER>
90736-23-5

>  <UNII>
I45R05QM0Z

>  <SYNONYMS>
4-Fluorofentanyl; Parafluorofentanyl

$$$$
