BPI
 OpenBabel10282417163D

 37 40  0  0  0  0  0  0  0  0999 V2000
    1.3877   -1.7417   -0.1885 C   0  0  0  0  0  0  0  0  0  0  0  0
    2.7294   -2.2057   -0.7228 C   0  0  1  0  0  0  0  0  0  0  0  0
    2.9086   -1.8017   -2.0815 O   0  0  0  0  0  0  0  0  0  0  0  0
    3.8039   -1.6700    0.2197 C   0  0  1  0  0  0  0  0  0  0  0  0
    5.0750   -2.2390   -0.1004 O   0  0  0  0  0  0  0  0  0  0  0  0
    3.8459   -0.1334    0.1441 C   0  0  2  0  0  0  0  0  0  0  0  0
    4.5719    0.3771    1.2667 O   0  0  0  0  0  0  0  0  0  0  0  0
    2.3960    1.9055    0.1824 C   0  0  0  0  0  0  0  0  0  0  0  0
    1.1690    2.5476    0.1194 C   0  0  0  0  0  0  0  0  0  0  0  0
   -1.2145    2.5277   -0.1013 C   0  0  0  0  0  0  0  0  0  0  0  0
   -2.4268    1.8630   -0.2354 C   0  0  0  0  0  0  0  0  0  0  0  0
   -3.7349   -0.1740   -0.2230 C   0  0  0  0  0  0  0  0  0  0  0  0
   -3.8600   -1.5450   -0.0052 C   0  0  0  0  0  0  0  0  0  0  0  0
   -2.7483   -2.2778    0.3469 C   0  0  0  0  0  0  0  0  0  0  0  0
   -1.5128   -1.6430    0.4173 C   0  0  0  0  0  0  0  0  0  0  0  0
    1.2735   -0.2407    0.0271 C   0  0  0  0  0  0  0  0  0  0  0  0
    2.4696    0.5118    0.1331 C   0  0  0  0  0  0  0  0  0  0  0  0
   -0.0216    1.8194    0.0343 C   0  0  0  0  0  0  0  0  0  0  0  0
   -0.0184    0.3958    0.0683 C   0  0  0  0  0  0  0  0  0  0  0  0
   -1.3108   -0.2697    0.1103 C   0  0  0  0  0  0  0  0  0  0  0  0
   -2.4887    0.4718   -0.1262 C   0  0  0  0  0  0  0  0  0  0  0  0
    2.7504   -3.3012   -0.7370 H   0  0  0  0  0  0  0  0  0  0  0  0
    3.5803   -1.9803    1.2497 H   0  0  0  0  0  0  0  0  0  0  0  0
    4.3868    0.1717   -0.7602 H   0  0  0  0  0  0  0  0  0  0  0  0
    0.6345   -2.0744   -0.9103 H   0  0  0  0  0  0  0  0  0  0  0  0
    1.2450   -2.2259    0.7850 H   0  0  0  0  0  0  0  0  0  0  0  0
    2.7597   -0.8408   -2.1488 H   0  0  0  0  0  0  0  0  0  0  0  0
    4.9525   -3.2015   -0.1712 H   0  0  0  0  0  0  0  0  0  0  0  0
    4.0329    0.1986    2.0554 H   0  0  0  0  0  0  0  0  0  0  0  0
    3.3073    2.4983    0.2467 H   0  0  0  0  0  0  0  0  0  0  0  0
    1.1537    3.6369    0.1389 H   0  0  0  0  0  0  0  0  0  0  0  0
   -1.2132    3.6169   -0.1355 H   0  0  0  0  0  0  0  0  0  0  0  0
   -3.3303    2.4492   -0.3797 H   0  0  0  0  0  0  0  0  0  0  0  0
   -4.6294    0.3951   -0.4598 H   0  0  0  0  0  0  0  0  0  0  0  0
   -4.8276   -2.0301   -0.0732 H   0  0  0  0  0  0  0  0  0  0  0  0
   -2.8174   -3.3374    0.5778 H   0  0  0  0  0  0  0  0  0  0  0  0
   -0.7111   -2.2705    0.7732 H   0  0  0  0  0  0  0  0  0  0  0  0
  1  2  1  0  0  0  0
  1 16  1  0  0  0  0
  1 25  1  0  0  0  0
  1 26  1  0  0  0  0
  2  3  1  0  0  0  0
  2  4  1  0  0  0  0
  2 22  1  1  0  0  0
  3 27  1  0  0  0  0
  4  6  1  0  0  0  0
  4 23  1  1  0  0  0
  4  5  1  0  0  0  0
  5 28  1  0  0  0  0
  6  7  1  0  0  0  0
  6 17  1  0  0  0  0
  6 24  1  6  0  0  0
  7 29  1  0  0  0  0
  8  9  2  0  0  0  0
  8 17  1  0  0  0  0
  8 30  1  0  0  0  0
  9 18  1  0  0  0  0
  9 31  1  0  0  0  0
 10 11  2  0  0  0  0
 10 18  1  0  0  0  0
 10 32  1  0  0  0  0
 11 21  1  0  0  0  0
 11 33  1  0  0  0  0
 12 13  2  0  0  0  0
 12 21  1  0  0  0  0
 12 34  1  0  0  0  0
 13 14  1  0  0  0  0
 13 35  1  0  0  0  0
 14 15  2  0  0  0  0
 14 36  1  0  0  0  0
 15 20  1  0  0  0  0
 15 37  1  0  0  0  0
 16 17  2  0  0  0  0
 16 19  1  0  0  0  0
 18 19  2  0  0  0  0
 19 20  1  0  0  0  0
 20 21  2  0  0  0  0
M  END
>  <DRUGBANK_ID>
DB07479

>  <COMMON_NAME>
(1S)-1,2,3,4-TETRAHYDRO-BENZO[C]PHENANTHRENE-2,3,4-TRIOL

$$$$
