
 OpenBabel10282417193D

 33 33  0  0  0  0  0  0  0  0999 V2000
   -0.0696   -0.6385    0.0044 C   0  0  0  0  0  0  0  0  0  0  0  0
   -1.2248   -1.3855    0.0400 C   0  0  0  0  0  0  0  0  0  0  0  0
   -2.4596   -0.7390    0.0376 C   0  0  0  0  0  0  0  0  0  0  0  0
   -2.6391    0.6595   -0.0224 C   0  0  0  0  0  0  0  0  0  0  0  0
   -1.4453    1.4029   -0.0451 C   0  0  0  0  0  0  0  0  0  0  0  0
   -0.1755    0.7572   -0.0242 C   0  0  0  0  0  0  0  0  0  0  0  0
    1.2481    1.7438   -0.0218 Cl  0  0  0  0  0  0  0  0  0  0  0  0
    1.4238   -1.5037    0.0003 Cl  0  0  0  0  0  0  0  0  0  0  0  0
   -3.9435    1.2777   -0.0474 N   0  0  0  0  0  0  0  0  0  0  0  0
   -5.1485    0.5786   -0.0363 C   0  0  0  0  0  0  0  0  0  0  0  0
   -6.3993    1.2083   -0.0740 N   0  0  0  0  0  0  0  0  0  0  0  0
   -5.1303   -0.7183    0.0156 N   0  0  0  0  0  0  0  0  0  0  0  0
   -7.6307    0.5396   -0.0545 C   0  0  0  0  0  0  0  0  0  0  0  0
   -8.8120    1.2340   -0.0966 N   0  0  0  0  0  0  0  0  0  0  0  0
   -7.6098   -0.7544    0.0050 N   0  0  0  0  0  0  0  0  0  0  0  0
  -10.1478    0.6014   -0.0774 C   0  0  0  0  0  0  0  0  0  0  0  0
  -10.9453    1.0102    1.1539 C   0  0  0  0  0  0  0  0  0  0  0  0
  -10.9265    0.8940   -1.3531 C   0  0  0  0  0  0  0  0  0  0  0  0
   -1.2136   -2.4723    0.0733 H   0  0  0  0  0  0  0  0  0  0  0  0
   -3.2817   -1.4376    0.0870 H   0  0  0  0  0  0  0  0  0  0  0  0
   -1.4628    2.4887   -0.0767 H   0  0  0  0  0  0  0  0  0  0  0  0
   -3.9363    2.2840   -0.1114 H   0  0  0  0  0  0  0  0  0  0  0  0
   -6.4154    2.2113   -0.1216 H   0  0  0  0  0  0  0  0  0  0  0  0
   -6.1147   -1.0412    0.0212 H   0  0  0  0  0  0  0  0  0  0  0  0
   -8.8091    2.2431   -0.1431 H   0  0  0  0  0  0  0  0  0  0  0  0
   -8.5204   -1.1916    0.0173 H   0  0  0  0  0  0  0  0  0  0  0  0
  -10.0892   -0.4869   -0.0266 H   0  0  0  0  0  0  0  0  0  0  0  0
  -11.1862    2.0762    1.1452 H   0  0  0  0  0  0  0  0  0  0  0  0
  -11.8899    0.4512    1.1893 H   0  0  0  0  0  0  0  0  0  0  0  0
  -10.3965    0.7823    2.0731 H   0  0  0  0  0  0  0  0  0  0  0  0
  -10.3641    0.5825   -2.2390 H   0  0  0  0  0  0  0  0  0  0  0  0
  -11.8708    0.3335   -1.3509 H   0  0  0  0  0  0  0  0  0  0  0  0
  -11.1667    1.9561   -1.4466 H   0  0  0  0  0  0  0  0  0  0  0  0
  1  2  2  0  0  0  0
  1  8  1  0  0  0  0
  2  3  1  0  0  0  0
  2 19  1  0  0  0  0
  3  4  2  0  0  0  0
  3 20  1  0  0  0  0
  4  9  1  0  0  0  0
  4  5  1  0  0  0  0
  5  6  2  0  0  0  0
  5 21  1  0  0  0  0
  6  1  1  0  0  0  0
  6  7  1  0  0  0  0
  9 10  1  0  0  0  0
  9 22  1  0  0  0  0
 10 11  1  0  0  0  0
 10 12  2  0  0  0  0
 11 13  1  0  0  0  0
 11 23  1  0  0  0  0
 12 24  1  0  0  0  0
 13 14  1  0  0  0  0
 13 15  2  0  0  0  0
 14 16  1  0  0  0  0
 14 25  1  0  0  0  0
 15 26  1  0  0  0  0
 16 17  1  0  0  0  0
 16 18  1  0  0  0  0
 16 27  1  0  0  0  0
 17 28  1  0  0  0  0
 17 29  1  0  0  0  0
 17 30  1  0  0  0  0
 18 31  1  0  0  0  0
 18 32  1  0  0  0  0
 18 33  1  0  0  0  0
M  END
>  <DRUGBANK_ID>
DB12314

>  <COMMON_NAME>
Chlorproguanil

>  <CAS_NUMBER>
537-21-3

>  <UNII>
8O3249M729

>  <SYNONYMS>
Chlorproguanil; Chlorproguanilum; Clorproguanil

$$$$
