
 OpenBabel10282417133D

 30 29  0  0  0  0  0  0  0  0999 V2000
    0.9591    0.0815   -0.0527 C   0  0  0  0  0  0  0  0  0  0  0  0
    0.5328   -1.3588   -0.2884 C   0  0  0  0  0  0  0  0  0  0  0  0
    1.0194   -2.2688    0.8413 C   0  0  0  0  0  0  0  0  0  0  0  0
    0.4483   -1.8608    2.2045 C   0  0  0  0  0  0  0  0  0  0  0  0
   -1.0843   -1.8996    2.2174 C   0  0  0  0  0  0  0  0  0  0  0  0
   -1.6132   -3.3123    1.9474 C   0  0  0  0  0  0  0  0  0  0  0  0
   -1.1525   -4.3035    3.0221 C   0  0  0  0  0  0  0  0  0  0  0  0
   -1.6557   -3.9133    4.4175 C   0  0  0  0  0  0  0  0  0  0  0  0
   -3.1782   -3.8538    4.4851 C   0  0  0  0  0  0  0  0  0  0  0  0
   -3.7370   -5.1264    4.2050 O   0  0  0  0  0  0  0  0  0  0  0  0
    0.5425    0.4849    0.8757 H   0  0  0  0  0  0  0  0  0  0  0  0
    0.6122    0.7243   -0.8637 H   0  0  0  0  0  0  0  0  0  0  0  0
    2.0495    0.1442    0.0105 H   0  0  0  0  0  0  0  0  0  0  0  0
   -0.5575   -1.4087   -0.3907 H   0  0  0  0  0  0  0  0  0  0  0  0
    0.9360   -1.7149   -1.2415 H   0  0  0  0  0  0  0  0  0  0  0  0
    0.7531   -3.3070    0.6091 H   0  0  0  0  0  0  0  0  0  0  0  0
    2.1136   -2.2539    0.8878 H   0  0  0  0  0  0  0  0  0  0  0  0
    0.8631   -2.5127    2.9805 H   0  0  0  0  0  0  0  0  0  0  0  0
    0.7900   -0.8603    2.4866 H   0  0  0  0  0  0  0  0  0  0  0  0
   -1.4495   -1.5191    3.1770 H   0  0  0  0  0  0  0  0  0  0  0  0
   -1.5029   -1.2070    1.4800 H   0  0  0  0  0  0  0  0  0  0  0  0
   -2.7054   -3.2861    1.8800 H   0  0  0  0  0  0  0  0  0  0  0  0
   -1.2928   -3.6691    0.9629 H   0  0  0  0  0  0  0  0  0  0  0  0
   -1.4876   -5.3111    2.7572 H   0  0  0  0  0  0  0  0  0  0  0  0
   -0.0591   -4.3751    3.0404 H   0  0  0  0  0  0  0  0  0  0  0  0
   -1.2799   -4.6464    5.1385 H   0  0  0  0  0  0  0  0  0  0  0  0
   -1.2382   -2.9463    4.7213 H   0  0  0  0  0  0  0  0  0  0  0  0
   -3.5010   -3.5534    5.4860 H   0  0  0  0  0  0  0  0  0  0  0  0
   -3.5974   -3.1224    3.7866 H   0  0  0  0  0  0  0  0  0  0  0  0
   -3.4645   -5.3793    3.2977 H   0  0  0  0  0  0  0  0  0  0  0  0
  1  2  1  0  0  0  0
  1 11  1  0  0  0  0
  1 12  1  0  0  0  0
  1 13  1  0  0  0  0
  2  3  1  0  0  0  0
  2 14  1  0  0  0  0
  2 15  1  0  0  0  0
  3  4  1  0  0  0  0
  3 16  1  0  0  0  0
  3 17  1  0  0  0  0
  4  5  1  0  0  0  0
  4 18  1  0  0  0  0
  4 19  1  0  0  0  0
  5  6  1  0  0  0  0
  5 20  1  0  0  0  0
  5 21  1  0  0  0  0
  6  7  1  0  0  0  0
  6 22  1  0  0  0  0
  6 23  1  0  0  0  0
  7  8  1  0  0  0  0
  7 24  1  0  0  0  0
  7 25  1  0  0  0  0
  8  9  1  0  0  0  0
  8 26  1  0  0  0  0
  8 27  1  0  0  0  0
  9 10  1  0  0  0  0
  9 28  1  0  0  0  0
  9 29  1  0  0  0  0
 10 30  1  0  0  0  0
M  END
>  <DRUGBANK_ID>
DB03143

>  <SECONDARY_ACCESSION_NUMBERS>
EXPT01376

>  <COMMON_NAME>
Nonan-1-Ol

>  <CAS_NUMBER>
28473-21-4

>  <UNII>
NGK73Q6XMC

$$$$
