
 OpenBabel10282417113D

 78 77  0  0  0  0  0  0  0  0999 V2000
   -0.9198   -0.9384    0.4035 C   0  0  2  0  0  0  0  0  0  0  0  0
    1.1205   -1.2040    0.6729 C   0  0  2  0  0  0  0  0  0  0  0  0
   -1.6175    0.6386    0.5918 C   0  0  2  0  0  0  0  0  0  0  0  0
   -1.7595   -2.0889    0.8334 C   0  0  0  0  0  0  0  0  0  0  0  0
    1.6730    0.8917    0.7331 C   0  0  1  0  0  0  0  0  0  0  0  0
    1.9132   -2.5519   -0.4851 C   0  0  0  0  0  0  0  0  0  0  0  0
   -0.1600    1.8356    0.5000 C   0  0  0  0  0  0  0  0  0  0  0  0
   -2.3062    0.5556    1.9023 O   0  0  0  0  0  0  0  0  0  0  0  0
   -2.4193   -2.8378   -0.3016 C   0  0  0  0  0  0  0  0  0  0  0  0
    2.6473    1.0252    1.7825 O   0  0  0  0  0  0  0  0  0  0  0  0
    1.2806   -3.4230   -1.3861 C   0  0  0  0  0  0  0  0  0  0  0  0
   -2.2974   -4.1613   -0.4283 C   0  0  0  0  0  0  0  0  0  0  0  0
    1.7173   -3.8391   -2.7788 C   0  0  2  0  0  0  0  0  0  0  0  0
   -1.4795   -4.9843    0.5250 C   0  0  0  0  0  0  0  0  0  0  0  0
    0.8917   -3.5010   -4.0956 C   0  0  0  0  0  0  0  0  0  0  0  0
    1.6859   -5.2575   -2.6362 O   0  0  0  0  0  0  0  0  0  0  0  0
   -2.3621   -5.9193    1.3271 C   0  0  0  0  0  0  0  0  0  0  0  0
    0.7982   -2.0427   -4.5679 C   0  0  0  0  0  0  0  0  0  0  0  0
   -3.0573   -6.9303    0.4243 C   0  0  0  0  0  0  0  0  0  0  0  0
    2.2035   -1.3638   -4.5699 C   0  0  0  0  0  0  0  0  0  0  0  0
   -2.0450   -7.7376   -0.3714 C   0  0  0  0  0  0  0  0  0  0  0  0
    3.0806   -2.0247   -5.6015 C   0  0  0  0  0  0  0  0  0  0  0  0
   -2.0656   -9.0651   -0.1620 O   0  0  0  0  0  0  0  0  0  0  0  0
   -1.2449   -7.2478   -1.1560 O   0  0  0  0  0  0  0  0  0  0  0  0
    2.4368   -1.8581   -6.9583 C   0  0  0  0  0  0  0  0  0  0  0  0
    0.7987    0.0652   -0.5188 C   0  0  0  0  0  0  0  0  0  0  0  0
    0.3553    0.1968    1.6075 C   0  0  0  0  0  0  0  0  0  0  0  0
    0.5831    1.2508   -1.5915 C   0  0  0  0  0  0  0  0  0  0  0  0
    0.2443   -1.1745   -1.4400 C   0  0  0  0  0  0  0  0  0  0  0  0
    2.7319   -0.2615   -0.5570 N   0  0  0  0  0  0  0  0  0  0  0  0
    0.7126    1.4680    2.6168 O   0  0  0  0  0  0  0  0  0  0  0  0
    1.2497    1.2188   -2.8170 O   0  0  0  0  0  0  0  0  0  0  0  0
    1.0583   -1.0637   -2.4872 O   0  0  0  0  0  0  0  0  0  0  0  0
   -1.3674   -0.7839   -0.6140 H   0  0  0  0  0  0  0  0  0  0  0  0
    1.2101   -1.8499    1.5857 H   0  0  0  0  0  0  0  0  0  0  0  0
   -2.4158    0.8413   -0.1519 H   0  0  0  0  0  0  0  0  0  0  0  0
   -1.0488   -2.6671    1.3970 H   0  0  0  0  0  0  0  0  0  0  0  0
   -2.5351   -1.7205    1.4841 H   0  0  0  0  0  0  0  0  0  0  0  0
    2.1809    1.5099   -0.1157 H   0  0  0  0  0  0  0  0  0  0  0  0
    2.7807   -2.1827   -1.0914 H   0  0  0  0  0  0  0  0  0  0  0  0
   -0.2410    2.7457    1.0843 H   0  0  0  0  0  0  0  0  0  0  0  0
   -0.5599    2.3579   -0.4362 H   0  0  0  0  0  0  0  0  0  0  0  0
   -1.8038   -0.0460    2.5188 H   0  0  0  0  0  0  0  0  0  0  0  0
   -2.9942   -2.3000   -1.0623 H   0  0  0  0  0  0  0  0  0  0  0  0
    2.2697    0.4992    2.5249 H   0  0  0  0  0  0  0  0  0  0  0  0
    0.1994   -3.6082   -1.4279 H   0  0  0  0  0  0  0  0  0  0  0  0
   -2.8096   -4.6651   -1.2512 H   0  0  0  0  0  0  0  0  0  0  0  0
    2.7366   -3.4870   -2.9302 H   0  0  0  0  0  0  0  0  0  0  0  0
   -0.6816   -5.4884   -0.0160 H   0  0  0  0  0  0  0  0  0  0  0  0
   -0.9124   -4.4078    1.2473 H   0  0  0  0  0  0  0  0  0  0  0  0
    1.3822   -4.0460   -4.9123 H   0  0  0  0  0  0  0  0  0  0  0  0
   -0.1241   -3.9122   -4.0711 H   0  0  0  0  0  0  0  0  0  0  0  0
    1.0994   -5.4473   -1.8745 H   0  0  0  0  0  0  0  0  0  0  0  0
   -1.7432   -6.4298    2.0726 H   0  0  0  0  0  0  0  0  0  0  0  0
   -3.1010   -5.3225    1.8843 H   0  0  0  0  0  0  0  0  0  0  0  0
    0.3129   -1.9090   -5.5326 H   0  0  0  0  0  0  0  0  0  0  0  0
   -0.0013   -1.5507   -4.0098 H   0  0  0  0  0  0  0  0  0  0  0  0
   -3.7052   -7.5689    1.0275 H   0  0  0  0  0  0  0  0  0  0  0  0
   -3.7153   -6.4153   -0.2856 H   0  0  0  0  0  0  0  0  0  0  0  0
    2.1183   -0.2838   -4.7493 H   0  0  0  0  0  0  0  0  0  0  0  0
    2.7423   -1.4469   -3.6126 H   0  0  0  0  0  0  0  0  0  0  0  0
    4.0793   -1.5835   -5.5756 H   0  0  0  0  0  0  0  0  0  0  0  0
    3.2050   -3.0852   -5.3603 H   0  0  0  0  0  0  0  0  0  0  0  0
   -2.7432   -9.4120    0.4422 H   0  0  0  0  0  0  0  0  0  0  0  0
    2.3244   -0.7933   -7.1832 H   0  0  0  0  0  0  0  0  0  0  0  0
    3.0323   -2.3494   -7.7203 H   0  0  0  0  0  0  0  0  0  0  0  0
    1.4435   -2.3141   -7.0026 H   0  0  0  0  0  0  0  0  0  0  0  0
   -0.5474    0.4709    1.9253 H   0  0  0  0  0  0  0  0  0  0  0  0
    0.5867   -0.5706    2.3995 H   0  0  0  0  0  0  0  0  0  0  0  0
   -0.4916    1.1215   -1.7800 H   0  0  0  0  0  0  0  0  0  0  0  0
    0.9407    2.2132   -1.2263 H   0  0  0  0  0  0  0  0  0  0  0  0
    0.1070   -2.0304   -0.7603 H   0  0  0  0  0  0  0  0  0  0  0  0
   -0.6842   -1.5539   -1.8722 H   0  0  0  0  0  0  0  0  0  0  0  0
    3.3416    0.4259   -0.0010 H   0  0  0  0  0  0  0  0  0  0  0  0
    2.9483   -0.8783    0.3169 H   0  0  0  0  0  0  0  0  0  0  0  0
    1.5258    1.9698    2.3458 H   0  0  0  0  0  0  0  0  0  0  0  0
    2.1820    1.1490   -2.5253 H   0  0  0  0  0  0  0  0  0  0  0  0
    0.6927   -0.2734   -2.9391 H   0  0  0  0  0  0  0  0  0  0  0  0
  1  2  1  0  0  0  0
  1  3  1  0  0  0  0
  1 34  1  6  0  0  0
  1  4  1  0  0  0  0
  2  5  1  0  0  0  0
  2 35  1  1  0  0  0
  2  6  1  0  0  0  0
  3  7  1  0  0  0  0
  3 36  1  6  0  0  0
  3  8  1  0  0  0  0
  4  9  1  0  0  0  0
  4 37  1  0  0  0  0
  4 38  1  0  0  0  0
  5  7  1  0  0  0  0
  5 10  1  0  0  0  0
  5 39  1  6  0  0  0
  6 11  2  0  0  0  0
  6 40  1  0  0  0  0
  7 41  1  0  0  0  0
  7 42  1  0  0  0  0
  8 43  1  0  0  0  0
  9 12  2  0  0  0  0
  9 44  1  0  0  0  0
 10 45  1  0  0  0  0
 11 13  1  0  0  0  0
 11 46  1  0  0  0  0
 12 14  1  0  0  0  0
 12 47  1  0  0  0  0
 13 48  1  6  0  0  0
 13 16  1  0  0  0  0
 13 15  1  0  0  0  0
 14 17  1  0  0  0  0
 14 49  1  0  0  0  0
 14 50  1  0  0  0  0
 15 18  1  0  0  0  0
 15 51  1  0  0  0  0
 15 52  1  0  0  0  0
 16 53  1  0  0  0  0
 17 19  1  0  0  0  0
 17 54  1  0  0  0  0
 17 55  1  0  0  0  0
 18 20  1  0  0  0  0
 18 56  1  0  0  0  0
 18 57  1  0  0  0  0
 19 21  1  0  0  0  0
 19 58  1  0  0  0  0
 19 59  1  0  0  0  0
 20 22  1  0  0  0  0
 20 60  1  0  0  0  0
 20 61  1  0  0  0  0
 21 23  1  0  0  0  0
 21 24  2  0  0  0  0
 22 25  1  0  0  0  0
 22 62  1  0  0  0  0
 22 63  1  0  0  0  0
 23 64  1  0  0  0  0
 25 65  1  0  0  0  0
 25 66  1  0  0  0  0
 25 67  1  0  0  0  0
 26 27  1  0  0  0  0
 26 28  1  0  0  0  0
 26 29  1  0  0  0  0
 26 30  1  0  0  0  0
 27 31  1  0  0  0  0
 27 68  1  0  0  0  0
 27 69  1  0  0  0  0
 28 32  1  0  0  0  0
 28 70  1  0  0  0  0
 28 71  1  0  0  0  0
 29 33  1  0  0  0  0
 29 72  1  0  0  0  0
 29 73  1  0  0  0  0
 30 74  1  0  0  0  0
 30 75  1  0  0  0  0
 31 76  1  0  0  0  0
 32 77  1  0  0  0  0
 33 78  1  0  0  0  0
M  END
>  <DRUGBANK_ID>
DB01160

>  <SECONDARY_ACCESSION_NUMBERS>
APRD00926

>  <COMMON_NAME>
Dinoprost tromethamine

>  <CAS_NUMBER>
38562-01-5

>  <UNII>
CT6BBQ5A68

>  <SYNONYMS>
Dinoprost trometamol; Dinoprost tromethamine; PGF2-alpha THAM; PGF2A THAM; PGF2alpha THAM; Prostaglandin F2-alpha THAM; Prostaglandin F2a tromethamine; Prostaglandin F2alpha tham; Prostin F2 Alpha

$$$$
