
 OpenBabel10282417203D

 38 40  0  0  0  0  0  0  0  0999 V2000
    0.9349    0.0233   -0.0722 C   0  0  0  0  0  0  0  0  0  0  0  0
   -3.8278    1.1182    0.7471 C   0  0  0  0  0  0  0  0  0  0  0  0
   -0.3689    0.0233   -0.0722 C   0  0  0  0  0  0  0  0  0  0  0  0
   -6.3431   -3.5105    3.6499 C   0  0  0  0  0  0  0  0  0  0  0  0
    0.6294   -2.4418    4.2152 C   0  0  0  0  0  0  0  0  0  0  0  0
   -5.7718   -4.7161    3.2471 C   0  0  0  0  0  0  0  0  0  0  0  0
    0.5175   -3.7530    3.7612 C   0  0  0  0  0  0  0  0  0  0  0  0
   -5.6473   -2.3273    3.4651 C   0  0  0  0  0  0  0  0  0  0  0  0
   -0.3174   -1.4905    3.8374 C   0  0  0  0  0  0  0  0  0  0  0  0
   -4.5174   -4.7377    2.6308 C   0  0  0  0  0  0  0  0  0  0  0  0
   -0.5507   -4.1180    2.9433 C   0  0  0  0  0  0  0  0  0  0  0  0
   -1.8889    0.0233   -0.0722 C   0  0  0  0  0  0  0  0  0  0  0  0
   -3.7121   -1.0587    2.7925 C   0  0  0  0  0  0  0  0  0  0  0  0
   -1.9573    0.5842    2.2822 C   0  0  0  0  0  0  0  0  0  0  0  0
   -4.3587   -2.3497    2.9294 C   0  0  0  0  0  0  0  0  0  0  0  0
   -2.4061   -0.8022    2.7023 C   0  0  0  0  0  0  0  0  0  0  0  0
   -1.4003   -1.8354    3.0166 C   0  0  0  0  0  0  0  0  0  0  0  0
   -3.8026   -3.5514    2.4792 C   0  0  0  0  0  0  0  0  0  0  0  0
   -1.5221   -3.1712    2.6017 C   0  0  0  0  0  0  0  0  0  0  0  0
   -2.3828    0.9806    0.9171 N   0  0  0  0  0  0  0  0  0  0  0  0
   -2.5815   -3.6217    1.8431 O   0  0  0  0  0  0  0  0  0  0  0  0
    1.9999    0.0232   -0.0697 H   0  0  0  0  0  0  0  0  0  0  0  0
   -4.3362    0.1487    0.6821 H   0  0  0  0  0  0  0  0  0  0  0  0
   -4.2663    1.7042    1.5619 H   0  0  0  0  0  0  0  0  0  0  0  0
   -4.0732    1.6290   -0.1880 H   0  0  0  0  0  0  0  0  0  0  0  0
   -7.3209   -3.4811    4.1193 H   0  0  0  0  0  0  0  0  0  0  0  0
    1.4457   -2.1537    4.8716 H   0  0  0  0  0  0  0  0  0  0  0  0
   -6.3090   -5.6433    3.4179 H   0  0  0  0  0  0  0  0  0  0  0  0
    1.2547   -4.4932    4.0588 H   0  0  0  0  0  0  0  0  0  0  0  0
   -6.1021   -1.3828    3.7570 H   0  0  0  0  0  0  0  0  0  0  0  0
   -0.2206   -0.4788    4.2247 H   0  0  0  0  0  0  0  0  0  0  0  0
   -4.0879   -5.6776    2.2980 H   0  0  0  0  0  0  0  0  0  0  0  0
   -0.6454   -5.1436    2.5979 H   0  0  0  0  0  0  0  0  0  0  0  0
   -2.2051    0.3285   -1.0783 H   0  0  0  0  0  0  0  0  0  0  0  0
   -2.2560   -0.9987    0.0762 H   0  0  0  0  0  0  0  0  0  0  0  0
   -4.4143   -0.2353    2.7109 H   0  0  0  0  0  0  0  0  0  0  0  0
   -0.8643    0.6717    2.3324 H   0  0  0  0  0  0  0  0  0  0  0  0
   -2.3066    1.3223    3.0143 H   0  0  0  0  0  0  0  0  0  0  0  0
  1 22  1  0  0  0  0
  2 23  1  0  0  0  0
  2 24  1  0  0  0  0
  2 25  1  0  0  0  0
  3  1  3  0  0  0  0
  4 26  1  0  0  0  0
  5 27  1  0  0  0  0
  6  4  2  0  0  0  0
  6 28  1  0  0  0  0
  7  5  2  0  0  0  0
  7 29  1  0  0  0  0
  8  4  1  0  0  0  0
  8 30  1  0  0  0  0
  9  5  1  0  0  0  0
  9 31  1  0  0  0  0
 10  6  1  0  0  0  0
 10 32  1  0  0  0  0
 11  7  1  0  0  0  0
 11 33  1  0  0  0  0
 12  3  1  0  0  0  0
 12 34  1  0  0  0  0
 12 35  1  0  0  0  0
 13 36  1  0  0  0  0
 14 37  1  0  0  0  0
 14 38  1  0  0  0  0
 15  8  2  0  0  0  0
 15 13  1  0  0  0  0
 16 13  2  0  0  0  0
 16 14  1  0  0  0  0
 17  9  2  0  0  0  0
 17 16  1  0  0  0  0
 18 10  2  0  0  0  0
 18 15  1  0  0  0  0
 19 11  2  0  0  0  0
 19 17  1  0  0  0  0
 20  2  1  0  0  0  0
 20 12  1  0  0  0  0
 20 14  1  0  0  0  0
 21 18  1  0  0  0  0
 21 19  1  0  0  0  0
M  END
>  <DRUGBANK_ID>
DB12879

>  <COMMON_NAME>
Omigapil

>  <CAS_NUMBER>
181296-84-4

>  <UNII>
5V14HD0N4Q

>  <SYNONYMS>
Omigapil

$$$$
