
 OpenBabel10282417233D

 62 62  0  0  0  0  0  0  0  0999 V2000
    1.4206   -0.4563   -0.7004 C   0  0  0  0  0  0  0  0  0  0  0  0
    1.3259   -1.8639    0.5411 C   0  0  0  0  0  0  0  0  0  0  0  0
    1.4337   -1.5735    2.5158 C   0  0  0  0  0  0  0  0  0  0  0  0
    0.5956   -0.0292    3.4095 C   0  0  0  0  0  0  0  0  0  0  0  0
   -1.0783    0.3212    3.3846 C   0  0  0  0  0  0  0  0  0  0  0  0
   -1.6423   -0.8921    3.8748 C   0  0  0  0  0  0  0  0  0  0  0  0
   -1.2757   -1.9385    3.1899 C   0  0  0  0  0  0  0  0  0  0  0  0
   -0.6999   -1.7548    1.9218 N   0  0  0  0  0  0  0  0  0  0  0  0
    0.0549   -0.2480    1.2575 C   0  0  0  0  0  0  0  0  0  0  0  0
    1.9681    0.2245    1.4380 C   0  0  0  0  0  0  0  0  0  0  0  0
   -1.2731   -3.2359    3.9567 C   0  0  0  0  0  0  0  0  0  0  0  0
   -0.4063   -4.0827    3.8993 O   0  0  0  0  0  0  0  0  0  0  0  0
   -2.4621   -3.3492    4.8204 C   0  0  0  0  0  0  0  0  0  0  0  0
   -2.8255   -4.7270    5.1914 C   0  0  0  0  0  0  0  0  0  0  0  0
   -3.0289   -4.7435    6.6576 C   0  0  0  0  0  0  0  0  0  0  0  0
   -4.1800   -4.9959    7.2955 C   0  0  0  0  0  0  0  0  0  0  0  0
   -5.4638   -5.2260    6.5598 C   0  0  0  0  0  0  0  0  0  0  0  0
   -4.2174   -5.0152    8.8017 C   0  0  0  0  0  0  0  0  0  0  0  0
   -3.3395   -6.1382    9.3871 C   0  0  0  0  0  0  0  0  0  0  0  0
   -1.8625   -5.9770    9.1124 C   0  0  0  0  0  0  0  0  0  0  0  0
   -0.9112   -5.6904   10.0111 C   0  0  0  0  0  0  0  0  0  0  0  0
    0.4979   -5.3963    9.5819 C   0  0  0  0  0  0  0  0  0  0  0  0
   -1.2352   -5.6970   11.4674 C   0  0  0  0  0  0  0  0  0  0  0  0
   -3.1515   -2.2642    5.1954 C   0  0  0  0  0  0  0  0  0  0  0  0
   -4.3631   -2.3186    5.8483 O   0  0  0  0  0  0  0  0  0  0  0  0
   -2.6560   -0.9065    4.8974 C   0  0  0  0  0  0  0  0  0  0  0  0
   -3.1551    0.0915    5.3340 O   0  0  0  0  0  0  0  0  0  0  0  0
    1.0164    0.5549   -0.3672 H   0  0  0  0  0  0  0  0  0  0  0  0
    0.7356   -0.5296   -1.5513 H   0  0  0  0  0  0  0  0  0  0  0  0
    2.4446   -0.1624   -0.9270 H   0  0  0  0  0  0  0  0  0  0  0  0
    0.3188   -2.2143    0.2066 H   0  0  0  0  0  0  0  0  0  0  0  0
    1.8546   -2.7494    0.1834 H   0  0  0  0  0  0  0  0  0  0  0  0
    1.1207   -2.4257    3.1357 H   0  0  0  0  0  0  0  0  0  0  0  0
    2.5083   -1.6172    2.7680 H   0  0  0  0  0  0  0  0  0  0  0  0
    0.9844    0.0685    4.4242 H   0  0  0  0  0  0  0  0  0  0  0  0
    0.9059    0.9612    2.9967 H   0  0  0  0  0  0  0  0  0  0  0  0
   -1.3300    1.2793    3.8325 H   0  0  0  0  0  0  0  0  0  0  0  0
   -1.6684    0.4170    2.4382 H   0  0  0  0  0  0  0  0  0  0  0  0
   -0.1925   -2.6542    1.7743 H   0  0  0  0  0  0  0  0  0  0  0  0
   -0.4165   -0.3937    0.2778 H   0  0  0  0  0  0  0  0  0  0  0  0
   -0.4069    0.7206    1.4019 H   0  0  0  0  0  0  0  0  0  0  0  0
    2.7329   -0.5233    1.0640 H   0  0  0  0  0  0  0  0  0  0  0  0
    2.2364    1.1708    0.9830 H   0  0  0  0  0  0  0  0  0  0  0  0
    2.4451    0.3204    2.4444 H   0  0  0  0  0  0  0  0  0  0  0  0
   -3.6976   -4.9824    4.5947 H   0  0  0  0  0  0  0  0  0  0  0  0
   -2.0746   -5.4839    4.9414 H   0  0  0  0  0  0  0  0  0  0  0  0
   -2.1554   -4.4091    7.2198 H   0  0  0  0  0  0  0  0  0  0  0  0
   -5.8607   -6.2129    6.7950 H   0  0  0  0  0  0  0  0  0  0  0  0
   -6.1847   -4.4451    6.8145 H   0  0  0  0  0  0  0  0  0  0  0  0
   -5.3621   -5.1841    5.4743 H   0  0  0  0  0  0  0  0  0  0  0  0
   -3.9233   -4.0355    9.2052 H   0  0  0  0  0  0  0  0  0  0  0  0
   -5.2508   -5.1770    9.1333 H   0  0  0  0  0  0  0  0  0  0  0  0
   -3.5355   -6.1718   10.4621 H   0  0  0  0  0  0  0  0  0  0  0  0
   -3.6556   -7.1042    8.9807 H   0  0  0  0  0  0  0  0  0  0  0  0
   -1.5430   -6.0909    8.0797 H   0  0  0  0  0  0  0  0  0  0  0  0
    0.8197   -4.4214    9.9639 H   0  0  0  0  0  0  0  0  0  0  0  0
    1.1765   -6.1686    9.9512 H   0  0  0  0  0  0  0  0  0  0  0  0
    0.5983   -5.3566    8.4894 H   0  0  0  0  0  0  0  0  0  0  0  0
   -1.9739   -4.9245   11.7038 H   0  0  0  0  0  0  0  0  0  0  0  0
   -1.6533   -6.6773   11.7289 H   0  0  0  0  0  0  0  0  0  0  0  0
   -0.3495   -5.5409   12.0832 H   0  0  0  0  0  0  0  0  0  0  0  0
   -4.6256   -1.3899    5.9987 H   0  0  0  0  0  0  0  0  0  0  0  0
  1  2  1  0  0  0  0
  1 28  1  0  0  0  0
  1 29  1  0  0  0  0
  1 30  1  0  0  0  0
  2  3  1  0  0  0  0
  2 31  1  0  0  0  0
  2 32  1  0  0  0  0
  3  4  1  0  0  0  0
  3 33  1  0  0  0  0
  3 34  1  0  0  0  0
  4  5  1  0  0  0  0
  4 35  1  0  0  0  0
  4 36  1  0  0  0  0
  5  6  1  0  0  0  0
  5 37  1  0  0  0  0
  5 38  1  0  0  0  0
  6  7  2  0  0  0  0
  6 26  1  0  0  0  0
  7  8  1  0  0  0  0
  7 11  1  0  0  0  0
  8  9  1  0  0  0  0
  8 39  1  0  0  0  0
  9 10  1  0  0  0  0
  9 40  1  0  0  0  0
  9 41  1  0  0  0  0
 10 42  1  0  0  0  0
 10 43  1  0  0  0  0
 10 44  1  0  0  0  0
 11 12  2  0  0  0  0
 11 13  1  0  0  0  0
 13 14  1  0  0  0  0
 13 24  2  0  0  0  0
 14 15  1  0  0  0  0
 14 45  1  0  0  0  0
 14 46  1  0  0  0  0
 15 16  2  0  0  0  0
 15 47  1  0  0  0  0
 16 17  1  0  0  0  0
 16 18  1  0  0  0  0
 17 48  1  0  0  0  0
 17 49  1  0  0  0  0
 17 50  1  0  0  0  0
 18 19  1  0  0  0  0
 18 51  1  0  0  0  0
 18 52  1  0  0  0  0
 19 20  1  0  0  0  0
 19 53  1  0  0  0  0
 19 54  1  0  0  0  0
 20 21  2  0  0  0  0
 20 55  1  0  0  0  0
 21 22  1  0  0  0  0
 21 23  1  0  0  0  0
 22 56  1  0  0  0  0
 22 57  1  0  0  0  0
 22 58  1  0  0  0  0
 23 59  1  0  0  0  0
 23 60  1  0  0  0  0
 23 61  1  0  0  0  0
 24 25  1  0  0  0  0
 24 26  1  0  0  0  0
 25 62  1  0  0  0  0
 26 27  2  0  0  0  0
M  END
>  <DRUGBANK_ID>
DB16933

>  <COMMON_NAME>
EHP-102

>  <CAS_NUMBER>
1807652-43-2

>  <UNII>
FDH1SMY691

>  <SYNONYMS>
2-((2e)-3,7-dimethyl-2,6-octadien-1-yl)-6-(ethylamino)-3-hydroxy-5-pentyl-2,5-cyclohexadiene-1,4-dione; 2-(3,7-Dimethyl-Octa-2, 6-Dienyl)-6-Ethylamino-3-Hydroxy-5-Pentyl-[1,4]Benzoquinone; 2-(3,7-Dimethyl-octa-2, 6-dienyl)Â¿6-ethylamino-3-hydroxy-5-pentyl-[1,4]benzoquinone; 2,5-cyclohexadiene-1,4-dione, 2-((2e)-3,7-dimethyl-2,6-octadien-1-yl)-6-(ethylamino)-3-hydroxy-5-pentyl-; EHP102

$$$$
