
 OpenBabel10282417233D

 67 69  0  0  0  0  0  0  0  0999 V2000
    4.2805   -6.3159    6.8475 N   0  0  0  0  0  0  0  0  0  0  0  0
    3.4068   -6.6592    5.8295 C   0  0  0  0  0  0  0  0  0  0  0  0
    2.0221   -6.2417    6.2520 C   0  0  1  0  0  0  0  0  0  0  0  0
    2.1801   -6.0171    7.7773 C   0  0  0  0  0  0  0  0  0  0  0  0
    3.6474   -5.6662    7.9568 C   0  0  0  0  0  0  0  0  0  0  0  0
    3.7036   -7.0694    4.7379 O   0  0  0  0  0  0  0  0  0  0  0  0
    1.7178   -4.8874    5.6345 C   0  0  0  0  0  0  0  0  0  0  0  0
    1.5742   -4.6526    4.1110 C   0  0  1  0  0  0  0  0  0  0  0  0
    0.4999   -5.6635    3.7445 C   0  0  0  0  0  0  0  0  0  0  0  0
   -0.3913   -6.5022    3.4405 N   0  0  0  0  0  0  0  0  0  0  0  0
    1.2540   -6.9840    6.0341 H   0  0  0  0  0  0  0  0  0  0  0  0
    1.4094   -3.5149    3.2755 N   0  0  0  0  0  0  0  0  0  0  0  0
    2.2331   -2.8669    2.4031 C   0  0  0  0  0  0  0  0  0  0  0  0
    1.8809   -1.8102    1.8803 O   0  0  0  0  0  0  0  0  0  0  0  0
    4.2805   -3.7146    3.3862 N   0  0  0  0  0  0  0  0  0  0  0  0
    5.3128   -4.7188    3.0599 C   0  0  0  0  0  0  0  0  0  0  0  0
    4.7127   -5.5386    1.9278 C   0  0  1  0  0  0  0  0  0  0  0  0
    3.5639   -4.7286    1.3946 C   0  0  1  0  0  0  0  0  0  0  0  0
    3.5893   -3.4032    2.1538 C   0  0  1  0  0  0  0  0  0  0  0  0
    4.6348   -5.1877    0.4299 C   0  0  0  0  0  0  0  0  0  0  0  0
    5.5178   -4.1794   -0.2387 C   0  0  0  0  0  0  0  0  0  0  0  0
    4.2729   -6.2801   -0.5599 C   0  0  0  0  0  0  0  0  0  0  0  0
    4.5759   -6.5787    2.2070 H   0  0  0  0  0  0  0  0  0  0  0  0
    2.5802   -5.1799    1.3041 H   0  0  0  0  0  0  0  0  0  0  0  0
    4.0787   -3.2103    4.6732 C   0  0  0  0  0  0  0  0  0  0  0  0
    2.8268   -2.0796    5.1243 C   0  0  2  0  0  0  0  0  0  0  0  0
    4.7499   -3.7475    5.5683 O   0  0  0  0  0  0  0  0  0  0  0  0
    3.4363   -1.0013    6.0538 C   0  0  0  0  0  0  0  0  0  0  0  0
    1.4675   -2.4382    5.7793 N   0  0  0  0  0  0  0  0  0  0  0  0
    0.1174   -2.4037    5.4186 C   0  0  0  0  0  0  0  0  0  0  0  0
   -0.4897   -1.6660    4.1794 C   0  0  0  0  0  0  0  0  0  0  0  0
   -0.6408   -3.0525    6.1641 O   0  0  0  0  0  0  0  0  0  0  0  0
   -1.8476   -1.6137    4.2685 F   0  0  0  0  0  0  0  0  0  0  0  0
   -0.0186   -0.4054    4.0748 F   0  0  0  0  0  0  0  0  0  0  0  0
   -0.3339   -2.2487    2.9577 F   0  0  0  0  0  0  0  0  0  0  0  0
    2.3180   -0.3528    6.9043 C   0  0  0  0  0  0  0  0  0  0  0  0
    4.5146   -1.5133    7.0205 C   0  0  0  0  0  0  0  0  0  0  0  0
    4.0304    0.0301    5.0979 C   0  0  0  0  0  0  0  0  0  0  0  0
    5.2678   -6.2401    6.6345 H   0  0  0  0  0  0  0  0  0  0  0  0
    1.5293   -5.2294    8.1828 H   0  0  0  0  0  0  0  0  0  0  0  0
    1.9473   -6.9438    8.3055 H   0  0  0  0  0  0  0  0  0  0  0  0
    3.8268   -4.5855    7.9143 H   0  0  0  0  0  0  0  0  0  0  0  0
    4.0609   -6.0492    8.8902 H   0  0  0  0  0  0  0  0  0  0  0  0
    0.7847   -4.6515    6.1305 H   0  0  0  0  0  0  0  0  0  0  0  0
    2.5405   -4.2997    6.0046 H   0  0  0  0  0  0  0  0  0  0  0  0
    2.4456   -5.1660    3.7078 H   0  0  0  0  0  0  0  0  0  0  0  0
    0.4612   -3.3788    2.9567 H   0  0  0  0  0  0  0  0  0  0  0  0
    6.1892   -4.1759    2.6920 H   0  0  0  0  0  0  0  0  0  0  0  0
    5.6003   -5.3233    3.9232 H   0  0  0  0  0  0  0  0  0  0  0  0
    4.1783   -2.6657    1.6058 H   0  0  0  0  0  0  0  0  0  0  0  0
    6.4326   -4.6814   -0.5672 H   0  0  0  0  0  0  0  0  0  0  0  0
    5.0056   -3.8086   -1.1364 H   0  0  0  0  0  0  0  0  0  0  0  0
    5.7992   -3.3260    0.3752 H   0  0  0  0  0  0  0  0  0  0  0  0
    3.9572   -7.2160   -0.0930 H   0  0  0  0  0  0  0  0  0  0  0  0
    3.4842   -5.9276   -1.2355 H   0  0  0  0  0  0  0  0  0  0  0  0
    5.1479   -6.5038   -1.1828 H   0  0  0  0  0  0  0  0  0  0  0  0
    2.5147   -1.5772    4.2230 H   0  0  0  0  0  0  0  0  0  0  0  0
    1.5624   -2.8453    6.7112 H   0  0  0  0  0  0  0  0  0  0  0  0
    1.9173   -1.0631    7.6447 H   0  0  0  0  0  0  0  0  0  0  0  0
    2.6658    0.5087    7.4666 H   0  0  0  0  0  0  0  0  0  0  0  0
    1.4874   -0.0364    6.2604 H   0  0  0  0  0  0  0  0  0  0  0  0
    5.4181   -1.8459    6.4987 H   0  0  0  0  0  0  0  0  0  0  0  0
    4.8477   -0.7189    7.6913 H   0  0  0  0  0  0  0  0  0  0  0  0
    4.1406   -2.3391    7.6373 H   0  0  0  0  0  0  0  0  0  0  0  0
    4.8444   -0.4099    4.5093 H   0  0  0  0  0  0  0  0  0  0  0  0
    3.2671    0.3745    4.3877 H   0  0  0  0  0  0  0  0  0  0  0  0
    4.4021    0.8945    5.6434 H   0  0  0  0  0  0  0  0  0  0  0  0
  1  2  1  0  0  0  0
  1  5  1  0  0  0  0
  1 39  1  0  0  0  0
  2  3  1  0  0  0  0
  2  6  2  0  0  0  0
  3  4  1  0  0  0  0
  3  7  1  0  0  0  0
  3 11  1  6  0  0  0
  4  5  1  0  0  0  0
  4 40  1  0  0  0  0
  4 41  1  0  0  0  0
  5 42  1  0  0  0  0
  5 43  1  0  0  0  0
  7 44  1  0  0  0  0
  7 45  1  0  0  0  0
  8  9  1  0  0  0  0
  8  7  1  0  0  0  0
  8 12  1  0  0  0  0
  8 46  1  6  0  0  0
  9 10  3  0  0  0  0
 12 13  1  0  0  0  0
 12 47  1  0  0  0  0
 13 14  2  0  0  0  0
 15 16  1  0  0  0  0
 15 19  1  0  0  0  0
 15 25  1  0  0  0  0
 16 17  1  0  0  0  0
 16 48  1  0  0  0  0
 16 49  1  0  0  0  0
 17 18  1  0  0  0  0
 17 20  1  0  0  0  0
 17 23  1  1  0  0  0
 18 19  1  0  0  0  0
 18 20  1  0  0  0  0
 18 24  1  6  0  0  0
 19 50  1  6  0  0  0
 19 13  1  0  0  0  0
 20 21  1  0  0  0  0
 20 22  1  0  0  0  0
 21 51  1  0  0  0  0
 21 52  1  0  0  0  0
 21 53  1  0  0  0  0
 22 54  1  0  0  0  0
 22 55  1  0  0  0  0
 22 56  1  0  0  0  0
 25 27  2  0  0  0  0
 26 29  1  0  0  0  0
 26 57  1  6  0  0  0
 26 28  1  0  0  0  0
 26 25  1  0  0  0  0
 28 36  1  0  0  0  0
 28 37  1  0  0  0  0
 28 38  1  0  0  0  0
 29 30  1  0  0  0  0
 29 58  1  0  0  0  0
 30 32  2  0  0  0  0
 30 31  1  0  0  0  0
 31 34  1  0  0  0  0
 31 35  1  0  0  0  0
 31 33  1  0  0  0  0
 36 59  1  0  0  0  0
 36 60  1  0  0  0  0
 36 61  1  0  0  0  0
 37 62  1  0  0  0  0
 37 63  1  0  0  0  0
 37 64  1  0  0  0  0
 38 65  1  0  0  0  0
 38 66  1  0  0  0  0
 38 67  1  0  0  0  0
M  END
>  <DRUGBANK_ID>
DB16691

>  <COMMON_NAME>
Nirmatrelvir

>  <CAS_NUMBER>
2628280-40-8

>  <UNII>
7R9A5P7H32

$$$$
