
 OpenBabel10282417183D

 61 63  0  0  0  0  0  0  0  0999 V2000
    0.8866    0.0546    0.0224 C   0  0  0  0  0  0  0  0  0  0  0  0
    0.5092   -1.3632    0.4138 C   0  0  0  0  0  0  0  0  0  0  0  0
    0.9999   -1.7313    1.7379 N   0  0  0  0  0  0  0  0  0  0  0  0
    0.0516   -2.1377    2.7584 C   0  0  0  0  0  0  0  0  0  0  0  0
    2.3605   -1.8413    1.9910 C   0  0  0  0  0  0  0  0  0  0  0  0
    2.7809   -2.9050    2.7238 N   0  0  0  0  0  0  0  0  0  0  0  0
    4.1249   -2.9945    2.8634 C   0  0  0  0  0  0  0  0  0  0  0  0
    4.9476   -1.9472    2.3799 C   0  0  0  0  0  0  0  0  0  0  0  0
    4.5396   -0.8457    1.6108 C   0  0  0  0  0  0  0  0  0  0  0  0
    3.1786   -0.8567    1.4701 N   0  0  0  0  0  0  0  0  0  0  0  0
    5.3536    0.2074    0.9749 N   0  0  0  0  0  0  0  0  0  0  0  0
    6.7939    0.5154    0.8656 C   0  0  0  0  0  0  0  0  0  0  0  0
    7.6621   -0.4846    0.3470 C   0  0  0  0  0  0  0  0  0  0  0  0
    9.0540   -0.5503    0.6952 C   0  0  0  0  0  0  0  0  0  0  0  0
    9.5923    0.4706    1.4748 C   0  0  0  0  0  0  0  0  0  0  0  0
    8.7163    1.4789    1.8906 C   0  0  0  0  0  0  0  0  0  0  0  0
    7.3530    1.5165    1.6195 N   0  0  0  0  0  0  0  0  0  0  0  0
    9.8515   -1.8346    0.5284 C   0  0  0  0  0  0  0  0  0  0  0  0
    6.1447   -2.2915    2.9112 N   0  0  0  0  0  0  0  0  0  0  0  0
    6.2328   -3.6177    2.9086 N   0  0  0  0  0  0  0  0  0  0  0  0
    5.0546   -4.0290    3.3929 C   0  0  0  0  0  0  0  0  0  0  0  0
    4.9770   -5.3676    4.1460 C   0  0  0  0  0  0  0  0  0  0  0  0
    3.8783   -5.8557    4.4046 O   0  0  0  0  0  0  0  0  0  0  0  0
    6.1141   -6.1811    4.6383 N   0  0  0  0  0  0  0  0  0  0  0  0
    7.7927   -6.1116    4.8169 S   0  0  0  0  0  0  0  0  0  0  0  0
    8.1191   -5.7263    6.1564 O   0  0  0  0  0  0  0  0  0  0  0  0
    8.4365   -7.2574    4.1712 O   0  0  0  0  0  0  0  0  0  0  0  0
    8.1736   -4.8087    3.8108 C   0  0  0  0  0  0  0  0  0  0  0  0
    7.3429   -1.4892    2.8999 C   0  0  0  0  0  0  0  0  0  0  0  0
    8.0596   -0.6357    3.9936 C   0  0  0  0  0  0  0  0  0  0  0  0
    8.8814   -1.2944    4.9320 O   0  0  0  0  0  0  0  0  0  0  0  0
    8.1179   -2.3573    5.3920 C   0  0  0  0  0  0  0  0  0  0  0  0
    6.7842   -1.9813    5.9894 C   0  0  0  0  0  0  0  0  0  0  0  0
    0.5562    0.7652    0.7860 H   0  0  0  0  0  0  0  0  0  0  0  0
    0.4401    0.3238   -0.9372 H   0  0  0  0  0  0  0  0  0  0  0  0
    1.9625    0.1713   -0.1106 H   0  0  0  0  0  0  0  0  0  0  0  0
   -0.5890   -1.4187    0.3907 H   0  0  0  0  0  0  0  0  0  0  0  0
    0.8503   -2.0821   -0.3416 H   0  0  0  0  0  0  0  0  0  0  0  0
    0.1701   -3.1803    3.0707 H   0  0  0  0  0  0  0  0  0  0  0  0
    0.1515   -1.4856    3.6328 H   0  0  0  0  0  0  0  0  0  0  0  0
   -0.9856   -2.0274    2.4140 H   0  0  0  0  0  0  0  0  0  0  0  0
    4.8099    1.0673    0.9570 H   0  0  0  0  0  0  0  0  0  0  0  0
    7.1971   -1.3657   -0.0857 H   0  0  0  0  0  0  0  0  0  0  0  0
   10.5708    0.3502    1.9560 H   0  0  0  0  0  0  0  0  0  0  0  0
    9.0597    2.1456    2.6957 H   0  0  0  0  0  0  0  0  0  0  0  0
   10.7366   -1.6609   -0.0851 H   0  0  0  0  0  0  0  0  0  0  0  0
   10.1891   -2.2392    1.4987 H   0  0  0  0  0  0  0  0  0  0  0  0
    9.2446   -2.6238    0.0723 H   0  0  0  0  0  0  0  0  0  0  0  0
    5.7927   -6.9826    5.1801 H   0  0  0  0  0  0  0  0  0  0  0  0
    7.9238   -4.9987    2.7742 H   0  0  0  0  0  0  0  0  0  0  0  0
    7.4168   -4.2673    4.3603 H   0  0  0  0  0  0  0  0  0  0  0  0
    9.1398   -4.3308    3.9292 H   0  0  0  0  0  0  0  0  0  0  0  0
    8.0262   -2.0567    2.2730 H   0  0  0  0  0  0  0  0  0  0  0  0
    6.8870   -0.6464    2.4868 H   0  0  0  0  0  0  0  0  0  0  0  0
    8.7751    0.0403    3.5770 H   0  0  0  0  0  0  0  0  0  0  0  0
    7.3475    0.0208    4.4936 H   0  0  0  0  0  0  0  0  0  0  0  0
    7.9107   -2.7776    4.4521 H   0  0  0  0  0  0  0  0  0  0  0  0
    8.7046   -3.0966    5.9262 H   0  0  0  0  0  0  0  0  0  0  0  0
    6.1894   -1.2876    5.3788 H   0  0  0  0  0  0  0  0  0  0  0  0
    6.1544   -2.8630    6.0994 H   0  0  0  0  0  0  0  0  0  0  0  0
    6.9873   -1.4727    6.9225 H   0  0  0  0  0  0  0  0  0  0  0  0
  1  2  1  0  0  0  0
  1 34  1  0  0  0  0
  1 35  1  0  0  0  0
  1 36  1  0  0  0  0
  2  3  1  0  0  0  0
  2 37  1  0  0  0  0
  2 38  1  0  0  0  0
  3  4  1  0  0  0  0
  3  5  1  0  0  0  0
  4 39  1  0  0  0  0
  4 40  1  0  0  0  0
  4 41  1  0  0  0  0
  5  6  1  0  0  0  0
  5 10  2  0  0  0  0
  6  7  2  0  0  0  0
  7  8  1  0  0  0  0
  7 21  1  0  0  0  0
  8  9  2  0  0  0  0
  8 19  1  0  0  0  0
  9 10  1  0  0  0  0
  9 11  1  0  0  0  0
 11 12  1  0  0  0  0
 11 42  1  0  0  0  0
 12 13  2  0  0  0  0
 12 17  1  0  0  0  0
 13 14  1  0  0  0  0
 13 43  1  0  0  0  0
 14 15  2  0  0  0  0
 14 18  1  0  0  0  0
 15 16  1  0  0  0  0
 15 44  1  0  0  0  0
 16 17  2  0  0  0  0
 16 45  1  0  0  0  0
 18 46  1  0  0  0  0
 18 47  1  0  0  0  0
 18 48  1  0  0  0  0
 19 20  1  0  0  0  0
 19 29  1  0  0  0  0
 20 21  2  0  0  0  0
 21 22  1  0  0  0  0
 22 23  2  0  0  0  0
 22 24  1  0  0  0  0
 24 25  1  0  0  0  0
 24 49  1  0  0  0  0
 25 26  2  0  0  0  0
 25 27  2  0  0  0  0
 25 28  1  0  0  0  0
 28 50  1  0  0  0  0
 28 51  1  0  0  0  0
 28 52  1  0  0  0  0
 29 30  1  0  0  0  0
 29 53  1  0  0  0  0
 29 54  1  0  0  0  0
 30 31  1  0  0  0  0
 30 55  1  0  0  0  0
 30 56  1  0  0  0  0
 31 32  1  0  0  0  0
 32 33  1  0  0  0  0
 32 57  1  0  0  0  0
 32 58  1  0  0  0  0
 33 59  1  0  0  0  0
 33 60  1  0  0  0  0
 33 61  1  0  0  0  0
M  END
>  <DRUGBANK_ID>
DB11736

>  <COMMON_NAME>
PF-00489791

>  <CAS_NUMBER>
853003-48-2

>  <UNII>
2S27T3DSZ3

$$$$
