
 OpenBabel10282417133D

 81 83  0  0  0  0  0  0  0  0999 V2000
    1.2865   -0.2470    0.0035 C   0  0  0  0  0  0  0  0  0  0  0  0
    0.4111   -1.3251   -0.0302 C   0  0  0  0  0  0  0  0  0  0  0  0
   -0.9601   -1.0889   -0.0445 C   0  0  0  0  0  0  0  0  0  0  0  0
   -0.5845    1.2967    0.0681 C   0  0  0  0  0  0  0  0  0  0  0  0
    0.7749    1.0598    0.0831 C   0  0  0  0  0  0  0  0  0  0  0  0
   -1.4611    0.2231   -0.0364 C   0  0  0  0  0  0  0  0  0  0  0  0
   -2.9213    0.4708   -0.1823 C   0  0  0  0  0  0  0  0  0  0  0  0
   -3.4175    1.7383   -0.2190 N   0  0  0  0  0  0  0  0  0  0  0  0
   -3.7107   -0.5443   -0.3037 N   0  0  0  0  0  0  0  0  0  0  0  0
    2.7608   -0.4917    0.1604 C   0  0  0  0  0  0  0  0  0  0  0  0
    3.6737    0.0742   -0.9176 C   0  0  1  0  0  0  0  0  0  0  0  0
    3.3931    1.4968   -1.0847 N   0  0  0  0  0  0  0  0  0  0  0  0
    5.1879   -0.2718   -0.7214 C   0  0  0  0  0  0  0  0  0  0  0  0
    5.7983   -0.8282   -1.6421 O   0  0  0  0  0  0  0  0  0  0  0  0
    5.8541    0.1913    0.4117 N   0  0  0  0  0  0  0  0  0  0  0  0
    7.1782    0.8106    0.2608 C   0  0  0  0  0  0  0  0  0  0  0  0
    8.1975    0.0793    1.0967 C   0  0  0  0  0  0  0  0  0  0  0  0
    7.7271   -0.0215    2.5494 C   0  0  0  0  0  0  0  0  0  0  0  0
    6.3000   -0.5426    2.6481 C   0  0  0  0  0  0  0  0  0  0  0  0
    5.3627    0.2606    1.7711 C   0  0  0  0  0  0  0  0  0  0  0  0
    4.4568    4.6520   -0.0241 N   0  0  0  0  0  0  0  0  0  0  0  0
    4.4069    6.3107   -0.0042 S   0  0  0  0  0  0  0  0  0  0  0  0
    3.0118    6.5731   -0.3206 O   0  0  0  0  0  0  0  0  0  0  0  0
    4.9701    6.7228    1.2602 O   0  0  0  0  0  0  0  0  0  0  0  0
    5.4452    7.0598   -1.2950 C   0  0  0  0  0  0  0  0  0  0  0  0
    5.1614    8.4109   -1.5995 C   0  0  0  0  0  0  0  0  0  0  0  0
    5.8330    9.0630   -2.6861 C   0  0  0  0  0  0  0  0  0  0  0  0
    6.6910    8.3455   -3.5340 C   0  0  0  0  0  0  0  0  0  0  0  0
    7.0001    7.0460   -3.1862 C   0  0  0  0  0  0  0  0  0  0  0  0
    6.4493    6.4134   -2.0562 C   0  0  0  0  0  0  0  0  0  0  0  0
    4.1967    9.2380   -0.7752 C   0  0  0  0  0  0  0  0  0  0  0  0
    5.6732   10.5480   -2.8242 C   0  0  0  0  0  0  0  0  0  0  0  0
    6.9138    5.0048   -1.9656 C   0  0  0  0  0  0  0  0  0  0  0  0
    7.3378    8.7185   -4.6792 O   0  0  0  0  0  0  0  0  0  0  0  0
    7.1534   10.0261   -5.1793 C   0  0  0  0  0  0  0  0  0  0  0  0
    3.7589    3.8854   -1.1214 C   0  0  1  0  0  0  0  0  0  0  0  0
    4.2851    4.1973   -2.4936 C   0  0  0  0  0  0  0  0  0  0  0  0
    3.9130    3.6019   -3.7933 C   0  0  0  0  0  0  0  0  0  0  0  0
    3.6808    4.2638   -4.8017 O   0  0  0  0  0  0  0  0  0  0  0  0
    4.1794    2.2877   -3.8628 O   0  0  0  0  0  0  0  0  0  0  0  0
    4.3058    2.4903   -0.9449 C   0  0  0  0  0  0  0  0  0  0  0  0
    5.4963    2.3373   -0.8366 O   0  0  0  0  0  0  0  0  0  0  0  0
    0.7903   -2.3443   -0.0141 H   0  0  0  0  0  0  0  0  0  0  0  0
   -1.6387   -1.9376   -0.0542 H   0  0  0  0  0  0  0  0  0  0  0  0
   -0.9153    2.3223    0.1632 H   0  0  0  0  0  0  0  0  0  0  0  0
    1.4177    1.9273    0.1977 H   0  0  0  0  0  0  0  0  0  0  0  0
   -4.3967    1.9160   -0.3812 H   0  0  0  0  0  0  0  0  0  0  0  0
   -2.8271    2.5574   -0.1978 H   0  0  0  0  0  0  0  0  0  0  0  0
   -4.6713   -0.2268   -0.4221 H   0  0  0  0  0  0  0  0  0  0  0  0
    2.9198    0.0268    1.0984 H   0  0  0  0  0  0  0  0  0  0  0  0
    2.9856   -1.5535    0.3099 H   0  0  0  0  0  0  0  0  0  0  0  0
    3.3736   -0.3671   -1.8807 H   0  0  0  0  0  0  0  0  0  0  0  0
    2.5171    1.7331   -1.5247 H   0  0  0  0  0  0  0  0  0  0  0  0
    7.1114    1.8415    0.6494 H   0  0  0  0  0  0  0  0  0  0  0  0
    7.4834    0.8818   -0.7892 H   0  0  0  0  0  0  0  0  0  0  0  0
    9.1551    0.6073    1.0493 H   0  0  0  0  0  0  0  0  0  0  0  0
    8.3291   -0.9188    0.6703 H   0  0  0  0  0  0  0  0  0  0  0  0
    8.3946   -0.6865    3.1008 H   0  0  0  0  0  0  0  0  0  0  0  0
    7.7709    0.9683    3.0208 H   0  0  0  0  0  0  0  0  0  0  0  0
    6.2695   -1.5853    2.3053 H   0  0  0  0  0  0  0  0  0  0  0  0
    5.9409   -0.5212    3.6804 H   0  0  0  0  0  0  0  0  0  0  0  0
    4.4103   -0.2148    1.9072 H   0  0  0  0  0  0  0  0  0  0  0  0
    5.2838    1.3128    2.0741 H   0  0  0  0  0  0  0  0  0  0  0  0
    4.3474    4.2881    0.9290 H   0  0  0  0  0  0  0  0  0  0  0  0
    7.6739    6.4775   -3.8340 H   0  0  0  0  0  0  0  0  0  0  0  0
    4.7540   10.0337   -0.2734 H   0  0  0  0  0  0  0  0  0  0  0  0
    3.4188    9.6497   -1.4280 H   0  0  0  0  0  0  0  0  0  0  0  0
    3.6766    8.7257    0.0270 H   0  0  0  0  0  0  0  0  0  0  0  0
    6.6584   11.0030   -2.6961 H   0  0  0  0  0  0  0  0  0  0  0  0
    5.1968   10.7990   -3.7694 H   0  0  0  0  0  0  0  0  0  0  0  0
    5.0525   11.0172   -2.0668 H   0  0  0  0  0  0  0  0  0  0  0  0
    6.6866    4.5855   -2.9604 H   0  0  0  0  0  0  0  0  0  0  0  0
    7.9680    4.7891   -1.8405 H   0  0  0  0  0  0  0  0  0  0  0  0
    6.4206    4.5212   -1.1396 H   0  0  0  0  0  0  0  0  0  0  0  0
    6.1039   10.2024   -5.4274 H   0  0  0  0  0  0  0  0  0  0  0  0
    7.5656   10.7524   -4.4772 H   0  0  0  0  0  0  0  0  0  0  0  0
    7.7178   10.1505   -6.1048 H   0  0  0  0  0  0  0  0  0  0  0  0
    2.6797    3.9505   -1.0195 H   0  0  0  0  0  0  0  0  0  0  0  0
    4.3328    5.2664   -2.6436 H   0  0  0  0  0  0  0  0  0  0  0  0
    5.2651    3.7439   -2.4977 H   0  0  0  0  0  0  0  0  0  0  0  0
    4.2711    2.0600   -4.8120 H   0  0  0  0  0  0  0  0  0  0  0  0
  1  2  2  0  0  0  0
  1  5  1  0  0  0  0
  2  3  1  0  0  0  0
  2 43  1  0  0  0  0
  3  6  2  0  0  0  0
  3 44  1  0  0  0  0
  4  5  2  0  0  0  0
  4 45  1  0  0  0  0
  5 46  1  0  0  0  0
  6  4  1  0  0  0  0
  6  7  1  0  0  0  0
  7  8  1  0  0  0  0
  7  9  2  0  0  0  0
  8 47  1  0  0  0  0
  8 48  1  0  0  0  0
  9 49  1  0  0  0  0
 10  1  1  0  0  0  0
 10 50  1  0  0  0  0
 10 51  1  0  0  0  0
 11 10  1  0  0  0  0
 11 12  1  0  0  0  0
 11 13  1  0  0  0  0
 11 52  1  6  0  0  0
 12 53  1  0  0  0  0
 13 14  2  0  0  0  0
 13 15  1  0  0  0  0
 16 15  1  0  0  0  0
 16 17  1  0  0  0  0
 16 54  1  0  0  0  0
 16 55  1  0  0  0  0
 17 18  1  0  0  0  0
 17 56  1  0  0  0  0
 17 57  1  0  0  0  0
 18 19  1  0  0  0  0
 18 58  1  0  0  0  0
 18 59  1  0  0  0  0
 19 20  1  0  0  0  0
 19 60  1  0  0  0  0
 19 61  1  0  0  0  0
 20 15  1  0  0  0  0
 20 62  1  0  0  0  0
 20 63  1  0  0  0  0
 21 22  1  0  0  0  0
 21 64  1  0  0  0  0
 23 22  2  0  0  0  0
 24 22  2  0  0  0  0
 25 22  1  0  0  0  0
 25 26  2  0  0  0  0
 25 30  1  0  0  0  0
 26 27  1  0  0  0  0
 26 31  1  0  0  0  0
 27 28  2  0  0  0  0
 27 32  1  0  0  0  0
 28 29  1  0  0  0  0
 28 34  1  0  0  0  0
 29 30  2  0  0  0  0
 29 65  1  0  0  0  0
 31 66  1  0  0  0  0
 31 67  1  0  0  0  0
 31 68  1  0  0  0  0
 32 69  1  0  0  0  0
 32 70  1  0  0  0  0
 32 71  1  0  0  0  0
 33 30  1  0  0  0  0
 33 72  1  0  0  0  0
 33 73  1  0  0  0  0
 33 74  1  0  0  0  0
 35 34  1  0  0  0  0
 35 75  1  0  0  0  0
 35 76  1  0  0  0  0
 35 77  1  0  0  0  0
 36 21  1  0  0  0  0
 36 37  1  0  0  0  0
 36 41  1  0  0  0  0
 36 78  1  1  0  0  0
 37 38  1  0  0  0  0
 37 79  1  0  0  0  0
 37 80  1  0  0  0  0
 38 39  2  0  0  0  0
 38 40  1  0  0  0  0
 40 81  1  0  0  0  0
 41 12  1  0  0  0  0
 41 42  2  0  0  0  0
M  END
>  <DRUGBANK_ID>
DB03081

>  <SECONDARY_ACCESSION_NUMBERS>
EXPT00864

>  <COMMON_NAME>
[N-[N-(4-Methoxy-2,3,6-trimethylphenylsulfonyl)-L-aspartyl]-D-(4-amidino-phenylalanyl)]-piperidine

>  <CAS_NUMBER>
146663-95-8

$$$$
