
 OpenBabel10282417163D

 42 45  0  0  1  0  0  0  0  0999 V2000
    0.9178   -0.0718   -0.0071 C   0  0  0  0  0  0  0  0  0  0  0  0
   -6.6672   -2.4302   -3.5022 C   0  0  0  0  0  0  0  0  0  0  0  0
   -8.8371   -6.0569   -0.4871 C   0  0  0  0  0  0  0  0  0  0  0  0
   -8.6822   -4.9943    0.3965 C   0  0  0  0  0  0  0  0  0  0  0  0
   -7.9835   -6.1764   -1.5825 C   0  0  0  0  0  0  0  0  0  0  0  0
   -7.7004   -4.0305    0.1571 C   0  0  0  0  0  0  0  0  0  0  0  0
   -6.9467   -5.2577   -1.7690 C   0  0  0  0  0  0  0  0  0  0  0  0
   -2.8405    0.0732   -2.9980 C   0  0  0  0  0  0  0  0  0  0  0  0
   -0.2045    1.6281   -1.7480 C   0  0  0  0  0  0  0  0  0  0  0  0
   -4.4383   -3.2360    0.9675 C   0  0  0  0  0  0  0  0  0  0  0  0
    0.3200    0.2250   -1.3469 C   0  0  2  0  0  0  0  0  0  0  0  0
   -6.8308   -4.1391   -0.9365 C   0  0  0  0  0  0  0  0  0  0  0  0
   -4.7710   -2.6826   -0.3854 C   0  0  0  0  0  0  0  0  0  0  0  0
   -2.1695   -0.0891   -1.8350 C   0  0  0  0  0  0  0  0  0  0  0  0
   -4.1906   -0.5380   -3.2796 C   0  0  0  0  0  0  0  0  0  0  0  0
   -4.0323   -1.6846   -1.1037 C   0  0  0  0  0  0  0  0  0  0  0  0
   -5.8208   -3.1004   -1.2074 C   0  0  0  0  0  0  0  0  0  0  0  0
   -4.6673   -1.4914   -2.3129 C   0  0  0  0  0  0  0  0  0  0  0  0
   -2.8396   -0.9343   -0.7271 C   0  0  0  0  0  0  0  0  0  0  0  0
   -5.7562   -2.3433   -2.3726 N   0  0  0  0  0  0  0  0  0  0  0  0
   -1.0757    0.5856   -1.3344 N   0  0  0  0  0  0  0  0  0  0  0  0
   -5.4706   -3.0026    1.9206 O   0  0  0  0  0  0  0  0  0  0  0  0
   -4.8211   -0.1964   -4.2841 O   0  0  0  0  0  0  0  0  0  0  0  0
   -2.4024   -0.9473    0.4240 O   0  0  0  0  0  0  0  0  0  0  0  0
    0.8250   -0.2894   -2.1590 H   0  0  0  0  0  0  0  0  0  0  0  0
    0.6139   -1.0755    0.3113 H   0  0  0  0  0  0  0  0  0  0  0  0
    0.5778    0.6384    0.7548 H   0  0  0  0  0  0  0  0  0  0  0  0
    2.0116   -0.0469   -0.0309 H   0  0  0  0  0  0  0  0  0  0  0  0
   -7.1521   -1.4614   -3.6403 H   0  0  0  0  0  0  0  0  0  0  0  0
   -6.0935   -2.7116   -4.3896 H   0  0  0  0  0  0  0  0  0  0  0  0
   -7.4418   -3.1800   -3.3317 H   0  0  0  0  0  0  0  0  0  0  0  0
   -9.6143   -6.7962   -0.3144 H   0  0  0  0  0  0  0  0  0  0  0  0
   -9.3289   -4.9022    1.2654 H   0  0  0  0  0  0  0  0  0  0  0  0
   -8.1254   -6.9844   -2.2945 H   0  0  0  0  0  0  0  0  0  0  0  0
   -7.6179   -3.1988    0.8503 H   0  0  0  0  0  0  0  0  0  0  0  0
   -6.2357   -5.4137   -2.5759 H   0  0  0  0  0  0  0  0  0  0  0  0
   -2.4834    0.7199   -3.7887 H   0  0  0  0  0  0  0  0  0  0  0  0
   -0.1901    2.4271   -1.0162 H   0  0  0  0  0  0  0  0  0  0  0  0
   -0.0633    1.9125   -2.7801 H   0  0  0  0  0  0  0  0  0  0  0  0
   -4.2787   -4.3167    0.8898 H   0  0  0  0  0  0  0  0  0  0  0  0
   -3.5282   -2.8010    1.3781 H   0  0  0  0  0  0  0  0  0  0  0  0
   -5.7018   -2.0628    1.8405 H   0  0  0  0  0  0  0  0  0  0  0  0
  1 26  1  0  0  0  0
  1 27  1  0  0  0  0
  1 28  1  0  0  0  0
  2 29  1  0  0  0  0
  2 30  1  0  0  0  0
  2 31  1  0  0  0  0
  3 32  1  0  0  0  0
  4  3  2  0  0  0  0
  4 33  1  0  0  0  0
  5  3  1  0  0  0  0
  5 34  1  0  0  0  0
  6  4  1  0  0  0  0
  6 35  1  0  0  0  0
  7  5  2  0  0  0  0
  7 36  1  0  0  0  0
  8 37  1  0  0  0  0
  9 38  1  0  0  0  0
  9 39  1  0  0  0  0
 10 40  1  0  0  0  0
 10 41  1  0  0  0  0
 11  1  1  0  0  0  0
 11  9  1  0  0  0  0
 11 25  1  6  0  0  0
 12  6  2  0  0  0  0
 12  7  1  0  0  0  0
 13 10  1  0  0  0  0
 14  8  2  0  0  0  0
 15  8  1  0  0  0  0
 16 13  1  0  0  0  0
 17 12  1  0  0  0  0
 17 13  2  0  0  0  0
 18 15  1  0  0  0  0
 18 16  2  0  0  0  0
 19 14  1  0  0  0  0
 19 16  1  0  0  0  0
 20  2  1  0  0  0  0
 20 17  1  0  0  0  0
 20 18  1  0  0  0  0
 21  9  1  0  0  0  0
 21 11  1  0  0  0  0
 21 14  1  0  0  0  0
 22 10  1  0  0  0  0
 22 42  1  0  0  0  0
 23 15  2  0  0  0  0
 24 19  2  0  0  0  0
M  END
>  <DRUGBANK_ID>
DB07385

>  <COMMON_NAME>
3-(HYDROXYMETHYL)-1-METHYL-5-(2-METHYLAZIRIDIN-1-YL)-2-PHENYL-1H-INDOLE-4,7-DIONE

$$$$
