
 OpenBabel10282417193D

 47 48  0  0  0  0  0  0  0  0999 V2000
    0.3752   -0.1252   -0.0024 C   0  0  0  0  0  0  0  0  0  0  0  0
   -1.2344    1.9892    2.2608 C   0  0  0  0  0  0  0  0  0  0  0  0
    1.7379    2.3545   -7.0571 C   0  0  0  0  0  0  0  0  0  0  0  0
    1.8330   -1.5935  -10.2119 C   0  0  0  0  0  0  0  0  0  0  0  0
    2.7762    1.0718   -1.3551 C   0  0  0  0  0  0  0  0  0  0  0  0
    3.7457   -0.5490    0.1355 C   0  0  0  0  0  0  0  0  0  0  0  0
    2.3041   -0.5820   -6.5050 C   0  0  0  0  0  0  0  0  0  0  0  0
    0.3436   -1.8821   -6.5770 C   0  0  0  0  0  0  0  0  0  0  0  0
    2.5922    0.0507   -2.3184 C   0  0  0  0  0  0  0  0  0  0  0  0
    3.6069   -1.5491   -0.8544 C   0  0  0  0  0  0  0  0  0  0  0  0
    2.6776   -1.0706   -5.2616 C   0  0  0  0  0  0  0  0  0  0  0  0
    0.7750   -2.4733   -5.3459 C   0  0  0  0  0  0  0  0  0  0  0  0
    3.1608    0.7137   -0.0584 C   0  0  0  0  0  0  0  0  0  0  0  0
    1.1228   -0.8989   -7.2000 C   0  0  0  0  0  0  0  0  0  0  0  0
    2.9613   -1.2823   -2.0714 C   0  0  0  0  0  0  0  0  0  0  0  0
    1.9102   -2.0392   -4.6491 C   0  0  0  0  0  0  0  0  0  0  0  0
    0.5495    1.3102   -0.1346 O   0  0  0  0  0  0  0  0  0  0  0  0
    0.0281    1.3179    2.1524 O   0  0  0  0  0  0  0  0  0  0  0  0
    2.3380    1.4004   -7.9135 O   0  0  0  0  0  0  0  0  0  0  0  0
    2.4930   -0.3504   -9.8986 O   0  0  0  0  0  0  0  0  0  0  0  0
    2.5563    1.2461    1.1165 O   0  0  0  0  0  0  0  0  0  0  0  0
    0.6922   -0.3623   -8.4620 O   0  0  0  0  0  0  0  0  0  0  0  0
    1.1262    2.1690    1.2521 P   0  0  0  0  0  0  0  0  0  0  0  0
    1.5769    0.8939   -9.2571 P   0  0  0  0  0  0  0  0  0  0  0  0
    1.7587    3.1108    2.7729 S   0  0  0  0  0  0  0  0  0  0  0  0
    2.5472    2.2717  -10.1291 S   0  0  0  0  0  0  0  0  0  0  0  0
    2.4757   -2.6960   -3.0962 S   0  0  0  0  0  0  0  0  0  0  0  0
   -0.0375   -0.5286   -0.9274 H   0  0  0  0  0  0  0  0  0  0  0  0
   -0.2217   -0.4331    0.8536 H   0  0  0  0  0  0  0  0  0  0  0  0
    1.3111   -0.6435    0.1602 H   0  0  0  0  0  0  0  0  0  0  0  0
   -1.1111    2.9834    2.7050 H   0  0  0  0  0  0  0  0  0  0  0  0
   -1.6768    2.1127    1.2675 H   0  0  0  0  0  0  0  0  0  0  0  0
   -1.9061    1.4116    2.8965 H   0  0  0  0  0  0  0  0  0  0  0  0
    1.6574    3.3270   -7.5438 H   0  0  0  0  0  0  0  0  0  0  0  0
    0.7557    1.9937   -6.7550 H   0  0  0  0  0  0  0  0  0  0  0  0
    2.3799    2.4550   -6.1772 H   0  0  0  0  0  0  0  0  0  0  0  0
    1.9819   -2.2621   -9.3579 H   0  0  0  0  0  0  0  0  0  0  0  0
    0.7518   -1.4781  -10.3924 H   0  0  0  0  0  0  0  0  0  0  0  0
    2.2552   -2.0786  -11.0922 H   0  0  0  0  0  0  0  0  0  0  0  0
    2.3325    2.0406   -1.5725 H   0  0  0  0  0  0  0  0  0  0  0  0
    4.0950   -0.8376    1.1234 H   0  0  0  0  0  0  0  0  0  0  0  0
    3.0946    0.0885   -6.8250 H   0  0  0  0  0  0  0  0  0  0  0  0
   -0.5772   -2.2235   -7.0325 H   0  0  0  0  0  0  0  0  0  0  0  0
    1.9951    0.3045   -3.1914 H   0  0  0  0  0  0  0  0  0  0  0  0
    3.8608   -2.5762   -0.5907 H   0  0  0  0  0  0  0  0  0  0  0  0
    3.5789   -0.6734   -4.8055 H   0  0  0  0  0  0  0  0  0  0  0  0
    0.1992   -3.3071   -4.9377 H   0  0  0  0  0  0  0  0  0  0  0  0
  1 28  1  0  0  0  0
  1 29  1  0  0  0  0
  1 30  1  0  0  0  0
  2 31  1  0  0  0  0
  2 32  1  0  0  0  0
  2 33  1  0  0  0  0
  3 34  1  0  0  0  0
  3 35  1  0  0  0  0
  3 36  1  0  0  0  0
  4 37  1  0  0  0  0
  4 38  1  0  0  0  0
  4 39  1  0  0  0  0
  5 40  1  0  0  0  0
  6 41  1  0  0  0  0
  7 42  1  0  0  0  0
  8 43  1  0  0  0  0
  9  5  1  0  0  0  0
  9 44  1  0  0  0  0
 10  6  2  0  0  0  0
 10 45  1  0  0  0  0
 11  7  1  0  0  0  0
 11 46  1  0  0  0  0
 12  8  2  0  0  0  0
 12 47  1  0  0  0  0
 13  5  2  0  0  0  0
 13  6  1  0  0  0  0
 14  7  2  0  0  0  0
 14  8  1  0  0  0  0
 15  9  2  0  0  0  0
 15 10  1  0  0  0  0
 16 11  2  0  0  0  0
 16 12  1  0  0  0  0
 17  1  1  0  0  0  0
 18  2  1  0  0  0  0
 19  3  1  0  0  0  0
 20  4  1  0  0  0  0
 21 13  1  0  0  0  0
 22 14  1  0  0  0  0
 23 17  1  0  0  0  0
 23 18  1  0  0  0  0
 23 21  1  0  0  0  0
 24 19  1  0  0  0  0
 24 20  1  0  0  0  0
 24 22  1  0  0  0  0
 25 23  2  0  0  0  0
 26 24  2  0  0  0  0
 27 15  1  0  0  0  0
 27 16  1  0  0  0  0
M  END
>  <DRUGBANK_ID>
DB12231

>  <COMMON_NAME>
Temefos

>  <CAS_NUMBER>
3383-96-8

>  <UNII>
ONP3ME32DL

>  <SYNONYMS>
Diphos; Temefos

$$$$
