
 OpenBabel10282417123D

  9  8  0  0  0  0  0  0  0  0999 V2000
    0.9103    0.0446    0.1148 C   0  0  0  0  0  0  0  0  0  0  0  0
    0.2833    0.2474   -1.0526 C   0  0  0  0  0  0  0  0  0  0  0  0
    0.3750   -0.1691    1.3445 N   0  0  0  0  0  0  0  0  0  0  0  0
   -1.4349    0.2815   -1.2488 S   0  0  0  0  0  0  0  0  0  0  0  0
    2.0006    0.0425    0.1267 H   0  0  0  0  0  0  0  0  0  0  0  0
    0.8748    0.4033   -1.9494 H   0  0  0  0  0  0  0  0  0  0  0  0
    0.9685   -0.3097    2.1535 H   0  0  0  0  0  0  0  0  0  0  0  0
   -0.6273   -0.1906    1.4685 H   0  0  0  0  0  0  0  0  0  0  0  0
   -1.8187    0.0621    0.0142 H   0  0  0  0  0  0  0  0  0  0  0  0
  2  1  2  0  0  0  0
  3  1  1  0  0  0  0
  3  7  1  0  0  0  0
  3  8  1  0  0  0  0
  4  2  1  0  0  0  0
  4  9  1  0  0  0  0
  5  1  1  0  0  0  0
  6  2  1  0  0  0  0
M  END
>  <DRUGBANK_ID>
DB01968

>  <SECONDARY_ACCESSION_NUMBERS>
EXPT03035

>  <COMMON_NAME>
2-Thioethenamine

$$$$
