
 OpenBabel10282417193D

 68 71  0  0  1  0  0  0  0  0999 V2000
    0.7670    3.6469   -4.5194 C   0  0  0  0  0  0  0  0  0  0  0  0
    0.2515    3.6316   -3.2100 N   0  0  0  0  0  0  0  0  0  0  0  0
   -0.8669    2.6741   -3.0804 C   0  0  0  0  0  0  0  0  0  0  0  0
   -0.3328    1.4621   -2.3848 C   0  0  0  0  0  0  0  0  0  0  0  0
    0.4694    2.0966   -1.1453 C   0  0  0  0  0  0  0  0  0  0  0  0
   -0.3222    2.6214    0.5329 C   0  0  0  0  0  0  0  0  0  0  0  0
   -0.1173    2.6474    2.1230 C   0  0  0  0  0  0  0  0  0  0  0  0
    1.1223    2.0727    2.1126 C   0  0  0  0  0  0  0  0  0  0  0  0
    2.5812    1.5736    0.8215 C   0  0  0  0  0  0  0  0  0  0  0  0
    2.1696    1.6254   -0.9742 C   0  0  0  0  0  0  0  0  0  0  0  0
    3.9851    1.1059    1.1202 C   0  0  0  0  0  0  0  0  0  0  0  0
    4.0869   -0.1598    0.6678 F   0  0  0  0  0  0  0  0  0  0  0  0
    4.8117    1.9582    0.5007 F   0  0  0  0  0  0  0  0  0  0  0  0
    4.4873    1.0091    2.4014 F   0  0  0  0  0  0  0  0  0  0  0  0
   -0.9871    3.2231    3.5973 C   0  0  0  0  0  0  0  0  0  0  0  0
   -1.2885    2.1898    4.4227 F   0  0  0  0  0  0  0  0  0  0  0  0
   -0.2348    4.1599    4.2631 F   0  0  0  0  0  0  0  0  0  0  0  0
   -2.2151    3.9506    3.6876 F   0  0  0  0  0  0  0  0  0  0  0  0
    1.0614    4.2767   -2.1872 C   0  0  0  0  0  0  0  0  0  0  0  0
    2.1495    4.8063   -2.4392 O   0  0  0  0  0  0  0  0  0  0  0  0
    0.5888    4.2417   -0.6912 C   0  0  2  0  0  0  0  0  0  0  0  0
    1.4877    2.9825    0.3870 C   0  0  0  0  0  0  0  0  0  0  0  0
    0.8528    1.0593    0.4462 C   0  0  0  0  0  0  0  0  0  0  0  0
    1.2456   -0.1071    1.4131 C   0  0  0  0  0  0  0  0  0  0  0  0
    2.2394    0.4645    2.7041 C   0  0  0  0  0  0  0  0  0  0  0  0
    2.9058    2.2245    2.8958 C   0  0  0  0  0  0  0  0  0  0  0  0
    2.4826    3.5667    1.7117 C   0  0  0  0  0  0  0  0  0  0  0  0
   -1.1510    4.1236   -0.8578 N   0  0  0  0  0  0  0  0  0  0  0  0
   -1.5191    5.2058    0.3431 C   0  0  0  0  0  0  0  0  0  0  0  0
   -1.5911    4.5650    1.7074 C   0  0  0  0  0  0  0  0  0  0  0  0
   -2.3835    2.8847    1.8870 N   0  0  0  0  0  0  0  0  0  0  0  0
   -2.0439    1.5510    1.0420 C   0  0  0  0  0  0  0  0  0  0  0  0
   -1.8800    2.3321   -0.6398 C   0  0  0  0  0  0  0  0  0  0  0  0
   -3.7649    2.7662    2.0582 C   0  0  0  0  0  0  0  0  0  0  0  0
   -4.4635    3.3069    0.8529 C   0  0  0  0  0  0  0  0  0  0  0  0
   -4.6139    2.5337   -0.5689 C   0  0  0  0  0  0  0  0  0  0  0  0
   -3.9957    3.9401   -0.3790 C   0  0  0  0  0  0  0  0  0  0  0  0
    0.0936    3.0822   -5.1704 H   0  0  0  0  0  0  0  0  0  0  0  0
    1.7558    3.1918   -4.5186 H   0  0  0  0  0  0  0  0  0  0  0  0
    0.7599    4.6964   -4.7775 H   0  0  0  0  0  0  0  0  0  0  0  0
   -1.7266    3.1975   -2.6521 H   0  0  0  0  0  0  0  0  0  0  0  0
   -1.3422    2.3198   -4.0024 H   0  0  0  0  0  0  0  0  0  0  0  0
   -1.1621    0.6987   -2.2470 H   0  0  0  0  0  0  0  0  0  0  0  0
    0.3640    0.7899   -2.8739 H   0  0  0  0  0  0  0  0  0  0  0  0
   -1.1344    3.2328    0.5926 H   0  0  0  0  0  0  0  0  0  0  0  0
    1.1336    2.4007    3.2120 H   0  0  0  0  0  0  0  0  0  0  0  0
    2.7061    1.2336   -1.8203 H   0  0  0  0  0  0  0  0  0  0  0  0
    0.8428    5.1576   -0.1404 H   0  0  0  0  0  0  0  0  0  0  0  0
    0.4663    0.3965   -0.4603 H   0  0  0  0  0  0  0  0  0  0  0  0
    1.3557   -1.0356    0.7830 H   0  0  0  0  0  0  0  0  0  0  0  0
    2.6044   -0.4344    3.1661 H   0  0  0  0  0  0  0  0  0  0  0  0
    3.1648    2.5894    3.8716 H   0  0  0  0  0  0  0  0  0  0  0  0
    1.9748    4.5040    2.0485 H   0  0  0  0  0  0  0  0  0  0  0  0
   -0.8979    6.1218    0.2894 H   0  0  0  0  0  0  0  0  0  0  0  0
   -2.5201    5.6205    0.4293 H   0  0  0  0  0  0  0  0  0  0  0  0
   -0.4676    4.6264    1.9364 H   0  0  0  0  0  0  0  0  0  0  0  0
   -1.8430    5.3105    2.4744 H   0  0  0  0  0  0  0  0  0  0  0  0
   -1.1148    1.0524    1.4220 H   0  0  0  0  0  0  0  0  0  0  0  0
   -2.3749    0.4765    1.1498 H   0  0  0  0  0  0  0  0  0  0  0  0
   -2.8017    2.4466   -0.3886 H   0  0  0  0  0  0  0  0  0  0  0  0
   -1.4860    1.3577   -0.8510 H   0  0  0  0  0  0  0  0  0  0  0  0
   -3.8973    1.6963    2.3291 H   0  0  0  0  0  0  0  0  0  0  0  0
   -4.0393    3.2766    2.9768 H   0  0  0  0  0  0  0  0  0  0  0  0
   -5.0933    4.0430    1.2771 H   0  0  0  0  0  0  0  0  0  0  0  0
   -4.0671    1.4974   -0.5388 H   0  0  0  0  0  0  0  0  0  0  0  0
   -4.2818    2.4953   -1.6430 H   0  0  0  0  0  0  0  0  0  0  0  0
   -3.4468    4.6858   -1.0108 H   0  0  0  0  0  0  0  0  0  0  0  0
   -2.9584    4.0128   -0.1189 H   0  0  0  0  0  0  0  0  0  0  0  0
  1  2  1  0  0  0  0
  1 38  1  0  0  0  0
  1 39  1  0  0  0  0
  1 40  1  0  0  0  0
  2  3  1  0  0  0  0
  2 19  1  0  0  0  0
  3  4  1  0  0  0  0
  3 41  1  0  0  0  0
  3 42  1  0  0  0  0
  4  5  1  0  0  0  0
  4 43  1  0  0  0  0
  4 44  1  0  0  0  0
  5  6  2  0  0  0  0
  5 10  1  0  0  0  0
  6  7  1  0  0  0  0
  6 45  1  0  0  0  0
  7  8  2  0  0  0  0
  7 15  1  0  0  0  0
  8  9  1  0  0  0  0
  8 46  1  0  0  0  0
  9 10  2  0  0  0  0
  9 11  1  0  0  0  0
 10 47  1  0  0  0  0
 11 12  1  0  0  0  0
 11 13  1  0  0  0  0
 11 14  1  0  0  0  0
 15 16  1  0  0  0  0
 15 17  1  0  0  0  0
 15 18  1  0  0  0  0
 19 20  2  0  0  0  0
 21 28  1  0  0  0  0
 21 48  1  1  0  0  0
 21 22  1  0  0  0  0
 21 19  1  0  0  0  0
 22 23  2  0  0  0  0
 22 27  1  0  0  0  0
 23 24  1  0  0  0  0
 23 49  1  0  0  0  0
 24 25  2  0  0  0  0
 24 50  1  0  0  0  0
 25 26  1  0  0  0  0
 25 51  1  0  0  0  0
 26 27  2  0  0  0  0
 26 52  1  0  0  0  0
 27 53  1  0  0  0  0
 28 29  1  0  0  0  0
 28 33  1  0  0  0  0
 29 30  1  0  0  0  0
 29 54  1  0  0  0  0
 29 55  1  0  0  0  0
 30 31  1  0  0  0  0
 30 56  1  0  0  0  0
 30 57  1  0  0  0  0
 31 32  1  0  0  0  0
 31 34  1  0  0  0  0
 32 33  1  0  0  0  0
 32 58  1  0  0  0  0
 32 59  1  0  0  0  0
 33 60  1  0  0  0  0
 33 61  1  0  0  0  0
 34 35  1  0  0  0  0
 34 62  1  0  0  0  0
 34 63  1  0  0  0  0
 35 36  1  0  0  0  0
 35 37  1  0  0  0  0
 35 64  1  0  0  0  0
 36 37  1  0  0  0  0
 36 65  1  0  0  0  0
 36 66  1  0  0  0  0
 37 67  1  0  0  0  0
 37 68  1  0  0  0  0
M  END
>  <DRUGBANK_ID>
DB12122

>  <COMMON_NAME>
Figopitant

>  <CAS_NUMBER>
502422-74-4

>  <UNII>
23X73B9O6Q

>  <SYNONYMS>
Figopitant

$$$$
