S17
 OpenBabel10282417173D

 51 51  0  0  0  0  0  0  0  0999 V2000
    2.3388   -1.1057    1.0184 C   0  0  0  0  0  0  0  0  0  0  0  0
    0.9064   -1.1616    0.8638 C   0  0  0  0  0  0  0  0  0  0  0  0
    0.1736    0.0123    0.6933 C   0  0  0  0  0  0  0  0  0  0  0  0
   -1.6375   -0.0324    0.1198 Br  0  0  0  0  0  0  0  0  0  0  0  0
    0.8635    1.2205    0.6198 C   0  0  0  0  0  0  0  0  0  0  0  0
    2.2679    1.2658    0.7416 C   0  0  0  0  0  0  0  0  0  0  0  0
    3.0601    0.1247    0.8362 C   0  0  0  0  0  0  0  0  0  0  0  0
    4.6041    0.2265    0.5245 C   0  0  0  0  0  0  0  0  0  0  0  0
    5.3111    1.0355   -0.7352 C   0  0  1  0  0  0  0  0  0  0  0  0
    4.8772    2.4889   -1.0188 C   0  0  0  0  0  0  0  0  0  0  0  0
    5.6051    3.4655   -0.9561 O   0  0  0  0  0  0  0  0  0  0  0  0
    3.5698    2.5322   -1.4378 O   0  0  0  0  0  0  0  0  0  0  0  0
    2.9442    3.8201   -1.3640 C   0  0  0  0  0  0  0  0  0  0  0  0
    6.7664    0.6915   -1.0034 N   0  0  0  0  0  0  0  0  0  0  0  0
    7.4564    0.0942   -2.0561 C   0  0  0  0  0  0  0  0  0  0  0  0
    8.6923    0.1181   -1.9804 O   0  0  0  0  0  0  0  0  0  0  0  0
    6.8557   -0.6024   -3.3179 C   0  0  0  0  0  0  0  0  0  0  0  0
    6.0349   -1.8648   -3.0872 C   0  0  0  0  0  0  0  0  0  0  0  0
    4.8365   -1.4487   -2.3272 C   0  0  0  0  0  0  0  0  0  0  0  0
    4.0024   -0.3409   -3.1399 C   0  0  0  0  0  0  0  0  0  0  0  0
    3.0622   -0.9356   -4.1645 C   0  0  0  0  0  0  0  0  0  0  0  0
    2.0882   -2.0011   -3.6299 C   0  0  0  0  0  0  0  0  0  0  0  0
    0.9377   -1.3297   -2.8770 C   0  0  0  0  0  0  0  0  0  0  0  0
   -0.2252   -1.6268   -2.8691 O   0  0  0  0  0  0  0  0  0  0  0  0
    1.4669   -0.4103   -2.0018 N   0  0  0  0  0  0  0  0  0  0  0  0
    2.3332   -1.2933   -1.3052 O   0  0  0  0  0  0  0  0  0  0  0  0
    4.9530    0.6618   -1.6402 H   0  0  0  0  0  0  0  0  0  0  0  0
    2.8509   -2.0689    0.8726 H   0  0  0  0  0  0  0  0  0  0  0  0
    0.4439   -2.1047    0.5293 H   0  0  0  0  0  0  0  0  0  0  0  0
    0.3507    2.1176    0.2721 H   0  0  0  0  0  0  0  0  0  0  0  0
    2.7466    2.2226    0.6290 H   0  0  0  0  0  0  0  0  0  0  0  0
    5.0686    0.6216    1.4257 H   0  0  0  0  0  0  0  0  0  0  0  0
    4.9425   -0.8205    0.4774 H   0  0  0  0  0  0  0  0  0  0  0  0
    3.2073    4.3011   -0.4169 H   0  0  0  0  0  0  0  0  0  0  0  0
    3.2237    4.4357   -2.2185 H   0  0  0  0  0  0  0  0  0  0  0  0
    1.8550    3.6826   -1.3638 H   0  0  0  0  0  0  0  0  0  0  0  0
    7.4176    1.1371   -0.3661 H   0  0  0  0  0  0  0  0  0  0  0  0
    6.3365    0.1441   -3.9177 H   0  0  0  0  0  0  0  0  0  0  0  0
    7.6657   -0.9114   -3.9880 H   0  0  0  0  0  0  0  0  0  0  0  0
    5.6647   -2.3575   -3.9910 H   0  0  0  0  0  0  0  0  0  0  0  0
    6.5996   -2.6059   -2.5072 H   0  0  0  0  0  0  0  0  0  0  0  0
    4.2808   -2.3167   -1.9697 H   0  0  0  0  0  0  0  0  0  0  0  0
    5.2812   -1.1488   -1.3849 H   0  0  0  0  0  0  0  0  0  0  0  0
    3.4270    0.3524   -2.5133 H   0  0  0  0  0  0  0  0  0  0  0  0
    4.5918    0.4442   -3.6298 H   0  0  0  0  0  0  0  0  0  0  0  0
    2.4886   -0.0979   -4.5821 H   0  0  0  0  0  0  0  0  0  0  0  0
    3.7035   -1.3518   -4.9346 H   0  0  0  0  0  0  0  0  0  0  0  0
    1.6470   -2.5661   -4.4368 H   0  0  0  0  0  0  0  0  0  0  0  0
    2.5998   -2.7209   -2.9760 H   0  0  0  0  0  0  0  0  0  0  0  0
    0.7905    0.0604   -1.4259 H   0  0  0  0  0  0  0  0  0  0  0  0
    3.1510   -0.7949   -1.2173 H   0  0  0  0  0  0  0  0  0  0  0  0
  1  2  1  0  0  0  0
  1  7  2  0  0  0  0
  1 28  1  0  0  0  0
  2  3  2  0  0  0  0
  2 29  1  0  0  0  0
  3  4  1  0  0  0  0
  3  5  1  0  0  0  0
  5  6  2  0  0  0  0
  5 30  1  0  0  0  0
  6  7  1  0  0  0  0
  6 31  1  0  0  0  0
  7  8  1  0  0  0  0
  8  9  1  0  0  0  0
  8 32  1  0  0  0  0
  8 33  1  0  0  0  0
  9 10  1  0  0  0  0
  9 14  1  0  0  0  0
  9 27  1  6  0  0  0
 10 11  2  0  0  0  0
 10 12  1  0  0  0  0
 12 13  1  0  0  0  0
 13 34  1  0  0  0  0
 13 35  1  0  0  0  0
 13 36  1  0  0  0  0
 14 15  1  0  0  0  0
 14 37  1  0  0  0  0
 15 16  2  0  0  0  0
 15 17  1  0  0  0  0
 17 18  1  0  0  0  0
 17 38  1  0  0  0  0
 17 39  1  0  0  0  0
 18 19  1  0  0  0  0
 18 40  1  0  0  0  0
 18 41  1  0  0  0  0
 19 20  1  0  0  0  0
 19 42  1  0  0  0  0
 19 43  1  0  0  0  0
 20 21  1  0  0  0  0
 20 44  1  0  0  0  0
 20 45  1  0  0  0  0
 21 22  1  0  0  0  0
 21 46  1  0  0  0  0
 21 47  1  0  0  0  0
 22 23  1  0  0  0  0
 22 48  1  0  0  0  0
 22 49  1  0  0  0  0
 23 24  2  0  0  0  0
 23 25  1  0  0  0  0
 25 26  1  0  0  0  0
 25 50  1  0  0  0  0
 26 51  1  0  0  0  0
M  END
>  <DRUGBANK_ID>
DB08505

>  <COMMON_NAME>
methyl 4-bromo-N-[8-(hydroxyamino)-8-oxooctanoyl]-L-phenylalaninate

$$$$
