
 OpenBabel10282417153D

 32 32  0  0  0  0  0  0  0  0999 V2000
    1.0530   -0.1709    0.0618 C   0  0  0  0  0  0  0  0  0  0  0  0
    0.5854    0.0143    1.5134 C   0  0  3  0  0  0  0  0  0  0  0  0
    1.0537    1.3892    2.0513 C   0  0  0  0  0  0  0  0  0  0  0  0
    0.5436    2.6474    1.3085 C   0  0  0  0  0  0  0  0  0  0  0  0
    1.3225    3.8790    1.8024 C   0  0  0  0  0  0  0  0  0  0  0  0
    0.8709    5.1451    1.0778 C   0  0  0  0  0  0  0  0  0  0  0  0
   -0.6295    5.3731    1.2251 C   0  0  0  0  0  0  0  0  0  0  0  0
   -1.4120    4.1696    0.7312 C   0  0  0  0  0  0  0  0  0  0  0  0
   -0.9665    2.9063    1.4516 C   0  0  0  0  0  0  0  0  0  0  0  0
   -0.8504   -0.2632    1.5845 N   0  0  0  0  0  0  0  0  0  0  0  0
   -1.4441   -0.0469    2.8948 C   0  0  0  0  0  0  0  0  0  0  0  0
    0.6381    0.5889   -0.6092 H   0  0  0  0  0  0  0  0  0  0  0  0
    0.7553   -1.1469   -0.3350 H   0  0  0  0  0  0  0  0  0  0  0  0
    2.1455   -0.1077    0.0023 H   0  0  0  0  0  0  0  0  0  0  0  0
    1.0875   -0.7601    2.1085 H   0  0  0  0  0  0  0  0  0  0  0  0
    0.8299    1.4733    3.1220 H   0  0  0  0  0  0  0  0  0  0  0  0
    2.1527    1.3872    2.0040 H   0  0  0  0  0  0  0  0  0  0  0  0
    0.7715    2.5397    0.2422 H   0  0  0  0  0  0  0  0  0  0  0  0
    1.1824    4.0016    2.8841 H   0  0  0  0  0  0  0  0  0  0  0  0
    2.3964    3.7334    1.6339 H   0  0  0  0  0  0  0  0  0  0  0  0
    1.4163    6.0090    1.4697 H   0  0  0  0  0  0  0  0  0  0  0  0
    1.1218    5.0578    0.0132 H   0  0  0  0  0  0  0  0  0  0  0  0
   -0.8723    5.5531    2.2796 H   0  0  0  0  0  0  0  0  0  0  0  0
   -0.9329    6.2621    0.6638 H   0  0  0  0  0  0  0  0  0  0  0  0
   -2.4850    4.3220    0.8953 H   0  0  0  0  0  0  0  0  0  0  0  0
   -1.2694    4.0412   -0.3491 H   0  0  0  0  0  0  0  0  0  0  0  0
   -1.5590    2.1024    1.0221 H   0  0  0  0  0  0  0  0  0  0  0  0
   -1.2334    2.9860    2.5121 H   0  0  0  0  0  0  0  0  0  0  0  0
   -1.3521    0.2553    0.8656 H   0  0  0  0  0  0  0  0  0  0  0  0
   -1.2094    0.9247    3.3362 H   0  0  0  0  0  0  0  0  0  0  0  0
   -2.5347   -0.0852    2.8131 H   0  0  0  0  0  0  0  0  0  0  0  0
   -1.1277   -0.8239    3.5949 H   0  0  0  0  0  0  0  0  0  0  0  0
  1  2  1  0  0  0  0
  1 12  1  0  0  0  0
  1 13  1  0  0  0  0
  1 14  1  0  0  0  0
  2  3  1  0  0  0  0
  2 10  1  0  0  0  0
  2 15  1  0  0  0  0
  3  4  1  0  0  0  0
  3 16  1  0  0  0  0
  3 17  1  0  0  0  0
  4  5  1  0  0  0  0
  4  9  1  0  0  0  0
  4 18  1  0  0  0  0
  5  6  1  0  0  0  0
  5 19  1  0  0  0  0
  5 20  1  0  0  0  0
  6  7  1  0  0  0  0
  6 21  1  0  0  0  0
  6 22  1  0  0  0  0
  7  8  1  0  0  0  0
  7 23  1  0  0  0  0
  7 24  1  0  0  0  0
  8  9  1  0  0  0  0
  8 25  1  0  0  0  0
  8 26  1  0  0  0  0
  9 27  1  0  0  0  0
  9 28  1  0  0  0  0
 10 11  1  0  0  0  0
 10 29  1  0  0  0  0
 11 30  1  0  0  0  0
 11 31  1  0  0  0  0
 11 32  1  0  0  0  0
M  END
>  <DRUGBANK_ID>
DB06714

>  <COMMON_NAME>
Propylhexedrine

>  <CAS_NUMBER>
101-40-6

>  <UNII>
LQU92IU8LL

>  <SYNONYMS>
Propylhexedrine

$$$$
