
 OpenBabel10282417213D

 52 55  0  0  0  0  0  0  0  0999 V2000
   -8.2608   -0.5105    4.3588 O   0  0  0  0  0  0  0  0  0  0  0  0
   -7.7029   -0.2433    3.0168 C   0  0  1  0  0  0  0  0  0  0  0  0
   -8.9097   -0.9795    1.9986 C   0  0  0  0  0  0  0  0  0  0  0  0
   -6.3607    1.1211    3.0115 C   0  0  2  0  0  0  0  0  0  0  0  0
   -6.5757   -1.2371    2.9347 C   0  0  0  0  0  0  0  0  0  0  0  0
   -9.7019   -2.3707    2.4158 C   0  0  0  0  0  0  0  0  0  0  0  0
   -9.1505   -0.5596    0.8601 O   0  0  0  0  0  0  0  0  0  0  0  0
   -5.1195    0.9707    1.9439 C   0  0  0  0  0  0  0  0  0  0  0  0
   -5.8457    0.6440    4.3893 C   0  0  1  0  0  0  0  0  0  0  0  0
   -6.2593    2.7857    3.2570 C   0  0  0  0  0  0  0  0  0  0  0  0
   -6.2989   -1.9376    1.8150 C   0  0  0  0  0  0  0  0  0  0  0  0
   -5.6039   -0.8611    4.0461 C   0  0  0  0  0  0  0  0  0  0  0  0
   -4.6968    1.3173    5.2110 C   0  0  1  0  0  0  0  0  0  0  0  0
   -4.9023    3.4232    4.2024 C   0  0  0  0  0  0  0  0  0  0  0  0
   -4.9756    2.8038    5.7788 C   0  0  2  0  0  0  0  0  0  0  0  0
   -4.4531    0.5020    6.4192 C   0  0  0  0  0  0  0  0  0  0  0  0
   -4.1691    3.2931    7.4351 C   0  0  2  0  0  0  0  0  0  0  0  0
   -3.1543    0.9462    7.0407 C   0  0  0  0  0  0  0  0  0  0  0  0
   -2.9458    2.4241    7.3227 C   0  0  0  0  0  0  0  0  0  0  0  0
   -4.3162    3.1711    9.3532 C   0  0  0  0  0  0  0  0  0  0  0  0
   -1.9314    2.8791    8.0793 C   0  0  0  0  0  0  0  0  0  0  0  0
   -2.8758    3.1819   10.2736 C   0  0  0  0  0  0  0  0  0  0  0  0
   -2.1863    2.2104    9.4184 C   0  0  0  0  0  0  0  0  0  0  0  0
   -2.2850    1.0589    9.6741 O   0  0  0  0  0  0  0  0  0  0  0  0
   -3.7900    1.2704    4.5751 H   0  0  0  0  0  0  0  0  0  0  0  0
   -6.0207    2.9900    6.0002 H   0  0  0  0  0  0  0  0  0  0  0  0
   -6.7100    0.8162    5.0441 H   0  0  0  0  0  0  0  0  0  0  0  0
   -3.9390    4.3602    7.3007 H   0  0  0  0  0  0  0  0  0  0  0  0
   -9.0060   -1.1399    4.3369 H   0  0  0  0  0  0  0  0  0  0  0  0
  -10.7935   -2.2458    2.2814 H   0  0  0  0  0  0  0  0  0  0  0  0
   -9.4512   -3.2035    1.7322 H   0  0  0  0  0  0  0  0  0  0  0  0
   -9.5778   -2.7792    3.4271 H   0  0  0  0  0  0  0  0  0  0  0  0
   -4.1977    1.3604    2.4030 H   0  0  0  0  0  0  0  0  0  0  0  0
   -4.8068   -0.0290    1.6385 H   0  0  0  0  0  0  0  0  0  0  0  0
   -5.2391    1.5576    1.0249 H   0  0  0  0  0  0  0  0  0  0  0  0
   -6.1578    3.2633    2.2586 H   0  0  0  0  0  0  0  0  0  0  0  0
   -7.1518    3.2074    3.7133 H   0  0  0  0  0  0  0  0  0  0  0  0
   -5.2847   -2.2501    1.5961 H   0  0  0  0  0  0  0  0  0  0  0  0
   -6.9915   -2.0268    0.9764 H   0  0  0  0  0  0  0  0  0  0  0  0
   -5.8127   -1.4630    4.9271 H   0  0  0  0  0  0  0  0  0  0  0  0
   -4.5782   -1.0134    3.7018 H   0  0  0  0  0  0  0  0  0  0  0  0
   -3.9738    3.1486    3.6427 H   0  0  0  0  0  0  0  0  0  0  0  0
   -4.9031    4.5217    4.1449 H   0  0  0  0  0  0  0  0  0  0  0  0
   -4.3555   -0.5573    6.1762 H   0  0  0  0  0  0  0  0  0  0  0  0
   -5.3275    0.6220    7.0658 H   0  0  0  0  0  0  0  0  0  0  0  0
   -2.3285    0.6547    6.3839 H   0  0  0  0  0  0  0  0  0  0  0  0
   -3.1235    0.3159    7.9191 H   0  0  0  0  0  0  0  0  0  0  0  0
   -4.5155    4.0359   10.0240 H   0  0  0  0  0  0  0  0  0  0  0  0
   -5.3274    2.8668    9.6739 H   0  0  0  0  0  0  0  0  0  0  0  0
   -1.9615    3.9739    8.2467 H   0  0  0  0  0  0  0  0  0  0  0  0
   -2.6778    2.7578   11.2836 H   0  0  0  0  0  0  0  0  0  0  0  0
   -2.4119    4.1934   10.3274 H   0  0  0  0  0  0  0  0  0  0  0  0
  1 29  1  0  0  0  0
  2  5  1  0  0  0  0
  2  3  1  6  0  0  0
  2  1  1  0  0  0  0
  3  6  1  0  0  0  0
  3  7  2  0  0  0  0
  4  2  1  0  0  0  0
  4  8  1  6  0  0  0
  4 10  1  0  0  0  0
  5 11  2  0  0  0  0
  5 12  1  0  0  0  0
  6 30  1  0  0  0  0
  6 31  1  0  0  0  0
  6 32  1  0  0  0  0
  8 33  1  0  0  0  0
  8 34  1  0  0  0  0
  8 35  1  0  0  0  0
  9  4  1  0  0  0  0
  9 12  1  0  0  0  0
  9 13  1  0  0  0  0
  9 27  1  1  0  0  0
 10 14  1  0  0  0  0
 10 36  1  0  0  0  0
 10 37  1  0  0  0  0
 11 38  1  0  0  0  0
 11 39  1  0  0  0  0
 12 40  1  0  0  0  0
 12 41  1  0  0  0  0
 13 15  1  0  0  0  0
 13 16  1  0  0  0  0
 13 25  1  6  0  0  0
 14 42  1  0  0  0  0
 14 43  1  0  0  0  0
 15 14  1  0  0  0  0
 15 17  1  0  0  0  0
 15 26  1  1  0  0  0
 16 18  1  0  0  0  0
 16 44  1  0  0  0  0
 16 45  1  0  0  0  0
 17 19  1  0  0  0  0
 17 20  1  0  0  0  0
 17 28  1  6  0  0  0
 18 19  1  0  0  0  0
 18 46  1  0  0  0  0
 18 47  1  0  0  0  0
 19 21  2  0  0  0  0
 20 22  1  0  0  0  0
 20 48  1  0  0  0  0
 20 49  1  0  0  0  0
 21 23  1  0  0  0  0
 21 50  1  0  0  0  0
 22 23  1  0  0  0  0
 22 51  1  0  0  0  0
 22 52  1  0  0  0  0
 23 24  2  0  0  0  0
M  END
>  <DRUGBANK_ID>
DB14584

>  <COMMON_NAME>
Segesterone

>  <CAS_NUMBER>
7690-08-6

>  <UNII>
09Q5UV3747

>  <SYNONYMS>
17-Hydroxy-16-methylene-19-norpregn-4-ene-3,20-dione; 17alpha-Deacetyl-Nestorone; Nestorone alcohol; Segesterone

$$$$
