
 OpenBabel10282417153D

 53 56  0  0  1  0  0  0  0  0999 V2000
   -3.7511    6.5603    1.2017 C   0  0  0  0  0  0  0  0  0  0  0  0
   -4.9894    5.9331    1.0246 C   0  0  0  0  0  0  0  0  0  0  0  0
   -5.0845    4.5420    0.9696 C   0  0  0  0  0  0  0  0  0  0  0  0
   -3.9051    3.8016    1.0659 C   0  0  0  0  0  0  0  0  0  0  0  0
   -2.6958    4.4414    1.2935 C   0  0  0  0  0  0  0  0  0  0  0  0
   -2.5682    5.8267    1.3611 C   0  0  0  0  0  0  0  0  0  0  0  0
   -1.7896    3.4192    1.4158 N   0  0  0  0  0  0  0  0  0  0  0  0
   -2.4745    2.2381    1.2460 C   0  0  0  0  0  0  0  0  0  0  0  0
   -3.7283    2.4589    0.9319 N   0  0  0  0  0  0  0  0  0  0  0  0
   -1.8153    0.9109    1.3472 C   0  0  0  0  0  0  0  0  0  0  0  0
   -2.2556    0.0670    2.4812 N   0  0  0  0  0  0  0  0  0  0  0  0
   -1.4285   -1.1449    2.4757 C   0  0  0  0  0  0  0  0  0  0  0  0
    0.0411   -0.9399    2.8117 C   0  0  0  0  0  0  0  0  0  0  0  0
    0.2122   -0.2381    4.1665 C   0  0  0  0  0  0  0  0  0  0  0  0
   -0.3791   -0.9977    5.3646 C   0  0  0  0  0  0  0  0  0  0  0  0
    0.2056   -2.3306    5.4964 N   0  0  0  0  0  0  0  0  0  0  0  0
   -3.7444   -0.1784    2.4539 C   0  0  1  0  0  0  0  0  0  0  0  0
   -4.1749   -1.6551    2.3006 C   0  0  0  0  0  0  0  0  0  0  0  0
   -4.0659   -2.4370    3.6066 C   0  0  0  0  0  0  0  0  0  0  0  0
   -4.9864   -1.8627    4.6576 C   0  0  0  0  0  0  0  0  0  0  0  0
   -5.0118   -0.3603    4.6841 C   0  0  0  0  0  0  0  0  0  0  0  0
   -4.4691    0.4423    3.6717 C   0  0  0  0  0  0  0  0  0  0  0  0
   -4.5977    1.7972    3.7102 N   0  0  0  0  0  0  0  0  0  0  0  0
   -5.2561    2.3652    4.7421 C   0  0  0  0  0  0  0  0  0  0  0  0
   -5.7958    1.6457    5.7866 C   0  0  0  0  0  0  0  0  0  0  0  0
   -5.6676    0.2652    5.7532 C   0  0  0  0  0  0  0  0  0  0  0  0
   -3.7054    7.6460    1.2184 H   0  0  0  0  0  0  0  0  0  0  0  0
   -5.8916    6.5267    0.9113 H   0  0  0  0  0  0  0  0  0  0  0  0
   -6.0300    4.0287    0.8418 H   0  0  0  0  0  0  0  0  0  0  0  0
   -1.6111    6.3105    1.5109 H   0  0  0  0  0  0  0  0  0  0  0  0
   -0.8067    3.5111    1.6012 H   0  0  0  0  0  0  0  0  0  0  0  0
   -1.9544    0.3721    0.4026 H   0  0  0  0  0  0  0  0  0  0  0  0
   -0.7427    1.1106    1.4436 H   0  0  0  0  0  0  0  0  0  0  0  0
   -1.7243   -1.8093    3.2634 H   0  0  0  0  0  0  0  0  0  0  0  0
   -1.5311   -1.7108    1.5445 H   0  0  0  0  0  0  0  0  0  0  0  0
    0.5142   -1.9290    2.8348 H   0  0  0  0  0  0  0  0  0  0  0  0
    0.5530   -0.3949    2.0151 H   0  0  0  0  0  0  0  0  0  0  0  0
    1.2806   -0.0692    4.3318 H   0  0  0  0  0  0  0  0  0  0  0  0
   -0.2565    0.7536    4.1255 H   0  0  0  0  0  0  0  0  0  0  0  0
   -0.1828   -0.4306    6.2802 H   0  0  0  0  0  0  0  0  0  0  0  0
   -1.4693   -1.0816    5.2904 H   0  0  0  0  0  0  0  0  0  0  0  0
   -0.2360   -2.8172    6.2748 H   0  0  0  0  0  0  0  0  0  0  0  0
   -0.0073   -2.8856    4.6696 H   0  0  0  0  0  0  0  0  0  0  0  0
   -4.1857    0.2936    1.5687 H   0  0  0  0  0  0  0  0  0  0  0  0
   -3.6160   -2.1337    1.4890 H   0  0  0  0  0  0  0  0  0  0  0  0
   -5.2217   -1.6839    1.9664 H   0  0  0  0  0  0  0  0  0  0  0  0
   -4.2480   -3.4991    3.4245 H   0  0  0  0  0  0  0  0  0  0  0  0
   -3.0906   -2.4143    4.0802 H   0  0  0  0  0  0  0  0  0  0  0  0
   -5.9967   -2.2429    4.4843 H   0  0  0  0  0  0  0  0  0  0  0  0
   -4.6423   -2.2231    5.6349 H   0  0  0  0  0  0  0  0  0  0  0  0
   -5.3380    3.4479    4.7021 H   0  0  0  0  0  0  0  0  0  0  0  0
   -6.3082    2.1414    6.6019 H   0  0  0  0  0  0  0  0  0  0  0  0
   -6.0867   -0.3333    6.5572 H   0  0  0  0  0  0  0  0  0  0  0  0
  1  2  2  0  0  0  0
  1  6  1  0  0  0  0
  1 27  1  0  0  0  0
  2  3  1  0  0  0  0
  2 28  1  0  0  0  0
  3  4  2  0  0  0  0
  3 29  1  0  0  0  0
  4  5  1  0  0  0  0
  4  9  1  0  0  0  0
  5  6  2  0  0  0  0
  5  7  1  0  0  0  0
  6 30  1  0  0  0  0
  7  8  1  0  0  0  0
  7 31  1  0  0  0  0
  8  9  2  0  0  0  0
  8 10  1  0  0  0  0
 10 11  1  0  0  0  0
 10 32  1  0  0  0  0
 10 33  1  0  0  0  0
 11 12  1  0  0  0  0
 12 13  1  0  0  0  0
 12 34  1  0  0  0  0
 12 35  1  0  0  0  0
 13 14  1  0  0  0  0
 13 36  1  0  0  0  0
 13 37  1  0  0  0  0
 14 15  1  0  0  0  0
 14 38  1  0  0  0  0
 14 39  1  0  0  0  0
 15 16  1  0  0  0  0
 15 40  1  0  0  0  0
 15 41  1  0  0  0  0
 16 42  1  0  0  0  0
 16 43  1  0  0  0  0
 17 18  1  0  0  0  0
 17 22  1  0  0  0  0
 17 44  1  6  0  0  0
 17 11  1  0  0  0  0
 18 19  1  0  0  0  0
 18 45  1  0  0  0  0
 18 46  1  0  0  0  0
 19 20  1  0  0  0  0
 19 47  1  0  0  0  0
 19 48  1  0  0  0  0
 20 21  1  0  0  0  0
 20 49  1  0  0  0  0
 20 50  1  0  0  0  0
 21 22  2  0  0  0  0
 21 26  1  0  0  0  0
 22 23  1  0  0  0  0
 23 24  2  0  0  0  0
 24 25  1  0  0  0  0
 24 51  1  0  0  0  0
 25 26  2  0  0  0  0
 25 52  1  0  0  0  0
 26 53  1  0  0  0  0
M  END
>  <DRUGBANK_ID>
DB05501

>  <COMMON_NAME>
Mavorixafor

>  <CAS_NUMBER>
558447-26-0

>  <UNII>
0G9LGB5O2W

>  <SYNONYMS>
1,4-BUTANEDIAMINE, N1-(1H-BENZIMIDAZOL-2-YLMETHYL)-N1-((8S)-5,6,7,8-TETRAHYDRO-8-QUINOLINYL)-; N1-(1H-BENZIMIDAZOL-2-YLMETHYL)-N1-((S)-5,6,7,8-TETRAHYDROQUINOLIN-8-YL)-BUTANE-1,4-DIAMINE

$$$$
