[NO NAME]
 OpenBabel10282417163D
Created with ChemWriter - http://chemwriter.com
 16 14  0  0  0  0  0  0  0  0999 V2000
    1.2802    0.0078   -1.1349 C   0  0  0  0  0  0  0  0  0  0  0  0
   -0.5132   -1.8744   -0.2227 C   0  0  0  0  0  0  0  0  0  0  0  0
    0.2581   -1.1674   -1.3617 C   0  0  3  0  0  0  0  0  0  0  0  0
    0.8330    0.2844    1.3129 N   0  3  0  0  0  0  0  0  0  0  0  0
    0.7128    1.1393   -1.0047 O   0  0  0  0  0  0  0  0  0  0  0  0
    2.3539   -0.2980   -0.5011 O   0  5  0  0  0  0  0  0  0  0  0  0
   -0.8112   -0.6259   -2.1596 O   0  0  0  0  0  0  0  0  0  0  0  0
   -1.2116   -1.2014    0.3003 H   0  0  0  0  0  0  0  0  0  0  0  0
   -1.1645   -2.6440   -0.6564 H   0  0  0  0  0  0  0  0  0  0  0  0
    0.1067   -2.3662    0.5336 H   0  0  0  0  0  0  0  0  0  0  0  0
    0.8149   -1.9228   -1.9140 H   0  0  0  0  0  0  0  0  0  0  0  0
    0.9387    1.0836    1.9296 H   0  0  0  0  0  0  0  0  0  0  0  0
    0.1474    0.5332    0.5712 H   0  0  0  0  0  0  0  0  0  0  0  0
    0.9048   -0.7037    1.5223 H   0  0  0  0  0  0  0  0  0  0  0  0
    1.7303    0.3579    0.7771 H   0  0  0  0  0  0  0  0  0  0  0  0
   -1.0414    0.2239   -1.7227 H   0  0  0  0  0  0  0  0  0  0  0  0
  2  8  1  0  0  0  0
  2  9  1  0  0  0  0
  2 10  1  0  0  0  0
  3  1  1  0  0  0  0
  3  2  1  0  0  0  0
  3 11  1  0  0  0  0
  4 12  1  0  0  0  0
  4 13  1  0  0  0  0
  4 14  1  0  0  0  0
  4 15  1  0  0  0  0
  5  1  2  0  0  0  0
  6  1  1  0  0  0  0
  7  3  1  0  0  0  0
  7 16  1  0  0  0  0
M  CHG  2   4   1   6  -1
M  END
>  <DRUGBANK_ID>
DB06768

>  <COMMON_NAME>
Ammonium lactate

>  <CAS_NUMBER>
515-98-0

>  <UNII>
67M901L9NQ

>  <SYNONYMS>
Ammonium (+-)-lactate; Ammonium lactate; Lactic acid ammonium salt

$$$$
