
 OpenBabel10282417133D

 25 25  0  0  0  0  0  0  0  0999 V2000
    0.5344    0.5704   -0.6039 O   0  0  0  0  0  0  0  0  0  0  0  0
    0.6902    2.0385    0.0337 P   0  0  0  0  0  0  0  0  0  0  0  0
   -0.1282    1.7734    1.3768 O   0  0  0  0  0  0  0  0  0  0  0  0
    2.1511    2.2650    0.3056 O   0  0  0  0  0  0  0  0  0  0  0  0
   -0.2365    3.3022   -0.9455 C   0  0  0  0  0  0  0  0  0  0  0  0
    0.8250    4.0583   -1.7935 C   0  0  0  0  0  0  0  0  0  0  0  0
    0.7394    5.4474   -1.9459 C   0  0  0  0  0  0  0  0  0  0  0  0
    1.6270    6.1055   -2.7935 C   0  0  0  0  0  0  0  0  0  0  0  0
    2.6333    5.3946   -3.4495 C   0  0  0  0  0  0  0  0  0  0  0  0
    2.7226    4.0135   -3.3093 C   0  0  0  0  0  0  0  0  0  0  0  0
    1.7832    3.3406   -2.5368 C   0  0  0  0  0  0  0  0  0  0  0  0
   -1.8486    3.1480   -1.7978 P   0  0  0  0  0  0  0  0  0  0  0  0
   -1.1149    3.5596   -3.2077 O   0  0  0  0  0  0  0  0  0  0  0  0
   -1.6178    1.5241   -1.9255 O   0  0  0  0  0  0  0  0  0  0  0  0
   -3.2126    3.0176   -2.5189 O   0  0  0  0  0  0  0  0  0  0  0  0
    1.2597    0.0098   -0.2285 H   0  0  0  0  0  0  0  0  0  0  0  0
   -1.0510    1.4778    1.2673 H   0  0  0  0  0  0  0  0  0  0  0  0
   -0.4710    3.9968   -0.1257 H   0  0  0  0  0  0  0  0  0  0  0  0
   -0.0460    6.0129   -1.4526 H   0  0  0  0  0  0  0  0  0  0  0  0
    1.5364    7.1771   -2.9435 H   0  0  0  0  0  0  0  0  0  0  0  0
    3.3421    5.9152   -4.0864 H   0  0  0  0  0  0  0  0  0  0  0  0
    3.5113    3.4560   -3.8081 H   0  0  0  0  0  0  0  0  0  0  0  0
    1.8022    2.2515   -2.5400 H   0  0  0  0  0  0  0  0  0  0  0  0
   -1.4463    4.4026   -3.5686 H   0  0  0  0  0  0  0  0  0  0  0  0
   -1.0693    0.9576   -1.3454 H   0  0  0  0  0  0  0  0  0  0  0  0
  1  2  1  0  0  0  0
  1 16  1  0  0  0  0
  2  3  1  0  0  0  0
  2  4  2  0  0  0  0
  2  5  1  0  0  0  0
  3 17  1  0  0  0  0
  5  6  1  0  0  0  0
  5 12  1  0  0  0  0
  5 18  1  0  0  0  0
  6  7  2  0  0  0  0
  6 11  1  0  0  0  0
  7  8  1  0  0  0  0
  7 19  1  0  0  0  0
  8  9  2  0  0  0  0
  8 20  1  0  0  0  0
  9 10  1  0  0  0  0
  9 21  1  0  0  0  0
 10 11  2  0  0  0  0
 10 22  1  0  0  0  0
 11 23  1  0  0  0  0
 12 13  1  0  0  0  0
 12 14  1  0  0  0  0
 12 15  2  0  0  0  0
 13 24  1  0  0  0  0
 14 25  1  0  0  0  0
M  END
>  <DRUGBANK_ID>
DB02908

>  <SECONDARY_ACCESSION_NUMBERS>
EXPT00303

>  <COMMON_NAME>
RU78783

$$$$
