
 OpenBabel10282417103D

 47 49  0  0  1  0  0  0  0  0999 V2000
    0.8960    0.0678   -0.0542 C   0  0  0  0  0  0  0  0  0  0  0  0
    3.3433    2.5307   -3.6902 C   0  0  0  0  0  0  0  0  0  0  0  0
    3.9229   -1.7600   -4.1953 C   0  0  0  0  0  0  0  0  0  0  0  0
    0.4304   -0.9511   -1.1390 C   0  0  2  0  0  0  0  0  0  0  0  0
    4.5052    0.2660   -4.4518 C   0  0  0  0  0  0  0  0  0  0  0  0
    0.8707   -2.4260   -1.0850 C   0  0  2  0  0  0  0  0  0  0  0  0
    2.0863   -2.5159   -1.9551 C   0  0  2  0  0  0  0  0  0  0  0  0
    5.1098    1.4905   -4.7776 C   0  0  0  0  0  0  0  0  0  0  0  0
    3.3190    0.3145   -3.7608 C   0  0  0  0  0  0  0  0  0  0  0  0
    1.7314   -1.5320   -3.0414 C   0  0  2  0  0  0  0  0  0  0  0  0
    6.2741    1.5709   -5.4944 N   0  0  0  0  0  0  0  0  0  0  0  0
    4.4967    2.6323   -4.3803 N   0  0  0  0  0  0  0  0  0  0  0  0
    2.6774    1.4223   -3.3261 N   0  0  0  0  0  0  0  0  0  0  0  0
    4.8825   -1.0396   -4.7113 N   0  0  0  0  0  0  0  0  0  0  0  0
    2.9304   -0.9861   -3.6367 N   0  0  0  0  0  0  0  0  0  0  0  0
   -0.1532   -3.3338   -1.4813 O   0  0  0  0  0  0  0  0  0  0  0  0
    2.3071   -3.8545   -2.3792 O   0  0  0  0  0  0  0  0  0  0  0  0
    5.4969   -4.7293    1.7471 O   0  0  0  0  0  0  0  0  0  0  0  0
    5.3746   -1.9496    1.5225 O   0  0  0  0  0  0  0  0  0  0  0  0
    7.1109   -3.2275    1.0996 O   0  0  0  0  0  0  0  0  0  0  0  0
    2.5932   -1.2472    1.4184 O   0  0  0  0  0  0  0  0  0  0  0  0
    0.4950   -1.7814    3.0314 O   0  0  0  0  0  0  0  0  0  0  0  0
    3.7018   -3.2966    1.1460 O   0  0  0  0  0  0  0  0  0  0  0  0
    2.9927   -2.1293    3.5118 O   0  0  0  0  0  0  0  0  0  0  0  0
    0.5346   -0.3067    1.2946 O   0  0  0  0  0  0  0  0  0  0  0  0
    0.9016   -0.5129   -2.4333 O   0  0  0  0  0  0  0  0  0  0  0  0
    4.8226   -3.2911    3.4464 O   0  0  0  0  0  0  0  0  0  0  0  0
    1.6880   -3.4926    1.9956 O   0  0  0  0  0  0  0  0  0  0  0  0
    6.0302   -3.2576    2.2080 P   0  0  0  0  0  0  0  0  0  0  0  0
    1.1113   -1.8996    1.6451 P   0  0  3  0  0  0  0  0  0  0  0  0
    3.2553   -3.3919    2.7210 P   0  0  3  0  0  0  0  0  0  0  0  0
   -0.6625   -0.8962   -1.1443 H   0  0  0  0  0  0  0  0  0  0  0  0
    1.2008   -2.8777   -0.1801 H   0  0  0  0  0  0  0  0  0  0  0  0
    2.9742   -2.1873   -1.3972 H   0  0  0  0  0  0  0  0  0  0  0  0
    1.1576   -2.0129   -3.8389 H   0  0  0  0  0  0  0  0  0  0  0  0
    0.4705    1.0596   -0.2458 H   0  0  0  0  0  0  0  0  0  0  0  0
    1.9768    0.2500   -0.1259 H   0  0  0  0  0  0  0  0  0  0  0  0
    2.8845    3.4731   -3.3927 H   0  0  0  0  0  0  0  0  0  0  0  0
    3.8896   -2.8491   -4.1882 H   0  0  0  0  0  0  0  0  0  0  0  0
    6.7475    0.7107   -5.7447 H   0  0  0  0  0  0  0  0  0  0  0  0
    6.6770    2.4774   -5.6637 H   0  0  0  0  0  0  0  0  0  0  0  0
   -0.5976   -3.0198   -2.2849 H   0  0  0  0  0  0  0  0  0  0  0  0
    1.4322   -4.2896   -2.4467 H   0  0  0  0  0  0  0  0  0  0  0  0
    6.1764   -5.3330    2.1460 H   0  0  0  0  0  0  0  0  0  0  0  0
    4.4094   -1.9022    1.4922 H   0  0  0  0  0  0  0  0  0  0  0  0
    2.9741   -1.3689    0.5352 H   0  0  0  0  0  0  0  0  0  0  0  0
    4.0530   -4.1720    0.8331 H   0  0  0  0  0  0  0  0  0  0  0  0
  1 36  1  0  0  0  0
  1 37  1  0  0  0  0
  2 38  1  0  0  0  0
  3 39  1  0  0  0  0
  4  1  1  0  0  0  0
  4 26  1  0  0  0  0
  4 32  1  6  0  0  0
  6  4  1  0  0  0  0
  6  7  1  0  0  0  0
  6 16  1  0  0  0  0
  6 33  1  1  0  0  0
  7 10  1  0  0  0  0
  7 17  1  0  0  0  0
  7 34  1  1  0  0  0
  8  5  2  0  0  0  0
  9  5  1  0  0  0  0
 10 26  1  0  0  0  0
 10 35  1  6  0  0  0
 10 15  1  0  0  0  0
 11  8  1  0  0  0  0
 11 40  1  0  0  0  0
 11 41  1  0  0  0  0
 12  2  2  0  0  0  0
 12  8  1  0  0  0  0
 13  2  1  0  0  0  0
 13  9  2  0  0  0  0
 14  3  2  0  0  0  0
 14  5  1  0  0  0  0
 15  3  1  0  0  0  0
 15  9  1  0  0  0  0
 16 42  1  0  0  0  0
 17 43  1  0  0  0  0
 18 44  1  0  0  0  0
 19 45  1  0  0  0  0
 21 46  1  0  0  0  0
 23 47  1  0  0  0  0
 25  1  1  0  0  0  0
 29 18  1  0  0  0  0
 29 19  1  0  0  0  0
 29 20  2  0  0  0  0
 29 27  1  0  0  0  0
 30 21  1  0  0  0  0
 30 22  2  0  0  0  0
 30 25  1  0  0  0  0
 30 28  1  0  0  0  0
 31 23  1  0  0  0  0
 31 24  2  0  0  0  0
 31 27  1  0  0  0  0
 31 28  1  0  0  0  0
M  END
>  <DRUGBANK_ID>
DB00171

>  <SECONDARY_ACCESSION_NUMBERS>
NUTR00017; EXPT00007

>  <COMMON_NAME>
ATP

>  <CAS_NUMBER>
56-65-5

>  <UNII>
8L70Q75FXE

>  <SYNONYMS>
Adenosine 5'-triphosphate; Adenosine triphosphate; Adenosine-5'-triphosphate; ATP

$$$$
