
 OpenBabel10282417173D

 36 36  0  0  0  0  0  0  0  0999 V2000
   -0.2975   -1.0110    0.0032 C   0  0  0  0  0  0  0  0  0  0  0  0
    0.9758    4.8469    2.2797 O   0  0  0  0  0  0  0  0  0  0  0  0
    0.7211    4.3090    1.2035 C   0  0  0  0  0  0  0  0  0  0  0  0
    1.1898    4.7198   -0.0034 O   0  0  0  0  0  0  0  0  0  0  0  0
    1.9060    5.9623   -0.2452 C   0  0  0  0  0  0  0  0  0  0  0  0
    1.1749    7.1804    0.3287 C   0  0  0  0  0  0  0  0  0  0  0  0
    3.2866    5.7470    0.3384 C   0  0  0  0  0  0  0  0  0  0  0  0
    2.0522    6.2114   -1.7726 C   0  0  0  0  0  0  0  0  0  0  0  0
   -0.1655    3.2621    1.1557 N   0  0  0  0  0  0  0  0  0  0  0  0
   -0.7064    2.5262   -0.0030 C   0  0  1  0  0  0  0  0  0  0  0  0
   -0.3850    3.1946   -1.3516 C   0  0  0  0  0  0  0  0  0  0  0  0
   -0.8634    2.4353   -2.5757 C   0  0  0  0  0  0  0  0  0  0  0  0
   -0.9976    4.6110   -1.4260 C   0  0  0  0  0  0  0  0  0  0  0  0
   -0.2006    1.1102    0.0504 C   0  0  0  0  0  0  0  0  0  0  0  0
   -1.1181    0.0804    0.0287 O   0  0  0  0  0  0  0  0  0  0  0  0
    0.9770   -0.7045    0.0086 N   0  0  0  0  0  0  0  0  0  0  0  0
    1.0419    0.6716    0.0410 N   0  0  0  0  0  0  0  0  0  0  0  0
   -0.4727    2.9658    2.0726 H   0  0  0  0  0  0  0  0  0  0  0  0
   -1.7985    2.5123    0.1308 H   0  0  0  0  0  0  0  0  0  0  0  0
   -0.7487   -1.9930   -0.0221 H   0  0  0  0  0  0  0  0  0  0  0  0
    0.9606    7.0736    1.3923 H   0  0  0  0  0  0  0  0  0  0  0  0
    1.7689    8.0897    0.1917 H   0  0  0  0  0  0  0  0  0  0  0  0
    0.2088    7.3385   -0.1690 H   0  0  0  0  0  0  0  0  0  0  0  0
    3.7445    4.8677   -0.1320 H   0  0  0  0  0  0  0  0  0  0  0  0
    3.9304    6.6143    0.1904 H   0  0  0  0  0  0  0  0  0  0  0  0
    3.2178    5.5273    1.4057 H   0  0  0  0  0  0  0  0  0  0  0  0
    2.4743    5.3489   -2.2990 H   0  0  0  0  0  0  0  0  0  0  0  0
    1.0956    6.4358   -2.2589 H   0  0  0  0  0  0  0  0  0  0  0  0
    2.6945    7.0807   -1.9668 H   0  0  0  0  0  0  0  0  0  0  0  0
    0.7091    3.2081   -1.4597 H   0  0  0  0  0  0  0  0  0  0  0  0
   -1.9540    2.4237   -2.6132 H   0  0  0  0  0  0  0  0  0  0  0  0
   -0.4825    2.9390   -3.4718 H   0  0  0  0  0  0  0  0  0  0  0  0
   -0.4870    1.4105   -2.5926 H   0  0  0  0  0  0  0  0  0  0  0  0
   -0.8344    5.2393   -0.5470 H   0  0  0  0  0  0  0  0  0  0  0  0
   -0.5785    5.1421   -2.2825 H   0  0  0  0  0  0  0  0  0  0  0  0
   -2.0821    4.5777   -1.5155 H   0  0  0  0  0  0  0  0  0  0  0  0
  1 15  1  0  0  0  0
  1 16  2  0  0  0  0
  1 20  1  0  0  0  0
  3  2  2  0  0  0  0
  3  9  1  0  0  0  0
  3  4  1  0  0  0  0
  5  4  1  0  0  0  0
  5  6  1  0  0  0  0
  5  7  1  0  0  0  0
  5  8  1  0  0  0  0
  6 21  1  0  0  0  0
  6 22  1  0  0  0  0
  6 23  1  0  0  0  0
  7 24  1  0  0  0  0
  7 25  1  0  0  0  0
  7 26  1  0  0  0  0
  8 27  1  0  0  0  0
  8 28  1  0  0  0  0
  8 29  1  0  0  0  0
 10  9  1  0  0  0  0
 10 19  1  1  0  0  0
 11 10  1  0  0  0  0
 11 12  1  0  0  0  0
 11 13  1  0  0  0  0
 11 30  1  0  0  0  0
 12 31  1  0  0  0  0
 12 32  1  0  0  0  0
 12 33  1  0  0  0  0
 13 34  1  0  0  0  0
 13 35  1  0  0  0  0
 13 36  1  0  0  0  0
 14 10  1  0  0  0  0
 14 15  1  0  0  0  0
 14 17  2  0  0  0  0
 17 16  1  0  0  0  0
 18  9  1  0  0  0  0
M  END
>  <DRUGBANK_ID>
DB08337

>  <COMMON_NAME>
2-Methyl-2-propanyl [(1S)-2-methyl-1-(1,3,4-oxadiazol-2-yl)propyl]carbamate

$$$$
