
 OpenBabel10282417133D

 20 20  0  0  1  0  0  0  0  0999 V2000
    0.4807    0.4050    2.4899 O   0  0  0  0  0  0  0  0  0  0  0  0
    0.5255    0.9155    1.1452 C   0  0  1  0  0  0  0  0  0  0  0  0
   -0.9126    1.1264    0.6719 C   0  0  1  0  0  0  0  0  0  0  0  0
   -1.6046    1.9198    1.6486 O   0  0  0  0  0  0  0  0  0  0  0  0
   -0.9531    1.8345   -0.6840 C   0  0  0  0  0  0  0  0  0  0  0  0
   -0.1670    3.0326   -0.7103 O   0  0  0  0  0  0  0  0  0  0  0  0
    1.1923    2.8284   -0.3426 C   0  0  2  0  0  0  0  0  0  0  0  0
    1.8574    2.0765   -1.3474 O   0  0  0  0  0  0  0  0  0  0  0  0
    1.2993    2.2379    1.0824 C   0  0  2  0  0  0  0  0  0  0  0  0
    2.6454    2.0004    1.5132 O   0  0  0  0  0  0  0  0  0  0  0  0
    1.1978    0.8501    2.9803 H   0  0  0  0  0  0  0  0  0  0  0  0
    1.0288    0.1574    0.5324 H   0  0  0  0  0  0  0  0  0  0  0  0
   -1.4419    0.1693    0.6207 H   0  0  0  0  0  0  0  0  0  0  0  0
   -1.5138    1.4259    2.4880 H   0  0  0  0  0  0  0  0  0  0  0  0
   -0.6051    1.1659   -1.4791 H   0  0  0  0  0  0  0  0  0  0  0  0
   -1.9812    2.1247   -0.9223 H   0  0  0  0  0  0  0  0  0  0  0  0
    1.6820    3.8085   -0.3477 H   0  0  0  0  0  0  0  0  0  0  0  0
    1.6073    1.1415   -1.2573 H   0  0  0  0  0  0  0  0  0  0  0  0
    0.8601    2.9361    1.8055 H   0  0  0  0  0  0  0  0  0  0  0  0
    3.0254    2.8610    1.7695 H   0  0  0  0  0  0  0  0  0  0  0  0
  1 11  1  0  0  0  0
  2  3  1  0  0  0  0
  2  9  1  0  0  0  0
  2 12  1  6  0  0  0
  2  1  1  0  0  0  0
  3  5  1  0  0  0  0
  3 13  1  6  0  0  0
  3  4  1  0  0  0  0
  4 14  1  0  0  0  0
  5  6  1  0  0  0  0
  5 15  1  0  0  0  0
  5 16  1  0  0  0  0
  7  6  1  0  0  0  0
  7  8  1  0  0  0  0
  7 17  1  1  0  0  0
  8 18  1  0  0  0  0
  9  7  1  0  0  0  0
  9 19  1  1  0  0  0
  9 10  1  0  0  0  0
 10 20  1  0  0  0  0
M  END
>  <DRUGBANK_ID>
DB03246

>  <SECONDARY_ACCESSION_NUMBERS>
EXPT00555

>  <COMMON_NAME>
Beta-L-Arabinose

>  <CAS_NUMBER>
7296-56-2

>  <UNII>
194RG7YBRS

$$$$
