
 OpenBabel10282417123D

 45 48  0  0  0  0  0  0  0  0999 V2000
    1.8088   -0.5256    0.5065 P   0  0  1  0  0  0  0  0  0  0  0  0
    0.3636    4.5799    0.1818 P   0  0  1  0  0  0  0  0  0  0  0  0
   -1.4764    6.5072    1.1205 P   0  0  0  0  0  0  0  0  0  0  0  0
   -1.9609    0.2411    0.4445 O   0  0  0  0  0  0  0  0  0  0  0  0
    0.7220   -1.5039   -0.1193 O   0  0  0  0  0  0  0  0  0  0  0  0
    1.3676    0.8441   -0.2424 O   0  0  0  0  0  0  0  0  0  0  0  0
   -0.9300    3.7107   -0.5692 O   0  0  0  0  0  0  0  0  0  0  0  0
    1.2281   -0.4675    1.9911 O   0  0  0  0  0  0  0  0  0  0  0  0
    3.2068   -0.9467    0.2544 O   0  0  0  0  0  0  0  0  0  0  0  0
   -0.6855    5.0130    1.4875 O   0  0  0  0  0  0  0  0  0  0  0  0
    0.9030    3.1294    0.6909 O   0  0  0  0  0  0  0  0  0  0  0  0
    1.5213    5.3578    0.8540 O   0  0  0  0  0  0  0  0  0  0  0  0
   -4.8387   -1.2848   -5.2086 O   0  0  0  0  0  0  0  0  0  0  0  0
   -0.8642    7.0681    2.5178 O   0  0  0  0  0  0  0  0  0  0  0  0
   -0.3216    6.8636    0.0115 O   0  0  0  0  0  0  0  0  0  0  0  0
   -2.1843    7.8445    0.7919 O   0  0  0  0  0  0  0  0  0  0  0  0
   -2.5398   -1.2301   -1.2853 N   0  0  0  0  0  0  0  0  0  0  0  0
   -3.9581   -2.4042   -2.5291 N   0  0  0  0  0  0  0  0  0  0  0  0
   -2.1452    0.5935   -2.8859 N   0  0  0  0  0  0  0  0  0  0  0  0
   -3.3953    0.4884   -4.8897 N   0  0  0  0  0  0  0  0  0  0  0  0
   -1.9494    2.2437   -4.4160 N   0  0  0  0  0  0  0  0  0  0  0  0
   -0.2188   -0.7801   -0.8704 C   0  0  2  0  0  0  0  0  0  0  0  0
    0.0452    0.7147   -0.7389 C   0  0  1  0  0  0  0  0  0  0  0  0
   -1.5777   -0.9665   -0.2431 C   0  0  1  0  0  0  0  0  0  0  0  0
   -0.9429    1.2436    0.2963 C   0  0  1  0  0  0  0  0  0  0  0  0
   -1.6097    2.6441    0.1259 C   0  0  0  0  0  0  0  0  0  0  0  0
   -2.7053   -0.5417   -2.4463 C   0  0  0  0  0  0  0  0  0  0  0  0
   -3.2878   -2.3740   -1.3934 C   0  0  0  0  0  0  0  0  0  0  0  0
   -3.5978   -1.2513   -3.1989 C   0  0  0  0  0  0  0  0  0  0  0  0
   -4.0001   -0.7139   -4.5012 C   0  0  0  0  0  0  0  0  0  0  0  0
   -2.5396    1.0667   -4.1024 C   0  0  0  0  0  0  0  0  0  0  0  0
   -0.0861   -1.1788   -1.8799 H   0  0  0  0  0  0  0  0  0  0  0  0
   -0.0028    1.2389   -1.6942 H   0  0  0  0  0  0  0  0  0  0  0  0
   -1.7074    1.2825   -2.3091 H   0  0  0  0  0  0  0  0  0  0  0  0
   -1.2252    2.7008   -3.8834 H   0  0  0  0  0  0  0  0  0  0  0  0
   -2.1743    2.6508   -5.3168 H   0  0  0  0  0  0  0  0  0  0  0  0
    0.6969    0.2607    2.3562 H   0  0  0  0  0  0  0  0  0  0  0  0
    1.3576    2.6655   -0.0449 H   0  0  0  0  0  0  0  0  0  0  0  0
   -1.5709    7.0206    3.1936 H   0  0  0  0  0  0  0  0  0  0  0  0
    0.5828    7.0367    0.3537 H   0  0  0  0  0  0  0  0  0  0  0  0
   -1.6013   -1.7896    0.4848 H   0  0  0  0  0  0  0  0  0  0  0  0
   -0.4429    1.3011    1.2646 H   0  0  0  0  0  0  0  0  0  0  0  0
   -2.5583    2.4902   -0.3947 H   0  0  0  0  0  0  0  0  0  0  0  0
   -1.8734    2.9897    1.1310 H   0  0  0  0  0  0  0  0  0  0  0  0
   -3.2958   -3.1467   -0.6312 H   0  0  0  0  0  0  0  0  0  0  0  0
  1  5  1  0  0  0  0
  1  6  1  0  0  0  0
  1  8  1  0  0  0  0
  1  9  2  6  0  0  0
  2  7  1  0  0  0  0
  2 10  1  0  0  0  0
  2 11  1  0  0  0  0
  2 12  2  6  0  0  0
  3 10  1  0  0  0  0
  3 14  1  0  0  0  0
  3 15  1  0  0  0  0
  3 16  2  0  0  0  0
  4 24  1  0  0  0  0
  4 25  1  0  0  0  0
  5 22  1  0  0  0  0
  6 23  1  0  0  0  0
  7 26  1  0  0  0  0
  8 37  1  0  0  0  0
 11 38  1  0  0  0  0
 13 30  2  0  0  0  0
 14 39  1  0  0  0  0
 15 40  1  0  0  0  0
 17 27  1  0  0  0  0
 17 28  1  0  0  0  0
 18 28  2  0  0  0  0
 18 29  1  0  0  0  0
 19 27  1  0  0  0  0
 19 31  1  0  0  0  0
 19 34  1  0  0  0  0
 20 30  1  0  0  0  0
 20 31  2  0  0  0  0
 21 31  1  0  0  0  0
 21 35  1  0  0  0  0
 21 36  1  0  0  0  0
 22 23  1  0  0  0  0
 22 24  1  0  0  0  0
 22 32  1  6  0  0  0
 23 25  1  0  0  0  0
 23 33  1  6  0  0  0
 24 41  1  1  0  0  0
 24 17  1  0  0  0  0
 25 42  1  1  0  0  0
 25 26  1  0  0  0  0
 26 43  1  0  0  0  0
 26 44  1  0  0  0  0
 27 29  2  0  0  0  0
 28 45  1  0  0  0  0
 29 30  1  0  0  0  0
M  END
>  <DRUGBANK_ID>
DB02836

>  <SECONDARY_ACCESSION_NUMBERS>
EXPT01643

>  <COMMON_NAME>
Guanosine 5'-diphosphate 2':3'-cyclic monophosphate

$$$$
