
 OpenBabel10282417133D

 35 38  0  0  0  0  0  0  0  0999 V2000
    3.7810   -1.9705    0.1111 S   0  0  0  0  0  0  0  0  0  0  0  0
    3.0419   -0.2135    0.0297 P   0  0  2  0  0  0  0  0  0  0  0  0
    3.1264    3.8979   -0.0167 O   0  0  0  0  0  0  0  0  0  0  0  0
    3.6263    0.8686   -1.0332 O   0  0  0  0  0  0  0  0  0  0  0  0
    3.2380    0.6316    1.3893 O   0  0  0  0  0  0  0  0  0  0  0  0
    1.4607   -0.0694   -0.1937 O   0  0  0  0  0  0  0  0  0  0  0  0
    3.2018    3.5590    3.1370 O   0  0  0  0  0  0  0  0  0  0  0  0
    9.4670    5.0902    1.1405 O   0  0  0  0  0  0  0  0  0  0  0  0
    5.3907    4.0820   -0.6044 N   0  0  0  0  0  0  0  0  0  0  0  0
    5.5387    4.4761    1.8255 N   0  0  0  0  0  0  0  0  0  0  0  0
    7.5115    4.5743   -1.0961 N   0  0  0  0  0  0  0  0  0  0  0  0
    7.7246    4.9443    2.6410 N   0  0  0  0  0  0  0  0  0  0  0  0
    5.9227    4.7159    4.0598 N   0  0  0  0  0  0  0  0  0  0  0  0
    4.3839    1.8529   -0.3184 C   0  0  2  0  0  0  0  0  0  0  0  0
    3.7476    1.8977    1.0479 C   0  0  1  0  0  0  0  0  0  0  0  0
    4.1810    3.2973   -0.7980 C   0  0  1  0  0  0  0  0  0  0  0  0
    2.6142    2.8873    0.8624 C   0  0  1  0  0  0  0  0  0  0  0  0
    2.1307    3.4662    2.1893 C   0  0  0  0  0  0  0  0  0  0  0  0
    5.9960    4.4394    0.5642 C   0  0  0  0  0  0  0  0  0  0  0  0
    6.3316    4.2636   -1.5932 C   0  0  0  0  0  0  0  0  0  0  0  0
    7.3130    4.6738    0.2649 C   0  0  0  0  0  0  0  0  0  0  0  0
    8.2654    4.9302    1.3518 C   0  0  0  0  0  0  0  0  0  0  0  0
    6.4518    4.7377    2.8163 C   0  0  0  0  0  0  0  0  0  0  0  0
    5.4305    1.5283   -0.3063 H   0  0  0  0  0  0  0  0  0  0  0  0
    4.5072    2.1812    1.7763 H   0  0  0  0  0  0  0  0  0  0  0  0
    4.5587    4.4207    2.0979 H   0  0  0  0  0  0  0  0  0  0  0  0
    4.9289    4.6423    4.2368 H   0  0  0  0  0  0  0  0  0  0  0  0
    6.5273    4.9631    4.8342 H   0  0  0  0  0  0  0  0  0  0  0  0
    1.0246   -0.9206   -0.3913 H   0  0  0  0  0  0  0  0  0  0  0  0
    3.3838    2.6437    3.4403 H   0  0  0  0  0  0  0  0  0  0  0  0
    3.9044    3.3445   -1.8578 H   0  0  0  0  0  0  0  0  0  0  0  0
    1.7529    2.4374    0.3539 H   0  0  0  0  0  0  0  0  0  0  0  0
    1.7355    4.4744    2.0465 H   0  0  0  0  0  0  0  0  0  0  0  0
    1.3542    2.8298    2.6252 H   0  0  0  0  0  0  0  0  0  0  0  0
    6.1159    4.0978   -2.6423 H   0  0  0  0  0  0  0  0  0  0  0  0
  2  4  1  0  0  0  0
  2  5  1  0  0  0  0
  2  6  1  0  0  0  0
  2  1  2  6  0  0  0
  3 16  1  0  0  0  0
  3 17  1  0  0  0  0
  4 14  1  0  0  0  0
  5 15  1  0  0  0  0
  6 29  1  0  0  0  0
  7 18  1  0  0  0  0
  7 30  1  0  0  0  0
  8 22  2  0  0  0  0
  9 19  1  0  0  0  0
  9 20  1  0  0  0  0
 10 19  1  0  0  0  0
 10 23  1  0  0  0  0
 10 26  1  0  0  0  0
 11 20  2  0  0  0  0
 11 21  1  0  0  0  0
 12 22  1  0  0  0  0
 12 23  2  0  0  0  0
 13 23  1  0  0  0  0
 13 27  1  0  0  0  0
 13 28  1  0  0  0  0
 14 15  1  0  0  0  0
 14 16  1  0  0  0  0
 14 24  1  1  0  0  0
 15 17  1  0  0  0  0
 15 25  1  1  0  0  0
 16 31  1  6  0  0  0
 16  9  1  0  0  0  0
 17 32  1  6  0  0  0
 17 18  1  0  0  0  0
 18 33  1  0  0  0  0
 18 34  1  0  0  0  0
 19 21  2  0  0  0  0
 20 35  1  0  0  0  0
 21 22  1  0  0  0  0
M  END
>  <DRUGBANK_ID>
DB03178

>  <SECONDARY_ACCESSION_NUMBERS>
EXPT02899

>  <COMMON_NAME>
Guanosine-2',3'-cyclophosphorothioate

>  <CAS_NUMBER>
38557-85-6

$$$$
