
 OpenBabel10282417133D

 35 37  0  0  1  0  0  0  0  0999 V2000
   -1.0722   -1.7192   -0.2669 C   0  0  0  0  0  0  0  0  0  0  0  0
    5.2729   -2.5490    1.1303 C   0  0  0  0  0  0  0  0  0  0  0  0
   -3.1013   -2.8039   -0.4830 C   0  0  0  0  0  0  0  0  0  0  0  0
    0.6116   -4.8252    0.3236 C   0  0  0  0  0  0  0  0  0  0  0  0
   -0.5265   -2.9782   -0.0784 C   0  0  0  0  0  0  0  0  0  0  0  0
    4.0320   -3.4407    0.8295 C   0  0  2  0  0  0  0  0  0  0  0  0
    3.9132   -3.9074   -0.6360 C   0  0  2  0  0  0  0  0  0  0  0  0
    2.6934   -3.1740   -1.1886 C   0  0  2  0  0  0  0  0  0  0  0  0
   -1.3169   -4.1042   -0.1899 C   0  0  0  0  0  0  0  0  0  0  0  0
    1.9249   -2.7234    0.0399 C   0  0  1  0  0  0  0  0  0  0  0  0
   -2.4018   -1.6484   -0.4437 N   0  0  0  0  0  0  0  0  0  0  0  0
   -2.6339   -4.0599   -0.4120 N   0  0  0  0  0  0  0  0  0  0  0  0
   -0.5709   -5.2456   -0.0178 N   0  0  0  0  0  0  0  0  0  0  0  0
    0.7139   -3.4692    0.2040 N   0  0  0  0  0  0  0  0  0  0  0  0
    3.7324   -5.3181   -0.6478 O   0  0  0  0  0  0  0  0  0  0  0  0
    2.0812   -3.7202   -2.3323 O   0  0  0  0  0  0  0  0  0  0  0  0
    3.6974    0.0576   -0.4727 O   0  0  0  0  0  0  0  0  0  0  0  0
    6.0318   -0.1521   -1.1471 O   0  0  0  0  0  0  0  0  0  0  0  0
    4.3143   -1.0474   -2.4545 O   0  0  0  0  0  0  0  0  0  0  0  0
    5.1851   -1.1835    0.7032 O   0  0  0  0  0  0  0  0  0  0  0  0
    2.7878   -2.8063    1.1855 O   0  0  0  0  0  0  0  0  0  0  0  0
    4.7256   -1.1117   -0.9631 P   0  0  0  0  0  0  0  0  0  0  0  0
    4.1197   -4.3168    1.4834 H   0  0  0  0  0  0  0  0  0  0  0  0
    4.8299   -3.7232   -1.2062 H   0  0  0  0  0  0  0  0  0  0  0  0
    2.9333   -2.2229   -1.5956 H   0  0  0  0  0  0  0  0  0  0  0  0
    1.6345   -1.6703   -0.0360 H   0  0  0  0  0  0  0  0  0  0  0  0
   -0.5229   -0.7871   -0.2384 H   0  0  0  0  0  0  0  0  0  0  0  0
    5.4670   -2.5246    2.2074 H   0  0  0  0  0  0  0  0  0  0  0  0
    6.1609   -2.9872    0.6571 H   0  0  0  0  0  0  0  0  0  0  0  0
   -4.1762   -2.7051   -0.5681 H   0  0  0  0  0  0  0  0  0  0  0  0
    1.4453   -5.4574    0.6196 H   0  0  0  0  0  0  0  0  0  0  0  0
    2.8118   -5.5276   -0.8649 H   0  0  0  0  0  0  0  0  0  0  0  0
    1.5242   -4.4879   -2.1489 H   0  0  0  0  0  0  0  0  0  0  0  0
    2.7632   -0.1443   -0.6249 H   0  0  0  0  0  0  0  0  0  0  0  0
    6.4612    0.0187   -0.2912 H   0  0  0  0  0  0  0  0  0  0  0  0
  1 27  1  0  0  0  0
  2 28  1  0  0  0  0
  2 29  1  0  0  0  0
  3 30  1  0  0  0  0
  4 31  1  0  0  0  0
  5  1  2  0  0  0  0
  6 23  1  1  0  0  0
  6  2  1  0  0  0  0
  7  6  1  0  0  0  0
  7 15  1  0  0  0  0
  7 24  1  6  0  0  0
  8  7  1  0  0  0  0
  8 16  1  0  0  0  0
  8 25  1  6  0  0  0
  9  5  1  0  0  0  0
 10  8  1  0  0  0  0
 10 26  1  6  0  0  0
 10 14  1  0  0  0  0
 11  1  1  0  0  0  0
 11  3  2  0  0  0  0
 12  3  1  0  0  0  0
 12  9  2  0  0  0  0
 13  4  2  0  0  0  0
 13  9  1  0  0  0  0
 14  4  1  0  0  0  0
 14  5  1  0  0  0  0
 15 32  1  0  0  0  0
 16 33  1  0  0  0  0
 17 34  1  0  0  0  0
 18 35  1  0  0  0  0
 20  2  1  0  0  0  0
 21  6  1  0  0  0  0
 21 10  1  0  0  0  0
 22 17  1  0  0  0  0
 22 18  1  0  0  0  0
 22 19  2  0  0  0  0
 22 20  1  0  0  0  0
M  END
>  <DRUGBANK_ID>
DB03200

>  <SECONDARY_ACCESSION_NUMBERS>
EXPT00316

>  <COMMON_NAME>
7-Alpha-D-Ribofuranosyl-Purine-5'-Phosphate

$$$$
