
 OpenBabel10282417183D

 55 56  0  0  0  0  0  0  0  0999 V2000
    1.2488    0.1195    0.2493 C   0  0  0  0  0  0  0  0  0  0  0  0
    1.4390    0.6571    1.7316 C   0  0  0  0  0  0  0  0  0  0  0  0
    2.6352   -0.0795   -0.4512 C   0  0  0  0  0  0  0  0  0  0  0  0
    2.4044    1.3672    2.0823 O   0  0  0  0  0  0  0  0  0  0  0  0
    0.5417    0.2247    2.6437 O   0  0  0  0  0  0  0  0  0  0  0  0
    0.2385   -2.8242    2.9607 N   0  0  0  0  0  0  0  0  0  0  0  0
    0.2822   -1.0471   -0.1546 C   0  0  0  0  0  0  0  0  0  0  0  0
    0.4268    1.2793   -0.3303 C   0  0  0  0  0  0  0  0  0  0  0  0
    3.1312   -1.2428    3.7383 O   0  0  0  0  0  0  0  0  0  0  0  0
    2.7374   -0.1333   -1.8459 C   0  0  0  0  0  0  0  0  0  0  0  0
    3.8602   -0.1582    0.2531 C   0  0  0  0  0  0  0  0  0  0  0  0
    1.6205   -2.9761    2.3622 C   0  0  0  0  0  0  0  0  0  0  0  0
   -0.6893   -3.7977    2.3572 C   0  0  0  0  0  0  0  0  0  0  0  0
    0.1187   -2.9820    4.4453 C   0  0  0  0  0  0  0  0  0  0  0  0
    1.0062    0.3770    4.0106 C   0  0  0  0  0  0  0  0  0  0  0  0
    2.7206   -1.9071    2.5393 C   0  0  0  0  0  0  0  0  0  0  0  0
    2.0359   -0.6938    4.4562 C   0  0  0  0  0  0  0  0  0  0  0  0
   -1.0198    0.9494    0.0619 C   0  0  0  0  0  0  0  0  0  0  0  0
   -1.1425   -0.5616    0.0207 C   0  0  0  0  0  0  0  0  0  0  0  0
   -0.1857   -5.2167    2.5662 C   0  0  0  0  0  0  0  0  0  0  0  0
    1.2173   -3.8598    5.0421 C   0  0  0  0  0  0  0  0  0  0  0  0
    3.9862   -0.1659   -2.4817 C   0  0  0  0  0  0  0  0  0  0  0  0
    5.1046   -0.1983   -0.3686 C   0  0  0  0  0  0  0  0  0  0  0  0
    5.1683   -0.1958   -1.7456 C   0  0  0  0  0  0  0  0  0  0  0  0
    0.4072   -1.3155   -1.2163 H   0  0  0  0  0  0  0  0  0  0  0  0
    0.3651   -1.9977    0.3395 H   0  0  0  0  0  0  0  0  0  0  0  0
    0.7423    2.2422    0.0815 H   0  0  0  0  0  0  0  0  0  0  0  0
    0.5119    1.3376   -1.4168 H   0  0  0  0  0  0  0  0  0  0  0  0
    1.8478   -0.1106   -2.4690 H   0  0  0  0  0  0  0  0  0  0  0  0
    3.9284   -0.1381    1.3359 H   0  0  0  0  0  0  0  0  0  0  0  0
    1.5034   -2.9989    1.2707 H   0  0  0  0  0  0  0  0  0  0  0  0
    2.0870   -3.9438    2.5196 H   0  0  0  0  0  0  0  0  0  0  0  0
   -1.6793   -3.6754    2.8186 H   0  0  0  0  0  0  0  0  0  0  0  0
   -0.8531   -3.5958    1.2935 H   0  0  0  0  0  0  0  0  0  0  0  0
    0.1239   -2.0432    5.0196 H   0  0  0  0  0  0  0  0  0  0  0  0
   -0.9123   -3.2059    4.7378 H   0  0  0  0  0  0  0  0  0  0  0  0
    1.3431    1.3898    4.2370 H   0  0  0  0  0  0  0  0  0  0  0  0
    0.0993    0.2212    4.6193 H   0  0  0  0  0  0  0  0  0  0  0  0
    2.2742   -1.1412    1.9831 H   0  0  0  0  0  0  0  0  0  0  0  0
    3.6066   -2.1858    1.9646 H   0  0  0  0  0  0  0  0  0  0  0  0
    2.1696   -0.7782    5.5414 H   0  0  0  0  0  0  0  0  0  0  0  0
    1.4352   -1.4954    4.2443 H   0  0  0  0  0  0  0  0  0  0  0  0
   -1.7340    1.4344   -0.6032 H   0  0  0  0  0  0  0  0  0  0  0  0
   -1.2314    1.2860    1.0828 H   0  0  0  0  0  0  0  0  0  0  0  0
   -1.7836   -0.9109   -0.7981 H   0  0  0  0  0  0  0  0  0  0  0  0
   -1.5681   -0.9600    0.9497 H   0  0  0  0  0  0  0  0  0  0  0  0
   -0.1476   -5.4493    3.6269 H   0  0  0  0  0  0  0  0  0  0  0  0
   -0.8384   -5.9575    2.1204 H   0  0  0  0  0  0  0  0  0  0  0  0
    0.8147   -5.3634    2.1516 H   0  0  0  0  0  0  0  0  0  0  0  0
    2.1359   -3.8698    4.4497 H   0  0  0  0  0  0  0  0  0  0  0  0
    1.5426   -3.4861    6.0108 H   0  0  0  0  0  0  0  0  0  0  0  0
    0.8932   -4.8889    5.1456 H   0  0  0  0  0  0  0  0  0  0  0  0
    4.0328   -0.1283   -3.5651 H   0  0  0  0  0  0  0  0  0  0  0  0
    6.0024   -0.1794    0.2453 H   0  0  0  0  0  0  0  0  0  0  0  0
    6.1356   -0.1987   -2.2356 H   0  0  0  0  0  0  0  0  0  0  0  0
  2  1  1  0  0  0  0
  3  1  1  0  0  0  0
  4  2  2  0  0  0  0
  5  2  1  0  0  0  0
  6 12  1  0  0  0  0
  7  1  1  0  0  0  0
  7 25  1  0  0  0  0
  7 26  1  0  0  0  0
  8  1  1  0  0  0  0
  8 27  1  0  0  0  0
  8 28  1  0  0  0  0
  9 17  1  0  0  0  0
 10  3  1  0  0  0  0
 10 29  1  0  0  0  0
 11  3  2  0  0  0  0
 11 30  1  0  0  0  0
 12 16  1  0  0  0  0
 12 31  1  0  0  0  0
 12 32  1  0  0  0  0
 13  6  1  0  0  0  0
 13 33  1  0  0  0  0
 13 34  1  0  0  0  0
 14  6  1  0  0  0  0
 14 35  1  0  0  0  0
 14 36  1  0  0  0  0
 15  5  1  0  0  0  0
 15 37  1  0  0  0  0
 15 38  1  0  0  0  0
 16  9  1  0  0  0  0
 16 39  1  0  0  0  0
 16 40  1  0  0  0  0
 17 15  1  0  0  0  0
 17 41  1  0  0  0  0
 17 42  1  0  0  0  0
 18  8  1  0  0  0  0
 18 43  1  0  0  0  0
 18 44  1  0  0  0  0
 19  7  1  0  0  0  0
 19 18  1  0  0  0  0
 19 45  1  0  0  0  0
 19 46  1  0  0  0  0
 20 13  1  0  0  0  0
 20 47  1  0  0  0  0
 20 48  1  0  0  0  0
 20 49  1  0  0  0  0
 21 14  1  0  0  0  0
 21 50  1  0  0  0  0
 21 51  1  0  0  0  0
 21 52  1  0  0  0  0
 22 10  2  0  0  0  0
 22 24  1  0  0  0  0
 22 53  1  0  0  0  0
 23 11  1  0  0  0  0
 23 54  1  0  0  0  0
 24 23  2  0  0  0  0
 24 55  1  0  0  0  0
M  END
>  <DRUGBANK_ID>
DB11186

>  <COMMON_NAME>
Pentoxyverine

>  <CAS_NUMBER>
77-23-6

>  <UNII>
32C726X12W

>  <SYNONYMS>
Carbetapentane; Pentoxyverine

$$$$
