
 OpenBabel10282417193D

 59 59  0  0  1  0  0  0  0  0999 V2000
    6.9511   -1.2123  -10.6017 C   0  0  0  0  0  0  0  0  0  0  0  0
    8.3593   -1.6100  -10.2003 C   0  0  0  0  0  0  0  0  0  0  0  0
    9.0704   -0.4404   -9.5220 C   0  0  0  0  0  0  0  0  0  0  0  0
    8.3710   -0.0104   -8.2293 C   0  0  0  0  0  0  0  0  0  0  0  0
    8.2059   -1.1805   -7.2650 C   0  0  0  0  0  0  0  0  0  0  0  0
    9.5178   -1.6768   -6.6134 C   0  0  2  0  0  0  0  0  0  0  0  0
    9.7032   -1.2606   -5.1969 C   0  0  0  0  0  0  0  0  0  0  0  0
    8.8152   -0.5507   -4.4953 C   0  0  0  0  0  0  0  0  0  0  0  0
    8.9602   -0.2151   -3.0934 C   0  0  0  0  0  0  0  0  0  0  0  0
   10.1021    0.4579   -2.6671 C   0  0  0  0  0  0  0  0  0  0  0  0
   10.2227    0.8277   -1.3357 C   0  0  0  0  0  0  0  0  0  0  0  0
    9.1831    0.5784   -0.4479 C   0  0  0  0  0  0  0  0  0  0  0  0
    8.0171   -0.0325   -0.8901 C   0  0  0  0  0  0  0  0  0  0  0  0
    7.9152   -0.5014   -2.2011 C   0  0  0  0  0  0  0  0  0  0  0  0
    6.8183   -1.3828   -2.6138 C   0  0  0  0  0  0  0  0  0  0  0  0
    5.9160   -1.8750   -1.7627 C   0  0  0  0  0  0  0  0  0  0  0  0
    4.9652   -2.9191   -2.1981 C   0  0  2  0  0  0  0  0  0  0  0  0
    3.8922   -3.2984   -1.1423 C   0  0  2  0  0  0  0  0  0  0  0  0
    2.4675   -3.1941   -1.7014 C   0  0  0  0  0  0  0  0  0  0  0  0
    2.2932   -3.7596   -3.1100 C   0  0  0  0  0  0  0  0  0  0  0  0
    2.8033   -5.1912   -3.2454 C   0  0  0  0  0  0  0  0  0  0  0  0
    1.9809   -6.1592   -2.4502 C   0  0  0  0  0  0  0  0  0  0  0  0
    1.2812   -7.0530   -2.9125 O   0  0  0  0  0  0  0  0  0  0  0  0
    2.0650   -5.9648   -1.1222 O   0  0  0  0  0  0  0  0  0  0  0  0
    3.9154   -2.4462    0.0104 O   0  0  0  0  0  0  0  0  0  0  0  0
    5.7328   -4.0637   -2.5841 O   0  0  0  0  0  0  0  0  0  0  0  0
   10.6980   -1.2283   -7.2676 O   0  0  0  0  0  0  0  0  0  0  0  0
    6.3416   -0.9265   -9.7379 H   0  0  0  0  0  0  0  0  0  0  0  0
    6.4422   -2.0426  -11.0921 H   0  0  0  0  0  0  0  0  0  0  0  0
    6.9915   -0.3574  -11.2828 H   0  0  0  0  0  0  0  0  0  0  0  0
    8.3289   -2.4919   -9.5501 H   0  0  0  0  0  0  0  0  0  0  0  0
    8.9340   -1.9242  -11.0753 H   0  0  0  0  0  0  0  0  0  0  0  0
   10.1052   -0.7391   -9.3433 H   0  0  0  0  0  0  0  0  0  0  0  0
    9.1347    0.4175  -10.1983 H   0  0  0  0  0  0  0  0  0  0  0  0
    8.9029    0.8181   -7.7463 H   0  0  0  0  0  0  0  0  0  0  0  0
    7.3794    0.3982   -8.4582 H   0  0  0  0  0  0  0  0  0  0  0  0
    7.4307   -0.9066   -6.5482 H   0  0  0  0  0  0  0  0  0  0  0  0
    7.7090   -2.0347   -7.7342 H   0  0  0  0  0  0  0  0  0  0  0  0
    9.5353   -2.7712   -6.6660 H   0  0  0  0  0  0  0  0  0  0  0  0
   10.6361   -1.5791   -4.7366 H   0  0  0  0  0  0  0  0  0  0  0  0
    7.8632   -0.2199   -4.8912 H   0  0  0  0  0  0  0  0  0  0  0  0
   10.8971    0.6818   -3.3725 H   0  0  0  0  0  0  0  0  0  0  0  0
   11.1232    1.3240   -0.9955 H   0  0  0  0  0  0  0  0  0  0  0  0
    9.2743    0.8404    0.6002 H   0  0  0  0  0  0  0  0  0  0  0  0
    7.2105   -0.1595   -0.1768 H   0  0  0  0  0  0  0  0  0  0  0  0
    6.8161   -1.7858   -3.6275 H   0  0  0  0  0  0  0  0  0  0  0  0
    5.8844   -1.5679   -0.7295 H   0  0  0  0  0  0  0  0  0  0  0  0
    4.5070   -2.5420   -3.1127 H   0  0  0  0  0  0  0  0  0  0  0  0
    4.0896   -4.3149   -0.7783 H   0  0  0  0  0  0  0  0  0  0  0  0
    1.7857   -3.6880   -0.9997 H   0  0  0  0  0  0  0  0  0  0  0  0
    2.1306   -2.1509   -1.6817 H   0  0  0  0  0  0  0  0  0  0  0  0
    1.2388   -3.6929   -3.3944 H   0  0  0  0  0  0  0  0  0  0  0  0
    2.8097   -3.1178   -3.8341 H   0  0  0  0  0  0  0  0  0  0  0  0
    2.7808   -5.4777   -4.3012 H   0  0  0  0  0  0  0  0  0  0  0  0
    3.8410   -5.3152   -2.9344 H   0  0  0  0  0  0  0  0  0  0  0  0
    1.4056   -6.5569   -0.7072 H   0  0  0  0  0  0  0  0  0  0  0  0
    3.6683   -1.5577   -0.3044 H   0  0  0  0  0  0  0  0  0  0  0  0
    6.2289   -4.3576   -1.8000 H   0  0  0  0  0  0  0  0  0  0  0  0
   10.6793   -0.2555   -7.2660 H   0  0  0  0  0  0  0  0  0  0  0  0
  1  2  1  0  0  0  0
  1 28  1  0  0  0  0
  1 29  1  0  0  0  0
  1 30  1  0  0  0  0
  2  3  1  0  0  0  0
  2 31  1  0  0  0  0
  2 32  1  0  0  0  0
  3  4  1  0  0  0  0
  3 33  1  0  0  0  0
  3 34  1  0  0  0  0
  4  5  1  0  0  0  0
  4 35  1  0  0  0  0
  4 36  1  0  0  0  0
  5 37  1  0  0  0  0
  5 38  1  0  0  0  0
  6 27  1  0  0  0  0
  6 39  1  6  0  0  0
  6  7  1  0  0  0  0
  6  5  1  0  0  0  0
  7  8  2  0  0  0  0
  7 40  1  0  0  0  0
  8  9  1  0  0  0  0
  8 41  1  0  0  0  0
  9 10  2  0  0  0  0
  9 14  1  0  0  0  0
 10 11  1  0  0  0  0
 10 42  1  0  0  0  0
 11 12  2  0  0  0  0
 11 43  1  0  0  0  0
 12 13  1  0  0  0  0
 12 44  1  0  0  0  0
 13 14  2  0  0  0  0
 13 45  1  0  0  0  0
 14 15  1  0  0  0  0
 15 16  2  0  0  0  0
 15 46  1  0  0  0  0
 16 47  1  0  0  0  0
 17 26  1  0  0  0  0
 17 48  1  6  0  0  0
 17 18  1  0  0  0  0
 17 16  1  0  0  0  0
 18 49  1  1  0  0  0
 18 25  1  0  0  0  0
 18 19  1  0  0  0  0
 19 20  1  0  0  0  0
 19 50  1  0  0  0  0
 19 51  1  0  0  0  0
 20 21  1  0  0  0  0
 20 52  1  0  0  0  0
 20 53  1  0  0  0  0
 21 22  1  0  0  0  0
 21 54  1  0  0  0  0
 21 55  1  0  0  0  0
 22 23  2  0  0  0  0
 22 24  1  0  0  0  0
 24 56  1  0  0  0  0
 25 57  1  0  0  0  0
 26 58  1  0  0  0  0
 27 59  1  0  0  0  0
M  END
>  <DRUGBANK_ID>
DB12133

>  <COMMON_NAME>
BLXA4

>  <CAS_NUMBER>
864516-86-9

>  <UNII>
LXE89WJ787

$$$$
