TP3
 OpenBabel10282417143D

 49 50  0  0  0  0  0  0  0  0999 V2000
    0.6380   -1.1406    0.0951 C   0  0  0  0  0  0  0  0  0  0  0  0
   -0.8104   -0.8757   -0.2348 C   0  0  0  0  0  0  0  0  0  0  0  0
   -1.0413    0.4799    0.3394 N   0  0  0  0  0  0  0  0  0  0  0  0
    0.1897    1.3154    0.0883 C   0  0  2  0  0  0  0  0  0  0  0  0
    1.2935    0.2285   -0.1600 C   0  0  0  0  0  0  0  0  0  0  0  0
    0.5144    2.5444    1.0141 C   0  0  0  0  0  0  0  0  0  0  0  0
    0.9572    3.6205    0.6441 O   0  0  0  0  0  0  0  0  0  0  0  0
    0.3680    2.3355    2.3314 O   0  0  0  0  0  0  0  0  0  0  0  0
   -1.7197    0.4647    1.9011 S   0  0  0  0  0  0  0  0  0  0  0  0
   -0.4413   -0.2756    2.9884 C   0  0  0  0  0  0  0  0  0  0  0  0
   -2.0107    1.8214    2.3114 O   0  0  0  0  0  0  0  0  0  0  0  0
   -2.8183   -0.4826    1.8571 O   0  0  0  0  0  0  0  0  0  0  0  0
    0.9286    0.0631    3.0039 C   0  0  0  0  0  0  0  0  0  0  0  0
    1.8257   -0.3511    3.9683 C   0  0  0  0  0  0  0  0  0  0  0  0
    1.4034   -1.2927    4.8755 C   0  0  0  0  0  0  0  0  0  0  0  0
    0.0734   -1.7495    4.8159 C   0  0  0  0  0  0  0  0  0  0  0  0
   -0.8340   -1.2750    3.8555 C   0  0  0  0  0  0  0  0  0  0  0  0
    2.4470   -1.8221    5.7814 C   0  0  0  0  0  0  0  0  0  0  0  0
    2.0768   -2.8525    6.6032 N   0  0  0  0  0  0  0  0  0  0  0  0
    3.0622   -3.5131    7.4435 C   0  0  1  0  0  0  0  0  0  0  0  0
    2.5778   -3.4395    8.9061 C   0  0  0  0  0  0  0  0  0  0  0  0
    1.1962   -4.0407    9.2305 C   0  0  0  0  0  0  0  0  0  0  0  0
    1.0673   -5.5461    9.0594 C   0  0  0  0  0  0  0  0  0  0  0  0
    3.5823   -1.3573    5.7529 O   0  0  0  0  0  0  0  0  0  0  0  0
    3.4679   -4.9110    6.9460 C   0  0  0  0  0  0  0  0  0  0  0  0
    4.5020   -5.4876    7.2494 O   0  0  0  0  0  0  0  0  0  0  0  0
    2.4736   -5.5467    6.2926 O   0  0  0  0  0  0  0  0  0  0  0  0
    1.1019   -6.2742   10.1938 O   0  0  0  0  0  0  0  0  0  0  0  0
    0.9327   -6.0925    7.9982 O   0  0  0  0  0  0  0  0  0  0  0  0
    0.0328    1.8044   -0.8854 H   0  0  0  0  0  0  0  0  0  0  0  0
    3.9964   -2.9438    7.3816 H   0  0  0  0  0  0  0  0  0  0  0  0
    0.7215   -1.4618    1.1331 H   0  0  0  0  0  0  0  0  0  0  0  0
    1.0698   -1.9661   -0.4745 H   0  0  0  0  0  0  0  0  0  0  0  0
   -0.9667   -0.8691   -1.3195 H   0  0  0  0  0  0  0  0  0  0  0  0
   -1.4850   -1.6327    0.1773 H   0  0  0  0  0  0  0  0  0  0  0  0
    2.2108    0.3651    0.4182 H   0  0  0  0  0  0  0  0  0  0  0  0
    1.5971    0.2421   -1.2130 H   0  0  0  0  0  0  0  0  0  0  0  0
    0.7386    2.9924    2.9492 H   0  0  0  0  0  0  0  0  0  0  0  0
    1.4304    0.6457    2.2561 H   0  0  0  0  0  0  0  0  0  0  0  0
    2.8398    0.0528    3.9628 H   0  0  0  0  0  0  0  0  0  0  0  0
   -0.3024   -2.4770    5.5204 H   0  0  0  0  0  0  0  0  0  0  0  0
   -1.8281   -1.7065    3.7801 H   0  0  0  0  0  0  0  0  0  0  0  0
    1.1916   -3.3175    6.4726 H   0  0  0  0  0  0  0  0  0  0  0  0
    3.3412   -3.8442    9.5773 H   0  0  0  0  0  0  0  0  0  0  0  0
    2.5039   -2.3645    9.1467 H   0  0  0  0  0  0  0  0  0  0  0  0
    0.9144   -3.7680   10.2543 H   0  0  0  0  0  0  0  0  0  0  0  0
    0.4292   -3.5821    8.5953 H   0  0  0  0  0  0  0  0  0  0  0  0
    2.2759   -6.3679    6.8161 H   0  0  0  0  0  0  0  0  0  0  0  0
    0.8808   -5.8088   11.0166 H   0  0  0  0  0  0  0  0  0  0  0  0
  1  2  1  0  0  0  0
  1  5  1  0  0  0  0
  1 32  1  0  0  0  0
  1 33  1  0  0  0  0
  2  3  1  0  0  0  0
  2 34  1  0  0  0  0
  2 35  1  0  0  0  0
  3  4  1  0  0  0  0
  3  9  1  0  0  0  0
  4  5  1  0  0  0  0
  4  6  1  0  0  0  0
  4 30  1  6  0  0  0
  5 36  1  0  0  0  0
  5 37  1  0  0  0  0
  6  7  2  0  0  0  0
  6  8  1  0  0  0  0
  8 38  1  0  0  0  0
  9 10  1  0  0  0  0
  9 11  2  0  0  0  0
  9 12  2  0  0  0  0
 10 13  2  0  0  0  0
 10 17  1  0  0  0  0
 13 14  1  0  0  0  0
 13 39  1  0  0  0  0
 14 15  2  0  0  0  0
 14 40  1  0  0  0  0
 15 16  1  0  0  0  0
 15 18  1  0  0  0  0
 16 17  2  0  0  0  0
 16 41  1  0  0  0  0
 17 42  1  0  0  0  0
 18 19  1  0  0  0  0
 18 24  2  0  0  0  0
 19 43  1  0  0  0  0
 20 19  1  0  0  0  0
 20 21  1  0  0  0  0
 20 25  1  0  0  0  0
 20 31  1  6  0  0  0
 21 22  1  0  0  0  0
 21 44  1  0  0  0  0
 21 45  1  0  0  0  0
 22 23  1  0  0  0  0
 22 46  1  0  0  0  0
 22 47  1  0  0  0  0
 23 28  1  0  0  0  0
 23 29  2  0  0  0  0
 25 26  2  0  0  0  0
 25 27  1  0  0  0  0
 27 48  1  0  0  0  0
 28 49  1  0  0  0  0
M  END
>  <DRUGBANK_ID>
DB04503

>  <SECONDARY_ACCESSION_NUMBERS>
EXPT03086

>  <COMMON_NAME>
Sp-722

$$$$
