
 OpenBabel10282417193D

 70 76  0  0  1  0  0  0  0  0999 V2000
    2.8898   -2.0924    0.0043 C   0  0  0  0  0  0  0  0  0  0  0  0
    1.6222   -1.5487   -0.0010 C   0  0  0  0  0  0  0  0  0  0  0  0
    1.5468   -0.1668    0.0176 C   0  0  0  0  0  0  0  0  0  0  0  0
    2.6748    0.6236    0.0704 C   0  0  0  0  0  0  0  0  0  0  0  0
    3.9097    0.1406    0.0703 N   0  0  0  0  0  0  0  0  0  0  0  0
    3.9819   -1.2199    0.0290 C   0  0  0  0  0  0  0  0  0  0  0  0
    2.3117    1.9615    0.0262 N   0  0  0  0  0  0  0  0  0  0  0  0
    0.9599    2.0926   -0.2184 C   0  0  0  0  0  0  0  0  0  0  0  0
    0.3980    3.1122   -0.6207 O   0  0  0  0  0  0  0  0  0  0  0  0
    0.3421    0.7123   -0.0302 C   0  0  1  0  0  0  0  0  0  0  0  0
   -0.4871    0.3875   -1.2610 C   0  0  0  0  0  0  0  0  0  0  0  0
   -1.7635    0.0648   -0.6026 C   0  0  0  0  0  0  0  0  0  0  0  0
   -2.8875   -0.2017   -1.2727 C   0  0  0  0  0  0  0  0  0  0  0  0
   -3.9258   -0.5079   -0.4346 C   0  0  0  0  0  0  0  0  0  0  0  0
   -3.9781   -0.6634    0.9380 C   0  0  0  0  0  0  0  0  0  0  0  0
   -2.8689   -0.2392    1.6002 C   0  0  0  0  0  0  0  0  0  0  0  0
   -1.7648    0.0952    0.8051 C   0  0  0  0  0  0  0  0  0  0  0  0
   -0.4258    0.4870    1.2964 C   0  0  0  0  0  0  0  0  0  0  0  0
   -5.1717   -1.0962    1.5593 N   0  0  0  0  0  0  0  0  0  0  0  0
   -6.1251   -1.9795    1.0789 C   0  0  0  0  0  0  0  0  0  0  0  0
   -7.1550   -2.1914    1.7267 O   0  0  0  0  0  0  0  0  0  0  0  0
   -5.8455   -2.7938   -0.1721 C   0  0  0  0  0  0  0  0  0  0  0  0
   -5.7558   -2.2727   -1.5470 N   0  0  0  0  0  0  0  0  0  0  0  0
   -6.3623   -1.0305   -2.2110 C   0  0  1  0  0  0  0  0  0  0  0  0
   -6.7185   -1.3417   -3.6830 C   0  0  0  0  0  0  0  0  0  0  0  0
   -5.6206   -2.0226   -4.3912 N   0  0  0  0  0  0  0  0  0  0  0  0
   -5.1787   -3.2262   -3.6531 C   0  0  0  0  0  0  0  0  0  0  0  0
   -4.7057   -2.8668   -2.2616 C   0  0  0  0  0  0  0  0  0  0  0  0
   -3.6497   -3.2462   -1.7638 O   0  0  0  0  0  0  0  0  0  0  0  0
   -6.3142   -4.2659   -3.4668 C   0  0  0  0  0  0  0  0  0  0  0  0
   -6.0822   -5.2616   -4.5678 C   0  0  0  0  0  0  0  0  0  0  0  0
   -4.5706   -5.3669   -4.6256 C   0  0  0  0  0  0  0  0  0  0  0  0
   -4.0535   -3.9526   -4.4008 C   0  0  0  0  0  0  0  0  0  0  0  0
   -7.3771   -0.2023   -1.4359 C   0  0  0  0  0  0  0  0  0  0  0  0
   -7.1029    0.4719   -0.2301 C   0  0  0  0  0  0  0  0  0  0  0  0
   -8.0884    1.1010    0.5187 C   0  0  0  0  0  0  0  0  0  0  0  0
   -9.3502    1.2506    0.0001 C   0  0  0  0  0  0  0  0  0  0  0  0
   -9.5908    0.7622   -1.2719 C   0  0  0  0  0  0  0  0  0  0  0  0
   -8.6335    0.0419   -1.9775 C   0  0  0  0  0  0  0  0  0  0  0  0
  -10.7761    0.9700   -1.8522 F   0  0  0  0  0  0  0  0  0  0  0  0
   -7.7906    1.5617    1.7417 F   0  0  0  0  0  0  0  0  0  0  0  0
    3.0257   -3.1680   -0.0172 H   0  0  0  0  0  0  0  0  0  0  0  0
    0.7304   -2.1709   -0.0319 H   0  0  0  0  0  0  0  0  0  0  0  0
    4.9897   -1.6208    0.0091 H   0  0  0  0  0  0  0  0  0  0  0  0
    2.9693    2.7146   -0.0804 H   0  0  0  0  0  0  0  0  0  0  0  0
   -0.6222    1.2108   -1.9739 H   0  0  0  0  0  0  0  0  0  0  0  0
   -0.1025   -0.4681   -1.8307 H   0  0  0  0  0  0  0  0  0  0  0  0
   -2.9851   -0.1697   -2.3525 H   0  0  0  0  0  0  0  0  0  0  0  0
   -4.8537   -0.5287   -0.8840 H   0  0  0  0  0  0  0  0  0  0  0  0
   -2.8428   -0.2123    2.6793 H   0  0  0  0  0  0  0  0  0  0  0  0
   -0.5102    1.3488    1.9612 H   0  0  0  0  0  0  0  0  0  0  0  0
   -0.0366   -0.3654    1.8682 H   0  0  0  0  0  0  0  0  0  0  0  0
   -5.4453   -0.6551    2.4285 H   0  0  0  0  0  0  0  0  0  0  0  0
   -4.9094   -3.3241    0.0784 H   0  0  0  0  0  0  0  0  0  0  0  0
   -6.5628   -3.6254   -0.2249 H   0  0  0  0  0  0  0  0  0  0  0  0
   -5.5456   -0.3203   -2.4336 H   0  0  0  0  0  0  0  0  0  0  0  0
   -7.6354   -1.9283   -3.7088 H   0  0  0  0  0  0  0  0  0  0  0  0
   -6.9215   -0.4034   -4.2134 H   0  0  0  0  0  0  0  0  0  0  0  0
   -5.9397   -2.2946   -5.3178 H   0  0  0  0  0  0  0  0  0  0  0  0
   -6.2694   -4.7530   -2.4819 H   0  0  0  0  0  0  0  0  0  0  0  0
   -7.3256   -3.8581   -3.5337 H   0  0  0  0  0  0  0  0  0  0  0  0
   -6.5702   -6.2132   -4.3475 H   0  0  0  0  0  0  0  0  0  0  0  0
   -6.4830   -4.8624   -5.5043 H   0  0  0  0  0  0  0  0  0  0  0  0
   -4.2107   -6.0231   -3.8234 H   0  0  0  0  0  0  0  0  0  0  0  0
   -4.2251   -5.7605   -5.5816 H   0  0  0  0  0  0  0  0  0  0  0  0
   -3.8326   -3.4613   -5.3528 H   0  0  0  0  0  0  0  0  0  0  0  0
   -3.0990   -3.9898   -3.8606 H   0  0  0  0  0  0  0  0  0  0  0  0
   -6.1214    0.5543    0.2044 H   0  0  0  0  0  0  0  0  0  0  0  0
  -10.1175    1.7639    0.5587 H   0  0  0  0  0  0  0  0  0  0  0  0
   -8.8989   -0.2924   -2.9725 H   0  0  0  0  0  0  0  0  0  0  0  0
  1  2  2  0  0  0  0
  1  6  1  0  0  0  0
  1 42  1  0  0  0  0
  2  3  1  0  0  0  0
  2 43  1  0  0  0  0
  3  4  2  0  0  0  0
  3 10  1  0  0  0  0
  4  5  1  0  0  0  0
  4  7  1  0  0  0  0
  5  6  2  0  0  0  0
  6 44  1  0  0  0  0
  7  8  1  0  0  0  0
  7 45  1  0  0  0  0
  8  9  2  0  0  0  0
 10  8  1  6  0  0  0
 10 11  1  0  0  0  0
 10 18  1  0  0  0  0
 11 12  1  0  0  0  0
 11 46  1  0  0  0  0
 11 47  1  0  0  0  0
 12 13  2  0  0  0  0
 12 17  1  0  0  0  0
 13 14  1  0  0  0  0
 13 48  1  0  0  0  0
 14 15  2  0  0  0  0
 14 49  1  0  0  0  0
 15 16  1  0  0  0  0
 15 19  1  0  0  0  0
 16 17  2  0  0  0  0
 16 50  1  0  0  0  0
 17 18  1  0  0  0  0
 18 51  1  0  0  0  0
 18 52  1  0  0  0  0
 19 20  1  0  0  0  0
 19 53  1  0  0  0  0
 20 21  2  0  0  0  0
 20 22  1  0  0  0  0
 22 23  1  0  0  0  0
 22 54  1  0  0  0  0
 22 55  1  0  0  0  0
 23 24  1  0  0  0  0
 23 28  1  0  0  0  0
 24 25  1  0  0  0  0
 24 34  1  0  0  0  0
 24 56  1  6  0  0  0
 25 26  1  0  0  0  0
 25 57  1  0  0  0  0
 25 58  1  0  0  0  0
 26 27  1  0  0  0  0
 26 59  1  0  0  0  0
 27 28  1  0  0  0  0
 27 30  1  0  0  0  0
 27 33  1  0  0  0  0
 28 29  2  0  0  0  0
 30 31  1  0  0  0  0
 30 60  1  0  0  0  0
 30 61  1  0  0  0  0
 31 32  1  0  0  0  0
 31 62  1  0  0  0  0
 31 63  1  0  0  0  0
 32 33  1  0  0  0  0
 32 64  1  0  0  0  0
 32 65  1  0  0  0  0
 33 66  1  0  0  0  0
 33 67  1  0  0  0  0
 34 35  2  0  0  0  0
 34 39  1  0  0  0  0
 35 36  1  0  0  0  0
 35 68  1  0  0  0  0
 36 37  2  0  0  0  0
 36 41  1  0  0  0  0
 37 38  1  0  0  0  0
 37 69  1  0  0  0  0
 38 39  2  0  0  0  0
 38 40  1  0  0  0  0
 39 70  1  0  0  0  0
M  END
>  <DRUGBANK_ID>
DB12424

>  <COMMON_NAME>
MK-3207

>  <CAS_NUMBER>
957118-49-9

>  <UNII>
5C44M1QYCC

$$$$
