
 OpenBabel10282417133D

 56 56  0  0  0  0  0  0  0  0999 V2000
    1.4044    0.2881    0.0509 F   0  0  0  0  0  0  0  0  0  0  0  0
    2.5109   -4.5331    0.1043 O   0  0  0  0  0  0  0  0  0  0  0  0
   -1.1465   -0.2058   -0.6632 O   0  0  0  0  0  0  0  0  0  0  0  0
   -1.4513   -1.7829   -2.2064 O   0  0  0  0  0  0  0  0  0  0  0  0
    3.8791    0.6451   -1.9702 O   0  0  0  0  0  0  0  0  0  0  0  0
    0.0465   -2.2489   -0.5096 N   0  0  0  0  0  0  0  0  0  0  0  0
    2.9697   -2.6932   -1.0861 N   0  0  0  0  0  0  0  0  0  0  0  0
   -1.3340   -6.1506   -2.0745 N   0  0  0  0  0  0  0  0  0  0  0  0
   -1.8166   -7.3593   -0.2193 N   0  0  0  0  0  0  0  0  0  0  0  0
   -3.4968   -6.9713   -1.6886 N   0  0  0  0  0  0  0  0  0  0  0  0
    0.3667   -3.9478   -2.4351 C   0  0  0  0  0  0  0  0  0  0  0  0
    0.5840   -3.5548   -0.9518 C   0  0  1  0  0  0  0  0  0  0  0  0
    0.8428   -5.3050   -2.8625 C   0  0  0  0  0  0  0  0  0  0  0  0
    0.1227   -6.3579   -2.0977 C   0  0  0  0  0  0  0  0  0  0  0  0
    2.0820   -3.6059   -0.5916 C   0  0  0  0  0  0  0  0  0  0  0  0
    2.8527   -1.5208   -1.9902 C   0  0  1  0  0  0  0  0  0  0  0  0
   -2.1129   -7.2257   -1.5908 C   0  0  0  0  0  0  0  0  0  0  0  0
    1.4916   -1.0767   -2.4247 C   0  0  0  0  0  0  0  0  0  0  0  0
   -0.9122   -1.4521   -1.1837 C   0  0  0  0  0  0  0  0  0  0  0  0
    3.3141   -0.2273   -1.3050 C   0  0  0  0  0  0  0  0  0  0  0  0
    2.7460    0.0979    0.0759 C   0  0  0  0  0  0  0  0  0  0  0  0
   -1.1606    0.1597    0.7241 C   0  0  0  0  0  0  0  0  0  0  0  0
   -1.9225   -0.8116    1.5786 C   0  0  0  0  0  0  0  0  0  0  0  0
   -1.8793   -2.1924    1.3495 C   0  0  0  0  0  0  0  0  0  0  0  0
   -2.5391   -0.4031    2.7372 C   0  0  0  0  0  0  0  0  0  0  0  0
   -2.0688   -3.1593    2.2936 C   0  0  0  0  0  0  0  0  0  0  0  0
   -2.9364   -1.3824    3.6507 C   0  0  0  0  0  0  0  0  0  0  0  0
   -2.6725   -2.7475    3.4443 C   0  0  0  0  0  0  0  0  0  0  0  0
    0.3830   -1.9147    0.3864 H   0  0  0  0  0  0  0  0  0  0  0  0
    3.9240   -2.9438   -0.8295 H   0  0  0  0  0  0  0  0  0  0  0  0
   -1.7808   -5.2675   -2.3073 H   0  0  0  0  0  0  0  0  0  0  0  0
   -2.4657   -7.7750    0.4317 H   0  0  0  0  0  0  0  0  0  0  0  0
   -0.9193   -7.0927    0.1688 H   0  0  0  0  0  0  0  0  0  0  0  0
   -4.1526   -7.7461   -1.6883 H   0  0  0  0  0  0  0  0  0  0  0  0
   -3.9196   -6.0522   -1.7719 H   0  0  0  0  0  0  0  0  0  0  0  0
   -0.6825   -3.8061   -2.6942 H   0  0  0  0  0  0  0  0  0  0  0  0
    0.9324   -3.3937   -3.1717 H   0  0  0  0  0  0  0  0  0  0  0  0
    0.0864   -4.2840   -0.2930 H   0  0  0  0  0  0  0  0  0  0  0  0
    0.6617   -5.3960   -3.9411 H   0  0  0  0  0  0  0  0  0  0  0  0
    1.9265   -5.3767   -2.7133 H   0  0  0  0  0  0  0  0  0  0  0  0
    0.3618   -7.3382   -2.5114 H   0  0  0  0  0  0  0  0  0  0  0  0
    0.4650   -6.3150   -1.0626 H   0  0  0  0  0  0  0  0  0  0  0  0
    3.4389   -1.7625   -2.8805 H   0  0  0  0  0  0  0  0  0  0  0  0
   -1.8514   -8.1356   -2.1375 H   0  0  0  0  0  0  0  0  0  0  0  0
    1.3446   -0.2879   -3.1493 H   0  0  0  0  0  0  0  0  0  0  0  0
    0.8395   -1.8331   -2.7584 H   0  0  0  0  0  0  0  0  0  0  0  0
    1.0579   -0.6737   -1.5408 H   0  0  0  0  0  0  0  0  0  0  0  0
    3.1332    1.0486    0.4285 H   0  0  0  0  0  0  0  0  0  0  0  0
    2.9364   -0.6962    0.7973 H   0  0  0  0  0  0  0  0  0  0  0  0
   -0.1606    0.2410    1.1592 H   0  0  0  0  0  0  0  0  0  0  0  0
   -1.5507    1.1864    0.7758 H   0  0  0  0  0  0  0  0  0  0  0  0
   -1.7850   -2.6215    0.3748 H   0  0  0  0  0  0  0  0  0  0  0  0
   -2.7371    0.6528    2.9095 H   0  0  0  0  0  0  0  0  0  0  0  0
   -1.8303   -4.1867    2.0425 H   0  0  0  0  0  0  0  0  0  0  0  0
   -3.4472   -1.0785    4.5537 H   0  0  0  0  0  0  0  0  0  0  0  0
   -3.0088   -3.5045    4.1377 H   0  0  0  0  0  0  0  0  0  0  0  0
  1 21  1  0  0  0  0
  2 15  2  0  0  0  0
  3 19  1  0  0  0  0
  3 22  1  0  0  0  0
  4 19  2  0  0  0  0
  5 20  2  0  0  0  0
  6 19  1  0  0  0  0
  6 29  1  0  0  0  0
  7 15  1  0  0  0  0
  7 30  1  0  0  0  0
  8 14  1  0  0  0  0
  8 17  1  0  0  0  0
  8 31  1  0  0  0  0
  9 17  1  0  0  0  0
  9 32  1  0  0  0  0
  9 33  1  0  0  0  0
 10 17  1  0  0  0  0
 10 34  1  0  0  0  0
 10 35  1  0  0  0  0
 11 12  1  0  0  0  0
 11 13  1  0  0  0  0
 11 36  1  0  0  0  0
 11 37  1  0  0  0  0
 12  6  1  0  0  0  0
 12 15  1  0  0  0  0
 12 38  1  1  0  0  0
 13 14  1  0  0  0  0
 13 39  1  0  0  0  0
 13 40  1  0  0  0  0
 14 41  1  0  0  0  0
 14 42  1  0  0  0  0
 16  7  1  0  0  0  0
 16 18  1  0  0  0  0
 16 20  1  0  0  0  0
 16 43  1  6  0  0  0
 17 44  1  0  0  0  0
 18 45  1  0  0  0  0
 18 46  1  0  0  0  0
 18 47  1  0  0  0  0
 20 21  1  0  0  0  0
 21 48  1  0  0  0  0
 21 49  1  0  0  0  0
 22 23  1  0  0  0  0
 22 50  1  0  0  0  0
 22 51  1  0  0  0  0
 23 24  2  0  0  0  0
 23 25  1  0  0  0  0
 24 26  1  0  0  0  0
 24 52  1  0  0  0  0
 25 27  2  0  0  0  0
 25 53  1  0  0  0  0
 26 28  2  0  0  0  0
 26 54  1  0  0  0  0
 27 28  1  0  0  0  0
 27 55  1  0  0  0  0
 28 56  1  0  0  0  0
M  END
>  <DRUGBANK_ID>
DB03536

>  <SECONDARY_ACCESSION_NUMBERS>
EXPT03294

>  <COMMON_NAME>
Benzyl N-[(2S)-5-(diaminomethylamino)-1-[[(2S)-4-fluoro-3-oxobutan-2-yl]amino]-1-oxopentan-2-yl]carbamate

>  <SYNONYMS>
Benzoyl-arginine-alanine-methyl ketone

$$$$
