
 OpenBabel10282417153D

 46 49  0  0  0  0  0  0  0  0999 V2000
    2.1992    0.6710    0.1795 C   0  0  0  0  0  0  0  0  0  0  0  0
    2.1760   -0.7290    0.1814 C   0  0  0  0  0  0  0  0  0  0  0  0
    0.9860   -1.4536    0.0670 C   0  0  0  0  0  0  0  0  0  0  0  0
   -0.2288   -0.7538    0.0259 C   0  0  0  0  0  0  0  0  0  0  0  0
   -0.1957    0.6355    0.0326 C   0  0  0  0  0  0  0  0  0  0  0  0
    0.9916    1.3813    0.0766 C   0  0  0  0  0  0  0  0  0  0  0  0
   -1.6135   -1.0998   -0.0183 C   0  0  0  0  0  0  0  0  0  0  0  0
   -2.3835   -0.0024   -0.0150 N   0  0  0  0  0  0  0  0  0  0  0  0
   -1.5072    1.0162   -0.0101 N   0  0  0  0  0  0  0  0  0  0  0  0
    3.7209    1.6188    0.2654 S   0  0  0  0  0  0  0  0  0  0  0  0
    5.0514    0.4406   -0.0375 C   0  0  0  0  0  0  0  0  0  0  0  0
    5.1984   -0.4274   -1.1523 C   0  0  0  0  0  0  0  0  0  0  0  0
    6.3190   -1.2841   -1.1895 C   0  0  0  0  0  0  0  0  0  0  0  0
    7.3055   -1.2385   -0.1989 C   0  0  0  0  0  0  0  0  0  0  0  0
    7.1908   -0.3440    0.8545 C   0  0  0  0  0  0  0  0  0  0  0  0
    6.0527    0.4537    0.9581 C   0  0  0  0  0  0  0  0  0  0  0  0
    4.1808   -0.4692   -2.2642 C   0  0  0  0  0  0  0  0  0  0  0  0
    4.2141   -1.5041   -3.1792 N   0  0  0  0  0  0  0  0  0  0  0  0
    3.3105    0.3937   -2.3702 O   0  0  0  0  0  0  0  0  0  0  0  0
   -2.1137   -2.4460   -0.0229 C   0  0  0  0  0  0  0  0  0  0  0  0
   -3.4137   -2.7931   -0.0341 C   0  0  0  0  0  0  0  0  0  0  0  0
   -3.8831   -4.1826   -0.0126 C   0  0  0  0  0  0  0  0  0  0  0  0
   -4.9098   -4.4785   -0.8424 N   0  0  0  0  0  0  0  0  0  0  0  0
   -3.3233   -5.1256    0.8457 C   0  0  0  0  0  0  0  0  0  0  0  0
   -5.3540   -5.7581   -0.8465 C   0  0  0  0  0  0  0  0  0  0  0  0
   -3.7989   -6.4341    0.8187 C   0  0  0  0  0  0  0  0  0  0  0  0
   -4.8307   -6.7628   -0.0492 C   0  0  0  0  0  0  0  0  0  0  0  0
    3.1685   -1.6120   -4.1726 C   0  0  0  0  0  0  0  0  0  0  0  0
    3.0934   -1.3032    0.2180 H   0  0  0  0  0  0  0  0  0  0  0  0
    1.0220   -2.5366    0.0222 H   0  0  0  0  0  0  0  0  0  0  0  0
    0.9745    2.4667    0.0287 H   0  0  0  0  0  0  0  0  0  0  0  0
   -1.8710    1.9613   -0.0080 H   0  0  0  0  0  0  0  0  0  0  0  0
    6.4754   -1.9911   -1.9954 H   0  0  0  0  0  0  0  0  0  0  0  0
    8.1690   -1.8980   -0.2571 H   0  0  0  0  0  0  0  0  0  0  0  0
    7.9858   -0.2612    1.5923 H   0  0  0  0  0  0  0  0  0  0  0  0
    5.9539    1.0986    1.8314 H   0  0  0  0  0  0  0  0  0  0  0  0
    4.9908   -2.1416   -3.2472 H   0  0  0  0  0  0  0  0  0  0  0  0
   -1.3661   -3.2349   -0.0217 H   0  0  0  0  0  0  0  0  0  0  0  0
   -4.1888   -2.0333   -0.0765 H   0  0  0  0  0  0  0  0  0  0  0  0
   -2.5323   -4.8507    1.5344 H   0  0  0  0  0  0  0  0  0  0  0  0
   -6.1707   -5.9652   -1.5331 H   0  0  0  0  0  0  0  0  0  0  0  0
   -3.3668   -7.1857    1.4725 H   0  0  0  0  0  0  0  0  0  0  0  0
   -5.2211   -7.7734   -0.0980 H   0  0  0  0  0  0  0  0  0  0  0  0
    3.5958   -1.3798   -5.1498 H   0  0  0  0  0  0  0  0  0  0  0  0
    2.7894   -2.6357   -4.1605 H   0  0  0  0  0  0  0  0  0  0  0  0
    2.3372   -0.9291   -3.9730 H   0  0  0  0  0  0  0  0  0  0  0  0
  1  2  2  0  0  0  0
  1  6  1  0  0  0  0
  1 10  1  0  0  0  0
  2  3  1  0  0  0  0
  2 29  1  0  0  0  0
  3  4  2  0  0  0  0
  3 30  1  0  0  0  0
  4  5  1  0  0  0  0
  4  7  1  0  0  0  0
  5  6  2  0  0  0  0
  5  9  1  0  0  0  0
  6 31  1  0  0  0  0
  7  8  2  0  0  0  0
  7 20  1  0  0  0  0
  8  9  1  0  0  0  0
  9 32  1  0  0  0  0
 10 11  1  0  0  0  0
 11 12  2  0  0  0  0
 11 16  1  0  0  0  0
 12 13  1  0  0  0  0
 12 17  1  0  0  0  0
 13 14  2  0  0  0  0
 13 33  1  0  0  0  0
 14 15  1  0  0  0  0
 14 34  1  0  0  0  0
 15 16  2  0  0  0  0
 15 35  1  0  0  0  0
 16 36  1  0  0  0  0
 17 18  1  0  0  0  0
 17 19  2  0  0  0  0
 18 28  1  0  0  0  0
 18 37  1  0  0  0  0
 20 21  2  0  0  0  0
 20 38  1  0  0  0  0
 21 22  1  0  0  0  0
 21 39  1  0  0  0  0
 23 22  1  0  0  0  0
 24 22  2  0  0  0  0
 24 40  1  0  0  0  0
 25 23  2  0  0  0  0
 25 41  1  0  0  0  0
 26 24  1  0  0  0  0
 26 42  1  0  0  0  0
 27 25  1  0  0  0  0
 27 26  2  0  0  0  0
 27 43  1  0  0  0  0
 28 44  1  0  0  0  0
 28 45  1  0  0  0  0
 28 46  1  0  0  0  0
M  END
>  <DRUGBANK_ID>
DB06626

>  <COMMON_NAME>
Axitinib

>  <CAS_NUMBER>
319460-85-0

>  <UNII>
C9LVQ0YUXG

>  <SYNONYMS>
Axitinib; Axitinibum; N-methyl-2-[[3-[(E)-2-pyridin-2-ylethenyl]-1H-indazol-6-yl]sulfanyl]benzamide

$$$$
