
 OpenBabel10282417153D

119122  0  0  0  0  0  0  0  0999 V2000
    8.0909    1.2275   -2.9095 C   0  0  0  0  0  0  0  0  0  0  0  0
    7.3860    1.9208   -1.6913 C   0  0  1  0  0  0  0  0  0  0  0  0
    8.4703    2.1284   -0.6449 C   0  0  0  0  0  0  0  0  0  0  0  0
    9.4923    0.2736   -2.3187 C   0  0  0  0  0  0  0  0  0  0  0  0
    8.8998   -0.4932   -1.1398 C   0  0  1  0  0  0  0  0  0  0  0  0
    8.7982    0.7244   -0.0626 C   0  0  1  0  0  0  0  0  0  0  0  0
    7.8629    0.5301    1.1151 C   0  0  0  0  0  0  0  0  0  0  0  0
    8.2086   -0.7646    1.8253 C   0  0  2  0  0  0  0  0  0  0  0  0
    9.4177   -1.7537   -0.4174 C   0  0  2  0  0  0  0  0  0  0  0  0
    8.4601   -1.9227    0.7703 C   0  0  2  0  0  0  0  0  0  0  0  0
    9.4970   -4.4120   -0.8836 C   0  0  0  0  0  0  0  0  0  0  0  0
    9.3545   -2.9868   -1.3805 C   0  0  0  0  0  0  0  0  0  0  0  0
    8.7141   -4.7686    0.3229 C   0  0  1  0  0  0  0  0  0  0  0  0
    8.6099   -3.2812    1.3713 C   0  0  1  0  0  0  0  0  0  0  0  0
    9.5381   -3.4233    2.4633 C   0  0  0  0  0  0  0  0  0  0  0  0
    8.6417   -4.7951    2.3556 C   0  0  0  0  0  0  0  0  0  0  0  0
    7.3774   -4.8552    0.7970 C   0  0  2  0  0  0  0  0  0  0  0  0
    7.6793   -0.9167   -1.8954 C   0  0  0  0  0  0  0  0  0  0  0  0
    7.5457   -1.9552    0.2759 H   0  0  0  0  0  0  0  0  0  0  0  0
   10.4265   -1.6511   -0.0106 H   0  0  0  0  0  0  0  0  0  0  0  0
    7.6644   -3.2063    2.0096 H   0  0  0  0  0  0  0  0  0  0  0  0
    8.7525   -6.4105    0.7116 C   0  0  0  0  0  0  0  0  0  0  0  0
    6.3215   -5.7040   -0.4571 C   0  0  1  0  0  0  0  0  0  0  0  0
    4.8774   -5.9076    0.1535 C   0  0  0  0  0  0  0  0  0  0  0  0
    5.9980   -5.0776   -1.9300 C   0  0  0  0  0  0  0  0  0  0  0  0
    4.0403   -4.6895    0.6622 C   0  0  0  0  0  0  0  0  0  0  0  0
    3.3773   -3.5986   -0.3403 C   0  0  2  0  0  0  0  0  0  0  0  0
    3.3603   -3.8796   -1.8596 C   0  0  0  0  0  0  0  0  0  0  0  0
    2.0414   -4.1372   -2.4889 C   0  0  0  0  0  0  0  0  0  0  0  0
    4.1017   -2.8835   -2.8636 C   0  0  0  0  0  0  0  0  0  0  0  0
    7.1079   -3.9464    0.3285 H   0  0  0  0  0  0  0  0  0  0  0  0
    7.3144   -0.9222    2.9505 O   0  0  0  0  0  0  0  0  0  0  0  0
    3.8431   -2.2933   -0.2272 O   0  0  0  0  0  0  0  0  0  0  0  0
    5.3844   -2.0738   -0.0327 S   0  0  0  0  0  0  0  0  0  0  0  0
    5.6938   -2.8151    1.3161 O   0  0  0  0  0  0  0  0  0  0  0  0
    6.1578   -2.7361   -0.9843 O   0  0  0  0  0  0  0  0  0  0  0  0
    5.5112   -0.6276    0.2216 O   0  0  0  0  0  0  0  0  0  0  0  0
    6.6336    3.1681   -1.7035 N   0  0  0  0  0  0  0  0  0  0  0  0
    5.7779    3.1473   -0.4692 C   0  0  0  0  0  0  0  0  0  0  0  0
    5.0774    4.4688   -0.2753 C   0  0  0  0  0  0  0  0  0  0  0  0
    4.2283    4.7991   -1.4798 C   0  0  0  0  0  0  0  0  0  0  0  0
    3.1901    3.7888   -1.6894 N   0  0  0  0  0  0  0  0  0  0  0  0
    2.4682    4.0638   -2.9201 C   0  0  0  0  0  0  0  0  0  0  0  0
    3.3650    4.0032   -4.1674 C   0  0  0  0  0  0  0  0  0  0  0  0
    4.0314    2.6319   -4.3665 C   0  0  0  0  0  0  0  0  0  0  0  0
    3.0156    1.5185   -4.5308 C   0  0  0  0  0  0  0  0  0  0  0  0
    2.1990    1.7658   -5.7138 N   0  0  0  0  0  0  0  0  0  0  0  0
    1.1338    0.7761   -5.8291 C   0  0  0  0  0  0  0  0  0  0  0  0
    0.1481    0.8145   -4.6534 C   0  0  0  0  0  0  0  0  0  0  0  0
   -0.5316    2.1749   -4.4860 C   0  0  0  0  0  0  0  0  0  0  0  0
   -1.3201    2.5142   -5.6631 N   0  0  0  0  0  0  0  0  0  0  0  0
    9.7810    0.7911    0.4418 H   0  0  0  0  0  0  0  0  0  0  0  0
    7.9560    1.0541   -4.0017 H   0  0  0  0  0  0  0  0  0  0  0  0
    7.1202    0.6518   -3.0311 H   0  0  0  0  0  0  0  0  0  0  0  0
    6.5596    1.2804   -1.3574 H   0  0  0  0  0  0  0  0  0  0  0  0
    9.5297    2.4012   -0.5319 H   0  0  0  0  0  0  0  0  0  0  0  0
    8.8409    2.8587   -1.3955 H   0  0  0  0  0  0  0  0  0  0  0  0
   10.3694    0.6723   -1.7971 H   0  0  0  0  0  0  0  0  0  0  0  0
   10.0533   -0.0938   -3.1905 H   0  0  0  0  0  0  0  0  0  0  0  0
    7.7895    1.3630    1.8275 H   0  0  0  0  0  0  0  0  0  0  0  0
    6.8735    0.6192    0.7000 H   0  0  0  0  0  0  0  0  0  0  0  0
    9.1512   -0.7529    2.3449 H   0  0  0  0  0  0  0  0  0  0  0  0
   10.3863   -4.7126   -0.3502 H   0  0  0  0  0  0  0  0  0  0  0  0
    9.9812   -4.9151   -1.7296 H   0  0  0  0  0  0  0  0  0  0  0  0
   10.0286   -2.8337   -2.2263 H   0  0  0  0  0  0  0  0  0  0  0  0
    8.4056   -3.0149   -1.9074 H   0  0  0  0  0  0  0  0  0  0  0  0
   10.5606   -3.8129    2.5494 H   0  0  0  0  0  0  0  0  0  0  0  0
   10.1019   -2.6248    1.9366 H   0  0  0  0  0  0  0  0  0  0  0  0
    9.5158   -5.5025    2.3557 H   0  0  0  0  0  0  0  0  0  0  0  0
    8.2950   -4.8925    3.3825 H   0  0  0  0  0  0  0  0  0  0  0  0
    7.9631   -0.9675   -2.9557 H   0  0  0  0  0  0  0  0  0  0  0  0
    7.1453   -1.7820   -2.1597 H   0  0  0  0  0  0  0  0  0  0  0  0
    6.8787   -0.3544   -1.4872 H   0  0  0  0  0  0  0  0  0  0  0  0
    8.2484   -7.0523    0.0010 H   0  0  0  0  0  0  0  0  0  0  0  0
    9.7580   -6.7512    0.9028 H   0  0  0  0  0  0  0  0  0  0  0  0
    8.1388   -6.6798    1.6348 H   0  0  0  0  0  0  0  0  0  0  0  0
    6.7246   -6.6390   -0.8525 H   0  0  0  0  0  0  0  0  0  0  0  0
    4.2101   -6.4599   -0.5214 H   0  0  0  0  0  0  0  0  0  0  0  0
    5.0639   -6.5733    0.9969 H   0  0  0  0  0  0  0  0  0  0  0  0
    6.6857   -4.5645   -2.6190 H   0  0  0  0  0  0  0  0  0  0  0  0
    5.2780   -5.6111   -2.5963 H   0  0  0  0  0  0  0  0  0  0  0  0
    5.3713   -4.3012   -1.6137 H   0  0  0  0  0  0  0  0  0  0  0  0
    3.2101   -5.0595    1.2750 H   0  0  0  0  0  0  0  0  0  0  0  0
    4.6004   -4.3029    1.5036 H   0  0  0  0  0  0  0  0  0  0  0  0
    2.3626   -3.4452    0.0317 H   0  0  0  0  0  0  0  0  0  0  0  0
    3.6900   -4.9081   -1.8822 H   0  0  0  0  0  0  0  0  0  0  0  0
    1.5193   -3.1917   -2.5872 H   0  0  0  0  0  0  0  0  0  0  0  0
    2.2751   -4.5704   -3.4715 H   0  0  0  0  0  0  0  0  0  0  0  0
    1.5000   -4.8750   -1.8979 H   0  0  0  0  0  0  0  0  0  0  0  0
    5.0334   -2.4684   -2.5367 H   0  0  0  0  0  0  0  0  0  0  0  0
    4.4350   -3.3798   -3.7844 H   0  0  0  0  0  0  0  0  0  0  0  0
    3.5706   -1.9498   -3.0709 H   0  0  0  0  0  0  0  0  0  0  0  0
    7.8738   -0.7188    3.7442 H   0  0  0  0  0  0  0  0  0  0  0  0
    5.9949   -2.2596    2.0374 H   0  0  0  0  0  0  0  0  0  0  0  0
    6.0569    3.2186   -2.5358 H   0  0  0  0  0  0  0  0  0  0  0  0
    5.0363    2.3325   -0.5044 H   0  0  0  0  0  0  0  0  0  0  0  0
    6.3692    2.9511    0.4325 H   0  0  0  0  0  0  0  0  0  0  0  0
    4.4606    4.4336    0.6290 H   0  0  0  0  0  0  0  0  0  0  0  0
    5.8365    5.2450   -0.1341 H   0  0  0  0  0  0  0  0  0  0  0  0
    3.7733    5.7823   -1.3630 H   0  0  0  0  0  0  0  0  0  0  0  0
    4.9037    4.8686   -2.3355 H   0  0  0  0  0  0  0  0  0  0  0  0
    3.5999    2.8560   -1.7533 H   0  0  0  0  0  0  0  0  0  0  0  0
    1.6676    3.3260   -2.9763 H   0  0  0  0  0  0  0  0  0  0  0  0
    1.9689    5.0333   -2.8442 H   0  0  0  0  0  0  0  0  0  0  0  0
    2.7690    4.2789   -5.0415 H   0  0  0  0  0  0  0  0  0  0  0  0
    4.1413    4.7728   -4.1336 H   0  0  0  0  0  0  0  0  0  0  0  0
    4.7103    2.6637   -5.2242 H   0  0  0  0  0  0  0  0  0  0  0  0
    4.6451    2.3660   -3.5046 H   0  0  0  0  0  0  0  0  0  0  0  0
    3.5181    0.5510   -4.6123 H   0  0  0  0  0  0  0  0  0  0  0  0
    2.4231    1.4781   -3.6129 H   0  0  0  0  0  0  0  0  0  0  0  0
    1.7785    2.6922   -5.6675 H   0  0  0  0  0  0  0  0  0  0  0  0
    0.6038    0.9682   -6.7682 H   0  0  0  0  0  0  0  0  0  0  0  0
    1.5780   -0.2175   -5.9351 H   0  0  0  0  0  0  0  0  0  0  0  0
   -0.6056    0.0337   -4.7938 H   0  0  0  0  0  0  0  0  0  0  0  0
    0.6563    0.5484   -3.7182 H   0  0  0  0  0  0  0  0  0  0  0  0
   -1.1644    2.1652   -3.5937 H   0  0  0  0  0  0  0  0  0  0  0  0
    0.2004    2.9700   -4.3341 H   0  0  0  0  0  0  0  0  0  0  0  0
   -1.7037    3.4509   -5.5552 H   0  0  0  0  0  0  0  0  0  0  0  0
   -0.7096    2.5632   -6.4797 H   0  0  0  0  0  0  0  0  0  0  0  0
  1  4  1  0  0  0  0
  1  2  1  0  0  0  0
  1 53  1  0  0  0  0
  1 54  1  0  0  0  0
  2  3  1  0  0  0  0
  2 38  1  0  0  0  0
  2 55  1  1  0  0  0
  3  6  1  0  0  0  0
  3 56  1  0  0  0  0
  3 57  1  0  0  0  0
  4 58  1  0  0  0  0
  4 59  1  0  0  0  0
  5  4  1  0  0  0  0
  5  6  1  0  0  0  0
  5  9  1  0  0  0  0
  5 18  1  1  0  0  0
  6  7  1  0  0  0  0
  6 52  1  6  0  0  0
  7  8  1  0  0  0  0
  7 60  1  0  0  0  0
  7 61  1  0  0  0  0
  8 10  1  0  0  0  0
  8 62  1  1  0  0  0
  8 32  1  0  0  0  0
  9 10  1  0  0  0  0
  9 12  1  0  0  0  0
  9 20  1  6  0  0  0
 10 14  1  0  0  0  0
 10 19  1  1  0  0  0
 11 12  1  0  0  0  0
 11 63  1  0  0  0  0
 11 64  1  0  0  0  0
 12 65  1  0  0  0  0
 12 66  1  0  0  0  0
 13 11  1  0  0  0  0
 13 14  1  0  0  0  0
 13 22  1  1  0  0  0
 14 15  1  0  0  0  0
 14 21  1  1  0  0  0
 15 16  1  0  0  0  0
 15 67  1  0  0  0  0
 15 68  1  0  0  0  0
 16 17  1  0  0  0  0
 16 69  1  0  0  0  0
 16 70  1  0  0  0  0
 17 13  1  0  0  0  0
 17 23  1  0  0  0  0
 17 31  1  6  0  0  0
 18 71  1  0  0  0  0
 18 72  1  0  0  0  0
 18 73  1  0  0  0  0
 22 74  1  0  0  0  0
 22 75  1  0  0  0  0
 22 76  1  0  0  0  0
 23 24  1  0  0  0  0
 23 25  1  0  0  0  0
 23 77  1  6  0  0  0
 24 26  1  0  0  0  0
 24 78  1  0  0  0  0
 24 79  1  0  0  0  0
 25 80  1  0  0  0  0
 25 81  1  0  0  0  0
 25 82  1  0  0  0  0
 26 83  1  0  0  0  0
 26 84  1  0  0  0  0
 27 33  1  0  0  0  0
 27 85  1  1  0  0  0
 27 28  1  0  0  0  0
 27 26  1  0  0  0  0
 28 29  1  0  0  0  0
 28 30  1  0  0  0  0
 28 86  1  0  0  0  0
 29 87  1  0  0  0  0
 29 88  1  0  0  0  0
 29 89  1  0  0  0  0
 30 90  1  0  0  0  0
 30 91  1  0  0  0  0
 30 92  1  0  0  0  0
 32 93  1  0  0  0  0
 33 34  1  0  0  0  0
 34 35  1  0  0  0  0
 34 36  2  0  0  0  0
 34 37  2  0  0  0  0
 35 94  1  0  0  0  0
 38 39  1  0  0  0  0
 38 95  1  0  0  0  0
 39 40  1  0  0  0  0
 39 96  1  0  0  0  0
 39 97  1  0  0  0  0
 40 41  1  0  0  0  0
 40 98  1  0  0  0  0
 40 99  1  0  0  0  0
 41 42  1  0  0  0  0
 41100  1  0  0  0  0
 41101  1  0  0  0  0
 42 43  1  0  0  0  0
 42102  1  0  0  0  0
 43 44  1  0  0  0  0
 43103  1  0  0  0  0
 43104  1  0  0  0  0
 44 45  1  0  0  0  0
 44105  1  0  0  0  0
 44106  1  0  0  0  0
 45 46  1  0  0  0  0
 45107  1  0  0  0  0
 45108  1  0  0  0  0
 46 47  1  0  0  0  0
 46109  1  0  0  0  0
 46110  1  0  0  0  0
 47 48  1  0  0  0  0
 47111  1  0  0  0  0
 48 49  1  0  0  0  0
 48112  1  0  0  0  0
 48113  1  0  0  0  0
 49 50  1  0  0  0  0
 49114  1  0  0  0  0
 49115  1  0  0  0  0
 50 51  1  0  0  0  0
 50116  1  0  0  0  0
 50117  1  0  0  0  0
 51118  1  0  0  0  0
 51119  1  0  0  0  0
M  END
>  <DRUGBANK_ID>
DB06333

>  <COMMON_NAME>
Trodusquemine

>  <CAS_NUMBER>
186139-09-3

>  <UNII>
KKC12PIF16

>  <SYNONYMS>
Trodusquemine

$$$$
