
 OpenBabel10282417103D

176185  0  0  1  0  0  0  0  0999 V2000
   -1.8047   10.4757   -3.5131 C   0  0  0  0  0  0  0  0  0  0  0  0
   -3.2526   11.2477   -4.3494 C   0  0  0  0  0  0  0  0  0  0  0  0
   -1.1106   12.0561   -4.3853 C   0  0  0  0  0  0  0  0  0  0  0  0
   -0.5430    9.5016   -5.5564 C   0  0  0  0  0  0  0  0  0  0  0  0
   -0.5484   10.6487   -4.8077 C   0  0  0  0  0  0  0  0  0  0  0  0
   -2.2275    9.8298   -5.2903 C   0  0  0  0  0  0  0  0  0  0  0  0
   -4.0404   13.1028   -4.4599 O   0  0  0  0  0  0  0  0  0  0  0  0
   -1.4297   13.5665   -5.7759 O   0  0  0  0  0  0  0  0  0  0  0  0
    2.0557   16.0917   -9.6477 C   0  0  1  0  0  0  0  0  0  0  0  0
   -4.1477   15.9044   -6.5898 C   0  0  1  0  0  0  0  0  0  0  0  0
    0.6986   16.7743   -8.7200 C   0  0  0  0  0  0  0  0  0  0  0  0
   -4.7783   16.7131   -5.4987 C   0  0  0  0  0  0  0  0  0  0  0  0
   -1.4213   15.4663   -6.6433 C   0  0  0  0  0  0  0  0  0  0  0  0
   -5.4864   14.7482   -4.4982 C   0  0  0  0  0  0  0  0  0  0  0  0
   -0.6988   16.3053   -6.0589 C   0  0  0  0  0  0  0  0  0  0  0  0
   -5.8714   15.5365   -3.4896 C   0  0  0  0  0  0  0  0  0  0  0  0
   -4.7925   16.2403   -3.7695 C   0  0  0  0  0  0  0  0  0  0  0  0
   -5.5609   17.5059   -6.0855 C   0  0  0  0  0  0  0  0  0  0  0  0
   -0.2121   17.4893   -9.1622 C   0  0  0  0  0  0  0  0  0  0  0  0
   -1.3789   16.8954   -8.0106 C   0  0  0  0  0  0  0  0  0  0  0  0
   -6.0490   16.4964   -5.2525 C   0  0  0  0  0  0  0  0  0  0  0  0
   -6.9978   15.8333   -2.1747 Cl  0  0  0  0  0  0  0  0  0  0  0  0
    2.4469   16.9368  -10.6676 O   0  0  0  0  0  0  0  0  0  0  0  0
   -0.8689   15.3604   -4.8292 Cl  0  0  0  0  0  0  0  0  0  0  0  0
   -3.2225   15.4668   -5.7240 O   0  0  0  0  0  0  0  0  0  0  0  0
   -1.1402    4.6391   -3.4466 C   0  0  1  0  0  0  0  0  0  0  0  0
   -0.6327    6.4662   -2.6309 C   0  0  1  0  0  0  0  0  0  0  0  0
   -0.5564    2.9951   -3.1917 C   0  0  2  0  0  0  0  0  0  0  0  0
    0.9111    5.5367   -2.2925 O   0  0  0  0  0  0  0  0  0  0  0  0
   -3.3976    6.0724   -1.5451 C   0  0  1  0  0  0  0  0  0  0  0  0
    0.9060    2.9029   -2.9165 C   0  0  1  0  0  0  0  0  0  0  0  0
   -3.2507    3.7403   -2.4631 C   0  0  1  0  0  0  0  0  0  0  0  0
    1.2280    3.9836   -1.8760 C   0  0  1  0  0  0  0  0  0  0  0  0
   -2.9651    4.6351   -1.2892 C   0  0  0  0  0  0  0  0  0  0  0  0
   -4.6800    3.7283   -2.5813 O   0  0  0  0  0  0  0  0  0  0  0  0
   -4.8830    5.9982   -1.6473 C   0  0  1  0  0  0  0  0  0  0  0  0
   -2.5537    4.2301   -3.6314 O   0  0  0  0  0  0  0  0  0  0  0  0
   -5.2164    5.0396   -2.7841 C   0  0  2  0  0  0  0  0  0  0  0  0
   -2.9452    6.9422   -0.4572 N   0  0  0  0  0  0  0  0  0  0  0  0
   -0.8715    2.1177   -4.3367 O   0  0  0  0  0  0  0  0  0  0  0  0
    1.2494    1.5636   -2.4599 O   0  0  0  0  0  0  0  0  0  0  0  0
   -5.4229    5.5334   -0.4177 O   0  0  0  0  0  0  0  0  0  0  0  0
   -3.0592    6.6652   -2.8861 C   0  0  0  0  0  0  0  0  0  0  0  0
   -6.7091    5.0221   -2.9055 C   0  0  0  0  0  0  0  0  0  0  0  0
   -1.0872    8.5286   -3.1385 O   0  0  0  0  0  0  0  0  0  0  0  0
    2.7847    3.9933   -1.7752 C   0  0  0  0  0  0  0  0  0  0  0  0
    3.2896    5.1979   -2.3508 O   0  0  0  0  0  0  0  0  0  0  0  0
    0.2465   16.5441   -6.9724 C   0  0  0  0  0  0  0  0  0  0  0  0
   -4.8405   14.6659   -7.0710 C   0  0  2  0  0  0  0  0  0  0  0  0
   -0.8549   10.1537   -7.6711 N   0  0  0  0  0  0  0  0  0  0  0  0
   -3.8391   13.9468   -7.9209 C   0  0  0  0  0  0  0  0  0  0  0  0
    1.1689   11.2771   -6.2223 C   0  0  0  0  0  0  0  0  0  0  0  0
   -3.4830   12.6290   -7.6110 N   0  0  0  0  0  0  0  0  0  0  0  0
    0.3421    9.8886   -6.8367 C   0  0  1  0  0  0  0  0  0  0  0  0
   -1.3005   11.4606   -7.7115 C   0  0  0  0  0  0  0  0  0  0  0  0
   -2.5441   11.8506   -8.4562 C   0  0  2  0  0  0  0  0  0  0  0  0
   -3.4553   14.5773   -8.9074 O   0  0  0  0  0  0  0  0  0  0  0  0
    0.7027   11.9823   -5.3526 O   0  0  0  0  0  0  0  0  0  0  0  0
   -0.5782   12.3806   -7.3582 O   0  0  0  0  0  0  0  0  0  0  0  0
   -2.0670   12.6873   -9.6399 C   0  0  0  0  0  0  0  0  0  0  0  0
   -1.1317   11.9636  -10.5608 C   0  0  0  0  0  0  0  0  0  0  0  0
    0.0608   11.5217  -10.0483 N   0  0  0  0  0  0  0  0  0  0  0  0
   -1.4491   11.7591  -11.7283 O   0  0  0  0  0  0  0  0  0  0  0  0
   -6.0546   15.0352   -7.7737 N   0  0  0  0  0  0  0  0  0  0  0  0
   -7.2727   14.6182   -7.2955 C   0  0  0  0  0  0  0  0  0  0  0  0
   -8.5250   15.0196   -8.1070 C   0  0  1  0  0  0  0  0  0  0  0  0
   -7.3539   13.9258   -6.2786 O   0  0  0  0  0  0  0  0  0  0  0  0
   -9.2210   13.7418   -8.5872 C   0  0  0  0  0  0  0  0  0  0  0  0
   -9.3905   15.9015   -7.3115 N   0  0  0  0  0  0  0  0  0  0  0  0
   -9.6533   12.8325   -7.4344 C   0  0  0  0  0  0  0  0  0  0  0  0
  -10.6654   16.1500   -7.9617 C   0  0  0  0  0  0  0  0  0  0  0  0
  -10.6462   13.4793   -6.5006 C   0  0  0  0  0  0  0  0  0  0  0  0
  -10.3127   11.5903   -7.9571 C   0  0  0  0  0  0  0  0  0  0  0  0
    3.5039   15.5969   -8.7016 C   0  0  2  0  0  0  0  0  0  0  0  0
    2.0544   12.2280   -6.2962 N   0  0  0  0  0  0  0  0  0  0  0  0
    2.0414   13.9675   -5.2959 C   0  0  1  0  0  0  0  0  0  0  0  0
    5.1969   17.1815   -8.3897 O   0  0  0  0  0  0  0  0  0  0  0  0
    3.5346   14.7973   -7.3437 N   0  0  0  0  0  0  0  0  0  0  0  0
    3.2816   13.6294   -6.8551 C   0  0  0  0  0  0  0  0  0  0  0  0
    3.8400   12.8321   -7.6366 O   0  0  0  0  0  0  0  0  0  0  0  0
    1.7453   15.6213   -7.4433 C   0  0  0  0  0  0  0  0  0  0  0  0
    1.4600   14.8411   -8.3144 O   0  0  0  0  0  0  0  0  0  0  0  0
    0.7885   14.5705   -6.7485 O   0  0  0  0  0  0  0  0  0  0  0  0
    2.0899   17.4704   -6.7906 C   0  0  1  0  0  0  0  0  0  0  0  0
    3.3876   17.6930   -7.1817 N   0  0  0  0  0  0  0  0  0  0  0  0
    4.0563   16.8800   -8.0723 C   0  0  0  0  0  0  0  0  0  0  0  0
   -0.2911   18.4062   -4.7975 C   0  0  0  0  0  0  0  0  0  0  0  0
   -1.6378   18.0451   -4.4791 C   0  0  0  0  0  0  0  0  0  0  0  0
    1.3773   15.6286   -4.0417 C   0  0  0  0  0  0  0  0  0  0  0  0
    1.0296   17.3818   -4.3049 C   0  0  0  0  0  0  0  0  0  0  0  0
   -1.5696   17.1758   -3.3764 C   0  0  0  0  0  0  0  0  0  0  0  0
   -0.0610   16.2706   -3.0127 C   0  0  0  0  0  0  0  0  0  0  0  0
   -2.5938   18.0257   -5.4896 O   0  0  0  0  0  0  0  0  0  0  0  0
    1.1785   18.8458   -6.9883 C   0  0  0  0  0  0  0  0  0  0  0  0
    1.3673   19.5356   -8.2351 C   0  0  0  0  0  0  0  0  0  0  0  0
   -0.6896   20.7907   -7.8516 C   0  0  0  0  0  0  0  0  0  0  0  0
    0.0333   19.1900   -6.1165 C   0  0  0  0  0  0  0  0  0  0  0  0
    0.4132   20.4672   -8.6807 C   0  0  0  0  0  0  0  0  0  0  0  0
    0.4150   20.9328   -9.9800 O   0  0  0  0  0  0  0  0  0  0  0  0
   -0.8878   20.1522   -6.6083 C   0  0  0  0  0  0  0  0  0  0  0  0
   -2.0169   20.3762   -5.8633 O   0  0  0  0  0  0  0  0  0  0  0  0
   -1.2428   11.1860   -5.4910 H   0  0  0  0  0  0  0  0  0  0  0  0
   -1.2501    8.6431   -5.1813 H   0  0  0  0  0  0  0  0  0  0  0  0
    1.5904   15.1290  -10.0401 H   0  0  0  0  0  0  0  0  0  0  0  0
   -3.7998   16.5918   -7.3663 H   0  0  0  0  0  0  0  0  0  0  0  0
   -4.0895   15.4951   -3.3765 H   0  0  0  0  0  0  0  0  0  0  0  0
   -5.4506   18.3715   -6.7736 H   0  0  0  0  0  0  0  0  0  0  0  0
    0.4089   18.2284   -9.8499 H   0  0  0  0  0  0  0  0  0  0  0  0
   -1.1567   18.3901   -8.0179 H   0  0  0  0  0  0  0  0  0  0  0  0
   -6.5091   17.9641   -4.8946 H   0  0  0  0  0  0  0  0  0  0  0  0
    2.8628   17.6416  -10.1588 H   0  0  0  0  0  0  0  0  0  0  0  0
   -3.2592   15.7102   -4.8136 H   0  0  0  0  0  0  0  0  0  0  0  0
   -0.6933    4.7376   -4.4214 H   0  0  0  0  0  0  0  0  0  0  0  0
   -0.7197    5.4786   -1.5287 H   0  0  0  0  0  0  0  0  0  0  0  0
   -1.0561    2.4722   -2.3558 H   0  0  0  0  0  0  0  0  0  0  0  0
    1.4671    3.0955   -3.8320 H   0  0  0  0  0  0  0  0  0  0  0  0
   -2.9508    2.6963   -2.3477 H   0  0  0  0  0  0  0  0  0  0  0  0
    0.8697    3.5853   -0.8919 H   0  0  0  0  0  0  0  0  0  0  0  0
   -1.9492    4.6223   -1.0969 H   0  0  0  0  0  0  0  0  0  0  0  0
   -3.2471    4.2435   -0.3185 H   0  0  0  0  0  0  0  0  0  0  0  0
   -5.2732    6.9883   -1.8955 H   0  0  0  0  0  0  0  0  0  0  0  0
   -4.7882    5.4107   -3.7109 H   0  0  0  0  0  0  0  0  0  0  0  0
   -3.3411    7.8769   -0.6091 H   0  0  0  0  0  0  0  0  0  0  0  0
   -3.3828    6.6118    0.4105 H   0  0  0  0  0  0  0  0  0  0  0  0
   -0.4405    2.4736   -5.1347 H   0  0  0  0  0  0  0  0  0  0  0  0
    0.7210    1.3331   -1.6706 H   0  0  0  0  0  0  0  0  0  0  0  0
   -5.0899    4.6272   -0.2800 H   0  0  0  0  0  0  0  0  0  0  0  0
   -3.1369    6.0551   -3.7634 H   0  0  0  0  0  0  0  0  0  0  0  0
   -3.2760    7.6926   -3.0470 H   0  0  0  0  0  0  0  0  0  0  0  0
   -2.1019    6.7478   -3.1521 H   0  0  0  0  0  0  0  0  0  0  0  0
   -6.9912    5.3535   -3.9055 H   0  0  0  0  0  0  0  0  0  0  0  0
   -7.0892    4.0256   -2.7178 H   0  0  0  0  0  0  0  0  0  0  0  0
   -7.1715    5.7198   -2.1957 H   0  0  0  0  0  0  0  0  0  0  0  0
    3.1242    3.9374   -0.7349 H   0  0  0  0  0  0  0  0  0  0  0  0
    3.2518    3.1569   -2.3096 H   0  0  0  0  0  0  0  0  0  0  0  0
    2.9185    5.2639   -3.2500 H   0  0  0  0  0  0  0  0  0  0  0  0
    1.0698   16.0408   -6.0229 H   0  0  0  0  0  0  0  0  0  0  0  0
   -5.0601   14.0082   -6.2553 H   0  0  0  0  0  0  0  0  0  0  0  0
   -1.4676    9.3772   -7.9363 H   0  0  0  0  0  0  0  0  0  0  0  0
   -3.7984   12.1908   -6.7459 H   0  0  0  0  0  0  0  0  0  0  0  0
    0.9864    9.1476   -7.3998 H   0  0  0  0  0  0  0  0  0  0  0  0
   -3.0323   10.9495   -8.8078 H   0  0  0  0  0  0  0  0  0  0  0  0
   -2.9632   12.9772  -10.2172 H   0  0  0  0  0  0  0  0  0  0  0  0
   -1.5782   13.6120   -9.2922 H   0  0  0  0  0  0  0  0  0  0  0  0
    0.3754   11.7133   -9.0963 H   0  0  0  0  0  0  0  0  0  0  0  0
    0.7213   11.0287  -10.6334 H   0  0  0  0  0  0  0  0  0  0  0  0
   -5.9428   15.6709   -8.5527 H   0  0  0  0  0  0  0  0  0  0  0  0
   -8.2383   15.6293   -8.9552 H   0  0  0  0  0  0  0  0  0  0  0  0
  -10.0991   13.9894   -9.1929 H   0  0  0  0  0  0  0  0  0  0  0  0
   -8.5492   13.1984   -9.2580 H   0  0  0  0  0  0  0  0  0  0  0  0
   -9.5353   15.4679   -6.4181 H   0  0  0  0  0  0  0  0  0  0  0  0
   -8.7746   12.5246   -6.8737 H   0  0  0  0  0  0  0  0  0  0  0  0
  -11.1999   15.2686   -8.3261 H   0  0  0  0  0  0  0  0  0  0  0  0
  -11.3582   16.6620   -7.2922 H   0  0  0  0  0  0  0  0  0  0  0  0
  -10.4357   16.7713   -8.8153 H   0  0  0  0  0  0  0  0  0  0  0  0
  -11.5165   13.8538   -7.0378 H   0  0  0  0  0  0  0  0  0  0  0  0
  -10.9176   12.8731   -5.6583 H   0  0  0  0  0  0  0  0  0  0  0  0
  -10.2352   14.2594   -5.9096 H   0  0  0  0  0  0  0  0  0  0  0  0
   -9.6318   11.0471   -8.6082 H   0  0  0  0  0  0  0  0  0  0  0  0
  -10.5948   10.9521   -7.1163 H   0  0  0  0  0  0  0  0  0  0  0  0
  -11.2126   11.8609   -8.5127 H   0  0  0  0  0  0  0  0  0  0  0  0
    4.0898   14.9833   -9.3432 H   0  0  0  0  0  0  0  0  0  0  0  0
    2.7513   11.4613   -6.8719 H   0  0  0  0  0  0  0  0  0  0  0  0
    2.3960   13.1787   -4.6721 H   0  0  0  0  0  0  0  0  0  0  0  0
    2.7932   14.8316   -6.6771 H   0  0  0  0  0  0  0  0  0  0  0  0
   -0.0978   14.4584   -7.2597 H   0  0  0  0  0  0  0  0  0  0  0  0
    2.0818   17.3297   -5.7473 H   0  0  0  0  0  0  0  0  0  0  0  0
    3.7593   18.5565   -6.8199 H   0  0  0  0  0  0  0  0  0  0  0  0
    1.7234   18.3592   -4.2737 H   0  0  0  0  0  0  0  0  0  0  0  0
   -2.4177   16.4167   -3.2996 H   0  0  0  0  0  0  0  0  0  0  0  0
   -0.5409   16.6863   -1.8139 H   0  0  0  0  0  0  0  0  0  0  0  0
   -3.1348   17.2430   -5.4344 H   0  0  0  0  0  0  0  0  0  0  0  0
    2.0349   19.0593   -8.9684 H   0  0  0  0  0  0  0  0  0  0  0  0
   -1.4808   21.4404   -8.2077 H   0  0  0  0  0  0  0  0  0  0  0  0
    1.1645   20.6273  -10.5295 H   0  0  0  0  0  0  0  0  0  0  0  0
   -2.6032   21.0568   -6.2063 H   0  0  0  0  0  0  0  0  0  0  0  0
  2  1  2  0  0  0  0
  3  1  1  0  0  0  0
  4 54  1  0  0  0  0
  5  4  1  0  0  0  0
  5  3  2  0  0  0  0
  5102  1  0  0  0  0
  6  2  1  0  0  0  0
  6  4  2  0  0  0  0
  6103  1  0  0  0  0
  7  2  1  0  0  0  0
  8  3  1  0  0  0  0
  9 23  1  0  0  0  0
  9 74  1  0  0  0  0
  9104  1  6  0  0  0
 10 49  1  0  0  0  0
 10105  1  6  0  0  0
 10 25  1  0  0  0  0
 11  9  1  0  0  0  0
 12 10  1  0  0  0  0
 13  8  1  0  0  0  0
 14  7  1  0  0  0  0
 15 13  2  0  0  0  0
 16 14  1  0  0  0  0
 17 12  1  0  0  0  0
 17 16  2  0  0  0  0
 17106  1  0  0  0  0
 18 12  2  0  0  0  0
 18107  1  0  0  0  0
 19 11  1  0  0  0  0
 19108  1  0  0  0  0
 20 13  1  0  0  0  0
 20 19  2  0  0  0  0
 20109  1  0  0  0  0
 21 14  2  0  0  0  0
 21 18  1  0  0  0  0
 21110  1  0  0  0  0
 22 16  1  0  0  0  0
 23111  1  0  0  0  0
 24 15  1  0  0  0  0
 25112  1  0  0  0  0
 26 37  1  0  0  0  0
 26113  1  6  0  0  0
 27 26  1  0  0  0  0
 27 45  1  0  0  0  0
 27114  1  1  0  0  0
 28 26  1  0  0  0  0
 28 40  1  0  0  0  0
 28115  1  1  0  0  0
 29 27  1  0  0  0  0
 30 39  1  1  0  0  0
 30 43  1  0  0  0  0
 31 28  1  0  0  0  0
 31 41  1  0  0  0  0
 31116  1  6  0  0  0
 32117  1  1  0  0  0
 32 37  1  0  0  0  0
 33 29  1  0  0  0  0
 33 31  1  0  0  0  0
 33118  1  1  0  0  0
 33 46  1  0  0  0  0
 34 30  1  0  0  0  0
 34 32  1  0  0  0  0
 34119  1  0  0  0  0
 34120  1  0  0  0  0
 35 32  1  0  0  0  0
 36 30  1  0  0  0  0
 36 42  1  0  0  0  0
 36121  1  6  0  0  0
 38 35  1  0  0  0  0
 38 36  1  0  0  0  0
 38122  1  6  0  0  0
 38 44  1  0  0  0  0
 39123  1  0  0  0  0
 39124  1  0  0  0  0
 40125  1  0  0  0  0
 41126  1  0  0  0  0
 42127  1  0  0  0  0
 43128  1  0  0  0  0
 43129  1  0  0  0  0
 43130  1  0  0  0  0
 44131  1  0  0  0  0
 44132  1  0  0  0  0
 44133  1  0  0  0  0
 45  1  1  0  0  0  0
 46 47  1  0  0  0  0
 46134  1  0  0  0  0
 46135  1  0  0  0  0
 47136  1  0  0  0  0
 48 11  2  0  0  0  0
 48 15  1  0  0  0  0
 48137  1  0  0  0  0
 49 64  1  0  0  0  0
 49138  1  1  0  0  0
 50139  1  0  0  0  0
 51 49  1  0  0  0  0
 52 75  1  0  0  0  0
 53 51  1  0  0  0  0
 53140  1  0  0  0  0
 54 50  1  0  0  0  0
 54 52  1  0  0  0  0
 54141  1  6  0  0  0
 55 50  1  0  0  0  0
 56 53  1  0  0  0  0
 56 55  1  0  0  0  0
 56 60  1  0  0  0  0
 56142  1  6  0  0  0
 57 51  2  0  0  0  0
 58 52  2  0  0  0  0
 59 55  2  0  0  0  0
 60 61  1  0  0  0  0
 60143  1  0  0  0  0
 60144  1  0  0  0  0
 61 63  2  0  0  0  0
 61 62  1  0  0  0  0
 62145  1  0  0  0  0
 62146  1  0  0  0  0
 64147  1  0  0  0  0
 65 64  1  0  0  0  0
 66 65  1  0  0  0  0
 66 69  1  0  0  0  0
 66148  1  6  0  0  0
 67 65  2  0  0  0  0
 68 66  1  0  0  0  0
 68149  1  0  0  0  0
 68150  1  0  0  0  0
 69151  1  0  0  0  0
 70 68  1  0  0  0  0
 70152  1  0  0  0  0
 71 69  1  0  0  0  0
 71153  1  0  0  0  0
 71154  1  0  0  0  0
 71155  1  0  0  0  0
 72 70  1  0  0  0  0
 72156  1  0  0  0  0
 72157  1  0  0  0  0
 72158  1  0  0  0  0
 73 70  1  0  0  0  0
 73159  1  0  0  0  0
 73160  1  0  0  0  0
 73161  1  0  0  0  0
 74 78  1  0  0  0  0
 74162  1  6  0  0  0
 75163  1  0  0  0  0
 76 89  1  0  0  0  0
 76 75  1  0  0  0  0
 76 79  1  0  0  0  0
 76164  1  1  0  0  0
 77 86  2  0  0  0  0
 78165  1  0  0  0  0
 79 78  1  0  0  0  0
 79 80  2  0  0  0  0
 81 82  2  0  0  0  0
 81 83  1  0  0  0  0
 83166  1  0  0  0  0
 84 94  1  0  0  0  0
 84 85  1  0  0  0  0
 84167  1  1  0  0  0
 84 81  1  0  0  0  0
 85168  1  0  0  0  0
 86 74  1  0  0  0  0
 86 85  1  0  0  0  0
 88 87  2  0  0  0  0
 89 90  2  0  0  0  0
 90 87  1  0  0  0  0
 90169  1  0  0  0  0
 91 92  2  0  0  0  0
 91 88  1  0  0  0  0
 91170  1  0  0  0  0
 92 89  1  0  0  0  0
 92171  1  0  0  0  0
 93 88  1  0  0  0  0
 93172  1  0  0  0  0
 94 95  2  0  0  0  0
 94 97  1  0  0  0  0
 95 98  1  0  0  0  0
 95173  1  0  0  0  0
 96100  1  0  0  0  0
 96174  1  0  0  0  0
 97 87  1  0  0  0  0
 98 96  2  0  0  0  0
 98 99  1  0  0  0  0
 99175  1  0  0  0  0
100 97  2  0  0  0  0
100101  1  0  0  0  0
101176  1  0  0  0  0
M  END
>  <DRUGBANK_ID>
DB00512

>  <SECONDARY_ACCESSION_NUMBERS>
APRD01287; EXPT03217

>  <COMMON_NAME>
Vancomycin

>  <CAS_NUMBER>
1404-90-6

>  <UNII>
6Q205EH1VU

>  <SYNONYMS>
Vancomicina; Vancomycin; Vancomycine; Vancomycinum

$$$$
