
 OpenBabel10282417143D

 33 35  0  0  0  0  0  0  0  0999 V2000
    1.5338    1.0774    0.0389 N   0  0  0  0  0  0  0  0  0  0  0  0
    0.2328    0.6331    0.0355 C   0  0  0  0  0  0  0  0  0  0  0  0
    2.0098    2.4522   -0.0464 C   0  0  2  0  0  0  0  0  0  0  0  0
    2.3397   -0.0314    0.0238 C   0  0  0  0  0  0  0  0  0  0  0  0
    0.3160   -0.7575    0.0213 C   0  0  0  0  0  0  0  0  0  0  0  0
   -0.9944    1.2624    0.0258 C   0  0  0  0  0  0  0  0  0  0  0  0
    1.5224    3.2281    1.0677 O   0  0  0  0  0  0  0  0  0  0  0  0
    1.5757    3.1862   -1.3127 C   0  0  1  0  0  0  0  0  0  0  0  0
    1.6419   -1.1491    0.0187 N   0  0  0  0  0  0  0  0  0  0  0  0
   -0.8862   -1.5092    0.0012 C   0  0  0  0  0  0  0  0  0  0  0  0
   -2.1183    0.4683    0.0054 C   0  0  0  0  0  0  0  0  0  0  0  0
    1.2514    4.5818    0.6222 C   0  0  1  0  0  0  0  0  0  0  0  0
    1.5963    4.6442   -0.8693 C   0  0  1  0  0  0  0  0  0  0  0  0
    2.4212    2.9251   -2.4272 O   0  0  0  0  0  0  0  0  0  0  0  0
   -2.0854   -0.8753   -0.0060 N   0  0  0  0  0  0  0  0  0  0  0  0
   -0.9165   -2.8836   -0.0246 N   0  0  0  0  0  0  0  0  0  0  0  0
   -0.1965    4.9900    0.9585 C   0  0  0  0  0  0  0  0  0  0  0  0
    2.9014    5.2004   -1.0849 O   0  0  0  0  0  0  0  0  0  0  0  0
   -1.2072    4.3280    0.2180 O   0  0  0  0  0  0  0  0  0  0  0  0
    3.1060    2.4201    0.0217 H   0  0  0  0  0  0  0  0  0  0  0  0
    3.4199    0.0261    0.0054 H   0  0  0  0  0  0  0  0  0  0  0  0
   -1.0948    2.3205    0.0381 H   0  0  0  0  0  0  0  0  0  0  0  0
    0.5582    2.9126   -1.6021 H   0  0  0  0  0  0  0  0  0  0  0  0
   -3.1039    0.9252   -0.0033 H   0  0  0  0  0  0  0  0  0  0  0  0
    1.9104    5.2424    1.1998 H   0  0  0  0  0  0  0  0  0  0  0  0
    0.8976    5.2673   -1.4366 H   0  0  0  0  0  0  0  0  0  0  0  0
    3.2573    3.4101   -2.3013 H   0  0  0  0  0  0  0  0  0  0  0  0
   -0.0485   -3.3901    0.0084 H   0  0  0  0  0  0  0  0  0  0  0  0
   -1.8239   -3.3183    0.0031 H   0  0  0  0  0  0  0  0  0  0  0  0
   -0.4005    4.7937    2.0169 H   0  0  0  0  0  0  0  0  0  0  0  0
   -0.3420    6.0551    0.7680 H   0  0  0  0  0  0  0  0  0  0  0  0
    3.5536    4.7559   -0.5182 H   0  0  0  0  0  0  0  0  0  0  0  0
   -0.9794    4.2909   -0.7235 H   0  0  0  0  0  0  0  0  0  0  0  0
  1  2  1  0  0  0  0
  1  4  1  0  0  0  0
  2  5  2  0  0  0  0
  2  6  1  0  0  0  0
  3  1  1  0  0  0  0
  3  7  1  0  0  0  0
  3  8  1  0  0  0  0
  3 20  1  1  0  0  0
  4  9  2  0  0  0  0
  4 21  1  0  0  0  0
  5 10  1  0  0  0  0
  5  9  1  0  0  0  0
  6 11  2  0  0  0  0
  6 22  1  0  0  0  0
  7 12  1  0  0  0  0
  8 13  1  0  0  0  0
  8 14  1  0  0  0  0
  8 23  1  6  0  0  0
 10 15  2  0  0  0  0
 10 16  1  0  0  0  0
 11 15  1  0  0  0  0
 11 24  1  0  0  0  0
 12 13  1  0  0  0  0
 12 25  1  1  0  0  0
 12 17  1  0  0  0  0
 13 18  1  0  0  0  0
 13 26  1  6  0  0  0
 14 27  1  0  0  0  0
 16 28  1  0  0  0  0
 16 29  1  0  0  0  0
 17 19  1  0  0  0  0
 17 30  1  0  0  0  0
 17 31  1  0  0  0  0
 18 32  1  0  0  0  0
 19 33  1  0  0  0  0
M  END
>  <DRUGBANK_ID>
DB04546

>  <SECONDARY_ACCESSION_NUMBERS>
EXPT00425

>  <COMMON_NAME>
3-Deazaadenosine

>  <CAS_NUMBER>
6736-58-9

>  <UNII>
037V4520IY

>  <SYNONYMS>
3-deaza-adenosine; Deaza-Ado

$$$$
