
 OpenBabel10282417143D

102106  0  0  0  0  0  0  0  0999 V2000
    6.1702   -4.9335   -1.6186 O   0  0  0  0  0  0  0  0  0  0  0  0
    7.2020   -3.1851   -3.2224 O   0  0  0  0  0  0  0  0  0  0  0  0
    3.3260   -5.3524   -2.3970 O   0  0  0  0  0  0  0  0  0  0  0  0
    1.6355   -4.3247   -3.9921 O   0  0  0  0  0  0  0  0  0  0  0  0
    8.2940   -2.7881   -6.2740 O   0  0  0  0  0  0  0  0  0  0  0  0
    3.8034   -4.0014   -5.1472 O   0  0  0  0  0  0  0  0  0  0  0  0
    5.5073   -4.2543   -6.3055 O   0  0  0  0  0  0  0  0  0  0  0  0
    7.4548   -0.7297   -7.3237 O   0  0  0  0  0  0  0  0  0  0  0  0
    3.0620    0.6951   -2.6401 O   0  0  0  0  0  0  0  0  0  0  0  0
    1.0107   -0.1445   -5.1358 O   0  0  0  0  0  0  0  0  0  0  0  0
    8.0981   -5.4831   -3.1399 O   0  0  0  0  0  0  0  0  0  0  0  0
    7.7418   -4.8198   -7.9711 O   0  0  0  0  0  0  0  0  0  0  0  0
    0.7832   -4.6341   -6.3323 O   0  0  0  0  0  0  0  0  0  0  0  0
    0.9463   -3.1027   -0.1357 O   0  0  0  0  0  0  0  0  0  0  0  0
    3.2118   -0.9190    1.4709 O   0  0  0  0  0  0  0  0  0  0  0  0
    5.7045    0.2238   -2.8179 O   0  0  0  0  0  0  0  0  0  0  0  0
   10.1784    0.5863   -3.6464 O   0  0  0  0  0  0  0  0  0  0  0  0
   11.6428    1.3461   -2.0750 O   0  0  0  0  0  0  0  0  0  0  0  0
    3.5751   -3.4832   -0.9353 N   0  0  0  0  0  0  0  0  0  0  0  0
    3.7565   -1.3151   -0.6739 N   0  0  0  0  0  0  0  0  0  0  0  0
    6.3465   -1.0361   -4.6078 N   0  0  0  0  0  0  0  0  0  0  0  0
    4.2990   -5.5413   -3.3710 C   0  0  1  0  0  0  0  0  0  0  0  0
    4.8152   -3.4409   -2.4124 C   0  0  2  0  0  0  0  0  0  0  0  0
    4.3368   -4.1883   -3.8331 C   0  0  1  0  0  0  0  0  0  0  0  0
    6.2413   -3.6062   -2.0763 C   0  0  1  0  0  0  0  0  0  0  0  0
    5.6484   -5.8978   -2.5853 C   0  0  1  0  0  0  0  0  0  0  0  0
    6.9816   -3.7467   -4.5578 C   0  0  1  0  0  0  0  0  0  0  0  0
    5.9794   -3.2000   -5.4452 C   0  0  1  0  0  0  0  0  0  0  0  0
    2.6268   -3.9785   -2.5587 C   0  0  2  0  0  0  0  0  0  0  0  0
    3.2706   -2.0060   -2.1929 C   0  0  1  0  0  0  0  0  0  0  0  0
    8.0497   -4.0658   -5.5873 C   0  0  1  0  0  0  0  0  0  0  0  0
    6.0529   -1.8345   -5.8455 C   0  0  2  0  0  0  0  0  0  0  0  0
    2.4330   -0.5882   -2.9647 C   0  0  2  0  0  0  0  0  0  0  0  0
    1.7631   -1.2241   -4.6430 C   0  0  1  0  0  0  0  0  0  0  0  0
    7.1651   -2.0086   -6.7931 C   0  0  2  0  0  0  0  0  0  0  0  0
    0.9616   -2.9210   -4.8191 C   0  0  1  0  0  0  0  0  0  0  0  0
    6.8736   -6.2250   -3.4484 C   0  0  0  0  0  0  0  0  0  0  0  0
    7.6978   -5.2453   -6.6153 C   0  0  0  0  0  0  0  0  0  0  0  0
    1.2039   -3.2942   -6.2208 C   0  0  0  0  0  0  0  0  0  0  0  0
    1.8668   -2.9212   -0.9430 C   0  0  0  0  0  0  0  0  0  0  0  0
    2.9150   -0.8188    0.2877 C   0  0  0  0  0  0  0  0  0  0  0  0
    5.4983   -0.2501   -3.9222 C   0  0  0  0  0  0  0  0  0  0  0  0
    1.2037   -2.4675   -2.4785 C   0  0  0  0  0  0  0  0  0  0  0  0
    7.7748    0.1716   -6.3446 C   0  0  0  0  0  0  0  0  0  0  0  0
    1.6425   -0.1991   -0.2163 C   0  0  0  0  0  0  0  0  0  0  0  0
    4.2389   -0.4160   -4.6033 C   0  0  0  0  0  0  0  0  0  0  0  0
    8.8304   -0.0600   -5.4628 C   0  0  0  0  0  0  0  0  0  0  0  0
    6.9007    1.2487   -6.1423 C   0  0  0  0  0  0  0  0  0  0  0  0
    9.0771    0.8672   -4.4658 C   0  0  0  0  0  0  0  0  0  0  0  0
    7.1727    2.1731   -5.1317 C   0  0  0  0  0  0  0  0  0  0  0  0
    8.3004    2.0152   -4.3129 C   0  0  0  0  0  0  0  0  0  0  0  0
    8.7428    3.0139   -3.3397 C   0  0  0  0  0  0  0  0  0  0  0  0
    9.8617    2.7739   -2.6408 C   0  0  0  0  0  0  0  0  0  0  0  0
   10.6389    1.5297   -2.7521 C   0  0  0  0  0  0  0  0  0  0  0  0
    7.9888    4.2976   -3.1971 C   0  0  0  0  0  0  0  0  0  0  0  0
    3.9634   -3.1014   -0.0742 H   0  0  0  0  0  0  0  0  0  0  0  0
    4.6831   -1.5826   -0.2966 H   0  0  0  0  0  0  0  0  0  0  0  0
    7.2498   -1.0814   -4.1644 H   0  0  0  0  0  0  0  0  0  0  0  0
    4.3061   -4.6143   -5.7121 H   0  0  0  0  0  0  0  0  0  0  0  0
    5.4555   -4.1823   -7.2696 H   0  0  0  0  0  0  0  0  0  0  0  0
    3.8287    0.6189   -2.0097 H   0  0  0  0  0  0  0  0  0  0  0  0
    0.5508    0.1896   -4.3455 H   0  0  0  0  0  0  0  0  0  0  0  0
    8.0747   -4.4952   -3.0293 H   0  0  0  0  0  0  0  0  0  0  0  0
    7.1187   -4.1023   -8.1230 H   0  0  0  0  0  0  0  0  0  0  0  0
    1.1925   -5.0550   -5.5313 H   0  0  0  0  0  0  0  0  0  0  0  0
    3.9382   -6.1946   -4.1766 H   0  0  0  0  0  0  0  0  0  0  0  0
    5.1092   -2.5378   -2.9239 H   0  0  0  0  0  0  0  0  0  0  0  0
    3.5409   -3.4783   -3.8971 H   0  0  0  0  0  0  0  0  0  0  0  0
    6.4418   -2.8681   -1.2783 H   0  0  0  0  0  0  0  0  0  0  0  0
    5.3364   -6.7648   -2.0133 H   0  0  0  0  0  0  0  0  0  0  0  0
    6.3843   -4.5465   -4.2942 H   0  0  0  0  0  0  0  0  0  0  0  0
    5.3240   -2.9125   -4.6994 H   0  0  0  0  0  0  0  0  0  0  0  0
    1.8993   -4.4852   -1.8430 H   0  0  0  0  0  0  0  0  0  0  0  0
    4.2424   -1.5262   -2.4195 H   0  0  0  0  0  0  0  0  0  0  0  0
    8.9467   -4.4068   -5.0683 H   0  0  0  0  0  0  0  0  0  0  0  0
    5.0666   -1.6569   -6.3169 H   0  0  0  0  0  0  0  0  0  0  0  0
    1.5039   -0.3821   -2.4733 H   0  0  0  0  0  0  0  0  0  0  0  0
    2.5492   -1.4348   -5.3651 H   0  0  0  0  0  0  0  0  0  0  0  0
    6.6529   -2.5566   -7.5835 H   0  0  0  0  0  0  0  0  0  0  0  0
   -0.0717   -3.0105   -4.4113 H   0  0  0  0  0  0  0  0  0  0  0  0
    7.2247   -7.2302   -3.4056 H   0  0  0  0  0  0  0  0  0  0  0  0
    6.5203   -6.1925   -4.4929 H   0  0  0  0  0  0  0  0  0  0  0  0
    8.3939   -6.0727   -6.4912 H   0  0  0  0  0  0  0  0  0  0  0  0
    6.7624   -5.8174   -6.4766 H   0  0  0  0  0  0  0  0  0  0  0  0
    0.7021   -2.5300   -6.8073 H   0  0  0  0  0  0  0  0  0  0  0  0
    2.2662   -3.2613   -6.4530 H   0  0  0  0  0  0  0  0  0  0  0  0
    2.0215   -2.2103   -3.1710 H   0  0  0  0  0  0  0  0  0  0  0  0
    1.6795   -2.8604   -3.3039 H   0  0  0  0  0  0  0  0  0  0  0  0
    0.4136   -1.8089   -2.7872 H   0  0  0  0  0  0  0  0  0  0  0  0
    1.8975    0.6125   -0.8827 H   0  0  0  0  0  0  0  0  0  0  0  0
    0.9545   -0.8693   -0.7265 H   0  0  0  0  0  0  0  0  0  0  0  0
    1.0526    0.2368    0.5631 H   0  0  0  0  0  0  0  0  0  0  0  0
    4.1510   -0.2925   -5.6620 H   0  0  0  0  0  0  0  0  0  0  0  0
    4.0020   -1.4659   -4.3542 H   0  0  0  0  0  0  0  0  0  0  0  0
    3.5531    0.3522   -4.3828 H   0  0  0  0  0  0  0  0  0  0  0  0
    9.4063   -0.9815   -5.4704 H   0  0  0  0  0  0  0  0  0  0  0  0
    5.9530    1.3026   -6.6783 H   0  0  0  0  0  0  0  0  0  0  0  0
    6.4898    3.0083   -5.0029 H   0  0  0  0  0  0  0  0  0  0  0  0
   10.2607    3.5001   -1.9433 H   0  0  0  0  0  0  0  0  0  0  0  0
    7.9557    4.8353   -4.1511 H   0  0  0  0  0  0  0  0  0  0  0  0
    6.9656    4.1083   -2.8577 H   0  0  0  0  0  0  0  0  0  0  0  0
    8.4625    4.9597   -2.4656 H   0  0  0  0  0  0  0  0  0  0  0  0
  1 25  1  0  0  0  0
  1 26  1  0  0  0  0
  4 29  1  0  0  0  0
  4 36  1  0  0  0  0
  5 31  1  0  0  0  0
  5 35  1  0  0  0  0
  6 59  1  0  0  0  0
  7 60  1  0  0  0  0
  8 44  1  0  0  0  0
  9 61  1  0  0  0  0
 10 62  1  0  0  0  0
 11 37  1  0  0  0  0
 11 63  1  0  0  0  0
 12 38  1  0  0  0  0
 12 64  1  0  0  0  0
 13 39  1  0  0  0  0
 13 65  1  0  0  0  0
 14 40  2  0  0  0  0
 15 41  2  0  0  0  0
 16 42  2  0  0  0  0
 17 49  1  0  0  0  0
 17 54  1  0  0  0  0
 18 54  2  0  0  0  0
 19 40  1  0  0  0  0
 19 56  1  0  0  0  0
 20 41  1  0  0  0  0
 20 57  1  0  0  0  0
 21 42  1  0  0  0  0
 21 58  1  0  0  0  0
 22  3  1  0  0  0  0
 22 24  1  0  0  0  0
 22 26  1  0  0  0  0
 22 66  1  6  0  0  0
 23 24  1  0  0  0  0
 23 25  1  0  0  0  0
 23 67  1  6  0  0  0
 23 19  1  0  0  0  0
 24  6  1  0  0  0  0
 24 68  1  1  0  0  0
 25 69  1  1  0  0  0
 25  2  1  0  0  0  0
 26 70  1  1  0  0  0
 26 37  1  0  0  0  0
 27 28  1  0  0  0  0
 27 31  1  0  0  0  0
 27 71  1  1  0  0  0
 27  2  1  0  0  0  0
 28  7  1  0  0  0  0
 28 32  1  0  0  0  0
 28 72  1  1  0  0  0
 29 30  1  0  0  0  0
 29 73  1  1  0  0  0
 29  3  1  0  0  0  0
 30 33  1  0  0  0  0
 30 74  1  6  0  0  0
 30 20  1  0  0  0  0
 31 75  1  1  0  0  0
 31 38  1  0  0  0  0
 32 35  1  0  0  0  0
 32 76  1  6  0  0  0
 32 21  1  0  0  0  0
 33 34  1  0  0  0  0
 33 77  1  1  0  0  0
 33  9  1  0  0  0  0
 34 10  1  0  0  0  0
 34 36  1  0  0  0  0
 34 78  1  6  0  0  0
 35  8  1  0  0  0  0
 35 79  1  6  0  0  0
 36 39  1  0  0  0  0
 36 80  1  1  0  0  0
 37 81  1  0  0  0  0
 37 82  1  0  0  0  0
 38 83  1  0  0  0  0
 38 84  1  0  0  0  0
 39 85  1  0  0  0  0
 39 86  1  0  0  0  0
 40 43  1  0  0  0  0
 41 45  1  0  0  0  0
 42 46  1  0  0  0  0
 43 87  1  0  0  0  0
 43 88  1  0  0  0  0
 43 89  1  0  0  0  0
 44 47  2  0  0  0  0
 44 48  1  0  0  0  0
 45 90  1  0  0  0  0
 45 91  1  0  0  0  0
 45 92  1  0  0  0  0
 46 93  1  0  0  0  0
 46 94  1  0  0  0  0
 46 95  1  0  0  0  0
 47 49  1  0  0  0  0
 47 96  1  0  0  0  0
 48 50  2  0  0  0  0
 48 97  1  0  0  0  0
 49 51  2  0  0  0  0
 50 51  1  0  0  0  0
 50 98  1  0  0  0  0
 51 52  1  0  0  0  0
 52 53  2  0  0  0  0
 52 55  1  0  0  0  0
 53 54  1  0  0  0  0
 53 99  1  0  0  0  0
 55100  1  0  0  0  0
 55101  1  0  0  0  0
 55102  1  0  0  0  0
M  END
>  <DRUGBANK_ID>
DB04268

>  <SECONDARY_ACCESSION_NUMBERS>
EXPT03186

>  <COMMON_NAME>
Methylumbelliferyl chitotriose

>  <SYNONYMS>
Methyl-umbellifertl-N-acetyl-chitotriose

$$$$
