A19
 OpenBabel10282417163D

 30 31  0  0  0  0  0  0  0  0999 V2000
   -2.1393   -0.1342    0.0526 Cl  0  0  0  0  0  0  0  0  0  0  0  0
   -0.4232   -0.1223   -0.0019 C   0  0  0  0  0  0  0  0  0  0  0  0
    0.2255    1.0831   -0.1652 C   0  0  0  0  0  0  0  0  0  0  0  0
    1.6001    1.0766   -0.3759 C   0  0  0  0  0  0  0  0  0  0  0  0
    2.3867   -0.0347   -0.1229 C   0  0  0  0  0  0  0  0  0  0  0  0
    1.7298   -1.2616    0.0250 C   0  0  0  0  0  0  0  0  0  0  0  0
    0.3197   -1.3037    0.0230 C   0  0  0  0  0  0  0  0  0  0  0  0
    4.1729    0.0683    0.0564 S   0  0  0  0  0  0  0  0  0  0  0  0
    4.4869   -0.5962    1.3083 O   0  0  0  0  0  0  0  0  0  0  0  0
    4.7087   -0.4374   -1.1882 O   0  0  0  0  0  0  0  0  0  0  0  0
    4.7738    1.6650    0.2516 N   0  0  0  0  0  0  0  0  0  0  0  0
    3.9871    2.8711    0.2272 C   0  0  0  0  0  0  0  0  0  0  0  0
    2.9602    2.9754    1.1806 C   0  0  0  0  0  0  0  0  0  0  0  0
    1.9839    3.9700    1.0753 C   0  0  0  0  0  0  0  0  0  0  0  0
    2.1212    4.9681    0.1222 C   0  0  0  0  0  0  0  0  0  0  0  0
    3.2049    4.9641   -0.7589 C   0  0  0  0  0  0  0  0  0  0  0  0
    4.1453    3.9108   -0.7356 C   0  0  0  0  0  0  0  0  0  0  0  0
    0.8250    6.3411    0.0234 Br  0  0  0  0  0  0  0  0  0  0  0  0
    5.2877    3.8733   -1.7068 C   0  0  0  0  0  0  0  0  0  0  0  0
    5.4246    4.9196   -2.5549 O   0  0  0  0  0  0  0  0  0  0  0  0
    6.0769    2.9510   -1.7200 O   0  0  0  0  0  0  0  0  0  0  0  0
   -0.3136    2.0268   -0.1841 H   0  0  0  0  0  0  0  0  0  0  0  0
    2.0326    1.9851   -0.7462 H   0  0  0  0  0  0  0  0  0  0  0  0
    2.2942   -2.1909    0.0904 H   0  0  0  0  0  0  0  0  0  0  0  0
   -0.1989   -2.2581    0.0389 H   0  0  0  0  0  0  0  0  0  0  0  0
    5.6796    1.7505   -0.2373 H   0  0  0  0  0  0  0  0  0  0  0  0
    2.8099    2.1727    1.9021 H   0  0  0  0  0  0  0  0  0  0  0  0
    1.0880    3.9051    1.6901 H   0  0  0  0  0  0  0  0  0  0  0  0
    3.2648    5.7871   -1.4618 H   0  0  0  0  0  0  0  0  0  0  0  0
    4.8201    5.6773   -2.5284 H   0  0  0  0  0  0  0  0  0  0  0  0
  1  2  1  0  0  0  0
  2  3  1  0  0  0  0
  2  7  2  0  0  0  0
  3  4  2  0  0  0  0
  3 22  1  0  0  0  0
  4  5  1  0  0  0  0
  4 23  1  0  0  0  0
  5  6  2  0  0  0  0
  5  8  1  0  0  0  0
  6  7  1  0  0  0  0
  6 24  1  0  0  0  0
  7 25  1  0  0  0  0
  8  9  2  0  0  0  0
  8 10  2  0  0  0  0
  8 11  1  0  0  0  0
 11 12  1  0  0  0  0
 11 26  1  0  0  0  0
 12 13  1  0  0  0  0
 12 17  2  0  0  0  0
 13 14  2  0  0  0  0
 13 27  1  0  0  0  0
 14 15  1  0  0  0  0
 14 28  1  0  0  0  0
 15 16  2  0  0  0  0
 15 18  1  0  0  0  0
 16 17  1  0  0  0  0
 16 29  1  0  0  0  0
 17 19  1  0  0  0  0
 19 20  1  0  0  0  0
 19 21  2  0  0  0  0
 20 30  1  0  0  0  0
M  END
>  <DRUGBANK_ID>
DB07309

>  <COMMON_NAME>
5-BROMO-2-{[(4-CHLOROPHENYL)SULFONYL]AMINO}BENZOIC ACID

>  <UNII>
WU438K8EAL

$$$$
