
 OpenBabel10282417183D

 51 52  0  0  0  0  0  0  0  0999 V2000
    4.3311   -4.4850   -3.2672 Br  0  0  0  0  0  0  0  0  0  0  0  0
    0.3084   -6.6548    1.5066 O   0  0  0  0  0  0  0  0  0  0  0  0
    1.7706   -9.0200   -0.2121 O   0  0  0  0  0  0  0  0  0  0  0  0
    1.2118   -3.4174   -2.5383 N   0  0  0  0  0  0  0  0  0  0  0  0
    0.5304   -1.1637   -0.4711 N   0  0  0  0  0  0  0  0  0  0  0  0
    0.4613   -4.7030    0.7503 N   0  0  0  0  0  0  0  0  0  0  0  0
    3.9501   -7.3920   -4.1387 N   0  0  0  0  0  0  0  0  0  0  0  0
    0.7649   -3.5910   -0.0870 C   0  0  1  0  0  0  0  0  0  0  0  0
    0.2254   -3.8085   -1.5246 C   0  0  0  0  0  0  0  0  0  0  0  0
    0.3518   -2.2549    0.4906 C   0  0  0  0  0  0  0  0  0  0  0  0
    1.4281   -1.9772   -2.6382 C   0  0  0  0  0  0  0  0  0  0  0  0
    1.7476   -1.2670   -1.3017 C   0  0  0  0  0  0  0  0  0  0  0  0
    1.0224   -4.0819   -3.8300 C   0  0  0  0  0  0  0  0  0  0  0  0
    0.4504    0.1067    0.2152 C   0  0  0  0  0  0  0  0  0  0  0  0
   -0.3007   -3.7727   -4.4734 C   0  0  0  0  0  0  0  0  0  0  0  0
    0.8655   -5.9978    0.6172 C   0  0  0  0  0  0  0  0  0  0  0  0
    1.8316   -6.5182   -0.5016 C   0  0  0  0  0  0  0  0  0  0  0  0
    2.0827   -7.8492   -0.8618 C   0  0  0  0  0  0  0  0  0  0  0  0
    2.5981   -5.6083   -1.2585 C   0  0  0  0  0  0  0  0  0  0  0  0
    2.8306   -8.1387   -2.0557 C   0  0  0  0  0  0  0  0  0  0  0  0
    3.3339   -5.8890   -2.4147 C   0  0  0  0  0  0  0  0  0  0  0  0
    3.3807   -7.1679   -2.9029 C   0  0  0  0  0  0  0  0  0  0  0  0
    1.0832   -8.9130    1.0161 C   0  0  0  0  0  0  0  0  0  0  0  0
    4.5311   -8.6390   -4.5364 C   0  0  0  0  0  0  0  0  0  0  0  0
   -0.1666   -4.5806    1.5383 H   0  0  0  0  0  0  0  0  0  0  0  0
    4.2732   -6.5602   -4.6351 H   0  0  0  0  0  0  0  0  0  0  0  0
    1.8460   -3.5345    0.0206 H   0  0  0  0  0  0  0  0  0  0  0  0
   -0.7337   -3.2986   -1.6595 H   0  0  0  0  0  0  0  0  0  0  0  0
   -0.0102   -4.8720   -1.6654 H   0  0  0  0  0  0  0  0  0  0  0  0
   -0.6918   -2.3137    0.8184 H   0  0  0  0  0  0  0  0  0  0  0  0
    0.9568   -2.0856    1.3955 H   0  0  0  0  0  0  0  0  0  0  0  0
    2.2728   -1.7979   -3.3158 H   0  0  0  0  0  0  0  0  0  0  0  0
    0.5522   -1.4951   -3.0823 H   0  0  0  0  0  0  0  0  0  0  0  0
    2.1075   -0.2682   -1.5719 H   0  0  0  0  0  0  0  0  0  0  0  0
    2.5912   -1.7408   -0.7790 H   0  0  0  0  0  0  0  0  0  0  0  0
    1.8241   -3.8098   -4.5275 H   0  0  0  0  0  0  0  0  0  0  0  0
    1.0975   -5.1713   -3.7135 H   0  0  0  0  0  0  0  0  0  0  0  0
    1.2972    0.2425    0.8938 H   0  0  0  0  0  0  0  0  0  0  0  0
    0.4331    0.9166   -0.5176 H   0  0  0  0  0  0  0  0  0  0  0  0
   -0.4824    0.1606    0.7844 H   0  0  0  0  0  0  0  0  0  0  0  0
   -0.3714   -2.7041   -4.6804 H   0  0  0  0  0  0  0  0  0  0  0  0
   -0.3800   -4.3209   -5.4136 H   0  0  0  0  0  0  0  0  0  0  0  0
   -1.1219   -4.0775   -3.8212 H   0  0  0  0  0  0  0  0  0  0  0  0
    2.6562   -4.5722   -1.0317 H   0  0  0  0  0  0  0  0  0  0  0  0
    2.9878   -9.1877   -2.2854 H   0  0  0  0  0  0  0  0  0  0  0  0
    1.6457   -8.2768    1.7116 H   0  0  0  0  0  0  0  0  0  0  0  0
    0.0563   -8.6061    0.7926 H   0  0  0  0  0  0  0  0  0  0  0  0
    0.9981   -9.8761    1.5163 H   0  0  0  0  0  0  0  0  0  0  0  0
    4.1739   -8.8771   -5.5400 H   0  0  0  0  0  0  0  0  0  0  0  0
    5.6211   -8.5535   -4.5532 H   0  0  0  0  0  0  0  0  0  0  0  0
    4.2643   -9.4605   -3.8744 H   0  0  0  0  0  0  0  0  0  0  0  0
  1 21  1  0  0  0  0
  2 16  2  0  0  0  0
  3 18  1  0  0  0  0
  3 23  1  0  0  0  0
  4  9  1  0  0  0  0
  4 11  1  0  0  0  0
  4 13  1  0  0  0  0
  5 10  1  0  0  0  0
  5 12  1  0  0  0  0
  5 14  1  0  0  0  0
  6 16  1  0  0  0  0
  6 25  1  0  0  0  0
  7 22  1  0  0  0  0
  7 24  1  0  0  0  0
  7 26  1  0  0  0  0
  8  9  1  0  0  0  0
  8 10  1  0  0  0  0
  8 27  1  6  0  0  0
  8  6  1  0  0  0  0
  9 28  1  0  0  0  0
  9 29  1  0  0  0  0
 10 30  1  0  0  0  0
 10 31  1  0  0  0  0
 11 12  1  0  0  0  0
 11 32  1  0  0  0  0
 11 33  1  0  0  0  0
 12 34  1  0  0  0  0
 12 35  1  0  0  0  0
 13 15  1  0  0  0  0
 13 36  1  0  0  0  0
 13 37  1  0  0  0  0
 14 38  1  0  0  0  0
 14 39  1  0  0  0  0
 14 40  1  0  0  0  0
 15 41  1  0  0  0  0
 15 42  1  0  0  0  0
 15 43  1  0  0  0  0
 16 17  1  0  0  0  0
 17 18  1  0  0  0  0
 17 19  2  0  0  0  0
 18 20  2  0  0  0  0
 19 21  1  0  0  0  0
 19 44  1  0  0  0  0
 20 22  1  0  0  0  0
 20 45  1  0  0  0  0
 21 22  2  0  0  0  0
 23 46  1  0  0  0  0
 23 47  1  0  0  0  0
 23 48  1  0  0  0  0
 24 49  1  0  0  0  0
 24 50  1  0  0  0  0
 24 51  1  0  0  0  0
M  END
>  <DRUGBANK_ID>
DB09207

>  <COMMON_NAME>
AS-8112

$$$$
