
 OpenBabel10282417163D

 26 27  0  0  0  0  0  0  0  0999 V2000
    0.8824   -0.0234    0.0119 C   0  0  0  0  0  0  0  0  0  0  0  0
    0.1842   -1.2241    0.0097 C   0  0  0  0  0  0  0  0  0  0  0  0
   -1.2163   -1.2048   -0.0037 C   0  0  0  0  0  0  0  0  0  0  0  0
   -1.9317    0.0066   -0.0141 C   0  0  0  0  0  0  0  0  0  0  0  0
   -1.1958    1.1998   -0.0008 C   0  0  0  0  0  0  0  0  0  0  0  0
    0.2032    1.1874    0.0124 C   0  0  0  0  0  0  0  0  0  0  0  0
    2.2445    0.0158    0.0113 O   0  0  0  0  0  0  0  0  0  0  0  0
   -3.3433    0.1060   -0.0440 N   0  0  0  0  0  0  0  0  0  0  0  0
   -3.9135   -1.0041   -0.0272 N   0  0  0  0  0  0  0  0  0  0  0  0
   -7.4146   -1.3260    0.3233 N   0  0  0  0  0  0  0  0  0  0  0  0
   -7.4417   -0.3723   -0.6327 N   0  0  0  0  0  0  0  0  0  0  0  0
   -6.1509   -0.1353   -0.8795 C   0  0  0  0  0  0  0  0  0  0  0  0
   -5.3124   -0.9231   -0.0527 C   0  0  0  0  0  0  0  0  0  0  0  0
   -6.1517   -1.7089    0.6963 C   0  0  0  0  0  0  0  0  0  0  0  0
   -5.9070   -2.6710    1.6111 N   0  0  0  0  0  0  0  0  0  0  0  0
   -5.7121    0.7201   -1.8088 N   0  0  0  0  0  0  0  0  0  0  0  0
    0.6997   -2.1791    0.0170 H   0  0  0  0  0  0  0  0  0  0  0  0
   -1.7486   -2.1527   -0.0091 H   0  0  0  0  0  0  0  0  0  0  0  0
   -1.7167    2.1543   -0.0014 H   0  0  0  0  0  0  0  0  0  0  0  0
    0.7599    2.1203    0.0212 H   0  0  0  0  0  0  0  0  0  0  0  0
    2.5892   -0.8917   -0.0191 H   0  0  0  0  0  0  0  0  0  0  0  0
   -8.2964   -1.6826    0.6685 H   0  0  0  0  0  0  0  0  0  0  0  0
   -4.9446   -2.8867    1.8667 H   0  0  0  0  0  0  0  0  0  0  0  0
   -6.6106   -3.1668    2.1469 H   0  0  0  0  0  0  0  0  0  0  0  0
   -4.7230    0.9202   -1.9052 H   0  0  0  0  0  0  0  0  0  0  0  0
   -6.3555    1.3119   -2.3165 H   0  0  0  0  0  0  0  0  0  0  0  0
  1  2  1  0  0  0  0
  1  6  2  0  0  0  0
  1  7  1  0  0  0  0
  2  3  2  0  0  0  0
  2 17  1  0  0  0  0
  3  4  1  0  0  0  0
  3 18  1  0  0  0  0
  4  5  2  0  0  0  0
  4  8  1  0  0  0  0
  5  6  1  0  0  0  0
  5 19  1  0  0  0  0
  6 20  1  0  0  0  0
  7 21  1  0  0  0  0
  8  9  2  0  0  0  0
  9 13  1  0  0  0  0
 10 11  1  0  0  0  0
 10 14  1  0  0  0  0
 10 22  1  0  0  0  0
 11 12  2  0  0  0  0
 12 13  1  0  0  0  0
 12 16  1  0  0  0  0
 13 14  2  0  0  0  0
 14 15  1  0  0  0  0
 15 23  1  0  0  0  0
 15 24  1  0  0  0  0
 16 25  1  0  0  0  0
 16 26  1  0  0  0  0
M  END
>  <DRUGBANK_ID>
DB07731

>  <COMMON_NAME>
CAN-508

>  <CAS_NUMBER>
140651-18-9

>  <UNII>
ZG0O47K626

$$$$
