
 OpenBabel10282417213D

 46 48  0  0  0  0  0  0  0  0999 V2000
    1.2089    0.0792   -0.2525 C   0  0  0  0  0  0  0  0  0  0  0  0
    1.1393    2.0458    1.2425 C   0  0  0  0  0  0  0  0  0  0  0  0
    0.6726    2.0747    5.5051 C   0  0  0  0  0  0  0  0  0  0  0  0
   -4.8852   -2.6089    5.3816 C   0  0  0  0  0  0  0  0  0  0  0  0
    1.3339    0.9045    5.1722 C   0  0  0  0  0  0  0  0  0  0  0  0
   -3.7139   -3.3574    5.4447 C   0  0  0  0  0  0  0  0  0  0  0  0
   -1.3497   -0.8999    1.1651 C   0  0  0  0  0  0  0  0  0  0  0  0
   -0.6902    2.1922    5.2368 C   0  0  0  0  0  0  0  0  0  0  0  0
   -4.9161   -1.3855    4.7113 C   0  0  0  0  0  0  0  0  0  0  0  0
    0.6263   -0.1468    4.5879 C   0  0  0  0  0  0  0  0  0  0  0  0
   -2.5628   -2.8848    4.8197 C   0  0  0  0  0  0  0  0  0  0  0  0
   -2.8798    1.4462    4.3288 C   0  0  0  0  0  0  0  0  0  0  0  0
   -3.7083    0.4734    3.4857 C   0  0  0  0  0  0  0  0  0  0  0  0
   -0.7882    0.5187    1.1368 C   0  0  0  0  0  0  0  0  0  0  0  0
   -0.9174   -1.7211    2.3910 C   0  0  0  0  0  0  0  0  0  0  0  0
   -1.4138    1.1514    4.6120 C   0  0  0  0  0  0  0  0  0  0  0  0
   -3.7545   -0.8932    4.1080 C   0  0  0  0  0  0  0  0  0  0  0  0
   -0.7395   -0.0432    4.2654 C   0  0  0  0  0  0  0  0  0  0  0  0
   -2.5844   -1.6540    4.1589 C   0  0  0  0  0  0  0  0  0  0  0  0
    0.7386    0.6132    1.0532 N   0  3  0  0  0  0  0  0  0  0  0  0
   -1.3865   -1.1298    3.6589 N   0  0  0  0  0  0  0  0  0  0  0  0
    1.4146   -0.1172    1.9799 O   0  5  0  0  0  0  0  0  0  0  0  0
    0.7555    0.6634   -1.0501 H   0  0  0  0  0  0  0  0  0  0  0  0
    0.9109   -0.9729   -0.2937 H   0  0  0  0  0  0  0  0  0  0  0  0
    2.2996    0.1357   -0.2456 H   0  0  0  0  0  0  0  0  0  0  0  0
    0.7251    2.6294    0.4199 H   0  0  0  0  0  0  0  0  0  0  0  0
    0.7386    2.3793    2.2062 H   0  0  0  0  0  0  0  0  0  0  0  0
    2.2311    2.0790    1.2653 H   0  0  0  0  0  0  0  0  0  0  0  0
    1.2148    2.8942    5.9662 H   0  0  0  0  0  0  0  0  0  0  0  0
   -5.7801   -2.9687    5.8842 H   0  0  0  0  0  0  0  0  0  0  0  0
    2.4025    0.8012    5.3383 H   0  0  0  0  0  0  0  0  0  0  0  0
   -3.6766   -4.2886    5.9993 H   0  0  0  0  0  0  0  0  0  0  0  0
   -2.4449   -0.8600    1.1135 H   0  0  0  0  0  0  0  0  0  0  0  0
   -1.0665   -1.4298    0.2498 H   0  0  0  0  0  0  0  0  0  0  0  0
   -1.1962    3.1164    5.5059 H   0  0  0  0  0  0  0  0  0  0  0  0
   -5.8285   -0.8005    4.6935 H   0  0  0  0  0  0  0  0  0  0  0  0
    1.1722   -1.0503    4.3245 H   0  0  0  0  0  0  0  0  0  0  0  0
   -1.6297   -3.4346    4.9022 H   0  0  0  0  0  0  0  0  0  0  0  0
   -3.3794    1.5735    5.2965 H   0  0  0  0  0  0  0  0  0  0  0  0
   -2.9207    2.4157    3.8118 H   0  0  0  0  0  0  0  0  0  0  0  0
   -3.3150    0.4181    2.4687 H   0  0  0  0  0  0  0  0  0  0  0  0
   -4.7233    0.8674    3.3602 H   0  0  0  0  0  0  0  0  0  0  0  0
   -1.0969    1.1022    2.0034 H   0  0  0  0  0  0  0  0  0  0  0  0
   -1.1694    1.0657    0.2645 H   0  0  0  0  0  0  0  0  0  0  0  0
   -1.3489   -2.7239    2.2570 H   0  0  0  0  0  0  0  0  0  0  0  0
    0.1562   -1.9140    2.3931 H   0  0  0  0  0  0  0  0  0  0  0  0
  1 23  1  0  0  0  0
  1 24  1  0  0  0  0
  1 25  1  0  0  0  0
  2 26  1  0  0  0  0
  2 27  1  0  0  0  0
  2 28  1  0  0  0  0
  3 29  1  0  0  0  0
  4 30  1  0  0  0  0
  5  3  2  0  0  0  0
  5 31  1  0  0  0  0
  6  4  2  0  0  0  0
  6 32  1  0  0  0  0
  7 33  1  0  0  0  0
  7 34  1  0  0  0  0
  8  3  1  0  0  0  0
  8 35  1  0  0  0  0
  9  4  1  0  0  0  0
  9 36  1  0  0  0  0
 10  5  1  0  0  0  0
 10 37  1  0  0  0  0
 11  6  1  0  0  0  0
 11 38  1  0  0  0  0
 12 39  1  0  0  0  0
 12 40  1  0  0  0  0
 13 12  1  0  0  0  0
 13 41  1  0  0  0  0
 13 42  1  0  0  0  0
 14  7  1  0  0  0  0
 14 43  1  0  0  0  0
 14 44  1  0  0  0  0
 15  7  1  0  0  0  0
 15 45  1  0  0  0  0
 15 46  1  0  0  0  0
 16  8  2  0  0  0  0
 16 12  1  0  0  0  0
 17  9  2  0  0  0  0
 17 13  1  0  0  0  0
 18 10  2  0  0  0  0
 18 16  1  0  0  0  0
 19 11  2  0  0  0  0
 19 17  1  0  0  0  0
 20  1  1  0  0  0  0
 20  2  1  0  0  0  0
 20 14  1  0  0  0  0
 20 22  1  0  0  0  0
 21 15  1  0  0  0  0
 21 18  1  0  0  0  0
 21 19  1  0  0  0  0
M  CHG  2  20   1  22  -1
M  END
>  <DRUGBANK_ID>
DB13782

>  <COMMON_NAME>
Imipramine oxide

>  <CAS_NUMBER>
6829-98-7

>  <UNII>
8MKS280XJW

>  <SYNONYMS>
Imipramine N-oxide; Imipraminoxide

$$$$
