CT8
 OpenBabel10282417143D

 38 41  0  0  0  0  0  0  0  0999 V2000
   -1.5578   -0.0193   -0.0132 Br  0  0  0  0  0  0  0  0  0  0  0  0
    0.3333   -0.0256   -0.0116 C   0  0  0  0  0  0  0  0  0  0  0  0
    1.0209   -1.2447   -0.0130 C   0  0  0  0  0  0  0  0  0  0  0  0
    2.4272   -1.2796   -0.0001 C   0  0  0  0  0  0  0  0  0  0  0  0
    3.1105   -0.0490    0.0246 C   0  0  0  0  0  0  0  0  0  0  0  0
    2.4170    1.1689    0.0088 C   0  0  0  0  0  0  0  0  0  0  0  0
    1.0245    1.1815   -0.0085 C   0  0  0  0  0  0  0  0  0  0  0  0
    3.1612   -2.5623   -0.0122 C   0  0  0  0  0  0  0  0  0  0  0  0
    3.0101   -3.4727   -1.0692 C   0  0  0  0  0  0  0  0  0  0  0  0
    3.6938   -4.6969   -1.0966 C   0  0  0  0  0  0  0  0  0  0  0  0
    4.5578   -4.9327    0.0861 N   0  3  0  0  0  0  0  0  0  0  0  0
    5.3366   -5.9187    0.4561 N   0  0  0  0  0  0  0  0  0  0  0  0
    5.9130   -5.5500    1.6615 C   0  0  0  0  0  0  0  0  0  0  0  0
    4.6476   -3.9456    1.0834 C   0  0  0  0  0  0  0  0  0  0  0  0
    3.9703   -2.7640    1.0444 N   0  0  0  0  0  0  0  0  0  0  0  0
    3.6209   -5.5230   -2.1960 N   0  0  0  0  0  0  0  0  0  0  0  0
    4.1995   -6.8398   -2.3383 C   0  0  0  0  0  0  0  0  0  0  0  0
    3.2145   -7.9681   -2.1979 C   0  0  0  0  0  0  0  0  0  0  0  0
    1.8688   -7.7818   -1.8715 C   0  0  0  0  0  0  0  0  0  0  0  0
    1.0588   -8.8949   -1.7252 C   0  0  0  0  0  0  0  0  0  0  0  0
    1.5242  -10.1582   -1.7362 N   0  0  0  0  0  0  0  0  0  0  0  0
    2.8322  -10.3288   -2.0036 C   0  0  0  0  0  0  0  0  0  0  0  0
    3.6867   -9.2845   -2.3144 C   0  0  0  0  0  0  0  0  0  0  0  0
    5.5068   -4.3120    2.0951 N   0  0  0  0  0  0  0  0  0  0  0  0
    0.4487   -2.1693   -0.0057 H   0  0  0  0  0  0  0  0  0  0  0  0
    4.1989   -0.0226    0.0516 H   0  0  0  0  0  0  0  0  0  0  0  0
    2.9628    2.1109    0.0135 H   0  0  0  0  0  0  0  0  0  0  0  0
    0.4920    2.1306   -0.0124 H   0  0  0  0  0  0  0  0  0  0  0  0
    2.3540   -3.2033   -1.8962 H   0  0  0  0  0  0  0  0  0  0  0  0
    5.5079   -6.8117    0.0041 H   0  0  0  0  0  0  0  0  0  0  0  0
    6.5964   -6.2534    2.1136 H   0  0  0  0  0  0  0  0  0  0  0  0
    2.8827   -5.3266   -2.8693 H   0  0  0  0  0  0  0  0  0  0  0  0
    4.7362   -6.8995   -3.2898 H   0  0  0  0  0  0  0  0  0  0  0  0
    4.9549   -7.0240   -1.5910 H   0  0  0  0  0  0  0  0  0  0  0  0
    1.4350   -6.8008   -1.7222 H   0  0  0  0  0  0  0  0  0  0  0  0
   -0.0133   -8.7934   -1.5804 H   0  0  0  0  0  0  0  0  0  0  0  0
    3.1902  -11.3532   -1.9381 H   0  0  0  0  0  0  0  0  0  0  0  0
    4.7097   -9.5063   -2.6059 H   0  0  0  0  0  0  0  0  0  0  0  0
  1  2  1  0  0  0  0
  2  3  1  0  0  0  0
  2  7  2  0  0  0  0
  3  4  2  0  0  0  0
  3 25  1  0  0  0  0
  4  5  1  0  0  0  0
  4  8  1  0  0  0  0
  5  6  2  0  0  0  0
  5 26  1  0  0  0  0
  6  7  1  0  0  0  0
  6 27  1  0  0  0  0
  7 28  1  0  0  0  0
  8  9  1  0  0  0  0
  8 15  2  0  0  0  0
  9 10  2  0  0  0  0
  9 29  1  0  0  0  0
 10 11  1  0  0  0  0
 10 16  1  0  0  0  0
 11 12  1  0  0  0  0
 11 14  2  0  0  0  0
 12 13  1  0  0  0  0
 12 30  1  0  0  0  0
 13 24  2  0  0  0  0
 13 31  1  0  0  0  0
 14 15  1  0  0  0  0
 14 24  1  0  0  0  0
 16 17  1  0  0  0  0
 16 32  1  0  0  0  0
 17 18  1  0  0  0  0
 17 33  1  0  0  0  0
 17 34  1  0  0  0  0
 18 19  2  0  0  0  0
 18 23  1  0  0  0  0
 19 20  1  0  0  0  0
 19 35  1  0  0  0  0
 20 21  2  0  0  0  0
 20 36  1  0  0  0  0
 21 22  1  0  0  0  0
 22 23  2  0  0  0  0
 22 37  1  0  0  0  0
 23 38  1  0  0  0  0
M  CHG  1  11   1
M  END
>  <DRUGBANK_ID>
DB04669

>  <COMMON_NAME>
TRIAZOLOPYRIMIDINE

$$$$
