HTA
 OpenBabel10282417173D

 56 56  0  0  0  0  0  0  0  0999 V2000
   -2.0055    0.0688   -0.4753 C   0  0  0  0  0  0  0  0  0  0  0  0
   -1.6387    0.9366    0.7201 C   0  0  0  0  0  0  0  0  0  0  0  0
   -0.6558    0.3372    1.7520 C   0  0  2  0  0  0  0  0  0  0  0  0
    0.2472   -0.7516    1.1917 C   0  0  0  0  0  0  0  0  0  0  0  0
   -1.4158   -0.2932    2.9358 C   0  0  0  0  0  0  0  0  0  0  0  0
   -0.4703   -0.8755    4.0041 C   0  0  0  0  0  0  0  0  0  0  0  0
    0.4168    0.2111    4.6159 C   0  0  0  0  0  0  0  0  0  0  0  0
   -1.2557   -1.5869    5.0954 C   0  0  0  0  0  0  0  0  0  0  0  0
    2.4285   -1.8053    1.0393 C   0  0  2  0  0  0  0  0  0  0  0  0
    2.6135   -2.9093    2.1038 C   0  0  0  0  0  0  0  0  0  0  0  0
    3.7478   -1.1406    0.6644 C   0  0  0  0  0  0  0  0  0  0  0  0
    4.6452   -2.0054   -0.1709 C   0  0  0  0  0  0  0  0  0  0  0  0
    5.1284   -1.5258   -1.3872 C   0  0  0  0  0  0  0  0  0  0  0  0
    5.0781   -3.2560    0.2824 C   0  0  0  0  0  0  0  0  0  0  0  0
    6.0323   -2.2869   -2.1245 C   0  0  0  0  0  0  0  0  0  0  0  0
    5.9674   -4.0191   -0.4558 C   0  0  0  0  0  0  0  0  0  0  0  0
    6.4402   -3.5431   -1.6693 C   0  0  0  0  0  0  0  0  0  0  0  0
    2.6890   -5.3587    2.4872 C   0  0  0  0  0  0  0  0  0  0  0  0
    7.7204   -3.9623   -3.5958 C   0  0  0  0  0  0  0  0  0  0  0  0
   -1.0017   -0.0734   -1.4209 N   0  0  0  0  0  0  0  0  0  0  0  0
    1.5563   -0.7582    1.5710 N   0  0  0  0  0  0  0  0  0  0  0  0
    2.4013   -4.2052    1.6626 N   0  0  0  0  0  0  0  0  0  0  0  0
   -1.2498   -1.1093   -2.3658 O   0  0  0  0  0  0  0  0  0  0  0  0
   -3.1078   -0.4628   -0.5928 O   0  0  0  0  0  0  0  0  0  0  0  0
   -0.1722   -1.6273    0.4352 O   0  0  0  0  0  0  0  0  0  0  0  0
    2.9842   -2.6394    3.2459 O   0  0  0  0  0  0  0  0  0  0  0  0
    7.2955   -4.3905   -2.3119 O   0  0  0  0  0  0  0  0  0  0  0  0
   -0.0524    1.1768    2.1184 H   0  0  0  0  0  0  0  0  0  0  0  0
    1.9801   -2.2420    0.1396 H   0  0  0  0  0  0  0  0  0  0  0  0
   -1.2133    1.8689    0.3231 H   0  0  0  0  0  0  0  0  0  0  0  0
   -2.5708    1.2412    1.2150 H   0  0  0  0  0  0  0  0  0  0  0  0
   -2.0722    0.4542    3.3998 H   0  0  0  0  0  0  0  0  0  0  0  0
   -2.0705   -1.0894    2.5548 H   0  0  0  0  0  0  0  0  0  0  0  0
    0.1629   -1.6445    3.5482 H   0  0  0  0  0  0  0  0  0  0  0  0
   -0.1899    0.9592    5.1334 H   0  0  0  0  0  0  0  0  0  0  0  0
    1.1282   -0.2252    5.3218 H   0  0  0  0  0  0  0  0  0  0  0  0
    1.0088    0.7500    3.8724 H   0  0  0  0  0  0  0  0  0  0  0  0
   -1.8746   -2.3839    4.6705 H   0  0  0  0  0  0  0  0  0  0  0  0
   -0.5662   -2.0446    5.8125 H   0  0  0  0  0  0  0  0  0  0  0  0
   -1.9038   -0.8886    5.6312 H   0  0  0  0  0  0  0  0  0  0  0  0
    3.5142   -0.2221    0.1034 H   0  0  0  0  0  0  0  0  0  0  0  0
    4.2965   -0.8096    1.5541 H   0  0  0  0  0  0  0  0  0  0  0  0
    4.8242   -0.5509   -1.7629 H   0  0  0  0  0  0  0  0  0  0  0  0
    4.7632   -3.6672    1.2324 H   0  0  0  0  0  0  0  0  0  0  0  0
    6.4131   -1.8585   -3.0440 H   0  0  0  0  0  0  0  0  0  0  0  0
    6.3039   -4.9729   -0.0594 H   0  0  0  0  0  0  0  0  0  0  0  0
    1.7803   -5.9576    2.5757 H   0  0  0  0  0  0  0  0  0  0  0  0
    3.4634   -5.9580    1.9967 H   0  0  0  0  0  0  0  0  0  0  0  0
    3.0414   -5.0656    3.4784 H   0  0  0  0  0  0  0  0  0  0  0  0
    6.8653   -3.7933   -4.2599 H   0  0  0  0  0  0  0  0  0  0  0  0
    8.3402   -3.0641   -3.5106 H   0  0  0  0  0  0  0  0  0  0  0  0
    8.3296   -4.7581   -4.0288 H   0  0  0  0  0  0  0  0  0  0  0  0
   -0.0482   -0.1020   -1.0715 H   0  0  0  0  0  0  0  0  0  0  0  0
    1.8282   -0.3858    2.4746 H   0  0  0  0  0  0  0  0  0  0  0  0
    2.1902   -4.3692    0.6832 H   0  0  0  0  0  0  0  0  0  0  0  0
   -2.0895   -1.4982   -2.0380 H   0  0  0  0  0  0  0  0  0  0  0  0
  1  2  1  0  0  0  0
  1 20  1  0  0  0  0
  1 24  2  0  0  0  0
  2 30  1  0  0  0  0
  2 31  1  0  0  0  0
  3  5  1  0  0  0  0
  3 28  1  1  0  0  0
  3  4  1  0  0  0  0
  3  2  1  0  0  0  0
  4 21  1  0  0  0  0
  4 25  2  0  0  0  0
  5  6  1  0  0  0  0
  5 32  1  0  0  0  0
  5 33  1  0  0  0  0
  6  7  1  0  0  0  0
  6  8  1  0  0  0  0
  6 34  1  0  0  0  0
  7 35  1  0  0  0  0
  7 36  1  0  0  0  0
  7 37  1  0  0  0  0
  8 38  1  0  0  0  0
  8 39  1  0  0  0  0
  8 40  1  0  0  0  0
  9 21  1  0  0  0  0
  9 29  1  6  0  0  0
  9 11  1  0  0  0  0
  9 10  1  0  0  0  0
 10 22  1  0  0  0  0
 10 26  2  0  0  0  0
 11 12  1  0  0  0  0
 11 41  1  0  0  0  0
 11 42  1  0  0  0  0
 12 13  2  0  0  0  0
 12 14  1  0  0  0  0
 13 15  1  0  0  0  0
 13 43  1  0  0  0  0
 14 16  2  0  0  0  0
 14 44  1  0  0  0  0
 15 17  2  0  0  0  0
 15 45  1  0  0  0  0
 16 17  1  0  0  0  0
 16 46  1  0  0  0  0
 17 27  1  0  0  0  0
 18 22  1  0  0  0  0
 18 47  1  0  0  0  0
 18 48  1  0  0  0  0
 18 49  1  0  0  0  0
 19 27  1  0  0  0  0
 19 50  1  0  0  0  0
 19 51  1  0  0  0  0
 19 52  1  0  0  0  0
 20 23  1  0  0  0  0
 20 53  1  0  0  0  0
 21 54  1  0  0  0  0
 22 55  1  0  0  0  0
 23 56  1  0  0  0  0
M  END
>  <DRUGBANK_ID>
DB07926

>  <COMMON_NAME>
N-[3-(N'-HYDROXYCARBOXAMIDO)-2-(2-METHYLPROPYL)-PROPANOYL]-O-TYROSINE-N-METHYLAMIDE

$$$$
