
 OpenBabel10282417243D

 82 88  0  0  0  0  0  0  0  0999 V2000
    2.6922    0.2889   -0.9273 C   0  0  0  0  0  0  0  0  0  0  0  0
    0.7086   -0.0875   -1.0211 C   0  0  0  0  0  0  0  0  0  0  0  0
   -0.3232    1.4645   -0.9174 C   0  0  0  0  0  0  0  0  0  0  0  0
   -1.6874    1.3873   -0.3017 C   0  0  0  0  0  0  0  0  0  0  0  0
   -2.4532   -0.1601   -0.0168 C   0  0  0  0  0  0  0  0  0  0  0  0
   -1.8048   -1.8537   -0.0787 C   0  0  0  0  0  0  0  0  0  0  0  0
   -0.1076   -1.8946   -0.5599 C   0  0  0  0  0  0  0  0  0  0  0  0
   -4.0999    0.1047    0.0935 S   0  0  0  0  0  0  0  0  0  0  0  0
   -4.6293   -0.4540   -1.3134 O   0  0  0  0  0  0  0  0  0  0  0  0
   -4.3885   -0.7541    1.2058 O   0  0  0  0  0  0  0  0  0  0  0  0
   -4.2534    1.5398    0.0388 O   0  0  0  0  0  0  0  0  0  0  0  0
    0.8429    1.1993    0.9288 C   0  0  0  0  0  0  0  0  0  0  0  0
    0.2814   -0.4016    1.9561 C   0  0  0  0  0  0  0  0  0  0  0  0
    0.7945   -0.1198    3.2290 C   0  0  0  0  0  0  0  0  0  0  0  0
   -1.1247   -0.5299    1.8537 C   0  0  0  0  0  0  0  0  0  0  0  0
   -0.3815   -0.4328    0.3004 N   0  0  0  0  0  0  0  0  0  0  0  0
    1.4369   -1.0770    0.3813 C   0  0  0  0  0  0  0  0  0  0  0  0
    2.6314   -0.6631    1.4128 C   0  0  0  0  0  0  0  0  0  0  0  0
    3.2384   -1.8200    1.3768 C   0  0  0  0  0  0  0  0  0  0  0  0
    2.7807   -2.8633    0.4253 C   0  0  0  0  0  0  0  0  0  0  0  0
    2.9452   -4.1769    0.7505 N   0  0  0  0  0  0  0  0  0  0  0  0
    4.1216   -4.4542    1.3291 C   0  0  0  0  0  0  0  0  0  0  0  0
    4.2002   -4.0880    2.6145 N   0  0  0  0  0  0  0  0  0  0  0  0
    5.2298   -4.5620    3.2717 C   0  0  0  0  0  0  0  0  0  0  0  0
    6.0144   -5.5267    2.7189 C   0  0  0  0  0  0  0  0  0  0  0  0
    6.0397   -5.5531    1.3490 C   0  0  0  0  0  0  0  0  0  0  0  0
    5.0885   -5.0021    0.6098 N   0  0  0  0  0  0  0  0  0  0  0  0
    2.1283   -2.8931   -0.8755 C   0  0  0  0  0  0  0  0  0  0  0  0
    1.7639   -1.6857   -1.3055 C   0  0  0  0  0  0  0  0  0  0  0  0
    0.3086   -1.2752   -2.5113 C   0  0  0  0  0  0  0  0  0  0  0  0
    0.4192    0.0421   -3.2351 C   0  0  0  0  0  0  0  0  0  0  0  0
    0.9657    1.3791   -3.3330 C   0  0  0  0  0  0  0  0  0  0  0  0
   -0.2857    2.1211   -4.4471 N   0  0  0  0  0  0  0  0  0  0  0  0
    0.3646    1.3135   -5.2033 C   0  0  0  0  0  0  0  0  0  0  0  0
    1.3801    2.0810   -5.4011 O   0  0  0  0  0  0  0  0  0  0  0  0
   -0.5579    0.5399   -3.9482 C   0  0  0  0  0  0  0  0  0  0  0  0
   -1.8941    0.6984   -3.3979 C   0  0  0  0  0  0  0  0  0  0  0  0
   -2.9178    1.0383   -4.3344 C   0  0  0  0  0  0  0  0  0  0  0  0
   -4.1031    1.6448   -4.1716 C   0  0  0  0  0  0  0  0  0  0  0  0
   -4.6944    1.6138   -5.4003 N   0  0  0  0  0  0  0  0  0  0  0  0
   -5.9299    2.2762   -5.7154 C   0  0  0  0  0  0  0  0  0  0  0  0
   -4.0544    0.7769   -6.2733 N   0  0  0  0  0  0  0  0  0  0  0  0
   -3.1284    0.2721   -5.4488 C   0  0  0  0  0  0  0  0  0  0  0  0
   -2.3558   -1.0532   -5.3242 C   0  0  0  0  0  0  0  0  0  0  0  0
   -2.8859   -1.2895   -3.4507 C   0  0  0  0  0  0  0  0  0  0  0  0
   -2.1439   -0.2831   -2.4899 C   0  0  0  0  0  0  0  0  0  0  0  0
   -1.0053   -0.6468   -1.5732 C   0  0  0  0  0  0  0  0  0  0  0  0
    3.3485   -0.3681   -0.2578 H   0  0  0  0  0  0  0  0  0  0  0  0
    3.3521   -0.2436   -1.5952 H   0  0  0  0  0  0  0  0  0  0  0  0
    3.0040    1.2003   -0.3140 H   0  0  0  0  0  0  0  0  0  0  0  0
    0.2299    2.5032   -0.5677 H   0  0  0  0  0  0  0  0  0  0  0  0
   -2.0005    2.3900    0.0753 H   0  0  0  0  0  0  0  0  0  0  0  0
   -2.1610   -2.8486    0.0727 H   0  0  0  0  0  0  0  0  0  0  0  0
    0.2829   -2.6819    0.2780 H   0  0  0  0  0  0  0  0  0  0  0  0
   -4.1884    0.0593   -2.0331 H   0  0  0  0  0  0  0  0  0  0  0  0
    1.5294    1.9030    1.2296 H   0  0  0  0  0  0  0  0  0  0  0  0
    1.2997    1.4816   -0.3449 H   0  0  0  0  0  0  0  0  0  0  0  0
    1.6392    0.7350    0.5279 H   0  0  0  0  0  0  0  0  0  0  0  0
    0.5724   -1.6720    1.9122 H   0  0  0  0  0  0  0  0  0  0  0  0
    0.5319    0.8998    3.0167 H   0  0  0  0  0  0  0  0  0  0  0  0
    0.3791   -0.9530    3.7572 H   0  0  0  0  0  0  0  0  0  0  0  0
    1.8388   -0.3233    3.2314 H   0  0  0  0  0  0  0  0  0  0  0  0
   -1.6094   -1.5307    2.0533 H   0  0  0  0  0  0  0  0  0  0  0  0
   -1.6198    0.4151    1.9296 H   0  0  0  0  0  0  0  0  0  0  0  0
    3.0531    0.3919    1.7942 H   0  0  0  0  0  0  0  0  0  0  0  0
    4.1713   -1.9067    1.8819 H   0  0  0  0  0  0  0  0  0  0  0  0
    2.5211   -4.7344    0.0350 H   0  0  0  0  0  0  0  0  0  0  0  0
    5.4196   -4.1290    4.2426 H   0  0  0  0  0  0  0  0  0  0  0  0
    6.5848   -6.2090    3.3173 H   0  0  0  0  0  0  0  0  0  0  0  0
    6.8278   -6.0537    0.8052 H   0  0  0  0  0  0  0  0  0  0  0  0
    1.2507   -3.5361   -1.0235 H   0  0  0  0  0  0  0  0  0  0  0  0
    1.5875    2.1704   -3.0129 H   0  0  0  0  0  0  0  0  0  0  0  0
    1.8354    0.6906   -3.0012 H   0  0  0  0  0  0  0  0  0  0  0  0
   -1.2329    1.8634   -5.2143 H   0  0  0  0  0  0  0  0  0  0  0  0
   -4.4675    2.0958   -3.2773 H   0  0  0  0  0  0  0  0  0  0  0  0
   -5.7421    3.0258   -6.4823 H   0  0  0  0  0  0  0  0  0  0  0  0
   -6.6648    1.5429   -6.0451 H   0  0  0  0  0  0  0  0  0  0  0  0
   -6.2825    2.7637   -4.8009 H   0  0  0  0  0  0  0  0  0  0  0  0
   -1.8851   -0.3916   -6.2931 H   0  0  0  0  0  0  0  0  0  0  0  0
   -1.2209   -0.9889   -5.2588 H   0  0  0  0  0  0  0  0  0  0  0  0
   -4.0131   -1.3361   -3.4196 H   0  0  0  0  0  0  0  0  0  0  0  0
   -3.0043   -1.8645   -2.4200 H   0  0  0  0  0  0  0  0  0  0  0  0
  1  2  1  0  0  0  0
  1 48  1  0  0  0  0
  1 49  1  0  0  0  0
  1 50  1  0  0  0  0
  2  3  2  0  0  0  0
  2  7  1  0  0  0  0
  3  4  1  0  0  0  0
  3 51  1  0  0  0  0
  4  5  2  0  0  0  0
  4 52  1  0  0  0  0
  5  6  1  0  0  0  0
  5  8  1  0  0  0  0
  6  7  2  0  0  0  0
  6 53  1  0  0  0  0
  7 54  1  0  0  0  0
  8  9  1  0  0  0  0
  8 10  2  0  0  0  0
  8 11  2  0  0  0  0
  9 55  1  0  0  0  0
 12 13  1  0  0  0  0
 12 56  1  0  0  0  0
 12 57  1  0  0  0  0
 12 58  1  0  0  0  0
 13 14  1  0  0  0  0
 13 15  1  0  0  0  0
 13 59  1  0  0  0  0
 14 60  1  0  0  0  0
 14 61  1  0  0  0  0
 14 62  1  0  0  0  0
 15 16  1  0  0  0  0
 15 63  1  0  0  0  0
 15 64  1  0  0  0  0
 16 17  1  0  0  0  0
 16 47  1  0  0  0  0
 17 18  1  0  0  0  0
 17 29  2  0  0  0  0
 18 19  2  0  0  0  0
 18 65  1  0  0  0  0
 19 20  1  0  0  0  0
 19 66  1  0  0  0  0
 20 21  1  0  0  0  0
 20 28  2  0  0  0  0
 21 22  1  0  0  0  0
 21 67  1  0  0  0  0
 22 23  2  0  0  0  0
 22 27  1  0  0  0  0
 23 24  1  0  0  0  0
 24 25  2  0  0  0  0
 24 68  1  0  0  0  0
 25 26  1  0  0  0  0
 25 69  1  0  0  0  0
 26 27  2  0  0  0  0
 26 70  1  0  0  0  0
 28 29  1  0  0  0  0
 28 71  1  0  0  0  0
 29 30  1  0  0  0  0
 30 31  1  0  0  0  0
 30 47  2  0  0  0  0
 31 32  1  0  0  0  0
 31 36  2  0  0  0  0
 32 33  1  0  0  0  0
 32 72  1  0  0  0  0
 32 73  1  0  0  0  0
 33 34  1  0  0  0  0
 33 74  1  0  0  0  0
 34 35  2  0  0  0  0
 34 36  1  0  0  0  0
 36 37  1  0  0  0  0
 37 38  1  0  0  0  0
 37 46  2  0  0  0  0
 38 39  2  0  0  0  0
 38 43  1  0  0  0  0
 39 40  1  0  0  0  0
 39 75  1  0  0  0  0
 40 41  1  0  0  0  0
 40 42  1  0  0  0  0
 41 76  1  0  0  0  0
 41 77  1  0  0  0  0
 41 78  1  0  0  0  0
 42 43  2  0  0  0  0
 43 44  1  0  0  0  0
 44 45  1  0  0  0  0
 44 79  1  0  0  0  0
 44 80  1  0  0  0  0
 45 46  1  0  0  0  0
 45 81  1  0  0  0  0
 45 82  1  0  0  0  0
 46 47  1  0  0  0  0
M  END
>  <DRUGBANK_ID>
DB18155

>  <COMMON_NAME>
ESK981

>  <CAS_NUMBER>
856691-93-5

>  <UNII>
J8AY0Z4CBP

>  <SYNONYMS>
4h-indazolo(5,4-a)pyrrolo(3,4-c)carbazol-4-one, 2,5,6,11,12,13-hexahydro-2-methyl-11-(2-methylpropyl)-8-(2-pyrimidinylamino)-, 4-methylbenzenesulfonate (1:1); Bol 303213x tosylate; Bol-303213x tosylate; Cep-11981 tosylate

$$$$
