
 OpenBabel10282417103D

 71 76  0  0  0  0  0  0  0  0999 V2000
   -1.3124   -1.4773    0.9922 C   0  0  0  0  0  0  0  0  0  0  0  0
   -3.4030   -1.4706   -3.0892 C   0  0  0  0  0  0  0  0  0  0  0  0
    0.1600    1.0748    0.1493 C   0  0  2  0  0  0  0  0  0  0  0  0
   -2.3199    2.2614   -0.2095 C   0  0  0  0  0  0  0  0  0  0  0  0
   -0.0588   -0.6406    0.6868 C   0  0  2  0  0  0  0  0  0  0  0  0
   -1.9708    0.2327   -2.1574 C   0  0  2  0  0  0  0  0  0  0  0  0
   -3.4584    1.4813    0.2972 C   0  0  1  0  0  0  0  0  0  0  0  0
   -4.2121   -0.4630   -2.9869 C   0  0  0  0  0  0  0  0  0  0  0  0
   -2.4227   -1.1275   -2.5979 C   0  0  0  0  0  0  0  0  0  0  0  0
   -0.5643   -0.2343   -2.0546 C   0  0  0  0  0  0  0  0  0  0  0  0
   -1.8001   -2.5305   -2.4938 C   0  0  0  0  0  0  0  0  0  0  0  0
    0.1177   -1.4055   -2.0961 C   0  0  0  0  0  0  0  0  0  0  0  0
   -3.5911   -0.8780   -1.1048 C   0  0  2  0  0  0  0  0  0  0  0  0
   -4.4357   -1.3978   -0.6467 H   0  0  0  0  0  0  0  0  0  0  0  0
   -3.4481    0.6074   -1.0684 C   0  0  1  0  0  0  0  0  0  0  0  0
   -4.5499    1.1405   -1.6696 F   0  0  0  0  0  0  0  0  0  0  0  0
   -1.3124    1.3023    0.4189 C   0  0  2  0  0  0  0  0  0  0  0  0
   -0.9134    2.7929    1.3882 C   0  0  0  0  0  0  0  0  0  0  0  0
   -2.2707   -0.4924    0.2985 C   0  0  1  0  0  0  0  0  0  0  0  0
   -2.2128   -1.3959   -0.3017 H   0  0  0  0  0  0  0  0  0  0  0  0
   -0.0205   -3.6639   -1.4390 O   0  0  0  0  0  0  0  0  0  0  0  0
   -0.4808   -2.7022   -2.0276 C   0  0  0  0  0  0  0  0  0  0  0  0
   -1.7781    1.3314   -3.1703 C   0  0  0  0  0  0  0  0  0  0  0  0
    1.3435    1.0508    0.9762 O   0  0  0  0  0  0  0  0  0  0  0  0
    0.7239    2.3232   -1.1964 C   0  0  0  0  0  0  0  0  0  0  0  0
   -3.1553    1.1065    1.6992 O   0  0  0  0  0  0  0  0  0  0  0  0
    0.2813    3.8435   -1.4206 C   0  0  0  0  0  0  0  0  0  0  0  0
    1.2964    4.8978   -1.3426 O   0  0  0  0  0  0  0  0  0  0  0  0
    1.6038    2.1372   -2.0669 O   0  0  0  0  0  0  0  0  0  0  0  0
    1.1592   -1.2624    0.9091 O   0  0  0  0  0  0  0  0  0  0  0  0
    2.0125   -0.2019    0.5570 C   0  0  0  0  0  0  0  0  0  0  0  0
    2.1409    5.1216   -0.3034 C   0  0  0  0  0  0  0  0  0  0  0  0
    1.9648    4.2512    0.8810 C   0  0  0  0  0  0  0  0  0  0  0  0
    2.9540    6.0403   -0.2935 O   0  0  0  0  0  0  0  0  0  0  0  0
    2.4410   -0.1919   -0.9116 C   0  0  0  0  0  0  0  0  0  0  0  0
    3.2648   -0.4498    1.2916 C   0  0  0  0  0  0  0  0  0  0  0  0
    4.3824   -0.2042    0.2913 C   0  0  0  0  0  0  0  0  0  0  0  0
    3.8611    0.0864   -1.0786 C   0  0  0  0  0  0  0  0  0  0  0  0
   -1.5005   -2.0139    1.9297 H   0  0  0  0  0  0  0  0  0  0  0  0
   -1.2737   -2.4865    0.4091 H   0  0  0  0  0  0  0  0  0  0  0  0
   -3.9319   -1.8887   -4.0337 H   0  0  0  0  0  0  0  0  0  0  0  0
   -2.6646   -0.8288   -4.1994 H   0  0  0  0  0  0  0  0  0  0  0  0
   -2.4924    3.3171    0.0476 H   0  0  0  0  0  0  0  0  0  0  0  0
   -2.2727    2.3898   -1.2672 H   0  0  0  0  0  0  0  0  0  0  0  0
   -0.2367   -1.0418   -0.2317 H   0  0  0  0  0  0  0  0  0  0  0  0
   -4.3328    2.0896    0.4697 H   0  0  0  0  0  0  0  0  0  0  0  0
   -5.1017   -1.1387   -3.0460 H   0  0  0  0  0  0  0  0  0  0  0  0
   -4.1891    0.3177   -3.7341 H   0  0  0  0  0  0  0  0  0  0  0  0
   -0.0952    0.5905   -1.6827 H   0  0  0  0  0  0  0  0  0  0  0  0
   -2.3112   -3.4654   -2.7293 H   0  0  0  0  0  0  0  0  0  0  0  0
    0.9249   -1.5602   -1.4284 H   0  0  0  0  0  0  0  0  0  0  0  0
   -0.7056    3.6665    0.6916 H   0  0  0  0  0  0  0  0  0  0  0  0
   -1.6781    3.3357    1.9609 H   0  0  0  0  0  0  0  0  0  0  0  0
    0.0376    2.8123    1.9216 H   0  0  0  0  0  0  0  0  0  0  0  0
   -2.7274    1.6725   -3.5496 H   0  0  0  0  0  0  0  0  0  0  0  0
   -1.2778    2.1868   -2.7240 H   0  0  0  0  0  0  0  0  0  0  0  0
   -1.0804    1.0072   -3.9429 H   0  0  0  0  0  0  0  0  0  0  0  0
   -3.3165    0.1734    1.9200 H   0  0  0  0  0  0  0  0  0  0  0  0
    0.0558    3.8903   -2.5105 H   0  0  0  0  0  0  0  0  0  0  0  0
   -0.6657    4.2039   -1.0482 H   0  0  0  0  0  0  0  0  0  0  0  0
    2.8701    3.7404    1.1995 H   0  0  0  0  0  0  0  0  0  0  0  0
    1.4791    4.8039    1.6855 H   0  0  0  0  0  0  0  0  0  0  0  0
    1.3332    3.4499    0.5822 H   0  0  0  0  0  0  0  0  0  0  0  0
    2.3207   -0.9401   -1.6801 H   0  0  0  0  0  0  0  0  0  0  0  0
    1.8952    0.5599   -1.3541 H   0  0  0  0  0  0  0  0  0  0  0  0
    3.3034    0.2284    2.1402 H   0  0  0  0  0  0  0  0  0  0  0  0
    3.2878   -1.4883    1.6474 H   0  0  0  0  0  0  0  0  0  0  0  0
    4.9799   -1.1102    0.2171 H   0  0  0  0  0  0  0  0  0  0  0  0
    4.9504    0.6608    0.6065 H   0  0  0  0  0  0  0  0  0  0  0  0
    4.2173   -0.6245   -1.8387 H   0  0  0  0  0  0  0  0  0  0  0  0
    4.0255    1.0983   -1.4517 H   0  0  0  0  0  0  0  0  0  0  0  0
  1 39  1  0  0  0  0
  1 40  1  0  0  0  0
  2  8  1  0  0  0  0
  2 41  1  0  0  0  0
  2 42  1  0  0  0  0
  3  5  1  0  0  0  0
  3 24  1  0  0  0  0
  3 25  1  1  0  0  0
  4  7  1  0  0  0  0
  4 43  1  0  0  0  0
  4 44  1  0  0  0  0
  5  1  1  0  0  0  0
  5 30  1  0  0  0  0
  5 45  1  1  0  0  0
  6  9  1  0  0  0  0
  6 10  1  0  0  0  0
  6 23  1  6  0  0  0
  7 46  1  6  0  0  0
  7 26  1  0  0  0  0
  8  9  1  0  0  0  0
  8 47  1  0  0  0  0
  8 48  1  0  0  0  0
  9 11  2  0  0  0  0
 10 12  2  0  0  0  0
 10 49  1  0  0  0  0
 11 22  1  0  0  0  0
 11 50  1  0  0  0  0
 12 22  1  0  0  0  0
 12 51  1  0  0  0  0
 13 15  1  0  0  0  0
 13  2  1  0  0  0  0
 13 14  1  1  0  0  0
 15  6  1  0  0  0  0
 15  7  1  0  0  0  0
 15 16  1  1  0  0  0
 17  3  1  0  0  0  0
 17  4  1  0  0  0  0
 17 18  1  1  0  0  0
 18 52  1  0  0  0  0
 18 53  1  0  0  0  0
 18 54  1  0  0  0  0
 19 13  1  0  0  0  0
 19 17  1  0  0  0  0
 19  1  1  0  0  0  0
 19 20  1  6  0  0  0
 22 21  2  0  0  0  0
 23 55  1  0  0  0  0
 23 56  1  0  0  0  0
 23 57  1  0  0  0  0
 24 31  1  0  0  0  0
 25 27  1  0  0  0  0
 25 29  2  0  0  0  0
 26 58  1  0  0  0  0
 27 28  1  0  0  0  0
 27 59  1  0  0  0  0
 27 60  1  0  0  0  0
 28 32  1  0  0  0  0
 30 31  1  0  0  0  0
 31 36  1  0  0  0  0
 32 33  1  0  0  0  0
 32 34  2  0  0  0  0
 33 61  1  0  0  0  0
 33 62  1  0  0  0  0
 33 63  1  0  0  0  0
 35 31  1  0  0  0  0
 35 38  1  0  0  0  0
 35 64  1  0  0  0  0
 35 65  1  0  0  0  0
 36 37  1  0  0  0  0
 36 66  1  0  0  0  0
 36 67  1  0  0  0  0
 37 68  1  0  0  0  0
 37 69  1  0  0  0  0
 38 37  1  0  0  0  0
 38 70  1  0  0  0  0
 38 71  1  0  0  0  0
M  END
>  <DRUGBANK_ID>
DB00288

>  <SECONDARY_ACCESSION_NUMBERS>
APRD00788

>  <COMMON_NAME>
Amcinonide

>  <CAS_NUMBER>
51022-69-6

>  <UNII>
423W026MA9

>  <SYNONYMS>
Amcin√≥nida; Amcinonide; Amcinonidum; Triamcinolonacetatcyclopentanonid

$$$$
