
 OpenBabel10282417133D

 21 21  0  0  0  0  0  0  0  0999 V2000
   -1.8073    0.0621    0.8039 N   0  3  0  0  0  0  0  0  0  0  0  0
   -1.0932    0.0419   -0.5059 C   0  0  0  0  0  0  0  0  0  0  0  0
   -0.1978    1.2776   -0.6125 C   0  0  0  0  0  0  0  0  0  0  0  0
    1.0066    1.2237    0.3272 C   0  0  0  0  0  0  0  0  0  0  0  0
    1.7976   -0.0677    0.1385 C   0  0  0  0  0  0  0  0  0  0  0  0
    0.9136   -1.2992    0.3160 C   0  0  0  0  0  0  0  0  0  0  0  0
   -0.2981   -1.2602   -0.6162 C   0  0  0  0  0  0  0  0  0  0  0  0
   -2.4527   -0.7351    0.8860 H   0  0  0  0  0  0  0  0  0  0  0  0
   -1.1654    0.0164    1.6046 H   0  0  0  0  0  0  0  0  0  0  0  0
   -2.3696    0.9175    0.9116 H   0  0  0  0  0  0  0  0  0  0  0  0
   -1.8774    0.0753   -1.2694 H   0  0  0  0  0  0  0  0  0  0  0  0
    0.1700    1.3541   -1.6442 H   0  0  0  0  0  0  0  0  0  0  0  0
   -0.7749    2.1899   -0.4201 H   0  0  0  0  0  0  0  0  0  0  0  0
    1.6576    2.0850    0.1393 H   0  0  0  0  0  0  0  0  0  0  0  0
    0.6744    1.3036    1.3691 H   0  0  0  0  0  0  0  0  0  0  0  0
    2.2398   -0.0791   -0.8655 H   0  0  0  0  0  0  0  0  0  0  0  0
    2.6271   -0.1013    0.8534 H   0  0  0  0  0  0  0  0  0  0  0  0
    1.4989   -2.2041    0.1179 H   0  0  0  0  0  0  0  0  0  0  0  0
    0.5814   -1.3636    1.3589 H   0  0  0  0  0  0  0  0  0  0  0  0
   -0.9445   -2.1226   -0.4133 H   0  0  0  0  0  0  0  0  0  0  0  0
    0.0521   -1.3706   -1.6506 H   0  0  0  0  0  0  0  0  0  0  0  0
  1  2  1  0  0  0  0
  1  8  1  0  0  0  0
  1  9  1  0  0  0  0
  1 10  1  0  0  0  0
  2  3  1  0  0  0  0
  2  7  1  0  0  0  0
  2 11  1  0  0  0  0
  3  4  1  0  0  0  0
  3 12  1  0  0  0  0
  3 13  1  0  0  0  0
  4  5  1  0  0  0  0
  4 14  1  0  0  0  0
  4 15  1  0  0  0  0
  5  6  1  0  0  0  0
  5 16  1  0  0  0  0
  5 17  1  0  0  0  0
  6  7  1  0  0  0  0
  6 18  1  0  0  0  0
  6 19  1  0  0  0  0
  7 20  1  0  0  0  0
  7 21  1  0  0  0  0
M  CHG  1   1   1
M  END
>  <DRUGBANK_ID>
DB02995

>  <SECONDARY_ACCESSION_NUMBERS>
EXPT01690

>  <COMMON_NAME>
Cyclohexylammonium Ion

$$$$
