797
 OpenBabel10282417163D

 32 35  0  0  0  0  0  0  0  0999 V2000
   -2.9737    0.3600   -0.0653 C   0  0  0  0  0  0  0  0  0  0  0  0
   -1.8977    1.2543   -0.0585 C   0  0  0  0  0  0  0  0  0  0  0  0
   -0.5704    0.7885   -0.0230 C   0  0  0  0  0  0  0  0  0  0  0  0
   -0.3200   -0.6057   -0.0091 C   0  0  0  0  0  0  0  0  0  0  0  0
   -1.4057   -1.4936   -0.0016 C   0  0  0  0  0  0  0  0  0  0  0  0
   -2.7192   -1.0166   -0.0237 C   0  0  0  0  0  0  0  0  0  0  0  0
    0.5174    1.6765    0.0016 C   0  0  0  0  0  0  0  0  0  0  0  0
    1.8328    1.2052    0.0204 C   0  0  0  0  0  0  0  0  0  0  0  0
    2.0661   -0.1642    0.0085 C   0  0  0  0  0  0  0  0  0  0  0  0
    1.0072   -1.0662   -0.0025 C   0  0  0  0  0  0  0  0  0  0  0  0
    3.3328   -0.6703    0.0078 O   0  0  0  0  0  0  0  0  0  0  0  0
   -4.3469    0.8482   -0.0372 C   0  0  0  0  0  0  0  0  0  0  0  0
   -5.3081    0.5838    0.9749 C   0  0  0  0  0  0  0  0  0  0  0  0
   -6.4478    1.2427    0.5537 C   0  0  0  0  0  0  0  0  0  0  0  0
   -6.1850    1.8678   -0.6267 O   0  0  0  0  0  0  0  0  0  0  0  0
   -4.8626    1.6370   -0.9942 N   0  0  0  0  0  0  0  0  0  0  0  0
   -5.3335   -0.1216    2.1896 C   0  0  0  0  0  0  0  0  0  0  0  0
   -6.5206   -0.1390    2.9281 C   0  0  0  0  0  0  0  0  0  0  0  0
   -7.6503    0.5322    2.4590 C   0  0  0  0  0  0  0  0  0  0  0  0
   -7.6504    1.2454    1.2571 C   0  0  0  0  0  0  0  0  0  0  0  0
   -8.8122    0.5129    3.1783 O   0  0  0  0  0  0  0  0  0  0  0  0
   -2.0970    2.3252   -0.0640 H   0  0  0  0  0  0  0  0  0  0  0  0
   -1.2362   -2.5687    0.0245 H   0  0  0  0  0  0  0  0  0  0  0  0
   -3.5405   -1.7302   -0.0100 H   0  0  0  0  0  0  0  0  0  0  0  0
    0.3441    2.7510    0.0040 H   0  0  0  0  0  0  0  0  0  0  0  0
    2.6511    1.9176    0.0393 H   0  0  0  0  0  0  0  0  0  0  0  0
    1.2267   -2.1316   -0.0112 H   0  0  0  0  0  0  0  0  0  0  0  0
    3.9656    0.0667   -0.0014 H   0  0  0  0  0  0  0  0  0  0  0  0
   -4.4463   -0.6338    2.5486 H   0  0  0  0  0  0  0  0  0  0  0  0
   -6.5368   -0.6818    3.8687 H   0  0  0  0  0  0  0  0  0  0  0  0
   -8.5282    1.7690    0.8995 H   0  0  0  0  0  0  0  0  0  0  0  0
   -8.6758   -0.0164    3.9822 H   0  0  0  0  0  0  0  0  0  0  0  0
  1  2  2  0  0  0  0
  1  6  1  0  0  0  0
  1 12  1  0  0  0  0
  2  3  1  0  0  0  0
  2 22  1  0  0  0  0
  3  4  2  0  0  0  0
  3  7  1  0  0  0  0
  4  5  1  0  0  0  0
  4 10  1  0  0  0  0
  5  6  2  0  0  0  0
  5 23  1  0  0  0  0
  6 24  1  0  0  0  0
  7  8  2  0  0  0  0
  7 25  1  0  0  0  0
  8  9  1  0  0  0  0
  8 26  1  0  0  0  0
  9 10  2  0  0  0  0
  9 11  1  0  0  0  0
 10 27  1  0  0  0  0
 11 28  1  0  0  0  0
 12 13  1  0  0  0  0
 12 16  2  0  0  0  0
 13 14  2  0  0  0  0
 13 17  1  0  0  0  0
 14 15  1  0  0  0  0
 14 20  1  0  0  0  0
 15 16  1  0  0  0  0
 17 18  2  0  0  0  0
 17 29  1  0  0  0  0
 18 19  1  0  0  0  0
 18 30  1  0  0  0  0
 19 20  2  0  0  0  0
 19 21  1  0  0  0  0
 20 31  1  0  0  0  0
 21 32  1  0  0  0  0
M  END
>  <DRUGBANK_ID>
DB07236

>  <COMMON_NAME>
3-(6-HYDROXY-NAPHTHALEN-2-YL)-BENZO[D]ISOOXAZOL-6-OL

$$$$
