
 OpenBabel10282417193D

 70 72  0  0  1  0  0  0  0  0999 V2000
   -6.3158   -3.3809  -16.4937 C   0  0  0  0  0  0  0  0  0  0  0  0
   -6.9333   -4.2219  -15.3848 C   0  0  0  0  0  0  0  0  0  0  0  0
   -6.0652   -5.3842  -14.9356 C   0  0  0  0  0  0  0  0  0  0  0  0
   -7.2569   -3.4007  -14.2561 O   0  0  0  0  0  0  0  0  0  0  0  0
   -6.2406   -2.6966  -13.6708 C   0  0  0  0  0  0  0  0  0  0  0  0
   -5.0615   -2.7625  -13.9083 O   0  0  0  0  0  0  0  0  0  0  0  0
   -6.7806   -1.8687  -12.5676 C   0  0  0  0  0  0  0  0  0  0  0  0
   -7.7490   -0.7877  -13.0467 C   0  0  0  0  0  0  0  0  0  0  0  0
   -9.1215   -1.3024  -13.5072 C   0  0  0  0  0  0  0  0  0  0  0  0
   -9.8556   -2.1442  -12.4594 C   0  0  1  0  0  0  0  0  0  0  0  0
   -9.3406   -1.9325  -11.0453 C   0  0  0  0  0  0  0  0  0  0  0  0
   -9.6068   -0.5384  -10.5440 C   0  0  0  0  0  0  0  0  0  0  0  0
  -10.8895   -0.5410   -9.7745 C   0  0  1  0  0  0  0  0  0  0  0  0
  -12.1189   -0.5312  -10.6666 C   0  0  2  0  0  0  0  0  0  0  0  0
  -13.0658   -1.5869  -10.1282 C   0  0  0  0  0  0  0  0  0  0  0  0
  -12.2896   -2.4177   -9.1116 C   0  0  2  0  0  0  0  0  0  0  0  0
  -11.0119   -1.6750   -8.7441 C   0  0  2  0  0  0  0  0  0  0  0  0
  -11.0529   -1.3610   -7.2901 C   0  0  0  0  0  0  0  0  0  0  0  0
  -10.1098   -1.7902   -6.4326 C   0  0  0  0  0  0  0  0  0  0  0  0
  -10.0304   -1.3961   -4.9836 C   0  0  2  0  0  0  0  0  0  0  0  0
   -8.6523   -0.7322   -4.6988 C   0  0  0  0  0  0  0  0  0  0  0  0
   -8.4604    0.6981   -4.8708 O   0  0  0  0  0  0  0  0  0  0  0  0
   -8.7242    1.2616   -6.0861 C   0  0  0  0  0  0  0  0  0  0  0  0
   -7.7708    2.0347   -6.7498 C   0  0  0  0  0  0  0  0  0  0  0  0
   -8.0632    2.5898   -8.0087 C   0  0  0  0  0  0  0  0  0  0  0  0
   -9.3009    2.4187   -8.6031 C   0  0  0  0  0  0  0  0  0  0  0  0
  -10.3032    1.8742   -7.8232 C   0  0  0  0  0  0  0  0  0  0  0  0
  -10.0105    1.3261   -6.5855 C   0  0  0  0  0  0  0  0  0  0  0  0
  -11.0485    0.9125   -5.8570 F   0  0  0  0  0  0  0  0  0  0  0  0
   -7.1607    3.3571   -8.6324 F   0  0  0  0  0  0  0  0  0  0  0  0
  -10.2090   -2.5901   -4.2152 O   0  0  0  0  0  0  0  0  0  0  0  0
  -12.0018   -3.7077   -9.6376 O   0  0  0  0  0  0  0  0  0  0  0  0
  -11.8309   -0.6453  -12.0600 O   0  0  0  0  0  0  0  0  0  0  0  0
  -11.3850   -1.9254  -12.5132 C   0  0  0  0  0  0  0  0  0  0  0  0
   -5.4114   -2.8662  -16.1625 H   0  0  0  0  0  0  0  0  0  0  0  0
   -7.0127   -2.5958  -16.8083 H   0  0  0  0  0  0  0  0  0  0  0  0
   -6.0476   -3.9961  -17.3533 H   0  0  0  0  0  0  0  0  0  0  0  0
   -7.8838   -4.6273  -15.7602 H   0  0  0  0  0  0  0  0  0  0  0  0
   -5.1443   -5.0379  -14.4615 H   0  0  0  0  0  0  0  0  0  0  0  0
   -6.5929   -5.9775  -14.1804 H   0  0  0  0  0  0  0  0  0  0  0  0
   -5.7934   -6.0234  -15.7766 H   0  0  0  0  0  0  0  0  0  0  0  0
   -7.1547   -2.6405  -11.8989 H   0  0  0  0  0  0  0  0  0  0  0  0
   -5.9593   -1.3916  -12.0267 H   0  0  0  0  0  0  0  0  0  0  0  0
   -7.8785   -0.0673  -12.2335 H   0  0  0  0  0  0  0  0  0  0  0  0
   -7.3011   -0.1945  -13.8478 H   0  0  0  0  0  0  0  0  0  0  0  0
   -9.7454   -0.4629  -13.8338 H   0  0  0  0  0  0  0  0  0  0  0  0
   -9.0068   -1.9113  -14.4102 H   0  0  0  0  0  0  0  0  0  0  0  0
   -9.6909   -3.2032  -12.7042 H   0  0  0  0  0  0  0  0  0  0  0  0
   -9.7564   -2.7610  -10.4893 H   0  0  0  0  0  0  0  0  0  0  0  0
   -8.3028   -2.0888  -10.7902 H   0  0  0  0  0  0  0  0  0  0  0  0
   -9.6764    0.2024  -11.3534 H   0  0  0  0  0  0  0  0  0  0  0  0
   -8.7671   -0.1918   -9.9282 H   0  0  0  0  0  0  0  0  0  0  0  0
  -10.8819    0.4172   -9.3227 H   0  0  0  0  0  0  0  0  0  0  0  0
  -12.5923    0.4572  -10.5459 H   0  0  0  0  0  0  0  0  0  0  0  0
  -13.9016   -1.0883   -9.6290 H   0  0  0  0  0  0  0  0  0  0  0  0
  -13.4923   -2.2034  -10.9202 H   0  0  0  0  0  0  0  0  0  0  0  0
  -12.9256   -2.5663   -8.2349 H   0  0  0  0  0  0  0  0  0  0  0  0
  -10.1235   -2.3074   -8.7957 H   0  0  0  0  0  0  0  0  0  0  0  0
  -11.9049   -0.7826   -6.9463 H   0  0  0  0  0  0  0  0  0  0  0  0
   -9.2827   -2.3945   -6.8052 H   0  0  0  0  0  0  0  0  0  0  0  0
  -10.8516   -0.7491   -4.6776 H   0  0  0  0  0  0  0  0  0  0  0  0
   -8.4306   -0.9192   -3.6405 H   0  0  0  0  0  0  0  0  0  0  0  0
   -7.8587   -1.2608   -5.2456 H   0  0  0  0  0  0  0  0  0  0  0  0
   -6.8204    2.2703   -6.2851 H   0  0  0  0  0  0  0  0  0  0  0  0
   -9.4992    2.7489   -9.6188 H   0  0  0  0  0  0  0  0  0  0  0  0
  -11.3307    1.7963   -8.1672 H   0  0  0  0  0  0  0  0  0  0  0  0
   -9.5461   -3.2434   -4.4837 H   0  0  0  0  0  0  0  0  0  0  0  0
  -11.0443   -3.8651   -9.5997 H   0  0  0  0  0  0  0  0  0  0  0  0
  -11.7594   -2.0288  -13.5344 H   0  0  0  0  0  0  0  0  0  0  0  0
  -11.8551   -2.7260  -11.9459 H   0  0  0  0  0  0  0  0  0  0  0  0
  1  2  1  0  0  0  0
  1 35  1  0  0  0  0
  1 36  1  0  0  0  0
  1 37  1  0  0  0  0
  2  3  1  0  0  0  0
  2  4  1  0  0  0  0
  2 38  1  0  0  0  0
  3 39  1  0  0  0  0
  3 40  1  0  0  0  0
  3 41  1  0  0  0  0
  4  5  1  0  0  0  0
  5  6  2  0  0  0  0
  5  7  1  0  0  0  0
  7  8  1  0  0  0  0
  7 42  1  0  0  0  0
  7 43  1  0  0  0  0
  8  9  1  0  0  0  0
  8 44  1  0  0  0  0
  8 45  1  0  0  0  0
  9 46  1  0  0  0  0
  9 47  1  0  0  0  0
 10  9  1  0  0  0  0
 10 11  1  0  0  0  0
 10 34  1  0  0  0  0
 10 48  1  6  0  0  0
 11 12  1  0  0  0  0
 11 49  1  0  0  0  0
 11 50  1  0  0  0  0
 12 51  1  0  0  0  0
 12 52  1  0  0  0  0
 13 12  1  0  0  0  0
 13 14  1  0  0  0  0
 13 17  1  0  0  0  0
 13 53  1  1  0  0  0
 14 15  1  0  0  0  0
 14 33  1  0  0  0  0
 14 54  1  1  0  0  0
 15 16  1  0  0  0  0
 15 55  1  0  0  0  0
 15 56  1  0  0  0  0
 16 17  1  0  0  0  0
 16 57  1  1  0  0  0
 16 32  1  0  0  0  0
 17 18  1  0  0  0  0
 17 58  1  6  0  0  0
 18 19  2  0  0  0  0
 18 59  1  0  0  0  0
 19 60  1  0  0  0  0
 20 31  1  0  0  0  0
 20 61  1  1  0  0  0
 20 21  1  0  0  0  0
 20 19  1  0  0  0  0
 21 22  1  0  0  0  0
 21 62  1  0  0  0  0
 21 63  1  0  0  0  0
 22 23  1  0  0  0  0
 23 24  2  0  0  0  0
 23 28  1  0  0  0  0
 24 25  1  0  0  0  0
 24 64  1  0  0  0  0
 25 26  2  0  0  0  0
 25 30  1  0  0  0  0
 26 27  1  0  0  0  0
 26 65  1  0  0  0  0
 27 28  2  0  0  0  0
 27 66  1  0  0  0  0
 28 29  1  0  0  0  0
 31 67  1  0  0  0  0
 32 68  1  0  0  0  0
 33 34  1  0  0  0  0
 34 69  1  0  0  0  0
 34 70  1  0  0  0  0
M  END
>  <DRUGBANK_ID>
DB12043

>  <COMMON_NAME>
Sepetaprost

>  <CAS_NUMBER>
1262873-06-2

>  <UNII>
79O7855J4G

>  <SYNONYMS>
Sepetaprost

$$$$
