
 OpenBabel10282417133D

 58 61  0  0  1  0  0  0  0  0999 V2000
    0.6731    0.1766    0.1372 C   0  0  0  0  0  0  0  0  0  0  0  0
   -1.9965    1.5049   -3.8841 C   0  0  0  0  0  0  0  0  0  0  0  0
   -2.2092    0.4794   -2.9727 C   0  0  0  0  0  0  0  0  0  0  0  0
   -0.9094    2.3747   -3.7320 C   0  0  0  0  0  0  0  0  0  0  0  0
   -1.3903    0.3868   -1.8638 C   0  0  0  0  0  0  0  0  0  0  0  0
    3.4057    4.7401   -1.2686 C   0  0  0  0  0  0  0  0  0  0  0  0
    5.2460    1.5461   -1.4951 C   0  0  0  0  0  0  0  0  0  0  0  0
    4.9030    8.6441   -3.1826 C   0  0  0  0  0  0  0  0  0  0  0  0
    6.9450    4.9362   -2.1261 C   0  0  0  0  0  0  0  0  0  0  0  0
   -0.0255    2.2402   -2.6522 C   0  0  0  0  0  0  0  0  0  0  0  0
   -0.3648    1.3233   -1.6441 C   0  0  0  0  0  0  0  0  0  0  0  0
    3.4353    3.3128   -1.7793 C   0  0  1  0  0  0  0  0  0  0  0  0
    4.4159    2.6531   -0.8126 C   0  0  2  0  0  0  0  0  0  0  0  0
    4.8218    4.9753   -0.7645 C   0  0  2  0  0  0  0  0  0  0  0  0
    6.7859    6.7677   -3.2055 C   0  0  0  0  0  0  0  0  0  0  0  0
    6.9334    7.9009   -4.0236 C   0  0  0  0  0  0  0  0  0  0  0  0
    5.6463    6.6978   -2.4172 C   0  0  0  0  0  0  0  0  0  0  0  0
    1.2615    3.0062   -2.7002 C   0  0  0  0  0  0  0  0  0  0  0  0
    8.0217    8.0846   -4.8468 N   0  0  0  0  0  0  0  0  0  0  0  0
    0.1317    1.4032   -0.3405 N   0  0  0  0  0  0  0  0  0  0  0  0
    5.9628    8.8412   -3.9992 N   0  0  0  0  0  0  0  0  0  0  0  0
    4.6582    7.6068   -2.3483 N   0  0  0  0  0  0  0  0  0  0  0  0
    7.5834    5.6599   -3.0188 N   0  0  0  0  0  0  0  0  0  0  0  0
    5.7544    5.5040   -1.7478 N   0  0  0  0  0  0  0  0  0  0  0  0
    1.5339    3.7927   -3.6197 O   0  0  0  0  0  0  0  0  0  0  0  0
    4.6623   -1.0003    2.0915 O   0  0  0  0  0  0  0  0  0  0  0  0
    2.6263   -2.0621    2.7661 O   0  0  0  0  0  0  0  0  0  0  0  0
    4.6340   -3.1834    2.3204 O   0  0  0  0  0  0  0  0  0  0  0  0
    3.6491   -1.8043   -1.3829 O   0  0  0  0  0  0  0  0  0  0  0  0
    4.8790   -0.2386    0.1701 O   0  0  0  0  0  0  0  0  0  0  0  0
    4.4867    0.3705   -1.8783 O   0  0  0  0  0  0  0  0  0  0  0  0
    5.2952    3.6844   -0.3194 O   0  0  0  0  0  0  0  0  0  0  0  0
    2.1399    2.6726   -1.7139 O   0  0  0  0  0  0  0  0  0  0  0  0
    2.6872   -1.1257    0.6702 O   0  0  0  0  0  0  0  0  0  0  0  0
    3.7145   -2.2116    1.5410 P   0  0  0  0  0  0  0  0  0  0  0  0
    3.5869   -0.3776   -0.6040 P   0  0  3  0  0  0  0  0  0  0  0  0
    3.8399    3.2689   -2.7984 H   0  0  0  0  0  0  0  0  0  0  0  0
    3.8780    2.2575    0.0585 H   0  0  0  0  0  0  0  0  0  0  0  0
    4.8479    5.6627    0.0899 H   0  0  0  0  0  0  0  0  0  0  0  0
    0.6175   -0.7036   -0.5298 H   0  0  0  0  0  0  0  0  0  0  0  0
    0.3754   -0.0957    1.1492 H   0  0  0  0  0  0  0  0  0  0  0  0
    1.6948    0.5023    0.2015 H   0  0  0  0  0  0  0  0  0  0  0  0
   -2.6742    1.6163   -4.7252 H   0  0  0  0  0  0  0  0  0  0  0  0
   -3.0462   -0.2049   -3.0734 H   0  0  0  0  0  0  0  0  0  0  0  0
   -0.7661    3.1735   -4.4572 H   0  0  0  0  0  0  0  0  0  0  0  0
   -1.6061   -0.3717   -1.1133 H   0  0  0  0  0  0  0  0  0  0  0  0
    3.0844    5.4455   -2.0376 H   0  0  0  0  0  0  0  0  0  0  0  0
    2.6946    4.8209   -0.4369 H   0  0  0  0  0  0  0  0  0  0  0  0
    5.7491    1.9346   -2.3860 H   0  0  0  0  0  0  0  0  0  0  0  0
    6.0847    1.2647   -0.8423 H   0  0  0  0  0  0  0  0  0  0  0  0
    4.1485    9.4267   -3.2042 H   0  0  0  0  0  0  0  0  0  0  0  0
    7.3010    3.9972   -1.7215 H   0  0  0  0  0  0  0  0  0  0  0  0
    8.7524    7.3866   -4.8468 H   0  0  0  0  0  0  0  0  0  0  0  0
    8.0807    8.9231   -5.4006 H   0  0  0  0  0  0  0  0  0  0  0  0
    0.7869    2.1757   -0.2146 H   0  0  0  0  0  0  0  0  0  0  0  0
    5.3721   -0.9319    1.3880 H   0  0  0  0  0  0  0  0  0  0  0  0
    1.9687   -1.3701    2.6096 H   0  0  0  0  0  0  0  0  0  0  0  0
    2.9779   -1.8889   -2.0831 H   0  0  0  0  0  0  0  0  0  0  0  0
  1 40  1  0  0  0  0
  1 41  1  0  0  0  0
  1 42  1  0  0  0  0
  2 43  1  0  0  0  0
  3  2  2  0  0  0  0
  3 44  1  0  0  0  0
  4  2  1  0  0  0  0
  4 45  1  0  0  0  0
  5  3  1  0  0  0  0
  5 46  1  0  0  0  0
  6 47  1  0  0  0  0
  6 48  1  0  0  0  0
  7 49  1  0  0  0  0
  7 50  1  0  0  0  0
  8 51  1  0  0  0  0
  9 52  1  0  0  0  0
 10  4  2  0  0  0  0
 11  5  2  0  0  0  0
 11 10  1  0  0  0  0
 12  6  1  0  0  0  0
 12 33  1  0  0  0  0
 12 37  1  6  0  0  0
 13 12  1  0  0  0  0
 13 38  1  1  0  0  0
 13  7  1  0  0  0  0
 14  6  1  0  0  0  0
 14 24  1  0  0  0  0
 14 39  1  1  0  0  0
 16 15  2  0  0  0  0
 17 15  1  0  0  0  0
 18 10  1  0  0  0  0
 19 16  1  0  0  0  0
 19 53  1  0  0  0  0
 19 54  1  0  0  0  0
 20  1  1  0  0  0  0
 20 11  1  0  0  0  0
 20 55  1  0  0  0  0
 21  8  2  0  0  0  0
 21 16  1  0  0  0  0
 22  8  1  0  0  0  0
 22 17  2  0  0  0  0
 23  9  2  0  0  0  0
 23 15  1  0  0  0  0
 24  9  1  0  0  0  0
 24 17  1  0  0  0  0
 25 18  2  0  0  0  0
 26 56  1  0  0  0  0
 27 57  1  0  0  0  0
 29 58  1  0  0  0  0
 31  7  1  0  0  0  0
 32 13  1  0  0  0  0
 32 14  1  0  0  0  0
 33 18  1  0  0  0  0
 35 26  1  0  0  0  0
 35 27  1  0  0  0  0
 35 28  2  0  0  0  0
 35 34  1  0  0  0  0
 36 29  1  0  0  0  0
 36 30  2  0  0  0  0
 36 31  1  0  0  0  0
 36 34  1  0  0  0  0
M  END
>  <DRUGBANK_ID>
DB03126

>  <SECONDARY_ACCESSION_NUMBERS>
EXPT02204

>  <COMMON_NAME>
Mant-Adp

$$$$
