
 OpenBabel10282417203D

 33 33  0  0  0  0  0  0  0  0999 V2000
    0.9152   -0.0948   -0.0961 C   0  0  0  0  0  0  0  0  0  0  0  0
    0.3760    0.8056    1.0157 C   0  0  3  0  0  0  0  0  0  0  0  0
    0.8903    2.2321    0.9057 C   0  0  0  0  0  0  0  0  0  0  0  0
    0.0348    3.3414    0.9209 C   0  0  0  0  0  0  0  0  0  0  0  0
    0.5305    4.6455    0.8510 C   0  0  0  0  0  0  0  0  0  0  0  0
    1.9021    4.8897    0.7903 C   0  0  0  0  0  0  0  0  0  0  0  0
    2.7491    3.7808    0.8657 C   0  0  0  0  0  0  0  0  0  0  0  0
    2.2634    2.4751    0.8610 C   0  0  0  0  0  0  0  0  0  0  0  0
    2.3640    6.1871    0.6901 N   0  0  0  0  0  0  0  0  0  0  0  0
    3.7617    6.5318    0.5558 C   0  0  0  0  0  0  0  0  0  0  0  0
    4.0355    7.1935   -0.7692 C   0  0  0  0  0  0  0  0  0  0  0  0
    4.6076    8.4083   -0.8203 C   0  0  0  0  0  0  0  0  0  0  0  0
    3.7644    6.4105   -2.0265 C   0  0  0  0  0  0  0  0  0  0  0  0
   -1.1374    0.7022    1.0530 C   0  0  0  0  0  0  0  0  0  0  0  0
   -1.8132    0.3730    2.0226 O   0  0  0  0  0  0  0  0  0  0  0  0
   -1.7391    1.1034   -0.0875 O   0  0  0  0  0  0  0  0  0  0  0  0
    0.6032    0.2679   -1.0814 H   0  0  0  0  0  0  0  0  0  0  0  0
    0.5459   -1.1187    0.0217 H   0  0  0  0  0  0  0  0  0  0  0  0
    2.0093   -0.1395   -0.0933 H   0  0  0  0  0  0  0  0  0  0  0  0
    0.7357    0.4144    1.9787 H   0  0  0  0  0  0  0  0  0  0  0  0
   -1.0431    3.2240    0.9742 H   0  0  0  0  0  0  0  0  0  0  0  0
   -0.1860    5.4629    0.8519 H   0  0  0  0  0  0  0  0  0  0  0  0
    3.8240    3.8877    0.9328 H   0  0  0  0  0  0  0  0  0  0  0  0
    2.9898    1.6666    0.8309 H   0  0  0  0  0  0  0  0  0  0  0  0
    1.6895    6.9273    0.5376 H   0  0  0  0  0  0  0  0  0  0  0  0
    4.0145    7.1941    1.3901 H   0  0  0  0  0  0  0  0  0  0  0  0
    4.4451    5.6862    0.6417 H   0  0  0  0  0  0  0  0  0  0  0  0
    4.8722    8.8732   -1.7640 H   0  0  0  0  0  0  0  0  0  0  0  0
    4.8537    8.9521    0.0869 H   0  0  0  0  0  0  0  0  0  0  0  0
    4.3293    5.4721   -2.0320 H   0  0  0  0  0  0  0  0  0  0  0  0
    2.6997    6.1808   -2.1275 H   0  0  0  0  0  0  0  0  0  0  0  0
    4.0619    6.9713   -2.9208 H   0  0  0  0  0  0  0  0  0  0  0  0
   -2.6951    1.1435    0.1197 H   0  0  0  0  0  0  0  0  0  0  0  0
  1  2  1  0  0  0  0
  1 17  1  0  0  0  0
  1 18  1  0  0  0  0
  1 19  1  0  0  0  0
  2  3  1  0  0  0  0
  2 14  1  0  0  0  0
  2 20  1  0  0  0  0
  3  4  2  0  0  0  0
  3  8  1  0  0  0  0
  4  5  1  0  0  0  0
  4 21  1  0  0  0  0
  5  6  2  0  0  0  0
  5 22  1  0  0  0  0
  6  7  1  0  0  0  0
  6  9  1  0  0  0  0
  7  8  2  0  0  0  0
  7 23  1  0  0  0  0
  8 24  1  0  0  0  0
  9 10  1  0  0  0  0
  9 25  1  0  0  0  0
 10 11  1  0  0  0  0
 10 26  1  0  0  0  0
 10 27  1  0  0  0  0
 11 12  2  0  0  0  0
 11 13  1  0  0  0  0
 12 28  1  0  0  0  0
 12 29  1  0  0  0  0
 13 30  1  0  0  0  0
 13 31  1  0  0  0  0
 13 32  1  0  0  0  0
 14 15  2  0  0  0  0
 14 16  1  0  0  0  0
 16 33  1  0  0  0  0
M  END
>  <DRUGBANK_ID>
DB13314

>  <COMMON_NAME>
Alminoprofen

>  <CAS_NUMBER>
39718-89-3

>  <UNII>
0255AHR9GJ

>  <SYNONYMS>
2-{4-[(2-methylprop-2-en-1-yl)amino]phenyl}propionic acid; Alminoprofen; alminoprofene; alminoprofeno; alminoprofenum; p-((2-Methylallyl)amino)hydratropic acid; Î±-methyl-4-[(2-methyl-2-propenyl)amino]benzeneacetic acid

$$$$
