
 OpenBabel10282417123D

 30 30  0  0  1  0  0  0  0  0999 V2000
    1.0700    0.0660   -0.0273 P   0  0  0  0  0  0  0  0  0  0  0  0
    1.0113    1.7182   -0.1612 O   0  0  0  0  0  0  0  0  0  0  0  0
    0.9421   -0.4469   -1.5591 O   0  0  0  0  0  0  0  0  0  0  0  0
   -0.6600    0.0660   -0.0273 O   0  0  0  0  0  0  0  0  0  0  0  0
    2.6184    0.0660   -0.0273 O   0  0  0  0  0  0  0  0  0  0  0  0
    1.0595    2.5290    1.0420 C   0  0  0  0  0  0  0  0  0  0  0  0
   -0.2903    2.6068    1.8622 C   0  0  2  0  0  0  0  0  0  0  0  0
   -1.2726    1.5871    1.3619 C   0  0  2  0  0  0  0  0  0  0  0  0
   -0.9226    3.8744    1.8552 O   0  0  0  0  0  0  0  0  0  0  0  0
   -1.7981    1.9847   -0.1644 C   0  0  1  0  0  0  0  0  0  0  0  0
   -2.3939    1.1161    2.1108 O   0  0  0  0  0  0  0  0  0  0  0  0
   -1.4668    4.2632    0.6003 C   0  0  1  0  0  0  0  0  0  0  0  0
   -2.5015    3.3016   -0.0597 C   0  0  2  0  0  0  0  0  0  0  0  0
   -0.9481    2.0869   -1.3363 O   0  0  0  0  0  0  0  0  0  0  0  0
   -2.0702    5.5201    0.8423 O   0  0  0  0  0  0  0  0  0  0  0  0
   -3.8027    3.0374    0.5939 N   0  0  0  0  0  0  0  0  0  0  0  0
    1.7967   -0.8903   -1.7564 H   0  0  0  0  0  0  0  0  0  0  0  0
   -0.8096    0.1360   -1.0075 H   0  0  0  0  0  0  0  0  0  0  0  0
    1.8781    2.1489    1.6642 H   0  0  0  0  0  0  0  0  0  0  0  0
    1.3477    3.5358    0.7231 H   0  0  0  0  0  0  0  0  0  0  0  0
   -0.0387    2.3904    2.9112 H   0  0  0  0  0  0  0  0  0  0  0  0
   -0.6167    0.7486    1.6256 H   0  0  0  0  0  0  0  0  0  0  0  0
   -2.5188    1.2213   -0.4976 H   0  0  0  0  0  0  0  0  0  0  0  0
   -2.5110    0.2002    1.7626 H   0  0  0  0  0  0  0  0  0  0  0  0
   -0.6306    4.4112   -0.0846 H   0  0  0  0  0  0  0  0  0  0  0  0
   -2.7185    3.6863   -1.0653 H   0  0  0  0  0  0  0  0  0  0  0  0
   -0.0475    2.3872   -1.0922 H   0  0  0  0  0  0  0  0  0  0  0  0
   -2.5843    5.3312    1.6159 H   0  0  0  0  0  0  0  0  0  0  0  0
   -3.7619    2.0832    0.9936 H   0  0  0  0  0  0  0  0  0  0  0  0
   -4.5016    2.9390   -0.1440 H   0  0  0  0  0  0  0  0  0  0  0  0
  1  2  1  0  0  0  0
  1  3  1  0  0  0  0
  1  4  1  0  0  0  0
  1  5  2  0  0  0  0
  2  6  1  0  0  0  0
  3 17  1  0  0  0  0
  4 18  1  0  0  0  0
  6 19  1  0  0  0  0
  6 20  1  0  0  0  0
  7  6  1  0  0  0  0
  7  8  1  0  0  0  0
  7  9  1  0  0  0  0
  7 21  1  1  0  0  0
  8 10  1  0  0  0  0
  8 22  1  6  0  0  0
  8 11  1  0  0  0  0
  9 12  1  0  0  0  0
 10 13  1  0  0  0  0
 10 14  1  0  0  0  0
 10 23  1  6  0  0  0
 11 24  1  0  0  0  0
 12 13  1  0  0  0  0
 12 25  1  6  0  0  0
 12 15  1  0  0  0  0
 13 26  1  6  0  0  0
 13 16  1  0  0  0  0
 14 27  1  0  0  0  0
 15 28  1  0  0  0  0
 16 29  1  0  0  0  0
 16 30  1  0  0  0  0
M  END
>  <DRUGBANK_ID>
DB02657

>  <SECONDARY_ACCESSION_NUMBERS>
EXPT01610

>  <COMMON_NAME>
Glucosamine 6-Phosphate

>  <CAS_NUMBER>
3616-42-0

>  <UNII>
Y5ANY8MJ8J

$$$$
