51U
 OpenBabel10282417163D

 54 56  0  0  0  0  0  0  0  0999 V2000
    2.3863    0.0332    0.0441 C   0  0  0  0  0  0  0  0  0  0  0  0
    2.6754   -2.1904    1.2695 N   0  0  0  0  0  0  0  0  0  0  0  0
    3.0929   -0.7672    1.1503 C   0  0  1  0  0  0  0  0  0  0  0  0
    4.6519   -0.7501    1.0897 C   0  0  0  0  0  0  0  0  0  0  0  0
    5.2886   -0.4308    2.1032 O   0  0  0  0  0  0  0  0  0  0  0  0
    5.3097   -1.2562   -0.0128 N   0  0  0  0  0  0  0  0  0  0  0  0
    4.9282   -1.1744   -1.4030 C   0  0  0  0  0  0  0  0  0  0  0  0
    5.3323   -2.4956   -1.9920 C   0  0  0  0  0  0  0  0  0  0  0  0
    6.6472   -2.7617   -1.2975 C   0  0  0  0  0  0  0  0  0  0  0  0
    6.5445   -2.0556    0.0851 C   0  0  1  0  0  0  0  0  0  0  0  0
    7.8702   -1.2927    0.3212 C   0  0  0  0  0  0  0  0  0  0  0  0
    7.8931   -0.3549    1.3163 N   0  0  0  0  0  0  0  0  0  0  0  0
    9.1240    0.3153    1.6941 C   0  0  0  0  0  0  0  0  0  0  0  0
    9.4154    0.2921    3.1754 C   0  0  0  0  0  0  0  0  0  0  0  0
    8.5712   -0.3575    4.0836 C   0  0  0  0  0  0  0  0  0  0  0  0
    8.8572   -0.3924    5.4509 C   0  0  0  0  0  0  0  0  0  0  0  0
    7.9133   -1.0853    6.3847 C   0  0  0  0  0  0  0  0  0  0  0  0
   10.0202    0.2215    5.9214 C   0  0  0  0  0  0  0  0  0  0  0  0
   10.8774    0.8718    5.0336 C   0  0  0  0  0  0  0  0  0  0  0  0
   10.5769    0.9092    3.6690 C   0  0  0  0  0  0  0  0  0  0  0  0
    8.9077   -1.6135   -0.2718 O   0  0  0  0  0  0  0  0  0  0  0  0
    0.8841    0.0398    0.0594 C   0  0  0  0  0  0  0  0  0  0  0  0
    0.1982    1.2510    0.0609 C   0  0  0  0  0  0  0  0  0  0  0  0
   -1.1919    1.2514    0.0230 C   0  0  0  0  0  0  0  0  0  0  0  0
   -1.8987    0.0468    0.0016 C   0  0  0  0  0  0  0  0  0  0  0  0
   -1.2209   -1.1641   -0.0448 C   0  0  0  0  0  0  0  0  0  0  0  0
    0.1635   -1.1591   -0.0775 C   0  0  0  0  0  0  0  0  0  0  0  0
    2.8150   -0.2930    2.1041 H   0  0  0  0  0  0  0  0  0  0  0  0
    6.4202   -2.7954    0.8879 H   0  0  0  0  0  0  0  0  0  0  0  0
    2.5521   -0.3506   -0.9466 H   0  0  0  0  0  0  0  0  0  0  0  0
    2.7965    1.0515    0.0322 H   0  0  0  0  0  0  0  0  0  0  0  0
    3.1164   -2.5872    2.1010 H   0  0  0  0  0  0  0  0  0  0  0  0
    1.6820   -2.2006    1.5033 H   0  0  0  0  0  0  0  0  0  0  0  0
    5.4901   -0.3335   -1.8236 H   0  0  0  0  0  0  0  0  0  0  0  0
    3.8965   -1.0348   -1.6360 H   0  0  0  0  0  0  0  0  0  0  0  0
    4.5931   -3.2639   -1.7360 H   0  0  0  0  0  0  0  0  0  0  0  0
    5.4112   -2.4392   -3.0812 H   0  0  0  0  0  0  0  0  0  0  0  0
    6.8486   -3.8329   -1.2136 H   0  0  0  0  0  0  0  0  0  0  0  0
    7.4340   -2.3262   -1.9236 H   0  0  0  0  0  0  0  0  0  0  0  0
    7.0211   -0.1260    1.7977 H   0  0  0  0  0  0  0  0  0  0  0  0
    9.0394    1.3506    1.3486 H   0  0  0  0  0  0  0  0  0  0  0  0
    9.9717   -0.1493    1.1778 H   0  0  0  0  0  0  0  0  0  0  0  0
    7.6725   -0.8570    3.7315 H   0  0  0  0  0  0  0  0  0  0  0  0
    8.4197   -1.9119    6.8904 H   0  0  0  0  0  0  0  0  0  0  0  0
    7.5276   -0.3761    7.1225 H   0  0  0  0  0  0  0  0  0  0  0  0
    7.0550   -1.5002    5.8435 H   0  0  0  0  0  0  0  0  0  0  0  0
   10.2637    0.1932    6.9805 H   0  0  0  0  0  0  0  0  0  0  0  0
   11.7819    1.3467    5.4060 H   0  0  0  0  0  0  0  0  0  0  0  0
   11.2641    1.4141    2.9923 H   0  0  0  0  0  0  0  0  0  0  0  0
    0.7432    2.1922    0.0590 H   0  0  0  0  0  0  0  0  0  0  0  0
   -1.7247    2.1964    0.0092 H   0  0  0  0  0  0  0  0  0  0  0  0
   -2.9831    0.0520   -0.0053 H   0  0  0  0  0  0  0  0  0  0  0  0
   -1.7555   -2.1091   -0.0753 H   0  0  0  0  0  0  0  0  0  0  0  0
    0.6744   -2.1084   -0.2300 H   0  0  0  0  0  0  0  0  0  0  0  0
  1  3  1  0  0  0  0
  1 22  1  0  0  0  0
  1 30  1  0  0  0  0
  1 31  1  0  0  0  0
  2 32  1  0  0  0  0
  2 33  1  0  0  0  0
  3  2  1  0  0  0  0
  3  4  1  0  0  0  0
  3 28  1  1  0  0  0
  4  5  2  0  0  0  0
  4  6  1  0  0  0  0
  6  7  1  0  0  0  0
  6 10  1  0  0  0  0
  7  8  1  0  0  0  0
  7 34  1  0  0  0  0
  7 35  1  0  0  0  0
  8  9  1  0  0  0  0
  8 36  1  0  0  0  0
  8 37  1  0  0  0  0
  9 10  1  0  0  0  0
  9 38  1  0  0  0  0
  9 39  1  0  0  0  0
 10 29  1  1  0  0  0
 10 11  1  0  0  0  0
 11 12  1  0  0  0  0
 11 21  2  0  0  0  0
 12 13  1  0  0  0  0
 12 40  1  0  0  0  0
 13 14  1  0  0  0  0
 13 41  1  0  0  0  0
 13 42  1  0  0  0  0
 14 15  2  0  0  0  0
 14 20  1  0  0  0  0
 15 16  1  0  0  0  0
 15 43  1  0  0  0  0
 16 17  1  0  0  0  0
 16 18  2  0  0  0  0
 17 44  1  0  0  0  0
 17 45  1  0  0  0  0
 17 46  1  0  0  0  0
 18 19  1  0  0  0  0
 18 47  1  0  0  0  0
 19 20  2  0  0  0  0
 19 48  1  0  0  0  0
 20 49  1  0  0  0  0
 22 23  2  0  0  0  0
 22 27  1  0  0  0  0
 23 24  1  0  0  0  0
 23 50  1  0  0  0  0
 24 25  2  0  0  0  0
 24 51  1  0  0  0  0
 25 26  1  0  0  0  0
 25 52  1  0  0  0  0
 26 27  2  0  0  0  0
 26 53  1  0  0  0  0
 27 54  1  0  0  0  0
M  END
>  <DRUGBANK_ID>
DB07133

>  <COMMON_NAME>
D-phenylalanyl-N-(3-methylbenzyl)-L-prolinamide

$$$$
