
 OpenBabel10282417183D

 81 84  0  0  1  0  0  0  0  0999 V2000
    0.8201   -1.2507   -2.9451 C   0  0  0  0  0  0  0  0  0  0  0  0
   -0.2883   -0.9872   -1.9318 C   0  0  0  0  0  0  0  0  0  0  0  0
   -0.5338   -2.0861   -0.9677 N   0  0  0  0  0  0  0  0  0  0  0  0
   -0.2285   -1.7227    0.4618 C   0  0  3  0  0  0  0  0  0  0  0  0
    1.2691   -1.4442    0.6675 C   0  0  0  0  0  0  0  0  0  0  0  0
    1.8686   -2.5187    1.4737 C   0  0  0  0  0  0  0  0  0  0  0  0
    1.2689   -3.0525    2.6648 N   0  0  0  0  0  0  0  0  0  0  0  0
   -0.1134   -3.4155    2.4033 C   0  0  0  0  0  0  0  0  0  0  0  0
   -0.8306   -2.2855    1.7634 C   0  0  0  0  0  0  0  0  0  0  0  0
    2.0482   -4.1349    3.2216 C   0  0  0  0  0  0  0  0  0  0  0  0
    1.7784   -5.3142    2.4977 C   0  0  0  0  0  0  0  0  0  0  0  0
    2.2092   -5.1635    0.9351 C   0  0  2  0  0  0  0  0  0  0  0  0
    1.9707   -6.6902   -0.5881 C   0  0  0  0  0  0  0  0  0  0  0  0
    2.7350   -7.9862   -0.4121 C   0  0  0  0  0  0  0  0  0  0  0  0
    2.4872   -9.0364   -1.1186 C   0  0  0  0  0  0  0  0  0  0  0  0
    1.6632   -8.8200   -2.1747 C   0  0  0  0  0  0  0  0  0  0  0  0
    1.0849   -7.6093   -2.5183 C   0  0  0  0  0  0  0  0  0  0  0  0
    1.4931   -6.5038   -1.8984 C   0  0  0  0  0  0  0  0  0  0  0  0
    1.4286  -10.1136   -3.2844 S   0  0  0  0  0  0  0  0  0  0  0  0
    0.0161  -10.4175   -3.2160 O   0  0  0  0  0  0  0  0  0  0  0  0
    2.0600   -9.6858   -4.5168 O   0  0  0  0  0  0  0  0  0  0  0  0
    2.3678  -11.4683   -2.5996 C   0  0  0  0  0  0  0  0  0  0  0  0
    4.2258   -4.7532    0.8906 C   0  0  0  0  0  0  0  0  0  0  0  0
    4.6646   -3.5319    0.7984 C   0  0  0  0  0  0  0  0  0  0  0  0
    5.9696   -3.3543    1.0454 C   0  0  0  0  0  0  0  0  0  0  0  0
    6.8780   -4.4096    1.1161 C   0  0  0  0  0  0  0  0  0  0  0  0
    6.5824   -5.6972    0.7278 C   0  0  0  0  0  0  0  0  0  0  0  0
    5.3257   -5.8669    0.2204 C   0  0  0  0  0  0  0  0  0  0  0  0
    7.1938   -6.6330    1.4942 F   0  0  0  0  0  0  0  0  0  0  0  0
    6.2812   -2.0931    1.3029 F   0  0  0  0  0  0  0  0  0  0  0  0
   -0.9224   -3.3062   -1.5352 C   0  0  0  0  0  0  0  0  0  0  0  0
   -0.9894   -3.5284   -2.7468 O   0  0  0  0  0  0  0  0  0  0  0  0
   -1.0899   -4.4622   -0.6338 C   0  0  0  0  0  0  0  0  0  0  0  0
    0.2495   -4.9468   -0.2851 C   0  0  0  0  0  0  0  0  0  0  0  0
    0.1823   -6.2898    0.8194 C   0  0  0  0  0  0  0  0  0  0  0  0
    1.5809   -7.1432    1.4814 C   0  0  0  0  0  0  0  0  0  0  0  0
    3.2536   -6.5301    0.8972 C   0  0  0  0  0  0  0  0  0  0  0  0
    3.1445   -5.1797   -0.6469 C   0  0  0  0  0  0  0  0  0  0  0  0
    1.6567   -4.2645   -0.9957 C   0  0  0  0  0  0  0  0  0  0  0  0
    4.5912   -6.5085    2.5691 S   0  0  0  0  0  0  0  0  0  0  0  0
    5.3371   -7.6335    2.0535 O   0  0  0  0  0  0  0  0  0  0  0  0
    5.0891   -5.2191    3.0660 O   0  0  0  0  0  0  0  0  0  0  0  0
    4.0357   -7.2345    3.9415 C   0  0  0  0  0  0  0  0  0  0  0  0
    1.7896   -1.3770   -2.4587 H   0  0  0  0  0  0  0  0  0  0  0  0
    0.9105   -0.4227   -3.6525 H   0  0  0  0  0  0  0  0  0  0  0  0
    0.6205   -2.1533   -3.5222 H   0  0  0  0  0  0  0  0  0  0  0  0
   -0.0381   -0.0619   -1.3922 H   0  0  0  0  0  0  0  0  0  0  0  0
   -1.2291   -0.8170   -2.4568 H   0  0  0  0  0  0  0  0  0  0  0  0
   -0.8192   -0.8176    0.4752 H   0  0  0  0  0  0  0  0  0  0  0  0
    1.8009   -1.3768   -0.2994 H   0  0  0  0  0  0  0  0  0  0  0  0
    1.5267   -0.6269    1.2982 H   0  0  0  0  0  0  0  0  0  0  0  0
    1.7262   -3.0998    0.6427 H   0  0  0  0  0  0  0  0  0  0  0  0
    2.9162   -2.5126    1.5961 H   0  0  0  0  0  0  0  0  0  0  0  0
   -0.5520   -3.8291    3.3070 H   0  0  0  0  0  0  0  0  0  0  0  0
   -0.3125   -4.1839    1.6968 H   0  0  0  0  0  0  0  0  0  0  0  0
   -0.7253   -1.5071    2.5246 H   0  0  0  0  0  0  0  0  0  0  0  0
   -1.8740   -2.5423    1.6314 H   0  0  0  0  0  0  0  0  0  0  0  0
    3.1291   -4.1219    3.1510 H   0  0  0  0  0  0  0  0  0  0  0  0
    1.6735   -4.5849    4.1369 H   0  0  0  0  0  0  0  0  0  0  0  0
    2.3518   -6.0549    3.0169 H   0  0  0  0  0  0  0  0  0  0  0  0
    0.7174   -5.5676    2.7289 H   0  0  0  0  0  0  0  0  0  0  0  0
    1.5587   -4.4560    0.8716 H   0  0  0  0  0  0  0  0  0  0  0  0
    3.3041   -8.2288    0.5206 H   0  0  0  0  0  0  0  0  0  0  0  0
    2.9005   -9.9099   -0.6794 H   0  0  0  0  0  0  0  0  0  0  0  0
    0.3003   -7.4650   -3.2337 H   0  0  0  0  0  0  0  0  0  0  0  0
    1.1547   -5.5713   -2.3177 H   0  0  0  0  0  0  0  0  0  0  0  0
    3.4309  -11.2109   -2.5326 H   0  0  0  0  0  0  0  0  0  0  0  0
    1.9886  -11.7289   -1.6069 H   0  0  0  0  0  0  0  0  0  0  0  0
    2.2443  -12.3140   -3.2674 H   0  0  0  0  0  0  0  0  0  0  0  0
    4.0491   -2.7934    0.4002 H   0  0  0  0  0  0  0  0  0  0  0  0
    7.8375   -4.2731    1.5578 H   0  0  0  0  0  0  0  0  0  0  0  0
    4.9553   -6.9265   -0.0222 H   0  0  0  0  0  0  0  0  0  0  0  0
   -1.7493   -4.2916    0.2132 H   0  0  0  0  0  0  0  0  0  0  0  0
   -1.3342   -5.3945   -1.1437 H   0  0  0  0  0  0  0  0  0  0  0  0
   -0.6981   -6.1045    1.5151 H   0  0  0  0  0  0  0  0  0  0  0  0
    1.3334   -7.4341    2.5695 H   0  0  0  0  0  0  0  0  0  0  0  0
    3.8973   -4.6751   -1.2363 H   0  0  0  0  0  0  0  0  0  0  0  0
    1.6600   -3.2247   -1.4411 H   0  0  0  0  0  0  0  0  0  0  0  0
    3.4831   -6.4805    4.4804 H   0  0  0  0  0  0  0  0  0  0  0  0
    3.5246   -8.0601    3.4727 H   0  0  0  0  0  0  0  0  0  0  0  0
    5.0462   -7.4336    4.3246 H   0  0  0  0  0  0  0  0  0  0  0  0
  1  2  1  0  0  0  0
  1 44  1  0  0  0  0
  1 45  1  0  0  0  0
  1 46  1  0  0  0  0
  2  3  1  0  0  0  0
  2 47  1  0  0  0  0
  2 48  1  0  0  0  0
  3  4  1  0  0  0  0
  3 31  1  0  0  0  0
  4  5  1  0  0  0  0
  4  9  1  0  0  0  0
  4 49  1  0  0  0  0
  5  6  1  0  0  0  0
  5 50  1  0  0  0  0
  5 51  1  0  0  0  0
  6  7  1  0  0  0  0
  6 52  1  0  0  0  0
  6 53  1  0  0  0  0
  7  8  1  0  0  0  0
  7 10  1  0  0  0  0
  8  9  1  0  0  0  0
  8 54  1  0  0  0  0
  8 55  1  0  0  0  0
  9 56  1  0  0  0  0
  9 57  1  0  0  0  0
 10 11  1  0  0  0  0
 10 58  1  0  0  0  0
 10 59  1  0  0  0  0
 11 60  1  0  0  0  0
 11 61  1  0  0  0  0
 12 23  1  0  0  0  0
 12 62  1  6  0  0  0
 12 13  1  0  0  0  0
 12 11  1  0  0  0  0
 13 14  2  0  0  0  0
 13 18  1  0  0  0  0
 14 15  1  0  0  0  0
 14 63  1  0  0  0  0
 15 16  2  0  0  0  0
 15 64  1  0  0  0  0
 16 17  1  0  0  0  0
 16 19  1  0  0  0  0
 17 18  2  0  0  0  0
 17 65  1  0  0  0  0
 18 66  1  0  0  0  0
 19 20  2  0  0  0  0
 19 21  2  0  0  0  0
 19 22  1  0  0  0  0
 22 67  1  0  0  0  0
 22 68  1  0  0  0  0
 22 69  1  0  0  0  0
 23 24  2  0  0  0  0
 23 28  1  0  0  0  0
 24 25  1  0  0  0  0
 24 70  1  0  0  0  0
 25 26  2  0  0  0  0
 25 30  1  0  0  0  0
 26 27  1  0  0  0  0
 26 71  1  0  0  0  0
 27 28  2  0  0  0  0
 27 29  1  0  0  0  0
 28 72  1  0  0  0  0
 31 32  2  0  0  0  0
 31 33  1  0  0  0  0
 33 34  1  0  0  0  0
 33 73  1  0  0  0  0
 33 74  1  0  0  0  0
 34 35  2  0  0  0  0
 34 39  1  0  0  0  0
 35 36  1  0  0  0  0
 35 75  1  0  0  0  0
 36 37  2  0  0  0  0
 36 76  1  0  0  0  0
 37 38  1  0  0  0  0
 37 40  1  0  0  0  0
 38 39  2  0  0  0  0
 38 77  1  0  0  0  0
 39 78  1  0  0  0  0
 40 41  2  0  0  0  0
 40 42  2  0  0  0  0
 40 43  1  0  0  0  0
 43 79  1  0  0  0  0
 43 80  1  0  0  0  0
 43 81  1  0  0  0  0
M  END
>  <DRUGBANK_ID>
DB11804

>  <COMMON_NAME>
AZD-5672

>  <CAS_NUMBER>
780750-65-4

>  <UNII>
61XQN688TW

$$$$
