
 OpenBabel10282417123D

 24 23  0  0  1  0  0  0  0  0999 V2000
    0.8484   -0.9079    2.4927 C   0  0  0  0  0  0  0  0  0  0  0  0
    2.5496    0.3370    0.4917 C   0  0  0  0  0  0  0  0  0  0  0  0
    0.4764   -1.0685    1.0113 C   0  0  2  0  0  0  0  0  0  0  0  0
    0.2343    0.3335    3.1436 C   0  0  1  0  0  0  0  0  0  0  0  0
    1.1036    0.0050    0.0800 C   0  0  2  0  0  0  0  0  0  0  0  0
    0.8063    0.5312    4.5354 C   0  0  0  0  0  0  0  0  0  0  0  0
    3.3635   -0.8396    0.4447 O   0  0  0  0  0  0  0  0  0  0  0  0
   -0.9501   -1.1069    0.9043 O   0  0  0  0  0  0  0  0  0  0  0  0
    0.4486    1.4974    2.3442 O   0  0  0  0  0  0  0  0  0  0  0  0
    1.1237   -0.4906   -1.2681 O   0  0  0  0  0  0  0  0  0  0  0  0
    1.4317    1.5164    4.9104 O   0  0  0  0  0  0  0  0  0  0  0  0
    0.5812   -0.5110    5.3517 O   0  0  0  0  0  0  0  0  0  0  0  0
    0.8110   -2.0545    0.6658 H   0  0  0  0  0  0  0  0  0  0  0  0
   -0.8480    0.2164    3.2321 H   0  0  0  0  0  0  0  0  0  0  0  0
    0.4804    0.9048    0.0438 H   0  0  0  0  0  0  0  0  0  0  0  0
    1.9350   -0.8889    2.6330 H   0  0  0  0  0  0  0  0  0  0  0  0
    0.5313   -1.8065    3.0355 H   0  0  0  0  0  0  0  0  0  0  0  0
    2.9946    1.0766   -0.1762 H   0  0  0  0  0  0  0  0  0  0  0  0
    2.6211    0.7540    1.4994 H   0  0  0  0  0  0  0  0  0  0  0  0
    2.9937   -1.5132    1.0411 H   0  0  0  0  0  0  0  0  0  0  0  0
   -1.2912   -0.2122    1.0851 H   0  0  0  0  0  0  0  0  0  0  0  0
    1.3023    1.8940    2.6110 H   0  0  0  0  0  0  0  0  0  0  0  0
    1.7956   -1.1968   -1.2935 H   0  0  0  0  0  0  0  0  0  0  0  0
    0.9738   -0.2552    6.2118 H   0  0  0  0  0  0  0  0  0  0  0  0
  1 16  1  0  0  0  0
  1 17  1  0  0  0  0
  2 18  1  0  0  0  0
  2 19  1  0  0  0  0
  3  8  1  0  0  0  0
  3 13  1  6  0  0  0
  3  5  1  0  0  0  0
  3  1  1  0  0  0  0
  4  1  1  0  0  0  0
  4  9  1  0  0  0  0
  4 14  1  1  0  0  0
  5  2  1  0  0  0  0
  5 10  1  0  0  0  0
  5 15  1  1  0  0  0
  6  4  1  0  0  0  0
  7  2  1  0  0  0  0
  7 20  1  0  0  0  0
  8 21  1  0  0  0  0
  9 22  1  0  0  0  0
 10 23  1  0  0  0  0
 11  6  2  0  0  0  0
 12  6  1  0  0  0  0
 12 24  1  0  0  0  0
M  END
>  <DRUGBANK_ID>
DB02807

>  <SECONDARY_ACCESSION_NUMBERS>
EXPT02819

>  <COMMON_NAME>
3-deoxy-D-lyxo-hexonic acid

>  <SYNONYMS>
D-2-keto-3-deoxygalactonate

$$$$
