
 OpenBabel10282417223D

 69 74  0  0  0  0  0  0  0  0999 V2000
    0.1585    2.4384    1.4533 C   0  0  1  0  0  0  0  0  0  0  0  0
    1.7603    1.3235    1.3250 C   0  0  2  0  0  0  0  0  0  0  0  0
    0.5253    2.5437    2.9622 C   0  0  1  0  0  0  0  0  0  0  0  0
   -0.1220    4.0940    1.9393 O   0  0  0  0  0  0  0  0  0  0  0  0
   -0.4659    3.3695    0.1012 C   0  0  0  0  0  0  0  0  0  0  0  0
    2.7226    2.4226    1.6903 C   0  0  1  0  0  0  0  0  0  0  0  0
    2.7393    0.4901    0.2478 C   0  0  0  0  0  0  0  0  0  0  0  0
    1.8112    0.0010    2.2796 C   0  0  0  0  0  0  0  0  0  0  0  0
    2.0566    2.8832    2.9919 C   0  0  0  0  0  0  0  0  0  0  0  0
   -0.2290    3.3643    3.9024 O   0  0  0  0  0  0  0  0  0  0  0  0
   -1.0782    4.1356    3.0709 C   0  0  1  0  0  0  0  0  0  0  0  0
   -0.5161    2.7445   -1.2587 C   0  0  0  0  0  0  0  0  0  0  0  0
   -1.0237    4.4910    0.0735 O   0  0  0  0  0  0  0  0  0  0  0  0
    2.6795    3.1617    0.3238 C   0  0  1  0  0  0  0  0  0  0  0  0
    3.0716    1.1714   -1.0209 C   0  0  0  0  0  0  0  0  0  0  0  0
   -1.7936    5.4893    3.7564 C   0  0  0  0  0  0  0  0  0  0  0  0
   -2.4013    3.3130    2.9462 C   0  0  0  0  0  0  0  0  0  0  0  0
    3.7039    2.6319   -0.6746 C   0  0  2  0  0  0  0  0  0  0  0  0
    2.5416    4.6215    0.3727 C   0  0  0  0  0  0  0  0  0  0  0  0
   -3.0050    5.9980    3.1502 C   0  0  0  0  0  0  0  0  0  0  0  0
   -1.7185    5.7266    5.1549 C   0  0  0  0  0  0  0  0  0  0  0  0
    4.0313    3.7078   -1.8285 C   0  0  2  0  0  0  0  0  0  0  0  0
    2.1864    5.1553   -1.1161 C   0  0  0  0  0  0  0  0  0  0  0  0
   -4.1023    6.5095    3.9037 C   0  0  0  0  0  0  0  0  0  0  0  0
   -2.8016    6.3079    5.8917 C   0  0  0  0  0  0  0  0  0  0  0  0
    3.1128    4.7421   -2.3384 C   0  0  0  0  0  0  0  0  0  0  0  0
    4.6677    5.4294   -1.1995 C   0  0  0  0  0  0  0  0  0  0  0  0
    3.1792    2.8248   -3.0924 C   0  0  0  0  0  0  0  0  0  0  0  0
   -3.9923    6.6905    5.2736 C   0  0  0  0  0  0  0  0  0  0  0  0
    3.7597    5.2396   -3.4753 C   0  0  0  0  0  0  0  0  0  0  0  0
    4.1911    6.9662   -1.9412 C   0  0  0  0  0  0  0  0  0  0  0  0
    4.2373    6.6280   -3.3726 C   0  0  0  0  0  0  0  0  0  0  0  0
    4.6953    7.2702   -4.2605 O   0  0  0  0  0  0  0  0  0  0  0  0
    3.7711    2.1533    1.8984 H   0  0  0  0  0  0  0  0  0  0  0  0
    4.6785    2.3809   -0.2355 H   0  0  0  0  0  0  0  0  0  0  0  0
    1.7680    2.8951   -0.2028 H   0  0  0  0  0  0  0  0  0  0  0  0
    0.2968    1.5391    3.2923 H   0  0  0  0  0  0  0  0  0  0  0  0
    3.7588    0.3300    0.6993 H   0  0  0  0  0  0  0  0  0  0  0  0
    2.4387   -0.5555    0.0556 H   0  0  0  0  0  0  0  0  0  0  0  0
    1.6255    0.0932    3.3440 H   0  0  0  0  0  0  0  0  0  0  0  0
    1.1885   -0.7959    1.8431 H   0  0  0  0  0  0  0  0  0  0  0  0
    2.8252   -0.4655    2.2820 H   0  0  0  0  0  0  0  0  0  0  0  0
    2.3285    3.9105    3.2421 H   0  0  0  0  0  0  0  0  0  0  0  0
    2.4569    2.2621    3.8036 H   0  0  0  0  0  0  0  0  0  0  0  0
   -1.5672    2.6191   -1.5362 H   0  0  0  0  0  0  0  0  0  0  0  0
   -0.0802    3.4139   -2.0155 H   0  0  0  0  0  0  0  0  0  0  0  0
    0.0123    1.8095   -1.2304 H   0  0  0  0  0  0  0  0  0  0  0  0
    3.7388    0.5220   -1.6219 H   0  0  0  0  0  0  0  0  0  0  0  0
    2.0759    1.1369   -1.4885 H   0  0  0  0  0  0  0  0  0  0  0  0
   -2.3637    2.4019    3.5412 H   0  0  0  0  0  0  0  0  0  0  0  0
   -3.2744    3.7763    3.4428 H   0  0  0  0  0  0  0  0  0  0  0  0
   -2.7312    3.1910    1.9172 H   0  0  0  0  0  0  0  0  0  0  0  0
    3.4212    4.9297    0.9485 H   0  0  0  0  0  0  0  0  0  0  0  0
    1.7495    4.9188    1.0437 H   0  0  0  0  0  0  0  0  0  0  0  0
   -3.2334    5.7517    2.1124 H   0  0  0  0  0  0  0  0  0  0  0  0
   -0.8661    5.3756    5.7296 H   0  0  0  0  0  0  0  0  0  0  0  0
    2.0442    6.2166   -0.9910 H   0  0  0  0  0  0  0  0  0  0  0  0
    1.2109    4.7814   -1.3907 H   0  0  0  0  0  0  0  0  0  0  0  0
   -5.0801    6.6555    3.4359 H   0  0  0  0  0  0  0  0  0  0  0  0
   -2.7535    6.3874    6.9797 H   0  0  0  0  0  0  0  0  0  0  0  0
    5.7202    5.5461   -0.9184 H   0  0  0  0  0  0  0  0  0  0  0  0
    4.2871    5.6855   -0.2180 H   0  0  0  0  0  0  0  0  0  0  0  0
    3.0719    1.7508   -2.9657 H   0  0  0  0  0  0  0  0  0  0  0  0
    2.0835    3.0499   -3.1751 H   0  0  0  0  0  0  0  0  0  0  0  0
    3.6740    2.7636   -4.0622 H   0  0  0  0  0  0  0  0  0  0  0  0
   -4.8308    7.0864    5.8515 H   0  0  0  0  0  0  0  0  0  0  0  0
    4.6048    4.6736   -3.9406 H   0  0  0  0  0  0  0  0  0  0  0  0
    4.7705    7.8461   -1.6665 H   0  0  0  0  0  0  0  0  0  0  0  0
    3.1455    7.3071   -1.8252 H   0  0  0  0  0  0  0  0  0  0  0  0
  1  2  1  0  0  0  0
  1  3  1  0  0  0  0
  1  4  1  0  0  0  0
  1  5  1  6  0  0  0
  2  6  1  0  0  0  0
  2  7  1  0  0  0  0
  2  8  1  1  0  0  0
  3  9  1  0  0  0  0
  3 10  1  0  0  0  0
  3 37  1  1  0  0  0
  4 11  1  0  0  0  0
  5 12  1  0  0  0  0
  5 13  2  0  0  0  0
  6 14  1  0  0  0  0
  6  9  1  0  0  0  0
  6 34  1  6  0  0  0
  7 15  1  0  0  0  0
  7 38  1  0  0  0  0
  7 39  1  0  0  0  0
  8 40  1  0  0  0  0
  8 41  1  0  0  0  0
  8 42  1  0  0  0  0
  9 43  1  0  0  0  0
  9 44  1  0  0  0  0
 10 11  1  0  0  0  0
 11 16  1  0  0  0  0
 11 17  1  6  0  0  0
 12 45  1  0  0  0  0
 12 46  1  0  0  0  0
 12 47  1  0  0  0  0
 14 18  1  0  0  0  0
 14 19  1  0  0  0  0
 14 36  1  1  0  0  0
 15 18  1  0  0  0  0
 15 48  1  0  0  0  0
 15 49  1  0  0  0  0
 16 20  2  0  0  0  0
 16 21  1  0  0  0  0
 17 50  1  0  0  0  0
 17 51  1  0  0  0  0
 17 52  1  0  0  0  0
 18 22  1  0  0  0  0
 18 35  1  6  0  0  0
 19 23  1  0  0  0  0
 19 53  1  0  0  0  0
 19 54  1  0  0  0  0
 20 24  1  0  0  0  0
 20 55  1  0  0  0  0
 21 25  2  0  0  0  0
 21 56  1  0  0  0  0
 22 26  1  0  0  0  0
 22 27  1  0  0  0  0
 22 28  1  1  0  0  0
 23 26  1  0  0  0  0
 23 57  1  0  0  0  0
 23 58  1  0  0  0  0
 24 29  2  0  0  0  0
 24 59  1  0  0  0  0
 25 29  1  0  0  0  0
 25 60  1  0  0  0  0
 26 30  2  0  0  0  0
 27 31  1  0  0  0  0
 27 61  1  0  0  0  0
 27 62  1  0  0  0  0
 28 63  1  0  0  0  0
 28 64  1  0  0  0  0
 28 65  1  0  0  0  0
 29 66  1  0  0  0  0
 30 32  1  0  0  0  0
 30 67  1  0  0  0  0
 31 32  1  0  0  0  0
 31 68  1  0  0  0  0
 31 69  1  0  0  0  0
 32 33  2  0  0  0  0
M  END
>  <DRUGBANK_ID>
DB15775

>  <COMMON_NAME>
Algestone acetophenide

>  <CAS_NUMBER>
24356-94-3

>  <UNII>
OL7KC2O3OT

>  <SYNONYMS>
Algeston acetofenid; Algestone acetophenide; Alphasone acetophenide; Dihydroxyprogesterone acetophenide

$$$$
