
 OpenBabel10282417203D

 45 48  0  0  0  0  0  0  0  0999 V2000
   -0.1425   -1.1910   -0.0410 N   0  0  0  0  0  0  0  0  0  0  0  0
   -0.7858   -0.0209    0.0052 C   0  0  0  0  0  0  0  0  0  0  0  0
   -0.1528    1.1463   -0.0352 N   0  0  0  0  0  0  0  0  0  0  0  0
    1.1849    1.1028   -0.3032 C   0  0  0  0  0  0  0  0  0  0  0  0
    1.9377   -0.0249   -0.6347 C   0  0  0  0  0  0  0  0  0  0  0  0
    1.2059   -1.1575   -0.3055 C   0  0  0  0  0  0  0  0  0  0  0  0
    3.4207    0.0879   -0.8364 C   0  0  0  0  0  0  0  0  0  0  0  0
    6.0404    0.6832   -0.4030 N   0  0  0  0  0  0  0  0  0  0  0  0
    5.1955    0.7097    0.6328 C   0  0  0  0  0  0  0  0  0  0  0  0
    3.8994    0.4599    0.4109 N   0  0  0  0  0  0  0  0  0  0  0  0
    5.6280    0.0172   -1.4919 C   0  0  0  0  0  0  0  0  0  0  0  0
    4.3159   -0.1463   -1.9071 C   0  0  0  0  0  0  0  0  0  0  0  0
    4.6064   -0.7331   -3.3188 C   0  0  0  0  0  0  0  0  0  0  0  0
    5.4467   -1.9218   -2.8481 C   0  0  0  0  0  0  0  0  0  0  0  0
    6.3521   -1.1974   -1.9464 N   0  0  0  0  0  0  0  0  0  0  0  0
    5.7271    0.4203    1.9676 N   0  0  0  0  0  0  0  0  0  0  0  0
    5.5099   -1.0829    2.1325 C   0  0  0  0  0  0  0  0  0  0  0  0
    6.3914   -1.7540    1.0902 C   0  0  0  0  0  0  0  0  0  0  0  0
    7.7697   -1.6965    1.4161 O   0  0  0  0  0  0  0  0  0  0  0  0
    8.0879   -0.5269    2.1907 C   0  0  0  0  0  0  0  0  0  0  0  0
    7.2068    0.7488    2.0118 C   0  0  0  0  0  0  0  0  0  0  0  0
   -2.1527   -0.0120    0.0546 N   0  0  0  0  0  0  0  0  0  0  0  0
    8.0165   -1.2472   -2.0219 S   0  0  0  0  0  0  0  0  0  0  0  0
    8.5179    0.0906   -2.1070 O   0  0  0  0  0  0  0  0  0  0  0  0
    8.5119   -2.2006   -1.0262 O   0  0  0  0  0  0  0  0  0  0  0  0
    8.4686   -2.0680   -3.5317 C   0  0  0  0  0  0  0  0  0  0  0  0
    1.6690    2.0692   -0.1626 H   0  0  0  0  0  0  0  0  0  0  0  0
    1.6731   -2.1275   -0.1494 H   0  0  0  0  0  0  0  0  0  0  0  0
    3.9687   -1.0898   -4.1285 H   0  0  0  0  0  0  0  0  0  0  0  0
    5.3051   -0.0200   -3.8331 H   0  0  0  0  0  0  0  0  0  0  0  0
    5.9423   -2.5654   -3.5795 H   0  0  0  0  0  0  0  0  0  0  0  0
    4.7187   -2.5784   -2.3493 H   0  0  0  0  0  0  0  0  0  0  0  0
    4.4488   -1.3438    2.0515 H   0  0  0  0  0  0  0  0  0  0  0  0
    5.8373   -1.5052    3.0975 H   0  0  0  0  0  0  0  0  0  0  0  0
    6.4236   -1.1062    0.2768 H   0  0  0  0  0  0  0  0  0  0  0  0
    5.9895   -2.6126    0.5397 H   0  0  0  0  0  0  0  0  0  0  0  0
    9.1498   -0.2915    2.0607 H   0  0  0  0  0  0  0  0  0  0  0  0
    7.9588   -0.8728    3.2161 H   0  0  0  0  0  0  0  0  0  0  0  0
    7.5422    1.3459    1.1521 H   0  0  0  0  0  0  0  0  0  0  0  0
    7.4209    1.4081    2.8696 H   0  0  0  0  0  0  0  0  0  0  0  0
   -2.6286    0.8749    0.0358 H   0  0  0  0  0  0  0  0  0  0  0  0
   -2.6442   -0.8878    0.0298 H   0  0  0  0  0  0  0  0  0  0  0  0
    8.1168   -3.1029   -3.5155 H   0  0  0  0  0  0  0  0  0  0  0  0
    8.1152   -1.5155   -4.3975 H   0  0  0  0  0  0  0  0  0  0  0  0
    9.5650   -2.1000   -3.5326 H   0  0  0  0  0  0  0  0  0  0  0  0
  1  2  1  0  0  0  0
  1  6  2  0  0  0  0
  2  3  2  0  0  0  0
  2 22  1  0  0  0  0
  3  4  1  0  0  0  0
  4  5  2  0  0  0  0
  4 27  1  0  0  0  0
  5  6  1  0  0  0  0
  5  7  1  0  0  0  0
  6 28  1  0  0  0  0
  7 12  2  0  0  0  0
  7 10  1  0  0  0  0
  8  9  1  0  0  0  0
  9 16  1  0  0  0  0
  9 10  2  0  0  0  0
 11  8  2  0  0  0  0
 11 12  1  0  0  0  0
 12 13  1  0  0  0  0
 13 14  1  0  0  0  0
 13 29  1  0  0  0  0
 13 30  1  0  0  0  0
 14 15  1  0  0  0  0
 14 31  1  0  0  0  0
 14 32  1  0  0  0  0
 15 11  1  0  0  0  0
 15 23  1  0  0  0  0
 16 17  1  0  0  0  0
 16 21  1  0  0  0  0
 17 18  1  0  0  0  0
 17 33  1  0  0  0  0
 17 34  1  0  0  0  0
 18 19  1  0  0  0  0
 18 35  1  0  0  0  0
 18 36  1  0  0  0  0
 19 20  1  0  0  0  0
 20 21  1  0  0  0  0
 20 37  1  0  0  0  0
 20 38  1  0  0  0  0
 21 39  1  0  0  0  0
 21 40  1  0  0  0  0
 22 41  1  0  0  0  0
 22 42  1  0  0  0  0
 23 24  2  0  0  0  0
 23 25  2  0  0  0  0
 23 26  1  0  0  0  0
 26 43  1  0  0  0  0
 26 44  1  0  0  0  0
 26 45  1  0  0  0  0
M  END
>  <DRUGBANK_ID>
DB13051

>  <COMMON_NAME>
CH-5132799

>  <CAS_NUMBER>
1007207-67-1

>  <UNII>
JCL936W835

$$$$
