
 OpenBabel10282417203D

 30 32  0  0  0  0  0  0  0  0999 V2000
   -3.3753    0.6486    0.0212 C   0  0  0  0  0  0  0  0  0  0  0  0
   -1.8889    0.4777    0.0160 C   0  0  0  0  0  0  0  0  0  0  0  0
   -0.8802    1.4328    0.0277 C   0  0  0  0  0  0  0  0  0  0  0  0
    0.4264    0.8090   -0.0923 C   0  0  0  0  0  0  0  0  0  0  0  0
    1.7121    1.3854   -0.2435 C   0  0  0  0  0  0  0  0  0  0  0  0
    2.8709    0.6264   -0.1059 C   0  0  0  0  0  0  0  0  0  0  0  0
    2.7754   -0.7465    0.0302 C   0  0  0  0  0  0  0  0  0  0  0  0
    1.5255   -1.3728    0.0334 C   0  0  0  0  0  0  0  0  0  0  0  0
    0.3592   -0.5810   -0.0067 C   0  0  0  0  0  0  0  0  0  0  0  0
   -1.2683   -1.1177    0.0074 S   0  0  0  0  0  0  0  0  0  0  0  0
   -1.0816    2.9303    0.1281 C   0  0  0  0  0  0  0  0  0  0  0  0
   -0.5388    3.5194    1.4263 C   0  0  0  0  0  0  0  0  0  0  0  0
   -1.3458    3.9552    2.3651 N   0  0  0  0  0  0  0  0  0  0  0  0
   -0.4149    4.4474    3.4346 C   0  0  0  0  0  0  0  0  0  0  0  0
    0.9279    3.7851    3.1490 C   0  0  0  0  0  0  0  0  0  0  0  0
    0.8014    3.6470    1.7257 N   0  0  0  0  0  0  0  0  0  0  0  0
   -3.8155    0.2012   -0.8776 H   0  0  0  0  0  0  0  0  0  0  0  0
   -3.8193    0.1701    0.9003 H   0  0  0  0  0  0  0  0  0  0  0  0
   -3.6716    1.6997    0.0345 H   0  0  0  0  0  0  0  0  0  0  0  0
    1.8052    2.4449   -0.4571 H   0  0  0  0  0  0  0  0  0  0  0  0
    3.8404    1.1170   -0.1237 H   0  0  0  0  0  0  0  0  0  0  0  0
    3.6806   -1.3434    0.1014 H   0  0  0  0  0  0  0  0  0  0  0  0
    1.4562   -2.4554    0.0820 H   0  0  0  0  0  0  0  0  0  0  0  0
   -0.6063    3.4261   -0.7243 H   0  0  0  0  0  0  0  0  0  0  0  0
   -2.1474    3.1794    0.0794 H   0  0  0  0  0  0  0  0  0  0  0  0
   -0.7919    4.1954    4.4272 H   0  0  0  0  0  0  0  0  0  0  0  0
   -0.3219    5.5366    3.3461 H   0  0  0  0  0  0  0  0  0  0  0  0
    1.7938    4.3889    3.4287 H   0  0  0  0  0  0  0  0  0  0  0  0
    0.9967    2.8005    3.6290 H   0  0  0  0  0  0  0  0  0  0  0  0
    1.5402    3.1897    1.2323 H   0  0  0  0  0  0  0  0  0  0  0  0
  1  2  1  0  0  0  0
  1 17  1  0  0  0  0
  1 18  1  0  0  0  0
  1 19  1  0  0  0  0
  2  3  2  0  0  0  0
  2 10  1  0  0  0  0
  3  4  1  0  0  0  0
  3 11  1  0  0  0  0
  4  5  2  0  0  0  0
  4  9  1  0  0  0  0
  5  6  1  0  0  0  0
  5 20  1  0  0  0  0
  6  7  2  0  0  0  0
  6 21  1  0  0  0  0
  7  8  1  0  0  0  0
  7 22  1  0  0  0  0
  8  9  2  0  0  0  0
  8 23  1  0  0  0  0
  9 10  1  0  0  0  0
 11 12  1  0  0  0  0
 11 24  1  0  0  0  0
 11 25  1  0  0  0  0
 12 13  2  0  0  0  0
 12 16  1  0  0  0  0
 13 14  1  0  0  0  0
 14 15  1  0  0  0  0
 14 26  1  0  0  0  0
 14 27  1  0  0  0  0
 15 16  1  0  0  0  0
 15 28  1  0  0  0  0
 15 29  1  0  0  0  0
 16 30  1  0  0  0  0
M  END
>  <DRUGBANK_ID>
DB13614

>  <COMMON_NAME>
Metizoline

>  <CAS_NUMBER>
17692-22-7

>  <UNII>
Z27L8N105U

>  <SYNONYMS>
Metizoline

$$$$
