
 OpenBabel10282417123D

 81 86  0  0  1  0  0  0  0  0999 V2000
    9.9178  -16.8660    8.7650 C   0  0  0  0  0  0  0  0  0  0  0  0
    8.6480  -16.7167    8.0663 N   0  0  0  0  0  0  0  0  0  0  0  0
    7.8297  -17.7078    7.6880 C   0  0  0  0  0  0  0  0  0  0  0  0
    6.7404  -17.1723    7.1039 N   0  3  0  0  0  0  0  0  0  0  0  0
    5.6338  -17.9847    6.6211 C   0  0  2  0  0  0  0  0  0  0  0  0
    5.4635  -17.7615    5.2267 O   0  0  0  0  0  0  0  0  0  0  0  0
    4.0409  -17.7543    4.9266 C   0  0  2  0  0  0  0  0  0  0  0  0
    3.7082  -16.3862    4.3137 C   0  0  0  0  0  0  0  0  0  0  0  0
    2.9425  -15.6359    5.2086 O   0  0  0  0  0  0  0  0  0  0  0  0
    2.3626  -14.1737    4.7298 P   0  0  2  0  0  0  0  0  0  0  0  0
    3.8846  -13.4928    5.1911 O   0  0  0  0  0  0  0  0  0  0  0  0
    1.8612  -13.6227    6.0647 O   0  0  0  0  0  0  0  0  0  0  0  0
    0.8406  -14.8546    4.2685 O   0  0  0  0  0  0  0  0  0  0  0  0
   -0.1888  -13.5936    3.6828 P   0  0  2  0  0  0  0  0  0  0  0  0
    1.1683  -12.8408    2.9182 O   0  0  0  0  0  0  0  0  0  0  0  0
    0.0975  -12.5700    4.7866 O   0  0  0  0  0  0  0  0  0  0  0  0
   -1.5459  -14.3463    4.4475 O   0  0  0  0  0  0  0  0  0  0  0  0
   -2.4276  -12.9274    3.9977 P   0  0  2  0  0  0  0  0  0  0  0  0
   -1.3132  -12.6446    2.7051 O   0  0  0  0  0  0  0  0  0  0  0  0
   -1.9700  -11.6658    4.7225 O   0  0  0  0  0  0  0  0  0  0  0  0
   -3.5420  -13.2102    5.2904 O   0  0  0  0  0  0  0  0  0  0  0  0
   -4.8711  -13.0130    4.7474 C   0  0  0  0  0  0  0  0  0  0  0  0
   -5.1160  -11.5620    4.2009 C   0  0  1  0  0  0  0  0  0  0  0  0
   -3.9055  -10.9687    3.6716 O   0  0  0  0  0  0  0  0  0  0  0  0
   -3.9849  -10.5272    2.3109 C   0  0  2  0  0  0  0  0  0  0  0  0
   -5.2365  -11.2138    1.8121 C   0  0  2  0  0  0  0  0  0  0  0  0
   -5.8080  -10.4529    0.7696 O   0  0  0  0  0  0  0  0  0  0  0  0
   -6.1112  -11.3925    3.0535 C   0  0  2  0  0  0  0  0  0  0  0  0
   -6.8583  -10.1877    3.2293 O   0  0  0  0  0  0  0  0  0  0  0  0
   -2.8157  -10.8860    1.4821 N   0  0  0  0  0  0  0  0  0  0  0  0
   -2.6318  -12.0878    0.8191 C   0  0  0  0  0  0  0  0  0  0  0  0
   -1.4054  -12.2181    0.3307 N   0  0  0  0  0  0  0  0  0  0  0  0
   -0.8597  -10.9455    0.4405 C   0  0  0  0  0  0  0  0  0  0  0  0
    0.3730  -10.3914    0.0205 C   0  0  0  0  0  0  0  0  0  0  0  0
    1.4531  -11.1189   -0.4541 N   0  0  0  0  0  0  0  0  0  0  0  0
    0.4958   -9.0464    0.0700 N   0  0  0  0  0  0  0  0  0  0  0  0
   -0.5117   -8.3262    0.6190 C   0  0  0  0  0  0  0  0  0  0  0  0
   -1.6381   -8.7673    1.2199 N   0  0  0  0  0  0  0  0  0  0  0  0
   -1.7636  -10.0929    1.0802 C   0  0  0  0  0  0  0  0  0  0  0  0
    3.3080  -18.1248    6.2328 C   0  0  1  0  0  0  0  0  0  0  0  0
    3.0422  -19.5343    6.3085 O   0  0  0  0  0  0  0  0  0  0  0  0
    4.3018  -17.7376    7.3210 C   0  0  1  0  0  0  0  0  0  0  0  0
    4.2105  -18.5130    8.5171 O   0  0  0  0  0  0  0  0  0  0  0  0
    6.8737  -15.7933    7.0971 C   0  0  0  0  0  0  0  0  0  0  0  0
    8.0765  -15.5063    7.6888 C   0  0  0  0  0  0  0  0  0  0  0  0
    8.5126  -14.1319    7.8301 C   0  0  0  0  0  0  0  0  0  0  0  0
    9.5593  -13.7759    8.3347 O   0  0  0  0  0  0  0  0  0  0  0  0
    7.6217  -13.1969    7.3174 N   0  0  0  0  0  0  0  0  0  0  0  0
    6.4990  -13.5450    6.7812 C   0  0  0  0  0  0  0  0  0  0  0  0
    5.7034  -12.5886    6.2729 N   0  0  0  0  0  0  0  0  0  0  0  0
    6.0299  -14.8306    6.6255 N   0  0  0  0  0  0  0  0  0  0  0  0
   10.1971  -15.9384    9.2683 H   0  0  0  0  0  0  0  0  0  0  0  0
   10.6910  -17.1389    8.0428 H   0  0  0  0  0  0  0  0  0  0  0  0
    9.8181  -17.6489    9.5203 H   0  0  0  0  0  0  0  0  0  0  0  0
    8.0224  -18.7650    7.8364 H   0  0  0  0  0  0  0  0  0  0  0  0
    5.9202  -19.0392    6.7471 H   0  0  0  0  0  0  0  0  0  0  0  0
    3.8932  -18.5139    4.1525 H   0  0  0  0  0  0  0  0  0  0  0  0
    4.6180  -15.8218    4.0863 H   0  0  0  0  0  0  0  0  0  0  0  0
    3.1249  -16.5039    3.3999 H   0  0  0  0  0  0  0  0  0  0  0  0
    4.0077  -12.7210    4.5939 H   0  0  0  0  0  0  0  0  0  0  0  0
    1.0838  -11.8987    3.2110 H   0  0  0  0  0  0  0  0  0  0  0  0
   -1.3402  -13.1844    1.8650 H   0  0  0  0  0  0  0  0  0  0  0  0
   -5.0216  -13.7681    3.9665 H   0  0  0  0  0  0  0  0  0  0  0  0
   -5.5843  -13.2488    5.5476 H   0  0  0  0  0  0  0  0  0  0  0  0
   -5.4315  -10.9738    5.0732 H   0  0  0  0  0  0  0  0  0  0  0  0
   -4.0244   -9.4358    2.3419 H   0  0  0  0  0  0  0  0  0  0  0  0
   -5.0337  -12.2166    1.4317 H   0  0  0  0  0  0  0  0  0  0  0  0
   -6.0454   -9.5849    1.1497 H   0  0  0  0  0  0  0  0  0  0  0  0
   -6.8098  -12.2286    2.9518 H   0  0  0  0  0  0  0  0  0  0  0  0
   -6.2460   -9.4657    3.4609 H   0  0  0  0  0  0  0  0  0  0  0  0
   -3.2630  -12.9505    1.0000 H   0  0  0  0  0  0  0  0  0  0  0  0
    1.3666  -12.1123   -0.6002 H   0  0  0  0  0  0  0  0  0  0  0  0
    2.1522  -10.5960   -0.9682 H   0  0  0  0  0  0  0  0  0  0  0  0
   -0.4134   -7.2469    0.5477 H   0  0  0  0  0  0  0  0  0  0  0  0
    2.3389  -17.6305    6.3486 H   0  0  0  0  0  0  0  0  0  0  0  0
    3.8301  -20.0600    6.1022 H   0  0  0  0  0  0  0  0  0  0  0  0
    4.1864  -16.6833    7.5868 H   0  0  0  0  0  0  0  0  0  0  0  0
    3.9389  -19.4203    8.2761 H   0  0  0  0  0  0  0  0  0  0  0  0
    4.7020  -12.8050    6.3227 H   0  0  0  0  0  0  0  0  0  0  0  0
    5.9108  -11.6291    6.5202 H   0  0  0  0  0  0  0  0  0  0  0  0
    5.1133  -14.9319    6.1957 H   0  0  0  0  0  0  0  0  0  0  0  0
  1  2  1  0  0  0  0
  1 52  1  0  0  0  0
  1 53  1  0  0  0  0
  1 54  1  0  0  0  0
  2  3  1  0  0  0  0
  2 45  1  0  0  0  0
  3  4  2  0  0  0  0
  3 55  1  0  0  0  0
  4 44  1  0  0  0  0
  5  4  1  0  0  0  0
  5  6  1  0  0  0  0
  5 42  1  0  0  0  0
  5 56  1  1  0  0  0
  6  7  1  0  0  0  0
  7 40  1  0  0  0  0
  7 57  1  6  0  0  0
  7  8  1  0  0  0  0
  8  9  1  0  0  0  0
  8 58  1  0  0  0  0
  8 59  1  0  0  0  0
 10 12  2  1  0  0  0
 10 13  1  0  0  0  0
 10 11  1  0  0  0  0
 10  9  1  0  0  0  0
 11 60  1  0  0  0  0
 14 16  2  1  0  0  0
 14 17  1  0  0  0  0
 14 15  1  0  0  0  0
 14 13  1  0  0  0  0
 15 61  1  0  0  0  0
 18 20  2  1  0  0  0
 18 21  1  0  0  0  0
 18 19  1  0  0  0  0
 18 17  1  0  0  0  0
 19 62  1  0  0  0  0
 21 22  1  0  0  0  0
 22 63  1  0  0  0  0
 22 64  1  0  0  0  0
 23 22  1  0  0  0  0
 23 24  1  0  0  0  0
 23 28  1  0  0  0  0
 23 65  1  1  0  0  0
 24 25  1  0  0  0  0
 25 26  1  0  0  0  0
 25 66  1  6  0  0  0
 25 30  1  0  0  0  0
 26 27  1  0  0  0  0
 26 28  1  0  0  0  0
 26 67  1  6  0  0  0
 27 68  1  0  0  0  0
 28 29  1  0  0  0  0
 28 69  1  6  0  0  0
 29 70  1  0  0  0  0
 30 31  1  0  0  0  0
 30 39  1  0  0  0  0
 31 32  2  0  0  0  0
 31 71  1  0  0  0  0
 32 33  1  0  0  0  0
 33 34  2  0  0  0  0
 33 39  1  0  0  0  0
 34 35  1  0  0  0  0
 34 36  1  0  0  0  0
 35 72  1  0  0  0  0
 35 73  1  0  0  0  0
 36 37  2  0  0  0  0
 37 38  1  0  0  0  0
 37 74  1  0  0  0  0
 38 39  2  0  0  0  0
 40 41  1  0  0  0  0
 40 42  1  0  0  0  0
 40 75  1  1  0  0  0
 41 76  1  0  0  0  0
 42 43  1  0  0  0  0
 42 77  1  1  0  0  0
 43 78  1  0  0  0  0
 44 45  2  0  0  0  0
 44 51  1  0  0  0  0
 45 46  1  0  0  0  0
 46 47  2  0  0  0  0
 46 48  1  0  0  0  0
 48 49  2  0  0  0  0
 49 50  1  0  0  0  0
 49 51  1  0  0  0  0
 50 79  1  0  0  0  0
 50 80  1  0  0  0  0
 51 81  1  0  0  0  0
M  CHG  1   4   1
M  END
>  <DRUGBANK_ID>
DB01649

>  <SECONDARY_ACCESSION_NUMBERS>
EXPT01652

>  <COMMON_NAME>
7-methyl-GpppA

>  <SYNONYMS>
P1-7-METHYLGUANOSINE-P3-ADENOSINE-5',5'-TRIPHOSPHATE

$$$$
