
 OpenBabel10282417143D

 39 42  0  0  1  0  0  0  0  0999 V2000
   11.5028  -13.8445  -23.4999 O   0  0  0  0  0  0  0  0  0  0  0  0
   11.9304  -12.3916  -23.0854 O   0  0  0  0  0  0  0  0  0  0  0  0
   10.1366  -10.1228  -25.8809 O   0  0  0  0  0  0  0  0  0  0  0  0
    8.3487  -12.1550  -25.5417 O   0  0  0  0  0  0  0  0  0  0  0  0
   13.9069  -10.7086  -22.3433 O   0  0  0  0  0  0  0  0  0  0  0  0
   13.3899  -13.6654  -24.4732 O   0  5  0  0  0  0  0  0  0  0  0  0
   11.9844   -7.4573  -24.8539 O   0  0  0  0  0  0  0  0  0  0  0  0
    8.8861  -12.1838  -22.0579 O   0  0  0  0  0  0  0  0  0  0  0  0
   13.4190  -11.0171  -25.7081 N   0  0  0  0  0  0  0  0  0  0  0  0
   12.3268   -9.1075  -26.2301 N   0  3  0  0  0  0  0  0  0  0  0  0
   13.3632  -10.3108  -27.8771 N   0  0  0  0  0  0  0  0  0  0  0  0
   12.7241  -11.0977  -24.5109 C   0  0  3  0  0  0  0  0  0  0  0  0
   11.6609  -10.5637  -23.7629 C   0  0  3  0  0  0  0  0  0  0  0  0
   10.4055  -12.4187  -23.7987 C   0  0  3  0  0  0  0  0  0  0  0  0
   10.8762  -10.7277  -24.8337 C   0  0  3  0  0  0  0  0  0  0  0  0
    9.1375  -12.5305  -24.4377 C   0  0  3  0  0  0  0  0  0  0  0  0
   10.8757  -12.1862  -24.7716 C   0  0  2  0  0  0  0  0  0  0  0  0
   13.6300  -11.9109  -23.2290 C   0  0  1  0  0  0  0  0  0  0  0  0
   12.8248  -13.3461  -23.3338 C   0  0  3  0  0  0  0  0  0  0  0  0
   11.9475   -8.9041  -24.8042 C   0  0  3  0  0  0  0  0  0  0  0  0
    8.4525  -11.7841  -23.3285 C   0  0  0  0  0  0  0  0  0  0  0  0
   13.0466  -10.1557  -26.5992 C   0  0  0  0  0  0  0  0  0  0  0  0
   11.3800  -12.7492  -25.6244 H   0  0  0  0  0  0  0  0  0  0  0  0
    9.1877  -10.2548  -25.6326 H   0  0  0  0  0  0  0  0  0  0  0  0
    7.4156  -12.2906  -25.2162 H   0  0  0  0  0  0  0  0  0  0  0  0
   13.6682  -10.8893  -21.4030 H   0  0  0  0  0  0  0  0  0  0  0  0
   11.3141   -7.1599  -25.5384 H   0  0  0  0  0  0  0  0  0  0  0  0
    8.7928  -13.1608  -22.0402 H   0  0  0  0  0  0  0  0  0  0  0  0
   13.9515  -11.8732  -25.8685 H   0  0  0  0  0  0  0  0  0  0  0  0
   12.3169   -8.3537  -26.9038 H   0  0  0  0  0  0  0  0  0  0  0  0
   14.3335  -10.3111  -28.1537 H   0  0  0  0  0  0  0  0  0  0  0  0
   12.6374  -10.1646  -28.5617 H   0  0  0  0  0  0  0  0  0  0  0  0
   11.9414  -10.1692  -22.8066 H   0  0  0  0  0  0  0  0  0  0  0  0
   10.2151  -13.6434  -24.5268 H   0  0  0  0  0  0  0  0  0  0  0  0
   10.1034  -10.2110  -23.7753 H   0  0  0  0  0  0  0  0  0  0  0  0
   13.5257  -12.3181  -22.1796 H   0  0  0  0  0  0  0  0  0  0  0  0
   10.9446   -8.6457  -24.4705 H   0  0  0  0  0  0  0  0  0  0  0  0
    8.6721  -10.7815  -23.6265 H   0  0  0  0  0  0  0  0  0  0  0  0
    7.3915  -11.5940  -23.3163 H   0  0  0  0  0  0  0  0  0  0  0  0
  1 14  1  0  0  0  0
  1 19  1  0  0  0  0
  2 17  1  0  0  0  0
  2 19  1  0  0  0  0
  3 24  1  0  0  0  0
  3 15  1  0  0  0  0
  4 25  1  0  0  0  0
  4 16  1  0  0  0  0
  5 26  1  0  0  0  0
  6 19  1  0  0  0  0
  7 27  1  0  0  0  0
  7 20  1  0  0  0  0
  8 21  1  0  0  0  0
  8 28  1  0  0  0  0
  9 12  1  0  0  0  0
  9 22  1  0  0  0  0
  9 29  1  0  0  0  0
 10 20  1  0  0  0  0
 10 22  2  0  0  0  0
 10 30  1  0  0  0  0
 11 31  1  0  0  0  0
 11 32  1  0  0  0  0
 11 22  1  0  0  0  0
 12 13  1  0  0  0  0
 12 15  1  0  0  0  0
 12 18  1  0  0  0  0
 13 14  1  0  0  0  0
 13 20  1  0  0  0  0
 13 33  1  0  0  0  0
 14 16  1  0  0  0  0
 14 34  1  0  0  0  0
 15 17  1  0  0  0  0
 15 35  1  0  0  0  0
 16 17  1  0  0  0  0
 16 21  1  0  0  0  0
 17 23  1  6  0  0  0
 18 19  1  0  0  0  0
 18  5  1  0  0  0  0
 18 36  1  1  0  0  0
 20 37  1  0  0  0  0
 21 38  1  0  0  0  0
 21 39  1  0  0  0  0
M  CHG  2   6  -1  10   1
M  END
>  <DRUGBANK_ID>
DB05232

>  <COMMON_NAME>
Tetrodotoxin

>  <CAS_NUMBER>
4368-28-9

>  <UNII>
3KUM2721U9

>  <SYNONYMS>
Tetrodotoxin

$$$$
