
 OpenBabel10282417203D

 50 53  0  0  0  0  0  0  0  0999 V2000
    0.9869   -0.0622    0.1447 C   0  0  0  0  0  0  0  0  0  0  0  0
    0.5540    0.3803   -1.2121 C   0  0  0  0  0  0  0  0  0  0  0  0
    0.3553    1.7241   -1.4972 C   0  0  0  0  0  0  0  0  0  0  0  0
   -0.0149    2.2079   -2.6950 N   0  0  0  0  0  0  0  0  0  0  0  0
   -0.1618    1.3656   -3.7490 C   0  0  0  0  0  0  0  0  0  0  0  0
    0.2424   -0.0060   -3.6213 C   0  0  0  0  0  0  0  0  0  0  0  0
    0.4392   -0.4706   -2.3197 C   0  0  0  0  0  0  0  0  0  0  0  0
    0.4370   -1.8440   -2.3842 N   0  0  0  0  0  0  0  0  0  0  0  0
    0.2876   -2.2943   -3.6742 C   0  0  0  0  0  0  0  0  0  0  0  0
    0.4083   -1.1815   -4.5074 C   0  0  0  0  0  0  0  0  0  0  0  0
    0.4914   -1.4541   -5.9403 C   0  0  0  0  0  0  0  0  0  0  0  0
    0.9084   -0.4968   -6.8987 C   0  0  0  0  0  0  0  0  0  0  0  0
    0.5635   -0.6268   -8.2554 C   0  0  0  0  0  0  0  0  0  0  0  0
   -0.0237   -1.7911   -8.6993 C   0  0  0  0  0  0  0  0  0  0  0  0
   -0.2160   -2.8531   -7.8162 C   0  0  0  0  0  0  0  0  0  0  0  0
    0.0557   -2.6946   -6.4334 C   0  0  0  0  0  0  0  0  0  0  0  0
   -0.1145   -3.7574   -5.5367 C   0  0  0  0  0  0  0  0  0  0  0  0
    0.0809   -3.5862   -4.1588 C   0  0  0  0  0  0  0  0  0  0  0  0
   -0.4105   -1.9513   -9.9980 O   0  0  0  0  0  0  0  0  0  0  0  0
   -0.8964    1.9084   -4.7820 N   0  0  0  0  0  0  0  0  0  0  0  0
   -1.2524    1.0668   -5.8750 C   0  0  0  0  0  0  0  0  0  0  0  0
   -2.5449    1.2719   -6.5733 C   0  0  0  0  0  0  0  0  0  0  0  0
   -2.7275    2.6836   -7.0654 C   0  0  0  0  0  0  0  0  0  0  0  0
   -1.8450    3.1431   -8.1652 N   0  0  0  0  0  0  0  0  0  0  0  0
   -2.2932    4.4883   -8.5279 C   0  0  0  0  0  0  0  0  0  0  0  0
   -0.4125    3.2500   -7.8582 C   0  0  0  0  0  0  0  0  0  0  0  0
    0.6348   -1.0749    0.3586 H   0  0  0  0  0  0  0  0  0  0  0  0
    0.6060    0.6014    0.9266 H   0  0  0  0  0  0  0  0  0  0  0  0
    2.0811   -0.0557    0.1781 H   0  0  0  0  0  0  0  0  0  0  0  0
    0.4572    2.4823   -0.7228 H   0  0  0  0  0  0  0  0  0  0  0  0
    0.4457   -2.4460   -1.5750 H   0  0  0  0  0  0  0  0  0  0  0  0
    1.3767    0.4235   -6.5599 H   0  0  0  0  0  0  0  0  0  0  0  0
    0.7052    0.2212   -8.9236 H   0  0  0  0  0  0  0  0  0  0  0  0
   -0.6148   -3.7815   -8.2053 H   0  0  0  0  0  0  0  0  0  0  0  0
   -0.3634   -4.7430   -5.9137 H   0  0  0  0  0  0  0  0  0  0  0  0
    0.0063   -4.4382   -3.4899 H   0  0  0  0  0  0  0  0  0  0  0  0
   -0.2530   -1.1207  -10.4808 H   0  0  0  0  0  0  0  0  0  0  0  0
   -0.9044    2.9193   -4.8225 H   0  0  0  0  0  0  0  0  0  0  0  0
   -0.4818    1.1816   -6.6014 H   0  0  0  0  0  0  0  0  0  0  0  0
   -1.3425    0.0401   -5.5527 H   0  0  0  0  0  0  0  0  0  0  0  0
   -2.5817    0.5647   -7.4154 H   0  0  0  0  0  0  0  0  0  0  0  0
   -3.3481    0.9756   -5.8888 H   0  0  0  0  0  0  0  0  0  0  0  0
   -3.7636    2.7062   -7.4277 H   0  0  0  0  0  0  0  0  0  0  0  0
   -2.6818    3.3647   -6.2078 H   0  0  0  0  0  0  0  0  0  0  0  0
   -2.1866    5.1748   -7.6795 H   0  0  0  0  0  0  0  0  0  0  0  0
   -1.7008    4.8683   -9.3645 H   0  0  0  0  0  0  0  0  0  0  0  0
   -3.3379    4.4716   -8.8480 H   0  0  0  0  0  0  0  0  0  0  0  0
   -0.2195    3.7264   -6.8913 H   0  0  0  0  0  0  0  0  0  0  0  0
    0.1038    2.2935   -7.9184 H   0  0  0  0  0  0  0  0  0  0  0  0
    0.1136    3.8290   -8.6260 H   0  0  0  0  0  0  0  0  0  0  0  0
  1  2  1  0  0  0  0
  1 27  1  0  0  0  0
  1 28  1  0  0  0  0
  1 29  1  0  0  0  0
  2  3  2  0  0  0  0
  2  7  1  0  0  0  0
  3  4  1  0  0  0  0
  3 30  1  0  0  0  0
  4  5  2  0  0  0  0
  5  6  1  0  0  0  0
  5 20  1  0  0  0  0
  6  7  2  0  0  0  0
  6 10  1  0  0  0  0
  7  8  1  0  0  0  0
  8  9  1  0  0  0  0
  8 31  1  0  0  0  0
  9 10  2  0  0  0  0
  9 18  1  0  0  0  0
 10 11  1  0  0  0  0
 11 12  2  0  0  0  0
 11 16  1  0  0  0  0
 12 13  1  0  0  0  0
 12 32  1  0  0  0  0
 13 14  2  0  0  0  0
 13 33  1  0  0  0  0
 14 15  1  0  0  0  0
 14 19  1  0  0  0  0
 15 16  2  0  0  0  0
 15 34  1  0  0  0  0
 16 17  1  0  0  0  0
 17 18  2  0  0  0  0
 17 35  1  0  0  0  0
 18 36  1  0  0  0  0
 19 37  1  0  0  0  0
 20 21  1  0  0  0  0
 20 38  1  0  0  0  0
 21 22  1  0  0  0  0
 21 39  1  0  0  0  0
 21 40  1  0  0  0  0
 22 23  1  0  0  0  0
 22 41  1  0  0  0  0
 22 42  1  0  0  0  0
 23 24  1  0  0  0  0
 23 43  1  0  0  0  0
 23 44  1  0  0  0  0
 24 25  1  0  0  0  0
 24 26  1  0  0  0  0
 25 45  1  0  0  0  0
 25 46  1  0  0  0  0
 25 47  1  0  0  0  0
 26 48  1  0  0  0  0
 26 49  1  0  0  0  0
 26 50  1  0  0  0  0
M  END
>  <DRUGBANK_ID>
DB12868

>  <COMMON_NAME>
Intoplicine

>  <CAS_NUMBER>
125974-72-3

>  <UNII>
FB2CIN6HMI

>  <SYNONYMS>
Intoplicine

$$$$
