1421
 OpenBabel10282417113D

 87 90  0  0  1  0  0  0  0  0999 V2000
   -5.6675   -8.1570    6.3138 O   0  0  0  0  0  0  0  0  0  0  0  0
   -2.9014   -8.8128    6.2512 O   0  0  0  0  0  0  0  0  0  0  0  0
   -4.3283   -6.1768    5.5225 O   0  0  0  0  0  0  0  0  0  0  0  0
   -5.4001   -4.3178    8.5096 O   0  0  0  0  0  0  0  0  0  0  0  0
   -6.9432   -8.6228    9.1036 O   0  0  0  0  0  0  0  0  0  0  0  0
   -3.8743  -10.8430    6.6601 O   0  0  0  0  0  0  0  0  0  0  0  0
   -7.3899   -3.5200    7.6584 O   0  0  0  0  0  0  0  0  0  0  0  0
   -6.9759   -4.9633    5.7749 O   0  0  0  0  0  0  0  0  0  0  0  0
   -0.8330  -12.4696    6.3829 O   0  0  0  0  0  0  0  0  0  0  0  0
   -4.1056  -12.7952    4.7077 O   0  0  0  0  0  0  0  0  0  0  0  0
   -5.8269   -0.4855    7.2167 O   0  0  0  0  0  0  0  0  0  0  0  0
   -1.7310   -5.0196    5.9501 O   0  0  0  0  0  0  0  0  0  0  0  0
   -9.0311   -1.6850    8.6629 O   0  0  0  0  0  0  0  0  0  0  0  0
   -3.7313  -11.8220    9.4196 O   0  0  0  0  0  0  0  0  0  0  0  0
   -1.3318   -7.6976    8.4302 N   0  0  0  0  0  0  0  0  0  0  0  0
   -5.3491   -7.1897   11.1492 N   0  0  0  0  0  0  0  0  0  0  0  0
   -2.6345  -10.3772    3.8593 N   0  0  0  0  0  0  0  0  0  0  0  0
   -6.7569   -2.4460   10.3012 N   0  0  0  0  0  0  0  0  0  0  0  0
   -9.6371   -2.0768    5.0388 N   0  0  0  0  0  0  0  0  0  0  0  0
   -5.0269   -8.5226    7.5537 C   0  0  1  0  0  0  0  0  0  0  0  0
   -3.5153   -8.2474    7.4112 C   0  0  1  0  0  0  0  0  0  0  0  0
   -2.6584   -8.2722    8.6919 C   0  0  2  0  0  0  0  0  0  0  0  0
   -5.6913   -7.9706    8.8399 C   0  0  2  0  0  0  0  0  0  0  0  0
   -4.7692   -8.0086   10.0728 C   0  0  1  0  0  0  0  0  0  0  0  0
   -3.3458   -7.4876    9.8136 C   0  0  0  0  0  0  0  0  0  0  0  0
   -5.6191   -6.8196    5.8098 C   0  0  2  0  0  0  0  0  0  0  0  0
   -5.1588   -5.2586    7.4964 C   0  0  1  0  0  0  0  0  0  0  0  0
   -6.3465   -5.8449    6.6950 C   0  0  1  0  0  0  0  0  0  0  0  0
   -4.1059   -5.0417    6.4374 C   0  0  1  0  0  0  0  0  0  0  0  0
   -2.6476  -10.1832    6.3871 C   0  0  1  0  0  0  0  0  0  0  0  0
   -1.9595  -10.7406    5.1235 C   0  0  1  0  0  0  0  0  0  0  0  0
   -1.8210  -12.2631    5.3623 C   0  0  2  0  0  0  0  0  0  0  0  0
   -6.0425   -3.1825    8.0174 C   0  0  1  0  0  0  0  0  0  0  0  0
   -3.1601  -12.9098    5.7841 C   0  0  1  0  0  0  0  0  0  0  0  0
   -6.0828   -2.0424    9.0448 C   0  0  1  0  0  0  0  0  0  0  0  0
   -3.7539  -12.2158    7.0116 C   0  0  1  0  0  0  0  0  0  0  0  0
   -6.7519   -0.8887    8.2496 C   0  0  2  0  0  0  0  0  0  0  0  0
   -2.6736   -5.0132    7.0111 C   0  0  0  0  0  0  0  0  0  0  0  0
   -8.1070   -1.3134    7.6298 C   0  0  1  0  0  0  0  0  0  0  0  0
   -7.9010   -2.5381    6.7416 C   0  0  2  0  0  0  0  0  0  0  0  0
   -3.0002  -12.3998    8.3380 C   0  0  0  0  0  0  0  0  0  0  0  0
   -9.2024   -3.0222    6.0699 C   0  0  0  0  0  0  0  0  0  0  0  0
   -7.6251   -7.9220    9.1191 H   0  0  0  0  0  0  0  0  0  0  0  0
   -6.3122   -4.2871    5.5055 H   0  0  0  0  0  0  0  0  0  0  0  0
   -0.7936  -13.4212    6.5828 H   0  0  0  0  0  0  0  0  0  0  0  0
   -4.5526  -11.9299    4.8206 H   0  0  0  0  0  0  0  0  0  0  0  0
   -6.2927   -0.3674    6.3696 H   0  0  0  0  0  0  0  0  0  0  0  0
   -1.8980   -5.8599    5.4739 H   0  0  0  0  0  0  0  0  0  0  0  0
   -8.8883   -2.6471    8.8001 H   0  0  0  0  0  0  0  0  0  0  0  0
   -3.9232  -10.9013    9.1774 H   0  0  0  0  0  0  0  0  0  0  0  0
   -0.8579   -8.1329    7.6387 H   0  0  0  0  0  0  0  0  0  0  0  0
   -0.7206   -7.6745    9.2396 H   0  0  0  0  0  0  0  0  0  0  0  0
   -5.6929   -7.8053   11.8831 H   0  0  0  0  0  0  0  0  0  0  0  0
   -6.1784   -6.6921   10.8189 H   0  0  0  0  0  0  0  0  0  0  0  0
   -2.4288  -11.0539    3.1290 H   0  0  0  0  0  0  0  0  0  0  0  0
   -3.6443  -10.3500    3.9874 H   0  0  0  0  0  0  0  0  0  0  0  0
   -7.2155   -1.6469   10.7326 H   0  0  0  0  0  0  0  0  0  0  0  0
   -7.4804   -3.1329   10.0958 H   0  0  0  0  0  0  0  0  0  0  0  0
  -10.5372   -2.3883    4.6727 H   0  0  0  0  0  0  0  0  0  0  0  0
   -9.8178   -1.1661    5.4569 H   0  0  0  0  0  0  0  0  0  0  0  0
   -5.2265   -9.5884    7.6309 H   0  0  0  0  0  0  0  0  0  0  0  0
   -3.4853   -7.2408    7.1056 H   0  0  0  0  0  0  0  0  0  0  0  0
   -2.5113   -9.2980    9.0241 H   0  0  0  0  0  0  0  0  0  0  0  0
   -6.0244   -6.9557    8.7484 H   0  0  0  0  0  0  0  0  0  0  0  0
   -4.7068   -9.0430   10.4202 H   0  0  0  0  0  0  0  0  0  0  0  0
   -2.7466   -7.5756   10.7275 H   0  0  0  0  0  0  0  0  0  0  0  0
   -3.3539   -6.4098    9.5948 H   0  0  0  0  0  0  0  0  0  0  0  0
   -6.1319   -6.8811    4.8420 H   0  0  0  0  0  0  0  0  0  0  0  0
   -4.6895   -6.0150    8.0907 H   0  0  0  0  0  0  0  0  0  0  0  0
   -7.1515   -6.2779    7.3034 H   0  0  0  0  0  0  0  0  0  0  0  0
   -4.2464   -4.1143    5.8807 H   0  0  0  0  0  0  0  0  0  0  0  0
   -1.9524  -10.2868    7.2183 H   0  0  0  0  0  0  0  0  0  0  0  0
   -0.9680  -10.2741    5.0696 H   0  0  0  0  0  0  0  0  0  0  0  0
   -1.4405  -12.7315    4.4507 H   0  0  0  0  0  0  0  0  0  0  0  0
   -5.4638   -2.8549    7.1480 H   0  0  0  0  0  0  0  0  0  0  0  0
   -3.0283  -13.9734    5.9939 H   0  0  0  0  0  0  0  0  0  0  0  0
   -5.0534   -1.7803    9.3156 H   0  0  0  0  0  0  0  0  0  0  0  0
   -4.7885  -12.5516    7.1600 H   0  0  0  0  0  0  0  0  0  0  0  0
   -6.8955   -0.0298    8.9068 H   0  0  0  0  0  0  0  0  0  0  0  0
   -2.4943   -4.1820    7.6981 H   0  0  0  0  0  0  0  0  0  0  0  0
   -2.4361   -5.8712    7.6142 H   0  0  0  0  0  0  0  0  0  0  0  0
   -8.5314   -0.4883    7.0570 H   0  0  0  0  0  0  0  0  0  0  0  0
   -7.1639   -2.3590    5.9449 H   0  0  0  0  0  0  0  0  0  0  0  0
   -2.8601  -13.4597    8.5536 H   0  0  0  0  0  0  0  0  0  0  0  0
   -2.0218  -11.9203    8.3602 H   0  0  0  0  0  0  0  0  0  0  0  0
   -9.0771   -4.0047    5.6032 H   0  0  0  0  0  0  0  0  0  0  0  0
   -9.9918   -3.1625    6.8144 H   0  0  0  0  0  0  0  0  0  0  0  0
  3 26  1  0  0  0  0
  3 29  1  0  0  0  0
  5 43  1  0  0  0  0
  6 30  1  0  0  0  0
  6 36  1  0  0  0  0
  7 33  1  0  0  0  0
  7 40  1  0  0  0  0
  8 44  1  0  0  0  0
  9 45  1  0  0  0  0
 10 46  1  0  0  0  0
 11 47  1  0  0  0  0
 12 38  1  0  0  0  0
 12 48  1  0  0  0  0
 13 49  1  0  0  0  0
 14 41  1  0  0  0  0
 14 50  1  0  0  0  0
 15 51  1  0  0  0  0
 15 52  1  0  0  0  0
 16 53  1  0  0  0  0
 16 54  1  0  0  0  0
 17 55  1  0  0  0  0
 17 56  1  0  0  0  0
 18 57  1  0  0  0  0
 18 58  1  0  0  0  0
 19 42  1  0  0  0  0
 19 59  1  0  0  0  0
 19 60  1  0  0  0  0
 20 21  1  0  0  0  0
 20 23  1  0  0  0  0
 20 61  1  1  0  0  0
 20  1  1  0  0  0  0
 21  2  1  0  0  0  0
 21 22  1  0  0  0  0
 21 62  1  6  0  0  0
 22 25  1  0  0  0  0
 22 63  1  1  0  0  0
 22 15  1  0  0  0  0
 23 24  1  0  0  0  0
 23 64  1  6  0  0  0
 23  5  1  0  0  0  0
 24 25  1  0  0  0  0
 24 65  1  1  0  0  0
 24 16  1  0  0  0  0
 25 66  1  0  0  0  0
 25 67  1  0  0  0  0
 26 28  1  0  0  0  0
 26 68  1  6  0  0  0
 26  1  1  0  0  0  0
 27  4  1  0  0  0  0
 27 28  1  0  0  0  0
 27 29  1  0  0  0  0
 27 69  1  1  0  0  0
 28  8  1  0  0  0  0
 28 70  1  1  0  0  0
 29 38  1  0  0  0  0
 29 71  1  6  0  0  0
 30 31  1  0  0  0  0
 30 72  1  1  0  0  0
 30  2  1  0  0  0  0
 31 17  1  0  0  0  0
 31 32  1  0  0  0  0
 31 73  1  6  0  0  0
 32 34  1  0  0  0  0
 32 74  1  6  0  0  0
 32  9  1  0  0  0  0
 33 35  1  0  0  0  0
 33 75  1  6  0  0  0
 33  4  1  0  0  0  0
 34 10  1  0  0  0  0
 34 36  1  0  0  0  0
 34 76  1  1  0  0  0
 35 18  1  0  0  0  0
 35 37  1  0  0  0  0
 35 77  1  1  0  0  0
 36 41  1  0  0  0  0
 36 78  1  1  0  0  0
 37 39  1  0  0  0  0
 37 79  1  1  0  0  0
 37 11  1  0  0  0  0
 38 80  1  0  0  0  0
 38 81  1  0  0  0  0
 39 13  1  0  0  0  0
 39 40  1  0  0  0  0
 39 82  1  6  0  0  0
 40 83  1  6  0  0  0
 40 42  1  0  0  0  0
 41 84  1  0  0  0  0
 41 85  1  0  0  0  0
 42 86  1  0  0  0  0
 42 87  1  0  0  0  0
M  END
>  <DRUGBANK_ID>
DB01421

>  <COMMON_NAME>
Paromomycin

>  <CAS_NUMBER>
7542-37-2

>  <UNII>
61JJC8N5ZK

>  <SYNONYMS>
(1R,2R,3S,4R,6S)-4,6-diamino-2-{[3-O-(2,6-diamino-2,6-dideoxy-beta-L-idopyranosyl)-beta-D-ribofuranosyl]oxy}-3-hydroxycyclohexyl 2-amino-2-deoxy-alpha-D-glucopyranoside; Aminosidin; Aminosidine; Catenulin; Crestomycin; Estomycin; Hydroxymycin; Monomycin A; Neomycin E; Paromomicina; Paromomycin; Paromomycin I; Paromomycine; Paromomycinum; Paucimycin; Paucimycinum; Zygomycin A1

$$$$
