
 OpenBabel10282417203D

 57 60  0  0  1  0  0  0  0  0999 V2000
    3.6823   -1.3524   -0.2936 C   0  0  0  0  0  0  0  0  0  0  0  0
    4.1707    0.0577   -0.6128 C   0  0  1  0  0  0  0  0  0  0  0  0
    3.3790    1.1150    0.1566 C   0  0  0  0  0  0  0  0  0  0  0  0
    1.8791    0.9704   -0.1262 C   0  0  1  0  0  0  0  0  0  0  0  0
    1.3283   -0.4415    0.2508 C   0  0  2  0  0  0  0  0  0  0  0  0
    2.1758   -1.4900   -0.5272 C   0  0  0  0  0  0  0  0  0  0  0  0
    1.0713    2.0986    0.5173 C   0  0  0  0  0  0  0  0  0  0  0  0
   -0.3810    2.0371    0.0591 C   0  0  0  0  0  0  0  0  0  0  0  0
   -1.0295    0.6754    0.3340 C   0  0  2  0  0  0  0  0  0  0  0  0
   -0.1685   -0.5075   -0.2103 C   0  0  2  0  0  0  0  0  0  0  0  0
   -2.4006    0.5761   -0.3447 C   0  0  1  0  0  0  0  0  0  0  0  0
   -3.1620   -0.7291   -0.0113 C   0  0  2  0  0  0  0  0  0  0  0  0
   -2.3057   -1.9144   -0.4897 C   0  0  0  0  0  0  0  0  0  0  0  0
   -0.8736   -1.8570    0.0784 C   0  0  0  0  0  0  0  0  0  0  0  0
   -3.4342    1.6709   -0.1200 C   0  0  0  0  0  0  0  0  0  0  0  0
   -4.7419    1.0328   -0.6132 C   0  0  0  0  0  0  0  0  0  0  0  0
   -4.4486   -0.4700   -0.8341 C   0  0  2  0  0  0  0  0  0  0  0  0
   -5.6974   -1.2830   -0.5124 C   0  0  0  0  0  0  0  0  0  0  0  0
   -6.1380   -1.4219    0.6304 O   0  0  0  0  0  0  0  0  0  0  0  0
   -6.4522   -1.8510   -1.6809 C   0  0  0  0  0  0  0  0  0  0  0  0
   -3.4710   -0.8904    1.4953 C   0  0  0  0  0  0  0  0  0  0  0  0
   -1.1429    0.5777    1.4203 H   0  0  0  0  0  0  0  0  0  0  0  0
    1.7617    1.0881   -1.2157 H   0  0  0  0  0  0  0  0  0  0  0  0
   -2.2001    0.5875   -1.4301 H   0  0  0  0  0  0  0  0  0  0  0  0
    1.4416   -0.7281    1.7670 C   0  0  0  0  0  0  0  0  0  0  0  0
    5.5580    0.1760   -0.3226 O   0  0  0  0  0  0  0  0  0  0  0  0
   -0.1495   -0.4049   -1.3069 H   0  0  0  0  0  0  0  0  0  0  0  0
    4.2199   -2.0769   -0.9171 H   0  0  0  0  0  0  0  0  0  0  0  0
    3.9387   -1.6182    0.7390 H   0  0  0  0  0  0  0  0  0  0  0  0
    4.0567    0.2368   -1.6885 H   0  0  0  0  0  0  0  0  0  0  0  0
    3.5877    1.0450    1.2306 H   0  0  0  0  0  0  0  0  0  0  0  0
    3.7284    2.1111   -0.1423 H   0  0  0  0  0  0  0  0  0  0  0  0
    1.9869   -1.3764   -1.6037 H   0  0  0  0  0  0  0  0  0  0  0  0
    1.8751   -2.5093   -0.2637 H   0  0  0  0  0  0  0  0  0  0  0  0
    1.1254    2.0484    1.6100 H   0  0  0  0  0  0  0  0  0  0  0  0
    1.4899    3.0702    0.2295 H   0  0  0  0  0  0  0  0  0  0  0  0
   -0.9468    2.8293    0.5631 H   0  0  0  0  0  0  0  0  0  0  0  0
   -0.4238    2.2540   -1.0161 H   0  0  0  0  0  0  0  0  0  0  0  0
   -2.2369   -1.9161   -1.5849 H   0  0  0  0  0  0  0  0  0  0  0  0
   -2.7702   -2.8651   -0.2035 H   0  0  0  0  0  0  0  0  0  0  0  0
   -0.3047   -2.6851   -0.3547 H   0  0  0  0  0  0  0  0  0  0  0  0
   -0.9094   -2.0382    1.1574 H   0  0  0  0  0  0  0  0  0  0  0  0
   -3.5119    1.9500    0.9362 H   0  0  0  0  0  0  0  0  0  0  0  0
   -3.2010    2.5785   -0.6856 H   0  0  0  0  0  0  0  0  0  0  0  0
   -5.5397    1.1941    0.1201 H   0  0  0  0  0  0  0  0  0  0  0  0
   -5.0700    1.4931   -1.5520 H   0  0  0  0  0  0  0  0  0  0  0  0
   -4.2200   -0.6260   -1.8992 H   0  0  0  0  0  0  0  0  0  0  0  0
   -6.6102   -1.0650   -2.4233 H   0  0  0  0  0  0  0  0  0  0  0  0
   -5.8948   -2.6838   -2.1142 H   0  0  0  0  0  0  0  0  0  0  0  0
   -7.4289   -2.2053   -1.3391 H   0  0  0  0  0  0  0  0  0  0  0  0
   -4.0156   -0.0329    1.9016 H   0  0  0  0  0  0  0  0  0  0  0  0
   -4.0780   -1.7835    1.6735 H   0  0  0  0  0  0  0  0  0  0  0  0
   -2.5744   -1.0188    2.1047 H   0  0  0  0  0  0  0  0  0  0  0  0
    0.8571   -0.0267    2.3680 H   0  0  0  0  0  0  0  0  0  0  0  0
    1.0883   -1.7358    2.0074 H   0  0  0  0  0  0  0  0  0  0  0  0
    2.4721   -0.6724    2.1271 H   0  0  0  0  0  0  0  0  0  0  0  0
    5.6827    0.0467    0.6324 H   0  0  0  0  0  0  0  0  0  0  0  0
  1  2  1  0  0  0  0
  1 28  1  0  0  0  0
  1 29  1  0  0  0  0
  2  3  1  0  0  0  0
  2 26  1  0  0  0  0
  2 30  1  6  0  0  0
  3  4  1  0  0  0  0
  3 31  1  0  0  0  0
  3 32  1  0  0  0  0
  4  5  1  0  0  0  0
  4  7  1  0  0  0  0
  4 23  1  6  0  0  0
  5  6  1  0  0  0  0
  5 25  1  1  0  0  0
  6  1  1  0  0  0  0
  6 33  1  0  0  0  0
  6 34  1  0  0  0  0
  7  8  1  0  0  0  0
  7 35  1  0  0  0  0
  7 36  1  0  0  0  0
  8  9  1  0  0  0  0
  8 37  1  0  0  0  0
  8 38  1  0  0  0  0
  9 10  1  0  0  0  0
  9 11  1  0  0  0  0
  9 22  1  1  0  0  0
 10  5  1  0  0  0  0
 10 27  1  6  0  0  0
 11 12  1  0  0  0  0
 11 15  1  0  0  0  0
 11 24  1  6  0  0  0
 12 13  1  0  0  0  0
 12 21  1  1  0  0  0
 13 14  1  0  0  0  0
 13 39  1  0  0  0  0
 13 40  1  0  0  0  0
 14 10  1  0  0  0  0
 14 41  1  0  0  0  0
 14 42  1  0  0  0  0
 15 16  1  0  0  0  0
 15 43  1  0  0  0  0
 15 44  1  0  0  0  0
 16 17  1  0  0  0  0
 16 45  1  0  0  0  0
 16 46  1  0  0  0  0
 17 12  1  0  0  0  0
 17 47  1  6  0  0  0
 17 18  1  0  0  0  0
 18 19  2  0  0  0  0
 18 20  1  0  0  0  0
 20 48  1  0  0  0  0
 20 49  1  0  0  0  0
 20 50  1  0  0  0  0
 21 51  1  0  0  0  0
 21 52  1  0  0  0  0
 21 53  1  0  0  0  0
 25 54  1  0  0  0  0
 25 55  1  0  0  0  0
 25 56  1  0  0  0  0
 26 57  1  0  0  0  0
M  END
>  <DRUGBANK_ID>
DB12972

>  <COMMON_NAME>
Sepranolone

>  <CAS_NUMBER>
516-55-2

>  <UNII>
3P8Z6V53MU

>  <SYNONYMS>
Sepranolone

$$$$
