
 OpenBabel10282417123D

126132  0  0  1  0  0  0  0  0999 V2000
   -0.6527   -1.8598    0.1030 C   0  0  0  0  0  0  0  0  0  0  0  0
   -1.3785    2.2490    1.3247 C   0  0  0  0  0  0  0  0  0  0  0  0
    1.0648   -2.1671   -4.2493 C   0  0  0  0  0  0  0  0  0  0  0  0
   -0.7989    6.8147   -0.4933 C   0  0  0  0  0  0  0  0  0  0  0  0
    1.3797    1.8287   -6.1919 C   0  0  0  0  0  0  0  0  0  0  0  0
    0.4702    6.3487   -5.0753 C   0  0  0  0  0  0  0  0  0  0  0  0
    0.4693   -1.1240    0.8438 C   0  0  2  0  0  0  0  0  0  0  0  0
   -0.0840    3.0458    1.5324 C   0  0  2  0  0  0  0  0  0  0  0  0
    1.9449   -2.0577   -2.9990 C   0  0  2  0  0  0  0  0  0  0  0  0
    0.6598    6.6528   -0.9497 C   0  0  2  0  0  0  0  0  0  0  0  0
    2.6394    1.3106   -5.4833 C   0  0  2  0  0  0  0  0  0  0  0  0
    1.8127    5.6126   -4.9371 C   0  0  2  0  0  0  0  0  0  0  0  0
    2.7594   -1.3407    1.9263 C   0  0  2  0  0  0  0  0  0  0  0  0
    4.3814   -2.3964   -2.2545 C   0  0  2  0  0  0  0  0  0  0  0  0
    1.9756    3.2875    2.9779 C   0  0  2  0  0  0  0  0  0  0  0  0
    5.0885    1.6692   -5.1018 C   0  0  2  0  0  0  0  0  0  0  0  0
    3.0687    6.7256   -0.0971 C   0  0  2  0  0  0  0  0  0  0  0  0
    4.2950    6.1484   -4.5266 C   0  0  2  0  0  0  0  0  0  0  0  0
    2.1084   -0.8646    3.2306 C   0  0  2  0  0  0  0  0  0  0  0  0
    3.8572   -3.5704   -1.4115 C   0  0  2  0  0  0  0  0  0  0  0  0
    1.5425    4.7342    3.2505 C   0  0  2  0  0  0  0  0  0  0  0  0
    5.3151    0.2061   -5.5110 C   0  0  2  0  0  0  0  0  0  0  0  0
    3.2774    7.9204   -1.0374 C   0  0  2  0  0  0  0  0  0  0  0  0
    4.5349    5.6571   -5.9569 C   0  0  2  0  0  0  0  0  0  0  0  0
    1.7430   -1.9787    0.9609 C   0  0  2  0  0  0  0  0  0  0  0  0
    0.7697    2.3981    2.6319 C   0  0  2  0  0  0  0  0  0  0  0  0
    3.4284   -2.0480   -3.4140 C   0  0  2  0  0  0  0  0  0  0  0  0
    1.5862    6.5671    0.2780 C   0  0  2  0  0  0  0  0  0  0  0  0
    3.8322    2.2236   -5.7910 C   0  0  2  0  0  0  0  0  0  0  0  0
    2.8345    6.5677   -4.2960 C   0  0  2  0  0  0  0  0  0  0  0  0
    0.8762   -0.0049    2.9070 C   0  0  2  0  0  0  0  0  0  0  0  0
    2.4087   -3.2641   -0.9923 C   0  0  2  0  0  0  0  0  0  0  0  0
    0.6760    5.2424    2.0869 C   0  0  2  0  0  0  0  0  0  0  0  0
    4.0364   -0.6248   -5.2797 C   0  0  2  0  0  0  0  0  0  0  0  0
    2.3338    7.7717   -2.2433 C   0  0  2  0  0  0  0  0  0  0  0  0
    3.4967    4.5708   -6.2693 C   0  0  2  0  0  0  0  0  0  0  0  0
   -0.9511   -3.0940    0.7562 O   0  0  0  0  0  0  0  0  0  0  0  0
   -2.1681    2.8167    0.2860 O   0  0  0  0  0  0  0  0  0  0  0  0
   -0.3170   -2.1631   -3.9142 O   0  0  0  0  0  0  0  0  0  0  0  0
   -1.6880    6.8851   -1.6004 O   0  0  0  0  0  0  0  0  0  0  0  0
    0.2481    1.0236   -5.8990 O   0  0  0  0  0  0  0  0  0  0  0  0
   -0.5259    5.5034   -5.6350 O   0  0  0  0  0  0  0  0  0  0  0  0
    3.8113   -2.2977    2.1680 O   0  0  0  0  0  0  0  0  0  0  0  0
    5.6809   -2.6769   -2.8088 O   0  0  0  0  0  0  0  0  0  0  0  0
    2.6534    2.7116    4.1084 O   0  0  0  0  0  0  0  0  0  0  0  0
    6.2067    2.5052   -5.4562 O   0  0  0  0  0  0  0  0  0  0  0  0
    3.8250    6.8571    1.1239 O   0  0  0  0  0  0  0  0  0  0  0  0
    5.1389    7.2638   -4.1919 O   0  0  0  0  0  0  0  0  0  0  0  0
    3.0438   -0.1281    4.0263 O   0  0  0  0  0  0  0  0  0  0  0  0
    4.6874   -3.7927   -0.2652 O   0  0  0  0  0  0  0  0  0  0  0  0
    2.6771    5.5844    3.4529 O   0  0  0  0  0  0  0  0  0  0  0  0
    6.4327   -0.3513   -4.8137 O   0  0  0  0  0  0  0  0  0  0  0  0
    4.6448    8.0077   -1.4462 O   0  0  0  0  0  0  0  0  0  0  0  0
    5.8682    5.1645   -6.1163 O   0  0  0  0  0  0  0  0  0  0  0  0
   -0.0544   -0.7676    2.1399 O   0  0  0  0  0  0  0  0  0  0  0  0
    1.6008   -3.1817   -2.1664 O   0  0  0  0  0  0  0  0  0  0  0  0
   -0.4557    4.3899    1.8948 O   0  0  0  0  0  0  0  0  0  0  0  0
    2.9130   -0.0303   -5.9392 O   0  0  0  0  0  0  0  0  0  0  0  0
    0.9739    7.7811   -1.7959 O   0  0  0  0  0  0  0  0  0  0  0  0
    2.1945    5.1624   -6.2501 O   0  0  0  0  0  0  0  0  0  0  0  0
    2.4035   -2.0177   -0.3060 O   0  0  0  0  0  0  0  0  0  0  0  0
    1.2932    1.1477    2.1756 O   0  0  0  0  0  0  0  0  0  0  0  0
    3.8041   -0.7375   -3.8766 O   0  0  0  0  0  0  0  0  0  0  0  0
    1.4645    5.2825    0.9016 O   0  0  0  0  0  0  0  0  0  0  0  0
    3.5910    3.5367   -5.2877 O   0  0  0  0  0  0  0  0  0  0  0  0
    2.6242    6.5351   -2.8819 O   0  0  0  0  0  0  0  0  0  0  0  0
    0.6817   -0.2123    0.2705 H   0  0  0  0  0  0  0  0  0  0  0  0
    0.4521    3.0663    0.5742 H   0  0  0  0  0  0  0  0  0  0  0  0
    1.6744   -1.1330   -2.4725 H   0  0  0  0  0  0  0  0  0  0  0  0
    0.7200    5.7363   -1.5514 H   0  0  0  0  0  0  0  0  0  0  0  0
    2.4263    1.2859   -4.4060 H   0  0  0  0  0  0  0  0  0  0  0  0
    1.6472    4.7304   -4.3043 H   0  0  0  0  0  0  0  0  0  0  0  0
    3.2630   -0.4970    1.4383 H   0  0  0  0  0  0  0  0  0  0  0  0
    4.5430   -1.5194   -1.6158 H   0  0  0  0  0  0  0  0  0  0  0  0
    2.7130    3.2589    2.1659 H   0  0  0  0  0  0  0  0  0  0  0  0
    5.0006    1.7545   -4.0115 H   0  0  0  0  0  0  0  0  0  0  0  0
    3.4479    5.8060   -0.5599 H   0  0  0  0  0  0  0  0  0  0  0  0
    4.5830    5.3677   -3.8117 H   0  0  0  0  0  0  0  0  0  0  0  0
    1.8073   -1.7343    3.8252 H   0  0  0  0  0  0  0  0  0  0  0  0
    3.8897   -4.4906   -2.0067 H   0  0  0  0  0  0  0  0  0  0  0  0
    0.9590    4.7637    4.1781 H   0  0  0  0  0  0  0  0  0  0  0  0
    5.5702    0.1759   -6.5767 H   0  0  0  0  0  0  0  0  0  0  0  0
    3.0539    8.8505   -0.5029 H   0  0  0  0  0  0  0  0  0  0  0  0
    4.4229    6.4924   -6.6579 H   0  0  0  0  0  0  0  0  0  0  0  0
    1.5132   -2.9854    1.3328 H   0  0  0  0  0  0  0  0  0  0  0  0
    0.1658    2.2785    3.5413 H   0  0  0  0  0  0  0  0  0  0  0  0
    3.5881   -2.8031   -4.1949 H   0  0  0  0  0  0  0  0  0  0  0  0
    1.3507    7.3742    0.9852 H   0  0  0  0  0  0  0  0  0  0  0  0
    4.0248    2.2344   -6.8720 H   0  0  0  0  0  0  0  0  0  0  0  0
    2.7001    7.5792   -4.7015 H   0  0  0  0  0  0  0  0  0  0  0  0
    0.3884    0.2757    3.8470 H   0  0  0  0  0  0  0  0  0  0  0  0
    2.0275   -4.0779   -0.3657 H   0  0  0  0  0  0  0  0  0  0  0  0
    0.2931    6.2371    2.3398 H   0  0  0  0  0  0  0  0  0  0  0  0
    4.1953   -1.6135   -5.7237 H   0  0  0  0  0  0  0  0  0  0  0  0
    2.4757    8.6196   -2.9223 H   0  0  0  0  0  0  0  0  0  0  0  0
    3.6679    4.1862   -7.2803 H   0  0  0  0  0  0  0  0  0  0  0  0
   -0.3829   -2.0722   -0.9327 H   0  0  0  0  0  0  0  0  0  0  0  0
   -1.5690   -1.2600    0.0997 H   0  0  0  0  0  0  0  0  0  0  0  0
   -1.1688    1.2191    1.0367 H   0  0  0  0  0  0  0  0  0  0  0  0
   -1.9840    2.2411    2.2366 H   0  0  0  0  0  0  0  0  0  0  0  0
    1.2371   -1.3343   -4.9220 H   0  0  0  0  0  0  0  0  0  0  0  0
    1.2702   -3.0955   -4.7923 H   0  0  0  0  0  0  0  0  0  0  0  0
   -1.1219    5.9735    0.1205 H   0  0  0  0  0  0  0  0  0  0  0  0
   -0.9230    7.7351    0.0865 H   0  0  0  0  0  0  0  0  0  0  0  0
    1.1333    2.8405   -5.8633 H   0  0  0  0  0  0  0  0  0  0  0  0
    1.5147    1.8370   -7.2779 H   0  0  0  0  0  0  0  0  0  0  0  0
    0.1078    6.7018   -4.1066 H   0  0  0  0  0  0  0  0  0  0  0  0
    0.5736    7.2120   -5.7415 H   0  0  0  0  0  0  0  0  0  0  0  0
   -1.2451   -2.8506    1.6547 H   0  0  0  0  0  0  0  0  0  0  0  0
   -2.2908    3.7590    0.5089 H   0  0  0  0  0  0  0  0  0  0  0  0
   -0.4389   -2.8789   -3.2621 H   0  0  0  0  0  0  0  0  0  0  0  0
   -1.3381    7.5770   -2.1934 H   0  0  0  0  0  0  0  0  0  0  0  0
    0.4665    0.1116   -6.1745 H   0  0  0  0  0  0  0  0  0  0  0  0
   -0.1390    5.1176   -6.4439 H   0  0  0  0  0  0  0  0  0  0  0  0
    3.4436   -3.0279    2.7002 H   0  0  0  0  0  0  0  0  0  0  0  0
    5.6225   -3.4902   -3.3442 H   0  0  0  0  0  0  0  0  0  0  0  0
    2.1309    2.8950    4.9127 H   0  0  0  0  0  0  0  0  0  0  0  0
    6.5077    2.2531   -6.3504 H   0  0  0  0  0  0  0  0  0  0  0  0
    3.7224    7.7713    1.4512 H   0  0  0  0  0  0  0  0  0  0  0  0
    5.1017    7.9107   -4.9214 H   0  0  0  0  0  0  0  0  0  0  0  0
    3.1808    0.7469    3.6009 H   0  0  0  0  0  0  0  0  0  0  0  0
    4.6329   -2.9966    0.3064 H   0  0  0  0  0  0  0  0  0  0  0  0
    3.2106    5.5755    2.6269 H   0  0  0  0  0  0  0  0  0  0  0  0
    6.1734   -0.4651   -3.8754 H   0  0  0  0  0  0  0  0  0  0  0  0
    4.8196    7.2933   -2.0952 H   0  0  0  0  0  0  0  0  0  0  0  0
    5.9926    4.4185   -5.4869 H   0  0  0  0  0  0  0  0  0  0  0  0
  1 97  1  0  0  0  0
  1 98  1  0  0  0  0
  2 99  1  0  0  0  0
  2100  1  0  0  0  0
  3101  1  0  0  0  0
  3102  1  0  0  0  0
  4103  1  0  0  0  0
  4104  1  0  0  0  0
  5105  1  0  0  0  0
  5106  1  0  0  0  0
  6107  1  0  0  0  0
  6108  1  0  0  0  0
  7 67  1  6  0  0  0
  7  1  1  0  0  0  0
  8  2  1  0  0  0  0
  8 68  1  6  0  0  0
  9  3  1  0  0  0  0
  9 69  1  1  0  0  0
 10  4  1  0  0  0  0
 10 70  1  6  0  0  0
 11  5  1  0  0  0  0
 11 71  1  1  0  0  0
 12  6  1  0  0  0  0
 12 72  1  1  0  0  0
 13 43  1  0  0  0  0
 13 73  1  6  0  0  0
 14 44  1  0  0  0  0
 14 74  1  1  0  0  0
 15 45  1  0  0  0  0
 15 75  1  6  0  0  0
 16 46  1  0  0  0  0
 16 76  1  1  0  0  0
 17 47  1  0  0  0  0
 17 77  1  6  0  0  0
 18 48  1  0  0  0  0
 18 78  1  1  0  0  0
 19 13  1  0  0  0  0
 19 49  1  0  0  0  0
 19 79  1  1  0  0  0
 20 14  1  0  0  0  0
 20 50  1  0  0  0  0
 20 80  1  6  0  0  0
 21 15  1  0  0  0  0
 21 51  1  0  0  0  0
 21 81  1  1  0  0  0
 22 16  1  0  0  0  0
 22 52  1  0  0  0  0
 22 82  1  6  0  0  0
 23 17  1  0  0  0  0
 23 53  1  0  0  0  0
 23 83  1  1  0  0  0
 24 18  1  0  0  0  0
 24 54  1  0  0  0  0
 24 84  1  6  0  0  0
 25  7  1  0  0  0  0
 25 13  1  0  0  0  0
 25 85  1  1  0  0  0
 26  8  1  0  0  0  0
 26 15  1  0  0  0  0
 26 86  1  1  0  0  0
 27  9  1  0  0  0  0
 27 14  1  0  0  0  0
 27 87  1  6  0  0  0
 28 10  1  0  0  0  0
 28 17  1  0  0  0  0
 28 88  1  1  0  0  0
 29 11  1  0  0  0  0
 29 16  1  0  0  0  0
 29 89  1  6  0  0  0
 30 12  1  0  0  0  0
 30 18  1  0  0  0  0
 30 90  1  6  0  0  0
 31 19  1  0  0  0  0
 31 91  1  1  0  0  0
 32 20  1  0  0  0  0
 32 92  1  1  0  0  0
 33 21  1  0  0  0  0
 33 93  1  1  0  0  0
 34 22  1  0  0  0  0
 34 94  1  6  0  0  0
 35 23  1  0  0  0  0
 35 95  1  6  0  0  0
 36 24  1  0  0  0  0
 36 96  1  6  0  0  0
 37  1  1  0  0  0  0
 37109  1  0  0  0  0
 38  2  1  0  0  0  0
 38110  1  0  0  0  0
 39  3  1  0  0  0  0
 39111  1  0  0  0  0
 40  4  1  0  0  0  0
 40112  1  0  0  0  0
 41  5  1  0  0  0  0
 41113  1  0  0  0  0
 42  6  1  0  0  0  0
 42114  1  0  0  0  0
 43115  1  0  0  0  0
 44116  1  0  0  0  0
 45117  1  0  0  0  0
 46118  1  0  0  0  0
 47119  1  0  0  0  0
 48120  1  0  0  0  0
 49121  1  0  0  0  0
 50122  1  0  0  0  0
 51123  1  0  0  0  0
 52124  1  0  0  0  0
 53125  1  0  0  0  0
 54126  1  0  0  0  0
 55  7  1  0  0  0  0
 55 31  1  0  0  0  0
 56  9  1  0  0  0  0
 56 32  1  0  0  0  0
 57  8  1  0  0  0  0
 57 33  1  0  0  0  0
 58 11  1  0  0  0  0
 58 34  1  0  0  0  0
 59 10  1  0  0  0  0
 59 35  1  0  0  0  0
 60 12  1  0  0  0  0
 60 36  1  0  0  0  0
 61 25  1  0  0  0  0
 61 32  1  0  0  0  0
 62 26  1  0  0  0  0
 62 31  1  0  0  0  0
 63 27  1  0  0  0  0
 63 34  1  0  0  0  0
 64 28  1  0  0  0  0
 64 33  1  0  0  0  0
 65 29  1  0  0  0  0
 65 36  1  0  0  0  0
 66 30  1  0  0  0  0
 66 35  1  0  0  0  0
M  END
>  <DRUGBANK_ID>
DB01909

>  <SECONDARY_ACCESSION_NUMBERS>
EXPT00422

>  <COMMON_NAME>
Alpha-Cyclodextrin (Cyclohexa-Amylose)

>  <CAS_NUMBER>
10016-20-3

>  <UNII>
Z1LH97KTRM

$$$$
