
 OpenBabel10282417143D

 29 28  0  0  1  0  0  0  0  0999 V2000
   -3.3213    5.4541    0.5949 O   0  0  0  0  0  0  0  0  0  0  0  0
   -3.4883    5.9378   -0.7240 C   0  0  0  0  0  0  0  0  0  0  0  0
   -2.8226    5.1014   -1.8139 C   0  0  0  0  0  0  0  0  0  0  0  0
   -3.4707    4.5309   -2.6754 O   0  0  0  0  0  0  0  0  0  0  0  0
   -1.3159    5.0212   -1.7786 C   0  0  1  0  0  0  0  0  0  0  0  0
   -0.7880    6.3451   -1.9282 O   0  0  0  0  0  0  0  0  0  0  0  0
   -0.8384    4.4621   -0.4444 C   0  0  1  0  0  0  0  0  0  0  0  0
   -1.3456    3.1488   -0.1197 O   0  0  0  0  0  0  0  0  0  0  0  0
    0.6865    4.4703   -0.5478 C   0  0  2  0  0  0  0  0  0  0  0  0
    0.9996    3.4280   -1.4918 O   0  0  0  0  0  0  0  0  0  0  0  0
    1.2525    4.6332    0.9089 C   0  0  0  0  0  0  0  0  0  0  0  0
    2.6567    4.4094    1.0337 O   0  0  0  0  0  0  0  0  0  0  0  0
    3.0747    2.7593    0.7247 P   0  0  0  0  0  0  0  0  0  0  0  0
    1.5449    2.3447    0.4133 O   0  0  0  0  0  0  0  0  0  0  0  0
    3.6038    3.3567   -0.6888 O   0  0  0  0  0  0  0  0  0  0  0  0
    3.4487    1.2825    0.4482 O   0  0  0  0  0  0  0  0  0  0  0  0
   -3.6597    4.5433    0.6358 H   0  0  0  0  0  0  0  0  0  0  0  0
   -4.5564    5.9793   -0.9370 H   0  0  0  0  0  0  0  0  0  0  0  0
   -3.0846    6.9532   -0.7772 H   0  0  0  0  0  0  0  0  0  0  0  0
   -0.9766    4.3917   -2.6119 H   0  0  0  0  0  0  0  0  0  0  0  0
   -0.8451    6.5757   -2.8704 H   0  0  0  0  0  0  0  0  0  0  0  0
   -1.1096    5.1077    0.3907 H   0  0  0  0  0  0  0  0  0  0  0  0
   -2.2715    3.0640   -0.4056 H   0  0  0  0  0  0  0  0  0  0  0  0
    1.1038    5.3301   -1.0640 H   0  0  0  0  0  0  0  0  0  0  0  0
    1.5549    2.7577   -1.0453 H   0  0  0  0  0  0  0  0  0  0  0  0
    1.0587    5.6623    1.2299 H   0  0  0  0  0  0  0  0  0  0  0  0
    0.7382    4.0176    1.6642 H   0  0  0  0  0  0  0  0  0  0  0  0
    1.0218    1.9252    1.1188 H   0  0  0  0  0  0  0  0  0  0  0  0
    4.2659    4.0471   -0.4851 H   0  0  0  0  0  0  0  0  0  0  0  0
  1  2  1  0  0  0  0
  1 17  1  0  0  0  0
  2  3  1  0  0  0  0
  2 18  1  0  0  0  0
  2 19  1  0  0  0  0
  3  4  2  0  0  0  0
  3  5  1  0  0  0  0
  5  6  1  0  0  0  0
  5  7  1  0  0  0  0
  5 20  1  6  0  0  0
  6 21  1  0  0  0  0
  7  8  1  0  0  0  0
  7 22  1  1  0  0  0
  8 23  1  0  0  0  0
  9 11  1  0  0  0  0
  9 24  1  6  0  0  0
  9 10  1  0  0  0  0
  9  7  1  0  0  0  0
 10 25  1  0  0  0  0
 11 12  1  0  0  0  0
 11 26  1  0  0  0  0
 11 27  1  0  0  0  0
 12 13  1  0  0  0  0
 13 14  1  0  0  0  0
 13 15  1  0  0  0  0
 13 16  2  0  0  0  0
 14 28  1  0  0  0  0
 15 29  1  0  0  0  0
M  END
>  <DRUGBANK_ID>
DB04277

>  <SECONDARY_ACCESSION_NUMBERS>
EXPT01384

>  <COMMON_NAME>
Fructose -6-Phosphate

$$$$
