
 OpenBabel10282417163D

 45 46  0  0  0  0  0  0  0  0999 V2000
   -0.4765    1.6140    0.5420 S   0  0  0  0  0  0  0  0  0  0  0  0
   -0.7558   -2.1904    0.3811 O   0  0  0  0  0  0  0  0  0  0  0  0
    2.1685    1.3763    0.1264 N   0  0  0  0  0  0  0  0  0  0  0  0
    0.8360   -0.5686    0.5926 N   0  0  0  0  0  0  0  0  0  0  0  0
    3.4590    0.7958   -0.3296 C   0  0  0  0  0  0  0  0  0  0  0  0
    3.3929    0.0353   -1.6875 C   0  0  0  0  0  0  0  0  0  0  0  0
    4.0232    0.0323    0.8635 C   0  0  0  0  0  0  0  0  0  0  0  0
    2.5943   -1.2567   -1.6287 C   0  0  0  0  0  0  0  0  0  0  0  0
    5.3370   -0.7049    0.6757 C   0  0  0  0  0  0  0  0  0  0  0  0
    3.2125   -2.6245   -1.4780 C   0  0  0  0  0  0  0  0  0  0  0  0
    5.3774   -1.9011   -0.2810 C   0  0  0  0  0  0  0  0  0  0  0  0
    4.1506   -2.8061   -0.2835 C   0  0  0  0  0  0  0  0  0  0  0  0
   -1.4142    0.1115   -0.0624 C   0  0  1  0  0  0  0  0  0  0  0  0
    1.0094    0.6911    0.4457 C   0  0  0  0  0  0  0  0  0  0  0  0
   -1.7098    0.0542   -1.6033 C   0  0  0  0  0  0  0  0  0  0  0  0
   -0.4481   -1.0131    0.3614 C   0  0  0  0  0  0  0  0  0  0  0  0
   -2.7017   -0.0123    0.7522 C   0  0  0  0  0  0  0  0  0  0  0  0
   -1.2603    1.2602   -2.4413 C   0  0  0  0  0  0  0  0  0  0  0  0
    0.2368    1.3197   -2.6380 C   0  0  0  0  0  0  0  0  0  0  0  0
    2.0436    2.3519   -0.1232 H   0  0  0  0  0  0  0  0  0  0  0  0
    4.1396    1.6411   -0.5209 H   0  0  0  0  0  0  0  0  0  0  0  0
    2.9296    0.7036   -2.4258 H   0  0  0  0  0  0  0  0  0  0  0  0
    4.3886   -0.1514   -2.1028 H   0  0  0  0  0  0  0  0  0  0  0  0
    4.1685    0.7711    1.6653 H   0  0  0  0  0  0  0  0  0  0  0  0
    3.2760   -0.6558    1.2648 H   0  0  0  0  0  0  0  0  0  0  0  0
    2.1026   -1.2307   -0.6968 H   0  0  0  0  0  0  0  0  0  0  0  0
    1.8092   -1.2734   -2.3893 H   0  0  0  0  0  0  0  0  0  0  0  0
    5.6147   -1.0742    1.6716 H   0  0  0  0  0  0  0  0  0  0  0  0
    6.1181    0.0081    0.3880 H   0  0  0  0  0  0  0  0  0  0  0  0
    2.3632   -3.3031   -1.2889 H   0  0  0  0  0  0  0  0  0  0  0  0
    3.6662   -2.9444   -2.4160 H   0  0  0  0  0  0  0  0  0  0  0  0
    6.2335   -2.5105    0.0317 H   0  0  0  0  0  0  0  0  0  0  0  0
    5.6228   -1.5794   -1.2966 H   0  0  0  0  0  0  0  0  0  0  0  0
    3.6000   -2.7247    0.6622 H   0  0  0  0  0  0  0  0  0  0  0  0
    4.4902   -3.8469   -0.3292 H   0  0  0  0  0  0  0  0  0  0  0  0
   -1.3209   -0.8694   -2.0591 H   0  0  0  0  0  0  0  0  0  0  0  0
   -2.7951   -0.0211   -1.7652 H   0  0  0  0  0  0  0  0  0  0  0  0
   -3.5929    0.0395    0.1196 H   0  0  0  0  0  0  0  0  0  0  0  0
   -2.7585   -0.9565    1.3036 H   0  0  0  0  0  0  0  0  0  0  0  0
   -2.7990    0.7974    1.4790 H   0  0  0  0  0  0  0  0  0  0  0  0
   -1.7178    1.2124   -3.4345 H   0  0  0  0  0  0  0  0  0  0  0  0
   -1.6299    2.1804   -1.9759 H   0  0  0  0  0  0  0  0  0  0  0  0
    0.6160    0.4038   -3.0885 H   0  0  0  0  0  0  0  0  0  0  0  0
    0.5591    2.1943   -3.2014 H   0  0  0  0  0  0  0  0  0  0  0  0
    0.7424    1.4290   -1.7028 H   0  0  0  0  0  0  0  0  0  0  0  0
  1 13  1  0  0  0  0
  1 14  1  0  0  0  0
  2 16  2  0  0  0  0
  3  5  1  0  0  0  0
  3 14  1  0  0  0  0
  3 20  1  0  0  0  0
  4 14  2  0  0  0  0
  4 16  1  0  0  0  0
  5  6  1  0  0  0  0
  5  7  1  0  0  0  0
  5 21  1  0  0  0  0
  6  8  1  0  0  0  0
  6 22  1  0  0  0  0
  6 23  1  0  0  0  0
  7  9  1  0  0  0  0
  7 24  1  0  0  0  0
  7 25  1  0  0  0  0
  8 10  1  0  0  0  0
  8 26  1  0  0  0  0
  8 27  1  0  0  0  0
  9 11  1  0  0  0  0
  9 28  1  0  0  0  0
  9 29  1  0  0  0  0
 10 12  1  0  0  0  0
 10 30  1  0  0  0  0
 10 31  1  0  0  0  0
 11 12  1  0  0  0  0
 11 32  1  0  0  0  0
 11 33  1  0  0  0  0
 12 34  1  0  0  0  0
 12 35  1  0  0  0  0
 13 16  1  0  0  0  0
 13 17  1  1  0  0  0
 13 15  1  0  0  0  0
 15 18  1  0  0  0  0
 15 36  1  0  0  0  0
 15 37  1  0  0  0  0
 17 38  1  0  0  0  0
 17 39  1  0  0  0  0
 17 40  1  0  0  0  0
 18 19  1  0  0  0  0
 18 41  1  0  0  0  0
 18 42  1  0  0  0  0
 19 43  1  0  0  0  0
 19 44  1  0  0  0  0
 19 45  1  0  0  0  0
M  END
>  <DRUGBANK_ID>
DB07866

>  <COMMON_NAME>
(5S)-2-(Cyclooctylamino)-5-methyl-5-propyl-1,3-thiazol-4(5H)-one

$$$$
