MN8
 OpenBabel10282417173D

 39 41  0  0  0  0  0  0  0  0999 V2000
   10.1799   -0.0268   -0.1629 C   0  0  0  0  0  0  0  0  0  0  0  0
   11.1834   -0.4189    0.4309 O   0  0  0  0  0  0  0  0  0  0  0  0
   10.1724   -0.0496   -1.5110 O   0  0  0  0  0  0  0  0  0  0  0  0
    8.9403    0.4483    0.4469 C   0  0  0  0  0  0  0  0  0  0  0  0
    8.7335    0.5231    1.8231 C   0  0  0  0  0  0  0  0  0  0  0  0
    9.6635    0.2104    2.9849 C   0  0  0  0  0  0  0  0  0  0  0  0
   10.0584    1.4393    3.8094 C   0  0  0  0  0  0  0  0  0  0  0  0
    9.0796   -0.8785    3.8853 C   0  0  0  0  0  0  0  0  0  0  0  0
    7.0968    0.9172    2.1126 S   0  0  0  0  0  0  0  0  0  0  0  0
    6.8058    1.1620    0.3932 C   0  0  0  0  0  0  0  0  0  0  0  0
    7.8456    0.8723   -0.3563 N   0  0  0  0  0  0  0  0  0  0  0  0
    5.5847    2.0447    0.0929 C   0  0  1  0  0  0  0  0  0  0  0  0
    5.9248    3.2803    0.8485 N   0  0  0  0  0  0  0  0  0  0  0  0
    5.4899    4.5383    0.3104 C   0  0  0  0  0  0  0  0  0  0  0  0
    4.1342    4.4309   -0.2845 C   0  0  0  0  0  0  0  0  0  0  0  0
    3.8955    3.3680   -1.1794 C   0  0  0  0  0  0  0  0  0  0  0  0
    5.0282    2.3292   -1.3354 C   0  0  0  0  0  0  0  0  0  0  0  0
    2.6463    3.3050   -1.7978 C   0  0  0  0  0  0  0  0  0  0  0  0
    1.6627    4.2647   -1.4916 C   0  0  0  0  0  0  0  0  0  0  0  0
    1.9077    5.2817   -0.5655 C   0  0  0  0  0  0  0  0  0  0  0  0
    3.1506    5.3684    0.0371 C   0  0  0  0  0  0  0  0  0  0  0  0
    4.7528    1.5132    0.5852 H   0  0  0  0  0  0  0  0  0  0  0  0
   11.0478   -0.4243   -1.7271 H   0  0  0  0  0  0  0  0  0  0  0  0
   10.5996   -0.1934    2.5962 H   0  0  0  0  0  0  0  0  0  0  0  0
    9.2053    1.8796    4.3356 H   0  0  0  0  0  0  0  0  0  0  0  0
   10.8016    1.1589    4.5678 H   0  0  0  0  0  0  0  0  0  0  0  0
   10.5101    2.2149    3.1815 H   0  0  0  0  0  0  0  0  0  0  0  0
    8.8011   -1.7560    3.2919 H   0  0  0  0  0  0  0  0  0  0  0  0
    9.8123   -1.1917    4.6349 H   0  0  0  0  0  0  0  0  0  0  0  0
    8.1876   -0.5319    4.4186 H   0  0  0  0  0  0  0  0  0  0  0  0
    6.9449    3.3314    0.8651 H   0  0  0  0  0  0  0  0  0  0  0  0
    5.5086    5.2444    1.1453 H   0  0  0  0  0  0  0  0  0  0  0  0
    6.1931    4.9052   -0.4459 H   0  0  0  0  0  0  0  0  0  0  0  0
    5.7896    2.7297   -2.0162 H   0  0  0  0  0  0  0  0  0  0  0  0
    4.6181    1.4208   -1.7969 H   0  0  0  0  0  0  0  0  0  0  0  0
    2.4066    2.5126   -2.5002 H   0  0  0  0  0  0  0  0  0  0  0  0
    0.6862    4.2170   -1.9674 H   0  0  0  0  0  0  0  0  0  0  0  0
    1.1387    6.0067   -0.3127 H   0  0  0  0  0  0  0  0  0  0  0  0
    3.3567    6.1504    0.7647 H   0  0  0  0  0  0  0  0  0  0  0  0
  1  2  2  0  0  0  0
  1  3  1  0  0  0  0
  1  4  1  0  0  0  0
  3 23  1  0  0  0  0
  4  5  2  0  0  0  0
  4 11  1  0  0  0  0
  5  6  1  0  0  0  0
  5  9  1  0  0  0  0
  6  7  1  0  0  0  0
  6  8  1  0  0  0  0
  6 24  1  0  0  0  0
  7 25  1  0  0  0  0
  7 26  1  0  0  0  0
  7 27  1  0  0  0  0
  8 28  1  0  0  0  0
  8 29  1  0  0  0  0
  8 30  1  0  0  0  0
  9 10  1  0  0  0  0
 10 11  2  0  0  0  0
 12 13  1  0  0  0  0
 12 17  1  0  0  0  0
 12 22  1  1  0  0  0
 12 10  1  0  0  0  0
 13 14  1  0  0  0  0
 13 31  1  0  0  0  0
 14 15  1  0  0  0  0
 14 32  1  0  0  0  0
 14 33  1  0  0  0  0
 15 16  2  0  0  0  0
 15 21  1  0  0  0  0
 16 17  1  0  0  0  0
 16 18  1  0  0  0  0
 17 34  1  0  0  0  0
 17 35  1  0  0  0  0
 18 19  2  0  0  0  0
 18 36  1  0  0  0  0
 19 20  1  0  0  0  0
 19 37  1  0  0  0  0
 20 21  2  0  0  0  0
 20 38  1  0  0  0  0
 21 39  1  0  0  0  0
M  END
>  <DRUGBANK_ID>
DB08192

>  <COMMON_NAME>
2-(4-CARCOXY-5-ISOPROPYLTHIAZOLYL)BENZOPIPERIDINE

$$$$
