
 OpenBabel10282417133D

 82 87  0  0  0  0  0  0  0  0999 V2000
    1.0077    0.0778    0.0624 P   0  0  3  0  0  0  0  0  0  0  0  0
    2.3818   -2.2790   -3.2593 P   0  0  3  0  0  0  0  0  0  0  0  0
    2.7557   -2.0432   -0.4677 P   0  0  3  0  0  0  0  0  0  0  0  0
   -0.2666    4.0989    0.7165 O   0  0  0  0  0  0  0  0  0  0  0  0
    3.7759   -5.7041   -2.3550 O   0  0  0  0  0  0  0  0  0  0  0  0
   -3.4093    4.2759   -1.0659 O   0  0  0  0  0  0  0  0  0  0  0  0
   -2.6153    2.0058    0.2074 O   0  0  0  0  0  0  0  0  0  0  0  0
    2.2233   -8.9175   -2.6860 O   0  0  0  0  0  0  0  0  0  0  0  0
    1.7053   -6.9985   -4.4294 O   0  0  0  0  0  0  0  0  0  0  0  0
    0.9011    1.1012   -1.2014 O   0  0  0  0  0  0  0  0  0  0  0  0
    1.3502   -3.1321   -2.2848 O   0  0  0  0  0  0  0  0  0  0  0  0
    1.1194   -1.6246   -0.2579 O   0  0  0  0  0  0  0  0  0  0  0  0
    2.8306   -1.2816   -1.9189 O   0  0  0  0  0  0  0  0  0  0  0  0
    1.9967    9.2226   -1.8686 O   0  0  0  0  0  0  0  0  0  0  0  0
   -0.7223    0.0778    0.0624 O   0  0  0  0  0  0  0  0  0  0  0  0
    1.4307   -1.0009   -3.6506 O   0  0  0  0  0  0  0  0  0  0  0  0
    2.5560    0.0778    0.0624 O   0  0  0  0  0  0  0  0  0  0  0  0
    1.9802   -3.1717   -4.4589 O   0  0  0  0  0  0  0  0  0  0  0  0
    5.8274   -8.0065    3.3434 O   0  0  0  0  0  0  0  0  0  0  0  0
    3.2702   -1.6208    1.0192 O   0  0  0  0  0  0  0  0  0  0  0  0
    3.6567   -3.2245   -0.5732 O   0  0  0  0  0  0  0  0  0  0  0  0
   -0.8744    6.1189   -0.1326 N   0  3  0  0  0  0  0  0  0  0  0  0
    4.5249   -7.4293   -0.9822 N   0  0  0  0  0  0  0  0  0  0  0  0
   -0.2473    8.1894    0.0336 N   0  0  0  0  0  0  0  0  0  0  0  0
    0.5389    5.4512   -2.0330 N   0  0  0  0  0  0  0  0  0  0  0  0
    3.2141   -6.3282    0.7760 N   0  0  0  0  0  0  0  0  0  0  0  0
    6.0290   -8.4036    0.3474 N   0  0  0  0  0  0  0  0  0  0  0  0
    1.9942    7.1270   -2.8064 N   0  0  0  0  0  0  0  0  0  0  0  0
    3.9824   -6.6692    2.9953 N   0  0  0  0  0  0  0  0  0  0  0  0
    1.9737    4.9836   -3.7087 N   0  0  0  0  0  0  0  0  0  0  0  0
    2.1472   -5.3523    2.5370 N   0  0  0  0  0  0  0  0  0  0  0  0
   -1.3998    4.8277    0.2414 C   0  0  1  0  0  0  0  0  0  0  0  0
   -2.0187    4.0459   -0.9231 C   0  0  1  0  0  0  0  0  0  0  0  0
   -1.6143    2.6233   -0.6074 C   0  0  1  0  0  0  0  0  0  0  0  0
   -0.2978    2.7800    0.1685 C   0  0  1  0  0  0  0  0  0  0  0  0
    2.3616   -7.5975   -2.1870 C   0  0  2  0  0  0  0  0  0  0  0  0
    1.6595   -6.5830   -3.0670 C   0  0  1  0  0  0  0  0  0  0  0  0
    3.8115   -7.1224   -2.1984 C   0  0  1  0  0  0  0  0  0  0  0  0
    2.4761   -5.3338   -2.8705 C   0  0  1  0  0  0  0  0  0  0  0  0
    0.9586    2.4479   -0.6793 C   0  0  0  0  0  0  0  0  0  0  0  0
    0.0557    6.3342   -1.1239 C   0  0  0  0  0  0  0  0  0  0  0  0
    1.7544   -4.4403   -1.8781 C   0  0  0  0  0  0  0  0  0  0  0  0
   -1.0801    7.2664    0.5397 C   0  0  0  0  0  0  0  0  0  0  0  0
    0.4857    7.6200   -1.0081 C   0  0  0  0  0  0  0  0  0  0  0  0
    4.2150   -7.0756    0.2923 C   0  0  0  0  0  0  0  0  0  0  0  0
    5.6371   -8.2317   -0.9007 C   0  0  0  0  0  0  0  0  0  0  0  0
    5.1374   -7.6740    1.1069 C   0  0  0  0  0  0  0  0  0  0  0  0
   -0.0770    9.5664    0.4817 C   0  0  0  0  0  0  0  0  0  0  0  0
    1.5212    8.0724   -1.8939 C   0  0  0  0  0  0  0  0  0  0  0  0
    1.5145    5.9178   -2.8504 C   0  0  0  0  0  0  0  0  0  0  0  0
    5.0351   -7.4815    2.5561 C   0  0  0  0  0  0  0  0  0  0  0  0
    3.1641   -6.1456    2.1293 C   0  0  0  0  0  0  0  0  0  0  0  0
    0.1934    4.5419   -2.2755 H   0  0  0  0  0  0  0  0  0  0  0  0
    2.5639   -5.8212    0.2073 H   0  0  0  0  0  0  0  0  0  0  0  0
    1.6077    4.0490   -3.8383 H   0  0  0  0  0  0  0  0  0  0  0  0
    2.6806    5.2675   -4.3809 H   0  0  0  0  0  0  0  0  0  0  0  0
    1.4589   -4.9454    1.9278 H   0  0  0  0  0  0  0  0  0  0  0  0
    2.0503   -5.2136    3.5352 H   0  0  0  0  0  0  0  0  0  0  0  0
   -3.8982    3.7082   -0.4435 H   0  0  0  0  0  0  0  0  0  0  0  0
   -2.7949    2.5161    1.0106 H   0  0  0  0  0  0  0  0  0  0  0  0
    2.3416   -8.8714   -3.6549 H   0  0  0  0  0  0  0  0  0  0  0  0
    2.6119   -6.8922   -4.7645 H   0  0  0  0  0  0  0  0  0  0  0  0
   -1.1537    0.1312    0.9354 H   0  0  0  0  0  0  0  0  0  0  0  0
    1.9491   -0.1831   -3.5381 H   0  0  0  0  0  0  0  0  0  0  0  0
    2.7651   -0.9071    1.4293 H   0  0  0  0  0  0  0  0  0  0  0  0
   -2.1222    4.9340    1.0612 H   0  0  0  0  0  0  0  0  0  0  0  0
   -1.5914    4.3214   -1.8829 H   0  0  0  0  0  0  0  0  0  0  0  0
   -1.4900    2.0185   -1.5134 H   0  0  0  0  0  0  0  0  0  0  0  0
   -0.2900    2.1368    1.0546 H   0  0  0  0  0  0  0  0  0  0  0  0
    1.9346   -7.5583   -1.1804 H   0  0  0  0  0  0  0  0  0  0  0  0
    0.6095   -6.4245   -2.7947 H   0  0  0  0  0  0  0  0  0  0  0  0
    4.3701   -7.5397   -3.0457 H   0  0  0  0  0  0  0  0  0  0  0  0
    2.7422   -4.8874   -3.8110 H   0  0  0  0  0  0  0  0  0  0  0  0
    1.8629    2.5883   -0.0646 H   0  0  0  0  0  0  0  0  0  0  0  0
    1.0992    3.1096   -1.5222 H   0  0  0  0  0  0  0  0  0  0  0  0
    2.4619   -4.3921   -1.1010 H   0  0  0  0  0  0  0  0  0  0  0  0
    0.9757   -4.8855   -1.2548 H   0  0  0  0  0  0  0  0  0  0  0  0
   -1.7660    7.4143    1.3701 H   0  0  0  0  0  0  0  0  0  0  0  0
    6.1102   -8.6687   -1.7724 H   0  0  0  0  0  0  0  0  0  0  0  0
    0.9555    9.7043    0.8145 H   0  0  0  0  0  0  0  0  0  0  0  0
   -0.2917   10.2380   -0.3536 H   0  0  0  0  0  0  0  0  0  0  0  0
   -0.7571    9.7824    1.3090 H   0  0  0  0  0  0  0  0  0  0  0  0
  1 10  1  0  0  0  0
  1 12  1  0  0  0  0
  1 15  1  0  0  0  0
  1 17  2  0  0  0  0
  2 11  1  0  0  0  0
  2 13  1  0  0  0  0
  2 16  1  0  0  0  0
  2 18  2  0  0  0  0
  3 12  1  0  0  0  0
  3 13  1  0  0  0  0
  3 20  1  0  0  0  0
  3 21  2  0  0  0  0
  4 32  1  0  0  0  0
  4 35  1  0  0  0  0
  5 38  1  0  0  0  0
  5 39  1  0  0  0  0
  6 59  1  0  0  0  0
  7 60  1  0  0  0  0
  8 61  1  0  0  0  0
  9 62  1  0  0  0  0
 10 40  1  0  0  0  0
 11 42  1  0  0  0  0
 14 49  2  0  0  0  0
 15 63  1  0  0  0  0
 16 64  1  0  0  0  0
 19 51  2  0  0  0  0
 20 65  1  0  0  0  0
 22 41  1  0  0  0  0
 22 43  2  0  0  0  0
 23 45  1  0  0  0  0
 23 46  1  0  0  0  0
 24 43  1  0  0  0  0
 24 44  1  0  0  0  0
 24 48  1  0  0  0  0
 25 41  1  0  0  0  0
 25 50  1  0  0  0  0
 25 53  1  0  0  0  0
 26 45  1  0  0  0  0
 26 52  1  0  0  0  0
 26 54  1  0  0  0  0
 27 46  2  0  0  0  0
 27 47  1  0  0  0  0
 28 49  1  0  0  0  0
 28 50  2  0  0  0  0
 29 51  1  0  0  0  0
 29 52  2  0  0  0  0
 30 50  1  0  0  0  0
 30 55  1  0  0  0  0
 30 56  1  0  0  0  0
 31 52  1  0  0  0  0
 31 57  1  0  0  0  0
 31 58  1  0  0  0  0
 32 33  1  0  0  0  0
 32 66  1  1  0  0  0
 32 22  1  0  0  0  0
 33  6  1  0  0  0  0
 33 34  1  0  0  0  0
 33 67  1  6  0  0  0
 34  7  1  0  0  0  0
 34 35  1  0  0  0  0
 34 68  1  6  0  0  0
 35 40  1  0  0  0  0
 35 69  1  1  0  0  0
 36  8  1  0  0  0  0
 36 37  1  0  0  0  0
 36 38  1  0  0  0  0
 36 70  1  1  0  0  0
 37  9  1  0  0  0  0
 37 39  1  0  0  0  0
 37 71  1  1  0  0  0
 38 72  1  6  0  0  0
 38 23  1  0  0  0  0
 39 42  1  0  0  0  0
 39 73  1  6  0  0  0
 40 74  1  0  0  0  0
 40 75  1  0  0  0  0
 41 44  2  0  0  0  0
 42 76  1  0  0  0  0
 42 77  1  0  0  0  0
 43 78  1  0  0  0  0
 44 49  1  0  0  0  0
 45 47  2  0  0  0  0
 46 79  1  0  0  0  0
 47 51  1  0  0  0  0
 48 80  1  0  0  0  0
 48 81  1  0  0  0  0
 48 82  1  0  0  0  0
M  CHG  1  22   1
M  END
>  <DRUGBANK_ID>
DB03958

>  <SECONDARY_ACCESSION_NUMBERS>
EXPT01655

>  <COMMON_NAME>
7-methyl-guanosine-5'-triphosphate-5'-guanosine

>  <SYNONYMS>
mRNA cap analog N7-Methyl GpppG

$$$$
