
 OpenBabel10282417233D

 63 65  0  0  0  0  0  0  0  0999 V2000
   -0.2583    2.8967   -0.0996 C   0  0  0  0  0  0  0  0  0  0  0  0
    0.7489    2.7624   -1.0766 O   0  0  0  0  0  0  0  0  0  0  0  0
    0.2063    2.4963   -2.3653 C   0  0  0  0  0  0  0  0  0  0  0  0
   -0.4953    1.1525   -2.6963 C   0  0  0  0  0  0  0  0  0  0  0  0
   -1.7088    0.7344   -1.8705 C   0  0  0  0  0  0  0  0  0  0  0  0
   -2.8617    0.9034   -2.2668 O   0  0  0  0  0  0  0  0  0  0  0  0
   -1.4950    0.2205   -0.6116 N   0  0  0  0  0  0  0  0  0  0  0  0
   -0.1857    0.1703    0.0957 C   0  0  1  0  0  0  0  0  0  0  0  0
   -0.3421    0.5622    1.6045 C   0  0  0  0  0  0  0  0  0  0  0  0
   -1.0821   -0.5259    2.2819 C   0  0  0  0  0  0  0  0  0  0  0  0
   -0.3202   -1.7761    1.8746 C   0  0  2  0  0  0  0  0  0  0  0  0
    1.0817   -1.7239    2.6245 C   0  0  0  0  0  0  0  0  0  0  0  0
    1.0100   -1.7014    4.1847 C   0  0  0  0  0  0  0  0  0  0  0  0
    0.1328   -2.6955    4.8460 N   0  0  0  0  0  0  0  0  0  0  0  0
    0.7248   -3.7357    5.6833 C   0  0  0  0  0  0  0  0  0  0  0  0
    1.5591   -4.7858    4.9117 C   0  0  0  0  0  0  0  0  0  0  0  0
    0.8115   -5.3535    3.7762 N   0  0  0  0  0  0  0  0  0  0  0  0
    0.1600   -4.3897    2.9271 C   0  0  0  0  0  0  0  0  0  0  0  0
   -0.6824   -3.4467    3.8923 C   0  0  0  0  0  0  0  0  0  0  0  0
    0.6245   -6.6820    3.5334 C   0  0  0  0  0  0  0  0  0  0  0  0
   -0.1091   -7.4495    4.4345 C   0  0  0  0  0  0  0  0  0  0  0  0
   -0.2774   -8.8158    4.2371 C   0  0  0  0  0  0  0  0  0  0  0  0
    0.2711   -9.4285    3.1125 C   0  0  0  0  0  0  0  0  0  0  0  0
    0.9432   -8.6624    2.1592 C   0  0  0  0  0  0  0  0  0  0  0  0
    1.1169   -7.2916    2.3693 C   0  0  0  0  0  0  0  0  0  0  0  0
    1.4355   -9.2934    0.9533 C   0  0  0  0  0  0  0  0  0  0  0  0
    1.7961   -9.8075   -0.0008 N   0  0  0  0  0  0  0  0  0  0  0  0
   -0.2189   -2.1553    0.4121 C   0  0  0  0  0  0  0  0  0  0  0  0
    0.5341   -1.0985   -0.2653 C   0  0  0  0  0  0  0  0  0  0  0  0
    0.1977    2.7236    0.8727 H   0  0  0  0  0  0  0  0  0  0  0  0
   -0.9630    2.1345   -0.2988 H   0  0  0  0  0  0  0  0  0  0  0  0
   -0.9946    3.6870   -0.1237 H   0  0  0  0  0  0  0  0  0  0  0  0
   -0.4730    3.3237   -2.5547 H   0  0  0  0  0  0  0  0  0  0  0  0
    1.0676    2.5818   -3.0360 H   0  0  0  0  0  0  0  0  0  0  0  0
   -0.8615    1.2632   -3.7255 H   0  0  0  0  0  0  0  0  0  0  0  0
    0.2032    0.3121   -2.7317 H   0  0  0  0  0  0  0  0  0  0  0  0
   -2.3512    0.1994   -0.0578 H   0  0  0  0  0  0  0  0  0  0  0  0
    0.5539    0.8239   -0.3205 H   0  0  0  0  0  0  0  0  0  0  0  0
    0.6433    0.7405    2.0592 H   0  0  0  0  0  0  0  0  0  0  0  0
   -0.9072    1.4674    1.8472 H   0  0  0  0  0  0  0  0  0  0  0  0
   -1.1194   -0.3486    3.3667 H   0  0  0  0  0  0  0  0  0  0  0  0
   -2.1312   -0.5295    1.9699 H   0  0  0  0  0  0  0  0  0  0  0  0
   -1.0367   -2.5656    2.0185 H   0  0  0  0  0  0  0  0  0  0  0  0
    1.7848   -2.4795    2.2818 H   0  0  0  0  0  0  0  0  0  0  0  0
    1.6612   -0.8497    2.3045 H   0  0  0  0  0  0  0  0  0  0  0  0
    2.0291   -1.6952    4.5938 H   0  0  0  0  0  0  0  0  0  0  0  0
    0.6296   -0.7044    4.4613 H   0  0  0  0  0  0  0  0  0  0  0  0
    1.2708   -3.2950    6.5184 H   0  0  0  0  0  0  0  0  0  0  0  0
   -0.1333   -4.2616    6.1324 H   0  0  0  0  0  0  0  0  0  0  0  0
    2.4437   -4.2739    4.5141 H   0  0  0  0  0  0  0  0  0  0  0  0
    1.8864   -5.5674    5.5979 H   0  0  0  0  0  0  0  0  0  0  0  0
    1.0214   -3.9984    2.3948 H   0  0  0  0  0  0  0  0  0  0  0  0
   -0.4411   -4.7846    2.0996 H   0  0  0  0  0  0  0  0  0  0  0  0
   -1.4755   -4.0638    4.3129 H   0  0  0  0  0  0  0  0  0  0  0  0
   -1.3359   -2.6423    3.5861 H   0  0  0  0  0  0  0  0  0  0  0  0
   -0.5739   -6.9626    5.2884 H   0  0  0  0  0  0  0  0  0  0  0  0
   -0.8386   -9.3967    4.9617 H   0  0  0  0  0  0  0  0  0  0  0  0
    0.1560  -10.5017    2.9812 H   0  0  0  0  0  0  0  0  0  0  0  0
    1.6608   -6.6951    1.6375 H   0  0  0  0  0  0  0  0  0  0  0  0
    0.2483   -3.1315    0.2750 H   0  0  0  0  0  0  0  0  0  0  0  0
   -1.2359   -2.2311   -0.0070 H   0  0  0  0  0  0  0  0  0  0  0  0
    0.5376   -1.2587   -1.3436 H   0  0  0  0  0  0  0  0  0  0  0  0
    1.5773   -1.0617    0.0657 H   0  0  0  0  0  0  0  0  0  0  0  0
  1  2  1  0  0  0  0
  1 30  1  0  0  0  0
  1 31  1  0  0  0  0
  1 32  1  0  0  0  0
  2  3  1  0  0  0  0
  3  4  1  0  0  0  0
  3 33  1  0  0  0  0
  3 34  1  0  0  0  0
  4  5  1  0  0  0  0
  4 35  1  0  0  0  0
  4 36  1  0  0  0  0
  5  6  2  0  0  0  0
  5  7  1  0  0  0  0
  7 37  1  0  0  0  0
  8  9  1  0  0  0  0
  8 29  1  0  0  0  0
  8 38  1  6  0  0  0
  8  7  1  0  0  0  0
  9 10  1  0  0  0  0
  9 39  1  0  0  0  0
  9 40  1  0  0  0  0
 10 41  1  0  0  0  0
 10 42  1  0  0  0  0
 11 10  1  0  0  0  0
 11 12  1  0  0  0  0
 11 28  1  0  0  0  0
 11 43  1  1  0  0  0
 12 13  1  0  0  0  0
 12 44  1  0  0  0  0
 12 45  1  0  0  0  0
 13 14  1  0  0  0  0
 13 46  1  0  0  0  0
 13 47  1  0  0  0  0
 14 15  1  0  0  0  0
 14 19  1  0  0  0  0
 15 16  1  0  0  0  0
 15 48  1  0  0  0  0
 15 49  1  0  0  0  0
 16 17  1  0  0  0  0
 16 50  1  0  0  0  0
 16 51  1  0  0  0  0
 17 18  1  0  0  0  0
 17 20  1  0  0  0  0
 18 19  1  0  0  0  0
 18 52  1  0  0  0  0
 18 53  1  0  0  0  0
 19 54  1  0  0  0  0
 19 55  1  0  0  0  0
 20 21  2  0  0  0  0
 20 25  1  0  0  0  0
 21 22  1  0  0  0  0
 21 56  1  0  0  0  0
 22 23  2  0  0  0  0
 22 57  1  0  0  0  0
 23 24  1  0  0  0  0
 23 58  1  0  0  0  0
 24 25  2  0  0  0  0
 24 26  1  0  0  0  0
 25 59  1  0  0  0  0
 26 27  3  0  0  0  0
 28 29  1  0  0  0  0
 28 60  1  0  0  0  0
 28 61  1  0  0  0  0
 29 62  1  0  0  0  0
 29 63  1  0  0  0  0
M  END
>  <DRUGBANK_ID>
DB16302

>  <COMMON_NAME>
BP-14979

>  <CAS_NUMBER>
1000036-77-0

>  <UNII>
XN7HA74WB0

$$$$
