233
 OpenBabel10282417103D

 18 18  0  0  0  0  0  0  0  0999 V2000
    2.2834    1.1258    0.1019 O   0  0  0  0  0  0  0  0  0  0  0  0
    3.6719   -1.5196    0.0087 O   0  0  0  0  0  0  0  0  0  0  0  0
    2.2741   -3.2434    0.0069 O   0  0  0  0  0  0  0  0  0  0  0  0
   -2.4235    1.0433    0.0167 N   0  0  0  0  0  0  0  0  0  0  0  0
    1.2304   -1.1113    0.0192 C   0  0  0  0  0  0  0  0  0  0  0  0
    1.2070    0.2874    0.0345 C   0  0  0  0  0  0  0  0  0  0  0  0
   -1.2452    0.3239   -0.0102 C   0  0  0  0  0  0  0  0  0  0  0  0
   -0.0167    0.9818    0.0225 C   0  0  0  0  0  0  0  0  0  0  0  0
   -0.0245   -1.7686   -0.0055 C   0  0  0  0  0  0  0  0  0  0  0  0
   -1.2400   -1.0642   -0.0131 C   0  0  0  0  0  0  0  0  0  0  0  0
    2.4242   -2.0221    0.0306 C   0  0  0  0  0  0  0  0  0  0  0  0
    3.0503    0.7550   -0.3445 H   0  0  0  0  0  0  0  0  0  0  0  0
    3.8726   -0.6172    0.2892 H   0  0  0  0  0  0  0  0  0  0  0  0
   -2.4029    2.0534   -0.0389 H   0  0  0  0  0  0  0  0  0  0  0  0
   -3.3218    0.5828   -0.0315 H   0  0  0  0  0  0  0  0  0  0  0  0
    0.0024    2.0691    0.0373 H   0  0  0  0  0  0  0  0  0  0  0  0
   -0.0748   -2.8590   -0.0144 H   0  0  0  0  0  0  0  0  0  0  0  0
   -2.1774   -1.6166   -0.0240 H   0  0  0  0  0  0  0  0  0  0  0  0
  1  6  1  0  0  0  0
  1 12  1  0  0  0  0
  2 11  1  0  0  0  0
  2 13  1  0  0  0  0
  3 11  2  0  0  0  0
  4  7  1  0  0  0  0
  4 14  1  0  0  0  0
  4 15  1  0  0  0  0
  5  6  2  0  0  0  0
  5  9  1  0  0  0  0
  5 11  1  0  0  0  0
  6  8  1  0  0  0  0
  7  8  2  0  0  0  0
  7 10  1  0  0  0  0
  8 16  1  0  0  0  0
  9 10  2  0  0  0  0
  9 17  1  0  0  0  0
 10 18  1  0  0  0  0
M  END
>  <DRUGBANK_ID>
DB00233

>  <SECONDARY_ACCESSION_NUMBERS>
APRD00749; EXPT00693; DB09367

>  <COMMON_NAME>
Aminosalicylic acid

>  <CAS_NUMBER>
65-49-6

>  <UNII>
5B2658E0N2

>  <SYNONYMS>
4-amino-2-hydroxybenzoic acid; 4-aminosalicylate; 4-aminosalicylic acid; Aminosalicylic acid; p-aminosalicylic acid; para-amino salicylic acid; para-aminosalicylic acid; PAS

$$$$
