
 OpenBabel10282417133D

142152  0  0  0  0  0  0  0  0999 V2000
   -0.8404   -0.8962   -0.2554 C   0  0  0  0  0  0  0  0  0  0  0  0
    0.5771   -1.1270    0.2244 C   0  0  0  0  0  0  0  0  0  0  0  0
    1.2767    0.1768   -0.1449 C   0  0  0  0  0  0  0  0  0  0  0  0
    0.4664    3.3439   -1.2307 O   0  0  0  0  0  0  0  0  0  0  0  0
   -0.1123    1.5612   -2.4960 N   0  0  0  0  0  0  0  0  0  0  0  0
    0.1538    2.1566   -1.2845 C   0  0  0  0  0  0  0  0  0  0  0  0
    0.1697    1.2555   -0.0301 C   0  0  1  0  0  0  0  0  0  0  0  0
   -1.1000    0.4857    0.0701 N   0  0  0  0  0  0  0  0  0  0  0  0
   -2.3481    2.2220    0.8723 O   0  0  0  0  0  0  0  0  0  0  0  0
   -2.2981    1.0401    0.5024 C   0  0  0  0  0  0  0  0  0  0  0  0
   -3.5460   -2.1485    0.9684 O   0  0  0  0  0  0  0  0  0  0  0  0
   -3.2909   -0.9349    1.6961 C   0  0  0  0  0  0  0  0  0  0  0  0
   -3.5720    0.1773    0.7067 C   0  0  2  0  0  0  0  0  0  0  0  0
   -4.1965   -0.4951   -0.4766 N   0  0  0  0  0  0  0  0  0  0  0  0
   -4.1849   -1.7592   -0.1759 C   0  0  0  0  0  0  0  0  0  0  0  0
   -5.2275   -4.4899   -2.9371 S   0  0  0  0  0  0  0  0  0  0  0  0
   -4.4103   -3.0226   -2.3738 C   0  0  0  0  0  0  0  0  0  0  0  0
   -4.7319   -2.8217   -1.0400 C   0  0  0  0  0  0  0  0  0  0  0  0
   -5.6631   -3.7382   -0.5237 N   0  0  0  0  0  0  0  0  0  0  0  0
   -6.1961   -4.5724   -1.3906 C   0  0  0  0  0  0  0  0  0  0  0  0
   -7.4423   -7.5711   -0.1783 C   0  0  0  0  0  0  0  0  0  0  0  0
   -6.7134   -6.9138   -1.1223 C   0  0  0  0  0  0  0  0  0  0  0  0
   -7.3652   -5.6526   -0.8540 C   0  0  0  0  0  0  0  0  0  0  0  0
   -8.7207   -5.0437    0.2522 N   0  0  0  0  0  0  0  0  0  0  0  0
  -10.7326   -9.1478    1.0165 H   0  0  0  0  0  0  0  0  0  0  0  0
  -11.1492  -13.1168    2.4141 O   0  0  0  0  0  0  0  0  0  0  0  0
  -11.4369   -8.0880    4.2236 O   0  0  0  0  0  0  0  0  0  0  0  0
  -11.9775   -5.6322    0.6189 C   0  0  0  0  0  0  0  0  0  0  0  0
  -13.1827   -5.1997    0.9410 O   0  0  0  0  0  0  0  0  0  0  0  0
  -13.1147   -6.0271    2.1123 C   0  0  0  0  0  0  0  0  0  0  0  0
  -14.0091   -7.0197    1.6731 C   0  0  0  0  0  0  0  0  0  0  0  0
  -15.5379   -6.9486    1.1635 S   0  0  0  0  0  0  0  0  0  0  0  0
  -17.2861   -7.4274   -1.0042 C   0  0  0  0  0  0  0  0  0  0  0  0
  -15.4043   -8.4245   -2.2006 C   0  0  0  0  0  0  0  0  0  0  0  0
  -16.5829   -8.7271   -1.3453 C   0  0  0  0  0  0  0  0  0  0  0  0
  -18.6321  -11.3534    1.6525 O   0  0  0  0  0  0  0  0  0  0  0  0
  -18.2194  -14.2242    1.4059 C   0  0  0  0  0  0  0  0  0  0  0  0
  -17.0856  -13.6324    0.6692 C   0  0  0  0  0  0  0  0  0  0  0  0
  -15.9656  -14.6169   -0.1368 S   0  0  0  0  0  0  0  0  0  0  0  0
  -13.7229  -16.4756   -0.1314 O   0  0  0  0  0  0  0  0  0  0  0  0
  -11.0659  -14.1864   -0.0395 C   0  0  0  0  0  0  0  0  0  0  0  0
  -12.0606  -15.0778    0.3774 N   0  0  0  0  0  0  0  0  0  0  0  0
  -13.0649  -15.4880   -0.4456 C   0  0  0  0  0  0  0  0  0  0  0  0
  -13.3298  -14.7034   -1.7483 C   0  0  0  0  0  0  0  0  0  0  0  0
  -12.6893  -12.4228   -0.8901 N   0  0  0  0  0  0  0  0  0  0  0  0
  -13.7839  -13.2537   -1.5182 C   0  0  2  0  0  0  0  0  0  0  0  0
  -15.0634  -13.2407   -0.6567 C   0  0  0  0  0  0  0  0  0  0  0  0
  -15.6155  -12.1319   -0.2534 N   0  0  0  0  0  0  0  0  0  0  0  0
  -16.7830  -12.3025    0.4800 C   0  0  0  0  0  0  0  0  0  0  0  0
  -17.6073  -11.1825    0.9925 C   0  0  0  0  0  0  0  0  0  0  0  0
  -17.2666   -9.8861    0.7304 N   0  0  0  0  0  0  0  0  0  0  0  0
  -16.1905   -9.4310   -0.0839 C   0  0  2  0  0  0  0  0  0  0  0  0
  -15.3747   -8.5714    0.7295 C   0  0  0  0  0  0  0  0  0  0  0  0
  -14.2545   -9.0803    1.0613 N   0  0  0  0  0  0  0  0  0  0  0  0
  -13.7386   -8.2727    2.1159 C   0  0  0  0  0  0  0  0  0  0  0  0
  -12.2677   -8.8749    3.5666 C   0  0  0  0  0  0  0  0  0  0  0  0
  -11.6358  -10.2151    3.6237 N   0  0  0  0  0  0  0  0  0  0  0  0
  -12.2957  -11.4228    3.0362 C   0  0  0  0  0  0  0  0  0  0  0  0
  -11.5832  -12.0360    2.0668 C   0  0  0  0  0  0  0  0  0  0  0  0
  -11.6554  -11.3124    0.8827 N   0  0  0  0  0  0  0  0  0  0  0  0
  -10.8378   -6.8986   -1.2851 C   0  0  0  0  0  0  0  0  0  0  0  0
  -11.0089   -5.5722   -1.5931 C   0  0  0  0  0  0  0  0  0  0  0  0
  -12.2460   -5.2041   -2.0554 C   0  0  0  0  0  0  0  0  0  0  0  0
  -13.3210   -6.0399   -1.8948 C   0  0  0  0  0  0  0  0  0  0  0  0
  -13.0577   -7.2912   -1.4251 C   0  0  0  0  0  0  0  0  0  0  0  0
  -11.8545   -7.7774   -1.1651 C   0  0  0  0  0  0  0  0  0  0  0  0
  -13.0364   -9.8267   -1.0583 O   0  0  0  0  0  0  0  0  0  0  0  0
  -11.8450   -9.1676   -0.7487 C   0  0  2  0  0  0  0  0  0  0  0  0
  -11.5713   -9.7541    0.6502 C   0  0  1  0  0  0  0  0  0  0  0  0
  -14.2513   -8.5511    4.2006 C   0  0  0  0  0  0  0  0  0  0  0  0
  -14.1215  -10.1223    3.0760 S   0  0  0  0  0  0  0  0  0  0  0  0
  -12.2699   -9.2721    1.7586 C   0  0  0  0  0  0  0  0  0  0  0  0
  -12.0756   -7.6963    2.3718 N   0  0  0  0  0  0  0  0  0  0  0  0
  -13.4834   -7.3030    3.7844 C   0  0  0  0  0  0  0  0  0  0  0  0
  -12.0909   -3.9969    4.0464 C   0  0  0  0  0  0  0  0  0  0  0  0
  -13.2785   -5.3526    5.3452 S   0  0  0  0  0  0  0  0  0  0  0  0
  -14.4861   -5.5685    3.5692 C   0  0  0  0  0  0  0  0  0  0  0  0
  -13.5276   -4.3647    2.6237 N   0  0  0  0  0  0  0  0  0  0  0  0
  -11.5543   -4.5411    2.4744 C   0  0  0  0  0  0  0  0  0  0  0  0
   -9.8583   -5.5347    1.4611 C   0  0  0  0  0  0  0  0  0  0  0  0
   -8.9318   -7.0398    0.8278 C   0  0  0  0  0  0  0  0  0  0  0  0
   -9.3732  -11.1962    0.5785 C   0  0  0  0  0  0  0  0  0  0  0  0
   -8.3998   -9.9781    1.3342 S   0  0  0  0  0  0  0  0  0  0  0  0
   -9.0883   -8.7925    0.2353 C   0  0  0  0  0  0  0  0  0  0  0  0
   -9.4205   -9.4899   -0.9814 N   0  0  0  0  0  0  0  0  0  0  0  0
   -9.9522  -10.9378   -0.7666 C   0  0  0  0  0  0  0  0  0  0  0  0
  -11.5240  -11.6179   -1.5719 C   0  0  0  0  0  0  0  0  0  0  0  0
  -11.9566  -11.2012   -2.6669 O   0  0  0  0  0  0  0  0  0  0  0  0
   -0.9279   -1.0215   -1.3365 H   0  0  0  0  0  0  0  0  0  0  0  0
   -1.5162   -1.5966    0.1982 H   0  0  0  0  0  0  0  0  0  0  0  0
    0.5878   -1.2938    1.3109 H   0  0  0  0  0  0  0  0  0  0  0  0
    1.0258   -2.0045   -0.2444 H   0  0  0  0  0  0  0  0  0  0  0  0
    2.1447    0.3745    0.4972 H   0  0  0  0  0  0  0  0  0  0  0  0
    1.6717    0.1093   -1.1646 H   0  0  0  0  0  0  0  0  0  0  0  0
   -0.3465    0.5870   -2.6055 H   0  0  0  0  0  0  0  0  0  0  0  0
   -0.1454    2.1368   -3.3292 H   0  0  0  0  0  0  0  0  0  0  0  0
    0.3495    1.8883    0.8499 H   0  0  0  0  0  0  0  0  0  0  0  0
   -2.2583   -0.9124    2.0790 H   0  0  0  0  0  0  0  0  0  0  0  0
   -3.9429   -0.9237    2.5672 H   0  0  0  0  0  0  0  0  0  0  0  0
   -4.3077    0.9293    1.0273 H   0  0  0  0  0  0  0  0  0  0  0  0
   -3.7234   -2.4196   -2.9782 H   0  0  0  0  0  0  0  0  0  0  0  0
   -6.8797   -8.6589   -0.1373 H   0  0  0  0  0  0  0  0  0  0  0  0
   -5.7484   -7.2862   -1.7003 H   0  0  0  0  0  0  0  0  0  0  0  0
  -11.4757   -6.1855    1.4389 H   0  0  0  0  0  0  0  0  0  0  0  0
  -12.2773   -6.5565    0.3079 H   0  0  0  0  0  0  0  0  0  0  0  0
  -11.5362   -4.6898    0.3063 H   0  0  0  0  0  0  0  0  0  0  0  0
  -12.9478   -5.4819    3.3944 H   0  0  0  0  0  0  0  0  0  0  0  0
  -12.1867   -6.1366    3.0826 H   0  0  0  0  0  0  0  0  0  0  0  0
  -16.6771   -6.6634   -0.5576 H   0  0  0  0  0  0  0  0  0  0  0  0
  -17.4871   -6.8277   -1.8649 H   0  0  0  0  0  0  0  0  0  0  0  0
  -18.0876   -7.6011   -0.2932 H   0  0  0  0  0  0  0  0  0  0  0  0
  -14.7099   -9.2603   -2.3644 H   0  0  0  0  0  0  0  0  0  0  0  0
  -15.5139   -7.8444   -3.0992 H   0  0  0  0  0  0  0  0  0  0  0  0
  -15.0575   -7.6128   -1.6091 H   0  0  0  0  0  0  0  0  0  0  0  0
  -17.2060   -9.3646   -1.9286 H   0  0  0  0  0  0  0  0  0  0  0  0
  -18.8521  -14.8192    0.7463 H   0  0  0  0  0  0  0  0  0  0  0  0
  -17.8768  -14.8222    2.2514 H   0  0  0  0  0  0  0  0  0  0  0  0
  -18.8554  -13.4502    1.8207 H   0  0  0  0  0  0  0  0  0  0  0  0
  -11.2869  -13.4459    0.6372 H   0  0  0  0  0  0  0  0  0  0  0  0
  -10.0174  -14.2821    0.1338 H   0  0  0  0  0  0  0  0  0  0  0  0
  -11.2206  -13.7604   -1.0040 H   0  0  0  0  0  0  0  0  0  0  0  0
  -11.9737  -15.4707    1.3123 H   0  0  0  0  0  0  0  0  0  0  0  0
  -14.1203  -15.2224   -2.3062 H   0  0  0  0  0  0  0  0  0  0  0  0
  -12.4361  -14.7361   -2.3728 H   0  0  0  0  0  0  0  0  0  0  0  0
  -12.7395  -12.6437    0.0961 H   0  0  0  0  0  0  0  0  0  0  0  0
  -13.9848  -12.7656   -2.4702 H   0  0  0  0  0  0  0  0  0  0  0  0
  -17.8387   -9.1651    1.1450 H   0  0  0  0  0  0  0  0  0  0  0  0
  -15.5341  -10.2446   -0.3492 H   0  0  0  0  0  0  0  0  0  0  0  0
  -10.9268  -10.2140    4.3498 H   0  0  0  0  0  0  0  0  0  0  0  0
  -12.8865  -11.9996    3.7250 H   0  0  0  0  0  0  0  0  0  0  0  0
  -13.0996  -11.4075    2.0773 H   0  0  0  0  0  0  0  0  0  0  0  0
  -11.1760  -11.9168    0.2502 H   0  0  0  0  0  0  0  0  0  0  0  0
   -9.9622   -7.2564   -0.8828 H   0  0  0  0  0  0  0  0  0  0  0  0
  -10.3980   -4.8064   -1.0882 H   0  0  0  0  0  0  0  0  0  0  0  0
  -12.3318   -4.2311   -2.4654 H   0  0  0  0  0  0  0  0  0  0  0  0
  -14.3398   -5.7370   -2.0428 H   0  0  0  0  0  0  0  0  0  0  0  0
  -13.6965   -8.0304   -1.0193 H   0  0  0  0  0  0  0  0  0  0  0  0
  -12.8588  -10.0061   -1.9982 H   0  0  0  0  0  0  0  0  0  0  0  0
  -11.2380   -9.4001   -1.6344 H   0  0  0  0  0  0  0  0  0  0  0  0
  -15.2257   -8.7528    4.4892 H   0  0  0  0  0  0  0  0  0  0  0  0
  -13.2695   -3.4928    4.3228 H   0  0  0  0  0  0  0  0  0  0  0  0
   -9.6706  -11.9242    1.3312 H   0  0  0  0  0  0  0  0  0  0  0  0
  1  2  1  0  0  0  0
  1 89  1  0  0  0  0
  1 90  1  0  0  0  0
  2 91  1  0  0  0  0
  2 92  1  0  0  0  0
  3  2  1  0  0  0  0
  3 93  1  0  0  0  0
  3 94  1  0  0  0  0
  5 95  1  0  0  0  0
  5 96  1  0  0  0  0
  6  4  2  0  0  0  0
  6  5  1  0  0  0  0
  7  3  1  0  0  0  0
  7 97  1  1  0  0  0
  7  6  1  0  0  0  0
  8  1  1  0  0  0  0
  8  7  1  0  0  0  0
 10  8  1  0  0  0  0
 10  9  2  0  0  0  0
 11 12  1  0  0  0  0
 12 98  1  0  0  0  0
 12 99  1  0  0  0  0
 13 10  1  0  0  0  0
 13 12  1  0  0  0  0
 13100  1  1  0  0  0
 14 13  1  0  0  0  0
 15 11  1  0  0  0  0
 15 14  2  0  0  0  0
 16 17  1  0  0  0  0
 17101  1  0  0  0  0
 18 15  1  0  0  0  0
 18 17  2  0  0  0  0
 19 18  1  0  0  0  0
 20 16  1  0  0  0  0
 20 19  2  0  0  0  0
 21 22  1  0  0  0  0
 21102  1  0  0  0  0
 22 23  2  0  0  0  0
 22103  1  0  0  0  0
 23 20  1  0  0  0  0
 24 23  1  0  0  0  0
 28104  1  0  0  0  0
 28105  1  0  0  0  0
 28106  1  0  0  0  0
 29 28  1  0  0  0  0
 30 29  1  0  0  0  0
 30107  1  0  0  0  0
 30108  1  0  0  0  0
 31 30  1  0  0  0  0
 32 31  1  0  0  0  0
 33109  1  0  0  0  0
 33110  1  0  0  0  0
 33111  1  0  0  0  0
 34112  1  0  0  0  0
 34113  1  0  0  0  0
 34114  1  0  0  0  0
 35 33  1  0  0  0  0
 35 34  1  0  0  0  0
 35115  1  0  0  0  0
 37116  1  0  0  0  0
 37117  1  0  0  0  0
 37118  1  0  0  0  0
 38 37  1  0  0  0  0
 39 38  1  0  0  0  0
 41119  1  0  0  0  0
 41120  1  0  0  0  0
 41121  1  0  0  0  0
 42 41  1  0  0  0  0
 42122  1  0  0  0  0
 43 40  2  0  0  0  0
 43 42  1  0  0  0  0
 44 43  1  0  0  0  0
 44123  1  0  0  0  0
 44124  1  0  0  0  0
 45 46  1  0  0  0  0
 45125  1  0  0  0  0
 46 44  1  0  0  0  0
 46 47  1  0  0  0  0
 46126  1  6  0  0  0
 47 39  1  0  0  0  0
 47 48  2  0  0  0  0
 48 49  1  0  0  0  0
 49 38  2  0  0  0  0
 49 50  1  0  0  0  0
 50 36  2  0  0  0  0
 50 51  1  0  0  0  0
 51 52  1  0  0  0  0
 51127  1  0  0  0  0
 52 35  1  0  0  0  0
 52 53  1  0  0  0  0
 52128  1  6  0  0  0
 53 32  1  0  0  0  0
 53 54  2  0  0  0  0
 54 55  1  0  0  0  0
 55 31  2  0  0  0  0
 55 56  1  0  0  0  0
 56 27  2  0  0  0  0
 56 57  1  0  0  0  0
 57 58  1  0  0  0  0
 57129  1  0  0  0  0
 58130  1  0  0  0  0
 58131  1  0  0  0  0
 59 26  2  0  0  0  0
 59 58  1  0  0  0  0
 60 59  1  0  0  0  0
 60132  1  0  0  0  0
 61 62  2  0  0  0  0
 61133  1  0  0  0  0
 62 63  1  0  0  0  0
 62134  1  0  0  0  0
 63135  1  0  0  0  0
 64 63  2  0  0  0  0
 64136  1  0  0  0  0
 65 64  1  0  0  0  0
 65137  1  0  0  0  0
 66 61  1  0  0  0  0
 66 65  2  0  0  0  0
 67138  1  0  0  0  0
 68139  1  6  0  0  0
 68 67  1  0  0  0  0
 68 66  1  0  0  0  0
 69 25  1  1  0  0  0
 69 60  1  0  0  0  0
 69 68  1  0  0  0  0
 70 71  1  0  0  0  0
 70140  1  0  0  0  0
 72 69  1  0  0  0  0
 72 71  1  0  0  0  0
 73 72  2  0  0  0  0
 74 70  2  0  0  0  0
 74 73  1  0  0  0  0
 75 76  1  0  0  0  0
 75141  1  0  0  0  0
 77 74  1  0  0  0  0
 77 76  1  0  0  0  0
 78 77  2  0  0  0  0
 79 75  2  0  0  0  0
 79 78  1  0  0  0  0
 80 24  2  0  0  0  0
 80 79  1  0  0  0  0
 81 21  2  0  0  0  0
 81 80  1  0  0  0  0
 82 83  1  0  0  0  0
 82142  1  0  0  0  0
 84 81  1  0  0  0  0
 84 83  1  0  0  0  0
 85 84  2  0  0  0  0
 86 82  2  0  0  0  0
 86 85  1  0  0  0  0
 87 45  1  0  0  0  0
 87 86  1  0  0  0  0
 88 87  2  0  0  0  0
M  END
>  <DRUGBANK_ID>
DB02975

>  <SECONDARY_ACCESSION_NUMBERS>
EXPT01578

>  <COMMON_NAME>
GE-2270A

>  <CAS_NUMBER>
134861-34-0

>  <UNII>
JB4J58L2K1

$$$$
