
 OpenBabel10282417163D

 28 30  0  0  0  0  0  0  0  0999 V2000
   -2.4764   -1.2102   -0.0023 C   0  0  0  0  0  0  0  0  0  0  0  0
   -3.4058   -0.2177   -0.0020 N   0  0  0  0  0  0  0  0  0  0  0  0
   -3.0042    1.0743   -0.0013 C   0  0  0  0  0  0  0  0  0  0  0  0
   -1.6841    1.4938   -0.0008 C   0  0  0  0  0  0  0  0  0  0  0  0
    1.6957    1.4917    0.0003 C   0  0  0  0  0  0  0  0  0  0  0  0
    3.0477    1.1283    0.0010 C   0  0  0  0  0  0  0  0  0  0  0  0
    3.4379   -0.2124    0.0009 C   0  0  0  0  0  0  0  0  0  0  0  0
    2.4771   -1.2285   -0.0000 C   0  0  0  0  0  0  0  0  0  0  0  0
   -0.0010   -1.6216   -0.0012 N   0  0  0  0  0  0  0  0  0  0  0  0
    1.1307   -0.8473   -0.0004 C   0  0  0  0  0  0  0  0  0  0  0  0
   -1.1308   -0.8412   -0.0011 C   0  0  0  0  0  0  0  0  0  0  0  0
    0.7163    0.4824   -0.0001 C   0  0  0  0  0  0  0  0  0  0  0  0
   -0.7118    0.4862   -0.0004 C   0  0  0  0  0  0  0  0  0  0  0  0
   -2.9327   -2.6334   -0.0069 C   0  0  0  0  0  0  0  0  0  0  0  0
    4.7936   -0.4135    0.0019 O   0  0  0  0  0  0  0  0  0  0  0  0
    5.2288   -1.7677    0.0021 C   0  0  0  0  0  0  0  0  0  0  0  0
   -3.8093    1.8042   -0.0019 H   0  0  0  0  0  0  0  0  0  0  0  0
   -1.4224    2.5444   -0.0010 H   0  0  0  0  0  0  0  0  0  0  0  0
    1.4090    2.5386    0.0003 H   0  0  0  0  0  0  0  0  0  0  0  0
    3.8048    1.9086    0.0017 H   0  0  0  0  0  0  0  0  0  0  0  0
    2.7369   -2.2795   -0.0004 H   0  0  0  0  0  0  0  0  0  0  0  0
   -0.0034   -2.6324   -0.0017 H   0  0  0  0  0  0  0  0  0  0  0  0
   -2.5504   -3.1410   -0.8985 H   0  0  0  0  0  0  0  0  0  0  0  0
   -2.5478   -3.1486    0.8792 H   0  0  0  0  0  0  0  0  0  0  0  0
   -4.0233   -2.7036   -0.0057 H   0  0  0  0  0  0  0  0  0  0  0  0
    4.8924   -2.2888    0.9051 H   0  0  0  0  0  0  0  0  0  0  0  0
    4.8940   -2.2884   -0.9017 H   0  0  0  0  0  0  0  0  0  0  0  0
    6.3220   -1.7708    0.0030 H   0  0  0  0  0  0  0  0  0  0  0  0
  1 11  1  0  0  0  0
  1 14  1  0  0  0  0
  2  1  2  0  0  0  0
  2  3  1  0  0  0  0
  3  4  2  0  0  0  0
  3 17  1  0  0  0  0
  4 13  1  0  0  0  0
  4 18  1  0  0  0  0
  5 12  1  0  0  0  0
  5 19  1  0  0  0  0
  6  5  2  0  0  0  0
  6 20  1  0  0  0  0
  7  8  2  0  0  0  0
  7  6  1  0  0  0  0
  7 15  1  0  0  0  0
  8 10  1  0  0  0  0
  8 21  1  0  0  0  0
  9 22  1  0  0  0  0
 10  9  1  0  0  0  0
 11  9  1  0  0  0  0
 12 10  2  0  0  0  0
 13 11  2  0  0  0  0
 13 12  1  0  0  0  0
 14 23  1  0  0  0  0
 14 24  1  0  0  0  0
 14 25  1  0  0  0  0
 15 16  1  0  0  0  0
 16 26  1  0  0  0  0
 16 27  1  0  0  0  0
 16 28  1  0  0  0  0
M  END
>  <DRUGBANK_ID>
DB07919

>  <COMMON_NAME>
Harmine

>  <CAS_NUMBER>
442-51-3

>  <UNII>
4FHH5G48T7

>  <SYNONYMS>
Banisterine; Leucoharmine; Telepathine; Yageine; Yajeine

$$$$
