
 OpenBabel10282417143D

 36 35  0  0  1  0  0  0  0  0999 V2000
   -2.1849   -3.8200   -1.3904 O   0  0  0  0  0  0  0  0  0  0  0  0
   -2.0222   -3.7755   -2.8076 C   0  0  2  0  0  0  0  0  0  0  0  0
   -3.3553   -3.9124   -3.6104 C   0  0  0  0  0  0  0  0  0  0  0  0
   -3.2011   -3.9926   -5.0889 O   0  0  0  0  0  0  0  0  0  0  0  0
   -2.5710   -2.5998   -5.8988 P   0  0  0  0  0  0  0  0  0  0  0  0
   -3.7508   -1.7614   -5.1609 O   0  0  0  0  0  0  0  0  0  0  0  0
   -1.4800   -2.7358   -4.8092 O   0  0  0  0  0  0  0  0  0  0  0  0
   -2.0070   -1.3532   -6.6237 O   0  0  0  0  0  0  0  0  0  0  0  0
   -0.8705   -4.7313   -3.3668 C   0  0  1  0  0  0  0  0  0  0  0  0
   -0.9450   -5.0296   -4.7907 O   0  0  0  0  0  0  0  0  0  0  0  0
    0.5555   -4.1500   -3.1130 C   0  0  2  0  0  0  0  0  0  0  0  0
    0.6766   -3.8989   -1.7066 O   0  0  0  0  0  0  0  0  0  0  0  0
    1.0767   -2.9225   -3.9632 C   0  0  2  0  0  0  0  0  0  0  0  0
    0.6904   -1.6979   -3.3267 O   0  0  0  0  0  0  0  0  0  0  0  0
    0.9316   -2.9907   -5.5322 C   0  0  0  0  0  0  0  0  0  0  0  0
    0.9229   -1.7773   -6.2376 O   0  0  0  0  0  0  0  0  0  0  0  0
    0.3462   -0.3053   -5.5351 P   0  0  0  0  0  0  0  0  0  0  0  0
    0.1574    0.2640   -7.0358 O   0  0  0  0  0  0  0  0  0  0  0  0
   -0.9394   -0.7971   -4.8306 O   0  0  0  0  0  0  0  0  0  0  0  0
   -0.1699    1.0122   -4.9064 O   0  0  0  0  0  0  0  0  0  0  0  0
   -2.0134   -4.7069   -1.0473 H   0  0  0  0  0  0  0  0  0  0  0  0
   -1.7220   -2.7273   -2.8788 H   0  0  0  0  0  0  0  0  0  0  0  0
   -3.8677   -4.8211   -3.2862 H   0  0  0  0  0  0  0  0  0  0  0  0
   -4.0252   -3.0839   -3.3504 H   0  0  0  0  0  0  0  0  0  0  0  0
   -4.4728   -1.5365   -5.7760 H   0  0  0  0  0  0  0  0  0  0  0  0
   -1.1365   -3.6069   -4.9923 H   0  0  0  0  0  0  0  0  0  0  0  0
   -0.9743   -5.7010   -2.8812 H   0  0  0  0  0  0  0  0  0  0  0  0
   -1.8638   -5.2920   -5.0288 H   0  0  0  0  0  0  0  0  0  0  0  0
    1.2635   -4.9496   -3.3501 H   0  0  0  0  0  0  0  0  0  0  0  0
   -0.1161   -3.3954   -1.4206 H   0  0  0  0  0  0  0  0  0  0  0  0
    2.1619   -2.8865   -3.8265 H   0  0  0  0  0  0  0  0  0  0  0  0
   -0.2577   -1.4988   -3.5265 H   0  0  0  0  0  0  0  0  0  0  0  0
    1.6870   -3.6775   -5.9272 H   0  0  0  0  0  0  0  0  0  0  0  0
    0.0840   -3.4605   -6.0135 H   0  0  0  0  0  0  0  0  0  0  0  0
    0.9246    0.8594   -7.1713 H   0  0  0  0  0  0  0  0  0  0  0  0
   -1.5117   -0.7608   -5.6277 H   0  0  0  0  0  0  0  0  0  0  0  0
  1 21  1  0  0  0  0
  2  9  1  0  0  0  0
  2 22  1  6  0  0  0
  2  3  1  0  0  0  0
  2  1  1  0  0  0  0
  3  4  1  0  0  0  0
  3 23  1  0  0  0  0
  3 24  1  0  0  0  0
  4  5  1  0  0  0  0
  5  6  1  0  0  0  0
  5  7  1  0  0  0  0
  5  8  2  0  0  0  0
  6 25  1  0  0  0  0
  7 26  1  0  0  0  0
  9 10  1  0  0  0  0
  9 27  1  1  0  0  0
 10 28  1  0  0  0  0
 11 29  1  6  0  0  0
 11 12  1  0  0  0  0
 11  9  1  0  0  0  0
 12 30  1  0  0  0  0
 13 15  1  0  0  0  0
 13 31  1  1  0  0  0
 13 14  1  0  0  0  0
 13 11  1  0  0  0  0
 14 32  1  0  0  0  0
 15 16  1  0  0  0  0
 15 33  1  0  0  0  0
 15 34  1  0  0  0  0
 16 17  1  0  0  0  0
 17 18  1  0  0  0  0
 17 19  1  0  0  0  0
 17 20  2  0  0  0  0
 18 35  1  0  0  0  0
 19 36  1  0  0  0  0
M  END
>  <DRUGBANK_ID>
DB04733

>  <COMMON_NAME>
1,6-DI-O-PHOSPHONO-D-MANNITOL

$$$$
