
 OpenBabel10282417123D

 26 25  0  0  1  0  0  0  0  0999 V2000
   -1.2879    1.6147    2.3599 O   0  0  0  0  0  0  0  0  0  0  0  0
   -0.1015    1.4019    3.1247 C   0  0  0  0  0  0  0  0  0  0  0  0
   -0.4388    1.3446    4.6375 C   0  0  2  0  0  0  0  0  0  0  0  0
   -1.1052    0.0985    4.9382 O   0  0  0  0  0  0  0  0  0  0  0  0
   -1.3664    2.4863    5.1062 C   0  0  1  0  0  0  0  0  0  0  0  0
   -1.6755    2.3069    6.5006 O   0  0  0  0  0  0  0  0  0  0  0  0
   -0.8134    3.9103    4.8663 C   0  0  2  0  0  0  0  0  0  0  0  0
   -1.2458    4.3729    3.5726 O   0  0  0  0  0  0  0  0  0  0  0  0
    0.7283    4.1112    4.9990 C   0  0  2  0  0  0  0  0  0  0  0  0
    1.5067    3.1001    4.3497 O   0  0  0  0  0  0  0  0  0  0  0  0
    1.1808    4.1168    6.4528 C   0  0  0  0  0  0  0  0  0  0  0  0
    2.6144    4.1212    6.4824 O   0  0  0  0  0  0  0  0  0  0  0  0
   -1.8217    0.8076    2.3927 H   0  0  0  0  0  0  0  0  0  0  0  0
    0.3949    0.4825    2.8029 H   0  0  0  0  0  0  0  0  0  0  0  0
    0.5437    2.2157    2.8006 H   0  0  0  0  0  0  0  0  0  0  0  0
    0.4553    1.3122    5.2706 H   0  0  0  0  0  0  0  0  0  0  0  0
   -1.4959   -0.2350    4.1174 H   0  0  0  0  0  0  0  0  0  0  0  0
   -2.3322    2.3806    4.5925 H   0  0  0  0  0  0  0  0  0  0  0  0
   -2.0301    1.3967    6.5696 H   0  0  0  0  0  0  0  0  0  0  0  0
   -1.2934    4.5936    5.5817 H   0  0  0  0  0  0  0  0  0  0  0  0
   -1.2415    3.6177    2.9510 H   0  0  0  0  0  0  0  0  0  0  0  0
    1.0101    5.0417    4.4948 H   0  0  0  0  0  0  0  0  0  0  0  0
    2.4567    3.3292    4.4548 H   0  0  0  0  0  0  0  0  0  0  0  0
    0.8131    5.0051    6.9692 H   0  0  0  0  0  0  0  0  0  0  0  0
    0.8447    3.2217    6.9844 H   0  0  0  0  0  0  0  0  0  0  0  0
    2.8940    3.2040    6.3053 H   0  0  0  0  0  0  0  0  0  0  0  0
  1  2  1  0  0  0  0
  1 13  1  0  0  0  0
  2 14  1  0  0  0  0
  2 15  1  0  0  0  0
  3  5  1  0  0  0  0
  3 16  1  1  0  0  0
  3  4  1  0  0  0  0
  3  2  1  0  0  0  0
  4 17  1  0  0  0  0
  5  6  1  0  0  0  0
  5 18  1  6  0  0  0
  6 19  1  0  0  0  0
  7 20  1  1  0  0  0
  7  8  1  0  0  0  0
  7  5  1  0  0  0  0
  8 21  1  0  0  0  0
  9 11  1  0  0  0  0
  9 22  1  6  0  0  0
  9 10  1  0  0  0  0
  9  7  1  0  0  0  0
 10 23  1  0  0  0  0
 11 12  1  0  0  0  0
 11 24  1  0  0  0  0
 11 25  1  0  0  0  0
 12 26  1  0  0  0  0
M  END
>  <DRUGBANK_ID>
DB01638

>  <SECONDARY_ACCESSION_NUMBERS>
EXPT02939; DB09391

>  <COMMON_NAME>
Sorbitol

>  <CAS_NUMBER>
50-70-4

>  <UNII>
506T60A25R

>  <SYNONYMS>
(−)-sorbitol; D-(−)-sorbitol; D-glucitol; D-Sorbit; D-Sorbitol; G-ol; L-Gulitol; Sorbitol

$$$$
