
 OpenBabel10282417183D

 43 46  0  0  0  0  0  0  0  0999 V2000
    0.4732    1.4034   -0.0259 C   0  0  0  0  0  0  0  0  0  0  0  0
   -0.4160   -1.3614   -0.0206 N   0  0  0  0  0  0  0  0  0  0  0  0
    0.9002   -1.0048   -0.0032 N   0  0  0  0  0  0  0  0  0  0  0  0
    1.4216    0.2528   -0.0295 C   0  0  0  0  0  0  0  0  0  0  0  0
    2.6437    0.4448   -0.0368 O   0  0  0  0  0  0  0  0  0  0  0  0
   -1.3145   -0.4261   -0.0283 C   0  0  0  0  0  0  0  0  0  0  0  0
   -2.7669   -0.7818   -0.0369 C   0  0  0  0  0  0  0  0  0  0  0  0
   -4.6688   -1.7914    1.1186 C   0  0  0  0  0  0  0  0  0  0  0  0
   -3.2993   -1.4947    1.0466 C   0  0  0  0  0  0  0  0  0  0  0  0
   -3.5982   -0.2991   -1.0594 C   0  0  0  0  0  0  0  0  0  0  0  0
   -4.9626   -0.6281   -1.0188 C   0  0  0  0  0  0  0  0  0  0  0  0
   -5.4600   -1.3611    0.0513 C   0  0  0  0  0  0  0  0  0  0  0  0
   -6.7925   -1.5192   -0.2385 N   0  0  0  0  0  0  0  0  0  0  0  0
   -5.9600   -0.3428   -1.9178 N   0  0  0  0  0  0  0  0  0  0  0  0
   -7.0571   -0.8971   -1.4367 C   0  0  0  0  0  0  0  0  0  0  0  0
   -8.3845   -0.8383   -2.0381 C   0  0  0  0  0  0  0  0  0  0  0  0
  -10.6956   -0.0945   -1.9432 C   0  0  0  0  0  0  0  0  0  0  0  0
   -9.4482   -0.2639   -1.3351 C   0  0  0  0  0  0  0  0  0  0  0  0
   -8.5936   -1.2623   -3.3546 C   0  0  0  0  0  0  0  0  0  0  0  0
   -9.8341   -1.0590   -3.9731 C   0  0  0  0  0  0  0  0  0  0  0  0
  -10.8999   -0.5016   -3.2613 C   0  0  0  0  0  0  0  0  0  0  0  0
  -12.0848   -0.4087   -3.9411 O   0  0  0  0  0  0  0  0  0  0  0  0
  -13.2104    0.0341   -3.1870 C   0  0  0  0  0  0  0  0  0  0  0  0
   -0.9998    1.0507    0.0604 C   0  0  3  0  0  0  0  0  0  0  0  0
   -1.5181    1.5467    1.4104 C   0  0  0  0  0  0  0  0  0  0  0  0
    0.7639    2.0230    0.8326 H   0  0  0  0  0  0  0  0  0  0  0  0
    0.6569    2.0070   -0.9217 H   0  0  0  0  0  0  0  0  0  0  0  0
    1.5761   -1.7635   -0.0019 H   0  0  0  0  0  0  0  0  0  0  0  0
   -5.0851   -2.3395    1.9571 H   0  0  0  0  0  0  0  0  0  0  0  0
   -2.6492   -1.7974    1.8657 H   0  0  0  0  0  0  0  0  0  0  0  0
   -3.2197    0.2991   -1.8795 H   0  0  0  0  0  0  0  0  0  0  0  0
   -7.4654   -2.0357    0.3081 H   0  0  0  0  0  0  0  0  0  0  0  0
  -11.4782    0.3870   -1.3674 H   0  0  0  0  0  0  0  0  0  0  0  0
   -9.3078    0.0972   -0.3198 H   0  0  0  0  0  0  0  0  0  0  0  0
   -7.7886   -1.7403   -3.9098 H   0  0  0  0  0  0  0  0  0  0  0  0
   -9.9603   -1.3231   -5.0209 H   0  0  0  0  0  0  0  0  0  0  0  0
  -13.3844   -0.6017   -2.3107 H   0  0  0  0  0  0  0  0  0  0  0  0
  -13.0884    1.0817   -2.8928 H   0  0  0  0  0  0  0  0  0  0  0  0
  -14.0983   -0.0335   -3.8223 H   0  0  0  0  0  0  0  0  0  0  0  0
   -1.5265    1.5621   -0.7546 H   0  0  0  0  0  0  0  0  0  0  0  0
   -1.3087    2.6124    1.5332 H   0  0  0  0  0  0  0  0  0  0  0  0
   -2.5954    1.4019    1.5232 H   0  0  0  0  0  0  0  0  0  0  0  0
   -1.0215    0.9974    2.2199 H   0  0  0  0  0  0  0  0  0  0  0  0
  1  4  1  0  0  0  0
  1 26  1  0  0  0  0
  1 27  1  0  0  0  0
  2  6  2  0  0  0  0
  3  2  1  0  0  0  0
  3 28  1  0  0  0  0
  4  3  1  0  0  0  0
  4  5  2  0  0  0  0
  6  7  1  0  0  0  0
  7 10  1  0  0  0  0
  8  9  1  0  0  0  0
  8 12  2  0  0  0  0
  8 29  1  0  0  0  0
  9  7  2  0  0  0  0
  9 30  1  0  0  0  0
 10 11  2  0  0  0  0
 10 31  1  0  0  0  0
 11 14  1  0  0  0  0
 12 11  1  0  0  0  0
 13 12  1  0  0  0  0
 13 15  1  0  0  0  0
 13 32  1  0  0  0  0
 14 15  2  0  0  0  0
 15 16  1  0  0  0  0
 16 19  1  0  0  0  0
 17 18  1  0  0  0  0
 17 21  2  0  0  0  0
 17 33  1  0  0  0  0
 18 16  2  0  0  0  0
 18 34  1  0  0  0  0
 19 20  2  0  0  0  0
 19 35  1  0  0  0  0
 20 21  1  0  0  0  0
 20 36  1  0  0  0  0
 21 22  1  0  0  0  0
 22 23  1  0  0  0  0
 23 37  1  0  0  0  0
 23 38  1  0  0  0  0
 23 39  1  0  0  0  0
 24  1  1  0  0  0  0
 24  6  1  0  0  0  0
 24 25  1  0  0  0  0
 24 40  1  0  0  0  0
 25 41  1  0  0  0  0
 25 42  1  0  0  0  0
 25 43  1  0  0  0  0
M  END
>  <DRUGBANK_ID>
DB11450

>  <COMMON_NAME>
Pimobendan

>  <CAS_NUMBER>
74150-27-9

>  <UNII>
34AP3BBP9T

>  <SYNONYMS>
dl-Pimobendan; Pimobendan; Pimobendane; Pimobendanum

$$$$
