
 OpenBabel10282417243D

 38 39  0  0  0  0  0  0  0  0999 V2000
   -2.5477   -0.1314   -0.0383 C   0  0  0  0  0  0  0  0  0  0  0  0
   -1.0662    0.0757    0.1518 C   0  0  0  0  0  0  0  0  0  0  0  0
   -0.6368    1.3287   -0.0327 N   0  0  0  0  0  0  0  0  0  0  0  0
    0.6961    1.2516    0.0195 N   0  0  0  0  0  0  0  0  0  0  0  0
    1.1774   -0.0100    0.1488 C   0  0  0  0  0  0  0  0  0  0  0  0
    2.6091   -0.3848    0.0083 C   0  0  0  0  0  0  0  0  0  0  0  0
    0.0722   -0.8016    0.3881 C   0  0  0  0  0  0  0  0  0  0  0  0
    0.2214   -2.2764    0.4563 C   0  0  0  0  0  0  0  0  0  0  0  0
   -0.5778   -3.1474    1.3912 C   0  0  0  0  0  0  0  0  0  0  0  0
   -2.0554   -2.9113    1.1876 C   0  0  0  0  0  0  0  0  0  0  0  0
   -2.7384   -3.3170   -0.0478 O   0  0  0  0  0  0  0  0  0  0  0  0
   -2.3180   -3.1415   -1.3522 C   0  0  0  0  0  0  0  0  0  0  0  0
   -3.2183   -2.5777   -2.2740 C   0  0  0  0  0  0  0  0  0  0  0  0
   -2.7824   -2.1593   -3.5566 C   0  0  0  0  0  0  0  0  0  0  0  0
   -1.4129   -2.1820   -3.8538 C   0  0  0  0  0  0  0  0  0  0  0  0
   -0.5507   -2.8216   -2.9828 C   0  0  0  0  0  0  0  0  0  0  0  0
   -1.0763   -3.4944   -1.8754 C   0  0  0  0  0  0  0  0  0  0  0  0
   -0.2433   -4.2944   -1.1913 F   0  0  0  0  0  0  0  0  0  0  0  0
   -3.6737   -1.6883   -4.6646 C   0  0  0  0  0  0  0  0  0  0  0  0
   -4.9953   -1.6351   -4.3816 O   0  0  0  0  0  0  0  0  0  0  0  0
   -3.2455   -1.4225   -5.7599 O   0  0  0  0  0  0  0  0  0  0  0  0
   -2.7350   -0.6781   -0.9524 H   0  0  0  0  0  0  0  0  0  0  0  0
   -3.1022   -0.6128    0.7666 H   0  0  0  0  0  0  0  0  0  0  0  0
   -3.0935    0.8060   -0.1532 H   0  0  0  0  0  0  0  0  0  0  0  0
    1.2181    2.1126   -0.0595 H   0  0  0  0  0  0  0  0  0  0  0  0
    2.9042   -1.0367    0.8379 H   0  0  0  0  0  0  0  0  0  0  0  0
    2.7897   -0.9462   -0.9197 H   0  0  0  0  0  0  0  0  0  0  0  0
    3.2574    0.4920    0.0095 H   0  0  0  0  0  0  0  0  0  0  0  0
   -0.1689   -2.3954   -0.5072 H   0  0  0  0  0  0  0  0  0  0  0  0
    1.2376   -2.6720    0.3300 H   0  0  0  0  0  0  0  0  0  0  0  0
   -0.3850   -4.2124    1.2284 H   0  0  0  0  0  0  0  0  0  0  0  0
   -0.2744   -2.9066    2.4193 H   0  0  0  0  0  0  0  0  0  0  0  0
   -2.6316   -3.3448    2.0133 H   0  0  0  0  0  0  0  0  0  0  0  0
   -2.1536   -1.8666    1.4452 H   0  0  0  0  0  0  0  0  0  0  0  0
   -4.2369   -2.4114   -1.9452 H   0  0  0  0  0  0  0  0  0  0  0  0
   -1.0160   -1.7642   -4.7797 H   0  0  0  0  0  0  0  0  0  0  0  0
    0.5266   -2.7839   -3.1365 H   0  0  0  0  0  0  0  0  0  0  0  0
   -5.2878   -1.8669   -3.4893 H   0  0  0  0  0  0  0  0  0  0  0  0
  1  2  1  0  0  0  0
  1 22  1  0  0  0  0
  1 23  1  0  0  0  0
  1 24  1  0  0  0  0
  2  3  2  0  0  0  0
  2  7  1  0  0  0  0
  3  4  1  0  0  0  0
  4  5  1  0  0  0  0
  4 25  1  0  0  0  0
  5  6  1  0  0  0  0
  5  7  2  0  0  0  0
  6 26  1  0  0  0  0
  6 27  1  0  0  0  0
  6 28  1  0  0  0  0
  7  8  1  0  0  0  0
  8  9  1  0  0  0  0
  8 29  1  0  0  0  0
  8 30  1  0  0  0  0
  9 10  1  0  0  0  0
  9 31  1  0  0  0  0
  9 32  1  0  0  0  0
 10 11  1  0  0  0  0
 10 33  1  0  0  0  0
 10 34  1  0  0  0  0
 11 12  1  0  0  0  0
 12 13  2  0  0  0  0
 12 17  1  0  0  0  0
 13 14  1  0  0  0  0
 13 35  1  0  0  0  0
 14 15  2  0  0  0  0
 14 19  1  0  0  0  0
 15 16  1  0  0  0  0
 15 36  1  0  0  0  0
 16 17  2  0  0  0  0
 16 37  1  0  0  0  0
 17 18  1  0  0  0  0
 19 20  1  0  0  0  0
 19 21  2  0  0  0  0
 20 38  1  0  0  0  0
M  END
>  <DRUGBANK_ID>
DB17999

>  <COMMON_NAME>
Acoramidis

>  <CAS_NUMBER>
1446711-81-4

>  <UNII>
T12B44A1OE

>  <SYNONYMS>
3-(3-(3,5-dimethyl-1h-pyrazol-4-yl)propoxy)-4-fluorobenzoic acid; Acoramidis

$$$$
