
 OpenBabel10282417153D

 34 33  0  0  0  0  0  0  0  0999 V2000
    0.9324   -0.0356    0.0958 C   0  0  0  0  0  0  0  0  0  0  0  0
    0.4616    1.3793    0.3248 C   0  0  0  0  0  0  0  0  0  0  0  0
    0.9776    2.2930   -0.7661 C   0  0  0  0  0  0  0  0  0  0  0  0
    0.4074    2.0167   -2.1709 C   0  0  0  0  0  0  0  0  0  0  0  0
   -1.1501    1.8569   -2.2650 C   0  0  0  0  0  0  0  0  0  0  0  0
   -2.0222    3.1057   -2.1281 C   0  0  0  0  0  0  0  0  0  0  0  0
   -1.9252    3.9140   -3.4184 C   0  0  0  0  0  0  0  0  0  0  0  0
    1.0844    2.9398   -3.2048 C   0  0  0  0  0  0  0  0  0  0  0  0
    1.5939    2.4663   -4.2245 O   0  0  0  0  0  0  0  0  0  0  0  0
    1.1033    4.3105   -3.0403 N   0  0  0  0  0  0  0  0  0  0  0  0
    0.2854    5.1130   -2.1208 C   0  0  0  0  0  0  0  0  0  0  0  0
    0.9201    6.1992   -1.3206 C   0  0  0  0  0  0  0  0  0  0  0  0
    0.4102    7.2831   -1.1572 O   0  0  0  0  0  0  0  0  0  0  0  0
    2.0067    5.7434   -0.6369 N   0  0  0  0  0  0  0  0  0  0  0  0
    0.5532   -0.4347   -0.8492 H   0  0  0  0  0  0  0  0  0  0  0  0
    0.5813   -0.6810    0.9008 H   0  0  0  0  0  0  0  0  0  0  0  0
    2.0260   -0.0598    0.0622 H   0  0  0  0  0  0  0  0  0  0  0  0
   -0.6303    1.4309    0.3861 H   0  0  0  0  0  0  0  0  0  0  0  0
    0.8311    1.7521    1.2866 H   0  0  0  0  0  0  0  0  0  0  0  0
    0.7495    3.2822   -0.3934 H   0  0  0  0  0  0  0  0  0  0  0  0
    2.0754    2.2686   -0.8143 H   0  0  0  0  0  0  0  0  0  0  0  0
    0.7857    1.0184   -2.4506 H   0  0  0  0  0  0  0  0  0  0  0  0
   -1.4033    1.3946   -3.2269 H   0  0  0  0  0  0  0  0  0  0  0  0
   -1.4869    1.1358   -1.5118 H   0  0  0  0  0  0  0  0  0  0  0  0
   -3.0782    2.8757   -1.9620 H   0  0  0  0  0  0  0  0  0  0  0  0
   -1.7461    3.6254   -1.2021 H   0  0  0  0  0  0  0  0  0  0  0  0
   -2.3190    3.4290   -4.3069 H   0  0  0  0  0  0  0  0  0  0  0  0
   -2.3021    4.9353   -3.3211 H   0  0  0  0  0  0  0  0  0  0  0  0
   -0.9025    3.9826   -3.7330 H   0  0  0  0  0  0  0  0  0  0  0  0
    1.2946    4.7566   -3.9343 H   0  0  0  0  0  0  0  0  0  0  0  0
   -0.5338    5.6102   -2.6305 H   0  0  0  0  0  0  0  0  0  0  0  0
   -0.1381    4.4644   -1.3806 H   0  0  0  0  0  0  0  0  0  0  0  0
    2.3406    4.8025   -0.7945 H   0  0  0  0  0  0  0  0  0  0  0  0
    2.5142    6.3932   -0.0634 H   0  0  0  0  0  0  0  0  0  0  0  0
  1  2  1  0  0  0  0
  1 15  1  0  0  0  0
  1 16  1  0  0  0  0
  1 17  1  0  0  0  0
  2  3  1  0  0  0  0
  2 18  1  0  0  0  0
  2 19  1  0  0  0  0
  3  4  1  0  0  0  0
  3 20  1  0  0  0  0
  3 21  1  0  0  0  0
  4  5  1  0  0  0  0
  4  8  1  0  0  0  0
  4 22  1  0  0  0  0
  5  6  1  0  0  0  0
  5 23  1  0  0  0  0
  5 24  1  0  0  0  0
  6  7  1  0  0  0  0
  6 25  1  0  0  0  0
  6 26  1  0  0  0  0
  7 27  1  0  0  0  0
  7 28  1  0  0  0  0
  7 29  1  0  0  0  0
  8  9  2  0  0  0  0
  8 10  1  0  0  0  0
 10 11  1  0  0  0  0
 10 30  1  0  0  0  0
 11 12  1  0  0  0  0
 11 31  1  0  0  0  0
 11 32  1  0  0  0  0
 12 13  2  0  0  0  0
 12 14  1  0  0  0  0
 14 33  1  0  0  0  0
 14 34  1  0  0  0  0
M  END
>  <DRUGBANK_ID>
DB06657

>  <COMMON_NAME>
Valrocemide

>  <CAS_NUMBER>
92262-58-3

>  <UNII>
1C7GO6OW7L

>  <SYNONYMS>
N-Valproylglycinamide; Valrocemide

$$$$
