
 OpenBabel10282417133D

 81 84  0  0  1  0  0  0  0  0999 V2000
    2.5559   -2.9640   -0.0092 C   0  0  0  0  0  0  0  0  0  0  0  0
    3.2786   -1.8148    0.5109 C   0  0  1  0  0  0  0  0  0  0  0  0
    3.2687   -0.9120   -0.8595 C   0  0  0  0  0  0  0  0  0  0  0  0
    2.1001   -0.2406   -0.1771 C   0  0  1  0  0  0  0  0  0  0  0  0
    0.7880   -1.6456   -0.1130 C   0  0  2  0  0  0  0  0  0  0  0  0
    1.2918   -2.8602    0.7928 C   0  0  0  0  0  0  0  0  0  0  0  0
    2.2619    1.3237   -0.5054 C   0  0  0  0  0  0  0  0  0  0  0  0
    1.2007    1.7325    0.4286 C   0  0  0  0  0  0  0  0  0  0  0  0
   -0.0701    0.7820    0.0678 C   0  0  0  0  0  0  0  0  0  0  0  0
   -0.3148   -0.6890    0.1248 C   0  0  0  0  0  0  0  0  0  0  0  0
   -1.0926    1.8253   -0.3761 C   0  0  1  0  0  0  0  0  0  0  0  0
   -2.4387    0.6725   -0.5118 C   0  0  2  0  0  0  0  0  0  0  0  0
   -2.6431   -0.7011    0.3359 C   0  0  0  0  0  0  0  0  0  0  0  0
   -1.6163   -1.6214    0.0143 C   0  0  0  0  0  0  0  0  0  0  0  0
   -1.7994    2.4072    0.7465 C   0  0  0  0  0  0  0  0  0  0  0  0
   -3.1725    2.3516    1.1664 C   0  0  0  0  0  0  0  0  0  0  0  0
   -3.6785    1.1754    0.4041 C   0  0  2  0  0  0  0  0  0  0  0  0
   -5.1979    1.2740    0.5170 C   0  0  1  0  0  0  0  0  0  0  0  0
   -5.7592    1.6951   -0.8878 C   0  0  0  0  0  0  0  0  0  0  0  0
   -5.7783   -0.0171    1.0747 C   0  0  0  0  0  0  0  0  0  0  0  0
   -5.4418    0.7402   -2.0809 C   0  0  0  0  0  0  0  0  0  0  0  0
   -5.9371   -0.6666   -1.9126 C   0  0  0  0  0  0  0  0  0  0  0  0
   -6.9084   -1.2423   -2.6221 C   0  0  0  0  0  0  0  0  0  0  0  0
   -7.4483   -2.5842   -2.2274 C   0  0  0  0  0  0  0  0  0  0  0  0
   -7.3963   -0.5518   -3.8431 C   0  0  0  0  0  0  0  0  0  0  0  0
   -3.9961    0.7950   -0.5262 H   0  0  0  0  0  0  0  0  0  0  0  0
   -2.2731   -0.0995   -1.9624 C   0  0  0  0  0  0  0  0  0  0  0  0
    0.1234   -3.2570   -0.9708 C   0  0  0  0  0  0  0  0  0  0  0  0
   -0.6679    3.6905   -0.1580 C   0  0  0  0  0  0  0  0  0  0  0  0
    2.5937   -1.3211    1.9095 O   0  0  0  0  0  0  0  0  0  0  0  0
    4.6057   -0.6411   -1.3566 C   0  0  0  0  0  0  0  0  0  0  0  0
    2.4805    0.0779    0.7871 H   0  0  0  0  0  0  0  0  0  0  0  0
    2.2745   -0.6584   -2.1646 C   0  0  0  0  0  0  0  0  0  0  0  0
    3.0715   -3.8142   -0.4687 H   0  0  0  0  0  0  0  0  0  0  0  0
    2.2437   -2.7346   -1.0629 H   0  0  0  0  0  0  0  0  0  0  0  0
    4.2299   -2.0645    0.9812 H   0  0  0  0  0  0  0  0  0  0  0  0
    1.0550   -3.9292    0.9168 H   0  0  0  0  0  0  0  0  0  0  0  0
    1.0334   -2.6103    1.8165 H   0  0  0  0  0  0  0  0  0  0  0  0
    3.2586    1.7711   -0.2591 H   0  0  0  0  0  0  0  0  0  0  0  0
    2.1187    1.7841   -1.5013 H   0  0  0  0  0  0  0  0  0  0  0  0
    1.3085    2.8294    0.3844 H   0  0  0  0  0  0  0  0  0  0  0  0
    1.3763    1.6141    1.4991 H   0  0  0  0  0  0  0  0  0  0  0  0
   -3.5809   -1.2185    0.0309 H   0  0  0  0  0  0  0  0  0  0  0  0
   -2.7313   -0.6451    1.4298 H   0  0  0  0  0  0  0  0  0  0  0  0
   -2.1901   -2.6013   -0.1314 H   0  0  0  0  0  0  0  0  0  0  0  0
   -1.4753   -1.9282   -1.0317 H   0  0  0  0  0  0  0  0  0  0  0  0
   -2.3083    2.7525   -0.2074 H   0  0  0  0  0  0  0  0  0  0  0  0
   -1.3224    1.7454    1.4568 H   0  0  0  0  0  0  0  0  0  0  0  0
   -3.6708    3.3157    1.0003 H   0  0  0  0  0  0  0  0  0  0  0  0
   -2.9769    2.3130    2.2390 H   0  0  0  0  0  0  0  0  0  0  0  0
   -5.4631    2.0636    1.2374 H   0  0  0  0  0  0  0  0  0  0  0  0
   -6.8338    1.8355   -0.8068 H   0  0  0  0  0  0  0  0  0  0  0  0
   -5.3113    2.6714   -1.1416 H   0  0  0  0  0  0  0  0  0  0  0  0
   -5.3769   -0.2651    2.0595 H   0  0  0  0  0  0  0  0  0  0  0  0
   -6.8674    0.0153    1.0763 H   0  0  0  0  0  0  0  0  0  0  0  0
   -5.4973   -0.8817    0.5001 H   0  0  0  0  0  0  0  0  0  0  0  0
   -5.8019    1.2113   -2.9917 H   0  0  0  0  0  0  0  0  0  0  0  0
   -4.3767    0.6924   -2.2885 H   0  0  0  0  0  0  0  0  0  0  0  0
   -5.4648   -1.3248   -1.1984 H   0  0  0  0  0  0  0  0  0  0  0  0
   -8.5312   -2.5249   -2.0801 H   0  0  0  0  0  0  0  0  0  0  0  0
   -7.2173   -3.3319   -2.9876 H   0  0  0  0  0  0  0  0  0  0  0  0
   -7.0264   -2.9376   -1.2754 H   0  0  0  0  0  0  0  0  0  0  0  0
   -7.8413    0.4140   -3.5841 H   0  0  0  0  0  0  0  0  0  0  0  0
   -6.5336   -0.3748   -4.5013 H   0  0  0  0  0  0  0  0  0  0  0  0
   -8.1161   -1.1558   -4.3890 H   0  0  0  0  0  0  0  0  0  0  0  0
   -1.2990   -0.6012   -1.9577 H   0  0  0  0  0  0  0  0  0  0  0  0
   -2.9930   -0.9356   -2.0891 H   0  0  0  0  0  0  0  0  0  0  0  0
   -2.0192    0.3678   -2.9082 H   0  0  0  0  0  0  0  0  0  0  0  0
    0.6298   -4.2426   -0.7562 H   0  0  0  0  0  0  0  0  0  0  0  0
   -0.7985   -3.6675   -0.4703 H   0  0  0  0  0  0  0  0  0  0  0  0
   -0.0580   -3.2905   -2.0348 H   0  0  0  0  0  0  0  0  0  0  0  0
    0.0616    3.9330    0.6539 H   0  0  0  0  0  0  0  0  0  0  0  0
   -0.4493    4.3386   -1.0125 H   0  0  0  0  0  0  0  0  0  0  0  0
   -1.4841    4.3161    0.3476 H   0  0  0  0  0  0  0  0  0  0  0  0
    1.6892   -0.8828    1.8139 H   0  0  0  0  0  0  0  0  0  0  0  0
    4.9855    0.3852   -1.2951 H   0  0  0  0  0  0  0  0  0  0  0  0
    5.3353   -1.3552   -0.9513 H   0  0  0  0  0  0  0  0  0  0  0  0
    4.6070   -0.9134   -2.4232 H   0  0  0  0  0  0  0  0  0  0  0  0
    2.8517   -0.3340   -3.0370 H   0  0  0  0  0  0  0  0  0  0  0  0
    1.5198   -1.3927   -2.3569 H   0  0  0  0  0  0  0  0  0  0  0  0
    1.5900    0.2205   -2.1532 H   0  0  0  0  0  0  0  0  0  0  0  0
  1  2  1  0  0  0  0
  1 34  1  0  0  0  0
  1 35  1  0  0  0  0
  2  3  1  0  0  0  0
  2 36  1  1  0  0  0
  2 30  1  0  0  0  0
  3  4  1  0  0  0  0
  3 31  1  0  0  0  0
  3 33  1  0  0  0  0
  4  5  1  0  0  0  0
  4  7  1  0  0  0  0
  4 32  1  6  0  0  0
  5  6  1  0  0  0  0
  5 28  1  1  0  0  0
  6  1  1  0  0  0  0
  6 37  1  0  0  0  0
  6 38  1  0  0  0  0
  7  8  1  0  0  0  0
  7 39  1  0  0  0  0
  7 40  1  0  0  0  0
  8  9  1  0  0  0  0
  8 41  1  0  0  0  0
  8 42  1  0  0  0  0
  9 10  2  0  0  0  0
  9 11  1  0  0  0  0
 10  5  1  0  0  0  0
 11 12  1  0  0  0  0
 11 15  1  0  0  0  0
 11 29  1  6  0  0  0
 12 13  1  0  0  0  0
 12 27  1  1  0  0  0
 13 14  1  0  0  0  0
 13 43  1  0  0  0  0
 13 44  1  0  0  0  0
 14 10  1  0  0  0  0
 14 45  1  0  0  0  0
 14 46  1  0  0  0  0
 15 16  1  0  0  0  0
 15 47  1  0  0  0  0
 15 48  1  0  0  0  0
 16 17  1  0  0  0  0
 16 49  1  0  0  0  0
 16 50  1  0  0  0  0
 17 12  1  0  0  0  0
 17 18  1  0  0  0  0
 17 26  1  6  0  0  0
 18 19  1  0  0  0  0
 18 20  1  0  0  0  0
 18 51  1  1  0  0  0
 19 21  1  0  0  0  0
 19 52  1  0  0  0  0
 19 53  1  0  0  0  0
 20 54  1  0  0  0  0
 20 55  1  0  0  0  0
 20 56  1  0  0  0  0
 21 22  1  0  0  0  0
 21 57  1  0  0  0  0
 21 58  1  0  0  0  0
 22 23  2  0  0  0  0
 22 59  1  0  0  0  0
 23 24  1  0  0  0  0
 23 25  1  0  0  0  0
 24 60  1  0  0  0  0
 24 61  1  0  0  0  0
 24 62  1  0  0  0  0
 25 63  1  0  0  0  0
 25 64  1  0  0  0  0
 25 65  1  0  0  0  0
 27 66  1  0  0  0  0
 27 67  1  0  0  0  0
 27 68  1  0  0  0  0
 28 69  1  0  0  0  0
 28 70  1  0  0  0  0
 28 71  1  0  0  0  0
 29 72  1  0  0  0  0
 29 73  1  0  0  0  0
 29 74  1  0  0  0  0
 30 75  1  0  0  0  0
 31 76  1  0  0  0  0
 31 77  1  0  0  0  0
 31 78  1  0  0  0  0
 33 79  1  0  0  0  0
 33 80  1  0  0  0  0
 33 81  1  0  0  0  0
M  END
>  <DRUGBANK_ID>
DB03696

>  <SECONDARY_ACCESSION_NUMBERS>
EXPT02002

>  <COMMON_NAME>
Lanosterol

>  <CAS_NUMBER>
79-63-0

>  <UNII>
1J05Z83K3M

$$$$
