
 OpenBabel10282417223D

 25 24  0  0  0  0  0  0  0  0999 V2000
    1.0136    0.0454   -0.0550 C   0  0  0  0  0  0  0  0  0  0  0  0
    0.5798   -0.8632   -1.1675 C   0  0  0  0  0  0  0  0  0  0  0  0
   -0.3412   -2.0286   -0.8439 C   0  0  0  0  0  0  0  0  0  0  0  0
   -1.6922   -1.9300   -1.5538 C   0  0  0  0  0  0  0  0  0  0  0  0
   -1.5689   -1.9463   -3.0523 C   0  0  0  0  0  0  0  0  0  0  0  0
   -2.0795   -2.8875   -3.8568 C   0  0  0  0  0  0  0  0  0  0  0  0
   -1.8736   -2.8684   -5.2889 C   0  0  0  0  0  0  0  0  0  0  0  0
   -2.3982   -3.7937   -6.1047 C   0  0  0  0  0  0  0  0  0  0  0  0
   -2.2049   -3.7928   -7.5357 C   0  0  0  0  0  0  0  0  0  0  0  0
   -2.7448   -4.7201   -8.3354 C   0  0  0  0  0  0  0  0  0  0  0  0
    0.9860   -0.6465   -2.3131 O   0  0  0  0  0  0  0  0  0  0  0  0
    0.6447   -0.2974    0.9127 H   0  0  0  0  0  0  0  0  0  0  0  0
    0.6323    1.0513   -0.2490 H   0  0  0  0  0  0  0  0  0  0  0  0
    2.1068    0.0588   -0.0310 H   0  0  0  0  0  0  0  0  0  0  0  0
    0.1792   -2.9561   -1.1103 H   0  0  0  0  0  0  0  0  0  0  0  0
   -0.5100   -2.0679    0.2389 H   0  0  0  0  0  0  0  0  0  0  0  0
   -2.3247   -2.7625   -1.2188 H   0  0  0  0  0  0  0  0  0  0  0  0
   -2.2015   -1.0070   -1.2525 H   0  0  0  0  0  0  0  0  0  0  0  0
   -1.0030   -1.1286   -3.4971 H   0  0  0  0  0  0  0  0  0  0  0  0
   -2.6575   -3.7053   -3.4351 H   0  0  0  0  0  0  0  0  0  0  0  0
   -1.2572   -2.0669   -5.6942 H   0  0  0  0  0  0  0  0  0  0  0  0
   -3.0066   -4.5935   -5.6892 H   0  0  0  0  0  0  0  0  0  0  0  0
   -1.5978   -3.0025   -7.9729 H   0  0  0  0  0  0  0  0  0  0  0  0
   -2.5827   -4.6886   -9.4081 H   0  0  0  0  0  0  0  0  0  0  0  0
   -3.3582   -5.5277   -7.9484 H   0  0  0  0  0  0  0  0  0  0  0  0
  1  2  1  0  0  0  0
  1 12  1  0  0  0  0
  1 13  1  0  0  0  0
  1 14  1  0  0  0  0
  2  3  1  0  0  0  0
  2 11  2  0  0  0  0
  3  4  1  0  0  0  0
  3 15  1  0  0  0  0
  3 16  1  0  0  0  0
  4  5  1  0  0  0  0
  4 17  1  0  0  0  0
  4 18  1  0  0  0  0
  5  6  2  0  0  0  0
  5 19  1  0  0  0  0
  6  7  1  0  0  0  0
  6 20  1  0  0  0  0
  7  8  2  0  0  0  0
  7 21  1  0  0  0  0
  8  9  1  0  0  0  0
  8 22  1  0  0  0  0
  9 10  2  0  0  0  0
  9 23  1  0  0  0  0
 10 24  1  0  0  0  0
 10 25  1  0  0  0  0
M  END
>  <DRUGBANK_ID>
DB15619

>  <COMMON_NAME>
(5Z,7E,9)-decatrien-2-one

$$$$
