
 OpenBabel10282417213D

 33 35  0  0  0  0  0  0  0  0999 V2000
    0.8292   -0.2277    0.0609 F   0  0  0  0  0  0  0  0  0  0  0  0
    2.1766   -0.1896   -0.0160 C   0  0  0  0  0  0  0  0  0  0  0  0
    2.6768   -1.2121    0.7048 F   0  0  0  0  0  0  0  0  0  0  0  0
    2.5318   -0.3104   -1.3080 F   0  0  0  0  0  0  0  0  0  0  0  0
    2.5867    1.0369    0.5163 O   0  0  0  0  0  0  0  0  0  0  0  0
    3.9120    1.3056    0.5092 C   0  0  0  0  0  0  0  0  0  0  0  0
    4.8698    1.0187   -0.4728 C   0  0  0  0  0  0  0  0  0  0  0  0
    6.2055    1.3927   -0.2574 C   0  0  0  0  0  0  0  0  0  0  0  0
    6.4739    2.1888    0.8447 C   0  0  0  0  0  0  0  0  0  0  0  0
    7.6793    2.1813    1.5639 N   0  0  0  0  0  0  0  0  0  0  0  0
    7.7838    2.7270    2.8524 C   0  0  0  0  0  0  0  0  0  0  0  0
    6.7984    2.6325    3.8513 C   0  0  0  0  0  0  0  0  0  0  0  0
    6.7962    3.5126    4.9326 C   0  0  0  0  0  0  0  0  0  0  0  0
    7.9820    4.1978    5.1870 C   0  0  0  0  0  0  0  0  0  0  0  0
    8.2337    4.8955    6.3800 C   0  0  0  0  0  0  0  0  0  0  0  0
    9.5517    5.2464    6.6841 C   0  0  0  0  0  0  0  0  0  0  0  0
   10.5894    4.8736    5.8299 C   0  0  0  0  0  0  0  0  0  0  0  0
   10.3124    4.2560    4.6244 C   0  0  0  0  0  0  0  0  0  0  0  0
   11.6164    3.5581    3.7108 Cl  0  0  0  0  0  0  0  0  0  0  0  0
    9.0147    4.0085    4.2437 C   0  0  0  0  0  0  0  0  0  0  0  0
    8.8609    3.4570    3.0484 N   0  0  0  0  0  0  0  0  0  0  0  0
    5.4051    2.8218    1.4554 C   0  0  0  0  0  0  0  0  0  0  0  0
    4.2347    2.1395    1.5485 C   0  0  0  0  0  0  0  0  0  0  0  0
    4.6152    0.4987   -1.3889 H   0  0  0  0  0  0  0  0  0  0  0  0
    6.9916    1.0563   -0.9297 H   0  0  0  0  0  0  0  0  0  0  0  0
    8.5217    2.3619    1.0287 H   0  0  0  0  0  0  0  0  0  0  0  0
    5.9704    1.9365    3.7446 H   0  0  0  0  0  0  0  0  0  0  0  0
    5.9396    3.5520    5.6013 H   0  0  0  0  0  0  0  0  0  0  0  0
    7.4482    5.0896    7.1094 H   0  0  0  0  0  0  0  0  0  0  0  0
    9.7900    5.7372    7.6223 H   0  0  0  0  0  0  0  0  0  0  0  0
   11.6273    5.0265    6.1023 H   0  0  0  0  0  0  0  0  0  0  0  0
    5.5693    3.6664    2.1129 H   0  0  0  0  0  0  0  0  0  0  0  0
    3.5771    2.3163    2.3914 H   0  0  0  0  0  0  0  0  0  0  0  0
  1  2  1  0  0  0  0
  2  3  1  0  0  0  0
  2  4  1  0  0  0  0
  2  5  1  0  0  0  0
  5  6  1  0  0  0  0
  6  7  2  0  0  0  0
  6 23  1  0  0  0  0
  7  8  1  0  0  0  0
  7 24  1  0  0  0  0
  8  9  2  0  0  0  0
  8 25  1  0  0  0  0
  9 10  1  0  0  0  0
  9 22  1  0  0  0  0
 10 11  1  0  0  0  0
 10 26  1  0  0  0  0
 11 12  2  0  0  0  0
 11 21  1  0  0  0  0
 12 13  1  0  0  0  0
 12 27  1  0  0  0  0
 13 14  2  0  0  0  0
 13 28  1  0  0  0  0
 14 15  1  0  0  0  0
 14 20  1  0  0  0  0
 15 16  2  0  0  0  0
 15 29  1  0  0  0  0
 16 17  1  0  0  0  0
 16 30  1  0  0  0  0
 17 18  2  0  0  0  0
 17 31  1  0  0  0  0
 18 19  1  0  0  0  0
 18 20  1  0  0  0  0
 20 21  2  0  0  0  0
 22 23  2  0  0  0  0
 22 32  1  0  0  0  0
 23 33  1  0  0  0  0
M  END
>  <DRUGBANK_ID>
DB14828

>  <COMMON_NAME>
ABX-464

>  <CAS_NUMBER>
1258453-75-6

>  <UNII>
26RU378B9V

$$$$
