Esculin
 OpenBabel10282417203D

 40 42  0  0  1  0  0  0  0  0999 V2000
    0.5582    0.1896    1.5020 O   0  0  0  0  0  0  0  0  0  0  0  0
    1.0796   -1.0307    1.9893 C   0  0  0  0  0  0  0  0  0  0  0  0
    0.8703   -2.2651    1.0847 C   0  0  1  0  0  0  0  0  0  0  0  0
    1.4615   -2.5579   -0.2174 O   0  0  0  0  0  0  0  0  0  0  0  0
    0.6948   -3.6954   -0.7902 C   0  0  1  0  0  0  0  0  0  0  0  0
    0.9881   -4.1040   -2.1519 O   0  0  0  0  0  0  0  0  0  0  0  0
    2.2116   -4.6518   -2.4184 C   0  0  0  0  0  0  0  0  0  0  0  0
    2.7140   -5.8773   -1.9437 C   0  0  0  0  0  0  0  0  0  0  0  0
    2.0443   -6.8481   -1.2539 O   0  0  0  0  0  0  0  0  0  0  0  0
    4.0178   -6.2574   -2.2036 C   0  0  0  0  0  0  0  0  0  0  0  0
    4.7628   -5.5128   -3.0920 C   0  0  0  0  0  0  0  0  0  0  0  0
    6.0436   -6.0076   -3.3726 O   0  0  0  0  0  0  0  0  0  0  0  0
    6.8482   -5.3717   -4.2894 C   0  0  0  0  0  0  0  0  0  0  0  0
    7.9842   -5.7818   -4.5545 O   0  0  0  0  0  0  0  0  0  0  0  0
    6.3054   -4.1737   -4.9468 C   0  0  0  0  0  0  0  0  0  0  0  0
    5.0845   -3.6918   -4.6813 C   0  0  0  0  0  0  0  0  0  0  0  0
    4.2521   -4.3726   -3.7045 C   0  0  0  0  0  0  0  0  0  0  0  0
    2.9709   -3.9342   -3.3537 C   0  0  0  0  0  0  0  0  0  0  0  0
    0.6915   -4.9210    0.1400 C   0  0  2  0  0  0  0  0  0  0  0  0
   -0.1374   -5.9814   -0.3678 O   0  0  0  0  0  0  0  0  0  0  0  0
    0.3833   -4.6462    1.5822 C   0  0  1  0  0  0  0  0  0  0  0  0
    0.7222   -5.7947    2.3710 O   0  0  0  0  0  0  0  0  0  0  0  0
    1.2219   -3.4633    1.9990 C   0  0  2  0  0  0  0  0  0  0  0  0
    1.0373   -3.2478    3.3938 O   0  0  0  0  0  0  0  0  0  0  0  0
    1.1136    0.4836    0.7686 H   0  0  0  0  0  0  0  0  0  0  0  0
    2.0814   -0.9232    2.4185 H   0  0  0  0  0  0  0  0  0  0  0  0
    0.4029   -1.2144    2.8371 H   0  0  0  0  0  0  0  0  0  0  0  0
   -0.1751   -2.1127    0.8051 H   0  0  0  0  0  0  0  0  0  0  0  0
   -0.3431   -3.3439   -0.8723 H   0  0  0  0  0  0  0  0  0  0  0  0
    1.0845   -6.6546   -1.2025 H   0  0  0  0  0  0  0  0  0  0  0  0
    4.4246   -7.1558   -1.7505 H   0  0  0  0  0  0  0  0  0  0  0  0
    6.9637   -3.7009   -5.6635 H   0  0  0  0  0  0  0  0  0  0  0  0
    4.7060   -2.8087   -5.1825 H   0  0  0  0  0  0  0  0  0  0  0  0
    2.5445   -3.0413   -3.8072 H   0  0  0  0  0  0  0  0  0  0  0  0
    1.7216   -5.2720    0.1930 H   0  0  0  0  0  0  0  0  0  0  0  0
   -1.0711   -5.7607   -0.1947 H   0  0  0  0  0  0  0  0  0  0  0  0
   -0.6817   -4.4617    1.7471 H   0  0  0  0  0  0  0  0  0  0  0  0
    1.6718   -5.9873    2.2399 H   0  0  0  0  0  0  0  0  0  0  0  0
    2.2895   -3.7020    1.8760 H   0  0  0  0  0  0  0  0  0  0  0  0
    0.0818   -3.2371    3.5766 H   0  0  0  0  0  0  0  0  0  0  0  0
  1  2  1  0  0  0  0
  1 25  1  0  0  0  0
  2 26  1  0  0  0  0
  2 27  1  0  0  0  0
  3  4  1  0  0  0  0
  3 23  1  0  0  0  0
  3 28  1  6  0  0  0
  3  2  1  0  0  0  0
  4  5  1  0  0  0  0
  5  6  1  0  0  0  0
  5 19  1  0  0  0  0
  5 29  1  6  0  0  0
  6  7  1  0  0  0  0
  7  8  2  0  0  0  0
  7 18  1  0  0  0  0
  8  9  1  0  0  0  0
  8 10  1  0  0  0  0
  9 30  1  0  0  0  0
 10 11  2  0  0  0  0
 10 31  1  0  0  0  0
 11 12  1  0  0  0  0
 11 17  1  0  0  0  0
 12 13  1  0  0  0  0
 13 14  2  0  0  0  0
 13 15  1  0  0  0  0
 15 16  2  0  0  0  0
 15 32  1  0  0  0  0
 16 17  1  0  0  0  0
 16 33  1  0  0  0  0
 17 18  2  0  0  0  0
 18 34  1  0  0  0  0
 19 20  1  0  0  0  0
 19 21  1  0  0  0  0
 19 35  1  6  0  0  0
 20 36  1  0  0  0  0
 21 22  1  0  0  0  0
 21 23  1  0  0  0  0
 21 37  1  1  0  0  0
 22 38  1  0  0  0  0
 23 24  1  0  0  0  0
 23 39  1  6  0  0  0
 24 40  1  0  0  0  0
M  END
>  <DRUGBANK_ID>
DB13155

>  <COMMON_NAME>
Esculin

>  <CAS_NUMBER>
531-75-9

>  <UNII>
1Y1L18LQAF

>  <SYNONYMS>
6-(beta-D-Glucopyranosyloxy)-7-hydroxy-2H-1-benzopyran-2-one; 6-(beta-D-Glucopyranosyloxy)-7-hydroxy-cumarin; 6,7-Dihydroxycoumarin 6-glucoside; 6,7-Dihydroxycoumarin-6-O-glucoside; Aesculin; Aesculinum; Esculetin 6-O-glucoside; esculetin 6-Î²-D-glucoside; Esculina; Esculoside

$$$$
