L23
 OpenBabel10282417173D

 35 37  0  0  0  0  0  0  0  0999 V2000
   -2.6962    0.7525    0.0467 Cl  0  0  0  0  0  0  0  0  0  0  0  0
   -1.1653   -0.0579    0.0413 C   0  0  0  0  0  0  0  0  0  0  0  0
   -1.2175   -1.4608    0.0386 C   0  0  0  0  0  0  0  0  0  0  0  0
   -0.0479   -2.2102    0.0405 C   0  0  0  0  0  0  0  0  0  0  0  0
    1.1712   -1.5596   -0.0454 C   0  0  0  0  0  0  0  0  0  0  0  0
    1.2182   -0.1682   -0.1748 C   0  0  0  0  0  0  0  0  0  0  0  0
    2.7378    0.4297   -0.7571 Cl  0  0  0  0  0  0  0  0  0  0  0  0
    0.0641    0.6328   -0.0249 C   0  0  0  0  0  0  0  0  0  0  0  0
    0.1256    2.1498    0.0229 C   0  0  0  0  0  0  0  0  0  0  0  0
    0.7278    2.6923    1.2491 N   0  0  0  0  0  0  0  0  0  0  0  0
    2.0334    2.5373    1.6226 C   0  0  0  0  0  0  0  0  0  0  0  0
    0.1695    3.5563    2.1774 C   0  0  0  0  0  0  0  0  0  0  0  0
   -1.2220    4.0797    2.1518 C   0  0  0  0  0  0  0  0  0  0  0  0
    1.0541    3.8817    3.1120 N   0  0  0  0  0  0  0  0  0  0  0  0
    2.2185    3.2448    2.7786 C   0  0  0  0  0  0  0  0  0  0  0  0
    3.5039    3.3070    3.4608 C   0  0  0  0  0  0  0  0  0  0  0  0
    4.6324    3.6838    2.7545 C   0  0  0  0  0  0  0  0  0  0  0  0
    5.8084    3.6585    3.4600 C   0  0  0  0  0  0  0  0  0  0  0  0
    5.8894    3.2642    4.7392 N   0  0  0  0  0  0  0  0  0  0  0  0
    4.7479    2.8757    5.3242 C   0  0  0  0  0  0  0  0  0  0  0  0
    3.5457    2.8888    4.7400 N   0  0  0  0  0  0  0  0  0  0  0  0
    4.8340    2.3944    6.5986 N   0  0  0  0  0  0  0  0  0  0  0  0
   -2.1744   -1.9791    0.0357 H   0  0  0  0  0  0  0  0  0  0  0  0
   -0.0814   -3.2959    0.0572 H   0  0  0  0  0  0  0  0  0  0  0  0
    2.0908   -2.1405   -0.0708 H   0  0  0  0  0  0  0  0  0  0  0  0
    0.6874    2.5477   -0.8291 H   0  0  0  0  0  0  0  0  0  0  0  0
   -0.8671    2.5906   -0.0725 H   0  0  0  0  0  0  0  0  0  0  0  0
    2.7547    1.9519    1.0943 H   0  0  0  0  0  0  0  0  0  0  0  0
   -1.7292    3.8146    3.0844 H   0  0  0  0  0  0  0  0  0  0  0  0
   -1.2029    5.1720    2.0728 H   0  0  0  0  0  0  0  0  0  0  0  0
   -1.8282    3.7013    1.3289 H   0  0  0  0  0  0  0  0  0  0  0  0
    4.6026    3.9798    1.7160 H   0  0  0  0  0  0  0  0  0  0  0  0
    6.7471    3.9576    3.0025 H   0  0  0  0  0  0  0  0  0  0  0  0
    3.9572    2.2714    7.0783 H   0  0  0  0  0  0  0  0  0  0  0  0
    5.6939    2.5887    7.0853 H   0  0  0  0  0  0  0  0  0  0  0  0
  1  2  1  0  0  0  0
  2  3  1  0  0  0  0
  2  8  2  0  0  0  0
  3  4  2  0  0  0  0
  3 23  1  0  0  0  0
  4  5  1  0  0  0  0
  4 24  1  0  0  0  0
  5  6  2  0  0  0  0
  5 25  1  0  0  0  0
  6  7  1  0  0  0  0
  6  8  1  0  0  0  0
  8  9  1  0  0  0  0
  9 10  1  0  0  0  0
  9 26  1  0  0  0  0
  9 27  1  0  0  0  0
 10 11  1  0  0  0  0
 10 12  1  0  0  0  0
 11 15  2  0  0  0  0
 11 28  1  0  0  0  0
 12 13  1  0  0  0  0
 12 14  2  0  0  0  0
 13 29  1  0  0  0  0
 13 30  1  0  0  0  0
 13 31  1  0  0  0  0
 14 15  1  0  0  0  0
 15 16  1  0  0  0  0
 16 17  1  0  0  0  0
 16 21  2  0  0  0  0
 17 18  2  0  0  0  0
 17 32  1  0  0  0  0
 18 19  1  0  0  0  0
 18 33  1  0  0  0  0
 19 20  2  0  0  0  0
 20 21  1  0  0  0  0
 20 22  1  0  0  0  0
 22 34  1  0  0  0  0
 22 35  1  0  0  0  0
M  END
>  <DRUGBANK_ID>
DB08076

>  <COMMON_NAME>
4-[1-(2,6-dichlorobenzyl)-2-methyl-1H-imidazol-4-yl]pyrimidin-2-amine

$$$$
