
 OpenBabel10282417123D

 19 18  0  0  0  0  0  0  0  0999 V2000
    0.9488    0.0559    0.0652 O   0  0  0  0  0  0  0  0  0  0  0  0
    2.3831   -0.0341    0.1287 C   0  0  0  0  0  0  0  0  0  0  0  0
    2.8942   -1.5897   -2.3421 O   0  0  0  0  0  0  0  0  0  0  0  0
    2.3926   -2.2015   -1.1527 C   0  0  0  0  0  0  0  0  0  0  0  0
    2.8822   -1.4652    0.0919 C   0  0  1  0  0  0  0  0  0  0  0  0
    1.6272    2.2919    0.6322 O   0  0  0  0  0  0  0  0  0  0  0  0
    0.6252    1.6602   -1.6010 O   0  0  0  0  0  0  0  0  0  0  0  0
    4.3143   -1.4485    0.1173 O   0  0  0  0  0  0  0  0  0  0  0  0
    0.3722    1.6860    0.0079 P   0  0  0  0  0  0  0  0  0  0  0  0
   -0.2045    3.3160   -0.0494 O   0  0  0  0  0  0  0  0  0  0  0  0
    2.8182    0.5384   -0.7013 H   0  0  0  0  0  0  0  0  0  0  0  0
    2.7510    0.4133    1.0595 H   0  0  0  0  0  0  0  0  0  0  0  0
    2.4907   -0.7028   -2.4263 H   0  0  0  0  0  0  0  0  0  0  0  0
    2.7675   -3.2292   -1.1421 H   0  0  0  0  0  0  0  0  0  0  0  0
    1.2995   -2.2299   -1.1979 H   0  0  0  0  0  0  0  0  0  0  0  0
    2.5353   -1.9890    0.9881 H   0  0  0  0  0  0  0  0  0  0  0  0
    0.1680    0.8938   -1.9951 H   0  0  0  0  0  0  0  0  0  0  0  0
    4.6064   -1.1069   -0.7498 H   0  0  0  0  0  0  0  0  0  0  0  0
    0.6298    3.8274   -0.0989 H   0  0  0  0  0  0  0  0  0  0  0  0
  1  9  1  0  0  0  0
  1  2  1  0  0  0  0
  2  5  1  0  0  0  0
  2 11  1  0  0  0  0
  2 12  1  0  0  0  0
  3 13  1  0  0  0  0
  4  3  1  0  0  0  0
  4 14  1  0  0  0  0
  4 15  1  0  0  0  0
  5  4  1  0  0  0  0
  5  8  1  0  0  0  0
  5 16  1  1  0  0  0
  6  9  2  0  0  0  0
  7  9  1  0  0  0  0
  7 17  1  0  0  0  0
  8 18  1  0  0  0  0
  9 10  1  0  0  0  0
 10 19  1  0  0  0  0
M  END
>  <DRUGBANK_ID>
DB02515

>  <SECONDARY_ACCESSION_NUMBERS>
EXPT01531

>  <COMMON_NAME>
sn-glycerol 3-phosphate

>  <CAS_NUMBER>
17989-41-2

>  <UNII>
370V52HE4B

>  <SYNONYMS>
(R)-glycerol 1-phosphate; D-(glycerol 1-phosphate); D-Glycerol 1-phosphate; Glycerol-3-phosphate; Glycerophosphoric acid; L-(glycerol 3-phosphate); Phosphoric acid mono-((R)-2,3-dihydroxy-propyl) ester; Phosphors√§ure-mono-((R)-2,3-dihydroxy-propylester); sn-Glycerol 3-phosphate

$$$$
