
 OpenBabel10282417183D

 53 56  0  0  0  0  0  0  0  0999 V2000
    1.4062    0.0306    0.0356 C   0  0  0  0  0  0  0  0  0  0  0  0
    0.5633   -1.0197   -0.1684 C   0  0  0  0  0  0  0  0  0  0  0  0
   -0.8244   -0.9686   -0.0385 C   0  0  0  0  0  0  0  0  0  0  0  0
   -1.3879    0.2953    0.0566 C   0  0  0  0  0  0  0  0  0  0  0  0
   -0.5476    1.4192    0.0613 C   0  0  0  0  0  0  0  0  0  0  0  0
    0.8503    1.2782   -0.0176 C   0  0  0  0  0  0  0  0  0  0  0  0
    1.7597    2.3467   -0.3503 C   0  0  0  0  0  0  0  0  0  0  0  0
    2.5494    2.2976   -1.4836 C   0  0  0  0  0  0  0  0  0  0  0  0
    3.3987    3.3542   -1.6496 C   0  0  0  0  0  0  0  0  0  0  0  0
    3.4784    4.3740   -0.7730 N   0  0  0  0  0  0  0  0  0  0  0  0
    2.6773    4.3118    0.3066 C   0  0  0  0  0  0  0  0  0  0  0  0
    1.8239    3.3188    0.5437 N   0  0  0  0  0  0  0  0  0  0  0  0
    2.6668    5.3620    1.2078 N   0  0  0  0  0  0  0  0  0  0  0  0
    1.9971    5.3852    2.4356 C   0  0  0  0  0  0  0  0  0  0  0  0
    2.1662    4.3703    3.3860 C   0  0  0  0  0  0  0  0  0  0  0  0
    1.4835    4.3991    4.6133 C   0  0  0  0  0  0  0  0  0  0  0  0
    0.5860    5.4269    4.9148 C   0  0  0  0  0  0  0  0  0  0  0  0
    0.4370    6.4434    3.9616 C   0  0  0  0  0  0  0  0  0  0  0  0
    1.1102    6.4155    2.7318 C   0  0  0  0  0  0  0  0  0  0  0  0
   -0.1540    5.4539    6.0742 N   0  0  0  0  0  0  0  0  0  0  0  0
    0.4350    5.3358    7.4080 C   0  0  0  0  0  0  0  0  0  0  0  0
   -0.1499    4.1239    8.1478 C   0  0  0  0  0  0  0  0  0  0  0  0
   -1.5885    4.1639    8.1788 O   0  0  0  0  0  0  0  0  0  0  0  0
   -2.1094    4.1657    6.8364 C   0  0  0  0  0  0  0  0  0  0  0  0
   -1.6225    5.3946    6.0424 C   0  0  0  0  0  0  0  0  0  0  0  0
   -1.7117   -2.1744    0.0041 C   0  0  0  0  0  0  0  0  0  0  0  0
   -2.9254   -2.0703    0.0141 O   0  0  0  0  0  0  0  0  0  0  0  0
   -1.1666   -3.4280    0.0788 N   0  0  0  0  0  0  0  0  0  0  0  0
    0.2021   -3.8104    0.1001 C   0  0  0  0  0  0  0  0  0  0  0  0
    0.6145   -4.5430    1.3664 C   0  0  0  0  0  0  0  0  0  0  0  0
    0.9567   -5.1508    2.4170 N   0  0  0  0  0  0  0  0  0  0  0  0
    2.4805   -0.1405    0.0184 H   0  0  0  0  0  0  0  0  0  0  0  0
    1.1268   -1.8075   -0.6211 H   0  0  0  0  0  0  0  0  0  0  0  0
   -2.4693    0.4164    0.0467 H   0  0  0  0  0  0  0  0  0  0  0  0
   -0.9845    2.4125    0.0931 H   0  0  0  0  0  0  0  0  0  0  0  0
    2.5004    1.4787   -2.1917 H   0  0  0  0  0  0  0  0  0  0  0  0
    4.0461    3.4110   -2.5196 H   0  0  0  0  0  0  0  0  0  0  0  0
    3.2847    6.1154    0.9638 H   0  0  0  0  0  0  0  0  0  0  0  0
    2.8240    3.5319    3.1653 H   0  0  0  0  0  0  0  0  0  0  0  0
    1.6395    3.5797    5.3088 H   0  0  0  0  0  0  0  0  0  0  0  0
   -0.1981    7.2949    4.1895 H   0  0  0  0  0  0  0  0  0  0  0  0
    0.8937    7.1775    1.9885 H   0  0  0  0  0  0  0  0  0  0  0  0
    0.1587    6.2448    7.9582 H   0  0  0  0  0  0  0  0  0  0  0  0
    1.5280    5.2872    7.3834 H   0  0  0  0  0  0  0  0  0  0  0  0
    0.1664    3.1855    7.6792 H   0  0  0  0  0  0  0  0  0  0  0  0
    0.2004    4.1184    9.1849 H   0  0  0  0  0  0  0  0  0  0  0  0
   -3.2021    4.1709    6.9080 H   0  0  0  0  0  0  0  0  0  0  0  0
   -1.8117    3.2322    6.3441 H   0  0  0  0  0  0  0  0  0  0  0  0
   -2.0061    6.3017    6.5242 H   0  0  0  0  0  0  0  0  0  0  0  0
   -2.0233    5.3557    5.0234 H   0  0  0  0  0  0  0  0  0  0  0  0
   -1.8597   -4.1689    0.1362 H   0  0  0  0  0  0  0  0  0  0  0  0
    0.4097   -4.4330   -0.7749 H   0  0  0  0  0  0  0  0  0  0  0  0
    0.9937   -3.1171    0.2353 H   0  0  0  0  0  0  0  0  0  0  0  0
  1  2  2  0  0  0  0
  1  6  1  0  0  0  0
  1 32  1  0  0  0  0
  2  3  1  0  0  0  0
  2 33  1  0  0  0  0
  3  4  2  0  0  0  0
  3 26  1  0  0  0  0
  4  5  1  0  0  0  0
  4 34  1  0  0  0  0
  5  6  2  0  0  0  0
  5 35  1  0  0  0  0
  6  7  1  0  0  0  0
  7  8  2  0  0  0  0
  7 12  1  0  0  0  0
  8  9  1  0  0  0  0
  8 36  1  0  0  0  0
  9 10  2  0  0  0  0
  9 37  1  0  0  0  0
 10 11  1  0  0  0  0
 11 12  2  0  0  0  0
 11 13  1  0  0  0  0
 13 14  1  0  0  0  0
 13 38  1  0  0  0  0
 14 15  2  0  0  0  0
 14 19  1  0  0  0  0
 15 16  1  0  0  0  0
 15 39  1  0  0  0  0
 16 17  2  0  0  0  0
 16 40  1  0  0  0  0
 17 18  1  0  0  0  0
 17 20  1  0  0  0  0
 18 19  2  0  0  0  0
 18 41  1  0  0  0  0
 19 42  1  0  0  0  0
 20 21  1  0  0  0  0
 20 25  1  0  0  0  0
 21 22  1  0  0  0  0
 21 43  1  0  0  0  0
 21 44  1  0  0  0  0
 22 23  1  0  0  0  0
 22 45  1  0  0  0  0
 22 46  1  0  0  0  0
 23 24  1  0  0  0  0
 24 25  1  0  0  0  0
 24 47  1  0  0  0  0
 24 48  1  0  0  0  0
 25 49  1  0  0  0  0
 25 50  1  0  0  0  0
 26 27  2  0  0  0  0
 26 28  1  0  0  0  0
 28 29  1  0  0  0  0
 28 51  1  0  0  0  0
 29 30  1  0  0  0  0
 29 52  1  0  0  0  0
 29 53  1  0  0  0  0
 30 31  3  0  0  0  0
M  END
>  <DRUGBANK_ID>
DB11763

>  <COMMON_NAME>
Momelotinib

>  <CAS_NUMBER>
1056634-68-4

>  <UNII>
6O01GMS00P

>  <SYNONYMS>
Momelotinib; N-(CYANOMETHYL)-4-(2-(4-MORPHOLINOANILINO)PYRIMIDIN-4-YL)BENZAMIDE

$$$$
