
 OpenBabel10282417173D

 66 67  0  0  0  0  0  0  0  0999 V2000
   -0.8992   -1.0363   -0.1717 C   0  0  0  0  0  0  0  0  0  0  0  0
    0.5967   -1.1235    0.0934 C   0  0  2  0  0  0  0  0  0  0  0  0
    1.0504    0.3318    0.2186 C   0  0  1  0  0  0  0  0  0  0  0  0
   -0.1319    1.2288   -0.1585 C   0  0  2  0  0  0  0  0  0  0  0  0
   -1.3010    0.3668    0.2875 C   0  0  1  0  0  0  0  0  0  0  0  0
   -0.1775    1.5333   -1.6610 C   0  0  0  0  0  0  0  0  0  0  0  0
   -0.5996    2.9536   -1.8654 C   0  0  0  0  0  0  0  0  0  0  0  0
    0.2032    3.8719   -2.4071 C   0  0  0  0  0  0  0  0  0  0  0  0
    1.5732    3.5788   -2.9455 C   0  0  0  0  0  0  0  0  0  0  0  0
    1.6182    3.8490   -4.4286 C   0  0  0  0  0  0  0  0  0  0  0  0
    1.3308    5.3045   -4.7196 C   0  0  0  0  0  0  0  0  0  0  0  0
    2.3774    6.2235   -4.1033 C   0  0  0  0  0  0  0  0  0  0  0  0
    3.1853    6.9256   -4.9255 O   0  0  0  0  0  0  0  0  0  0  0  0
    2.5085    6.3367   -2.8999 O   0  0  0  0  0  0  0  0  0  0  0  0
    3.0525    6.9865   -6.3523 C   0  0  0  0  0  0  0  0  0  0  0  0
    3.4343    5.6535   -6.9935 C   0  0  0  0  0  0  0  0  0  0  0  0
    1.7069    7.5914   -6.7570 C   0  0  0  0  0  0  0  0  0  0  0  0
    1.5123    0.6261    1.6433 C   0  0  0  0  0  0  0  0  0  0  0  0
    2.7650    1.0551    1.7593 C   0  0  0  0  0  0  0  0  0  0  0  0
    3.7264    1.4232    2.8310 C   0  0  0  0  0  0  0  0  0  0  0  0
    5.0165    0.5495    2.8765 C   0  0  0  0  0  0  0  0  0  0  0  0
    6.1047    0.7147    1.9081 O   0  0  0  0  0  0  0  0  0  0  0  0
    4.0914    2.7307    2.7018 F   0  0  0  0  0  0  0  0  0  0  0  0
    3.0913    1.3414    4.0343 F   0  0  0  0  0  0  0  0  0  0  0  0
    5.8379    0.5421    0.5805 C   0  0  0  0  0  0  0  0  0  0  0  0
   -2.5450    0.7733   -0.2434 O   0  0  0  0  0  0  0  0  0  0  0  0
    1.3095   -1.7574   -0.9669 O   0  0  0  0  0  0  0  0  0  0  0  0
    4.9886    1.3961   -0.0905 C   0  0  0  0  0  0  0  0  0  0  0  0
    4.4207    1.0255   -1.3125 C   0  0  0  0  0  0  0  0  0  0  0  0
    5.0325    0.0562   -2.0715 C   0  0  0  0  0  0  0  0  0  0  0  0
    6.1980   -0.5109   -1.5696 C   0  0  0  0  0  0  0  0  0  0  0  0
    6.5463   -0.3482   -0.2125 C   0  0  0  0  0  0  0  0  0  0  0  0
   -1.1289   -1.1948   -1.2310 H   0  0  0  0  0  0  0  0  0  0  0  0
   -1.4340   -1.8024    0.3921 H   0  0  0  0  0  0  0  0  0  0  0  0
    0.8191   -1.6834    1.0081 H   0  0  0  0  0  0  0  0  0  0  0  0
    1.8554    0.4889   -0.5086 H   0  0  0  0  0  0  0  0  0  0  0  0
   -0.0756    2.1735    0.4017 H   0  0  0  0  0  0  0  0  0  0  0  0
   -1.3738    0.4051    1.3792 H   0  0  0  0  0  0  0  0  0  0  0  0
    0.7963    1.3242   -2.0946 H   0  0  0  0  0  0  0  0  0  0  0  0
   -0.8426    0.8883   -2.2377 H   0  0  0  0  0  0  0  0  0  0  0  0
   -1.5771    3.2653   -1.4977 H   0  0  0  0  0  0  0  0  0  0  0  0
   -0.1607    4.8988   -2.4593 H   0  0  0  0  0  0  0  0  0  0  0  0
    2.3170    4.1454   -2.3859 H   0  0  0  0  0  0  0  0  0  0  0  0
    1.8994    2.5508   -2.8335 H   0  0  0  0  0  0  0  0  0  0  0  0
    2.6009    3.5545   -4.8165 H   0  0  0  0  0  0  0  0  0  0  0  0
    0.8823    3.2223   -4.9550 H   0  0  0  0  0  0  0  0  0  0  0  0
    1.2313    5.3487   -5.7936 H   0  0  0  0  0  0  0  0  0  0  0  0
    0.3511    5.6408   -4.3705 H   0  0  0  0  0  0  0  0  0  0  0  0
    3.8170    7.7065   -6.6669 H   0  0  0  0  0  0  0  0  0  0  0  0
    2.8253    4.8066   -6.6844 H   0  0  0  0  0  0  0  0  0  0  0  0
    3.3647    5.7061   -8.0798 H   0  0  0  0  0  0  0  0  0  0  0  0
    4.4505    5.3722   -6.6952 H   0  0  0  0  0  0  0  0  0  0  0  0
    1.6023    8.5904   -6.3207 H   0  0  0  0  0  0  0  0  0  0  0  0
    1.6135    7.6442   -7.8416 H   0  0  0  0  0  0  0  0  0  0  0  0
    0.8283    7.0612   -6.3891 H   0  0  0  0  0  0  0  0  0  0  0  0
    0.8790    0.4917    2.5083 H   0  0  0  0  0  0  0  0  0  0  0  0
    3.1429    1.1888    0.7848 H   0  0  0  0  0  0  0  0  0  0  0  0
    5.4878    0.7978    3.8395 H   0  0  0  0  0  0  0  0  0  0  0  0
    4.7543   -0.5131    2.9622 H   0  0  0  0  0  0  0  0  0  0  0  0
   -2.4975    0.7819   -1.2136 H   0  0  0  0  0  0  0  0  0  0  0  0
    0.6884   -2.2196   -1.5519 H   0  0  0  0  0  0  0  0  0  0  0  0
    4.6316    2.2911    0.4107 H   0  0  0  0  0  0  0  0  0  0  0  0
    3.5040    1.4967   -1.6527 H   0  0  0  0  0  0  0  0  0  0  0  0
    4.6460   -0.1826   -3.0579 H   0  0  0  0  0  0  0  0  0  0  0  0
    6.8365   -1.0712   -2.2440 H   0  0  0  0  0  0  0  0  0  0  0  0
    7.4000   -0.8839    0.1881 H   0  0  0  0  0  0  0  0  0  0  0  0
  1  2  1  0  0  0  0
  1  5  1  0  0  0  0
  1 33  1  0  0  0  0
  1 34  1  0  0  0  0
  2  3  1  0  0  0  0
  2 35  1  1  0  0  0
  2 27  1  0  0  0  0
  3  4  1  0  0  0  0
  3 18  1  0  0  0  0
  3 36  1  6  0  0  0
  4  5  1  0  0  0  0
  4 37  1  1  0  0  0
  4  6  1  0  0  0  0
  5 26  1  0  0  0  0
  5 38  1  1  0  0  0
  6  7  1  0  0  0  0
  6 39  1  0  0  0  0
  6 40  1  0  0  0  0
  7  8  2  0  0  0  0
  7 41  1  0  0  0  0
  8  9  1  0  0  0  0
  8 42  1  0  0  0  0
  9 10  1  0  0  0  0
  9 43  1  0  0  0  0
  9 44  1  0  0  0  0
 10 11  1  0  0  0  0
 10 45  1  0  0  0  0
 10 46  1  0  0  0  0
 11 12  1  0  0  0  0
 11 47  1  0  0  0  0
 11 48  1  0  0  0  0
 12 13  1  0  0  0  0
 12 14  2  0  0  0  0
 13 15  1  0  0  0  0
 15 16  1  0  0  0  0
 15 17  1  0  0  0  0
 15 49  1  0  0  0  0
 16 50  1  0  0  0  0
 16 51  1  0  0  0  0
 16 52  1  0  0  0  0
 17 53  1  0  0  0  0
 17 54  1  0  0  0  0
 17 55  1  0  0  0  0
 18 19  2  0  0  0  0
 18 56  1  0  0  0  0
 19 20  1  0  0  0  0
 19 57  1  0  0  0  0
 20 21  1  0  0  0  0
 20 23  1  0  0  0  0
 20 24  1  0  0  0  0
 21 22  1  0  0  0  0
 21 58  1  0  0  0  0
 21 59  1  0  0  0  0
 22 25  1  0  0  0  0
 25 28  2  0  0  0  0
 25 32  1  0  0  0  0
 26 60  1  0  0  0  0
 27 61  1  0  0  0  0
 28 29  1  0  0  0  0
 28 62  1  0  0  0  0
 29 30  2  0  0  0  0
 29 63  1  0  0  0  0
 30 31  1  0  0  0  0
 30 64  1  0  0  0  0
 31 32  2  0  0  0  0
 31 65  1  0  0  0  0
 32 66  1  0  0  0  0
M  END
>  <DRUGBANK_ID>
DB08819

>  <COMMON_NAME>
Tafluprost

>  <CAS_NUMBER>
209860-87-7

>  <UNII>
1O6WQ6T7G3

>  <SYNONYMS>
Tafluprost

$$$$
