
 OpenBabel10282417183D

 78 77  0  0  0  0  0  0  0  0999 V2000
    1.1315    0.0698    0.0939 C   0  0  0  0  0  0  0  0  0  0  0  0
    0.2750    1.3446    0.2579 C   0  0  1  0  0  0  0  0  0  0  0  0
    2.4832    0.1654   -0.0007 N   0  0  0  0  0  0  0  0  0  0  0  0
    0.6112   -1.0480    0.0335 O   0  0  0  0  0  0  0  0  0  0  0  0
   -0.5901    1.6301   -0.9990 C   0  0  0  0  0  0  0  0  0  0  0  0
   -0.5348    1.2454    1.4321 O   0  0  0  0  0  0  0  0  0  0  0  0
    3.3450    1.3157    0.2067 C   0  0  0  0  0  0  0  0  0  0  0  0
   -1.6256    0.5143   -1.2377 C   0  0  0  0  0  0  0  0  0  0  0  0
   -1.3645    2.9479   -0.7742 C   0  0  0  0  0  0  0  0  0  0  0  0
    4.2127    1.1640    1.4491 C   0  0  0  0  0  0  0  0  0  0  0  0
    5.1390   -0.0217    1.2906 C   0  0  0  0  0  0  0  0  0  0  0  0
    6.4725    0.2484    1.4251 N   0  0  0  0  0  0  0  0  0  0  0  0
    4.7146   -1.1532    1.0460 O   0  0  0  0  0  0  0  0  0  0  0  0
    7.4998   -0.7432    1.1655 C   0  0  0  0  0  0  0  0  0  0  0  0
    8.3437   -0.4355   -0.0738 C   0  0  0  0  0  0  0  0  0  0  0  0
    9.3231    1.1149    0.0071 S   0  0  0  0  0  0  0  0  0  0  0  0
    7.9412    2.6296    0.2456 S   0  0  0  0  0  0  0  0  0  0  0  0
   16.1628    3.5569    0.4711 C   0  0  0  0  0  0  0  0  0  0  0  0
   16.9178    4.8832    0.7427 C   0  0  1  0  0  0  0  0  0  0  0  0
   14.7947    3.5954    0.5436 N   0  0  0  0  0  0  0  0  0  0  0  0
   16.7688    2.5227    0.1871 O   0  0  0  0  0  0  0  0  0  0  0  0
   17.8208    4.7944    2.0121 C   0  0  0  0  0  0  0  0  0  0  0  0
   17.7188    5.1970   -0.4030 O   0  0  0  0  0  0  0  0  0  0  0  0
   13.9733    2.4047    0.3878 C   0  0  0  0  0  0  0  0  0  0  0  0
   18.8727    3.6678    1.8989 C   0  0  0  0  0  0  0  0  0  0  0  0
   18.6025    6.1169    2.1950 C   0  0  0  0  0  0  0  0  0  0  0  0
   13.0737    2.1501    1.5942 C   0  0  0  0  0  0  0  0  0  0  0  0
   12.1352    3.3222    1.8011 C   0  0  0  0  0  0  0  0  0  0  0  0
   10.8014    3.0178    1.8567 N   0  0  0  0  0  0  0  0  0  0  0  0
   12.5514    4.4766    1.9047 O   0  0  0  0  0  0  0  0  0  0  0  0
    9.7698    4.0393    1.9160 C   0  0  0  0  0  0  0  0  0  0  0  0
    8.9225    4.1284    0.6438 C   0  0  0  0  0  0  0  0  0  0  0  0
    0.3087    1.7691   -2.2477 C   0  0  0  0  0  0  0  0  0  0  0  0
    1.2729    2.8061   -2.0859 O   0  0  0  0  0  0  0  0  0  0  0  0
   16.9459    4.5391    3.2547 C   0  0  0  0  0  0  0  0  0  0  0  0
   15.9840    5.5705    3.4338 O   0  0  0  0  0  0  0  0  0  0  0  0
    0.9007    2.2142    0.4385 H   0  0  0  0  0  0  0  0  0  0  0  0
    2.9464   -0.7415   -0.0726 H   0  0  0  0  0  0  0  0  0  0  0  0
   -1.0557    0.4273    1.3438 H   0  0  0  0  0  0  0  0  0  0  0  0
    3.9557    1.4210   -0.6950 H   0  0  0  0  0  0  0  0  0  0  0  0
    2.7659    2.2304    0.3099 H   0  0  0  0  0  0  0  0  0  0  0  0
   -2.2827    0.3862   -0.3711 H   0  0  0  0  0  0  0  0  0  0  0  0
   -2.2597    0.7394   -2.1003 H   0  0  0  0  0  0  0  0  0  0  0  0
   -1.1497   -0.4486   -1.4423 H   0  0  0  0  0  0  0  0  0  0  0  0
   -0.6898    3.7929   -0.5993 H   0  0  0  0  0  0  0  0  0  0  0  0
   -1.9821    3.1887   -1.6461 H   0  0  0  0  0  0  0  0  0  0  0  0
   -2.0259    2.8821    0.0959 H   0  0  0  0  0  0  0  0  0  0  0  0
    4.7749    2.0911    1.6087 H   0  0  0  0  0  0  0  0  0  0  0  0
    3.5961    0.9974    2.3400 H   0  0  0  0  0  0  0  0  0  0  0  0
    6.7787    1.2140    1.4917 H   0  0  0  0  0  0  0  0  0  0  0  0
    8.1272   -0.8019    2.0602 H   0  0  0  0  0  0  0  0  0  0  0  0
    7.0325   -1.7246    1.0282 H   0  0  0  0  0  0  0  0  0  0  0  0
    9.0688   -1.2480   -0.2051 H   0  0  0  0  0  0  0  0  0  0  0  0
    7.7324   -0.4007   -0.9802 H   0  0  0  0  0  0  0  0  0  0  0  0
   16.1970    5.7033    0.8447 H   0  0  0  0  0  0  0  0  0  0  0  0
   14.3180    4.4676    0.7760 H   0  0  0  0  0  0  0  0  0  0  0  0
   18.2825    4.4177   -0.5640 H   0  0  0  0  0  0  0  0  0  0  0  0
   14.6155    1.5303    0.2352 H   0  0  0  0  0  0  0  0  0  0  0  0
   13.3745    2.5364   -0.5198 H   0  0  0  0  0  0  0  0  0  0  0  0
   19.5260    3.8115    1.0315 H   0  0  0  0  0  0  0  0  0  0  0  0
   19.5121    3.6292    2.7866 H   0  0  0  0  0  0  0  0  0  0  0  0
   18.4125    2.6802    1.8147 H   0  0  0  0  0  0  0  0  0  0  0  0
   17.9364    6.9799    2.2914 H   0  0  0  0  0  0  0  0  0  0  0  0
   19.2250    6.0753    3.0972 H   0  0  0  0  0  0  0  0  0  0  0  0
   19.2684    6.3150    1.3484 H   0  0  0  0  0  0  0  0  0  0  0  0
   13.6729    2.0316    2.5045 H   0  0  0  0  0  0  0  0  0  0  0  0
   12.5186    1.2161    1.4460 H   0  0  0  0  0  0  0  0  0  0  0  0
   10.4963    2.0771    1.6283 H   0  0  0  0  0  0  0  0  0  0  0  0
   10.2344    5.0168    2.0872 H   0  0  0  0  0  0  0  0  0  0  0  0
    9.1428    3.8197    2.7859 H   0  0  0  0  0  0  0  0  0  0  0  0
    9.5316    4.3745   -0.2307 H   0  0  0  0  0  0  0  0  0  0  0  0
    8.1975    4.9422    0.7699 H   0  0  0  0  0  0  0  0  0  0  0  0
    0.8583    0.8441   -2.4511 H   0  0  0  0  0  0  0  0  0  0  0  0
   -0.2859    1.9887   -3.1417 H   0  0  0  0  0  0  0  0  0  0  0  0
    0.7954    3.6533   -2.0495 H   0  0  0  0  0  0  0  0  0  0  0  0
   16.3976    3.5957    3.1652 H   0  0  0  0  0  0  0  0  0  0  0  0
   17.5536    4.4725    4.1639 H   0  0  0  0  0  0  0  0  0  0  0  0
   16.4556    6.3989    3.6278 H   0  0  0  0  0  0  0  0  0  0  0  0
  1  2  1  0  0  0  0
  1  4  2  0  0  0  0
  1  3  1  0  0  0  0
  2  5  1  0  0  0  0
  2  6  1  0  0  0  0
  2 37  1  1  0  0  0
  3  7  1  0  0  0  0
  3 38  1  0  0  0  0
  5  8  1  0  0  0  0
  5  9  1  0  0  0  0
  5 33  1  0  0  0  0
  6 39  1  0  0  0  0
  7 10  1  0  0  0  0
  7 40  1  0  0  0  0
  7 41  1  0  0  0  0
  8 42  1  0  0  0  0
  8 43  1  0  0  0  0
  8 44  1  0  0  0  0
  9 45  1  0  0  0  0
  9 46  1  0  0  0  0
  9 47  1  0  0  0  0
 10 11  1  0  0  0  0
 10 48  1  0  0  0  0
 10 49  1  0  0  0  0
 11 12  1  0  0  0  0
 11 13  2  0  0  0  0
 12 50  1  0  0  0  0
 14 15  1  0  0  0  0
 14 12  1  0  0  0  0
 14 51  1  0  0  0  0
 14 52  1  0  0  0  0
 15 16  1  0  0  0  0
 15 53  1  0  0  0  0
 15 54  1  0  0  0  0
 16 17  1  0  0  0  0
 18 19  1  0  0  0  0
 18 21  2  0  0  0  0
 18 20  1  0  0  0  0
 19 22  1  0  0  0  0
 19 23  1  0  0  0  0
 19 55  1  1  0  0  0
 20 24  1  0  0  0  0
 20 56  1  0  0  0  0
 22 25  1  0  0  0  0
 22 26  1  0  0  0  0
 22 35  1  0  0  0  0
 23 57  1  0  0  0  0
 24 27  1  0  0  0  0
 24 58  1  0  0  0  0
 24 59  1  0  0  0  0
 25 60  1  0  0  0  0
 25 61  1  0  0  0  0
 25 62  1  0  0  0  0
 26 63  1  0  0  0  0
 26 64  1  0  0  0  0
 26 65  1  0  0  0  0
 27 28  1  0  0  0  0
 27 66  1  0  0  0  0
 27 67  1  0  0  0  0
 28 29  1  0  0  0  0
 28 30  2  0  0  0  0
 29 68  1  0  0  0  0
 31 32  1  0  0  0  0
 31 29  1  0  0  0  0
 31 69  1  0  0  0  0
 31 70  1  0  0  0  0
 32 17  1  0  0  0  0
 32 71  1  0  0  0  0
 32 72  1  0  0  0  0
 33 34  1  0  0  0  0
 33 73  1  0  0  0  0
 33 74  1  0  0  0  0
 34 75  1  0  0  0  0
 35 36  1  0  0  0  0
 35 76  1  0  0  0  0
 35 77  1  0  0  0  0
 36 78  1  0  0  0  0
M  END
>  <DRUGBANK_ID>
DB11190

>  <COMMON_NAME>
Pantethine

>  <CAS_NUMBER>
16816-67-4

>  <UNII>
7K81IL792L

>  <SYNONYMS>
Bis(pantothenamidoethyl) disulfide; D-Bis(N-pantothenyl-beta-aminoethyl) disulfide; D-pantethine; Pantethine; Pantetina; Pantomin

$$$$
