23M
 OpenBabel10282417163D

 34 36  0  0  0  0  0  0  0  0999 V2000
   -0.2387   -0.7436    0.0171 C   0  0  0  0  0  0  0  0  0  0  0  0
   -0.2646    0.6478    0.0052 C   0  0  0  0  0  0  0  0  0  0  0  0
   -1.5939    1.0228   -0.0091 N   0  0  0  0  0  0  0  0  0  0  0  0
   -2.4068   -0.0896   -0.0487 C   0  0  0  0  0  0  0  0  0  0  0  0
   -1.5796   -1.1922    0.0032 C   0  0  0  0  0  0  0  0  0  0  0  0
   -3.8603   -0.0571   -0.1326 C   0  0  0  0  0  0  0  0  0  0  0  0
   -4.5032    0.5278   -1.2271 C   0  0  0  0  0  0  0  0  0  0  0  0
   -5.8938    0.4647   -1.3384 C   0  0  0  0  0  0  0  0  0  0  0  0
   -6.6497   -0.1710   -0.3523 C   0  0  0  0  0  0  0  0  0  0  0  0
   -6.0231   -0.7596    0.7503 C   0  0  0  0  0  0  0  0  0  0  0  0
   -4.6259   -0.7076    0.8456 C   0  0  0  0  0  0  0  0  0  0  0  0
   -6.8262   -1.4347    1.8219 C   0  0  0  0  0  0  0  0  0  0  0  0
    0.9078    1.4096   -0.0007 C   0  0  0  0  0  0  0  0  0  0  0  0
    2.1301    0.7157   -0.0250 C   0  0  0  0  0  0  0  0  0  0  0  0
    2.1915   -0.6866   -0.0149 C   0  0  0  0  0  0  0  0  0  0  0  0
    0.9964   -1.4168    0.0209 C   0  0  0  0  0  0  0  0  0  0  0  0
    3.5150   -1.3956   -0.0548 C   0  0  0  0  0  0  0  0  0  0  0  0
    3.6476   -2.6889   -0.0498 N   0  0  0  0  0  0  0  0  0  0  0  0
    4.6855   -0.7150   -0.1026 N   0  0  0  0  0  0  0  0  0  0  0  0
   -1.9233    1.9782   -0.0019 H   0  0  0  0  0  0  0  0  0  0  0  0
   -1.9113   -2.2219   -0.0125 H   0  0  0  0  0  0  0  0  0  0  0  0
   -3.9277    0.9974   -2.0207 H   0  0  0  0  0  0  0  0  0  0  0  0
   -6.3907    0.9000   -2.2014 H   0  0  0  0  0  0  0  0  0  0  0  0
   -7.7320   -0.2089   -0.4533 H   0  0  0  0  0  0  0  0  0  0  0  0
   -4.1266   -1.1848    1.6873 H   0  0  0  0  0  0  0  0  0  0  0  0
   -6.5403   -2.4876    1.9112 H   0  0  0  0  0  0  0  0  0  0  0  0
   -6.6644   -0.9330    2.7813 H   0  0  0  0  0  0  0  0  0  0  0  0
   -7.8980   -1.3955    1.6011 H   0  0  0  0  0  0  0  0  0  0  0  0
    0.8893    2.4951   -0.0062 H   0  0  0  0  0  0  0  0  0  0  0  0
    3.0351    1.3129   -0.0586 H   0  0  0  0  0  0  0  0  0  0  0  0
    0.9704   -2.4979    0.0318 H   0  0  0  0  0  0  0  0  0  0  0  0
    2.7571   -3.1800   -0.0151 H   0  0  0  0  0  0  0  0  0  0  0  0
    4.7746    0.2865   -0.1207 H   0  0  0  0  0  0  0  0  0  0  0  0
    5.5299   -1.2721   -0.1309 H   0  0  0  0  0  0  0  0  0  0  0  0
  1  2  2  0  0  0  0
  1  5  1  0  0  0  0
  1 16  1  0  0  0  0
  2  3  1  0  0  0  0
  2 13  1  0  0  0  0
  3  4  1  0  0  0  0
  3 20  1  0  0  0  0
  4  5  2  0  0  0  0
  4  6  1  0  0  0  0
  5 21  1  0  0  0  0
  6  7  1  0  0  0  0
  6 11  2  0  0  0  0
  7  8  2  0  0  0  0
  7 22  1  0  0  0  0
  8  9  1  0  0  0  0
  8 23  1  0  0  0  0
  9 10  2  0  0  0  0
  9 24  1  0  0  0  0
 10 11  1  0  0  0  0
 10 12  1  0  0  0  0
 11 25  1  0  0  0  0
 12 26  1  0  0  0  0
 12 27  1  0  0  0  0
 12 28  1  0  0  0  0
 13 14  2  0  0  0  0
 13 29  1  0  0  0  0
 14 15  1  0  0  0  0
 14 30  1  0  0  0  0
 15 16  2  0  0  0  0
 15 17  1  0  0  0  0
 16 31  1  0  0  0  0
 17 18  2  0  0  0  0
 17 19  1  0  0  0  0
 18 32  1  0  0  0  0
 19 33  1  0  0  0  0
 19 34  1  0  0  0  0
M  END
>  <DRUGBANK_ID>
DB06923

>  <COMMON_NAME>
2-(3-METHYLPHENYL)-1H-INDOLE-5-CARBOXIMIDAMIDE

$$$$
