
 OpenBabel10282417213D

 49 51  0  0  0  0  0  0  0  0999 V2000
    0.0531    1.8801   -0.1544 S   0  0  0  0  0  0  0  0  0  0  0  0
    0.0588   -2.4888    0.1582 O   0  0  0  0  0  0  0  0  0  0  0  0
   -2.2480    3.6383    1.0286 O   0  0  0  0  0  0  0  0  0  0  0  0
   -2.4731   -5.4588   -1.1861 N   0  0  0  0  0  0  0  0  0  0  0  0
   -2.5298   -2.6880    0.3051 N   0  0  0  0  0  0  0  0  0  0  0  0
   -3.6304   -4.5627   -0.9703 C   0  0  0  0  0  0  0  0  0  0  0  0
   -3.6144   -3.6593    0.2910 C   0  0  0  0  0  0  0  0  0  0  0  0
   -2.5402   -1.3200    0.1556 C   0  0  0  0  0  0  0  0  0  0  0  0
   -1.3259   -0.5634    0.0415 C   0  0  0  0  0  0  0  0  0  0  0  0
   -1.3839    0.8376   -0.0400 C   0  0  0  0  0  0  0  0  0  0  0  0
   -2.6615   -6.3910   -2.3016 C   0  0  0  0  0  0  0  0  0  0  0  0
   -1.1750   -4.7788   -1.2773 C   0  0  0  0  0  0  0  0  0  0  0  0
   -2.6452    1.4849   -0.0224 C   0  0  0  0  0  0  0  0  0  0  0  0
    0.0032   -1.2755    0.0450 C   0  0  0  0  0  0  0  0  0  0  0  0
   -3.7611   -0.6484    0.1191 C   0  0  0  0  0  0  0  0  0  0  0  0
    1.3112   -0.5898   -0.0111 C   0  0  0  0  0  0  0  0  0  0  0  0
   -3.8182    0.7294    0.0443 C   0  0  0  0  0  0  0  0  0  0  0  0
    1.4158    0.7898   -0.0196 C   0  0  0  0  0  0  0  0  0  0  0  0
   -2.8126   -5.7599   -3.6808 C   0  0  0  0  0  0  0  0  0  0  0  0
   -1.0759   -3.6364   -2.3001 C   0  0  0  0  0  0  0  0  0  0  0  0
   -2.7964    2.9843   -0.1062 C   0  0  0  0  0  0  0  0  0  0  0  0
    2.4821   -1.3758    0.0069 C   0  0  0  0  0  0  0  0  0  0  0  0
    2.6834    1.3821    0.0544 C   0  0  0  0  0  0  0  0  0  0  0  0
    3.7407   -0.7780    0.0625 C   0  0  0  0  0  0  0  0  0  0  0  0
    3.8390    0.6061    0.1010 C   0  0  0  0  0  0  0  0  0  0  0  0
   -2.5023    3.1267    1.8144 H   0  0  0  0  0  0  0  0  0  0  0  0
   -1.5954   -3.0534    0.4913 H   0  0  0  0  0  0  0  0  0  0  0  0
   -4.5302   -5.1892   -0.8820 H   0  0  0  0  0  0  0  0  0  0  0  0
   -3.8092   -3.9223   -1.8398 H   0  0  0  0  0  0  0  0  0  0  0  0
   -3.5327   -4.2800    1.1885 H   0  0  0  0  0  0  0  0  0  0  0  0
   -4.5937   -3.1769    0.3473 H   0  0  0  0  0  0  0  0  0  0  0  0
   -1.8065   -7.0801   -2.3191 H   0  0  0  0  0  0  0  0  0  0  0  0
   -3.5347   -7.0202   -2.0981 H   0  0  0  0  0  0  0  0  0  0  0  0
   -0.9218   -4.4782   -0.2656 H   0  0  0  0  0  0  0  0  0  0  0  0
   -0.3719   -5.4990   -1.4688 H   0  0  0  0  0  0  0  0  0  0  0  0
   -4.6998   -1.1852    0.1901 H   0  0  0  0  0  0  0  0  0  0  0  0
   -4.7971    1.2023    0.0474 H   0  0  0  0  0  0  0  0  0  0  0  0
   -1.8698   -5.3595   -4.0445 H   0  0  0  0  0  0  0  0  0  0  0  0
   -3.0925   -6.5057   -4.4239 H   0  0  0  0  0  0  0  0  0  0  0  0
   -3.5595   -4.9614   -3.6911 H   0  0  0  0  0  0  0  0  0  0  0  0
   -1.9804   -3.0244   -2.3683 H   0  0  0  0  0  0  0  0  0  0  0  0
   -0.2404   -2.9668   -2.1070 H   0  0  0  0  0  0  0  0  0  0  0  0
   -0.8589   -4.0134   -3.2950 H   0  0  0  0  0  0  0  0  0  0  0  0
   -2.3286    3.3566   -1.0229 H   0  0  0  0  0  0  0  0  0  0  0  0
   -3.8529    3.2626   -0.1472 H   0  0  0  0  0  0  0  0  0  0  0  0
    2.4196   -2.4635   -0.0099 H   0  0  0  0  0  0  0  0  0  0  0  0
    2.7742    2.4667    0.0768 H   0  0  0  0  0  0  0  0  0  0  0  0
    4.6364   -1.3928    0.0879 H   0  0  0  0  0  0  0  0  0  0  0  0
    4.8098    1.0895    0.1592 H   0  0  0  0  0  0  0  0  0  0  0  0
  1 10  1  0  0  0  0
  1 18  1  0  0  0  0
  2 14  2  0  0  0  0
  3 21  1  0  0  0  0
  3 26  1  0  0  0  0
  4  6  1  0  0  0  0
  4 11  1  0  0  0  0
  4 12  1  0  0  0  0
  5  7  1  0  0  0  0
  5  8  1  0  0  0  0
  5 27  1  0  0  0  0
  6  7  1  0  0  0  0
  6 28  1  0  0  0  0
  6 29  1  0  0  0  0
  7 30  1  0  0  0  0
  7 31  1  0  0  0  0
  8  9  2  0  0  0  0
  8 15  1  0  0  0  0
  9 10  1  0  0  0  0
  9 14  1  0  0  0  0
 10 13  2  0  0  0  0
 11 19  1  0  0  0  0
 11 32  1  0  0  0  0
 11 33  1  0  0  0  0
 12 20  1  0  0  0  0
 12 34  1  0  0  0  0
 12 35  1  0  0  0  0
 13 17  1  0  0  0  0
 13 21  1  0  0  0  0
 14 16  1  0  0  0  0
 15 17  2  0  0  0  0
 15 36  1  0  0  0  0
 16 18  1  0  0  0  0
 16 22  2  0  0  0  0
 17 37  1  0  0  0  0
 18 23  2  0  0  0  0
 19 38  1  0  0  0  0
 19 39  1  0  0  0  0
 19 40  1  0  0  0  0
 20 41  1  0  0  0  0
 20 42  1  0  0  0  0
 20 43  1  0  0  0  0
 21 44  1  0  0  0  0
 21 45  1  0  0  0  0
 22 24  1  0  0  0  0
 22 46  1  0  0  0  0
 23 25  1  0  0  0  0
 23 47  1  0  0  0  0
 24 25  2  0  0  0  0
 24 48  1  0  0  0  0
 25 49  1  0  0  0  0
M  END
>  <DRUGBANK_ID>
DB14061

>  <COMMON_NAME>
Hycanthone

>  <CAS_NUMBER>
3105-97-3

>  <UNII>
2BXX5EVN2A

>  <SYNONYMS>
1-((2-(Diethylamino)ethyl)amino)-4-(hydroxymethyl)-9H-thioxanthen-9-one; 1-((2-(Diethylamino)ethyl)amino)-4-(hydroxymethyl)thioxanthen-9-one; Hicantona; Hycanthon; Hycanthone; Hycanthonum; Lucanthone metabolite

$$$$
