
 OpenBabel10282417113D

 61 62  0  0  1  0  0  0  0  0999 V2000
   -0.8584    0.5880    5.1115 N   0  0  0  0  0  0  0  0  0  0  0  0
   -1.3348    1.7903    5.3887 C   0  0  0  0  0  0  0  0  0  0  0  0
   -1.1166    0.0596    3.8944 C   0  0  0  0  0  0  0  0  0  0  0  0
   -1.8629    0.7401    2.9045 C   0  0  0  0  0  0  0  0  0  0  0  0
   -2.2940    2.0070    3.3016 C   0  0  0  0  0  0  0  0  0  0  0  0
   -2.0290    2.5330    4.5213 N   0  0  0  0  0  0  0  0  0  0  0  0
   -0.9297    2.4604    6.5680 N   0  0  0  0  0  0  0  0  0  0  0  0
   -3.0740    2.9172    2.3974 C   0  0  0  0  0  0  0  0  0  0  0  0
   -4.5233    3.0899    2.8099 C   0  0  0  0  0  0  0  0  0  0  0  0
   -2.3243    4.1377    1.9236 C   0  0  0  0  0  0  0  0  0  0  0  0
   -0.5096   -1.2891    3.7370 C   0  0  0  0  0  0  0  0  0  0  0  0
    0.4089   -1.5569    2.7016 C   0  0  0  0  0  0  0  0  0  0  0  0
    0.8611   -2.8558    2.4515 C   0  0  0  0  0  0  0  0  0  0  0  0
    0.4284   -3.9021    3.2560 C   0  0  0  0  0  0  0  0  0  0  0  0
   -0.4313   -3.6703    4.3222 C   0  0  0  0  0  0  0  0  0  0  0  0
   -0.8897   -2.3670    4.5706 C   0  0  0  0  0  0  0  0  0  0  0  0
    0.8069   -5.1534    2.9635 F   0  0  0  0  0  0  0  0  0  0  0  0
   -2.1122    0.1580    1.5528 C   0  0  0  0  0  0  0  0  0  0  0  0
   -2.9174    0.4901    0.5255 C   0  0  0  0  0  0  0  0  0  0  0  0
   -3.1977   -0.1785   -0.7714 C   0  0  2  0  0  0  0  0  0  0  0  0
   -3.0804   -1.6735   -0.7050 C   0  0  0  0  0  0  0  0  0  0  0  0
   -1.7351   -2.3661   -0.9223 C   0  0  2  0  0  0  0  0  0  0  0  0
   -1.4954   -3.5549    0.0327 C   0  0  0  0  0  0  0  0  0  0  0  0
   -2.4689   -3.6581    1.1986 C   0  0  0  0  0  0  0  0  0  0  0  0
   -3.3824   -4.4364    1.3117 O   0  0  0  0  0  0  0  0  0  0  0  0
   -2.3344   -2.6369    2.0596 O   0  0  0  0  0  0  0  0  0  0  0  0
   -0.6255   -1.4593   -0.9627 O   0  0  0  0  0  0  0  0  0  0  0  0
   -2.4977    0.4813   -1.7963 O   0  0  0  0  0  0  0  0  0  0  0  0
    1.2331    2.6428    8.1435 C   0  0  0  0  0  0  0  0  0  0  0  0
   -1.0388    1.6798    8.9818 O   0  0  0  0  0  0  0  0  0  0  0  0
   -0.1848    1.6130    7.8112 S   0  0  0  0  0  0  0  0  0  0  0  0
    0.3682    0.3449    7.3882 O   0  0  0  0  0  0  0  0  0  0  0  0
   -1.5815    3.7507    6.8583 C   0  0  0  0  0  0  0  0  0  0  0  0
   -3.1516    2.4814    1.4459 H   0  0  0  0  0  0  0  0  0  0  0  0
   -4.6086    3.6997    3.7084 H   0  0  0  0  0  0  0  0  0  0  0  0
   -5.0890    3.5598    1.9972 H   0  0  0  0  0  0  0  0  0  0  0  0
   -4.9968    2.1153    2.9984 H   0  0  0  0  0  0  0  0  0  0  0  0
   -1.3598    3.8252    1.4968 H   0  0  0  0  0  0  0  0  0  0  0  0
   -2.8875    4.6037    1.1049 H   0  0  0  0  0  0  0  0  0  0  0  0
   -2.1599    4.8511    2.7236 H   0  0  0  0  0  0  0  0  0  0  0  0
    0.7139   -0.7585    2.0293 H   0  0  0  0  0  0  0  0  0  0  0  0
    1.4880   -3.0665    1.5898 H   0  0  0  0  0  0  0  0  0  0  0  0
   -0.7697   -4.5074    4.9259 H   0  0  0  0  0  0  0  0  0  0  0  0
   -1.5962   -2.2066    5.3841 H   0  0  0  0  0  0  0  0  0  0  0  0
   -1.5305   -0.7298    1.3931 H   0  0  0  0  0  0  0  0  0  0  0  0
   -3.6301    1.2910    0.5031 H   0  0  0  0  0  0  0  0  0  0  0  0
   -4.2662    0.0146   -0.9426 H   0  0  0  0  0  0  0  0  0  0  0  0
   -3.5093   -1.9158    0.2650 H   0  0  0  0  0  0  0  0  0  0  0  0
   -3.8052   -2.1113   -1.3949 H   0  0  0  0  0  0  0  0  0  0  0  0
   -1.7578   -2.7744   -1.9394 H   0  0  0  0  0  0  0  0  0  0  0  0
   -1.6192   -4.4885   -0.5237 H   0  0  0  0  0  0  0  0  0  0  0  0
   -0.4674   -3.5682    0.3925 H   0  0  0  0  0  0  0  0  0  0  0  0
   -3.1196   -2.5784    2.6420 H   0  0  0  0  0  0  0  0  0  0  0  0
   -0.3315   -1.2478   -0.0641 H   0  0  0  0  0  0  0  0  0  0  0  0
   -1.5472    0.3436   -1.6289 H   0  0  0  0  0  0  0  0  0  0  0  0
    0.9127    3.6146    8.5203 H   0  0  0  0  0  0  0  0  0  0  0  0
    1.8306    2.1401    8.9098 H   0  0  0  0  0  0  0  0  0  0  0  0
    1.8318    2.7468    7.2363 H   0  0  0  0  0  0  0  0  0  0  0  0
   -1.2281    4.5006    6.1404 H   0  0  0  0  0  0  0  0  0  0  0  0
   -2.6748    3.6933    6.7926 H   0  0  0  0  0  0  0  0  0  0  0  0
   -1.3336    4.1282    7.8538 H   0  0  0  0  0  0  0  0  0  0  0  0
  1  2  2  0  0  0  0
  2  7  1  0  0  0  0
  2  6  1  0  0  0  0
  3  1  1  0  0  0  0
  3 11  1  0  0  0  0
  3  4  2  0  0  0  0
  4 18  1  0  0  0  0
  4  5  1  0  0  0  0
  5  8  1  0  0  0  0
  5  6  2  0  0  0  0
  7 31  1  0  0  0  0
  7 33  1  0  0  0  0
  8  9  1  0  0  0  0
  8 10  1  0  0  0  0
  8 34  1  0  0  0  0
  9 35  1  0  0  0  0
  9 36  1  0  0  0  0
  9 37  1  0  0  0  0
 10 38  1  0  0  0  0
 10 39  1  0  0  0  0
 10 40  1  0  0  0  0
 11 12  2  0  0  0  0
 11 16  1  0  0  0  0
 12 13  1  0  0  0  0
 12 41  1  0  0  0  0
 13 14  2  0  0  0  0
 13 42  1  0  0  0  0
 14 17  1  0  0  0  0
 15 14  1  0  0  0  0
 15 43  1  0  0  0  0
 16 15  2  0  0  0  0
 16 44  1  0  0  0  0
 18 19  2  0  0  0  0
 18 45  1  0  0  0  0
 19 46  1  0  0  0  0
 20 28  1  0  0  0  0
 20 47  1  6  0  0  0
 20 21  1  0  0  0  0
 20 19  1  0  0  0  0
 21 48  1  0  0  0  0
 21 49  1  0  0  0  0
 22 27  1  0  0  0  0
 22 50  1  6  0  0  0
 22 23  1  0  0  0  0
 22 21  1  0  0  0  0
 23 24  1  0  0  0  0
 23 51  1  0  0  0  0
 23 52  1  0  0  0  0
 24 25  2  0  0  0  0
 24 26  1  0  0  0  0
 26 53  1  0  0  0  0
 27 54  1  0  0  0  0
 28 55  1  0  0  0  0
 29 56  1  0  0  0  0
 29 57  1  0  0  0  0
 29 58  1  0  0  0  0
 31 29  1  0  0  0  0
 31 30  2  0  0  0  0
 31 32  2  0  0  0  0
 33 59  1  0  0  0  0
 33 60  1  0  0  0  0
 33 61  1  0  0  0  0
M  END
>  <DRUGBANK_ID>
DB01098

>  <SECONDARY_ACCESSION_NUMBERS>
APRD00546

>  <COMMON_NAME>
Rosuvastatin

>  <CAS_NUMBER>
287714-41-4

>  <UNII>
413KH5ZJ73

>  <SYNONYMS>
(3R,5S,6E)-7-(4-(4-fluorophenyl)-6-(1-methylethyl)-2-(ethyl(methylsulfonyl)amino)-5-pyrimidinyl)-3,5-dihydroxy-6-heptenoic acid; (3R,5S,6E)-7-{4-(4-fluorophenyl)-6-isopropyl-2-[methyl(methylsulfonyl)amino]pyrimidin-5-yl}-3,5-dihydroxyhept-6-enoic acid; Rosuvastatin; Rosuvastatina

$$$$
