
 OpenBabel10282417133D

 66 70  0  0  1  0  0  0  0  0999 V2000
    9.3497   -2.8685   -0.1962 C   0  0  0  0  0  0  0  0  0  0  0  0
    8.8690   -2.5023   -1.4384 C   0  0  0  0  0  0  0  0  0  0  0  0
   -3.6084    0.4476   -2.8801 C   0  0  0  0  0  0  0  0  0  0  0  0
    2.7685    4.4538   -2.0788 C   0  0  0  0  0  0  0  0  0  0  0  0
    6.9379   -0.9897   -2.0545 C   0  0  0  0  0  0  0  0  0  0  0  0
    5.1453    0.2124    1.7625 C   0  0  0  0  0  0  0  0  0  0  0  0
   -3.3328   -0.8909   -3.5440 C   0  0  2  0  0  0  0  0  0  0  0  0
    2.9071    3.3927   -0.9458 C   0  0  2  0  0  0  0  0  0  0  0  0
    6.6071   -0.7565    0.6773 C   0  0  0  0  0  0  0  0  0  0  0  0
   -1.8429   -0.9831   -3.8614 C   0  0  2  0  0  0  0  0  0  0  0  0
    3.7517    4.0047    0.1424 C   0  0  2  0  0  0  0  0  0  0  0  0
   -1.7350   -1.5030   -5.2734 C   0  0  2  0  0  0  0  0  0  0  0  0
    4.2364    2.7944    0.9111 C   0  0  2  0  0  0  0  0  0  0  0  0
    7.7063   -1.5831    0.1809 C   0  0  0  0  0  0  0  0  0  0  0  0
    5.8228   -0.1401   -0.2953 C   0  0  0  0  0  0  0  0  0  0  0  0
    3.8423    1.5612    0.1095 C   0  0  2  0  0  0  0  0  0  0  0  0
   -3.1922   -1.7982   -5.6322 C   0  0  2  0  0  0  0  0  0  0  0  0
    8.6168   -2.2897    0.8098 N   0  0  0  0  0  0  0  0  0  0  0  0
    6.2107   -0.5245    1.9371 N   0  0  0  0  0  0  0  0  0  0  0  0
    5.9538   -0.2176   -1.6478 N   0  0  0  0  0  0  0  0  0  0  0  0
    7.8115   -1.6684   -1.1812 N   0  0  0  0  0  0  0  0  0  0  0  0
    4.8816    0.5425    0.4209 N   0  0  0  0  0  0  0  0  0  0  0  0
   -1.0524   -1.4083   -2.7671 O   0  0  0  0  0  0  0  0  0  0  0  0
    3.1379    5.0262    0.9073 O   0  0  0  0  0  0  0  0  0  0  0  0
   -0.8573   -2.5984   -5.3816 O   0  0  0  0  0  0  0  0  0  0  0  0
   -3.4783   -1.5576   -6.9951 O   0  0  0  0  0  0  0  0  0  0  0  0
    2.4468    2.3239    4.1859 O   0  0  0  0  0  0  0  0  0  0  0  0
    3.4021    4.5771    3.4390 O   0  0  0  0  0  0  0  0  0  0  0  0
    1.4251    3.4739    2.0607 O   0  0  0  0  0  0  0  0  0  0  0  0
   -1.3458    1.3415   -1.5062 O   0  0  0  0  0  0  0  0  0  0  0  0
   -1.6872    3.5282   -2.8543 O   0  0  0  0  0  0  0  0  0  0  0  0
    0.2413    3.7944   -4.4303 O   0  0  0  0  0  0  0  0  0  0  0  0
    2.1188    2.5102   -3.4428 O   0  0  0  0  0  0  0  0  0  0  0  0
   -2.7752    1.3823   -3.5862 O   0  0  0  0  0  0  0  0  0  0  0  0
    1.3917    4.5948   -2.5203 O   0  0  0  0  0  0  0  0  0  0  0  0
    3.6348    2.1219   -1.2145 O   0  0  0  0  0  0  0  0  0  0  0  0
   -4.0117   -0.9746   -4.8047 O   0  0  0  0  0  0  0  0  0  0  0  0
    3.8372    2.5808    2.2348 O   0  0  0  0  0  0  0  0  0  0  0  0
    0.1173    1.5498   -3.5574 O   0  0  0  0  0  0  0  0  0  0  0  0
    2.6269    3.2882    2.9444 P   0  0  0  0  0  0  0  0  0  0  0  0
   -1.4528    2.0456   -2.9382 P   0  0  3  0  0  0  0  0  0  0  0  0
    0.7545    3.0723   -3.0389 P   0  0  3  0  0  0  0  0  0  0  0  0
   -3.6783   -1.7179   -2.9107 H   0  0  0  0  0  0  0  0  0  0  0  0
    1.9046    3.1310   -0.5744 H   0  0  0  0  0  0  0  0  0  0  0  0
   -1.4116   -0.0199   -4.0585 H   0  0  0  0  0  0  0  0  0  0  0  0
    4.6252    4.4639   -0.3363 H   0  0  0  0  0  0  0  0  0  0  0  0
   -1.3659   -0.6943   -5.9300 H   0  0  0  0  0  0  0  0  0  0  0  0
    5.3296    2.8775    0.9049 H   0  0  0  0  0  0  0  0  0  0  0  0
    2.8994    1.0796    0.4135 H   0  0  0  0  0  0  0  0  0  0  0  0
   -3.4179   -2.8457   -5.4192 H   0  0  0  0  0  0  0  0  0  0  0  0
   10.1840   -3.5220    0.0303 H   0  0  0  0  0  0  0  0  0  0  0  0
    9.1784   -2.7572   -2.4396 H   0  0  0  0  0  0  0  0  0  0  0  0
   -3.3806    0.4122   -1.8089 H   0  0  0  0  0  0  0  0  0  0  0  0
   -4.6697    0.7221   -2.9583 H   0  0  0  0  0  0  0  0  0  0  0  0
    3.0478    5.4524   -1.7318 H   0  0  0  0  0  0  0  0  0  0  0  0
    3.4221    4.2339   -2.9307 H   0  0  0  0  0  0  0  0  0  0  0  0
    7.1027   -1.1234   -3.1334 H   0  0  0  0  0  0  0  0  0  0  0  0
    4.5632    0.5813    2.5951 H   0  0  0  0  0  0  0  0  0  0  0  0
   -1.6162   -1.8368   -2.1016 H   0  0  0  0  0  0  0  0  0  0  0  0
    2.1900    4.7933    1.0568 H   0  0  0  0  0  0  0  0  0  0  0  0
   -0.8650   -2.8624   -6.3173 H   0  0  0  0  0  0  0  0  0  0  0  0
   -3.2824   -0.6211   -7.1679 H   0  0  0  0  0  0  0  0  0  0  0  0
    2.0656    1.4660    3.9225 H   0  0  0  0  0  0  0  0  0  0  0  0
    3.8458    4.9867    2.6594 H   0  0  0  0  0  0  0  0  0  0  0  0
   -1.1361    0.3922   -1.6379 H   0  0  0  0  0  0  0  0  0  0  0  0
   -0.6162    4.2434   -4.2731 H   0  0  0  0  0  0  0  0  0  0  0  0
  1 51  1  0  0  0  0
  2  1  2  0  0  0  0
  2 52  1  0  0  0  0
  3 53  1  0  0  0  0
  3 54  1  0  0  0  0
  4 55  1  0  0  0  0
  4 56  1  0  0  0  0
  5 57  1  0  0  0  0
  6 58  1  0  0  0  0
  7  3  1  0  0  0  0
  7 43  1  1  0  0  0
  8 44  1  1  0  0  0
  8  4  1  0  0  0  0
 10  7  1  0  0  0  0
 10 45  1  6  0  0  0
 10 23  1  0  0  0  0
 11  8  1  0  0  0  0
 11 46  1  6  0  0  0
 11 24  1  0  0  0  0
 12 10  1  0  0  0  0
 12 47  1  6  0  0  0
 12 25  1  0  0  0  0
 13 11  1  0  0  0  0
 13 48  1  1  0  0  0
 13 38  1  0  0  0  0
 14  9  1  0  0  0  0
 15  9  2  0  0  0  0
 16 13  1  0  0  0  0
 16 49  1  1  0  0  0
 16 22  1  0  0  0  0
 17 12  1  0  0  0  0
 17 26  1  0  0  0  0
 17 50  1  1  0  0  0
 18  1  1  0  0  0  0
 18 14  2  0  0  0  0
 19  6  2  0  0  0  0
 19  9  1  0  0  0  0
 20  5  2  0  0  0  0
 20 15  1  0  0  0  0
 21  2  1  0  0  0  0
 21  5  1  0  0  0  0
 21 14  1  0  0  0  0
 22  6  1  0  0  0  0
 22 15  1  0  0  0  0
 23 59  1  0  0  0  0
 24 60  1  0  0  0  0
 25 61  1  0  0  0  0
 26 62  1  0  0  0  0
 27 63  1  0  0  0  0
 28 64  1  0  0  0  0
 30 65  1  0  0  0  0
 32 66  1  0  0  0  0
 34  3  1  0  0  0  0
 35  4  1  0  0  0  0
 36  8  1  0  0  0  0
 36 16  1  0  0  0  0
 37  7  1  0  0  0  0
 37 17  1  0  0  0  0
 40 27  1  0  0  0  0
 40 28  1  0  0  0  0
 40 29  2  0  0  0  0
 40 38  1  0  0  0  0
 41 30  1  0  0  0  0
 41 31  2  0  0  0  0
 41 34  1  0  0  0  0
 41 39  1  0  0  0  0
 42 32  1  0  0  0  0
 42 33  2  0  0  0  0
 42 35  1  0  0  0  0
 42 39  1  0  0  0  0
M  END
>  <DRUGBANK_ID>
DB03732

>  <SECONDARY_ACCESSION_NUMBERS>
EXPT01346

>  <COMMON_NAME>
Etheno-Nadp

$$$$
