
 OpenBabel10282417173D

135130  0  0  0  0  0  0  0  0999 V2000
    0.9280    0.0456    0.0523 C   0  0  0  0  0  0  0  0  0  0  0  0
    0.9280   -3.4320   -2.5626 C   0  0  0  0  0  0  0  0  0  0  0  0
    1.7680   -2.8396   -4.3936 C   0  0  0  0  0  0  0  0  0  0  0  0
    0.4213   -3.8429   -4.8365 C   0  0  0  0  0  0  0  0  0  0  0  0
    0.4213   -1.2187   -0.6225 C   0  0  0  0  0  0  0  0  0  0  0  0
    0.4213   -2.2155   -3.3201 C   0  0  0  0  0  0  0  0  0  0  0  0
    2.2746   -4.0561   -3.6360 C   0  0  0  0  0  0  0  0  0  0  0  0
    0.9280   -2.5786   -4.1617 C   0  0  0  0  0  0  0  0  0  0  0  0
    2.3146   -2.3551    0.0852 C   0  0  0  0  0  0  0  0  0  0  0  0
    2.3147   -2.2602   -4.6582 C   0  0  0  0  0  0  0  0  0  0  0  0
    0.3813   -5.2372   -4.2664 C   0  0  0  0  0  0  0  0  0  0  0  0
    2.8213   -3.7150   -3.4540 C   0  0  0  0  0  0  0  0  0  0  0  0
    2.8213   -2.4029   -1.3470 C   0  0  0  0  0  0  0  0  0  0  0  0
    2.8213   -0.9959   -3.9834 C   0  0  0  0  0  0  0  0  0  0  0  0
   -0.1254   -5.1893   -2.8341 C   0  0  0  0  0  0  0  0  0  0  0  0
    2.3146   -3.6672   -2.0218 C   0  0  0  0  0  0  0  0  0  0  0  0
    0.3813   -0.9383   -2.2591 C   0  0  0  0  0  0  0  0  0  0  0  0
   -0.1254   -2.2026   -2.9338 C   0  0  0  0  0  0  0  0  0  0  0  0
    0.8946   -2.3551    0.0852 O   0  0  0  0  0  0  0  0  0  0  0  0
    0.8947   -2.2602   -4.6582 O   0  0  0  0  0  0  0  0  0  0  0  0
    1.8013   -5.2372   -4.2664 O   0  0  0  0  0  0  0  0  0  0  0  0
    2.3480   -2.5786   -4.1617 O   0  0  0  0  0  0  0  0  0  0  0  0
    2.2113   -0.9383   -2.2591 P   0  0  0  0  0  0  0  0  0  0  0  0
    0.4846   -3.6672   -2.0218 P   0  0  0  0  0  0  0  0  0  0  0  0
    0.9942    0.0466    0.0883 C   0  0  0  0  0  0  0  0  0  0  0  0
    0.9942    1.3941   -4.0488 C   0  0  0  0  0  0  0  0  0  0  0  0
    1.8342    3.3183   -4.0813 C   0  0  0  0  0  0  0  0  0  0  0  0
    0.4875    3.4123   -5.1740 C   0  0  0  0  0  0  0  0  0  0  0  0
    0.4875    0.2754   -1.3264 C   0  0  0  0  0  0  0  0  0  0  0  0
    0.4875    2.5048   -3.1432 C   0  0  0  0  0  0  0  0  0  0  0  0
    2.3409    2.2076   -4.9869 C   0  0  0  0  0  0  0  0  0  0  0  0
    0.9942    3.1835   -3.7593 C   0  0  0  0  0  0  0  0  0  0  0  0
    2.3809   -0.7622   -2.1723 C   0  0  0  0  0  0  0  0  0  0  0  0
    2.3809    3.7563   -3.6189 C   0  0  0  0  0  0  0  0  0  0  0  0
    0.4475    2.4214   -6.3085 C   0  0  0  0  0  0  0  0  0  0  0  0
    2.8875    2.1458   -4.6053 C   0  0  0  0  0  0  0  0  0  0  0  0
    2.8875    0.5774   -2.6815 C   0  0  0  0  0  0  0  0  0  0  0  0
    2.8875    3.5274   -2.2042 C   0  0  0  0  0  0  0  0  0  0  0  0
   -0.0591    1.0818   -5.7993 C   0  0  0  0  0  0  0  0  0  0  0  0
    2.3809    0.8062   -4.0961 C   0  0  0  0  0  0  0  0  0  0  0  0
    0.4475    1.9146   -1.5912 C   0  0  0  0  0  0  0  0  0  0  0  0
   -0.0591    2.1435   -3.0059 C   0  0  0  0  0  0  0  0  0  0  0  0
    0.9609   -0.7622   -2.1723 O   0  0  0  0  0  0  0  0  0  0  0  0
    0.9609    3.7563   -3.6189 O   0  0  0  0  0  0  0  0  0  0  0  0
    1.8675    2.4214   -6.3085 O   0  0  0  0  0  0  0  0  0  0  0  0
    2.4142    3.1835   -3.7593 O   0  0  0  0  0  0  0  0  0  0  0  0
    2.2775    1.9146   -1.5912 P   0  0  0  0  0  0  0  0  0  0  0  0
    0.5509    0.8063   -4.0961 P   0  0  0  0  0  0  0  0  0  0  0  0
    1.0755   -0.0432    0.0494 O   0  0  0  0  0  0  0  0  0  0  0  0
    0.9519   -0.0873    0.0075 O   0  0  0  0  0  0  0  0  0  0  0  0
    1.0127   -0.0716    0.0687 Tc  0  0  0  0  0  0  0  0  0  0  0  0
    0.5713    0.0793    1.0605 H   0  0  0  0  0  0  0  0  0  0  0  0
    0.5713    0.9020   -0.4810 H   0  0  0  0  0  0  0  0  0  0  0  0
    1.9980    0.0456    0.0523 H   0  0  0  0  0  0  0  0  0  0  0  0
    1.9980   -3.4320   -2.5626 H   0  0  0  0  0  0  0  0  0  0  0  0
    0.5713   -3.3984   -1.5544 H   0  0  0  0  0  0  0  0  0  0  0  0
    0.5713   -4.3220   -3.0376 H   0  0  0  0  0  0  0  0  0  0  0  0
    0.6980   -2.8396   -4.3936 H   0  0  0  0  0  0  0  0  0  0  0  0
    2.1246   -1.9496   -3.9186 H   0  0  0  0  0  0  0  0  0  0  0  0
    2.1246   -2.8732   -5.4018 H   0  0  0  0  0  0  0  0  0  0  0  0
    0.7780   -4.6992   -4.3032 H   0  0  0  0  0  0  0  0  0  0  0  0
   -0.6487   -3.8429   -4.8365 H   0  0  0  0  0  0  0  0  0  0  0  0
    0.7780   -3.8765   -5.8447 H   0  0  0  0  0  0  0  0  0  0  0  0
   -0.6487   -1.2187   -0.6225 H   0  0  0  0  0  0  0  0  0  0  0  0
    0.7780   -1.2523   -1.6307 H   0  0  0  0  0  0  0  0  0  0  0  0
    0.7780   -1.3255   -2.8452 H   0  0  0  0  0  0  0  0  0  0  0  0
   -0.6487   -2.2155   -3.3202 H   0  0  0  0  0  0  0  0  0  0  0  0
    1.9180   -4.0224   -2.6278 H   0  0  0  0  0  0  0  0  0  0  0  0
    3.3446   -4.0561   -3.6360 H   0  0  0  0  0  0  0  0  0  0  0  0
    0.5713   -2.5449   -3.1535 H   0  0  0  0  0  0  0  0  0  0  0  0
    0.5713   -1.7222   -4.6950 H   0  0  0  0  0  0  0  0  0  0  0  0
    2.6713   -1.4651    0.5602 H   0  0  0  0  0  0  0  0  0  0  0  0
    2.6713   -3.2115    0.6185 H   0  0  0  0  0  0  0  0  0  0  0  0
    2.6713   -2.2938   -5.6664 H   0  0  0  0  0  0  0  0  0  0  0  0
    2.6713   -3.1165   -4.1249 H   0  0  0  0  0  0  0  0  0  0  0  0
    0.0246   -6.1272   -4.7414 H   0  0  0  0  0  0  0  0  0  0  0  0
    0.0246   -4.3808   -4.7996 H   0  0  0  0  0  0  0  0  0  0  0  0
    3.8913   -3.7150   -3.4540 H   0  0  0  0  0  0  0  0  0  0  0  0
    2.4646   -4.6050   -3.9290 H   0  0  0  0  0  0  0  0  0  0  0  0
    3.8913   -2.4029   -1.3470 H   0  0  0  0  0  0  0  0  0  0  0  0
    2.4646   -3.2929   -1.8220 H   0  0  0  0  0  0  0  0  0  0  0  0
    2.4647   -0.1396   -4.5167 H   0  0  0  0  0  0  0  0  0  0  0  0
    3.8913   -0.9959   -3.9834 H   0  0  0  0  0  0  0  0  0  0  0  0
    0.2313   -6.0457   -2.3008 H   0  0  0  0  0  0  0  0  0  0  0  0
   -1.1954   -5.1893   -2.8341 H   0  0  0  0  0  0  0  0  0  0  0  0
    2.6713   -2.7772   -1.5468 H   0  0  0  0  0  0  0  0  0  0  0  0
    2.6713   -4.5236   -1.4885 H   0  0  0  0  0  0  0  0  0  0  0  0
    0.0246   -0.9047   -1.2508 H   0  0  0  0  0  0  0  0  0  0  0  0
    0.0247   -0.0820   -2.7923 H   0  0  0  0  0  0  0  0  0  0  0  0
   -1.1954   -2.2026   -2.9338 H   0  0  0  0  0  0  0  0  0  0  0  0
    0.2313   -2.2363   -3.9420 H   0  0  0  0  0  0  0  0  0  0  0  0
    0.6375   -0.8964    0.4467 H   0  0  0  0  0  0  0  0  0  0  0  0
    0.6375    0.8284    0.7258 H   0  0  0  0  0  0  0  0  0  0  0  0
    2.0642    0.0466    0.0883 H   0  0  0  0  0  0  0  0  0  0  0  0
    2.0642    1.3941   -4.0488 H   0  0  0  0  0  0  0  0  0  0  0  0
    0.6375    0.4511   -3.6904 H   0  0  0  0  0  0  0  0  0  0  0  0
    0.6375    1.5552   -5.0446 H   0  0  0  0  0  0  0  0  0  0  0  0
    0.7642    3.3183   -4.0813 H   0  0  0  0  0  0  0  0  0  0  0  0
    2.1909    3.1572   -3.0855 H   0  0  0  0  0  0  0  0  0  0  0  0
    2.1909    4.2613   -4.4397 H   0  0  0  0  0  0  0  0  0  0  0  0
    0.8442    2.6305   -5.8114 H   0  0  0  0  0  0  0  0  0  0  0  0
   -0.5825    3.4123   -5.1740 H   0  0  0  0  0  0  0  0  0  0  0  0
    0.8442    4.3553   -5.5324 H   0  0  0  0  0  0  0  0  0  0  0  0
   -0.5825    0.2754   -1.3264 H   0  0  0  0  0  0  0  0  0  0  0  0
    0.8442    1.2184   -1.6848 H   0  0  0  0  0  0  0  0  0  0  0  0
    0.8442    2.3437   -2.1474 H   0  0  0  0  0  0  0  0  0  0  0  0
   -0.5825    2.5048   -3.1432 H   0  0  0  0  0  0  0  0  0  0  0  0
    1.9842    1.2646   -4.6285 H   0  0  0  0  0  0  0  0  0  0  0  0
    3.4109    2.2076   -4.9869 H   0  0  0  0  0  0  0  0  0  0  0  0
    0.6375    2.2405   -3.4009 H   0  0  0  0  0  0  0  0  0  0  0  0
    0.6375    3.9654   -3.1218 H   0  0  0  0  0  0  0  0  0  0  0  0
    2.7375   -0.9233   -1.1765 H   0  0  0  0  0  0  0  0  0  0  0  0
    2.7375   -1.5441   -2.8098 H   0  0  0  0  0  0  0  0  0  0  0  0
    2.7376    4.6993   -3.9773 H   0  0  0  0  0  0  0  0  0  0  0  0
    2.7375    2.9744   -4.2563 H   0  0  0  0  0  0  0  0  0  0  0  0
    0.0909    2.5825   -7.3043 H   0  0  0  0  0  0  0  0  0  0  0  0
    0.0909    3.2033   -5.6710 H   0  0  0  0  0  0  0  0  0  0  0  0
    3.9575    2.1458   -4.6053 H   0  0  0  0  0  0  0  0  0  0  0  0
    2.5309    2.3069   -5.6011 H   0  0  0  0  0  0  0  0  0  0  0  0
    3.9575    0.5774   -2.6815 H   0  0  0  0  0  0  0  0  0  0  0  0
    2.5309    0.7385   -3.6773 H   0  0  0  0  0  0  0  0  0  0  0  0
    2.5309    4.3093   -1.5667 H   0  0  0  0  0  0  0  0  0  0  0  0
    3.9575    3.5274   -2.2042 H   0  0  0  0  0  0  0  0  0  0  0  0
    0.2975    0.2999   -6.4368 H   0  0  0  0  0  0  0  0  0  0  0  0
   -1.1291    1.0818   -5.7993 H   0  0  0  0  0  0  0  0  0  0  0  0
    2.7375    0.6451   -3.1003 H   0  0  0  0  0  0  0  0  0  0  0  0
    2.7375    0.0244   -4.7336 H   0  0  0  0  0  0  0  0  0  0  0  0
    0.0909    0.9716   -1.2328 H   0  0  0  0  0  0  0  0  0  0  0  0
    0.0909    2.6965   -0.9538 H   0  0  0  0  0  0  0  0  0  0  0  0
   -1.1291    2.1435   -3.0059 H   0  0  0  0  0  0  0  0  0  0  0  0
    0.2975    3.0865   -3.3643 H   0  0  0  0  0  0  0  0  0  0  0  0
    0.7422    0.5860   -0.6528 H   0  0  0  0  0  0  0  0  0  0  0  0
    2.0755   -0.0432    0.0494 H   0  0  0  0  0  0  0  0  0  0  0  0
    0.6185    0.8435   -0.1424 H   0  0  0  0  0  0  0  0  0  0  0  0
    1.9519   -0.0873    0.0075 H   0  0  0  0  0  0  0  0  0  0  0  0
  1 52  1  0  0  0  0
  1 53  1  0  0  0  0
  1 54  1  0  0  0  0
  2 55  1  0  0  0  0
  2 56  1  0  0  0  0
  2 57  1  0  0  0  0
  3 58  1  0  0  0  0
  3 59  1  0  0  0  0
  3 60  1  0  0  0  0
  4 61  1  0  0  0  0
  4 62  1  0  0  0  0
  4 63  1  0  0  0  0
  5  1  1  0  0  0  0
  5 64  1  0  0  0  0
  5 65  1  0  0  0  0
  6  2  1  0  0  0  0
  6 66  1  0  0  0  0
  6 67  1  0  0  0  0
  7  3  1  0  0  0  0
  7 68  1  0  0  0  0
  7 69  1  0  0  0  0
  8  4  1  0  0  0  0
  8 70  1  0  0  0  0
  8 71  1  0  0  0  0
  9 72  1  0  0  0  0
  9 73  1  0  0  0  0
 10 74  1  0  0  0  0
 10 75  1  0  0  0  0
 11 76  1  0  0  0  0
 11 77  1  0  0  0  0
 12 78  1  0  0  0  0
 12 79  1  0  0  0  0
 13  9  1  0  0  0  0
 13 80  1  0  0  0  0
 13 81  1  0  0  0  0
 14 10  1  0  0  0  0
 14 82  1  0  0  0  0
 14 83  1  0  0  0  0
 15 11  1  0  0  0  0
 15 84  1  0  0  0  0
 15 85  1  0  0  0  0
 16 12  1  0  0  0  0
 16 86  1  0  0  0  0
 16 87  1  0  0  0  0
 17 88  1  0  0  0  0
 17 89  1  0  0  0  0
 18 17  1  0  0  0  0
 18 90  1  0  0  0  0
 18 91  1  0  0  0  0
 19  5  1  0  0  0  0
 19  9  1  0  0  0  0
 20  6  1  0  0  0  0
 20 10  1  0  0  0  0
 21  7  1  0  0  0  0
 21 11  1  0  0  0  0
 22  8  1  0  0  0  0
 22 12  1  0  0  0  0
 23 13  1  0  0  0  0
 23 14  1  0  0  0  0
 23 17  1  0  0  0  0
 24 15  1  0  0  0  0
 24 16  1  0  0  0  0
 24 18  1  0  0  0  0
 25 92  1  0  0  0  0
 25 93  1  0  0  0  0
 25 94  1  0  0  0  0
 26 95  1  0  0  0  0
 26 96  1  0  0  0  0
 26 97  1  0  0  0  0
 27 98  1  0  0  0  0
 27 99  1  0  0  0  0
 27100  1  0  0  0  0
 28101  1  0  0  0  0
 28102  1  0  0  0  0
 28103  1  0  0  0  0
 29 25  1  0  0  0  0
 29104  1  0  0  0  0
 29105  1  0  0  0  0
 30 26  1  0  0  0  0
 30106  1  0  0  0  0
 30107  1  0  0  0  0
 31 27  1  0  0  0  0
 31108  1  0  0  0  0
 31109  1  0  0  0  0
 32 28  1  0  0  0  0
 32110  1  0  0  0  0
 32111  1  0  0  0  0
 33112  1  0  0  0  0
 33113  1  0  0  0  0
 34114  1  0  0  0  0
 34115  1  0  0  0  0
 35116  1  0  0  0  0
 35117  1  0  0  0  0
 36118  1  0  0  0  0
 36119  1  0  0  0  0
 37 33  1  0  0  0  0
 37120  1  0  0  0  0
 37121  1  0  0  0  0
 38 34  1  0  0  0  0
 38122  1  0  0  0  0
 38123  1  0  0  0  0
 39 35  1  0  0  0  0
 39124  1  0  0  0  0
 39125  1  0  0  0  0
 40 36  1  0  0  0  0
 40126  1  0  0  0  0
 40127  1  0  0  0  0
 41128  1  0  0  0  0
 41129  1  0  0  0  0
 42 41  1  0  0  0  0
 42130  1  0  0  0  0
 42131  1  0  0  0  0
 43 29  1  0  0  0  0
 43 33  1  0  0  0  0
 44 30  1  0  0  0  0
 44 34  1  0  0  0  0
 45 31  1  0  0  0  0
 45 35  1  0  0  0  0
 46 32  1  0  0  0  0
 46 36  1  0  0  0  0
 47 37  1  0  0  0  0
 47 38  1  0  0  0  0
 47 41  1  0  0  0  0
 48 39  1  0  0  0  0
 48 40  1  0  0  0  0
 48 42  1  0  0  0  0
 49132  1  0  0  0  0
 49133  1  0  0  0  0
 50134  1  0  0  0  0
 50135  1  0  0  0  0
M  ISO  1  51  98
M  END
>  <DRUGBANK_ID>
DB09160

>  <SECONDARY_ACCESSION_NUMBERS>
DB09505

>  <COMMON_NAME>
Technetium Tc-99m tetrofosmin

>  <CAS_NUMBER>
127455-27-0

>  <UNII>
42FOP1YX93

>  <SYNONYMS>
Tc-99m tetrofosmin; Technetium (99mTc) tetrofosmin; Technetium Tc 99m tetrofosmin; Technetium-99 tetrofosmin

$$$$
