
 OpenBabel10282417193D

 56 59  0  0  0  0  0  0  0  0999 V2000
    1.4070   -0.1629   -0.0363 C   0  0  0  0  0  0  0  0  0  0  0  0
    0.5649   -1.2660   -0.0576 C   0  0  0  0  0  0  0  0  0  0  0  0
   -0.8102   -1.0597   -0.0780 C   0  0  0  0  0  0  0  0  0  0  0  0
   -1.3364    0.2225   -0.0505 C   0  0  0  0  0  0  0  0  0  0  0  0
   -0.5127    1.3293    0.0263 C   0  0  0  0  0  0  0  0  0  0  0  0
    0.8685    1.1321   -0.0259 C   0  0  0  0  0  0  0  0  0  0  0  0
   -0.9746    2.6070    0.1982 O   0  0  0  0  0  0  0  0  0  0  0  0
   -2.3845    2.7360    0.4095 C   0  0  0  0  0  0  0  0  0  0  0  0
   -3.2249    2.4124   -0.8228 C   0  0  0  0  0  0  0  0  0  0  0  0
   -4.1496    1.6134   -0.8787 O   0  0  0  0  0  0  0  0  0  0  0  0
   -2.8120    3.0568   -1.9313 O   0  0  0  0  0  0  0  0  0  0  0  0
   -1.7834   -2.1672    0.0511 C   0  0  0  0  0  0  0  0  0  0  0  0
   -2.4752   -2.2321    1.3987 N   0  0  0  0  0  0  0  0  0  0  0  0
   -3.4256   -3.3830    1.3550 C   0  0  0  0  0  0  0  0  0  0  0  0
   -2.7279   -4.7223    1.3131 C   0  0  0  0  0  0  0  0  0  0  0  0
   -1.3355   -4.7807    1.4776 C   0  0  0  0  0  0  0  0  0  0  0  0
   -0.6272   -5.8975    1.8064 C   0  0  0  0  0  0  0  0  0  0  0  0
   -1.3026   -7.0789    1.6965 C   0  0  0  0  0  0  0  0  0  0  0  0
   -2.6630   -7.1162    1.3447 C   0  0  0  0  0  0  0  0  0  0  0  0
   -3.3892   -5.9304    1.1684 C   0  0  0  0  0  0  0  0  0  0  0  0
   -0.5418   -8.2413    1.7802 N   0  0  0  0  0  0  0  0  0  0  0  0
    0.3249   -8.5847    2.7877 C   0  0  0  0  0  0  0  0  0  0  0  0
    0.9062   -9.7663    2.3992 C   0  0  0  0  0  0  0  0  0  0  0  0
    0.4210   -9.9886    1.0995 C   0  0  0  0  0  0  0  0  0  0  0  0
   -0.4846   -9.0842    0.7303 N   0  0  0  0  0  0  0  0  0  0  0  0
   -1.5396   -1.9421    2.8663 S   0  0  0  0  0  0  0  0  0  0  0  0
   -0.6609   -3.0417    3.2421 O   0  0  0  0  0  0  0  0  0  0  0  0
   -0.9654   -0.6267    2.8129 O   0  0  0  0  0  0  0  0  0  0  0  0
   -2.7169   -1.9378    4.1638 C   0  0  0  0  0  0  0  0  0  0  0  0
   -3.1312   -3.1199    4.7869 C   0  0  0  0  0  0  0  0  0  0  0  0
   -3.8881   -3.0270    5.9466 C   0  0  0  0  0  0  0  0  0  0  0  0
   -4.1619   -1.7606    6.4422 C   0  0  0  0  0  0  0  0  0  0  0  0
   -3.7526   -0.6084    5.8624 N   0  0  0  0  0  0  0  0  0  0  0  0
   -3.0208   -0.7215    4.7345 C   0  0  0  0  0  0  0  0  0  0  0  0
    2.4807   -0.3156    0.0202 H   0  0  0  0  0  0  0  0  0  0  0  0
    0.9729   -2.2727   -0.0090 H   0  0  0  0  0  0  0  0  0  0  0  0
   -2.4154    0.2746    0.0094 H   0  0  0  0  0  0  0  0  0  0  0  0
    1.5392    1.9848   -0.0234 H   0  0  0  0  0  0  0  0  0  0  0  0
   -2.7163    2.1281    1.2655 H   0  0  0  0  0  0  0  0  0  0  0  0
   -2.5964    3.7736    0.6841 H   0  0  0  0  0  0  0  0  0  0  0  0
   -3.3304    2.6594   -2.6596 H   0  0  0  0  0  0  0  0  0  0  0  0
   -2.5474   -2.0613   -0.7353 H   0  0  0  0  0  0  0  0  0  0  0  0
   -1.2779   -3.0874   -0.2423 H   0  0  0  0  0  0  0  0  0  0  0  0
   -4.1183   -3.3145    2.2014 H   0  0  0  0  0  0  0  0  0  0  0  0
   -4.0723   -3.2693    0.4697 H   0  0  0  0  0  0  0  0  0  0  0  0
   -0.6982   -3.9161    1.3857 H   0  0  0  0  0  0  0  0  0  0  0  0
    0.4277   -5.7843    2.0381 H   0  0  0  0  0  0  0  0  0  0  0  0
   -3.1645   -8.0744    1.2658 H   0  0  0  0  0  0  0  0  0  0  0  0
   -4.4417   -5.9679    0.8983 H   0  0  0  0  0  0  0  0  0  0  0  0
    0.3887   -8.0042    3.6989 H   0  0  0  0  0  0  0  0  0  0  0  0
    1.5880  -10.3762    2.9708 H   0  0  0  0  0  0  0  0  0  0  0  0
    0.6658  -10.7845    0.4108 H   0  0  0  0  0  0  0  0  0  0  0  0
   -2.8396   -4.0978    4.4063 H   0  0  0  0  0  0  0  0  0  0  0  0
   -4.2322   -3.9135    6.4687 H   0  0  0  0  0  0  0  0  0  0  0  0
   -4.7261   -1.6307    7.3598 H   0  0  0  0  0  0  0  0  0  0  0  0
   -2.6456    0.2097    4.3189 H   0  0  0  0  0  0  0  0  0  0  0  0
  1  2  2  0  0  0  0
  1  6  1  0  0  0  0
  1 35  1  0  0  0  0
  2  3  1  0  0  0  0
  2 36  1  0  0  0  0
  3  4  2  0  0  0  0
  3 12  1  0  0  0  0
  4  5  1  0  0  0  0
  4 37  1  0  0  0  0
  5  6  2  0  0  0  0
  5  7  1  0  0  0  0
  6 38  1  0  0  0  0
  7  8  1  0  0  0  0
  8  9  1  0  0  0  0
  8 39  1  0  0  0  0
  8 40  1  0  0  0  0
  9 10  2  0  0  0  0
  9 11  1  0  0  0  0
 11 41  1  0  0  0  0
 12 13  1  0  0  0  0
 12 42  1  0  0  0  0
 12 43  1  0  0  0  0
 13 14  1  0  0  0  0
 13 26  1  0  0  0  0
 14 15  1  0  0  0  0
 14 44  1  0  0  0  0
 14 45  1  0  0  0  0
 15 16  2  0  0  0  0
 15 20  1  0  0  0  0
 16 17  1  0  0  0  0
 16 46  1  0  0  0  0
 17 18  2  0  0  0  0
 17 47  1  0  0  0  0
 18 19  1  0  0  0  0
 18 21  1  0  0  0  0
 19 20  2  0  0  0  0
 19 48  1  0  0  0  0
 20 49  1  0  0  0  0
 21 22  1  0  0  0  0
 21 25  1  0  0  0  0
 22 23  2  0  0  0  0
 22 50  1  0  0  0  0
 23 24  1  0  0  0  0
 23 51  1  0  0  0  0
 24 25  2  0  0  0  0
 24 52  1  0  0  0  0
 26 27  2  0  0  0  0
 26 28  2  0  0  0  0
 26 29  1  0  0  0  0
 29 30  2  0  0  0  0
 29 34  1  0  0  0  0
 30 31  1  0  0  0  0
 30 53  1  0  0  0  0
 31 32  2  0  0  0  0
 31 54  1  0  0  0  0
 32 33  1  0  0  0  0
 32 55  1  0  0  0  0
 33 34  2  0  0  0  0
 34 56  1  0  0  0  0
M  END
>  <DRUGBANK_ID>
DB12623

>  <COMMON_NAME>
Taprenepag

>  <CAS_NUMBER>
752187-80-7

>  <UNII>
9CD894KUMJ

>  <SYNONYMS>
Taprenepag

$$$$
