
 OpenBabel10282417133D

 20 19  0  0  0  0  0  0  0  0999 V2000
    1.0415   -0.0308   -0.0637 C   0  0  0  0  0  0  0  0  0  0  0  0
    0.2997   -1.2887   -0.4718 C   0  0  0  0  0  0  0  0  0  0  0  0
   -0.6378   -1.7999    0.6289 C   0  0  0  0  0  0  0  0  0  0  0  0
   -1.7106   -0.7789    1.0545 C   0  0  0  0  0  0  0  0  0  0  0  0
   -2.5943   -0.3712   -0.1244 C   0  0  0  0  0  0  0  0  0  0  0  0
   -2.5660   -1.3166    2.1961 C   0  0  0  0  0  0  0  0  0  0  0  0
    0.4983    1.0267    0.2285 O   0  0  0  0  0  0  0  0  0  0  0  0
    2.3841   -0.1452   -0.0601 O   0  0  0  0  0  0  0  0  0  0  0  0
   -0.2507   -1.0720   -1.3935 H   0  0  0  0  0  0  0  0  0  0  0  0
    1.0071   -2.0816   -0.7387 H   0  0  0  0  0  0  0  0  0  0  0  0
   -1.1338   -2.7148    0.2755 H   0  0  0  0  0  0  0  0  0  0  0  0
   -0.0400   -2.0908    1.5023 H   0  0  0  0  0  0  0  0  0  0  0  0
   -1.2229    0.1151    1.4533 H   0  0  0  0  0  0  0  0  0  0  0  0
   -3.1384   -1.2356   -0.5187 H   0  0  0  0  0  0  0  0  0  0  0  0
   -3.3202    0.3884    0.1790 H   0  0  0  0  0  0  0  0  0  0  0  0
   -2.0108    0.0610   -0.9427 H   0  0  0  0  0  0  0  0  0  0  0  0
   -1.9416   -1.5745    3.0580 H   0  0  0  0  0  0  0  0  0  0  0  0
   -3.2802   -0.5519    2.5211 H   0  0  0  0  0  0  0  0  0  0  0  0
   -3.1258   -2.2052    1.8919 H   0  0  0  0  0  0  0  0  0  0  0  0
    2.7300   -1.0075   -0.3499 H   0  0  0  0  0  0  0  0  0  0  0  0
  1  2  1  0  0  0  0
  1  7  2  0  0  0  0
  1  8  1  0  0  0  0
  2  3  1  0  0  0  0
  2  9  1  0  0  0  0
  2 10  1  0  0  0  0
  3  4  1  0  0  0  0
  3 11  1  0  0  0  0
  3 12  1  0  0  0  0
  4  5  1  0  0  0  0
  4  6  1  0  0  0  0
  4 13  1  0  0  0  0
  5 14  1  0  0  0  0
  5 15  1  0  0  0  0
  5 16  1  0  0  0  0
  6 17  1  0  0  0  0
  6 18  1  0  0  0  0
  6 19  1  0  0  0  0
  8 20  1  0  0  0  0
M  END
>  <DRUGBANK_ID>
DB03993

>  <SECONDARY_ACCESSION_NUMBERS>
EXPT00220

>  <COMMON_NAME>
Isocaproic acid

>  <CAS_NUMBER>
646-07-1

>  <UNII>
4G4U8JA28T

>  <SYNONYMS>
4-Methylvaleric acid; Isobutylacetic acid

$$$$
