
 OpenBabel10282417133D

 88 90  0  0  0  0  0  0  0  0999 V2000
    7.9398    3.1453   -1.5309 P   0  0  0  0  0  0  0  0  0  0  0  0
   10.2643    7.8606  -10.8026 P   0  0  0  0  0  0  0  0  0  0  0  0
    6.6815    3.4278    0.6342 F   0  0  0  0  0  0  0  0  0  0  0  0
    7.4374    5.2788   -0.3042 F   0  0  0  0  0  0  0  0  0  0  0  0
    8.0686    7.1638  -11.8379 F   0  0  0  0  0  0  0  0  0  0  0  0
    7.9650    9.0133  -10.6406 F   0  0  0  0  0  0  0  0  0  0  0  0
    2.4337    4.7660   -7.3654 O   0  0  0  0  0  0  0  0  0  0  0  0
    5.7309    0.7723   -5.4849 O   0  0  0  0  0  0  0  0  0  0  0  0
    5.2225    7.4221   -4.6487 O   0  0  0  0  0  0  0  0  0  0  0  0
    0.4724    0.6825   -7.4410 O   0  0  0  0  0  0  0  0  0  0  0  0
    7.0740    1.9616  -10.4027 O   0  0  0  0  0  0  0  0  0  0  0  0
    7.1755    1.7318   -1.6836 O   0  0  0  0  0  0  0  0  0  0  0  0
    7.7880    3.8237   -2.9954 O   0  0  0  0  0  0  0  0  0  0  0  0
    6.8988    0.4536   -8.7219 O   0  0  0  0  0  0  0  0  0  0  0  0
    9.3708    2.9504   -1.1490 O   0  0  0  0  0  0  0  0  0  0  0  0
   10.0094    8.6334  -12.2440 O   0  0  0  0  0  0  0  0  0  0  0  0
   10.2412    9.1638   -9.7700 O   0  0  0  0  0  0  0  0  0  0  0  0
   11.8051    7.9602  -10.9194 O   0  0  0  0  0  0  0  0  0  0  0  0
    4.1788    2.3340   -5.2722 N   0  0  0  0  0  0  0  0  0  0  0  0
    4.5656    4.7470   -6.9562 N   0  0  0  0  0  0  0  0  0  0  0  0
    2.7086    0.5337   -7.3296 N   0  0  0  0  0  0  0  0  0  0  0  0
    4.8257    7.5948   -6.7854 N   0  0  0  0  0  0  0  0  0  0  0  0
    3.0419    3.2371   -5.5688 C   0  0  1  0  0  0  0  0  0  0  0  0
    2.5368    4.1405   -4.4215 C   0  0  0  0  0  0  0  0  0  0  0  0
    5.3871    5.2581   -5.8902 C   0  0  1  0  0  0  0  0  0  0  0  0
    4.1671    0.8579   -7.3262 C   0  0  2  0  0  0  0  0  0  0  0  0
    3.3350    4.2515   -6.6911 C   0  0  0  0  0  0  0  0  0  0  0  0
    6.8601    4.8197   -6.0320 C   0  0  0  0  0  0  0  0  0  0  0  0
    3.4233    4.1779   -3.2132 C   0  0  0  0  0  0  0  0  0  0  0  0
    4.6967    1.2663   -5.9432 C   0  0  0  0  0  0  0  0  0  0  0  0
    4.4970    1.9645   -8.2799 C   0  0  0  0  0  0  0  0  0  0  0  0
    7.5148    5.4510   -7.2205 C   0  0  0  0  0  0  0  0  0  0  0  0
    4.1455    5.3410   -2.9605 C   0  0  0  0  0  0  0  0  0  0  0  0
    3.6570    3.0653   -2.4271 C   0  0  0  0  0  0  0  0  0  0  0  0
    5.8408    2.5731   -8.4647 C   0  0  0  0  0  0  0  0  0  0  0  0
    5.0597    6.8006   -5.6988 C   0  0  0  0  0  0  0  0  0  0  0  0
    5.4569    4.2654   -1.2882 C   0  0  0  0  0  0  0  0  0  0  0  0
    5.2186    5.3787   -2.0852 C   0  0  0  0  0  0  0  0  0  0  0  0
    4.6201    3.1381   -1.4267 C   0  0  0  0  0  0  0  0  0  0  0  0
    7.4730    6.8369   -7.2272 C   0  0  0  0  0  0  0  0  0  0  0  0
    8.1066    4.8004   -8.2940 C   0  0  0  0  0  0  0  0  0  0  0  0
    6.7526    4.1290   -0.5215 C   0  0  0  0  0  0  0  0  0  0  0  0
    8.1042    6.9061   -9.4843 C   0  0  0  0  0  0  0  0  0  0  0  0
    7.5630    7.5428   -8.3923 C   0  0  0  0  0  0  0  0  0  0  0  0
    8.4924    5.5576   -9.3943 C   0  0  0  0  0  0  0  0  0  0  0  0
    1.5504    1.0847   -7.8783 C   0  0  0  0  0  0  0  0  0  0  0  0
    8.4434    7.7430  -10.6646 C   0  0  0  0  0  0  0  0  0  0  0  0
    6.6717    1.5813   -9.1840 C   0  0  0  0  0  0  0  0  0  0  0  0
    1.5249    2.1693   -8.9243 C   0  0  0  0  0  0  0  0  0  0  0  0
    2.3540    2.1201  -10.0413 C   0  0  0  0  0  0  0  0  0  0  0  0
    0.7598    3.3279   -8.7484 C   0  0  0  0  0  0  0  0  0  0  0  0
    2.7590    3.3083  -10.6727 C   0  0  0  0  0  0  0  0  0  0  0  0
    0.9810    4.4610   -9.5641 C   0  0  0  0  0  0  0  0  0  0  0  0
    2.0651    4.4852  -10.4394 C   0  0  0  0  0  0  0  0  0  0  0  0
    4.7496    2.5142   -4.4536 H   0  0  0  0  0  0  0  0  0  0  0  0
    4.5302    5.3090   -7.7981 H   0  0  0  0  0  0  0  0  0  0  0  0
    2.4776   -0.2048   -6.6708 H   0  0  0  0  0  0  0  0  0  0  0  0
    5.1309    7.3065   -7.7034 H   0  0  0  0  0  0  0  0  0  0  0  0
    5.0680    8.5582   -6.5544 H   0  0  0  0  0  0  0  0  0  0  0  0
    6.7732    2.8492  -10.6781 H   0  0  0  0  0  0  0  0  0  0  0  0
    7.2409    1.2312   -0.8444 H   0  0  0  0  0  0  0  0  0  0  0  0
    7.6295    4.7862   -2.9082 H   0  0  0  0  0  0  0  0  0  0  0  0
   10.2556    8.0506  -12.9889 H   0  0  0  0  0  0  0  0  0  0  0  0
    9.4303    9.3279   -9.2571 H   0  0  0  0  0  0  0  0  0  0  0  0
    2.2068    2.6004   -5.8714 H   0  0  0  0  0  0  0  0  0  0  0  0
    1.5160    3.8842   -4.1296 H   0  0  0  0  0  0  0  0  0  0  0  0
    2.4364    5.1681   -4.8108 H   0  0  0  0  0  0  0  0  0  0  0  0
    5.0702    4.7434   -5.0044 H   0  0  0  0  0  0  0  0  0  0  0  0
    4.6711   -0.0704   -7.6243 H   0  0  0  0  0  0  0  0  0  0  0  0
    7.4136    5.1080   -5.1402 H   0  0  0  0  0  0  0  0  0  0  0  0
    6.9182    3.7274   -6.0464 H   0  0  0  0  0  0  0  0  0  0  0  0
    4.3127    1.5995   -9.2642 H   0  0  0  0  0  0  0  0  0  0  0  0
    3.8060    2.7470   -8.0631 H   0  0  0  0  0  0  0  0  0  0  0  0
    3.9268    6.1969   -3.5776 H   0  0  0  0  0  0  0  0  0  0  0  0
    3.1750    2.1155   -2.6564 H   0  0  0  0  0  0  0  0  0  0  0  0
    5.7059    3.4880   -9.0637 H   0  0  0  0  0  0  0  0  0  0  0  0
    6.3027    2.8287   -7.5314 H   0  0  0  0  0  0  0  0  0  0  0  0
    5.8794    6.2470   -2.1055 H   0  0  0  0  0  0  0  0  0  0  0  0
    4.7962    2.2463   -0.8322 H   0  0  0  0  0  0  0  0  0  0  0  0
    7.2202    7.3641   -6.3160 H   0  0  0  0  0  0  0  0  0  0  0  0
    8.3001    3.7298   -8.2872 H   0  0  0  0  0  0  0  0  0  0  0  0
    7.2566    8.5856   -8.4131 H   0  0  0  0  0  0  0  0  0  0  0  0
    9.1097    5.0947  -10.1635 H   0  0  0  0  0  0  0  0  0  0  0  0
    2.8605    1.1873  -10.2742 H   0  0  0  0  0  0  0  0  0  0  0  0
    0.1340    3.4476   -7.8650 H   0  0  0  0  0  0  0  0  0  0  0  0
    3.6633    3.3227  -11.2781 H   0  0  0  0  0  0  0  0  0  0  0  0
    0.4418    5.3856   -9.3668 H   0  0  0  0  0  0  0  0  0  0  0  0
    2.3903    5.4202  -10.8912 H   0  0  0  0  0  0  0  0  0  0  0  0
  1 12  1  0  0  0  0
  1 13  1  0  0  0  0
  1 15  2  0  0  0  0
  1 42  1  0  0  0  0
  2 16  1  0  0  0  0
  2 17  1  0  0  0  0
  2 18  2  0  0  0  0
  2 47  1  0  0  0  0
  3 42  1  0  0  0  0
  4 42  1  0  0  0  0
  5 47  1  0  0  0  0
  6 47  1  0  0  0  0
  7 27  2  0  0  0  0
  8 30  2  0  0  0  0
  9 36  2  0  0  0  0
 10 46  2  0  0  0  0
 11 48  1  0  0  0  0
 11 60  1  0  0  0  0
 12 61  1  0  0  0  0
 13 62  1  0  0  0  0
 14 48  2  0  0  0  0
 16 63  1  0  0  0  0
 17 64  1  0  0  0  0
 19 30  1  0  0  0  0
 19 55  1  0  0  0  0
 20 27  1  0  0  0  0
 20 56  1  0  0  0  0
 21 46  1  0  0  0  0
 21 57  1  0  0  0  0
 22 36  1  0  0  0  0
 22 58  1  0  0  0  0
 22 59  1  0  0  0  0
 23 27  1  0  0  0  0
 23 65  1  6  0  0  0
 23 24  1  0  0  0  0
 23 19  1  0  0  0  0
 24 29  1  0  0  0  0
 24 66  1  0  0  0  0
 24 67  1  0  0  0  0
 25 20  1  0  0  0  0
 25 28  1  0  0  0  0
 25 36  1  0  0  0  0
 25 68  1  1  0  0  0
 26 21  1  0  0  0  0
 26 30  1  0  0  0  0
 26 31  1  0  0  0  0
 26 69  1  6  0  0  0
 28 32  1  0  0  0  0
 28 70  1  0  0  0  0
 28 71  1  0  0  0  0
 29 33  2  0  0  0  0
 29 34  1  0  0  0  0
 31 35  1  0  0  0  0
 31 72  1  0  0  0  0
 31 73  1  0  0  0  0
 32 40  2  0  0  0  0
 32 41  1  0  0  0  0
 33 38  1  0  0  0  0
 33 74  1  0  0  0  0
 34 39  2  0  0  0  0
 34 75  1  0  0  0  0
 35 48  1  0  0  0  0
 35 76  1  0  0  0  0
 35 77  1  0  0  0  0
 37 38  2  0  0  0  0
 37 39  1  0  0  0  0
 37 42  1  0  0  0  0
 38 78  1  0  0  0  0
 39 79  1  0  0  0  0
 40 44  1  0  0  0  0
 40 80  1  0  0  0  0
 41 45  2  0  0  0  0
 41 81  1  0  0  0  0
 43 44  2  0  0  0  0
 43 45  1  0  0  0  0
 43 47  1  0  0  0  0
 44 82  1  0  0  0  0
 45 83  1  0  0  0  0
 46 49  1  0  0  0  0
 49 50  2  0  0  0  0
 49 51  1  0  0  0  0
 50 52  1  0  0  0  0
 50 84  1  0  0  0  0
 51 53  2  0  0  0  0
 51 85  1  0  0  0  0
 52 54  2  0  0  0  0
 52 86  1  0  0  0  0
 53 54  1  0  0  0  0
 53 87  1  0  0  0  0
 54 88  1  0  0  0  0
M  END
>  <DRUGBANK_ID>
DB03483

>  <SECONDARY_ACCESSION_NUMBERS>
EXPT00686

>  <COMMON_NAME>
(4S)-5-[[(2S)-1-[[(2S)-1-Amino-3-[4-[difluoro(phosphono)methyl]phenyl]-1-oxopropan-2-yl]amino]-3-[4-[difluoro(phosphono)methyl]phenyl]-1-oxopropan-2-yl]amino]-4-benzamido-5-oxopentanoic acid

$$$$
