
 OpenBabel10282417173D

 41 43  0  0  0  0  0  0  0  0999 V2000
    1.3482    1.8989   -0.5972 C   0  0  0  0  0  0  0  0  0  0  0  0
    2.5708    1.1998   -0.6236 C   0  0  0  0  0  0  0  0  0  0  0  0
    2.6167   -0.2004   -0.7305 C   0  0  0  0  0  0  0  0  0  0  0  0
    1.4081   -0.8704   -0.7949 C   0  0  0  0  0  0  0  0  0  0  0  0
    1.1022   -2.2270   -0.5537 N   0  0  0  0  0  0  0  0  0  0  0  0
   -0.2990   -2.3665   -0.4666 C   0  0  0  0  0  0  0  0  0  0  0  0
    0.2025   -0.1753   -0.8419 C   0  0  0  0  0  0  0  0  0  0  0  0
   -0.8403   -1.1124   -0.7705 N   0  0  0  0  0  0  0  0  0  0  0  0
   -2.2149   -0.7231   -0.9239 C   0  0  0  0  0  0  0  0  0  0  0  0
   -2.8147    0.0917    0.2391 C   0  0  1  0  0  0  0  0  0  0  0  0
    0.1297    1.2004   -0.6521 C   0  0  0  0  0  0  0  0  0  0  0  0
   -1.9751    1.1856    0.7665 N   0  0  0  0  0  0  0  0  0  0  0  0
   -1.1598    1.8775   -0.2539 C   0  0  0  0  0  0  0  0  0  0  0  0
   -1.0893   -3.7388    0.0281 S   0  0  0  0  0  0  0  0  0  0  0  0
   -4.1483    0.6535   -0.2969 C   0  0  0  0  0  0  0  0  0  0  0  0
   -1.3223    0.9018    2.0632 C   0  0  0  0  0  0  0  0  0  0  0  0
   -0.2318   -0.1599    2.1254 C   0  0  0  0  0  0  0  0  0  0  0  0
    1.0740    0.0210    2.3745 C   0  0  0  0  0  0  0  0  0  0  0  0
    2.1252   -1.0716    2.2577 C   0  0  0  0  0  0  0  0  0  0  0  0
    1.6174    1.3874    2.6820 C   0  0  0  0  0  0  0  0  0  0  0  0
    4.0207    2.0736   -0.2724 Cl  0  0  0  0  0  0  0  0  0  0  0  0
    1.3502    2.9672   -0.3778 H   0  0  0  0  0  0  0  0  0  0  0  0
    3.5577   -0.7221   -0.5969 H   0  0  0  0  0  0  0  0  0  0  0  0
    1.7236   -2.9229   -0.1646 H   0  0  0  0  0  0  0  0  0  0  0  0
   -2.8253   -1.6149   -1.0904 H   0  0  0  0  0  0  0  0  0  0  0  0
   -2.2551   -0.1452   -1.8558 H   0  0  0  0  0  0  0  0  0  0  0  0
   -3.0752   -0.5920    1.0573 H   0  0  0  0  0  0  0  0  0  0  0  0
   -1.7394    2.0312   -1.1721 H   0  0  0  0  0  0  0  0  0  0  0  0
   -0.9558    2.8927    0.1114 H   0  0  0  0  0  0  0  0  0  0  0  0
   -4.7782    1.0540    0.5018 H   0  0  0  0  0  0  0  0  0  0  0  0
   -3.9907    1.4432   -1.0411 H   0  0  0  0  0  0  0  0  0  0  0  0
   -4.7161   -0.1415   -0.7982 H   0  0  0  0  0  0  0  0  0  0  0  0
   -0.9576    1.8464    2.4809 H   0  0  0  0  0  0  0  0  0  0  0  0
   -2.0955    0.5821    2.7742 H   0  0  0  0  0  0  0  0  0  0  0  0
   -0.5914   -1.1667    1.9081 H   0  0  0  0  0  0  0  0  0  0  0  0
    2.9269   -0.7672    1.5793 H   0  0  0  0  0  0  0  0  0  0  0  0
    2.6318   -1.2920    3.1940 H   0  0  0  0  0  0  0  0  0  0  0  0
    1.7128   -2.0075    1.8714 H   0  0  0  0  0  0  0  0  0  0  0  0
    1.2037    2.1481    2.0145 H   0  0  0  0  0  0  0  0  0  0  0  0
    1.3447    1.6510    3.7036 H   0  0  0  0  0  0  0  0  0  0  0  0
    2.7033    1.4279    2.5743 H   0  0  0  0  0  0  0  0  0  0  0  0
  1  2  2  0  0  0  0
  1 22  1  0  0  0  0
  2  3  1  0  0  0  0
  2 21  1  0  0  0  0
  3  4  2  0  0  0  0
  3 23  1  0  0  0  0
  4  5  1  0  0  0  0
  5 24  1  0  0  0  0
  6  8  1  0  0  0  0
  6 14  2  0  0  0  0
  6  5  1  0  0  0  0
  7 11  2  0  0  0  0
  7  8  1  0  0  0  0
  7  4  1  0  0  0  0
  8  9  1  0  0  0  0
  9 10  1  0  0  0  0
  9 25  1  0  0  0  0
  9 26  1  0  0  0  0
 10 12  1  0  0  0  0
 10 27  1  1  0  0  0
 10 15  1  0  0  0  0
 11  1  1  0  0  0  0
 11 13  1  0  0  0  0
 12 13  1  0  0  0  0
 12 16  1  0  0  0  0
 13 28  1  0  0  0  0
 13 29  1  0  0  0  0
 15 30  1  0  0  0  0
 15 31  1  0  0  0  0
 15 32  1  0  0  0  0
 16 17  1  0  0  0  0
 16 33  1  0  0  0  0
 16 34  1  0  0  0  0
 17 18  2  0  0  0  0
 17 35  1  0  0  0  0
 18 19  1  0  0  0  0
 18 20  1  0  0  0  0
 19 36  1  0  0  0  0
 19 37  1  0  0  0  0
 19 38  1  0  0  0  0
 20 39  1  0  0  0  0
 20 40  1  0  0  0  0
 20 41  1  0  0  0  0
M  END
>  <DRUGBANK_ID>
DB08598

>  <COMMON_NAME>
R-82913

>  <CAS_NUMBER>
126347-69-1

>  <UNII>
4FOI87E52P

$$$$
