
 OpenBabel10282417123D

 24 25  0  0  1  0  0  0  0  0999 V2000
    0.9566    0.0787    0.0025 C   0  0  0  0  0  0  0  0  0  0  0  0
    0.8364   -2.4692   -0.4048 C   0  0  0  0  0  0  0  0  0  0  0  0
    0.9250    1.5273   -2.0515 C   0  0  0  0  0  0  0  0  0  0  0  0
   -0.2426   -2.3551   -2.3208 C   0  0  0  0  0  0  0  0  0  0  0  0
    0.4322    1.3838   -0.6104 C   0  0  1  0  0  0  0  0  0  0  0  0
    0.5468   -1.1622   -0.7235 C   0  0  0  0  0  0  0  0  0  0  0  0
    0.4716   -4.6125   -1.6017 C   0  0  0  0  0  0  0  0  0  0  0  0
   -1.0444    1.4535   -0.5502 N   0  0  0  0  0  0  0  0  0  0  0  0
   -0.1703   -1.1140   -1.8955 N   0  0  0  0  0  0  0  0  0  0  0  0
    0.2232   -5.4729   -0.6079 N   0  0  0  0  0  0  0  0  0  0  0  0
    0.9167   -5.1760   -2.7556 N   0  0  0  0  0  0  0  0  0  0  0  0
    0.4854   -6.6192   -1.2639 N   0  0  0  0  0  0  0  0  0  0  0  0
    0.9754   -6.4803   -2.5086 N   0  0  0  0  0  0  0  0  0  0  0  0
    0.3498   -3.2259   -1.4452 N   0  0  0  0  0  0  0  0  0  0  0  0
    0.1965    1.7546   -3.0229 O   0  0  0  0  0  0  0  0  0  0  0  0
    0.8390    2.2338   -0.0500 H   0  0  0  0  0  0  0  0  0  0  0  0
    0.6221    0.0046    1.0452 H   0  0  0  0  0  0  0  0  0  0  0  0
    2.0541    0.1078    0.0257 H   0  0  0  0  0  0  0  0  0  0  0  0
    1.4124   -2.9076    0.3968 H   0  0  0  0  0  0  0  0  0  0  0  0
    2.0185    1.4778   -2.1807 H   0  0  0  0  0  0  0  0  0  0  0  0
   -0.7538   -2.6842   -3.2171 H   0  0  0  0  0  0  0  0  0  0  0  0
   -1.3445    2.2575   -1.1047 H   0  0  0  0  0  0  0  0  0  0  0  0
   -1.3724    0.6531   -1.1119 H   0  0  0  0  0  0  0  0  0  0  0  0
    0.3158   -7.5338   -0.8532 H   0  0  0  0  0  0  0  0  0  0  0  0
  1 17  1  0  0  0  0
  1 18  1  0  0  0  0
  2 19  1  0  0  0  0
  3 20  1  0  0  0  0
  4 21  1  0  0  0  0
  5  1  1  0  0  0  0
  5  3  1  0  0  0  0
  5  8  1  0  0  0  0
  5 16  1  1  0  0  0
  6  1  1  0  0  0  0
  6  2  2  0  0  0  0
  8 22  1  0  0  0  0
  8 23  1  0  0  0  0
  9  4  2  0  0  0  0
  9  6  1  0  0  0  0
 10  7  2  0  0  0  0
 11  7  1  0  0  0  0
 12 10  1  0  0  0  0
 12 24  1  0  0  0  0
 13 11  2  0  0  0  0
 13 12  1  0  0  0  0
 14  2  1  0  0  0  0
 14  4  1  0  0  0  0
 14  7  1  0  0  0  0
 15  3  2  0  0  0  0
M  END
>  <DRUGBANK_ID>
DB02528

>  <SECONDARY_ACCESSION_NUMBERS>
EXPT02402

>  <COMMON_NAME>
Tetrazolyl Histidine

$$$$
