YML
 OpenBabel10282417173D

 40 39  0  0  0  0  0  0  0  0999 V2000
   -3.8638    3.7054    3.4690 C   0  0  2  0  0  0  0  0  0  0  0  0
   -0.7449    2.1772    1.7517 C   0  0  1  0  0  0  0  0  0  0  0  0
    0.7654    2.1687    1.6217 C   0  0  0  0  0  0  0  0  0  0  0  0
   -2.4068    4.2079    3.6508 C   0  0  0  0  0  0  0  0  0  0  0  0
   -1.3347    3.1854    4.1231 C   0  0  1  0  0  0  0  0  0  0  0  0
    1.4081    0.8922    1.2603 C   0  0  0  0  0  0  0  0  0  0  0  0
   -1.1365    1.9370    3.2307 C   0  0  2  0  0  0  0  0  0  0  0  0
   -4.1350    2.4404    2.6319 C   0  0  0  0  0  0  0  0  0  0  0  0
    2.3725    1.1361   -0.2318 P   0  0  1  0  0  0  0  0  0  0  0  0
    3.6884    0.3374    0.2884 O   0  0  0  0  0  0  0  0  0  0  0  0
    1.6678    0.3794   -1.3245 O   0  0  0  0  0  0  0  0  0  0  0  0
    1.4772    3.1364    1.8193 O   0  0  0  0  0  0  0  0  0  0  0  0
   -1.1940    3.4588    1.0506 C   0  0  0  0  0  0  0  0  0  0  0  0
   -0.3225    0.9307    3.8545 O   0  0  0  0  0  0  0  0  0  0  0  0
    0.0243    3.8722    4.2994 C   0  0  0  0  0  0  0  0  0  0  0  0
   -4.6850    4.8371    2.8344 C   0  0  0  0  0  0  0  0  0  0  0  0
   -5.5184    2.1211    2.6265 O   0  0  0  0  0  0  0  0  0  0  0  0
   -4.2551    3.5231    4.4761 H   0  0  0  0  0  0  0  0  0  0  0  0
   -1.1560    1.3418    1.1682 H   0  0  0  0  0  0  0  0  0  0  0  0
   -1.6433    2.8525    5.1236 H   0  0  0  0  0  0  0  0  0  0  0  0
   -2.0500    1.3759    3.2381 H   0  0  0  0  0  0  0  0  0  0  0  0
    3.0467    2.3298   -0.5916 H   0  0  0  0  0  0  0  0  0  0  0  0
   -2.1141    4.7521    2.7548 H   0  0  0  0  0  0  0  0  0  0  0  0
   -2.4122    5.0377    4.3751 H   0  0  0  0  0  0  0  0  0  0  0  0
    2.0038    0.5769    2.1228 H   0  0  0  0  0  0  0  0  0  0  0  0
    0.6595    0.1174    1.0844 H   0  0  0  0  0  0  0  0  0  0  0  0
   -3.8093    2.5229    1.5931 H   0  0  0  0  0  0  0  0  0  0  0  0
   -3.7097    1.5491    3.0618 H   0  0  0  0  0  0  0  0  0  0  0  0
    4.1971    0.8485    0.9522 H   0  0  0  0  0  0  0  0  0  0  0  0
   -0.8754    3.4875    0.0071 H   0  0  0  0  0  0  0  0  0  0  0  0
   -2.2723    3.5979    1.0375 H   0  0  0  0  0  0  0  0  0  0  0  0
   -0.7263    4.3368    1.5039 H   0  0  0  0  0  0  0  0  0  0  0  0
    0.5695    1.2666    4.0242 H   0  0  0  0  0  0  0  0  0  0  0  0
   -0.0028    4.7013    5.0054 H   0  0  0  0  0  0  0  0  0  0  0  0
    0.7810    3.1590    4.6427 H   0  0  0  0  0  0  0  0  0  0  0  0
    0.3631    4.3008    3.3589 H   0  0  0  0  0  0  0  0  0  0  0  0
   -5.7435    4.5663    2.7872 H   0  0  0  0  0  0  0  0  0  0  0  0
   -4.5975    5.7650    3.4044 H   0  0  0  0  0  0  0  0  0  0  0  0
   -4.3457    5.0306    1.8088 H   0  0  0  0  0  0  0  0  0  0  0  0
   -5.6948    1.7565    3.5116 H   0  0  0  0  0  0  0  0  0  0  0  0
  1  4  1  0  0  0  0
  1  8  1  0  0  0  0
  1 16  1  0  0  0  0
  1 18  1  1  0  0  0
  2 13  1  0  0  0  0
  2 19  1  6  0  0  0
  2  7  1  0  0  0  0
  2  3  1  0  0  0  0
  3  6  1  0  0  0  0
  3 12  2  0  0  0  0
  4  5  1  0  0  0  0
  4 23  1  0  0  0  0
  4 24  1  0  0  0  0
  5  7  1  0  0  0  0
  5 15  1  0  0  0  0
  5 20  1  1  0  0  0
  6  9  1  0  0  0  0
  6 25  1  0  0  0  0
  6 26  1  0  0  0  0
  7 14  1  0  0  0  0
  7 21  1  6  0  0  0
  8 17  1  0  0  0  0
  8 27  1  0  0  0  0
  8 28  1  0  0  0  0
  9 10  1  0  0  0  0
  9 11  2  0  0  0  0
  9 22  1  6  0  0  0
 10 29  1  0  0  0  0
 13 30  1  0  0  0  0
 13 31  1  0  0  0  0
 13 32  1  0  0  0  0
 14 33  1  0  0  0  0
 15 34  1  0  0  0  0
 15 35  1  0  0  0  0
 15 36  1  0  0  0  0
 16 37  1  0  0  0  0
 16 38  1  0  0  0  0
 16 39  1  0  0  0  0
 17 40  1  0  0  0  0
M  END
>  <DRUGBANK_ID>
DB08759

>  <COMMON_NAME>
[(3R,4S,5S,7R)-4,8-DIHYDROXY-3,5,7-TRIMETHYL-2-OXOOCTYL]PHOSPHONIC ACID

$$$$
