
 OpenBabel10282417213D

 61 64  0  0  0  0  0  0  0  0999 V2000
   -0.0079    5.8267   -1.3992 C   0  0  0  0  0  0  0  0  0  0  0  0
   -0.4461    4.5933   -0.5616 C   0  0  0  0  0  0  0  0  0  0  0  0
    0.5775    4.0317    0.4198 C   0  0  0  0  0  0  0  0  0  0  0  0
    1.4206    3.5457   -0.5183 C   0  0  0  0  0  0  0  0  0  0  0  0
    1.9177    4.6320   -1.4558 C   0  0  2  0  0  0  0  0  0  0  0  0
    1.3360    6.2078   -0.8569 C   0  0  0  0  0  0  0  0  0  0  0  0
    1.4062    2.1573   -1.0449 C   0  0  0  0  0  0  0  0  0  0  0  0
    1.6737    1.8163   -2.3671 C   0  0  0  0  0  0  0  0  0  0  0  0
    2.1478    2.7875   -3.5851 C   0  0  2  0  0  0  0  0  0  0  0  0
    1.4630    4.1646   -3.0541 C   0  0  2  0  0  0  0  0  0  0  0  0
    2.4246    2.3818   -5.4328 C   0  0  1  0  0  0  0  0  0  0  0  0
    1.8301    3.6303   -5.7721 C   0  0  2  0  0  0  0  0  0  0  0  0
    1.1523    4.8740   -5.3143 C   0  0  0  0  0  0  0  0  0  0  0  0
    1.6724    5.3167   -4.0103 C   0  0  0  0  0  0  0  0  0  0  0  0
    2.9446    3.0406   -7.2606 C   0  0  0  0  0  0  0  0  0  0  0  0
    1.7055    3.7666   -7.8950 C   0  0  0  0  0  0  0  0  0  0  0  0
    0.9608    2.8932   -7.0675 C   0  0  2  0  0  0  0  0  0  0  0  0
    0.3640    3.9560   -3.0508 H   0  0  0  0  0  0  0  0  0  0  0  0
    1.8704    1.4398   -5.5183 H   0  0  0  0  0  0  0  0  0  0  0  0
    3.1970    2.8365   -3.3242 H   0  0  0  0  0  0  0  0  0  0  0  0
    3.6148    4.0734   -5.4798 C   0  0  0  0  0  0  0  0  0  0  0  0
    3.4212    4.7149   -1.3737 C   0  0  0  0  0  0  0  0  0  0  0  0
    1.0066    1.1229    0.0062 C   0  0  0  0  0  0  0  0  0  0  0  0
   -1.4702    3.9464   -0.7257 O   0  0  0  0  0  0  0  0  0  0  0  0
   -0.5431    2.7568   -7.0044 C   0  0  0  0  0  0  0  0  0  0  0  0
   -1.3158    3.7088   -7.0645 O   0  0  0  0  0  0  0  0  0  0  0  0
   -1.0415    1.3374   -6.8774 C   0  0  0  0  0  0  0  0  0  0  0  0
    1.3532    4.9941   -8.3346 C   0  0  0  0  0  0  0  0  0  0  0  0
    1.3819    1.4051   -7.4940 O   0  0  0  0  0  0  0  0  0  0  0  0
    1.9737    0.9334   -8.6539 C   0  0  0  0  0  0  0  0  0  0  0  0
    2.9047    0.1720   -8.6538 O   0  0  0  0  0  0  0  0  0  0  0  0
    1.3990    1.5343   -9.9001 C   0  0  0  0  0  0  0  0  0  0  0  0
    0.5047    5.8586   -2.3232 H   0  0  0  0  0  0  0  0  0  0  0  0
   -0.7945    6.3583   -1.9377 H   0  0  0  0  0  0  0  0  0  0  0  0
    0.1049    3.6003    1.2961 H   0  0  0  0  0  0  0  0  0  0  0  0
    1.8030    6.1306    0.1568 H   0  0  0  0  0  0  0  0  0  0  0  0
    0.6065    6.7581   -0.2019 H   0  0  0  0  0  0  0  0  0  0  0  0
    1.5913    0.7601   -2.6066 H   0  0  0  0  0  0  0  0  0  0  0  0
    1.3971    5.7080   -5.9786 H   0  0  0  0  0  0  0  0  0  0  0  0
    0.0647    4.7776   -5.2976 H   0  0  0  0  0  0  0  0  0  0  0  0
    2.7111    5.6204   -4.0034 H   0  0  0  0  0  0  0  0  0  0  0  0
    1.1478    6.2595   -3.8551 H   0  0  0  0  0  0  0  0  0  0  0  0
    3.7224    3.7922   -7.4829 H   0  0  0  0  0  0  0  0  0  0  0  0
    3.3894    2.2845   -7.8965 H   0  0  0  0  0  0  0  0  0  0  0  0
    3.8816    4.2566   -4.4473 H   0  0  0  0  0  0  0  0  0  0  0  0
    4.3117    3.1963   -5.6707 H   0  0  0  0  0  0  0  0  0  0  0  0
    3.9560    4.9065   -6.0946 H   0  0  0  0  0  0  0  0  0  0  0  0
    3.7566    5.4647   -2.0875 H   0  0  0  0  0  0  0  0  0  0  0  0
    3.7417    5.0047   -0.3706 H   0  0  0  0  0  0  0  0  0  0  0  0
    3.8744    3.7510   -1.6059 H   0  0  0  0  0  0  0  0  0  0  0  0
    0.1294    0.5480   -0.3048 H   0  0  0  0  0  0  0  0  0  0  0  0
    1.8479    0.4521    0.1959 H   0  0  0  0  0  0  0  0  0  0  0  0
    0.7492    1.5438    0.9910 H   0  0  0  0  0  0  0  0  0  0  0  0
   -0.7234    0.7512   -7.7476 H   0  0  0  0  0  0  0  0  0  0  0  0
   -0.6229    0.8933   -5.9683 H   0  0  0  0  0  0  0  0  0  0  0  0
   -2.1247    1.3321   -6.8588 H   0  0  0  0  0  0  0  0  0  0  0  0
    0.4220    5.4470   -7.9292 H   0  0  0  0  0  0  0  0  0  0  0  0
    1.9883    5.7516   -8.7804 H   0  0  0  0  0  0  0  0  0  0  0  0
    0.3368    1.3077   -9.9013 H   0  0  0  0  0  0  0  0  0  0  0  0
    1.5773    2.6029   -9.9540 H   0  0  0  0  0  0  0  0  0  0  0  0
    1.8894    1.0941  -10.7697 H   0  0  0  0  0  0  0  0  0  0  0  0
  1  2  1  0  0  0  0
  1  6  1  0  0  0  0
  1 33  1  0  0  0  0
  1 34  1  0  0  0  0
  2  3  1  0  0  0  0
  2 24  2  0  0  0  0
  3  4  2  0  0  0  0
  3 35  1  0  0  0  0
  4  5  1  0  0  0  0
  4  7  1  0  0  0  0
  5  6  1  0  0  0  0
  5 10  1  0  0  0  0
  5 22  1  1  0  0  0
  6 36  1  0  0  0  0
  6 37  1  0  0  0  0
  7  8  2  0  0  0  0
  7 23  1  0  0  0  0
  8  9  1  0  0  0  0
  8 38  1  0  0  0  0
  9 10  1  0  0  0  0
  9 11  1  0  0  0  0
  9 20  1  1  0  0  0
 10 14  1  0  0  0  0
 10 18  1  1  0  0  0
 11 12  1  0  0  0  0
 11 15  1  0  0  0  0
 11 19  1  6  0  0  0
 12 13  1  0  0  0  0
 12 17  1  0  0  0  0
 12 21  1  6  0  0  0
 13 14  1  0  0  0  0
 13 39  1  0  0  0  0
 13 40  1  0  0  0  0
 14 41  1  0  0  0  0
 14 42  1  0  0  0  0
 15 16  1  0  0  0  0
 15 43  1  0  0  0  0
 15 44  1  0  0  0  0
 16 17  1  0  0  0  0
 16 28  2  0  0  0  0
 17 29  1  6  0  0  0
 17 25  1  0  0  0  0
 21 45  1  0  0  0  0
 21 46  1  0  0  0  0
 21 47  1  0  0  0  0
 22 48  1  0  0  0  0
 22 49  1  0  0  0  0
 22 50  1  0  0  0  0
 23 51  1  0  0  0  0
 23 52  1  0  0  0  0
 23 53  1  0  0  0  0
 25 26  2  0  0  0  0
 25 27  1  0  0  0  0
 27 54  1  0  0  0  0
 27 55  1  0  0  0  0
 27 56  1  0  0  0  0
 28 57  1  0  0  0  0
 28 58  1  0  0  0  0
 29 30  1  0  0  0  0
 30 31  2  0  0  0  0
 30 32  1  0  0  0  0
 32 59  1  0  0  0  0
 32 60  1  0  0  0  0
 32 61  1  0  0  0  0
M  END
>  <DRUGBANK_ID>
DB14659

>  <SECONDARY_ACCESSION_NUMBERS>
DBSALT001692

>  <COMMON_NAME>
Melengestrol acetate

>  <CAS_NUMBER>
2919-66-6

>  <UNII>
4W5HDS3936

>  <SYNONYMS>
Melengestrol acetate

$$$$
