
 OpenBabel10282417113D

 41 42  0  0  0  0  0  0  0  0999 V2000
    0.2072   -1.2545    0.0153 C   0  0  0  0  0  0  0  0  0  0  0  0
    0.8727   -2.5882    0.0412 C   0  0  0  0  0  0  0  0  0  0  0  0
   -9.6694   -0.9725   -0.4296 C   0  0  0  0  0  0  0  0  0  0  0  0
   -3.3410    0.0732   -0.0426 N   0  0  0  0  0  0  0  0  0  0  0  0
   -3.9200   -1.0139    0.1854 N   0  0  0  0  0  0  0  0  0  0  0  0
    0.9071   -0.0442    0.0105 C   0  0  0  0  0  0  0  0  0  0  0  0
  -11.5656    0.9399   -3.7951 C   0  0  0  0  0  0  0  0  0  0  0  0
   -1.2030   -1.2299    0.0029 C   0  0  0  0  0  0  0  0  0  0  0  0
   -8.1675   -1.0410   -0.3451 C   0  0  0  0  0  0  0  0  0  0  0  0
  -10.1013    0.7536   -3.5149 C   0  0  0  0  0  0  0  0  0  0  0  0
    0.3190   -3.6614    0.0583 O   0  0  0  0  0  0  0  0  0  0  0  0
  -10.3472   -1.7562    0.2368 O   0  0  0  0  0  0  0  0  0  0  0  0
   -1.9236   -0.0197   -0.0019 C   0  0  0  0  0  0  0  0  0  0  0  0
  -11.8545    1.9333   -4.6591 O   0  0  0  0  0  0  0  0  0  0  0  0
  -10.3337   -0.0218   -1.1778 N   0  0  0  0  0  0  0  0  0  0  0  0
    0.2145    1.1638    0.0116 C   0  0  0  0  0  0  0  0  0  0  0  0
   -7.3130   -0.2890   -1.1470 C   0  0  0  0  0  0  0  0  0  0  0  0
   -7.5480   -1.8806    0.5858 C   0  0  0  0  0  0  0  0  0  0  0  0
   -5.3259   -0.9473    0.0460 C   0  0  0  0  0  0  0  0  0  0  0  0
    2.2251   -2.4985    0.0505 O   0  0  0  0  0  0  0  0  0  0  0  0
   -9.8951    1.0700   -2.0399 C   0  0  0  0  0  0  0  0  0  0  0  0
  -12.4392    0.2930   -3.2355 O   0  0  0  0  0  0  0  0  0  0  0  0
   -1.1862    1.1738    0.0024 C   0  0  0  0  0  0  0  0  0  0  0  0
   -6.1463   -1.8226    0.7779 C   0  0  0  0  0  0  0  0  0  0  0  0
   -5.9462   -0.1594   -0.9096 C   0  0  0  0  0  0  0  0  0  0  0  0
    2.2721    0.0522    0.0008 O   0  0  0  0  0  0  0  0  0  0  0  0
   -1.7484   -2.1715   -0.0039 H   0  0  0  0  0  0  0  0  0  0  0  0
   -9.4956    1.4262   -4.1325 H   0  0  0  0  0  0  0  0  0  0  0  0
   -9.8096   -0.2703   -3.7836 H   0  0  0  0  0  0  0  0  0  0  0  0
  -11.0956    2.4088   -5.0432 H   0  0  0  0  0  0  0  0  0  0  0  0
  -11.3472   -0.1410   -1.1285 H   0  0  0  0  0  0  0  0  0  0  0  0
    0.7684    2.0999    0.0204 H   0  0  0  0  0  0  0  0  0  0  0  0
   -7.6281    0.1672   -2.0644 H   0  0  0  0  0  0  0  0  0  0  0  0
   -8.1353   -2.6100    1.1456 H   0  0  0  0  0  0  0  0  0  0  0  0
    2.5243   -3.4362    0.0822 H   0  0  0  0  0  0  0  0  0  0  0  0
  -10.4207    1.9787   -1.7364 H   0  0  0  0  0  0  0  0  0  0  0  0
   -8.8695    1.3438   -1.8575 H   0  0  0  0  0  0  0  0  0  0  0  0
   -1.7036    2.1315   -0.0011 H   0  0  0  0  0  0  0  0  0  0  0  0
   -5.6857   -2.4727    1.5170 H   0  0  0  0  0  0  0  0  0  0  0  0
   -5.3864    0.5278   -1.5370 H   0  0  0  0  0  0  0  0  0  0  0  0
    2.6386   -0.8579   -0.0073 H   0  0  0  0  0  0  0  0  0  0  0  0
  2  1  1  0  0  0  0
  3  9  1  0  0  0  0
  4 13  1  0  0  0  0
  5  4  2  0  0  0  0
  6  1  1  0  0  0  0
  7 10  1  0  0  0  0
  8  1  2  0  0  0  0
  8 27  1  0  0  0  0
  9 17  2  0  0  0  0
 10 21  1  0  0  0  0
 10 28  1  0  0  0  0
 10 29  1  0  0  0  0
 11  2  2  0  0  0  0
 12  3  2  0  0  0  0
 13  8  1  0  0  0  0
 14  7  1  0  0  0  0
 14 30  1  0  0  0  0
 15  3  1  0  0  0  0
 15 31  1  0  0  0  0
 16  6  2  0  0  0  0
 16 23  1  0  0  0  0
 16 32  1  0  0  0  0
 17 25  1  0  0  0  0
 17 33  1  0  0  0  0
 18 24  2  0  0  0  0
 18  9  1  0  0  0  0
 18 34  1  0  0  0  0
 19  5  1  0  0  0  0
 20  2  1  0  0  0  0
 20 35  1  0  0  0  0
 21 15  1  0  0  0  0
 21 36  1  0  0  0  0
 21 37  1  0  0  0  0
 22  7  2  0  0  0  0
 23 13  2  0  0  0  0
 23 38  1  0  0  0  0
 24 19  1  0  0  0  0
 24 39  1  0  0  0  0
 25 19  2  0  0  0  0
 25 40  1  0  0  0  0
 26  6  1  0  0  0  0
 26 41  1  0  0  0  0
M  END
>  <DRUGBANK_ID>
DB01014

>  <SECONDARY_ACCESSION_NUMBERS>
APRD00141

>  <COMMON_NAME>
Balsalazide

>  <CAS_NUMBER>
80573-04-2

>  <UNII>
P80AL8J7ZP

>  <SYNONYMS>
(E)-5-((4-(((2-carboxyethyl)amino)carbonyl)phenyl)azo)-2-hydroxybenzoic acid; (E)-5-({p-[(2-carboxyethyl)carbamoyl]phenyl}azo)-2-salicylic acid; 3-(2-{4-[(2-carboxyethyl)carbamoyl]phenyl}hydrazinylidene)-6-oxocyclohexa-1,4-diene-1-carboxylic acid; 5-[4-(2-carboxy-ethylcarbamoyl)-phenylazo]-2-hydroxy-benzoic acid; Balsalazida; Balsalazide; Balsalazidum

$$$$
