FRL
 OpenBabel10282417163D

 51 54  0  0  0  0  0  0  0  0999 V2000
    0.3506    1.1644   -0.0997 C   0  0  0  0  0  0  0  0  0  0  0  0
    1.7524    1.1243   -0.2107 C   0  0  0  0  0  0  0  0  0  0  0  0
    2.4632   -0.0940   -0.1570 C   0  0  0  0  0  0  0  0  0  0  0  0
    1.7224   -1.2733   -0.0628 C   0  0  0  0  0  0  0  0  0  0  0  0
    0.3216   -1.2441   -0.0256 C   0  0  0  0  0  0  0  0  0  0  0  0
   -0.3599   -0.0283   -0.0307 C   0  0  0  0  0  0  0  0  0  0  0  0
   -2.0796   -0.0100    0.0223 Cl  0  0  0  0  0  0  0  0  0  0  0  0
    3.9317   -0.1706   -0.1669 C   0  0  0  0  0  0  0  0  0  0  0  0
    4.7283   -0.6517   -1.0934 N   0  0  0  0  0  0  0  0  0  0  0  0
    5.9913   -0.4379   -0.5905 C   0  0  0  0  0  0  0  0  0  0  0  0
    5.9416    0.1664    0.6531 C   0  0  0  0  0  0  0  0  0  0  0  0
    4.6018    0.2335    0.9659 O   0  0  0  0  0  0  0  0  0  0  0  0
    7.2353   -0.7109   -1.1527 C   0  0  0  0  0  0  0  0  0  0  0  0
    8.3838   -0.3141   -0.4588 C   0  0  0  0  0  0  0  0  0  0  0  0
    8.2990    0.3660    0.7610 C   0  0  0  0  0  0  0  0  0  0  0  0
    7.0605    0.6508    1.3725 C   0  0  0  0  0  0  0  0  0  0  0  0
    7.0525    1.4615    2.6507 C   0  0  0  0  0  0  0  0  0  0  0  0
    6.3493    2.8148    2.4937 C   0  0  0  0  0  0  0  0  0  0  0  0
    4.8371    2.7150    2.1366 C   0  0  1  0  0  0  0  0  0  0  0  0
    4.1078    1.8439    3.2078 C   0  0  1  0  0  0  0  0  0  0  0  0
    4.1142    2.4794    4.4805 O   0  0  0  0  0  0  0  0  0  0  0  0
    4.2036    4.0072    1.9169 N   0  0  0  0  0  0  0  0  0  0  0  0
    2.6772    1.4702    2.9013 C   0  0  0  0  0  0  0  0  0  0  0  0
    2.9481    4.2501    1.4418 C   0  0  0  0  0  0  0  0  0  0  0  0
    2.7032    5.5322    1.3463 N   0  0  0  0  0  0  0  0  0  0  0  0
    3.8750    6.1525    1.7100 C   0  0  0  0  0  0  0  0  0  0  0  0
    4.8325    5.2058    2.0031 C   0  0  0  0  0  0  0  0  0  0  0  0
    4.0634    7.5879    1.7576 C   0  0  0  0  0  0  0  0  0  0  0  0
    3.1794    8.4132    1.5188 O   0  0  0  0  0  0  0  0  0  0  0  0
    5.3226    7.9966    2.0989 N   0  0  0  0  0  0  0  0  0  0  0  0
    4.7924    2.3169    1.1237 H   0  0  0  0  0  0  0  0  0  0  0  0
    4.6237    0.8863    3.3329 H   0  0  0  0  0  0  0  0  0  0  0  0
   -0.1774    2.1179   -0.0726 H   0  0  0  0  0  0  0  0  0  0  0  0
    2.2892    2.0638   -0.2904 H   0  0  0  0  0  0  0  0  0  0  0  0
    2.2412   -2.2273   -0.0202 H   0  0  0  0  0  0  0  0  0  0  0  0
   -0.2298   -2.1793    0.0040 H   0  0  0  0  0  0  0  0  0  0  0  0
    7.2845   -1.2154   -2.1078 H   0  0  0  0  0  0  0  0  0  0  0  0
    9.3593   -0.5268   -0.8881 H   0  0  0  0  0  0  0  0  0  0  0  0
    9.2274    0.6839    1.2398 H   0  0  0  0  0  0  0  0  0  0  0  0
    6.6347    0.8719    3.4705 H   0  0  0  0  0  0  0  0  0  0  0  0
    8.0831    1.6771    2.9740 H   0  0  0  0  0  0  0  0  0  0  0  0
    6.4653    3.3819    3.4276 H   0  0  0  0  0  0  0  0  0  0  0  0
    6.8842    3.3929    1.7260 H   0  0  0  0  0  0  0  0  0  0  0  0
    5.0342    2.6268    4.7479 H   0  0  0  0  0  0  0  0  0  0  0  0
    2.6506    0.9307    1.9770 H   0  0  0  0  0  0  0  0  0  0  0  0
    2.2510    0.7996    3.6475 H   0  0  0  0  0  0  0  0  0  0  0  0
    2.0129    2.3267    2.8386 H   0  0  0  0  0  0  0  0  0  0  0  0
    2.2236    3.4919    1.1967 H   0  0  0  0  0  0  0  0  0  0  0  0
    5.8683    5.2982    2.2783 H   0  0  0  0  0  0  0  0  0  0  0  0
    6.0771    7.3594    2.3033 H   0  0  0  0  0  0  0  0  0  0  0  0
    5.4892    8.9877    2.1427 H   0  0  0  0  0  0  0  0  0  0  0  0
  1  2  2  0  0  0  0
  1  6  1  0  0  0  0
  1 33  1  0  0  0  0
  2  3  1  0  0  0  0
  2 34  1  0  0  0  0
  3  4  2  0  0  0  0
  3  8  1  0  0  0  0
  4  5  1  0  0  0  0
  4 35  1  0  0  0  0
  5  6  2  0  0  0  0
  5 36  1  0  0  0  0
  6  7  1  0  0  0  0
  8  9  2  0  0  0  0
  8 12  1  0  0  0  0
  9 10  1  0  0  0  0
 10 11  2  0  0  0  0
 10 13  1  0  0  0  0
 11 12  1  0  0  0  0
 11 16  1  0  0  0  0
 13 14  2  0  0  0  0
 13 37  1  0  0  0  0
 14 15  1  0  0  0  0
 14 38  1  0  0  0  0
 15 16  2  0  0  0  0
 15 39  1  0  0  0  0
 16 17  1  0  0  0  0
 17 18  1  0  0  0  0
 17 40  1  0  0  0  0
 17 41  1  0  0  0  0
 18 19  1  0  0  0  0
 18 42  1  0  0  0  0
 18 43  1  0  0  0  0
 19 20  1  0  0  0  0
 19 22  1  0  0  0  0
 19 31  1  6  0  0  0
 20 21  1  0  0  0  0
 20 23  1  0  0  0  0
 20 32  1  1  0  0  0
 21 44  1  0  0  0  0
 22 24  1  0  0  0  0
 22 27  1  0  0  0  0
 23 45  1  0  0  0  0
 23 46  1  0  0  0  0
 23 47  1  0  0  0  0
 24 25  2  0  0  0  0
 24 48  1  0  0  0  0
 25 26  1  0  0  0  0
 26 27  2  0  0  0  0
 26 28  1  0  0  0  0
 27 49  1  0  0  0  0
 28 29  2  0  0  0  0
 28 30  1  0  0  0  0
 30 50  1  0  0  0  0
 30 51  1  0  0  0  0
M  END
>  <DRUGBANK_ID>
DB07786

>  <COMMON_NAME>
1-((1R,2S)-1-{2-[2-(4-CHLOROPHENYL)-1,3-BENZOXAZOL-7-YL]ETHYL}-2-HYDROXYPROPYL)-1H-IMIDAZOLE-4-CARBOXAMIDE

$$$$
