W29
 OpenBabel10282417173D

 27 28  0  0  0  0  0  0  0  0999 V2000
    1.6931   -1.3259    0.0079 O   0  0  0  0  0  0  0  0  0  0  0  0
    0.4869   -0.6827   -0.0207 C   0  0  0  0  0  0  0  0  0  0  0  0
    0.4906    0.7119   -0.0192 C   0  0  0  0  0  0  0  0  0  0  0  0
    1.6727    1.3958    0.0048 O   0  0  0  0  0  0  0  0  0  0  0  0
   -0.6987    1.4307   -0.0294 C   0  0  0  0  0  0  0  0  0  0  0  0
   -0.7143   -1.3773   -0.0435 C   0  0  0  0  0  0  0  0  0  0  0  0
   -1.9152   -0.6594   -0.0722 C   0  0  0  0  0  0  0  0  0  0  0  0
   -1.9207    0.7496   -0.0565 C   0  0  0  0  0  0  0  0  0  0  0  0
   -3.1951    1.4769    0.0270 C   0  0  0  0  0  0  0  0  0  0  0  0
   -3.6203    2.6044   -1.1950 S   0  0  0  0  0  0  0  0  0  0  0  0
   -5.1035    2.9784   -0.4361 C   0  0  0  0  0  0  0  0  0  0  0  0
   -5.2797    2.2590    0.7220 C   0  0  0  0  0  0  0  0  0  0  0  0
   -4.1723    1.3913    1.0109 C   0  0  0  0  0  0  0  0  0  0  0  0
   -4.0963    0.5323    2.2420 C   0  0  0  0  0  0  0  0  0  0  0  0
   -4.1155    1.3585    3.5169 C   0  0  0  0  0  0  0  0  0  0  0  0
    1.5270   -2.2850    0.0006 H   0  0  0  0  0  0  0  0  0  0  0  0
    2.3637    0.7051   -0.0145 H   0  0  0  0  0  0  0  0  0  0  0  0
   -0.6641    2.5162    0.0085 H   0  0  0  0  0  0  0  0  0  0  0  0
   -0.7457   -2.4627   -0.0292 H   0  0  0  0  0  0  0  0  0  0  0  0
   -2.8576   -1.2035   -0.0800 H   0  0  0  0  0  0  0  0  0  0  0  0
   -5.7770    3.7075   -0.8659 H   0  0  0  0  0  0  0  0  0  0  0  0
   -6.1544    2.3629    1.3536 H   0  0  0  0  0  0  0  0  0  0  0  0
   -4.9324   -0.1763    2.2352 H   0  0  0  0  0  0  0  0  0  0  0  0
   -3.1811   -0.0677    2.2484 H   0  0  0  0  0  0  0  0  0  0  0  0
   -5.0472    1.9256    3.6087 H   0  0  0  0  0  0  0  0  0  0  0  0
   -4.0258    0.7067    4.3903 H   0  0  0  0  0  0  0  0  0  0  0  0
   -3.2840    2.0717    3.5309 H   0  0  0  0  0  0  0  0  0  0  0  0
  1 16  1  0  0  0  0
  2  1  1  0  0  0  0
  2  6  1  0  0  0  0
  3  2  2  0  0  0  0
  4  3  1  0  0  0  0
  4 17  1  0  0  0  0
  5  3  1  0  0  0  0
  5  8  2  0  0  0  0
  5 18  1  0  0  0  0
  6 19  1  0  0  0  0
  7  6  2  0  0  0  0
  7 20  1  0  0  0  0
  8  7  1  0  0  0  0
  9  8  1  0  0  0  0
  9 13  2  0  0  0  0
 10  9  1  0  0  0  0
 10 11  1  0  0  0  0
 11 12  2  0  0  0  0
 11 21  1  0  0  0  0
 12 13  1  0  0  0  0
 12 22  1  0  0  0  0
 13 14  1  0  0  0  0
 14 15  1  0  0  0  0
 14 23  1  0  0  0  0
 14 24  1  0  0  0  0
 15 25  1  0  0  0  0
 15 26  1  0  0  0  0
 15 27  1  0  0  0  0
M  END
>  <DRUGBANK_ID>
DB08718

>  <COMMON_NAME>
4-(3-ethylthiophen-2-yl)benzene-1,2-diol

>  <UNII>
W1GH0R824Z

$$$$
