
 OpenBabel10282417133D

 24 24  0  0  1  0  0  0  0  0999 V2000
    1.0743    0.0386    0.0529 O   0  0  0  0  0  0  0  0  0  0  0  0
    0.5997   -1.2663    0.3676 C   0  0  0  0  0  0  0  0  0  0  0  0
    1.1116   -2.3074   -0.6294 C   0  0  2  0  0  0  0  0  0  0  0  0
    0.4644   -3.5805   -0.4585 O   0  0  0  0  0  0  0  0  0  0  0  0
    1.4267   -4.6190   -0.7497 C   0  0  1  0  0  0  0  0  0  0  0  0
    1.5678   -5.4259    0.4136 O   0  0  0  0  0  0  0  0  0  0  0  0
    0.8861   -5.4925   -1.8977 C   0  0  0  0  0  0  0  0  0  0  0  0
    0.6036   -4.7091   -3.0610 O   0  0  0  0  0  0  0  0  0  0  0  0
    2.7490   -3.9225   -1.1453 C   0  0  2  0  0  0  0  0  0  0  0  0
    3.9299   -4.6083   -0.7369 O   0  0  0  0  0  0  0  0  0  0  0  0
    2.6032   -2.5695   -0.4674 C   0  0  1  0  0  0  0  0  0  0  0  0
    3.3962   -1.5356   -1.0355 O   0  0  0  0  0  0  0  0  0  0  0  0
    2.0507    0.0087    0.0234 H   0  0  0  0  0  0  0  0  0  0  0  0
    0.9044   -1.5118    1.3910 H   0  0  0  0  0  0  0  0  0  0  0  0
   -0.4945   -1.2406    0.3629 H   0  0  0  0  0  0  0  0  0  0  0  0
    0.9021   -1.9493   -1.6464 H   0  0  0  0  0  0  0  0  0  0  0  0
    1.8651   -4.8515    1.1386 H   0  0  0  0  0  0  0  0  0  0  0  0
    1.6107   -6.2689   -2.1655 H   0  0  0  0  0  0  0  0  0  0  0  0
   -0.0397   -5.9993   -1.6029 H   0  0  0  0  0  0  0  0  0  0  0  0
   -0.1069   -4.0933   -2.8013 H   0  0  0  0  0  0  0  0  0  0  0  0
    2.8237   -3.7787   -2.2284 H   0  0  0  0  0  0  0  0  0  0  0  0
    3.8375   -4.8664    0.1963 H   0  0  0  0  0  0  0  0  0  0  0  0
    2.8844   -2.6518    0.5890 H   0  0  0  0  0  0  0  0  0  0  0  0
    3.3054   -1.5699   -2.0062 H   0  0  0  0  0  0  0  0  0  0  0  0
  1  2  1  0  0  0  0
  1 13  1  0  0  0  0
  2 14  1  0  0  0  0
  2 15  1  0  0  0  0
  3  2  1  0  0  0  0
  3  4  1  0  0  0  0
  3 11  1  0  0  0  0
  3 16  1  6  0  0  0
  4  5  1  0  0  0  0
  5  6  1  1  0  0  0
  5  7  1  0  0  0  0
  5  9  1  0  0  0  0
  6 17  1  0  0  0  0
  7  8  1  0  0  0  0
  7 18  1  0  0  0  0
  7 19  1  0  0  0  0
  8 20  1  0  0  0  0
  9 10  1  0  0  0  0
  9 11  1  0  0  0  0
  9 21  1  6  0  0  0
 10 22  1  0  0  0  0
 11 12  1  0  0  0  0
 11 23  1  1  0  0  0
 12 24  1  0  0  0  0
M  END
>  <DRUGBANK_ID>
DB04173

>  <SECONDARY_ACCESSION_NUMBERS>
EXPT01495

>  <COMMON_NAME>
Fructose

>  <UNII>
WR469VI1J3

$$$$
