
 OpenBabel10282417163D

 23 23  0  0  0  0  0  0  0  0999 V2000
    2.2766    0.2131   -0.0030 O   0  0  0  0  0  0  0  0  0  0  0  0
   -3.1495   -2.4243   -0.0073 O   0  0  0  0  0  0  0  0  0  0  0  0
    1.3640   -5.7703    1.2002 O   0  0  0  0  0  0  0  0  0  0  0  0
    0.2699   -4.2266    2.4231 O   0  0  0  0  0  0  0  0  0  0  0  0
   -1.3517   -3.7228   -0.0345 N   0  0  0  0  0  0  0  0  0  0  0  0
   -1.1399   -1.1668    0.0075 C   0  0  0  0  0  0  0  0  0  0  0  0
   -1.9161   -2.4648    0.0004 C   0  0  0  0  0  0  0  0  0  0  0  0
    0.2523   -1.0391    0.0378 C   0  0  0  0  0  0  0  0  0  0  0  0
   -1.8623    0.0370   -0.0144 C   0  0  0  0  0  0  0  0  0  0  0  0
    0.0199   -4.1810    0.0080 C   0  0  0  0  0  0  0  0  0  0  0  0
    0.9122    0.1788    0.0077 C   0  0  0  0  0  0  0  0  0  0  0  0
   -1.1972    1.2789   -0.0055 C   0  0  0  0  0  0  0  0  0  0  0  0
    0.1959    1.3478    0.0013 C   0  0  0  0  0  0  0  0  0  0  0  0
    0.5069   -4.7278    1.3453 C   0  0  0  0  0  0  0  0  0  0  0  0
    2.6295   -0.6946   -0.0005 H   0  0  0  0  0  0  0  0  0  0  0  0
    1.5131   -6.0579    0.2806 H   0  0  0  0  0  0  0  0  0  0  0  0
   -2.0656   -4.4446    0.0194 H   0  0  0  0  0  0  0  0  0  0  0  0
    0.9454   -1.8346    0.1260 H   0  0  0  0  0  0  0  0  0  0  0  0
   -2.9528    0.0286   -0.0267 H   0  0  0  0  0  0  0  0  0  0  0  0
    0.2107   -4.8334   -0.8450 H   0  0  0  0  0  0  0  0  0  0  0  0
    0.7030   -3.3942   -0.1835 H   0  0  0  0  0  0  0  0  0  0  0  0
   -1.7692    2.2019   -0.0029 H   0  0  0  0  0  0  0  0  0  0  0  0
    0.7250    2.2935    0.0142 H   0  0  0  0  0  0  0  0  0  0  0  0
  1 11  1  0  0  0  0
  1 15  1  0  0  0  0
  2  7  2  0  0  0  0
  3 14  1  0  0  0  0
  3 16  1  0  0  0  0
  4 14  2  0  0  0  0
  5  7  1  0  0  0  0
  5 10  1  0  0  0  0
  5 17  1  0  0  0  0
  6  7  1  0  0  0  0
  6  8  2  0  0  0  0
  6  9  1  0  0  0  0
  8 11  1  0  0  0  0
  8 18  1  0  0  0  0
  9 12  2  0  0  0  0
  9 19  1  0  0  0  0
 10 14  1  0  0  0  0
 10 20  1  0  0  0  0
 10 21  1  0  0  0  0
 11 13  2  0  0  0  0
 12 13  1  0  0  0  0
 12 22  1  0  0  0  0
 13 23  1  0  0  0  0
M  END
>  <DRUGBANK_ID>
DB07069

>  <COMMON_NAME>
m-Hydroxyhippuric acid

>  <CAS_NUMBER>
1637-75-8

>  <UNII>
17HCX0HNRT

>  <SYNONYMS>
2-[(3-hydroxyphenyl)formamido]acetic acid; 3-hydroxyhippuric acid; N-m-Hydroxylbenzoylglycine

$$$$
