
 OpenBabel10282417183D

 47 47  0  0  0  0  0  0  0  0999 V2000
    1.4110   -0.6927   -0.4274 C   0  0  0  0  0  0  0  0  0  0  0  0
    0.4603   -1.6767   -0.0737 C   0  0  0  0  0  0  0  0  0  0  0  0
   -0.9727   -1.4728   -0.1294 C   0  0  0  0  0  0  0  0  0  0  0  0
   -1.5154   -0.2757   -0.6044 C   0  0  0  0  0  0  0  0  0  0  0  0
   -0.6022    0.4997   -1.2893 C   0  0  0  0  0  0  0  0  0  0  0  0
    0.8347    0.3148   -1.1888 C   0  0  0  0  0  0  0  0  0  0  0  0
    2.7307   -0.6697    0.0382 N   0  0  0  0  0  0  0  0  0  0  0  0
   -2.9356    0.2312   -0.3703 C   0  0  0  0  0  0  0  0  0  0  0  0
   -3.2913    1.5465   -0.2239 O   0  0  0  0  0  0  0  0  0  0  0  0
   -3.8510   -0.6250   -0.2792 O   0  0  0  0  0  0  0  0  0  0  0  0
    3.7015    0.4473    0.1146 C   0  0  0  0  0  0  0  0  0  0  0  0
    3.3381   -1.9606    0.3099 C   0  0  0  0  0  0  0  0  0  0  0  0
   -2.5922    2.8326   -0.0192 C   0  0  0  0  0  0  0  0  0  0  0  0
   -1.9493    3.0017    1.3868 C   0  0  3  0  0  0  0  0  0  0  0  0
   -0.9401    1.9150    1.6840 C   0  0  0  0  0  0  0  0  0  0  0  0
    0.2560    2.0588    0.7511 C   0  0  0  0  0  0  0  0  0  0  0  0
    1.4094    3.0286    0.6568 C   0  0  0  0  0  0  0  0  0  0  0  0
   -1.1275    4.2776    1.5065 C   0  0  0  0  0  0  0  0  0  0  0  0
   -1.8116    5.5840    1.3968 C   0  0  0  0  0  0  0  0  0  0  0  0
    2.1017    2.8647    1.9573 C   0  0  0  0  0  0  0  0  0  0  0  0
    0.8087   -2.6267    0.3208 H   0  0  0  0  0  0  0  0  0  0  0  0
   -1.6272   -2.2558    0.2512 H   0  0  0  0  0  0  0  0  0  0  0  0
   -0.9896    1.4438   -1.6502 H   0  0  0  0  0  0  0  0  0  0  0  0
    1.4678    1.1590   -1.4566 H   0  0  0  0  0  0  0  0  0  0  0  0
    4.2245    0.4614    1.0902 H   0  0  0  0  0  0  0  0  0  0  0  0
    4.4789    0.3662   -0.6516 H   0  0  0  0  0  0  0  0  0  0  0  0
    3.2914    1.4390    0.0071 H   0  0  0  0  0  0  0  0  0  0  0  0
    2.9194   -2.4093    1.2147 H   0  0  0  0  0  0  0  0  0  0  0  0
    3.1742   -2.6040   -0.5560 H   0  0  0  0  0  0  0  0  0  0  0  0
    4.4233   -1.8818    0.4540 H   0  0  0  0  0  0  0  0  0  0  0  0
   -1.9295    3.0389   -0.8639 H   0  0  0  0  0  0  0  0  0  0  0  0
   -3.3510    3.6245   -0.1236 H   0  0  0  0  0  0  0  0  0  0  0  0
   -2.7323    2.9544    2.1485 H   0  0  0  0  0  0  0  0  0  0  0  0
   -0.6076    1.8701    2.7218 H   0  0  0  0  0  0  0  0  0  0  0  0
   -1.4441    0.9514    1.5548 H   0  0  0  0  0  0  0  0  0  0  0  0
    0.7225    1.0988    0.9233 H   0  0  0  0  0  0  0  0  0  0  0  0
   -0.1408    2.2928   -0.2185 H   0  0  0  0  0  0  0  0  0  0  0  0
    2.0439    2.7777   -0.2025 H   0  0  0  0  0  0  0  0  0  0  0  0
    1.1670    4.0470    0.3560 H   0  0  0  0  0  0  0  0  0  0  0  0
   -0.4717    4.2402    2.3901 H   0  0  0  0  0  0  0  0  0  0  0  0
   -0.5215    4.3324    0.6157 H   0  0  0  0  0  0  0  0  0  0  0  0
   -2.5522    5.6797    2.1812 H   0  0  0  0  0  0  0  0  0  0  0  0
   -1.0392    6.3576    1.4739 H   0  0  0  0  0  0  0  0  0  0  0  0
   -2.2531    5.6526    0.4008 H   0  0  0  0  0  0  0  0  0  0  0  0
    2.5213    1.8569    2.0004 H   0  0  0  0  0  0  0  0  0  0  0  0
    2.8713    3.6145    2.0645 H   0  0  0  0  0  0  0  0  0  0  0  0
    1.3733    2.9204    2.7668 H   0  0  0  0  0  0  0  0  0  0  0  0
  1  2  2  0  0  0  0
  1  6  1  0  0  0  0
  1  7  1  0  0  0  0
  2  3  1  0  0  0  0
  2 21  1  0  0  0  0
  3  4  2  0  0  0  0
  3 22  1  0  0  0  0
  4  5  1  0  0  0  0
  4  8  1  0  0  0  0
  5  6  2  0  0  0  0
  5 23  1  0  0  0  0
  6 24  1  0  0  0  0
  7 11  1  0  0  0  0
  7 12  1  0  0  0  0
  8  9  1  0  0  0  0
  8 10  2  0  0  0  0
  9 13  1  0  0  0  0
 11 25  1  0  0  0  0
 11 26  1  0  0  0  0
 11 27  1  0  0  0  0
 12 28  1  0  0  0  0
 12 29  1  0  0  0  0
 12 30  1  0  0  0  0
 13 14  1  0  0  0  0
 13 31  1  0  0  0  0
 13 32  1  0  0  0  0
 14 15  1  0  0  0  0
 14 18  1  0  0  0  0
 14 33  1  0  0  0  0
 15 16  1  0  0  0  0
 15 34  1  0  0  0  0
 15 35  1  0  0  0  0
 16 17  1  0  0  0  0
 16 36  1  0  0  0  0
 16 37  1  0  0  0  0
 17 20  1  0  0  0  0
 17 38  1  0  0  0  0
 17 39  1  0  0  0  0
 18 19  1  0  0  0  0
 18 40  1  0  0  0  0
 18 41  1  0  0  0  0
 19 42  1  0  0  0  0
 19 43  1  0  0  0  0
 19 44  1  0  0  0  0
 20 45  1  0  0  0  0
 20 46  1  0  0  0  0
 20 47  1  0  0  0  0
M  END
>  <DRUGBANK_ID>
DB11570

>  <COMMON_NAME>
Padimate O

>  <CAS_NUMBER>
21245-02-3

>  <UNII>
Z11006CMUZ

>  <SYNONYMS>
Padimate O; Padimate-O

$$$$
