
 OpenBabel10282417103D

 79 80  0  0  1  0  0  0  0  0999 V2000
   -0.9853   -0.5085   -0.3470 C   0  0  2  0  0  0  0  0  0  0  0  0
   -0.1040   -1.3925    0.5171 C   0  0  2  0  0  0  0  0  0  0  0  0
    1.3262   -1.2568   -0.0229 C   0  0  0  0  0  0  0  0  0  0  0  0
    1.7909    0.0801    0.0214 O   0  0  0  0  0  0  0  0  0  0  0  0
    0.9884    0.9324   -0.8151 C   0  0  2  0  0  0  0  0  0  0  0  0
   -0.4351    0.9261   -0.2566 C   0  0  2  0  0  0  0  0  0  0  0  0
    0.3420   -3.7155    1.3889 C   0  0  1  0  0  0  0  0  0  0  0  0
   -0.5509   -2.8500    0.5388 C   0  0  0  0  0  0  0  0  0  0  0  0
   -2.3460   -0.5591    0.0315 O   0  0  0  0  0  0  0  0  0  0  0  0
   -0.5488    1.4571    1.0676 O   0  0  0  0  0  0  0  0  0  0  0  0
    1.0239    0.4034   -2.2892 C   0  0  0  0  0  0  0  0  0  0  0  0
    0.2676    1.2317   -3.3470 C   0  0  0  0  0  0  0  0  0  0  0  0
    0.7377    1.6834   -4.5220 C   0  0  0  0  0  0  0  0  0  0  0  0
    0.2823    2.7713   -5.4424 C   0  0  0  0  0  0  0  0  0  0  0  0
    1.2552    3.3538   -6.2147 O   0  0  0  0  0  0  0  0  0  0  0  0
    2.7000    3.1691   -6.2988 C   0  0  0  0  0  0  0  0  0  0  0  0
    3.4708    3.7379   -5.0992 C   0  0  0  0  0  0  0  0  0  0  0  0
    3.1985    2.9428   -3.8477 C   0  0  0  0  0  0  0  0  0  0  0  0
    3.6173    1.4738   -4.1114 C   0  0  0  0  0  0  0  0  0  0  0  0
    5.0757    1.2123   -4.1294 C   0  0  0  0  0  0  0  0  0  0  0  0
    5.6062    1.6605   -2.7844 C   0  0  0  0  0  0  0  0  0  0  0  0
    5.0185    0.8472   -1.6107 C   0  0  0  0  0  0  0  0  0  0  0  0
    5.2326   -0.6582   -1.7740 C   0  0  0  0  0  0  0  0  0  0  0  0
    6.7050   -0.9554   -1.9598 C   0  0  0  0  0  0  0  0  0  0  0  0
    7.2492   -1.7086   -0.9879 O   0  0  0  0  0  0  0  0  0  0  0  0
   -1.1922    1.4128   -3.1488 C   0  0  0  0  0  0  0  0  0  0  0  0
   -0.8448    3.1830   -5.4716 O   0  0  0  0  0  0  0  0  0  0  0  0
    7.3750   -0.5532   -2.8991 O   0  0  0  0  0  0  0  0  0  0  0  0
    1.4508   -3.0506    2.2169 C   0  0  2  0  0  0  0  0  0  0  0  0
    2.8425   -3.6296    2.3369 C   0  0  2  0  0  0  0  0  0  0  0  0
    3.5861   -2.7819    3.4061 C   0  0  2  0  0  0  0  0  0  0  0  0
    5.0444   -3.1607    3.6132 C   0  0  0  0  0  0  0  0  0  0  0  0
    0.2940   -3.6151    2.8217 O   0  0  0  0  0  0  0  0  0  0  0  0
    2.9032   -2.8979    4.6511 O   0  0  0  0  0  0  0  0  0  0  0  0
    3.6202   -3.4920    0.9953 C   0  0  0  0  0  0  0  0  0  0  0  0
   -0.9609   -0.8972   -1.3685 H   0  0  0  0  0  0  0  0  0  0  0  0
   -0.1779   -1.0058    1.5407 H   0  0  0  0  0  0  0  0  0  0  0  0
    1.4611   -1.7184   -1.0040 H   0  0  0  0  0  0  0  0  0  0  0  0
    2.0487   -1.7768    0.5535 H   0  0  0  0  0  0  0  0  0  0  0  0
    1.4656    1.9162   -0.7236 H   0  0  0  0  0  0  0  0  0  0  0  0
   -1.0643    1.5960   -0.7974 H   0  0  0  0  0  0  0  0  0  0  0  0
    0.3298   -4.7425    1.0586 H   0  0  0  0  0  0  0  0  0  0  0  0
   -1.6008   -2.9272    0.8439 H   0  0  0  0  0  0  0  0  0  0  0  0
   -0.5061   -3.2282   -0.4928 H   0  0  0  0  0  0  0  0  0  0  0  0
   -2.4150   -0.0712    0.8703 H   0  0  0  0  0  0  0  0  0  0  0  0
    0.1387    1.0640    1.6268 H   0  0  0  0  0  0  0  0  0  0  0  0
    2.0689    0.1545   -2.4218 H   0  0  0  0  0  0  0  0  0  0  0  0
    0.6569   -0.6192   -2.3954 H   0  0  0  0  0  0  0  0  0  0  0  0
    1.6354    1.2868   -4.8753 H   0  0  0  0  0  0  0  0  0  0  0  0
    2.9309    2.1267   -6.5380 H   0  0  0  0  0  0  0  0  0  0  0  0
    3.0267    3.7250   -7.1820 H   0  0  0  0  0  0  0  0  0  0  0  0
    4.5504    3.7095   -5.2856 H   0  0  0  0  0  0  0  0  0  0  0  0
    3.1969    4.7820   -4.9281 H   0  0  0  0  0  0  0  0  0  0  0  0
    3.6651    3.3632   -2.9548 H   0  0  0  0  0  0  0  0  0  0  0  0
    2.1585    3.1169   -3.5651 H   0  0  0  0  0  0  0  0  0  0  0  0
    3.2139    0.8593   -3.3469 H   0  0  0  0  0  0  0  0  0  0  0  0
    3.2904    0.9852   -5.0311 H   0  0  0  0  0  0  0  0  0  0  0  0
    5.2089    0.1382   -4.3182 H   0  0  0  0  0  0  0  0  0  0  0  0
    5.5132    1.7214   -4.9882 H   0  0  0  0  0  0  0  0  0  0  0  0
    6.6887    1.6213   -2.8135 H   0  0  0  0  0  0  0  0  0  0  0  0
    5.3941    2.7171   -2.6195 H   0  0  0  0  0  0  0  0  0  0  0  0
    5.4653    1.2043   -0.6804 H   0  0  0  0  0  0  0  0  0  0  0  0
    3.9451    1.0455   -1.4822 H   0  0  0  0  0  0  0  0  0  0  0  0
    4.8220   -1.1871   -0.9101 H   0  0  0  0  0  0  0  0  0  0  0  0
    4.6883   -1.0662   -2.6358 H   0  0  0  0  0  0  0  0  0  0  0  0
    6.6275   -2.0162   -0.3073 H   0  0  0  0  0  0  0  0  0  0  0  0
   -1.6463    0.4346   -2.9744 H   0  0  0  0  0  0  0  0  0  0  0  0
   -1.4063    2.1576   -2.3959 H   0  0  0  0  0  0  0  0  0  0  0  0
   -1.6860    1.7982   -4.0279 H   0  0  0  0  0  0  0  0  0  0  0  0
    1.4965   -1.9803    2.3777 H   0  0  0  0  0  0  0  0  0  0  0  0
    2.7936   -4.6837    2.6245 H   0  0  0  0  0  0  0  0  0  0  0  0
    3.5420   -1.7228    3.1080 H   0  0  0  0  0  0  0  0  0  0  0  0
    5.6488   -2.2477    3.6525 H   0  0  0  0  0  0  0  0  0  0  0  0
    5.1927   -3.7070    4.5464 H   0  0  0  0  0  0  0  0  0  0  0  0
    5.4597   -3.7655    2.8074 H   0  0  0  0  0  0  0  0  0  0  0  0
    3.0085   -2.0597    5.1324 H   0  0  0  0  0  0  0  0  0  0  0  0
    3.7832   -2.4399    0.7316 H   0  0  0  0  0  0  0  0  0  0  0  0
    4.6300   -3.9057    1.0245 H   0  0  0  0  0  0  0  0  0  0  0  0
    3.0998   -3.9783    0.1654 H   0  0  0  0  0  0  0  0  0  0  0  0
  1  9  1  0  0  0  0
  1  2  1  0  0  0  0
  1  6  1  0  0  0  0
  1 36  1  6  0  0  0
  2  8  1  0  0  0  0
  2  3  1  0  0  0  0
  2 37  1  1  0  0  0
  3  4  1  0  0  0  0
  3 38  1  0  0  0  0
  3 39  1  0  0  0  0
  4  5  1  0  0  0  0
  5  6  1  0  0  0  0
  5 11  1  0  0  0  0
  5 40  1  1  0  0  0
  6 10  1  0  0  0  0
  6 41  1  6  0  0  0
  7 33  1  0  0  0  0
  7  8  1  0  0  0  0
  7 29  1  0  0  0  0
  7 42  1  6  0  0  0
  8 43  1  0  0  0  0
  8 44  1  0  0  0  0
  9 45  1  0  0  0  0
 10 46  1  0  0  0  0
 11 12  1  0  0  0  0
 11 47  1  0  0  0  0
 11 48  1  0  0  0  0
 12 13  2  0  0  0  0
 12 26  1  0  0  0  0
 13 14  1  0  0  0  0
 13 49  1  0  0  0  0
 14 15  1  0  0  0  0
 14 27  2  0  0  0  0
 15 16  1  0  0  0  0
 16 17  1  0  0  0  0
 16 50  1  0  0  0  0
 16 51  1  0  0  0  0
 17 18  1  0  0  0  0
 17 52  1  0  0  0  0
 17 53  1  0  0  0  0
 18 19  1  0  0  0  0
 18 54  1  0  0  0  0
 18 55  1  0  0  0  0
 19 20  1  0  0  0  0
 19 56  1  0  0  0  0
 19 57  1  0  0  0  0
 20 21  1  0  0  0  0
 20 58  1  0  0  0  0
 20 59  1  0  0  0  0
 21 22  1  0  0  0  0
 21 60  1  0  0  0  0
 21 61  1  0  0  0  0
 22 23  1  0  0  0  0
 22 62  1  0  0  0  0
 22 63  1  0  0  0  0
 23 24  1  0  0  0  0
 23 64  1  0  0  0  0
 23 65  1  0  0  0  0
 24 25  1  0  0  0  0
 24 28  2  0  0  0  0
 25 66  1  0  0  0  0
 26 67  1  0  0  0  0
 26 68  1  0  0  0  0
 26 69  1  0  0  0  0
 29 33  1  0  0  0  0
 29 30  1  0  0  0  0
 29 70  1  6  0  0  0
 30 35  1  0  0  0  0
 30 31  1  0  0  0  0
 30 71  1  1  0  0  0
 31 72  1  6  0  0  0
 31 34  1  0  0  0  0
 31 32  1  0  0  0  0
 32 73  1  0  0  0  0
 32 74  1  0  0  0  0
 32 75  1  0  0  0  0
 34 76  1  0  0  0  0
 35 77  1  0  0  0  0
 35 78  1  0  0  0  0
 35 79  1  0  0  0  0
M  END
>  <DRUGBANK_ID>
DB00410

>  <SECONDARY_ACCESSION_NUMBERS>
APRD00162

>  <COMMON_NAME>
Mupirocin

>  <CAS_NUMBER>
12650-69-0

>  <UNII>
D0GX863OA5

>  <SYNONYMS>
9-[(E)-4-[(2S,3R,4R,5S)-3,4-dihydroxy-5-[[(2S,3S)-3- [(2S,3S)-3-hydroxybutan-2-yl]oxiran-2-yl]methyl] oxan-2-yl]-3-methylbut-2-enoyl]oxynonanoic acid; Mupirocin; Mupirocina; Mupirocine; Mupirocinum; Pseudomonic acid; Pseudomonic acid A

$$$$
