
 OpenBabel10282417233D

 52 52  0  0  1  0  0  0  0  0999 V2000
   -1.2184   -0.9811   -5.3570 N   0  0  0  0  0  0  0  0  0  0  0  0
   -2.3728   -0.3276   -4.7739 C   0  0  2  0  0  0  0  0  0  0  0  0
   -2.2850    1.4415   -4.8381 C   0  0  0  0  0  0  0  0  0  0  0  0
   -1.0224    1.9308   -5.4235 C   0  0  0  0  0  0  0  0  0  0  0  0
   -1.6477    1.7447   -6.7866 C   0  0  0  0  0  0  0  0  0  0  0  0
   -0.5851    1.9769   -7.7528 C   0  0  0  0  0  0  0  0  0  0  0  0
    0.6703    1.1770   -7.4047 C   0  0  0  0  0  0  0  0  0  0  0  0
    1.3427    1.5575   -6.0803 C   0  0  0  0  0  0  0  0  0  0  0  0
    0.3787    1.2627   -4.9947 C   0  0  0  0  0  0  0  0  0  0  0  0
   -2.4574   -1.4444   -3.4340 C   0  0  0  0  0  0  0  0  0  0  0  0
   -3.1875   -2.4381   -3.4965 O   0  0  0  0  0  0  0  0  0  0  0  0
   -1.6954   -1.2921   -2.2611 N   0  0  0  0  0  0  0  0  0  0  0  0
   -1.2482   -0.0543   -1.6186 C   0  0  2  0  0  0  0  0  0  0  0  0
   -1.9284    0.9126   -0.5829 C   0  0  0  0  0  0  0  0  0  0  0  0
   -1.9229    2.6113   -0.8504 C   0  0  0  0  0  0  0  0  0  0  0  0
   -2.5094    3.5914   -2.0091 C   0  0  0  0  0  0  0  0  0  0  0  0
   -3.7468    4.0910   -1.7988 O   0  0  0  0  0  0  0  0  0  0  0  0
   -1.8838    4.0420   -2.9553 O   0  0  0  0  0  0  0  0  0  0  0  0
   -1.8152    0.8227   -2.5662 C   0  0  0  0  0  0  0  0  0  0  0  0
   -0.9520    1.6360   -2.8958 O   0  0  0  0  0  0  0  0  0  0  0  0
   -3.2694    0.7749   -2.8035 N   0  0  0  0  0  0  0  0  0  0  0  0
   -4.4450   -0.0071   -2.4304 C   0  0  0  0  0  0  0  0  0  0  0  0
   -5.3962    1.1667   -2.1997 C   0  0  0  0  0  0  0  0  0  0  0  0
   -6.4443    1.2039   -3.0729 O   0  0  0  0  0  0  0  0  0  0  0  0
   -5.1421    2.0717   -1.4594 O   0  0  0  0  0  0  0  0  0  0  0  0
   -0.5616   -0.9903   -4.5680 H   0  0  0  0  0  0  0  0  0  0  0  0
   -0.8234   -0.3672   -6.0505 H   0  0  0  0  0  0  0  0  0  0  0  0
   -3.2364   -0.5507   -5.4171 H   0  0  0  0  0  0  0  0  0  0  0  0
   -3.2334    1.9114   -5.2159 H   0  0  0  0  0  0  0  0  0  0  0  0
   -2.3661    2.1586   -4.0158 H   0  0  0  0  0  0  0  0  0  0  0  0
   -0.8876    3.0128   -5.2234 H   0  0  0  0  0  0  0  0  0  0  0  0
   -2.1210    0.7597   -6.9441 H   0  0  0  0  0  0  0  0  0  0  0  0
   -2.5192    2.4213   -6.9223 H   0  0  0  0  0  0  0  0  0  0  0  0
   -1.0229    1.6824   -8.7027 H   0  0  0  0  0  0  0  0  0  0  0  0
   -0.4042    3.0495   -7.6985 H   0  0  0  0  0  0  0  0  0  0  0  0
    0.4234    0.1036   -7.3892 H   0  0  0  0  0  0  0  0  0  0  0  0
    1.3835    1.3323   -8.1968 H   0  0  0  0  0  0  0  0  0  0  0  0
    2.2377    0.9434   -5.9060 H   0  0  0  0  0  0  0  0  0  0  0  0
    1.6000    2.6097   -5.9698 H   0  0  0  0  0  0  0  0  0  0  0  0
    0.8060    1.5369   -4.0143 H   0  0  0  0  0  0  0  0  0  0  0  0
    0.5257    0.1913   -4.9132 H   0  0  0  0  0  0  0  0  0  0  0  0
   -1.6740   -2.1117   -1.6719 H   0  0  0  0  0  0  0  0  0  0  0  0
   -0.1422   -0.0064   -1.6518 H   0  0  0  0  0  0  0  0  0  0  0  0
   -2.9551    0.5907   -0.4211 H   0  0  0  0  0  0  0  0  0  0  0  0
   -1.3760    0.7535    0.3379 H   0  0  0  0  0  0  0  0  0  0  0  0
   -2.3353    3.0172    0.0650 H   0  0  0  0  0  0  0  0  0  0  0  0
   -0.8561    2.8759   -0.8914 H   0  0  0  0  0  0  0  0  0  0  0  0
   -4.2829    3.6068   -1.1405 H   0  0  0  0  0  0  0  0  0  0  0  0
   -3.6605    1.2049   -3.6209 H   0  0  0  0  0  0  0  0  0  0  0  0
   -4.7829   -0.5725   -3.3176 H   0  0  0  0  0  0  0  0  0  0  0  0
   -4.2191   -0.6387   -1.5895 H   0  0  0  0  0  0  0  0  0  0  0  0
   -6.5675    0.4438   -3.6682 H   0  0  0  0  0  0  0  0  0  0  0  0
  1 26  1  0  0  0  0
  1 27  1  0  0  0  0
  2 10  1  0  0  0  0
  2 28  1  6  0  0  0
  2  3  1  0  0  0  0
  2  1  1  0  0  0  0
  3  4  1  0  0  0  0
  3 29  1  0  0  0  0
  3 30  1  0  0  0  0
  4  5  1  0  0  0  0
  4  9  1  0  0  0  0
  4 31  1  0  0  0  0
  5  6  1  0  0  0  0
  5 32  1  0  0  0  0
  5 33  1  0  0  0  0
  6  7  1  0  0  0  0
  6 34  1  0  0  0  0
  6 35  1  0  0  0  0
  7  8  1  0  0  0  0
  7 36  1  0  0  0  0
  7 37  1  0  0  0  0
  8  9  1  0  0  0  0
  8 38  1  0  0  0  0
  8 39  1  0  0  0  0
  9 40  1  0  0  0  0
  9 41  1  0  0  0  0
 10 11  2  0  0  0  0
 10 12  1  0  0  0  0
 12 42  1  0  0  0  0
 13 19  1  0  0  0  0
 13 43  1  1  0  0  0
 13 14  1  0  0  0  0
 13 12  1  0  0  0  0
 14 15  1  0  0  0  0
 14 44  1  0  0  0  0
 14 45  1  0  0  0  0
 15 16  1  0  0  0  0
 15 46  1  0  0  0  0
 15 47  1  0  0  0  0
 16 17  1  0  0  0  0
 16 18  2  0  0  0  0
 17 48  1  0  0  0  0
 19 20  2  0  0  0  0
 19 21  1  0  0  0  0
 21 22  1  0  0  0  0
 21 49  1  0  0  0  0
 22 23  1  0  0  0  0
 22 50  1  0  0  0  0
 22 51  1  0  0  0  0
 23 24  1  0  0  0  0
 23 25  2  0  0  0  0
 24 52  1  0  0  0  0
M  END
>  <DRUGBANK_ID>
DB16176

>  <COMMON_NAME>
AIM-102

>  <CAS_NUMBER>
551936-17-5

>  <UNII>
3JX85UOO24

$$$$
