P4T
 OpenBabel10282417173D

 28 29  0  0  0  0  0  0  0  0999 V2000
   -0.6907    1.1475    0.0019 N   0  0  0  0  0  0  0  0  0  0  0  0
    0.6170    1.2381   -0.0213 C   0  0  0  0  0  0  0  0  0  0  0  0
    1.3025    2.4056   -0.1118 N   0  0  0  0  0  0  0  0  0  0  0  0
   -1.1181   -0.1653    0.0088 C   0  0  0  0  0  0  0  0  0  0  0  0
   -0.1075   -1.1149    0.0208 C   0  0  0  0  0  0  0  0  0  0  0  0
   -0.2693   -2.5644    0.0331 C   0  0  0  0  0  0  0  0  0  0  0  0
   -2.5894   -0.3743   -0.0082 C   0  0  0  0  0  0  0  0  0  0  0  0
    0.7021    3.6764    0.0050 C   0  0  0  0  0  0  0  0  0  0  0  0
   -0.1423    3.9938    1.0778 C   0  0  0  0  0  0  0  0  0  0  0  0
   -0.7347    5.2554    1.1813 C   0  0  0  0  0  0  0  0  0  0  0  0
   -0.4765    6.2269    0.2185 C   0  0  0  0  0  0  0  0  0  0  0  0
    0.3852    5.9395   -0.8381 C   0  0  0  0  0  0  0  0  0  0  0  0
    0.9547    4.6653   -0.9548 C   0  0  0  0  0  0  0  0  0  0  0  0
    1.4093   -0.2974    0.0109 S   0  0  0  0  0  0  0  0  0  0  0  0
    0.9087   -3.4978    0.0342 C   0  0  0  0  0  0  0  0  0  0  0  0
   -1.3860   -3.1027    0.0447 O   0  0  0  0  0  0  0  0  0  0  0  0
    2.3134    2.4138   -0.0796 H   0  0  0  0  0  0  0  0  0  0  0  0
   -3.0395    0.0944    0.8714 H   0  0  0  0  0  0  0  0  0  0  0  0
   -3.0153    0.0797   -0.9080 H   0  0  0  0  0  0  0  0  0  0  0  0
   -2.8828   -1.4224   -0.0054 H   0  0  0  0  0  0  0  0  0  0  0  0
   -0.3521    3.2485    1.8408 H   0  0  0  0  0  0  0  0  0  0  0  0
   -1.3982    5.4739    2.0136 H   0  0  0  0  0  0  0  0  0  0  0  0
   -0.9539    7.2012    0.2865 H   0  0  0  0  0  0  0  0  0  0  0  0
    0.6048    6.7054   -1.5775 H   0  0  0  0  0  0  0  0  0  0  0  0
    1.5565    4.4367   -1.8305 H   0  0  0  0  0  0  0  0  0  0  0  0
    0.8484   -4.1223    0.9317 H   0  0  0  0  0  0  0  0  0  0  0  0
    0.8365   -4.1415   -0.8490 H   0  0  0  0  0  0  0  0  0  0  0  0
    1.8732   -2.9968    0.0220 H   0  0  0  0  0  0  0  0  0  0  0  0
  1  2  2  0  0  0  0
  1  4  1  0  0  0  0
  2  3  1  0  0  0  0
  2 14  1  0  0  0  0
  3  8  1  0  0  0  0
  3 17  1  0  0  0  0
  4  5  2  0  0  0  0
  4  7  1  0  0  0  0
  5  6  1  0  0  0  0
  5 14  1  0  0  0  0
  6 15  1  0  0  0  0
  6 16  2  0  0  0  0
  7 18  1  0  0  0  0
  7 19  1  0  0  0  0
  7 20  1  0  0  0  0
  8  9  1  0  0  0  0
  8 13  2  0  0  0  0
  9 10  2  0  0  0  0
  9 21  1  0  0  0  0
 10 11  1  0  0  0  0
 10 22  1  0  0  0  0
 11 12  2  0  0  0  0
 11 23  1  0  0  0  0
 12 13  1  0  0  0  0
 12 24  1  0  0  0  0
 13 25  1  0  0  0  0
 15 26  1  0  0  0  0
 15 27  1  0  0  0  0
 15 28  1  0  0  0  0
M  END
>  <DRUGBANK_ID>
DB08359

>  <COMMON_NAME>
2-PHENYLAMINO-4-METHYL-5-ACETYL THIAZOLE

$$$$
