
 OpenBabel10282417123D

 95102  0  0  0  0  0  0  0  0999 V2000
    1.0900    0.0876    0.0710 N   0  0  0  0  0  0  0  0  0  0  0  0
    0.4220   -0.8568    0.8189 C   0  0  0  0  0  0  0  0  0  0  0  0
    0.7754   -1.0784    2.1387 C   0  0  0  0  0  0  0  0  0  0  0  0
    0.1261   -2.0333    2.8965 C   0  0  0  0  0  0  0  0  0  0  0  0
   -0.8654   -2.8223    2.3308 C   0  0  0  0  0  0  0  0  0  0  0  0
   -1.2228   -2.6308    0.9727 C   0  0  0  0  0  0  0  0  0  0  0  0
   -0.5726   -1.6285    0.2481 C   0  0  0  0  0  0  0  0  0  0  0  0
   -2.2156   -3.4300    0.3760 C   0  0  0  0  0  0  0  0  0  0  0  0
   -2.6128   -3.2741   -1.0404 C   0  0  0  0  0  0  0  0  0  0  0  0
   -1.6681   -3.4582   -2.0645 C   0  0  0  0  0  0  0  0  0  0  0  0
   -1.9328   -2.9968   -3.3510 C   0  0  0  0  0  0  0  0  0  0  0  0
   -3.2177   -2.5873   -3.6872 C   0  0  0  0  0  0  0  0  0  0  0  0
   -4.2322   -2.6322   -2.7386 C   0  0  0  0  0  0  0  0  0  0  0  0
   -3.9083   -2.8550   -1.4037 C   0  0  0  0  0  0  0  0  0  0  0  0
   -2.8592   -4.3460    1.1404 N   0  3  0  0  0  0  0  0  0  0  0  0
   -3.8971   -5.2439    0.4671 C   0  0  0  0  0  0  0  0  0  0  0  0
   -3.4935   -6.7125    0.3864 C   0  0  0  0  0  0  0  0  0  0  0  0
   -3.4838   -7.3483    1.7371 C   0  0  0  0  0  0  0  0  0  0  0  0
   -4.9011   -7.1326    2.3545 C   0  0  0  0  0  0  0  0  0  0  0  0
   -5.9911   -7.9756    1.8296 C   0  0  0  0  0  0  0  0  0  0  0  0
   -5.5629   -9.4094    2.0219 C   0  0  0  0  0  0  0  0  0  0  0  0
   -5.4447   -9.7799    3.4818 C   0  0  0  0  0  0  0  0  0  0  0  0
   -5.5782   -9.0080    4.6240 C   0  0  0  0  0  0  0  0  0  0  0  0
   -5.3144   -9.8313    5.6752 N   0  0  0  0  0  0  0  0  0  0  0  0
   -5.2112   -9.4728    7.0858 C   0  0  0  0  0  0  0  0  0  0  0  0
   -6.4359   -9.8424    7.9902 C   0  0  0  0  0  0  0  0  0  0  0  0
   -6.7493  -11.2724    8.2930 N   0  0  0  0  0  0  0  0  0  0  0  0
   -6.4162  -12.1132    9.5434 C   0  0  0  0  0  0  0  0  0  0  0  0
   -6.7589  -11.9385   11.1249 C   0  0  0  0  0  0  0  0  0  0  0  0
   -6.9450  -13.1599   12.7797 C   0  0  0  0  0  0  0  0  0  0  0  0
   -8.5155  -14.1330   12.7144 C   0  0  0  0  0  0  0  0  0  0  0  0
   -9.4249  -12.9845   12.4939 C   0  0  0  0  0  0  0  0  0  0  0  0
   -8.4208  -11.9499   12.1916 C   0  0  0  0  0  0  0  0  0  0  0  0
   -7.2723  -13.1366   11.1455 C   0  0  0  0  0  0  0  0  0  0  0  0
   -6.1261  -14.0276   11.2102 N   0  0  0  0  0  0  0  0  0  0  0  0
   -5.4452  -14.1204   10.1460 C   0  0  0  0  0  0  0  0  0  0  0  0
   -5.6131  -13.2371    9.1091 C   0  0  0  0  0  0  0  0  0  0  0  0
   -4.8895  -13.5854    7.9396 C   0  0  0  0  0  0  0  0  0  0  0  0
   -4.3022  -14.8558    7.8740 C   0  0  0  0  0  0  0  0  0  0  0  0
   -4.3920  -15.7429    8.9427 C   0  0  0  0  0  0  0  0  0  0  0  0
   -4.7619  -15.2636   10.1535 C   0  0  0  0  0  0  0  0  0  0  0  0
   -5.1917  -11.0872    5.2270 N   0  0  0  0  0  0  0  0  0  0  0  0
   -5.2506  -11.0668    3.8924 N   0  0  0  0  0  0  0  0  0  0  0  0
   -2.5273   -4.4308    2.4939 C   0  0  0  0  0  0  0  0  0  0  0  0
   -1.5085   -3.7719    3.1160 C   0  0  0  0  0  0  0  0  0  0  0  0
   -1.2358   -4.0801    4.5110 C   0  0  0  0  0  0  0  0  0  0  0  0
   -1.9111   -5.0510    5.2536 C   0  0  0  0  0  0  0  0  0  0  0  0
   -2.9298   -5.6943    4.6616 C   0  0  0  0  0  0  0  0  0  0  0  0
   -3.6933   -6.6355    5.3436 N   0  0  0  0  0  0  0  0  0  0  0  0
   -3.2389   -5.1913    3.3964 C   0  0  0  0  0  0  0  0  0  0  0  0
    0.6119    0.5359   -0.7002 H   0  0  0  0  0  0  0  0  0  0  0  0
    2.0981    0.0031   -0.0034 H   0  0  0  0  0  0  0  0  0  0  0  0
    1.5334   -0.4693    2.6158 H   0  0  0  0  0  0  0  0  0  0  0  0
    0.4120   -2.1314    3.9381 H   0  0  0  0  0  0  0  0  0  0  0  0
   -0.8246   -1.4349   -0.7903 H   0  0  0  0  0  0  0  0  0  0  0  0
   -0.6825   -3.8696   -1.8489 H   0  0  0  0  0  0  0  0  0  0  0  0
   -1.1382   -2.9498   -4.0925 H   0  0  0  0  0  0  0  0  0  0  0  0
   -3.4275   -2.2392   -4.6956 H   0  0  0  0  0  0  0  0  0  0  0  0
   -5.2632   -2.4569   -3.0359 H   0  0  0  0  0  0  0  0  0  0  0  0
   -4.6904   -2.7372   -0.6543 H   0  0  0  0  0  0  0  0  0  0  0  0
   -4.8631   -5.0133    0.9239 H   0  0  0  0  0  0  0  0  0  0  0  0
   -4.0596   -4.9945   -0.5757 H   0  0  0  0  0  0  0  0  0  0  0  0
   -4.2292   -7.2572   -0.2154 H   0  0  0  0  0  0  0  0  0  0  0  0
   -2.5237   -6.8231   -0.1023 H   0  0  0  0  0  0  0  0  0  0  0  0
   -3.1619   -8.3893    1.7723 H   0  0  0  0  0  0  0  0  0  0  0  0
   -2.6098   -6.9439    2.2586 H   0  0  0  0  0  0  0  0  0  0  0  0
   -4.7745   -7.2843    3.3925 H   0  0  0  0  0  0  0  0  0  0  0  0
   -5.4211   -6.1603    2.3500 H   0  0  0  0  0  0  0  0  0  0  0  0
   -6.8994   -7.7298    2.3978 H   0  0  0  0  0  0  0  0  0  0  0  0
   -6.1513   -7.6500    0.7989 H   0  0  0  0  0  0  0  0  0  0  0  0
   -6.2891  -10.0247    1.5060 H   0  0  0  0  0  0  0  0  0  0  0  0
   -4.6120   -9.5729    1.4974 H   0  0  0  0  0  0  0  0  0  0  0  0
   -5.8245   -7.9697    4.7839 H   0  0  0  0  0  0  0  0  0  0  0  0
   -4.2520   -9.8350    7.4671 H   0  0  0  0  0  0  0  0  0  0  0  0
   -5.1153   -8.3663    7.0897 H   0  0  0  0  0  0  0  0  0  0  0  0
   -6.3354   -9.3323    8.9381 H   0  0  0  0  0  0  0  0  0  0  0  0
   -7.2906   -9.4046    7.4407 H   0  0  0  0  0  0  0  0  0  0  0  0
   -6.5764  -11.7992    7.4009 H   0  0  0  0  0  0  0  0  0  0  0  0
   -6.4758  -14.1295   13.0653 H   0  0  0  0  0  0  0  0  0  0  0  0
   -6.8172  -12.6317   13.6977 H   0  0  0  0  0  0  0  0  0  0  0  0
   -8.8558  -14.8328   13.4874 H   0  0  0  0  0  0  0  0  0  0  0  0
   -8.3583  -14.8515   11.8682 H   0  0  0  0  0  0  0  0  0  0  0  0
   -9.9811  -12.7316   13.3893 H   0  0  0  0  0  0  0  0  0  0  0  0
  -10.0144  -13.1403   11.6013 H   0  0  0  0  0  0  0  0  0  0  0  0
   -7.9224  -11.4159   13.1227 H   0  0  0  0  0  0  0  0  0  0  0  0
   -8.7515  -11.0440   11.6773 H   0  0  0  0  0  0  0  0  0  0  0  0
   -4.7658  -12.9099    7.0987 H   0  0  0  0  0  0  0  0  0  0  0  0
   -3.7469  -15.1709    7.0031 H   0  0  0  0  0  0  0  0  0  0  0  0
   -4.1659  -16.7939    8.8889 H   0  0  0  0  0  0  0  0  0  0  0  0
   -4.6859  -15.7971   11.0926 H   0  0  0  0  0  0  0  0  0  0  0  0
   -0.4734   -3.5497    5.0620 H   0  0  0  0  0  0  0  0  0  0  0  0
   -1.6814   -5.2836    6.2846 H   0  0  0  0  0  0  0  0  0  0  0  0
   -3.3201   -6.9875    6.2210 H   0  0  0  0  0  0  0  0  0  0  0  0
   -3.8742   -7.4687    4.7956 H   0  0  0  0  0  0  0  0  0  0  0  0
   -4.1484   -5.4035    2.9651 H   0  0  0  0  0  0  0  0  0  0  0  0
  1  2  1  0  0  0  0
  1 51  1  0  0  0  0
  1 52  1  0  0  0  0
  2  3  2  0  0  0  0
  2  7  1  0  0  0  0
  3  4  1  0  0  0  0
  3 53  1  0  0  0  0
  4  5  2  0  0  0  0
  4 54  1  0  0  0  0
  5  6  1  0  0  0  0
  5 45  1  0  0  0  0
  6  7  2  0  0  0  0
  6  8  1  0  0  0  0
  7 55  1  0  0  0  0
  8  9  1  0  0  0  0
  8 15  2  0  0  0  0
  9 10  2  0  0  0  0
  9 14  1  0  0  0  0
 10 11  1  0  0  0  0
 10 56  1  0  0  0  0
 11 12  2  0  0  0  0
 11 57  1  0  0  0  0
 12 13  1  0  0  0  0
 12 58  1  0  0  0  0
 13 14  2  0  0  0  0
 13 59  1  0  0  0  0
 14 60  1  0  0  0  0
 15 16  1  0  0  0  0
 15 44  1  0  0  0  0
 16 17  1  0  0  0  0
 16 61  1  0  0  0  0
 16 62  1  0  0  0  0
 17 18  1  0  0  0  0
 17 63  1  0  0  0  0
 17 64  1  0  0  0  0
 18 19  1  0  0  0  0
 18 65  1  0  0  0  0
 18 66  1  0  0  0  0
 19 20  1  0  0  0  0
 19 67  1  0  0  0  0
 19 68  1  0  0  0  0
 20 21  1  0  0  0  0
 20 69  1  0  0  0  0
 20 70  1  0  0  0  0
 21 22  1  0  0  0  0
 21 71  1  0  0  0  0
 21 72  1  0  0  0  0
 22 23  2  0  0  0  0
 22 43  1  0  0  0  0
 23 24  1  0  0  0  0
 23 73  1  0  0  0  0
 24 25  1  0  0  0  0
 24 42  1  0  0  0  0
 25 26  1  0  0  0  0
 25 74  1  0  0  0  0
 25 75  1  0  0  0  0
 26 27  1  0  0  0  0
 26 76  1  0  0  0  0
 26 77  1  0  0  0  0
 27 28  1  0  0  0  0
 27 78  1  0  0  0  0
 28 29  2  0  0  0  0
 28 37  1  0  0  0  0
 29 30  1  0  0  0  0
 29 34  1  0  0  0  0
 30 31  1  0  0  0  0
 30 79  1  0  0  0  0
 30 80  1  0  0  0  0
 31 32  1  0  0  0  0
 31 81  1  0  0  0  0
 31 82  1  0  0  0  0
 32 33  1  0  0  0  0
 32 83  1  0  0  0  0
 32 84  1  0  0  0  0
 33 34  1  0  0  0  0
 33 85  1  0  0  0  0
 33 86  1  0  0  0  0
 34 35  2  0  0  0  0
 35 36  1  0  0  0  0
 36 37  2  0  0  0  0
 36 41  1  0  0  0  0
 37 38  1  0  0  0  0
 38 39  2  0  0  0  0
 38 87  1  0  0  0  0
 39 40  1  0  0  0  0
 39 88  1  0  0  0  0
 40 41  2  0  0  0  0
 40 89  1  0  0  0  0
 41 90  1  0  0  0  0
 42 43  2  0  0  0  0
 44 45  2  0  0  0  0
 44 50  1  0  0  0  0
 45 46  1  0  0  0  0
 46 47  2  0  0  0  0
 46 91  1  0  0  0  0
 47 48  1  0  0  0  0
 47 92  1  0  0  0  0
 48 49  1  0  0  0  0
 48 50  2  0  0  0  0
 49 93  1  0  0  0  0
 49 94  1  0  0  0  0
 50 95  1  0  0  0  0
M  CHG  1  15   1
M  END
>  <DRUGBANK_ID>
DB02226

>  <SECONDARY_ACCESSION_NUMBERS>
EXPT03146

>  <COMMON_NAME>
3,8-Diamino-6-Phenyl-5-[6-[1-[2-[(1,2,3,4-Tetrahydro-9-Acridinyl)Amino]Ethyl]-1h-1,2,3-Triazol-4-Yl]Hexyl]-Phenanthridinium

$$$$
