
 OpenBabel10282417183D

 49 52  0  0  0  0  0  0  0  0999 V2000
    0.2924   -1.1529    0.0606 C   0  0  1  0  0  0  0  0  0  0  0  0
    1.1335   -0.0131   -0.1918 O   0  0  0  0  0  0  0  0  0  0  0  0
    0.3175    1.1651   -0.1573 C   0  0  0  0  0  0  0  0  0  0  0  0
   -1.0941    0.7501    0.2075 C   0  0  0  0  0  0  0  0  0  0  0  0
   -1.1435   -0.7026   -0.1871 C   0  0  0  0  0  0  0  0  0  0  0  0
    0.8495   -5.8288   -1.4892 C   0  0  0  0  0  0  0  0  0  0  0  0
    1.4550   -5.8728   -2.9157 C   0  0  2  0  0  0  0  0  0  0  0  0
    1.3280   -4.5652   -1.3048 N   0  0  0  0  0  0  0  0  0  0  0  0
    1.6287   -4.3428   -2.7228 C   0  0  2  0  0  0  0  0  0  0  0  0
    0.3732   -3.2543   -3.4260 S   0  0  0  0  0  0  0  0  0  0  0  0
    0.8313   -1.9036   -2.2919 C   0  0  0  0  0  0  0  0  0  0  0  0
    0.7257   -2.3138   -0.8263 C   0  0  0  0  0  0  0  0  0  0  0  0
    0.9503   -3.5903   -0.3988 C   0  0  0  0  0  0  0  0  0  0  0  0
    0.6618   -6.4178   -4.0699 N   0  0  0  0  0  0  0  0  0  0  0  0
   -0.8994   -7.4853   -6.3666 C   0  0  0  0  0  0  0  0  0  0  0  0
    0.4446   -7.9898   -6.0634 C   0  0  0  0  0  0  0  0  0  0  0  0
    1.2491   -7.4048   -4.8693 C   0  0  0  0  0  0  0  0  0  0  0  0
   -1.2167   -6.1254   -6.2874 N   0  0  0  0  0  0  0  0  0  0  0  0
   -2.4658   -5.9247   -6.6407 C   0  0  0  0  0  0  0  0  0  0  0  0
   -3.3653   -7.3439   -6.9926 S   0  0  0  0  0  0  0  0  0  0  0  0
   -1.9704   -8.2925   -6.7082 C   0  0  0  0  0  0  0  0  0  0  0  0
   -3.0403   -4.7186   -6.7022 N   0  0  0  0  0  0  0  0  0  0  0  0
    0.8789   -8.9601   -6.8376 N   0  0  0  0  0  0  0  0  0  0  0  0
    2.1720   -9.3835   -6.4818 O   0  0  0  0  0  0  0  0  0  0  0  0
    2.6561  -10.3964   -7.3542 C   0  0  0  0  0  0  0  0  0  0  0  0
    0.2637   -6.5499   -0.7212 O   0  0  0  0  0  0  0  0  0  0  0  0
    2.3730   -7.8152   -4.5983 O   0  0  0  0  0  0  0  0  0  0  0  0
    0.8117   -3.9581    1.0799 C   0  0  0  0  0  0  0  0  0  0  0  0
    1.1723   -5.2110    1.4226 O   0  0  0  0  0  0  0  0  0  0  0  0
    0.4766   -3.1845    1.9634 O   0  0  0  0  0  0  0  0  0  0  0  0
    2.6595   -4.0162   -2.9041 H   0  0  0  0  0  0  0  0  0  0  0  0
    0.4065   -1.3168    1.1263 H   0  0  0  0  0  0  0  0  0  0  0  0
    0.3621    1.6017   -1.1581 H   0  0  0  0  0  0  0  0  0  0  0  0
    0.7264    1.8890    0.5556 H   0  0  0  0  0  0  0  0  0  0  0  0
   -1.8492    1.3594   -0.2970 H   0  0  0  0  0  0  0  0  0  0  0  0
   -1.2524    0.8442    1.2876 H   0  0  0  0  0  0  0  0  0  0  0  0
   -1.4420   -0.7836   -1.2369 H   0  0  0  0  0  0  0  0  0  0  0  0
   -1.8654   -1.2831    0.3953 H   0  0  0  0  0  0  0  0  0  0  0  0
    2.4289   -6.3787   -2.8556 H   0  0  0  0  0  0  0  0  0  0  0  0
    1.8423   -1.5418   -2.5126 H   0  0  0  0  0  0  0  0  0  0  0  0
    0.1501   -1.0855   -2.5373 H   0  0  0  0  0  0  0  0  0  0  0  0
   -0.2410   -6.0294   -4.3464 H   0  0  0  0  0  0  0  0  0  0  0  0
   -1.9995   -9.3705   -6.7844 H   0  0  0  0  0  0  0  0  0  0  0  0
   -4.0034   -4.6000   -6.9914 H   0  0  0  0  0  0  0  0  0  0  0  0
   -2.4971   -3.8778   -6.5545 H   0  0  0  0  0  0  0  0  0  0  0  0
    2.0201  -11.2851   -7.3157 H   0  0  0  0  0  0  0  0  0  0  0  0
    2.7429  -10.0263   -8.3799 H   0  0  0  0  0  0  0  0  0  0  0  0
    3.6579  -10.6811   -7.0118 H   0  0  0  0  0  0  0  0  0  0  0  0
    1.1578   -5.8726    0.7056 H   0  0  0  0  0  0  0  0  0  0  0  0
  1  2  1  0  0  0  0
  1 32  1  1  0  0  0
  1 12  1  0  0  0  0
  2  3  1  0  0  0  0
  3  4  1  0  0  0  0
  3 33  1  0  0  0  0
  3 34  1  0  0  0  0
  4  5  1  0  0  0  0
  4 35  1  0  0  0  0
  4 36  1  0  0  0  0
  5  1  1  0  0  0  0
  5 37  1  0  0  0  0
  5 38  1  0  0  0  0
  6  7  1  0  0  0  0
  6 26  2  0  0  0  0
  7  9  1  0  0  0  0
  7 14  1  0  0  0  0
  7 39  1  1  0  0  0
  8  6  1  0  0  0  0
  8  9  1  0  0  0  0
  8 13  1  0  0  0  0
  9 31  1  6  0  0  0
  9 10  1  0  0  0  0
 10 11  1  0  0  0  0
 11 12  1  0  0  0  0
 11 40  1  0  0  0  0
 11 41  1  0  0  0  0
 12 13  2  0  0  0  0
 13 28  1  0  0  0  0
 14 42  1  0  0  0  0
 15 18  1  0  0  0  0
 15 16  1  0  0  0  0
 16 17  1  0  0  0  0
 16 23  2  0  0  0  0
 17 14  1  0  0  0  0
 17 27  2  0  0  0  0
 18 19  2  0  0  0  0
 19 20  1  0  0  0  0
 19 22  1  0  0  0  0
 20 21  1  0  0  0  0
 21 15  2  0  0  0  0
 21 43  1  0  0  0  0
 22 44  1  0  0  0  0
 22 45  1  0  0  0  0
 23 24  1  0  0  0  0
 24 25  1  0  0  0  0
 25 46  1  0  0  0  0
 25 47  1  0  0  0  0
 25 48  1  0  0  0  0
 28 29  1  0  0  0  0
 28 30  2  0  0  0  0
 29 49  1  0  0  0  0
M  END
>  <DRUGBANK_ID>
DB11505

>  <COMMON_NAME>
Cefovecin

>  <UNII>
0D1OL46ZIE

>  <SYNONYMS>
Cefovecin

$$$$
