
 OpenBabel10282417233D

 67 71  0  0  1  0  0  0  0  0999 V2000
    1.0090    0.0815   -0.1197 C   0  0  0  0  0  0  0  0  0  0  0  0
    0.5210   -0.2223   -1.4285 O   0  0  0  0  0  0  0  0  0  0  0  0
    0.9266    0.6688   -2.3941 C   0  0  0  0  0  0  0  0  0  0  0  0
    2.2700    1.0924   -2.4880 C   0  0  0  0  0  0  0  0  0  0  0  0
    2.6861    2.0739   -3.4027 C   0  0  0  0  0  0  0  0  0  0  0  0
    1.7748    2.6031   -4.2903 C   0  0  0  0  0  0  0  0  0  0  0  0
    2.0744    3.7742   -5.2588 C   0  0  0  0  0  0  0  0  0  0  0  0
    1.3843    3.6594   -6.5818 N   0  0  0  0  0  0  0  0  0  0  0  0
    0.1619    2.8949   -6.5698 C   0  0  1  0  0  0  0  0  0  0  0  0
   -0.3843    2.7823   -5.1826 C   0  0  0  0  0  0  0  0  0  0  0  0
    0.4630    2.0864   -4.2349 C   0  0  0  0  0  0  0  0  0  0  0  0
   -0.0191    1.1409   -3.3092 C   0  0  0  0  0  0  0  0  0  0  0  0
   -1.3284    0.7128   -3.1435 O   0  0  0  0  0  0  0  0  0  0  0  0
   -2.4902    1.3087   -3.7959 C   0  0  0  0  0  0  0  0  0  0  0  0
   -2.6864    2.8171   -3.5332 C   0  0  0  0  0  0  0  0  0  0  0  0
   -1.8926    3.4540   -2.5576 C   0  0  0  0  0  0  0  0  0  0  0  0
   -1.7323    4.8398   -2.5261 C   0  0  0  0  0  0  0  0  0  0  0  0
   -2.4421    5.6380   -3.4110 C   0  0  0  0  0  0  0  0  0  0  0  0
   -3.2814    5.0415   -4.3533 C   0  0  0  0  0  0  0  0  0  0  0  0
   -3.4259    3.6410   -4.4081 C   0  0  0  0  0  0  0  0  0  0  0  0
   -1.1276    3.5154   -7.0058 C   0  0  0  0  0  0  0  0  0  0  0  0
   -2.0115    2.5792   -7.4709 O   0  0  0  0  0  0  0  0  0  0  0  0
   -1.4474    4.6806   -6.7270 O   0  0  0  0  0  0  0  0  0  0  0  0
    1.9251    4.1850   -7.7576 C   0  0  0  0  0  0  0  0  0  0  0  0
    3.0049    4.7903   -7.7029 O   0  0  0  0  0  0  0  0  0  0  0  0
    1.2206    3.9539   -9.2087 C   0  0  0  0  0  0  0  0  0  0  0  0
    1.1623    2.4077   -9.5173 C   0  0  0  0  0  0  0  0  0  0  0  0
    2.2425    1.5897   -9.1668 C   0  0  0  0  0  0  0  0  0  0  0  0
    2.1278    0.1910   -9.2086 C   0  0  0  0  0  0  0  0  0  0  0  0
    0.9044   -0.4170   -9.4825 C   0  0  0  0  0  0  0  0  0  0  0  0
   -0.1617    0.3673   -9.8533 C   0  0  0  0  0  0  0  0  0  0  0  0
    0.0707    1.7197  -10.0797 C   0  0  0  0  0  0  0  0  0  0  0  0
   -0.0828    4.8129   -9.4004 C   0  0  0  0  0  0  0  0  0  0  0  0
   -1.3368    4.2000   -9.5432 C   0  0  0  0  0  0  0  0  0  0  0  0
   -2.5856    4.7705   -9.3063 C   0  0  0  0  0  0  0  0  0  0  0  0
   -2.6342    6.0958   -8.9907 C   0  0  0  0  0  0  0  0  0  0  0  0
   -1.4324    6.8140   -8.9879 C   0  0  0  0  0  0  0  0  0  0  0  0
   -0.1660    6.1963   -9.2205 C   0  0  0  0  0  0  0  0  0  0  0  0
    0.6249   -0.6770    0.5692 H   0  0  0  0  0  0  0  0  0  0  0  0
    0.6498    1.0602    0.2186 H   0  0  0  0  0  0  0  0  0  0  0  0
    2.1005    0.0356   -0.0587 H   0  0  0  0  0  0  0  0  0  0  0  0
    3.0244    0.6554   -1.8435 H   0  0  0  0  0  0  0  0  0  0  0  0
    3.7169    2.4097   -3.4109 H   0  0  0  0  0  0  0  0  0  0  0  0
    3.1515    3.8902   -5.3923 H   0  0  0  0  0  0  0  0  0  0  0  0
    1.6943    4.6998   -4.7964 H   0  0  0  0  0  0  0  0  0  0  0  0
    0.3475    1.9012   -6.9884 H   0  0  0  0  0  0  0  0  0  0  0  0
   -0.5852    3.7813   -4.7738 H   0  0  0  0  0  0  0  0  0  0  0  0
   -1.2835    2.2362   -5.3282 H   0  0  0  0  0  0  0  0  0  0  0  0
   -2.4444    1.0297   -4.8629 H   0  0  0  0  0  0  0  0  0  0  0  0
   -3.3960    0.7823   -3.4807 H   0  0  0  0  0  0  0  0  0  0  0  0
   -1.2446    2.8666   -1.9136 H   0  0  0  0  0  0  0  0  0  0  0  0
   -0.9875    5.2742   -1.8648 H   0  0  0  0  0  0  0  0  0  0  0  0
   -2.3072    6.7162   -3.3939 H   0  0  0  0  0  0  0  0  0  0  0  0
   -3.7400    5.6715   -5.1153 H   0  0  0  0  0  0  0  0  0  0  0  0
   -4.0158    3.2243   -5.2238 H   0  0  0  0  0  0  0  0  0  0  0  0
   -1.5523    1.7805   -7.8103 H   0  0  0  0  0  0  0  0  0  0  0  0
    1.9449    4.3559   -9.9331 H   0  0  0  0  0  0  0  0  0  0  0  0
    3.1900    2.0274   -8.8569 H   0  0  0  0  0  0  0  0  0  0  0  0
    2.9925   -0.4289   -8.9946 H   0  0  0  0  0  0  0  0  0  0  0  0
    0.7940   -1.4968   -9.4796 H   0  0  0  0  0  0  0  0  0  0  0  0
   -1.1473   -0.0599  -10.0313 H   0  0  0  0  0  0  0  0  0  0  0  0
   -0.6769    2.1979  -10.7051 H   0  0  0  0  0  0  0  0  0  0  0  0
   -1.4265    3.1427   -9.4762 H   0  0  0  0  0  0  0  0  0  0  0  0
   -3.4181    4.0958   -9.0914 H   0  0  0  0  0  0  0  0  0  0  0  0
   -3.5749    6.5058   -8.6383 H   0  0  0  0  0  0  0  0  0  0  0  0
   -1.4817    7.8548   -8.6839 H   0  0  0  0  0  0  0  0  0  0  0  0
    0.7265    6.8137   -9.1535 H   0  0  0  0  0  0  0  0  0  0  0  0
  1  2  1  0  0  0  0
  1 39  1  0  0  0  0
  1 40  1  0  0  0  0
  1 41  1  0  0  0  0
  2  3  1  0  0  0  0
  3  4  2  0  0  0  0
  3 12  1  0  0  0  0
  4  5  1  0  0  0  0
  4 42  1  0  0  0  0
  5  6  2  0  0  0  0
  5 43  1  0  0  0  0
  6  7  1  0  0  0  0
  6 11  1  0  0  0  0
  7  8  1  0  0  0  0
  7 44  1  0  0  0  0
  7 45  1  0  0  0  0
  8 24  1  0  0  0  0
  9  8  1  0  0  0  0
  9 10  1  0  0  0  0
  9 21  1  0  0  0  0
  9 46  1  6  0  0  0
 10 11  1  0  0  0  0
 10 47  1  0  0  0  0
 10 48  1  0  0  0  0
 11 12  2  0  0  0  0
 12 13  1  0  0  0  0
 13 14  1  0  0  0  0
 14 15  1  0  0  0  0
 14 49  1  0  0  0  0
 14 50  1  0  0  0  0
 15 16  2  0  0  0  0
 15 20  1  0  0  0  0
 16 17  1  0  0  0  0
 16 51  1  0  0  0  0
 17 18  2  0  0  0  0
 17 52  1  0  0  0  0
 18 19  1  0  0  0  0
 18 53  1  0  0  0  0
 19 20  2  0  0  0  0
 19 54  1  0  0  0  0
 20 55  1  0  0  0  0
 21 22  1  0  0  0  0
 21 23  2  0  0  0  0
 22 56  1  0  0  0  0
 24 25  2  0  0  0  0
 24 26  1  0  0  0  0
 26 27  1  0  0  0  0
 26 33  1  0  0  0  0
 26 57  1  0  0  0  0
 27 28  2  0  0  0  0
 27 32  1  0  0  0  0
 28 29  1  0  0  0  0
 28 58  1  0  0  0  0
 29 30  2  0  0  0  0
 29 59  1  0  0  0  0
 30 31  1  0  0  0  0
 30 60  1  0  0  0  0
 31 32  2  0  0  0  0
 31 61  1  0  0  0  0
 32 62  1  0  0  0  0
 33 34  2  0  0  0  0
 33 38  1  0  0  0  0
 34 35  1  0  0  0  0
 34 63  1  0  0  0  0
 35 36  2  0  0  0  0
 35 64  1  0  0  0  0
 36 37  1  0  0  0  0
 36 65  1  0  0  0  0
 37 38  2  0  0  0  0
 37 66  1  0  0  0  0
 38 67  1  0  0  0  0
M  END
>  <DRUGBANK_ID>
DB16266

>  <COMMON_NAME>
Olodanrigan

>  <CAS_NUMBER>
1316755-16-4

>  <UNII>
P0FN522VTO

>  <SYNONYMS>
Olodanrigan

$$$$
