FTC
 OpenBabel10282417163D

 39 40  0  0  0  0  0  0  0  0999 V2000
   -2.1810   -0.2484    0.1254 C   0  0  0  0  0  0  0  0  0  0  0  0
   -1.3224    0.7480    0.2399 N   0  0  0  0  0  0  0  0  0  0  0  0
   -0.0109    0.7647    0.0690 C   0  0  0  0  0  0  0  0  0  0  0  0
    0.6409   -0.4190   -0.0141 C   0  0  0  0  0  0  0  0  0  0  0  0
   -0.1685   -1.5529   -0.0208 C   0  0  0  0  0  0  0  0  0  0  0  0
   -1.5968   -1.4921    0.0094 C   0  0  0  0  0  0  0  0  0  0  0  0
    2.3432   -0.3991   -0.0295 Cl  0  0  0  0  0  0  0  0  0  0  0  0
   -3.5884    0.0098    0.1357 N   0  0  0  0  0  0  0  0  0  0  0  0
   -4.3525    1.1517    0.2485 C   0  0  0  0  0  0  0  0  0  0  0  0
   -6.0298    0.9935    0.2069 S   0  0  0  0  0  0  0  0  0  0  0  0
   -3.9002    2.4237    0.3998 N   0  0  0  0  0  0  0  0  0  0  0  0
   -2.5821    2.9749    0.1300 C   0  0  0  0  0  0  0  0  0  0  0  0
   -2.0145    3.4776   -1.2066 C   0  0  0  0  0  0  0  0  0  0  0  0
   -2.4078    4.8846   -1.3317 C   0  0  0  0  0  0  0  0  0  0  0  0
   -1.4922    5.8624   -1.3872 N   0  0  0  0  0  0  0  0  0  0  0  0
   -2.0054    7.1034   -1.2995 C   0  0  0  0  0  0  0  0  0  0  0  0
   -3.3704    7.3886   -1.1496 C   0  0  0  0  0  0  0  0  0  0  0  0
   -4.2849    6.3435   -1.1063 C   0  0  0  0  0  0  0  0  0  0  0  0
   -3.7604    5.0947   -1.2072 C   0  0  0  0  0  0  0  0  0  0  0  0
   -5.6230    6.5862   -0.9794 O   0  0  0  0  0  0  0  0  0  0  0  0
   -6.5093    5.4418   -0.8816 C   0  0  0  0  0  0  0  0  0  0  0  0
   -6.6472    4.6197   -2.1772 C   0  0  0  0  0  0  0  0  0  0  0  0
   -4.5331    4.0180   -1.0868 F   0  0  0  0  0  0  0  0  0  0  0  0
    0.4339    1.7486    0.0449 H   0  0  0  0  0  0  0  0  0  0  0  0
    0.3244   -2.5206   -0.0452 H   0  0  0  0  0  0  0  0  0  0  0  0
   -2.1889   -2.3921   -0.0206 H   0  0  0  0  0  0  0  0  0  0  0  0
   -4.1801   -0.8061    0.0601 H   0  0  0  0  0  0  0  0  0  0  0  0
   -4.6432    3.1140    0.3942 H   0  0  0  0  0  0  0  0  0  0  0  0
   -2.0520    3.2760    1.0386 H   0  0  0  0  0  0  0  0  0  0  0  0
   -2.2900    2.0686   -0.2033 H   0  0  0  0  0  0  0  0  0  0  0  0
   -0.9204    3.3645   -1.2253 H   0  0  0  0  0  0  0  0  0  0  0  0
   -2.3929    2.8784   -2.0518 H   0  0  0  0  0  0  0  0  0  0  0  0
   -1.2608    7.8915   -1.3479 H   0  0  0  0  0  0  0  0  0  0  0  0
   -3.7017    8.4128   -1.0714 H   0  0  0  0  0  0  0  0  0  0  0  0
   -6.2604    4.8257   -0.0021 H   0  0  0  0  0  0  0  0  0  0  0  0
   -7.5006    5.8484   -0.6595 H   0  0  0  0  0  0  0  0  0  0  0  0
   -5.7292    4.1768   -2.5747 H   0  0  0  0  0  0  0  0  0  0  0  0
   -7.3327    3.7810   -2.0249 H   0  0  0  0  0  0  0  0  0  0  0  0
   -6.9839    5.2569   -2.9925 H   0  0  0  0  0  0  0  0  0  0  0  0
  1  2  2  0  0  0  0
  1  6  1  0  0  0  0
  1  8  1  0  0  0  0
  2  3  1  0  0  0  0
  3  4  2  0  0  0  0
  3 24  1  0  0  0  0
  4  5  1  0  0  0  0
  4  7  1  0  0  0  0
  5  6  2  0  0  0  0
  5 25  1  0  0  0  0
  6 26  1  0  0  0  0
  8  9  1  0  0  0  0
  8 27  1  0  0  0  0
  9 10  2  0  0  0  0
  9 11  1  0  0  0  0
 11 12  1  0  0  0  0
 11 28  1  0  0  0  0
 12 13  1  0  0  0  0
 12 29  1  0  0  0  0
 12 30  1  0  0  0  0
 13 14  1  0  0  0  0
 13 31  1  0  0  0  0
 13 32  1  0  0  0  0
 14 15  2  0  0  0  0
 14 19  1  0  0  0  0
 15 16  1  0  0  0  0
 16 17  2  0  0  0  0
 16 33  1  0  0  0  0
 17 18  1  0  0  0  0
 17 34  1  0  0  0  0
 18 19  2  0  0  0  0
 18 20  1  0  0  0  0
 19 23  1  0  0  0  0
 20 21  1  0  0  0  0
 21 22  1  0  0  0  0
 21 35  1  0  0  0  0
 21 36  1  0  0  0  0
 22 37  1  0  0  0  0
 22 38  1  0  0  0  0
 22 39  1  0  0  0  0
M  END
>  <DRUGBANK_ID>
DB07797

>  <COMMON_NAME>
N-[[3-FLUORO-4-ETHOXY-PYRID-2-YL]ETHYL]-N'-[5-CHLORO-PYRIDYL]-THIOUREA

$$$$
