
 OpenBabel10282417173D

 66 66  0  0  0  0  0  0  0  0999 V2000
    1.4453   -8.0448   -2.3353 C   0  0  2  0  0  0  0  0  0  0  0  0
    0.3641   -7.2456   -1.5707 C   0  0  2  0  0  0  0  0  0  0  0  0
    0.6848   -9.3084   -2.6063 C   0  0  0  0  0  0  0  0  0  0  0  0
    2.7883   -8.2532   -1.6213 C   0  0  0  0  0  0  0  0  0  0  0  0
   -0.9970   -7.8927   -1.8789 C   0  0  1  0  0  0  0  0  0  0  0  0
    0.2002   -5.8395   -2.0455 C   0  0  0  0  0  0  0  0  0  0  0  0
   -0.7558   -9.0174   -2.8575 C   0  0  0  0  0  0  0  0  0  0  0  0
    1.1848  -10.4289   -2.7122 O   0  0  0  0  0  0  0  0  0  0  0  0
   -1.6114   -8.3270   -0.6735 O   0  0  0  0  0  0  0  0  0  0  0  0
    1.2080   -5.0901   -2.4639 C   0  0  0  0  0  0  0  0  0  0  0  0
    1.3770   -3.6643   -2.7733 C   0  0  2  0  0  0  0  0  0  0  0  0
    0.7418   -2.8183   -1.6502 C   0  0  0  0  0  0  0  0  0  0  0  0
    1.3577   -1.3972   -1.7422 C   0  0  0  0  0  0  0  0  0  0  0  0
    1.1310   -0.6471   -3.0643 C   0  0  0  0  0  0  0  0  0  0  0  0
   -0.3296   -0.3721   -3.4127 C   0  0  0  0  0  0  0  0  0  0  0  0
   -1.0708    0.2848   -2.2566 C   0  0  0  0  0  0  0  0  0  0  0  0
    3.9755   -7.7788   -2.4956 C   0  0  0  0  0  0  0  0  0  0  0  0
    4.1168   -6.2612   -2.6553 C   0  0  0  0  0  0  0  0  0  0  0  0
    4.1167   -5.5270   -1.2895 C   0  0  0  0  0  0  0  0  0  0  0  0
    5.3827   -5.8331   -0.5871 C   0  0  0  0  0  0  0  0  0  0  0  0
    6.2702   -4.8814   -0.2858 C   0  0  0  0  0  0  0  0  0  0  0  0
    7.5746   -5.2783    0.2555 C   0  0  0  0  0  0  0  0  0  0  0  0
    8.4486   -4.2891    0.5305 O   0  0  0  0  0  0  0  0  0  0  0  0
    0.8803   -3.4428   -4.0792 O   0  0  0  0  0  0  0  0  0  0  0  0
   -0.7984   -2.8470   -1.7415 C   0  0  0  0  0  0  0  0  0  0  0  0
    1.1106   -3.3823   -0.2447 C   0  0  0  0  0  0  0  0  0  0  0  0
    7.8710   -6.4668    0.4305 O   0  0  0  0  0  0  0  0  0  0  0  0
    8.1333   -2.9046    0.3267 C   0  0  0  0  0  0  0  0  0  0  0  0
    1.6153   -7.6038   -3.3262 H   0  0  0  0  0  0  0  0  0  0  0  0
    0.5642   -7.2280   -0.4892 H   0  0  0  0  0  0  0  0  0  0  0  0
    2.7995   -7.7781   -0.6348 H   0  0  0  0  0  0  0  0  0  0  0  0
    2.9521   -9.3160   -1.4111 H   0  0  0  0  0  0  0  0  0  0  0  0
   -1.7143   -7.1943   -2.3294 H   0  0  0  0  0  0  0  0  0  0  0  0
   -0.7848   -5.4300   -1.9436 H   0  0  0  0  0  0  0  0  0  0  0  0
   -1.3956   -9.8778   -2.6832 H   0  0  0  0  0  0  0  0  0  0  0  0
   -0.8340   -8.6511   -3.8884 H   0  0  0  0  0  0  0  0  0  0  0  0
   -1.0340   -8.9781   -0.2408 H   0  0  0  0  0  0  0  0  0  0  0  0
    2.1182   -5.5429   -2.2247 H   0  0  0  0  0  0  0  0  0  0  0  0
    2.4547   -3.4390   -2.8301 H   0  0  0  0  0  0  0  0  0  0  0  0
    1.0170   -0.7968   -0.8921 H   0  0  0  0  0  0  0  0  0  0  0  0
    2.4471   -1.4707   -1.5900 H   0  0  0  0  0  0  0  0  0  0  0  0
    1.6558    0.3120   -3.0096 H   0  0  0  0  0  0  0  0  0  0  0  0
    1.6108   -1.1849   -3.8898 H   0  0  0  0  0  0  0  0  0  0  0  0
   -0.3923    0.2596   -4.3017 H   0  0  0  0  0  0  0  0  0  0  0  0
   -0.8295   -1.2769   -3.7527 H   0  0  0  0  0  0  0  0  0  0  0  0
   -0.7105    1.3064   -2.1324 H   0  0  0  0  0  0  0  0  0  0  0  0
   -2.1482    0.2848   -2.4324 H   0  0  0  0  0  0  0  0  0  0  0  0
   -0.9203   -0.2032   -1.2910 H   0  0  0  0  0  0  0  0  0  0  0  0
    4.9097   -8.1654   -2.0815 H   0  0  0  0  0  0  0  0  0  0  0  0
    3.8719   -8.2175   -3.4943 H   0  0  0  0  0  0  0  0  0  0  0  0
    5.0126   -5.9771   -3.2147 H   0  0  0  0  0  0  0  0  0  0  0  0
    3.3477   -5.9476   -3.3704 H   0  0  0  0  0  0  0  0  0  0  0  0
    3.9909   -4.4462   -1.4304 H   0  0  0  0  0  0  0  0  0  0  0  0
    3.3007   -5.8204   -0.6152 H   0  0  0  0  0  0  0  0  0  0  0  0
    5.5953   -6.8800   -0.3815 H   0  0  0  0  0  0  0  0  0  0  0  0
    6.0327   -3.8501   -0.4967 H   0  0  0  0  0  0  0  0  0  0  0  0
   -0.0070   -3.8302   -4.1245 H   0  0  0  0  0  0  0  0  0  0  0  0
   -1.2562   -3.7861   -1.4603 H   0  0  0  0  0  0  0  0  0  0  0  0
   -1.2567   -2.1460   -1.0518 H   0  0  0  0  0  0  0  0  0  0  0  0
   -1.1716   -2.7140   -2.7513 H   0  0  0  0  0  0  0  0  0  0  0  0
    0.6972   -4.3817   -0.0708 H   0  0  0  0  0  0  0  0  0  0  0  0
    2.1934   -3.4577   -0.1047 H   0  0  0  0  0  0  0  0  0  0  0  0
    0.6897   -2.7610    0.5485 H   0  0  0  0  0  0  0  0  0  0  0  0
    7.9478   -2.7075   -0.7340 H   0  0  0  0  0  0  0  0  0  0  0  0
    7.2777   -2.6142    0.9440 H   0  0  0  0  0  0  0  0  0  0  0  0
    8.9992   -2.3182    0.6389 H   0  0  0  0  0  0  0  0  0  0  0  0
  1  2  1  0  0  0  0
  1  3  1  0  0  0  0
  1 29  1  6  0  0  0
  1  4  1  0  0  0  0
  2  5  1  0  0  0  0
  2 30  1  1  0  0  0
  2  6  1  0  0  0  0
  3  7  1  0  0  0  0
  3  8  2  0  0  0  0
  4 17  1  0  0  0  0
  4 31  1  0  0  0  0
  4 32  1  0  0  0  0
  5  9  1  0  0  0  0
  5  7  1  0  0  0  0
  5 33  1  6  0  0  0
  6 10  2  0  0  0  0
  6 34  1  0  0  0  0
  7 35  1  0  0  0  0
  7 36  1  0  0  0  0
  9 37  1  0  0  0  0
 10 38  1  0  0  0  0
 11 24  1  0  0  0  0
 11 39  1  6  0  0  0
 11 12  1  0  0  0  0
 11 10  1  0  0  0  0
 12 13  1  0  0  0  0
 12 25  1  0  0  0  0
 12 26  1  0  0  0  0
 13 14  1  0  0  0  0
 13 40  1  0  0  0  0
 13 41  1  0  0  0  0
 14 15  1  0  0  0  0
 14 42  1  0  0  0  0
 14 43  1  0  0  0  0
 15 16  1  0  0  0  0
 15 44  1  0  0  0  0
 15 45  1  0  0  0  0
 16 46  1  0  0  0  0
 16 47  1  0  0  0  0
 16 48  1  0  0  0  0
 17 18  1  0  0  0  0
 17 49  1  0  0  0  0
 17 50  1  0  0  0  0
 18 19  1  0  0  0  0
 18 51  1  0  0  0  0
 18 52  1  0  0  0  0
 19 20  1  0  0  0  0
 19 53  1  0  0  0  0
 19 54  1  0  0  0  0
 20 21  2  0  0  0  0
 20 55  1  0  0  0  0
 21 22  1  0  0  0  0
 21 56  1  0  0  0  0
 22 23  1  0  0  0  0
 22 27  2  0  0  0  0
 23 28  1  0  0  0  0
 24 57  1  0  0  0  0
 25 58  1  0  0  0  0
 25 59  1  0  0  0  0
 25 60  1  0  0  0  0
 26 61  1  0  0  0  0
 26 62  1  0  0  0  0
 26 63  1  0  0  0  0
 28 64  1  0  0  0  0
 28 65  1  0  0  0  0
 28 66  1  0  0  0  0
M  END
>  <DRUGBANK_ID>
DB08964

>  <COMMON_NAME>
Gemeprost

>  <CAS_NUMBER>
64318-79-2

>  <UNII>
45KZB1FOLS

>  <SYNONYMS>
16,16-Dimethyl-trans-delta-2-PGE1 methyl ester; 16,16-Dimethyl-trans-delta(sup 2)-prostaglandin E1 methyl ester; Gemeprost; SC-37681

$$$$
