IX1
 OpenBabel10282417173D

 50 52  0  0  0  0  0  0  0  0999 V2000
    1.3822   -0.2454   -0.0479 C   0  0  0  0  0  0  0  0  0  0  0  0
    0.4993   -1.3378   -0.0779 C   0  0  0  0  0  0  0  0  0  0  0  0
   -0.8821   -1.0939   -0.1086 C   0  0  0  0  0  0  0  0  0  0  0  0
   -1.3747    0.2252   -0.1335 C   0  0  0  0  0  0  0  0  0  0  0  0
   -0.4650    1.2841   -0.0004 C   0  0  0  0  0  0  0  0  0  0  0  0
    0.9040    1.0582   -0.0193 C   0  0  0  0  0  0  0  0  0  0  0  0
    1.0510   -2.6817    0.0265 C   0  0  0  0  0  0  0  0  0  0  0  0
    0.8018   -3.5783   -0.9675 O   0  0  0  0  0  0  0  0  0  0  0  0
    1.4710   -4.7792   -0.6930 N   0  0  0  0  0  0  0  0  0  0  0  0
    2.1115   -4.5796    0.4773 C   0  0  0  0  0  0  0  0  0  0  0  0
    1.8702   -3.2621    0.9644 C   0  0  0  0  0  0  0  0  0  0  0  0
    2.9363   -5.6049    1.1300 C   0  0  0  0  0  0  0  0  0  0  0  0
    3.0128   -6.8118    0.5117 O   0  0  0  0  0  0  0  0  0  0  0  0
    3.5510   -5.4013    2.1770 O   0  0  0  0  0  0  0  0  0  0  0  0
   -2.8163    0.4765   -0.3242 C   0  0  0  0  0  0  0  0  0  0  0  0
   -5.2501    2.1648    1.9718 C   0  0  0  0  0  0  0  0  0  0  0  0
   -4.0333    1.6363    2.4393 C   0  0  0  0  0  0  0  0  0  0  0  0
   -3.8323    1.2160    3.7431 C   0  0  0  0  0  0  0  0  0  0  0  0
   -4.8332    1.4225    4.6623 C   0  0  0  0  0  0  0  0  0  0  0  0
   -6.0339    2.0161    4.2504 C   0  0  0  0  0  0  0  0  0  0  0  0
   -6.3081    2.3164    2.8898 C   0  0  0  0  0  0  0  0  0  0  0  0
   -7.7181    2.6979    2.5079 C   0  0  0  0  0  0  0  0  0  0  0  0
   -8.6483    2.7684    3.2996 O   0  0  0  0  0  0  0  0  0  0  0  0
   -7.8868    2.8664    1.1665 O   0  0  0  0  0  0  0  0  0  0  0  0
   -9.2328    3.1834    0.7810 C   0  0  0  0  0  0  0  0  0  0  0  0
   -6.9165    2.3528    5.2430 O   0  0  0  0  0  0  0  0  0  0  0  0
   -5.3191    2.7140    0.7124 O   0  0  0  0  0  0  0  0  0  0  0  0
   -4.8568    1.9425   -0.4125 C   0  0  0  0  0  0  0  0  0  0  0  0
   -3.3758    1.7007   -0.4145 C   0  0  0  0  0  0  0  0  0  0  0  0
    2.3764   -2.6404    2.2062 C   0  0  0  0  0  0  0  0  0  0  0  0
    1.8854   -3.3031    3.3594 O   0  0  0  0  0  0  0  0  0  0  0  0
    2.4585   -0.3995   -0.0145 H   0  0  0  0  0  0  0  0  0  0  0  0
   -1.5738   -1.9349   -0.0943 H   0  0  0  0  0  0  0  0  0  0  0  0
   -0.7972    2.3125    0.1048 H   0  0  0  0  0  0  0  0  0  0  0  0
    1.5878    1.9029   -0.0246 H   0  0  0  0  0  0  0  0  0  0  0  0
    2.5016   -6.8309   -0.3211 H   0  0  0  0  0  0  0  0  0  0  0  0
   -3.4617   -0.4001   -0.3310 H   0  0  0  0  0  0  0  0  0  0  0  0
   -3.1521    1.5716    1.8277 H   0  0  0  0  0  0  0  0  0  0  0  0
   -2.8694    0.7983    4.0248 H   0  0  0  0  0  0  0  0  0  0  0  0
   -4.6567    1.1319    5.6927 H   0  0  0  0  0  0  0  0  0  0  0  0
   -9.9158    2.3629    1.0294 H   0  0  0  0  0  0  0  0  0  0  0  0
   -9.5650    4.1131    1.2560 H   0  0  0  0  0  0  0  0  0  0  0  0
   -9.2580    3.3284   -0.3032 H   0  0  0  0  0  0  0  0  0  0  0  0
   -6.4946    2.2481    6.1111 H   0  0  0  0  0  0  0  0  0  0  0  0
   -5.0735    2.5438   -1.3047 H   0  0  0  0  0  0  0  0  0  0  0  0
   -5.4344    1.0179   -0.4953 H   0  0  0  0  0  0  0  0  0  0  0  0
   -2.7852    2.6110   -0.3580 H   0  0  0  0  0  0  0  0  0  0  0  0
    3.4706   -2.6472    2.2137 H   0  0  0  0  0  0  0  0  0  0  0  0
    2.0633   -1.5959    2.2866 H   0  0  0  0  0  0  0  0  0  0  0  0
    0.9174   -3.3306    3.2924 H   0  0  0  0  0  0  0  0  0  0  0  0
  1  2  2  0  0  0  0
  1  6  1  0  0  0  0
  1 32  1  0  0  0  0
  2  3  1  0  0  0  0
  2  7  1  0  0  0  0
  3  4  2  0  0  0  0
  3 33  1  0  0  0  0
  4  5  1  0  0  0  0
  4 15  1  0  0  0  0
  5  6  2  0  0  0  0
  5 34  1  0  0  0  0
  6 35  1  0  0  0  0
  7  8  1  0  0  0  0
  7 11  2  0  0  0  0
  8  9  1  0  0  0  0
  9 10  2  0  0  0  0
 10 11  1  0  0  0  0
 10 12  1  0  0  0  0
 11 30  1  0  0  0  0
 12 13  1  0  0  0  0
 12 14  2  0  0  0  0
 13 36  1  0  0  0  0
 15 29  2  0  0  0  0
 15 37  1  0  0  0  0
 16 17  2  0  0  0  0
 16 21  1  0  0  0  0
 16 27  1  0  0  0  0
 17 18  1  0  0  0  0
 17 38  1  0  0  0  0
 18 19  2  0  0  0  0
 18 39  1  0  0  0  0
 19 20  1  0  0  0  0
 19 40  1  0  0  0  0
 20 21  2  0  0  0  0
 20 26  1  0  0  0  0
 21 22  1  0  0  0  0
 22 23  2  0  0  0  0
 22 24  1  0  0  0  0
 24 25  1  0  0  0  0
 25 41  1  0  0  0  0
 25 42  1  0  0  0  0
 25 43  1  0  0  0  0
 26 44  1  0  0  0  0
 27 28  1  0  0  0  0
 28 29  1  0  0  0  0
 28 45  1  0  0  0  0
 28 46  1  0  0  0  0
 29 47  1  0  0  0  0
 30 31  1  0  0  0  0
 30 48  1  0  0  0  0
 30 49  1  0  0  0  0
 31 50  1  0  0  0  0
M  END
>  <DRUGBANK_ID>
DB08001

>  <COMMON_NAME>
5-(3-{3-[3-HYDROXY-2-(METHOXYCARBONYL)PHENOXY]PROPENYL}PHENYL)-4-(HYDROXYMETHYL)ISOXAZOLE-3-CARBOXYLIC ACID

$$$$
