
 OpenBabel10282417193D

 67 70  0  0  0  0  0  0  0  0999 V2000
    0.5595   -0.0893   -0.1754 C   0  0  0  0  0  0  0  0  0  0  0  0
    0.3643    1.4234   -0.1721 C   0  0  0  0  0  0  0  0  0  0  0  0
    0.9331    2.0038   -1.4744 C   0  0  0  0  0  0  0  0  0  0  0  0
   -1.1576    1.5809   -0.1285 C   0  0  0  0  0  0  0  0  0  0  0  0
    0.9788    2.1421    0.9679 N   0  0  0  0  0  0  0  0  0  0  0  0
    1.9015    1.7850    1.9221 C   0  0  0  0  0  0  0  0  0  0  0  0
    2.2256    2.5888    2.7907 O   0  0  0  0  0  0  0  0  0  0  0  0
    2.5045    0.4368    1.9468 C   0  0  0  0  0  0  0  0  0  0  0  0
    3.2308   -0.0537    0.8931 C   0  0  0  0  0  0  0  0  0  0  0  0
    3.3797   -1.4377    0.8025 C   0  0  0  0  0  0  0  0  0  0  0  0
    3.2105   -2.2726    1.9169 C   0  0  0  0  0  0  0  0  0  0  0  0
    2.7819   -1.6857    3.1197 C   0  0  0  0  0  0  0  0  0  0  0  0
    2.2177   -0.4206    2.9949 C   0  0  0  0  0  0  0  0  0  0  0  0
    2.6553   -2.4650    4.3277 N   0  0  0  0  0  0  0  0  0  0  0  0
    2.5426   -1.8062    5.9090 S   0  0  0  0  0  0  0  0  0  0  0  0
    1.5932   -2.6500    6.5860 O   0  0  0  0  0  0  0  0  0  0  0  0
    3.8947   -1.7128    6.4490 O   0  0  0  0  0  0  0  0  0  0  0  0
    1.8209   -0.1770    5.8592 C   0  0  0  0  0  0  0  0  0  0  0  0
    0.4134   -0.0735    5.7069 C   0  0  0  0  0  0  0  0  0  0  0  0
   -0.2183    1.1830    5.4909 C   0  0  0  0  0  0  0  0  0  0  0  0
    0.5207    2.3748    5.5055 C   0  0  0  0  0  0  0  0  0  0  0  0
    1.9128    2.2239    5.7455 C   0  0  0  0  0  0  0  0  0  0  0  0
    2.5765    0.9891    5.8417 C   0  0  0  0  0  0  0  0  0  0  0  0
    4.2924    1.0538    5.6117 Cl  0  0  0  0  0  0  0  0  0  0  0  0
    0.0777    3.7869    5.1294 C   0  0  0  0  0  0  0  0  0  0  0  0
   -1.0675    4.5744    5.6965 C   0  0  0  0  0  0  0  0  0  0  0  0
   -1.0795    4.1692    4.2455 C   0  0  0  0  0  0  0  0  0  0  0  0
    3.3803   -3.6492    1.8656 O   0  0  0  0  0  0  0  0  0  0  0  0
    3.6894   -4.2518    0.6561 C   0  0  0  0  0  0  0  0  0  0  0  0
    4.8472   -3.8998   -0.0501 C   0  0  0  0  0  0  0  0  0  0  0  0
    5.1173   -4.4794   -1.2869 C   0  0  0  0  0  0  0  0  0  0  0  0
    4.3052   -5.4859   -1.8071 C   0  0  0  0  0  0  0  0  0  0  0  0
    3.2037   -5.9150   -1.0493 C   0  0  0  0  0  0  0  0  0  0  0  0
    2.8689   -5.2685    0.1493 C   0  0  0  0  0  0  0  0  0  0  0  0
    1.3812   -5.6945    0.9106 Cl  0  0  0  0  0  0  0  0  0  0  0  0
    4.5725   -6.0680   -3.1710 C   0  0  0  0  0  0  0  0  0  0  0  0
    4.8371   -7.5466   -3.1388 C   0  0  0  0  0  0  0  0  0  0  0  0
    4.1619   -8.4047   -3.6890 O   0  0  0  0  0  0  0  0  0  0  0  0
    5.9200   -7.8782   -2.4110 O   0  0  0  0  0  0  0  0  0  0  0  0
    6.1691   -4.0343   -1.9879 F   0  0  0  0  0  0  0  0  0  0  0  0
   -0.0751   -0.6223   -0.8839 H   0  0  0  0  0  0  0  0  0  0  0  0
    0.3689   -0.5127    0.8165 H   0  0  0  0  0  0  0  0  0  0  0  0
    1.5470   -0.3194   -0.5497 H   0  0  0  0  0  0  0  0  0  0  0  0
    0.6047    1.4148   -2.3369 H   0  0  0  0  0  0  0  0  0  0  0  0
    0.6167    3.0411   -1.6294 H   0  0  0  0  0  0  0  0  0  0  0  0
    2.0303    1.9998   -1.4673 H   0  0  0  0  0  0  0  0  0  0  0  0
   -1.5492    1.2051    0.8249 H   0  0  0  0  0  0  0  0  0  0  0  0
   -1.4837    2.6143   -0.2556 H   0  0  0  0  0  0  0  0  0  0  0  0
   -1.6124    0.9809   -0.9273 H   0  0  0  0  0  0  0  0  0  0  0  0
    0.7446    3.1282    1.0557 H   0  0  0  0  0  0  0  0  0  0  0  0
    3.4160    0.5794    0.0336 H   0  0  0  0  0  0  0  0  0  0  0  0
    3.5467   -1.8305   -0.1941 H   0  0  0  0  0  0  0  0  0  0  0  0
    1.4691   -0.0574    3.6599 H   0  0  0  0  0  0  0  0  0  0  0  0
    3.3939   -3.1828    4.3583 H   0  0  0  0  0  0  0  0  0  0  0  0
   -0.1695   -0.9888    5.5841 H   0  0  0  0  0  0  0  0  0  0  0  0
   -1.2792    1.1953    5.2443 H   0  0  0  0  0  0  0  0  0  0  0  0
    2.5276    3.1250    5.7191 H   0  0  0  0  0  0  0  0  0  0  0  0
    0.9504    4.4195    4.9468 H   0  0  0  0  0  0  0  0  0  0  0  0
   -1.8384    4.1507    6.3239 H   0  0  0  0  0  0  0  0  0  0  0  0
   -0.8388    5.6111    5.9397 H   0  0  0  0  0  0  0  0  0  0  0  0
   -0.8829    4.9391    3.5013 H   0  0  0  0  0  0  0  0  0  0  0  0
   -1.8446    3.4700    3.9382 H   0  0  0  0  0  0  0  0  0  0  0  0
    5.5065   -3.1172    0.3128 H   0  0  0  0  0  0  0  0  0  0  0  0
    2.5925   -6.7435   -1.4070 H   0  0  0  0  0  0  0  0  0  0  0  0
    3.6941   -5.8838   -3.8031 H   0  0  0  0  0  0  0  0  0  0  0  0
    5.4139   -5.5776   -3.6745 H   0  0  0  0  0  0  0  0  0  0  0  0
    5.9635   -8.8567   -2.4427 H   0  0  0  0  0  0  0  0  0  0  0  0
  1  2  1  0  0  0  0
  1 41  1  0  0  0  0
  1 42  1  0  0  0  0
  1 43  1  0  0  0  0
  2  3  1  0  0  0  0
  2  4  1  0  0  0  0
  2  5  1  0  0  0  0
  3 44  1  0  0  0  0
  3 45  1  0  0  0  0
  3 46  1  0  0  0  0
  4 47  1  0  0  0  0
  4 48  1  0  0  0  0
  4 49  1  0  0  0  0
  5  6  1  0  0  0  0
  5 50  1  0  0  0  0
  6  7  2  0  0  0  0
  6  8  1  0  0  0  0
  8  9  2  0  0  0  0
  8 13  1  0  0  0  0
  9 10  1  0  0  0  0
  9 51  1  0  0  0  0
 10 11  2  0  0  0  0
 10 52  1  0  0  0  0
 11 12  1  0  0  0  0
 11 28  1  0  0  0  0
 12 13  2  0  0  0  0
 12 14  1  0  0  0  0
 13 53  1  0  0  0  0
 14 15  1  0  0  0  0
 14 54  1  0  0  0  0
 15 16  2  0  0  0  0
 15 17  2  0  0  0  0
 15 18  1  0  0  0  0
 18 19  2  0  0  0  0
 18 23  1  0  0  0  0
 19 20  1  0  0  0  0
 19 55  1  0  0  0  0
 20 21  2  0  0  0  0
 20 56  1  0  0  0  0
 21 22  1  0  0  0  0
 21 25  1  0  0  0  0
 22 23  2  0  0  0  0
 22 57  1  0  0  0  0
 23 24  1  0  0  0  0
 25 26  1  0  0  0  0
 25 27  1  0  0  0  0
 25 58  1  0  0  0  0
 26 27  1  0  0  0  0
 26 59  1  0  0  0  0
 26 60  1  0  0  0  0
 27 61  1  0  0  0  0
 27 62  1  0  0  0  0
 28 29  1  0  0  0  0
 29 30  2  0  0  0  0
 29 34  1  0  0  0  0
 30 31  1  0  0  0  0
 30 63  1  0  0  0  0
 31 32  2  0  0  0  0
 31 40  1  0  0  0  0
 32 33  1  0  0  0  0
 32 36  1  0  0  0  0
 33 34  2  0  0  0  0
 33 64  1  0  0  0  0
 34 35  1  0  0  0  0
 36 37  1  0  0  0  0
 36 65  1  0  0  0  0
 36 66  1  0  0  0  0
 37 38  2  0  0  0  0
 37 39  1  0  0  0  0
 39 67  1  0  0  0  0
M  END
>  <DRUGBANK_ID>
DB12272

>  <COMMON_NAME>
Vidupiprant

>  <CAS_NUMBER>
1169483-24-2

>  <UNII>
61OTZ32XNC

>  <SYNONYMS>
Vidupiprant

$$$$
