
 OpenBabel10282417203D

 83 85  0  0  1  0  0  0  0  0999 V2000
    2.1257    2.0990    4.0139 C   0  0  0  0  0  0  0  0  0  0  0  0
    2.3566    3.4389    3.4786 C   0  0  2  0  0  0  0  0  0  0  0  0
    3.8602    3.5983    3.4962 C   0  0  0  0  0  0  0  0  0  0  0  0
    4.6578    2.6750    3.3844 O   0  0  0  0  0  0  0  0  0  0  0  0
    4.4386    4.7717    3.4195 N   0  0  0  0  0  0  0  0  0  0  0  0
    3.6815    5.9309    3.6117 C   0  0  0  0  0  0  0  0  0  0  0  0
    3.7579    6.2716    5.0790 C   0  0  0  0  0  0  0  0  0  0  0  0
    4.0578    7.4091    5.4234 O   0  0  0  0  0  0  0  0  0  0  0  0
    3.4032    5.3284    6.0208 N   0  0  0  0  0  0  0  0  0  0  0  0
    1.3287    4.2583    4.0259 N   0  0  0  0  0  0  0  0  0  0  0  0
    0.5293    5.0862    3.2831 C   0  0  0  0  0  0  0  0  0  0  0  0
   -0.1448    5.8905    3.9282 O   0  0  0  0  0  0  0  0  0  0  0  0
    0.4611    5.0087    1.6754 C   0  0  0  0  0  0  0  0  0  0  0  0
    1.7186    5.1964    0.8132 N   0  0  0  0  0  0  0  0  0  0  0  0
    2.4306    4.5270   -0.2077 C   0  0  0  0  0  0  0  0  0  0  0  0
    3.5217    4.9853   -0.5581 O   0  0  0  0  0  0  0  0  0  0  0  0
    1.9694    3.1990   -0.8862 C   0  0  1  0  0  0  0  0  0  0  0  0
    1.2643    2.9714   -2.3138 C   0  0  0  0  0  0  0  0  0  0  0  0
    2.1206    1.6646   -3.0418 C   0  0  1  0  0  0  0  0  0  0  0  0
    2.8483    0.6618   -1.9351 C   0  0  0  0  0  0  0  0  0  0  0  0
    2.9314    1.7059   -0.6528 N   0  0  0  0  0  0  0  0  0  0  0  0
    3.3402    1.4506    0.7168 C   0  0  0  0  0  0  0  0  0  0  0  0
    3.2427    2.4012    1.3680 O   0  0  0  0  0  0  0  0  0  0  0  0
    3.8925    0.0591    1.4948 C   0  0  1  0  0  0  0  0  0  0  0  0
    5.1288   -0.2440    0.7170 C   0  0  0  0  0  0  0  0  0  0  0  0
    6.1082    0.7214    1.3578 C   0  0  0  0  0  0  0  0  0  0  0  0
    5.8540    0.5580    2.8605 C   0  0  0  0  0  0  0  0  0  0  0  0
    4.4297    0.0899    2.9240 N   0  0  0  0  0  0  0  0  0  0  0  0
    3.8342   -0.2996    4.1488 C   0  0  0  0  0  0  0  0  0  0  0  0
    4.4356   -0.1222    5.2257 O   0  0  0  0  0  0  0  0  0  0  0  0
    2.3890   -1.0346    4.2738 C   0  0  1  0  0  0  0  0  0  0  0  0
    0.9723   -0.4348    3.9996 C   0  0  0  0  0  0  0  0  0  0  0  0
    0.6045   -0.0934    2.6015 C   0  0  0  0  0  0  0  0  0  0  0  0
    0.9581   -1.0071    1.6102 C   0  0  0  0  0  0  0  0  0  0  0  0
    1.0916   -0.6009    0.3471 C   0  0  0  0  0  0  0  0  0  0  0  0
    0.5857    0.6280    0.1052 C   0  0  0  0  0  0  0  0  0  0  0  0
    0.3525    1.5702    1.0618 C   0  0  0  0  0  0  0  0  0  0  0  0
    0.1085    1.1663    2.2993 C   0  0  0  0  0  0  0  0  0  0  0  0
    0.6444    1.0481   -1.1286 O   0  0  0  0  0  0  0  0  0  0  0  0
    2.5507   -2.3360    3.6685 N   0  0  0  0  0  0  0  0  0  0  0  0
    2.0605   -3.5128    4.1208 C   0  0  0  0  0  0  0  0  0  0  0  0
    1.9915   -4.4642    3.3506 O   0  0  0  0  0  0  0  0  0  0  0  0
    1.6823   -3.5746    5.5680 C   0  0  0  0  0  0  0  0  0  0  0  0
    1.2382    0.9082   -3.8963 O   0  0  0  0  0  0  0  0  0  0  0  0
    2.8600    1.6968    4.6926 H   0  0  0  0  0  0  0  0  0  0  0  0
    2.2013    1.4584    3.1510 H   0  0  0  0  0  0  0  0  0  0  0  0
    1.1503    2.0765    4.4953 H   0  0  0  0  0  0  0  0  0  0  0  0
    2.1099    3.5464    2.4450 H   0  0  0  0  0  0  0  0  0  0  0  0
    5.4507    4.7125    3.3804 H   0  0  0  0  0  0  0  0  0  0  0  0
    4.0071    6.6592    2.8844 H   0  0  0  0  0  0  0  0  0  0  0  0
    2.6587    5.7687    3.3510 H   0  0  0  0  0  0  0  0  0  0  0  0
    3.2551    4.3368    5.8763 H   0  0  0  0  0  0  0  0  0  0  0  0
    3.5354    5.6065    6.9853 H   0  0  0  0  0  0  0  0  0  0  0  0
    1.2994    4.3358    5.0344 H   0  0  0  0  0  0  0  0  0  0  0  0
   -0.0938    4.1144    1.4029 H   0  0  0  0  0  0  0  0  0  0  0  0
   -0.2138    5.8314    1.4077 H   0  0  0  0  0  0  0  0  0  0  0  0
    2.2332    6.0269    1.0871 H   0  0  0  0  0  0  0  0  0  0  0  0
    0.9997    3.2246   -0.3731 H   0  0  0  0  0  0  0  0  0  0  0  0
    1.0957    3.9077   -2.8632 H   0  0  0  0  0  0  0  0  0  0  0  0
    0.1622    2.6835   -2.1889 H   0  0  0  0  0  0  0  0  0  0  0  0
    2.9113    2.1520   -3.5959 H   0  0  0  0  0  0  0  0  0  0  0  0
    2.0821   -0.1705   -1.8583 H   0  0  0  0  0  0  0  0  0  0  0  0
    3.6689   -0.0966   -1.9404 H   0  0  0  0  0  0  0  0  0  0  0  0
    3.2438   -0.7921    1.4953 H   0  0  0  0  0  0  0  0  0  0  0  0
    5.3945   -1.2951    0.8390 H   0  0  0  0  0  0  0  0  0  0  0  0
    4.9652   -0.0327   -0.3323 H   0  0  0  0  0  0  0  0  0  0  0  0
    7.1279    0.5163    1.0542 H   0  0  0  0  0  0  0  0  0  0  0  0
    5.8638    1.7457    1.0227 H   0  0  0  0  0  0  0  0  0  0  0  0
    6.5294   -0.1336    3.3643 H   0  0  0  0  0  0  0  0  0  0  0  0
    6.1145    1.4815    3.3840 H   0  0  0  0  0  0  0  0  0  0  0  0
    2.2924   -1.1928    5.3584 H   0  0  0  0  0  0  0  0  0  0  0  0
    0.1121   -1.0422    4.2691 H   0  0  0  0  0  0  0  0  0  0  0  0
    0.8574    0.3678    4.7162 H   0  0  0  0  0  0  0  0  0  0  0  0
    1.3579   -1.9865    1.7629 H   0  0  0  0  0  0  0  0  0  0  0  0
    1.7707   -1.1624   -0.2948 H   0  0  0  0  0  0  0  0  0  0  0  0
    0.8930    2.5145    1.0998 H   0  0  0  0  0  0  0  0  0  0  0  0
   -0.0362    2.0140    2.9557 H   0  0  0  0  0  0  0  0  0  0  0  0
    1.5389    1.4268   -0.9876 H   0  0  0  0  0  0  0  0  0  0  0  0
    2.8901   -2.3734    2.7226 H   0  0  0  0  0  0  0  0  0  0  0  0
    2.5282   -3.2153    6.1635 H   0  0  0  0  0  0  0  0  0  0  0  0
    0.7988   -2.9623    5.7686 H   0  0  0  0  0  0  0  0  0  0  0  0
    1.4834   -4.6105    5.8394 H   0  0  0  0  0  0  0  0  0  0  0  0
    0.5116    0.5275   -3.3528 H   0  0  0  0  0  0  0  0  0  0  0  0
  1 45  1  0  0  0  0
  1 46  1  0  0  0  0
  1 47  1  0  0  0  0
  2 10  1  0  0  0  0
  2 48  1  6  0  0  0
  2  3  1  0  0  0  0
  2  1  1  0  0  0  0
  3  4  2  0  0  0  0
  3  5  1  0  0  0  0
  5  6  1  0  0  0  0
  5 49  1  0  0  0  0
  6  7  1  0  0  0  0
  6 50  1  0  0  0  0
  6 51  1  0  0  0  0
  7  8  2  0  0  0  0
  7  9  1  0  0  0  0
  9 52  1  0  0  0  0
  9 53  1  0  0  0  0
 10 11  1  0  0  0  0
 10 54  1  0  0  0  0
 11 12  2  0  0  0  0
 11 13  1  0  0  0  0
 13 14  1  0  0  0  0
 13 55  1  0  0  0  0
 13 56  1  0  0  0  0
 14 15  1  0  0  0  0
 14 57  1  0  0  0  0
 15 16  2  0  0  0  0
 17 15  1  0  0  0  0
 17 18  1  0  0  0  0
 17 21  1  0  0  0  0
 17 58  1  1  0  0  0
 18 19  1  0  0  0  0
 18 59  1  0  0  0  0
 18 60  1  0  0  0  0
 19 20  1  0  0  0  0
 19 44  1  0  0  0  0
 19 61  1  6  0  0  0
 20 21  1  0  0  0  0
 20 62  1  0  0  0  0
 20 63  1  0  0  0  0
 21 22  1  0  0  0  0
 22 23  2  0  0  0  0
 24 25  1  0  0  0  0
 24 28  1  0  0  0  0
 24 64  1  6  0  0  0
 24 22  1  0  0  0  0
 25 26  1  0  0  0  0
 25 65  1  0  0  0  0
 25 66  1  0  0  0  0
 26 27  1  0  0  0  0
 26 67  1  0  0  0  0
 26 68  1  0  0  0  0
 27 28  1  0  0  0  0
 27 69  1  0  0  0  0
 27 70  1  0  0  0  0
 28 29  1  0  0  0  0
 29 30  2  0  0  0  0
 29 31  1  0  0  0  0
 31 32  1  0  0  0  0
 31 40  1  0  0  0  0
 31 71  1  1  0  0  0
 32 33  1  0  0  0  0
 32 72  1  0  0  0  0
 32 73  1  0  0  0  0
 33 34  2  0  0  0  0
 33 38  1  0  0  0  0
 34 35  1  0  0  0  0
 34 74  1  0  0  0  0
 35 36  2  0  0  0  0
 35 75  1  0  0  0  0
 36 37  1  0  0  0  0
 36 39  1  0  0  0  0
 37 38  2  0  0  0  0
 37 76  1  0  0  0  0
 38 77  1  0  0  0  0
 39 78  1  0  0  0  0
 40 41  1  0  0  0  0
 40 79  1  0  0  0  0
 41 42  2  0  0  0  0
 41 43  1  0  0  0  0
 43 80  1  0  0  0  0
 43 81  1  0  0  0  0
 43 82  1  0  0  0  0
 44 83  1  0  0  0  0
M  END
>  <DRUGBANK_ID>
DB13067

>  <COMMON_NAME>
Rotigaptide

>  <CAS_NUMBER>
355151-12-1

>  <UNII>
GFA1W6KO7N

>  <SYNONYMS>
Rotigaptide

$$$$
