934
 OpenBabel10282417113D

 44 47  0  0  0  0  0  0  0  0999 V2000
    1.5537    0.1321   -0.1596 N   0  0  0  0  0  0  0  0  0  0  0  0
   -1.1742   -2.8228   -0.4277 C   0  0  3  0  0  0  0  0  0  0  0  0
   -3.8333   -2.8952   -0.4164 C   0  0  3  0  0  0  0  0  0  0  0  0
   -1.8043   -2.5484   -1.8580 C   0  0  0  0  0  0  0  0  0  0  0  0
   -3.3404   -2.5564   -1.8330 C   0  0  0  0  0  0  0  0  0  0  0  0
   -1.7443   -4.2056   -0.0534 C   0  0  0  0  0  0  0  0  0  0  0  0
   -1.8827   -1.8209    0.5936 C   0  0  0  0  0  0  0  0  0  0  0  0
    0.3719   -2.9224   -0.6940 C   0  0  0  0  0  0  0  0  0  0  0  0
   -3.1630   -4.2253   -0.0403 C   0  0  0  0  0  0  0  0  0  0  0  0
   -3.2772   -1.8037    0.4933 C   0  0  0  0  0  0  0  0  0  0  0  0
    1.0340   -1.8515   -1.6077 C   0  0  0  0  0  0  0  0  0  0  0  0
   -1.0107   -5.3504    0.2664 C   0  0  0  0  0  0  0  0  0  0  0  0
   -1.3990   -1.0904    1.6937 C   0  0  0  0  0  0  0  0  0  0  0  0
   -3.8331   -5.3857    0.3123 C   0  0  0  0  0  0  0  0  0  0  0  0
   -4.0678   -0.9201    1.2669 C   0  0  0  0  0  0  0  0  0  0  0  0
    0.7568   -0.3763   -1.2904 C   0  0  0  0  0  0  0  0  0  0  0  0
   -1.6924   -6.5152    0.6002 C   0  0  0  0  0  0  0  0  0  0  0  0
   -2.1016   -0.0263    2.2704 C   0  0  0  0  0  0  0  0  0  0  0  0
   -3.0905   -6.5276    0.6308 C   0  0  0  0  0  0  0  0  0  0  0  0
   -3.4478    0.0295    2.0954 C   0  0  0  0  0  0  0  0  0  0  0  0
    1.4076   -0.6937    1.0084 C   0  0  0  0  0  0  0  0  0  0  0  0
    2.5307    0.2262   -0.3977 H   0  0  0  0  0  0  0  0  0  0  0  0
   -4.9215   -2.9483   -0.3691 H   0  0  0  0  0  0  0  0  0  0  0  0
   -1.4518   -3.3068   -2.5759 H   0  0  0  0  0  0  0  0  0  0  0  0
   -1.4881   -1.5859   -2.2719 H   0  0  0  0  0  0  0  0  0  0  0  0
   -3.7031   -3.2867   -2.5654 H   0  0  0  0  0  0  0  0  0  0  0  0
   -3.7007   -1.5705   -2.1526 H   0  0  0  0  0  0  0  0  0  0  0  0
    0.5863   -3.8585   -1.2392 H   0  0  0  0  0  0  0  0  0  0  0  0
    0.9099   -3.0838    0.2434 H   0  0  0  0  0  0  0  0  0  0  0  0
    0.7297   -2.0521   -2.6443 H   0  0  0  0  0  0  0  0  0  0  0  0
    2.1205   -2.0075   -1.6049 H   0  0  0  0  0  0  0  0  0  0  0  0
    0.0750   -5.3653    0.2658 H   0  0  0  0  0  0  0  0  0  0  0  0
   -0.4818   -1.3022    2.2070 H   0  0  0  0  0  0  0  0  0  0  0  0
   -4.9153   -5.4044    0.3498 H   0  0  0  0  0  0  0  0  0  0  0  0
   -5.1423   -0.9673    1.2420 H   0  0  0  0  0  0  0  0  0  0  0  0
   -0.3175   -0.2069   -1.1265 H   0  0  0  0  0  0  0  0  0  0  0  0
    0.9922    0.2398   -2.1635 H   0  0  0  0  0  0  0  0  0  0  0  0
   -1.1290   -7.4114    0.8487 H   0  0  0  0  0  0  0  0  0  0  0  0
   -1.5621    0.6735    2.9187 H   0  0  0  0  0  0  0  0  0  0  0  0
   -3.6057   -7.4402    0.9156 H   0  0  0  0  0  0  0  0  0  0  0  0
   -4.0269    0.7480    2.6776 H   0  0  0  0  0  0  0  0  0  0  0  0
    1.9587   -1.6309    1.1467 H   0  0  0  0  0  0  0  0  0  0  0  0
    1.3725   -0.1471    1.9516 H   0  0  0  0  0  0  0  0  0  0  0  0
    0.4449   -1.0687    0.7980 H   0  0  0  0  0  0  0  0  0  0  0  0
  1 16  1  0  0  0  0
  1 21  1  0  0  0  0
  1 22  1  0  0  0  0
  2  4  1  0  0  0  0
  2  6  1  0  0  0  0
  2  7  1  0  0  0  0
  2  8  1  0  0  0  0
  3  5  1  0  0  0  0
  3  9  1  0  0  0  0
  3 10  1  0  0  0  0
  3 23  1  0  0  0  0
  4  5  1  0  0  0  0
  4 24  1  0  0  0  0
  4 25  1  0  0  0  0
  5 26  1  0  0  0  0
  5 27  1  0  0  0  0
  6  9  1  0  0  0  0
  6 12  2  0  0  0  0
  7 10  1  0  0  0  0
  7 13  2  0  0  0  0
  8 11  1  0  0  0  0
  8 28  1  0  0  0  0
  8 29  1  0  0  0  0
  9 14  2  0  0  0  0
 10 15  2  0  0  0  0
 11 16  1  0  0  0  0
 11 30  1  0  0  0  0
 11 31  1  0  0  0  0
 12 17  1  0  0  0  0
 12 32  1  0  0  0  0
 13 18  1  0  0  0  0
 13 33  1  0  0  0  0
 14 19  1  0  0  0  0
 14 34  1  0  0  0  0
 15 20  1  0  0  0  0
 15 35  1  0  0  0  0
 16 36  1  0  0  0  0
 16 37  1  0  0  0  0
 17 19  2  0  0  0  0
 17 38  1  0  0  0  0
 18 20  2  0  0  0  0
 18 39  1  0  0  0  0
 19 40  1  0  0  0  0
 20 41  1  0  0  0  0
 21 42  1  0  0  0  0
 21 43  1  0  0  0  0
 21 44  1  0  0  0  0
M  END
>  <DRUGBANK_ID>
DB00934

>  <SECONDARY_ACCESSION_NUMBERS>
APRD00747

>  <COMMON_NAME>
Maprotiline

>  <CAS_NUMBER>
10262-69-8

>  <UNII>
2U1W68TROF

>  <SYNONYMS>
Maprotilina; Maprotiline; Maprotilinum; Maprotylina

$$$$
