
 OpenBabel10282417223D

 33 33  0  0  0  0  0  0  0  0999 V2000
    1.0551    0.0477   -0.0526 C   0  0  0  0  0  0  0  0  0  0  0  0
    0.5981   -0.5867    1.2443 C   0  0  0  0  0  0  0  0  0  0  0  0
    1.0742    0.2248    2.4542 C   0  0  0  0  0  0  0  0  0  0  0  0
    0.4719    1.6414    2.4933 C   0  0  0  0  0  0  0  0  0  0  0  0
   -1.0732    1.6658    2.4899 C   0  0  0  0  0  0  0  0  0  0  0  0
   -1.6130    0.9912    3.7319 C   0  0  0  0  0  0  0  0  0  0  0  0
   -1.6189   -0.4101    3.8328 C   0  0  0  0  0  0  0  0  0  0  0  0
   -1.7204   -1.0518    5.0682 C   0  0  0  0  0  0  0  0  0  0  0  0
   -1.4539   -2.5329    5.1733 C   0  0  0  0  0  0  0  0  0  0  0  0
   -0.2716   -2.8432    6.0721 C   0  0  0  0  0  0  0  0  0  0  0  0
   -0.5708   -3.6055    7.1484 O   0  0  0  0  0  0  0  0  0  0  0  0
    0.8742   -2.4506    5.8669 O   0  0  0  0  0  0  0  0  0  0  0  0
   -1.9616   -0.2763    6.2020 C   0  0  0  0  0  0  0  0  0  0  0  0
   -2.0363    1.1142    6.1021 C   0  0  0  0  0  0  0  0  0  0  0  0
   -1.8894    1.7475    4.8693 C   0  0  0  0  0  0  0  0  0  0  0  0
    0.6579    1.0616   -0.1608 H   0  0  0  0  0  0  0  0  0  0  0  0
    0.6934   -0.5308   -0.9048 H   0  0  0  0  0  0  0  0  0  0  0  0
    2.1459    0.0969   -0.0815 H   0  0  0  0  0  0  0  0  0  0  0  0
   -0.4913   -0.6652    1.2001 H   0  0  0  0  0  0  0  0  0  0  0  0
    0.9653   -1.6154    1.3236 H   0  0  0  0  0  0  0  0  0  0  0  0
    0.8424   -0.3097    3.3821 H   0  0  0  0  0  0  0  0  0  0  0  0
    2.1683    0.2863    2.4489 H   0  0  0  0  0  0  0  0  0  0  0  0
    0.8553    2.1644    3.3789 H   0  0  0  0  0  0  0  0  0  0  0  0
    0.8428    2.2144    1.6356 H   0  0  0  0  0  0  0  0  0  0  0  0
   -1.4135    2.7077    2.4408 H   0  0  0  0  0  0  0  0  0  0  0  0
   -1.4793    1.1879    1.5919 H   0  0  0  0  0  0  0  0  0  0  0  0
   -1.4066   -1.0173    2.9599 H   0  0  0  0  0  0  0  0  0  0  0  0
   -2.3624   -3.0366    5.5164 H   0  0  0  0  0  0  0  0  0  0  0  0
   -1.2160   -2.9639    4.1910 H   0  0  0  0  0  0  0  0  0  0  0  0
   -1.5086   -3.8591    7.2327 H   0  0  0  0  0  0  0  0  0  0  0  0
   -2.0501   -0.7427    7.1785 H   0  0  0  0  0  0  0  0  0  0  0  0
   -2.1440    1.7117    7.0023 H   0  0  0  0  0  0  0  0  0  0  0  0
   -1.9347    2.8319    4.8103 H   0  0  0  0  0  0  0  0  0  0  0  0
  1  2  1  0  0  0  0
  1 16  1  0  0  0  0
  1 17  1  0  0  0  0
  1 18  1  0  0  0  0
  2  3  1  0  0  0  0
  2 19  1  0  0  0  0
  2 20  1  0  0  0  0
  3  4  1  0  0  0  0
  3 21  1  0  0  0  0
  3 22  1  0  0  0  0
  4  5  1  0  0  0  0
  4 23  1  0  0  0  0
  4 24  1  0  0  0  0
  5  6  1  0  0  0  0
  5 25  1  0  0  0  0
  5 26  1  0  0  0  0
  6  7  2  0  0  0  0
  6 15  1  0  0  0  0
  7  8  1  0  0  0  0
  7 27  1  0  0  0  0
  8  9  1  0  0  0  0
  8 13  2  0  0  0  0
  9 10  1  0  0  0  0
  9 28  1  0  0  0  0
  9 29  1  0  0  0  0
 10 11  1  0  0  0  0
 10 12  2  0  0  0  0
 11 30  1  0  0  0  0
 13 14  1  0  0  0  0
 13 31  1  0  0  0  0
 14 15  2  0  0  0  0
 14 32  1  0  0  0  0
 15 33  1  0  0  0  0
M  END
>  <DRUGBANK_ID>
DB15447

>  <COMMON_NAME>
Setogepram

>  <CAS_NUMBER>
1002101-19-0

>  <UNII>
879OVM0Y1S

>  <SYNONYMS>
2-(3-Pentylphenyl)acetic acid; 3-Pentylbenzenacetic acid; Fezagepras

$$$$
