S5H
 OpenBabel10282417173D

 68 71  0  0  0  0  0  0  0  0999 V2000
   -2.5651    1.4678   -0.5089 C   0  0  0  0  0  0  0  0  0  0  0  0
   -4.0564    1.3110   -0.2243 C   0  0  0  0  0  0  0  0  0  0  0  0
   -4.5648   -0.1143   -0.4781 C   0  0  2  0  0  0  0  0  0  0  0  0
   -5.9042   -0.3384    0.0037 O   0  0  0  0  0  0  0  0  0  0  0  0
   -3.6879   -1.2210    0.0766 C   0  0  0  0  0  0  0  0  0  0  0  0
   -2.2260   -1.0160   -0.2670 C   0  0  2  0  0  0  0  0  0  0  0  0
   -1.4088   -2.1714    0.3113 C   0  0  0  0  0  0  0  0  0  0  0  0
    0.0450   -2.0651   -0.1130 C   0  0  0  0  0  0  0  0  0  0  0  0
    0.6494   -0.6974    0.2208 C   0  0  2  0  0  0  0  0  0  0  0  0
   -0.2185    0.4765   -0.3244 C   0  0  1  0  0  0  0  0  0  0  0  0
   -1.6945    0.3808    0.1779 C   0  0  1  0  0  0  0  0  0  0  0  0
    0.4446    1.8571   -0.0881 C   0  0  0  0  0  0  0  0  0  0  0  0
    1.9118    1.9125   -0.5465 C   0  0  0  0  0  0  0  0  0  0  0  0
    2.7354    0.7656    0.0623 C   0  0  1  0  0  0  0  0  0  0  0  0
    2.0513   -0.5532   -0.3694 C   0  0  1  0  0  0  0  0  0  0  0  0
    3.0792   -1.6247   -0.0517 C   0  0  0  0  0  0  0  0  0  0  0  0
    4.4128   -0.9502   -0.3863 C   0  0  0  0  0  0  0  0  0  0  0  0
    4.1354    0.5635   -0.5644 C   0  0  2  0  0  0  0  0  0  0  0  0
    2.8186    0.9136    1.6009 C   0  0  0  0  0  0  0  0  0  0  0  0
   -1.7727    0.5787    1.7150 C   0  0  0  0  0  0  0  0  0  0  0  0
    5.3078    1.3894   -0.0238 C   0  0  0  0  0  0  0  0  0  0  0  0
    5.2230    2.2193    0.8779 O   0  0  0  0  0  0  0  0  0  0  0  0
    6.6275    1.1922   -0.7122 C   0  0  0  0  0  0  0  0  0  0  0  0
   -6.1873   -0.0926    1.3085 C   0  0  0  0  0  0  0  0  0  0  0  0
   -5.3784    0.1739    2.1867 O   0  0  0  0  0  0  0  0  0  0  0  0
   -7.6587   -0.2079    1.5755 C   0  0  0  0  0  0  0  0  0  0  0  0
   -8.4696    0.8971    0.9178 C   0  0  0  0  0  0  0  0  0  0  0  0
   -8.5528    0.7832   -0.5804 C   0  0  0  0  0  0  0  0  0  0  0  0
   -9.5140    0.3697   -1.2143 O   0  0  0  0  0  0  0  0  0  0  0  0
   -7.4289    1.1611   -1.2102 O   0  0  0  0  0  0  0  0  0  0  0  0
   -4.6123   -0.2369   -1.5712 H   0  0  0  0  0  0  0  0  0  0  0  0
   -2.1443   -1.0736   -1.3636 H   0  0  0  0  0  0  0  0  0  0  0  0
    0.7058   -0.6363    1.3127 H   0  0  0  0  0  0  0  0  0  0  0  0
   -0.2548    0.3535   -1.4188 H   0  0  0  0  0  0  0  0  0  0  0  0
    1.9383   -0.5560   -1.4668 H   0  0  0  0  0  0  0  0  0  0  0  0
    4.0790    0.7886   -1.6399 H   0  0  0  0  0  0  0  0  0  0  0  0
   -2.2647    2.4677   -0.1730 H   0  0  0  0  0  0  0  0  0  0  0  0
   -2.4044    1.4401   -1.5943 H   0  0  0  0  0  0  0  0  0  0  0  0
   -4.2441    1.6277    0.8033 H   0  0  0  0  0  0  0  0  0  0  0  0
   -4.6268    2.0248   -0.8324 H   0  0  0  0  0  0  0  0  0  0  0  0
   -3.8054   -1.3051    1.1596 H   0  0  0  0  0  0  0  0  0  0  0  0
   -4.0478   -2.1804   -0.3179 H   0  0  0  0  0  0  0  0  0  0  0  0
   -1.4838   -2.1915    1.4050 H   0  0  0  0  0  0  0  0  0  0  0  0
   -1.8149   -3.1278   -0.0397 H   0  0  0  0  0  0  0  0  0  0  0  0
    0.6119   -2.8597    0.3851 H   0  0  0  0  0  0  0  0  0  0  0  0
    0.1146   -2.2476   -1.1920 H   0  0  0  0  0  0  0  0  0  0  0  0
   -0.1063    2.6323   -0.6316 H   0  0  0  0  0  0  0  0  0  0  0  0
    0.3926    2.1309    0.9690 H   0  0  0  0  0  0  0  0  0  0  0  0
    1.9261    1.8501   -1.6437 H   0  0  0  0  0  0  0  0  0  0  0  0
    2.3419    2.8850   -0.2845 H   0  0  0  0  0  0  0  0  0  0  0  0
    3.0474   -1.9202    1.0025 H   0  0  0  0  0  0  0  0  0  0  0  0
    2.9280   -2.5286   -0.6510 H   0  0  0  0  0  0  0  0  0  0  0  0
    5.1388   -1.1483    0.4092 H   0  0  0  0  0  0  0  0  0  0  0  0
    4.8243   -1.3642   -1.3144 H   0  0  0  0  0  0  0  0  0  0  0  0
    3.3529    0.0772    2.0603 H   0  0  0  0  0  0  0  0  0  0  0  0
    3.3256    1.8339    1.8931 H   0  0  0  0  0  0  0  0  0  0  0  0
    1.8420    0.9815    2.0823 H   0  0  0  0  0  0  0  0  0  0  0  0
   -1.1880   -0.1602    2.2678 H   0  0  0  0  0  0  0  0  0  0  0  0
   -1.4098    1.5678    2.0107 H   0  0  0  0  0  0  0  0  0  0  0  0
   -2.7941    0.5055    2.0943 H   0  0  0  0  0  0  0  0  0  0  0  0
    6.9008    0.1361   -0.6988 H   0  0  0  0  0  0  0  0  0  0  0  0
    6.5445    1.5596   -1.7364 H   0  0  0  0  0  0  0  0  0  0  0  0
    7.3979    1.7578   -0.1812 H   0  0  0  0  0  0  0  0  0  0  0  0
   -7.9994   -1.2125    1.3077 H   0  0  0  0  0  0  0  0  0  0  0  0
   -7.7702   -0.1161    2.6645 H   0  0  0  0  0  0  0  0  0  0  0  0
   -9.4967    0.8366    1.2979 H   0  0  0  0  0  0  0  0  0  0  0  0
   -8.0946    1.8912    1.1826 H   0  0  0  0  0  0  0  0  0  0  0  0
   -7.4731    0.7655   -2.1056 H   0  0  0  0  0  0  0  0  0  0  0  0
  1  2  1  0  0  0  0
  1 11  1  0  0  0  0
  1 37  1  0  0  0  0
  1 38  1  0  0  0  0
  2  3  1  0  0  0  0
  2 39  1  0  0  0  0
  2 40  1  0  0  0  0
  3  4  1  0  0  0  0
  3  5  1  0  0  0  0
  3 31  1  6  0  0  0
  4 24  1  0  0  0  0
  5  6  1  0  0  0  0
  5 41  1  0  0  0  0
  5 42  1  0  0  0  0
  6  7  1  0  0  0  0
  6 11  1  0  0  0  0
  6 32  1  6  0  0  0
  7  8  1  0  0  0  0
  7 43  1  0  0  0  0
  7 44  1  0  0  0  0
  8  9  1  0  0  0  0
  8 45  1  0  0  0  0
  8 46  1  0  0  0  0
  9 10  1  0  0  0  0
  9 15  1  0  0  0  0
  9 33  1  1  0  0  0
 10 11  1  0  0  0  0
 10 12  1  0  0  0  0
 10 34  1  6  0  0  0
 11 20  1  1  0  0  0
 12 13  1  0  0  0  0
 12 47  1  0  0  0  0
 12 48  1  0  0  0  0
 13 14  1  0  0  0  0
 13 49  1  0  0  0  0
 13 50  1  0  0  0  0
 14 15  1  0  0  0  0
 14 18  1  0  0  0  0
 14 19  1  1  0  0  0
 15 16  1  0  0  0  0
 15 35  1  6  0  0  0
 16 17  1  0  0  0  0
 16 51  1  0  0  0  0
 16 52  1  0  0  0  0
 17 18  1  0  0  0  0
 17 53  1  0  0  0  0
 17 54  1  0  0  0  0
 18 36  1  6  0  0  0
 18 21  1  0  0  0  0
 19 55  1  0  0  0  0
 19 56  1  0  0  0  0
 19 57  1  0  0  0  0
 20 58  1  0  0  0  0
 20 59  1  0  0  0  0
 20 60  1  0  0  0  0
 21 22  2  0  0  0  0
 21 23  1  0  0  0  0
 23 61  1  0  0  0  0
 23 62  1  0  0  0  0
 23 63  1  0  0  0  0
 24 25  2  0  0  0  0
 24 26  1  0  0  0  0
 26 27  1  0  0  0  0
 26 64  1  0  0  0  0
 26 65  1  0  0  0  0
 27 28  1  0  0  0  0
 27 66  1  0  0  0  0
 27 67  1  0  0  0  0
 28 29  2  0  0  0  0
 28 30  1  0  0  0  0
 30 68  1  0  0  0  0
M  END
>  <DRUGBANK_ID>
DB08510

>  <COMMON_NAME>
5-ALPHA-PREGNANE-3-BETA-OL-HEMISUCCINATE

$$$$
