6BD
 OpenBabel10282417163D

 36 38  0  0  0  0  0  0  0  0999 V2000
   -1.8449   -7.2981    4.3435 C   0  0  0  0  0  0  0  0  0  0  0  0
   -2.1454   -5.9710    4.6161 C   0  0  0  0  0  0  0  0  0  0  0  0
   -2.8075   -5.6640    5.7974 C   0  0  0  0  0  0  0  0  0  0  0  0
   -3.1643   -6.6811    6.6874 C   0  0  0  0  0  0  0  0  0  0  0  0
   -2.8834   -8.0218    6.3968 C   0  0  0  0  0  0  0  0  0  0  0  0
   -2.2272   -8.3267    5.2126 C   0  0  0  0  0  0  0  0  0  0  0  0
   -1.7996   -9.5986    4.6773 C   0  0  0  0  0  0  0  0  0  0  0  0
   -2.0114  -10.8806    5.1701 C   0  0  0  0  0  0  0  0  0  0  0  0
   -1.4604  -11.9605    4.4782 C   0  0  0  0  0  0  0  0  0  0  0  0
   -0.6998  -11.7472    3.3147 C   0  0  0  0  0  0  0  0  0  0  0  0
   -0.5042  -10.4526    2.8017 C   0  0  0  0  0  0  0  0  0  0  0  0
   -1.0774   -9.3911    3.4845 C   0  0  0  0  0  0  0  0  0  0  0  0
   -1.1001   -7.9188    3.2038 C   0  0  0  0  0  0  0  0  0  0  0  0
   -0.5750   -7.3219    2.1702 N   0  0  0  0  0  0  0  0  0  0  0  0
   -0.8046   -5.9371    2.2716 O   0  0  0  0  0  0  0  0  0  0  0  0
   -0.2450   -5.1636    1.2212 C   0  0  0  0  0  0  0  0  0  0  0  0
    1.2714   -5.2467    1.2071 C   0  0  2  0  0  0  0  0  0  0  0  0
    1.9102   -4.6211    2.4446 C   0  0  0  0  0  0  0  0  0  0  0  0
    1.7960   -4.6643   -0.0807 C   0  0  0  0  0  0  0  0  0  0  0  0
    2.2501   -5.3548   -0.9870 O   0  0  0  0  0  0  0  0  0  0  0  0
    1.7078   -3.3229   -0.2023 O   0  0  0  0  0  0  0  0  0  0  0  0
    1.5579   -6.3048    1.2099 H   0  0  0  0  0  0  0  0  0  0  0  0
   -1.8823   -5.1590    3.9537 H   0  0  0  0  0  0  0  0  0  0  0  0
   -3.0338   -4.6247    6.0200 H   0  0  0  0  0  0  0  0  0  0  0  0
   -3.6638   -6.4175    7.6153 H   0  0  0  0  0  0  0  0  0  0  0  0
   -3.1652   -8.7965    7.1014 H   0  0  0  0  0  0  0  0  0  0  0  0
   -2.5956  -11.0515    6.0691 H   0  0  0  0  0  0  0  0  0  0  0  0
   -1.6191  -12.9732    4.8471 H   0  0  0  0  0  0  0  0  0  0  0  0
   -0.2648  -12.6080    2.8083 H   0  0  0  0  0  0  0  0  0  0  0  0
    0.0811  -10.3001    1.9016 H   0  0  0  0  0  0  0  0  0  0  0  0
   -0.7123   -5.4321    0.2694 H   0  0  0  0  0  0  0  0  0  0  0  0
   -0.5438   -4.1245    1.4270 H   0  0  0  0  0  0  0  0  0  0  0  0
    2.9941   -4.7754    2.4293 H   0  0  0  0  0  0  0  0  0  0  0  0
    1.7316   -3.5427    2.5035 H   0  0  0  0  0  0  0  0  0  0  0  0
    1.5184   -5.0711    3.3632 H   0  0  0  0  0  0  0  0  0  0  0  0
    1.3404   -2.8385    0.5589 H   0  0  0  0  0  0  0  0  0  0  0  0
  1  6  2  0  0  0  0
  2  1  1  0  0  0  0
  2  3  2  0  0  0  0
  2 23  1  0  0  0  0
  3  4  1  0  0  0  0
  3 24  1  0  0  0  0
  4  5  2  0  0  0  0
  4 25  1  0  0  0  0
  5 26  1  0  0  0  0
  6  5  1  0  0  0  0
  7  6  1  0  0  0  0
  7  8  1  0  0  0  0
  8 27  1  0  0  0  0
  9  8  2  0  0  0  0
  9 28  1  0  0  0  0
 10  9  1  0  0  0  0
 10 29  1  0  0  0  0
 11 10  2  0  0  0  0
 11 12  1  0  0  0  0
 11 30  1  0  0  0  0
 12  7  2  0  0  0  0
 13  1  1  0  0  0  0
 13 12  1  0  0  0  0
 14 13  2  0  0  0  0
 15 14  1  0  0  0  0
 16 15  1  0  0  0  0
 16 31  1  0  0  0  0
 16 32  1  0  0  0  0
 17 22  1  1  0  0  0
 17 18  1  0  0  0  0
 17 19  1  0  0  0  0
 17 16  1  0  0  0  0
 18 33  1  0  0  0  0
 18 34  1  0  0  0  0
 18 35  1  0  0  0  0
 19 21  1  0  0  0  0
 20 19  2  0  0  0  0
 21 36  1  0  0  0  0
M  END
>  <DRUGBANK_ID>
DB07201

>  <COMMON_NAME>
(2S)-3-[(9H-fluoren-9-ylideneamino)oxy]-2-methylpropanoic acid

$$$$
