
 OpenBabel10282417153D

 68 71  0  0  1  0  0  0  0  0999 V2000
    1.3530   -0.6854   -0.5694 C   0  0  0  0  0  0  0  0  0  0  0  0
    0.3977   -1.6146   -0.1028 N   0  0  0  0  0  0  0  0  0  0  0  0
   -0.4559   -1.5155    1.0468 C   0  0  0  0  0  0  0  0  0  0  0  0
   -0.9550   -2.5689    1.3367 O   0  0  0  0  0  0  0  0  0  0  0  0
   -0.7306   -0.0650    2.1456 C   0  0  1  0  0  0  0  0  0  0  0  0
    0.3046   -0.0525    3.2930 C   0  0  0  0  0  0  0  0  0  0  0  0
    0.4328    1.1866    3.8962 C   0  0  0  0  0  0  0  0  0  0  0  0
    1.6241    1.5847    4.4756 C   0  0  0  0  0  0  0  0  0  0  0  0
    2.6127    0.6529    4.7304 C   0  0  0  0  0  0  0  0  0  0  0  0
    2.3921   -0.6853    4.4048 C   0  0  0  0  0  0  0  0  0  0  0  0
    1.2615   -1.0435    3.6351 C   0  0  0  0  0  0  0  0  0  0  0  0
   -1.3642    1.4390    1.5196 N   0  0  0  0  0  0  0  0  0  0  0  0
   -1.2287    3.1457    1.5834 C   0  0  0  0  0  0  0  0  0  0  0  0
   -0.0795    3.9080    2.1442 C   0  0  0  0  0  0  0  0  0  0  0  0
    1.1029    3.1775    1.5582 C   0  0  0  0  0  0  0  0  0  0  0  0
    2.3704    3.6543    1.8706 C   0  0  0  0  0  0  0  0  0  0  0  0
    3.4866    2.8054    1.9953 C   0  0  0  0  0  0  0  0  0  0  0  0
    3.3481    1.4759    1.7351 C   0  0  0  0  0  0  0  0  0  0  0  0
    2.0922    1.1093    1.3066 C   0  0  0  0  0  0  0  0  0  0  0  0
    0.9607    1.9354    0.9465 C   0  0  0  0  0  0  0  0  0  0  0  0
   -0.5402    1.4185    0.3628 C   0  0  2  0  0  0  0  0  0  0  0  0
   -1.5805    2.0767   -0.6493 C   0  0  0  0  0  0  0  0  0  0  0  0
   -0.7867    3.0336   -1.4842 C   0  0  0  0  0  0  0  0  0  0  0  0
   -0.1230    2.3454   -2.5903 C   0  0  0  0  0  0  0  0  0  0  0  0
    0.8922    3.0614   -3.2137 C   0  0  0  0  0  0  0  0  0  0  0  0
    1.6933    2.3844   -4.0913 C   0  0  0  0  0  0  0  0  0  0  0  0
    1.5342    0.9976   -4.2211 C   0  0  0  0  0  0  0  0  0  0  0  0
    0.6196    0.2813   -3.4696 C   0  0  0  0  0  0  0  0  0  0  0  0
   -0.3035    0.9745   -2.7638 C   0  0  0  0  0  0  0  0  0  0  0  0
    2.1759    0.2062   -5.2902 C   0  0  0  0  0  0  0  0  0  0  0  0
    3.0073   -0.7473   -4.8030 F   0  0  0  0  0  0  0  0  0  0  0  0
    1.2207   -0.4473   -6.0105 F   0  0  0  0  0  0  0  0  0  0  0  0
    2.8740    0.9631   -6.1649 F   0  0  0  0  0  0  0  0  0  0  0  0
    4.1802    0.4115    1.9581 O   0  0  0  0  0  0  0  0  0  0  0  0
    5.4939    0.7161    2.3818 C   0  0  0  0  0  0  0  0  0  0  0  0
    4.6482    3.1985    2.5779 O   0  0  0  0  0  0  0  0  0  0  0  0
    4.7021    4.5783    2.8345 C   0  0  0  0  0  0  0  0  0  0  0  0
    1.0703   -0.1047    0.2245 H   0  0  0  0  0  0  0  0  0  0  0  0
    1.1134    0.0859   -1.2726 H   0  0  0  0  0  0  0  0  0  0  0  0
    2.4268   -0.8322   -0.4448 H   0  0  0  0  0  0  0  0  0  0  0  0
    0.4840   -2.5313   -0.5308 H   0  0  0  0  0  0  0  0  0  0  0  0
   -1.6498   -0.4318    2.6224 H   0  0  0  0  0  0  0  0  0  0  0  0
   -0.2923    1.9311    3.6279 H   0  0  0  0  0  0  0  0  0  0  0  0
    1.8317    2.6502    4.5194 H   0  0  0  0  0  0  0  0  0  0  0  0
    3.5903    1.0021    5.0513 H   0  0  0  0  0  0  0  0  0  0  0  0
    3.1823   -1.4022    4.6233 H   0  0  0  0  0  0  0  0  0  0  0  0
    1.2617   -2.0499    3.2105 H   0  0  0  0  0  0  0  0  0  0  0  0
   -2.1800    3.6967    1.4408 H   0  0  0  0  0  0  0  0  0  0  0  0
   -0.9098    3.5607    0.5954 H   0  0  0  0  0  0  0  0  0  0  0  0
   -0.3119    3.9071    3.2047 H   0  0  0  0  0  0  0  0  0  0  0  0
   -0.0031    4.9654    1.8248 H   0  0  0  0  0  0  0  0  0  0  0  0
    2.4128    4.6965    2.1472 H   0  0  0  0  0  0  0  0  0  0  0  0
    2.0260    0.0342    1.5133 H   0  0  0  0  0  0  0  0  0  0  0  0
   -0.5999    0.4311   -0.0390 H   0  0  0  0  0  0  0  0  0  0  0  0
   -2.1975    1.3215   -1.1602 H   0  0  0  0  0  0  0  0  0  0  0  0
   -2.4479    2.5751   -0.1820 H   0  0  0  0  0  0  0  0  0  0  0  0
   -1.3382    3.9351   -1.7373 H   0  0  0  0  0  0  0  0  0  0  0  0
    0.1011    3.3594   -0.9261 H   0  0  0  0  0  0  0  0  0  0  0  0
    1.0571    4.1120   -2.9716 H   0  0  0  0  0  0  0  0  0  0  0  0
    2.4196    2.9374   -4.6742 H   0  0  0  0  0  0  0  0  0  0  0  0
    0.6293   -0.8052   -3.3996 H   0  0  0  0  0  0  0  0  0  0  0  0
   -0.9978    0.3686   -2.1905 H   0  0  0  0  0  0  0  0  0  0  0  0
    5.9604    1.3742    1.6465 H   0  0  0  0  0  0  0  0  0  0  0  0
    5.4866    1.1423    3.3897 H   0  0  0  0  0  0  0  0  0  0  0  0
    6.0821   -0.2048    2.4291 H   0  0  0  0  0  0  0  0  0  0  0  0
    4.5636    5.1163    1.8918 H   0  0  0  0  0  0  0  0  0  0  0  0
    3.9516    4.8598    3.5837 H   0  0  0  0  0  0  0  0  0  0  0  0
    5.6892    4.7876    3.2297 H   0  0  0  0  0  0  0  0  0  0  0  0
  1  2  1  0  0  0  0
  1 38  1  0  0  0  0
  1 39  1  0  0  0  0
  1 40  1  0  0  0  0
  2  3  1  0  0  0  0
  2 41  1  0  0  0  0
  3  4  2  0  0  0  0
  5  3  1  0  0  0  0
  5  6  1  0  0  0  0
  5 12  1  0  0  0  0
  5 42  1  1  0  0  0
  6  7  2  0  0  0  0
  6 11  1  0  0  0  0
  7  8  1  0  0  0  0
  7 43  1  0  0  0  0
  8  9  2  0  0  0  0
  8 44  1  0  0  0  0
  9 10  1  0  0  0  0
  9 45  1  0  0  0  0
 10 11  2  0  0  0  0
 10 46  1  0  0  0  0
 11 47  1  0  0  0  0
 12 13  1  0  0  0  0
 12 21  1  0  0  0  0
 13 14  1  0  0  0  0
 13 48  1  0  0  0  0
 13 49  1  0  0  0  0
 14 15  1  0  0  0  0
 14 50  1  0  0  0  0
 14 51  1  0  0  0  0
 15 16  2  0  0  0  0
 15 20  1  0  0  0  0
 16 17  1  0  0  0  0
 16 52  1  0  0  0  0
 17 18  2  0  0  0  0
 17 36  1  0  0  0  0
 18 19  1  0  0  0  0
 18 34  1  0  0  0  0
 19 20  2  0  0  0  0
 19 53  1  0  0  0  0
 20 21  1  0  0  0  0
 21 54  1  6  0  0  0
 21 22  1  0  0  0  0
 22 23  1  0  0  0  0
 22 55  1  0  0  0  0
 22 56  1  0  0  0  0
 23 24  1  0  0  0  0
 23 57  1  0  0  0  0
 23 58  1  0  0  0  0
 24 25  2  0  0  0  0
 24 29  1  0  0  0  0
 25 26  1  0  0  0  0
 25 59  1  0  0  0  0
 26 27  2  0  0  0  0
 26 60  1  0  0  0  0
 27 28  1  0  0  0  0
 27 30  1  0  0  0  0
 28 29  2  0  0  0  0
 28 61  1  0  0  0  0
 29 62  1  0  0  0  0
 30 31  1  0  0  0  0
 30 32  1  0  0  0  0
 30 33  1  0  0  0  0
 34 35  1  0  0  0  0
 35 63  1  0  0  0  0
 35 64  1  0  0  0  0
 35 65  1  0  0  0  0
 36 37  1  0  0  0  0
 37 66  1  0  0  0  0
 37 67  1  0  0  0  0
 37 68  1  0  0  0  0
M  END
>  <DRUGBANK_ID>
DB06673

>  <COMMON_NAME>
Almorexant

>  <CAS_NUMBER>
871224-64-5

>  <UNII>
9KCW39P2EI

>  <SYNONYMS>
Almorexant

$$$$
