
 OpenBabel10282417183D

 73 32  0  0  0  0  0  0  0  0999 V2000
    0.9484    0.0696    0.0499 N   0  3  0  0  0  0  0  0  0  0  0  0
    1.0437    0.0537    0.0721 N   0  3  0  0  0  0  0  0  0  0  0  0
    1.0838    0.0512   -0.0188 N   0  3  0  0  0  0  0  0  0  0  0  0
    0.9583    0.0641   -0.0645 N   0  3  0  0  0  0  0  0  0  0  0  0
    1.0694    0.0718    0.0052 N   0  3  0  0  0  0  0  0  0  0  0  0
    1.0370   -0.0491   -0.0789 N   0  3  0  0  0  0  0  0  0  0  0  0
    0.9692    0.0563    0.0767 O   0  0  0  0  0  0  0  0  0  0  0  0
    0.9856    0.0546   -0.0826 O   0  0  0  0  0  0  0  0  0  0  0  0
    0.9722   -0.0212    0.0937 O   0  0  0  0  0  0  0  0  0  0  0  0
    0.9525   -0.0222    0.0851 O   0  0  0  0  0  0  0  0  0  0  0  0
    0.9253   -0.0651    0.0133 O   0  6  0  0  0  0  0  0  0  0  0  0
    0.9405    0.0381   -0.0708 O   0  6  0  0  0  0  0  0  0  0  0  0
    1.0734   -0.0415   -0.0537 O   0  6  0  0  0  0  0  0  0  0  0  0
    0.9874    0.0964    0.0233 O   0  6  0  0  0  0  0  0  0  0  0  0
    1.0549    0.0312   -0.0775 O   0  6  0  0  0  0  0  0  0  0  0  0
    0.9804   -0.0570    0.0798 O   0  6  0  0  0  0  0  0  0  0  0  0
    1.0647   -0.0112   -0.0754 O   0  6  0  0  0  0  0  0  0  0  0  0
    0.9505   -0.0858    0.0139 O   0  6  0  0  0  0  0  0  0  0  0  0
    1.0139   -0.0358    0.0923 O   0  6  0  0  0  0  0  0  0  0  0  0
    1.0051   -0.0288    0.0956 O   0  6  0  0  0  0  0  0  0  0  0  0
    1.0538    0.0841   -0.0062 O   0  6  0  0  0  0  0  0  0  0  0  0
    1.0082    0.0917    0.0389 O   0  6  0  0  0  0  0  0  0  0  0  0
    1.0458   -0.0736    0.0497 O   0  6  0  0  0  0  0  0  0  0  0  0
    1.0588    0.0476    0.0654 O   0  6  0  0  0  0  0  0  0  0  0  0
    0.9833    0.0635   -0.0755 O   0  6  0  0  0  0  0  0  0  0  0  0
    1.0340    0.0224   -0.0913 O   0  6  0  0  0  0  0  0  0  0  0  0
    0.9053    0.0298   -0.0118 O   0  6  0  0  0  0  0  0  0  0  0  0
    0.9550   -0.0828   -0.0334 O   0  6  0  0  0  0  0  0  0  0  0  0
    1.0333   -0.0856    0.0396 O   0  6  0  0  0  0  0  0  0  0  0  0
    0.9333    0.0655   -0.0356 O   0  6  0  0  0  0  0  0  0  0  0  0
    1.0853   -0.0173    0.0493 O   0  6  0  0  0  0  0  0  0  0  0  0
    1.0730   -0.0676    0.0105 O   0  6  0  0  0  0  0  0  0  0  0  0
    0.9343    0.0515   -0.0550 O   0  6  0  0  0  0  0  0  0  0  0  0
    1.0504    0.0329    0.0799 O   0  6  0  0  0  0  0  0  0  0  0  0
    0.9920    0.0952    0.0297 Mo  0  0  0  0  0  0  0  0  0  0  0  0
    0.9432    0.0551   -0.0612 Mo  0  0  0  0  0  0  0  0  0  0  0  0
    1.0620   -0.0431    0.0656 Mo  0  0  0  0  0  0  0  0  0  0  0  0
    1.0699    0.0409    0.0587 Mo  0  0  0  0  0  0  0  0  0  0  0  0
    1.0762   -0.0124   -0.0635 Mo  0  0  0  0  0  0  0  0  0  0  0  0
    1.0699    0.0376    0.0608 Mo  0  0  0  0  0  0  0  0  0  0  0  0
    0.9466   -0.0043    0.0844 Mo  0  0  0  0  0  0  0  0  0  0  0  0
    0.6084   -0.4503   -0.7591 H   0  0  0  0  0  0  0  0  0  0  0  0
    0.6084   -0.3711    0.9047 H   0  0  0  0  0  0  0  0  0  0  0  0
    0.6084    1.0302    0.0042 H   0  0  0  0  0  0  0  0  0  0  0  0
    1.9684    0.0696    0.0499 H   0  0  0  0  0  0  0  0  0  0  0  0
    0.7037   -0.8632   -0.2176 H   0  0  0  0  0  0  0  0  0  0  0  0
    0.7037    0.2613    1.0111 H   0  0  0  0  0  0  0  0  0  0  0  0
    0.7037    0.7632   -0.5771 H   0  0  0  0  0  0  0  0  0  0  0  0
    2.0637    0.0537    0.0721 H   0  0  0  0  0  0  0  0  0  0  0  0
    0.7438    0.7288   -0.7011 H   0  0  0  0  0  0  0  0  0  0  0  0
    0.7438   -0.8786   -0.2645 H   0  0  0  0  0  0  0  0  0  0  0  0
    0.7438    0.3033    0.9092 H   0  0  0  0  0  0  0  0  0  0  0  0
    2.1038    0.0512   -0.0188 H   0  0  0  0  0  0  0  0  0  0  0  0
    0.6183   -0.5941    0.6367 H   0  0  0  0  0  0  0  0  0  0  0  0
    0.6183    1.0004    0.1549 H   0  0  0  0  0  0  0  0  0  0  0  0
    0.6183   -0.2140   -0.9850 H   0  0  0  0  0  0  0  0  0  0  0  0
    1.9783    0.0641   -0.0645 H   0  0  0  0  0  0  0  0  0  0  0  0
    0.7294    0.9786   -0.3150 H   0  0  0  0  0  0  0  0  0  0  0  0
    0.7294   -0.6589   -0.6201 H   0  0  0  0  0  0  0  0  0  0  0  0
    0.7294   -0.1043    0.9506 H   0  0  0  0  0  0  0  0  0  0  0  0
    2.0894    0.0718    0.0052 H   0  0  0  0  0  0  0  0  0  0  0  0
    0.6970    0.8778   -0.3353 H   0  0  0  0  0  0  0  0  0  0  0  0
    0.6970   -0.7346   -0.7533 H   0  0  0  0  0  0  0  0  0  0  0  0
    0.6970   -0.2904    0.8520 H   0  0  0  0  0  0  0  0  0  0  0  0
    2.0570   -0.0491   -0.0789 H   0  0  0  0  0  0  0  0  0  0  0  0
    0.6359    0.3659    0.9672 H   0  0  0  0  0  0  0  0  0  0  0  0
    1.9692    0.0563    0.0767 H   0  0  0  0  0  0  0  0  0  0  0  0
    0.6522    0.9921   -0.1822 H   0  0  0  0  0  0  0  0  0  0  0  0
    1.9856    0.0546   -0.0826 H   0  0  0  0  0  0  0  0  0  0  0  0
    0.6389    0.0061   -0.8487 H   0  0  0  0  0  0  0  0  0  0  0  0
    1.9722   -0.0212    0.0937 H   0  0  0  0  0  0  0  0  0  0  0  0
    0.6191    0.6413   -0.5848 H   0  0  0  0  0  0  0  0  0  0  0  0
    1.9525   -0.0222    0.0851 H   0  0  0  0  0  0  0  0  0  0  0  0
  1 42  1  0  0  0  0
  1 43  1  0  0  0  0
  1 44  1  0  0  0  0
  1 45  1  0  0  0  0
  2 46  1  0  0  0  0
  2 47  1  0  0  0  0
  2 48  1  0  0  0  0
  2 49  1  0  0  0  0
  3 50  1  0  0  0  0
  3 51  1  0  0  0  0
  3 52  1  0  0  0  0
  3 53  1  0  0  0  0
  4 54  1  0  0  0  0
  4 55  1  0  0  0  0
  4 56  1  0  0  0  0
  4 57  1  0  0  0  0
  5 58  1  0  0  0  0
  5 59  1  0  0  0  0
  5 60  1  0  0  0  0
  5 61  1  0  0  0  0
  6 62  1  0  0  0  0
  6 63  1  0  0  0  0
  6 64  1  0  0  0  0
  6 65  1  0  0  0  0
  7 66  1  0  0  0  0
  7 67  1  0  0  0  0
  8 68  1  0  0  0  0
  8 69  1  0  0  0  0
  9 70  1  0  0  0  0
  9 71  1  0  0  0  0
 10 72  1  0  0  0  0
 10 73  1  0  0  0  0
M  CHG  8   1   1   2   1   3   1   4   1   5   1   6   1  11  -2  12  -2
M  CHG  8  13  -2  14  -2  15  -2  16  -2  17  -2  18  -2  19  -2  20  -2
M  CHG  8  21  -2  22  -2  23  -2  24  -2  25  -2  26  -2  27  -2  28  -2
M  CHG  8  29  -2  30  -2  31  -2  32  -2  33  -2  34  -2  35   6  36   6
M  CHG  5  37   6  38   6  39   6  40   6  41   6
M  END
>  <DRUGBANK_ID>
DB11128

>  <COMMON_NAME>
Ammonium molybdate

>  <CAS_NUMBER>
12054-85-2

>  <UNII>
OGI154X474

>  <SYNONYMS>
Ammonium molybdate; Ammonium molybdate tetrahydrate; Ammonium molybdate(VI) tetrahydrate; Ammonium paramolybdate tetrahydrate; Hexaammonium heptamolybdate tetrahydrate; Hexaammonium molybdate tetrahydrate; Molybdenum (as ammonium molybdate)

$$$$
