SBN
 OpenBabel10282417173D

 34 35  0  0  0  0  0  0  0  0999 V2000
    1.6015   -1.0210   -0.0206 C   0  0  0  0  0  0  0  0  0  0  0  0
    0.2114   -0.9421    0.0015 C   0  0  0  0  0  0  0  0  0  0  0  0
   -0.4086    0.3261   -0.0342 C   0  0  0  0  0  0  0  0  0  0  0  0
    0.3556    1.4972    0.0292 C   0  0  0  0  0  0  0  0  0  0  0  0
    1.7605    1.3971    0.0207 C   0  0  0  0  0  0  0  0  0  0  0  0
    2.3747    0.1396   -0.0213 C   0  0  0  0  0  0  0  0  0  0  0  0
   -0.3473    3.1402    0.1364 S   0  0  0  0  0  0  0  0  0  0  0  0
    0.1024    3.6939    1.4010 O   0  0  0  0  0  0  0  0  0  0  0  0
    0.0127    3.7883   -1.1129 O   0  0  0  0  0  0  0  0  0  0  0  0
   -2.1276    3.1175    0.2267 C   0  0  0  0  0  0  0  0  0  0  0  0
   -2.7612    2.4954    1.3127 C   0  0  0  0  0  0  0  0  0  0  0  0
   -4.1511    2.2937    1.2922 C   0  0  0  0  0  0  0  0  0  0  0  0
   -4.9028    2.8130    0.2252 C   0  0  0  0  0  0  0  0  0  0  0  0
   -4.2734    3.4931   -0.8314 C   0  0  0  0  0  0  0  0  0  0  0  0
   -2.8790    3.6283   -0.8326 C   0  0  0  0  0  0  0  0  0  0  0  0
   -2.9518    0.0395   -0.3291 N   0  0  0  0  0  0  0  0  0  0  0  0
   -1.8262    0.2663   -0.2040 C   0  0  0  0  0  0  0  0  0  0  0  0
   -0.5440   -2.1117   -0.0074 N   0  0  0  0  0  0  0  0  0  0  0  0
   -4.8087    1.4388    2.3405 C   0  0  0  0  0  0  0  0  0  0  0  0
   -5.0736    4.0809   -1.9566 C   0  0  0  0  0  0  0  0  0  0  0  0
    2.0870   -1.9938   -0.0504 H   0  0  0  0  0  0  0  0  0  0  0  0
    2.3884    2.2889    0.0292 H   0  0  0  0  0  0  0  0  0  0  0  0
    3.4595    0.0523   -0.0473 H   0  0  0  0  0  0  0  0  0  0  0  0
   -2.1658    2.0218    2.0917 H   0  0  0  0  0  0  0  0  0  0  0  0
   -5.9814    2.6575    0.2039 H   0  0  0  0  0  0  0  0  0  0  0  0
   -2.3875    4.1116   -1.6745 H   0  0  0  0  0  0  0  0  0  0  0  0
   -0.1143   -3.0226    0.0480 H   0  0  0  0  0  0  0  0  0  0  0  0
   -1.5595   -2.0784    0.0651 H   0  0  0  0  0  0  0  0  0  0  0  0
   -5.5198    2.0354    2.9159 H   0  0  0  0  0  0  0  0  0  0  0  0
   -5.3328    0.5888    1.8857 H   0  0  0  0  0  0  0  0  0  0  0  0
   -4.0692    1.0219    3.0338 H   0  0  0  0  0  0  0  0  0  0  0  0
   -5.6558    3.3152   -2.4783 H   0  0  0  0  0  0  0  0  0  0  0  0
   -5.7433    4.8522   -1.5654 H   0  0  0  0  0  0  0  0  0  0  0  0
   -4.4162    4.5571   -2.6929 H   0  0  0  0  0  0  0  0  0  0  0  0
  1  2  2  0  0  0  0
  1  6  1  0  0  0  0
  1 21  1  0  0  0  0
  2  3  1  0  0  0  0
  2 18  1  0  0  0  0
  3  4  2  0  0  0  0
  3 17  1  0  0  0  0
  4  5  1  0  0  0  0
  4  7  1  0  0  0  0
  5  6  2  0  0  0  0
  5 22  1  0  0  0  0
  6 23  1  0  0  0  0
  7  8  2  0  0  0  0
  7  9  2  0  0  0  0
  7 10  1  0  0  0  0
 10 11  2  0  0  0  0
 10 15  1  0  0  0  0
 11 12  1  0  0  0  0
 11 24  1  0  0  0  0
 12 13  2  0  0  0  0
 12 19  1  0  0  0  0
 13 14  1  0  0  0  0
 13 25  1  0  0  0  0
 14 15  2  0  0  0  0
 14 20  1  0  0  0  0
 15 26  1  0  0  0  0
 16 17  3  0  0  0  0
 18 27  1  0  0  0  0
 18 28  1  0  0  0  0
 19 29  1  0  0  0  0
 19 30  1  0  0  0  0
 19 31  1  0  0  0  0
 20 32  1  0  0  0  0
 20 33  1  0  0  0  0
 20 34  1  0  0  0  0
M  END
>  <DRUGBANK_ID>
DB08528

>  <COMMON_NAME>
2-AMINO-6-(3,5-DIMETHYLPHENYL)SULFONYLBENZONITRILE

$$$$
