
 OpenBabel10282417193D

 95 96  0  0  1  0  0  0  0  0999 V2000
    1.6771   -0.4900    0.4374 C   0  0  0  0  0  0  0  0  0  0  0  0
    0.7346   -1.6551    0.5705 C   0  0  0  0  0  0  0  0  0  0  0  0
   -0.6126   -1.5104    0.9951 C   0  0  0  0  0  0  0  0  0  0  0  0
   -0.7601   -0.2566    1.4708 C   0  0  0  0  0  0  0  0  0  0  0  0
    0.0947    0.8465    1.3195 C   0  0  0  0  0  0  0  0  0  0  0  0
    1.2795    0.8312    0.6519 C   0  0  0  0  0  0  0  0  0  0  0  0
    1.7937    2.1260   -0.0786 C   0  0  0  0  0  0  0  0  0  0  0  0
    1.5800    2.8527   -1.5299 C   0  0  3  0  0  0  0  0  0  0  0  0
    0.2606    3.6364   -1.6595 C   0  0  0  0  0  0  0  0  0  0  0  0
   -0.7888    3.1401   -0.8263 N   0  0  0  0  0  0  0  0  0  0  0  0
   -1.9692    3.2088   -1.6684 C   0  0  0  0  0  0  0  0  0  0  0  0
   -2.4411    2.0585   -2.9470 C   0  0  0  0  0  0  0  0  0  0  0  0
   -2.9293    0.5665   -2.7626 N   0  0  0  0  0  0  0  0  0  0  0  0
   -3.0870   -0.3863   -3.8450 C   0  0  0  0  0  0  0  0  0  0  0  0
   -1.7120   -1.0867   -3.9409 C   0  0  0  0  0  0  0  0  0  0  0  0
   -0.6517   -0.0885   -4.3355 N   0  0  0  0  0  0  0  0  0  0  0  0
    0.8278   -0.1185   -3.9884 C   0  0  0  0  0  0  0  0  0  0  0  0
    1.3108    0.8556   -2.8823 C   0  0  0  0  0  0  0  0  0  0  0  0
    1.9847    2.1335   -2.8104 N   0  0  0  0  0  0  0  0  0  0  0  0
    3.4271    1.9771   -2.9802 C   0  0  0  0  0  0  0  0  0  0  0  0
    4.1951    1.3389   -1.8240 C   0  0  0  0  0  0  0  0  0  0  0  0
    4.3787    0.1378   -1.6795 O   0  0  0  0  0  0  0  0  0  0  0  0
    4.5335    2.2052   -0.8323 O   0  0  0  0  0  0  0  0  0  0  0  0
   -0.7415   -0.2124   -5.7838 C   0  0  0  0  0  0  0  0  0  0  0  0
   -0.4261   -1.6848   -6.1316 C   0  0  0  0  0  0  0  0  0  0  0  0
   -1.2629   -2.5186   -6.4531 O   0  0  0  0  0  0  0  0  0  0  0  0
    0.8106   -2.0802   -5.7417 O   0  0  0  0  0  0  0  0  0  0  0  0
   -2.3138   -0.2520   -1.6896 C   0  0  0  0  0  0  0  0  0  0  0  0
   -0.8999   -0.3054   -1.6017 C   0  0  0  0  0  0  0  0  0  0  0  0
   -0.3297    0.7352   -1.2111 O   0  0  0  0  0  0  0  0  0  0  0  0
   -0.2421   -1.4359   -1.7932 O   0  0  0  0  0  0  0  0  0  0  0  0
   -0.8266    3.5081    0.6481 C   0  0  0  0  0  0  0  0  0  0  0  0
   -1.0833    4.8806    1.0870 C   0  0  0  0  0  0  0  0  0  0  0  0
   -1.8374    5.2071    1.9881 O   0  0  0  0  0  0  0  0  0  0  0  0
   -0.3193    5.7575    0.4361 O   0  0  0  0  0  0  0  0  0  0  0  0
   -1.8486   -2.2780    0.5599 N   0  0  0  0  0  0  0  0  0  0  0  0
   -3.2762   -2.1740    0.4947 C   0  0  0  0  0  0  0  0  0  0  0  0
   -4.1440   -3.5733    0.0968 S   0  0  0  0  0  0  0  0  0  0  0  0
   -4.1043   -1.0566    0.5271 N   0  0  0  0  0  0  0  0  0  0  0  0
   -3.9053    0.3386    0.7465 C   0  0  0  0  0  0  0  0  0  0  0  0
   -3.9145    1.2967   -0.3952 C   0  0  0  0  0  0  0  0  0  0  0  0
   -5.1007    1.9293   -1.0015 C   0  0  0  0  0  0  0  0  0  0  0  0
   -5.2701    3.0031    0.0231 C   0  0  0  0  0  0  0  0  0  0  0  0
   -4.3711    4.2355   -0.0815 C   0  0  1  0  0  0  0  0  0  0  0  0
   -4.4739    5.0722   -1.3789 C   0  0  0  0  0  0  0  0  0  0  0  0
   -4.5785    6.2869   -1.4265 O   0  0  0  0  0  0  0  0  0  0  0  0
   -4.3062    4.3652   -2.5189 O   0  0  0  0  0  0  0  0  0  0  0  0
   -4.5364    5.0053    1.1458 N   0  0  0  0  0  0  0  0  0  0  0  0
    2.6437   -0.6300   -0.0346 H   0  0  0  0  0  0  0  0  0  0  0  0
    1.0504   -2.5405    0.0191 H   0  0  0  0  0  0  0  0  0  0  0  0
   -1.5263    0.1201    0.8658 H   0  0  0  0  0  0  0  0  0  0  0  0
   -0.5430    1.5586    0.8311 H   0  0  0  0  0  0  0  0  0  0  0  0
    1.9368    2.9619    0.6218 H   0  0  0  0  0  0  0  0  0  0  0  0
    2.7518    1.7370   -0.1910 H   0  0  0  0  0  0  0  0  0  0  0  0
    2.2548    3.7207   -1.5600 H   0  0  0  0  0  0  0  0  0  0  0  0
   -0.0687    3.6080   -2.7147 H   0  0  0  0  0  0  0  0  0  0  0  0
    0.3687    4.7040   -1.4693 H   0  0  0  0  0  0  0  0  0  0  0  0
   -2.6244    3.0862   -0.8901 H   0  0  0  0  0  0  0  0  0  0  0  0
   -2.1277    4.2712   -1.9239 H   0  0  0  0  0  0  0  0  0  0  0  0
   -1.6157    2.0697   -3.6345 H   0  0  0  0  0  0  0  0  0  0  0  0
   -3.2948    2.5445   -3.4666 H   0  0  0  0  0  0  0  0  0  0  0  0
   -3.4993    0.0688   -4.7409 H   0  0  0  0  0  0  0  0  0  0  0  0
   -3.8191   -1.1619   -3.5202 H   0  0  0  0  0  0  0  0  0  0  0  0
   -1.6955   -2.0512   -4.4155 H   0  0  0  0  0  0  0  0  0  0  0  0
   -1.6700   -1.6483   -3.0239 H   0  0  0  0  0  0  0  0  0  0  0  0
    1.4431    0.1665   -4.8388 H   0  0  0  0  0  0  0  0  0  0  0  0
    1.0935   -1.1372   -3.6947 H   0  0  0  0  0  0  0  0  0  0  0  0
    1.7522    0.2497   -2.0844 H   0  0  0  0  0  0  0  0  0  0  0  0
    0.3612    1.3187   -2.7813 H   0  0  0  0  0  0  0  0  0  0  0  0
    3.5640    1.3224   -3.8442 H   0  0  0  0  0  0  0  0  0  0  0  0
    3.8329    2.9555   -3.2294 H   0  0  0  0  0  0  0  0  0  0  0  0
    4.5348    1.6705    0.0006 H   0  0  0  0  0  0  0  0  0  0  0  0
   -1.7711    0.0378   -6.0637 H   0  0  0  0  0  0  0  0  0  0  0  0
   -0.0952    0.5062   -6.2727 H   0  0  0  0  0  0  0  0  0  0  0  0
    0.7984   -3.0561   -5.6748 H   0  0  0  0  0  0  0  0  0  0  0  0
   -2.2974    0.2025   -0.7460 H   0  0  0  0  0  0  0  0  0  0  0  0
   -2.8180   -1.1938   -1.5061 H   0  0  0  0  0  0  0  0  0  0  0  0
    0.6796   -1.1433   -1.7406 H   0  0  0  0  0  0  0  0  0  0  0  0
   -1.5692    2.9120    1.2192 H   0  0  0  0  0  0  0  0  0  0  0  0
    0.1239    3.3051    1.1623 H   0  0  0  0  0  0  0  0  0  0  0  0
   -0.7160    6.6130    0.6612 H   0  0  0  0  0  0  0  0  0  0  0  0
   -1.5642   -3.1535    0.1180 H   0  0  0  0  0  0  0  0  0  0  0  0
   -5.0214   -1.1788    0.1060 H   0  0  0  0  0  0  0  0  0  0  0  0
   -3.8407    0.9136    1.6792 H   0  0  0  0  0  0  0  0  0  0  0  0
   -2.9474    0.0823    0.9718 H   0  0  0  0  0  0  0  0  0  0  0  0
   -3.1594    1.9048    0.0775 H   0  0  0  0  0  0  0  0  0  0  0  0
   -3.2867    1.4389   -1.1942 H   0  0  0  0  0  0  0  0  0  0  0  0
   -5.0129    2.3189   -2.0360 H   0  0  0  0  0  0  0  0  0  0  0  0
   -5.8251    1.1275   -1.1256 H   0  0  0  0  0  0  0  0  0  0  0  0
   -6.3085    3.2606    0.0483 H   0  0  0  0  0  0  0  0  0  0  0  0
   -5.0182    2.5362    0.9872 H   0  0  0  0  0  0  0  0  0  0  0  0
   -3.3328    4.0660    0.1321 H   0  0  0  0  0  0  0  0  0  0  0  0
   -4.2545    4.9338   -3.3159 H   0  0  0  0  0  0  0  0  0  0  0  0
   -3.7477    5.6598    1.1993 H   0  0  0  0  0  0  0  0  0  0  0  0
   -5.3999    5.5122    1.0960 H   0  0  0  0  0  0  0  0  0  0  0  0
  1  2  2  0  0  0  0
  1  6  1  0  0  0  0
  1 49  1  0  0  0  0
  2  3  1  0  0  0  0
  2 50  1  0  0  0  0
  3  4  2  0  0  0  0
  3 36  1  0  0  0  0
  4  5  1  0  0  0  0
  4 51  1  0  0  0  0
  5  6  2  0  0  0  0
  5 52  1  0  0  0  0
  6  7  1  0  0  0  0
  7  8  1  0  0  0  0
  7 53  1  0  0  0  0
  7 54  1  0  0  0  0
  8  9  1  0  0  0  0
  8 19  1  0  0  0  0
  8 55  1  0  0  0  0
  9 10  1  0  0  0  0
  9 56  1  0  0  0  0
  9 57  1  0  0  0  0
 10 11  1  0  0  0  0
 10 32  1  0  0  0  0
 11 12  1  0  0  0  0
 11 58  1  0  0  0  0
 11 59  1  0  0  0  0
 12 13  1  0  0  0  0
 12 60  1  0  0  0  0
 12 61  1  0  0  0  0
 13 14  1  0  0  0  0
 13 28  1  0  0  0  0
 14 15  1  0  0  0  0
 14 62  1  0  0  0  0
 14 63  1  0  0  0  0
 15 16  1  0  0  0  0
 15 64  1  0  0  0  0
 15 65  1  0  0  0  0
 16 17  1  0  0  0  0
 16 24  1  0  0  0  0
 17 18  1  0  0  0  0
 17 66  1  0  0  0  0
 17 67  1  0  0  0  0
 18 19  1  0  0  0  0
 18 68  1  0  0  0  0
 18 69  1  0  0  0  0
 19 20  1  0  0  0  0
 20 21  1  0  0  0  0
 20 70  1  0  0  0  0
 20 71  1  0  0  0  0
 21 22  2  0  0  0  0
 21 23  1  0  0  0  0
 23 72  1  0  0  0  0
 24 25  1  0  0  0  0
 24 73  1  0  0  0  0
 24 74  1  0  0  0  0
 25 26  2  0  0  0  0
 25 27  1  0  0  0  0
 27 75  1  0  0  0  0
 28 29  1  0  0  0  0
 28 76  1  0  0  0  0
 28 77  1  0  0  0  0
 29 30  2  0  0  0  0
 29 31  1  0  0  0  0
 31 78  1  0  0  0  0
 32 33  1  0  0  0  0
 32 79  1  0  0  0  0
 32 80  1  0  0  0  0
 33 34  2  0  0  0  0
 33 35  1  0  0  0  0
 35 81  1  0  0  0  0
 36 37  1  0  0  0  0
 36 82  1  0  0  0  0
 37 38  2  0  0  0  0
 37 39  1  0  0  0  0
 39 40  1  0  0  0  0
 39 83  1  0  0  0  0
 40 41  1  0  0  0  0
 40 84  1  0  0  0  0
 40 85  1  0  0  0  0
 41 42  1  0  0  0  0
 41 86  1  0  0  0  0
 41 87  1  0  0  0  0
 42 43  1  0  0  0  0
 42 88  1  0  0  0  0
 42 89  1  0  0  0  0
 43 44  1  0  0  0  0
 43 90  1  0  0  0  0
 43 91  1  0  0  0  0
 44 45  1  0  0  0  0
 44 48  1  0  0  0  0
 44 92  1  1  0  0  0
 45 46  2  0  0  0  0
 45 47  1  0  0  0  0
 47 93  1  0  0  0  0
 48 94  1  0  0  0  0
 48 95  1  0  0  0  0
M  END
>  <DRUGBANK_ID>
DB12227

>  <COMMON_NAME>
Tetulomab tetraxetan Lu-177

>  <UNII>
6QU69VIG75

>  <SYNONYMS>
177Lu-tetraxetan-tetulomab; 177Lu-tetulomab; Anti-CD37 antibody tetulomab tetraxetan Lu-177; Betalutin

$$$$
