
 OpenBabel10282417193D

 70 73  0  0  0  0  0  0  0  0999 V2000
    0.9519   -0.0709    0.0055 C   0  0  0  0  0  0  0  0  0  0  0  0
    0.4518   -0.1660    1.4409 C   0  0  0  0  0  0  0  0  0  0  0  0
    0.9782    0.9843    2.2887 C   0  0  0  0  0  0  0  0  0  0  0  0
   -1.0333   -0.2139    1.4555 C   0  0  0  0  0  0  0  0  0  0  0  0
   -1.8374    0.8978    1.4616 N   0  0  0  0  0  0  0  0  0  0  0  0
   -3.1387    0.4754    1.5567 C   0  0  0  0  0  0  0  0  0  0  0  0
   -4.3495    1.1658    1.6723 C   0  0  0  0  0  0  0  0  0  0  0  0
   -5.4464    0.2780    1.5744 C   0  0  0  0  0  0  0  0  0  0  0  0
   -5.3919   -1.1023    1.5020 C   0  0  0  0  0  0  0  0  0  0  0  0
   -4.1751   -1.7231    1.4864 C   0  0  0  0  0  0  0  0  0  0  0  0
   -3.0389   -0.9140    1.4900 C   0  0  0  0  0  0  0  0  0  0  0  0
   -1.7414   -1.3181    1.4478 N   0  0  0  0  0  0  0  0  0  0  0  0
   -4.3378    2.6796    1.7824 C   0  0  0  0  0  0  0  0  0  0  0  0
   -3.2833    3.2976    1.5913 O   0  0  0  0  0  0  0  0  0  0  0  0
   -5.4671    3.4283    2.0684 N   0  0  0  0  0  0  0  0  0  0  0  0
   -6.8204    2.9659    2.0457 C   0  0  0  0  0  0  0  0  0  0  0  0
   -7.8455    3.2753    3.1096 C   0  0  0  0  0  0  0  0  0  0  0  0
   -9.0937    2.3402    3.0737 C   0  0  0  0  0  0  0  0  0  0  0  0
  -10.3023    2.7271    2.1953 C   0  0  0  0  0  0  0  0  0  0  0  0
  -10.6365    4.1374    2.0279 N   0  0  0  0  0  0  0  0  0  0  0  0
   -9.4789    5.0147    2.1202 C   0  0  0  0  0  0  0  0  0  0  0  0
   -8.2914    4.7240    3.0439 C   0  0  0  0  0  0  0  0  0  0  0  0
  -11.2647    4.3449    0.6596 C   0  0  0  0  0  0  0  0  0  0  0  0
  -10.4955    4.0543   -0.7430 C   0  0  0  0  0  0  0  0  0  0  0  0
  -10.1176    2.5765   -1.0299 C   0  0  0  0  0  0  0  0  0  0  0  0
   -8.7382    2.1890   -0.5147 C   0  0  0  0  0  0  0  0  0  0  0  0
   -7.7125    3.0903   -0.9986 N   0  0  0  0  0  0  0  0  0  0  0  0
   -7.9125    4.5159   -0.6960 C   0  0  0  0  0  0  0  0  0  0  0  0
   -9.2954    4.9822   -1.1288 C   0  0  0  0  0  0  0  0  0  0  0  0
   -6.4441    2.5677   -1.0734 C   0  0  0  0  0  0  0  0  0  0  0  0
   -6.2059    1.3475   -1.0654 O   0  0  0  0  0  0  0  0  0  0  0  0
   -5.4998    3.5256   -1.0919 O   0  0  0  0  0  0  0  0  0  0  0  0
   -4.1928    3.0525   -1.3688 C   0  0  0  0  0  0  0  0  0  0  0  0
    0.6017    0.8504   -0.4730 H   0  0  0  0  0  0  0  0  0  0  0  0
    0.5896   -0.9136   -0.5953 H   0  0  0  0  0  0  0  0  0  0  0  0
    2.0451   -0.0796   -0.0202 H   0  0  0  0  0  0  0  0  0  0  0  0
    0.8152   -1.1080    1.8744 H   0  0  0  0  0  0  0  0  0  0  0  0
    0.6555    1.9523    1.8896 H   0  0  0  0  0  0  0  0  0  0  0  0
    0.6098    0.9091    3.3183 H   0  0  0  0  0  0  0  0  0  0  0  0
    2.0706    0.9785    2.3098 H   0  0  0  0  0  0  0  0  0  0  0  0
   -1.5424    1.8676    1.4306 H   0  0  0  0  0  0  0  0  0  0  0  0
   -6.4781    0.5171    1.4459 H   0  0  0  0  0  0  0  0  0  0  0  0
   -6.3289   -1.6463    1.4312 H   0  0  0  0  0  0  0  0  0  0  0  0
   -4.1177   -2.7996    1.4385 H   0  0  0  0  0  0  0  0  0  0  0  0
   -5.3370    4.3781    1.7177 H   0  0  0  0  0  0  0  0  0  0  0  0
   -7.1359    3.3503    1.1328 H   0  0  0  0  0  0  0  0  0  0  0  0
   -6.9040    1.9463    1.8632 H   0  0  0  0  0  0  0  0  0  0  0  0
   -7.3055    3.0675    4.0396 H   0  0  0  0  0  0  0  0  0  0  0  0
   -8.7872    1.3146    2.8079 H   0  0  0  0  0  0  0  0  0  0  0  0
   -9.4732    2.2949    4.0943 H   0  0  0  0  0  0  0  0  0  0  0  0
  -10.1533    2.3528    1.2171 H   0  0  0  0  0  0  0  0  0  0  0  0
  -11.1682    2.0928    2.4239 H   0  0  0  0  0  0  0  0  0  0  0  0
   -9.7101    6.0862    2.1212 H   0  0  0  0  0  0  0  0  0  0  0  0
   -9.1268    4.9017    1.1446 H   0  0  0  0  0  0  0  0  0  0  0  0
   -8.5514    5.0351    4.0511 H   0  0  0  0  0  0  0  0  0  0  0  0
   -7.4350    5.3337    2.7155 H   0  0  0  0  0  0  0  0  0  0  0  0
  -12.1981    3.7615    0.6513 H   0  0  0  0  0  0  0  0  0  0  0  0
  -11.5987    5.3940    0.6261 H   0  0  0  0  0  0  0  0  0  0  0  0
  -11.2706    4.2946   -1.4884 H   0  0  0  0  0  0  0  0  0  0  0  0
  -10.9058    1.9051   -0.6641 H   0  0  0  0  0  0  0  0  0  0  0  0
  -10.0715    2.4155   -2.1129 H   0  0  0  0  0  0  0  0  0  0  0  0
   -8.6250    2.2835    0.5488 H   0  0  0  0  0  0  0  0  0  0  0  0
   -8.5386    1.1145   -0.6201 H   0  0  0  0  0  0  0  0  0  0  0  0
   -7.1007    5.1762   -1.0091 H   0  0  0  0  0  0  0  0  0  0  0  0
   -7.7472    4.6748    0.3533 H   0  0  0  0  0  0  0  0  0  0  0  0
   -9.2146    5.0048   -2.2199 H   0  0  0  0  0  0  0  0  0  0  0  0
   -9.4881    6.0086   -0.7978 H   0  0  0  0  0  0  0  0  0  0  0  0
   -3.8301    2.3605   -0.6140 H   0  0  0  0  0  0  0  0  0  0  0  0
   -4.1959    2.5408   -2.3295 H   0  0  0  0  0  0  0  0  0  0  0  0
   -3.5289    3.9169   -1.3924 H   0  0  0  0  0  0  0  0  0  0  0  0
  1  2  1  0  0  0  0
  1 34  1  0  0  0  0
  1 35  1  0  0  0  0
  1 36  1  0  0  0  0
  2  3  1  0  0  0  0
  2  4  1  0  0  0  0
  2 37  1  0  0  0  0
  3 38  1  0  0  0  0
  3 39  1  0  0  0  0
  3 40  1  0  0  0  0
  4  5  1  0  0  0  0
  4 12  2  0  0  0  0
  5  6  1  0  0  0  0
  5 41  1  0  0  0  0
  6  7  2  0  0  0  0
  6 11  1  0  0  0  0
  7  8  1  0  0  0  0
  7 13  1  0  0  0  0
  8  9  2  0  0  0  0
  8 42  1  0  0  0  0
  9 10  1  0  0  0  0
  9 43  1  0  0  0  0
 10 11  2  0  0  0  0
 10 44  1  0  0  0  0
 11 12  1  0  0  0  0
 13 14  2  0  0  0  0
 13 15  1  0  0  0  0
 15 16  1  0  0  0  0
 15 45  1  0  0  0  0
 16 17  1  0  0  0  0
 16 46  1  0  0  0  0
 16 47  1  0  0  0  0
 17 18  1  0  0  0  0
 17 22  1  0  0  0  0
 17 48  1  0  0  0  0
 18 19  1  0  0  0  0
 18 49  1  0  0  0  0
 18 50  1  0  0  0  0
 19 20  1  0  0  0  0
 19 51  1  0  0  0  0
 19 52  1  0  0  0  0
 20 21  1  0  0  0  0
 20 23  1  0  0  0  0
 21 22  1  0  0  0  0
 21 53  1  0  0  0  0
 21 54  1  0  0  0  0
 22 55  1  0  0  0  0
 22 56  1  0  0  0  0
 23 24  1  0  0  0  0
 23 57  1  0  0  0  0
 23 58  1  0  0  0  0
 24 25  1  0  0  0  0
 24 29  1  0  0  0  0
 24 59  1  0  0  0  0
 25 26  1  0  0  0  0
 25 60  1  0  0  0  0
 25 61  1  0  0  0  0
 26 27  1  0  0  0  0
 26 62  1  0  0  0  0
 26 63  1  0  0  0  0
 27 28  1  0  0  0  0
 27 30  1  0  0  0  0
 28 29  1  0  0  0  0
 28 64  1  0  0  0  0
 28 65  1  0  0  0  0
 29 66  1  0  0  0  0
 29 67  1  0  0  0  0
 30 31  2  0  0  0  0
 30 32  1  0  0  0  0
 32 33  1  0  0  0  0
 33 68  1  0  0  0  0
 33 69  1  0  0  0  0
 33 70  1  0  0  0  0
M  END
>  <DRUGBANK_ID>
DB12725

>  <COMMON_NAME>
Felcisetrag

>  <CAS_NUMBER>
916075-84-8

>  <UNII>
35F0Y2W16Q

>  <SYNONYMS>
Felcisetrag

$$$$
