MMG
 OpenBabel10282417173D

 38 41  0  0  0  0  0  0  0  0999 V2000
    1.3743   -0.2010    0.0092 C   0  0  0  0  0  0  0  0  0  0  0  0
   -0.8773   -1.0724   -0.0176 C   0  0  0  0  0  0  0  0  0  0  0  0
    0.7435   -5.2417   -4.3511 C   0  0  0  0  0  0  0  0  0  0  0  0
   -0.6493   -6.9551   -3.3963 C   0  0  0  0  0  0  0  0  0  0  0  0
   -0.0731   -5.2214   -5.4921 C   0  0  0  0  0  0  0  0  0  0  0  0
    0.7291   -3.5058   -1.1430 C   0  0  0  0  0  0  0  0  0  0  0  0
    0.5079   -1.3034   -0.0078 C   0  0  0  0  0  0  0  0  0  0  0  0
   -1.2106   -6.0422   -5.5841 C   0  0  0  0  0  0  0  0  0  0  0  0
    1.2377   -4.8149   -1.1451 C   0  0  0  0  0  0  0  0  0  0  0  0
   -2.0300   -5.9580   -6.8336 C   0  0  0  0  0  0  0  0  0  0  0  0
   -0.5081    1.3103    0.0332 C   0  0  0  0  0  0  0  0  0  0  0  0
    0.8687    1.0985    0.0003 C   0  0  0  0  0  0  0  0  0  0  0  0
   -1.3826    0.2269   -0.0007 C   0  0  0  0  0  0  0  0  0  0  0  0
   -1.4915   -6.9074   -4.5199 C   0  0  0  0  0  0  0  0  0  0  0  0
    1.8237   -6.9844   -1.3858 C   0  0  0  0  0  0  0  0  0  0  0  0
    1.8506   -3.1796    0.9508 C   0  0  0  0  0  0  0  0  0  0  0  0
    0.4353   -6.0799   -3.2754 C   0  0  0  0  0  0  0  0  0  0  0  0
    1.0338   -2.6662   -0.0598 C   0  0  0  0  0  0  0  0  0  0  0  0
    1.1513   -5.9519   -2.0134 C   0  0  0  0  0  0  0  0  0  0  0  0
    2.0118   -5.1862   -0.0521 C   0  0  0  0  0  0  0  0  0  0  0  0
    2.3616   -6.4966   -0.2175 N   0  0  0  0  0  0  0  0  0  0  0  0
    2.3644   -4.4335    1.0068 N   0  0  0  0  0  0  0  0  0  0  0  0
   -1.7294   -5.2043   -7.7524 O   0  0  0  0  0  0  0  0  0  0  0  0
   -3.1106   -6.7586   -6.9170 O   0  0  0  0  0  0  0  0  0  0  0  0
    2.4523   -0.3510    0.0125 H   0  0  0  0  0  0  0  0  0  0  0  0
   -1.5717   -1.9109   -0.0296 H   0  0  0  0  0  0  0  0  0  0  0  0
    1.6190   -4.5958   -4.3120 H   0  0  0  0  0  0  0  0  0  0  0  0
   -0.8699   -7.6667   -2.6036 H   0  0  0  0  0  0  0  0  0  0  0  0
    0.1795   -4.5429   -6.3074 H   0  0  0  0  0  0  0  0  0  0  0  0
    0.1094   -3.1532   -1.9618 H   0  0  0  0  0  0  0  0  0  0  0  0
   -0.9007    2.3217    0.0864 H   0  0  0  0  0  0  0  0  0  0  0  0
    1.5505    1.9435   -0.0422 H   0  0  0  0  0  0  0  0  0  0  0  0
   -2.4565    0.3915   -0.0223 H   0  0  0  0  0  0  0  0  0  0  0  0
   -2.3621   -7.5511   -4.5083 H   0  0  0  0  0  0  0  0  0  0  0  0
    1.9801   -8.0168   -1.6651 H   0  0  0  0  0  0  0  0  0  0  0  0
    2.1189   -2.5540    1.8022 H   0  0  0  0  0  0  0  0  0  0  0  0
    2.9173   -7.0068    0.4530 H   0  0  0  0  0  0  0  0  0  0  0  0
   -3.3115   -7.3483   -6.1734 H   0  0  0  0  0  0  0  0  0  0  0  0
  1  7  1  0  0  0  0
  1 25  1  0  0  0  0
  2  7  2  0  0  0  0
  2 26  1  0  0  0  0
  3 27  1  0  0  0  0
  4 17  1  0  0  0  0
  4 28  1  0  0  0  0
  5  3  1  0  0  0  0
  5 29  1  0  0  0  0
  6  9  1  0  0  0  0
  6 30  1  0  0  0  0
  7 18  1  0  0  0  0
  8  5  2  0  0  0  0
  9 19  1  0  0  0  0
  9 20  2  0  0  0  0
 10  8  1  0  0  0  0
 10 24  1  0  0  0  0
 11 13  2  0  0  0  0
 11 12  1  0  0  0  0
 11 31  1  0  0  0  0
 12  1  2  0  0  0  0
 12 32  1  0  0  0  0
 13  2  1  0  0  0  0
 13 33  1  0  0  0  0
 14  4  2  0  0  0  0
 14  8  1  0  0  0  0
 14 34  1  0  0  0  0
 15 21  1  0  0  0  0
 15 35  1  0  0  0  0
 16 22  2  0  0  0  0
 16 36  1  0  0  0  0
 17  3  2  0  0  0  0
 17 19  1  0  0  0  0
 18  6  2  0  0  0  0
 18 16  1  0  0  0  0
 19 15  2  0  0  0  0
 20 21  1  0  0  0  0
 21 37  1  0  0  0  0
 22 20  1  0  0  0  0
 23 10  2  0  0  0  0
 24 38  1  0  0  0  0
M  END
>  <DRUGBANK_ID>
DB08191

>  <COMMON_NAME>
4-(5-phenyl-1H-pyrrolo[2,3-b]pyridin-3-yl)benzoic acid

$$$$
