
 OpenBabel10282417153D

 57 57  0  0  0  0  0  0  0  0999 V2000
    1.4576   -0.2060    0.0072 C   0  0  0  0  0  0  0  0  0  0  0  0
   -0.4959    1.2759    0.0420 C   0  0  0  0  0  0  0  0  0  0  0  0
   -0.8300   -1.1216   -0.0338 C   0  0  0  0  0  0  0  0  0  0  0  0
    0.5602   -1.2791   -0.0125 C   0  0  0  0  0  0  0  0  0  0  0  0
    0.8947    1.0720   -0.0296 C   0  0  0  0  0  0  0  0  0  0  0  0
   -1.3332    0.1698   -0.0464 C   0  0  0  0  0  0  0  0  0  0  0  0
    2.9259   -0.4655    0.1634 C   0  0  0  0  0  0  0  0  0  0  0  0
    8.5167    2.0324    0.6733 C   0  0  0  0  0  0  0  0  0  0  0  0
    9.9861    1.9407    0.8278 C   0  0  0  0  0  0  0  0  0  0  0  0
   -1.0676    2.6555    0.3545 C   0  0  0  0  0  0  0  0  0  0  0  0
   -1.8009   -2.2938    0.0408 C   0  0  0  0  0  0  0  0  0  0  0  0
    5.2386    0.3761    0.4046 C   0  0  0  0  0  0  0  0  0  0  0  0
    7.6097    1.0331    0.6265 C   0  0  0  0  0  0  0  0  0  0  0  0
    3.8172    0.5490    0.2322 C   0  0  0  0  0  0  0  0  0  0  0  0
    6.1731    1.3384    0.4632 C   0  0  0  0  0  0  0  0  0  0  0  0
   10.7280    2.9141    0.8595 O   0  0  0  0  0  0  0  0  0  0  0  0
   10.4733    0.7022    0.9342 O   0  0  0  0  0  0  0  0  0  0  0  0
    3.3255   -1.9283    0.2974 C   0  0  0  0  0  0  0  0  0  0  0  0
   -0.4777    3.1305    1.7001 C   0  0  0  0  0  0  0  0  0  0  0  0
   -0.6906    3.6246   -0.7686 C   0  0  0  0  0  0  0  0  0  0  0  0
   -2.6675   -2.1701    1.3141 C   0  0  0  0  0  0  0  0  0  0  0  0
   -2.7085   -2.2809   -1.2015 C   0  0  0  0  0  0  0  0  0  0  0  0
   -1.0509   -3.6336    0.0983 C   0  0  0  0  0  0  0  0  0  0  0  0
   -2.6059    2.6383    0.5070 C   0  0  0  0  0  0  0  0  0  0  0  0
    7.9546   -0.4373    0.7275 C   0  0  0  0  0  0  0  0  0  0  0  0
    0.9581   -2.2834    0.0076 H   0  0  0  0  0  0  0  0  0  0  0  0
    1.5301    1.9489   -0.0609 H   0  0  0  0  0  0  0  0  0  0  0  0
   -2.4101    0.2930   -0.0708 H   0  0  0  0  0  0  0  0  0  0  0  0
    8.1860    3.0664    0.5913 H   0  0  0  0  0  0  0  0  0  0  0  0
    5.5680   -0.6469    0.4884 H   0  0  0  0  0  0  0  0  0  0  0  0
    3.5000    1.5837    0.1661 H   0  0  0  0  0  0  0  0  0  0  0  0
    5.8624    2.3789    0.3814 H   0  0  0  0  0  0  0  0  0  0  0  0
   11.4430    0.7454    1.0319 H   0  0  0  0  0  0  0  0  0  0  0  0
    2.8496   -2.3797    1.1768 H   0  0  0  0  0  0  0  0  0  0  0  0
    3.0482   -2.4896   -0.6014 H   0  0  0  0  0  0  0  0  0  0  0  0
    4.3901   -2.1095    0.4302 H   0  0  0  0  0  0  0  0  0  0  0  0
    0.6156    3.2017    1.6724 H   0  0  0  0  0  0  0  0  0  0  0  0
   -0.8617    4.1184    1.9715 H   0  0  0  0  0  0  0  0  0  0  0  0
   -0.7326    2.4349    2.5108 H   0  0  0  0  0  0  0  0  0  0  0  0
   -1.0901    3.2776   -1.7285 H   0  0  0  0  0  0  0  0  0  0  0  0
   -1.0864    4.6245   -0.5694 H   0  0  0  0  0  0  0  0  0  0  0  0
    0.3949    3.7179   -0.8807 H   0  0  0  0  0  0  0  0  0  0  0  0
   -3.2755   -1.2572    1.3210 H   0  0  0  0  0  0  0  0  0  0  0  0
   -3.3593   -3.0142    1.3993 H   0  0  0  0  0  0  0  0  0  0  0  0
   -2.0454   -2.1473    2.2173 H   0  0  0  0  0  0  0  0  0  0  0  0
   -2.1136   -2.3293   -2.1207 H   0  0  0  0  0  0  0  0  0  0  0  0
   -3.3979   -3.1303   -1.1904 H   0  0  0  0  0  0  0  0  0  0  0  0
   -3.3197   -1.3722   -1.2600 H   0  0  0  0  0  0  0  0  0  0  0  0
   -0.4208   -3.7640   -0.7906 H   0  0  0  0  0  0  0  0  0  0  0  0
   -0.4031   -3.6791    0.9841 H   0  0  0  0  0  0  0  0  0  0  0  0
   -1.7343   -4.4828    0.1478 H   0  0  0  0  0  0  0  0  0  0  0  0
   -3.0927    2.3092   -0.4197 H   0  0  0  0  0  0  0  0  0  0  0  0
   -2.9174    1.9562    1.3108 H   0  0  0  0  0  0  0  0  0  0  0  0
   -3.0028    3.6264    0.7513 H   0  0  0  0  0  0  0  0  0  0  0  0
    7.4680   -0.8800    1.6029 H   0  0  0  0  0  0  0  0  0  0  0  0
    7.6523   -0.9602   -0.1861 H   0  0  0  0  0  0  0  0  0  0  0  0
    8.9990   -0.6877    0.8460 H   0  0  0  0  0  0  0  0  0  0  0  0
  2  5  2  0  0  0  0
  3  4  1  0  0  0  0
  4  1  2  0  0  0  0
  4 26  1  0  0  0  0
  5  1  1  0  0  0  0
  5 27  1  0  0  0  0
  6  2  1  0  0  0  0
  6  3  2  0  0  0  0
  6 28  1  0  0  0  0
  7  1  1  0  0  0  0
  8 13  2  0  0  0  0
  8 29  1  0  0  0  0
  9  8  1  0  0  0  0
 10  2  1  0  0  0  0
 11  3  1  0  0  0  0
 12 14  1  0  0  0  0
 12 30  1  0  0  0  0
 13 15  1  0  0  0  0
 14  7  2  0  0  0  0
 14 31  1  0  0  0  0
 15 12  2  0  0  0  0
 15 32  1  0  0  0  0
 16  9  2  0  0  0  0
 17  9  1  0  0  0  0
 17 33  1  0  0  0  0
 18  7  1  0  0  0  0
 18 34  1  0  0  0  0
 18 35  1  0  0  0  0
 18 36  1  0  0  0  0
 19 10  1  0  0  0  0
 19 37  1  0  0  0  0
 19 38  1  0  0  0  0
 19 39  1  0  0  0  0
 20 10  1  0  0  0  0
 20 40  1  0  0  0  0
 20 41  1  0  0  0  0
 20 42  1  0  0  0  0
 21 11  1  0  0  0  0
 21 43  1  0  0  0  0
 21 44  1  0  0  0  0
 21 45  1  0  0  0  0
 22 11  1  0  0  0  0
 22 46  1  0  0  0  0
 22 47  1  0  0  0  0
 22 48  1  0  0  0  0
 23 11  1  0  0  0  0
 23 49  1  0  0  0  0
 23 50  1  0  0  0  0
 23 51  1  0  0  0  0
 24 10  1  0  0  0  0
 24 52  1  0  0  0  0
 24 53  1  0  0  0  0
 24 54  1  0  0  0  0
 25 13  1  0  0  0  0
 25 55  1  0  0  0  0
 25 56  1  0  0  0  0
 25 57  1  0  0  0  0
M  END
>  <DRUGBANK_ID>
DB05785

>  <COMMON_NAME>
LGD-1550

>  <CAS_NUMBER>
178600-20-9

>  <UNII>
H62AOA2IYF

$$$$
