PTB
 OpenBabel10282417133D

 33 34  0  0  0  0  0  0  0  0999 V2000
   -0.9975    0.6111    0.1128 N   0  0  0  0  0  0  0  0  0  0  0  0
   -0.8357   -0.8205   -0.2694 C   0  0  2  0  0  0  0  0  0  0  0  0
   -1.9157   -1.7117    0.3627 C   0  0  0  0  0  0  0  0  0  0  0  0
   -1.6459   -2.8253    0.8193 O   0  0  0  0  0  0  0  0  0  0  0  0
    0.5640   -1.1350    0.2264 C   0  0  0  0  0  0  0  0  0  0  0  0
    1.3379    0.1201   -0.1271 C   0  0  0  0  0  0  0  0  0  0  0  0
    0.3166    1.2421   -0.0460 C   0  0  0  0  0  0  0  0  0  0  0  0
   -3.2357   -1.1370    0.3573 C   0  0  0  0  0  0  0  0  0  0  0  0
   -4.0101   -0.9533    1.4064 N   0  0  0  0  0  0  0  0  0  0  0  0
   -5.0531   -0.1589    0.9762 N   0  0  0  0  0  0  0  0  0  0  0  0
   -4.8570    0.0581   -0.3097 C   0  0  0  0  0  0  0  0  0  0  0  0
   -3.7203   -0.5434   -0.7774 O   0  0  0  0  0  0  0  0  0  0  0  0
   -5.6977    0.8410   -1.2749 C   0  0  0  0  0  0  0  0  0  0  0  0
   -7.1419    0.3204   -1.1929 C   0  0  0  0  0  0  0  0  0  0  0  0
   -5.6631    2.3306   -0.8957 C   0  0  0  0  0  0  0  0  0  0  0  0
   -5.1956    0.6924   -2.7224 C   0  0  0  0  0  0  0  0  0  0  0  0
   -0.8979   -0.9198   -1.3604 H   0  0  0  0  0  0  0  0  0  0  0  0
   -1.2444    0.6645    1.1059 H   0  0  0  0  0  0  0  0  0  0  0  0
    0.5753   -1.2938    1.3125 H   0  0  0  0  0  0  0  0  0  0  0  0
    0.9884   -2.0258   -0.2468 H   0  0  0  0  0  0  0  0  0  0  0  0
    2.1858    0.2795    0.5450 H   0  0  0  0  0  0  0  0  0  0  0  0
    1.7211    0.0441   -1.1514 H   0  0  0  0  0  0  0  0  0  0  0  0
    0.5148    1.8975    0.8090 H   0  0  0  0  0  0  0  0  0  0  0  0
    0.3340    1.8600   -0.9492 H   0  0  0  0  0  0  0  0  0  0  0  0
   -7.5483    0.4268   -0.1798 H   0  0  0  0  0  0  0  0  0  0  0  0
   -7.8025    0.8647   -1.8759 H   0  0  0  0  0  0  0  0  0  0  0  0
   -7.1913   -0.7442   -1.4524 H   0  0  0  0  0  0  0  0  0  0  0  0
   -4.6456    2.7346   -0.9626 H   0  0  0  0  0  0  0  0  0  0  0  0
   -6.2998    2.9225   -1.5637 H   0  0  0  0  0  0  0  0  0  0  0  0
   -6.0130    2.4956    0.1299 H   0  0  0  0  0  0  0  0  0  0  0  0
   -4.1738    1.0756   -2.8337 H   0  0  0  0  0  0  0  0  0  0  0  0
   -5.1900   -0.3569   -3.0399 H   0  0  0  0  0  0  0  0  0  0  0  0
   -5.8323    1.2476   -3.4206 H   0  0  0  0  0  0  0  0  0  0  0  0
  1  2  1  0  0  0  0
  1  7  1  0  0  0  0
  1 18  1  0  0  0  0
  2  5  1  0  0  0  0
  2 17  1  6  0  0  0
  2  3  1  0  0  0  0
  3  4  2  0  0  0  0
  3  8  1  0  0  0  0
  5  6  1  0  0  0  0
  5 19  1  0  0  0  0
  5 20  1  0  0  0  0
  6  7  1  0  0  0  0
  6 21  1  0  0  0  0
  6 22  1  0  0  0  0
  7 23  1  0  0  0  0
  7 24  1  0  0  0  0
  8  9  2  0  0  0  0
  8 12  1  0  0  0  0
  9 10  1  0  0  0  0
 10 11  2  0  0  0  0
 11 12  1  0  0  0  0
 11 13  1  0  0  0  0
 13 14  1  0  0  0  0
 13 15  1  0  0  0  0
 13 16  1  0  0  0  0
 14 25  1  0  0  0  0
 14 26  1  0  0  0  0
 14 27  1  0  0  0  0
 15 28  1  0  0  0  0
 15 29  1  0  0  0  0
 15 30  1  0  0  0  0
 16 31  1  0  0  0  0
 16 32  1  0  0  0  0
 16 33  1  0  0  0  0
M  END
>  <DRUGBANK_ID>
DB03833

>  <SECONDARY_ACCESSION_NUMBERS>
EXPT02680

>  <COMMON_NAME>
2-Prolyl-5-Tert-Butyl-[1,3,4]Oxadiazole

$$$$
