
 OpenBabel10282417213D

 61 64  0  0  1  0  0  0  0  0999 V2000
   -1.2814   -2.2176   -0.2655 C   0  0  0  0  0  0  0  0  0  0  0  0
    0.0963   -1.9412   -0.5038 O   0  0  0  0  0  0  0  0  0  0  0  0
    0.9786   -2.6276    0.4101 C   0  0  0  0  0  0  0  0  0  0  0  0
    0.5961   -2.3319    1.8363 C   0  0  2  0  0  0  0  0  0  0  0  0
    0.7686   -0.8805    1.9156 C   0  0  0  0  0  0  0  0  0  0  0  0
    1.1884   -3.0984    2.8631 O   0  0  0  0  0  0  0  0  0  0  0  0
    2.5215   -3.1002    3.0891 C   0  0  0  0  0  0  0  0  0  0  0  0
    3.3625   -1.9988    3.1223 C   0  0  0  0  0  0  0  0  0  0  0  0
    4.6481   -1.9674    3.5895 C   0  0  0  0  0  0  0  0  0  0  0  0
    5.1994   -3.2033    3.8478 C   0  0  0  0  0  0  0  0  0  0  0  0
    4.3874   -4.3620    3.8510 C   0  0  0  0  0  0  0  0  0  0  0  0
    4.8102   -5.5978    4.2801 O   0  0  0  0  0  0  0  0  0  0  0  0
    6.0854   -5.6670    4.8027 C   0  0  0  0  0  0  0  0  0  0  0  0
    6.4581   -4.8676    5.8341 N   0  0  0  0  0  0  0  0  0  0  0  0
    7.7793   -4.9390    6.1712 C   0  0  0  0  0  0  0  0  0  0  0  0
    8.6711   -5.7927    5.5226 C   0  0  0  0  0  0  0  0  0  0  0  0
    8.2645   -6.6119    4.5095 N   0  0  0  0  0  0  0  0  0  0  0  0
    6.9604   -6.5269    4.1724 C   0  0  0  0  0  0  0  0  0  0  0  0
   10.0860   -5.9614    6.0211 C   0  0  0  0  0  0  0  0  0  0  0  0
   10.4756   -5.3572    6.9911 O   0  0  0  0  0  0  0  0  0  0  0  0
   10.7797   -6.9865    5.3805 N   0  0  0  0  0  0  0  0  0  0  0  0
   11.4102   -6.9546    4.0586 C   0  0  0  0  0  0  0  0  0  0  0  0
   12.6579   -7.5497    4.7253 C   0  0  0  0  0  0  0  0  0  0  0  0
   11.7671   -7.9140    5.9101 C   0  0  0  0  0  0  0  0  0  0  0  0
    3.0521   -4.3122    3.4487 C   0  0  0  0  0  0  0  0  0  0  0  0
    5.3900   -0.6600    3.7285 C   0  0  0  0  0  0  0  0  0  0  0  0
    6.5911   -0.7182    3.9689 O   0  0  0  0  0  0  0  0  0  0  0  0
    4.8270    0.6044    3.4864 N   0  0  0  0  0  0  0  0  0  0  0  0
    3.4927    1.0740    3.4032 C   0  0  0  0  0  0  0  0  0  0  0  0
    2.5449    0.6461    4.2616 N   0  0  0  0  0  0  0  0  0  0  0  0
    1.2353    0.9642    3.9528 C   0  0  0  0  0  0  0  0  0  0  0  0
    0.8347    1.6870    2.8023 C   0  0  0  0  0  0  0  0  0  0  0  0
   -0.5884    1.6134    2.2079 C   0  0  0  0  0  0  0  0  0  0  0  0
    1.8072    2.1663    1.9837 N   0  0  0  0  0  0  0  0  0  0  0  0
    3.1102    1.8606    2.3090 C   0  0  0  0  0  0  0  0  0  0  0  0
   -1.8766   -1.7714   -1.0610 H   0  0  0  0  0  0  0  0  0  0  0  0
   -1.6520   -1.7650    0.6639 H   0  0  0  0  0  0  0  0  0  0  0  0
   -1.4166   -3.2989   -0.2352 H   0  0  0  0  0  0  0  0  0  0  0  0
    1.0006   -3.6932    0.2151 H   0  0  0  0  0  0  0  0  0  0  0  0
    1.9869   -2.2213    0.2331 H   0  0  0  0  0  0  0  0  0  0  0  0
   -0.4734   -2.4662    2.0271 H   0  0  0  0  0  0  0  0  0  0  0  0
    0.7185   -0.3024    0.9834 H   0  0  0  0  0  0  0  0  0  0  0  0
    0.0523   -0.6051    2.6721 H   0  0  0  0  0  0  0  0  0  0  0  0
    1.7158   -0.5873    2.2447 H   0  0  0  0  0  0  0  0  0  0  0  0
    3.1144   -1.0572    2.7471 H   0  0  0  0  0  0  0  0  0  0  0  0
    6.2592   -3.2489    4.0631 H   0  0  0  0  0  0  0  0  0  0  0  0
    8.0809   -4.2920    6.9895 H   0  0  0  0  0  0  0  0  0  0  0  0
    6.6234   -7.1491    3.3535 H   0  0  0  0  0  0  0  0  0  0  0  0
   10.8928   -7.6200    3.3613 H   0  0  0  0  0  0  0  0  0  0  0  0
   11.5754   -5.9755    3.6024 H   0  0  0  0  0  0  0  0  0  0  0  0
   13.1244   -8.3957    4.2085 H   0  0  0  0  0  0  0  0  0  0  0  0
   13.4414   -6.8216    4.9658 H   0  0  0  0  0  0  0  0  0  0  0  0
   12.1756   -7.7241    6.9024 H   0  0  0  0  0  0  0  0  0  0  0  0
   11.3597   -8.9319    5.8666 H   0  0  0  0  0  0  0  0  0  0  0  0
    2.4205   -5.1960    3.3947 H   0  0  0  0  0  0  0  0  0  0  0  0
    5.5318    1.3299    3.4454 H   0  0  0  0  0  0  0  0  0  0  0  0
    0.5311    0.3469    4.5160 H   0  0  0  0  0  0  0  0  0  0  0  0
   -0.9125    0.6548    1.7679 H   0  0  0  0  0  0  0  0  0  0  0  0
   -1.3544    1.8187    2.9525 H   0  0  0  0  0  0  0  0  0  0  0  0
   -0.6748    2.2615    1.3316 H   0  0  0  0  0  0  0  0  0  0  0  0
    3.8328    2.1739    1.5613 H   0  0  0  0  0  0  0  0  0  0  0  0
  1  2  1  0  0  0  0
  1 36  1  0  0  0  0
  1 37  1  0  0  0  0
  1 38  1  0  0  0  0
  2  3  1  0  0  0  0
  3 39  1  0  0  0  0
  3 40  1  0  0  0  0
  4  6  1  0  0  0  0
  4 41  1  1  0  0  0
  4  5  1  0  0  0  0
  4  3  1  0  0  0  0
  5 42  1  0  0  0  0
  5 43  1  0  0  0  0
  5 44  1  0  0  0  0
  6  7  1  0  0  0  0
  7  8  2  0  0  0  0
  7 25  1  0  0  0  0
  8  9  1  0  0  0  0
  8 45  1  0  0  0  0
  9 10  2  0  0  0  0
  9 26  1  0  0  0  0
 10 11  1  0  0  0  0
 10 46  1  0  0  0  0
 11 12  1  0  0  0  0
 11 25  2  0  0  0  0
 12 13  1  0  0  0  0
 13 14  2  0  0  0  0
 13 18  1  0  0  0  0
 14 15  1  0  0  0  0
 15 16  2  0  0  0  0
 15 47  1  0  0  0  0
 16 17  1  0  0  0  0
 16 19  1  0  0  0  0
 17 18  2  0  0  0  0
 18 48  1  0  0  0  0
 19 20  2  0  0  0  0
 19 21  1  0  0  0  0
 21 22  1  0  0  0  0
 21 24  1  0  0  0  0
 22 23  1  0  0  0  0
 22 49  1  0  0  0  0
 22 50  1  0  0  0  0
 23 24  1  0  0  0  0
 23 51  1  0  0  0  0
 23 52  1  0  0  0  0
 24 53  1  0  0  0  0
 24 54  1  0  0  0  0
 25 55  1  0  0  0  0
 26 27  2  0  0  0  0
 26 28  1  0  0  0  0
 28 29  1  0  0  0  0
 28 56  1  0  0  0  0
 29 30  2  0  0  0  0
 29 35  1  0  0  0  0
 30 31  1  0  0  0  0
 31 32  2  0  0  0  0
 31 57  1  0  0  0  0
 32 33  1  0  0  0  0
 32 34  1  0  0  0  0
 33 58  1  0  0  0  0
 33 59  1  0  0  0  0
 33 60  1  0  0  0  0
 34 35  2  0  0  0  0
 35 61  1  0  0  0  0
M  END
>  <DRUGBANK_ID>
DB14810

>  <COMMON_NAME>
AZD-1656

>  <CAS_NUMBER>
919783-22-5

>  <UNII>
660M185X4D

$$$$
