
 OpenBabel10282417233D

  5  4  0  0  0  0  0  0  0  0999 V2000
    0.9540   -0.0869   -0.0182 O   0  5  0  0  0  0  0  0  0  0  0  0
    3.1540   -0.0869   -0.0182 Mo  0  0  0  0  0  0  0  0  0  0  0  0
    3.8103   -1.5781    1.0874 O   0  0  0  0  0  0  0  0  0  0  0  0
    3.8103   -0.2988   -1.8625 O   0  0  0  0  0  0  0  0  0  0  0  0
    3.8873    1.8160    0.8071 O   0  5  0  0  0  0  0  0  0  0  0  0
  1  2  1  0  0  0  0
  2  4  2  0  0  0  0
  2  5  1  0  0  0  0
  2  3  2  0  0  0  0
M  ISO  1   2  99
M  CHG  2   1  -1   5  -1
M  END
>  <DRUGBANK_ID>
DB16587

>  <COMMON_NAME>
Molybdate Mo-99

>  <CAS_NUMBER>
72826-31-4

>  <UNII>
7608GL58YX

>  <SYNONYMS>
Molybdate ion Mo 99; Molybdate ion Mo-99; Molybdate Mo 99; Molybdate Mo-99

$$$$
