
 OpenBabel10282417163D

 57 59  0  0  0  0  0  0  0  0999 V2000
    1.0221   -0.1455    0.0261 Cl  0  0  0  0  0  0  0  0  0  0  0  0
    9.0878   -0.5433   -1.7909 O   0  0  0  0  0  0  0  0  0  0  0  0
    8.2598   -0.5564    1.3507 N   0  0  0  0  0  0  0  0  0  0  0  0
    3.4445   -0.0445   -1.3043 C   0  0  0  0  0  0  0  0  0  0  0  0
    4.9435   -0.2182   -1.4667 C   0  0  0  0  0  0  0  0  0  0  0  0
    2.7822   -0.0715   -0.1039 C   0  0  0  0  0  0  0  0  0  0  0  0
    2.6706    0.0551   -2.5793 C   0  0  0  0  0  0  0  0  0  0  0  0
    3.3945   -0.0906    1.2362 C   0  0  0  0  0  0  0  0  0  0  0  0
    5.5869   -1.3577   -0.9634 C   0  0  0  0  0  0  0  0  0  0  0  0
    5.6993    0.6366   -2.3013 C   0  0  0  0  0  0  0  0  0  0  0  0
    1.6506    0.9945   -2.7654 C   0  0  0  0  0  0  0  0  0  0  0  0
    3.0828   -0.7201   -3.6777 C   0  0  0  0  0  0  0  0  0  0  0  0
    7.7161   -0.7345   -1.9997 C   0  0  0  0  0  0  0  0  0  0  0  0
    6.9446   -1.6386   -1.2505 C   0  0  0  0  0  0  0  0  0  0  0  0
    7.0616    0.3713   -2.5893 C   0  0  0  0  0  0  0  0  0  0  0  0
    3.0615   -1.0594    2.1946 C   0  0  0  0  0  0  0  0  0  0  0  0
    4.3351    0.8848    1.5851 C   0  0  0  0  0  0  0  0  0  0  0  0
    1.0105    1.1074   -3.9940 C   0  0  0  0  0  0  0  0  0  0  0  0
    2.5111   -0.5352   -4.9302 C   0  0  0  0  0  0  0  0  0  0  0  0
    3.7489   -1.1688    3.3985 C   0  0  0  0  0  0  0  0  0  0  0  0
    5.0008    0.7865    2.7994 C   0  0  0  0  0  0  0  0  0  0  0  0
    1.4521    0.3544   -5.0791 C   0  0  0  0  0  0  0  0  0  0  0  0
    4.7579   -0.2508    3.6877 C   0  0  0  0  0  0  0  0  0  0  0  0
    9.7715   -1.1670   -0.6605 C   0  0  0  0  0  0  0  0  0  0  0  0
    9.6165   -0.6472    0.8322 C   0  0  0  0  0  0  0  0  0  0  0  0
    8.0758   -0.5426    2.7853 C   0  0  0  0  0  0  0  0  0  0  0  0
    7.4937    0.4954    0.7057 C   0  0  0  0  0  0  0  0  0  0  0  0
    8.3944    0.8193    3.3740 C   0  0  0  0  0  0  0  0  0  0  0  0
    7.7669    1.9717    0.5315 C   0  0  0  0  0  0  0  0  0  0  0  0
    5.0879   -1.9578   -0.2051 H   0  0  0  0  0  0  0  0  0  0  0  0
    5.2528    1.5568   -2.6821 H   0  0  0  0  0  0  0  0  0  0  0  0
    1.3391    1.6494   -1.9554 H   0  0  0  0  0  0  0  0  0  0  0  0
    3.8901   -1.4445   -3.5754 H   0  0  0  0  0  0  0  0  0  0  0  0
    7.4215   -2.3909   -0.6291 H   0  0  0  0  0  0  0  0  0  0  0  0
    7.6441    1.1386   -3.0996 H   0  0  0  0  0  0  0  0  0  0  0  0
    2.2632   -1.7778    1.9940 H   0  0  0  0  0  0  0  0  0  0  0  0
    4.6333    1.6465    0.8705 H   0  0  0  0  0  0  0  0  0  0  0  0
    0.1851    1.8039   -4.1028 H   0  0  0  0  0  0  0  0  0  0  0  0
    2.9039   -1.0785   -5.7846 H   0  0  0  0  0  0  0  0  0  0  0  0
    3.5376   -1.9734    4.0907 H   0  0  0  0  0  0  0  0  0  0  0  0
    5.8208    1.4756    2.9897 H   0  0  0  0  0  0  0  0  0  0  0  0
    0.9762    0.4703   -6.0466 H   0  0  0  0  0  0  0  0  0  0  0  0
    5.3845   -0.3881    4.5619 H   0  0  0  0  0  0  0  0  0  0  0  0
    9.6294   -2.2495   -0.7076 H   0  0  0  0  0  0  0  0  0  0  0  0
   10.8373   -0.9984   -0.8701 H   0  0  0  0  0  0  0  0  0  0  0  0
   10.1755   -1.3573    1.4614 H   0  0  0  0  0  0  0  0  0  0  0  0
   10.1140    0.3191    0.9609 H   0  0  0  0  0  0  0  0  0  0  0  0
    7.0363   -0.8265    2.9535 H   0  0  0  0  0  0  0  0  0  0  0  0
    8.6290   -1.3353    3.2985 H   0  0  0  0  0  0  0  0  0  0  0  0
    7.7066    0.2913   -0.2868 H   0  0  0  0  0  0  0  0  0  0  0  0
    6.4472    0.2662    0.8008 H   0  0  0  0  0  0  0  0  0  0  0  0
    7.8252    1.6214    2.9150 H   0  0  0  0  0  0  0  0  0  0  0  0
    8.1366    0.8777    4.4292 H   0  0  0  0  0  0  0  0  0  0  0  0
    9.4425    1.0672    3.2036 H   0  0  0  0  0  0  0  0  0  0  0  0
    8.8364    2.1548    0.4265 H   0  0  0  0  0  0  0  0  0  0  0  0
    7.3012    2.2903   -0.4131 H   0  0  0  0  0  0  0  0  0  0  0  0
    7.3181    2.5917    1.2994 H   0  0  0  0  0  0  0  0  0  0  0  0
  1  6  1  0  0  0  0
  2 13  1  0  0  0  0
  2 24  1  0  0  0  0
  3 25  1  0  0  0  0
  3 26  1  0  0  0  0
  3 27  1  0  0  0  0
  4  5  1  0  0  0  0
  4  6  2  0  0  0  0
  4  7  1  0  0  0  0
  5  9  2  0  0  0  0
  5 10  1  0  0  0  0
  6  8  1  0  0  0  0
  7 11  2  0  0  0  0
  7 12  1  0  0  0  0
  8 16  2  0  0  0  0
  8 17  1  0  0  0  0
  9 14  1  0  0  0  0
  9 30  1  0  0  0  0
 10 15  2  0  0  0  0
 10 31  1  0  0  0  0
 11 18  1  0  0  0  0
 11 32  1  0  0  0  0
 12 19  2  0  0  0  0
 12 33  1  0  0  0  0
 13 14  2  0  0  0  0
 13 15  1  0  0  0  0
 14 34  1  0  0  0  0
 15 35  1  0  0  0  0
 16 20  1  0  0  0  0
 16 36  1  0  0  0  0
 17 21  2  0  0  0  0
 17 37  1  0  0  0  0
 18 22  2  0  0  0  0
 18 38  1  0  0  0  0
 19 22  1  0  0  0  0
 19 39  1  0  0  0  0
 20 23  2  0  0  0  0
 20 40  1  0  0  0  0
 21 23  1  0  0  0  0
 21 41  1  0  0  0  0
 22 42  1  0  0  0  0
 23 43  1  0  0  0  0
 24 25  1  0  0  0  0
 24 44  1  0  0  0  0
 24 45  1  0  0  0  0
 25 46  1  0  0  0  0
 25 47  1  0  0  0  0
 26 28  1  0  0  0  0
 26 48  1  0  0  0  0
 26 49  1  0  0  0  0
 27 29  1  0  0  0  0
 27 50  1  0  0  0  0
 27 51  1  0  0  0  0
 28 52  1  0  0  0  0
 28 53  1  0  0  0  0
 28 54  1  0  0  0  0
 29 55  1  0  0  0  0
 29 56  1  0  0  0  0
 29 57  1  0  0  0  0
M  END
>  <DRUGBANK_ID>
DB06735

>  <COMMON_NAME>
Enclomiphene

>  <CAS_NUMBER>
15690-57-0

>  <UNII>
R6D2UI4FLS

>  <SYNONYMS>
Enclomifene; Enclomifeno; Enclomifenum; Enclomiphene; trans-Clomifene; trans-Clomiphene

$$$$
