
 OpenBabel10282417243D

 59 58  0  0  1  0  0  0  0  0999 V2000
    0.9185   -0.0516    0.0330 C   0  0  0  0  0  0  0  0  0  0  0  0
    0.5266   -0.8948    1.2372 C   0  0  0  0  0  0  0  0  0  0  0  0
    1.0651   -0.3960    2.4742 O   0  0  0  0  0  0  0  0  0  0  0  0
    2.4114   -0.2921    2.6075 C   0  0  0  0  0  0  0  0  0  0  0  0
    3.2301   -0.7093    1.7922 O   0  0  0  0  0  0  0  0  0  0  0  0
    2.8177    0.3843    3.8970 C   0  0  0  0  0  0  0  0  0  0  0  0
    2.3005    1.8097    4.0215 C   0  0  0  0  0  0  0  0  0  0  0  0
    0.7848    1.8816    4.0413 C   0  0  0  0  0  0  0  0  0  0  0  0
    0.2159    1.1216    5.2066 C   0  0  0  0  0  0  0  0  0  0  0  0
   -0.5518    1.6868    6.1380 C   0  0  0  0  0  0  0  0  0  0  0  0
   -0.9248    3.1190    6.0765 C   0  0  0  0  0  0  0  0  0  0  0  0
   -2.4006    3.2830    6.0380 C   0  0  0  0  0  0  0  0  0  0  0  0
   -3.0520    4.0278    6.9327 C   0  0  0  0  0  0  0  0  0  0  0  0
   -2.3535    4.6999    8.0632 C   0  0  0  0  0  0  0  0  0  0  0  0
   -2.6081    6.1666    8.0723 C   0  0  0  0  0  0  0  0  0  0  0  0
   -3.1189    6.8230    9.1185 C   0  0  0  0  0  0  0  0  0  0  0  0
   -3.4862    6.1505   10.3317 C   0  0  0  0  0  0  0  0  0  0  0  0
   -3.9995    6.7568   11.3999 C   0  0  0  0  0  0  0  0  0  0  0  0
   -4.4396    5.9573   12.5819 C   0  0  1  0  0  0  0  0  0  0  0  0
   -3.7367    6.4392   13.7180 O   0  0  0  0  0  0  0  0  0  0  0  0
   -5.9406    6.1206   12.7937 C   0  0  0  0  0  0  0  0  0  0  0  0
   -6.7481    5.5031   11.6778 C   0  0  0  0  0  0  0  0  0  0  0  0
   -7.5932    4.4722   11.8169 C   0  0  0  0  0  0  0  0  0  0  0  0
   -7.8881    3.7811   13.1140 C   0  0  0  0  0  0  0  0  0  0  0  0
   -9.3375    3.9783   13.5051 C   0  0  0  0  0  0  0  0  0  0  0  0
    0.5568    0.9765    0.1388 H   0  0  0  0  0  0  0  0  0  0  0  0
    0.5078   -0.4795   -0.8857 H   0  0  0  0  0  0  0  0  0  0  0  0
    2.0021    0.0089   -0.0868 H   0  0  0  0  0  0  0  0  0  0  0  0
   -0.5676   -0.8680    1.3305 H   0  0  0  0  0  0  0  0  0  0  0  0
    0.8169   -1.9418    1.1224 H   0  0  0  0  0  0  0  0  0  0  0  0
    2.5165   -0.2392    4.7444 H   0  0  0  0  0  0  0  0  0  0  0  0
    3.9114    0.4220    3.9255 H   0  0  0  0  0  0  0  0  0  0  0  0
    2.6937    2.2672    4.9424 H   0  0  0  0  0  0  0  0  0  0  0  0
    2.6677    2.4270    3.1932 H   0  0  0  0  0  0  0  0  0  0  0  0
    0.5480    2.9425    4.0247 H   0  0  0  0  0  0  0  0  0  0  0  0
    0.3153    1.5291    3.1248 H   0  0  0  0  0  0  0  0  0  0  0  0
    0.4407    0.0630    5.3157 H   0  0  0  0  0  0  0  0  0  0  0  0
   -0.8993    1.1029    6.9897 H   0  0  0  0  0  0  0  0  0  0  0  0
   -0.3917    3.5769    6.9054 H   0  0  0  0  0  0  0  0  0  0  0  0
   -0.5695    3.6789    5.2164 H   0  0  0  0  0  0  0  0  0  0  0  0
   -2.9440    2.8023    5.2268 H   0  0  0  0  0  0  0  0  0  0  0  0
   -4.1329    4.1217    6.8671 H   0  0  0  0  0  0  0  0  0  0  0  0
   -2.6608    4.1500    8.9504 H   0  0  0  0  0  0  0  0  0  0  0  0
   -1.2690    4.6123    8.0806 H   0  0  0  0  0  0  0  0  0  0  0  0
   -2.3045    6.7227    7.1862 H   0  0  0  0  0  0  0  0  0  0  0  0
   -3.2544    7.8983    9.0540 H   0  0  0  0  0  0  0  0  0  0  0  0
   -3.3751    5.0737   10.4028 H   0  0  0  0  0  0  0  0  0  0  0  0
   -4.1854    7.8241   11.4014 H   0  0  0  0  0  0  0  0  0  0  0  0
   -4.2005    4.8882   12.4779 H   0  0  0  0  0  0  0  0  0  0  0  0
   -2.7928    6.2928   13.5351 H   0  0  0  0  0  0  0  0  0  0  0  0
   -6.1671    5.6911   13.7699 H   0  0  0  0  0  0  0  0  0  0  0  0
   -6.2100    7.1776   12.8940 H   0  0  0  0  0  0  0  0  0  0  0  0
   -6.6192    5.9343   10.6835 H   0  0  0  0  0  0  0  0  0  0  0  0
   -8.1175    4.1051   10.9344 H   0  0  0  0  0  0  0  0  0  0  0  0
   -7.6402    2.7198   13.0236 H   0  0  0  0  0  0  0  0  0  0  0  0
   -7.2788    4.1532   13.9385 H   0  0  0  0  0  0  0  0  0  0  0  0
  -10.0047    3.4934   12.7875 H   0  0  0  0  0  0  0  0  0  0  0  0
   -9.5119    3.5466   14.4945 H   0  0  0  0  0  0  0  0  0  0  0  0
   -9.5918    5.0437   13.5523 H   0  0  0  0  0  0  0  0  0  0  0  0
  1  2  1  0  0  0  0
  1 26  1  0  0  0  0
  1 27  1  0  0  0  0
  1 28  1  0  0  0  0
  2  3  1  0  0  0  0
  2 29  1  0  0  0  0
  2 30  1  0  0  0  0
  3  4  1  0  0  0  0
  4  5  2  0  0  0  0
  4  6  1  0  0  0  0
  6  7  1  0  0  0  0
  6 31  1  0  0  0  0
  6 32  1  0  0  0  0
  7  8  1  0  0  0  0
  7 33  1  0  0  0  0
  7 34  1  0  0  0  0
  8  9  1  0  0  0  0
  8 35  1  0  0  0  0
  8 36  1  0  0  0  0
  9 10  2  0  0  0  0
  9 37  1  0  0  0  0
 10 11  1  0  0  0  0
 10 38  1  0  0  0  0
 11 12  1  0  0  0  0
 11 39  1  0  0  0  0
 11 40  1  0  0  0  0
 12 13  2  0  0  0  0
 12 41  1  0  0  0  0
 13 14  1  0  0  0  0
 13 42  1  0  0  0  0
 14 15  1  0  0  0  0
 14 43  1  0  0  0  0
 14 44  1  0  0  0  0
 15 16  2  0  0  0  0
 15 45  1  0  0  0  0
 16 17  1  0  0  0  0
 16 46  1  0  0  0  0
 17 18  2  0  0  0  0
 17 47  1  0  0  0  0
 18 48  1  0  0  0  0
 19 18  1  0  0  0  0
 19 20  1  0  0  0  0
 19 21  1  0  0  0  0
 19 49  1  6  0  0  0
 20 50  1  0  0  0  0
 21 22  1  0  0  0  0
 21 51  1  0  0  0  0
 21 52  1  0  0  0  0
 22 23  2  0  0  0  0
 22 53  1  0  0  0  0
 23 24  1  0  0  0  0
 23 54  1  0  0  0  0
 24 25  1  0  0  0  0
 24 55  1  0  0  0  0
 24 56  1  0  0  0  0
 25 57  1  0  0  0  0
 25 58  1  0  0  0  0
 25 59  1  0  0  0  0
M  END
>  <DRUGBANK_ID>
DB18100

>  <COMMON_NAME>
Epeleuton

>  <CAS_NUMBER>
1667760-39-5

>  <UNII>
FA9BPX1T6V

>  <SYNONYMS>
15(s)-hydroxy-(5z,8z,11z,13e,17z)-eicosapentaenoic acid ethyl ester; 5,8,11,13,17-eicosapentaenoic acid, 15-hydroxy-, ethyl ester, (5z,8z,11z,13e,15s,17z)-

$$$$
