DRF
 OpenBabel10282417163D

 56 59  0  0  0  0  0  0  0  0999 V2000
    0.9162   -0.0713   -0.2083 O   0  0  0  0  0  0  0  0  0  0  0  0
    0.2969    0.9121   -0.9050 C   0  0  0  0  0  0  0  0  0  0  0  0
    0.9189    1.6406   -1.6802 O   0  0  0  0  0  0  0  0  0  0  0  0
   -1.2045    0.9943   -0.6619 C   0  0  1  0  0  0  0  0  0  0  0  0
   -1.7404   -0.0955   -1.4462 O   0  0  0  0  0  0  0  0  0  0  0  0
   -1.2525   -0.0717   -2.7887 C   0  0  0  0  0  0  0  0  0  0  0  0
   -1.7243    1.1820   -3.4952 C   0  0  0  0  0  0  0  0  0  0  0  0
   -1.7774    0.8205    0.7866 C   0  0  0  0  0  0  0  0  0  0  0  0
   -1.8865    1.8754    1.8892 C   0  0  0  0  0  0  0  0  0  0  0  0
   -2.3404    3.0730    1.3146 C   0  0  0  0  0  0  0  0  0  0  0  0
   -2.3766    4.1526    2.2639 C   0  0  0  0  0  0  0  0  0  0  0  0
   -1.5005    4.3941    3.7943 C   0  0  0  0  0  0  0  0  0  0  0  0
   -0.1092    5.7299    3.8174 O   0  0  0  0  0  0  0  0  0  0  0  0
    0.1397    7.2621    2.7410 C   0  0  0  0  0  0  0  0  0  0  0  0
    0.5395    7.2973    1.2500 C   0  0  0  0  0  0  0  0  0  0  0  0
   -0.5290    6.5596    0.4950 N   0  0  0  0  0  0  0  0  0  0  0  0
   -2.0003    7.1730    1.4928 C   0  0  0  0  0  0  0  0  0  0  0  0
   -1.7675    6.8859    3.4231 C   0  0  0  0  0  0  0  0  0  0  0  0
   -1.1375    5.7192    2.2356 O   0  0  0  0  0  0  0  0  0  0  0  0
    0.0980    4.8983    1.9262 C   0  0  0  0  0  0  0  0  0  0  0  0
    0.2010    5.2376    0.6722 C   0  0  0  0  0  0  0  0  0  0  0  0
    0.8250    4.1931    0.0160 C   0  0  0  0  0  0  0  0  0  0  0  0
    1.2448    2.9031    0.6817 C   0  0  0  0  0  0  0  0  0  0  0  0
    1.0362    2.5041    1.9299 C   0  0  0  0  0  0  0  0  0  0  0  0
    0.3895    3.5753    2.3770 C   0  0  0  0  0  0  0  0  0  0  0  0
   -0.7527    7.8956    4.4296 C   0  0  0  0  0  0  0  0  0  0  0  0
   -0.1656    9.4614    3.6542 C   0  0  0  0  0  0  0  0  0  0  0  0
   -0.8248    9.8008    2.0156 C   0  0  0  0  0  0  0  0  0  0  0  0
   -1.7636    8.7368    1.0734 C   0  0  0  0  0  0  0  0  0  0  0  0
   -1.0668    3.1137    4.4304 C   0  0  0  0  0  0  0  0  0  0  0  0
   -1.3268    1.7835    3.4651 C   0  0  0  0  0  0  0  0  0  0  0  0
   -1.5559    1.9339   -1.1013 H   0  0  0  0  0  0  0  0  0  0  0  0
    1.8867    0.0780   -0.2213 H   0  0  0  0  0  0  0  0  0  0  0  0
   -0.1595   -0.1477   -2.8206 H   0  0  0  0  0  0  0  0  0  0  0  0
   -1.6152   -0.9777   -3.2681 H   0  0  0  0  0  0  0  0  0  0  0  0
   -1.3523    2.1046   -3.0333 H   0  0  0  0  0  0  0  0  0  0  0  0
   -1.3664    1.1904   -4.5209 H   0  0  0  0  0  0  0  0  0  0  0  0
   -2.8147    1.2311   -3.4482 H   0  0  0  0  0  0  0  0  0  0  0  0
   -2.8597    0.7181    0.5934 H   0  0  0  0  0  0  0  0  0  0  0  0
   -1.3543   -0.0580    1.2425 H   0  0  0  0  0  0  0  0  0  0  0  0
   -2.1145    3.3743    0.2038 H   0  0  0  0  0  0  0  0  0  0  0  0
   -2.4030    4.8980    1.3601 H   0  0  0  0  0  0  0  0  0  0  0  0
   -0.7960    7.9537    2.4356 H   0  0  0  0  0  0  0  0  0  0  0  0
   -0.8697    8.1191    2.9221 H   0  0  0  0  0  0  0  0  0  0  0  0
    0.6189    8.2766    0.7527 H   0  0  0  0  0  0  0  0  0  0  0  0
    1.5606    6.9818    1.4562 H   0  0  0  0  0  0  0  0  0  0  0  0
    0.9516    4.1731   -1.0408 H   0  0  0  0  0  0  0  0  0  0  0  0
    1.6142    2.0404    0.2022 H   0  0  0  0  0  0  0  0  0  0  0  0
    0.8723    1.4349    2.1900 H   0  0  0  0  0  0  0  0  0  0  0  0
   -0.5622    3.2190    2.5427 H   0  0  0  0  0  0  0  0  0  0  0  0
    0.3212    7.4478    4.9612 H   0  0  0  0  0  0  0  0  0  0  0  0
    0.5114   10.1916    4.0495 H   0  0  0  0  0  0  0  0  0  0  0  0
   -0.7342   10.7833    1.5648 H   0  0  0  0  0  0  0  0  0  0  0  0
   -2.5359    9.0662    0.3643 H   0  0  0  0  0  0  0  0  0  0  0  0
   -0.3032    3.1339    5.2519 H   0  0  0  0  0  0  0  0  0  0  0  0
   -0.6006    0.9161    3.6156 H   0  0  0  0  0  0  0  0  0  0  0  0
  1  2  1  0  0  0  0
  1 33  1  0  0  0  0
  2  3  2  0  0  0  0
  2  4  1  0  0  0  0
  4  5  1  0  0  0  0
  4  8  1  0  0  0  0
  4 32  1  6  0  0  0
  5  6  1  0  0  0  0
  6  7  1  0  0  0  0
  6 34  1  0  0  0  0
  6 35  1  0  0  0  0
  7 36  1  0  0  0  0
  7 37  1  0  0  0  0
  7 38  1  0  0  0  0
  8  9  1  0  0  0  0
  8 39  1  0  0  0  0
  8 40  1  0  0  0  0
  9 10  2  0  0  0  0
  9 31  1  0  0  0  0
 10 11  1  0  0  0  0
 10 41  1  0  0  0  0
 11 12  2  0  0  0  0
 11 42  1  0  0  0  0
 12 13  1  0  0  0  0
 12 30  1  0  0  0  0
 13 14  1  0  0  0  0
 14 15  1  0  0  0  0
 14 43  1  0  0  0  0
 14 44  1  0  0  0  0
 15 16  1  0  0  0  0
 15 45  1  0  0  0  0
 15 46  1  0  0  0  0
 16 17  1  0  0  0  0
 16 21  1  0  0  0  0
 17 18  2  0  0  0  0
 17 29  1  0  0  0  0
 18 19  1  0  0  0  0
 18 26  1  0  0  0  0
 19 20  1  0  0  0  0
 20 21  2  0  0  0  0
 20 25  1  0  0  0  0
 21 22  1  0  0  0  0
 22 23  2  0  0  0  0
 22 47  1  0  0  0  0
 23 24  1  0  0  0  0
 23 48  1  0  0  0  0
 24 25  2  0  0  0  0
 24 49  1  0  0  0  0
 25 50  1  0  0  0  0
 26 27  2  0  0  0  0
 26 51  1  0  0  0  0
 27 28  1  0  0  0  0
 27 52  1  0  0  0  0
 28 29  2  0  0  0  0
 28 53  1  0  0  0  0
 29 54  1  0  0  0  0
 30 31  2  0  0  0  0
 30 55  1  0  0  0  0
 31 56  1  0  0  0  0
M  END
>  <DRUGBANK_ID>
DB07675

>  <COMMON_NAME>
(2S)-2-ETHOXY-3-{4-[2-(10H-PHENOXAZIN-10-YL)ETHOXY]PHENYL}PROPANOIC ACID

$$$$
