
 OpenBabel10282417183D

 32 34  0  0  0  0  0  0  0  0999 V2000
   -2.1677   -0.7005   -0.0637 C   0  0  0  0  0  0  0  0  0  0  0  0
   -2.1633    0.7037   -0.0657 C   0  0  0  0  0  0  0  0  0  0  0  0
   -0.9630    1.4111   -0.0055 C   0  0  0  0  0  0  0  0  0  0  0  0
    0.2170    0.6904    0.0268 C   0  0  0  0  0  0  0  0  0  0  0  0
    0.2133   -0.7070    0.0341 C   0  0  0  0  0  0  0  0  0  0  0  0
   -0.9724   -1.4178    0.0039 C   0  0  0  0  0  0  0  0  0  0  0  0
    1.6128    1.2311    0.0836 C   0  0  0  0  0  0  0  0  0  0  0  0
    1.6068   -1.2477    0.1171 C   0  0  0  0  0  0  0  0  0  0  0  0
    2.4641   -0.0178   -0.3304 C   0  0  0  0  0  0  0  0  0  0  0  0
    2.6845    0.0213   -1.8461 C   0  0  0  0  0  0  0  0  0  0  0  0
    3.8527    0.0062    1.8704 C   0  0  0  0  0  0  0  0  0  0  0  0
    3.8604   -0.0267    0.3464 C   0  0  0  0  0  0  0  0  0  0  0  0
    3.3229    0.9621   -2.6332 C   0  0  0  0  0  0  0  0  0  0  0  0
    2.2441   -0.9196   -2.7506 N   0  0  0  0  0  0  0  0  0  0  0  0
    2.6537   -0.5277   -3.9940 C   0  0  0  0  0  0  0  0  0  0  0  0
    3.3048    0.6074   -3.9543 N   0  0  0  0  0  0  0  0  0  0  0  0
   -3.1136   -1.2331   -0.1153 H   0  0  0  0  0  0  0  0  0  0  0  0
   -3.1041    1.2455   -0.1177 H   0  0  0  0  0  0  0  0  0  0  0  0
   -0.9567    2.4964    0.0011 H   0  0  0  0  0  0  0  0  0  0  0  0
   -0.9782   -2.5024    0.0245 H   0  0  0  0  0  0  0  0  0  0  0  0
    1.8040    1.5700    1.1044 H   0  0  0  0  0  0  0  0  0  0  0  0
    1.7400    2.0831   -0.5919 H   0  0  0  0  0  0  0  0  0  0  0  0
    1.7478   -2.1339   -0.5071 H   0  0  0  0  0  0  0  0  0  0  0  0
    1.7855   -1.5448    1.1532 H   0  0  0  0  0  0  0  0  0  0  0  0
    3.3399   -0.8579    2.2972 H   0  0  0  0  0  0  0  0  0  0  0  0
    4.8775   -0.0049    2.2507 H   0  0  0  0  0  0  0  0  0  0  0  0
    3.3769    0.9111    2.2545 H   0  0  0  0  0  0  0  0  0  0  0  0
    4.4127   -0.9187    0.0198 H   0  0  0  0  0  0  0  0  0  0  0  0
    4.4459    0.8348   -0.0017 H   0  0  0  0  0  0  0  0  0  0  0  0
    3.7971    1.8789   -2.3065 H   0  0  0  0  0  0  0  0  0  0  0  0
    1.7093   -1.7516   -2.5561 H   0  0  0  0  0  0  0  0  0  0  0  0
    2.4445   -1.1090   -4.8828 H   0  0  0  0  0  0  0  0  0  0  0  0
  1  2  2  0  0  0  0
  1  6  1  0  0  0  0
  1 17  1  0  0  0  0
  2  3  1  0  0  0  0
  2 18  1  0  0  0  0
  3  4  2  0  0  0  0
  3 19  1  0  0  0  0
  4  5  1  0  0  0  0
  4  7  1  0  0  0  0
  5  6  2  0  0  0  0
  5  8  1  0  0  0  0
  6 20  1  0  0  0  0
  7  9  1  0  0  0  0
  7 21  1  0  0  0  0
  7 22  1  0  0  0  0
  8 23  1  0  0  0  0
  8 24  1  0  0  0  0
  9  8  1  0  0  0  0
  9 10  1  0  0  0  0
  9 12  1  0  0  0  0
 10 14  1  0  0  0  0
 11 12  1  0  0  0  0
 11 25  1  0  0  0  0
 11 26  1  0  0  0  0
 11 27  1  0  0  0  0
 12 28  1  0  0  0  0
 12 29  1  0  0  0  0
 13 10  2  0  0  0  0
 13 16  1  0  0  0  0
 13 30  1  0  0  0  0
 14 15  1  0  0  0  0
 14 31  1  0  0  0  0
 15 16  2  0  0  0  0
 15 32  1  0  0  0  0
M  END
>  <DRUGBANK_ID>
DB11481

>  <COMMON_NAME>
Atipamezole

>  <CAS_NUMBER>
104054-27-5

>  <UNII>
03N9U5JAF6

>  <SYNONYMS>
Atipamezole

$$$$
