GP6
 OpenBabel10282417143D

 33 34  0  0  0  0  0  0  0  0999 V2000
    1.0118   -0.0209   -0.0755 N   0  0  0  0  0  0  0  0  0  0  0  0
    1.1155   -1.2366    1.8805 N   0  0  0  0  0  0  0  0  0  0  0  0
    0.4026   -0.7166    0.8242 C   0  0  0  0  0  0  0  0  0  0  0  0
   -1.0836   -0.9344    0.7384 C   0  0  0  0  0  0  0  0  0  0  0  0
   -1.8785   -0.9950   -0.4045 C   0  0  0  0  0  0  0  0  0  0  0  0
   -3.3067   -1.0641   -0.2858 C   0  0  0  0  0  0  0  0  0  0  0  0
   -3.9202   -1.0570    0.9750 C   0  0  0  0  0  0  0  0  0  0  0  0
   -3.0977   -1.3608    2.0215 C   0  0  0  0  0  0  0  0  0  0  0  0
   -1.7284   -1.1614    1.9305 C   0  0  0  0  0  0  0  0  0  0  0  0
   -5.2833   -0.7307    1.2134 N   0  0  0  0  0  0  0  0  0  0  0  0
   -5.9744   -0.3505    2.3391 C   0  0  0  0  0  0  0  0  0  0  0  0
   -7.2249   -0.3560    2.2810 O   0  0  0  0  0  0  0  0  0  0  0  0
   -5.4230   -0.0101    3.5392 N   0  0  0  0  0  0  0  0  0  0  0  0
   -4.1531    0.4947    3.8937 C   0  0  0  0  0  0  0  0  0  0  0  0
   -3.4506    1.3518    3.0453 C   0  0  0  0  0  0  0  0  0  0  0  0
   -2.0745    1.5554    3.2324 C   0  0  0  0  0  0  0  0  0  0  0  0
   -1.4050    0.9305    4.2912 C   0  0  0  0  0  0  0  0  0  0  0  0
   -2.1007    0.0724    5.1467 C   0  0  0  0  0  0  0  0  0  0  0  0
   -3.4809   -0.1224    4.9711 C   0  0  0  0  0  0  0  0  0  0  0  0
    0.3237    0.9235    4.3299 Cl  0  0  0  0  0  0  0  0  0  0  0  0
    2.0091    0.0222    0.1592 H   0  0  0  0  0  0  0  0  0  0  0  0
    0.6335   -1.4341    2.7493 H   0  0  0  0  0  0  0  0  0  0  0  0
    2.0449   -0.8857    2.0668 H   0  0  0  0  0  0  0  0  0  0  0  0
   -1.3978   -0.9937   -1.3795 H   0  0  0  0  0  0  0  0  0  0  0  0
   -3.9035   -1.1243   -1.1917 H   0  0  0  0  0  0  0  0  0  0  0  0
   -3.5157   -1.6042    2.9828 H   0  0  0  0  0  0  0  0  0  0  0  0
   -1.1910   -1.0606    2.8542 H   0  0  0  0  0  0  0  0  0  0  0  0
   -5.9034   -0.7924    0.4147 H   0  0  0  0  0  0  0  0  0  0  0  0
   -6.1121    0.0285    4.2843 H   0  0  0  0  0  0  0  0  0  0  0  0
   -3.9119    1.6860    2.1180 H   0  0  0  0  0  0  0  0  0  0  0  0
   -1.5084    1.9974    2.4120 H   0  0  0  0  0  0  0  0  0  0  0  0
   -1.5467   -0.5768    5.8253 H   0  0  0  0  0  0  0  0  0  0  0  0
   -3.9505   -0.9480    5.5084 H   0  0  0  0  0  0  0  0  0  0  0  0
  1  3  2  0  0  0  0
  1 21  1  0  0  0  0
  2  3  1  0  0  0  0
  2 22  1  0  0  0  0
  2 23  1  0  0  0  0
  3  4  1  0  0  0  0
  4  5  2  0  0  0  0
  4  9  1  0  0  0  0
  5  6  1  0  0  0  0
  5 24  1  0  0  0  0
  6  7  2  0  0  0  0
  6 25  1  0  0  0  0
  7  8  1  0  0  0  0
  7 10  1  0  0  0  0
  8  9  2  0  0  0  0
  8 26  1  0  0  0  0
  9 27  1  0  0  0  0
 10 11  1  0  0  0  0
 10 28  1  0  0  0  0
 11 12  2  0  0  0  0
 11 13  1  0  0  0  0
 13 14  1  0  0  0  0
 13 29  1  0  0  0  0
 14 15  2  0  0  0  0
 14 19  1  0  0  0  0
 15 16  1  0  0  0  0
 15 30  1  0  0  0  0
 16 17  2  0  0  0  0
 16 31  1  0  0  0  0
 17 18  1  0  0  0  0
 17 20  1  0  0  0  0
 18 19  2  0  0  0  0
 18 32  1  0  0  0  0
 19 33  1  0  0  0  0
M  END
>  <DRUGBANK_ID>
DB04336

>  <SECONDARY_ACCESSION_NUMBERS>
EXPT01635

>  <COMMON_NAME>
1-(4-Amidinophenyl)-3-(4-Chlorophenyl)Urea

$$$$
