
 OpenBabel10282417123D

 26 26  0  0  1  0  0  0  0  0999 V2000
   -0.2436   -8.6404   -0.9720 C   0  0  0  0  0  0  0  0  0  0  0  0
    0.3239   -7.4243   -1.6406 C   0  0  0  0  0  0  0  0  0  0  0  0
    1.0764   -7.5027   -2.8112 C   0  0  0  0  0  0  0  0  0  0  0  0
    1.5247   -6.3370   -3.4379 C   0  0  0  0  0  0  0  0  0  0  0  0
    1.1740   -5.0817   -2.9346 C   0  0  0  0  0  0  0  0  0  0  0  0
    0.4054   -4.9864   -1.7724 C   0  0  0  0  0  0  0  0  0  0  0  0
   -0.0329   -3.6582   -1.2118 C   0  0  0  0  0  0  0  0  0  0  0  0
   -1.5526   -3.3638   -1.2264 C   0  0  2  0  0  0  0  0  0  0  0  0
   -1.8591   -2.4681   -0.0803 N   0  0  0  0  0  0  0  0  0  0  0  0
   -2.4896   -4.5934   -1.1464 C   0  0  0  0  0  0  0  0  0  0  0  0
   -3.1800   -4.8625   -2.2770 O   0  0  0  0  0  0  0  0  0  0  0  0
   -2.6788   -5.2378   -0.1183 O   0  0  0  0  0  0  0  0  0  0  0  0
    0.0541   -6.1662   -1.1009 C   0  0  0  0  0  0  0  0  0  0  0  0
    0.0660   -8.6786    0.0770 H   0  0  0  0  0  0  0  0  0  0  0  0
   -1.3390   -8.6134   -1.0168 H   0  0  0  0  0  0  0  0  0  0  0  0
    0.0893   -9.5599   -1.4615 H   0  0  0  0  0  0  0  0  0  0  0  0
    1.3251   -8.4711   -3.2369 H   0  0  0  0  0  0  0  0  0  0  0  0
    2.1409   -6.4106   -4.3301 H   0  0  0  0  0  0  0  0  0  0  0  0
    1.5191   -4.1882   -3.4495 H   0  0  0  0  0  0  0  0  0  0  0  0
    0.3717   -3.5854   -0.1928 H   0  0  0  0  0  0  0  0  0  0  0  0
    0.4678   -2.8467   -1.7621 H   0  0  0  0  0  0  0  0  0  0  0  0
   -1.7968   -2.8137   -2.1432 H   0  0  0  0  0  0  0  0  0  0  0  0
   -2.4323   -3.0023    0.5863 H   0  0  0  0  0  0  0  0  0  0  0  0
   -2.4334   -1.6835   -0.3750 H   0  0  0  0  0  0  0  0  0  0  0  0
   -3.0308   -4.2456   -3.0160 H   0  0  0  0  0  0  0  0  0  0  0  0
   -0.4738   -6.1143   -0.1493 H   0  0  0  0  0  0  0  0  0  0  0  0
  1  2  1  0  0  0  0
  1 14  1  0  0  0  0
  1 15  1  0  0  0  0
  1 16  1  0  0  0  0
  2  3  2  0  0  0  0
  2 13  1  0  0  0  0
  3  4  1  0  0  0  0
  3 17  1  0  0  0  0
  4  5  2  0  0  0  0
  4 18  1  0  0  0  0
  5  6  1  0  0  0  0
  5 19  1  0  0  0  0
  6  7  1  0  0  0  0
  6 13  2  0  0  0  0
  7 20  1  0  0  0  0
  7 21  1  0  0  0  0
  8 10  1  0  0  0  0
  8 22  1  6  0  0  0
  8  9  1  0  0  0  0
  8  7  1  0  0  0  0
  9 23  1  0  0  0  0
  9 24  1  0  0  0  0
 10 11  1  0  0  0  0
 10 12  2  0  0  0  0
 11 25  1  0  0  0  0
 13 26  1  0  0  0  0
M  END
>  <DRUGBANK_ID>
DB02685

>  <SECONDARY_ACCESSION_NUMBERS>
EXPT00540

>  <COMMON_NAME>
3-Methylphenylalanine

>  <UNII>
Y3C5V2444R

$$$$
