
 OpenBabel10282417123D

 15 14  0  0  0  0  0  0  0  0999 V2000
    1.0599   -0.0904    0.1109 C   0  0  0  0  0  0  0  0  0  0  0  0
    0.5480    1.3049    0.4426 C   0  0  0  0  0  0  0  0  0  0  0  0
    1.0297    2.3663   -0.5469 C   0  0  0  0  0  0  0  0  0  0  0  0
    0.5591    2.0958   -1.9628 C   0  0  0  0  0  0  0  0  0  0  0  0
   -0.2745    3.0154   -2.5137 N   0  0  0  0  0  0  0  0  0  0  0  0
    0.8867    1.1099   -2.6175 O   0  0  0  0  0  0  0  0  0  0  0  0
    0.6824   -0.4391   -0.8533 H   0  0  0  0  0  0  0  0  0  0  0  0
    0.7233   -0.8142    0.8577 H   0  0  0  0  0  0  0  0  0  0  0  0
    2.1539   -0.1047    0.0781 H   0  0  0  0  0  0  0  0  0  0  0  0
   -0.5475    1.2928    0.4762 H   0  0  0  0  0  0  0  0  0  0  0  0
    0.8960    1.5716    1.4488 H   0  0  0  0  0  0  0  0  0  0  0  0
    0.6780    3.3516   -0.2170 H   0  0  0  0  0  0  0  0  0  0  0  0
    2.1249    2.4101   -0.5574 H   0  0  0  0  0  0  0  0  0  0  0  0
   -0.5787    2.8330   -3.4620 H   0  0  0  0  0  0  0  0  0  0  0  0
   -0.5110    3.8973   -2.0847 H   0  0  0  0  0  0  0  0  0  0  0  0
  1  2  1  0  0  0  0
  1  7  1  0  0  0  0
  1  8  1  0  0  0  0
  1  9  1  0  0  0  0
  2  3  1  0  0  0  0
  2 10  1  0  0  0  0
  2 11  1  0  0  0  0
  3  4  1  0  0  0  0
  3 12  1  0  0  0  0
  3 13  1  0  0  0  0
  4  5  1  0  0  0  0
  4  6  2  0  0  0  0
  5 14  1  0  0  0  0
  5 15  1  0  0  0  0
M  END
>  <DRUGBANK_ID>
DB02121

>  <SECONDARY_ACCESSION_NUMBERS>
EXPT00722

>  <COMMON_NAME>
Butyramide

>  <CAS_NUMBER>
541-35-5

>  <UNII>
9J6OR937VR

$$$$
