
 OpenBabel10282417233D

 34 33  0  0  0  0  0  0  0  0999 V2000
    1.0002   -0.0483   -0.0329 C   0  0  0  0  0  0  0  0  0  0  0  0
    0.9326    0.7527   -1.3513 C   0  0  0  0  0  0  0  0  0  0  0  0
    1.2454   -0.0545   -2.6475 C   0  0  0  0  0  0  0  0  0  0  0  0
   -0.3676    1.3054   -1.4636 O   0  0  0  0  0  0  0  0  0  0  0  0
    0.6689   -1.4078   -2.7203 N   0  0  0  0  0  0  0  0  0  0  0  0
    1.1176   -2.2558   -3.8206 C   0  0  0  0  0  0  0  0  0  0  0  0
    2.6381   -2.3770   -3.8160 C   0  0  0  0  0  0  0  0  0  0  0  0
    0.5147   -3.6649   -3.6609 C   0  0  0  0  0  0  0  0  0  0  0  0
    0.2758   -1.3174    0.0283 N   0  0  0  0  0  0  0  0  0  0  0  0
   -1.1813   -1.4835    0.0363 C   0  0  0  0  0  0  0  0  0  0  0  0
   -2.0961   -1.0850   -1.1484 C   0  0  0  0  0  0  0  0  0  0  0  0
   -1.4506   -2.9897    0.1774 C   0  0  0  0  0  0  0  0  0  0  0  0
    0.6806    0.5861    0.8027 H   0  0  0  0  0  0  0  0  0  0  0  0
    2.0663   -0.2574    0.1490 H   0  0  0  0  0  0  0  0  0  0  0  0
    1.6054    1.6144   -1.3034 H   0  0  0  0  0  0  0  0  0  0  0  0
    0.8502    0.4988   -3.5056 H   0  0  0  0  0  0  0  0  0  0  0  0
    2.3322   -0.0867   -2.7005 H   0  0  0  0  0  0  0  0  0  0  0  0
   -0.8366    0.5190   -1.7145 H   0  0  0  0  0  0  0  0  0  0  0  0
    0.8703   -1.8878   -1.8474 H   0  0  0  0  0  0  0  0  0  0  0  0
    0.7581   -1.8328   -4.7645 H   0  0  0  0  0  0  0  0  0  0  0  0
    2.9877   -2.8019   -2.8669 H   0  0  0  0  0  0  0  0  0  0  0  0
    2.9836   -3.0131   -4.6326 H   0  0  0  0  0  0  0  0  0  0  0  0
    3.1235   -1.4077   -3.9503 H   0  0  0  0  0  0  0  0  0  0  0  0
   -0.5809   -3.6493   -3.6414 H   0  0  0  0  0  0  0  0  0  0  0  0
    0.8206   -4.3078   -4.4952 H   0  0  0  0  0  0  0  0  0  0  0  0
    0.8548   -4.1517   -2.7375 H   0  0  0  0  0  0  0  0  0  0  0  0
    0.8368   -2.1519   -0.1038 H   0  0  0  0  0  0  0  0  0  0  0  0
   -1.5625   -0.9752    0.9270 H   0  0  0  0  0  0  0  0  0  0  0  0
   -1.6980   -1.4047   -2.1162 H   0  0  0  0  0  0  0  0  0  0  0  0
   -3.0814   -1.5566   -1.0732 H   0  0  0  0  0  0  0  0  0  0  0  0
   -2.3558   -0.0248   -1.1659 H   0  0  0  0  0  0  0  0  0  0  0  0
   -1.0040   -3.4105    1.0797 H   0  0  0  0  0  0  0  0  0  0  0  0
   -2.5302   -3.1734    0.2265 H   0  0  0  0  0  0  0  0  0  0  0  0
   -1.0705   -3.5365   -0.6963 H   0  0  0  0  0  0  0  0  0  0  0  0
  1  2  1  0  0  0  0
  1  9  1  0  0  0  0
  1 13  1  0  0  0  0
  1 14  1  0  0  0  0
  2  3  1  0  0  0  0
  2  4  1  0  0  0  0
  2 15  1  0  0  0  0
  3  5  1  0  0  0  0
  3 16  1  0  0  0  0
  3 17  1  0  0  0  0
  4 18  1  0  0  0  0
  5  6  1  0  0  0  0
  5 19  1  0  0  0  0
  6  7  1  0  0  0  0
  6  8  1  0  0  0  0
  6 20  1  0  0  0  0
  7 21  1  0  0  0  0
  7 22  1  0  0  0  0
  7 23  1  0  0  0  0
  8 24  1  0  0  0  0
  8 25  1  0  0  0  0
  8 26  1  0  0  0  0
  9 10  1  0  0  0  0
  9 27  1  0  0  0  0
 10 11  1  0  0  0  0
 10 12  1  0  0  0  0
 10 28  1  0  0  0  0
 11 29  1  0  0  0  0
 11 30  1  0  0  0  0
 11 31  1  0  0  0  0
 12 32  1  0  0  0  0
 12 33  1  0  0  0  0
 12 34  1  0  0  0  0
M  END
>  <DRUGBANK_ID>
DB16631

>  <COMMON_NAME>
1,3-Bis((1-methylethyl)amino)propan-2-ol

>  <CAS_NUMBER>
343785-33-1

>  <UNII>
W10T5DVF8Q

$$$$
