
 OpenBabel10282417183D

 23 24  0  0  0  0  0  0  0  0999 V2000
    1.7762   -1.9293    0.0097 C   0  0  0  0  0  0  0  0  0  0  0  0
    0.4104   -1.7025   -0.0115 C   0  0  0  0  0  0  0  0  0  0  0  0
    2.6347   -0.8424    0.0136 C   0  0  0  0  0  0  0  0  0  0  0  0
   -2.8061    3.5586   -0.5920 C   0  0  0  0  0  0  0  0  0  0  0  0
   -3.1245    2.6328    0.5826 C   0  0  0  0  0  0  0  0  0  0  0  0
   -0.1168   -0.3995   -0.0312 C   0  0  0  0  0  0  0  0  0  0  0  0
    2.1124    0.4571    0.0367 C   0  0  0  0  0  0  0  0  0  0  0  0
    0.7213    0.7323    0.0246 C   0  0  0  0  0  0  0  0  0  0  0  0
   -0.9322    2.5882    0.0497 C   0  0  0  0  0  0  0  0  0  0  0  0
   -1.9951   -0.4360   -0.2732 Br  0  0  0  0  0  0  0  0  0  0  0  0
    2.9881    1.4765    0.0539 F   0  0  0  0  0  0  0  0  0  0  0  0
   -1.3751    3.2862   -0.9573 N   0  0  0  0  0  0  0  0  0  0  0  0
   -1.7913    2.4061    1.0932 N   0  0  0  0  0  0  0  0  0  0  0  0
    0.3311    2.0994    0.1940 N   0  0  0  0  0  0  0  0  0  0  0  0
    2.1492   -2.9493    0.0066 H   0  0  0  0  0  0  0  0  0  0  0  0
   -0.2629   -2.5581   -0.0300 H   0  0  0  0  0  0  0  0  0  0  0  0
    3.7089   -1.0004    0.0099 H   0  0  0  0  0  0  0  0  0  0  0  0
   -3.4698    3.3701   -1.4428 H   0  0  0  0  0  0  0  0  0  0  0  0
   -2.9056    4.6053   -0.2885 H   0  0  0  0  0  0  0  0  0  0  0  0
   -3.8029    3.0619    1.3214 H   0  0  0  0  0  0  0  0  0  0  0  0
   -3.5825    1.7119    0.2093 H   0  0  0  0  0  0  0  0  0  0  0  0
   -1.6224    1.6059    1.6840 H   0  0  0  0  0  0  0  0  0  0  0  0
    1.0104    2.6895   -0.2841 H   0  0  0  0  0  0  0  0  0  0  0  0
  1 15  1  0  0  0  0
  2  1  2  0  0  0  0
  2 16  1  0  0  0  0
  3  1  1  0  0  0  0
  3 17  1  0  0  0  0
  4 18  1  0  0  0  0
  4 19  1  0  0  0  0
  5  4  1  0  0  0  0
  5 20  1  0  0  0  0
  5 21  1  0  0  0  0
  6  2  1  0  0  0  0
  7  3  2  0  0  0  0
  8  6  2  0  0  0  0
  8  7  1  0  0  0  0
 10  6  1  0  0  0  0
 11  7  1  0  0  0  0
 12  4  1  0  0  0  0
 12  9  2  0  0  0  0
 13  5  1  0  0  0  0
 13  9  1  0  0  0  0
 13 22  1  0  0  0  0
 14  8  1  0  0  0  0
 14  9  1  0  0  0  0
 14 23  1  0  0  0  0
M  END
>  <DRUGBANK_ID>
DB11543

>  <COMMON_NAME>
Romifidine

>  <CAS_NUMBER>
65896-16-4

>  <UNII>
876351L05K

>  <SYNONYMS>
Romifidine

$$$$
