
 OpenBabel10282417203D

 37 38  0  0  0  0  0  0  0  0999 V2000
    0.9375    0.0921   -0.0088 C   0  0  0  0  0  0  0  0  0  0  0  0
    0.5124    0.7670    1.2890 C   0  0  0  0  0  0  0  0  0  0  0  0
    0.9850    2.1324    1.3841 O   0  0  0  0  0  0  0  0  0  0  0  0
    2.3309    2.2701    1.4780 C   0  0  0  0  0  0  0  0  0  0  0  0
    3.1442    1.3621    1.5209 O   0  0  0  0  0  0  0  0  0  0  0  0
    2.7390    3.6768    1.5029 C   0  0  0  0  0  0  0  0  0  0  0  0
    2.2125    4.5548    2.3565 C   0  0  0  0  0  0  0  0  0  0  0  0
    2.6699    5.8655    2.4725 N   0  3  0  0  0  0  0  0  0  0  0  0
    3.6760    6.2805    1.6869 C   0  0  0  0  0  0  0  0  0  0  0  0
    4.2520    5.4874    0.7751 N   0  0  0  0  0  0  0  0  0  0  0  0
    3.8651    4.0948    0.6851 C   0  0  0  0  0  0  0  0  0  0  0  0
    4.4662    3.3318   -0.0556 O   0  0  0  0  0  0  0  0  0  0  0  0
    5.3873    5.9428   -0.1159 C   0  0  3  0  0  0  0  0  0  0  0  0
    5.4839    7.4732   -0.1484 C   0  0  0  0  0  0  0  0  0  0  0  0
    5.4531    8.0228    1.2501 C   0  0  0  0  0  0  0  0  0  0  0  0
    4.1213    7.6919    1.8601 C   0  0  0  0  0  0  0  0  0  0  0  0
    5.2282    5.4864   -1.5688 C   0  0  0  0  0  0  0  0  0  0  0  0
    1.9946    6.7385    3.4776 C   0  0  0  0  0  0  0  0  0  0  0  0
    0.5880    0.6646   -0.8729 H   0  0  0  0  0  0  0  0  0  0  0  0
    0.5401   -0.9254   -0.0673 H   0  0  0  0  0  0  0  0  0  0  0  0
    2.0251    0.0227   -0.0977 H   0  0  0  0  0  0  0  0  0  0  0  0
   -0.5825    0.8043    1.3243 H   0  0  0  0  0  0  0  0  0  0  0  0
    0.8435    0.1976    2.1655 H   0  0  0  0  0  0  0  0  0  0  0  0
    1.4106    4.2536    3.0311 H   0  0  0  0  0  0  0  0  0  0  0  0
    6.3135    5.5333    0.3084 H   0  0  0  0  0  0  0  0  0  0  0  0
    4.6484    7.8950   -0.7237 H   0  0  0  0  0  0  0  0  0  0  0  0
    6.4077    7.7923   -0.6438 H   0  0  0  0  0  0  0  0  0  0  0  0
    6.2587    7.5924    1.8550 H   0  0  0  0  0  0  0  0  0  0  0  0
    5.5822    9.1110    1.2527 H   0  0  0  0  0  0  0  0  0  0  0  0
    4.2316    7.9248    2.9234 H   0  0  0  0  0  0  0  0  0  0  0  0
    3.3437    8.3398    1.4349 H   0  0  0  0  0  0  0  0  0  0  0  0
    6.0273    5.8970   -2.1946 H   0  0  0  0  0  0  0  0  0  0  0  0
    5.3000    4.4071   -1.6991 H   0  0  0  0  0  0  0  0  0  0  0  0
    4.2621    5.8075   -1.9700 H   0  0  0  0  0  0  0  0  0  0  0  0
    0.9294    6.7940    3.2434 H   0  0  0  0  0  0  0  0  0  0  0  0
    2.1609    6.3286    4.4773 H   0  0  0  0  0  0  0  0  0  0  0  0
    2.3649    7.7649    3.4731 H   0  0  0  0  0  0  0  0  0  0  0  0
  1  2  1  0  0  0  0
  1 19  1  0  0  0  0
  1 20  1  0  0  0  0
  1 21  1  0  0  0  0
  2  3  1  0  0  0  0
  2 22  1  0  0  0  0
  2 23  1  0  0  0  0
  3  4  1  0  0  0  0
  4  5  2  0  0  0  0
  4  6  1  0  0  0  0
  6  7  2  0  0  0  0
  6 11  1  0  0  0  0
  7  8  1  0  0  0  0
  7 24  1  0  0  0  0
  8  9  2  0  0  0  0
  8 18  1  0  0  0  0
  9 10  1  0  0  0  0
  9 16  1  0  0  0  0
 10 11  1  0  0  0  0
 10 13  1  0  0  0  0
 11 12  2  0  0  0  0
 13 14  1  0  0  0  0
 13 17  1  0  0  0  0
 13 25  1  0  0  0  0
 14 15  1  0  0  0  0
 14 26  1  0  0  0  0
 14 27  1  0  0  0  0
 15 16  1  0  0  0  0
 15 28  1  0  0  0  0
 15 29  1  0  0  0  0
 16 30  1  0  0  0  0
 16 31  1  0  0  0  0
 17 32  1  0  0  0  0
 17 33  1  0  0  0  0
 17 34  1  0  0  0  0
 18 35  1  0  0  0  0
 18 36  1  0  0  0  0
 18 37  1  0  0  0  0
M  CHG  1   8   1
M  END
>  <DRUGBANK_ID>
DB13289

>  <COMMON_NAME>
Rimazolium

>  <CAS_NUMBER>
35615-72-6

>  <UNII>
967Y95129A

$$$$
