
 OpenBabel10282417193D

118119  0  0  1  0  0  0  0  0999 V2000
   -5.3955    5.7401    1.9658 C   0  0  0  0  0  0  0  0  0  0  0  0
   -4.7621    5.6548    3.3478 C   0  0  0  0  0  0  0  0  0  0  0  0
   -4.9325    6.9346    4.0928 C   0  0  2  0  0  0  0  0  0  0  0  0
   -4.5769    7.9792    3.0565 C   0  0  0  0  0  0  0  0  0  0  0  0
   -3.9909    7.1796    5.2215 C   0  0  1  0  0  0  0  0  0  0  0  0
   -4.2652    8.4963    5.9498 C   0  0  0  0  0  0  0  0  0  0  0  0
   -4.0765    8.2607    7.0900 O   0  0  0  0  0  0  0  0  0  0  0  0
   -4.4721    9.7977    5.4827 N   0  0  0  0  0  0  0  0  0  0  0  0
   -5.1204   10.3391    4.3062 C   0  0  0  0  0  0  0  0  0  0  0  0
   -4.0269   11.1827    3.7009 C   0  0  0  0  0  0  0  0  0  0  0  0
   -3.6595   12.0072    4.9100 C   0  0  0  0  0  0  0  0  0  0  0  0
   -3.8422   10.9996    6.1153 C   0  0  1  0  0  0  0  0  0  0  0  0
   -4.7930   11.6279    7.1705 C   0  0  0  0  0  0  0  0  0  0  0  0
   -5.3819   12.6945    6.9739 O   0  0  0  0  0  0  0  0  0  0  0  0
   -5.0175   11.0038    8.3669 N   0  0  0  0  0  0  0  0  0  0  0  0
   -4.4341    9.7494    8.8362 C   0  0  1  0  0  0  0  0  0  0  0  0
   -3.5762    9.8906   10.0674 C   0  0  0  0  0  0  0  0  0  0  0  0
   -4.3469   10.3939   11.2584 C   0  0  0  0  0  0  0  0  0  0  0  0
   -5.3910    9.4335   11.7691 C   0  0  0  0  0  0  0  0  0  0  0  0
   -5.1728    8.5911   12.6291 O   0  0  0  0  0  0  0  0  0  0  0  0
   -6.6247    9.5187   11.2007 N   0  0  0  0  0  0  0  0  0  0  0  0
   -5.4367    8.4808    8.8970 C   0  0  0  0  0  0  0  0  0  0  0  0
   -5.1955    7.2983    9.1120 O   0  0  0  0  0  0  0  0  0  0  0  0
   -6.7503    8.8192    8.8660 O   0  0  0  0  0  0  0  0  0  0  0  0
   -3.8437    6.0190    6.1712 N   0  0  0  0  0  0  0  0  0  0  0  0
   -2.7140    5.4804    6.7631 C   0  0  0  0  0  0  0  0  0  0  0  0
   -2.8011    4.4238    7.3964 O   0  0  0  0  0  0  0  0  0  0  0  0
   -1.3354    6.0047    6.3493 C   0  0  2  0  0  0  0  0  0  0  0  0
   -0.1445    5.4583    7.1640 C   0  0  0  0  0  0  0  0  0  0  0  0
    1.0020    6.3257    7.0940 O   0  0  0  0  0  0  0  0  0  0  0  0
   -1.1230    7.4068    6.0464 N   0  0  0  0  0  0  0  0  0  0  0  0
   -0.9127    8.0333    4.8657 C   0  0  0  0  0  0  0  0  0  0  0  0
   -1.1119    9.2490    4.8739 O   0  0  0  0  0  0  0  0  0  0  0  0
   -0.5445    7.2639    3.5726 C   0  0  2  0  0  0  0  0  0  0  0  0
   -0.2925    8.2735    2.4491 C   0  0  0  0  0  0  0  0  0  0  0  0
   -1.4644    9.1540    1.9658 C   0  0  0  0  0  0  0  0  0  0  0  0
    0.9163    9.1292    2.6797 C   0  0  0  0  0  0  0  0  0  0  0  0
   -1.5849    6.3002    3.1821 N   0  0  0  0  0  0  0  0  0  0  0  0
   -1.6260    4.9015    3.3827 C   0  0  0  0  0  0  0  0  0  0  0  0
   -2.5587    4.2816    3.8926 O   0  0  0  0  0  0  0  0  0  0  0  0
   -0.4426    4.0657    3.1045 C   0  0  2  0  0  0  0  0  0  0  0  0
    0.1140    4.0697    4.4882 C   0  0  0  0  0  0  0  0  0  0  0  0
    1.5408    3.7256    4.3911 C   0  0  0  0  0  0  0  0  0  0  0  0
    1.8853    4.2629    2.9988 C   0  0  0  0  0  0  0  0  0  0  0  0
    0.6218    4.6133    2.3524 N   0  0  0  0  0  0  0  0  0  0  0  0
    0.5181    5.2848    1.1729 C   0  0  0  0  0  0  0  0  0  0  0  0
    1.5362    5.6822    0.5973 O   0  0  0  0  0  0  0  0  0  0  0  0
   -0.8661    5.5417    0.4776 C   0  0  2  0  0  0  0  0  0  0  0  0
   -0.8783    7.0835   -0.0290 C   0  0  0  0  0  0  0  0  0  0  0  0
   -2.2726    5.2675    0.9150 N   0  0  0  0  0  0  0  0  0  0  0  0
   -2.9985    4.1041    0.8590 C   0  0  0  0  0  0  0  0  0  0  0  0
   -3.6543    3.6662    1.8067 O   0  0  0  0  0  0  0  0  0  0  0  0
   -3.1139    3.3538   -0.4406 C   0  0  2  0  0  0  0  0  0  0  0  0
   -3.4513    4.2860   -1.5985 C   0  0  0  0  0  0  0  0  0  0  0  0
   -2.2371    4.7157   -2.3611 C   0  0  0  0  0  0  0  0  0  0  0  0
   -1.6390    4.1591   -3.2801 O   0  0  0  0  0  0  0  0  0  0  0  0
   -1.7664    5.8537   -1.8927 N   0  0  0  0  0  0  0  0  0  0  0  0
   -4.2921    2.4500   -0.2593 N   0  0  0  0  0  0  0  0  0  0  0  0
   -6.4605    5.7828    2.0968 H   0  0  0  0  0  0  0  0  0  0  0  0
   -5.1614    4.9781    1.2450 H   0  0  0  0  0  0  0  0  0  0  0  0
   -5.0535    6.5963    1.3779 H   0  0  0  0  0  0  0  0  0  0  0  0
   -4.9355    4.7523    3.9394 H   0  0  0  0  0  0  0  0  0  0  0  0
   -3.7270    5.6698    3.1735 H   0  0  0  0  0  0  0  0  0  0  0  0
   -5.9497    6.9814    4.4835 H   0  0  0  0  0  0  0  0  0  0  0  0
   -5.5245    8.3041    2.6330 H   0  0  0  0  0  0  0  0  0  0  0  0
   -3.8684    8.6922    3.4558 H   0  0  0  0  0  0  0  0  0  0  0  0
   -3.9792    7.7133    2.1964 H   0  0  0  0  0  0  0  0  0  0  0  0
   -3.0082    7.3298    4.8444 H   0  0  0  0  0  0  0  0  0  0  0  0
   -5.9883   10.9251    4.6099 H   0  0  0  0  0  0  0  0  0  0  0  0
   -5.5840    9.6655    3.6385 H   0  0  0  0  0  0  0  0  0  0  0  0
   -3.1518   10.5961    3.4581 H   0  0  0  0  0  0  0  0  0  0  0  0
   -4.3180   11.7115    2.7924 H   0  0  0  0  0  0  0  0  0  0  0  0
   -2.6454   12.4142    4.8406 H   0  0  0  0  0  0  0  0  0  0  0  0
   -4.3589   12.8482    4.9183 H   0  0  0  0  0  0  0  0  0  0  0  0
   -2.8655   10.7719    6.5526 H   0  0  0  0  0  0  0  0  0  0  0  0
   -5.6835   11.4917    8.9469 H   0  0  0  0  0  0  0  0  0  0  0  0
   -3.5984    9.6282    8.1601 H   0  0  0  0  0  0  0  0  0  0  0  0
   -3.0658    8.9364   10.2590 H   0  0  0  0  0  0  0  0  0  0  0  0
   -2.7775   10.6127    9.8286 H   0  0  0  0  0  0  0  0  0  0  0  0
   -3.6379   10.5727   12.0669 H   0  0  0  0  0  0  0  0  0  0  0  0
   -4.8163   11.3496   11.0097 H   0  0  0  0  0  0  0  0  0  0  0  0
   -6.7311    9.8698   10.2486 H   0  0  0  0  0  0  0  0  0  0  0  0
   -7.1941    8.6999   11.3816 H   0  0  0  0  0  0  0  0  0  0  0  0
   -7.1251    7.9764    9.2249 H   0  0  0  0  0  0  0  0  0  0  0  0
   -4.6794    5.6876    6.6377 H   0  0  0  0  0  0  0  0  0  0  0  0
   -1.3735    5.5539    5.3962 H   0  0  0  0  0  0  0  0  0  0  0  0
   -0.4208    5.3373    8.2065 H   0  0  0  0  0  0  0  0  0  0  0  0
    0.2063    4.4715    6.8510 H   0  0  0  0  0  0  0  0  0  0  0  0
    1.2164    6.4909    6.1603 H   0  0  0  0  0  0  0  0  0  0  0  0
   -1.3591    8.0338    6.7997 H   0  0  0  0  0  0  0  0  0  0  0  0
    0.3780    6.7156    3.7168 H   0  0  0  0  0  0  0  0  0  0  0  0
    0.1072    7.6518    1.6774 H   0  0  0  0  0  0  0  0  0  0  0  0
   -1.7007    9.8762    2.7180 H   0  0  0  0  0  0  0  0  0  0  0  0
   -1.2306    9.7019    1.0438 H   0  0  0  0  0  0  0  0  0  0  0  0
   -2.3983    8.6345    1.7511 H   0  0  0  0  0  0  0  0  0  0  0  0
    1.7550    8.4752    2.9282 H   0  0  0  0  0  0  0  0  0  0  0  0
    1.1516    9.6699    1.7583 H   0  0  0  0  0  0  0  0  0  0  0  0
    0.7280    9.8337    3.4816 H   0  0  0  0  0  0  0  0  0  0  0  0
   -2.4512    6.8026    3.1924 H   0  0  0  0  0  0  0  0  0  0  0  0
   -0.7068    3.0640    2.7497 H   0  0  0  0  0  0  0  0  0  0  0  0
    0.2027    5.1088    4.7876 H   0  0  0  0  0  0  0  0  0  0  0  0
   -0.5215    3.5294    5.1977 H   0  0  0  0  0  0  0  0  0  0  0  0
    2.0780    4.2501    5.1903 H   0  0  0  0  0  0  0  0  0  0  0  0
    1.6118    2.6497    4.5215 H   0  0  0  0  0  0  0  0  0  0  0  0
    2.5025    5.1621    3.0427 H   0  0  0  0  0  0  0  0  0  0  0  0
    2.3634    3.4717    2.4249 H   0  0  0  0  0  0  0  0  0  0  0  0
   -0.7359    4.7402   -0.2435 H   0  0  0  0  0  0  0  0  0  0  0  0
    0.0869    7.5729   -0.1892 H   0  0  0  0  0  0  0  0  0  0  0  0
   -1.4918    7.5639   -0.8159 H   0  0  0  0  0  0  0  0  0  0  0  0
   -1.5450    7.5002    0.6899 H   0  0  0  0  0  0  0  0  0  0  0  0
   -2.5468    5.8396    1.6964 H   0  0  0  0  0  0  0  0  0  0  0  0
   -2.1785    2.7964   -0.4947 H   0  0  0  0  0  0  0  0  0  0  0  0
   -4.0852    3.8244   -2.3431 H   0  0  0  0  0  0  0  0  0  0  0  0
   -3.9951    5.1772   -1.2199 H   0  0  0  0  0  0  0  0  0  0  0  0
   -2.2606    6.0528   -1.0207 H   0  0  0  0  0  0  0  0  0  0  0  0
   -0.7424    5.9332   -1.9057 H   0  0  0  0  0  0  0  0  0  0  0  0
   -4.1720    2.0043    0.6637 H   0  0  0  0  0  0  0  0  0  0  0  0
   -5.1032    3.0465   -0.0448 H   0  0  0  0  0  0  0  0  0  0  0  0
  1  2  1  0  0  0  0
  1 59  1  0  0  0  0
  1 60  1  0  0  0  0
  1 61  1  0  0  0  0
  2 62  1  0  0  0  0
  2 63  1  0  0  0  0
  3  5  1  0  0  0  0
  3 64  1  1  0  0  0
  3  4  1  0  0  0  0
  3  2  1  0  0  0  0
  4 65  1  0  0  0  0
  4 66  1  0  0  0  0
  4 67  1  0  0  0  0
  5  6  1  0  0  0  0
  5 25  1  0  0  0  0
  5 68  1  6  0  0  0
  6  7  2  0  0  0  0
  6  8  1  0  0  0  0
  8  9  1  0  0  0  0
  8 12  1  0  0  0  0
  9 10  1  0  0  0  0
  9 69  1  0  0  0  0
  9 70  1  0  0  0  0
 10 11  1  0  0  0  0
 10 71  1  0  0  0  0
 10 72  1  0  0  0  0
 11 12  1  0  0  0  0
 11 73  1  0  0  0  0
 11 74  1  0  0  0  0
 12 75  1  1  0  0  0
 12 13  1  0  0  0  0
 13 14  2  0  0  0  0
 13 15  1  0  0  0  0
 15 76  1  0  0  0  0
 16 15  1  0  0  0  0
 16 17  1  0  0  0  0
 16 22  1  0  0  0  0
 16 77  1  6  0  0  0
 17 18  1  0  0  0  0
 17 78  1  0  0  0  0
 17 79  1  0  0  0  0
 18 19  1  0  0  0  0
 18 80  1  0  0  0  0
 18 81  1  0  0  0  0
 19 20  2  0  0  0  0
 19 21  1  0  0  0  0
 21 82  1  0  0  0  0
 21 83  1  0  0  0  0
 22 23  2  0  0  0  0
 22 24  1  0  0  0  0
 24 84  1  0  0  0  0
 25 26  1  0  0  0  0
 25 85  1  0  0  0  0
 26 27  2  0  0  0  0
 28 31  1  0  0  0  0
 28 86  1  6  0  0  0
 28 29  1  0  0  0  0
 28 26  1  0  0  0  0
 29 30  1  0  0  0  0
 29 87  1  0  0  0  0
 29 88  1  0  0  0  0
 30 89  1  0  0  0  0
 31 32  1  0  0  0  0
 31 90  1  0  0  0  0
 32 33  2  0  0  0  0
 34 38  1  0  0  0  0
 34 91  1  1  0  0  0
 34 35  1  0  0  0  0
 34 32  1  0  0  0  0
 35 36  1  0  0  0  0
 35 37  1  0  0  0  0
 35 92  1  0  0  0  0
 36 93  1  0  0  0  0
 36 94  1  0  0  0  0
 36 95  1  0  0  0  0
 37 96  1  0  0  0  0
 37 97  1  0  0  0  0
 37 98  1  0  0  0  0
 38 39  1  0  0  0  0
 38 99  1  0  0  0  0
 39 40  2  0  0  0  0
 41 39  1  0  0  0  0
 41 42  1  0  0  0  0
 41 45  1  0  0  0  0
 41100  1  6  0  0  0
 42 43  1  0  0  0  0
 42101  1  0  0  0  0
 42102  1  0  0  0  0
 43 44  1  0  0  0  0
 43103  1  0  0  0  0
 43104  1  0  0  0  0
 44 45  1  0  0  0  0
 44105  1  0  0  0  0
 44106  1  0  0  0  0
 45 46  1  0  0  0  0
 46 47  2  0  0  0  0
 48 50  1  0  0  0  0
 48107  1  6  0  0  0
 48 49  1  0  0  0  0
 48 46  1  0  0  0  0
 49108  1  0  0  0  0
 49109  1  0  0  0  0
 49110  1  0  0  0  0
 50 51  1  0  0  0  0
 50111  1  0  0  0  0
 51 52  2  0  0  0  0
 53 58  1  0  0  0  0
 53112  1  6  0  0  0
 53 54  1  0  0  0  0
 53 51  1  0  0  0  0
 54 55  1  0  0  0  0
 54113  1  0  0  0  0
 54114  1  0  0  0  0
 55 56  2  0  0  0  0
 55 57  1  0  0  0  0
 57115  1  0  0  0  0
 57116  1  0  0  0  0
 58117  1  0  0  0  0
 58118  1  0  0  0  0
M  END
>  <DRUGBANK_ID>
DB12613

>  <SECONDARY_ACCESSION_NUMBERS>
DB05907; DB05588

>  <COMMON_NAME>
Davunetide

>  <CAS_NUMBER>
211439-12-2

>  <UNII>
GF00K3IIWE

>  <SYNONYMS>
Davunetide

$$$$
