
 OpenBabel10282417233D

 45 47  0  0  1  0  0  0  0  0999 V2000
    1.0329   -0.2637    0.2171 N   0  0  0  0  0  0  0  0  0  0  0  0
    0.3484    0.8529    0.9297 C   0  0  1  0  0  0  0  0  0  0  0  0
    0.8974    2.3378    0.7049 C   0  0  0  0  0  0  0  0  0  0  0  0
    0.6424    2.9063   -0.7270 C   0  0  0  0  0  0  0  0  0  0  0  0
    0.4863    2.0530   -1.8089 C   0  0  0  0  0  0  0  0  0  0  0  0
    0.0226    2.4273   -3.0832 C   0  0  0  0  0  0  0  0  0  0  0  0
   -0.1811    3.7445   -3.3473 C   0  0  0  0  0  0  0  0  0  0  0  0
   -0.7114    4.1169   -4.5129 F   0  0  0  0  0  0  0  0  0  0  0  0
    0.1610    4.6607   -2.3867 C   0  0  0  0  0  0  0  0  0  0  0  0
    0.5693    4.2422   -1.1114 C   0  0  0  0  0  0  0  0  0  0  0  0
    0.4943    3.2671    1.8848 C   0  0  0  0  0  0  0  0  0  0  0  0
   -0.1568    2.8405    3.0580 C   0  0  0  0  0  0  0  0  0  0  0  0
   -0.4935    3.7390    4.0774 C   0  0  0  0  0  0  0  0  0  0  0  0
   -0.2009    5.0841    3.9352 C   0  0  0  0  0  0  0  0  0  0  0  0
   -0.4896    5.9446    4.9163 F   0  0  0  0  0  0  0  0  0  0  0  0
    0.4611    5.5376    2.8175 C   0  0  0  0  0  0  0  0  0  0  0  0
    0.8764    4.6153    1.8679 C   0  0  0  0  0  0  0  0  0  0  0  0
   -1.2425    0.7876    0.9144 C   0  0  0  0  0  0  0  0  0  0  0  0
   -1.8454    0.4965    1.9514 O   0  0  0  0  0  0  0  0  0  0  0  0
   -1.9564    1.1965   -0.2041 N   0  0  0  0  0  0  0  0  0  0  0  0
   -1.9397    0.4865   -1.4618 C   0  0  0  0  0  0  0  0  0  0  0  0
   -3.1554    0.8273   -2.2777 C   0  0  1  0  0  0  0  0  0  0  0  0
   -3.6254   -0.2855   -2.8724 F   0  0  0  0  0  0  0  0  0  0  0  0
   -4.0834    1.4067   -1.2445 C   0  0  0  0  0  0  0  0  0  0  0  0
   -3.1551    2.0539   -0.1905 C   0  0  1  0  0  0  0  0  0  0  0  0
   -3.8612    2.2618    1.0933 C   0  0  0  0  0  0  0  0  0  0  0  0
   -4.4477    2.4762    2.0582 N   0  0  0  0  0  0  0  0  0  0  0  0
    0.7781   -0.3675   -0.7522 H   0  0  0  0  0  0  0  0  0  0  0  0
    2.0385   -0.0788    0.2104 H   0  0  0  0  0  0  0  0  0  0  0  0
    0.6379    0.5813    1.9584 H   0  0  0  0  0  0  0  0  0  0  0  0
    1.9941    2.2661    0.7882 H   0  0  0  0  0  0  0  0  0  0  0  0
    0.4845    0.9993   -1.6502 H   0  0  0  0  0  0  0  0  0  0  0  0
   -0.3244    1.6702   -3.7854 H   0  0  0  0  0  0  0  0  0  0  0  0
    0.1102    5.7182   -2.5995 H   0  0  0  0  0  0  0  0  0  0  0  0
    0.8062    5.0716   -0.4776 H   0  0  0  0  0  0  0  0  0  0  0  0
   -0.4073    1.8022    3.2602 H   0  0  0  0  0  0  0  0  0  0  0  0
   -0.9780    3.3828    4.9805 H   0  0  0  0  0  0  0  0  0  0  0  0
    0.7080    6.5852    2.6944 H   0  0  0  0  0  0  0  0  0  0  0  0
    1.5578    4.9959    1.1231 H   0  0  0  0  0  0  0  0  0  0  0  0
   -1.3152    1.0484   -2.0838 H   0  0  0  0  0  0  0  0  0  0  0  0
   -1.4847   -0.5025   -1.4622 H   0  0  0  0  0  0  0  0  0  0  0  0
   -2.9342    1.5647   -3.0697 H   0  0  0  0  0  0  0  0  0  0  0  0
   -4.7713    2.1238   -1.7034 H   0  0  0  0  0  0  0  0  0  0  0  0
   -4.6555    0.5799   -0.8207 H   0  0  0  0  0  0  0  0  0  0  0  0
   -2.8179    3.0362   -0.5625 H   0  0  0  0  0  0  0  0  0  0  0  0
  1 28  1  0  0  0  0
  1 29  1  0  0  0  0
  2  1  1  0  0  0  0
  2  3  1  0  0  0  0
  2 18  1  0  0  0  0
  2 30  1  1  0  0  0
  3  4  1  0  0  0  0
  3 11  1  0  0  0  0
  3 31  1  0  0  0  0
  4  5  2  0  0  0  0
  4 10  1  0  0  0  0
  5  6  1  0  0  0  0
  5 32  1  0  0  0  0
  6  7  2  0  0  0  0
  6 33  1  0  0  0  0
  7  8  1  0  0  0  0
  7  9  1  0  0  0  0
  9 10  2  0  0  0  0
  9 34  1  0  0  0  0
 10 35  1  0  0  0  0
 11 12  2  0  0  0  0
 11 17  1  0  0  0  0
 12 13  1  0  0  0  0
 12 36  1  0  0  0  0
 13 14  2  0  0  0  0
 13 37  1  0  0  0  0
 14 15  1  0  0  0  0
 14 16  1  0  0  0  0
 16 17  2  0  0  0  0
 16 38  1  0  0  0  0
 17 39  1  0  0  0  0
 18 19  2  0  0  0  0
 18 20  1  0  0  0  0
 20 21  1  0  0  0  0
 21 40  1  0  0  0  0
 21 41  1  0  0  0  0
 22 21  1  0  0  0  0
 22 24  1  0  0  0  0
 22 42  1  6  0  0  0
 22 23  1  0  0  0  0
 24 43  1  0  0  0  0
 24 44  1  0  0  0  0
 25 24  1  0  0  0  0
 25 20  1  0  0  0  0
 25 26  1  0  0  0  0
 25 45  1  6  0  0  0
 26 27  3  0  0  0  0
M  END
>  <DRUGBANK_ID>
DB16134

>  <COMMON_NAME>
Denagliptin

>  <CAS_NUMBER>
483369-58-0

>  <UNII>
DOS9ZOT21L

>  <SYNONYMS>
Denagliptin

$$$$
