
 OpenBabel10282417153D

175180  0  0  0  0  0  0  0  0999 V2000
   -0.3687   -1.2464    0.0157 C   0  0  1  0  0  0  0  0  0  0  0  0
   -0.4450    0.2555    1.1815 N   0  0  0  0  0  0  0  0  0  0  0  0
    0.5780    1.0984    0.2159 C   0  0  0  0  0  0  0  0  0  0  0  0
    1.5629    0.0134   -0.1203 C   0  0  0  0  0  0  0  0  0  0  0  0
    1.0087   -1.3445    0.3253 C   0  0  0  0  0  0  0  0  0  0  0  0
   -1.5378   -2.3366    0.0456 C   0  0  0  0  0  0  0  0  0  0  0  0
   -2.7671   -1.9375   -0.6505 N   0  0  0  0  0  0  0  0  0  0  0  0
   -1.5347   -3.2833    0.8220 O   0  0  0  0  0  0  0  0  0  0  0  0
  -12.1892   -1.5268    3.3762 C   0  0  0  0  0  0  0  0  0  0  0  0
  -12.5416   -2.3465    4.4527 C   0  0  0  0  0  0  0  0  0  0  0  0
  -11.7686   -2.4106    5.6098 C   0  0  0  0  0  0  0  0  0  0  0  0
  -10.6165   -1.6434    5.7320 C   0  0  0  0  0  0  0  0  0  0  0  0
  -11.0481   -0.7453    3.5257 C   0  0  0  0  0  0  0  0  0  0  0  0
  -10.2652   -0.7862    4.6796 C   0  0  0  0  0  0  0  0  0  0  0  0
   -9.2217    0.1477    4.5105 C   0  0  0  0  0  0  0  0  0  0  0  0
   -9.3969    0.7111    3.2786 C   0  0  0  0  0  0  0  0  0  0  0  0
  -10.4805    0.1689    2.6788 N   0  0  0  0  0  0  0  0  0  0  0  0
   -3.5019   -1.3591    2.1713 C   0  0  0  0  0  0  0  0  0  0  0  0
   -7.9211    2.8369    4.8037 C   0  0  0  0  0  0  0  0  0  0  0  0
   -7.9185    3.3808    3.5332 N   0  0  0  0  0  0  0  0  0  0  0  0
   -8.7379    4.5282    3.0611 C   0  0  2  0  0  0  0  0  0  0  0  0
   -7.8123    5.6020    2.5307 C   0  0  0  0  0  0  0  0  0  0  0  0
   -8.0017    6.1237    1.2379 N   0  0  0  0  0  0  0  0  0  0  0  0
   -7.0780    7.1312    0.6217 C   0  0  2  0  0  0  0  0  0  0  0  0
   -6.4897    6.6073   -0.6940 C   0  0  0  0  0  0  0  0  0  0  0  0
   -5.6814    5.5861   -0.5117 N   0  0  0  0  0  0  0  0  0  0  0  0
   -5.6920    4.7855    0.7160 C   0  0  1  0  0  0  0  0  0  0  0  0
   -6.7357    3.1634    0.4050 C   0  0  0  0  0  0  0  0  0  0  0  0
   -6.4621    2.1651   -0.9741 N   0  0  0  0  0  0  0  0  0  0  0  0
   -4.8873    2.1491   -2.2186 C   0  0  2  0  0  0  0  0  0  0  0  0
   -5.3369    0.0339   -2.1498 C   0  0  0  0  0  0  0  0  0  0  0  0
   -4.9497   -1.0312   -0.5581 N   0  0  0  0  0  0  0  0  0  0  0  0
   -3.9010   -0.3008    1.1758 C   0  0  2  0  0  0  0  0  0  0  0  0
   -2.1865    0.7019    1.9235 C   0  0  0  0  0  0  0  0  0  0  0  0
   -6.8753    5.9337    3.2661 O   0  0  0  0  0  0  0  0  0  0  0  0
   -5.9332    7.5718    1.5778 C   0  0  0  0  0  0  0  0  0  0  0  0
   -4.9600    8.5499    1.0451 C   0  0  0  0  0  0  0  0  0  0  0  0
   -3.8365    8.8889    1.7955 C   0  0  0  0  0  0  0  0  0  0  0  0
   -2.9424    9.8245    1.2823 C   0  0  0  0  0  0  0  0  0  0  0  0
   -3.1658   10.3695    0.0176 C   0  0  0  0  0  0  0  0  0  0  0  0
   -4.2700   10.0153   -0.7242 C   0  0  0  0  0  0  0  0  0  0  0  0
   -5.1646    9.1270   -0.1973 C   0  0  0  0  0  0  0  0  0  0  0  0
   -2.3458   11.2806   -0.5698 O   0  0  0  0  0  0  0  0  0  0  0  0
   -6.5877    7.0727   -1.8221 O   0  0  0  0  0  0  0  0  0  0  0  0
   -4.0592    4.8036    1.2013 C   0  0  0  0  0  0  0  0  0  0  0  0
   -7.2394    2.5646    1.3707 O   0  0  0  0  0  0  0  0  0  0  0  0
   -3.0855    3.3163   -1.6851 C   0  0  0  0  0  0  0  0  0  0  0  0
   -1.9846    2.2985   -0.1046 C   0  0  0  0  0  0  0  0  0  0  0  0
   -1.9171    0.3580    0.1670 C   0  0  0  0  0  0  0  0  0  0  0  0
   -0.8837    3.0147    0.6439 C   0  0  0  0  0  0  0  0  0  0  0  0
   -2.0003    1.7588    2.6297 O   0  0  0  0  0  0  0  0  0  0  0  0
   -4.9064   -0.4962   -3.2649 O   0  0  0  0  0  0  0  0  0  0  0  0
   -7.1639    1.5239    5.0367 C   0  0  1  0  0  0  0  0  0  0  0  0
   -6.1723    1.8246    6.0791 N   0  0  0  0  0  0  0  0  0  0  0  0
   -6.2493    1.3020    7.3578 C   0  0  0  0  0  0  0  0  0  0  0  0
   -5.1291    1.7501    8.2923 C   0  0  1  0  0  0  0  0  0  0  0  0
   -5.6507    2.0236    9.6503 N   0  0  0  0  0  0  0  0  0  0  0  0
   -5.5819    1.2475   10.8058 C   0  0  0  0  0  0  0  0  0  0  0  0
   -8.4909    3.3550    5.7613 O   0  0  0  0  0  0  0  0  0  0  0  0
   -8.1832    0.4757    5.4976 C   0  0  0  0  0  0  0  0  0  0  0  0
   -7.0077    0.3949    7.7092 O   0  0  0  0  0  0  0  0  0  0  0  0
   -4.2635    0.5774    8.4175 C   0  0  0  0  0  0  0  0  0  0  0  0
   -3.6190   -0.0993    7.2750 C   0  0  0  0  0  0  0  0  0  0  0  0
   -2.3797   -0.7185    7.2246 N   0  0  0  0  0  0  0  0  0  0  0  0
   -2.2089   -1.2024    5.9639 C   0  0  0  0  0  0  0  0  0  0  0  0
   -3.2808   -1.0065    5.2516 N   0  0  0  0  0  0  0  0  0  0  0  0
   -4.1795   -0.4471    6.0842 C   0  0  0  0  0  0  0  0  0  0  0  0
   -6.0969    1.7233   11.8311 O   0  0  0  0  0  0  0  0  0  0  0  0
   -9.4214    5.1660    4.2480 C   0  0  0  0  0  0  0  0  0  0  0  0
  -10.1297    6.3357    3.8983 O   0  0  0  0  0  0  0  0  0  0  0  0
   -3.2000    4.1748    0.2579 O   0  0  0  0  0  0  0  0  0  0  0  0
   -3.7776    2.5865   -0.2554 C   0  0  0  0  0  0  0  0  0  0  0  0
   -4.2742    2.2478    1.5853 C   0  0  0  0  0  0  0  0  0  0  0  0
   -3.0509   -0.3713   -1.3020 C   0  0  0  0  0  0  0  0  0  0  0  0
   -4.1087    0.5166   -0.7678 C   0  0  0  0  0  0  0  0  0  0  0  0
   -4.7350   -0.1739   10.9570 C   0  0  1  0  0  0  0  0  0  0  0  0
   -4.1958   -1.1950    9.9885 N   0  0  0  0  0  0  0  0  0  0  0  0
   -2.8729   -1.4645   10.1209 C   0  0  0  0  0  0  0  0  0  0  0  0
   -2.5327   -1.0502   11.4811 C   0  0  0  0  0  0  0  0  0  0  0  0
   -3.4857    0.1027   11.8082 C   0  0  0  0  0  0  0  0  0  0  0  0
   -2.1724   -2.0277    9.3020 O   0  0  0  0  0  0  0  0  0  0  0  0
   -4.7768    3.4769   -0.7512 C   0  0  0  0  0  0  0  0  0  0  0  0
   -2.6668    1.7290   -1.9552 C   0  0  0  0  0  0  0  0  0  0  0  0
   -4.6938   -1.3850    2.9695 C   0  0  0  0  0  0  0  0  0  0  0  0
   -5.8557   -1.7306    2.0510 C   0  0  0  0  0  0  0  0  0  0  0  0
   -5.5975   -2.9514    1.2841 N   0  0  0  0  0  0  0  0  0  0  0  0
   -6.3645   -4.0219    1.4905 C   0  0  0  0  0  0  0  0  0  0  0  0
   -6.1230   -5.1017    0.7332 N   0  0  0  0  0  0  0  0  0  0  0  0
   -7.2610   -3.9492    2.4018 N   0  0  0  0  0  0  0  0  0  0  0  0
   -0.4282   -1.0723   -1.1936 H   0  0  0  0  0  0  0  0  0  0  0  0
    1.0310    1.8358    0.8462 H   0  0  0  0  0  0  0  0  0  0  0  0
    0.3766    1.5515   -0.8416 H   0  0  0  0  0  0  0  0  0  0  0  0
    2.4130    0.2835    0.4792 H   0  0  0  0  0  0  0  0  0  0  0  0
    1.7815    0.0448   -1.1997 H   0  0  0  0  0  0  0  0  0  0  0  0
    0.8519   -1.4251    1.4017 H   0  0  0  0  0  0  0  0  0  0  0  0
    1.3197   -2.2044   -0.2204 H   0  0  0  0  0  0  0  0  0  0  0  0
   -3.4835   -2.1061    0.0778 H   0  0  0  0  0  0  0  0  0  0  0  0
  -12.7915   -1.4889    2.4774 H   0  0  0  0  0  0  0  0  0  0  0  0
  -13.4420   -2.9478    4.3910 H   0  0  0  0  0  0  0  0  0  0  0  0
  -12.0597   -3.0549    6.4322 H   0  0  0  0  0  0  0  0  0  0  0  0
  -10.0112   -1.6883    6.6323 H   0  0  0  0  0  0  0  0  0  0  0  0
   -8.8431    1.4677    2.7802 H   0  0  0  0  0  0  0  0  0  0  0  0
  -10.8080    0.4315    1.7612 H   0  0  0  0  0  0  0  0  0  0  0  0
   -3.2339   -2.3161    1.7880 H   0  0  0  0  0  0  0  0  0  0  0  0
   -2.6110   -1.0817    2.7944 H   0  0  0  0  0  0  0  0  0  0  0  0
   -7.4775    2.8420    2.7943 H   0  0  0  0  0  0  0  0  0  0  0  0
   -9.4359    4.2419    2.2658 H   0  0  0  0  0  0  0  0  0  0  0  0
   -8.7196    5.7694    0.6114 H   0  0  0  0  0  0  0  0  0  0  0  0
   -7.6657    7.9968    0.3427 H   0  0  0  0  0  0  0  0  0  0  0  0
   -5.1762    5.3519   -1.3747 H   0  0  0  0  0  0  0  0  0  0  0  0
   -6.0653    5.1693    1.5919 H   0  0  0  0  0  0  0  0  0  0  0  0
   -6.6704    1.2647   -0.4502 H   0  0  0  0  0  0  0  0  0  0  0  0
   -5.1565    2.6319   -3.1488 H   0  0  0  0  0  0  0  0  0  0  0  0
   -4.3614   -1.7895   -1.0367 H   0  0  0  0  0  0  0  0  0  0  0  0
   -4.9286    0.1630    1.3194 H   0  0  0  0  0  0  0  0  0  0  0  0
   -6.3819    7.9568    2.4907 H   0  0  0  0  0  0  0  0  0  0  0  0
   -5.2907    6.7559    1.9050 H   0  0  0  0  0  0  0  0  0  0  0  0
   -3.6790    8.4345    2.7743 H   0  0  0  0  0  0  0  0  0  0  0  0
   -2.0939   10.1188    1.8849 H   0  0  0  0  0  0  0  0  0  0  0  0
   -4.4758   10.4298   -1.7012 H   0  0  0  0  0  0  0  0  0  0  0  0
   -6.0309    8.9126   -0.8008 H   0  0  0  0  0  0  0  0  0  0  0  0
   -1.5953   11.4762    0.0080 H   0  0  0  0  0  0  0  0  0  0  0  0
   -3.6115    5.7911    1.2354 H   0  0  0  0  0  0  0  0  0  0  0  0
   -3.8205    4.3413    2.1524 H   0  0  0  0  0  0  0  0  0  0  0  0
   -1.9823    3.4337   -2.1525 H   0  0  0  0  0  0  0  0  0  0  0  0
   -3.0869    4.4386   -1.6200 H   0  0  0  0  0  0  0  0  0  0  0  0
   -2.4666    2.5737    0.8569 H   0  0  0  0  0  0  0  0  0  0  0  0
   -1.3961   -0.0969   -0.5259 H   0  0  0  0  0  0  0  0  0  0  0  0
   -1.8185   -0.6320    1.1308 H   0  0  0  0  0  0  0  0  0  0  0  0
   -2.6023   -0.4515    0.3100 H   0  0  0  0  0  0  0  0  0  0  0  0
   -1.0966    4.0309    0.9055 H   0  0  0  0  0  0  0  0  0  0  0  0
   -0.4430    2.5629    1.5905 H   0  0  0  0  0  0  0  0  0  0  0  0
   -0.3173    2.9833   -0.2309 H   0  0  0  0  0  0  0  0  0  0  0  0
   -6.6415    1.1797    4.1361 H   0  0  0  0  0  0  0  0  0  0  0  0
   -5.4417    2.4906    5.8578 H   0  0  0  0  0  0  0  0  0  0  0  0
   -4.4877    2.5285    7.9134 H   0  0  0  0  0  0  0  0  0  0  0  0
   -6.3098    2.7960    9.6832 H   0  0  0  0  0  0  0  0  0  0  0  0
   -7.6510   -0.4538    5.7423 H   0  0  0  0  0  0  0  0  0  0  0  0
   -8.6945    0.8388    6.4043 H   0  0  0  0  0  0  0  0  0  0  0  0
   -3.4895    0.8275    9.1634 H   0  0  0  0  0  0  0  0  0  0  0  0
   -5.1514   -0.0078    8.7661 H   0  0  0  0  0  0  0  0  0  0  0  0
   -1.7577   -0.9657    7.9920 H   0  0  0  0  0  0  0  0  0  0  0  0
   -1.3098   -1.6897    5.6146 H   0  0  0  0  0  0  0  0  0  0  0  0
   -5.1956   -0.2758    5.7936 H   0  0  0  0  0  0  0  0  0  0  0  0
  -10.1233    4.4336    4.6518 H   0  0  0  0  0  0  0  0  0  0  0  0
   -8.6642    5.4216    5.0057 H   0  0  0  0  0  0  0  0  0  0  0  0
   -9.4546    6.9879    3.6418 H   0  0  0  0  0  0  0  0  0  0  0  0
   -4.7993    2.8987    2.2825 H   0  0  0  0  0  0  0  0  0  0  0  0
   -4.2913    1.2910    1.8327 H   0  0  0  0  0  0  0  0  0  0  0  0
   -3.7006    2.0612    2.4861 H   0  0  0  0  0  0  0  0  0  0  0  0
   -3.3565    0.6191   -0.3379 H   0  0  0  0  0  0  0  0  0  0  0  0
   -2.1816    0.1586   -1.5932 H   0  0  0  0  0  0  0  0  0  0  0  0
   -5.2821    0.5740   -0.4873 H   0  0  0  0  0  0  0  0  0  0  0  0
   -4.1026    1.1764   -1.4164 H   0  0  0  0  0  0  0  0  0  0  0  0
   -3.8464   -0.2500   -1.6921 H   0  0  0  0  0  0  0  0  0  0  0  0
   -5.4613   -0.8062   11.4597 H   0  0  0  0  0  0  0  0  0  0  0  0
   -4.4882   -1.4088    9.0290 H   0  0  0  0  0  0  0  0  0  0  0  0
   -1.4779   -0.8099   11.5549 H   0  0  0  0  0  0  0  0  0  0  0  0
   -2.8091   -1.9474   12.0329 H   0  0  0  0  0  0  0  0  0  0  0  0
   -3.0270    1.0811   11.5883 H   0  0  0  0  0  0  0  0  0  0  0  0
   -3.7325    0.1076   12.8726 H   0  0  0  0  0  0  0  0  0  0  0  0
   -5.5892    3.7172   -1.5241 H   0  0  0  0  0  0  0  0  0  0  0  0
   -4.9282    2.4770   -0.5165 H   0  0  0  0  0  0  0  0  0  0  0  0
   -5.0603    3.4162    0.1809 H   0  0  0  0  0  0  0  0  0  0  0  0
   -2.8598    2.2477   -3.0345 H   0  0  0  0  0  0  0  0  0  0  0  0
   -1.5310    1.7388   -1.8686 H   0  0  0  0  0  0  0  0  0  0  0  0
   -2.8759    0.9167   -2.7586 H   0  0  0  0  0  0  0  0  0  0  0  0
   -4.4198   -2.1628    3.6613 H   0  0  0  0  0  0  0  0  0  0  0  0
   -4.7577   -0.3693    3.4044 H   0  0  0  0  0  0  0  0  0  0  0  0
   -6.6875   -1.7561    2.7263 H   0  0  0  0  0  0  0  0  0  0  0  0
   -6.1843   -0.9473    1.3539 H   0  0  0  0  0  0  0  0  0  0  0  0
   -4.9809   -2.9542    0.4878 H   0  0  0  0  0  0  0  0  0  0  0  0
   -6.6503   -5.9454    0.9012 H   0  0  0  0  0  0  0  0  0  0  0  0
   -5.4007   -5.1714    0.0306 H   0  0  0  0  0  0  0  0  0  0  0  0
   -7.7745   -4.8081    2.5121 H   0  0  0  0  0  0  0  0  0  0  0  0
  1  2  1  0  0  0  0
  1 90  1  6  0  0  0
  1  6  1  0  0  0  0
  2  3  1  0  0  0  0
  3  4  1  0  0  0  0
  3 91  1  0  0  0  0
  3 92  1  0  0  0  0
  4  5  1  0  0  0  0
  4 93  1  0  0  0  0
  4 94  1  0  0  0  0
  5  1  1  0  0  0  0
  5 95  1  0  0  0  0
  5 96  1  0  0  0  0
  6  8  2  0  0  0  0
  6  7  1  0  0  0  0
  7 74  1  0  0  0  0
  7 97  1  0  0  0  0
  9 10  2  0  0  0  0
  9 98  1  0  0  0  0
 10 11  1  0  0  0  0
 10 99  1  0  0  0  0
 11 12  2  0  0  0  0
 11100  1  0  0  0  0
 12 14  1  0  0  0  0
 12101  1  0  0  0  0
 13  9  1  0  0  0  0
 13 14  2  0  0  0  0
 14 15  1  0  0  0  0
 15 16  2  0  0  0  0
 16 17  1  0  0  0  0
 16102  1  0  0  0  0
 17 13  1  0  0  0  0
 17103  1  0  0  0  0
 18 84  1  0  0  0  0
 18104  1  0  0  0  0
 18105  1  0  0  0  0
 19 20  1  0  0  0  0
 19 53  1  0  0  0  0
 19 59  2  0  0  0  0
 20 21  1  0  0  0  0
 20106  1  0  0  0  0
 21 22  1  0  0  0  0
 21 69  1  0  0  0  0
 21107  1  6  0  0  0
 22 23  1  0  0  0  0
 22 35  2  0  0  0  0
 23 24  1  0  0  0  0
 23108  1  0  0  0  0
 24 25  1  0  0  0  0
 24 36  1  0  0  0  0
 24109  1  6  0  0  0
 25 44  2  0  0  0  0
 25 26  1  0  0  0  0
 26 27  1  0  0  0  0
 26110  1  0  0  0  0
 27 45  1  0  0  0  0
 27 28  1  0  0  0  0
 27111  1  1  0  0  0
 28 46  2  0  0  0  0
 28 29  1  0  0  0  0
 29112  1  0  0  0  0
 30 31  1  0  0  0  0
 30113  1  6  0  0  0
 30 29  1  0  0  0  0
 30 47  1  0  0  0  0
 31 52  2  0  0  0  0
 31 32  1  0  0  0  0
 32114  1  0  0  0  0
 33 34  1  0  0  0  0
 33115  1  1  0  0  0
 33 32  1  0  0  0  0
 33 18  1  0  0  0  0
 34 51  2  0  0  0  0
 34  2  1  0  0  0  0
 36 37  1  0  0  0  0
 36116  1  0  0  0  0
 36117  1  0  0  0  0
 37 38  2  0  0  0  0
 38 39  1  0  0  0  0
 38118  1  0  0  0  0
 39 40  2  0  0  0  0
 39119  1  0  0  0  0
 40 41  1  0  0  0  0
 40 43  1  0  0  0  0
 41 42  2  0  0  0  0
 41120  1  0  0  0  0
 42 37  1  0  0  0  0
 42121  1  0  0  0  0
 43122  1  0  0  0  0
 45 71  1  0  0  0  0
 45123  1  0  0  0  0
 45124  1  0  0  0  0
 47 48  1  0  0  0  0
 47125  1  0  0  0  0
 47126  1  0  0  0  0
 48 49  1  0  0  0  0
 48 50  1  0  0  0  0
 48127  1  0  0  0  0
 49128  1  0  0  0  0
 49129  1  0  0  0  0
 49130  1  0  0  0  0
 50131  1  0  0  0  0
 50132  1  0  0  0  0
 50133  1  0  0  0  0
 53 54  1  0  0  0  0
 53 60  1  0  0  0  0
 53134  1  6  0  0  0
 54 55  1  0  0  0  0
 54135  1  0  0  0  0
 55 56  1  0  0  0  0
 55 61  2  0  0  0  0
 56 57  1  0  0  0  0
 56 62  1  0  0  0  0
 56136  1  6  0  0  0
 57 58  1  0  0  0  0
 57137  1  0  0  0  0
 58 68  2  0  0  0  0
 60 15  1  0  0  0  0
 60138  1  0  0  0  0
 60139  1  0  0  0  0
 62 63  1  0  0  0  0
 62140  1  0  0  0  0
 62141  1  0  0  0  0
 63 64  1  0  0  0  0
 64 65  1  0  0  0  0
 64142  1  0  0  0  0
 65 66  2  0  0  0  0
 65143  1  0  0  0  0
 66 67  1  0  0  0  0
 67 63  2  0  0  0  0
 67144  1  0  0  0  0
 69 70  1  0  0  0  0
 69145  1  0  0  0  0
 69146  1  0  0  0  0
 70147  1  0  0  0  0
 71 72  1  0  0  0  0
 72 73  1  0  0  0  0
 72 82  1  0  0  0  0
 72 83  1  0  0  0  0
 73148  1  0  0  0  0
 73149  1  0  0  0  0
 73150  1  0  0  0  0
 74 75  1  0  0  0  0
 74151  1  0  0  0  0
 74152  1  0  0  0  0
 75153  1  0  0  0  0
 75154  1  0  0  0  0
 75155  1  0  0  0  0
 76 58  1  0  0  0  0
 76 77  1  0  0  0  0
 76 80  1  0  0  0  0
 76156  1  1  0  0  0
 77 78  1  0  0  0  0
 77157  1  0  0  0  0
 78 79  1  0  0  0  0
 78 81  2  0  0  0  0
 79 80  1  0  0  0  0
 79158  1  0  0  0  0
 79159  1  0  0  0  0
 80160  1  0  0  0  0
 80161  1  0  0  0  0
 82162  1  0  0  0  0
 82163  1  0  0  0  0
 82164  1  0  0  0  0
 83165  1  0  0  0  0
 83166  1  0  0  0  0
 83167  1  0  0  0  0
 84 85  1  0  0  0  0
 84168  1  0  0  0  0
 84169  1  0  0  0  0
 85 86  1  0  0  0  0
 85170  1  0  0  0  0
 85171  1  0  0  0  0
 86 87  1  0  0  0  0
 86172  1  0  0  0  0
 87 88  1  0  0  0  0
 87 89  2  0  0  0  0
 88173  1  0  0  0  0
 88174  1  0  0  0  0
 89175  1  0  0  0  0
M  END
>  <DRUGBANK_ID>
DB06719

>  <COMMON_NAME>
Buserelin

>  <CAS_NUMBER>
57982-77-1

>  <UNII>
PXW8U3YXDV

>  <SYNONYMS>
Buserelin; Buserelina; Busereline; Buserelinum; Etilamide; Tiloryth

$$$$
