
 OpenBabel10282417183D

 40 42  0  0  0  0  0  0  0  0999 V2000
    1.0404    0.1176    0.0678 C   0  0  0  0  0  0  0  0  0  0  0  0
    0.5062   -0.3302    1.3508 N   0  0  0  0  0  0  0  0  0  0  0  0
   -0.9606   -0.3417    1.3669 C   0  0  0  0  0  0  0  0  0  0  0  0
   -1.4451   -1.2784    0.3114 C   0  0  0  0  0  0  0  0  0  0  0  0
   -1.2338   -2.6803    0.2794 C   0  0  0  0  0  0  0  0  0  0  0  0
   -1.6619   -3.1625   -0.9461 C   0  0  0  0  0  0  0  0  0  0  0  0
   -2.1822   -2.0820   -1.6340 N   0  0  0  0  0  0  0  0  0  0  0  0
   -2.0872   -0.9480   -0.8689 C   0  0  0  0  0  0  0  0  0  0  0  0
   -2.8620   -2.1546   -3.2020 S   0  0  0  0  0  0  0  0  0  0  0  0
   -1.7616   -2.4642   -4.0986 O   0  0  0  0  0  0  0  0  0  0  0  0
   -4.0148   -3.0194   -3.0610 O   0  0  0  0  0  0  0  0  0  0  0  0
   -3.4158   -0.5475   -3.6374 C   0  0  0  0  0  0  0  0  0  0  0  0
   -2.5332    0.5224   -3.8041 C   0  0  0  0  0  0  0  0  0  0  0  0
   -3.0506    1.7673   -4.1525 C   0  0  0  0  0  0  0  0  0  0  0  0
   -4.4175    1.8769   -4.3592 C   0  0  0  0  0  0  0  0  0  0  0  0
   -5.2810    0.8448   -4.2349 N   0  0  0  0  0  0  0  0  0  0  0  0
   -4.7619   -0.3537   -3.8814 C   0  0  0  0  0  0  0  0  0  0  0  0
   -1.6250   -4.5441   -1.4014 C   0  0  0  0  0  0  0  0  0  0  0  0
   -0.9168   -4.9107   -2.5495 C   0  0  0  0  0  0  0  0  0  0  0  0
   -0.9144   -6.2362   -2.9802 C   0  0  0  0  0  0  0  0  0  0  0  0
   -1.5841   -7.2116   -2.2421 C   0  0  0  0  0  0  0  0  0  0  0  0
   -2.2576   -6.8634   -1.0727 C   0  0  0  0  0  0  0  0  0  0  0  0
   -2.2718   -5.5380   -0.6592 C   0  0  0  0  0  0  0  0  0  0  0  0
   -2.9209   -5.2253    0.4739 F   0  0  0  0  0  0  0  0  0  0  0  0
    0.6932    1.1282   -0.1659 H   0  0  0  0  0  0  0  0  0  0  0  0
    0.7671   -0.5488   -0.7578 H   0  0  0  0  0  0  0  0  0  0  0  0
    2.1325    0.1301    0.1049 H   0  0  0  0  0  0  0  0  0  0  0  0
    0.8413   -1.2747    1.5394 H   0  0  0  0  0  0  0  0  0  0  0  0
   -1.3131   -0.6744    2.3501 H   0  0  0  0  0  0  0  0  0  0  0  0
   -1.3505    0.6699    1.2093 H   0  0  0  0  0  0  0  0  0  0  0  0
   -0.7610   -3.2749    1.0538 H   0  0  0  0  0  0  0  0  0  0  0  0
   -2.4203    0.0198   -1.2105 H   0  0  0  0  0  0  0  0  0  0  0  0
   -1.4621    0.4043   -3.6556 H   0  0  0  0  0  0  0  0  0  0  0  0
   -2.4087    2.6349   -4.2649 H   0  0  0  0  0  0  0  0  0  0  0  0
   -4.8692    2.8237   -4.6428 H   0  0  0  0  0  0  0  0  0  0  0  0
   -5.4864   -1.1606   -3.8060 H   0  0  0  0  0  0  0  0  0  0  0  0
   -0.3638   -4.1733   -3.1267 H   0  0  0  0  0  0  0  0  0  0  0  0
   -0.3918   -6.5003   -3.8962 H   0  0  0  0  0  0  0  0  0  0  0  0
   -1.5786   -8.2438   -2.5788 H   0  0  0  0  0  0  0  0  0  0  0  0
   -2.7798   -7.6087   -0.4832 H   0  0  0  0  0  0  0  0  0  0  0  0
  1  2  1  0  0  0  0
  1 25  1  0  0  0  0
  1 26  1  0  0  0  0
  1 27  1  0  0  0  0
  2  3  1  0  0  0  0
  2 28  1  0  0  0  0
  3  4  1  0  0  0  0
  3 29  1  0  0  0  0
  3 30  1  0  0  0  0
  4  5  1  0  0  0  0
  4  8  2  0  0  0  0
  5  6  2  0  0  0  0
  5 31  1  0  0  0  0
  6  7  1  0  0  0  0
  6 18  1  0  0  0  0
  7  8  1  0  0  0  0
  7  9  1  0  0  0  0
  8 32  1  0  0  0  0
  9 10  2  0  0  0  0
  9 11  2  0  0  0  0
  9 12  1  0  0  0  0
 12 13  2  0  0  0  0
 12 17  1  0  0  0  0
 13 14  1  0  0  0  0
 13 33  1  0  0  0  0
 14 15  2  0  0  0  0
 14 34  1  0  0  0  0
 15 16  1  0  0  0  0
 15 35  1  0  0  0  0
 16 17  2  0  0  0  0
 17 36  1  0  0  0  0
 18 19  2  0  0  0  0
 18 23  1  0  0  0  0
 19 20  1  0  0  0  0
 19 37  1  0  0  0  0
 20 21  2  0  0  0  0
 20 38  1  0  0  0  0
 21 22  1  0  0  0  0
 21 39  1  0  0  0  0
 22 23  2  0  0  0  0
 22 40  1  0  0  0  0
 23 24  1  0  0  0  0
M  END
>  <DRUGBANK_ID>
DB11739

>  <COMMON_NAME>
Vonoprazan

>  <CAS_NUMBER>
881681-00-1

>  <UNII>
1R5L3J156G

>  <SYNONYMS>
1-[5-(2-fluorophenyl)-1-pyridin-3-ylsulfonylpyrrol-3-yl]-N-methylmethanamine; Vonoprazan

$$$$
