
 OpenBabel10282417143D

 73 78  0  0  0  0  0  0  0  0999 V2000
    1.2115    0.7523   -0.2428 O   0  0  0  0  0  0  0  0  0  0  0  0
   -1.8058    0.1581   -0.6327 O   0  0  0  0  0  0  0  0  0  0  0  0
    0.0087    2.9977    2.0845 O   0  0  0  0  0  0  0  0  0  0  0  0
   -1.7460   -3.7310   -1.6653 O   0  0  0  0  0  0  0  0  0  0  0  0
    0.6707   -2.3102   -6.0000 O   0  0  0  0  0  0  0  0  0  0  0  0
    4.1143   -3.0954   -3.0704 O   0  0  0  0  0  0  0  0  0  0  0  0
    2.2584   -1.1777    0.4300 N   0  0  0  0  0  0  0  0  0  0  0  0
   -0.7673   -2.3847   -0.1719 N   0  0  0  0  0  0  0  0  0  0  0  0
    5.9871   -3.1112    2.2750 N   0  0  0  0  0  0  0  0  0  0  0  0
    3.8150   -2.7099    0.3709 N   0  0  0  0  0  0  0  0  0  0  0  0
    2.3514   -0.6095    2.7451 N   0  0  0  0  0  0  0  0  0  0  0  0
    4.4318   -1.6339    3.6825 N   0  0  0  0  0  0  0  0  0  0  0  0
   -0.1172   -1.1930    0.4374 C   0  0  1  0  0  0  0  0  0  0  0  0
    1.1107   -0.6538   -0.2281 C   0  0  1  0  0  0  0  0  0  0  0  0
   -0.9449    0.0821    0.5043 C   0  0  1  0  0  0  0  0  0  0  0  0
    0.0754    1.2365    0.4594 C   0  0  1  0  0  0  0  0  0  0  0  0
    0.5571    1.7109    1.8290 C   0  0  0  0  0  0  0  0  0  0  0  0
    2.7614   -1.2458    1.6799 C   0  0  0  0  0  0  0  0  0  0  0  0
    6.9383   -4.0357    1.1254 C   0  0  2  0  0  0  0  0  0  0  0  0
    7.3060   -5.4193   -0.1299 C   0  0  0  0  0  0  0  0  0  0  0  0
    3.0626   -1.8647   -0.3110 C   0  0  0  0  0  0  0  0  0  0  0  0
    3.8431   -2.1312    1.5292 C   0  0  0  0  0  0  0  0  0  0  0  0
    5.9913   -5.4585   -0.8929 C   0  0  0  0  0  0  0  0  0  0  0  0
    6.6198   -5.1586    2.0998 C   0  0  0  0  0  0  0  0  0  0  0  0
    5.0146   -5.6565    0.2646 C   0  0  0  0  0  0  0  0  0  0  0  0
    5.7217   -6.1164    1.5925 C   0  0  0  0  0  0  0  0  0  0  0  0
   -0.7540   -3.0333   -1.3941 C   0  0  0  0  0  0  0  0  0  0  0  0
    4.8128   -2.3318    2.5039 C   0  0  0  0  0  0  0  0  0  0  0  0
    7.4919   -5.3152    3.2063 C   0  0  0  0  0  0  0  0  0  0  0  0
    6.0943   -7.4054    1.9552 C   0  0  0  0  0  0  0  0  0  0  0  0
    0.3477   -2.9798   -2.4198 C   0  0  0  0  0  0  0  0  0  0  0  0
    3.2347   -0.8772    3.7326 C   0  0  0  0  0  0  0  0  0  0  0  0
    7.7401   -6.5903    3.6335 C   0  0  0  0  0  0  0  0  0  0  0  0
    7.1252   -7.6290    2.9255 C   0  0  0  0  0  0  0  0  0  0  0  0
    1.6892   -3.3487   -2.1516 C   0  0  0  0  0  0  0  0  0  0  0  0
    0.0297   -2.6570   -3.7424 C   0  0  0  0  0  0  0  0  0  0  0  0
    1.0441   -2.5412   -4.7048 C   0  0  0  0  0  0  0  0  0  0  0  0
    2.7329   -3.0951   -3.0944 C   0  0  0  0  0  0  0  0  0  0  0  0
    2.3752   -2.6716   -4.3451 C   0  0  0  0  0  0  0  0  0  0  0  0
    1.7608   -2.2911   -6.9283 C   0  0  0  0  0  0  0  0  0  0  0  0
    4.8331   -2.9948   -1.8785 C   0  0  0  0  0  0  0  0  0  0  0  0
   -1.6034   -2.6514    0.3443 H   0  0  0  0  0  0  0  0  0  0  0  0
    6.5219   -3.0237    3.1369 H   0  0  0  0  0  0  0  0  0  0  0  0
   -1.2721    0.0548   -1.4400 H   0  0  0  0  0  0  0  0  0  0  0  0
    0.3606    3.5888    1.3937 H   0  0  0  0  0  0  0  0  0  0  0  0
    0.1034   -1.5106    1.4654 H   0  0  0  0  0  0  0  0  0  0  0  0
    1.1142   -0.9082   -1.2905 H   0  0  0  0  0  0  0  0  0  0  0  0
   -1.5636    0.1186    1.4038 H   0  0  0  0  0  0  0  0  0  0  0  0
   -0.2965    2.0692   -0.1414 H   0  0  0  0  0  0  0  0  0  0  0  0
    0.2320    1.0380    2.6262 H   0  0  0  0  0  0  0  0  0  0  0  0
    1.6500    1.8023    1.8831 H   0  0  0  0  0  0  0  0  0  0  0  0
    6.3859   -3.5080    0.3503 H   0  0  0  0  0  0  0  0  0  0  0  0
    7.3231   -6.3327   -0.8189 H   0  0  0  0  0  0  0  0  0  0  0  0
    7.6026   -6.3017    0.4887 H   0  0  0  0  0  0  0  0  0  0  0  0
    3.0287   -1.7478   -1.3452 H   0  0  0  0  0  0  0  0  0  0  0  0
    5.6520   -6.0397   -1.7849 H   0  0  0  0  0  0  0  0  0  0  0  0
    6.4077   -4.6660   -1.5282 H   0  0  0  0  0  0  0  0  0  0  0  0
    4.1367   -6.2370   -0.0038 H   0  0  0  0  0  0  0  0  0  0  0  0
    4.6268   -4.6739    0.4716 H   0  0  0  0  0  0  0  0  0  0  0  0
    8.0454   -4.4718    3.6232 H   0  0  0  0  0  0  0  0  0  0  0  0
    5.8092   -8.2301    1.3112 H   0  0  0  0  0  0  0  0  0  0  0  0
    2.8959   -0.4165    4.6603 H   0  0  0  0  0  0  0  0  0  0  0  0
    8.4902   -6.7643    4.4019 H   0  0  0  0  0  0  0  0  0  0  0  0
    7.5328   -8.6282    3.0534 H   0  0  0  0  0  0  0  0  0  0  0  0
    1.8695   -3.7415   -1.1530 H   0  0  0  0  0  0  0  0  0  0  0  0
   -1.0082   -2.5301   -4.0423 H   0  0  0  0  0  0  0  0  0  0  0  0
    3.2018   -2.4844   -5.0256 H   0  0  0  0  0  0  0  0  0  0  0  0
    2.4042   -1.4224   -6.7372 H   0  0  0  0  0  0  0  0  0  0  0  0
    2.3501   -3.2199   -6.8956 H   0  0  0  0  0  0  0  0  0  0  0  0
    1.3511   -2.1959   -7.9316 H   0  0  0  0  0  0  0  0  0  0  0  0
    4.9059   -1.9697   -1.4936 H   0  0  0  0  0  0  0  0  0  0  0  0
    4.3849   -3.7570   -1.2578 H   0  0  0  0  0  0  0  0  0  0  0  0
    5.8982   -3.1505   -1.9443 H   0  0  0  0  0  0  0  0  0  0  0  0
  1 14  1  0  0  0  0
  1 16  1  0  0  0  0
  2 44  1  0  0  0  0
  3 17  1  0  0  0  0
  3 45  1  0  0  0  0
  4 27  2  0  0  0  0
  5 37  1  0  0  0  0
  5 40  1  0  0  0  0
  6 38  1  0  0  0  0
  6 41  1  0  0  0  0
  7 18  1  0  0  0  0
  7 21  1  0  0  0  0
  8 27  1  0  0  0  0
  8 42  1  0  0  0  0
  9 28  1  0  0  0  0
  9 43  1  0  0  0  0
 10 21  2  0  0  0  0
 10 22  1  0  0  0  0
 11 18  2  0  0  0  0
 11 32  1  0  0  0  0
 12 28  1  0  0  0  0
 12 32  2  0  0  0  0
 13 14  1  0  0  0  0
 13 15  1  0  0  0  0
 13 46  1  1  0  0  0
 13  8  1  0  0  0  0
 14 47  1  6  0  0  0
 14  7  1  0  0  0  0
 15  2  1  0  0  0  0
 15 16  1  0  0  0  0
 15 48  1  1  0  0  0
 16 49  1  6  0  0  0
 16 17  1  0  0  0  0
 17 50  1  0  0  0  0
 17 51  1  0  0  0  0
 18 22  1  0  0  0  0
 19  9  1  0  0  0  0
 19 20  1  0  0  0  0
 19 24  1  0  0  0  0
 19 52  1  1  0  0  0
 20 23  1  0  0  0  0
 20 53  1  0  0  0  0
 20 54  1  0  0  0  0
 21 55  1  0  0  0  0
 22 28  2  0  0  0  0
 23 25  1  0  0  0  0
 23 56  1  0  0  0  0
 23 57  1  0  0  0  0
 24 26  1  0  0  0  0
 24 29  2  0  0  0  0
 25 26  1  0  0  0  0
 25 58  1  0  0  0  0
 25 59  1  0  0  0  0
 26 30  2  0  0  0  0
 27 31  1  0  0  0  0
 29 33  1  0  0  0  0
 29 60  1  0  0  0  0
 30 34  1  0  0  0  0
 30 61  1  0  0  0  0
 31 35  2  0  0  0  0
 31 36  1  0  0  0  0
 32 62  1  0  0  0  0
 33 34  2  0  0  0  0
 33 63  1  0  0  0  0
 34 64  1  0  0  0  0
 35 38  1  0  0  0  0
 35 65  1  0  0  0  0
 36 37  2  0  0  0  0
 36 66  1  0  0  0  0
 37 39  1  0  0  0  0
 38 39  2  0  0  0  0
 39 67  1  0  0  0  0
 40 68  1  0  0  0  0
 40 69  1  0  0  0  0
 40 70  1  0  0  0  0
 41 71  1  0  0  0  0
 41 72  1  0  0  0  0
 41 73  1  0  0  0  0
M  END
>  <DRUGBANK_ID>
DB04477

>  <SECONDARY_ACCESSION_NUMBERS>
EXPT03076

>  <COMMON_NAME>
2'-Deoxy-2'-[(3,5-dimethoxybenzoyl)amino]-N-[(1R)-1,2,3,4-tetrahydro-1-naphthalenyl]adenosine

>  <SYNONYMS>
N-1,2,3,4-Tetrahydronaphth-1-yl-2'-[3,5-dimethoxybenzamido]-2'-deoxy-adenosine

$$$$
