
 OpenBabel10282417143D

 45 46  0  0  1  0  0  0  0  0999 V2000
   -2.0117   -6.0291   -3.8621 C   0  0  0  0  0  0  0  0  0  0  0  0
   -2.2485    2.5421   -2.2726 C   0  0  0  0  0  0  0  0  0  0  0  0
   -2.6692   -5.1988   -4.9907 C   0  0  2  0  0  0  0  0  0  0  0  0
   -1.7954    1.2873   -3.0167 C   0  0  2  0  0  0  0  0  0  0  0  0
   -1.8056   -5.1109   -6.2513 C   0  0  1  0  0  0  0  0  0  0  0  0
   -0.8737    1.6617   -4.1783 C   0  0  1  0  0  0  0  0  0  0  0  0
   -2.5294   -4.3059   -7.3429 C   0  0  1  0  0  0  0  0  0  0  0  0
   -0.3869    0.3718   -4.8070 C   0  0  1  0  0  0  0  0  0  0  0  0
   -3.0551   -2.9462   -6.8493 C   0  0  2  0  0  0  0  0  0  0  0  0
   -1.5303   -0.5753   -5.1858 C   0  0  2  0  0  0  0  0  0  0  0  0
   -3.6816   -3.0697   -5.4347 C   0  0  1  0  0  0  0  0  0  0  0  0
   -2.6172   -0.6974   -4.0959 C   0  0  1  0  0  0  0  0  0  0  0  0
   -0.8462   -6.7394   -4.2714 O   0  0  0  0  0  0  0  0  0  0  0  0
   -3.0953    2.1795   -1.1861 O   0  0  0  0  0  0  0  0  0  0  0  0
   -0.5500   -4.4961   -5.9046 O   0  0  0  0  0  0  0  0  0  0  0  0
   -1.5557    2.4447   -5.1664 O   0  0  0  0  0  0  0  0  0  0  0  0
   -1.6310   -4.1034   -8.4426 O   0  0  0  0  0  0  0  0  0  0  0  0
    0.4369    0.6292   -5.9481 O   0  0  0  0  0  0  0  0  0  0  0  0
   -3.9416   -2.3118   -7.7796 O   0  0  0  0  0  0  0  0  0  0  0  0
   -0.9025   -1.8591   -5.3757 O   0  0  0  0  0  0  0  0  0  0  0  0
   -2.9021   -3.8489   -4.5129 O   0  0  0  0  0  0  0  0  0  0  0  0
   -2.9448    0.5950   -3.5449 O   0  0  0  0  0  0  0  0  0  0  0  0
   -4.1937   -1.4593   -4.6889 S   0  0  0  0  0  0  0  0  0  0  0  0
   -3.6401   -5.6558   -5.2234 H   0  0  0  0  0  0  0  0  0  0  0  0
   -1.2959    0.6183   -2.3023 H   0  0  0  0  0  0  0  0  0  0  0  0
   -1.5599   -6.1037   -6.6424 H   0  0  0  0  0  0  0  0  0  0  0  0
   -0.0130    2.2455   -3.8357 H   0  0  0  0  0  0  0  0  0  0  0  0
   -3.3676   -4.8942   -7.7294 H   0  0  0  0  0  0  0  0  0  0  0  0
    0.2611   -0.1403   -4.0867 H   0  0  0  0  0  0  0  0  0  0  0  0
   -2.2026   -2.2887   -6.8833 H   0  0  0  0  0  0  0  0  0  0  0  0
   -1.9784   -0.2268   -6.1309 H   0  0  0  0  0  0  0  0  0  0  0  0
   -4.6405   -3.5906   -5.5581 H   0  0  0  0  0  0  0  0  0  0  0  0
   -2.2571   -1.3381   -3.2836 H   0  0  0  0  0  0  0  0  0  0  0  0
   -2.7233   -6.7857   -3.5122 H   0  0  0  0  0  0  0  0  0  0  0  0
   -1.7484   -5.4117   -2.9980 H   0  0  0  0  0  0  0  0  0  0  0  0
   -1.3816    3.0719   -1.8638 H   0  0  0  0  0  0  0  0  0  0  0  0
   -2.8056    3.2232   -2.9220 H   0  0  0  0  0  0  0  0  0  0  0  0
   -0.2284   -6.0845   -4.6592 H   0  0  0  0  0  0  0  0  0  0  0  0
   -3.8517    1.7078   -1.5840 H   0  0  0  0  0  0  0  0  0  0  0  0
   -0.7694   -3.6224   -5.5208 H   0  0  0  0  0  0  0  0  0  0  0  0
   -2.4525    2.0770   -5.2859 H   0  0  0  0  0  0  0  0  0  0  0  0
   -0.8335   -3.6707   -8.0738 H   0  0  0  0  0  0  0  0  0  0  0  0
   -0.1042    1.1255   -6.5924 H   0  0  0  0  0  0  0  0  0  0  0  0
   -4.5825   -2.9609   -8.1173 H   0  0  0  0  0  0  0  0  0  0  0  0
   -0.3554   -2.0201   -4.5811 H   0  0  0  0  0  0  0  0  0  0  0  0
  1 34  1  0  0  0  0
  1 35  1  0  0  0  0
  2 36  1  0  0  0  0
  2 37  1  0  0  0  0
  3 24  1  6  0  0  0
  3  1  1  0  0  0  0
  4  2  1  0  0  0  0
  4 25  1  1  0  0  0
  5  3  1  0  0  0  0
  5 15  1  0  0  0  0
  5 26  1  6  0  0  0
  6  4  1  0  0  0  0
  6 16  1  0  0  0  0
  6 27  1  1  0  0  0
  7  5  1  0  0  0  0
  7 17  1  0  0  0  0
  7 28  1  6  0  0  0
  8  6  1  0  0  0  0
  8 18  1  0  0  0  0
  8 29  1  1  0  0  0
  9  7  1  0  0  0  0
  9 19  1  0  0  0  0
  9 30  1  1  0  0  0
 10  8  1  0  0  0  0
 10 20  1  0  0  0  0
 10 31  1  6  0  0  0
 11  9  1  0  0  0  0
 11 23  1  0  0  0  0
 11 32  1  6  0  0  0
 12 10  1  0  0  0  0
 12 33  1  1  0  0  0
 12 23  1  0  0  0  0
 13  1  1  0  0  0  0
 13 38  1  0  0  0  0
 14  2  1  0  0  0  0
 14 39  1  0  0  0  0
 15 40  1  0  0  0  0
 16 41  1  0  0  0  0
 17 42  1  0  0  0  0
 18 43  1  0  0  0  0
 19 44  1  0  0  0  0
 20 45  1  0  0  0  0
 21  3  1  0  0  0  0
 21 11  1  0  0  0  0
 22  4  1  0  0  0  0
 22 12  1  0  0  0  0
M  END
>  <DRUGBANK_ID>
DB04396

>  <SECONDARY_ACCESSION_NUMBERS>
EXPT03030

>  <COMMON_NAME>
Thiodigalactoside

>  <CAS_NUMBER>
51555-87-4

$$$$
