
 OpenBabel10282417233D

  3  2  0  0  0  0  0  0  0  0999 V2000
    0.9448    0.0806    0.0214 I   0  0  0  0  0  0  0  0  0  0  0  0
    3.5548    0.0806    0.0214 Zn  0  0  0  0  0  0  0  0  0  0  0  0
    6.1648    0.0806    0.0214 I   0  0  0  0  0  0  0  0  0  0  0  0
  1  2  1  0  0  0  0
  2  3  1  0  0  0  0
M  END
>  <DRUGBANK_ID>
DB15961

>  <COMMON_NAME>
Zinc iodide

>  <CAS_NUMBER>
10139-47-6

>  <UNII>
762R7A0O0B

>  <SYNONYMS>
Diiodozinc; Zinc diiodide

$$$$
