
 OpenBabel10282417203D

 37 33  0  0  0  0  0  0  0  0999 V2000
    1.0726   -0.0681    0.0096 C   0  0  0  0  0  0  0  0  0  0  0  0
    0.5659    0.6132   -1.2512 C   0  0  0  0  0  0  0  0  0  0  0  0
   -0.1647   -0.0278   -2.0700 O   0  0  0  0  0  0  0  0  0  0  0  0
    0.9331    2.0611   -1.5326 C   0  0  0  0  0  0  0  0  0  0  0  0
    0.4180    2.9425   -0.4066 C   0  0  0  0  0  0  0  0  0  0  0  0
    1.2315    3.6367    0.2800 O   0  0  0  0  0  0  0  0  0  0  0  0
   -0.9724    2.9904   -0.1218 O   0  5  0  0  0  0  0  0  0  0  0  0
    0.9258   -0.0602   -0.0295 C   0  0  0  0  0  0  0  0  0  0  0  0
    0.4191   -0.9395    1.1021 C   0  0  0  0  0  0  0  0  0  0  0  0
   -0.3116   -0.4419    2.0152 O   0  0  0  0  0  0  0  0  0  0  0  0
    0.7863   -2.4139    1.1416 C   0  0  0  0  0  0  0  0  0  0  0  0
    0.2711   -3.0982   -0.1141 C   0  0  0  0  0  0  0  0  0  0  0  0
    1.0847   -3.6701   -0.9055 O   0  0  0  0  0  0  0  0  0  0  0  0
   -1.1192   -3.0986   -0.4029 O   0  5  0  0  0  0  0  0  0  0  0  0
    0.9293    0.0628    0.0325 C   0  0  0  0  0  0  0  0  0  0  0  0
    0.4227   -1.3691   -0.0249 C   0  0  0  0  0  0  0  0  0  0  0  0
   -0.3080   -1.8226    0.9109 O   0  0  0  0  0  0  0  0  0  0  0  0
    0.7899   -2.2586   -1.2015 C   0  0  0  0  0  0  0  0  0  0  0  0
    0.2747   -1.6349   -2.4883 C   0  0  0  0  0  0  0  0  0  0  0  0
    1.0882   -1.3236   -3.4137 O   0  0  0  0  0  0  0  0  0  0  0  0
   -1.1156   -1.4002   -2.6566 O   0  5  0  0  0  0  0  0  0  0  0  0
    1.0318    0.0938    0.0138 Al  0  1  0  0  0  0  0  0  0  0  0  0
    0.7159   -1.0765    0.0380 H   0  0  0  0  0  0  0  0  0  0  0  0
    0.7159    0.4607    0.8687 H   0  0  0  0  0  0  0  0  0  0  0  0
    2.1426   -0.0681    0.0096 H   0  0  0  0  0  0  0  0  0  0  0  0
    1.9971    2.1527   -1.5991 H   0  0  0  0  0  0  0  0  0  0  0  0
    0.4903    2.3681   -2.4571 H   0  0  0  0  0  0  0  0  0  0  0  0
    0.5691    0.9392    0.1083 H   0  0  0  0  0  0  0  0  0  0  0  0
    0.5691   -0.4405   -0.9639 H   0  0  0  0  0  0  0  0  0  0  0  0
    1.9958   -0.0602   -0.0295 H   0  0  0  0  0  0  0  0  0  0  0  0
    1.8503   -2.5153    1.1920 H   0  0  0  0  0  0  0  0  0  0  0  0
    0.3435   -2.8688    2.0029 H   0  0  0  0  0  0  0  0  0  0  0  0
    0.5727    0.5319    0.9256 H   0  0  0  0  0  0  0  0  0  0  0  0
    0.5727    0.6018   -0.8203 H   0  0  0  0  0  0  0  0  0  0  0  0
    1.9993    0.0628    0.0325 H   0  0  0  0  0  0  0  0  0  0  0  0
    1.8539   -2.3586   -1.2546 H   0  0  0  0  0  0  0  0  0  0  0  0
    0.3470   -3.2238   -1.0707 H   0  0  0  0  0  0  0  0  0  0  0  0
  1  2  1  0  0  0  0
  1 23  1  0  0  0  0
  1 24  1  0  0  0  0
  1 25  1  0  0  0  0
  2  3  2  0  0  0  0
  2  4  1  0  0  0  0
  4  5  1  0  0  0  0
  4 26  1  0  0  0  0
  4 27  1  0  0  0  0
  5  6  2  0  0  0  0
  5  7  1  0  0  0  0
  8  9  1  0  0  0  0
  8 28  1  0  0  0  0
  8 29  1  0  0  0  0
  8 30  1  0  0  0  0
  9 10  2  0  0  0  0
  9 11  1  0  0  0  0
 11 12  1  0  0  0  0
 11 31  1  0  0  0  0
 11 32  1  0  0  0  0
 12 13  2  0  0  0  0
 12 14  1  0  0  0  0
 15 16  1  0  0  0  0
 15 33  1  0  0  0  0
 15 34  1  0  0  0  0
 15 35  1  0  0  0  0
 16 17  2  0  0  0  0
 16 18  1  0  0  0  0
 18 19  1  0  0  0  0
 18 36  1  0  0  0  0
 18 37  1  0  0  0  0
 19 20  2  0  0  0  0
 19 21  1  0  0  0  0
M  CHG  4   7  -1  14  -1  21  -1  22   3
M  END
>  <DRUGBANK_ID>
DB13280

>  <COMMON_NAME>
Aluminium acetoacetate

>  <CAS_NUMBER>
19022-77-6

>  <UNII>
5W12C1HF5I

$$$$
