
 OpenBabel10282417233D

 54 57  0  0  0  0  0  0  0  0999 V2000
    2.1135    0.0643   -0.1931 F   0  0  0  0  0  0  0  0  0  0  0  0
    0.7756    0.1024   -0.2788 C   0  0  0  0  0  0  0  0  0  0  0  0
    0.1122    1.2991   -0.0753 C   0  0  0  0  0  0  0  0  0  0  0  0
   -1.2807    1.3006   -0.0205 C   0  0  0  0  0  0  0  0  0  0  0  0
   -1.9973    0.1001   -0.0916 C   0  0  0  0  0  0  0  0  0  0  0  0
   -1.3417   -1.1151   -0.3117 C   0  0  0  0  0  0  0  0  0  0  0  0
   -2.1380   -2.4113   -0.2213 C   0  0  0  0  0  0  0  0  0  0  0  0
   -1.7173   -3.3716   -1.2173 N   0  0  0  0  0  0  0  0  0  0  0  0
   -1.0284   -4.5389   -1.0583 C   0  0  0  0  0  0  0  0  0  0  0  0
   -0.7067   -5.1438   -2.0962 O   0  0  0  0  0  0  0  0  0  0  0  0
   -0.7560   -5.1623    0.3140 C   0  0  0  0  0  0  0  0  0  0  0  0
    0.1699   -4.3950    1.2231 C   0  0  0  0  0  0  0  0  0  0  0  0
   -0.1791   -3.1277    1.4421 N   0  0  0  0  0  0  0  0  0  0  0  0
    0.5724   -2.3053    2.1842 C   0  0  0  0  0  0  0  0  0  0  0  0
    1.7022   -2.6905    2.8458 C   0  0  0  0  0  0  0  0  0  0  0  0
    2.0094   -4.0502    2.7402 C   0  0  0  0  0  0  0  0  0  0  0  0
    1.2408   -4.9146    1.9245 C   0  0  0  0  0  0  0  0  0  0  0  0
    2.4862   -1.6496    3.5057 C   0  0  0  0  0  0  0  0  0  0  0  0
    3.8487   -1.5066    3.2361 C   0  0  0  0  0  0  0  0  0  0  0  0
    4.5733   -0.4246    3.7542 C   0  0  0  0  0  0  0  0  0  0  0  0
    3.9570    0.5417    4.5550 C   0  0  0  0  0  0  0  0  0  0  0  0
    2.5793    0.4331    4.7634 C   0  0  0  0  0  0  0  0  0  0  0  0
    1.8575   -0.6531    4.2734 C   0  0  0  0  0  0  0  0  0  0  0  0
    4.6417    1.5626    5.1686 N   0  0  0  0  0  0  0  0  0  0  0  0
    5.5797    2.4446    4.4792 C   0  0  0  0  0  0  0  0  0  0  0  0
    6.9935    2.2927    5.0560 C   0  0  0  0  0  0  0  0  0  0  0  0
    7.0071    2.4550    6.4862 O   0  0  0  0  0  0  0  0  0  0  0  0
    6.1624    1.4671    7.1031 C   0  0  0  0  0  0  0  0  0  0  0  0
    4.7033    1.6036    6.6358 C   0  0  0  0  0  0  0  0  0  0  0  0
    0.0616   -1.0782   -0.4772 C   0  0  0  0  0  0  0  0  0  0  0  0
    0.6823    2.2131    0.0517 H   0  0  0  0  0  0  0  0  0  0  0  0
   -1.8146    2.2367    0.1094 H   0  0  0  0  0  0  0  0  0  0  0  0
   -3.0767    0.1151    0.0381 H   0  0  0  0  0  0  0  0  0  0  0  0
   -2.1534   -2.8508    0.7780 H   0  0  0  0  0  0  0  0  0  0  0  0
   -3.1977   -2.2096   -0.4034 H   0  0  0  0  0  0  0  0  0  0  0  0
   -1.7878   -3.0599   -2.1766 H   0  0  0  0  0  0  0  0  0  0  0  0
   -1.7204   -5.2970    0.8157 H   0  0  0  0  0  0  0  0  0  0  0  0
   -0.3486   -6.1649    0.1333 H   0  0  0  0  0  0  0  0  0  0  0  0
    0.2576   -1.2643    2.1606 H   0  0  0  0  0  0  0  0  0  0  0  0
    2.8529   -4.4504    3.2932 H   0  0  0  0  0  0  0  0  0  0  0  0
    1.4851   -5.9688    1.8617 H   0  0  0  0  0  0  0  0  0  0  0  0
    4.3461   -2.2217    2.5845 H   0  0  0  0  0  0  0  0  0  0  0  0
    5.6347   -0.3681    3.5360 H   0  0  0  0  0  0  0  0  0  0  0  0
    2.0536    1.2262    5.2910 H   0  0  0  0  0  0  0  0  0  0  0  0
    0.7874   -0.6916    4.4740 H   0  0  0  0  0  0  0  0  0  0  0  0
    5.2358    3.4699    4.6661 H   0  0  0  0  0  0  0  0  0  0  0  0
    5.5794    2.2946    3.3947 H   0  0  0  0  0  0  0  0  0  0  0  0
    7.4182    1.3136    4.8085 H   0  0  0  0  0  0  0  0  0  0  0  0
    7.6480    3.0612    4.6329 H   0  0  0  0  0  0  0  0  0  0  0  0
    6.2218    1.6100    8.1869 H   0  0  0  0  0  0  0  0  0  0  0  0
    6.5616    0.4713    6.8754 H   0  0  0  0  0  0  0  0  0  0  0  0
    4.3097    2.5745    6.9562 H   0  0  0  0  0  0  0  0  0  0  0  0
    4.0946    0.8221    7.1067 H   0  0  0  0  0  0  0  0  0  0  0  0
    0.6416   -1.9895   -0.6102 H   0  0  0  0  0  0  0  0  0  0  0  0
  1  2  1  0  0  0  0
  2  3  2  0  0  0  0
  2 30  1  0  0  0  0
  3  4  1  0  0  0  0
  3 31  1  0  0  0  0
  4  5  2  0  0  0  0
  4 32  1  0  0  0  0
  5  6  1  0  0  0  0
  5 33  1  0  0  0  0
  6  7  1  0  0  0  0
  6 30  2  0  0  0  0
  7  8  1  0  0  0  0
  7 34  1  0  0  0  0
  7 35  1  0  0  0  0
  8  9  1  0  0  0  0
  8 36  1  0  0  0  0
  9 10  2  0  0  0  0
  9 11  1  0  0  0  0
 11 12  1  0  0  0  0
 11 37  1  0  0  0  0
 11 38  1  0  0  0  0
 12 13  2  0  0  0  0
 12 17  1  0  0  0  0
 13 14  1  0  0  0  0
 14 15  2  0  0  0  0
 14 39  1  0  0  0  0
 15 16  1  0  0  0  0
 15 18  1  0  0  0  0
 16 17  2  0  0  0  0
 16 40  1  0  0  0  0
 17 41  1  0  0  0  0
 18 19  2  0  0  0  0
 18 23  1  0  0  0  0
 19 20  1  0  0  0  0
 19 42  1  0  0  0  0
 20 21  2  0  0  0  0
 20 43  1  0  0  0  0
 21 22  1  0  0  0  0
 21 24  1  0  0  0  0
 22 23  2  0  0  0  0
 22 44  1  0  0  0  0
 23 45  1  0  0  0  0
 24 25  1  0  0  0  0
 24 29  1  0  0  0  0
 25 26  1  0  0  0  0
 25 46  1  0  0  0  0
 25 47  1  0  0  0  0
 26 27  1  0  0  0  0
 26 48  1  0  0  0  0
 26 49  1  0  0  0  0
 27 28  1  0  0  0  0
 28 29  1  0  0  0  0
 28 50  1  0  0  0  0
 28 51  1  0  0  0  0
 29 52  1  0  0  0  0
 29 53  1  0  0  0  0
 30 54  1  0  0  0  0
M  END
>  <DRUGBANK_ID>
DB17180

>  <COMMON_NAME>
KX-2361

>  <CAS_NUMBER>
897016-26-1

>  <UNII>
RVW387BA9U

>  <SYNONYMS>
2-pyridineacetamide, n-((3-fluorophenyl)methyl)-5-(4-(4-morpholinyl)phenyl)-; N-(3-fluorobenzyl)-2-(5-(4-morpholinophenyl) pyridin-2-yl) acetamide

$$$$
