
 OpenBabel10282417153D

102105  0  0  0  0  0  0  0  0999 V2000
    2.4920    0.0040   -0.0140 C   0  0  0  0  0  0  0  0  0  0  0  0
    0.9910   -0.0050    0.0130 C   0  0  0  0  0  0  0  0  0  0  0  0
    0.2750    1.1840    0.0050 C   0  0  0  0  0  0  0  0  0  0  0  0
   -1.1090    1.2060    0.0020 C   0  0  0  0  0  0  0  0  0  0  0  0
   -1.7990    0.0100   -0.0130 C   0  0  0  0  0  0  0  0  0  0  0  0
   -1.1080   -1.2020    0.0010 C   0  0  0  0  0  0  0  0  0  0  0  0
    0.2580   -1.1970    0.0060 C   0  0  0  0  0  0  0  0  0  0  0  0
   -3.6086    0.0146   -0.0510 S   0  0  0  0  0  0  0  0  0  0  0  0
   -4.0942   -0.7050   -1.3114 O   0  0  0  0  0  0  0  0  0  0  0  0
   -4.1467   -0.7060    1.1873 O   0  0  0  0  0  0  0  0  0  0  0  0
   -4.1743    1.6283   -0.0622 O   0  0  0  0  0  0  0  0  0  0  0  0
    2.4920    0.0040   -0.0140 C   0  0  0  0  0  0  0  0  0  0  0  0
    0.9910   -0.0050    0.0130 C   0  0  0  0  0  0  0  0  0  0  0  0
    0.2750    1.1840    0.0050 C   0  0  0  0  0  0  0  0  0  0  0  0
   -1.1090    1.2060    0.0020 C   0  0  0  0  0  0  0  0  0  0  0  0
   -1.7990    0.0100   -0.0130 C   0  0  0  0  0  0  0  0  0  0  0  0
   -1.1080   -1.2020    0.0010 C   0  0  0  0  0  0  0  0  0  0  0  0
    0.2580   -1.1970    0.0060 C   0  0  0  0  0  0  0  0  0  0  0  0
   -3.6086    0.0146   -0.0510 S   0  0  0  0  0  0  0  0  0  0  0  0
   -4.0942   -0.7050   -1.3114 O   0  0  0  0  0  0  0  0  0  0  0  0
   -4.1467   -0.7060    1.1873 O   0  0  0  0  0  0  0  0  0  0  0  0
   -4.1743    1.6283   -0.0622 O   0  0  0  0  0  0  0  0  0  0  0  0
    1.8809   -1.6030   -0.6519 C   0  0  0  0  0  0  0  0  0  0  0  0
    1.3123   -0.9056    1.5304 C   0  0  0  0  0  0  0  0  0  0  0  0
    0.5743    1.1110    2.1444 C   0  0  0  0  0  0  0  0  0  0  0  0
    1.9540   -0.2105    2.5777 C   0  0  0  0  0  0  0  0  0  0  0  0
    2.7310   -0.1053    3.3773 C   0  0  0  0  0  0  0  0  0  0  0  0
    3.7768   -0.2790    4.1017 C   0  0  0  0  0  0  0  0  0  0  0  0
    4.1752   -1.5118    4.5471 C   0  0  0  0  0  0  0  0  0  0  0  0
    5.2264   -1.4887    5.6404 C   0  0  0  0  0  0  0  0  0  0  0  0
    6.1577   -0.6683    5.6259 C   0  0  0  0  0  0  0  0  0  0  0  0
    5.2110    0.5324    5.2048 C   0  0  0  0  0  0  0  0  0  0  0  0
    4.2585    0.8845    4.4188 C   0  0  0  0  0  0  0  0  0  0  0  0
    4.0562    2.2653    4.1984 N   0  0  0  0  0  0  0  0  0  0  0  0
    4.7562    3.4130    4.6810 C   0  0  0  0  0  0  0  0  0  0  0  0
    4.3897    4.5462    4.3713 O   0  0  0  0  0  0  0  0  0  0  0  0
    5.9115    3.4474    5.6265 C   0  0  0  0  0  0  0  0  0  0  0  0
    6.6878    2.4680    5.9901 C   0  0  0  0  0  0  0  0  0  0  0  0
    7.6330   -1.0391    6.7069 C   0  0  0  0  0  0  0  0  0  0  0  0
    8.1581   -0.2674    7.5841 N   0  0  0  0  0  0  0  0  0  0  0  0
    7.0338    0.2167    7.3982 C   0  0  0  0  0  0  0  0  0  0  0  0
    5.6985   -0.8403    6.7881 N   0  0  0  0  0  0  0  0  0  0  0  0
    7.6701   -2.3722    7.2127 N   0  0  0  0  0  0  0  0  0  0  0  0
    6.9427   -3.4442    6.7204 C   0  0  0  0  0  0  0  0  0  0  0  0
    6.6385   -3.5414    5.3494 C   0  0  0  0  0  0  0  0  0  0  0  0
    5.7496   -4.4984    4.8592 C   0  0  0  0  0  0  0  0  0  0  0  0
    5.0583   -5.3034    5.7494 C   0  0  0  0  0  0  0  0  0  0  0  0
    5.3623   -5.2593    7.0992 C   0  0  0  0  0  0  0  0  0  0  0  0
    6.3550   -4.3838    7.5601 C   0  0  0  0  0  0  0  0  0  0  0  0
    4.5346   -6.3081    8.1879 Cl  0  0  0  0  0  0  0  0  0  0  0  0
    4.1265   -6.1503    5.2910 F   0  0  0  0  0  0  0  0  0  0  0  0
   -0.2245   -1.0659    2.2604 N   0  0  0  0  0  0  0  0  0  0  0  0
   -0.1299   -2.4431    2.1920 C   0  0  0  0  0  0  0  0  0  0  0  0
   -1.3557   -3.2212    2.1318 C   0  0  0  0  0  0  0  0  0  0  0  0
   -1.9819   -2.9063    3.3515 N   0  0  0  0  0  0  0  0  0  0  0  0
   -2.1881   -1.4424    3.4933 C   0  0  0  0  0  0  0  0  0  0  0  0
   -0.9971   -0.5202    3.2977 C   0  0  0  0  0  0  0  0  0  0  0  0
   -0.9996   -3.3163    4.3255 C   0  0  0  0  0  0  0  0  0  0  0  0
    2.8673   -0.5130    0.8443 H   0  0  0  0  0  0  0  0  0  0  0  0
    2.8357   -0.4833   -0.9024 H   0  0  0  0  0  0  0  0  0  0  0  0
    2.8429    1.0148   -0.0032 H   0  0  0  0  0  0  0  0  0  0  0  0
    0.8088    2.1113    0.0010 H   0  0  0  0  0  0  0  0  0  0  0  0
   -1.6368    2.1367    0.0112 H   0  0  0  0  0  0  0  0  0  0  0  0
   -1.6438   -2.1281    0.0078 H   0  0  0  0  0  0  0  0  0  0  0  0
    0.7818   -2.1300    0.0045 H   0  0  0  0  0  0  0  0  0  0  0  0
   -5.1741    1.6309   -0.0832 H   0  0  0  0  0  0  0  0  0  0  0  0
    2.8673   -0.5130    0.8443 H   0  0  0  0  0  0  0  0  0  0  0  0
    2.8357   -0.4833   -0.9024 H   0  0  0  0  0  0  0  0  0  0  0  0
    2.8429    1.0148   -0.0032 H   0  0  0  0  0  0  0  0  0  0  0  0
    0.8088    2.1113    0.0010 H   0  0  0  0  0  0  0  0  0  0  0  0
   -1.6368    2.1367    0.0112 H   0  0  0  0  0  0  0  0  0  0  0  0
   -1.6438   -2.1281    0.0078 H   0  0  0  0  0  0  0  0  0  0  0  0
    0.7818   -2.1300    0.0045 H   0  0  0  0  0  0  0  0  0  0  0  0
   -5.1741    1.6309   -0.0832 H   0  0  0  0  0  0  0  0  0  0  0  0
    1.4470   -0.4040   -1.7422 H   0  0  0  0  0  0  0  0  0  0  0  0
    0.9244   -1.6909   -1.8121 H   0  0  0  0  0  0  0  0  0  0  0  0
    2.5570   -2.3161   -0.7967 H   0  0  0  0  0  0  0  0  0  0  0  0
   -0.2481    1.6035    2.8941 H   0  0  0  0  0  0  0  0  0  0  0  0
    1.0778    2.2459    1.8032 H   0  0  0  0  0  0  0  0  0  0  0  0
   -0.4709    2.0160    1.7427 H   0  0  0  0  0  0  0  0  0  0  0  0
    3.6870   -2.4227    4.1737 H   0  0  0  0  0  0  0  0  0  0  0  0
    5.0886    1.4268    5.7470 H   0  0  0  0  0  0  0  0  0  0  0  0
    3.2794    2.4275    3.5820 H   0  0  0  0  0  0  0  0  0  0  0  0
    6.3816    4.2795    6.1328 H   0  0  0  0  0  0  0  0  0  0  0  0
    6.7247    2.3925    7.0559 H   0  0  0  0  0  0  0  0  0  0  0  0
    6.7251    1.4733    5.6667 H   0  0  0  0  0  0  0  0  0  0  0  0
    7.7476    1.2326    7.1685 H   0  0  0  0  0  0  0  0  0  0  0  0
    8.3475   -2.3740    7.9616 H   0  0  0  0  0  0  0  0  0  0  0  0
    6.9371   -2.7294    4.6689 H   0  0  0  0  0  0  0  0  0  0  0  0
    5.5947   -4.5899    3.7930 H   0  0  0  0  0  0  0  0  0  0  0  0
    6.6962   -4.4517    8.5800 H   0  0  0  0  0  0  0  0  0  0  0  0
    0.1896   -2.9373    1.3175 H   0  0  0  0  0  0  0  0  0  0  0  0
    0.8233   -2.5249    2.6544 H   0  0  0  0  0  0  0  0  0  0  0  0
   -2.0794   -3.1192    1.3354 H   0  0  0  0  0  0  0  0  0  0  0  0
   -0.9241   -4.2005    1.9259 H   0  0  0  0  0  0  0  0  0  0  0  0
   -2.9884   -1.1472    2.8493 H   0  0  0  0  0  0  0  0  0  0  0  0
   -2.5098   -1.2605    4.4984 H   0  0  0  0  0  0  0  0  0  0  0  0
   -0.2203   -0.6368    4.0106 H   0  0  0  0  0  0  0  0  0  0  0  0
   -1.4015    0.5001    3.2299 H   0  0  0  0  0  0  0  0  0  0  0  0
   -0.0668   -2.7338    4.3233 H   0  0  0  0  0  0  0  0  0  0  0  0
   -1.4755   -3.1885    5.2682 H   0  0  0  0  0  0  0  0  0  0  0  0
   -0.7312   -4.3521    4.1217 H   0  0  0  0  0  0  0  0  0  0  0  0
  1  2  1  0  0  0  0
  1 59  1  0  0  0  0
  1 60  1  0  0  0  0
  1 61  1  0  0  0  0
  2  3  2  0  0  0  0
  2  7  1  0  0  0  0
  3  4  1  0  0  0  0
  3 62  1  0  0  0  0
  4  5  2  0  0  0  0
  4 63  1  0  0  0  0
  5  6  1  0  0  0  0
  5  8  1  0  0  0  0
  6  7  2  0  0  0  0
  6 64  1  0  0  0  0
  7 65  1  0  0  0  0
  8  9  2  0  0  0  0
  8 10  2  0  0  0  0
  8 11  1  0  0  0  0
 11 66  1  0  0  0  0
 12 13  1  0  0  0  0
 12 67  1  0  0  0  0
 12 68  1  0  0  0  0
 12 69  1  0  0  0  0
 13 14  2  0  0  0  0
 13 18  1  0  0  0  0
 14 15  1  0  0  0  0
 14 70  1  0  0  0  0
 15 16  2  0  0  0  0
 15 71  1  0  0  0  0
 16 17  1  0  0  0  0
 16 19  1  0  0  0  0
 17 18  2  0  0  0  0
 17 72  1  0  0  0  0
 18 73  1  0  0  0  0
 19 20  2  0  0  0  0
 19 21  2  0  0  0  0
 19 22  1  0  0  0  0
 22 74  1  0  0  0  0
 23 24  1  0  0  0  0
 23 75  1  0  0  0  0
 23 76  1  0  0  0  0
 23 77  1  0  0  0  0
 24 25  1  0  0  0  0
 24 26  1  0  0  0  0
 24 52  1  0  0  0  0
 25 78  1  0  0  0  0
 25 79  1  0  0  0  0
 25 80  1  0  0  0  0
 26 27  3  0  0  0  0
 27 28  1  0  0  0  0
 28 29  1  0  0  0  0
 28 33  2  0  0  0  0
 29 30  2  0  0  0  0
 29 81  1  0  0  0  0
 30 31  1  0  0  0  0
 30 42  1  0  0  0  0
 31 32  2  0  0  0  0
 31 39  1  0  0  0  0
 32 33  1  0  0  0  0
 32 82  1  0  0  0  0
 33 34  1  0  0  0  0
 34 35  1  0  0  0  0
 34 83  1  0  0  0  0
 35 36  2  0  0  0  0
 35 37  1  0  0  0  0
 37 38  2  0  0  0  0
 37 84  1  0  0  0  0
 38 85  1  0  0  0  0
 38 86  1  0  0  0  0
 39 40  2  0  0  0  0
 39 43  1  0  0  0  0
 40 41  1  0  0  0  0
 41 42  2  0  0  0  0
 41 87  1  0  0  0  0
 43 44  1  0  0  0  0
 43 88  1  0  0  0  0
 44 45  2  0  0  0  0
 44 49  1  0  0  0  0
 45 46  1  0  0  0  0
 45 89  1  0  0  0  0
 46 47  2  0  0  0  0
 46 90  1  0  0  0  0
 47 48  1  0  0  0  0
 47 51  1  0  0  0  0
 48 49  2  0  0  0  0
 48 50  1  0  0  0  0
 49 91  1  0  0  0  0
 52 53  1  0  0  0  0
 52 57  1  0  0  0  0
 53 54  1  0  0  0  0
 53 92  1  0  0  0  0
 53 93  1  0  0  0  0
 54 55  1  0  0  0  0
 54 94  1  0  0  0  0
 54 95  1  0  0  0  0
 55 56  1  0  0  0  0
 55 58  1  0  0  0  0
 56 57  1  0  0  0  0
 56 96  1  0  0  0  0
 56 97  1  0  0  0  0
 57 98  1  0  0  0  0
 57 99  1  0  0  0  0
 58100  1  0  0  0  0
 58101  1  0  0  0  0
 58102  1  0  0  0  0
M  END
>  <DRUGBANK_ID>
DB06021

>  <COMMON_NAME>
AV-412

>  <CAS_NUMBER>
451493-31-5

>  <UNII>
Z541VW0W40

$$$$
