
 OpenBabel10282417123D

 36 38  0  0  1  0  0  0  0  0999 V2000
    1.3691   -0.2183    0.0219 C   0  0  0  0  0  0  0  0  0  0  0  0
    0.4939   -1.3039    0.0282 C   0  0  0  0  0  0  0  0  0  0  0  0
    0.8644    1.0811    0.0077 C   0  0  0  0  0  0  0  0  0  0  0  0
   -0.8889   -1.0915    0.0077 C   0  0  0  0  0  0  0  0  0  0  0  0
   -0.5184    1.2945    0.0118 C   0  0  0  0  0  0  0  0  0  0  0  0
   -3.8385   -0.0125    0.6738 C   0  0  0  0  0  0  0  0  0  0  0  0
   -6.8289   -1.1810    0.7439 C   0  0  0  0  0  0  0  0  0  0  0  0
   -1.4056    0.2097   -0.0087 C   0  0  0  0  0  0  0  0  0  0  0  0
   -2.8313    0.4393   -0.1533 C   0  0  0  0  0  0  0  0  0  0  0  0
   -6.3571    0.2819    0.6325 C   0  0  2  0  0  0  0  0  0  0  0  0
   -7.4411    1.0680   -0.1443 C   0  0  2  0  0  0  0  0  0  0  0  0
   -7.1301    1.5668   -1.5644 C   0  0  1  0  0  0  0  0  0  0  0  0
   -5.6581    1.8097   -1.9183 C   0  0  2  0  0  0  0  0  0  0  0  0
   -4.6739    1.1451   -1.0228 C   0  0  0  0  0  0  0  0  0  0  0  0
   -3.3598    1.1541   -1.1917 N   0  0  0  0  0  0  0  0  0  0  0  0
   -5.0082    0.4270    0.0949 N   0  0  0  0  0  0  0  0  0  0  0  0
   -6.3661   -1.7737    1.9521 O   0  0  0  0  0  0  0  0  0  0  0  0
   -7.9222    2.1495    0.6696 O   0  0  0  0  0  0  0  0  0  0  0  0
   -7.7352    0.6665   -2.5110 O   0  0  0  0  0  0  0  0  0  0  0  0
   -5.3772    3.2113   -1.9030 O   0  0  0  0  0  0  0  0  0  0  0  0
   -6.2768    0.6931    1.6492 H   0  0  0  0  0  0  0  0  0  0  0  0
   -8.3259    0.4304   -0.2547 H   0  0  0  0  0  0  0  0  0  0  0  0
   -7.6707    2.5126   -1.7002 H   0  0  0  0  0  0  0  0  0  0  0  0
   -5.4660    1.4619   -2.9406 H   0  0  0  0  0  0  0  0  0  0  0  0
    2.4438   -0.3846    0.0198 H   0  0  0  0  0  0  0  0  0  0  0  0
    0.8882   -2.3168    0.0246 H   0  0  0  0  0  0  0  0  0  0  0  0
    1.5447    1.9285   -0.0260 H   0  0  0  0  0  0  0  0  0  0  0  0
   -1.5567   -1.9472   -0.0332 H   0  0  0  0  0  0  0  0  0  0  0  0
   -0.9022    2.3123    0.0145 H   0  0  0  0  0  0  0  0  0  0  0  0
   -3.8093   -0.5706    1.5980 H   0  0  0  0  0  0  0  0  0  0  0  0
   -7.9217   -1.2210    0.8127 H   0  0  0  0  0  0  0  0  0  0  0  0
   -6.5318   -1.7842   -0.1207 H   0  0  0  0  0  0  0  0  0  0  0  0
   -5.7970   -2.5277    1.7257 H   0  0  0  0  0  0  0  0  0  0  0  0
   -7.1853    2.7307    0.9160 H   0  0  0  0  0  0  0  0  0  0  0  0
   -7.2233   -0.1575   -2.5497 H   0  0  0  0  0  0  0  0  0  0  0  0
   -5.7734    3.6001   -1.1095 H   0  0  0  0  0  0  0  0  0  0  0  0
  1 25  1  0  0  0  0
  2  1  2  0  0  0  0
  2 26  1  0  0  0  0
  3  1  1  0  0  0  0
  3 27  1  0  0  0  0
  4  2  1  0  0  0  0
  4 28  1  0  0  0  0
  5  3  2  0  0  0  0
  5 29  1  0  0  0  0
  6 30  1  0  0  0  0
  7 31  1  0  0  0  0
  7 32  1  0  0  0  0
  8  4  2  0  0  0  0
  8  5  1  0  0  0  0
  9  6  2  0  0  0  0
  9  8  1  0  0  0  0
 10 21  1  1  0  0  0
 10  7  1  0  0  0  0
 11 10  1  0  0  0  0
 11 18  1  0  0  0  0
 11 22  1  6  0  0  0
 12 11  1  0  0  0  0
 12 19  1  0  0  0  0
 12 23  1  6  0  0  0
 13 12  1  0  0  0  0
 13 24  1  6  0  0  0
 13 20  1  0  0  0  0
 14 13  1  0  0  0  0
 15  9  1  0  0  0  0
 15 14  2  0  0  0  0
 16  6  1  0  0  0  0
 16 10  1  0  0  0  0
 16 14  1  0  0  0  0
 17  7  1  0  0  0  0
 17 33  1  0  0  0  0
 18 34  1  0  0  0  0
 19 35  1  0  0  0  0
 20 36  1  0  0  0  0
M  END
>  <DRUGBANK_ID>
DB02862

>  <SECONDARY_ACCESSION_NUMBERS>
EXPT01838

>  <COMMON_NAME>
Gluco-Phenylimidazole

$$$$
