
 OpenBabel10282417213D

 17 17  0  0  0  0  0  0  0  0999 V2000
    0.1664   -1.2213    0.0174 C   0  0  0  0  0  0  0  0  0  0  0  0
    0.2037    1.2003    0.0219 C   0  0  0  0  0  0  0  0  0  0  0  0
   -1.2333   -1.1962   -0.0003 C   0  0  0  0  0  0  0  0  0  0  0  0
   -1.1922    1.2337    0.0046 C   0  0  0  0  0  0  0  0  0  0  0  0
    0.8731   -0.0209    0.0203 C   0  0  0  0  0  0  0  0  0  0  0  0
   -1.9055    0.0321   -0.0171 C   0  0  0  0  0  0  0  0  0  0  0  0
    2.2363    0.0161    0.0165 O   0  0  0  0  0  0  0  0  0  0  0  0
   -4.0895    0.9067    1.2473 O   0  0  0  0  0  0  0  0  0  0  0  0
   -4.0543    0.8732   -1.2363 O   0  0  0  0  0  0  0  0  0  0  0  0
   -4.1706   -1.2639    0.1162 O   0  0  0  0  0  0  0  0  0  0  0  0
   -3.6832    0.0823   -0.0825 S   0  0  0  0  0  0  0  0  0  0  0  0
    0.6814   -2.1776    0.0202 H   0  0  0  0  0  0  0  0  0  0  0  0
    0.7751    2.1249    0.0238 H   0  0  0  0  0  0  0  0  0  0  0  0
   -1.7867   -2.1330   -0.0148 H   0  0  0  0  0  0  0  0  0  0  0  0
   -1.7092    2.1907   -0.0124 H   0  0  0  0  0  0  0  0  0  0  0  0
    2.5900   -0.8874   -0.0263 H   0  0  0  0  0  0  0  0  0  0  0  0
   -3.9846    0.3319    2.0325 H   0  0  0  0  0  0  0  0  0  0  0  0
  1 12  1  0  0  0  0
  2 13  1  0  0  0  0
  3  1  1  0  0  0  0
  3 14  1  0  0  0  0
  4  2  2  0  0  0  0
  4 15  1  0  0  0  0
  5  1  2  0  0  0  0
  5  2  1  0  0  0  0
  6  3  2  0  0  0  0
  6  4  1  0  0  0  0
  7  5  1  0  0  0  0
  7 16  1  0  0  0  0
  8 17  1  0  0  0  0
 11  6  1  0  0  0  0
 11  8  1  0  0  0  0
 11  9  2  0  0  0  0
 11 10  2  0  0  0  0
M  END
>  <DRUGBANK_ID>
DB14739

>  <SECONDARY_ACCESSION_NUMBERS>
DBSALT001584

>  <COMMON_NAME>
Phenolsulfonic acid

>  <CAS_NUMBER>
98-67-9

>  <UNII>
L74LRO149A

>  <SYNONYMS>
4-hydroxybenzenesulfonic acid; 4-Sulfophenol; p-Phenolsulfonic acid; Phenolsulfonic acid; Sulfocarbolic acid

$$$$
