IP7
 OpenBabel10282417173D

 55 59  0  0  0  0  0  0  0  0999 V2000
    2.3174   -0.0587    0.1979 N   0  0  0  0  0  0  0  0  0  0  0  0
    0.9222    0.0085    0.0258 C   0  0  0  0  0  0  0  0  0  0  0  0
    0.3553    1.2277    0.0610 N   0  0  0  0  0  0  0  0  0  0  0  0
   -0.9971    1.2786    0.0246 C   0  0  0  0  0  0  0  0  0  0  0  0
   -1.8180    0.1721   -0.0344 C   0  0  0  0  0  0  0  0  0  0  0  0
   -1.2135   -1.0729   -0.0897 C   0  0  0  0  0  0  0  0  0  0  0  0
    0.1822   -1.1870   -0.0481 C   0  0  0  0  0  0  0  0  0  0  0  0
    0.8802   -2.3839   -0.2710 N   0  0  0  0  0  0  0  0  0  0  0  0
    0.1957   -3.6344   -0.1040 C   0  0  0  0  0  0  0  0  0  0  0  0
    0.2604   -4.6192   -1.1996 C   0  0  0  0  0  0  0  0  0  0  0  0
    1.0046   -4.2374   -2.3163 C   0  0  0  0  0  0  0  0  0  0  0  0
    1.3917   -5.1477   -3.2930 C   0  0  0  0  0  0  0  0  0  0  0  0
    0.8965   -6.4457   -3.1582 C   0  0  0  0  0  0  0  0  0  0  0  0
    0.1154   -6.8332   -2.0357 C   0  0  0  0  0  0  0  0  0  0  0  0
   -0.2321   -5.9139   -1.0278 C   0  0  0  0  0  0  0  0  0  0  0  0
   -0.9423   -6.4260    0.0377 O   0  0  0  0  0  0  0  0  0  0  0  0
   -1.5553   -5.6383    1.1104 C   0  0  0  0  0  0  0  0  0  0  0  0
   -0.5919   -5.1856    2.2254 C   0  0  0  0  0  0  0  0  0  0  0  0
   -0.5008   -3.8309    2.6127 C   0  0  0  0  0  0  0  0  0  0  0  0
    0.6975   -3.3650    3.1745 C   0  0  0  0  0  0  0  0  0  0  0  0
    1.6969   -4.2740    3.4889 C   0  0  0  0  0  0  0  0  0  0  0  0
    1.4603   -5.6111    3.2205 C   0  0  0  0  0  0  0  0  0  0  0  0
    0.3559   -6.0793    2.5936 N   0  0  0  0  0  0  0  0  0  0  0  0
    2.4755   -4.7261   -4.1936 C   0  0  0  0  0  0  0  0  0  0  0  0
    2.3706   -4.6783   -5.5937 C   0  0  0  0  0  0  0  0  0  0  0  0
    3.5172   -4.4598   -6.3981 C   0  0  0  0  0  0  0  0  0  0  0  0
    4.7506   -4.2591   -5.7520 C   0  0  0  0  0  0  0  0  0  0  0  0
    6.1547   -4.0191   -5.9964 C   0  0  0  0  0  0  0  0  0  0  0  0
    6.1145   -2.6409   -5.7407 C   0  0  0  0  0  0  0  0  0  0  0  0
    5.6050   -2.7523   -4.4184 N   0  0  0  0  0  0  0  0  0  0  0  0
    4.6267   -3.7452   -4.4646 C   0  0  0  0  0  0  0  0  0  0  0  0
    3.6439   -4.1851   -3.6049 C   0  0  0  0  0  0  0  0  0  0  0  0
    2.6963    0.8582   -0.0152 H   0  0  0  0  0  0  0  0  0  0  0  0
    2.7382   -0.8061   -0.3379 H   0  0  0  0  0  0  0  0  0  0  0  0
   -1.4263    2.2750    0.0493 H   0  0  0  0  0  0  0  0  0  0  0  0
   -2.8983    0.2606   -0.0628 H   0  0  0  0  0  0  0  0  0  0  0  0
   -1.8784   -1.9243   -0.1697 H   0  0  0  0  0  0  0  0  0  0  0  0
    1.7566   -2.3877    0.2497 H   0  0  0  0  0  0  0  0  0  0  0  0
    0.7662   -4.1399    0.6621 H   0  0  0  0  0  0  0  0  0  0  0  0
   -0.8554   -3.5005    0.0920 H   0  0  0  0  0  0  0  0  0  0  0  0
    1.4082   -3.2291   -2.3609 H   0  0  0  0  0  0  0  0  0  0  0  0
    1.1760   -7.2034   -3.8913 H   0  0  0  0  0  0  0  0  0  0  0  0
   -0.1606   -7.8787   -1.9212 H   0  0  0  0  0  0  0  0  0  0  0  0
   -2.1438   -4.8183    0.6810 H   0  0  0  0  0  0  0  0  0  0  0  0
   -2.3059   -6.2775    1.5903 H   0  0  0  0  0  0  0  0  0  0  0  0
   -1.2191   -3.0894    2.2679 H   0  0  0  0  0  0  0  0  0  0  0  0
    0.8907   -2.2952    3.2626 H   0  0  0  0  0  0  0  0  0  0  0  0
    2.6437   -3.9507    3.9085 H   0  0  0  0  0  0  0  0  0  0  0  0
    2.1998   -6.3680    3.4619 H   0  0  0  0  0  0  0  0  0  0  0  0
    1.3918   -4.7708   -6.0607 H   0  0  0  0  0  0  0  0  0  0  0  0
    3.4278   -4.4046   -7.4788 H   0  0  0  0  0  0  0  0  0  0  0  0
    6.9257   -4.4713   -5.3395 H   0  0  0  0  0  0  0  0  0  0  0  0
    5.6368   -1.9288   -6.4146 H   0  0  0  0  0  0  0  0  0  0  0  0
    6.1558   -2.6180   -3.5867 H   0  0  0  0  0  0  0  0  0  0  0  0
    3.7061   -4.0097   -2.5346 H   0  0  0  0  0  0  0  0  0  0  0  0
  1  2  1  0  0  0  0
  1 33  1  0  0  0  0
  1 34  1  0  0  0  0
  2  3  2  0  0  0  0
  2  7  1  0  0  0  0
  3  4  1  0  0  0  0
  4  5  2  0  0  0  0
  4 35  1  0  0  0  0
  5  6  1  0  0  0  0
  5 36  1  0  0  0  0
  6  7  2  0  0  0  0
  6 37  1  0  0  0  0
  7  8  1  0  0  0  0
  8  9  1  0  0  0  0
  8 38  1  0  0  0  0
  9 10  1  0  0  0  0
  9 39  1  0  0  0  0
  9 40  1  0  0  0  0
 10 11  1  0  0  0  0
 10 15  2  0  0  0  0
 11 12  2  0  0  0  0
 11 41  1  0  0  0  0
 12 24  1  0  0  0  0
 12 13  1  0  0  0  0
 13 14  2  0  0  0  0
 13 42  1  0  0  0  0
 14 15  1  0  0  0  0
 14 43  1  0  0  0  0
 15 16  1  0  0  0  0
 16 17  1  0  0  0  0
 17 18  1  0  0  0  0
 17 44  1  0  0  0  0
 17 45  1  0  0  0  0
 18 23  2  0  0  0  0
 18 19  1  0  0  0  0
 19 20  2  0  0  0  0
 19 46  1  0  0  0  0
 20 21  1  0  0  0  0
 20 47  1  0  0  0  0
 21 22  2  0  0  0  0
 21 48  1  0  0  0  0
 22 23  1  0  0  0  0
 22 49  1  0  0  0  0
 24 32  2  0  0  0  0
 24 25  1  0  0  0  0
 25 26  2  0  0  0  0
 25 50  1  0  0  0  0
 26 27  1  0  0  0  0
 26 51  1  0  0  0  0
 27 28  1  0  0  0  0
 27 31  2  0  0  0  0
 28 29  2  0  0  0  0
 28 52  1  0  0  0  0
 29 30  1  0  0  0  0
 29 53  1  0  0  0  0
 30 31  1  0  0  0  0
 30 54  1  0  0  0  0
 31 32  1  0  0  0  0
 32 55  1  0  0  0  0
M  END
>  <DRUGBANK_ID>
DB07994

>  <COMMON_NAME>
N~3~-[5-(1H-INDOL-6-YL)-2-(PYRIDIN-2-YLMETHOXY)BENZYL]PYRIDINE-2,3-DIAMINE

$$$$
