GVR
 OpenBabel10282417163D

 50 53  0  0  0  0  0  0  0  0999 V2000
    1.0594   -0.2057   -0.2201 O   0  0  0  0  0  0  0  0  0  0  0  0
    2.2842   -0.1155   -0.1026 C   0  0  0  0  0  0  0  0  0  0  0  0
    2.9896    0.3046   -1.1843 N   0  0  0  0  0  0  0  0  0  0  0  0
    4.3728    0.4317   -1.3215 O   0  0  0  0  0  0  0  0  0  0  0  0
    3.0099   -0.4477    1.2134 C   0  0  1  0  0  0  0  0  0  0  0  0
    2.5498    0.5145    2.3178 C   0  0  0  0  0  0  0  0  0  0  0  0
    1.0886    0.4072    2.6803 C   0  0  0  0  0  0  0  0  0  0  0  0
    0.3310    1.5705    2.7504 C   0  0  0  0  0  0  0  0  0  0  0  0
   -1.0432    1.4908    2.9652 C   0  0  0  0  0  0  0  0  0  0  0  0
   -1.6932    0.2462    3.0594 C   0  0  0  0  0  0  0  0  0  0  0  0
   -3.0785    0.1347    3.2107 C   0  0  0  0  0  0  0  0  0  0  0  0
   -0.9364   -0.9328    3.0130 C   0  0  0  0  0  0  0  0  0  0  0  0
   -1.5557   -2.1939    3.0707 C   0  0  0  0  0  0  0  0  0  0  0  0
   -2.9351   -2.2852    3.2065 C   0  0  0  0  0  0  0  0  0  0  0  0
   -3.6924   -1.1198    3.2898 C   0  0  0  0  0  0  0  0  0  0  0  0
    0.4446   -0.8225    2.9058 C   0  0  0  0  0  0  0  0  0  0  0  0
    2.8972   -1.8796    1.5808 N   0  0  0  0  0  0  0  0  0  0  0  0
    3.5950   -2.4490    3.0204 S   0  0  0  0  0  0  0  0  0  0  0  0
    3.3030   -1.5761    4.1259 O   0  0  0  0  0  0  0  0  0  0  0  0
    3.2390   -3.8534    3.0926 O   0  0  0  0  0  0  0  0  0  0  0  0
    5.3260   -2.3095    2.6881 C   0  0  0  0  0  0  0  0  0  0  0  0
    6.0708   -3.4680    2.5318 C   0  0  0  0  0  0  0  0  0  0  0  0
    7.4341   -3.3665    2.2741 C   0  0  0  0  0  0  0  0  0  0  0  0
    8.0559   -2.1144    2.1327 C   0  0  0  0  0  0  0  0  0  0  0  0
    9.4189   -2.0191    1.8205 C   0  0  0  0  0  0  0  0  0  0  0  0
    7.3026   -0.9326    2.3083 C   0  0  0  0  0  0  0  0  0  0  0  0
    5.9407   -1.0463    2.6275 C   0  0  0  0  0  0  0  0  0  0  0  0
    7.9372    0.3158    2.1568 C   0  0  0  0  0  0  0  0  0  0  0  0
    9.2946    0.3905    1.8353 C   0  0  0  0  0  0  0  0  0  0  0  0
   10.0347   -0.7761    1.6714 C   0  0  0  0  0  0  0  0  0  0  0  0
    4.0679   -0.2799    1.0516 H   0  0  0  0  0  0  0  0  0  0  0  0
    2.4479    0.5321   -2.0156 H   0  0  0  0  0  0  0  0  0  0  0  0
    4.7945   -0.0212   -0.5761 H   0  0  0  0  0  0  0  0  0  0  0  0
    3.1473    0.4141    3.2242 H   0  0  0  0  0  0  0  0  0  0  0  0
    2.7826    1.5323    1.9772 H   0  0  0  0  0  0  0  0  0  0  0  0
    0.8025    2.5415    2.6240 H   0  0  0  0  0  0  0  0  0  0  0  0
   -1.6096    2.4134    3.0365 H   0  0  0  0  0  0  0  0  0  0  0  0
   -3.6869    1.0316    3.2677 H   0  0  0  0  0  0  0  0  0  0  0  0
   -0.9694   -3.1091    2.9990 H   0  0  0  0  0  0  0  0  0  0  0  0
   -3.4128   -3.2599    3.2544 H   0  0  0  0  0  0  0  0  0  0  0  0
   -4.7681   -1.1839    3.4168 H   0  0  0  0  0  0  0  0  0  0  0  0
    0.9892   -1.7487    2.9993 H   0  0  0  0  0  0  0  0  0  0  0  0
    1.9829   -2.3012    1.3819 H   0  0  0  0  0  0  0  0  0  0  0  0
    5.6027   -4.4454    2.6199 H   0  0  0  0  0  0  0  0  0  0  0  0
    8.0112   -4.2824    2.1801 H   0  0  0  0  0  0  0  0  0  0  0  0
   10.0130   -2.9198    1.6842 H   0  0  0  0  0  0  0  0  0  0  0  0
    5.3679   -0.1427    2.8185 H   0  0  0  0  0  0  0  0  0  0  0  0
    7.3835    1.2439    2.2840 H   0  0  0  0  0  0  0  0  0  0  0  0
    9.7769    1.3580    1.7159 H   0  0  0  0  0  0  0  0  0  0  0  0
   11.0930   -0.7226    1.4282 H   0  0  0  0  0  0  0  0  0  0  0  0
  1  2  2  0  0  0  0
  2  3  1  0  0  0  0
  2  5  1  0  0  0  0
  3  4  1  0  0  0  0
  3 32  1  0  0  0  0
  4 33  1  0  0  0  0
  5  6  1  0  0  0  0
  5 17  1  0  0  0  0
  5 31  1  6  0  0  0
  6  7  1  0  0  0  0
  6 34  1  0  0  0  0
  6 35  1  0  0  0  0
  7  8  1  0  0  0  0
  7 16  2  0  0  0  0
  8  9  2  0  0  0  0
  8 36  1  0  0  0  0
  9 10  1  0  0  0  0
  9 37  1  0  0  0  0
 10 11  1  0  0  0  0
 10 12  2  0  0  0  0
 11 15  2  0  0  0  0
 11 38  1  0  0  0  0
 12 13  1  0  0  0  0
 12 16  1  0  0  0  0
 13 14  2  0  0  0  0
 13 39  1  0  0  0  0
 14 15  1  0  0  0  0
 14 40  1  0  0  0  0
 15 41  1  0  0  0  0
 16 42  1  0  0  0  0
 17 18  1  0  0  0  0
 17 43  1  0  0  0  0
 18 19  2  0  0  0  0
 18 20  2  0  0  0  0
 18 21  1  0  0  0  0
 21 22  1  0  0  0  0
 21 27  2  0  0  0  0
 22 23  2  0  0  0  0
 22 44  1  0  0  0  0
 23 24  1  0  0  0  0
 23 45  1  0  0  0  0
 24 25  1  0  0  0  0
 24 26  2  0  0  0  0
 25 30  2  0  0  0  0
 25 46  1  0  0  0  0
 26 27  1  0  0  0  0
 26 28  1  0  0  0  0
 27 47  1  0  0  0  0
 28 29  2  0  0  0  0
 28 48  1  0  0  0  0
 29 30  1  0  0  0  0
 29 49  1  0  0  0  0
 30 50  1  0  0  0  0
M  END
>  <DRUGBANK_ID>
DB07861

>  <COMMON_NAME>
(2R)-N-hydroxy-3-naphthalen-2-yl-2-[(naphthalen-2-ylsulfonyl)amino]propanamide

$$$$
