
 OpenBabel10282417243D

 46 49  0  0  0  0  0  0  0  0999 V2000
    1.0532   -0.1161   -0.0460 C   0  0  0  0  0  0  0  0  0  0  0  0
    0.5667    1.2976    0.2649 C   0  0  0  0  0  0  0  0  0  0  0  0
    1.0710    2.2357   -0.8501 C   0  0  0  0  0  0  0  0  0  0  0  0
   -0.8637    1.3446    0.2261 O   0  0  0  0  0  0  0  0  0  0  0  0
    1.0570    1.7818    1.6487 C   0  0  0  0  0  0  0  0  0  0  0  0
    0.6010    1.0279    2.8187 N   0  0  0  0  0  0  0  0  0  0  0  0
    0.9073   -0.2878    3.0091 N   0  0  0  0  0  0  0  0  0  0  0  0
    0.3404   -0.6146    4.1941 C   0  0  0  0  0  0  0  0  0  0  0  0
    0.3461   -2.0213    4.6866 C   0  0  0  0  0  0  0  0  0  0  0  0
    1.5363   -2.7609    4.8046 C   0  0  0  0  0  0  0  0  0  0  0  0
    1.5346   -4.0733    5.3212 C   0  0  0  0  0  0  0  0  0  0  0  0
    0.3437   -4.6768    5.7171 C   0  0  0  0  0  0  0  0  0  0  0  0
   -0.8485   -3.9731    5.5811 C   0  0  0  0  0  0  0  0  0  0  0  0
   -0.8474   -2.6648    5.0618 C   0  0  0  0  0  0  0  0  0  0  0  0
   -0.1751    0.5680    4.8427 C   0  0  0  0  0  0  0  0  0  0  0  0
   -0.7454    0.9837    6.0528 C   0  0  0  0  0  0  0  0  0  0  0  0
   -0.9766   -0.2082    7.2557 Cl  0  0  0  0  0  0  0  0  0  0  0  0
   -1.0559    2.3383    6.2237 C   0  0  0  0  0  0  0  0  0  0  0  0
   -0.8434    3.2461    5.2342 N   0  0  0  0  0  0  0  0  0  0  0  0
   -0.3089    2.8847    4.0792 N   0  0  0  0  0  0  0  0  0  0  0  0
    0.0105    1.5890    3.9153 C   0  0  0  0  0  0  0  0  0  0  0  0
   -1.5928    2.9089    7.4728 C   0  0  0  0  0  0  0  0  0  0  0  0
   -2.8495    3.5380    7.5101 C   0  0  0  0  0  0  0  0  0  0  0  0
   -3.3649    4.0503    8.7070 C   0  0  0  0  0  0  0  0  0  0  0  0
   -2.6278    3.9528    9.8854 C   0  0  0  0  0  0  0  0  0  0  0  0
   -1.3746    3.3490    9.8676 C   0  0  0  0  0  0  0  0  0  0  0  0
   -0.8600    2.8398    8.6722 C   0  0  0  0  0  0  0  0  0  0  0  0
    0.7245   -0.4395   -1.0386 H   0  0  0  0  0  0  0  0  0  0  0  0
    0.6384   -0.8482    0.6489 H   0  0  0  0  0  0  0  0  0  0  0  0
    2.1469   -0.1654   -0.0064 H   0  0  0  0  0  0  0  0  0  0  0  0
    0.7108    1.8992   -1.8317 H   0  0  0  0  0  0  0  0  0  0  0  0
    0.6906    3.2560   -0.7253 H   0  0  0  0  0  0  0  0  0  0  0  0
    2.1648    2.2727   -0.8894 H   0  0  0  0  0  0  0  0  0  0  0  0
   -1.1579    0.9839   -0.6289 H   0  0  0  0  0  0  0  0  0  0  0  0
    2.1520    1.8011    1.6951 H   0  0  0  0  0  0  0  0  0  0  0  0
    0.7116    2.8158    1.7852 H   0  0  0  0  0  0  0  0  0  0  0  0
    2.4861   -2.3250    4.5062 H   0  0  0  0  0  0  0  0  0  0  0  0
    2.4665   -4.6271    5.4208 H   0  0  0  0  0  0  0  0  0  0  0  0
    0.3429   -5.6873    6.1243 H   0  0  0  0  0  0  0  0  0  0  0  0
   -1.7826   -4.4414    5.8855 H   0  0  0  0  0  0  0  0  0  0  0  0
   -1.8024   -2.1542    4.9678 H   0  0  0  0  0  0  0  0  0  0  0  0
   -3.4451    3.6253    6.6025 H   0  0  0  0  0  0  0  0  0  0  0  0
   -4.3443    4.5224    8.7212 H   0  0  0  0  0  0  0  0  0  0  0  0
   -3.0279    4.3485   10.8157 H   0  0  0  0  0  0  0  0  0  0  0  0
   -0.7955    3.2690   10.7843 H   0  0  0  0  0  0  0  0  0  0  0  0
    0.1255    2.3783    8.6851 H   0  0  0  0  0  0  0  0  0  0  0  0
  1  2  1  0  0  0  0
  1 28  1  0  0  0  0
  1 29  1  0  0  0  0
  1 30  1  0  0  0  0
  2  3  1  0  0  0  0
  2  4  1  0  0  0  0
  2  5  1  0  0  0  0
  3 31  1  0  0  0  0
  3 32  1  0  0  0  0
  3 33  1  0  0  0  0
  4 34  1  0  0  0  0
  5  6  1  0  0  0  0
  5 35  1  0  0  0  0
  5 36  1  0  0  0  0
  6  7  1  0  0  0  0
  6 21  1  0  0  0  0
  7  8  2  0  0  0  0
  8  9  1  0  0  0  0
  8 15  1  0  0  0  0
  9 10  2  0  0  0  0
  9 14  1  0  0  0  0
 10 11  1  0  0  0  0
 10 37  1  0  0  0  0
 11 12  2  0  0  0  0
 11 38  1  0  0  0  0
 12 13  1  0  0  0  0
 12 39  1  0  0  0  0
 13 14  2  0  0  0  0
 13 40  1  0  0  0  0
 14 41  1  0  0  0  0
 15 16  2  0  0  0  0
 15 21  1  0  0  0  0
 16 17  1  0  0  0  0
 16 18  1  0  0  0  0
 18 19  2  0  0  0  0
 18 22  1  0  0  0  0
 19 20  1  0  0  0  0
 20 21  2  0  0  0  0
 22 23  2  0  0  0  0
 22 27  1  0  0  0  0
 23 24  1  0  0  0  0
 23 42  1  0  0  0  0
 24 25  2  0  0  0  0
 24 43  1  0  0  0  0
 25 26  1  0  0  0  0
 25 44  1  0  0  0  0
 26 27  2  0  0  0  0
 26 45  1  0  0  0  0
 27 46  1  0  0  0  0
M  END
>  <DRUGBANK_ID>
DB17801

>  <COMMON_NAME>
BF-844

>  <CAS_NUMBER>
1404506-35-9

>  <UNII>
AW4QOD73S3

>  <SYNONYMS>
1-(4-chloro-3,5-diphenyl-pyrazolo(3,4-c)pyridazin-1-yl)-2-methyl-propan-2-ol; 1-(4-chloro-3,5-diphenyl-pyrazolo[3,4-C]pyridazin-1-yl)-2-methyl-propan-2-ol; BF-844; BF844

$$$$
