
 OpenBabel10282417123D

 91 95  0  0  1  0  0  0  0  0999 V2000
   -3.6883    0.8238    5.6210 C   0  0  0  0  0  0  0  0  0  0  0  0
   -3.6402   -1.5783    6.5620 C   0  0  0  0  0  0  0  0  0  0  0  0
    2.5076   -3.0851    1.2662 C   0  0  0  0  0  0  0  0  0  0  0  0
   -2.0581   -4.0665    0.4046 C   0  0  0  0  0  0  0  0  0  0  0  0
   -1.2321    1.2162    4.9739 C   0  0  0  0  0  0  0  0  0  0  0  0
    2.8682    0.6044    2.5620 C   0  0  0  0  0  0  0  0  0  0  0  0
   -1.3539    0.5536    1.6433 C   0  0  0  0  0  0  0  0  0  0  0  0
   -2.7145   -3.1670    9.4044 C   0  0  0  0  0  0  0  0  0  0  0  0
   -3.1114   -1.7102    9.6215 C   0  0  0  0  0  0  0  0  0  0  0  0
   -2.1018   -1.3628    4.0915 C   0  0  0  0  0  0  0  0  0  0  0  0
   -0.9865    1.5789    7.5683 C   0  0  0  0  0  0  0  0  0  0  0  0
    0.3463    1.0689    6.5768 C   0  0  0  0  0  0  0  0  0  0  0  0
   -1.0523   -1.5011    3.1158 C   0  0  0  0  0  0  0  0  0  0  0  0
    0.6936   -4.7279    2.1197 C   0  0  0  0  0  0  0  0  0  0  0  0
   -0.0731   -5.3570    0.9833 C   0  0  0  0  0  0  0  0  0  0  0  0
    1.4497   -2.9362    3.5557 C   0  0  0  0  0  0  0  0  0  0  0  0
    2.0812   -1.5891    3.6264 C   0  0  0  0  0  0  0  0  0  0  0  0
    0.9847    0.5937    0.9299 C   0  0  0  0  0  0  0  0  0  0  0  0
    0.1878   -3.0918   -0.3748 C   0  0  0  0  0  0  0  0  0  0  0  0
    1.1914   -0.7750    1.0756 C   0  0  0  0  0  0  0  0  0  0  0  0
    0.3732   -2.2450    0.9485 C   0  0  1  0  0  0  0  0  0  0  0  0
    0.5720    1.5673    2.4807 C   0  0  0  0  0  0  0  0  0  0  0  0
   -1.3943   -0.9863    5.4067 C   0  0  1  0  0  0  0  0  0  0  0  0
   -2.0348    0.3546    7.8268 C   0  0  1  0  0  0  0  0  0  0  0  0
   -2.3832   -3.7683   10.7334 C   0  0  0  0  0  0  0  0  0  0  0  0
   -1.8856   -0.8775    9.8525 C   0  0  0  0  0  0  0  0  0  0  0  0
    0.3914    0.6393    3.8091 C   0  0  2  0  0  0  0  0  0  0  0  0
   -0.8374   -5.1443   -1.4234 C   0  0  0  0  0  0  0  0  0  0  0  0
   -2.7100   -0.3840    6.3920 C   0  0  0  0  0  0  0  0  0  0  0  0
    1.1558   -3.2760    1.9982 C   0  0  1  0  0  0  0  0  0  0  0  0
   -0.6482   -4.4005   -0.0979 C   0  0  2  0  0  0  0  0  0  0  0  0
   -0.1904    0.2902    5.1905 C   0  0  2  0  0  0  0  0  0  0  0  0
    1.5268   -0.6140    2.5087 C   0  0  1  0  0  0  0  0  0  0  0  0
   -0.1924   -0.2756    2.7931 C   0  0  1  0  0  0  0  0  0  0  0  0
    0.1985    2.7804    2.4959 O   0  0  0  0  0  0  0  0  0  0  0  0
   -3.1068   -4.5097   11.3736 O   0  0  0  0  0  0  0  0  0  0  0  0
   -1.2136   -3.3149   11.2120 O   0  0  0  0  0  0  0  0  0  0  0  0
   -1.4100   -0.6760   10.9623 O   0  0  0  0  0  0  0  0  0  0  0  0
   -0.1761   -6.0727   -1.8557 O   0  0  0  0  0  0  0  0  0  0  0  0
   -1.8759   -4.6438   -2.1333 O   0  0  0  0  0  0  0  0  0  0  0  0
   -1.2819   -0.5211    8.6851 O   0  0  0  0  0  0  0  0  0  0  0  0
   -0.6824   -1.9982    1.0195 H   0  0  0  0  0  0  0  0  0  0  0  0
   -0.9238   -1.9009    5.8430 H   0  0  0  0  0  0  0  0  0  0  0  0
   -2.9150    0.7510    8.3592 H   0  0  0  0  0  0  0  0  0  0  0  0
    1.4097    0.6568    4.1926 H   0  0  0  0  0  0  0  0  0  0  0  0
   -3.2425    1.6411    5.0253 H   0  0  0  0  0  0  0  0  0  0  0  0
   -4.1939    1.4435    6.3619 H   0  0  0  0  0  0  0  0  0  0  0  0
   -4.3644    0.4013    4.8712 H   0  0  0  0  0  0  0  0  0  0  0  0
   -3.7260   -2.2636    5.7184 H   0  0  0  0  0  0  0  0  0  0  0  0
   -3.1932   -2.2438    7.2704 H   0  0  0  0  0  0  0  0  0  0  0  0
   -4.6560   -1.2503    6.7907 H   0  0  0  0  0  0  0  0  0  0  0  0
    2.4201   -2.7676    0.2233 H   0  0  0  0  0  0  0  0  0  0  0  0
    2.8956   -2.1620    1.6513 H   0  0  0  0  0  0  0  0  0  0  0  0
    3.3522   -3.7266    1.4058 H   0  0  0  0  0  0  0  0  0  0  0  0
   -2.5275   -3.3114   -0.2282 H   0  0  0  0  0  0  0  0  0  0  0  0
   -2.6782   -4.9705    0.4113 H   0  0  0  0  0  0  0  0  0  0  0  0
   -2.0461   -3.7111    1.4296 H   0  0  0  0  0  0  0  0  0  0  0  0
   -1.2882    2.2361    5.2503 H   0  0  0  0  0  0  0  0  0  0  0  0
   -1.8947    0.8542    4.2190 H   0  0  0  0  0  0  0  0  0  0  0  0
   -1.5070    0.8507    5.8988 H   0  0  0  0  0  0  0  0  0  0  0  0
    2.9822    1.2813    1.7004 H   0  0  0  0  0  0  0  0  0  0  0  0
    2.8191    1.3406    3.3780 H   0  0  0  0  0  0  0  0  0  0  0  0
    3.8310    0.1017    2.6217 H   0  0  0  0  0  0  0  0  0  0  0  0
   -2.1496   -0.1194    1.3340 H   0  0  0  0  0  0  0  0  0  0  0  0
   -1.7954    1.4733    2.0615 H   0  0  0  0  0  0  0  0  0  0  0  0
   -0.9884    0.9122    0.6603 H   0  0  0  0  0  0  0  0  0  0  0  0
   -3.5568   -3.7250    8.9777 H   0  0  0  0  0  0  0  0  0  0  0  0
   -1.8670   -3.3133    8.7183 H   0  0  0  0  0  0  0  0  0  0  0  0
   -3.8405   -1.5753   10.4177 H   0  0  0  0  0  0  0  0  0  0  0  0
   -3.6468   -1.2747    8.7900 H   0  0  0  0  0  0  0  0  0  0  0  0
   -2.6072   -0.7355    3.3492 H   0  0  0  0  0  0  0  0  0  0  0  0
   -3.1610   -1.5479    4.2408 H   0  0  0  0  0  0  0  0  0  0  0  0
   -0.5799    2.1513    8.4131 H   0  0  0  0  0  0  0  0  0  0  0  0
   -1.6445    2.3496    7.1082 H   0  0  0  0  0  0  0  0  0  0  0  0
    0.9253    1.9692    6.2640 H   0  0  0  0  0  0  0  0  0  0  0  0
    1.0168    0.4380    7.1732 H   0  0  0  0  0  0  0  0  0  0  0  0
   -0.3222   -2.1460    3.3711 H   0  0  0  0  0  0  0  0  0  0  0  0
   -1.5097   -2.1783    2.4162 H   0  0  0  0  0  0  0  0  0  0  0  0
    1.5678   -5.3520    2.3655 H   0  0  0  0  0  0  0  0  0  0  0  0
    0.0622   -4.8385    3.0245 H   0  0  0  0  0  0  0  0  0  0  0  0
    0.5034   -6.1978    0.5813 H   0  0  0  0  0  0  0  0  0  0  0  0
   -0.9135   -5.8655    1.4891 H   0  0  0  0  0  0  0  0  0  0  0  0
    2.0473   -3.6957    4.0695 H   0  0  0  0  0  0  0  0  0  0  0  0
    0.6123   -2.9810    4.2878 H   0  0  0  0  0  0  0  0  0  0  0  0
    3.1656   -1.7154    3.5358 H   0  0  0  0  0  0  0  0  0  0  0  0
    1.9862   -1.1858    4.6453 H   0  0  0  0  0  0  0  0  0  0  0  0
    1.8028    1.0193    0.3473 H   0  0  0  0  0  0  0  0  0  0  0  0
    1.1118   -3.4177   -0.8570 H   0  0  0  0  0  0  0  0  0  0  0  0
   -0.2719   -2.4430   -1.1340 H   0  0  0  0  0  0  0  0  0  0  0  0
   -1.2226   -3.4216   12.1850 H   0  0  0  0  0  0  0  0  0  0  0  0
   -2.0014   -5.2092   -2.9198 H   0  0  0  0  0  0  0  0  0  0  0  0
  1 46  1  0  0  0  0
  1 47  1  0  0  0  0
  1 48  1  0  0  0  0
  2 49  1  0  0  0  0
  2 50  1  0  0  0  0
  2 51  1  0  0  0  0
  3 52  1  0  0  0  0
  3 53  1  0  0  0  0
  3 54  1  0  0  0  0
  4 55  1  0  0  0  0
  4 56  1  0  0  0  0
  4 57  1  0  0  0  0
  5 58  1  0  0  0  0
  5 59  1  0  0  0  0
  5 60  1  0  0  0  0
  6 61  1  0  0  0  0
  6 62  1  0  0  0  0
  6 63  1  0  0  0  0
  7 64  1  0  0  0  0
  7 65  1  0  0  0  0
  7 66  1  0  0  0  0
  8 67  1  0  0  0  0
  8 68  1  0  0  0  0
  9  8  1  0  0  0  0
  9 69  1  0  0  0  0
  9 70  1  0  0  0  0
 10 71  1  0  0  0  0
 10 72  1  0  0  0  0
 11 73  1  0  0  0  0
 11 74  1  0  0  0  0
 12 11  1  0  0  0  0
 12 75  1  0  0  0  0
 12 76  1  0  0  0  0
 13 10  1  0  0  0  0
 13 77  1  0  0  0  0
 13 78  1  0  0  0  0
 14 79  1  0  0  0  0
 14 80  1  0  0  0  0
 15 14  1  0  0  0  0
 15 81  1  0  0  0  0
 15 82  1  0  0  0  0
 16 83  1  0  0  0  0
 16 84  1  0  0  0  0
 17 16  1  0  0  0  0
 17 85  1  0  0  0  0
 17 86  1  0  0  0  0
 18 87  1  0  0  0  0
 19 88  1  0  0  0  0
 19 89  1  0  0  0  0
 20 18  2  0  0  0  0
 21 19  1  0  0  0  0
 21 20  1  0  0  0  0
 21 42  1  6  0  0  0
 22 18  1  0  0  0  0
 23 10  1  0  0  0  0
 23 43  1  6  0  0  0
 24 11  1  0  0  0  0
 24 41  1  0  0  0  0
 24 44  1  1  0  0  0
 25  8  1  0  0  0  0
 26  9  1  0  0  0  0
 27 22  1  0  0  0  0
 27 45  1  6  0  0  0
 29 23  1  0  0  0  0
 29 24  1  0  0  0  0
 29  1  1  0  0  0  0
 29  2  1  0  0  0  0
 30 14  1  0  0  0  0
 30 16  1  0  0  0  0
 30 21  1  0  0  0  0
 30  3  1  6  0  0  0
 31 15  1  0  0  0  0
 31 19  1  0  0  0  0
 31 28  1  6  0  0  0
 31  4  1  0  0  0  0
 32 12  1  0  0  0  0
 32 23  1  0  0  0  0
 32 27  1  0  0  0  0
 32  5  1  1  0  0  0
 33 17  1  0  0  0  0
 33 20  1  0  0  0  0
 33  6  1  6  0  0  0
 34 13  1  0  0  0  0
 34 27  1  0  0  0  0
 34 33  1  0  0  0  0
 34  7  1  1  0  0  0
 35 22  2  0  0  0  0
 36 25  2  0  0  0  0
 37 25  1  0  0  0  0
 37 90  1  0  0  0  0
 38 26  2  0  0  0  0
 39 28  2  0  0  0  0
 40 28  1  0  0  0  0
 40 91  1  0  0  0  0
 41 26  1  0  0  0  0
M  END
>  <DRUGBANK_ID>
DB02329

>  <SECONDARY_ACCESSION_NUMBERS>
EXPT00848

>  <COMMON_NAME>
Carbenoxolone

>  <CAS_NUMBER>
5697-56-3

>  <UNII>
MM6384NG73

>  <SYNONYMS>
Carbenoxolona; Carbenoxolone

$$$$
