
 OpenBabel10282417163D

 27 27  0  0  0  0  0  0  0  0999 V2000
    0.9597   -0.0277   -0.0967 Cl  0  0  0  0  0  0  0  0  0  0  0  0
    2.8614   -4.7623   -0.1119 O   0  0  0  0  0  0  0  0  0  0  0  0
    2.7948    4.8079   -0.0895 O   0  0  0  0  0  0  0  0  0  0  0  0
    6.2192   -3.3926   -0.1538 O   0  0  0  0  0  0  0  0  0  0  0  0
    5.5556   -5.3567   -0.0871 O   0  0  0  0  0  0  0  0  0  0  0  0
    6.1952    3.4727   -0.0254 O   0  0  0  0  0  0  0  0  0  0  0  0
    5.5009    5.4280   -0.1035 O   0  0  0  0  0  0  0  0  0  0  0  0
    2.9507   -2.5116   -0.0999 N   0  0  0  0  0  0  0  0  0  0  0  0
    2.8758    2.5518   -0.0938 N   0  0  0  0  0  0  0  0  0  0  0  0
    8.1216    0.1904   -0.0795 N   0  0  0  0  0  0  0  0  0  0  0  0
    2.6842    0.0074   -0.0932 C   0  0  0  0  0  0  0  0  0  0  0  0
    3.4465   -1.1903   -0.0896 C   0  0  0  0  0  0  0  0  0  0  0  0
    3.3816    1.2339   -0.0963 C   0  0  0  0  0  0  0  0  0  0  0  0
    5.5268    0.0762   -0.0860 C   0  0  0  0  0  0  0  0  0  0  0  0
    4.8148   -1.0567   -0.0647 C   0  0  0  0  0  0  0  0  0  0  0  0
    4.7437    1.1579   -0.1171 C   0  0  0  0  0  0  0  0  0  0  0  0
    3.6015   -3.7741   -0.1088 C   0  0  0  0  0  0  0  0  0  0  0  0
    3.5382    3.8222   -0.0847 C   0  0  0  0  0  0  0  0  0  0  0  0
    6.9492    0.1356   -0.0834 C   0  0  0  0  0  0  0  0  0  0  0  0
    5.2175   -4.0722   -0.1173 C   0  0  0  0  0  0  0  0  0  0  0  0
    5.1811    4.1383   -0.0678 C   0  0  0  0  0  0  0  0  0  0  0  0
    6.5315   -5.1785   -0.0980 H   0  0  0  0  0  0  0  0  0  0  0  0
    6.4803    5.2691   -0.0895 H   0  0  0  0  0  0  0  0  0  0  0  0
    1.9347   -2.5985   -0.1071 H   0  0  0  0  0  0  0  0  0  0  0  0
    1.8600    2.6339   -0.0927 H   0  0  0  0  0  0  0  0  0  0  0  0
    5.4630   -1.8478   -0.0048 H   0  0  0  0  0  0  0  0  0  0  0  0
    5.3033    2.0044   -0.2023 H   0  0  0  0  0  0  0  0  0  0  0  0
  1 11  1  0  0  0  0
  2 17  2  0  0  0  0
  3 18  2  0  0  0  0
  4 20  2  0  0  0  0
  5 20  1  0  0  0  0
  5 22  1  0  0  0  0
  6 21  2  0  0  0  0
  7 21  1  0  0  0  0
  7 23  1  0  0  0  0
  8 12  1  0  0  0  0
  8 17  1  0  0  0  0
  8 24  1  0  0  0  0
  9 13  1  0  0  0  0
  9 18  1  0  0  0  0
  9 25  1  0  0  0  0
 10 19  3  0  0  0  0
 11 12  2  0  0  0  0
 11 13  1  0  0  0  0
 12 15  1  0  0  0  0
 13 16  2  0  0  0  0
 14 15  2  0  0  0  0
 14 16  1  0  0  0  0
 14 19  1  0  0  0  0
 15 26  1  0  0  0  0
 16 27  1  0  0  0  0
 17 20  1  0  0  0  0
 18 21  1  0  0  0  0
M  END
>  <DRUGBANK_ID>
DB06794

>  <COMMON_NAME>
Lodoxamide

>  <CAS_NUMBER>
53882-12-5

>  <UNII>
SPU695OD73

>  <SYNONYMS>
Lodoxamida; Lodoxamide; N,N'-(2-chloro-5-cyano-m-phenylene)dioxamate

$$$$
