
 OpenBabel10282417123D

 35 45  0  0  0  0  0  0  0  0999 V2000
   -2.7270    0.4300    0.3080 C   0  0  0  0  0  0  0  0  0  0  0  0
   -2.3370   -0.4590   -0.8780 C   0  0  0  0  0  0  0  0  0  0  0  0
   -1.5090    1.2470    0.7450 C   0  0  0  0  0  0  0  0  0  0  0  0
    0.0000   -0.4620    0.0000 Fe  0  0  0  0  0  0  0  0  0  0  0  0
   -1.1580   -1.3470   -0.4690 C   0  0  0  0  0  0  0  0  0  0  0  0
   -0.4390    0.3620    1.0810 C   0  0  0  0  0  0  0  0  0  0  0  0
    1.1570   -1.3470    0.4700 C   0  0  0  0  0  0  0  0  0  0  0  0
    0.4390    0.3620   -1.0820 C   0  0  0  0  0  0  0  0  0  0  0  0
    1.5090    1.2470   -0.7460 C   0  0  0  0  0  0  0  0  0  0  0  0
    2.7270    0.4300   -0.3070 C   0  0  0  0  0  0  0  0  0  0  0  0
    2.3360   -0.4580    0.8780 C   0  0  0  0  0  0  0  0  0  0  0  0
    2.0563    1.5863   -1.2018 O   0  0  0  0  0  0  0  0  0  0  0  0
    1.7176    2.7365   -1.2979 C   0  0  0  0  0  0  0  0  0  0  0  0
    2.4929    3.9782   -0.9888 C   0  0  0  0  0  0  0  0  0  0  0  0
    1.7286    5.0284   -1.2455 C   0  0  0  0  0  0  0  0  0  0  0  0
    0.3979    4.5584   -1.7316 C   0  0  0  0  0  0  0  0  0  0  0  0
   -0.5672    5.2240   -2.0309 O   0  0  0  0  0  0  0  0  0  0  0  0
    0.4620    3.1682   -1.7505 N   0  0  0  0  0  0  0  0  0  0  0  0
   -0.6537    2.3075   -2.1692 C   0  0  0  0  0  0  0  0  0  0  0  0
   -0.1482    0.8897   -2.3809 C   0  0  0  0  0  0  0  0  0  0  0  0
   -3.7378    0.6100    0.6094 H   0  0  0  0  0  0  0  0  0  0  0  0
   -3.1091   -0.4585   -1.6188 H   0  0  0  0  0  0  0  0  0  0  0  0
   -1.8224    2.2514    0.9393 H   0  0  0  0  0  0  0  0  0  0  0  0
   -1.3096   -2.3420   -0.8322 H   0  0  0  0  0  0  0  0  0  0  0  0
   -0.0254    0.7339    1.9951 H   0  0  0  0  0  0  0  0  0  0  0  0
    1.3081   -2.3418    0.8341 H   0  0  0  0  0  0  0  0  0  0  0  0
    1.8225    2.2512   -0.9412 H   0  0  0  0  0  0  0  0  0  0  0  0
    3.7380    0.6100   -0.6076 H   0  0  0  0  0  0  0  0  0  0  0  0
    3.1080   -0.4569    1.6189 H   0  0  0  0  0  0  0  0  0  0  0  0
    3.4974    4.0118   -0.6216 H   0  0  0  0  0  0  0  0  0  0  0  0
    2.0186    6.0512   -1.1239 H   0  0  0  0  0  0  0  0  0  0  0  0
   -1.0670    2.6790   -3.0836 H   0  0  0  0  0  0  0  0  0  0  0  0
   -1.4083    2.3076   -1.4107 H   0  0  0  0  0  0  0  0  0  0  0  0
    0.6065    0.8897   -3.1394 H   0  0  0  0  0  0  0  0  0  0  0  0
   -0.9603    0.2633   -2.6857 H   0  0  0  0  0  0  0  0  0  0  0  0
  1  3  1  0  0  0  0
  1 21  1  0  0  0  0
  2  1  1  0  0  0  0
  2  5  1  0  0  0  0
  2 22  1  0  0  0  0
  3  4  1  0  0  0  0
  3 23  1  0  0  0  0
  4  1  1  0  0  0  0
  4  2  1  0  0  0  0
  4  6  1  0  0  0  0
  4  7  1  0  0  0  0
  4  8  1  0  0  0  0
  4  9  1  0  0  0  0
  5  4  1  0  0  0  0
  5  6  1  0  0  0  0
  5 24  1  0  0  0  0
  6  3  1  0  0  0  0
  6 25  1  0  0  0  0
  7 11  1  0  0  0  0
  7 26  1  0  0  0  0
  8  7  1  0  0  0  0
  8  9  1  0  0  0  0
  9 10  1  0  0  0  0
  9 27  1  0  0  0  0
 10  4  1  0  0  0  0
 10 11  1  0  0  0  0
 10 28  1  0  0  0  0
 11  4  1  0  0  0  0
 11 29  1  0  0  0  0
 12 13  2  0  0  0  0
 13 14  1  0  0  0  0
 13 18  1  0  0  0  0
 14 15  2  0  0  0  0
 14 30  1  0  0  0  0
 15 16  1  0  0  0  0
 15 31  1  0  0  0  0
 16 17  2  0  0  0  0
 16 18  1  0  0  0  0
 18 19  1  0  0  0  0
 19 20  1  0  0  0  0
 19 32  1  0  0  0  0
 19 33  1  0  0  0  0
 20  8  1  0  0  0  0
 20 34  1  0  0  0  0
 20 35  1  0  0  0  0
M  END
>  <DRUGBANK_ID>
DB01703

>  <SECONDARY_ACCESSION_NUMBERS>
EXPT01419

>  <COMMON_NAME>
N-(2-ferrocenylethyl)maleimide

$$$$
