
 OpenBabel10282417103D

  6  4  0  0  0  0  0  0  0  0999 V2000
    1.1264   -0.8863   -0.9506 Mg  0  2  0  0  0  0  0  0  0  0  0  0
    1.2027    0.3494    0.3450 O   0  5  0  0  0  0  0  0  0  0  0  0
    2.6877   -0.0235   -1.1954 O   0  5  0  0  0  0  0  0  0  0  0  0
    3.3977    1.4403    0.6727 O   0  0  0  0  0  0  0  0  0  0  0  0
    2.6821    0.2741    0.2581 S   0  0  0  0  0  0  0  0  0  0  0  0
    2.9792   -1.0122    0.8561 O   0  0  0  0  0  0  0  0  0  0  0  0
  2  5  1  0  0  0  0
  5  3  1  0  0  0  0
  5  4  2  0  0  0  0
  5  6  2  0  0  0  0
M  CHG  3   1   2   2  -1   3  -1
M  END
>  <DRUGBANK_ID>
DB00653

>  <SECONDARY_ACCESSION_NUMBERS>
APRD01080

>  <COMMON_NAME>
Magnesium sulfate

>  <CAS_NUMBER>
7487-88-9

>  <UNII>
ML30MJ2U7I

>  <SYNONYMS>
Magnesium sulfate (1:1); Magnesium sulfate anhydrous; Magnesium sulphate; magnesium(II) sulfate; Magnesiumsulfat; MgSO4

$$$$
