
 OpenBabel10282417203D

 48 46  0  0  0  0  0  0  0  0999 V2000
    1.1601   -0.1236   -0.2557 O   0  0  0  0  0  0  0  0  0  0  0  0
    0.2176   -1.0507   -0.8743 C   0  0  0  0  0  0  0  0  0  0  0  0
    0.4000   -1.1299   -2.3961 C   0  0  0  0  0  0  0  0  0  0  0  0
    1.8443   -1.3926   -2.7799 C   0  0  0  0  0  0  0  0  0  0  0  0
    2.2100   -2.7203   -2.1334 C   0  0  0  0  0  0  0  0  0  0  0  0
    1.5505   -3.9745   -2.5799 C   0  0  0  0  0  0  0  0  0  0  0  0
    2.0399   -4.0903   -3.9928 C   0  0  0  0  0  0  0  0  0  0  0  0
    3.5776   -4.2715   -3.9981 C   0  0  0  0  0  0  0  0  0  0  0  0
    3.9576   -5.5505   -3.2446 C   0  0  0  0  0  0  0  0  0  0  0  0
    3.2093   -6.7244   -3.8760 C   0  0  0  0  0  0  0  0  0  0  0  0
    3.5661   -6.8290   -5.3643 C   0  0  0  0  0  0  0  0  0  0  0  0
    5.0688   -7.0400   -5.5494 C   0  0  0  0  0  0  0  0  0  0  0  0
    5.4994   -8.3228   -4.8596 C   0  0  0  0  0  0  0  0  0  0  0  0
    2.4751   -0.1909    0.0835 C   0  0  0  0  0  0  0  0  0  0  0  0
    2.8801    0.8639    0.5918 O   0  0  0  0  0  0  0  0  0  0  0  0
    3.4253   -1.3192   -0.1068 C   0  0  0  0  0  0  0  0  0  0  0  0
    3.0748   -2.8172    0.8471 S   0  0  0  0  0  0  0  0  0  0  0  0
    1.6366   -3.0633    0.8214 O   0  0  0  0  0  0  0  0  0  0  0  0
    3.8758   -3.8344    0.1977 O   0  0  0  0  0  0  0  0  0  0  0  0
    3.4975   -2.4132    2.1958 O   0  5  0  0  0  0  0  0  0  0  0  0
    0.9220    0.7092    1.9470 Na  0  3  0  0  0  0  0  0  0  0  0  0
    0.2255   -1.9910   -0.3374 H   0  0  0  0  0  0  0  0  0  0  0  0
   -0.7954   -0.6852   -0.6674 H   0  0  0  0  0  0  0  0  0  0  0  0
   -0.2445   -1.9163   -2.8041 H   0  0  0  0  0  0  0  0  0  0  0  0
    0.1015   -0.1819   -2.8407 H   0  0  0  0  0  0  0  0  0  0  0  0
    2.0698   -1.3660   -3.8459 H   0  0  0  0  0  0  0  0  0  0  0  0
    2.4285   -0.5443   -2.4081 H   0  0  0  0  0  0  0  0  0  0  0  0
    3.2815   -2.8946   -2.0510 H   0  0  0  0  0  0  0  0  0  0  0  0
    1.8349   -2.6566   -1.1554 H   0  0  0  0  0  0  0  0  0  0  0  0
    1.8572   -4.7989   -1.9172 H   0  0  0  0  0  0  0  0  0  0  0  0
    0.4686   -3.9204   -2.4511 H   0  0  0  0  0  0  0  0  0  0  0  0
    1.4897   -4.8841   -4.4896 H   0  0  0  0  0  0  0  0  0  0  0  0
    1.7800   -3.1919   -4.5522 H   0  0  0  0  0  0  0  0  0  0  0  0
    3.9234   -4.2607   -5.0316 H   0  0  0  0  0  0  0  0  0  0  0  0
    4.1471   -3.4357   -3.5743 H   0  0  0  0  0  0  0  0  0  0  0  0
    5.0434   -5.6847   -3.2626 H   0  0  0  0  0  0  0  0  0  0  0  0
    3.7314   -5.4973   -2.1737 H   0  0  0  0  0  0  0  0  0  0  0  0
    3.4255   -7.6450   -3.3324 H   0  0  0  0  0  0  0  0  0  0  0  0
    2.1259   -6.6159   -3.7612 H   0  0  0  0  0  0  0  0  0  0  0  0
    2.9974   -7.6413   -5.8223 H   0  0  0  0  0  0  0  0  0  0  0  0
    3.2580   -5.9306   -5.9142 H   0  0  0  0  0  0  0  0  0  0  0  0
    5.3070   -7.0756   -6.6153 H   0  0  0  0  0  0  0  0  0  0  0  0
    5.6460   -6.1958   -5.1516 H   0  0  0  0  0  0  0  0  0  0  0  0
    4.9439   -9.1673   -5.2771 H   0  0  0  0  0  0  0  0  0  0  0  0
    6.5687   -8.4898   -4.9836 H   0  0  0  0  0  0  0  0  0  0  0  0
    5.3089   -8.2962   -3.7815 H   0  0  0  0  0  0  0  0  0  0  0  0
    3.6741   -1.4081   -1.1561 H   0  0  0  0  0  0  0  0  0  0  0  0
    4.4277   -1.0145    0.2081 H   0  0  0  0  0  0  0  0  0  0  0  0
  1  2  1  0  0  0  0
  1 14  1  0  0  0  0
  2  3  1  0  0  0  0
  2 22  1  0  0  0  0
  2 23  1  0  0  0  0
  3  4  1  0  0  0  0
  3 24  1  0  0  0  0
  3 25  1  0  0  0  0
  4  5  1  0  0  0  0
  4 26  1  0  0  0  0
  4 27  1  0  0  0  0
  5  6  1  0  0  0  0
  5 28  1  0  0  0  0
  5 29  1  0  0  0  0
  6  7  1  0  0  0  0
  6 30  1  0  0  0  0
  6 31  1  0  0  0  0
  7  8  1  0  0  0  0
  7 32  1  0  0  0  0
  7 33  1  0  0  0  0
  8  9  1  0  0  0  0
  8 34  1  0  0  0  0
  8 35  1  0  0  0  0
  9 10  1  0  0  0  0
  9 36  1  0  0  0  0
  9 37  1  0  0  0  0
 10 11  1  0  0  0  0
 10 38  1  0  0  0  0
 10 39  1  0  0  0  0
 11 12  1  0  0  0  0
 11 40  1  0  0  0  0
 11 41  1  0  0  0  0
 12 13  1  0  0  0  0
 12 42  1  0  0  0  0
 12 43  1  0  0  0  0
 13 44  1  0  0  0  0
 13 45  1  0  0  0  0
 13 46  1  0  0  0  0
 14 15  2  0  0  0  0
 14 16  1  0  0  0  0
 16 17  1  0  0  0  0
 16 47  1  0  0  0  0
 16 48  1  0  0  0  0
 17 18  2  0  0  0  0
 17 19  2  0  0  0  0
 17 20  1  0  0  0  0
M  CHG  2  20  -1  21   1
M  END
>  <DRUGBANK_ID>
DB13157

>  <COMMON_NAME>
Sodium lauryl sulfoacetate

>  <CAS_NUMBER>
1847-58-1

>  <UNII>
D0Y70F2B9J

>  <SYNONYMS>
Lathanol; Lathanol LAL; Sulfoacetic acid dodecyl ester S-sodium salt

$$$$
