SNH
 OpenBabel10282417173D

 45 47  0  0  0  0  0  0  0  0999 V2000
    0.3295    1.4960   -0.1117 C   0  0  0  0  0  0  0  0  0  0  0  0
    1.5981    0.9248   -0.0349 C   0  0  0  0  0  0  0  0  0  0  0  0
    1.6042   -0.4872   -0.4147 C   0  0  0  0  0  0  0  0  0  0  0  0
    0.4350   -0.7413   -1.1286 C   0  0  0  0  0  0  0  0  0  0  0  0
   -0.7620    0.4861   -0.9372 S   0  0  0  0  0  0  0  0  0  0  0  0
    0.1220   -1.9845   -1.7833 C   0  0  0  0  0  0  0  0  0  0  0  0
   -1.1861   -2.2266   -1.9984 O   0  0  0  0  0  0  0  0  0  0  0  0
    0.9538   -2.8574   -2.0285 O   0  0  0  0  0  0  0  0  0  0  0  0
    2.6106   -1.4634   -0.0195 N   0  0  0  0  0  0  0  0  0  0  0  0
    2.5016   -3.2911    0.2482 S   0  0  0  0  0  0  0  0  0  0  0  0
    3.0351   -3.9097   -0.9533 O   0  0  0  0  0  0  0  0  0  0  0  0
    3.2150   -3.5482    1.4901 O   0  0  0  0  0  0  0  0  0  0  0  0
    0.6938   -4.0167    0.5740 C   0  0  0  0  0  0  0  0  0  0  0  0
    0.4004   -5.3284    0.1534 C   0  0  0  0  0  0  0  0  0  0  0  0
   -0.9581   -5.7631    0.0525 C   0  0  0  0  0  0  0  0  0  0  0  0
   -2.0393   -4.9075    0.3070 C   0  0  0  0  0  0  0  0  0  0  0  0
   -1.7566   -3.6583    0.8039 C   0  0  0  0  0  0  0  0  0  0  0  0
   -0.4164   -3.2441    0.9987 C   0  0  0  0  0  0  0  0  0  0  0  0
   -0.3117   -1.8221    1.3001 C   0  0  0  0  0  0  0  0  0  0  0  0
   -3.4768   -5.2396    0.0387 C   0  0  0  0  0  0  0  0  0  0  0  0
   -0.0370    2.8724    0.0003 C   0  0  0  0  0  0  0  0  0  0  0  0
    0.2573    3.7310   -1.0282 C   0  0  0  0  0  0  0  0  0  0  0  0
   -0.2112    5.0328   -0.7903 C   0  0  0  0  0  0  0  0  0  0  0  0
   -0.9078    5.1367    0.4004 C   0  0  0  0  0  0  0  0  0  0  0  0
   -1.0027    3.6100    1.1910 S   0  0  0  0  0  0  0  0  0  0  0  0
   -1.4734    6.3768    0.9124 C   0  0  0  0  0  0  0  0  0  0  0  0
   -2.2338    6.4026    2.2122 C   0  0  0  0  0  0  0  0  0  0  0  0
   -1.3300    7.4402    0.3005 O   0  0  0  0  0  0  0  0  0  0  0  0
    2.4497    1.5133    0.2970 H   0  0  0  0  0  0  0  0  0  0  0  0
   -1.6560   -2.3527   -1.1526 H   0  0  0  0  0  0  0  0  0  0  0  0
    3.5630   -1.1351    0.1864 H   0  0  0  0  0  0  0  0  0  0  0  0
    1.1904   -6.0204   -0.1370 H   0  0  0  0  0  0  0  0  0  0  0  0
   -1.1791   -6.7828   -0.2576 H   0  0  0  0  0  0  0  0  0  0  0  0
   -2.5783   -2.9324    0.8853 H   0  0  0  0  0  0  0  0  0  0  0  0
   -0.9531   -1.4390    0.5199 H   0  0  0  0  0  0  0  0  0  0  0  0
   -0.6448   -1.2755    2.1662 H   0  0  0  0  0  0  0  0  0  0  0  0
    0.7296   -1.6304    1.2110 H   0  0  0  0  0  0  0  0  0  0  0  0
   -4.0978   -4.8501    0.8562 H   0  0  0  0  0  0  0  0  0  0  0  0
   -3.8389   -4.7844   -0.8939 H   0  0  0  0  0  0  0  0  0  0  0  0
   -3.6114   -6.3192   -0.0042 H   0  0  0  0  0  0  0  0  0  0  0  0
    0.7890    3.3942   -1.9084 H   0  0  0  0  0  0  0  0  0  0  0  0
   -0.0385    5.8620   -1.4637 H   0  0  0  0  0  0  0  0  0  0  0  0
   -1.7144    7.0727    2.9032 H   0  0  0  0  0  0  0  0  0  0  0  0
   -3.2408    6.7825    2.0178 H   0  0  0  0  0  0  0  0  0  0  0  0
   -2.3267    5.4291    2.6905 H   0  0  0  0  0  0  0  0  0  0  0  0
  1  2  2  0  0  0  0
  1  5  1  0  0  0  0
  1 21  1  0  0  0  0
  2  3  1  0  0  0  0
  2 29  1  0  0  0  0
  3  4  2  0  0  0  0
  3  9  1  0  0  0  0
  4  5  1  0  0  0  0
  4  6  1  0  0  0  0
  6  7  1  0  0  0  0
  6  8  2  0  0  0  0
  7 30  1  0  0  0  0
  9 10  1  0  0  0  0
  9 31  1  0  0  0  0
 10 11  2  0  0  0  0
 10 12  2  0  0  0  0
 10 13  1  0  0  0  0
 13 14  2  0  0  0  0
 13 18  1  0  0  0  0
 14 15  1  0  0  0  0
 14 32  1  0  0  0  0
 15 16  2  0  0  0  0
 15 33  1  0  0  0  0
 16 17  1  0  0  0  0
 16 20  1  0  0  0  0
 17 18  2  0  0  0  0
 17 34  1  0  0  0  0
 18 19  1  0  0  0  0
 19 35  1  0  0  0  0
 19 36  1  0  0  0  0
 19 37  1  0  0  0  0
 20 38  1  0  0  0  0
 20 39  1  0  0  0  0
 20 40  1  0  0  0  0
 21 22  2  0  0  0  0
 21 25  1  0  0  0  0
 22 23  1  0  0  0  0
 22 41  1  0  0  0  0
 23 24  2  0  0  0  0
 23 42  1  0  0  0  0
 24 25  1  0  0  0  0
 24 26  1  0  0  0  0
 26 27  1  0  0  0  0
 26 28  2  0  0  0  0
 27 43  1  0  0  0  0
 27 44  1  0  0  0  0
 27 45  1  0  0  0  0
M  END
>  <DRUGBANK_ID>
DB08556

>  <COMMON_NAME>
5'-ACETYL-4-{[(2,4-DIMETHYLPHENYL)SULFONYL]AMINO}-2,2'-BITHIOPHENE-5-CARBOXYLIC ACID

$$$$
