
 OpenBabel10282417203D

 28 29  0  0  0  0  0  0  0  0999 V2000
    2.2093    0.0408   -0.0161 C   0  0  0  0  0  0  0  0  0  0  0  0
    0.7624    0.0205    0.0115 N   0  0  0  0  0  0  0  0  0  0  0  0
   -0.0163   -1.1192    0.0085 C   0  0  0  0  0  0  0  0  0  0  0  0
   -1.3171   -0.6920   -0.0039 C   0  0  0  0  0  0  0  0  0  0  0  0
   -1.3638    0.6782   -0.0020 N   0  0  0  0  0  0  0  0  0  0  0  0
   -0.1126    1.1122    0.0234 C   0  0  0  0  0  0  0  0  0  0  0  0
    0.3508    2.4650    0.0473 C   0  0  0  0  0  0  0  0  0  0  0  0
   -0.4960    3.5156    0.0546 C   0  0  0  0  0  0  0  0  0  0  0  0
   -0.0419    4.9250    0.0444 C   0  0  0  0  0  0  0  0  0  0  0  0
    0.9723    5.3353   -0.7971 C   0  0  0  0  0  0  0  0  0  0  0  0
    1.3265    6.6593   -0.7184 C   0  0  0  0  0  0  0  0  0  0  0  0
    0.7342    7.5337    0.1078 N   0  0  0  0  0  0  0  0  0  0  0  0
   -0.2584    7.0593    0.8666 C   0  0  0  0  0  0  0  0  0  0  0  0
   -0.6847    5.7852    0.8641 N   0  0  0  0  0  0  0  0  0  0  0  0
   -0.8543    7.9562    1.7056 N   0  0  0  0  0  0  0  0  0  0  0  0
    0.4532   -2.4680    0.0124 N   0  3  0  0  0  0  0  0  0  0  0  0
   -0.4071   -3.3533    0.0029 O   0  0  0  0  0  0  0  0  0  0  0  0
    1.6761   -2.6586    0.0233 O   0  5  0  0  0  0  0  0  0  0  0  0
    2.5834   -0.4822    0.8680 H   0  0  0  0  0  0  0  0  0  0  0  0
    2.5431   -0.4472   -0.9365 H   0  0  0  0  0  0  0  0  0  0  0  0
    2.6003    1.0550   -0.0045 H   0  0  0  0  0  0  0  0  0  0  0  0
   -2.2183   -1.2933   -0.0142 H   0  0  0  0  0  0  0  0  0  0  0  0
    1.4130    2.6708    0.0709 H   0  0  0  0  0  0  0  0  0  0  0  0
   -1.5748    3.3754    0.0740 H   0  0  0  0  0  0  0  0  0  0  0  0
    1.4650    4.6678   -1.4883 H   0  0  0  0  0  0  0  0  0  0  0  0
    2.1212    7.0684   -1.3348 H   0  0  0  0  0  0  0  0  0  0  0  0
   -1.6349    7.6572    2.2606 H   0  0  0  0  0  0  0  0  0  0  0  0
   -0.5358    8.9099    1.6650 H   0  0  0  0  0  0  0  0  0  0  0  0
  1  2  1  0  0  0  0
  1 19  1  0  0  0  0
  1 20  1  0  0  0  0
  1 21  1  0  0  0  0
  2  3  1  0  0  0  0
  2  6  1  0  0  0  0
  3  4  2  0  0  0  0
  3 16  1  0  0  0  0
  4  5  1  0  0  0  0
  4 22  1  0  0  0  0
  5  6  2  0  0  0  0
  6  7  1  0  0  0  0
  7  8  2  0  0  0  0
  7 23  1  0  0  0  0
  8  9  1  0  0  0  0
  8 24  1  0  0  0  0
  9 10  2  0  0  0  0
  9 14  1  0  0  0  0
 10 11  1  0  0  0  0
 10 25  1  0  0  0  0
 11 12  2  0  0  0  0
 11 26  1  0  0  0  0
 12 13  1  0  0  0  0
 13 14  2  0  0  0  0
 13 15  1  0  0  0  0
 15 27  1  0  0  0  0
 15 28  1  0  0  0  0
 16 17  2  0  0  0  0
 16 18  1  0  0  0  0
M  CHG  2  16   1  18  -1
M  END
>  <DRUGBANK_ID>
DB13350

>  <COMMON_NAME>
Azanidazole

>  <CAS_NUMBER>
62973-76-6

>  <UNII>
YP2Y0DRX4S

>  <SYNONYMS>
Azanidazole

$$$$
