
 OpenBabel10282417133D

 51 53  0  0  1  0  0  0  0  0999 V2000
    3.3132   -3.0109   -0.1873 C   0  0  0  0  0  0  0  0  0  0  0  0
    2.0691    0.1930    3.2393 C   0  0  0  0  0  0  0  0  0  0  0  0
   -0.2159   -5.9843    7.8886 C   0  0  0  0  0  0  0  0  0  0  0  0
    0.0007   -2.9297   -1.1325 C   0  0  0  0  0  0  0  0  0  0  0  0
   -1.4372   -1.8441   -0.7431 C   0  0  0  0  0  0  0  0  0  0  0  0
    2.8492   -5.3977    5.9527 C   0  0  0  0  0  0  0  0  0  0  0  0
    3.4651   -4.5545    3.6810 C   0  0  0  0  0  0  0  0  0  0  0  0
    2.5255   -3.9801    0.7127 C   0  0  0  0  0  0  0  0  0  0  0  0
    1.6949   -1.1453    4.1492 C   0  0  1  0  0  0  0  0  0  0  0  0
    0.7395   -5.4843    6.8819 C   0  0  0  0  0  0  0  0  0  0  0  0
    2.3412   -4.9174    4.7885 C   0  0  0  0  0  0  0  0  0  0  0  0
    1.0851   -3.7207    0.1067 C   0  0  0  0  0  0  0  0  0  0  0  0
    0.9135   -4.5720    4.8937 C   0  0  0  0  0  0  0  0  0  0  0  0
    1.1315   -3.0901    3.4516 C   0  0  2  0  0  0  0  0  0  0  0  0
    2.0664   -5.7298    6.9913 N   0  0  0  0  0  0  0  0  0  0  0  0
    0.1361   -4.8498    5.9070 N   0  0  0  0  0  0  0  0  0  0  0  0
    0.1420   -3.8486    4.0593 N   0  0  0  0  0  0  0  0  0  0  0  0
    2.7746   -3.9060    2.5496 N   0  0  0  0  0  0  0  0  0  0  0  0
    3.3817   -0.9639    4.6030 O   0  0  0  0  0  0  0  0  0  0  0  0
    2.7157   -2.6821    4.1330 O   0  0  0  0  0  0  0  0  0  0  0  0
    1.2318   -4.2733    2.1897 O   0  0  0  0  0  0  0  0  0  0  0  0
    3.5095   -1.7062    2.1257 O   0  0  0  0  0  0  0  0  0  0  0  0
    0.9140   -0.5309    0.7213 O   0  0  0  0  0  0  0  0  0  0  0  0
   -1.0347    0.2467    2.1264 O   0  0  0  0  0  0  0  0  0  0  0  0
   -1.1874   -0.5702   -0.0343 O   0  0  0  0  0  0  0  0  0  0  0  0
    0.2536   -1.4541    2.9846 O   0  0  0  0  0  0  0  0  0  0  0  0
    2.0343   -2.2106    2.1810 P   0  0  0  0  0  0  0  0  0  0  0  0
   -0.4669   -1.0122    1.4752 P   0  0  3  0  0  0  0  0  0  0  0  0
   -0.2220   -3.2714    1.3473 S   0  0  0  0  0  0  0  0  0  0  0  0
    1.2200   -0.8834    5.0830 H   0  0  0  0  0  0  0  0  0  0  0  0
    3.6150   -3.4752   -1.1128 H   0  0  0  0  0  0  0  0  0  0  0  0
    4.0509   -2.3369    0.2381 H   0  0  0  0  0  0  0  0  0  0  0  0
    2.5870   -2.2536   -0.5217 H   0  0  0  0  0  0  0  0  0  0  0  0
    1.5637    0.2990    2.3138 H   0  0  0  0  0  0  0  0  0  0  0  0
    1.8291    1.0771    3.8119 H   0  0  0  0  0  0  0  0  0  0  0  0
    3.1364    0.3002    2.9269 H   0  0  0  0  0  0  0  0  0  0  0  0
   -0.7264   -5.1349    8.3506 H   0  0  0  0  0  0  0  0  0  0  0  0
   -0.9677   -6.6046    7.3845 H   0  0  0  0  0  0  0  0  0  0  0  0
    0.3177   -6.5694    8.6264 H   0  0  0  0  0  0  0  0  0  0  0  0
    0.5630   -2.2405   -1.7552 H   0  0  0  0  0  0  0  0  0  0  0  0
   -0.5632   -3.7113   -1.6848 H   0  0  0  0  0  0  0  0  0  0  0  0
   -1.9420   -1.5520   -1.6749 H   0  0  0  0  0  0  0  0  0  0  0  0
   -2.2252   -2.3660   -0.1558 H   0  0  0  0  0  0  0  0  0  0  0  0
    3.9228   -5.4978    6.0744 H   0  0  0  0  0  0  0  0  0  0  0  0
    4.2618   -5.2419    3.4643 H   0  0  0  0  0  0  0  0  0  0  0  0
    4.1614   -3.7569    4.1212 H   0  0  0  0  0  0  0  0  0  0  0  0
   -0.7938   -3.4913    3.9792 H   0  0  0  0  0  0  0  0  0  0  0  0
    3.8636   -1.4892    3.8521 H   0  0  0  0  0  0  0  0  0  0  0  0
    2.9006   -2.1207    4.9893 H   0  0  0  0  0  0  0  0  0  0  0  0
    0.2329   -4.2921    2.1474 H   0  0  0  0  0  0  0  0  0  0  0  0
    1.1933   -1.0880   -0.0187 H   0  0  0  0  0  0  0  0  0  0  0  0
  1 31  1  0  0  0  0
  1 32  1  0  0  0  0
  1 33  1  0  0  0  0
  2 34  1  0  0  0  0
  2 35  1  0  0  0  0
  2 36  1  0  0  0  0
  3 37  1  0  0  0  0
  3 38  1  0  0  0  0
  3 39  1  0  0  0  0
  4 40  1  0  0  0  0
  4 41  1  0  0  0  0
  5  4  1  0  0  0  0
  5 42  1  0  0  0  0
  5 43  1  0  0  0  0
  6 44  1  0  0  0  0
  7 45  1  0  0  0  0
  7 46  1  0  0  0  0
  8  1  1  0  0  0  0
  9 19  1  0  0  0  0
  9 30  1  1  0  0  0
  9  2  1  0  0  0  0
 10  3  1  0  0  0  0
 11  6  2  0  0  0  0
 11  7  1  0  0  0  0
 12  4  1  0  0  0  0
 12  8  2  0  0  0  0
 13 11  1  0  0  0  0
 14  9  1  1  0  0  0
 15  6  1  0  0  0  0
 15 10  2  0  0  0  0
 16 10  1  0  0  0  0
 16 13  2  0  0  0  0
 17 13  1  0  0  0  0
 17 14  1  0  0  0  0
 17 47  1  0  0  0  0
 18  7  1  0  0  0  0
 18  8  1  0  0  0  0
 18 14  1  0  0  0  0
 19 48  1  0  0  0  0
 20 49  1  0  0  0  0
 21 50  1  0  0  0  0
 23 51  1  0  0  0  0
 25  5  1  0  0  0  0
 27 20  1  0  0  0  0
 27 21  1  0  0  0  0
 27 22  2  0  0  0  0
 27 26  1  0  0  0  0
 28 23  1  0  0  0  0
 28 24  2  0  0  0  0
 28 25  1  0  0  0  0
 28 26  1  0  0  0  0
 29 12  1  0  0  0  0
 29 14  1  0  0  0  0
M  END
>  <DRUGBANK_ID>
DB03361

>  <SECONDARY_ACCESSION_NUMBERS>
EXPT01719

>  <COMMON_NAME>
2-{(9as)-9a-[(1s)-1-Hydroxyethyl]-2,7-Dimethyl-9a,10-Dihydro-5h-Pyrimido[4,5-D][1,3]Thiazolo[3,2-a]Pyrimidin-8-Yl}Ethyl Trihydrogen Diphosphate

$$$$
