
 OpenBabel10282417173D

 56 58  0  0  0  0  0  0  0  0999 V2000
    1.1480    1.1497   -2.8776 C   0  0  1  0  0  0  0  0  0  0  0  0
   -0.4503   -0.2517   -1.8816 C   0  0  0  0  0  0  0  0  0  0  0  0
    1.2333   -0.8103   -1.7257 C   0  0  0  0  0  0  0  0  0  0  0  0
   -1.0690   -0.0428   -0.0271 C   0  0  1  0  0  0  0  0  0  0  0  0
    1.2591   -0.5626   -0.3221 C   0  0  2  0  0  0  0  0  0  0  0  0
    0.1816   -0.5481    0.6156 O   0  0  0  0  0  0  0  0  0  0  0  0
    2.3306    2.9815   -3.0343 O   0  0  0  0  0  0  0  0  0  0  0  0
    3.5758    4.7066   -3.3199 C   0  0  0  0  0  0  0  0  0  0  0  0
    4.1073    6.0875   -2.8056 O   0  0  0  0  0  0  0  0  0  0  0  0
    1.2423    0.4582   -1.3259 C   0  0  0  0  0  0  0  0  0  0  0  0
    1.4903    1.9580   -1.0022 C   0  0  0  0  0  0  0  0  0  0  0  0
    3.5773    1.7212   -1.7018 C   0  0  0  0  0  0  0  0  0  0  0  0
    5.2241    2.0800   -3.3163 C   0  0  0  0  0  0  0  0  0  0  0  0
    4.5306    2.5015   -2.1297 C   0  0  0  0  0  0  0  0  0  0  0  0
    5.2662    5.6164   -4.1269 C   0  0  0  0  0  0  0  0  0  0  0  0
    4.3046    2.7783   -4.6573 C   0  0  0  0  0  0  0  0  0  0  0  0
    4.7316    4.4514   -4.1757 C   0  0  0  0  0  0  0  0  0  0  0  0
   -1.2665    1.3439    0.2104 C   0  0  2  0  0  0  0  0  0  0  0  0
   -2.0075    2.1424   -0.7465 C   0  0  0  0  0  0  0  0  0  0  0  0
   -0.0967    1.6848   -0.1207 N   0  0  0  0  0  0  0  0  0  0  0  0
   -1.4096    3.6967   -1.4235 S   0  0  0  0  0  0  0  0  0  0  0  0
    0.0728    3.3239   -0.9214 C   0  0  0  0  0  0  0  0  0  0  0  0
    1.0626    3.8607   -1.5211 O   0  0  0  0  0  0  0  0  0  0  0  0
    4.9127    4.1097   -5.4380 C   0  0  0  0  0  0  0  0  0  0  0  0
   -2.1819   -0.3083    0.9378 O   0  0  0  0  0  0  0  0  0  0  0  0
   -1.0830    1.5752    1.2311 H   0  0  0  0  0  0  0  0  0  0  0  0
    2.7760    2.1127   -0.5774 C   0  0  1  0  0  0  0  0  0  0  0  0
    2.7372    3.5212   -0.0276 C   0  0  0  0  0  0  0  0  0  0  0  0
    0.3443    0.4445   -3.5003 H   0  0  0  0  0  0  0  0  0  0  0  0
   -1.6458   -0.8798   -1.6846 H   0  0  0  0  0  0  0  0  0  0  0  0
   -0.6352   -1.4009   -0.9894 H   0  0  0  0  0  0  0  0  0  0  0  0
    0.9609   -1.9357   -0.9688 H   0  0  0  0  0  0  0  0  0  0  0  0
    1.6122   -1.7487   -2.2668 H   0  0  0  0  0  0  0  0  0  0  0  0
    2.2564   -0.4934   -0.0826 H   0  0  0  0  0  0  0  0  0  0  0  0
    1.9017   -0.1008   -2.7662 H   0  0  0  0  0  0  0  0  0  0  0  0
   -0.0936    1.1788   -1.8747 H   0  0  0  0  0  0  0  0  0  0  0  0
    0.6540    2.4426   -2.1860 H   0  0  0  0  0  0  0  0  0  0  0  0
    0.9525    2.6540    0.3007 H   0  0  0  0  0  0  0  0  0  0  0  0
    3.3306    0.9232   -2.4089 H   0  0  0  0  0  0  0  0  0  0  0  0
    6.2038    2.5739   -3.1254 H   0  0  0  0  0  0  0  0  0  0  0  0
    4.9911    1.2478   -3.9223 H   0  0  0  0  0  0  0  0  0  0  0  0
    4.4206    3.4045   -2.6061 H   0  0  0  0  0  0  0  0  0  0  0  0
    6.2656    5.8885   -5.2408 H   0  0  0  0  0  0  0  0  0  0  0  0
    4.6721    2.1529   -5.5855 H   0  0  0  0  0  0  0  0  0  0  0  0
    3.4663    2.3181   -4.2869 H   0  0  0  0  0  0  0  0  0  0  0  0
   -2.3572    1.5342   -1.5618 H   0  0  0  0  0  0  0  0  0  0  0  0
   -2.7568    2.4855   -0.1020 H   0  0  0  0  0  0  0  0  0  0  0  0
    0.8413    1.0398    0.3449 H   0  0  0  0  0  0  0  0  0  0  0  0
    5.6080    3.6377   -4.2951 H   0  0  0  0  0  0  0  0  0  0  0  0
    3.9843    4.8966   -5.6645 H   0  0  0  0  0  0  0  0  0  0  0  0
    5.8198    4.4797   -5.6365 H   0  0  0  0  0  0  0  0  0  0  0  0
   -3.1044   -0.0733    0.7053 H   0  0  0  0  0  0  0  0  0  0  0  0
    2.7539    1.3472    0.1752 H   0  0  0  0  0  0  0  0  0  0  0  0
    1.9848    3.6768    0.7678 H   0  0  0  0  0  0  0  0  0  0  0  0
    3.7259    3.6585    0.2516 H   0  0  0  0  0  0  0  0  0  0  0  0
    2.5650    4.3735   -0.7133 H   0  0  0  0  0  0  0  0  0  0  0  0
  1  7  1  0  0  0  0
  1 29  1  1  0  0  0
  2  1  1  0  0  0  0
  2 30  1  0  0  0  0
  2 31  1  0  0  0  0
  3  1  1  0  0  0  0
  3 32  1  0  0  0  0
  3 33  1  0  0  0  0
  4  2  1  0  0  0  0
  4 25  1  1  0  0  0
  5  3  1  0  0  0  0
  5 10  1  0  0  0  0
  5 34  1  1  0  0  0
  6  4  1  0  0  0  0
  6  5  1  0  0  0  0
  8  7  1  0  0  0  0
  8  9  2  0  0  0  0
 10 35  1  0  0  0  0
 10 36  1  0  0  0  0
 11 10  1  0  0  0  0
 11 37  1  0  0  0  0
 11 38  1  0  0  0  0
 12 27  1  0  0  0  0
 12 39  1  0  0  0  0
 13 40  1  0  0  0  0
 13 41  1  0  0  0  0
 14 12  2  0  0  0  0
 14 13  1  0  0  0  0
 14 42  1  0  0  0  0
 15  8  1  0  0  0  0
 15 43  1  0  0  0  0
 16 13  1  0  0  0  0
 16 44  1  0  0  0  0
 16 45  1  0  0  0  0
 17 15  2  0  0  0  0
 17 16  1  0  0  0  0
 17 24  1  0  0  0  0
 18 26  1  1  0  0  0
 18  4  1  0  0  0  0
 19 18  1  0  0  0  0
 19 46  1  0  0  0  0
 19 47  1  0  0  0  0
 20 18  1  0  0  0  0
 20 48  1  0  0  0  0
 21 19  1  0  0  0  0
 22 20  1  0  0  0  0
 22 21  1  0  0  0  0
 22 23  2  0  0  0  0
 24 49  1  0  0  0  0
 24 50  1  0  0  0  0
 24 51  1  0  0  0  0
 25 52  1  0  0  0  0
 27 11  1  0  0  0  0
 27 28  1  0  0  0  0
 27 53  1  1  0  0  0
 28 54  1  0  0  0  0
 28 55  1  0  0  0  0
 28 56  1  0  0  0  0
M  END
>  <DRUGBANK_ID>
DB08080

>  <COMMON_NAME>
Latrunculin B

>  <CAS_NUMBER>
76343-94-7

>  <UNII>
LW7U308U7U

>  <SYNONYMS>
(+)-latrunculin B; LAT-B

$$$$
