694
 OpenBabel10282417163D

 30 31  0  0  0  0  0  0  0  0999 V2000
   -1.2262   -1.1548   -0.1432 C   0  0  0  0  0  0  0  0  0  0  0  0
    0.1724   -1.2009   -0.0464 C   0  0  0  0  0  0  0  0  0  0  0  0
    0.8870   -0.0110   -0.0143 C   0  0  0  0  0  0  0  0  0  0  0  0
    0.2220    1.2104   -0.0289 C   0  0  0  0  0  0  0  0  0  0  0  0
   -1.1750    1.2561   -0.1154 C   0  0  0  0  0  0  0  0  0  0  0  0
   -1.9181    0.0747   -0.2085 C   0  0  0  0  0  0  0  0  0  0  0  0
   -3.3906    0.0984   -0.1043 C   0  0  0  0  0  0  0  0  0  0  0  0
   -4.1266   -0.2762    0.9985 C   0  0  0  0  0  0  0  0  0  0  0  0
   -5.5511   -0.2653    0.7828 C   0  0  0  0  0  0  0  0  0  0  0  0
   -5.8620    0.3572   -0.4272 C   0  0  0  0  0  0  0  0  0  0  0  0
   -4.4123    0.7389   -1.3085 S   0  0  0  0  0  0  0  0  0  0  0  0
   -7.1437    0.7440   -1.0260 C   0  0  0  0  0  0  0  0  0  0  0  0
   -8.2363    0.3905   -0.2975 O   0  0  0  0  0  0  0  0  0  0  0  0
   -7.2904    1.3644   -2.0795 O   0  0  0  0  0  0  0  0  0  0  0  0
   -6.5815   -0.6794    1.5786 O   0  0  0  0  0  0  0  0  0  0  0  0
   -6.2355   -1.4706    2.7082 C   0  0  0  0  0  0  0  0  0  0  0  0
   -5.6443   -2.8580    2.4171 C   0  0  0  0  0  0  0  0  0  0  0  0
   -4.5378   -3.1864    3.1230 O   0  0  0  0  0  0  0  0  0  0  0  0
   -6.1275   -3.6359    1.6068 O   0  0  0  0  0  0  0  0  0  0  0  0
   -3.1663   -0.5988    2.6242 Br  0  0  0  0  0  0  0  0  0  0  0  0
    2.2492    0.0160    0.0435 O   0  0  0  0  0  0  0  0  0  0  0  0
   -1.7785   -2.0934   -0.1076 H   0  0  0  0  0  0  0  0  0  0  0  0
    0.6732   -2.1628    0.0219 H   0  0  0  0  0  0  0  0  0  0  0  0
    0.7940    2.1312    0.0420 H   0  0  0  0  0  0  0  0  0  0  0  0
   -1.6741    2.2199   -0.0567 H   0  0  0  0  0  0  0  0  0  0  0  0
   -8.0292   -0.1122    0.5143 H   0  0  0  0  0  0  0  0  0  0  0  0
   -5.6620   -0.8738    3.4208 H   0  0  0  0  0  0  0  0  0  0  0  0
   -7.1680   -1.6724    3.2494 H   0  0  0  0  0  0  0  0  0  0  0  0
   -4.0646   -2.4332    3.5317 H   0  0  0  0  0  0  0  0  0  0  0  0
    2.5966   -0.8883   -0.0276 H   0  0  0  0  0  0  0  0  0  0  0  0
  1  2  2  0  0  0  0
  1  6  1  0  0  0  0
  1 22  1  0  0  0  0
  2  3  1  0  0  0  0
  2 23  1  0  0  0  0
  3  4  2  0  0  0  0
  3 21  1  0  0  0  0
  4  5  1  0  0  0  0
  4 24  1  0  0  0  0
  5  6  2  0  0  0  0
  5 25  1  0  0  0  0
  6  7  1  0  0  0  0
  7  8  2  0  0  0  0
  7 11  1  0  0  0  0
  8  9  1  0  0  0  0
  8 20  1  0  0  0  0
  9 10  2  0  0  0  0
  9 15  1  0  0  0  0
 10 11  1  0  0  0  0
 10 12  1  0  0  0  0
 12 13  1  0  0  0  0
 12 14  2  0  0  0  0
 13 26  1  0  0  0  0
 15 16  1  0  0  0  0
 16 17  1  0  0  0  0
 16 27  1  0  0  0  0
 16 28  1  0  0  0  0
 17 18  1  0  0  0  0
 17 19  2  0  0  0  0
 18 29  1  0  0  0  0
 21 30  1  0  0  0  0
M  END
>  <DRUGBANK_ID>
DB07197

>  <COMMON_NAME>
4-BROMO-3-(CARBOXYMETHOXY)-5-(4-HYDROXYPHENYL)THIOPHENE-2-CARBOXYLIC ACID

$$$$
