
 OpenBabel10282417123D

 29 30  0  0  1  0  0  0  0  0999 V2000
   11.3277   -1.5350    4.5454 N   0  0  0  0  0  0  0  0  0  0  0  0
   10.1707   -0.9437    4.1925 C   0  0  0  0  0  0  0  0  0  0  0  0
    9.1432   -1.6664    3.8845 N   0  0  0  0  0  0  0  0  0  0  0  0
    7.9561   -1.0039    3.5563 C   0  0  0  0  0  0  0  0  0  0  0  0
    6.9119   -1.8030    3.2286 N   0  0  0  0  0  0  0  0  0  0  0  0
    5.7528   -1.1715    2.9138 C   0  0  0  0  0  0  0  0  0  0  0  0
    5.6061    0.2102    2.9595 C   0  0  0  0  0  0  0  0  0  0  0  0
    6.6396    1.0054    3.3450 N   0  0  0  0  0  0  0  0  0  0  0  0
    7.8146    0.3724    3.5875 C   0  0  0  0  0  0  0  0  0  0  0  0
    9.0298    1.1644    3.8720 C   0  0  0  0  0  0  0  0  0  0  0  0
    9.0704    2.3843    3.8345 O   0  0  0  0  0  0  0  0  0  0  0  0
   10.1472    0.4197    4.1837 N   0  0  0  0  0  0  0  0  0  0  0  0
    4.3253    0.8799    2.4965 C   0  0  1  0  0  0  0  0  0  0  0  0
    3.7641    1.6923    3.5310 O   0  0  0  0  0  0  0  0  0  0  0  0
    4.5043    1.7163    1.2000 C   0  0  2  0  0  0  0  0  0  0  0  0
    4.3288    0.8670    0.0437 O   0  0  0  0  0  0  0  0  0  0  0  0
    5.8807    2.3915    1.0779 C   0  0  0  0  0  0  0  0  0  0  0  0
    5.9655    3.1743   -0.1108 O   0  0  0  0  0  0  0  0  0  0  0  0
   12.1715   -1.0406    4.7886 H   0  0  0  0  0  0  0  0  0  0  0  0
   11.3422   -2.5482    4.5601 H   0  0  0  0  0  0  0  0  0  0  0  0
    4.9385   -1.8237    2.6142 H   0  0  0  0  0  0  0  0  0  0  0  0
   10.9748    0.9513    4.4045 H   0  0  0  0  0  0  0  0  0  0  0  0
    3.5742    0.1036    2.3034 H   0  0  0  0  0  0  0  0  0  0  0  0
    3.8192    1.1902    4.3624 H   0  0  0  0  0  0  0  0  0  0  0  0
    3.7287    2.4913    1.1387 H   0  0  0  0  0  0  0  0  0  0  0  0
    3.4382    0.4766    0.1046 H   0  0  0  0  0  0  0  0  0  0  0  0
    6.0801    3.0410    1.9354 H   0  0  0  0  0  0  0  0  0  0  0  0
    6.6706    1.6387    0.9835 H   0  0  0  0  0  0  0  0  0  0  0  0
    5.8359    2.5360   -0.8357 H   0  0  0  0  0  0  0  0  0  0  0  0
  1  2  1  0  0  0  0
  1 19  1  0  0  0  0
  1 20  1  0  0  0  0
  2  3  2  0  0  0  0
  2 12  1  0  0  0  0
  3  4  1  0  0  0  0
  4  5  2  0  0  0  0
  4  9  1  0  0  0  0
  5  6  1  0  0  0  0
  6  7  2  0  0  0  0
  6 21  1  0  0  0  0
  7  8  1  0  0  0  0
  7 13  1  0  0  0  0
  8  9  2  0  0  0  0
  9 10  1  0  0  0  0
 10 11  2  0  0  0  0
 10 12  1  0  0  0  0
 12 22  1  0  0  0  0
 13 14  1  0  0  0  0
 13 23  1  6  0  0  0
 14 24  1  0  0  0  0
 15 17  1  0  0  0  0
 15 25  1  6  0  0  0
 15 16  1  0  0  0  0
 15 13  1  0  0  0  0
 16 26  1  0  0  0  0
 17 18  1  0  0  0  0
 17 27  1  0  0  0  0
 17 28  1  0  0  0  0
 18 29  1  0  0  0  0
M  END
>  <DRUGBANK_ID>
DB02385

>  <SECONDARY_ACCESSION_NUMBERS>
EXPT02326

>  <COMMON_NAME>
D-threo-neopterin

>  <CAS_NUMBER>
10162-32-0

>  <UNII>
26C7CRZ5LJ

>  <SYNONYMS>
D-monapterin; D-threo-monapterin; Monapterin; Neopterin D-threo-form

$$$$
