
 OpenBabel10282417123D

 53 53  0  0  1  0  0  0  0  0999 V2000
    1.0388   -0.2770    6.7276 C   0  0  0  0  0  0  0  0  0  0  0  0
    0.1314   -3.7741    4.8824 C   0  0  0  0  0  0  0  0  0  0  0  0
   -1.7262    3.1848    2.8714 C   0  0  0  0  0  0  0  0  0  0  0  0
    3.3939   -3.8727    3.9399 C   0  0  0  0  0  0  0  0  0  0  0  0
    5.5829   -0.3176    5.1610 C   0  0  0  0  0  0  0  0  0  0  0  0
    5.8448   -0.9471    3.9449 C   0  0  0  0  0  0  0  0  0  0  0  0
    4.3017    0.1257    5.4134 C   0  0  0  0  0  0  0  0  0  0  0  0
    4.8205   -1.1707    3.0023 C   0  0  0  0  0  0  0  0  0  0  0  0
    3.2992   -0.1187    4.4714 C   0  0  0  0  0  0  0  0  0  0  0  0
   -0.8580    0.8409    5.5362 C   0  0  0  0  0  0  0  0  0  0  0  0
   -1.9704    0.9395    4.7904 C   0  0  0  0  0  0  0  0  0  0  0  0
   -0.0497   -1.3047    4.6701 C   0  0  0  0  0  0  0  0  0  0  0  0
    2.2696   -1.3076    2.5551 C   0  0  0  0  0  0  0  0  0  0  0  0
    0.0365   -0.3091    5.5818 C   0  0  0  0  0  0  0  0  0  0  0  0
    0.8800   -2.4786    4.5274 C   0  0  2  0  0  0  0  0  0  0  0  0
   -3.0731    2.7920    3.4777 C   0  0  1  0  0  0  0  0  0  0  0  0
    3.5021   -0.8324    3.3055 C   0  0  0  0  0  0  0  0  0  0  0  0
   -2.9267    2.0945    4.8421 C   0  0  1  0  0  0  0  0  0  0  0  0
    1.5338   -2.5832    3.1068 C   0  0  2  0  0  0  0  0  0  0  0  0
   -3.9470    4.0086    3.6200 C   0  0  0  0  0  0  0  0  0  0  0  0
   -4.2061    1.5453    5.3041 N   0  0  0  0  0  0  0  0  0  0  0  0
   -5.0572    4.1523    3.0987 O   0  0  0  0  0  0  0  0  0  0  0  0
   -3.4503    4.9598    4.4246 O   0  0  0  0  0  0  0  0  0  0  0  0
    2.3408   -3.7748    2.9918 O   0  0  0  0  0  0  0  0  0  0  0  0
    0.9648    0.6319    7.3320 H   0  0  0  0  0  0  0  0  0  0  0  0
    2.0760   -0.2732    6.4376 H   0  0  0  0  0  0  0  0  0  0  0  0
    0.9686   -1.1714    7.3451 H   0  0  0  0  0  0  0  0  0  0  0  0
   -0.7025   -3.9690    4.1983 H   0  0  0  0  0  0  0  0  0  0  0  0
    0.7993   -4.6408    4.8445 H   0  0  0  0  0  0  0  0  0  0  0  0
   -0.2678   -3.7226    5.9014 H   0  0  0  0  0  0  0  0  0  0  0  0
   -1.0266    3.5201    3.6448 H   0  0  0  0  0  0  0  0  0  0  0  0
   -1.2752    2.3248    2.3632 H   0  0  0  0  0  0  0  0  0  0  0  0
   -1.8297    3.9912    2.1395 H   0  0  0  0  0  0  0  0  0  0  0  0
    4.1235   -3.1125    3.7653 H   0  0  0  0  0  0  0  0  0  0  0  0
    3.0633   -3.7864    4.9757 H   0  0  0  0  0  0  0  0  0  0  0  0
    3.9413   -4.8028    3.8054 H   0  0  0  0  0  0  0  0  0  0  0  0
    6.3590   -0.1771    5.9083 H   0  0  0  0  0  0  0  0  0  0  0  0
    6.8436   -1.3278    3.7563 H   0  0  0  0  0  0  0  0  0  0  0  0
    4.0659    0.6173    6.3548 H   0  0  0  0  0  0  0  0  0  0  0  0
    5.0361   -1.7632    2.1166 H   0  0  0  0  0  0  0  0  0  0  0  0
    2.2825    0.1861    4.6461 H   0  0  0  0  0  0  0  0  0  0  0  0
   -0.5998    1.6714    6.1925 H   0  0  0  0  0  0  0  0  0  0  0  0
   -2.2534    0.1473    4.1061 H   0  0  0  0  0  0  0  0  0  0  0  0
   -0.8444   -1.3088    3.9270 H   0  0  0  0  0  0  0  0  0  0  0  0
    2.5396   -1.4686    1.5058 H   0  0  0  0  0  0  0  0  0  0  0  0
    1.5430   -0.4809    2.5456 H   0  0  0  0  0  0  0  0  0  0  0  0
    1.6718   -2.3687    5.2675 H   0  0  0  0  0  0  0  0  0  0  0  0
   -3.5750    2.1192    2.7666 H   0  0  0  0  0  0  0  0  0  0  0  0
   -2.5805    2.8154    5.5933 H   0  0  0  0  0  0  0  0  0  0  0  0
    0.7046   -2.7536    2.3984 H   0  0  0  0  0  0  0  0  0  0  0  0
   -4.8951    2.2927    5.3730 H   0  0  0  0  0  0  0  0  0  0  0  0
   -4.5737    0.9012    4.6043 H   0  0  0  0  0  0  0  0  0  0  0  0
   -4.1360    5.6609    4.4526 H   0  0  0  0  0  0  0  0  0  0  0  0
  1 25  1  0  0  0  0
  1 26  1  0  0  0  0
  1 27  1  0  0  0  0
  2 28  1  0  0  0  0
  2 29  1  0  0  0  0
  2 30  1  0  0  0  0
  3 31  1  0  0  0  0
  3 32  1  0  0  0  0
  3 33  1  0  0  0  0
  4 34  1  0  0  0  0
  4 35  1  0  0  0  0
  4 36  1  0  0  0  0
  5 37  1  0  0  0  0
  6  5  2  0  0  0  0
  6 38  1  0  0  0  0
  7  5  1  0  0  0  0
  7 39  1  0  0  0  0
  8  6  1  0  0  0  0
  8 40  1  0  0  0  0
  9  7  2  0  0  0  0
  9 41  1  0  0  0  0
 10 42  1  0  0  0  0
 11 10  2  0  0  0  0
 11 43  1  0  0  0  0
 12 44  1  0  0  0  0
 13 45  1  0  0  0  0
 13 46  1  0  0  0  0
 14  1  1  0  0  0  0
 14 10  1  0  0  0  0
 14 12  2  0  0  0  0
 15  2  1  0  0  0  0
 15 12  1  0  0  0  0
 15 47  1  1  0  0  0
 16 48  1  6  0  0  0
 16 18  1  0  0  0  0
 16  3  1  0  0  0  0
 17  8  2  0  0  0  0
 17  9  1  0  0  0  0
 17 13  1  0  0  0  0
 18 11  1  0  0  0  0
 18 21  1  0  0  0  0
 18 49  1  1  0  0  0
 19 13  1  0  0  0  0
 19 15  1  0  0  0  0
 19 24  1  0  0  0  0
 19 50  1  6  0  0  0
 20 16  1  0  0  0  0
 21 51  1  0  0  0  0
 21 52  1  0  0  0  0
 22 20  2  0  0  0  0
 23 20  1  0  0  0  0
 23 53  1  0  0  0  0
 24  4  1  0  0  0  0
M  END
>  <DRUGBANK_ID>
DB01850

>  <SECONDARY_ACCESSION_NUMBERS>
EXPT02162

>  <COMMON_NAME>
(2S,3S,8S,9S)-3-amino-9-methoxy-2,6,8-trimethyl-10-phenyldeca-4,6-dienoic acid

$$$$
