
 OpenBabel10282417233D

 76 80  0  0  1  0  0  0  0  0999 V2000
    2.5402   -1.1221    0.2298 C   0  0  0  0  0  0  0  0  0  0  0  0
    1.2803   -0.4352   -0.2705 C   0  0  1  0  0  0  0  0  0  0  0  0
   -0.0079   -1.2057    0.0653 C   0  0  0  0  0  0  0  0  0  0  0  0
   -1.2977   -0.4297   -0.2942 C   0  0  1  0  0  0  0  0  0  0  0  0
   -2.5411   -1.1400    0.2053 C   0  0  0  0  0  0  0  0  0  0  0  0
   -1.2396    1.0186    0.2086 C   0  0  0  0  0  0  0  0  0  0  0  0
   -0.0065    1.6635   -0.3253 N   0  0  0  0  0  0  0  0  0  0  0  0
    1.1721    0.9876    0.2762 C   0  0  0  0  0  0  0  0  0  0  0  0
   -0.0730    1.8759   -2.0389 S   0  0  0  0  0  0  0  0  0  0  0  0
    0.0181    0.6270   -2.7462 O   0  0  0  0  0  0  0  0  0  0  0  0
   -1.1901    2.7748   -2.2957 O   0  0  0  0  0  0  0  0  0  0  0  0
    1.4102    2.7086   -2.4271 C   0  0  0  0  0  0  0  0  0  0  0  0
    2.6461    2.1245   -2.1915 C   0  0  0  0  0  0  0  0  0  0  0  0
    3.8034    2.7853   -2.5229 C   0  0  0  0  0  0  0  0  0  0  0  0
    3.7374    3.9903   -3.2021 C   0  0  0  0  0  0  0  0  0  0  0  0
    2.4736    4.5337   -3.5121 C   0  0  0  0  0  0  0  0  0  0  0  0
    1.3174    3.8947   -3.1047 C   0  0  0  0  0  0  0  0  0  0  0  0
    2.2370    5.7845   -4.2741 C   0  0  0  0  0  0  0  0  0  0  0  0
    0.9914    6.1344   -4.4694 N   0  0  0  0  0  0  0  0  0  0  0  0
    0.7765    7.3207   -5.1483 O   0  0  0  0  0  0  0  0  0  0  0  0
    3.4375    6.4882   -4.7007 C   0  0  0  0  0  0  0  0  0  0  0  0
    3.3125    7.7045   -5.4103 C   0  0  0  0  0  0  0  0  0  0  0  0
    4.4050    8.4342   -5.7036 C   0  0  0  0  0  0  0  0  0  0  0  0
    5.5579    7.8569   -5.2572 C   0  0  0  0  0  0  0  0  0  0  0  0
    5.7954    6.6457   -4.6776 C   0  0  0  0  0  0  0  0  0  0  0  0
    4.6958    5.9405   -4.3563 C   0  0  0  0  0  0  0  0  0  0  0  0
    4.9620    4.6818   -3.6203 C   0  0  0  0  0  0  0  0  0  0  0  0
    6.2194    4.3488   -3.4254 N   0  0  0  0  0  0  0  0  0  0  0  0
    6.4608    3.1753   -2.7176 O   0  0  0  0  0  0  0  0  0  0  0  0
    4.2417    9.9456   -6.6437 S   0  0  0  0  0  0  0  0  0  0  0  0
    3.5949    9.5661   -7.8836 O   0  0  0  0  0  0  0  0  0  0  0  0
    3.6244   10.9036   -5.7491 O   0  0  0  0  0  0  0  0  0  0  0  0
    5.7908   10.5369   -7.0556 N   0  0  0  0  0  0  0  0  0  0  0  0
    6.5961    9.8131   -8.0746 C   0  0  0  0  0  0  0  0  0  0  0  0
    7.2850    8.6423   -7.4077 C   0  0  1  0  0  0  0  0  0  0  0  0
    8.0594    7.6884   -8.2888 C   0  0  0  0  0  0  0  0  0  0  0  0
    8.1036    9.1476   -6.1351 C   0  0  0  0  0  0  0  0  0  0  0  0
    7.3377   10.1966   -5.1912 C   0  0  1  0  0  0  0  0  0  0  0  0
    8.2025   10.6968   -4.0567 C   0  0  0  0  0  0  0  0  0  0  0  0
    6.6213   11.2285   -6.0359 C   0  0  0  0  0  0  0  0  0  0  0  0
    2.5391   -1.2123    1.3174 H   0  0  0  0  0  0  0  0  0  0  0  0
    2.6263   -2.1188   -0.2140 H   0  0  0  0  0  0  0  0  0  0  0  0
    3.4283   -0.5519   -0.0694 H   0  0  0  0  0  0  0  0  0  0  0  0
    1.3926   -0.4306   -1.3554 H   0  0  0  0  0  0  0  0  0  0  0  0
   -0.0025   -2.1617   -0.4700 H   0  0  0  0  0  0  0  0  0  0  0  0
   -0.0112   -1.4279    1.1377 H   0  0  0  0  0  0  0  0  0  0  0  0
   -1.4075   -0.4249   -1.3806 H   0  0  0  0  0  0  0  0  0  0  0  0
   -3.4378   -0.5910   -0.1018 H   0  0  0  0  0  0  0  0  0  0  0  0
   -2.5951   -2.1407   -0.2346 H   0  0  0  0  0  0  0  0  0  0  0  0
   -2.5393   -1.2301    1.2936 H   0  0  0  0  0  0  0  0  0  0  0  0
   -1.2098    1.0433    1.3066 H   0  0  0  0  0  0  0  0  0  0  0  0
   -2.1213    1.6008   -0.0805 H   0  0  0  0  0  0  0  0  0  0  0  0
    1.0559    0.9551    1.3684 H   0  0  0  0  0  0  0  0  0  0  0  0
    2.0730    1.5907    0.1492 H   0  0  0  0  0  0  0  0  0  0  0  0
    2.7675    1.1482   -1.7522 H   0  0  0  0  0  0  0  0  0  0  0  0
    4.7162    2.2858   -2.2396 H   0  0  0  0  0  0  0  0  0  0  0  0
    0.3405    4.2987   -3.3561 H   0  0  0  0  0  0  0  0  0  0  0  0
   -0.1872    7.4069   -5.2183 H   0  0  0  0  0  0  0  0  0  0  0  0
    2.4017    8.1647   -5.7441 H   0  0  0  0  0  0  0  0  0  0  0  0
    6.4613    8.3147   -5.4014 H   0  0  0  0  0  0  0  0  0  0  0  0
    6.8246    6.3443   -4.4946 H   0  0  0  0  0  0  0  0  0  0  0  0
    7.4325    3.1003   -2.6856 H   0  0  0  0  0  0  0  0  0  0  0  0
    7.3524   10.4821   -8.4914 H   0  0  0  0  0  0  0  0  0  0  0  0
    5.9588    9.4874   -8.9033 H   0  0  0  0  0  0  0  0  0  0  0  0
    6.4563    7.9665   -7.2051 H   0  0  0  0  0  0  0  0  0  0  0  0
    8.3591    6.8115   -7.6975 H   0  0  0  0  0  0  0  0  0  0  0  0
    7.4066    7.3092   -9.0868 H   0  0  0  0  0  0  0  0  0  0  0  0
    8.9327    8.1655   -8.7195 H   0  0  0  0  0  0  0  0  0  0  0  0
    8.4052    8.2746   -5.5295 H   0  0  0  0  0  0  0  0  0  0  0  0
    9.0317    9.6025   -6.4796 H   0  0  0  0  0  0  0  0  0  0  0  0
    6.5269    9.7964   -4.5710 H   0  0  0  0  0  0  0  0  0  0  0  0
    7.6161   11.3565   -3.4047 H   0  0  0  0  0  0  0  0  0  0  0  0
    8.5134    9.8440   -3.4367 H   0  0  0  0  0  0  0  0  0  0  0  0
    9.0769   11.2211   -4.4278 H   0  0  0  0  0  0  0  0  0  0  0  0
    7.3632   11.8559   -6.5352 H   0  0  0  0  0  0  0  0  0  0  0  0
    6.0019   11.8925   -5.4230 H   0  0  0  0  0  0  0  0  0  0  0  0
  1 41  1  0  0  0  0
  1 42  1  0  0  0  0
  1 43  1  0  0  0  0
  2  1  1  0  0  0  0
  2  3  1  0  0  0  0
  2  8  1  0  0  0  0
  2 44  1  6  0  0  0
  3 45  1  0  0  0  0
  3 46  1  0  0  0  0
  4  3  1  0  0  0  0
  4  5  1  0  0  0  0
  4  6  1  0  0  0  0
  4 47  1  6  0  0  0
  5 48  1  0  0  0  0
  5 49  1  0  0  0  0
  5 50  1  0  0  0  0
  6  7  1  0  0  0  0
  6 51  1  0  0  0  0
  6 52  1  0  0  0  0
  7  8  1  0  0  0  0
  7  9  1  0  0  0  0
  8 53  1  0  0  0  0
  8 54  1  0  0  0  0
  9 10  2  0  0  0  0
  9 11  2  0  0  0  0
  9 12  1  0  0  0  0
 12 13  2  0  0  0  0
 12 17  1  0  0  0  0
 13 14  1  0  0  0  0
 13 55  1  0  0  0  0
 14 15  2  0  0  0  0
 14 56  1  0  0  0  0
 15 16  1  0  0  0  0
 15 27  1  0  0  0  0
 16 17  2  0  0  0  0
 16 18  1  0  0  0  0
 17 57  1  0  0  0  0
 18 19  2  0  0  0  0
 18 21  1  0  0  0  0
 19 20  1  0  0  0  0
 20 58  1  0  0  0  0
 21 22  2  0  0  0  0
 21 26  1  0  0  0  0
 22 23  1  0  0  0  0
 22 59  1  0  0  0  0
 23 24  2  0  0  0  0
 23 30  1  0  0  0  0
 24 25  1  0  0  0  0
 24 60  1  0  0  0  0
 25 26  2  0  0  0  0
 25 61  1  0  0  0  0
 26 27  1  0  0  0  0
 27 28  2  0  0  0  0
 28 29  1  0  0  0  0
 29 62  1  0  0  0  0
 30 31  2  0  0  0  0
 30 32  2  0  0  0  0
 30 33  1  0  0  0  0
 33 34  1  0  0  0  0
 33 40  1  0  0  0  0
 34 63  1  0  0  0  0
 34 64  1  0  0  0  0
 35 34  1  0  0  0  0
 35 36  1  0  0  0  0
 35 37  1  0  0  0  0
 35 65  1  1  0  0  0
 36 66  1  0  0  0  0
 36 67  1  0  0  0  0
 36 68  1  0  0  0  0
 37 69  1  0  0  0  0
 37 70  1  0  0  0  0
 38 37  1  0  0  0  0
 38 39  1  0  0  0  0
 38 40  1  0  0  0  0
 38 71  1  1  0  0  0
 39 72  1  0  0  0  0
 39 73  1  0  0  0  0
 39 74  1  0  0  0  0
 40 75  1  0  0  0  0
 40 76  1  0  0  0  0
M  END
>  <DRUGBANK_ID>
DB17109

>  <COMMON_NAME>
Tegavivint

>  <CAS_NUMBER>
1227637-23-1

>  <UNII>
18AP231HUP

>  <SYNONYMS>
9,10-anthracenedione, 2,7-bis(((3r,5s)-3,5-dimethyl-1-piperidinyl)sulfonyl)-, 9,10-dioxime, rel-; Tegavivint

$$$$
