AD8
 OpenBabel10282417163D

 38 41  0  0  0  0  0  0  0  0999 V2000
   -0.3074   -1.0725   -0.0768 N   0  0  0  0  0  0  0  0  0  0  0  0
   -1.1290    0.0189   -0.0263 C   0  0  0  0  0  0  0  0  0  0  0  0
   -0.4404    1.1400    0.0156 N   0  0  0  0  0  0  0  0  0  0  0  0
    0.8708    0.7609    0.0059 C   0  0  0  0  0  0  0  0  0  0  0  0
    0.9733   -0.6051   -0.0088 C   0  0  0  0  0  0  0  0  0  0  0  0
   -0.7268   -2.4655   -0.0711 C   0  0  0  0  0  0  0  0  0  0  0  0
   -0.2194   -3.2616   -1.2853 C   0  0  0  0  0  0  0  0  0  0  0  0
   -0.5486   -2.9422   -2.4239 O   0  0  0  0  0  0  0  0  0  0  0  0
    0.7825   -4.4200   -1.0309 C   0  0  2  0  0  0  0  0  0  0  0  0
    2.1212   -3.7598   -0.6573 C   0  0  0  0  0  0  0  0  0  0  0  0
    1.0708   -5.3615   -2.2394 C   0  0  0  0  0  0  0  0  0  0  0  0
    0.2589   -5.3473    0.0855 C   0  0  0  0  0  0  0  0  0  0  0  0
    1.3370   -6.3586    0.4898 C   0  0  2  0  0  0  0  0  0  0  0  0
    2.6066   -5.6066    0.9241 C   0  0  0  0  0  0  0  0  0  0  0  0
    1.6608   -7.2524   -0.7147 C   0  0  0  0  0  0  0  0  0  0  0  0
    2.1897   -6.3867   -1.8762 C   0  0  2  0  0  0  0  0  0  0  0  0
    3.4753   -5.6574   -1.4463 C   0  0  0  0  0  0  0  0  0  0  0  0
    3.1725   -4.7752   -0.2386 C   0  0  1  0  0  0  0  0  0  0  0  0
    0.9571   -6.9652    1.3187 H   0  0  0  0  0  0  0  0  0  0  0  0
    2.4133   -7.0205   -2.7411 H   0  0  0  0  0  0  0  0  0  0  0  0
    4.0773   -4.2458    0.0827 H   0  0  0  0  0  0  0  0  0  0  0  0
   -2.2094   -0.0446   -0.0211 H   0  0  0  0  0  0  0  0  0  0  0  0
    1.6874    1.4700    0.0171 H   0  0  0  0  0  0  0  0  0  0  0  0
    1.8539   -1.2176    0.0006 H   0  0  0  0  0  0  0  0  0  0  0  0
   -0.3650   -2.8675    0.8772 H   0  0  0  0  0  0  0  0  0  0  0  0
   -1.8219   -2.5148   -0.0461 H   0  0  0  0  0  0  0  0  0  0  0  0
    2.4875   -3.1609   -1.5055 H   0  0  0  0  0  0  0  0  0  0  0  0
    1.9862   -3.0968    0.1917 H   0  0  0  0  0  0  0  0  0  0  0  0
    1.3421   -4.7954   -3.1370 H   0  0  0  0  0  0  0  0  0  0  0  0
    0.1672   -5.9316   -2.4940 H   0  0  0  0  0  0  0  0  0  0  0  0
   -0.0576   -4.8071    0.9791 H   0  0  0  0  0  0  0  0  0  0  0  0
   -0.6397   -5.8707   -0.2721 H   0  0  0  0  0  0  0  0  0  0  0  0
    2.3712   -4.9451    1.7682 H   0  0  0  0  0  0  0  0  0  0  0  0
    3.3609   -6.3195    1.2715 H   0  0  0  0  0  0  0  0  0  0  0  0
    2.3801   -8.0260   -0.4214 H   0  0  0  0  0  0  0  0  0  0  0  0
    0.7526   -7.7744   -1.0414 H   0  0  0  0  0  0  0  0  0  0  0  0
    4.2802   -6.3598   -1.1959 H   0  0  0  0  0  0  0  0  0  0  0  0
    3.8462   -5.0423   -2.2774 H   0  0  0  0  0  0  0  0  0  0  0  0
  1  6  1  0  0  0  0
  2  1  1  0  0  0  0
  2 22  1  0  0  0  0
  3  2  2  0  0  0  0
  3  4  1  0  0  0  0
  4  5  2  0  0  0  0
  4 23  1  0  0  0  0
  5  1  1  0  0  0  0
  5 24  1  0  0  0  0
  6  7  1  0  0  0  0
  6 25  1  0  0  0  0
  6 26  1  0  0  0  0
  8  7  2  0  0  0  0
  9  7  1  6  0  0  0
  9 12  1  0  0  0  0
  9 11  1  0  0  0  0
 10  9  1  0  0  0  0
 10 18  1  0  0  0  0
 10 27  1  0  0  0  0
 10 28  1  0  0  0  0
 11 16  1  0  0  0  0
 11 29  1  0  0  0  0
 11 30  1  0  0  0  0
 12 13  1  0  0  0  0
 12 31  1  0  0  0  0
 12 32  1  0  0  0  0
 13 19  1  1  0  0  0
 13 15  1  0  0  0  0
 14 13  1  0  0  0  0
 14 33  1  0  0  0  0
 14 34  1  0  0  0  0
 15 35  1  0  0  0  0
 15 36  1  0  0  0  0
 16 15  1  0  0  0  0
 16 20  1  6  0  0  0
 17 16  1  0  0  0  0
 17 37  1  0  0  0  0
 17 38  1  0  0  0  0
 18 14  1  0  0  0  0
 18 17  1  0  0  0  0
 18 21  1  1  0  0  0
M  END
>  <DRUGBANK_ID>
DB07342

>  <COMMON_NAME>
1-(adamantan-1-yl)-2-(1H-imidazol-1-yl)ethanone

$$$$
