
 OpenBabel10282417233D

 40 40  0  0  0  0  0  0  0  0999 V2000
   -0.5835   -1.2653   -0.0341 C   0  0  0  0  0  0  0  0  0  0  0  0
   -1.2889   -0.0481   -0.0049 C   0  0  0  0  0  0  0  0  0  0  0  0
    0.8229   -1.1907   -0.0225 C   0  0  0  0  0  0  0  0  0  0  0  0
   -0.6423    1.2036   -0.0346 C   0  0  0  0  0  0  0  0  0  0  0  0
   -2.6453   -0.0243    0.0792 O   0  0  0  0  0  0  0  0  0  0  0  0
    1.5066    0.0261    0.0001 C   0  0  0  0  0  0  0  0  0  0  0  0
    0.7688    1.2087   -0.0290 C   0  0  0  0  0  0  0  0  0  0  0  0
    3.0051    0.0560    0.0685 C   0  0  0  0  0  0  0  0  0  0  0  0
   -1.3057   -2.6215   -0.0876 C   0  0  0  0  0  0  0  0  0  0  0  0
   -1.4015    2.5458   -0.0800 C   0  0  0  0  0  0  0  0  0  0  0  0
   -1.0202    3.3766    1.1593 C   0  0  0  0  0  0  0  0  0  0  0  0
   -1.0077    3.2970   -1.3680 C   0  0  0  0  0  0  0  0  0  0  0  0
   -2.9466    2.4532   -0.0908 C   0  0  0  0  0  0  0  0  0  0  0  0
   -2.1670   -2.8315    1.1827 C   0  0  0  0  0  0  0  0  0  0  0  0
   -2.1521   -2.7145   -1.3840 C   0  0  0  0  0  0  0  0  0  0  0  0
   -0.3172   -3.8092   -0.1342 C   0  0  0  0  0  0  0  0  0  0  0  0
    1.4335   -2.0893   -0.0241 H   0  0  0  0  0  0  0  0  0  0  0  0
   -3.0601   -0.8898   -0.0114 H   0  0  0  0  0  0  0  0  0  0  0  0
    1.3122    2.1521   -0.0383 H   0  0  0  0  0  0  0  0  0  0  0  0
    3.4193    0.5782   -0.7989 H   0  0  0  0  0  0  0  0  0  0  0  0
    3.3279    0.5576    0.9866 H   0  0  0  0  0  0  0  0  0  0  0  0
    3.4257   -0.9560    0.0817 H   0  0  0  0  0  0  0  0  0  0  0  0
    0.0492    3.6074    1.1945 H   0  0  0  0  0  0  0  0  0  0  0  0
   -1.5586    4.3300    1.1707 H   0  0  0  0  0  0  0  0  0  0  0  0
   -1.2707    2.8368    2.0811 H   0  0  0  0  0  0  0  0  0  0  0  0
   -1.2526    2.7019   -2.2569 H   0  0  0  0  0  0  0  0  0  0  0  0
   -1.5446    4.2486   -1.4444 H   0  0  0  0  0  0  0  0  0  0  0  0
    0.0622    3.5242   -1.4101 H   0  0  0  0  0  0  0  0  0  0  0  0
   -3.3040    1.8912   -0.9642 H   0  0  0  0  0  0  0  0  0  0  0  0
   -3.3223    1.9803    0.8261 H   0  0  0  0  0  0  0  0  0  0  0  0
   -3.4241    3.4347   -0.1409 H   0  0  0  0  0  0  0  0  0  0  0  0
   -2.9584   -2.0952    1.3371 H   0  0  0  0  0  0  0  0  0  0  0  0
   -2.6681   -3.8039    1.1579 H   0  0  0  0  0  0  0  0  0  0  0  0
   -1.5434   -2.7853    2.0834 H   0  0  0  0  0  0  0  0  0  0  0  0
   -1.5165   -2.6020   -2.2711 H   0  0  0  0  0  0  0  0  0  0  0  0
   -2.6657   -3.6784   -1.4497 H   0  0  0  0  0  0  0  0  0  0  0  0
   -2.9284   -1.9522   -1.4834 H   0  0  0  0  0  0  0  0  0  0  0  0
    0.3310   -3.7536   -1.0172 H   0  0  0  0  0  0  0  0  0  0  0  0
    0.3192   -3.8292    0.7589 H   0  0  0  0  0  0  0  0  0  0  0  0
   -0.8459   -4.7661   -0.1779 H   0  0  0  0  0  0  0  0  0  0  0  0
  1  2  2  0  0  0  0
  1  9  1  0  0  0  0
  1  3  1  0  0  0  0
  2  5  1  0  0  0  0
  2  4  1  0  0  0  0
  3  6  2  0  0  0  0
  3 17  1  0  0  0  0
  4 10  1  0  0  0  0
  4  7  2  0  0  0  0
  5 18  1  0  0  0  0
  6  8  1  0  0  0  0
  6  7  1  0  0  0  0
  7 19  1  0  0  0  0
  8 20  1  0  0  0  0
  8 21  1  0  0  0  0
  8 22  1  0  0  0  0
  9 14  1  0  0  0  0
  9 15  1  0  0  0  0
  9 16  1  0  0  0  0
 10 11  1  0  0  0  0
 10 12  1  0  0  0  0
 10 13  1  0  0  0  0
 11 23  1  0  0  0  0
 11 24  1  0  0  0  0
 11 25  1  0  0  0  0
 12 26  1  0  0  0  0
 12 27  1  0  0  0  0
 12 28  1  0  0  0  0
 13 29  1  0  0  0  0
 13 30  1  0  0  0  0
 13 31  1  0  0  0  0
 14 32  1  0  0  0  0
 14 33  1  0  0  0  0
 14 34  1  0  0  0  0
 15 35  1  0  0  0  0
 15 36  1  0  0  0  0
 15 37  1  0  0  0  0
 16 38  1  0  0  0  0
 16 39  1  0  0  0  0
 16 40  1  0  0  0  0
M  END
>  <DRUGBANK_ID>
DB16863

>  <COMMON_NAME>
Butylated hydroxytoluene

>  <CAS_NUMBER>
128-37-0

>  <UNII>
1P9D0Z171K

>  <SYNONYMS>
BHT; Butylhydroxytoluene

$$$$
