
 OpenBabel10282417143D

 38 40  0  0  1  0  0  0  0  0999 V2000
   -0.1942   -1.0500    4.4502 O   0  0  0  0  0  0  0  0  0  0  0  0
    1.0154   -0.9733    3.7025 C   0  0  0  0  0  0  0  0  0  0  0  0
    0.8824   -1.3160    2.2017 C   0  0  1  0  0  0  0  0  0  0  0  0
    2.1793   -1.3284    1.5760 O   0  0  0  0  0  0  0  0  0  0  0  0
    2.1175   -1.5368    0.1457 C   0  0  2  0  0  0  0  0  0  0  0  0
    1.3181   -0.5803   -0.5451 O   0  0  0  0  0  0  0  0  0  0  0  0
    1.6958    0.7188   -0.5475 C   0  0  0  0  0  0  0  0  0  0  0  0
    2.8324    1.2860   -0.0361 C   0  0  0  0  0  0  0  0  0  0  0  0
    2.7685    2.6374   -0.2834 N   0  0  0  0  0  0  0  0  0  0  0  0
    1.5987    2.9484   -0.9464 C   0  0  0  0  0  0  0  0  0  0  0  0
    0.8914    1.7538   -1.1248 C   0  0  0  0  0  0  0  0  0  0  0  0
   -0.3618    1.8229   -1.7789 C   0  0  0  0  0  0  0  0  0  0  0  0
   -1.2006    0.3337   -1.9475 Cl  0  0  0  0  0  0  0  0  0  0  0  0
   -0.8602    3.0475   -2.2371 C   0  0  0  0  0  0  0  0  0  0  0  0
   -2.5356    3.1916   -3.1209 Br  0  0  0  0  0  0  0  0  0  0  0  0
   -0.1217    4.2146   -2.0487 C   0  0  0  0  0  0  0  0  0  0  0  0
    1.1182    4.1875   -1.3977 C   0  0  0  0  0  0  0  0  0  0  0  0
    1.4808   -2.9230   -0.1515 C   0  0  1  0  0  0  0  0  0  0  0  0
    2.2914   -4.0161    0.3180 O   0  0  0  0  0  0  0  0  0  0  0  0
    0.0921   -2.9909    0.5012 C   0  0  1  0  0  0  0  0  0  0  0  0
   -0.4946   -4.2830    0.3109 O   0  0  0  0  0  0  0  0  0  0  0  0
    0.1743   -2.6636    1.9983 C   0  0  2  0  0  0  0  0  0  0  0  0
   -1.1357   -2.6521    2.5695 O   0  0  0  0  0  0  0  0  0  0  0  0
   -0.9510   -0.9537    3.8460 H   0  0  0  0  0  0  0  0  0  0  0  0
    1.3806    0.0507    3.8174 H   0  0  0  0  0  0  0  0  0  0  0  0
    1.7474   -1.6306    4.1823 H   0  0  0  0  0  0  0  0  0  0  0  0
    0.2803   -0.5151    1.7547 H   0  0  0  0  0  0  0  0  0  0  0  0
    3.1447   -1.5384   -0.2433 H   0  0  0  0  0  0  0  0  0  0  0  0
    3.6874    0.8724    0.4861 H   0  0  0  0  0  0  0  0  0  0  0  0
    3.4731    3.3120   -0.0202 H   0  0  0  0  0  0  0  0  0  0  0  0
   -0.5068    5.1674   -2.4086 H   0  0  0  0  0  0  0  0  0  0  0  0
    1.6817    5.1055   -1.2547 H   0  0  0  0  0  0  0  0  0  0  0  0
    1.3625   -3.0675   -1.2325 H   0  0  0  0  0  0  0  0  0  0  0  0
    2.5487   -3.8380    1.2394 H   0  0  0  0  0  0  0  0  0  0  0  0
   -0.5865   -2.2786    0.0175 H   0  0  0  0  0  0  0  0  0  0  0  0
    0.0991   -4.9306    0.7330 H   0  0  0  0  0  0  0  0  0  0  0  0
    0.7405   -3.4534    2.5079 H   0  0  0  0  0  0  0  0  0  0  0  0
   -1.6840   -2.0190    2.0772 H   0  0  0  0  0  0  0  0  0  0  0  0
  1  2  1  0  0  0  0
  1 24  1  0  0  0  0
  2 25  1  0  0  0  0
  2 26  1  0  0  0  0
  3  4  1  0  0  0  0
  3 22  1  0  0  0  0
  3 27  1  6  0  0  0
  3  2  1  0  0  0  0
  4  5  1  0  0  0  0
  5 18  1  0  0  0  0
  5 28  1  6  0  0  0
  5  6  1  0  0  0  0
  6  7  1  0  0  0  0
  7  8  2  0  0  0  0
  7 11  1  0  0  0  0
  8  9  1  0  0  0  0
  8 29  1  0  0  0  0
  9 10  1  0  0  0  0
  9 30  1  0  0  0  0
 10 11  2  0  0  0  0
 10 17  1  0  0  0  0
 11 12  1  0  0  0  0
 12 13  1  0  0  0  0
 12 14  2  0  0  0  0
 14 15  1  0  0  0  0
 14 16  1  0  0  0  0
 16 17  2  0  0  0  0
 16 31  1  0  0  0  0
 17 32  1  0  0  0  0
 18 19  1  0  0  0  0
 18 20  1  0  0  0  0
 18 33  1  6  0  0  0
 19 34  1  0  0  0  0
 20 21  1  0  0  0  0
 20 22  1  0  0  0  0
 20 35  1  6  0  0  0
 21 36  1  0  0  0  0
 22 23  1  0  0  0  0
 22 37  1  1  0  0  0
 23 38  1  0  0  0  0
M  END
>  <DRUGBANK_ID>
DB04806

>  <COMMON_NAME>
(5-BROMO-4-CHLORO-3-INDOLYL)-A-D-MANNOSE

$$$$
