
 OpenBabel10282417103D

 84 89  0  0  0  0  0  0  0  0999 V2000
    4.3841   -0.9695   -0.0371 C   0  0  1  0  0  0  0  0  0  0  0  0
    3.3573   -1.9237    0.2673 C   0  0  2  0  0  0  0  0  0  0  0  0
    1.9629   -1.3723    0.3396 C   0  0  0  0  0  0  0  0  0  0  0  0
    3.6863    0.5489   -0.0778 C   0  0  0  0  0  0  0  0  0  0  0  0
    2.4373    0.7532   -0.8222 N   0  0  3  0  0  0  0  0  0  0  0  0
    1.6050   -0.4355   -0.8194 C   0  0  1  0  0  0  0  0  0  0  0  0
    1.6560    2.0223   -0.7733 C   0  0  0  0  0  0  0  0  0  0  0  0
    0.2878    2.1465    0.0242 C   0  0  0  0  0  0  0  0  0  0  0  0
    5.2608   -2.3056   -1.0017 C   0  0  0  0  0  0  0  0  0  0  0  0
    0.1374   -0.2184   -0.6615 C   0  0  0  0  0  0  0  0  0  0  0  0
   -0.5162    0.9360   -0.2945 C   0  0  0  0  0  0  0  0  0  0  0  0
   -0.7523   -1.2583   -0.6167 N   0  0  0  0  0  0  0  0  0  0  0  0
   -1.9835   -0.7888   -0.2559 C   0  0  0  0  0  0  0  0  0  0  0  0
   -1.8700    0.5874   -0.0587 C   0  0  0  0  0  0  0  0  0  0  0  0
   -3.1738   -1.4917   -0.0984 C   0  0  0  0  0  0  0  0  0  0  0  0
   -3.0075    1.2958    0.3496 C   0  0  0  0  0  0  0  0  0  0  0  0
   -4.2323    0.6232    0.4447 C   0  0  0  0  0  0  0  0  0  0  0  0
    1.7857   -0.9134   -1.7890 H   0  0  0  0  0  0  0  0  0  0  0  0
    3.1789   -2.3280   -0.7363 H   0  0  0  0  0  0  0  0  0  0  0  0
    4.9033   -0.7372    0.9013 H   0  0  0  0  0  0  0  0  0  0  0  0
    4.0770   -2.9329    1.3229 C   0  0  2  0  0  0  0  0  0  0  0  0
    2.3783   -4.3297    0.1823 O   0  0  0  0  0  0  0  0  0  0  0  0
    2.7902   -3.7797    1.2079 C   0  0  0  0  0  0  0  0  0  0  0  0
    2.0385   -3.4366    2.2980 O   0  0  0  0  0  0  0  0  0  0  0  0
    5.8364   -2.5703    1.2953 C   0  0  1  0  0  0  0  0  0  0  0  0
    6.8746   -3.3956    1.8199 O   0  0  0  0  0  0  0  0  0  0  0  0
   -4.3147   -0.7539    0.2293 C   0  0  0  0  0  0  0  0  0  0  0  0
   -5.5666   -1.3077    0.3357 O   0  0  0  0  0  0  0  0  0  0  0  0
    6.4613   -2.1589   -0.1387 C   0  0  2  0  0  0  0  0  0  0  0  0
   -5.5530   -2.7201    0.5224 C   0  0  0  0  0  0  0  0  0  0  0  0
    0.6089   -3.3167    2.1745 C   0  0  0  0  0  0  0  0  0  0  0  0
    6.5722   -4.1668    2.9414 C   0  0  0  0  0  0  0  0  0  0  0  0
    7.7406   -2.3746   -3.0569 C   0  0  0  0  0  0  0  0  0  0  0  0
    8.8904   -2.7355   -3.7527 C   0  0  0  0  0  0  0  0  0  0  0  0
    7.6119   -1.0522   -2.6275 C   0  0  0  0  0  0  0  0  0  0  0  0
    8.5646   -0.0909   -2.8601 C   0  0  0  0  0  0  0  0  0  0  0  0
    9.8716   -1.7483   -4.0235 C   0  0  0  0  0  0  0  0  0  0  0  0
    9.6962   -0.4230   -3.5619 C   0  0  0  0  0  0  0  0  0  0  0  0
    6.8041   -0.7927   -0.4605 O   0  0  0  0  0  0  0  0  0  0  0  0
    5.8060    0.3613   -2.2148 O   0  0  0  0  0  0  0  0  0  0  0  0
    6.5538   -0.4754   -1.7995 C   0  0  0  0  0  0  0  0  0  0  0  0
    9.1261   -4.0086   -4.1893 O   0  0  0  0  0  0  0  0  0  0  0  0
    8.1912   -5.0419   -3.9389 C   0  0  0  0  0  0  0  0  0  0  0  0
   11.0232   -1.9644   -4.7273 O   0  0  0  0  0  0  0  0  0  0  0  0
   11.3045   -3.2357   -5.2685 C   0  0  0  0  0  0  0  0  0  0  0  0
   10.5067    0.6695   -3.6958 O   0  0  0  0  0  0  0  0  0  0  0  0
   11.6808    0.4951   -4.4579 C   0  0  0  0  0  0  0  0  0  0  0  0
    1.3386   -2.2301    0.1105 H   0  0  0  0  0  0  0  0  0  0  0  0
    1.6790   -0.9629    1.3098 H   0  0  0  0  0  0  0  0  0  0  0  0
    4.4451    1.3490   -0.1331 H   0  0  0  0  0  0  0  0  0  0  0  0
    3.3441    0.7179    0.9694 H   0  0  0  0  0  0  0  0  0  0  0  0
    2.2659    2.9226   -0.6490 H   0  0  0  0  0  0  0  0  0  0  0  0
    1.3230    2.1064   -1.8244 H   0  0  0  0  0  0  0  0  0  0  0  0
   -0.0808    3.1723   -0.1288 H   0  0  0  0  0  0  0  0  0  0  0  0
    0.2498    2.1104    1.1196 H   0  0  0  0  0  0  0  0  0  0  0  0
    5.6401   -3.3829   -0.8402 H   0  0  0  0  0  0  0  0  0  0  0  0
    4.5080   -3.1258   -1.1466 H   0  0  0  0  0  0  0  0  0  0  0  0
   -0.5216   -2.2398   -0.7238 H   0  0  0  0  0  0  0  0  0  0  0  0
   -3.1881   -2.5580   -0.2830 H   0  0  0  0  0  0  0  0  0  0  0  0
   -2.9361    2.3599    0.5372 H   0  0  0  0  0  0  0  0  0  0  0  0
   -5.1248    1.1937    0.6861 H   0  0  0  0  0  0  0  0  0  0  0  0
    4.4523   -3.9753    1.2552 H   0  0  0  0  0  0  0  0  0  0  0  0
    5.9089   -1.7255    1.9741 H   0  0  0  0  0  0  0  0  0  0  0  0
    7.3638   -2.7641   -0.3808 H   0  0  0  0  0  0  0  0  0  0  0  0
   -5.1284   -3.2346   -0.3468 H   0  0  0  0  0  0  0  0  0  0  0  0
   -5.0016   -2.9693    1.4365 H   0  0  0  0  0  0  0  0  0  0  0  0
   -6.5793   -3.0753    0.6276 H   0  0  0  0  0  0  0  0  0  0  0  0
    0.3200   -2.2563    2.1356 H   0  0  0  0  0  0  0  0  0  0  0  0
    0.1962   -3.8216    1.2964 H   0  0  0  0  0  0  0  0  0  0  0  0
    0.1825   -3.6967    3.0964 H   0  0  0  0  0  0  0  0  0  0  0  0
    5.7674   -3.7366    3.5371 H   0  0  0  0  0  0  0  0  0  0  0  0
    6.3090   -5.1382    2.5315 H   0  0  0  0  0  0  0  0  0  0  0  0
    7.4725   -4.2647    3.5579 H   0  0  0  0  0  0  0  0  0  0  0  0
    6.9816   -3.1147   -2.8339 H   0  0  0  0  0  0  0  0  0  0  0  0
    8.4130    0.9136   -2.4669 H   0  0  0  0  0  0  0  0  0  0  0  0
    8.1107   -5.2374   -2.8662 H   0  0  0  0  0  0  0  0  0  0  0  0
    7.2205   -4.8121   -4.3860 H   0  0  0  0  0  0  0  0  0  0  0  0
    8.5725   -5.9496   -4.4189 H   0  0  0  0  0  0  0  0  0  0  0  0
   11.4455   -3.9662   -4.4670 H   0  0  0  0  0  0  0  0  0  0  0  0
   10.5391   -3.5312   -5.9927 H   0  0  0  0  0  0  0  0  0  0  0  0
   12.2495   -3.1582   -5.8085 H   0  0  0  0  0  0  0  0  0  0  0  0
   12.3459   -0.2178   -3.9617 H   0  0  0  0  0  0  0  0  0  0  0  0
   11.4301    0.2057   -5.4835 H   0  0  0  0  0  0  0  0  0  0  0  0
   12.2017    1.4511   -4.5060 H   0  0  0  0  0  0  0  0  0  0  0  0
  1  4  1  0  0  0  0
  1 20  1  6  0  0  0
  2  1  1  0  0  0  0
  2 21  1  0  0  0  0
  2 19  1  6  0  0  0
  3  2  1  0  0  0  0
  3 48  1  0  0  0  0
  3 49  1  0  0  0  0
  4 50  1  0  0  0  0
  4 51  1  0  0  0  0
  5  4  1  0  0  0  0
  5  7  1  0  0  0  0
  5  6  1  0  0  0  0
  6  3  1  0  0  0  0
  6 18  1  1  0  0  0
  7  8  1  0  0  0  0
  7 52  1  0  0  0  0
  7 53  1  0  0  0  0
  8 11  1  0  0  0  0
  8 54  1  0  0  0  0
  8 55  1  0  0  0  0
  9  1  1  0  0  0  0
  9 56  1  0  0  0  0
  9 57  1  0  0  0  0
 10  6  1  0  0  0  0
 11 10  2  0  0  0  0
 12 10  1  0  0  0  0
 12 13  1  0  0  0  0
 12 58  1  0  0  0  0
 13 14  2  0  0  0  0
 14 11  1  0  0  0  0
 14 16  1  0  0  0  0
 15 13  1  0  0  0  0
 15 59  1  0  0  0  0
 16 17  2  0  0  0  0
 16 60  1  0  0  0  0
 17 61  1  0  0  0  0
 21 25  1  0  0  0  0
 21 62  1  6  0  0  0
 21 23  1  0  0  0  0
 23 22  2  0  0  0  0
 23 24  1  0  0  0  0
 24 31  1  0  0  0  0
 25 29  1  0  0  0  0
 25 26  1  0  0  0  0
 25 63  1  1  0  0  0
 26 32  1  0  0  0  0
 27 15  2  0  0  0  0
 27 17  1  0  0  0  0
 27 28  1  0  0  0  0
 28 30  1  0  0  0  0
 29  9  1  0  0  0  0
 29 64  1  6  0  0  0
 29 39  1  0  0  0  0
 30 65  1  0  0  0  0
 30 66  1  0  0  0  0
 30 67  1  0  0  0  0
 31 68  1  0  0  0  0
 31 69  1  0  0  0  0
 31 70  1  0  0  0  0
 32 71  1  0  0  0  0
 32 72  1  0  0  0  0
 32 73  1  0  0  0  0
 33 34  2  0  0  0  0
 33 74  1  0  0  0  0
 34 42  1  0  0  0  0
 34 37  1  0  0  0  0
 35 33  1  0  0  0  0
 36 35  2  0  0  0  0
 36 38  1  0  0  0  0
 36 75  1  0  0  0  0
 37 44  1  0  0  0  0
 37 38  2  0  0  0  0
 38 46  1  0  0  0  0
 39 41  1  0  0  0  0
 41 35  1  0  0  0  0
 41 40  2  0  0  0  0
 42 43  1  0  0  0  0
 43 76  1  0  0  0  0
 43 77  1  0  0  0  0
 43 78  1  0  0  0  0
 44 45  1  0  0  0  0
 45 79  1  0  0  0  0
 45 80  1  0  0  0  0
 45 81  1  0  0  0  0
 46 47  1  0  0  0  0
 47 82  1  0  0  0  0
 47 83  1  0  0  0  0
 47 84  1  0  0  0  0
M  END
>  <DRUGBANK_ID>
DB00206

>  <SECONDARY_ACCESSION_NUMBERS>
APRD00472

>  <COMMON_NAME>
Reserpine

>  <CAS_NUMBER>
50-55-5

>  <UNII>
8B1QWR724A

>  <SYNONYMS>
(âˆ’)-reserpine; (3beta,16beta,17alpha,18beta,20alpha)-11,17-Dimethoxy-18-[(3,4,5-trimethoxybenzoyl)oxy]yohimban-16-carboxylic acid methyl ester; 3,4,5-trimethoxybenzoyl methyl reserpate; Reserpin; Reserpine

$$$$
