CRV
 OpenBabel10282417163D

 59 61  0  0  0  0  0  0  0  0999 V2000
    2.1064   -0.2613    4.7208 C   0  0  0  0  0  0  0  0  0  0  0  0
    1.6530    0.5871    3.5027 C   0  0  1  0  0  0  0  0  0  0  0  0
    0.9307    1.8958    3.8096 N   0  0  0  0  0  0  0  0  0  0  0  0
    2.8690    0.7925    2.5944 C   0  0  0  0  0  0  0  0  0  0  0  0
    3.0681    0.3510    5.4421 F   0  0  0  0  0  0  0  0  0  0  0  0
    2.5756   -1.4734    4.3335 F   0  0  0  0  0  0  0  0  0  0  0  0
    1.0563   -0.4991    5.5467 F   0  0  0  0  0  0  0  0  0  0  0  0
    0.3613    2.6626    2.6171 C   0  0  2  0  0  0  0  0  0  0  0  0
    0.5586    1.9118    1.2719 C   0  0  0  0  0  0  0  0  0  0  0  0
    0.7925    4.1470    2.7259 C   0  0  0  0  0  0  0  0  0  0  0  0
    0.1710    5.3183    1.4934 S   0  0  0  0  0  0  0  0  0  0  0  0
   -1.5915    5.1236    1.4842 C   0  0  0  0  0  0  0  0  0  0  0  0
    1.0869    2.6164    0.2414 N   0  0  0  0  0  0  0  0  0  0  0  0
    0.2317    0.7275    1.1792 O   0  0  0  0  0  0  0  0  0  0  0  0
    1.6593    2.1744   -0.9889 C   0  0  0  0  0  0  0  0  0  0  0  0
    2.5993    4.4550   -1.2295 N   0  0  0  0  0  0  0  0  0  0  0  0
    0.7661    1.8004   -2.1460 C   0  0  0  0  0  0  0  0  0  0  0  0
    1.5021    0.7267   -1.4007 C   0  0  0  0  0  0  0  0  0  0  0  0
    3.4580    2.0572    2.4775 C   0  0  0  0  0  0  0  0  0  0  0  0
    4.4494    2.3257    1.5482 C   0  0  0  0  0  0  0  0  0  0  0  0
    4.9295    1.2895    0.7624 C   0  0  0  0  0  0  0  0  0  0  0  0
    4.4248    0.0037    0.9044 C   0  0  0  0  0  0  0  0  0  0  0  0
    3.3873   -0.2460    1.8086 C   0  0  0  0  0  0  0  0  0  0  0  0
    5.8374    1.5243   -0.2279 O   0  0  0  0  0  0  0  0  0  0  0  0
   -2.0714    5.6752    2.7675 C   0  0  0  0  0  0  0  0  0  0  0  0
   -2.3499    4.8272    3.8395 C   0  0  0  0  0  0  0  0  0  0  0  0
   -2.5159    5.3710    5.1020 C   0  0  0  0  0  0  0  0  0  0  0  0
   -2.3921    6.7491    5.2862 C   0  0  0  0  0  0  0  0  0  0  0  0
   -2.1133    7.5913    4.2129 C   0  0  0  0  0  0  0  0  0  0  0  0
   -2.0174    7.0626    2.9417 C   0  0  0  0  0  0  0  0  0  0  0  0
    0.5971    6.6492    1.9132 O   0  0  0  0  0  0  0  0  0  0  0  0
    0.5128    4.9391    0.1553 O   0  0  0  0  0  0  0  0  0  0  0  0
    2.8948    3.0347   -1.3124 C   0  0  0  0  0  0  0  0  0  0  0  0
    0.9109   -0.0726    3.0400 H   0  0  0  0  0  0  0  0  0  0  0  0
   -0.7234    2.6217    2.7489 H   0  0  0  0  0  0  0  0  0  0  0  0
    0.1695    1.6633    4.4546 H   0  0  0  0  0  0  0  0  0  0  0  0
    0.4799    4.5405    3.7029 H   0  0  0  0  0  0  0  0  0  0  0  0
    1.8721    4.3036    2.7043 H   0  0  0  0  0  0  0  0  0  0  0  0
   -1.9655    5.6640    0.6103 H   0  0  0  0  0  0  0  0  0  0  0  0
   -1.8098    4.0604    1.3426 H   0  0  0  0  0  0  0  0  0  0  0  0
    1.2859    3.6116    0.3186 H   0  0  0  0  0  0  0  0  0  0  0  0
    3.3975    5.0765   -1.1960 H   0  0  0  0  0  0  0  0  0  0  0  0
    1.9131    4.7732   -1.9071 H   0  0  0  0  0  0  0  0  0  0  0  0
   -0.3028    1.9090   -1.9936 H   0  0  0  0  0  0  0  0  0  0  0  0
    1.0886    1.9924   -3.1600 H   0  0  0  0  0  0  0  0  0  0  0  0
    2.3481    0.2117   -1.8264 H   0  0  0  0  0  0  0  0  0  0  0  0
    0.8870    0.0580   -0.8062 H   0  0  0  0  0  0  0  0  0  0  0  0
    3.0846    2.8796    3.0655 H   0  0  0  0  0  0  0  0  0  0  0  0
    4.7250    3.3638    1.3776 H   0  0  0  0  0  0  0  0  0  0  0  0
    4.8051   -0.7949    0.2764 H   0  0  0  0  0  0  0  0  0  0  0  0
    2.9703   -1.2498    1.8655 H   0  0  0  0  0  0  0  0  0  0  0  0
    6.0494    2.4729   -0.2339 H   0  0  0  0  0  0  0  0  0  0  0  0
   -2.3891    3.7486    3.7095 H   0  0  0  0  0  0  0  0  0  0  0  0
   -2.7080    4.7186    5.9480 H   0  0  0  0  0  0  0  0  0  0  0  0
   -2.5121    7.1744    6.2761 H   0  0  0  0  0  0  0  0  0  0  0  0
   -1.9322    8.6511    4.3621 H   0  0  0  0  0  0  0  0  0  0  0  0
   -1.7745    7.7140    2.0999 H   0  0  0  0  0  0  0  0  0  0  0  0
    3.5616    2.9155   -0.4820 H   0  0  0  0  0  0  0  0  0  0  0  0
    3.4495    2.7645   -2.2079 H   0  0  0  0  0  0  0  0  0  0  0  0
  1  2  1  0  0  0  0
  1  5  1  0  0  0  0
  1  6  1  0  0  0  0
  1  7  1  0  0  0  0
  2  3  1  0  0  0  0
  2  4  1  0  0  0  0
  2 34  1  6  0  0  0
  3 36  1  0  0  0  0
  4 19  2  0  0  0  0
  4 23  1  0  0  0  0
  8 10  1  0  0  0  0
  8 35  1  1  0  0  0
  8  9  1  0  0  0  0
  8  3  1  0  0  0  0
  9 13  1  0  0  0  0
  9 14  2  0  0  0  0
 10 11  1  0  0  0  0
 10 37  1  0  0  0  0
 10 38  1  0  0  0  0
 11 12  1  0  0  0  0
 11 31  2  0  0  0  0
 11 32  2  0  0  0  0
 12 25  1  0  0  0  0
 12 39  1  0  0  0  0
 12 40  1  0  0  0  0
 13 15  1  0  0  0  0
 13 41  1  0  0  0  0
 15 17  1  0  0  0  0
 15 18  1  0  0  0  0
 15 33  1  0  0  0  0
 16 33  1  0  0  0  0
 16 42  1  0  0  0  0
 16 43  1  0  0  0  0
 17 18  1  0  0  0  0
 17 44  1  0  0  0  0
 17 45  1  0  0  0  0
 18 46  1  0  0  0  0
 18 47  1  0  0  0  0
 19 20  1  0  0  0  0
 19 48  1  0  0  0  0
 20 21  2  0  0  0  0
 20 49  1  0  0  0  0
 21 22  1  0  0  0  0
 21 24  1  0  0  0  0
 22 23  2  0  0  0  0
 22 50  1  0  0  0  0
 23 51  1  0  0  0  0
 24 52  1  0  0  0  0
 25 26  1  0  0  0  0
 25 30  2  0  0  0  0
 26 27  2  0  0  0  0
 26 53  1  0  0  0  0
 27 28  1  0  0  0  0
 27 54  1  0  0  0  0
 28 29  2  0  0  0  0
 28 55  1  0  0  0  0
 29 30  1  0  0  0  0
 29 56  1  0  0  0  0
 30 57  1  0  0  0  0
 33 58  1  0  0  0  0
 33 59  1  0  0  0  0
M  END
>  <DRUGBANK_ID>
DB07589

>  <COMMON_NAME>
N-[1-(AMINOMETHYL)CYCLOPROPYL]-3-(BENZYLSULFONYL)-N~2~-[(1S)-2,2,2-TRIFLUORO-1-(4-HYDROXYPHENYL)ETHYL]-L-ALANINAMIDE

$$$$
