
 OpenBabel10282417173D

 52 53  0  0  0  0  0  0  0  0999 V2000
    1.0831   -1.1102   -0.1349 C   0  0  0  0  0  0  0  0  0  0  0  0
    2.2785   -1.9947   -0.0115 C   0  0  0  0  0  0  0  0  0  0  0  0
    1.1624    0.2667   -0.1188 C   0  0  0  0  0  0  0  0  0  0  0  0
   -0.1839   -1.6657   -0.0875 C   0  0  0  0  0  0  0  0  0  0  0  0
    2.1527   -2.8487    1.1875 N   0  0  0  0  0  0  0  0  0  0  0  0
    0.0630    1.0256   -0.0579 N   0  0  0  0  0  0  0  0  0  0  0  0
    2.3829    0.9319   -0.2726 N   0  0  0  0  0  0  0  0  0  0  0  0
   -1.3039   -0.9443   -0.0300 N   0  0  0  0  0  0  0  0  0  0  0  0
    2.2257   -4.2905    1.0502 C   0  0  0  0  0  0  0  0  0  0  0  0
    1.9893   -2.0410    2.3447 C   0  0  0  0  0  0  0  0  0  0  0  0
   -1.1267    0.3865   -0.0111 C   0  0  0  0  0  0  0  0  0  0  0  0
    2.3224   -5.1932    2.0758 C   0  0  0  0  0  0  0  0  0  0  0  0
    2.3309   -4.7123   -0.4027 C   0  0  0  0  0  0  0  0  0  0  0  0
    2.1804   -0.8125    2.4101 O   0  0  0  0  0  0  0  0  0  0  0  0
   -2.3589    1.2262    0.0105 C   0  0  0  0  0  0  0  0  0  0  0  0
    2.4326   -7.0023    2.0072 S   0  0  0  0  0  0  0  0  0  0  0  0
    2.4866   -4.7191    3.5187 C   0  0  0  0  0  0  0  0  0  0  0  0
    1.6970   -7.6998    0.2163 S   0  0  0  0  0  0  0  0  0  0  0  0
    3.8113   -3.9553    3.8212 C   0  0  0  0  0  0  0  0  0  0  0  0
    2.2528   -9.4166   -0.0777 C   0  0  0  0  0  0  0  0  0  0  0  0
    4.3016   -2.9757    2.9120 O   0  0  0  0  0  0  0  0  0  0  0  0
    3.5904   -9.8951    0.4695 C   0  0  3  0  0  0  0  0  0  0  0  0
    4.8124   -9.2162   -0.1303 C   0  0  0  0  0  0  0  0  0  0  0  0
    3.7211  -11.3042    0.1689 O   0  0  0  0  0  0  0  0  0  0  0  0
    5.8528  -10.3086   -0.0855 C   0  0  0  0  0  0  0  0  0  0  0  0
    5.0394  -11.5591   -0.3276 C   0  0  0  0  0  0  0  0  0  0  0  0
    2.3436   -2.5294   -0.9556 H   0  0  0  0  0  0  0  0  0  0  0  0
    3.2318   -1.4657    0.0851 H   0  0  0  0  0  0  0  0  0  0  0  0
   -0.3302   -2.7426   -0.0422 H   0  0  0  0  0  0  0  0  0  0  0  0
    2.2354    1.9082   -0.0308 H   0  0  0  0  0  0  0  0  0  0  0  0
    3.1428    0.5395    0.2724 H   0  0  0  0  0  0  0  0  0  0  0  0
    1.7063   -2.5325    3.2567 H   0  0  0  0  0  0  0  0  0  0  0  0
    1.4196   -4.4503   -0.9515 H   0  0  0  0  0  0  0  0  0  0  0  0
    3.2266   -4.2867   -0.8664 H   0  0  0  0  0  0  0  0  0  0  0  0
    2.5184   -5.7430   -0.5956 H   0  0  0  0  0  0  0  0  0  0  0  0
   -2.3661    1.8528    0.9052 H   0  0  0  0  0  0  0  0  0  0  0  0
   -2.3795    1.8576   -0.8812 H   0  0  0  0  0  0  0  0  0  0  0  0
   -3.2561    0.5988    0.0133 H   0  0  0  0  0  0  0  0  0  0  0  0
    1.5646   -4.2007    3.8059 H   0  0  0  0  0  0  0  0  0  0  0  0
    2.4541   -5.5468    4.2399 H   0  0  0  0  0  0  0  0  0  0  0  0
    3.6939   -3.4265    4.7721 H   0  0  0  0  0  0  0  0  0  0  0  0
    4.6191   -4.6780    3.9184 H   0  0  0  0  0  0  0  0  0  0  0  0
    1.4400  -10.0368    0.3097 H   0  0  0  0  0  0  0  0  0  0  0  0
    2.2396   -9.5939   -1.1647 H   0  0  0  0  0  0  0  0  0  0  0  0
    4.0525   -3.1932    1.9983 H   0  0  0  0  0  0  0  0  0  0  0  0
    3.5993   -9.8172    1.5608 H   0  0  0  0  0  0  0  0  0  0  0  0
    4.6390   -8.9155   -1.1703 H   0  0  0  0  0  0  0  0  0  0  0  0
    5.1141   -8.3279    0.4314 H   0  0  0  0  0  0  0  0  0  0  0  0
    6.6542  -10.1786   -0.8183 H   0  0  0  0  0  0  0  0  0  0  0  0
    6.3062  -10.3460    0.9113 H   0  0  0  0  0  0  0  0  0  0  0  0
    4.9575  -11.7856   -1.3961 H   0  0  0  0  0  0  0  0  0  0  0  0
    5.4566  -12.4330    0.1813 H   0  0  0  0  0  0  0  0  0  0  0  0
  1  2  1  0  0  0  0
  1  3  2  0  0  0  0
  1  4  1  0  0  0  0
  2  5  1  0  0  0  0
  2 27  1  0  0  0  0
  2 28  1  0  0  0  0
  3  6  1  0  0  0  0
  3  7  1  0  0  0  0
  4  8  2  0  0  0  0
  4 29  1  0  0  0  0
  5  9  1  0  0  0  0
  5 10  1  0  0  0  0
  6 11  2  0  0  0  0
  7 30  1  0  0  0  0
  7 31  1  0  0  0  0
  8 11  1  0  0  0  0
  9 12  2  0  0  0  0
  9 13  1  0  0  0  0
 10 14  2  0  0  0  0
 10 32  1  0  0  0  0
 11 15  1  0  0  0  0
 12 16  1  0  0  0  0
 12 17  1  0  0  0  0
 13 33  1  0  0  0  0
 13 34  1  0  0  0  0
 13 35  1  0  0  0  0
 15 36  1  0  0  0  0
 15 37  1  0  0  0  0
 15 38  1  0  0  0  0
 16 18  1  0  0  0  0
 17 19  1  0  0  0  0
 17 39  1  0  0  0  0
 17 40  1  0  0  0  0
 18 20  1  0  0  0  0
 19 21  1  0  0  0  0
 19 41  1  0  0  0  0
 19 42  1  0  0  0  0
 20 22  1  0  0  0  0
 20 43  1  0  0  0  0
 20 44  1  0  0  0  0
 21 45  1  0  0  0  0
 22 23  1  0  0  0  0
 22 24  1  0  0  0  0
 22 46  1  0  0  0  0
 23 25  1  0  0  0  0
 23 47  1  0  0  0  0
 23 48  1  0  0  0  0
 24 26  1  0  0  0  0
 25 26  1  0  0  0  0
 25 49  1  0  0  0  0
 25 50  1  0  0  0  0
 26 51  1  0  0  0  0
 26 52  1  0  0  0  0
M  END
>  <DRUGBANK_ID>
DB08966

>  <COMMON_NAME>
Fursultiamine

>  <CAS_NUMBER>
804-30-8

>  <UNII>
05J61265PX

>  <SYNONYMS>
Fursultiamina; Fursultiamine; Fursultiaminum; Thiamin tetrahydrofurfuryl disulfide; Thiamine tetrahydrofurfuryl disulfide; TTFD

$$$$
