
 OpenBabel10282417133D

 52 55  0  0  0  0  0  0  0  0999 V2000
    2.2932    0.0359    0.0185 O   0  0  0  0  0  0  0  0  0  0  0  0
    0.9419    0.0319   -0.1665 C   0  0  0  0  0  0  0  0  0  0  0  0
    0.2395   -1.1479   -0.3807 C   0  0  0  0  0  0  0  0  0  0  0  0
   -1.1593   -1.1103   -0.4677 C   0  0  0  0  0  0  0  0  0  0  0  0
   -1.8493    0.1025   -0.2846 C   0  0  0  0  0  0  0  0  0  0  0  0
   -3.3407    0.1054   -0.0510 C   0  0  0  0  0  0  0  0  0  0  0  0
   -3.7888    0.8060    1.2317 C   0  0  0  0  0  0  0  0  0  0  0  0
   -4.5243    1.8078    1.1707 O   0  0  0  0  0  0  0  0  0  0  0  0
   -3.5344    0.2905    2.4729 N   0  0  0  0  0  0  0  0  0  0  0  0
   -2.7793   -0.8444    2.7861 C   0  0  0  0  0  0  0  0  0  0  0  0
   -1.5901   -0.9851    2.2125 N   0  0  0  0  0  0  0  0  0  0  0  0
   -0.9282   -2.1476    2.3937 C   0  0  0  0  0  0  0  0  0  0  0  0
   -1.3930   -3.1807    3.1577 C   0  0  0  0  0  0  0  0  0  0  0  0
   -2.5194   -3.0021    3.8617 N   0  0  0  0  0  0  0  0  0  0  0  0
   -3.2078   -1.8183    3.6781 C   0  0  0  0  0  0  0  0  0  0  0  0
   -4.4812   -1.6647    4.4549 C   0  0  0  0  0  0  0  0  0  0  0  0
   -5.4854   -2.7480    4.1711 C   0  0  0  0  0  0  0  0  0  0  0  0
   -5.1650   -4.0847    4.4547 C   0  0  0  0  0  0  0  0  0  0  0  0
   -6.0930   -5.0953    4.2653 C   0  0  0  0  0  0  0  0  0  0  0  0
   -7.3745   -4.7706    3.8388 C   0  0  0  0  0  0  0  0  0  0  0  0
   -7.7117   -3.4435    3.5650 C   0  0  0  0  0  0  0  0  0  0  0  0
   -6.7558   -2.4371    3.6800 C   0  0  0  0  0  0  0  0  0  0  0  0
   -0.6524   -4.4358    3.2366 C   0  0  0  0  0  0  0  0  0  0  0  0
   -1.2275   -5.6749    2.9104 C   0  0  0  0  0  0  0  0  0  0  0  0
   -0.4637   -6.8493    2.9611 C   0  0  0  0  0  0  0  0  0  0  0  0
    0.8782   -6.7802    3.3283 C   0  0  0  0  0  0  0  0  0  0  0  0
    1.6663   -7.8884    3.4113 O   0  0  0  0  0  0  0  0  0  0  0  0
    1.4727   -5.5641    3.6261 C   0  0  0  0  0  0  0  0  0  0  0  0
    0.7140   -4.4005    3.5706 C   0  0  0  0  0  0  0  0  0  0  0  0
   -1.1171    1.2874   -0.1475 C   0  0  0  0  0  0  0  0  0  0  0  0
    0.2756    1.2480   -0.0840 C   0  0  0  0  0  0  0  0  0  0  0  0
    2.6242   -0.8731   -0.0556 H   0  0  0  0  0  0  0  0  0  0  0  0
    0.7408   -2.1114   -0.3385 H   0  0  0  0  0  0  0  0  0  0  0  0
   -1.7132   -2.0502   -0.4512 H   0  0  0  0  0  0  0  0  0  0  0  0
   -3.8065    0.6194   -0.9019 H   0  0  0  0  0  0  0  0  0  0  0  0
   -3.7612   -0.9087   -0.0419 H   0  0  0  0  0  0  0  0  0  0  0  0
   -4.0497    0.7520    3.2070 H   0  0  0  0  0  0  0  0  0  0  0  0
   -0.0023   -2.2592    1.8492 H   0  0  0  0  0  0  0  0  0  0  0  0
   -4.2283   -1.6746    5.5210 H   0  0  0  0  0  0  0  0  0  0  0  0
   -4.9465   -0.6893    4.2813 H   0  0  0  0  0  0  0  0  0  0  0  0
   -4.1770   -4.3499    4.8262 H   0  0  0  0  0  0  0  0  0  0  0  0
   -5.8126   -6.1214    4.4807 H   0  0  0  0  0  0  0  0  0  0  0  0
   -8.1144   -5.5556    3.7245 H   0  0  0  0  0  0  0  0  0  0  0  0
   -8.7279   -3.1912    3.2772 H   0  0  0  0  0  0  0  0  0  0  0  0
   -7.0176   -1.4162    3.4097 H   0  0  0  0  0  0  0  0  0  0  0  0
   -2.2697   -5.7269    2.5965 H   0  0  0  0  0  0  0  0  0  0  0  0
   -0.9312   -7.7984    2.7168 H   0  0  0  0  0  0  0  0  0  0  0  0
    1.1372   -8.6709    3.1901 H   0  0  0  0  0  0  0  0  0  0  0  0
    2.5194   -5.5171    3.9101 H   0  0  0  0  0  0  0  0  0  0  0  0
    1.1974   -3.4514    3.7967 H   0  0  0  0  0  0  0  0  0  0  0  0
   -1.6299    2.2350    0.0000 H   0  0  0  0  0  0  0  0  0  0  0  0
    0.8348    2.1621    0.0843 H   0  0  0  0  0  0  0  0  0  0  0  0
  1  2  1  0  0  0  0
  1 32  1  0  0  0  0
  2  3  2  0  0  0  0
  2 31  1  0  0  0  0
  3  4  1  0  0  0  0
  3 33  1  0  0  0  0
  4  5  2  0  0  0  0
  4 34  1  0  0  0  0
  5  6  1  0  0  0  0
  5 30  1  0  0  0  0
  6  7  1  0  0  0  0
  6 35  1  0  0  0  0
  6 36  1  0  0  0  0
  7  8  2  0  0  0  0
  7  9  1  0  0  0  0
  9 10  1  0  0  0  0
  9 37  1  0  0  0  0
 10 11  2  0  0  0  0
 10 15  1  0  0  0  0
 11 12  1  0  0  0  0
 12 13  2  0  0  0  0
 12 38  1  0  0  0  0
 13 14  1  0  0  0  0
 13 23  1  0  0  0  0
 14 15  2  0  0  0  0
 15 16  1  0  0  0  0
 16 17  1  0  0  0  0
 16 39  1  0  0  0  0
 16 40  1  0  0  0  0
 17 18  2  0  0  0  0
 17 22  1  0  0  0  0
 18 19  1  0  0  0  0
 18 41  1  0  0  0  0
 19 20  2  0  0  0  0
 19 42  1  0  0  0  0
 20 21  1  0  0  0  0
 20 43  1  0  0  0  0
 21 22  2  0  0  0  0
 21 44  1  0  0  0  0
 22 45  1  0  0  0  0
 23 24  2  0  0  0  0
 23 29  1  0  0  0  0
 24 25  1  0  0  0  0
 24 46  1  0  0  0  0
 25 26  2  0  0  0  0
 25 47  1  0  0  0  0
 26 27  1  0  0  0  0
 26 28  1  0  0  0  0
 27 48  1  0  0  0  0
 28 29  2  0  0  0  0
 28 49  1  0  0  0  0
 29 50  1  0  0  0  0
 30 31  2  0  0  0  0
 30 51  1  0  0  0  0
 31 52  1  0  0  0  0
M  END
>  <DRUGBANK_ID>
DB04049

>  <SECONDARY_ACCESSION_NUMBERS>
EXPT00888

>  <COMMON_NAME>
Coelenteramide

>  <UNII>
S5MSB8RF66

$$$$
