SN0
 OpenBabel10282417173D

 30 29  0  0  0  0  0  0  0  0999 V2000
    0.6651    0.1724   -0.1624 C   0  0  2  0  0  0  0  0  0  0  0  0
    0.2185    1.4236   -0.9341 C   0  0  0  0  0  0  0  0  0  0  0  0
   -0.4401    1.1970   -2.0881 O   0  0  0  0  0  0  0  0  0  0  0  0
    0.5476    2.5593   -0.6058 O   0  0  0  0  0  0  0  0  0  0  0  0
    0.2000   -1.3178   -0.8101 C   0  0  0  0  0  0  0  0  0  0  0  0
    0.5240   -2.7873   -0.1385 C   0  0  0  0  0  0  0  0  0  0  0  0
    0.2121   -2.8081    1.3664 C   0  0  0  0  0  0  0  0  0  0  0  0
    0.5075    0.2962    1.3142 N   0  0  0  0  0  0  0  0  0  0  0  0
    1.4497    0.1657    2.3303 C   0  0  0  0  0  0  0  0  0  0  0  0
    1.0022    0.1045    3.4864 O   0  0  0  0  0  0  0  0  0  0  0  0
    3.0373    0.1191    2.1240 C   0  0  0  0  0  0  0  0  0  0  0  0
    3.8163   -1.1217    1.5360 C   0  0  0  0  0  0  0  0  0  0  0  0
    3.2995   -1.2960    0.2204 C   0  0  0  0  0  0  0  0  0  0  0  0
    3.7322   -1.2820   -1.0006 O   0  0  0  0  0  0  0  0  0  0  0  0
    2.1094   -1.4472    0.3946 O   0  0  0  0  0  0  0  0  0  0  0  0
    1.7290    0.3656   -0.3547 H   0  0  0  0  0  0  0  0  0  0  0  0
   -0.5951    0.2593   -2.2931 H   0  0  0  0  0  0  0  0  0  0  0  0
   -0.8842   -1.2991   -0.9082 H   0  0  0  0  0  0  0  0  0  0  0  0
    0.6439   -1.3517   -1.8213 H   0  0  0  0  0  0  0  0  0  0  0  0
    0.0429   -3.6060   -0.6754 H   0  0  0  0  0  0  0  0  0  0  0  0
    1.5756   -3.1281   -0.2919 H   0  0  0  0  0  0  0  0  0  0  0  0
   -0.8579   -2.7025    1.5121 H   0  0  0  0  0  0  0  0  0  0  0  0
    0.6311   -3.6806    1.8749 H   0  0  0  0  0  0  0  0  0  0  0  0
    0.6569   -1.9952    1.9329 H   0  0  0  0  0  0  0  0  0  0  0  0
   -0.4431    0.1932    1.6547 H   0  0  0  0  0  0  0  0  0  0  0  0
    3.2810    1.0113    1.5440 H   0  0  0  0  0  0  0  0  0  0  0  0
    3.4503    0.2328    3.1331 H   0  0  0  0  0  0  0  0  0  0  0  0
    4.8936   -1.0980    1.4765 H   0  0  0  0  0  0  0  0  0  0  0  0
    3.4822   -2.0344    2.0720 H   0  0  0  0  0  0  0  0  0  0  0  0
    4.6794   -1.2608   -1.1721 H   0  0  0  0  0  0  0  0  0  0  0  0
  1  2  1  0  0  0  0
  1  5  1  0  0  0  0
  1  8  1  0  0  0  0
  1 16  1  6  0  0  0
  2  3  1  0  0  0  0
  2  4  2  0  0  0  0
  3 17  1  0  0  0  0
  5  6  1  0  0  0  0
  5 18  1  0  0  0  0
  5 19  1  0  0  0  0
  6  7  1  0  0  0  0
  6 20  1  0  0  0  0
  6 21  1  0  0  0  0
  7 22  1  0  0  0  0
  7 23  1  0  0  0  0
  7 24  1  0  0  0  0
  8  9  1  0  0  0  0
  8 25  1  0  0  0  0
  9 10  2  0  0  0  0
  9 11  1  0  0  0  0
 11 12  1  0  0  0  0
 11 26  1  0  0  0  0
 11 27  1  0  0  0  0
 12 13  1  0  0  0  0
 12 28  1  0  0  0  0
 12 29  1  0  0  0  0
 13 14  1  0  0  0  0
 13 15  2  0  0  0  0
 14 30  1  0  0  0  0
M  END
>  <DRUGBANK_ID>
DB08554

>  <COMMON_NAME>
N-(3-carboxypropanoyl)-L-norvaline

$$$$
