
 OpenBabel10282417133D

 99104  0  0  1  0  0  0  0  0999 V2000
   -0.9843   -2.6706   -5.0466 C   0  0  0  0  0  0  0  0  0  0  0  0
   -1.5376   -1.2575   -3.1307 C   0  0  0  0  0  0  0  0  0  0  0  0
    3.9863   -6.4761   -1.0559 C   0  0  0  0  0  0  0  0  0  0  0  0
    3.0832   -5.2224   -2.9739 C   0  0  0  0  0  0  0  0  0  0  0  0
   -1.2736   -4.6956   -1.1188 C   0  0  0  0  0  0  0  0  0  0  0  0
   -0.4141   -3.1264    0.2970 C   0  0  0  0  0  0  0  0  0  0  0  0
   -0.2819   -7.5574    3.4600 C   0  0  0  0  0  0  0  0  0  0  0  0
    0.6500   -4.9631    3.9618 C   0  0  0  0  0  0  0  0  0  0  0  0
   -0.2086   -8.8309    0.7907 C   0  0  0  0  0  0  0  0  0  0  0  0
   -2.1409   -7.4275    0.0173 C   0  0  0  0  0  0  0  0  0  0  0  0
   -1.5618   -6.3669   -2.8634 C   0  0  0  0  0  0  0  0  0  0  0  0
   -1.7090   -2.4937   -3.8330 C   0  0  0  0  0  0  0  0  0  0  0  0
    3.1259   -6.4688   -2.3857 C   0  0  0  0  0  0  0  0  0  0  0  0
   -1.3191   -4.3429    0.1817 C   0  0  0  0  0  0  0  0  0  0  0  0
    0.9940   -6.4257    3.5598 C   0  0  0  0  0  0  0  0  0  0  0  0
   -0.7914   -7.2193    0.3806 C   0  0  0  0  0  0  0  0  0  0  0  0
   -0.4343   -1.5611   -5.6872 C   0  0  0  0  0  0  0  0  0  0  0  0
   -1.0095   -0.1660   -3.7917 C   0  0  0  0  0  0  0  0  0  0  0  0
    4.1783   -5.2626   -0.2143 C   0  0  0  0  0  0  0  0  0  0  0  0
    3.6537   -4.1310   -2.2329 C   0  0  0  0  0  0  0  0  0  0  0  0
   -0.2731   -4.1471   -2.1644 C   0  0  0  0  0  0  0  0  0  0  0  0
    0.2817   -2.5037   -0.6770 C   0  0  0  0  0  0  0  0  0  0  0  0
   -1.9779   -7.1302    3.4765 C   0  0  0  0  0  0  0  0  0  0  0  0
   -0.9375   -4.5313    4.1307 C   0  0  0  0  0  0  0  0  0  0  0  0
   -0.3441   -9.8369   -0.1382 C   0  0  0  0  0  0  0  0  0  0  0  0
   -2.4947   -8.6565   -0.5104 C   0  0  0  0  0  0  0  0  0  0  0  0
   -0.0260   -6.4644   -1.8268 C   0  0  1  0  0  0  0  0  0  0  0  0
   -0.5353   -0.3010   -5.0971 C   0  0  0  0  0  0  0  0  0  0  0  0
    4.0901   -4.0955   -0.8679 C   0  0  0  0  0  0  0  0  0  0  0  0
    0.3989   -3.0296   -1.8916 C   0  0  0  0  0  0  0  0  0  0  0  0
   -2.2980   -5.5162    3.8251 C   0  0  0  0  0  0  0  0  0  0  0  0
   -1.5706   -9.7430   -0.7641 C   0  0  0  0  0  0  0  0  0  0  0  0
    0.4043   -7.7493   -1.5338 C   0  0  2  0  0  0  0  0  0  0  0  0
    1.1960   -7.6787   -0.1434 C   0  0  1  0  0  0  0  0  0  0  0  0
    2.1711   -6.7821    0.1049 C   0  0  1  0  0  0  0  0  0  0  0  0
   -2.3717   -3.6183   -3.0470 C   0  0  0  0  0  0  0  0  0  0  0  0
    2.1090   -7.6380   -3.0555 C   0  0  0  0  0  0  0  0  0  0  0  0
   -1.2035   -5.8547    1.4314 C   0  0  0  0  0  0  0  0  0  0  0  0
    2.4328   -6.5963    2.7852 C   0  0  0  0  0  0  0  0  0  0  0  0
    0.3034   -5.4249    0.8136 C   0  0  0  0  0  0  0  0  0  0  0  0
    1.6999   -5.4666   -0.3363 C   0  0  1  0  0  0  0  0  0  0  0  0
    0.1117   -1.7794   -6.9189 O   0  0  0  0  0  0  0  0  0  0  0  0
   -1.0735    1.0384   -3.1503 O   0  0  0  0  0  0  0  0  0  0  0  0
    3.9148   -5.1986    1.1581 O   0  0  0  0  0  0  0  0  0  0  0  0
    3.9071   -2.9970   -2.9342 O   0  0  0  0  0  0  0  0  0  0  0  0
    0.1723   -4.7565   -3.4119 O   0  0  0  0  0  0  0  0  0  0  0  0
    0.6599   -1.2721   -0.3388 O   0  0  0  0  0  0  0  0  0  0  0  0
   -2.8482   -7.6626    2.3543 O   0  0  0  0  0  0  0  0  0  0  0  0
   -1.1589   -3.1418    4.1133 O   0  0  0  0  0  0  0  0  0  0  0  0
    0.8222  -10.2877   -0.7804 O   0  0  0  0  0  0  0  0  0  0  0  0
   -3.7426   -8.6128   -1.0403 O   0  0  0  0  0  0  0  0  0  0  0  0
   -0.2513    0.8593   -5.7555 O   0  0  0  0  0  0  0  0  0  0  0  0
    4.3095   -2.9562   -0.1546 O   0  0  0  0  0  0  0  0  0  0  0  0
    0.9038   -2.3067   -2.8847 O   0  0  0  0  0  0  0  0  0  0  0  0
   -3.2751   -4.7951    2.9475 O   0  0  0  0  0  0  0  0  0  0  0  0
   -1.7998  -10.4903   -1.8804 O   0  0  0  0  0  0  0  0  0  0  0  0
   -2.7283   -3.2923   -1.9064 O   0  0  0  0  0  0  0  0  0  0  0  0
    2.4807   -8.1253   -4.1086 O   0  0  0  0  0  0  0  0  0  0  0  0
   -0.9306   -5.8137    2.5545 O   0  0  0  0  0  0  0  0  0  0  0  0
    3.4010   -6.2480    3.4732 O   0  0  0  0  0  0  0  0  0  0  0  0
    0.0610   -4.4662    1.7606 O   0  0  0  0  0  0  0  0  0  0  0  0
   -2.0576   -4.9562   -3.5861 O   0  0  0  0  0  0  0  0  0  0  0  0
    1.0568   -5.6398   -1.5615 O   0  0  0  0  0  0  0  0  0  0  0  0
    0.9616   -8.2574   -2.6482 O   0  0  0  0  0  0  0  0  0  0  0  0
    0.4204   -6.9328    1.4270 O   0  0  0  0  0  0  0  0  0  0  0  0
    2.7123   -7.1297    1.4903 O   0  0  0  0  0  0  0  0  0  0  0  0
    1.5230   -4.9026    0.8070 O   0  0  0  0  0  0  0  0  0  0  0  0
   -0.3280   -6.2387   -0.8882 H   0  0  0  0  0  0  0  0  0  0  0  0
   -0.5937   -8.0851   -1.4995 H   0  0  0  0  0  0  0  0  0  0  0  0
    1.7865   -8.6631   -0.0232 H   0  0  0  0  0  0  0  0  0  0  0  0
    2.4307   -7.4414   -0.7629 H   0  0  0  0  0  0  0  0  0  0  0  0
    2.0700   -4.5248   -0.6500 H   0  0  0  0  0  0  0  0  0  0  0  0
   -0.6521   -3.6397   -5.4388 H   0  0  0  0  0  0  0  0  0  0  0  0
   -1.6413   -1.1744   -2.0328 H   0  0  0  0  0  0  0  0  0  0  0  0
    3.9647   -7.4290   -0.3856 H   0  0  0  0  0  0  0  0  0  0  0  0
    2.6492   -5.1003   -3.9631 H   0  0  0  0  0  0  0  0  0  0  0  0
   -1.8289   -5.6235   -1.1445 H   0  0  0  0  0  0  0  0  0  0  0  0
    0.2690   -2.8488    1.1842 H   0  0  0  0  0  0  0  0  0  0  0  0
    0.0736   -8.3795    2.8027 H   0  0  0  0  0  0  0  0  0  0  0  0
    1.3887   -4.1224    3.7041 H   0  0  0  0  0  0  0  0  0  0  0  0
    0.8916   -8.8106    1.3434 H   0  0  0  0  0  0  0  0  0  0  0  0
   -2.8410   -6.6012    0.0585 H   0  0  0  0  0  0  0  0  0  0  0  0
   -2.5340   -6.5526   -2.3593 H   0  0  0  0  0  0  0  0  0  0  0  0
   -1.4097   -7.2540   -3.4705 H   0  0  0  0  0  0  0  0  0  0  0  0
    0.2690   -0.9415   -7.3761 H   0  0  0  0  0  0  0  0  0  0  0  0
   -0.8963    1.7362   -3.8086 H   0  0  0  0  0  0  0  0  0  0  0  0
    3.8158   -4.4744    1.8263 H   0  0  0  0  0  0  0  0  0  0  0  0
    4.3595   -2.4468   -2.2647 H   0  0  0  0  0  0  0  0  0  0  0  0
   -0.5692   -4.7401   -4.0361 H   0  0  0  0  0  0  0  0  0  0  0  0
    0.5617   -0.8643   -1.2075 H   0  0  0  0  0  0  0  0  0  0  0  0
   -3.3717   -7.0003    1.8291 H   0  0  0  0  0  0  0  0  0  0  0  0
   -2.1206   -3.0831    3.9859 H   0  0  0  0  0  0  0  0  0  0  0  0
    0.7390  -10.7172   -1.6502 H   0  0  0  0  0  0  0  0  0  0  0  0
   -3.8129   -9.4567   -1.5096 H   0  0  0  0  0  0  0  0  0  0  0  0
   -0.0107    0.7008   -6.6776 H   0  0  0  0  0  0  0  0  0  0  0  0
    4.3658   -3.2164    0.7896 H   0  0  0  0  0  0  0  0  0  0  0  0
    0.5628   -2.8260   -3.6282 H   0  0  0  0  0  0  0  0  0  0  0  0
   -3.8401   -5.4055    2.4445 H   0  0  0  0  0  0  0  0  0  0  0  0
   -0.9955  -11.0169   -2.0199 H   0  0  0  0  0  0  0  0  0  0  0  0
  1 73  1  0  0  0  0
  2 74  1  0  0  0  0
  3 75  1  0  0  0  0
  4 76  1  0  0  0  0
  5 77  1  0  0  0  0
  6 78  1  0  0  0  0
  7 79  1  0  0  0  0
  8 80  1  0  0  0  0
  9 81  1  0  0  0  0
 10 82  1  0  0  0  0
 11 83  1  0  0  0  0
 11 84  1  0  0  0  0
 12  1  2  0  0  0  0
 12  2  1  0  0  0  0
 13  3  2  0  0  0  0
 13  4  1  0  0  0  0
 14  5  2  0  0  0  0
 14  6  1  0  0  0  0
 15  7  2  0  0  0  0
 15  8  1  0  0  0  0
 16  9  2  0  0  0  0
 16 10  1  0  0  0  0
 17  1  1  0  0  0  0
 18  2  2  0  0  0  0
 19  3  1  0  0  0  0
 20  4  2  0  0  0  0
 21  5  1  0  0  0  0
 22  6  2  0  0  0  0
 23  7  1  0  0  0  0
 24  8  2  0  0  0  0
 25  9  1  0  0  0  0
 26 10  2  0  0  0  0
 27 68  1  1  0  0  0
 27 11  1  0  0  0  0
 28 17  2  0  0  0  0
 28 18  1  0  0  0  0
 29 19  2  0  0  0  0
 29 20  1  0  0  0  0
 30 21  2  0  0  0  0
 30 22  1  0  0  0  0
 31 23  2  0  0  0  0
 31 24  1  0  0  0  0
 32 25  2  0  0  0  0
 32 26  1  0  0  0  0
 33 27  1  0  0  0  0
 33 64  1  0  0  0  0
 33 69  1  1  0  0  0
 34 33  1  0  0  0  0
 34 65  1  0  0  0  0
 34 70  1  1  0  0  0
 35 34  1  0  0  0  0
 35 66  1  0  0  0  0
 35 71  1  6  0  0  0
 36 12  1  0  0  0  0
 37 13  1  0  0  0  0
 38 14  1  0  0  0  0
 39 15  1  0  0  0  0
 40 16  1  0  0  0  0
 41 35  1  0  0  0  0
 41 67  1  0  0  0  0
 41 72  1  6  0  0  0
 42 17  1  0  0  0  0
 42 85  1  0  0  0  0
 43 18  1  0  0  0  0
 43 86  1  0  0  0  0
 44 19  1  0  0  0  0
 44 87  1  0  0  0  0
 45 20  1  0  0  0  0
 45 88  1  0  0  0  0
 46 21  1  0  0  0  0
 46 89  1  0  0  0  0
 47 22  1  0  0  0  0
 47 90  1  0  0  0  0
 48 23  1  0  0  0  0
 48 91  1  0  0  0  0
 49 24  1  0  0  0  0
 49 92  1  0  0  0  0
 50 25  1  0  0  0  0
 50 93  1  0  0  0  0
 51 26  1  0  0  0  0
 51 94  1  0  0  0  0
 52 28  1  0  0  0  0
 52 95  1  0  0  0  0
 53 29  1  0  0  0  0
 53 96  1  0  0  0  0
 54 30  1  0  0  0  0
 54 97  1  0  0  0  0
 55 31  1  0  0  0  0
 55 98  1  0  0  0  0
 56 32  1  0  0  0  0
 56 99  1  0  0  0  0
 57 36  2  0  0  0  0
 58 37  2  0  0  0  0
 59 38  2  0  0  0  0
 60 39  2  0  0  0  0
 61 40  2  0  0  0  0
 62 11  1  0  0  0  0
 62 36  1  0  0  0  0
 63 27  1  0  0  0  0
 63 41  1  0  0  0  0
 64 37  1  0  0  0  0
 65 38  1  0  0  0  0
 66 39  1  0  0  0  0
 67 40  1  0  0  0  0
M  END
>  <DRUGBANK_ID>
DB03208

>  <SECONDARY_ACCESSION_NUMBERS>
EXPT01589

>  <COMMON_NAME>
Beta-1,2,3,4,6-Penta-O-Galloyl-D-Glucopyranose

$$$$
