NAM
 OpenBabel10282417173D

 30 31  0  0  0  0  0  0  0  0999 V2000
    0.7969    0.2847    0.5848 N   0  0  0  0  0  0  0  0  0  0  0  0
    0.4090    1.5670   -0.0271 C   0  0  1  0  0  0  0  0  0  0  0  0
    1.0553    1.9958   -1.3850 C   0  0  0  0  0  0  0  0  0  0  0  0
   -1.1333    1.5857   -0.0552 C   0  0  0  0  0  0  0  0  0  0  0  0
   -1.8041    2.2072    0.7547 O   0  0  0  0  0  0  0  0  0  0  0  0
   -1.7445    0.7860   -0.9842 N   0  0  0  0  0  0  0  0  0  0  0  0
    0.7551    1.1729   -2.6361 C   0  0  0  0  0  0  0  0  0  0  0  0
    0.0578    1.7839   -3.6950 C   0  0  0  0  0  0  0  0  0  0  0  0
   -0.3534    1.0305   -4.7928 C   0  0  0  0  0  0  0  0  0  0  0  0
   -0.1263   -0.3476   -4.8221 C   0  0  0  0  0  0  0  0  0  0  0  0
    0.5661   -0.9907   -3.7837 C   0  0  0  0  0  0  0  0  0  0  0  0
    0.7790   -2.3875   -3.7743 C   0  0  0  0  0  0  0  0  0  0  0  0
    1.3964   -3.0238   -2.6933 C   0  0  0  0  0  0  0  0  0  0  0  0
    1.9173   -2.2607   -1.6696 C   0  0  0  0  0  0  0  0  0  0  0  0
    1.8745   -0.8769   -1.7838 C   0  0  0  0  0  0  0  0  0  0  0  0
    1.0757   -0.2124   -2.7270 C   0  0  0  0  0  0  0  0  0  0  0  0
    0.7230    2.3217    0.7048 H   0  0  0  0  0  0  0  0  0  0  0  0
    0.4336   -0.4726    0.0048 H   0  0  0  0  0  0  0  0  0  0  0  0
    1.8068    0.2013    0.6330 H   0  0  0  0  0  0  0  0  0  0  0  0
    0.7276    3.0318   -1.5637 H   0  0  0  0  0  0  0  0  0  0  0  0
    2.1466    2.0609   -1.2868 H   0  0  0  0  0  0  0  0  0  0  0  0
   -1.2549    0.2460   -1.6832 H   0  0  0  0  0  0  0  0  0  0  0  0
   -2.7527    0.7714   -1.0026 H   0  0  0  0  0  0  0  0  0  0  0  0
   -0.1838    2.8468   -3.6698 H   0  0  0  0  0  0  0  0  0  0  0  0
   -0.8654    1.5128   -5.6231 H   0  0  0  0  0  0  0  0  0  0  0  0
   -0.4855   -0.9206   -5.6739 H   0  0  0  0  0  0  0  0  0  0  0  0
    0.4543   -2.9973   -4.6130 H   0  0  0  0  0  0  0  0  0  0  0  0
    1.5210   -4.1027   -2.6715 H   0  0  0  0  0  0  0  0  0  0  0  0
    2.3827   -2.7169   -0.7991 H   0  0  0  0  0  0  0  0  0  0  0  0
    2.4642   -0.3033   -1.0818 H   0  0  0  0  0  0  0  0  0  0  0  0
  1 18  1  0  0  0  0
  1 19  1  0  0  0  0
  2  1  1  0  0  0  0
  2  3  1  0  0  0  0
  2  4  1  0  0  0  0
  2 17  1  1  0  0  0
  3  7  1  0  0  0  0
  3 20  1  0  0  0  0
  3 21  1  0  0  0  0
  4  5  2  0  0  0  0
  4  6  1  0  0  0  0
  6 22  1  0  0  0  0
  6 23  1  0  0  0  0
  7  8  2  0  0  0  0
  7 16  1  0  0  0  0
  8  9  1  0  0  0  0
  8 24  1  0  0  0  0
  9 10  2  0  0  0  0
  9 25  1  0  0  0  0
 10 11  1  0  0  0  0
 10 26  1  0  0  0  0
 11 12  1  0  0  0  0
 11 16  2  0  0  0  0
 12 13  2  0  0  0  0
 12 27  1  0  0  0  0
 13 14  1  0  0  0  0
 13 28  1  0  0  0  0
 14 15  2  0  0  0  0
 14 29  1  0  0  0  0
 15 16  1  0  0  0  0
 15 30  1  0  0  0  0
M  END
>  <DRUGBANK_ID>
DB08253

>  <COMMON_NAME>
NAM NAPTHYLAMINOALANINE

$$$$
