
 OpenBabel10282417113D

 71 74  0  0  0  0  0  0  0  0999 V2000
    7.0710   -4.6299    3.7881 C   0  0  2  0  0  0  0  0  0  0  0  0
    7.5320   -4.3283    1.9013 C   0  0  2  0  0  0  0  0  0  0  0  0
    6.6738   -9.4256    5.7078 C   0  0  2  0  0  0  0  0  0  0  0  0
    6.0254   -7.1158    4.3118 C   0  0  1  0  0  0  0  0  0  0  0  0
    6.5148   -5.9575    3.3982 C   0  0  2  0  0  0  0  0  0  0  0  0
    7.1198   -7.7692    5.1979 C   0  0  2  0  0  0  0  0  0  0  0  0
    5.2289   -9.7769    5.5520 C   0  0  0  0  0  0  0  0  0  0  0  0
    8.1371   -5.2193    5.1608 C   0  0  0  0  0  0  0  0  0  0  0  0
    7.4939   -6.4142    6.1505 C   0  0  2  0  0  0  0  0  0  0  0  0
    7.1595  -11.1267    4.9205 C   0  0  0  0  0  0  0  0  0  0  0  0
    6.6977   -3.6788    0.4610 C   0  0  0  0  0  0  0  0  0  0  0  0
    5.1353  -10.9306    6.3098 C   0  0  0  0  0  0  0  0  0  0  0  0
    7.4036   -5.5254    0.5536 O   0  0  0  0  0  0  0  0  0  0  0  0
    8.1527   -5.5807   -0.6821 C   0  0  0  0  0  0  0  0  0  0  0  0
    8.7233   -5.2238    2.0581 C   0  0  0  0  0  0  0  0  0  0  0  0
    7.8616   -6.3863    2.7142 C   0  0  0  0  0  0  0  0  0  0  0  0
    5.5219   -8.2483    3.4318 C   0  0  0  0  0  0  0  0  0  0  0  0
    6.5921  -12.3909    5.2073 C   0  0  0  0  0  0  0  0  0  0  0  0
    5.1090  -12.1009    5.3940 C   0  0  0  0  0  0  0  0  0  0  0  0
    4.6895   -9.3182    4.2019 C   0  0  0  0  0  0  0  0  0  0  0  0
    9.2804   -2.5795   -1.3331 C   0  0  0  0  0  0  0  0  0  0  0  0
    7.1913   -2.3539   -0.1971 C   0  0  0  0  0  0  0  0  0  0  0  0
    7.6747   -5.5216   -1.8129 O   0  0  0  0  0  0  0  0  0  0  0  0
    5.8126   -4.2318   -0.2361 O   0  0  0  0  0  0  0  0  0  0  0  0
    7.9787   -2.2116   -1.4017 O   0  0  0  0  0  0  0  0  0  0  0  0
    9.7630   -3.0825   -0.3259 O   0  0  0  0  0  0  0  0  0  0  0  0
    4.2273  -12.3789    4.6957 O   0  0  0  0  0  0  0  0  0  0  0  0
    6.3482   -3.5455    4.8450 C   0  0  0  0  0  0  0  0  0  0  0  0
    8.4248   -6.7217    7.2059 O   0  0  0  0  0  0  0  0  0  0  0  0
    9.4698   -5.8626   -0.4735 O   0  0  0  0  0  0  0  0  0  0  0  0
    6.2732   -8.8064    7.2453 C   0  0  0  0  0  0  0  0  0  0  0  0
   10.1183   -2.2306   -2.5604 C   0  0  0  0  0  0  0  0  0  0  0  0
   10.2611   -6.3281   -1.6003 C   0  0  0  0  0  0  0  0  0  0  0  0
    9.6289   -2.8510   -3.8539 C   0  0  0  0  0  0  0  0  0  0  0  0
    9.7113   -7.6104   -2.2140 C   0  0  0  0  0  0  0  0  0  0  0  0
    8.0849   -7.9984    4.7617 H   0  0  0  0  0  0  0  0  0  0  0  0
    5.6769   -5.6823    2.7407 H   0  0  0  0  0  0  0  0  0  0  0  0
    5.1916   -6.7146    4.9218 H   0  0  0  0  0  0  0  0  0  0  0  0
    8.4045   -4.3233    5.7590 H   0  0  0  0  0  0  0  0  0  0  0  0
    9.1470   -5.5981    4.9851 H   0  0  0  0  0  0  0  0  0  0  0  0
    6.6386   -5.9457    6.6889 H   0  0  0  0  0  0  0  0  0  0  0  0
    6.7284  -11.2930    3.8297 H   0  0  0  0  0  0  0  0  0  0  0  0
    6.0305  -11.1287    7.0019 H   0  0  0  0  0  0  0  0  0  0  0  0
    9.2859   -4.2819    2.0732 H   0  0  0  0  0  0  0  0  0  0  0  0
    9.4765   -5.3595    2.8415 H   0  0  0  0  0  0  0  0  0  0  0  0
    7.6958   -7.2026    2.0153 H   0  0  0  0  0  0  0  0  0  0  0  0
    8.5056   -6.8249    3.4636 H   0  0  0  0  0  0  0  0  0  0  0  0
    4.9706   -7.8147    2.5876 H   0  0  0  0  0  0  0  0  0  0  0  0
    6.4013   -8.7264    2.9808 H   0  0  0  0  0  0  0  0  0  0  0  0
    6.9409  -13.2463    5.8110 H   0  0  0  0  0  0  0  0  0  0  0  0
    3.6567   -8.9619    4.2166 H   0  0  0  0  0  0  0  0  0  0  0  0
    4.6773  -10.2152    3.5953 H   0  0  0  0  0  0  0  0  0  0  0  0
    6.2371   -1.8812   -0.5003 H   0  0  0  0  0  0  0  0  0  0  0  0
    7.6016   -1.7612    0.6108 H   0  0  0  0  0  0  0  0  0  0  0  0
    5.2583   -3.4655    4.8685 H   0  0  0  0  0  0  0  0  0  0  0  0
    6.5111   -3.8264    5.9274 H   0  0  0  0  0  0  0  0  0  0  0  0
    6.8359   -2.5524    4.8885 H   0  0  0  0  0  0  0  0  0  0  0  0
    8.4975   -7.6819    7.3379 H   0  0  0  0  0  0  0  0  0  0  0  0
    5.2960   -9.0294    7.7190 H   0  0  0  0  0  0  0  0  0  0  0  0
    7.0556   -8.7543    7.9965 H   0  0  0  0  0  0  0  0  0  0  0  0
    5.9610   -7.7633    7.0708 H   0  0  0  0  0  0  0  0  0  0  0  0
   10.2036   -1.1423   -2.6615 H   0  0  0  0  0  0  0  0  0  0  0  0
   11.1394   -2.5971   -2.3778 H   0  0  0  0  0  0  0  0  0  0  0  0
   10.4277   -5.5571   -2.3655 H   0  0  0  0  0  0  0  0  0  0  0  0
   11.2432   -6.5532   -1.1704 H   0  0  0  0  0  0  0  0  0  0  0  0
    8.6325   -2.4837   -4.1089 H   0  0  0  0  0  0  0  0  0  0  0  0
   10.3051   -2.6098   -4.6844 H   0  0  0  0  0  0  0  0  0  0  0  0
    9.5816   -3.9400   -3.7721 H   0  0  0  0  0  0  0  0  0  0  0  0
    8.7850   -7.4354   -2.7699 H   0  0  0  0  0  0  0  0  0  0  0  0
   10.4263   -8.0533   -2.9147 H   0  0  0  0  0  0  0  0  0  0  0  0
    9.4796   -8.3324   -1.4264 H   0  0  0  0  0  0  0  0  0  0  0  0
  1 28  1  6  0  0  0
  2  1  1  0  0  0  0
  2 11  1  6  0  0  0
  2 13  1  0  0  0  0
  3  6  1  0  0  0  0
  3 31  1  6  0  0  0
  4  5  1  0  0  0  0
  4 38  1  6  0  0  0
  5  1  1  0  0  0  0
  5 37  1  6  0  0  0
  6  9  1  0  0  0  0
  6  4  1  0  0  0  0
  6 36  1  1  0  0  0
  7  3  1  0  0  0  0
  8  1  1  0  0  0  0
  8 39  1  0  0  0  0
  8 40  1  0  0  0  0
  9  8  1  0  0  0  0
  9 41  1  1  0  0  0
  9 29  1  0  0  0  0
 10  3  1  0  0  0  0
 10 42  1  0  0  0  0
 12  7  2  0  0  0  0
 12 43  1  0  0  0  0
 14 13  1  0  0  0  0
 15  2  1  0  0  0  0
 15 16  1  0  0  0  0
 15 44  1  0  0  0  0
 15 45  1  0  0  0  0
 16  5  1  0  0  0  0
 16 46  1  0  0  0  0
 16 47  1  0  0  0  0
 17  4  1  0  0  0  0
 17 48  1  0  0  0  0
 17 49  1  0  0  0  0
 18 10  2  0  0  0  0
 18 50  1  0  0  0  0
 19 18  1  0  0  0  0
 19 12  1  0  0  0  0
 20 17  1  0  0  0  0
 20  7  1  0  0  0  0
 20 51  1  0  0  0  0
 20 52  1  0  0  0  0
 21 25  1  0  0  0  0
 22 11  1  0  0  0  0
 22 53  1  0  0  0  0
 22 54  1  0  0  0  0
 23 14  2  0  0  0  0
 24 11  2  0  0  0  0
 25 22  1  0  0  0  0
 26 21  2  0  0  0  0
 27 19  2  0  0  0  0
 28 55  1  0  0  0  0
 28 56  1  0  0  0  0
 28 57  1  0  0  0  0
 29 58  1  0  0  0  0
 30 14  1  0  0  0  0
 31 59  1  0  0  0  0
 31 60  1  0  0  0  0
 31 61  1  0  0  0  0
 32 21  1  0  0  0  0
 32 62  1  0  0  0  0
 32 63  1  0  0  0  0
 33 30  1  0  0  0  0
 33 64  1  0  0  0  0
 33 65  1  0  0  0  0
 34 32  1  0  0  0  0
 34 66  1  0  0  0  0
 34 67  1  0  0  0  0
 34 68  1  0  0  0  0
 35 33  1  0  0  0  0
 35 69  1  0  0  0  0
 35 70  1  0  0  0  0
 35 71  1  0  0  0  0
M  END
>  <DRUGBANK_ID>
DB01130

>  <SECONDARY_ACCESSION_NUMBERS>
APRD01197

>  <COMMON_NAME>
Prednicarbate

>  <CAS_NUMBER>
73771-04-7

>  <UNII>
V901LV1K7D

>  <SYNONYMS>
Prednicarbate; Prednicarbato

$$$$
