
 OpenBabel10282417243D

 50 51  0  0  1  0  0  0  0  0999 V2000
    1.0006   -0.3337   -0.1947 C   0  0  0  0  0  0  0  0  0  0  0  0
    0.4362    0.4582    0.9319 C   0  0  2  0  0  0  0  0  0  0  0  0
   -1.0947    0.7879    0.8802 C   0  0  0  0  0  0  0  0  0  0  0  0
   -1.4129    1.9115   -0.1080 C   0  0  0  0  0  0  0  0  0  0  0  0
   -0.5974    3.2132    0.1348 C   0  0  2  0  0  0  0  0  0  0  0  0
    0.8801    2.8227    0.0087 C   0  0  0  0  0  0  0  0  0  0  0  0
    1.2768    1.7161    1.0006 C   0  0  1  0  0  0  0  0  0  0  0  0
    0.9009    1.9574    2.3055 O   0  0  0  0  0  0  0  0  0  0  0  0
   -0.8965    4.1157    1.3329 N   0  0  0  0  0  0  0  0  0  0  0  0
   -0.8888    3.9182    2.7255 C   0  0  0  0  0  0  0  0  0  0  0  0
   -2.0511    3.4459    3.2207 N   0  0  0  0  0  0  0  0  0  0  0  0
   -2.1302    2.8120    4.4088 C   0  0  0  0  0  0  0  0  0  0  0  0
   -3.3447    2.4322    4.9327 N   0  0  0  0  0  0  0  0  0  0  0  0
   -4.6633    2.7999    4.4069 C   0  0  0  0  0  0  0  0  0  0  0  0
   -5.5302    1.5312    4.3782 C   0  0  0  0  0  0  0  0  0  0  0  0
   -5.3314    3.8420    5.3157 C   0  0  0  0  0  0  0  0  0  0  0  0
   -4.6279    3.3660    2.9823 C   0  0  0  0  0  0  0  0  0  0  0  0
   -1.0443    2.4828    5.0973 N   0  0  0  0  0  0  0  0  0  0  0  0
    0.1253    2.9871    4.6220 C   0  0  0  0  0  0  0  0  0  0  0  0
    0.2687    3.8494    3.5263 C   0  0  0  0  0  0  0  0  0  0  0  0
    1.6418    4.1619    2.9625 C   0  0  0  0  0  0  0  0  0  0  0  0
    2.7529    3.4273    3.3624 N   0  0  0  0  0  0  0  0  0  0  0  0
    1.7920    4.9557    2.0230 O   0  0  0  0  0  0  0  0  0  0  0  0
    0.7290    0.1240   -1.1430 H   0  0  0  0  0  0  0  0  0  0  0  0
    0.6400   -1.3547   -0.1231 H   0  0  0  0  0  0  0  0  0  0  0  0
    2.0955   -0.3319   -0.1072 H   0  0  0  0  0  0  0  0  0  0  0  0
    0.5847   -0.1168    1.8672 H   0  0  0  0  0  0  0  0  0  0  0  0
   -1.6611   -0.1249    0.6817 H   0  0  0  0  0  0  0  0  0  0  0  0
   -1.4768    1.1216    1.8571 H   0  0  0  0  0  0  0  0  0  0  0  0
   -1.1315    1.5128   -1.1000 H   0  0  0  0  0  0  0  0  0  0  0  0
   -2.4875    2.1006   -0.1761 H   0  0  0  0  0  0  0  0  0  0  0  0
   -0.8212    3.8498   -0.7383 H   0  0  0  0  0  0  0  0  0  0  0  0
    1.0819    2.4335   -1.0017 H   0  0  0  0  0  0  0  0  0  0  0  0
    1.4936    3.7253    0.0645 H   0  0  0  0  0  0  0  0  0  0  0  0
    2.3615    1.5979    1.0391 H   0  0  0  0  0  0  0  0  0  0  0  0
   -0.0258    2.2237    2.1612 H   0  0  0  0  0  0  0  0  0  0  0  0
   -1.6280    4.7858    1.1050 H   0  0  0  0  0  0  0  0  0  0  0  0
   -3.2751    2.0905    5.8851 H   0  0  0  0  0  0  0  0  0  0  0  0
   -5.6974    1.1265    5.3825 H   0  0  0  0  0  0  0  0  0  0  0  0
   -6.5106    1.7416    3.9347 H   0  0  0  0  0  0  0  0  0  0  0  0
   -5.0541    0.7460    3.7796 H   0  0  0  0  0  0  0  0  0  0  0  0
   -4.7243    4.7502    5.3965 H   0  0  0  0  0  0  0  0  0  0  0  0
   -6.3077    4.1334    4.9066 H   0  0  0  0  0  0  0  0  0  0  0  0
   -5.5014    3.4615    6.3288 H   0  0  0  0  0  0  0  0  0  0  0  0
   -4.0987    4.3262    2.9587 H   0  0  0  0  0  0  0  0  0  0  0  0
   -4.1443    2.6588    2.2968 H   0  0  0  0  0  0  0  0  0  0  0  0
   -5.6240    3.5740    2.5886 H   0  0  0  0  0  0  0  0  0  0  0  0
    0.9891    2.4790    5.0471 H   0  0  0  0  0  0  0  0  0  0  0  0
    3.4402    3.3462    2.6162 H   0  0  0  0  0  0  0  0  0  0  0  0
    2.6324    2.5342    3.8283 H   0  0  0  0  0  0  0  0  0  0  0  0
  1 24  1  0  0  0  0
  1 25  1  0  0  0  0
  1 26  1  0  0  0  0
  2  1  1  0  0  0  0
  2  3  1  0  0  0  0
  2  7  1  0  0  0  0
  2 27  1  1  0  0  0
  3  4  1  0  0  0  0
  3 28  1  0  0  0  0
  3 29  1  0  0  0  0
  4 30  1  0  0  0  0
  4 31  1  0  0  0  0
  5  4  1  0  0  0  0
  5  6  1  0  0  0  0
  5 32  1  6  0  0  0
  5  9  1  0  0  0  0
  6 33  1  0  0  0  0
  6 34  1  0  0  0  0
  7  6  1  0  0  0  0
  7  8  1  0  0  0  0
  7 35  1  6  0  0  0
  8 36  1  0  0  0  0
  9 10  1  0  0  0  0
  9 37  1  0  0  0  0
 10 11  2  0  0  0  0
 10 20  1  0  0  0  0
 11 12  1  0  0  0  0
 12 13  1  0  0  0  0
 12 18  2  0  0  0  0
 13 14  1  0  0  0  0
 13 38  1  0  0  0  0
 14 15  1  0  0  0  0
 14 16  1  0  0  0  0
 14 17  1  0  0  0  0
 15 39  1  0  0  0  0
 15 40  1  0  0  0  0
 15 41  1  0  0  0  0
 16 42  1  0  0  0  0
 16 43  1  0  0  0  0
 16 44  1  0  0  0  0
 17 45  1  0  0  0  0
 17 46  1  0  0  0  0
 17 47  1  0  0  0  0
 18 19  1  0  0  0  0
 19 20  2  0  0  0  0
 19 48  1  0  0  0  0
 20 21  1  0  0  0  0
 21 22  1  0  0  0  0
 21 23  2  0  0  0  0
 22 49  1  0  0  0  0
 22 50  1  0  0  0  0
M  END
>  <DRUGBANK_ID>
DB18445

>  <COMMON_NAME>
CC-90001

>  <CAS_NUMBER>
1403859-14-2

>  <UNII>
JD5ZWE631K

>  <SYNONYMS>
2-((1,1-DIMETHYLETHYL)AMINO)-4-(((1R,3R,4R)-3-HYDROXY-4-METHYLCYCLOHEXYL)AMINO)-5-PYRIMIDINECARBOXAMIDE; 2-(TERT-BUTYLAMINO)-4-((1R,3R,4R)-3-HYDROXY-4-METHYLCYCLOHEXYLAMINO)-PYRIMIDINE-5-CARBOXAMIDE; 5-PYRIMIDINECARBOXAMIDE, 2-((1,1-DIMETHYLETHYL)AMINO)-4-(((1R,3R,4R)-3-HYDROXY-4-METHYLCYCLOHEXYL)AMINO)-

$$$$
