
 OpenBabel10282417183D

 58 60  0  0  1  0  0  0  0  0999 V2000
    1.1952    0.1144   -0.1461 C   0  0  0  0  0  0  0  0  0  0  0  0
    0.5813   -1.2118    0.1611 C   0  0  0  0  0  0  0  0  0  0  0  0
   -0.1745   -1.5100    1.2464 C   0  0  0  0  0  0  0  0  0  0  0  0
   -0.6106   -0.6163    2.3394 C   0  0  0  0  0  0  0  0  0  0  0  0
   -1.3128   -0.9692    3.2828 O   0  0  0  0  0  0  0  0  0  0  0  0
   -0.2017    0.6462    2.2128 O   0  0  0  0  0  0  0  0  0  0  0  0
    0.8600   -2.2388   -0.8470 C   0  0  0  0  0  0  0  0  0  0  0  0
    1.7170   -2.2331   -1.8891 C   0  0  0  0  0  0  0  0  0  0  0  0
    2.1453   -3.3369   -2.8070 C   0  0  2  0  0  0  0  0  0  0  0  0
    1.2345   -4.4375   -3.2667 C   0  0  0  0  0  0  0  0  0  0  0  0
    2.3660   -4.7898   -2.3132 C   0  0  1  0  0  0  0  0  0  0  0  0
    3.5211   -5.6263   -2.8395 C   0  0  0  0  0  0  0  0  0  0  0  0
    2.1044   -5.1500   -0.8584 C   0  0  0  0  0  0  0  0  0  0  0  0
    0.8411   -5.2388   -0.2974 C   0  0  0  0  0  0  0  0  0  0  0  0
    0.7080   -5.2860    1.0765 C   0  0  0  0  0  0  0  0  0  0  0  0
    1.8096   -5.5472    1.9132 C   0  0  0  0  0  0  0  0  0  0  0  0
    3.0648   -5.7333    1.3452 C   0  0  0  0  0  0  0  0  0  0  0  0
    3.1870   -5.4391   -0.0086 C   0  0  0  0  0  0  0  0  0  0  0  0
    4.2849   -6.2674    2.0736 C   0  0  0  0  0  0  0  0  0  0  0  0
    4.0057   -6.6172    3.5409 C   0  0  0  0  0  0  0  0  0  0  0  0
    2.8237   -5.9619    4.2167 C   0  0  0  0  0  0  0  0  0  0  0  0
    1.5580   -5.6888    3.3905 C   0  0  0  0  0  0  0  0  0  0  0  0
    0.5447   -6.8359    3.5790 C   0  0  0  0  0  0  0  0  0  0  0  0
    0.9901   -4.3633    3.9460 C   0  0  0  0  0  0  0  0  0  0  0  0
    4.7387   -7.6012    1.4137 C   0  0  0  0  0  0  0  0  0  0  0  0
    5.4756   -5.2815    1.9965 C   0  0  0  0  0  0  0  0  0  0  0  0
    0.9692    0.9192    0.5399 H   0  0  0  0  0  0  0  0  0  0  0  0
    0.8337    0.4492   -1.1213 H   0  0  0  0  0  0  0  0  0  0  0  0
    2.2852    0.0241   -0.1468 H   0  0  0  0  0  0  0  0  0  0  0  0
   -0.5499   -2.5225    1.3995 H   0  0  0  0  0  0  0  0  0  0  0  0
   -0.5485    1.1721    2.9563 H   0  0  0  0  0  0  0  0  0  0  0  0
    0.2820   -3.1208   -0.6752 H   0  0  0  0  0  0  0  0  0  0  0  0
    2.2324   -1.2959   -2.0973 H   0  0  0  0  0  0  0  0  0  0  0  0
    2.8003   -2.9566   -3.5900 H   0  0  0  0  0  0  0  0  0  0  0  0
    0.2021   -4.4485   -2.9450 H   0  0  0  0  0  0  0  0  0  0  0  0
    1.3245   -4.7622   -4.3014 H   0  0  0  0  0  0  0  0  0  0  0  0
    4.4557   -5.3141   -2.3574 H   0  0  0  0  0  0  0  0  0  0  0  0
    3.3415   -6.6735   -2.5499 H   0  0  0  0  0  0  0  0  0  0  0  0
    3.7008   -5.5923   -3.9107 H   0  0  0  0  0  0  0  0  0  0  0  0
   -0.0519   -5.0963   -0.8990 H   0  0  0  0  0  0  0  0  0  0  0  0
   -0.2820   -5.1082    1.4902 H   0  0  0  0  0  0  0  0  0  0  0  0
    4.1871   -5.4954   -0.4217 H   0  0  0  0  0  0  0  0  0  0  0  0
    4.8881   -6.3579    4.1403 H   0  0  0  0  0  0  0  0  0  0  0  0
    3.8946   -7.7012    3.6535 H   0  0  0  0  0  0  0  0  0  0  0  0
    3.1915   -5.0260    4.6515 H   0  0  0  0  0  0  0  0  0  0  0  0
    2.5547   -6.5940    5.0718 H   0  0  0  0  0  0  0  0  0  0  0  0
   -0.4086   -6.6453    3.0698 H   0  0  0  0  0  0  0  0  0  0  0  0
    0.9395   -7.7754    3.1722 H   0  0  0  0  0  0  0  0  0  0  0  0
    0.3116   -6.9842    4.6355 H   0  0  0  0  0  0  0  0  0  0  0  0
    1.7184   -3.5507    3.8104 H   0  0  0  0  0  0  0  0  0  0  0  0
    0.0639   -4.0422    3.4626 H   0  0  0  0  0  0  0  0  0  0  0  0
    0.7930   -4.4583    5.0186 H   0  0  0  0  0  0  0  0  0  0  0  0
    5.1332   -7.4748    0.3997 H   0  0  0  0  0  0  0  0  0  0  0  0
    5.5305   -8.0709    2.0098 H   0  0  0  0  0  0  0  0  0  0  0  0
    3.9020   -8.3094    1.3552 H   0  0  0  0  0  0  0  0  0  0  0  0
    6.3146   -5.6415    2.6037 H   0  0  0  0  0  0  0  0  0  0  0  0
    5.8693   -5.1691    0.9782 H   0  0  0  0  0  0  0  0  0  0  0  0
    5.1966   -4.2860    2.3564 H   0  0  0  0  0  0  0  0  0  0  0  0
  1  2  1  0  0  0  0
  1 27  1  0  0  0  0
  1 28  1  0  0  0  0
  1 29  1  0  0  0  0
  2  3  2  0  0  0  0
  2  7  1  0  0  0  0
  3  4  1  0  0  0  0
  3 30  1  0  0  0  0
  4  5  2  0  0  0  0
  4  6  1  0  0  0  0
  6 31  1  0  0  0  0
  7  8  2  0  0  0  0
  7 32  1  0  0  0  0
  8 33  1  0  0  0  0
  9  8  1  0  0  0  0
  9 10  1  0  0  0  0
  9 11  1  0  0  0  0
  9 34  1  6  0  0  0
 10 11  1  0  0  0  0
 10 35  1  0  0  0  0
 10 36  1  0  0  0  0
 11 12  1  6  0  0  0
 11 13  1  0  0  0  0
 12 37  1  0  0  0  0
 12 38  1  0  0  0  0
 12 39  1  0  0  0  0
 13 14  2  0  0  0  0
 13 18  1  0  0  0  0
 14 15  1  0  0  0  0
 14 40  1  0  0  0  0
 15 16  2  0  0  0  0
 15 41  1  0  0  0  0
 16 17  1  0  0  0  0
 16 22  1  0  0  0  0
 17 18  2  0  0  0  0
 17 19  1  0  0  0  0
 18 42  1  0  0  0  0
 19 20  1  0  0  0  0
 19 25  1  0  0  0  0
 19 26  1  0  0  0  0
 20 21  1  0  0  0  0
 20 43  1  0  0  0  0
 20 44  1  0  0  0  0
 21 22  1  0  0  0  0
 21 45  1  0  0  0  0
 21 46  1  0  0  0  0
 22 23  1  0  0  0  0
 22 24  1  0  0  0  0
 23 47  1  0  0  0  0
 23 48  1  0  0  0  0
 23 49  1  0  0  0  0
 24 50  1  0  0  0  0
 24 51  1  0  0  0  0
 24 52  1  0  0  0  0
 25 53  1  0  0  0  0
 25 54  1  0  0  0  0
 25 55  1  0  0  0  0
 26 56  1  0  0  0  0
 26 57  1  0  0  0  0
 26 58  1  0  0  0  0
M  END
>  <DRUGBANK_ID>
DB11806

>  <COMMON_NAME>
VTP-194204

>  <CAS_NUMBER>
220619-73-8

>  <UNII>
877M97Z38Y

$$$$
