
 OpenBabel10282417223D

 30 32  0  0  0  0  0  0  0  0999 V2000
    1.0284   -0.0770    0.0935 C   0  0  0  0  0  0  0  0  0  0  0  0
    0.6607   -1.4921    0.0475 N   0  0  0  0  0  0  0  0  0  0  0  0
   -0.3082   -2.0645    0.8629 C   0  0  0  0  0  0  0  0  0  0  0  0
   -1.3179   -1.3369    1.4582 C   0  0  0  0  0  0  0  0  0  0  0  0
   -2.2011   -1.9292    2.3923 C   0  0  0  0  0  0  0  0  0  0  0  0
   -2.1997   -3.2861    2.8418 C   0  0  0  0  0  0  0  0  0  0  0  0
   -1.2374   -4.0477    2.1461 C   0  0  0  0  0  0  0  0  0  0  0  0
   -0.3074   -3.4334    1.1948 C   0  0  0  0  0  0  0  0  0  0  0  0
   -3.3231   -3.7141    3.8709 C   0  0  0  0  0  0  0  0  0  0  0  0
   -3.4948   -4.5788    4.9022 N   0  0  0  0  0  0  0  0  0  0  0  0
   -4.8706   -4.5069    5.4768 C   0  0  0  0  0  0  0  0  0  0  0  0
   -5.6503   -3.5895    4.7729 C   0  0  0  0  0  0  0  0  0  0  0  0
   -4.7303   -2.7125    3.6847 S   0  0  0  0  0  0  0  0  0  0  0  0
   -7.0178   -3.3844    4.9320 C   0  0  0  0  0  0  0  0  0  0  0  0
   -7.7145   -4.1046    5.8650 C   0  0  0  0  0  0  0  0  0  0  0  0
   -9.0594   -3.9373    5.9714 O   0  0  0  0  0  0  0  0  0  0  0  0
   -7.0245   -4.9806    6.6982 C   0  0  0  0  0  0  0  0  0  0  0  0
   -5.6016   -5.1643    6.5431 C   0  0  0  0  0  0  0  0  0  0  0  0
    0.7565    0.4083    1.0370 H   0  0  0  0  0  0  0  0  0  0  0  0
    0.5963    0.4975   -0.7353 H   0  0  0  0  0  0  0  0  0  0  0  0
    2.1191    0.0089    0.0053 H   0  0  0  0  0  0  0  0  0  0  0  0
    0.7815   -1.9248   -0.8661 H   0  0  0  0  0  0  0  0  0  0  0  0
   -1.4673   -0.2914    1.2082 H   0  0  0  0  0  0  0  0  0  0  0  0
   -2.9557   -1.2309    2.7448 H   0  0  0  0  0  0  0  0  0  0  0  0
   -1.1691   -5.1283    2.2542 H   0  0  0  0  0  0  0  0  0  0  0  0
    0.4647   -4.0534    0.7300 H   0  0  0  0  0  0  0  0  0  0  0  0
   -7.5109   -2.6692    4.2765 H   0  0  0  0  0  0  0  0  0  0  0  0
   -9.3309   -3.2460    5.3305 H   0  0  0  0  0  0  0  0  0  0  0  0
   -7.6065   -5.5176    7.4476 H   0  0  0  0  0  0  0  0  0  0  0  0
   -5.1323   -5.8327    7.2741 H   0  0  0  0  0  0  0  0  0  0  0  0
  1  2  1  0  0  0  0
  1 19  1  0  0  0  0
  1 20  1  0  0  0  0
  1 21  1  0  0  0  0
  2  3  1  0  0  0  0
  2 22  1  0  0  0  0
  3  4  2  0  0  0  0
  3  8  1  0  0  0  0
  4  5  1  0  0  0  0
  4 23  1  0  0  0  0
  5  6  2  0  0  0  0
  5 24  1  0  0  0  0
  6  7  1  0  0  0  0
  6  9  1  0  0  0  0
  7  8  2  0  0  0  0
  7 25  1  0  0  0  0
  8 26  1  0  0  0  0
  9 10  2  0  0  0  0
  9 13  1  0  0  0  0
 10 11  1  0  0  0  0
 11 12  2  0  0  0  0
 11 18  1  0  0  0  0
 12 13  1  0  0  0  0
 12 14  1  0  0  0  0
 14 15  2  0  0  0  0
 14 27  1  0  0  0  0
 15 16  1  0  0  0  0
 15 17  1  0  0  0  0
 16 28  1  0  0  0  0
 17 18  2  0  0  0  0
 17 29  1  0  0  0  0
 18 30  1  0  0  0  0
M  ISO  1   1  11
M  END
>  <DRUGBANK_ID>
DB15161

>  <COMMON_NAME>
Pittsburgh Compound B

>  <CAS_NUMBER>
566170-04-5

>  <UNII>
7P55415B0R

>  <SYNONYMS>
(N-methyl-(11C))2-(4'-methylaminophenyl)-6-hydroxybenzothiazole; 2-(4'-(methylamino)phenyl)-6-hydroxybenzothiazole; C-11 PiB

$$$$
