
 OpenBabel10282417133D

 91 90  0  0  1  0  0  0  0  0999 V2000
    1.0599    0.0431   -0.0018 C   0  0  0  0  0  0  0  0  0  0  0  0
    0.6288   -0.7895   -1.1982 C   0  0  0  0  0  0  0  0  0  0  0  0
    1.1245   -2.2293   -1.0572 C   0  0  0  0  0  0  0  0  0  0  0  0
    0.5599   -2.8972    0.2011 C   0  0  0  0  0  0  0  0  0  0  0  0
   -0.9720   -2.9084    0.1709 C   0  0  0  0  0  0  0  0  0  0  0  0
   -1.4678   -3.7042   -1.0398 C   0  0  0  0  0  0  0  0  0  0  0  0
   -0.9595   -5.1459   -0.9506 C   0  0  0  0  0  0  0  0  0  0  0  0
   -1.4803   -5.7840    0.3387 C   0  0  0  0  0  0  0  0  0  0  0  0
   -3.0113   -5.7502    0.3177 C   0  0  0  0  0  0  0  0  0  0  0  0
   -3.5007   -6.5373   -0.9053 C   0  0  0  0  0  0  0  0  0  0  0  0
   -2.9909   -7.9725   -0.7766 C   0  0  0  0  0  0  0  0  0  0  0  0
   -3.4865   -8.4989    0.5751 C   0  0  0  0  0  0  0  0  0  0  0  0
   -5.0273   -8.3613    0.6106 C   0  0  0  0  0  0  0  0  0  0  0  0
   -5.5958   -9.1797   -0.5177 C   0  0  0  0  0  0  0  0  0  0  0  0
   -5.0901  -10.5439   -0.1937 C   0  0  0  0  0  0  0  0  0  0  0  0
   -5.7180  -11.0887    1.0892 C   0  0  0  0  0  0  0  0  0  0  0  0
   -7.2429  -11.2917    0.9442 C   0  0  0  0  0  0  0  0  0  0  0  0
   -7.8554  -11.9723   -0.2893 C   0  0  0  0  0  0  0  0  0  0  0  0
   -7.2961  -13.2222   -0.5728 O   0  0  0  0  0  0  0  0  0  0  0  0
   -5.9057  -13.1917   -0.6517 C   0  0  0  0  0  0  0  0  0  0  0  0
   -5.2065  -12.9382   -2.0667 C   0  0  1  0  0  0  0  0  0  0  0  0
   -5.6407  -11.8330   -2.8587 O   0  0  0  0  0  0  0  0  0  0  0  0
   -3.6574  -12.9996   -1.9305 C   0  0  0  0  0  0  0  0  0  0  0  0
   -3.1840  -14.3416   -1.7051 O   0  0  0  0  0  0  0  0  0  0  0  0
   -3.7607  -15.0817   -0.2516 P   0  0  1  0  0  0  0  0  0  0  0  0
   -2.6189  -16.2299   -0.4206 O   0  0  0  0  0  0  0  0  0  0  0  0
   -3.1176  -13.9836    0.5854 O   0  0  0  0  0  0  0  0  0  0  0  0
   -4.3374  -15.8218    1.2019 O   0  0  0  0  0  0  0  0  0  0  0  0
   -5.0714  -17.0729    0.8906 C   0  0  0  0  0  0  0  0  0  0  0  0
   -6.4046  -17.1050   -0.0720 C   0  0  0  0  0  0  0  0  0  0  0  0
   -6.2046  -16.8727   -1.7026 N   0  3  0  0  0  0  0  0  0  0  0  0
   -5.1114  -17.7212   -2.3092 C   0  0  0  0  0  0  0  0  0  0  0  0
   -7.4979  -16.6762   -2.5331 C   0  0  0  0  0  0  0  0  0  0  0  0
   -5.8183  -15.5346   -1.8708 C   0  0  0  0  0  0  0  0  0  0  0  0
    0.6510   -0.3433    0.9375 H   0  0  0  0  0  0  0  0  0  0  0  0
    0.7095    1.0712   -0.0995 H   0  0  0  0  0  0  0  0  0  0  0  0
    2.1508    0.0389    0.0794 H   0  0  0  0  0  0  0  0  0  0  0  0
   -0.4627   -0.7540   -1.2982 H   0  0  0  0  0  0  0  0  0  0  0  0
    1.0209   -0.3564   -2.1225 H   0  0  0  0  0  0  0  0  0  0  0  0
    0.8516   -2.7965   -1.9559 H   0  0  0  0  0  0  0  0  0  0  0  0
    2.2177   -2.2551   -1.0248 H   0  0  0  0  0  0  0  0  0  0  0  0
    0.9689   -3.9094    0.2903 H   0  0  0  0  0  0  0  0  0  0  0  0
    0.9065   -2.4011    1.1106 H   0  0  0  0  0  0  0  0  0  0  0  0
   -1.3531   -3.3166    1.1131 H   0  0  0  0  0  0  0  0  0  0  0  0
   -1.3931   -1.9005    0.1474 H   0  0  0  0  0  0  0  0  0  0  0  0
   -2.5603   -3.6532   -1.0903 H   0  0  0  0  0  0  0  0  0  0  0  0
   -1.1550   -3.2594   -1.9869 H   0  0  0  0  0  0  0  0  0  0  0  0
   -1.2638   -5.7011   -1.8428 H   0  0  0  0  0  0  0  0  0  0  0  0
    0.1299   -5.2112   -0.9836 H   0  0  0  0  0  0  0  0  0  0  0  0
   -1.0764   -6.7963    0.4389 H   0  0  0  0  0  0  0  0  0  0  0  0
   -1.1102   -5.2902    1.2399 H   0  0  0  0  0  0  0  0  0  0  0  0
   -3.3982   -6.1345    1.2659 H   0  0  0  0  0  0  0  0  0  0  0  0
   -3.4260   -4.7418    0.3038 H   0  0  0  0  0  0  0  0  0  0  0  0
   -4.5905   -6.4839   -0.9744 H   0  0  0  0  0  0  0  0  0  0  0  0
   -3.1883   -6.1057   -1.8569 H   0  0  0  0  0  0  0  0  0  0  0  0
   -3.3211   -8.5718   -1.6318 H   0  0  0  0  0  0  0  0  0  0  0  0
   -1.9024   -8.0539   -0.8387 H   0  0  0  0  0  0  0  0  0  0  0  0
   -3.0856   -9.5034    0.7373 H   0  0  0  0  0  0  0  0  0  0  0  0
   -3.0619   -7.9968    1.4432 H   0  0  0  0  0  0  0  0  0  0  0  0
   -5.4015   -8.6811    1.5796 H   0  0  0  0  0  0  0  0  0  0  0  0
   -5.4102   -7.3467    0.5457 H   0  0  0  0  0  0  0  0  0  0  0  0
   -6.6857   -9.1712   -0.5852 H   0  0  0  0  0  0  0  0  0  0  0  0
   -5.2738   -8.8730   -1.5225 H   0  0  0  0  0  0  0  0  0  0  0  0
   -5.3565  -11.0662   -1.0556 H   0  0  0  0  0  0  0  0  0  0  0  0
   -4.0069  -10.6831   -0.2294 H   0  0  0  0  0  0  0  0  0  0  0  0
   -5.1755  -11.9593    1.4819 H   0  0  0  0  0  0  0  0  0  0  0  0
   -5.5240  -10.4562    1.9463 H   0  0  0  0  0  0  0  0  0  0  0  0
   -7.5450  -11.8663    1.8208 H   0  0  0  0  0  0  0  0  0  0  0  0
   -7.7124  -10.3082    0.9958 H   0  0  0  0  0  0  0  0  0  0  0  0
   -8.9247  -12.1476   -0.1209 H   0  0  0  0  0  0  0  0  0  0  0  0
   -7.8042  -11.3946   -1.2097 H   0  0  0  0  0  0  0  0  0  0  0  0
   -5.2232  -12.8250    0.0793 H   0  0  0  0  0  0  0  0  0  0  0  0
   -5.8138  -14.0781   -0.0460 H   0  0  0  0  0  0  0  0  0  0  0  0
   -5.4737  -13.6657   -2.8042 H   0  0  0  0  0  0  0  0  0  0  0  0
   -6.4427  -11.4014   -2.4784 H   0  0  0  0  0  0  0  0  0  0  0  0
   -3.1958  -12.6142   -2.8420 H   0  0  0  0  0  0  0  0  0  0  0  0
   -3.2741  -12.3717   -1.1242 H   0  0  0  0  0  0  0  0  0  0  0  0
   -2.6543  -16.8828   -1.1260 H   0  0  0  0  0  0  0  0  0  0  0  0
   -4.3409  -17.8076    0.5422 H   0  0  0  0  0  0  0  0  0  0  0  0
   -5.4027  -17.4348    1.8717 H   0  0  0  0  0  0  0  0  0  0  0  0
   -6.8927  -18.0794   -0.0166 H   0  0  0  0  0  0  0  0  0  0  0  0
   -7.0865  -16.3129    0.2623 H   0  0  0  0  0  0  0  0  0  0  0  0
   -5.5395  -18.6219   -2.7138 H   0  0  0  0  0  0  0  0  0  0  0  0
   -4.5776  -17.1610   -3.0982 H   0  0  0  0  0  0  0  0  0  0  0  0
   -4.3715  -17.9212   -1.5354 H   0  0  0  0  0  0  0  0  0  0  0  0
   -8.1603  -15.9919   -1.9662 H   0  0  0  0  0  0  0  0  0  0  0  0
   -7.2079  -16.1330   -3.4674 H   0  0  0  0  0  0  0  0  0  0  0  0
   -7.9636  -17.6071   -2.7700 H   0  0  0  0  0  0  0  0  0  0  0  0
   -6.6382  -14.8389   -2.0471 H   0  0  0  0  0  0  0  0  0  0  0  0
   -5.5832  -15.3727   -0.9077 H   0  0  0  0  0  0  0  0  0  0  0  0
   -4.9735  -15.4110   -2.5710 H   0  0  0  0  0  0  0  0  0  0  0  0
  1  2  1  0  0  0  0
  1 35  1  0  0  0  0
  1 36  1  0  0  0  0
  1 37  1  0  0  0  0
  2  3  1  0  0  0  0
  2 38  1  0  0  0  0
  2 39  1  0  0  0  0
  3  4  1  0  0  0  0
  3 40  1  0  0  0  0
  3 41  1  0  0  0  0
  4  5  1  0  0  0  0
  4 42  1  0  0  0  0
  4 43  1  0  0  0  0
  5  6  1  0  0  0  0
  5 44  1  0  0  0  0
  5 45  1  0  0  0  0
  6  7  1  0  0  0  0
  6 46  1  0  0  0  0
  6 47  1  0  0  0  0
  7  8  1  0  0  0  0
  7 48  1  0  0  0  0
  7 49  1  0  0  0  0
  8  9  1  0  0  0  0
  8 50  1  0  0  0  0
  8 51  1  0  0  0  0
  9 10  1  0  0  0  0
  9 52  1  0  0  0  0
  9 53  1  0  0  0  0
 10 11  1  0  0  0  0
 10 54  1  0  0  0  0
 10 55  1  0  0  0  0
 11 12  1  0  0  0  0
 11 56  1  0  0  0  0
 11 57  1  0  0  0  0
 12 13  1  0  0  0  0
 12 58  1  0  0  0  0
 12 59  1  0  0  0  0
 13 14  1  0  0  0  0
 13 60  1  0  0  0  0
 13 61  1  0  0  0  0
 14 15  1  0  0  0  0
 14 62  1  0  0  0  0
 14 63  1  0  0  0  0
 15 16  1  0  0  0  0
 15 64  1  0  0  0  0
 15 65  1  0  0  0  0
 16 17  1  0  0  0  0
 16 66  1  0  0  0  0
 16 67  1  0  0  0  0
 17 18  1  0  0  0  0
 17 68  1  0  0  0  0
 17 69  1  0  0  0  0
 18 19  1  0  0  0  0
 18 70  1  0  0  0  0
 18 71  1  0  0  0  0
 19 20  1  0  0  0  0
 20 21  1  0  0  0  0
 20 72  1  0  0  0  0
 20 73  1  0  0  0  0
 21 22  1  0  0  0  0
 21 23  1  0  0  0  0
 21 74  1  6  0  0  0
 22 75  1  0  0  0  0
 23 24  1  0  0  0  0
 23 76  1  0  0  0  0
 23 77  1  0  0  0  0
 25 24  1  0  0  0  0
 25 26  1  0  0  0  0
 25 27  2  1  0  0  0
 25 28  1  0  0  0  0
 26 78  1  0  0  0  0
 28 29  1  0  0  0  0
 29 30  1  0  0  0  0
 29 79  1  0  0  0  0
 29 80  1  0  0  0  0
 30 31  1  0  0  0  0
 30 81  1  0  0  0  0
 30 82  1  0  0  0  0
 31 32  1  0  0  0  0
 31 33  1  0  0  0  0
 31 34  1  0  0  0  0
 32 83  1  0  0  0  0
 32 84  1  0  0  0  0
 32 85  1  0  0  0  0
 33 86  1  0  0  0  0
 33 87  1  0  0  0  0
 33 88  1  0  0  0  0
 34 89  1  0  0  0  0
 34 90  1  0  0  0  0
 34 91  1  0  0  0  0
M  CHG  1  31   1
M  END
>  <DRUGBANK_ID>
DB03633

>  <SECONDARY_ACCESSION_NUMBERS>
EXPT02056

>  <COMMON_NAME>
Lpc-Ether

$$$$
