
 OpenBabel10282417203D

 15 13  0  0  1  0  0  0  0  0999 V2000
    1.1848    0.3221    2.5471 C   0  0  2  0  0  0  0  0  0  0  0  0
    0.7922   -0.3338    1.2381 C   0  0  2  0  0  0  0  0  0  0  0  0
    1.4206    0.1419   -0.1453 C   0  0  0  0  0  0  0  0  0  0  0  0
    2.6356    0.3786   -0.2562 O   0  0  0  0  0  0  0  0  0  0  0  0
    0.5699   -0.1175   -1.0928 O   0  5  0  0  0  0  0  0  0  0  0  0
   -0.7056   -0.3549    1.0891 O   0  0  0  0  0  0  0  0  0  0  0  0
    1.7027    1.7061    2.1059 C   0  0  0  0  0  0  0  0  0  0  0  0
    2.8872    1.9859    2.4087 O   0  0  0  0  0  0  0  0  0  0  0  0
    0.7990    2.3453    1.4707 O   0  5  0  0  0  0  0  0  0  0  0  0
    2.1336   -0.5333    3.2041 O   0  0  0  0  0  0  0  0  0  0  0  0
   -0.9286   -1.0527   -0.8009 Fe  0  2  0  0  0  0  0  0  0  0  0  0
    0.3403    0.4753    3.2310 H   0  0  0  0  0  0  0  0  0  0  0  0
    1.0484   -1.4000    1.2986 H   0  0  0  0  0  0  0  0  0  0  0  0
   -0.9463    0.5018    1.5452 H   0  0  0  0  0  0  0  0  0  0  0  0
    2.9686   -0.3906    2.7097 H   0  0  0  0  0  0  0  0  0  0  0  0
  1  7  1  0  0  0  0
  1 10  1  0  0  0  0
  1 12  1  1  0  0  0
  2  6  1  0  0  0  0
  2 13  1  1  0  0  0
  2  3  1  0  0  0  0
  2  1  1  0  0  0  0
  3  4  2  0  0  0  0
  3  5  1  0  0  0  0
  6 14  1  0  0  0  0
  7  8  2  0  0  0  0
  7  9  1  0  0  0  0
 10 15  1  0  0  0  0
M  CHG  3   5  -1   9  -1  11   2
M  END
>  <DRUGBANK_ID>
DB13639

>  <COMMON_NAME>
Ferrous tartrate

>  <CAS_NUMBER>
2944-65-2

>  <UNII>
ZRW631PTZD

$$$$
