
 OpenBabel10282417133D

 15 14  0  0  0  0  0  0  0  0999 V2000
    0.8908   -0.0160    0.1389 C   0  0  1  0  0  0  0  0  0  0  0  0
    0.1056   -1.3528    0.0999 C   0  0  0  0  0  0  0  0  0  0  0  0
   -0.4453   -1.7704   -0.9204 O   0  0  0  0  0  0  0  0  0  0  0  0
   -0.0130   -2.0667    1.2542 N   0  0  0  0  0  0  0  0  0  0  0  0
    0.5424    0.7250   -1.1089 N   0  0  0  0  0  0  0  0  0  0  0  0
    0.4709    0.8470    1.3407 C   0  0  0  0  0  0  0  0  0  0  0  0
    1.1871    0.3066    2.9352 S   0  0  0  0  0  0  0  0  0  0  0  0
    1.9718   -0.1996    0.1255 H   0  0  0  0  0  0  0  0  0  0  0  0
    0.8014   -2.1811    1.8463 H   0  0  0  0  0  0  0  0  0  0  0  0
   -0.6125   -2.8804    1.1875 H   0  0  0  0  0  0  0  0  0  0  0  0
   -0.4809    0.7188   -1.1840 H   0  0  0  0  0  0  0  0  0  0  0  0
    0.8173    0.1348   -1.9004 H   0  0  0  0  0  0  0  0  0  0  0  0
    0.7965    1.8830    1.2002 H   0  0  0  0  0  0  0  0  0  0  0  0
   -0.6210    0.8522    1.4384 H   0  0  0  0  0  0  0  0  0  0  0  0
    0.4212   -0.7859    3.0782 H   0  0  0  0  0  0  0  0  0  0  0  0
  1  6  1  0  0  0  0
  1  8  1  1  0  0  0
  1  5  1  0  0  0  0
  1  2  1  0  0  0  0
  3  2  2  0  0  0  0
  4  2  1  0  0  0  0
  4  9  1  0  0  0  0
  4 10  1  0  0  0  0
  5 11  1  0  0  0  0
  5 12  1  0  0  0  0
  6 13  1  0  0  0  0
  6 14  1  0  0  0  0
  7  6  1  0  0  0  0
  7 15  1  0  0  0  0
M  END
>  <DRUGBANK_ID>
DB03275

>  <SECONDARY_ACCESSION_NUMBERS>
EXPT01073

>  <COMMON_NAME>
Cysteinamide

>  <CAS_NUMBER>
74401-72-2

>  <UNII>
055X467671

>  <SYNONYMS>
2-amino-3-mercapto-propionamide; L-Cysteinamide

$$$$
