1598
 OpenBabel10282417123D

 37 38  0  0  1  0  0  0  0  0999 V2000
   -4.6996    9.4077    2.0502 S   0  0  0  0  0  0  0  0  0  0  0  0
   -1.6447    3.1915    3.1985 O   0  0  0  0  0  0  0  0  0  0  0  0
   -5.8848    4.2885    3.7032 O   0  0  0  0  0  0  0  0  0  0  0  0
   -7.5526    6.6544    4.5088 O   0  0  0  0  0  0  0  0  0  0  0  0
   -7.4786    7.8050    2.5986 O   0  0  0  0  0  0  0  0  0  0  0  0
   -4.7509    6.2045    4.3420 N   0  0  0  0  0  0  0  0  0  0  0  0
   -7.1690   11.0250    0.4738 N   0  0  0  0  0  0  0  0  0  0  0  0
   -6.8057    9.9889   -1.5892 N   0  0  0  0  0  0  0  0  0  0  0  0
   -3.2750    6.2749    4.0886 C   0  0  1  0  0  0  0  0  0  0  0  0
   -3.3719    4.8248    3.4961 C   0  0  2  0  0  0  0  0  0  0  0  0
   -3.0885    7.4701    3.1580 C   0  0  0  0  0  0  0  0  0  0  0  0
   -4.8815    4.9409    3.8435 C   0  0  0  0  0  0  0  0  0  0  0  0
   -2.6537    3.6244    4.1176 C   0  0  1  0  0  0  0  0  0  0  0  0
   -5.3824    7.2323    3.6510 C   0  0  0  0  0  0  0  0  0  0  0  0
   -4.4924    8.0282    3.0345 C   0  0  0  0  0  0  0  0  0  0  0  0
   -3.6309    2.4752    4.3533 C   0  0  0  0  0  0  0  0  0  0  0  0
   -6.8772    7.2681    3.5158 C   0  0  0  0  0  0  0  0  0  0  0  0
   -6.1114   10.3727    2.6900 C   0  0  0  0  0  0  0  0  0  0  0  0
   -6.5461   11.4930    1.7318 C   0  0  0  0  0  0  0  0  0  0  0  0
   -6.4076   10.4509   -0.3795 C   0  0  0  0  0  0  0  0  0  0  0  0
   -2.7032    6.3674    5.0213 H   0  0  0  0  0  0  0  0  0  0  0  0
   -3.2093    4.8293    2.4090 H   0  0  0  0  0  0  0  0  0  0  0  0
   -1.5184    2.2296    3.2987 H   0  0  0  0  0  0  0  0  0  0  0  0
   -7.0535    5.9205    4.9128 H   0  0  0  0  0  0  0  0  0  0  0  0
   -6.2206    9.3511   -2.1128 H   0  0  0  0  0  0  0  0  0  0  0  0
   -7.7911   10.0267   -1.8105 H   0  0  0  0  0  0  0  0  0  0  0  0
   -2.6779    7.1480    2.1911 H   0  0  0  0  0  0  0  0  0  0  0  0
   -2.4095    8.2131    3.5883 H   0  0  0  0  0  0  0  0  0  0  0  0
   -2.1472    3.8809    5.0540 H   0  0  0  0  0  0  0  0  0  0  0  0
   -3.1265    1.5666    4.6902 H   0  0  0  0  0  0  0  0  0  0  0  0
   -4.3738    2.7460    5.1108 H   0  0  0  0  0  0  0  0  0  0  0  0
   -4.1548    2.2251    3.4224 H   0  0  0  0  0  0  0  0  0  0  0  0
   -7.0134    9.8101    2.8980 H   0  0  0  0  0  0  0  0  0  0  0  0
   -5.7996   10.7924    3.6513 H   0  0  0  0  0  0  0  0  0  0  0  0
   -7.3322   12.0550    2.2559 H   0  0  0  0  0  0  0  0  0  0  0  0
   -5.7386   12.2098    1.5482 H   0  0  0  0  0  0  0  0  0  0  0  0
   -5.3308   10.2888   -0.2388 H   0  0  0  0  0  0  0  0  0  0  0  0
  1 15  1  0  0  0  0
  1 18  1  0  0  0  0
  2 23  1  0  0  0  0
  3 12  2  0  0  0  0
  4 17  1  0  0  0  0
  4 24  1  0  0  0  0
  5 17  2  0  0  0  0
  6  9  1  0  0  0  0
  6 12  1  0  0  0  0
  6 14  1  0  0  0  0
  7 19  1  0  0  0  0
  7 20  2  0  0  0  0
  8 20  1  0  0  0  0
  8 25  1  0  0  0  0
  8 26  1  0  0  0  0
  9 10  1  0  0  0  0
  9 11  1  0  0  0  0
  9 21  1  1  0  0  0
 10 12  1  0  0  0  0
 10 22  1  6  0  0  0
 11 15  1  0  0  0  0
 11 27  1  0  0  0  0
 11 28  1  0  0  0  0
 13 16  1  0  0  0  0
 13 29  1  1  0  0  0
 13 10  1  0  0  0  0
 13  2  1  0  0  0  0
 14 15  2  0  0  0  0
 14 17  1  0  0  0  0
 16 30  1  0  0  0  0
 16 31  1  0  0  0  0
 16 32  1  0  0  0  0
 18 19  1  0  0  0  0
 18 33  1  0  0  0  0
 18 34  1  0  0  0  0
 19 35  1  0  0  0  0
 19 36  1  0  0  0  0
 20 37  1  0  0  0  0
M  END
>  <DRUGBANK_ID>
DB01598

>  <COMMON_NAME>
Imipenem

>  <CAS_NUMBER>
64221-86-9

>  <UNII>
Q20IM7HE75

>  <SYNONYMS>
(5R,6S)-3-((2-(Formimidoylamino)ethyl)thio)-6-((R)-1-hydroxyethyl)-7-oxo-1-azabicyclo(3.2.0)hept-2-ene-2-carboxylic acid; (5R,6S)-3-(2-Formimidoylamino-ethylsulfanyl)-6-((R)-1-hydroxy-ethyl)-7-oxo-1-aza-bicyclo[3.2.0]hept-2-ene-2-carboxylic acid; (5R,6S)-6-((R)-1-Hydroxyethyl)-3-(2-(iminomethylamino)ethylthio)-7-oxo-1-azabicyclo(3.2.0)hept-2-ene-2-carbonsaeure; Imipenem; Imipenem anhydrous; Imipenemum; N-formimidoyl thienamycin; N-formimidoylthienamycin

$$$$
