
 OpenBabel10282417113D

 28 28  0  0  0  0  0  0  0  0999 V2000
   -1.6373    7.0504    2.0528 C   0  0  0  0  0  0  0  0  0  0  0  0
   -2.2112    7.6265    0.9251 C   0  0  0  0  0  0  0  0  0  0  0  0
   -2.1279    4.8189    1.1635 C   0  0  0  0  0  0  0  0  0  0  0  0
   -2.6824    5.4263    0.0280 C   0  0  0  0  0  0  0  0  0  0  0  0
   -1.5966    5.6512    2.1685 C   0  0  0  0  0  0  0  0  0  0  0  0
   -3.2455    1.5304   -0.0286 C   0  0  0  0  0  0  0  0  0  0  0  0
   -3.3774    1.9355   -1.1772 O   0  0  0  0  0  0  0  0  0  0  0  0
   -3.2808    2.4047    1.2550 C   0  0  1  0  0  0  0  0  0  0  0  0
   -2.0040    3.3068    1.2662 C   0  0  0  0  0  0  0  0  0  0  0  0
   -2.9990    0.2171    0.1887 O   0  0  0  0  0  0  0  0  0  0  0  0
   -2.2785    8.9820    0.7538 O   0  0  0  0  0  0  0  0  0  0  0  0
   -2.7296    6.8135   -0.0781 C   0  0  0  0  0  0  0  0  0  0  0  0
   -3.2871    7.3579   -1.2010 O   0  0  0  0  0  0  0  0  0  0  0  0
   -4.6091    3.1630    1.2876 C   0  0  0  0  0  0  0  0  0  0  0  0
   -3.2802    1.5218    2.4619 N   0  0  0  0  0  0  0  0  0  0  0  0
   -1.2088    7.6594    2.8433 H   0  0  0  0  0  0  0  0  0  0  0  0
   -3.0812    4.8302   -0.7887 H   0  0  0  0  0  0  0  0  0  0  0  0
   -1.1246    5.2151    3.0476 H   0  0  0  0  0  0  0  0  0  0  0  0
   -1.3231    2.9923    0.4636 H   0  0  0  0  0  0  0  0  0  0  0  0
   -1.4414    3.0936    2.1861 H   0  0  0  0  0  0  0  0  0  0  0  0
   -3.0580   -0.2052   -0.6933 H   0  0  0  0  0  0  0  0  0  0  0  0
   -1.8777    9.4135    1.5282 H   0  0  0  0  0  0  0  0  0  0  0  0
   -3.2039    8.3243   -1.0904 H   0  0  0  0  0  0  0  0  0  0  0  0
   -5.4657    2.4784    1.2893 H   0  0  0  0  0  0  0  0  0  0  0  0
   -4.6823    3.8023    2.1742 H   0  0  0  0  0  0  0  0  0  0  0  0
   -4.7381    3.7893    0.4007 H   0  0  0  0  0  0  0  0  0  0  0  0
   -2.4355    0.9479    2.4452 H   0  0  0  0  0  0  0  0  0  0  0  0
   -3.2479    2.0884    3.3061 H   0  0  0  0  0  0  0  0  0  0  0  0
  1  5  1  0  0  0  0
  1 16  1  0  0  0  0
  2  1  2  0  0  0  0
  2 12  1  0  0  0  0
  4  3  1  0  0  0  0
  4 17  1  0  0  0  0
  5  3  2  0  0  0  0
  5 18  1  0  0  0  0
  6  7  2  0  0  0  0
  8 14  1  0  0  0  0
  8 15  1  0  0  0  0
  8  9  1  0  0  0  0
  8  6  1  6  0  0  0
  9  3  1  0  0  0  0
  9 19  1  0  0  0  0
  9 20  1  0  0  0  0
 10  6  1  0  0  0  0
 10 21  1  0  0  0  0
 11  2  1  0  0  0  0
 11 22  1  0  0  0  0
 12  4  2  0  0  0  0
 12 13  1  0  0  0  0
 13 23  1  0  0  0  0
 14 24  1  0  0  0  0
 14 25  1  0  0  0  0
 14 26  1  0  0  0  0
 15 27  1  0  0  0  0
 15 28  1  0  0  0  0
M  END
>  <DRUGBANK_ID>
DB00968

>  <SECONDARY_ACCESSION_NUMBERS>
APRD01106

>  <COMMON_NAME>
Methyldopa

>  <CAS_NUMBER>
555-30-6

>  <UNII>
M4R0H12F6M

>  <SYNONYMS>
(S)-(-)-alpha-Methyldopa; 3-Hydroxy-alpha-methyl-L-tyrosine; Alpha medopa; alpha-Methyl dopa; alpha-methyl-L-dopa; Alphamethyldopa; AMD; Anhydrous methyldopa; L-alpha-Methyldopa; L-Methyl Dopa; Methyl dopa; Methyldopa; Methyldopa anhydrous; metildopa; α-Methyl dopa; α-methyl-L-dopa

$$$$
