
 OpenBabel10282417203D

 30 31  0  0  0  0  0  0  0  0999 V2000
    0.9416    0.1263   -0.0522 C   0  0  0  0  0  0  0  0  0  0  0  0
   -1.5113    0.2485    5.7931 C   0  0  0  0  0  0  0  0  0  0  0  0
   -0.7789    0.8772    4.6054 C   0  0  0  0  0  0  0  0  0  0  0  0
   -0.7005   -0.8920    6.3781 C   0  0  0  0  0  0  0  0  0  0  0  0
    0.0321    0.3921    2.2732 C   0  0  0  0  0  0  0  0  0  0  0  0
    0.1468   -2.3597    2.7155 C   0  0  0  0  0  0  0  0  0  0  0  0
    0.4646   -0.4704    1.2384 C   0  0  0  0  0  0  0  0  0  0  0  0
   -0.3590   -0.1019    3.5284 C   0  0  0  0  0  0  0  0  0  0  0  0
    0.5154   -1.8553    1.4749 C   0  0  0  0  0  0  0  0  0  0  0  0
   -0.2835   -1.4893    3.7164 C   0  0  0  0  0  0  0  0  0  0  0  0
   -0.0156   -2.8759   -0.9880 N   0  0  0  0  0  0  0  0  0  0  0  0
    0.3888   -3.1345    5.6053 O   0  0  0  0  0  0  0  0  0  0  0  0
   -2.0614   -2.7359    5.0987 O   0  0  0  0  0  0  0  0  0  0  0  0
    2.3786   -2.5862   -0.2212 O   0  0  0  0  0  0  0  0  0  0  0  0
    0.8905   -4.3640    0.7785 O   0  0  0  0  0  0  0  0  0  0  0  0
   -0.7058   -2.2513    5.2489 S   0  0  0  0  0  0  0  0  0  0  0  0
    1.0968   -3.0257    0.2681 S   0  0  0  0  0  0  0  0  0  0  0  0
    0.5765    1.1493   -0.1780 H   0  0  0  0  0  0  0  0  0  0  0  0
    0.5715   -0.4390   -0.9085 H   0  0  0  0  0  0  0  0  0  0  0  0
    2.0351    0.1384   -0.0630 H   0  0  0  0  0  0  0  0  0  0  0  0
   -2.4943   -0.1099    5.4619 H   0  0  0  0  0  0  0  0  0  0  0  0
   -1.6886    1.0053    6.5643 H   0  0  0  0  0  0  0  0  0  0  0  0
   -1.4363    1.6405    4.1686 H   0  0  0  0  0  0  0  0  0  0  0  0
    0.1144    1.3989    4.9745 H   0  0  0  0  0  0  0  0  0  0  0  0
    0.3424   -0.6025    6.5470 H   0  0  0  0  0  0  0  0  0  0  0  0
   -1.1246   -1.2633    7.3135 H   0  0  0  0  0  0  0  0  0  0  0  0
    0.0096    1.4691    2.0953 H   0  0  0  0  0  0  0  0  0  0  0  0
    0.2065   -3.4269    2.9282 H   0  0  0  0  0  0  0  0  0  0  0  0
    0.3149   -3.4299   -1.7814 H   0  0  0  0  0  0  0  0  0  0  0  0
   -0.9525   -3.1586   -0.7020 H   0  0  0  0  0  0  0  0  0  0  0  0
  1 18  1  0  0  0  0
  1 19  1  0  0  0  0
  1 20  1  0  0  0  0
  2 21  1  0  0  0  0
  2 22  1  0  0  0  0
  3  2  1  0  0  0  0
  3 23  1  0  0  0  0
  3 24  1  0  0  0  0
  4  2  1  0  0  0  0
  4 25  1  0  0  0  0
  4 26  1  0  0  0  0
  5 27  1  0  0  0  0
  6 28  1  0  0  0  0
  7  1  1  0  0  0  0
  7  5  2  0  0  0  0
  8  3  1  0  0  0  0
  8  5  1  0  0  0  0
  9  6  2  0  0  0  0
  9  7  1  0  0  0  0
 10  6  1  0  0  0  0
 10  8  2  0  0  0  0
 11 29  1  0  0  0  0
 11 30  1  0  0  0  0
 16  4  1  0  0  0  0
 16 10  1  0  0  0  0
 16 12  2  0  0  0  0
 16 13  2  0  0  0  0
 17  9  1  0  0  0  0
 17 11  1  0  0  0  0
 17 14  2  0  0  0  0
 17 15  2  0  0  0  0
M  END
>  <DRUGBANK_ID>
DB13284

>  <COMMON_NAME>
Meticrane

>  <CAS_NUMBER>
1084-65-7

>  <UNII>
I7EKN1924Q

>  <SYNONYMS>
Meticrane

$$$$
