DZG
 OpenBabel10282417163D

 52 55  0  0  0  0  0  0  0  0999 V2000
    1.0307    0.0685    0.0051 C   0  0  0  0  0  0  0  0  0  0  0  0
    0.5468   -0.1949   -1.3133 O   0  0  0  0  0  0  0  0  0  0  0  0
    0.9682    0.7616   -2.1961 C   0  0  0  0  0  0  0  0  0  0  0  0
    0.0025    1.3875   -2.9697 C   0  0  0  0  0  0  0  0  0  0  0  0
    0.3795    2.4539   -3.7964 C   0  0  0  0  0  0  0  0  0  0  0  0
    2.3141    1.1075   -2.3465 C   0  0  0  0  0  0  0  0  0  0  0  0
    2.7095    2.0645   -3.2873 C   0  0  0  0  0  0  0  0  0  0  0  0
    1.7432    2.7199   -4.0537 C   0  0  0  0  0  0  0  0  0  0  0  0
    2.2949    3.8614   -5.3625 S   0  0  0  0  0  0  0  0  0  0  0  0
    3.7182    4.0029   -5.2058 O   0  0  0  0  0  0  0  0  0  0  0  0
    1.4090    5.0155   -5.2673 O   0  0  0  0  0  0  0  0  0  0  0  0
    2.0582    3.1620   -6.9263 N   0  0  0  0  0  0  0  0  0  0  0  0
    0.6481    2.9405   -7.3868 C   0  0  0  0  0  0  0  0  0  0  0  0
    0.1506    1.6555   -6.7338 C   0  0  0  0  0  0  0  0  0  0  0  0
    2.9311    1.9994   -7.3057 C   0  0  0  0  0  0  0  0  0  0  0  0
    2.4322    0.7244   -6.6210 C   0  0  0  0  0  0  0  0  0  0  0  0
    0.9917    0.4510   -6.9624 N   0  0  0  0  0  0  0  0  0  0  0  0
    0.6296   -0.2117   -8.4576 S   0  0  0  0  0  0  0  0  0  0  0  0
    1.0855    0.7366   -9.4482 O   0  0  0  0  0  0  0  0  0  0  0  0
   -0.7595   -0.6186   -8.4219 O   0  0  0  0  0  0  0  0  0  0  0  0
    1.6559   -1.6396   -8.5499 C   0  0  0  0  0  0  0  0  0  0  0  0
    1.5877   -2.6905   -7.6246 C   0  0  0  0  0  0  0  0  0  0  0  0
    2.4403   -3.7873   -7.8099 C   0  0  0  0  0  0  0  0  0  0  0  0
    2.6313   -4.6804   -6.7779 O   0  0  0  0  0  0  0  0  0  0  0  0
    3.6807   -5.6379   -7.0677 C   0  0  0  0  0  0  0  0  0  0  0  0
    3.5121   -6.1458   -8.4868 C   0  0  0  0  0  0  0  0  0  0  0  0
    3.7694   -5.0748   -9.4011 O   0  0  0  0  0  0  0  0  0  0  0  0
    3.1195   -3.9284   -9.0254 C   0  0  0  0  0  0  0  0  0  0  0  0
    3.2067   -2.8586   -9.9059 C   0  0  0  0  0  0  0  0  0  0  0  0
    2.5664   -1.6703   -9.6049 C   0  0  0  0  0  0  0  0  0  0  0  0
    0.6405   -0.7018    0.6747 H   0  0  0  0  0  0  0  0  0  0  0  0
    0.6794    1.0456    0.3561 H   0  0  0  0  0  0  0  0  0  0  0  0
    2.1223    0.0173    0.0565 H   0  0  0  0  0  0  0  0  0  0  0  0
   -1.0352    1.0560   -2.9335 H   0  0  0  0  0  0  0  0  0  0  0  0
   -0.4118    2.9351   -4.3732 H   0  0  0  0  0  0  0  0  0  0  0  0
    3.0772    0.6172   -1.7515 H   0  0  0  0  0  0  0  0  0  0  0  0
    3.7692    2.2619   -3.4243 H   0  0  0  0  0  0  0  0  0  0  0  0
    0.0292    3.7979   -7.0992 H   0  0  0  0  0  0  0  0  0  0  0  0
    0.5879    2.8931   -8.4796 H   0  0  0  0  0  0  0  0  0  0  0  0
    0.3574    1.7883   -5.7163 H   0  0  0  0  0  0  0  0  0  0  0  0
   -0.9284    1.4953   -6.7469 H   0  0  0  0  0  0  0  0  0  0  0  0
    2.8991    1.8639   -8.3927 H   0  0  0  0  0  0  0  0  0  0  0  0
    3.9798    2.2041   -7.0766 H   0  0  0  0  0  0  0  0  0  0  0  0
    2.5095    0.8431   -5.5401 H   0  0  0  0  0  0  0  0  0  0  0  0
    3.0651   -0.1422   -6.8190 H   0  0  0  0  0  0  0  0  0  0  0  0
    0.9113   -2.6342   -6.7742 H   0  0  0  0  0  0  0  0  0  0  0  0
    3.5895   -6.4661   -6.3577 H   0  0  0  0  0  0  0  0  0  0  0  0
    4.6759   -5.1880   -6.9244 H   0  0  0  0  0  0  0  0  0  0  0  0
    2.4957   -6.5300   -8.6398 H   0  0  0  0  0  0  0  0  0  0  0  0
    4.2201   -6.9481   -8.7155 H   0  0  0  0  0  0  0  0  0  0  0  0
    3.7878   -2.9387  -10.8170 H   0  0  0  0  0  0  0  0  0  0  0  0
    2.7496   -0.7891  -10.2157 H   0  0  0  0  0  0  0  0  0  0  0  0
  1 31  1  0  0  0  0
  1 32  1  0  0  0  0
  1 33  1  0  0  0  0
  2  1  1  0  0  0  0
  2  3  1  0  0  0  0
  3  6  1  0  0  0  0
  4  3  2  0  0  0  0
  4  5  1  0  0  0  0
  4 34  1  0  0  0  0
  5  8  2  0  0  0  0
  5 35  1  0  0  0  0
  6  7  2  0  0  0  0
  6 36  1  0  0  0  0
  7 37  1  0  0  0  0
  8  7  1  0  0  0  0
  8  9  1  0  0  0  0
  9 12  1  0  0  0  0
  9 11  2  0  0  0  0
 10  9  2  0  0  0  0
 12 13  1  0  0  0  0
 13 14  1  0  0  0  0
 13 38  1  0  0  0  0
 13 39  1  0  0  0  0
 14 40  1  0  0  0  0
 14 41  1  0  0  0  0
 15 12  1  0  0  0  0
 15 16  1  0  0  0  0
 15 42  1  0  0  0  0
 15 43  1  0  0  0  0
 16 17  1  0  0  0  0
 16 44  1  0  0  0  0
 16 45  1  0  0  0  0
 17 14  1  0  0  0  0
 17 18  1  0  0  0  0
 18 19  2  0  0  0  0
 18 21  1  0  0  0  0
 20 18  2  0  0  0  0
 21 22  1  0  0  0  0
 22 23  2  0  0  0  0
 22 46  1  0  0  0  0
 23 24  1  0  0  0  0
 24 25  1  0  0  0  0
 25 47  1  0  0  0  0
 25 48  1  0  0  0  0
 26 25  1  0  0  0  0
 26 49  1  0  0  0  0
 26 50  1  0  0  0  0
 27 26  1  0  0  0  0
 28 23  1  0  0  0  0
 28 27  1  0  0  0  0
 29 28  2  0  0  0  0
 29 51  1  0  0  0  0
 30 21  2  0  0  0  0
 30 29  1  0  0  0  0
 30 52  1  0  0  0  0
M  END
>  <DRUGBANK_ID>
DB07697

>  <COMMON_NAME>
1-(2,3-dihydro-1,4-benzodioxin-6-ylsulfonyl)-4-[(4-methoxyphenyl)sulfonyl]piperazine

$$$$
