
 OpenBabel10282417203D

 49 51  0  0  0  0  0  0  0  0999 V2000
    1.0579   -0.0465   -0.2591 C   0  0  0  0  0  0  0  0  0  0  0  0
    0.6673   -0.1582    1.1823 C   0  0  0  0  0  0  0  0  0  0  0  0
    5.0001    0.6025    7.1112 C   0  0  0  0  0  0  0  0  0  0  0  0
   -0.3936   -3.1803    3.4239 C   0  0  0  0  0  0  0  0  0  0  0  0
    4.4449   -0.5737    6.6696 C   0  0  0  0  0  0  0  0  0  0  0  0
    4.3820    1.7999    6.7754 C   0  0  0  0  0  0  0  0  0  0  0  0
   -1.1259   -2.0129    3.2036 C   0  0  0  0  0  0  0  0  0  0  0  0
    0.7301   -3.1250    4.2101 C   0  0  0  0  0  0  0  0  0  0  0  0
    3.1067    2.2093    3.0113 C   0  0  0  0  0  0  0  0  0  0  0  0
    3.3122   -0.5138    5.8716 C   0  0  0  0  0  0  0  0  0  0  0  0
    3.0817    1.8008    6.2377 C   0  0  0  0  0  0  0  0  0  0  0  0
   -0.7127   -0.7785    3.7516 C   0  0  0  0  0  0  0  0  0  0  0  0
    0.9818   -1.9446    4.8904 C   0  0  0  0  0  0  0  0  0  0  0  0
    2.3159    3.4901    2.8995 C   0  0  0  0  0  0  0  0  0  0  0  0
    2.6399    1.0510    2.1048 C   0  0  0  0  0  0  0  0  0  0  0  0
    0.4727    2.2039    1.7690 C   0  0  0  0  0  0  0  0  0  0  0  0
    2.4650    0.6086    5.7974 C   0  0  0  0  0  0  0  0  0  0  0  0
    0.3967   -0.7114    4.6035 C   0  0  0  0  0  0  0  0  0  0  0  0
    0.8120    3.1910    2.8853 C   0  0  3  0  0  0  0  0  0  0  0  0
    1.1160    0.6191    4.9684 C   0  0  0  0  0  0  0  0  0  0  0  0
    0.2205    1.8373    5.1255 C   0  0  0  0  0  0  0  0  0  0  0  0
    1.1778    0.9544    1.9664 N   0  0  0  0  0  0  0  0  0  0  0  0
   -0.5282    1.9377    6.1262 O   0  0  0  0  0  0  0  0  0  0  0  0
    0.2141    2.8568    4.2168 O   0  0  0  0  0  0  0  0  0  0  0  0
    0.6772    0.8909   -0.6703 H   0  0  0  0  0  0  0  0  0  0  0  0
    0.6326   -0.8780   -0.8212 H   0  0  0  0  0  0  0  0  0  0  0  0
    2.1440   -0.0746   -0.3455 H   0  0  0  0  0  0  0  0  0  0  0  0
   -0.4308   -0.1895    1.2285 H   0  0  0  0  0  0  0  0  0  0  0  0
    1.0203   -1.1122    1.5930 H   0  0  0  0  0  0  0  0  0  0  0  0
    5.9362    0.5775    7.6553 H   0  0  0  0  0  0  0  0  0  0  0  0
   -0.7237   -4.1410    3.0460 H   0  0  0  0  0  0  0  0  0  0  0  0
    4.9070   -1.5385    6.8552 H   0  0  0  0  0  0  0  0  0  0  0  0
    4.9164    2.7347    6.9224 H   0  0  0  0  0  0  0  0  0  0  0  0
   -1.9883   -2.0529    2.5451 H   0  0  0  0  0  0  0  0  0  0  0  0
    1.3638   -3.9879    4.3949 H   0  0  0  0  0  0  0  0  0  0  0  0
    4.1939    2.3157    3.0342 H   0  0  0  0  0  0  0  0  0  0  0  0
    2.9215    1.9675    4.0256 H   0  0  0  0  0  0  0  0  0  0  0  0
    3.1965   -1.4017    5.2650 H   0  0  0  0  0  0  0  0  0  0  0  0
    2.6399    2.7740    6.0214 H   0  0  0  0  0  0  0  0  0  0  0  0
   -1.2229    0.1260    3.4212 H   0  0  0  0  0  0  0  0  0  0  0  0
    1.6188   -2.0471    5.7488 H   0  0  0  0  0  0  0  0  0  0  0  0
    2.5396    4.1452    3.7496 H   0  0  0  0  0  0  0  0  0  0  0  0
    2.6345    3.9959    1.9827 H   0  0  0  0  0  0  0  0  0  0  0  0
    3.1331    1.1546    1.1420 H   0  0  0  0  0  0  0  0  0  0  0  0
    2.9928    0.1112    2.5612 H   0  0  0  0  0  0  0  0  0  0  0  0
   -0.6123    2.0453    1.7557 H   0  0  0  0  0  0  0  0  0  0  0  0
    0.7643    2.6289    0.8014 H   0  0  0  0  0  0  0  0  0  0  0  0
    0.3170    4.1345    2.6152 H   0  0  0  0  0  0  0  0  0  0  0  0
    1.5170    0.8100    4.0176 H   0  0  0  0  0  0  0  0  0  0  0  0
  1 25  1  0  0  0  0
  1 26  1  0  0  0  0
  1 27  1  0  0  0  0
  2  1  1  0  0  0  0
  2 28  1  0  0  0  0
  2 29  1  0  0  0  0
  3 30  1  0  0  0  0
  4 31  1  0  0  0  0
  5  3  2  0  0  0  0
  5 32  1  0  0  0  0
  6  3  1  0  0  0  0
  6 33  1  0  0  0  0
  7  4  2  0  0  0  0
  7 34  1  0  0  0  0
  8  4  1  0  0  0  0
  8 35  1  0  0  0  0
  9 36  1  0  0  0  0
  9 37  1  0  0  0  0
 10  5  1  0  0  0  0
 10 38  1  0  0  0  0
 11  6  2  0  0  0  0
 11 39  1  0  0  0  0
 12  7  1  0  0  0  0
 12 40  1  0  0  0  0
 13  8  2  0  0  0  0
 13 41  1  0  0  0  0
 14  9  1  0  0  0  0
 14 42  1  0  0  0  0
 14 43  1  0  0  0  0
 15  9  1  0  0  0  0
 15 44  1  0  0  0  0
 15 45  1  0  0  0  0
 16 46  1  0  0  0  0
 16 47  1  0  0  0  0
 17 10  2  0  0  0  0
 17 11  1  0  0  0  0
 18 12  2  0  0  0  0
 18 13  1  0  0  0  0
 19 14  1  0  0  0  0
 19 16  1  0  0  0  0
 19 48  1  0  0  0  0
 20 17  1  0  0  0  0
 20 18  1  0  0  0  0
 20 49  1  0  0  0  0
 21 20  1  0  0  0  0
 22  2  1  0  0  0  0
 22 15  1  0  0  0  0
 22 16  1  0  0  0  0
 23 21  2  0  0  0  0
 24 19  1  0  0  0  0
 24 21  1  0  0  0  0
M  END
>  <DRUGBANK_ID>
DB13351

>  <COMMON_NAME>
Piperidolate

>  <CAS_NUMBER>
82-98-4

>  <UNII>
RJO31255V9

>  <SYNONYMS>
Piperidolate

$$$$
