31U
 OpenBabel10282417163D

 55 56  0  0  0  0  0  0  0  0999 V2000
   -3.9992    0.5133   -1.7704 N   0  0  0  0  0  0  0  0  0  0  0  0
   -3.8831    1.9893   -1.7465 C   0  0  2  0  0  0  0  0  0  0  0  0
   -4.3589    2.7905   -0.5470 C   0  0  0  0  0  0  0  0  0  0  0  0
   -4.0286    3.9686   -0.3587 O   0  0  0  0  0  0  0  0  0  0  0  0
   -5.2243    2.1423    0.2663 N   0  0  0  0  0  0  0  0  0  0  0  0
   -5.4090    2.5714    1.6195 C   0  0  0  0  0  0  0  0  0  0  0  0
   -6.6367    1.9127    2.1672 C   0  0  0  0  0  0  0  0  0  0  0  0
   -6.9641    0.5484    2.0235 C   0  0  0  0  0  0  0  0  0  0  0  0
   -8.2141    0.0780    2.4291 C   0  0  0  0  0  0  0  0  0  0  0  0
   -9.1329    0.9568    3.0130 C   0  0  0  0  0  0  0  0  0  0  0  0
  -10.5295    0.5134    3.3085 C   0  0  0  0  0  0  0  0  0  0  0  0
  -11.4407    1.3014    3.7897 N   0  0  0  0  0  0  0  0  0  0  0  0
  -10.9392   -0.7554    3.0595 N   0  0  0  0  0  0  0  0  0  0  0  0
   -8.7462    2.2795    3.2591 C   0  0  0  0  0  0  0  0  0  0  0  0
   -7.5287    2.7579    2.8071 C   0  0  0  0  0  0  0  0  0  0  0  0
   -4.7995    2.3891   -2.9065 C   0  0  0  0  0  0  0  0  0  0  0  0
   -4.5051    1.3478   -3.9668 C   0  0  0  0  0  0  0  0  0  0  0  0
   -4.1723    0.0859   -3.1667 C   0  0  0  0  0  0  0  0  0  0  0  0
   -3.7269   -0.4524   -0.7929 C   0  0  0  0  0  0  0  0  0  0  0  0
   -3.2756   -0.0123    0.6407 C   0  0  2  0  0  0  0  0  0  0  0  0
   -2.1526    0.9320    0.5998 N   0  0  0  0  0  0  0  0  0  0  0  0
   -3.1175   -1.1193    1.6919 C   0  0  0  0  0  0  0  0  0  0  0  0
   -2.8886   -0.5715    3.1334 C   0  0  0  0  0  0  0  0  0  0  0  0
   -4.0825    0.1554    3.7371 C   0  0  0  0  0  0  0  0  0  0  0  0
   -2.5924   -1.7037    4.0888 C   0  0  0  0  0  0  0  0  0  0  0  0
   -3.9620   -1.6427   -1.0240 O   0  0  0  0  0  0  0  0  0  0  0  0
   -2.8390    2.2469   -1.9553 H   0  0  0  0  0  0  0  0  0  0  0  0
   -4.1187    0.4842    1.0704 H   0  0  0  0  0  0  0  0  0  0  0  0
   -5.4726    1.1908    0.0168 H   0  0  0  0  0  0  0  0  0  0  0  0
   -4.5044    2.4133    2.2105 H   0  0  0  0  0  0  0  0  0  0  0  0
   -5.4703    3.6608    1.6402 H   0  0  0  0  0  0  0  0  0  0  0  0
   -6.2864   -0.1717    1.5671 H   0  0  0  0  0  0  0  0  0  0  0  0
   -8.4484   -0.9686    2.2595 H   0  0  0  0  0  0  0  0  0  0  0  0
  -11.0981    2.2473    3.9502 H   0  0  0  0  0  0  0  0  0  0  0  0
  -10.3977   -1.4471    2.5688 H   0  0  0  0  0  0  0  0  0  0  0  0
  -11.9257   -0.9381    3.1932 H   0  0  0  0  0  0  0  0  0  0  0  0
   -9.3738    2.9905    3.7772 H   0  0  0  0  0  0  0  0  0  0  0  0
   -7.2876    3.8132    2.9086 H   0  0  0  0  0  0  0  0  0  0  0  0
   -5.8555    2.3165   -2.6078 H   0  0  0  0  0  0  0  0  0  0  0  0
   -4.6251    3.4141   -3.2464 H   0  0  0  0  0  0  0  0  0  0  0  0
   -5.3488    1.2030   -4.6493 H   0  0  0  0  0  0  0  0  0  0  0  0
   -3.6474    1.6688   -4.5703 H   0  0  0  0  0  0  0  0  0  0  0  0
   -4.9494   -0.6788   -3.2472 H   0  0  0  0  0  0  0  0  0  0  0  0
   -3.2292   -0.3412   -3.5333 H   0  0  0  0  0  0  0  0  0  0  0  0
   -2.4883    1.8671    0.8418 H   0  0  0  0  0  0  0  0  0  0  0  0
   -1.7959    0.9999   -0.3515 H   0  0  0  0  0  0  0  0  0  0  0  0
   -4.0403   -1.7182    1.7016 H   0  0  0  0  0  0  0  0  0  0  0  0
   -2.3054   -1.7893    1.3953 H   0  0  0  0  0  0  0  0  0  0  0  0
   -2.0424    0.1266    3.1137 H   0  0  0  0  0  0  0  0  0  0  0  0
   -4.9698   -0.4728    3.8549 H   0  0  0  0  0  0  0  0  0  0  0  0
   -3.8560    0.6482    4.6888 H   0  0  0  0  0  0  0  0  0  0  0  0
   -4.3484    0.9371    3.0737 H   0  0  0  0  0  0  0  0  0  0  0  0
   -1.7422   -2.2878    3.7394 H   0  0  0  0  0  0  0  0  0  0  0  0
   -2.3703   -1.2980    5.0815 H   0  0  0  0  0  0  0  0  0  0  0  0
   -3.4704   -2.3533    4.1741 H   0  0  0  0  0  0  0  0  0  0  0  0
  1 19  1  0  0  0  0
  2  1  1  0  0  0  0
  2 27  1  6  0  0  0
  2  3  1  0  0  0  0
  3  5  1  0  0  0  0
  4  3  2  0  0  0  0
  5 29  1  0  0  0  0
  6  5  1  0  0  0  0
  6  7  1  0  0  0  0
  6 30  1  0  0  0  0
  6 31  1  0  0  0  0
  7  8  2  0  0  0  0
  7 15  1  0  0  0  0
  8  9  1  0  0  0  0
  8 32  1  0  0  0  0
  9 10  2  0  0  0  0
  9 33  1  0  0  0  0
 10 11  1  0  0  0  0
 11 12  2  0  0  0  0
 11 13  1  0  0  0  0
 12 34  1  0  0  0  0
 13 35  1  0  0  0  0
 13 36  1  0  0  0  0
 14 10  1  0  0  0  0
 14 37  1  0  0  0  0
 15 14  2  0  0  0  0
 15 38  1  0  0  0  0
 16  2  1  0  0  0  0
 16 17  1  0  0  0  0
 16 39  1  0  0  0  0
 16 40  1  0  0  0  0
 17 18  1  0  0  0  0
 17 41  1  0  0  0  0
 17 42  1  0  0  0  0
 18  1  1  0  0  0  0
 18 43  1  0  0  0  0
 18 44  1  0  0  0  0
 19 26  2  0  0  0  0
 20 22  1  0  0  0  0
 20 28  1  1  0  0  0
 20 21  1  0  0  0  0
 20 19  1  0  0  0  0
 21 45  1  0  0  0  0
 21 46  1  0  0  0  0
 22 23  1  0  0  0  0
 22 47  1  0  0  0  0
 22 48  1  0  0  0  0
 23 24  1  0  0  0  0
 23 49  1  0  0  0  0
 24 50  1  0  0  0  0
 24 51  1  0  0  0  0
 24 52  1  0  0  0  0
 25 23  1  0  0  0  0
 25 53  1  0  0  0  0
 25 54  1  0  0  0  0
 25 55  1  0  0  0  0
M  END
>  <DRUGBANK_ID>
DB06996

>  <COMMON_NAME>
D-leucyl-N-(4-carbamimidoylbenzyl)-L-prolinamide

$$$$
