
 OpenBabel10282417153D

 47 49  0  0  0  0  0  0  0  0999 V2000
   -0.2401    1.1168   -6.8046 S   0  0  0  0  0  0  0  0  0  0  0  0
   -6.3709    5.0790   -5.6390 O   0  0  0  0  0  0  0  0  0  0  0  0
   -2.2043    2.6332   -3.5260 N   0  0  0  0  0  0  0  0  0  0  0  0
   -5.6548    3.5962   -3.8328 C   0  0  0  0  0  0  0  0  0  0  0  0
   -5.5716    2.2474   -3.4015 C   0  0  0  0  0  0  0  0  0  0  0  0
   -3.2281    2.7610   -2.4320 C   0  0  2  0  0  0  0  0  0  0  0  0
   -4.4680    1.7951   -2.4409 C   0  0  0  0  0  0  0  0  0  0  0  0
   -6.4358    3.8769   -4.9786 C   0  0  0  0  0  0  0  0  0  0  0  0
   -4.7313    4.6550   -3.2595 C   0  0  0  0  0  0  0  0  0  0  0  0
   -3.8230    4.1514   -2.1411 C   0  0  0  0  0  0  0  0  0  0  0  0
   -6.3366    1.2513   -4.0614 C   0  0  0  0  0  0  0  0  0  0  0  0
   -7.1255    2.8722   -5.6653 C   0  0  0  0  0  0  0  0  0  0  0  0
   -1.8634    3.7669   -4.4025 C   0  0  0  0  0  0  0  0  0  0  0  0
   -7.0636    1.5559   -5.2156 C   0  0  0  0  0  0  0  0  0  0  0  0
   -2.2838    1.4093   -4.2921 C   0  0  0  0  0  0  0  0  0  0  0  0
   -0.9856    2.6946   -6.8090 C   0  0  0  0  0  0  0  0  0  0  0  0
   -0.8760    3.7371   -5.6639 C   0  0  0  0  0  0  0  0  0  0  0  0
   -1.5392    2.8317   -8.0923 C   0  0  0  0  0  0  0  0  0  0  0  0
   -3.4159    1.2407   -5.3341 C   0  0  0  0  0  0  0  0  0  0  0  0
   -1.4722    0.5213   -7.8584 C   0  0  0  0  0  0  0  0  0  0  0  0
   -1.9030    1.5417   -8.6411 C   0  0  0  0  0  0  0  0  0  0  0  0
   -3.9952    2.3738   -6.1872 C   0  0  0  0  0  0  0  0  0  0  0  0
   -5.6200    5.5926   -5.3050 H   0  0  0  0  0  0  0  0  0  0  0  0
   -2.6696    2.4780   -1.5232 H   0  0  0  0  0  0  0  0  0  0  0  0
   -4.1348    0.7712   -2.6574 H   0  0  0  0  0  0  0  0  0  0  0  0
   -4.8964    1.7140   -1.4344 H   0  0  0  0  0  0  0  0  0  0  0  0
   -5.3205    5.5054   -2.9094 H   0  0  0  0  0  0  0  0  0  0  0  0
   -4.1105    5.0797   -4.0512 H   0  0  0  0  0  0  0  0  0  0  0  0
   -4.4461    4.0736   -1.2381 H   0  0  0  0  0  0  0  0  0  0  0  0
   -3.0391    4.8760   -1.8989 H   0  0  0  0  0  0  0  0  0  0  0  0
   -6.1732    0.1968   -3.8291 H   0  0  0  0  0  0  0  0  0  0  0  0
   -7.5659    3.0899   -6.6365 H   0  0  0  0  0  0  0  0  0  0  0  0
   -1.5552    4.6113   -3.7678 H   0  0  0  0  0  0  0  0  0  0  0  0
   -2.7807    4.0950   -4.8452 H   0  0  0  0  0  0  0  0  0  0  0  0
   -7.4412    0.7536   -5.8486 H   0  0  0  0  0  0  0  0  0  0  0  0
   -1.3017    1.3122   -4.7112 H   0  0  0  0  0  0  0  0  0  0  0  0
   -2.2697    0.5295   -3.6360 H   0  0  0  0  0  0  0  0  0  0  0  0
    0.1574    3.8255   -5.3245 H   0  0  0  0  0  0  0  0  0  0  0  0
   -1.1231    4.6924   -6.1577 H   0  0  0  0  0  0  0  0  0  0  0  0
   -1.9368    3.7583   -8.4702 H   0  0  0  0  0  0  0  0  0  0  0  0
   -3.2040    0.4013   -5.9905 H   0  0  0  0  0  0  0  0  0  0  0  0
   -4.2247    0.8175   -4.7722 H   0  0  0  0  0  0  0  0  0  0  0  0
   -1.7553   -0.5393   -7.8937 H   0  0  0  0  0  0  0  0  0  0  0  0
   -2.5847    1.4093   -9.4910 H   0  0  0  0  0  0  0  0  0  0  0  0
   -3.4298    2.6843   -7.0338 H   0  0  0  0  0  0  0  0  0  0  0  0
   -4.9249    2.0599   -6.6560 H   0  0  0  0  0  0  0  0  0  0  0  0
   -4.1745    3.3125   -5.6882 H   0  0  0  0  0  0  0  0  0  0  0  0
  1 16  1  0  0  0  0
  1 20  1  0  0  0  0
  2  8  1  0  0  0  0
  2 23  1  0  0  0  0
  3 13  1  0  0  0  0
  3 15  1  0  0  0  0
  4  5  1  0  0  0  0
  4  8  2  0  0  0  0
  4  9  1  0  0  0  0
  5  7  1  0  0  0  0
  5 11  2  0  0  0  0
  6  7  1  0  0  0  0
  6 10  1  0  0  0  0
  6 24  1  1  0  0  0
  6  3  1  0  0  0  0
  7 25  1  0  0  0  0
  7 26  1  0  0  0  0
  8 12  1  0  0  0  0
  9 10  1  0  0  0  0
  9 27  1  0  0  0  0
  9 28  1  0  0  0  0
 10 29  1  0  0  0  0
 10 30  1  0  0  0  0
 11 14  1  0  0  0  0
 11 31  1  0  0  0  0
 12 14  2  0  0  0  0
 12 32  1  0  0  0  0
 13 17  1  0  0  0  0
 13 33  1  0  0  0  0
 13 34  1  0  0  0  0
 14 35  1  0  0  0  0
 15 19  1  0  0  0  0
 15 36  1  0  0  0  0
 15 37  1  0  0  0  0
 16 17  1  0  0  0  0
 16 18  2  0  0  0  0
 17 38  1  0  0  0  0
 17 39  1  0  0  0  0
 18 21  1  0  0  0  0
 18 40  1  0  0  0  0
 19 22  1  0  0  0  0
 19 41  1  0  0  0  0
 19 42  1  0  0  0  0
 20 21  2  0  0  0  0
 20 43  1  0  0  0  0
 21 44  1  0  0  0  0
 22 45  1  0  0  0  0
 22 46  1  0  0  0  0
 22 47  1  0  0  0  0
M  END
>  <DRUGBANK_ID>
DB05271

>  <COMMON_NAME>
Rotigotine

>  <CAS_NUMBER>
99755-59-6

>  <UNII>
87T4T8BO2E

>  <SYNONYMS>
(6S)-6-(propyl(2-(2-thienyl)ethyl)amino)-5,6,7,8-tetrahydro-1-naphthalenol; Rotigotina; Rotigotine

$$$$
