
 OpenBabel10282417143D

 75 78  0  0  0  0  0  0  0  0999 V2000
   10.8669   -2.7403    5.1016 C   0  0  0  0  0  0  0  0  0  0  0  0
   10.8243   -4.1187    5.3197 C   0  0  0  0  0  0  0  0  0  0  0  0
   11.0587   -4.9972    4.2688 C   0  0  0  0  0  0  0  0  0  0  0  0
   11.3124   -4.5024    2.9893 C   0  0  0  0  0  0  0  0  0  0  0  0
   11.3372   -3.1296    2.7551 C   0  0  0  0  0  0  0  0  0  0  0  0
   11.1530   -2.2510    3.8156 C   0  0  0  0  0  0  0  0  0  0  0  0
   10.5377   -1.8186    6.1747 C   0  0  0  0  0  0  0  0  0  0  0  0
    9.9081    0.0753    8.1624 C   0  0  0  0  0  0  0  0  0  0  0  0
   10.9411   -0.8423    8.3704 C   0  0  0  0  0  0  0  0  0  0  0  0
   11.2503   -1.7816    7.3813 C   0  0  0  0  0  0  0  0  0  0  0  0
    9.4818   -0.9390    5.9875 C   0  0  0  0  0  0  0  0  0  0  0  0
    9.2067    0.0098    6.9486 C   0  0  0  0  0  0  0  0  0  0  0  0
    9.5037    1.0685    9.2334 C   0  0  0  0  0  0  0  0  0  0  0  0
   10.0509    4.5178   10.1232 C   0  0  0  0  0  0  0  0  0  0  0  0
   10.6536    3.2956    9.4271 C   0  0  0  0  0  0  0  0  0  0  0  0
    8.7331    2.9367    7.8470 C   0  0  0  0  0  0  0  0  0  0  0  0
    8.6178    5.3155    8.1548 C   0  0  0  0  0  0  0  0  0  0  0  0
    9.7008    5.6460    9.1637 C   0  0  0  0  0  0  0  0  0  0  0  0
    9.6416    2.4558    8.7844 N   0  0  0  0  0  0  0  0  0  0  0  0
    7.6587    2.3702    7.6108 O   0  0  0  0  0  0  0  0  0  0  0  0
    9.0452    4.2633    7.1410 C   0  0  2  0  0  0  0  0  0  0  0  0
    8.2785    4.3185    5.8744 N   0  0  0  0  0  0  0  0  0  0  0  0
    7.9515    5.4818    5.1990 C   0  0  0  0  0  0  0  0  0  0  0  0
    8.2821    6.6036    5.5872 O   0  0  0  0  0  0  0  0  0  0  0  0
    7.1627    5.3299    3.8836 C   0  0  1  0  0  0  0  0  0  0  0  0
    6.8805    6.6708    3.3180 N   0  0  0  0  0  0  0  0  0  0  0  0
    5.6136    7.1741    3.1811 C   0  0  0  0  0  0  0  0  0  0  0  0
    5.5195    8.5832    2.6511 C   0  0  0  0  0  0  0  0  0  0  0  0
    4.5932    6.5205    3.4248 O   0  0  0  0  0  0  0  0  0  0  0  0
    8.0005    4.5205    2.8815 C   0  0  0  0  0  0  0  0  0  0  0  0
    7.0920    3.6731    2.0357 C   0  0  0  0  0  0  0  0  0  0  0  0
    5.1320    2.1562    0.7135 C   0  0  0  0  0  0  0  0  0  0  0  0
    5.9034    1.6120    1.7509 C   0  0  0  0  0  0  0  0  0  0  0  0
    6.8835    2.3483    2.3979 C   0  0  0  0  0  0  0  0  0  0  0  0
    6.3302    4.2317    0.9997 C   0  0  0  0  0  0  0  0  0  0  0  0
    5.3230    3.4897    0.3713 C   0  0  0  0  0  0  0  0  0  0  0  0
    4.2135    1.4251   -0.0315 O   0  0  0  0  0  0  0  0  0  0  0  0
    4.0049   -0.2603    0.2986 P   0  0  0  0  0  0  0  0  0  0  0  0
    3.5494   -0.0533    1.7413 O   0  0  0  0  0  0  0  0  0  0  0  0
    5.5989   -0.5798    0.1828 O   0  0  0  0  0  0  0  0  0  0  0  0
    3.7963   -1.9456    0.6287 O   0  0  0  0  0  0  0  0  0  0  0  0
   10.5827   -4.5030    6.3081 H   0  0  0  0  0  0  0  0  0  0  0  0
   11.0200   -6.0665    4.4494 H   0  0  0  0  0  0  0  0  0  0  0  0
   11.4892   -5.1915    2.1699 H   0  0  0  0  0  0  0  0  0  0  0  0
   11.4880   -2.7422    1.7517 H   0  0  0  0  0  0  0  0  0  0  0  0
   11.2176   -1.1776    3.6400 H   0  0  0  0  0  0  0  0  0  0  0  0
   11.5170   -0.8396    9.2922 H   0  0  0  0  0  0  0  0  0  0  0  0
   12.0571   -2.4905    7.5486 H   0  0  0  0  0  0  0  0  0  0  0  0
    8.8546   -0.9793    5.0984 H   0  0  0  0  0  0  0  0  0  0  0  0
    8.4081    0.6845    6.6883 H   0  0  0  0  0  0  0  0  0  0  0  0
    8.4623    0.8800    9.5199 H   0  0  0  0  0  0  0  0  0  0  0  0
   10.1027    0.9079   10.1394 H   0  0  0  0  0  0  0  0  0  0  0  0
   10.7872    4.9194   10.8301 H   0  0  0  0  0  0  0  0  0  0  0  0
    9.1672    4.2364   10.7097 H   0  0  0  0  0  0  0  0  0  0  0  0
   11.3933    3.5910    8.6774 H   0  0  0  0  0  0  0  0  0  0  0  0
   11.1839    2.7068   10.1859 H   0  0  0  0  0  0  0  0  0  0  0  0
    8.3738    6.2604    7.6832 H   0  0  0  0  0  0  0  0  0  0  0  0
    7.6970    4.9957    8.6595 H   0  0  0  0  0  0  0  0  0  0  0  0
   10.6026    5.9726    8.6317 H   0  0  0  0  0  0  0  0  0  0  0  0
    9.3470    6.5048    9.7439 H   0  0  0  0  0  0  0  0  0  0  0  0
   10.1063    4.3002    6.8636 H   0  0  0  0  0  0  0  0  0  0  0  0
    8.0108    3.4163    5.4880 H   0  0  0  0  0  0  0  0  0  0  0  0
    6.2115    4.8392    4.1326 H   0  0  0  0  0  0  0  0  0  0  0  0
    7.6609    7.3183    3.3120 H   0  0  0  0  0  0  0  0  0  0  0  0
    4.9965    8.5662    1.6891 H   0  0  0  0  0  0  0  0  0  0  0  0
    4.9478    9.1974    3.3536 H   0  0  0  0  0  0  0  0  0  0  0  0
    6.4996    9.0444    2.5020 H   0  0  0  0  0  0  0  0  0  0  0  0
    8.6012    5.1778    2.2424 H   0  0  0  0  0  0  0  0  0  0  0  0
    8.7219    3.8654    3.3851 H   0  0  0  0  0  0  0  0  0  0  0  0
    5.7724    0.5958    2.1089 H   0  0  0  0  0  0  0  0  0  0  0  0
    7.4494    1.8735    3.1956 H   0  0  0  0  0  0  0  0  0  0  0  0
    6.4933    5.2655    0.7061 H   0  0  0  0  0  0  0  0  0  0  0  0
    4.6805    3.9697   -0.3595 H   0  0  0  0  0  0  0  0  0  0  0  0
    5.8657   -0.7825   -0.7296 H   0  0  0  0  0  0  0  0  0  0  0  0
    3.4817   -1.9322    1.5585 H   0  0  0  0  0  0  0  0  0  0  0  0
  1  2  2  0  0  0  0
  1  6  1  0  0  0  0
  1  7  1  0  0  0  0
  2  3  1  0  0  0  0
  2 42  1  0  0  0  0
  3  4  2  0  0  0  0
  3 43  1  0  0  0  0
  4  5  1  0  0  0  0
  4 44  1  0  0  0  0
  5  6  2  0  0  0  0
  5 45  1  0  0  0  0
  6 46  1  0  0  0  0
  7 10  1  0  0  0  0
  7 11  2  0  0  0  0
  8  9  1  0  0  0  0
  8 12  2  0  0  0  0
  8 13  1  0  0  0  0
  9 10  2  0  0  0  0
  9 47  1  0  0  0  0
 10 48  1  0  0  0  0
 11 12  1  0  0  0  0
 11 49  1  0  0  0  0
 12 50  1  0  0  0  0
 13 19  1  0  0  0  0
 13 51  1  0  0  0  0
 13 52  1  0  0  0  0
 14 15  1  0  0  0  0
 14 18  1  0  0  0  0
 14 53  1  0  0  0  0
 14 54  1  0  0  0  0
 15 19  1  0  0  0  0
 15 55  1  0  0  0  0
 15 56  1  0  0  0  0
 16 19  1  0  0  0  0
 16 21  1  0  0  0  0
 16 20  2  0  0  0  0
 17 21  1  0  0  0  0
 17 18  1  0  0  0  0
 17 57  1  0  0  0  0
 17 58  1  0  0  0  0
 18 59  1  0  0  0  0
 18 60  1  0  0  0  0
 21 61  1  6  0  0  0
 21 22  1  0  0  0  0
 22 23  1  0  0  0  0
 22 62  1  0  0  0  0
 23 24  2  0  0  0  0
 25 26  1  0  0  0  0
 25 63  1  1  0  0  0
 25 30  1  0  0  0  0
 25 23  1  0  0  0  0
 26 27  1  0  0  0  0
 26 64  1  0  0  0  0
 27 28  1  0  0  0  0
 27 29  2  0  0  0  0
 28 65  1  0  0  0  0
 28 66  1  0  0  0  0
 28 67  1  0  0  0  0
 30 31  1  0  0  0  0
 30 68  1  0  0  0  0
 30 69  1  0  0  0  0
 31 34  1  0  0  0  0
 31 35  2  0  0  0  0
 32 33  1  0  0  0  0
 32 36  2  0  0  0  0
 32 37  1  0  0  0  0
 33 34  2  0  0  0  0
 33 70  1  0  0  0  0
 34 71  1  0  0  0  0
 35 36  1  0  0  0  0
 35 72  1  0  0  0  0
 36 73  1  0  0  0  0
 37 38  1  0  0  0  0
 38 40  1  0  0  0  0
 38 39  2  0  0  0  0
 38 41  1  0  0  0  0
 40 74  1  0  0  0  0
 41 75  1  0  0  0  0
M  END
>  <DRUGBANK_ID>
DB04495

>  <SECONDARY_ACCESSION_NUMBERS>
EXPT00324

>  <COMMON_NAME>
Paratoulene phosphate

$$$$
