AIG
 OpenBabel10282417163D

 43 43  0  0  0  0  0  0  0  0999 V2000
    0.7252    1.1894   -0.5350 C   0  0  1  0  0  0  0  0  0  0  0  0
    1.1757    2.4179    0.1119 O   0  0  0  0  0  0  0  0  0  0  0  0
    1.4843   -0.0860   -0.0943 C   0  0  2  0  0  0  0  0  0  0  0  0
    2.8229   -0.1346   -0.6636 O   0  0  0  0  0  0  0  0  0  0  0  0
    0.7432   -1.3893   -0.4458 C   0  0  2  0  0  0  0  0  0  0  0  0
   -0.7901   -1.4192   -0.2222 C   0  0  1  0  0  0  0  0  0  0  0  0
   -1.1662   -2.0052    1.0281 O   0  0  0  0  0  0  0  0  0  0  0  0
   -1.4577   -0.1000   -0.6817 C   0  0  2  0  0  0  0  0  0  0  0  0
   -0.7094    1.1383   -0.6135 O   0  0  0  0  0  0  0  0  0  0  0  0
   -2.8569    0.0595   -0.0078 C   0  0  0  0  0  0  0  0  0  0  0  0
   -3.5156    1.2597   -0.3845 O   0  0  0  0  0  0  0  0  0  0  0  0
    1.4195   -2.5264    0.2030 N   0  0  0  0  0  0  0  0  0  0  0  0
    1.3171    2.5315    1.5351 C   0  0  0  0  0  0  0  0  0  0  0  0
   -0.0035    2.5940    2.3049 C   0  0  0  0  0  0  0  0  0  0  0  0
   -0.7256    1.2797    2.2793 C   0  0  0  0  0  0  0  0  0  0  0  0
    0.0944    0.1162    2.7950 C   0  0  0  0  0  0  0  0  0  0  0  0
   -0.1182   -0.1914    4.2330 C   0  0  0  0  0  0  0  0  0  0  0  0
   -1.5894   -0.3324    4.5371 C   0  0  0  0  0  0  0  0  0  0  0  0
    1.0354    1.3732   -1.5686 H   0  0  0  0  0  0  0  0  0  0  0  0
    1.7234   -0.0630    0.9565 H   0  0  0  0  0  0  0  0  0  0  0  0
    0.8768   -1.5157   -1.5242 H   0  0  0  0  0  0  0  0  0  0  0  0
   -1.1826   -2.1814   -0.9023 H   0  0  0  0  0  0  0  0  0  0  0  0
   -1.6424   -0.2119   -1.7526 H   0  0  0  0  0  0  0  0  0  0  0  0
    2.7653    0.0453   -1.6160 H   0  0  0  0  0  0  0  0  0  0  0  0
   -2.0414   -1.7079    1.3732 H   0  0  0  0  0  0  0  0  0  0  0  0
   -3.4964   -0.7868   -0.2803 H   0  0  0  0  0  0  0  0  0  0  0  0
   -2.8197    0.0650    1.0873 H   0  0  0  0  0  0  0  0  0  0  0  0
   -2.9605    1.9882   -0.0473 H   0  0  0  0  0  0  0  0  0  0  0  0
    2.4094   -2.5211   -0.0483 H   0  0  0  0  0  0  0  0  0  0  0  0
    1.0002   -3.4030   -0.0869 H   0  0  0  0  0  0  0  0  0  0  0  0
    2.0180    1.7889    1.9230 H   0  0  0  0  0  0  0  0  0  0  0  0
    1.8281    3.4803    1.7410 H   0  0  0  0  0  0  0  0  0  0  0  0
    0.1468    2.8627    3.3558 H   0  0  0  0  0  0  0  0  0  0  0  0
   -0.6484    3.3557    1.8511 H   0  0  0  0  0  0  0  0  0  0  0  0
   -1.7499    1.3748    2.6367 H   0  0  0  0  0  0  0  0  0  0  0  0
   -0.9206    1.0648    1.2707 H   0  0  0  0  0  0  0  0  0  0  0  0
   -0.1049   -0.7757    2.2277 H   0  0  0  0  0  0  0  0  0  0  0  0
    1.1635    0.2538    2.6863 H   0  0  0  0  0  0  0  0  0  0  0  0
    0.4140   -1.1253    4.4455 H   0  0  0  0  0  0  0  0  0  0  0  0
    0.3509    0.6124    4.8031 H   0  0  0  0  0  0  0  0  0  0  0  0
   -2.0208   -1.1648    3.9705 H   0  0  0  0  0  0  0  0  0  0  0  0
   -1.7224   -0.4850    5.6030 H   0  0  0  0  0  0  0  0  0  0  0  0
   -2.1576    0.5644    4.2824 H   0  0  0  0  0  0  0  0  0  0  0  0
  1  2  1  0  0  0  0
  1  3  1  0  0  0  0
  1  9  1  0  0  0  0
  1 19  1  6  0  0  0
  2 13  1  0  0  0  0
  3  4  1  0  0  0  0
  3  5  1  0  0  0  0
  3 20  1  1  0  0  0
  4 24  1  0  0  0  0
  5  6  1  0  0  0  0
  5 21  1  6  0  0  0
  5 12  1  0  0  0  0
  6  8  1  0  0  0  0
  6 22  1  6  0  0  0
  6  7  1  0  0  0  0
  7 25  1  0  0  0  0
  8  9  1  0  0  0  0
  8 23  1  6  0  0  0
  8 10  1  0  0  0  0
 10 11  1  0  0  0  0
 10 26  1  0  0  0  0
 10 27  1  0  0  0  0
 11 28  1  0  0  0  0
 12 29  1  0  0  0  0
 12 30  1  0  0  0  0
 13 14  1  0  0  0  0
 13 31  1  0  0  0  0
 13 32  1  0  0  0  0
 14 15  1  0  0  0  0
 14 33  1  0  0  0  0
 14 34  1  0  0  0  0
 15 16  1  0  0  0  0
 15 35  1  0  0  0  0
 15 36  1  0  0  0  0
 16 17  1  0  0  0  0
 16 37  1  0  0  0  0
 16 38  1  0  0  0  0
 17 18  1  0  0  0  0
 17 39  1  0  0  0  0
 17 40  1  0  0  0  0
 18 41  1  0  0  0  0
 18 42  1  0  0  0  0
 18 43  1  0  0  0  0
M  END
>  <DRUGBANK_ID>
DB07357

>  <COMMON_NAME>
4-AMINO-2-HEXYLOXY-6-HYDROXYMETHYL-TETRAHYDRO-PYRAN-3,5-DIOL

$$$$
