885
 OpenBabel10282417163D

 35 36  0  0  0  0  0  0  0  0999 V2000
    1.0732    0.0568   -0.1055 C   0  0  0  0  0  0  0  0  0  0  0  0
    0.6793    0.5216   -1.4873 C   0  0  0  0  0  0  0  0  0  0  0  0
    0.5344   -0.4391   -2.4866 C   0  0  0  0  0  0  0  0  0  0  0  0
    0.1369   -0.2607   -3.8085 C   0  0  0  0  0  0  0  0  0  0  0  0
    0.0664    1.0530   -4.2396 C   0  0  0  0  0  0  0  0  0  0  0  0
    0.2110    2.0771   -3.2610 C   0  0  0  0  0  0  0  0  0  0  0  0
    0.5507    1.8204   -1.9132 C   0  0  0  0  0  0  0  0  0  0  0  0
    0.9380    3.1221   -0.8562 Cl  0  0  0  0  0  0  0  0  0  0  0  0
   -0.2732    1.3976   -5.5481 N   0  0  0  0  0  0  0  0  0  0  0  0
   -0.1094   -1.6528   -4.9451 S   0  0  0  0  0  0  0  0  0  0  0  0
   -1.4253   -1.4920   -5.5501 O   0  0  0  0  0  0  0  0  0  0  0  0
    1.0697   -1.7003   -5.7706 O   0  0  0  0  0  0  0  0  0  0  0  0
   -0.1767   -3.1748   -4.0971 N   0  0  0  0  0  0  0  0  0  0  0  0
   -1.3655   -3.4063   -3.2260 C   0  0  0  0  0  0  0  0  0  0  0  0
   -0.8967   -2.9767   -1.8591 C   0  0  0  0  0  0  0  0  0  0  0  0
    0.5727   -3.4684   -1.8378 C   0  0  0  0  0  0  0  0  0  0  0  0
    1.0520   -3.5020   -3.3120 C   0  0  1  0  0  0  0  0  0  0  0  0
    1.7239   -4.8342   -3.5658 C   0  0  0  0  0  0  0  0  0  0  0  0
    0.9888   -5.7310   -4.2587 O   0  0  0  0  0  0  0  0  0  0  0  0
    2.8185   -5.1106   -3.0981 O   0  0  0  0  0  0  0  0  0  0  0  0
    1.8289   -2.7592   -3.5359 H   0  0  0  0  0  0  0  0  0  0  0  0
    0.6685   -0.9429    0.1179 H   0  0  0  0  0  0  0  0  0  0  0  0
    0.6912    0.7054    0.6874 H   0  0  0  0  0  0  0  0  0  0  0  0
    2.1626   -0.0133   -0.0333 H   0  0  0  0  0  0  0  0  0  0  0  0
    0.8068   -1.3942   -2.1608 H   0  0  0  0  0  0  0  0  0  0  0  0
    0.0920    3.1133   -3.5622 H   0  0  0  0  0  0  0  0  0  0  0  0
   -0.1093    0.6806   -6.2573 H   0  0  0  0  0  0  0  0  0  0  0  0
    0.0276    2.3137   -5.8617 H   0  0  0  0  0  0  0  0  0  0  0  0
   -1.6108   -4.4722   -3.2068 H   0  0  0  0  0  0  0  0  0  0  0  0
   -2.2482   -2.8629   -3.5738 H   0  0  0  0  0  0  0  0  0  0  0  0
   -1.0881   -1.9002   -1.8218 H   0  0  0  0  0  0  0  0  0  0  0  0
   -1.4650   -3.3440   -1.0061 H   0  0  0  0  0  0  0  0  0  0  0  0
    1.2648   -2.8660   -1.2315 H   0  0  0  0  0  0  0  0  0  0  0  0
    0.6203   -4.4485   -1.3661 H   0  0  0  0  0  0  0  0  0  0  0  0
    0.1617   -5.3391   -4.6045 H   0  0  0  0  0  0  0  0  0  0  0  0
  1  2  1  0  0  0  0
  1 22  1  0  0  0  0
  1 23  1  0  0  0  0
  1 24  1  0  0  0  0
  2  3  2  0  0  0  0
  2  7  1  0  0  0  0
  3  4  1  0  0  0  0
  3 25  1  0  0  0  0
  4  5  2  0  0  0  0
  4 10  1  0  0  0  0
  5  6  1  0  0  0  0
  5  9  1  0  0  0  0
  6  7  2  0  0  0  0
  6 26  1  0  0  0  0
  7  8  1  0  0  0  0
  9 27  1  0  0  0  0
  9 28  1  0  0  0  0
 10 11  2  0  0  0  0
 10 12  2  0  0  0  0
 10 13  1  0  0  0  0
 13 14  1  0  0  0  0
 13 17  1  0  0  0  0
 14 15  1  0  0  0  0
 14 29  1  0  0  0  0
 14 30  1  0  0  0  0
 15 16  1  0  0  0  0
 15 31  1  0  0  0  0
 15 32  1  0  0  0  0
 16 17  1  0  0  0  0
 16 33  1  0  0  0  0
 16 34  1  0  0  0  0
 17 21  1  6  0  0  0
 17 18  1  0  0  0  0
 18 19  1  0  0  0  0
 18 20  2  0  0  0  0
 19 35  1  0  0  0  0
M  END
>  <DRUGBANK_ID>
DB07273

>  <COMMON_NAME>
1-[(2-AMINO-4-CHLORO-5-METHYLPHENYL)SULFONYL]-L-PROLINE

$$$$
