
 OpenBabel10282417123D

 49 51  0  0  0  0  0  0  0  0999 V2000
    0.8369   -0.1830   -0.1791 N   0  0  0  0  0  0  0  0  0  0  0  0
    0.2098    0.9494   -0.7073 C   0  0  0  0  0  0  0  0  0  0  0  0
    0.5886    1.3707   -1.9362 N   0  0  0  0  0  0  0  0  0  0  0  0
    0.0134    2.4783   -2.4487 C   0  0  0  0  0  0  0  0  0  0  0  0
   -0.7835    3.3365   -1.7991 N   0  0  0  0  0  0  0  0  0  0  0  0
   -1.1699    2.8467   -0.6313 C   0  0  0  0  0  0  0  0  0  0  0  0
   -0.7689    1.6628   -0.0118 C   0  0  0  0  0  0  0  0  0  0  0  0
   -1.4222    1.5168    1.1948 N   0  0  0  0  0  0  0  0  0  0  0  0
   -2.2158    2.5740    1.2982 C   0  0  0  0  0  0  0  0  0  0  0  0
   -2.0587    3.4037    0.2236 N   0  0  0  0  0  0  0  0  0  0  0  0
   -2.7308    4.6436   -0.1058 C   0  0  2  0  0  0  0  0  0  0  0  0
   -3.3886    4.4397   -1.3539 O   0  0  0  0  0  0  0  0  0  0  0  0
   -3.2925    5.5384   -2.2823 C   0  0  1  0  0  0  0  0  0  0  0  0
   -2.3728    6.7063   -1.4541 C   0  0  1  0  0  0  0  0  0  0  0  0
   -2.9285    7.9397   -0.7439 O   0  0  0  0  0  0  0  0  0  0  0  0
   -1.8202    5.8573   -0.2637 C   0  0  1  0  0  0  0  0  0  0  0  0
   -1.7736    6.4899    1.0290 O   0  0  0  0  0  0  0  0  0  0  0  0
   -4.4875    3.9822   -3.9569 O   0  0  0  0  0  0  0  0  0  0  0  0
   -2.8966    2.4665   -3.0453 O   0  0  0  0  0  0  0  0  0  0  0  0
   -4.3967    2.5419   -3.0028 P   0  0  3  0  0  0  0  0  0  0  0  0
   -4.3059    1.1017   -2.0488 O   0  0  0  0  0  0  0  0  0  0  0  0
   -6.0187    2.0107    0.6890 O   0  0  0  0  0  0  0  0  0  0  0  0
   -6.5681    2.7130   -0.5119 P   0  0  3  0  0  0  0  0  0  0  0  0
   -7.8930    2.0002   -1.0467 O   0  0  0  0  0  0  0  0  0  0  0  0
   -6.5534    6.1688   -1.5022 O   0  0  0  0  0  0  0  0  0  0  0  0
   -6.0346    6.0867    0.9415 O   0  0  0  0  0  0  0  0  0  0  0  0
   -5.7010    5.4091   -0.4932 P   0  0  0  0  0  0  0  0  0  0  0  0
   -4.4473    6.5628   -0.7933 O   0  0  0  0  0  0  0  0  0  0  0  0
   -3.2885    4.9690   -3.7133 C   0  0  0  0  0  0  0  0  0  0  0  0
   -6.9547    4.2555   -0.1930 O   0  0  0  0  0  0  0  0  0  0  0  0
   -5.4719    3.0400   -1.7794 C   0  0  0  0  0  0  0  0  0  0  0  0
    0.4549   -0.4302    0.7252 H   0  0  0  0  0  0  0  0  0  0  0  0
    1.8385   -0.0162   -0.1697 H   0  0  0  0  0  0  0  0  0  0  0  0
    0.1943    2.6988   -3.4911 H   0  0  0  0  0  0  0  0  0  0  0  0
   -2.8932    2.7611    2.1229 H   0  0  0  0  0  0  0  0  0  0  0  0
   -3.4983    4.7539    0.6794 H   0  0  0  0  0  0  0  0  0  0  0  0
   -4.3134    5.8847   -2.4803 H   0  0  0  0  0  0  0  0  0  0  0  0
   -1.7800    7.2344   -2.1842 H   0  0  0  0  0  0  0  0  0  0  0  0
   -3.6631    7.6346   -0.1540 H   0  0  0  0  0  0  0  0  0  0  0  0
   -0.8130    5.5579   -0.5274 H   0  0  0  0  0  0  0  0  0  0  0  0
   -2.6411    6.8954    1.2131 H   0  0  0  0  0  0  0  0  0  0  0  0
   -3.5646    1.1571   -1.4083 H   0  0  0  0  0  0  0  0  0  0  0  0
   -8.2136    1.3596   -0.3737 H   0  0  0  0  0  0  0  0  0  0  0  0
   -6.9959    6.2841    0.9669 H   0  0  0  0  0  0  0  0  0  0  0  0
   -4.9450    7.2343   -1.3397 H   0  0  0  0  0  0  0  0  0  0  0  0
   -3.4798    5.7973   -4.4030 H   0  0  0  0  0  0  0  0  0  0  0  0
   -2.3480    4.4846   -3.9538 H   0  0  0  0  0  0  0  0  0  0  0  0
   -4.7291    3.1218   -1.0033 H   0  0  0  0  0  0  0  0  0  0  0  0
   -5.8539    3.9425   -2.2336 H   0  0  0  0  0  0  0  0  0  0  0  0
  1  2  1  0  0  0  0
  1 32  1  0  0  0  0
  1 33  1  0  0  0  0
  2  3  2  0  0  0  0
  2  7  1  0  0  0  0
  3  4  1  0  0  0  0
  4  5  2  0  0  0  0
  4 34  1  0  0  0  0
  5  6  1  0  0  0  0
  6  7  2  0  0  0  0
  6 10  1  0  0  0  0
  7  8  1  0  0  0  0
  8  9  2  0  0  0  0
  9 10  1  0  0  0  0
  9 35  1  0  0  0  0
 11 10  1  0  0  0  0
 11 12  1  0  0  0  0
 11 16  1  0  0  0  0
 11 36  1  1  0  0  0
 12 13  1  0  0  0  0
 13 14  1  0  0  0  0
 13 37  1  1  0  0  0
 13 29  1  0  0  0  0
 14 15  1  0  0  0  0
 14 16  1  0  0  0  0
 14 38  1  6  0  0  0
 15 39  1  0  0  0  0
 16 17  1  0  0  0  0
 16 40  1  6  0  0  0
 17 41  1  0  0  0  0
 18 20  1  0  0  0  0
 20 19  2  0  0  0  0
 20 31  1  0  0  0  0
 20 21  1  0  0  0  0
 21 42  1  0  0  0  0
 23 22  2  0  0  0  0
 23 30  1  0  0  0  0
 23 24  1  0  0  0  0
 24 43  1  0  0  0  0
 26 44  1  0  0  0  0
 27 25  2  0  0  0  0
 27 26  1  0  0  0  0
 27 28  1  0  0  0  0
 28 45  1  0  0  0  0
 29 18  1  0  0  0  0
 29 46  1  0  0  0  0
 29 47  1  0  0  0  0
 30 27  1  0  0  0  0
 31 23  1  0  0  0  0
 31 48  1  0  0  0  0
 31 49  1  0  0  0  0
M  END
>  <DRUGBANK_ID>
DB02596

>  <SECONDARY_ACCESSION_NUMBERS>
EXPT00539

>  <COMMON_NAME>
alpha,beta-Methyleneadenosine 5'-triphosphate

>  <CAS_NUMBER>
7292-42-4

>  <UNII>
NYX13NT29D

>  <SYNONYMS>
adenosine 5'-[alpha,beta-methylene]triphosphate; adenosine 5'-[α,β-methylene]triphosphate; alpha,beta-MeATP; alpha,beta-Methylene ATP

$$$$
