DFZ
 OpenBabel10282417163D

 43 46  0  0  0  0  0  0  0  0999 V2000
   -1.9099   -0.6720   -0.0220 C   0  0  0  0  0  0  0  0  0  0  0  0
    2.4755    0.0411    0.0540 C   0  0  0  0  0  0  0  0  0  0  0  0
    3.9196   -0.1308    0.0145 C   0  0  0  0  0  0  0  0  0  0  0  0
    4.5322   -0.7580   -1.0710 C   0  0  0  0  0  0  0  0  0  0  0  0
    5.9181   -0.6965   -1.2079 C   0  0  0  0  0  0  0  0  0  0  0  0
    6.6844    0.0113   -0.2788 C   0  0  0  0  0  0  0  0  0  0  0  0
    6.0735    0.6462    0.7984 C   0  0  0  0  0  0  0  0  0  0  0  0
    4.6996    0.5382    0.9679 C   0  0  0  0  0  0  0  0  0  0  0  0
    2.4193    3.4569    1.0556 C   0  0  0  0  0  0  0  0  0  0  0  0
    2.7010    4.8112    0.8098 C   0  0  0  0  0  0  0  0  0  0  0  0
    3.2094    5.2113   -0.4260 C   0  0  0  0  0  0  0  0  0  0  0  0
    3.4572    4.2569   -1.4107 C   0  0  0  0  0  0  0  0  0  0  0  0
   -0.7595   -1.3496   -0.0165 N   0  0  0  0  0  0  0  0  0  0  0  0
    0.3014   -0.5279    0.0324 C   0  0  0  0  0  0  0  0  0  0  0  0
    0.3160    0.8648    0.0628 C   0  0  0  0  0  0  0  0  0  0  0  0
   -1.3592    2.8153   -0.0027 N   0  0  0  0  0  0  0  0  0  0  0  0
   -0.9907    1.4741    0.0467 C   0  0  0  0  0  0  0  0  0  0  0  0
   -2.0756    0.6563    0.0278 N   0  0  0  0  0  0  0  0  0  0  0  0
    1.5857   -1.0030    0.0401 N   0  0  0  0  0  0  0  0  0  0  0  0
    3.1059    2.9171   -1.1976 C   0  0  0  0  0  0  0  0  0  0  0  0
    1.7525    1.2266    0.0714 C   0  0  0  0  0  0  0  0  0  0  0  0
    2.4923    2.5207    0.0031 C   0  0  0  0  0  0  0  0  0  0  0  0
   -0.2637    4.8115   -0.9587 C   0  0  0  0  0  0  0  0  0  0  0  0
   -0.3760    3.8341    0.1912 C   0  0  0  0  0  0  0  0  0  0  0  0
   -1.3943    5.6568   -0.9819 O   0  0  0  0  0  0  0  0  0  0  0  0
   -2.8204   -1.2623   -0.0812 H   0  0  0  0  0  0  0  0  0  0  0  0
    3.9364   -1.2349   -1.8459 H   0  0  0  0  0  0  0  0  0  0  0  0
    6.3979   -1.1630   -2.0634 H   0  0  0  0  0  0  0  0  0  0  0  0
    7.7607    0.0830   -0.4026 H   0  0  0  0  0  0  0  0  0  0  0  0
    6.6521    1.2552    1.4870 H   0  0  0  0  0  0  0  0  0  0  0  0
    4.2241    1.0468    1.8040 H   0  0  0  0  0  0  0  0  0  0  0  0
    1.9101    3.1904    1.9812 H   0  0  0  0  0  0  0  0  0  0  0  0
    2.3869    5.5689    1.5272 H   0  0  0  0  0  0  0  0  0  0  0  0
    3.3465    6.2693   -0.6452 H   0  0  0  0  0  0  0  0  0  0  0  0
    3.8487    4.5686   -2.3766 H   0  0  0  0  0  0  0  0  0  0  0  0
   -2.3110    2.9765    0.3018 H   0  0  0  0  0  0  0  0  0  0  0  0
    1.8163   -1.9786    0.0317 H   0  0  0  0  0  0  0  0  0  0  0  0
    3.2633    2.2012   -2.0006 H   0  0  0  0  0  0  0  0  0  0  0  0
    0.6245    5.4362   -0.8510 H   0  0  0  0  0  0  0  0  0  0  0  0
   -0.1665    4.2731   -1.9092 H   0  0  0  0  0  0  0  0  0  0  0  0
   -0.4067    4.2930    1.1850 H   0  0  0  0  0  0  0  0  0  0  0  0
    0.5223    3.3133    0.1008 H   0  0  0  0  0  0  0  0  0  0  0  0
   -2.1471    5.0431   -0.9358 H   0  0  0  0  0  0  0  0  0  0  0  0
  1 13  2  0  0  0  0
  1 18  1  0  0  0  0
  1 26  1  0  0  0  0
  2  3  1  0  0  0  0
  2 19  1  0  0  0  0
  2 21  2  0  0  0  0
  3  4  2  0  0  0  0
  3  8  1  0  0  0  0
  4  5  1  0  0  0  0
  4 27  1  0  0  0  0
  5  6  2  0  0  0  0
  5 28  1  0  0  0  0
  6  7  1  0  0  0  0
  6 29  1  0  0  0  0
  7  8  2  0  0  0  0
  7 30  1  0  0  0  0
  8 31  1  0  0  0  0
  9 10  2  0  0  0  0
  9 22  1  0  0  0  0
  9 32  1  0  0  0  0
 10 11  1  0  0  0  0
 10 33  1  0  0  0  0
 11 12  2  0  0  0  0
 11 34  1  0  0  0  0
 12 20  1  0  0  0  0
 12 35  1  0  0  0  0
 13 14  1  0  0  0  0
 14 15  2  0  0  0  0
 14 19  1  0  0  0  0
 15 17  1  0  0  0  0
 15 21  1  0  0  0  0
 16 17  1  0  0  0  0
 16 24  1  0  0  0  0
 16 36  1  0  0  0  0
 17 18  2  0  0  0  0
 19 37  1  0  0  0  0
 20 22  2  0  0  0  0
 20 38  1  0  0  0  0
 21 22  1  0  0  0  0
 23 24  1  0  0  0  0
 23 25  1  0  0  0  0
 23 39  1  0  0  0  0
 23 40  1  0  0  0  0
 24 41  1  0  0  0  0
 24 42  1  0  0  0  0
 25 43  1  0  0  0  0
M  END
>  <DRUGBANK_ID>
DB07655

>  <COMMON_NAME>
3-AMINO-3-BENZYL-[4.3.0]BICYCLO-1,6-DIAZANONAN-2-ONE

$$$$
