383
 OpenBabel10282417103D

 53 55  0  0  1  0  0  0  0  0999 V2000
    1.2591    0.0029    0.2014 O   0  0  0  0  0  0  0  0  0  0  0  0
   -1.6181   -0.2175    0.1912 O   0  0  0  0  0  0  0  0  0  0  0  0
   -1.8085    1.1841    1.8732 O   0  0  0  0  0  0  0  0  0  0  0  0
   -0.7271    1.8712   -1.8062 N   0  0  0  0  0  0  0  0  0  0  0  0
    0.7522    0.1697   -2.5231 N   0  0  0  0  0  0  0  0  0  0  0  0
    0.9510    0.0573    2.4854 C   0  0  0  0  0  0  0  0  0  0  0  0
    0.6730   -1.4560    2.3619 C   0  0  0  0  0  0  0  0  0  0  0  0
    0.2867    0.6956    3.7114 C   0  0  0  0  0  0  0  0  0  0  0  0
    0.5367    0.7560    1.1721 C   0  0  3  0  0  0  0  0  0  0  0  0
    0.9602   -2.1732    3.6586 C   0  0  0  0  0  0  0  0  0  0  0  0
    0.5574   -0.0655    4.9828 C   0  0  0  0  0  0  0  0  0  0  0  0
    0.1874   -1.5344    4.8032 C   0  0  0  0  0  0  0  0  0  0  0  0
    1.0395    2.2255    1.1722 C   0  0  0  0  0  0  0  0  0  0  0  0
   -1.0464    0.6059    1.1094 C   0  0  0  0  0  0  0  0  0  0  0  0
    0.1826    3.3363    1.0751 C   0  0  0  0  0  0  0  0  0  0  0  0
    2.4022    2.5178    1.3579 C   0  0  0  0  0  0  0  0  0  0  0  0
   -0.9983   -0.5580   -1.0411 C   0  0  0  0  0  0  0  0  0  0  0  0
    0.6452    4.6523    1.0377 C   0  0  0  0  0  0  0  0  0  0  0  0
    2.8500    3.8390    1.4801 C   0  0  0  0  0  0  0  0  0  0  0  0
   -0.2755    0.5650   -1.8542 C   0  0  0  0  0  0  0  0  0  0  0  0
    0.0946    2.9610   -2.2852 C   0  0  0  0  0  0  0  0  0  0  0  0
    1.2416    2.5647   -3.1691 C   0  0  0  0  0  0  0  0  0  0  0  0
    1.9831    4.9059    1.2670 C   0  0  0  0  0  0  0  0  0  0  0  0
    1.5840    1.0980   -3.2639 C   0  0  0  0  0  0  0  0  0  0  0  0
   -1.9619    2.3045   -1.1703 C   0  0  0  0  0  0  0  0  0  0  0  0
    2.1072    0.4090   -0.0220 H   0  0  0  0  0  0  0  0  0  0  0  0
    2.0407    0.1436    2.6101 H   0  0  0  0  0  0  0  0  0  0  0  0
   -0.3693   -1.6363    2.0754 H   0  0  0  0  0  0  0  0  0  0  0  0
    1.2883   -1.9020    1.5687 H   0  0  0  0  0  0  0  0  0  0  0  0
    0.5784    1.7472    3.8110 H   0  0  0  0  0  0  0  0  0  0  0  0
   -0.7972    0.6820    3.6283 H   0  0  0  0  0  0  0  0  0  0  0  0
    0.6781   -3.2243    3.5454 H   0  0  0  0  0  0  0  0  0  0  0  0
    2.0364   -2.1339    3.8584 H   0  0  0  0  0  0  0  0  0  0  0  0
   -0.0583    0.3758    5.7739 H   0  0  0  0  0  0  0  0  0  0  0  0
    1.6078    0.0496    5.2620 H   0  0  0  0  0  0  0  0  0  0  0  0
   -0.8889   -1.6177    4.5955 H   0  0  0  0  0  0  0  0  0  0  0  0
    0.3873   -2.0744    5.7294 H   0  0  0  0  0  0  0  0  0  0  0  0
   -0.8907    3.2369    1.0284 H   0  0  0  0  0  0  0  0  0  0  0  0
    3.1338    1.7202    1.4671 H   0  0  0  0  0  0  0  0  0  0  0  0
   -0.3401   -1.4131   -0.8461 H   0  0  0  0  0  0  0  0  0  0  0  0
   -1.7921   -0.9410   -1.6912 H   0  0  0  0  0  0  0  0  0  0  0  0
   -0.0589    5.4621    0.8612 H   0  0  0  0  0  0  0  0  0  0  0  0
    3.8798    4.0339    1.7642 H   0  0  0  0  0  0  0  0  0  0  0  0
    0.4960    3.5342   -1.4494 H   0  0  0  0  0  0  0  0  0  0  0  0
   -0.5468    3.6538   -2.8390 H   0  0  0  0  0  0  0  0  0  0  0  0
    1.0319    2.9409   -4.1767 H   0  0  0  0  0  0  0  0  0  0  0  0
    2.1334    3.1244   -2.8519 H   0  0  0  0  0  0  0  0  0  0  0  0
    2.3383    5.9305    1.3104 H   0  0  0  0  0  0  0  0  0  0  0  0
    1.5689    0.8090   -4.3200 H   0  0  0  0  0  0  0  0  0  0  0  0
    2.6232    0.9627   -2.9363 H   0  0  0  0  0  0  0  0  0  0  0  0
   -2.8331    1.7695   -1.5389 H   0  0  0  0  0  0  0  0  0  0  0  0
   -1.9547    2.1472   -0.1108 H   0  0  0  0  0  0  0  0  0  0  0  0
   -2.0966    3.3882   -1.2306 H   0  0  0  0  0  0  0  0  0  0  0  0
  1  9  1  0  0  0  0
  1 26  1  0  0  0  0
  2 14  1  0  0  0  0
  2 17  1  0  0  0  0
  3 14  2  0  0  0  0
  4 20  1  0  0  0  0
  4 21  1  0  0  0  0
  4 25  1  0  0  0  0
  5 20  2  0  0  0  0
  5 24  1  0  0  0  0
  6  7  1  0  0  0  0
  6  8  1  0  0  0  0
  6  9  1  0  0  0  0
  6 27  1  0  0  0  0
  7 10  1  0  0  0  0
  7 28  1  0  0  0  0
  7 29  1  0  0  0  0
  8 11  1  0  0  0  0
  8 30  1  0  0  0  0
  8 31  1  0  0  0  0
  9 13  1  0  0  0  0
  9 14  1  0  0  0  0
 10 12  1  0  0  0  0
 10 32  1  0  0  0  0
 10 33  1  0  0  0  0
 11 12  1  0  0  0  0
 11 34  1  0  0  0  0
 11 35  1  0  0  0  0
 12 36  1  0  0  0  0
 12 37  1  0  0  0  0
 13 15  2  0  0  0  0
 13 16  1  0  0  0  0
 15 18  1  0  0  0  0
 15 38  1  0  0  0  0
 16 19  2  0  0  0  0
 16 39  1  0  0  0  0
 17 20  1  0  0  0  0
 17 40  1  0  0  0  0
 17 41  1  0  0  0  0
 18 23  2  0  0  0  0
 18 42  1  0  0  0  0
 19 23  1  0  0  0  0
 19 43  1  0  0  0  0
 21 22  1  0  0  0  0
 21 44  1  0  0  0  0
 21 45  1  0  0  0  0
 22 24  1  0  0  0  0
 22 46  1  0  0  0  0
 22 47  1  0  0  0  0
 23 48  1  0  0  0  0
 24 49  1  0  0  0  0
 24 50  1  0  0  0  0
 25 51  1  0  0  0  0
 25 52  1  0  0  0  0
 25 53  1  0  0  0  0
M  END
>  <DRUGBANK_ID>
DB00383

>  <SECONDARY_ACCESSION_NUMBERS>
APRD00399

>  <COMMON_NAME>
Oxyphencyclimine

>  <CAS_NUMBER>
125-53-1

>  <UNII>
4V44H1O8XI

>  <SYNONYMS>
Oxifencicliminum; Oxyphencyclimine; Oxyphencycliminum

$$$$
