
 OpenBabel10282417113D

144147  0  0  0  0  0  0  0  0999 V2000
   11.9062   -7.6165   -7.6761 C   0  0  0  0  0  0  0  0  0  0  0  0
   12.4311   -6.5421   -6.5171 C   0  0  2  0  0  0  0  0  0  0  0  0
   12.6937   -7.5520   -9.0796 C   0  0  0  0  0  0  0  0  0  0  0  0
   12.2454   -5.1576   -7.5366 N   0  0  0  0  0  0  0  0  0  0  0  0
   12.5754   -6.2230   -9.8116 C   0  0  0  0  0  0  0  0  0  0  0  0
   13.0168   -5.1603   -8.8143 C   0  0  0  0  0  0  0  0  0  0  0  0
   12.2780   -6.9435   -4.6580 C   0  0  0  0  0  0  0  0  0  0  0  0
   11.1440   -7.0325   -4.2196 O   0  0  0  0  0  0  0  0  0  0  0  0
   11.2224   -3.3317   -8.6366 O   0  0  0  0  0  0  0  0  0  0  0  0
   11.1688   -4.2241   -7.8194 C   0  0  0  0  0  0  0  0  0  0  0  0
    9.8869   -4.1969   -7.0843 C   0  0  0  0  0  0  0  0  0  0  0  0
    9.5531   -5.2537   -6.5960 O   0  0  0  0  0  0  0  0  0  0  0  0
   14.1048   -8.1934   -2.2016 C   0  0  2  0  0  0  0  0  0  0  0  0
   14.6049   -8.0013   -0.4649 C   0  0  0  0  0  0  0  0  0  0  0  0
   13.5514   -7.2627   -3.6946 O   0  0  0  0  0  0  0  0  0  0  0  0
   12.2351   -9.7015   -1.4218 C   0  0  0  0  0  0  0  0  0  0  0  0
   14.5400   -9.6267    1.4608 O   0  0  0  0  0  0  0  0  0  0  0  0
   13.5511   -9.6256   -2.1968 C   0  0  1  0  0  0  0  0  0  0  0  0
   14.0028   -8.6116    0.9782 C   0  0  0  0  0  0  0  0  0  0  0  0
   11.8643   -6.9582   -1.4512 C   0  0  0  0  0  0  0  0  0  0  0  0
   11.3520   -8.4200   -1.7934 C   0  0  2  0  0  0  0  0  0  0  0  0
   13.3357  -10.0036   -3.6195 C   0  0  0  0  0  0  0  0  0  0  0  0
    9.4717   -6.0778   -1.1650 C   0  0  1  0  0  0  0  0  0  0  0  0
    8.9639   -7.3535   -1.7481 C   0  0  1  0  0  0  0  0  0  0  0  0
   10.8385   -5.8364   -1.7014 C   0  0  0  0  0  0  0  0  0  0  0  0
    9.8765   -8.5579   -1.4302 C   0  0  0  0  0  0  0  0  0  0  0  0
    8.1850   -2.4400   -8.0090 O   0  0  0  0  0  0  0  0  0  0  0  0
    9.1766   -2.6424   -7.0112 C   0  0  2  0  0  0  0  0  0  0  0  0
    7.2549   -1.4339   -7.5453 C   0  0  1  0  0  0  0  0  0  0  0  0
    7.9598   -0.0928   -7.4858 C   0  0  0  0  0  0  0  0  0  0  0  0
    9.9831   -1.3129   -6.8400 C   0  0  1  0  0  0  0  0  0  0  0  0
    9.0558   -0.1450   -6.4746 C   0  0  0  0  0  0  0  0  0  0  0  0
    6.0366   -1.5273   -8.3621 C   0  0  0  0  0  0  0  0  0  0  0  0
    5.1909   -2.8094   -8.0971 C   0  0  2  0  0  0  0  0  0  0  0  0
    4.1333   -2.7537   -9.0914 O   0  0  0  0  0  0  0  0  0  0  0  0
    3.1005   -3.1368   -6.5256 C   0  0  0  0  0  0  0  0  0  0  0  0
    4.6183   -3.0880   -6.6630 C   0  0  0  0  0  0  0  0  0  0  0  0
    5.3061   -3.3054   -5.4969 C   0  0  0  0  0  0  0  0  0  0  0  0
    3.3776   -1.5383   -9.1017 C   0  0  0  0  0  0  0  0  0  0  0  0
   15.1339   -8.1673   -2.5754 H   0  0  0  0  0  0  0  0  0  0  0  0
   10.8736   -1.1667   -5.6604 C   0  0  0  0  0  0  0  0  0  0  0  0
   12.8004   -7.9474    1.8550 C   0  0  2  0  0  0  0  0  0  0  0  0
   11.4855   -8.3534    1.2484 C   0  0  0  0  0  0  0  0  0  0  0  0
   13.0428   -6.4636    2.2457 C   0  0  0  0  0  0  0  0  0  0  0  0
   12.4701   -5.3116    1.7972 C   0  0  0  0  0  0  0  0  0  0  0  0
   11.4145   -5.2811    0.8472 C   0  0  0  0  0  0  0  0  0  0  0  0
   12.7872   -3.8139    1.8193 C   0  0  2  0  0  0  0  0  0  0  0  0
   13.3215   -3.0872    0.4798 C   0  0  1  0  0  0  0  0  0  0  0  0
   14.6295   -3.6345    0.0627 O   0  0  0  0  0  0  0  0  0  0  0  0
   13.7617   -3.6704    2.8159 O   0  0  0  0  0  0  0  0  0  0  0  0
   12.5316   -3.0055   -0.8267 C   0  0  0  0  0  0  0  0  0  0  0  0
    6.8332   -1.5582   -6.5418 H   0  0  0  0  0  0  0  0  0  0  0  0
    6.6055   -4.0003   -5.2717 C   0  0  0  0  0  0  0  0  0  0  0  0
    7.4157   -3.9230   -4.1489 C   0  0  0  0  0  0  0  0  0  0  0  0
   11.7024   -1.8538   -1.3409 C   0  0  1  0  0  0  0  0  0  0  0  0
   12.0098   -1.9494   -2.8867 C   0  0  0  0  0  0  0  0  0  0  0  0
   14.6363   -4.9437   -0.5012 C   0  0  0  0  0  0  0  0  0  0  0  0
   12.7777   -3.8601   -1.6435 O   0  0  0  0  0  0  0  0  0  0  0  0
    8.9430   -3.9483   -4.2013 C   0  0  0  0  0  0  0  0  0  0  0  0
    9.9725   -3.5616   -3.4478 C   0  0  0  0  0  0  0  0  0  0  0  0
   11.5222   -3.2638   -3.6743 C   0  0  1  0  0  0  0  0  0  0  0  0
   10.2135   -1.7772   -1.0105 C   0  0  0  0  0  0  0  0  0  0  0  0
   11.3304   -8.5422   -2.8573 H   0  0  0  0  0  0  0  0  0  0  0  0
    8.5797   -4.9655   -1.2323 O   0  0  0  0  0  0  0  0  0  0  0  0
    7.6669   -7.5850   -1.1902 O   0  0  0  0  0  0  0  0  0  0  0  0
    7.6264   -7.6069    0.2376 C   0  0  0  0  0  0  0  0  0  0  0  0
   13.5128   -6.6320   -6.5018 H   0  0  0  0  0  0  0  0  0  0  0  0
    8.3491   -2.5598   -5.9135 O   0  0  0  0  0  0  0  0  0  0  0  0
   12.3398   -3.4201   -5.0010 C   0  0  0  0  0  0  0  0  0  0  0  0
   11.9024   -8.6568   -7.3429 H   0  0  0  0  0  0  0  0  0  0  0  0
   10.8634   -7.3731   -7.9593 H   0  0  0  0  0  0  0  0  0  0  0  0
   13.7646   -7.7192   -8.9170 H   0  0  0  0  0  0  0  0  0  0  0  0
   12.3634   -8.3240   -9.7908 H   0  0  0  0  0  0  0  0  0  0  0  0
   11.5718   -6.0636  -10.2445 H   0  0  0  0  0  0  0  0  0  0  0  0
   13.2401   -6.1845  -10.6964 H   0  0  0  0  0  0  0  0  0  0  0  0
   12.9097   -4.2242   -9.3763 H   0  0  0  0  0  0  0  0  0  0  0  0
   14.0780   -5.2393   -8.5953 H   0  0  0  0  0  0  0  0  0  0  0  0
   15.1191   -7.0981   -0.1979 H   0  0  0  0  0  0  0  0  0  0  0  0
   15.5234   -8.6485   -0.4782 H   0  0  0  0  0  0  0  0  0  0  0  0
   11.6661  -10.6200   -1.6283 H   0  0  0  0  0  0  0  0  0  0  0  0
   12.5024   -9.9350   -0.3776 H   0  0  0  0  0  0  0  0  0  0  0  0
   14.2555  -10.3294   -1.7094 H   0  0  0  0  0  0  0  0  0  0  0  0
   12.7678   -6.5903   -1.9103 H   0  0  0  0  0  0  0  0  0  0  0  0
   12.3358   -6.9577   -0.4808 H   0  0  0  0  0  0  0  0  0  0  0  0
   14.3040  -10.0716   -4.1115 H   0  0  0  0  0  0  0  0  0  0  0  0
   12.7298  -10.8976   -3.7055 H   0  0  0  0  0  0  0  0  0  0  0  0
   12.7721   -9.2290   -4.1185 H   0  0  0  0  0  0  0  0  0  0  0  0
    9.5150   -6.2042   -0.1029 H   0  0  0  0  0  0  0  0  0  0  0  0
    8.8940   -7.2031   -2.8332 H   0  0  0  0  0  0  0  0  0  0  0  0
   11.0165   -4.8436   -1.3212 H   0  0  0  0  0  0  0  0  0  0  0  0
   10.9066   -5.6025   -2.7391 H   0  0  0  0  0  0  0  0  0  0  0  0
    9.8054   -8.7890   -0.3777 H   0  0  0  0  0  0  0  0  0  0  0  0
    9.4645   -9.4409   -1.9161 H   0  0  0  0  0  0  0  0  0  0  0  0
    8.4467    0.0938   -8.4377 H   0  0  0  0  0  0  0  0  0  0  0  0
    7.2859    0.7023   -7.1768 H   0  0  0  0  0  0  0  0  0  0  0  0
   10.5404   -1.1409   -7.7545 H   0  0  0  0  0  0  0  0  0  0  0  0
    9.6469    0.7704   -6.4098 H   0  0  0  0  0  0  0  0  0  0  0  0
    8.6291   -0.2362   -5.4495 H   0  0  0  0  0  0  0  0  0  0  0  0
    5.4650   -0.6341   -8.1053 H   0  0  0  0  0  0  0  0  0  0  0  0
    6.3323   -1.4856   -9.4151 H   0  0  0  0  0  0  0  0  0  0  0  0
    5.7883   -3.6939   -8.3608 H   0  0  0  0  0  0  0  0  0  0  0  0
    2.7789   -4.0129   -5.9562 H   0  0  0  0  0  0  0  0  0  0  0  0
    2.7296   -2.2275   -6.0406 H   0  0  0  0  0  0  0  0  0  0  0  0
    2.5656   -3.2551   -7.4744 H   0  0  0  0  0  0  0  0  0  0  0  0
    5.4443   -2.3320   -4.9927 H   0  0  0  0  0  0  0  0  0  0  0  0
    2.8974   -1.3517   -8.1413 H   0  0  0  0  0  0  0  0  0  0  0  0
    3.9776   -0.6577   -9.3365 H   0  0  0  0  0  0  0  0  0  0  0  0
    2.6035   -1.6208   -9.8621 H   0  0  0  0  0  0  0  0  0  0  0  0
   10.5738   -0.4900   -4.8504 H   0  0  0  0  0  0  0  0  0  0  0  0
   10.7398   -2.1014   -5.1987 H   0  0  0  0  0  0  0  0  0  0  0  0
   11.8798   -0.8763   -5.9504 H   0  0  0  0  0  0  0  0  0  0  0  0
   12.7374   -8.5204    2.7920 H   0  0  0  0  0  0  0  0  0  0  0  0
   10.6571   -7.6688    1.1930 H   0  0  0  0  0  0  0  0  0  0  0  0
   11.8202   -8.4868    0.2687 H   0  0  0  0  0  0  0  0  0  0  0  0
   11.0304   -9.3173    1.4620 H   0  0  0  0  0  0  0  0  0  0  0  0
   13.8806   -6.3759    2.9300 H   0  0  0  0  0  0  0  0  0  0  0  0
   10.5527   -4.6379    0.9885 H   0  0  0  0  0  0  0  0  0  0  0  0
   12.0177   -4.9870    0.0167 H   0  0  0  0  0  0  0  0  0  0  0  0
   11.0932   -6.2281    0.5818 H   0  0  0  0  0  0  0  0  0  0  0  0
   11.8479   -3.3028    2.0968 H   0  0  0  0  0  0  0  0  0  0  0  0
   13.5224   -2.0506    0.7400 H   0  0  0  0  0  0  0  0  0  0  0  0
   14.4883   -4.2136    2.4578 H   0  0  0  0  0  0  0  0  0  0  0  0
    7.0030   -4.3120   -6.2410 H   0  0  0  0  0  0  0  0  0  0  0  0
    7.0084   -3.4568   -3.2586 H   0  0  0  0  0  0  0  0  0  0  0  0
   12.1564   -0.9385   -0.9578 H   0  0  0  0  0  0  0  0  0  0  0  0
   13.1064   -1.8993   -3.0192 H   0  0  0  0  0  0  0  0  0  0  0  0
   11.6614   -1.0197   -3.3294 H   0  0  0  0  0  0  0  0  0  0  0  0
   14.1791   -5.6123    0.2064 H   0  0  0  0  0  0  0  0  0  0  0  0
   14.1525   -5.1262   -1.4627 H   0  0  0  0  0  0  0  0  0  0  0  0
   15.6483   -5.2674   -0.7349 H   0  0  0  0  0  0  0  0  0  0  0  0
    9.4040   -3.9901   -5.1279 H   0  0  0  0  0  0  0  0  0  0  0  0
    9.6562   -3.7243   -2.4635 H   0  0  0  0  0  0  0  0  0  0  0  0
   11.9503   -4.1796   -3.3121 H   0  0  0  0  0  0  0  0  0  0  0  0
    9.5869   -2.5323   -1.4169 H   0  0  0  0  0  0  0  0  0  0  0  0
    9.9857   -1.9213    0.0428 H   0  0  0  0  0  0  0  0  0  0  0  0
    9.7500   -0.8789   -1.4346 H   0  0  0  0  0  0  0  0  0  0  0  0
    8.8558   -4.3089   -0.5692 H   0  0  0  0  0  0  0  0  0  0  0  0
    8.2343   -8.4176    0.6410 H   0  0  0  0  0  0  0  0  0  0  0  0
    7.9341   -6.6717    0.7238 H   0  0  0  0  0  0  0  0  0  0  0  0
    6.5968   -7.7709    0.5247 H   0  0  0  0  0  0  0  0  0  0  0  0
    8.5549   -1.9722   -5.1828 H   0  0  0  0  0  0  0  0  0  0  0  0
   11.7104   -4.0007   -5.6351 H   0  0  0  0  0  0  0  0  0  0  0  0
   12.6548   -2.5169   -5.5200 H   0  0  0  0  0  0  0  0  0  0  0  0
   13.2954   -3.9456   -4.9184 H   0  0  0  0  0  0  0  0  0  0  0  0
  1 70  1  0  0  0  0
  1 71  1  0  0  0  0
  2  1  1  0  0  0  0
  2  7  1  0  0  0  0
  2 67  1  1  0  0  0
  3  1  1  0  0  0  0
  3 72  1  0  0  0  0
  3 73  1  0  0  0  0
  4  2  1  0  0  0  0
  5  3  1  0  0  0  0
  5 74  1  0  0  0  0
  5 75  1  0  0  0  0
  6  5  1  0  0  0  0
  6  4  1  0  0  0  0
  6 76  1  0  0  0  0
  6 77  1  0  0  0  0
  7 15  1  0  0  0  0
  8  7  2  0  0  0  0
 10  4  1  0  0  0  0
 10  9  2  0  0  0  0
 11 10  1  0  0  0  0
 12 11  2  0  0  0  0
 13 40  1  6  0  0  0
 13 18  1  0  0  0  0
 14 13  1  0  0  0  0
 14 19  1  0  0  0  0
 14 78  1  0  0  0  0
 14 79  1  0  0  0  0
 15 13  1  0  0  0  0
 16 21  1  0  0  0  0
 16 80  1  0  0  0  0
 16 81  1  0  0  0  0
 18 16  1  0  0  0  0
 18 22  1  0  0  0  0
 18 82  1  1  0  0  0
 19 17  2  0  0  0  0
 20 25  1  0  0  0  0
 20 83  1  0  0  0  0
 20 84  1  0  0  0  0
 21 26  1  0  0  0  0
 21 20  1  0  0  0  0
 21 63  1  6  0  0  0
 22 85  1  0  0  0  0
 22 86  1  0  0  0  0
 22 87  1  0  0  0  0
 23 88  1  1  0  0  0
 23 64  1  0  0  0  0
 24 23  1  0  0  0  0
 24 65  1  0  0  0  0
 24 89  1  6  0  0  0
 25 23  1  0  0  0  0
 25 90  1  0  0  0  0
 25 91  1  0  0  0  0
 26 24  1  0  0  0  0
 26 92  1  0  0  0  0
 26 93  1  0  0  0  0
 28 11  1  0  0  0  0
 28 27  1  0  0  0  0
 28 68  1  1  0  0  0
 29 27  1  0  0  0  0
 29 33  1  0  0  0  0
 29 52  1  1  0  0  0
 30 29  1  0  0  0  0
 30 94  1  0  0  0  0
 30 95  1  0  0  0  0
 31 28  1  0  0  0  0
 31 96  1  6  0  0  0
 31 41  1  0  0  0  0
 32 30  1  0  0  0  0
 32 31  1  0  0  0  0
 32 97  1  0  0  0  0
 32 98  1  0  0  0  0
 33 99  1  0  0  0  0
 33100  1  0  0  0  0
 34 33  1  0  0  0  0
 34 37  1  0  0  0  0
 34 35  1  0  0  0  0
 34101  1  6  0  0  0
 36102  1  0  0  0  0
 36103  1  0  0  0  0
 36104  1  0  0  0  0
 37 36  1  0  0  0  0
 38 37  2  0  0  0  0
 38105  1  0  0  0  0
 39 35  1  0  0  0  0
 39106  1  0  0  0  0
 39107  1  0  0  0  0
 39108  1  0  0  0  0
 41109  1  0  0  0  0
 41110  1  0  0  0  0
 41111  1  0  0  0  0
 42 19  1  0  0  0  0
 42 44  1  0  0  0  0
 42112  1  1  0  0  0
 42 43  1  0  0  0  0
 43113  1  0  0  0  0
 43114  1  0  0  0  0
 43115  1  0  0  0  0
 44116  1  0  0  0  0
 45 44  2  0  0  0  0
 45 47  1  0  0  0  0
 46 45  1  0  0  0  0
 46117  1  0  0  0  0
 46118  1  0  0  0  0
 46119  1  0  0  0  0
 47 50  1  0  0  0  0
 47120  1  1  0  0  0
 48 47  1  0  0  0  0
 48 51  1  0  0  0  0
 48 49  1  0  0  0  0
 48121  1  1  0  0  0
 50122  1  0  0  0  0
 53 38  1  0  0  0  0
 53123  1  0  0  0  0
 54 53  2  0  0  0  0
 54124  1  0  0  0  0
 55 51  1  0  0  0  0
 55125  1  1  0  0  0
 55 62  1  0  0  0  0
 56 55  1  0  0  0  0
 56 61  1  0  0  0  0
 56126  1  0  0  0  0
 56127  1  0  0  0  0
 57 49  1  0  0  0  0
 57128  1  0  0  0  0
 57129  1  0  0  0  0
 57130  1  0  0  0  0
 58 51  2  0  0  0  0
 59 54  1  0  0  0  0
 59131  1  0  0  0  0
 60 59  2  0  0  0  0
 60132  1  0  0  0  0
 61 60  1  0  0  0  0
 61133  1  1  0  0  0
 61 69  1  0  0  0  0
 62134  1  0  0  0  0
 62135  1  0  0  0  0
 62136  1  0  0  0  0
 64137  1  0  0  0  0
 66 65  1  0  0  0  0
 66138  1  0  0  0  0
 66139  1  0  0  0  0
 66140  1  0  0  0  0
 68141  1  0  0  0  0
 69142  1  0  0  0  0
 69143  1  0  0  0  0
 69144  1  0  0  0  0
M  END
>  <DRUGBANK_ID>
DB00877

>  <SECONDARY_ACCESSION_NUMBERS>
APRD00178; DB02439

>  <COMMON_NAME>
Sirolimus

>  <CAS_NUMBER>
53123-88-9

>  <UNII>
W36ZG6FT64

>  <SYNONYMS>
(-)-Rapamycin; Rapamycin; SirolimÃºs; Sirolimus; Sirolimusum

$$$$
