
 OpenBabel10282417233D

 29 30  0  0  0  0  0  0  0  0999 V2000
    0.9140    0.1062    0.4194 N   0  0  0  0  0  0  0  0  0  0  0  0
    0.3243    1.2912    0.1002 C   0  0  0  0  0  0  0  0  0  0  0  0
   -0.8965    1.3621   -0.0061 O   0  0  0  0  0  0  0  0  0  0  0  0
    1.1306    2.3976    0.0500 N   0  0  0  0  0  0  0  0  0  0  0  0
    2.4957    2.3848   -0.1758 C   0  0  0  0  0  0  0  0  0  0  0  0
    3.2826    1.5778   -0.9818 C   0  0  0  0  0  0  0  0  0  0  0  0
    4.6691    1.8409   -0.7113 C   0  0  0  0  0  0  0  0  0  0  0  0
    4.8942    2.8690    0.1843 C   0  0  0  0  0  0  0  0  0  0  0  0
    3.4023    3.5534    0.6879 S   0  0  0  0  0  0  0  0  0  0  0  0
    6.2126    3.3689    0.6148 C   0  0  0  0  0  0  0  0  0  0  0  0
    7.1382    3.7993   -0.3562 C   0  0  0  0  0  0  0  0  0  0  0  0
    8.4376    4.1795   -0.0010 C   0  0  0  0  0  0  0  0  0  0  0  0
    8.8236    4.1282    1.3303 C   0  0  0  0  0  0  0  0  0  0  0  0
   10.0656    4.4959    1.6732 F   0  0  0  0  0  0  0  0  0  0  0  0
    7.9373    3.6915    2.3083 C   0  0  0  0  0  0  0  0  0  0  0  0
    6.6349    3.3068    1.9522 C   0  0  0  0  0  0  0  0  0  0  0  0
    2.7563    0.6146   -1.9500 C   0  0  0  0  0  0  0  0  0  0  0  0
    3.6433   -0.2584   -2.4939 N   0  0  0  0  0  0  0  0  0  0  0  0
    1.5747    0.5150   -2.2736 O   0  0  0  0  0  0  0  0  0  0  0  0
    0.3496   -0.7048    0.2064 H   0  0  0  0  0  0  0  0  0  0  0  0
    1.8949   -0.0192    0.2461 H   0  0  0  0  0  0  0  0  0  0  0  0
    0.6453    3.2862    0.0526 H   0  0  0  0  0  0  0  0  0  0  0  0
    5.4920    1.3083   -1.1662 H   0  0  0  0  0  0  0  0  0  0  0  0
    6.8558    3.8333   -1.4064 H   0  0  0  0  0  0  0  0  0  0  0  0
    9.1489    4.5089   -0.7528 H   0  0  0  0  0  0  0  0  0  0  0  0
    8.2713    3.6439    3.3409 H   0  0  0  0  0  0  0  0  0  0  0  0
    5.9706    2.9304    2.7267 H   0  0  0  0  0  0  0  0  0  0  0  0
    3.2511   -0.9305   -3.1394 H   0  0  0  0  0  0  0  0  0  0  0  0
    4.6426   -0.1958   -2.3967 H   0  0  0  0  0  0  0  0  0  0  0  0
  1  2  1  0  0  0  0
  1 20  1  0  0  0  0
  1 21  1  0  0  0  0
  2  3  2  0  0  0  0
  2  4  1  0  0  0  0
  4  5  1  0  0  0  0
  4 22  1  0  0  0  0
  5  6  2  0  0  0  0
  5  9  1  0  0  0  0
  6  7  1  0  0  0  0
  6 17  1  0  0  0  0
  7  8  2  0  0  0  0
  7 23  1  0  0  0  0
  8  9  1  0  0  0  0
  8 10  1  0  0  0  0
 10 11  2  0  0  0  0
 10 16  1  0  0  0  0
 11 12  1  0  0  0  0
 11 24  1  0  0  0  0
 12 13  2  0  0  0  0
 12 25  1  0  0  0  0
 13 14  1  0  0  0  0
 13 15  1  0  0  0  0
 15 16  2  0  0  0  0
 15 26  1  0  0  0  0
 16 27  1  0  0  0  0
 17 18  1  0  0  0  0
 17 19  2  0  0  0  0
 18 28  1  0  0  0  0
 18 29  1  0  0  0  0
M  END
>  <DRUGBANK_ID>
DB17058

>  <COMMON_NAME>
TPCA-1

>  <CAS_NUMBER>
507475-17-4

>  <UNII>
9M632G86CC

>  <SYNONYMS>
2-((aminocarbonyl)amino)-5-(4-fluorophenyl)-3-thiophenecarboxamide; 3-thiophenecarboxamide, 2-((aminocarbonyl)amino)-5-(4-fluorophenyl)-; Ikk 2 inhibitor iv; Ikk-2 inhibitor iv

$$$$
