
 OpenBabel10282417223D

 85 87  0  0  1  0  0  0  0  0999 V2000
  -11.2296  -13.9123    0.3053 C   0  0  0  0  0  0  0  0  0  0  0  0
  -10.6798  -12.5626    0.7371 C   0  0  0  0  0  0  0  0  0  0  0  0
  -10.1720  -12.6305    2.1784 C   0  0  0  0  0  0  0  0  0  0  0  0
   -9.0457  -13.6601    2.3235 C   0  0  0  0  0  0  0  0  0  0  0  0
   -7.8730  -13.3162    1.3963 C   0  0  0  0  0  0  0  0  0  0  0  0
   -7.3118  -11.9284    1.7277 C   0  0  0  0  0  0  0  0  0  0  0  0
   -6.8117  -11.8938    3.1625 C   0  0  0  0  0  0  0  0  0  0  0  0
   -5.7083  -12.9216    3.3503 C   0  0  0  0  0  0  0  0  0  0  0  0
   -4.5246  -12.7467    2.4072 C   0  0  0  0  0  0  0  0  0  0  0  0
   -3.8440  -11.4814    2.7460 C   0  0  0  0  0  0  0  0  0  0  0  0
   -2.5638  -11.4393    3.1133 C   0  0  0  0  0  0  0  0  0  0  0  0
   -1.9880  -10.1585    3.3397 C   0  0  0  0  0  0  0  0  0  0  0  0
   -0.7717   -9.7905    3.6561 C   0  0  0  0  0  0  0  0  0  0  0  0
   -0.2709   -8.3829    3.6700 C   0  0  0  0  0  0  0  0  0  0  0  0
    0.9244   -8.2153    3.8690 O   0  0  0  0  0  0  0  0  0  0  0  0
   -1.1087   -7.2822    3.5864 N   0  0  0  0  0  0  0  0  0  0  0  0
   -2.5819   -7.0850    3.6757 C   0  0  0  0  0  0  0  0  0  0  0  0
   -3.5012   -6.7515    4.9158 C   0  0  0  0  0  0  0  0  0  0  0  0
   -4.3110   -5.8199    4.8132 O   0  0  0  0  0  0  0  0  0  0  0  0
   -3.5668   -7.4416    6.1172 N   0  0  0  0  0  0  0  0  0  0  0  0
   -3.1186   -8.7959    6.5739 C   0  0  2  0  0  0  0  0  0  0  0  0
   -4.3214   -9.5023    7.2718 C   0  0  1  0  0  0  0  0  0  0  0  0
   -5.4486   -9.4783    6.3784 O   0  0  0  0  0  0  0  0  0  0  0  0
   -3.9554  -10.9549    7.5558 C   0  0  1  0  0  0  0  0  0  0  0  0
   -3.8115  -11.4474    6.2043 O   0  0  0  0  0  0  0  0  0  0  0  0
   -2.6718  -11.0570    8.4426 C   0  0  1  0  0  0  0  0  0  0  0  0
   -2.1470  -12.4171    8.6716 N   0  0  0  0  0  0  0  0  0  0  0  0
   -1.9180  -13.1156    7.4709 C   0  0  0  0  0  0  0  0  0  0  0  0
   -2.9282  -13.8547    6.8117 C   0  0  0  0  0  0  0  0  0  0  0  0
   -4.2535  -14.1059    7.1361 N   0  0  0  0  0  0  0  0  0  0  0  0
   -4.7961  -14.5157    6.0088 C   0  0  0  0  0  0  0  0  0  0  0  0
   -3.8590  -14.6614    5.0168 N   0  0  0  0  0  0  0  0  0  0  0  0
   -2.6733  -14.1905    5.4939 C   0  0  0  0  0  0  0  0  0  0  0  0
   -1.5504  -13.9875    4.7923 N   0  0  0  0  0  0  0  0  0  0  0  0
   -0.6299  -13.3461    5.5345 C   0  0  0  0  0  0  0  0  0  0  0  0
   -0.7632  -12.8833    6.7924 N   0  0  0  0  0  0  0  0  0  0  0  0
   -1.6272  -10.2726    7.9039 O   0  0  0  0  0  0  0  0  0  0  0  0
   -1.9413   -8.8956    7.6341 C   0  0  1  0  0  0  0  0  0  0  0  0
   -0.5638   -8.2806    7.3008 C   0  0  1  0  0  0  0  0  0  0  0  0
    0.3275   -9.2752    6.7727 O   0  0  0  0  0  0  0  0  0  0  0  0
   -0.6990   -7.2205    6.2742 C   0  0  0  0  0  0  0  0  0  0  0  0
   -1.4013   -6.0595    6.6508 O   0  0  0  0  0  0  0  0  0  0  0  0
  -10.4684  -14.6986    0.3415 H   0  0  0  0  0  0  0  0  0  0  0  0
  -11.5911  -13.8726   -0.7225 H   0  0  0  0  0  0  0  0  0  0  0  0
  -12.0484  -14.2071    0.9679 H   0  0  0  0  0  0  0  0  0  0  0  0
   -9.8839  -12.2521    0.0495 H   0  0  0  0  0  0  0  0  0  0  0  0
  -11.4515  -11.7926    0.6548 H   0  0  0  0  0  0  0  0  0  0  0  0
   -9.8326  -11.6357    2.4924 H   0  0  0  0  0  0  0  0  0  0  0  0
  -10.9901  -12.8805    2.8605 H   0  0  0  0  0  0  0  0  0  0  0  0
   -8.7301  -13.7139    3.3712 H   0  0  0  0  0  0  0  0  0  0  0  0
   -9.3992  -14.6726    2.1107 H   0  0  0  0  0  0  0  0  0  0  0  0
   -7.1091  -14.0975    1.4725 H   0  0  0  0  0  0  0  0  0  0  0  0
   -8.1629  -13.3456    0.3427 H   0  0  0  0  0  0  0  0  0  0  0  0
   -6.5146  -11.6730    1.0248 H   0  0  0  0  0  0  0  0  0  0  0  0
   -8.0516  -11.1371    1.5859 H   0  0  0  0  0  0  0  0  0  0  0  0
   -6.4638  -10.8923    3.4296 H   0  0  0  0  0  0  0  0  0  0  0  0
   -7.6092  -12.0979    3.8864 H   0  0  0  0  0  0  0  0  0  0  0  0
   -5.3974  -12.7922    4.3827 H   0  0  0  0  0  0  0  0  0  0  0  0
   -6.0885  -13.9450    3.2514 H   0  0  0  0  0  0  0  0  0  0  0  0
   -3.8187  -13.5739    2.4953 H   0  0  0  0  0  0  0  0  0  0  0  0
   -4.8120  -12.7303    1.3538 H   0  0  0  0  0  0  0  0  0  0  0  0
   -4.4533  -10.5747    2.6782 H   0  0  0  0  0  0  0  0  0  0  0  0
   -1.9416  -12.3170    3.1540 H   0  0  0  0  0  0  0  0  0  0  0  0
   -2.7613   -9.4635    3.1343 H   0  0  0  0  0  0  0  0  0  0  0  0
   -0.0047  -10.5288    3.8940 H   0  0  0  0  0  0  0  0  0  0  0  0
   -0.5732   -6.4418    3.8107 H   0  0  0  0  0  0  0  0  0  0  0  0
   -2.7892   -6.3427    2.8966 H   0  0  0  0  0  0  0  0  0  0  0  0
   -3.0922   -7.9289    3.2927 H   0  0  0  0  0  0  0  0  0  0  0  0
   -4.3276   -7.0627    6.6807 H   0  0  0  0  0  0  0  0  0  0  0  0
   -2.8647   -9.3439    5.6672 H   0  0  0  0  0  0  0  0  0  0  0  0
   -4.6143   -8.9809    8.1892 H   0  0  0  0  0  0  0  0  0  0  0  0
   -5.2051  -10.0987    5.6566 H   0  0  0  0  0  0  0  0  0  0  0  0
   -4.7841  -11.4970    8.0254 H   0  0  0  0  0  0  0  0  0  0  0  0
   -2.8593  -11.4197    5.9807 H   0  0  0  0  0  0  0  0  0  0  0  0
   -2.8922  -10.6399    9.4331 H   0  0  0  0  0  0  0  0  0  0  0  0
   -2.8054  -12.9571    9.2264 H   0  0  0  0  0  0  0  0  0  0  0  0
   -5.8557  -14.6475    5.8128 H   0  0  0  0  0  0  0  0  0  0  0  0
   -4.0468  -14.8590    4.0464 H   0  0  0  0  0  0  0  0  0  0  0  0
    0.3214  -13.1407    5.0507 H   0  0  0  0  0  0  0  0  0  0  0  0
   -2.2770   -8.4152    8.5599 H   0  0  0  0  0  0  0  0  0  0  0  0
   -0.0961   -7.8333    8.1754 H   0  0  0  0  0  0  0  0  0  0  0  0
    0.3221  -10.0182    7.4086 H   0  0  0  0  0  0  0  0  0  0  0  0
    0.2436   -6.9391    5.8147 H   0  0  0  0  0  0  0  0  0  0  0  0
   -1.2827   -7.7713    5.5627 H   0  0  0  0  0  0  0  0  0  0  0  0
   -2.3410   -6.3068    6.7394 H   0  0  0  0  0  0  0  0  0  0  0  0
  1  2  1  0  0  0  0
  1 43  1  0  0  0  0
  1 44  1  0  0  0  0
  1 45  1  0  0  0  0
  2  3  1  0  0  0  0
  2 46  1  0  0  0  0
  2 47  1  0  0  0  0
  3  4  1  0  0  0  0
  3 48  1  0  0  0  0
  3 49  1  0  0  0  0
  4  5  1  0  0  0  0
  4 50  1  0  0  0  0
  4 51  1  0  0  0  0
  5  6  1  0  0  0  0
  5 52  1  0  0  0  0
  5 53  1  0  0  0  0
  6  7  1  0  0  0  0
  6 54  1  0  0  0  0
  6 55  1  0  0  0  0
  7  8  1  0  0  0  0
  7 56  1  0  0  0  0
  7 57  1  0  0  0  0
  8  9  1  0  0  0  0
  8 58  1  0  0  0  0
  8 59  1  0  0  0  0
  9 10  1  0  0  0  0
  9 60  1  0  0  0  0
  9 61  1  0  0  0  0
 10 11  2  0  0  0  0
 10 62  1  0  0  0  0
 11 12  1  0  0  0  0
 11 63  1  0  0  0  0
 12 13  2  0  0  0  0
 12 64  1  0  0  0  0
 13 14  1  0  0  0  0
 13 65  1  0  0  0  0
 14 15  2  0  0  0  0
 14 16  1  0  0  0  0
 16 17  1  0  0  0  0
 16 66  1  0  0  0  0
 17 18  1  0  0  0  0
 17 67  1  0  0  0  0
 17 68  1  0  0  0  0
 18 19  2  0  0  0  0
 18 20  1  0  0  0  0
 20 69  1  0  0  0  0
 21 22  1  0  0  0  0
 21 38  1  0  0  0  0
 21 70  1  6  0  0  0
 21 20  1  0  0  0  0
 22 23  1  0  0  0  0
 22 24  1  0  0  0  0
 22 71  1  1  0  0  0
 23 72  1  0  0  0  0
 24 25  1  0  0  0  0
 24 26  1  0  0  0  0
 24 73  1  1  0  0  0
 25 74  1  0  0  0  0
 26 37  1  0  0  0  0
 26 75  1  1  0  0  0
 26 27  1  0  0  0  0
 27 28  1  0  0  0  0
 27 76  1  0  0  0  0
 28 29  2  0  0  0  0
 28 36  1  0  0  0  0
 29 30  1  0  0  0  0
 29 33  1  0  0  0  0
 30 31  2  0  0  0  0
 31 32  1  0  0  0  0
 31 77  1  0  0  0  0
 32 33  1  0  0  0  0
 32 78  1  0  0  0  0
 33 34  2  0  0  0  0
 34 35  1  0  0  0  0
 35 36  2  0  0  0  0
 35 79  1  0  0  0  0
 38 37  1  0  0  0  0
 38 80  1  1  0  0  0
 38 39  1  0  0  0  0
 39 40  1  0  0  0  0
 39 41  1  0  0  0  0
 39 81  1  1  0  0  0
 40 82  1  0  0  0  0
 41 42  1  0  0  0  0
 41 83  1  0  0  0  0
 41 84  1  0  0  0  0
 42 85  1  0  0  0  0
M  END
>  <DRUGBANK_ID>
DB15215

>  <COMMON_NAME>
KRN-5500

>  <CAS_NUMBER>
151276-95-8

>  <UNII>
8VH13L5K20

>  <SYNONYMS>
6-[4-Deoxy-4-[(2E,4E)-tetradecadienoylglycyl]amino-L-glycero-B-L-manno-heptopyranosyl]amino-9H-purine

$$$$
