
 OpenBabel10282417143D

 24 24  0  0  0  0  0  0  0  0999 V2000
    0.7431    1.2392   -0.1794 N   0  0  0  0  0  0  0  0  0  0  0  0
    1.4420   -0.0083    0.1902 C   0  0  0  0  0  0  0  0  0  0  0  0
    0.7147   -1.2826   -0.2844 C   0  0  1  0  0  0  0  0  0  0  0  0
   -0.7558   -1.3061    0.1613 C   0  0  2  0  0  0  0  0  0  0  0  0
   -1.4543    0.0126   -0.2113 C   0  0  2  0  0  0  0  0  0  0  0  0
   -0.6582    1.2360    0.3035 C   0  0  1  0  0  0  0  0  0  0  0  0
   -0.7159    1.3873    1.8441 C   0  0  0  0  0  0  0  0  0  0  0  0
   -0.0927    2.6078    2.2323 O   0  0  0  0  0  0  0  0  0  0  0  0
   -2.7816   -0.0201    0.3266 O   0  0  0  0  0  0  0  0  0  0  0  0
   -0.8660   -1.5155    1.5747 O   0  0  0  0  0  0  0  0  0  0  0  0
    0.8017   -1.3808   -1.7109 O   0  0  0  0  0  0  0  0  0  0  0  0
    0.7637    1.3497   -1.1936 H   0  0  0  0  0  0  0  0  0  0  0  0
    2.4419    0.0320   -0.2571 H   0  0  0  0  0  0  0  0  0  0  0  0
    1.5924   -0.0358    1.2745 H   0  0  0  0  0  0  0  0  0  0  0  0
    1.2394   -2.1518    0.1295 H   0  0  0  0  0  0  0  0  0  0  0  0
   -1.2837   -2.1417   -0.3118 H   0  0  0  0  0  0  0  0  0  0  0  0
   -1.5433    0.0754   -1.3043 H   0  0  0  0  0  0  0  0  0  0  0  0
   -1.1302    2.1383   -0.1093 H   0  0  0  0  0  0  0  0  0  0  0  0
   -1.7491    1.4015    2.2024 H   0  0  0  0  0  0  0  0  0  0  0  0
   -0.1961    0.5857    2.3725 H   0  0  0  0  0  0  0  0  0  0  0  0
    0.7966    2.5672    1.8292 H   0  0  0  0  0  0  0  0  0  0  0  0
   -3.1114    0.8956    0.3876 H   0  0  0  0  0  0  0  0  0  0  0  0
   -1.7828   -1.2522    1.7996 H   0  0  0  0  0  0  0  0  0  0  0  0
    0.4266   -0.5693   -2.1008 H   0  0  0  0  0  0  0  0  0  0  0  0
  1  2  1  0  0  0  0
  1 12  1  0  0  0  0
  2  3  1  0  0  0  0
  2 13  1  0  0  0  0
  2 14  1  0  0  0  0
  3  4  1  0  0  0  0
  3 11  1  0  0  0  0
  3 15  1  1  0  0  0
  4  5  1  0  0  0  0
  4 16  1  6  0  0  0
  4 10  1  0  0  0  0
  5  6  1  0  0  0  0
  5 17  1  6  0  0  0
  5  9  1  0  0  0  0
  6  1  1  0  0  0  0
  6  7  1  0  0  0  0
  6 18  1  6  0  0  0
  7  8  1  0  0  0  0
  7 19  1  0  0  0  0
  7 20  1  0  0  0  0
  8 21  1  0  0  0  0
  9 22  1  0  0  0  0
 10 23  1  0  0  0  0
 11 24  1  0  0  0  0
M  END
>  <DRUGBANK_ID>
DB05018

>  <COMMON_NAME>
Migalastat

>  <CAS_NUMBER>
108147-54-2

>  <UNII>
C4XNY919FW

>  <SYNONYMS>
1-Deoxygalactonojirimycin; 1-Deoxygalactostatin; Migalastat

$$$$
