
 OpenBabel10282417123D

128130  0  0  0  0  0  0  0  0999 V2000
   -5.0089   10.4412    1.7298 S   0  0  0  0  0  0  0  0  0  0  0  0
    2.9646    2.3391    1.8761 P   0  0  0  0  0  0  0  0  0  0  0  0
   -0.0548    4.4708    6.3370 P   0  0  1  0  0  0  0  0  0  0  0  0
    1.9521    6.4457    6.0990 P   0  0  1  0  0  0  0  0  0  0  0  0
    1.9865    3.5678    5.6279 O   0  0  0  0  0  0  0  0  0  0  0  0
    2.9838    1.4747    3.3746 O   0  0  0  0  0  0  0  0  0  0  0  0
    4.2902    4.1754    3.5397 O   0  0  0  0  0  0  0  0  0  0  0  0
   -0.6644    3.5052    5.0375 O   0  0  0  0  0  0  0  0  0  0  0  0
    2.3471    3.7097    2.4595 O   0  0  0  0  0  0  0  0  0  0  0  0
    4.5772    2.4028    1.9568 O   0  0  0  0  0  0  0  0  0  0  0  0
    1.0184    5.2695    5.2401 O   0  0  0  0  0  0  0  0  0  0  0  0
    2.9475    3.1127    0.5350 O   0  0  0  0  0  0  0  0  0  0  0  0
   -1.5675    4.7265    6.7442 O   0  0  0  0  0  0  0  0  0  0  0  0
    0.7800    7.5285    5.6038 O   0  0  0  0  0  0  0  0  0  0  0  0
    0.4909    5.3350    7.5001 O   0  0  0  0  0  0  0  0  0  0  0  0
   -2.8574    5.6557    5.3131 O   0  0  0  0  0  0  0  0  0  0  0  0
    2.3248    5.7963    7.5096 O   0  0  0  0  0  0  0  0  0  0  0  0
    2.7878    7.4983    6.8678 O   0  0  0  0  0  0  0  0  0  0  0  0
   -2.6770    8.8208    4.8984 O   0  0  0  0  0  0  0  0  0  0  0  0
   -2.1051   12.4699    3.3361 O   0  0  0  0  0  0  0  0  0  0  0  0
   -5.6314    5.6738    0.5864 O   0  0  0  0  0  0  0  0  0  0  0  0
    3.6323    3.8326    6.9630 N   0  0  0  0  0  0  0  0  0  0  0  0
    3.1447    3.6063    9.1212 N   0  0  0  0  0  0  0  0  0  0  0  0
    5.8547    4.7136    7.0210 N   0  0  0  0  0  0  0  0  0  0  0  0
    6.6669    4.5539    9.3132 N   0  0  0  0  0  0  0  0  0  0  0  0
    5.2331    3.8551   11.0991 N   0  0  0  0  0  0  0  0  0  0  0  0
   -3.0110    7.1267    3.1720 N   0  0  0  0  0  0  0  0  0  0  0  0
   -5.5866    7.3693    2.0813 N   0  0  0  0  0  0  0  0  0  0  0  0
    2.9622    2.1111    4.5433 C   0  0  1  0  0  0  0  0  0  0  0  0
    4.0246    3.2434    4.6070 C   0  0  2  0  0  0  0  0  0  0  0  0
    1.6013    2.6766    4.6722 C   0  0  1  0  0  0  0  0  0  0  0  0
    3.3194    4.0275    5.6085 C   0  0  1  0  0  0  0  0  0  0  0  0
    0.1769    2.2278    4.9806 C   0  0  0  0  0  0  0  0  0  0  0  0
    4.7165    4.3032    7.5804 C   0  0  0  0  0  0  0  0  0  0  0  0
    2.7318    3.3807    7.9120 C   0  0  0  0  0  0  0  0  0  0  0  0
    4.4088    4.0911    8.9050 C   0  0  0  0  0  0  0  0  0  0  0  0
   -0.7035    6.6220    3.6518 C   0  0  0  0  0  0  0  0  0  0  0  0
    5.4475    4.2265    9.7945 C   0  0  0  0  0  0  0  0  0  0  0  0
   -1.8608    6.6895    5.0339 C   0  0  1  0  0  0  0  0  0  0  0  0
    0.5013    7.5632    4.0994 C   0  0  0  0  0  0  0  0  0  0  0  0
    6.7909    4.8025    7.9814 C   0  0  0  0  0  0  0  0  0  0  0  0
   -0.1582    5.3305    3.7590 C   0  0  0  0  0  0  0  0  0  0  0  0
   -0.7853    5.9094    2.1925 C   0  0  0  0  0  0  0  0  0  0  0  0
   -8.7844   14.0052    3.4344 C   0  0  0  0  0  0  0  0  0  0  0  0
   -9.5406   13.4577    2.2163 C   0  0  0  0  0  0  0  0  0  0  0  0
   -7.9268   12.9023    4.0323 C   0  0  0  0  0  0  0  0  0  0  0  0
  -10.4262   12.2888    2.6563 C   0  0  0  0  0  0  0  0  0  0  0  0
   -2.6254    7.6597    4.4008 C   0  0  0  0  0  0  0  0  0  0  0  0
   -6.9689   12.4341    2.9673 C   0  0  0  0  0  0  0  0  0  0  0  0
  -11.3934   12.7727    3.7397 C   0  0  0  0  0  0  0  0  0  0  0  0
   -6.0957   13.5993    2.4981 C   0  0  0  0  0  0  0  0  0  0  0  0
  -12.2639   13.9071    3.1871 C   0  0  0  0  0  0  0  0  0  0  0  0
   -5.1540   14.0417    3.6078 C   0  0  0  0  0  0  0  0  0  0  0  0
  -13.0920   13.4132    1.9962 C   0  0  0  0  0  0  0  0  0  0  0  0
   -4.3014   12.8924    4.1368 C   0  0  0  0  0  0  0  0  0  0  0  0
  -13.9916   12.2456    2.4021 C   0  0  0  0  0  0  0  0  0  0  0  0
   -3.2350    5.7387    2.7528 C   0  0  0  0  0  0  0  0  0  0  0  0
   -4.5888    5.1814    2.6403 C   0  0  0  0  0  0  0  0  0  0  0  0
   -3.3157   12.3461    3.1086 C   0  0  0  0  0  0  0  0  0  0  0  0
  -14.9488   12.6786    3.5003 C   0  0  0  0  0  0  0  0  0  0  0  0
   -3.7488   11.7402    1.7688 C   0  0  0  0  0  0  0  0  0  0  0  0
   -5.3312    6.0760    1.7101 C   0  0  0  0  0  0  0  0  0  0  0  0
   -5.2519    8.1411    3.2972 C   0  0  0  0  0  0  0  0  0  0  0  0
   -4.3274    9.3935    2.9814 C   0  0  0  0  0  0  0  0  0  0  0  0
    4.2644    3.7161   11.3742 H   0  0  0  0  0  0  0  0  0  0  0  0
    5.9793    3.9652   11.7541 H   0  0  0  0  0  0  0  0  0  0  0  0
   -3.1308    7.7013    2.3727 H   0  0  0  0  0  0  0  0  0  0  0  0
   -6.0334    7.9065    1.3537 H   0  0  0  0  0  0  0  0  0  0  0  0
    3.4677    4.4048    3.0423 H   0  0  0  0  0  0  0  0  0  0  0  0
    1.5374    3.8418    1.9081 H   0  0  0  0  0  0  0  0  0  0  0  0
    4.9865    1.9080    2.6820 H   0  0  0  0  0  0  0  0  0  0  0  0
   -2.1497    4.4291    6.0128 H   0  0  0  0  0  0  0  0  0  0  0  0
   -3.2263    5.8689    6.2055 H   0  0  0  0  0  0  0  0  0  0  0  0
    1.5800    5.6840    8.1364 H   0  0  0  0  0  0  0  0  0  0  0  0
    3.1288    1.4301    5.3837 H   0  0  0  0  0  0  0  0  0  0  0  0
    5.0131    2.9255    4.9169 H   0  0  0  0  0  0  0  0  0  0  0  0
    1.2810    3.1212    3.7673 H   0  0  0  0  0  0  0  0  0  0  0  0
    3.4166    5.0711    5.2822 H   0  0  0  0  0  0  0  0  0  0  0  0
    0.0902    1.7088    5.9340 H   0  0  0  0  0  0  0  0  0  0  0  0
   -0.2482    1.6334    4.1631 H   0  0  0  0  0  0  0  0  0  0  0  0
    1.7290    3.0522    7.6792 H   0  0  0  0  0  0  0  0  0  0  0  0
   -1.4351    7.0201    6.0038 H   0  0  0  0  0  0  0  0  0  0  0  0
    1.4229    7.2705    3.5699 H   0  0  0  0  0  0  0  0  0  0  0  0
    0.2573    8.5727    3.7706 H   0  0  0  0  0  0  0  0  0  0  0  0
    7.7826    5.0545    7.6272 H   0  0  0  0  0  0  0  0  0  0  0  0
   -0.2376    4.3080    3.4280 H   0  0  0  0  0  0  0  0  0  0  0  0
    0.8931    5.4592    3.4850 H   0  0  0  0  0  0  0  0  0  0  0  0
   -0.6199    5.3702    4.6988 H   0  0  0  0  0  0  0  0  0  0  0  0
   -1.3172    4.8795    2.2121 H   0  0  0  0  0  0  0  0  0  0  0  0
   -1.1807    6.5629    1.4620 H   0  0  0  0  0  0  0  0  0  0  0  0
    0.1691    5.5167    1.7721 H   0  0  0  0  0  0  0  0  0  0  0  0
   -9.4382   14.4077    4.2072 H   0  0  0  0  0  0  0  0  0  0  0  0
   -8.1977   14.8777    3.1423 H   0  0  0  0  0  0  0  0  0  0  0  0
  -10.1086   14.2646    1.7489 H   0  0  0  0  0  0  0  0  0  0  0  0
   -8.8791   13.1319    1.4069 H   0  0  0  0  0  0  0  0  0  0  0  0
   -8.5048   12.0459    4.3939 H   0  0  0  0  0  0  0  0  0  0  0  0
   -7.3882   13.2496    4.9163 H   0  0  0  0  0  0  0  0  0  0  0  0
  -10.9450   11.8688    1.7910 H   0  0  0  0  0  0  0  0  0  0  0  0
   -9.8418   11.4424    3.0317 H   0  0  0  0  0  0  0  0  0  0  0  0
   -7.4616   11.9680    2.1058 H   0  0  0  0  0  0  0  0  0  0  0  0
   -6.4229   11.6174    3.4300 H   0  0  0  0  0  0  0  0  0  0  0  0
  -11.9860   11.9332    4.1094 H   0  0  0  0  0  0  0  0  0  0  0  0
  -10.8681   13.1162    4.6364 H   0  0  0  0  0  0  0  0  0  0  0  0
   -6.6709   14.4490    2.1274 H   0  0  0  0  0  0  0  0  0  0  0  0
   -5.5759   13.3450    1.5890 H   0  0  0  0  0  0  0  0  0  0  0  0
  -12.8954   14.3084    3.9825 H   0  0  0  0  0  0  0  0  0  0  0  0
  -11.6643   14.7716    2.8832 H   0  0  0  0  0  0  0  0  0  0  0  0
   -5.7439   14.4636    4.4334 H   0  0  0  0  0  0  0  0  0  0  0  0
   -4.5233   14.8616    3.2539 H   0  0  0  0  0  0  0  0  0  0  0  0
  -13.6890   14.2375    1.5961 H   0  0  0  0  0  0  0  0  0  0  0  0
  -12.4435   13.1031    1.1673 H   0  0  0  0  0  0  0  0  0  0  0  0
   -4.8868   12.0756    4.5685 H   0  0  0  0  0  0  0  0  0  0  0  0
   -3.7287   13.2747    4.9942 H   0  0  0  0  0  0  0  0  0  0  0  0
  -14.5450   11.8862    1.5309 H   0  0  0  0  0  0  0  0  0  0  0  0
  -13.4005   11.3880    2.7453 H   0  0  0  0  0  0  0  0  0  0  0  0
   -2.7237    5.0180    3.3825 H   0  0  0  0  0  0  0  0  0  0  0  0
   -2.8910    5.7270    1.7135 H   0  0  0  0  0  0  0  0  0  0  0  0
   -5.0342    5.0386    3.6161 H   0  0  0  0  0  0  0  0  0  0  0  0
   -4.4176    4.1963    2.1690 H   0  0  0  0  0  0  0  0  0  0  0  0
  -15.5629   13.5116    3.1463 H   0  0  0  0  0  0  0  0  0  0  0  0
  -15.5926   11.8524    3.8012 H   0  0  0  0  0  0  0  0  0  0  0  0
  -14.4217   13.0097    4.4012 H   0  0  0  0  0  0  0  0  0  0  0  0
   -2.8620   11.3447    1.2722 H   0  0  0  0  0  0  0  0  0  0  0  0
   -4.0867   12.5154    1.0941 H   0  0  0  0  0  0  0  0  0  0  0  0
   -4.8866    7.4331    4.0564 H   0  0  0  0  0  0  0  0  0  0  0  0
   -6.1579    8.4735    3.7919 H   0  0  0  0  0  0  0  0  0  0  0  0
   -3.3600    9.2486    2.4785 H   0  0  0  0  0  0  0  0  0  0  0  0
   -4.0701    9.9347    3.8909 H   0  0  0  0  0  0  0  0  0  0  0  0
  1 61  1  0  0  0  0
  1 64  1  0  0  0  0
  2  6  1  0  0  0  0
  2  9  1  0  0  0  0
  2 10  1  0  0  0  0
  2 12  2  0  0  0  0
  3 13  1  0  0  0  0
  3 15  2  1  0  0  0
  3 11  1  0  0  0  0
  3  8  1  0  0  0  0
  4 17  1  0  0  0  0
  4 18  2  6  0  0  0
  4 14  1  0  0  0  0
  4 11  1  0  0  0  0
  5 31  1  0  0  0  0
  5 32  1  0  0  0  0
  7 69  1  0  0  0  0
  8 33  1  0  0  0  0
  9 70  1  0  0  0  0
 10 71  1  0  0  0  0
 13 72  1  0  0  0  0
 14 40  1  0  0  0  0
 16 73  1  0  0  0  0
 17 74  1  0  0  0  0
 19 48  2  0  0  0  0
 20 59  2  0  0  0  0
 21 62  2  0  0  0  0
 22 34  1  0  0  0  0
 22 35  1  0  0  0  0
 23 35  2  0  0  0  0
 23 36  1  0  0  0  0
 24 34  2  0  0  0  0
 24 41  1  0  0  0  0
 25 38  1  0  0  0  0
 25 41  2  0  0  0  0
 26 38  1  0  0  0  0
 26 65  1  0  0  0  0
 26 66  1  0  0  0  0
 27 48  1  0  0  0  0
 27 57  1  0  0  0  0
 27 67  1  0  0  0  0
 28 62  1  0  0  0  0
 28 63  1  0  0  0  0
 28 68  1  0  0  0  0
 29  6  1  0  0  0  0
 29 30  1  0  0  0  0
 29 31  1  0  0  0  0
 29 75  1  1  0  0  0
 30  7  1  0  0  0  0
 30 32  1  0  0  0  0
 30 76  1  1  0  0  0
 31 77  1  6  0  0  0
 31 33  1  0  0  0  0
 32 22  1  0  0  0  0
 32 78  1  6  0  0  0
 33 79  1  0  0  0  0
 33 80  1  0  0  0  0
 34 36  1  0  0  0  0
 35 81  1  0  0  0  0
 36 38  2  0  0  0  0
 37 39  1  0  0  0  0
 37 40  1  0  0  0  0
 37 42  1  0  0  0  0
 37 43  1  0  0  0  0
 39 16  1  0  0  0  0
 39 48  1  0  0  0  0
 39 82  1  1  0  0  0
 40 83  1  0  0  0  0
 40 84  1  0  0  0  0
 41 85  1  0  0  0  0
 42 86  1  0  0  0  0
 42 87  1  0  0  0  0
 42 88  1  0  0  0  0
 43 89  1  0  0  0  0
 43 90  1  0  0  0  0
 43 91  1  0  0  0  0
 44 45  1  0  0  0  0
 44 46  1  0  0  0  0
 44 92  1  0  0  0  0
 44 93  1  0  0  0  0
 45 47  1  0  0  0  0
 45 94  1  0  0  0  0
 45 95  1  0  0  0  0
 46 49  1  0  0  0  0
 46 96  1  0  0  0  0
 46 97  1  0  0  0  0
 47 50  1  0  0  0  0
 47 98  1  0  0  0  0
 47 99  1  0  0  0  0
 49 51  1  0  0  0  0
 49100  1  0  0  0  0
 49101  1  0  0  0  0
 50 52  1  0  0  0  0
 50102  1  0  0  0  0
 50103  1  0  0  0  0
 51 53  1  0  0  0  0
 51104  1  0  0  0  0
 51105  1  0  0  0  0
 52 54  1  0  0  0  0
 52106  1  0  0  0  0
 52107  1  0  0  0  0
 53 55  1  0  0  0  0
 53108  1  0  0  0  0
 53109  1  0  0  0  0
 54 56  1  0  0  0  0
 54110  1  0  0  0  0
 54111  1  0  0  0  0
 55 59  1  0  0  0  0
 55112  1  0  0  0  0
 55113  1  0  0  0  0
 56 60  1  0  0  0  0
 56114  1  0  0  0  0
 56115  1  0  0  0  0
 57 58  1  0  0  0  0
 57116  1  0  0  0  0
 57117  1  0  0  0  0
 58 62  1  0  0  0  0
 58118  1  0  0  0  0
 58119  1  0  0  0  0
 59 61  1  0  0  0  0
 60120  1  0  0  0  0
 60121  1  0  0  0  0
 60122  1  0  0  0  0
 61123  1  0  0  0  0
 61124  1  0  0  0  0
 63 64  1  0  0  0  0
 63125  1  0  0  0  0
 63126  1  0  0  0  0
 64127  1  0  0  0  0
 64128  1  0  0  0  0
M  END
>  <DRUGBANK_ID>
DB02271

>  <SECONDARY_ACCESSION_NUMBERS>
EXPT02345

>  <COMMON_NAME>
S-(2-oxo)pentadecylcoa

$$$$
