
 OpenBabel10282417193D

 49 52  0  0  0  0  0  0  0  0999 V2000
    0.9950   -0.6386   -0.4396 C   0  0  0  0  0  0  0  0  0  0  0  0
    0.6000    1.7011    2.1072 C   0  0  0  0  0  0  0  0  0  0  0  0
   -1.9618    1.5606    3.6277 C   0  0  0  0  0  0  0  0  0  0  0  0
   -2.1046   -0.4554    3.0373 C   0  0  0  0  0  0  0  0  0  0  0  0
   -1.9337    2.8968    2.5598 C   0  0  0  0  0  0  0  0  0  0  0  0
   -6.3108   -2.4392    1.4196 C   0  0  0  0  0  0  0  0  0  0  0  0
   -6.4607   -0.2132   -0.1660 C   0  0  0  0  0  0  0  0  0  0  0  0
    1.8049    0.8040    1.1087 C   0  0  0  0  0  0  0  0  0  0  0  0
   -6.5276   -3.8058   -1.0893 C   0  0  0  0  0  0  0  0  0  0  0  0
    0.2882   -0.2326    1.2988 C   0  0  0  0  0  0  0  0  0  0  0  0
   -5.8456   -1.2397    1.9540 C   0  0  0  0  0  0  0  0  0  0  0  0
   -7.0080   -2.4020    0.2509 C   0  0  0  0  0  0  0  0  0  0  0  0
   -6.5511   -1.5397   -0.6526 C   0  0  0  0  0  0  0  0  0  0  0  0
   -5.9912   -0.0492    1.1977 C   0  0  0  0  0  0  0  0  0  0  0  0
   -1.3428    0.8918    1.7947 C   0  0  0  0  0  0  0  0  0  0  0  0
   -0.2066    0.2550    3.2172 C   0  0  0  0  0  0  0  0  0  0  0  0
   -1.1019    1.5375    0.5519 C   0  0  0  0  0  0  0  0  0  0  0  0
   -3.6248    1.5715    1.3938 C   0  0  0  0  0  0  0  0  0  0  0  0
   -5.3069   -1.4926    3.9607 I   0  0  0  0  0  0  0  0  0  0  0  0
   -0.8853   -0.0218    4.8061 N   0  0  0  0  0  0  0  0  0  0  0  0
   -1.1037   -1.1438    1.5546 N   0  0  0  0  0  0  0  0  0  0  0  0
    1.4922    0.1847    2.7403 N   0  0  0  0  0  0  0  0  0  0  0  0
    0.5332    1.5616    0.0809 N   0  0  0  0  0  0  0  0  0  0  0  0
   -2.9450    0.4847    1.4506 N   0  0  0  0  0  0  0  0  0  0  0  0
   -2.4356    2.4758    1.2396 N   0  0  0  0  0  0  0  0  0  0  0  0
   -7.6626   -3.4625   -0.3521 O   0  0  0  0  0  0  0  0  0  0  0  0
   -6.2412   -2.4234   -1.7006 O   0  0  0  0  0  0  0  0  0  0  0  0
   -5.3818    1.6459    1.8220 S   0  0  0  0  0  0  0  0  0  0  0  0
    1.0212    0.2115   -1.1591 H   0  0  0  0  0  0  0  0  0  0  0  0
    0.4828   -1.4296   -0.9494 H   0  0  0  0  0  0  0  0  0  0  0  0
    2.1056   -0.8082   -0.4330 H   0  0  0  0  0  0  0  0  0  0  0  0
    0.5677    2.6681    1.4999 H   0  0  0  0  0  0  0  0  0  0  0  0
    0.6600    2.0204    3.2230 H   0  0  0  0  0  0  0  0  0  0  0  0
    1.7583    2.0654    2.3465 H   0  0  0  0  0  0  0  0  0  0  0  0
   -2.2870    1.9541    4.6019 H   0  0  0  0  0  0  0  0  0  0  0  0
   -0.8910    1.8907    4.0153 H   0  0  0  0  0  0  0  0  0  0  0  0
   -3.1115   -0.7823    2.9443 H   0  0  0  0  0  0  0  0  0  0  0  0
   -1.6288   -1.3111    3.5864 H   0  0  0  0  0  0  0  0  0  0  0  0
   -1.7599    3.8647    3.0336 H   0  0  0  0  0  0  0  0  0  0  0  0
   -0.9784    3.1087    2.0726 H   0  0  0  0  0  0  0  0  0  0  0  0
   -6.1685   -3.4103    1.8732 H   0  0  0  0  0  0  0  0  0  0  0  0
   -6.8921    0.6876   -0.6358 H   0  0  0  0  0  0  0  0  0  0  0  0
    2.7975    0.5029    0.7706 H   0  0  0  0  0  0  0  0  0  0  0  0
   -6.1784   -4.3936   -0.1707 H   0  0  0  0  0  0  0  0  0  0  0  0
   -6.4766   -4.6806   -1.7767 H   0  0  0  0  0  0  0  0  0  0  0  0
    0.8937   -1.1885    1.7163 H   0  0  0  0  0  0  0  0  0  0  0  0
   -1.9782    0.1399    4.8286 H   0  0  0  0  0  0  0  0  0  0  0  0
   -0.5864    0.7117    5.4295 H   0  0  0  0  0  0  0  0  0  0  0  0
   -1.3973   -0.6945    0.6580 H   0  0  0  0  0  0  0  0  0  0  0  0
  1 29  1  0  0  0  0
  1 30  1  0  0  0  0
  1 31  1  0  0  0  0
  2 32  1  0  0  0  0
  2 33  1  0  0  0  0
  2 34  1  0  0  0  0
  3 35  1  0  0  0  0
  3 36  1  0  0  0  0
  4  3  1  0  0  0  0
  4 37  1  0  0  0  0
  4 38  1  0  0  0  0
  5  3  1  0  0  0  0
  5 39  1  0  0  0  0
  5 40  1  0  0  0  0
  6 41  1  0  0  0  0
  7 42  1  0  0  0  0
  8 43  1  0  0  0  0
  9 44  1  0  0  0  0
  9 45  1  0  0  0  0
 10  1  1  0  0  0  0
 10  2  1  0  0  0  0
 10 46  1  0  0  0  0
 11  6  1  0  0  0  0
 12  6  2  0  0  0  0
 13  7  2  0  0  0  0
 13 12  1  0  0  0  0
 14  7  1  0  0  0  0
 14 11  2  0  0  0  0
 16 15  2  0  0  0  0
 17 15  1  0  0  0  0
 19 11  1  0  0  0  0
 20 16  1  0  0  0  0
 20 47  1  0  0  0  0
 20 48  1  0  0  0  0
 21  4  1  0  0  0  0
 21 10  1  0  0  0  0
 21 49  1  0  0  0  0
 22  8  2  0  0  0  0
 22 16  1  0  0  0  0
 23  8  1  0  0  0  0
 23 17  2  0  0  0  0
 24 15  1  0  0  0  0
 24 18  2  0  0  0  0
 25  5  1  0  0  0  0
 25 17  1  0  0  0  0
 25 18  1  0  0  0  0
 26  9  1  0  0  0  0
 26 12  1  0  0  0  0
 27  9  1  0  0  0  0
 27 13  1  0  0  0  0
 28 14  1  0  0  0  0
 28 18  1  0  0  0  0
M  END
>  <DRUGBANK_ID>
DB12638

>  <COMMON_NAME>
Zelavespib

>  <CAS_NUMBER>
873436-91-0

>  <UNII>
06IVK87M04

>  <SYNONYMS>
8-((6-Iodobenzo[d][1,3]dioxol-5-yl)thio)-9-(3-(isopropylamino)propyl)-9H-purin-6-amine; 8-(6-iodo-benzo[1,3]dioxol-5-ylsulfanyl)-9-(3-isopropylamino-propyl)adenine; 9H-purine-9-propanamine, 6-amino-8-((6-iodo-1,3-benzodioxol-5-yl)thio)-N-(1-methylethyl)-

$$$$
