
 OpenBabel10282417233D

 57 61  0  0  0  0  0  0  0  0999 V2000
   -2.0905   -0.0544   -0.0558 C   0  0  0  0  0  0  0  0  0  0  0  0
   -0.6490   -0.0846    0.0096 N   0  0  0  0  0  0  0  0  0  0  0  0
    0.1560   -1.1900   -0.0089 C   0  0  0  0  0  0  0  0  0  0  0  0
    1.4491   -0.7190   -0.0818 C   0  0  0  0  0  0  0  0  0  0  0  0
    1.3108    0.6873   -0.0269 C   0  0  0  0  0  0  0  0  0  0  0  0
    0.0333    1.0751    0.0191 N   0  0  0  0  0  0  0  0  0  0  0  0
    2.6385   -1.5379   -0.1794 C   0  0  0  0  0  0  0  0  0  0  0  0
    3.6716   -1.3525    0.7254 C   0  0  0  0  0  0  0  0  0  0  0  0
    4.8661   -2.0822    0.6077 C   0  0  0  0  0  0  0  0  0  0  0  0
    5.0484   -3.0616   -0.3570 C   0  0  0  0  0  0  0  0  0  0  0  0
    4.0186   -3.2080   -1.3094 C   0  0  0  0  0  0  0  0  0  0  0  0
    2.8318   -2.4502   -1.2191 C   0  0  0  0  0  0  0  0  0  0  0  0
    6.2750   -3.7605   -0.2945 C   0  0  0  0  0  0  0  0  0  0  0  0
    7.2159   -3.6171    0.6954 N   0  0  0  0  0  0  0  0  0  0  0  0
    6.9931   -2.6466    1.6003 C   0  0  0  0  0  0  0  0  0  0  0  0
    7.8471   -2.5183    2.7114 N   0  0  0  0  0  0  0  0  0  0  0  0
    7.7311   -1.7453    3.8714 C   0  0  0  0  0  0  0  0  0  0  0  0
    8.6686   -1.6547    4.6505 O   0  0  0  0  0  0  0  0  0  0  0  0
    6.4787   -0.9918    4.2051 C   0  0  0  0  0  0  0  0  0  0  0  0
    5.2250   -1.6030    4.1728 C   0  0  0  0  0  0  0  0  0  0  0  0
    4.1166   -0.7740    4.1652 C   0  0  0  0  0  0  0  0  0  0  0  0
    4.1745    0.5675    4.3224 N   0  0  0  0  0  0  0  0  0  0  0  0
    5.3843    1.1470    4.4718 C   0  0  0  0  0  0  0  0  0  0  0  0
    6.5560    0.3945    4.3889 C   0  0  0  0  0  0  0  0  0  0  0  0
    5.4527    2.4812    4.7768 N   0  0  0  0  0  0  0  0  0  0  0  0
    6.0737    3.4757    3.9038 C   0  0  0  0  0  0  0  0  0  0  0  0
    6.9100    4.4505    4.7683 C   0  0  0  0  0  0  0  0  0  0  0  0
    6.0847    5.0826    5.8259 N   0  0  0  0  0  0  0  0  0  0  0  0
    6.8709    6.0304    6.6067 C   0  0  0  0  0  0  0  0  0  0  0  0
    5.5291    4.0085    6.6868 C   0  0  0  0  0  0  0  0  0  0  0  0
    4.6517    3.0119    5.8799 C   0  0  0  0  0  0  0  0  0  0  0  0
    5.9210   -1.7964    1.4474 C   0  0  0  0  0  0  0  0  0  0  0  0
   -2.4718    0.5385    0.7793 H   0  0  0  0  0  0  0  0  0  0  0  0
   -2.3763    0.4002   -1.0084 H   0  0  0  0  0  0  0  0  0  0  0  0
   -2.4794   -1.0738    0.0000 H   0  0  0  0  0  0  0  0  0  0  0  0
   -0.2517   -2.1903    0.0132 H   0  0  0  0  0  0  0  0  0  0  0  0
    2.0872    1.4420   -0.0431 H   0  0  0  0  0  0  0  0  0  0  0  0
    3.5427   -0.6340    1.5334 H   0  0  0  0  0  0  0  0  0  0  0  0
    4.1457   -3.8928   -2.1426 H   0  0  0  0  0  0  0  0  0  0  0  0
    2.0722   -2.5524   -1.9891 H   0  0  0  0  0  0  0  0  0  0  0  0
    6.5338   -4.4797   -1.0690 H   0  0  0  0  0  0  0  0  0  0  0  0
    8.6914   -3.0785    2.6624 H   0  0  0  0  0  0  0  0  0  0  0  0
    5.1118   -2.6610    3.9574 H   0  0  0  0  0  0  0  0  0  0  0  0
    3.1303   -1.1675    3.9236 H   0  0  0  0  0  0  0  0  0  0  0  0
    7.5178    0.8872    4.4793 H   0  0  0  0  0  0  0  0  0  0  0  0
    5.2964    4.0442    3.3736 H   0  0  0  0  0  0  0  0  0  0  0  0
    6.7155    3.0168    3.1442 H   0  0  0  0  0  0  0  0  0  0  0  0
    7.3453    5.2190    4.1200 H   0  0  0  0  0  0  0  0  0  0  0  0
    7.7401    3.8932    5.2249 H   0  0  0  0  0  0  0  0  0  0  0  0
    6.2468    6.5059    7.3716 H   0  0  0  0  0  0  0  0  0  0  0  0
    7.7261    5.5570    7.1002 H   0  0  0  0  0  0  0  0  0  0  0  0
    7.2434    6.8357    5.9634 H   0  0  0  0  0  0  0  0  0  0  0  0
    6.3537    3.4516    7.1559 H   0  0  0  0  0  0  0  0  0  0  0  0
    4.9275    4.4419    7.4931 H   0  0  0  0  0  0  0  0  0  0  0  0
    3.7569    3.5229    5.5037 H   0  0  0  0  0  0  0  0  0  0  0  0
    4.3265    2.2137    6.5582 H   0  0  0  0  0  0  0  0  0  0  0  0
    5.8685   -0.8708    1.9879 H   0  0  0  0  0  0  0  0  0  0  0  0
  1  2  1  0  0  0  0
  1 33  1  0  0  0  0
  1 34  1  0  0  0  0
  1 35  1  0  0  0  0
  2  3  1  0  0  0  0
  2  6  1  0  0  0  0
  3  4  2  0  0  0  0
  3 36  1  0  0  0  0
  4  5  1  0  0  0  0
  4  7  1  0  0  0  0
  5  6  2  0  0  0  0
  5 37  1  0  0  0  0
  7  8  2  0  0  0  0
  7 12  1  0  0  0  0
  8  9  1  0  0  0  0
  8 38  1  0  0  0  0
  9 10  2  0  0  0  0
  9 32  1  0  0  0  0
 10 11  1  0  0  0  0
 10 13  1  0  0  0  0
 11 12  2  0  0  0  0
 11 39  1  0  0  0  0
 12 40  1  0  0  0  0
 13 14  2  0  0  0  0
 13 41  1  0  0  0  0
 14 15  1  0  0  0  0
 15 16  1  0  0  0  0
 15 32  2  0  0  0  0
 16 17  1  0  0  0  0
 16 42  1  0  0  0  0
 17 18  2  0  0  0  0
 17 19  1  0  0  0  0
 19 20  2  0  0  0  0
 19 24  1  0  0  0  0
 20 21  1  0  0  0  0
 20 43  1  0  0  0  0
 21 22  2  0  0  0  0
 21 44  1  0  0  0  0
 22 23  1  0  0  0  0
 23 24  2  0  0  0  0
 23 25  1  0  0  0  0
 24 45  1  0  0  0  0
 25 26  1  0  0  0  0
 25 31  1  0  0  0  0
 26 27  1  0  0  0  0
 26 46  1  0  0  0  0
 26 47  1  0  0  0  0
 27 28  1  0  0  0  0
 27 48  1  0  0  0  0
 27 49  1  0  0  0  0
 28 29  1  0  0  0  0
 28 30  1  0  0  0  0
 29 50  1  0  0  0  0
 29 51  1  0  0  0  0
 29 52  1  0  0  0  0
 30 31  1  0  0  0  0
 30 53  1  0  0  0  0
 30 54  1  0  0  0  0
 31 55  1  0  0  0  0
 31 56  1  0  0  0  0
 32 57  1  0  0  0  0
M  END
>  <DRUGBANK_ID>
DB17269

>  <COMMON_NAME>
Cirtuvivint

>  <CAS_NUMBER>
2143917-62-6

>  <UNII>
7T1PY32ZPH

>  <SYNONYMS>
4-pyridinecarboxamide, 2-(4-methyl-1-piperazinyl)-n-(6-(1-methyl-1h-pyrazol-4-yl)-3-isoquinolinyl)-; CDC-like kinase inhibitor of the Wnt Pathway

$$$$
