
 OpenBabel10282417183D

 48 51  0  0  0  0  0  0  0  0999 V2000
    5.5900   -1.2077   -3.8264 C   0  0  0  0  0  0  0  0  0  0  0  0
    3.4113   -4.0111   -6.4181 C   0  0  1  0  0  0  0  0  0  0  0  0
    4.5849   -4.6747   -5.6680 C   0  0  2  0  0  0  0  0  0  0  0  0
    5.3150   -2.1345   -4.9985 C   0  0  2  0  0  0  0  0  0  0  0  0
    5.8896   -1.6949   -2.5797 C   0  0  0  0  0  0  0  0  0  0  0  0
    5.0135   -3.6144   -4.5469 C   0  0  1  0  0  0  0  0  0  0  0  0
    3.2002   -4.8209   -7.7271 C   0  0  2  0  0  0  0  0  0  0  0  0
    2.5550   -6.0935   -8.1066 C   0  0  0  0  0  0  0  0  0  0  0  0
    3.9635   -2.5509   -6.9442 C   0  0  0  0  0  0  0  0  0  0  0  0
    4.1175   -1.5987   -5.7972 C   0  0  0  0  0  0  0  0  0  0  0  0
    5.3221    0.3142   -4.0811 C   0  0  0  0  0  0  0  0  0  0  0  0
    6.0377   -4.0498   -3.5082 C   0  0  0  0  0  0  0  0  0  0  0  0
    5.4673   -5.2464   -6.8888 C   0  0  0  0  0  0  0  0  0  0  0  0
    1.7441   -6.7135   -8.8046 C   0  0  0  0  0  0  0  0  0  0  0  0
    6.1885   -0.7792   -1.4099 C   0  0  0  0  0  0  0  0  0  0  0  0
    5.9148   -3.1722   -2.2353 C   0  0  0  0  0  0  0  0  0  0  0  0
    4.6858   -4.8534   -8.2160 C   0  0  0  0  0  0  0  0  0  0  0  0
    5.5625    0.5356   -1.7939 C   0  0  0  0  0  0  0  0  0  0  0  0
    4.4886    0.9239   -1.3260 O   0  0  0  0  0  0  0  0  0  0  0  0
    6.1042    1.1169   -3.0608 C   0  0  0  0  0  0  0  0  0  0  0  0
    2.1437   -4.0063   -8.1980 O   0  0  0  0  0  0  0  0  0  0  0  0
    2.1276   -3.6470   -5.5370 C   0  0  0  0  0  0  0  0  0  0  0  0
    6.2228   -2.1520   -5.6214 H   0  0  0  0  0  0  0  0  0  0  0  0
    4.2219   -5.5540   -5.1151 H   0  0  0  0  0  0  0  0  0  0  0  0
    4.1109   -3.5102   -3.9288 H   0  0  0  0  0  0  0  0  0  0  0  0
    3.3638   -2.1808   -7.7860 H   0  0  0  0  0  0  0  0  0  0  0  0
    4.9753   -2.5271   -7.3862 H   0  0  0  0  0  0  0  0  0  0  0  0
    4.2000   -0.5868   -6.2125 H   0  0  0  0  0  0  0  0  0  0  0  0
    3.2633   -1.5388   -5.1194 H   0  0  0  0  0  0  0  0  0  0  0  0
    5.5352    0.7289   -5.0759 H   0  0  0  0  0  0  0  0  0  0  0  0
    4.2276    0.4024   -3.9812 H   0  0  0  0  0  0  0  0  0  0  0  0
    5.9472   -5.1064   -3.2409 H   0  0  0  0  0  0  0  0  0  0  0  0
    7.0254   -3.9113   -3.9564 H   0  0  0  0  0  0  0  0  0  0  0  0
    5.5041   -6.3550   -6.9268 H   0  0  0  0  0  0  0  0  0  0  0  0
    6.5286   -4.9669   -6.8439 H   0  0  0  0  0  0  0  0  0  0  0  0
    0.9437   -7.0131   -9.4423 H   0  0  0  0  0  0  0  0  0  0  0  0
    5.8428   -1.0121   -0.3956 H   0  0  0  0  0  0  0  0  0  0  0  0
    7.2775   -0.7698   -1.3463 H   0  0  0  0  0  0  0  0  0  0  0  0
    6.6997   -3.4972   -1.5386 H   0  0  0  0  0  0  0  0  0  0  0  0
    4.9972   -3.3122   -1.6378 H   0  0  0  0  0  0  0  0  0  0  0  0
    4.8618   -5.5301   -9.0639 H   0  0  0  0  0  0  0  0  0  0  0  0
    5.0750   -3.9055   -8.5927 H   0  0  0  0  0  0  0  0  0  0  0  0
    6.0262    2.2065   -3.0193 H   0  0  0  0  0  0  0  0  0  0  0  0
    7.1632    0.8970   -3.2327 H   0  0  0  0  0  0  0  0  0  0  0  0
    1.4330   -4.3273   -7.5829 H   0  0  0  0  0  0  0  0  0  0  0  0
    1.2438   -4.2721   -5.6650 H   0  0  0  0  0  0  0  0  0  0  0  0
    2.3008   -3.6427   -4.4561 H   0  0  0  0  0  0  0  0  0  0  0  0
    1.7666   -2.6347   -5.7909 H   0  0  0  0  0  0  0  0  0  0  0  0
  2  9  1  0  0  0  0
  2 22  1  6  0  0  0
  3  6  1  0  0  0  0
  3  2  1  0  0  0  0
  3 24  1  1  0  0  0
  4  1  1  0  0  0  0
  4 23  1  1  0  0  0
  5  1  2  0  0  0  0
  6  4  1  0  0  0  0
  6 12  1  0  0  0  0
  6 25  1  6  0  0  0
  7  2  1  0  0  0  0
  7  8  1  1  0  0  0
  7 21  1  0  0  0  0
  9 10  1  0  0  0  0
  9 26  1  0  0  0  0
  9 27  1  0  0  0  0
 10  4  1  0  0  0  0
 10 28  1  0  0  0  0
 10 29  1  0  0  0  0
 11  1  1  0  0  0  0
 11 30  1  0  0  0  0
 11 31  1  0  0  0  0
 12 16  1  0  0  0  0
 12 32  1  0  0  0  0
 12 33  1  0  0  0  0
 13  3  1  0  0  0  0
 13 34  1  0  0  0  0
 13 35  1  0  0  0  0
 14  8  3  0  0  0  0
 14 36  1  0  0  0  0
 15  5  1  0  0  0  0
 15 37  1  0  0  0  0
 15 38  1  0  0  0  0
 16  5  1  0  0  0  0
 16 39  1  0  0  0  0
 16 40  1  0  0  0  0
 17 13  1  0  0  0  0
 17  7  1  0  0  0  0
 17 41  1  0  0  0  0
 17 42  1  0  0  0  0
 18 20  1  0  0  0  0
 18 15  1  0  0  0  0
 19 18  2  0  0  0  0
 20 11  1  0  0  0  0
 20 43  1  0  0  0  0
 20 44  1  0  0  0  0
 21 45  1  0  0  0  0
 22 46  1  0  0  0  0
 22 47  1  0  0  0  0
 22 48  1  0  0  0  0
M  END
>  <DRUGBANK_ID>
DB09371

>  <COMMON_NAME>
Norethynodrel

>  <CAS_NUMBER>
68-23-5

>  <UNII>
88181ACA0M

>  <SYNONYMS>
Norethynodrel; Noretynodrel; Noretynodrelum

$$$$
