347
 OpenBabel10282417103D

 19 19  0  0  0  0  0  0  0  0999 V2000
   -0.6952   -0.9236    0.0079 O   0  0  0  0  0  0  0  0  0  0  0  0
    2.3000    0.8452    0.1326 O   0  0  0  0  0  0  0  0  0  0  0  0
   -2.1181    0.8006    0.4627 O   0  0  0  0  0  0  0  0  0  0  0  0
    0.0433    1.1457   -0.2440 N   0  0  0  0  0  0  0  0  0  0  0  0
    0.7319   -1.0263    0.1121 C   0  0  0  0  0  0  0  0  0  0  0  0
    1.1610    0.4236    0.0099 C   0  0  0  0  0  0  0  0  0  0  0  0
    1.0333   -1.6934    1.4402 C   0  0  0  0  0  0  0  0  0  0  0  0
    1.3647   -1.8233   -1.0256 C   0  0  0  0  0  0  0  0  0  0  0  0
   -1.0220    0.4001    0.0945 C   0  0  0  0  0  0  0  0  0  0  0  0
    0.0020    2.5313   -0.6528 C   0  0  0  0  0  0  0  0  0  0  0  0
    0.6387   -2.7186    1.4365 H   0  0  0  0  0  0  0  0  0  0  0  0
    2.1076   -1.7369    1.6327 H   0  0  0  0  0  0  0  0  0  0  0  0
    0.5414   -1.1750    2.2687 H   0  0  0  0  0  0  0  0  0  0  0  0
    1.1582   -1.3860   -2.0079 H   0  0  0  0  0  0  0  0  0  0  0  0
    2.4554   -1.8545   -0.9007 H   0  0  0  0  0  0  0  0  0  0  0  0
    0.9998   -2.8555   -1.0435 H   0  0  0  0  0  0  0  0  0  0  0  0
   -0.5954    2.5795   -1.5716 H   0  0  0  0  0  0  0  0  0  0  0  0
   -0.4832    3.1635    0.0948 H   0  0  0  0  0  0  0  0  0  0  0  0
    1.0069    2.8991   -0.8781 H   0  0  0  0  0  0  0  0  0  0  0  0
  1  5  1  0  0  0  0
  1  9  1  0  0  0  0
  2  6  2  0  0  0  0
  3  9  2  0  0  0  0
  4  6  1  0  0  0  0
  4  9  1  0  0  0  0
  4 10  1  0  0  0  0
  5  6  1  0  0  0  0
  5  7  1  0  0  0  0
  5  8  1  0  0  0  0
  7 11  1  0  0  0  0
  7 12  1  0  0  0  0
  7 13  1  0  0  0  0
  8 14  1  0  0  0  0
  8 15  1  0  0  0  0
  8 16  1  0  0  0  0
 10 17  1  0  0  0  0
 10 18  1  0  0  0  0
 10 19  1  0  0  0  0
M  END
>  <DRUGBANK_ID>
DB00347

>  <SECONDARY_ACCESSION_NUMBERS>
APRD00315

>  <COMMON_NAME>
Trimethadione

>  <CAS_NUMBER>
127-48-0

>  <UNII>
R7GV3H6FQ4

>  <SYNONYMS>
Trimetadiona; Trimethadion; Trimethadione; Trim√©thadione; Trimethadionum; Trimethinum; Troxidone

$$$$
