DSC
 OpenBabel10282417163D

 41 40  0  0  0  0  0  0  0  0999 V2000
    0.8714    0.0127    0.1959 S   0  0  0  0  0  0  0  0  0  0  0  0
    0.4451    1.2856   -0.3574 O   0  0  0  0  0  0  0  0  0  0  0  0
    0.4900   -1.1674   -0.5820 O   0  0  0  0  0  0  0  0  0  0  0  0
    0.6502   -0.1066    1.6410 O   0  5  0  0  0  0  0  0  0  0  0  0
    2.6558    0.0047    0.0738 C   0  0  0  0  0  0  0  0  0  0  0  0
    3.1644    0.0343   -1.3670 C   0  0  0  0  0  0  0  0  0  0  0  0
    2.7757    1.3188   -2.0996 C   0  0  0  0  0  0  0  0  0  0  0  0
    3.3057    2.5536   -1.3620 C   0  0  0  0  0  0  0  0  0  0  0  0
    4.8367    2.5543   -1.3673 C   0  0  0  0  0  0  0  0  0  0  0  0
    5.3569    2.5826   -2.8081 C   0  0  0  0  0  0  0  0  0  0  0  0
    4.8541    3.8393   -3.5268 C   0  0  0  0  0  0  0  0  0  0  0  0
    5.3575    5.0939   -2.8069 C   0  0  0  0  0  0  0  0  0  0  0  0
    6.8899    5.1211   -2.7917 C   0  0  0  0  0  0  0  0  0  0  0  0
    7.4534    5.1567   -4.2168 C   0  0  0  0  0  0  0  0  0  0  0  0
    6.9588    6.3819   -4.9872 C   0  0  0  0  0  0  0  0  0  0  0  0
    7.3919    7.6620   -4.2911 C   0  0  0  0  0  0  0  0  0  0  0  0
    3.0388    0.8399    0.6690 H   0  0  0  0  0  0  0  0  0  0  0  0
    3.0119   -0.9067    0.5625 H   0  0  0  0  0  0  0  0  0  0  0  0
    4.2573   -0.0743   -1.3594 H   0  0  0  0  0  0  0  0  0  0  0  0
    2.8000   -0.8303   -1.9291 H   0  0  0  0  0  0  0  0  0  0  0  0
    3.1401    1.2753   -3.1305 H   0  0  0  0  0  0  0  0  0  0  0  0
    1.6972    1.3921   -2.2378 H   0  0  0  0  0  0  0  0  0  0  0  0
    2.8973    3.4588   -1.8225 H   0  0  0  0  0  0  0  0  0  0  0  0
    2.9439    2.6130   -0.3324 H   0  0  0  0  0  0  0  0  0  0  0  0
    5.2058    3.4048   -0.7850 H   0  0  0  0  0  0  0  0  0  0  0  0
    5.2454    1.6859   -0.8430 H   0  0  0  0  0  0  0  0  0  0  0  0
    6.4483    2.5191   -2.8077 H   0  0  0  0  0  0  0  0  0  0  0  0
    5.0582    1.6928   -3.3686 H   0  0  0  0  0  0  0  0  0  0  0  0
    5.1676    3.8159   -4.5742 H   0  0  0  0  0  0  0  0  0  0  0  0
    3.7616    3.8654   -3.5901 H   0  0  0  0  0  0  0  0  0  0  0  0
    4.9372    5.9851   -3.2812 H   0  0  0  0  0  0  0  0  0  0  0  0
    4.9802    5.1503   -1.7806 H   0  0  0  0  0  0  0  0  0  0  0  0
    7.2372    5.9734   -2.2024 H   0  0  0  0  0  0  0  0  0  0  0  0
    7.3011    4.2568   -2.2595 H   0  0  0  0  0  0  0  0  0  0  0  0
    8.5469    5.1483   -4.1773 H   0  0  0  0  0  0  0  0  0  0  0  0
    7.1797    4.2476   -4.7666 H   0  0  0  0  0  0  0  0  0  0  0  0
    7.3504    6.3551   -6.0079 H   0  0  0  0  0  0  0  0  0  0  0  0
    5.8673    6.3697   -5.0915 H   0  0  0  0  0  0  0  0  0  0  0  0
    8.4829    7.6941   -4.2180 H   0  0  0  0  0  0  0  0  0  0  0  0
    7.0416    8.5377   -4.8386 H   0  0  0  0  0  0  0  0  0  0  0  0
    6.9842    7.7375   -3.2778 H   0  0  0  0  0  0  0  0  0  0  0  0
  1  2  2  0  0  0  0
  1  3  2  0  0  0  0
  1  4  1  0  0  0  0
  1  5  1  0  0  0  0
  5  6  1  0  0  0  0
  5 17  1  0  0  0  0
  5 18  1  0  0  0  0
  6  7  1  0  0  0  0
  6 19  1  0  0  0  0
  6 20  1  0  0  0  0
  7  8  1  0  0  0  0
  7 21  1  0  0  0  0
  7 22  1  0  0  0  0
  8  9  1  0  0  0  0
  8 23  1  0  0  0  0
  8 24  1  0  0  0  0
  9 10  1  0  0  0  0
  9 25  1  0  0  0  0
  9 26  1  0  0  0  0
 10 11  1  0  0  0  0
 10 27  1  0  0  0  0
 10 28  1  0  0  0  0
 11 12  1  0  0  0  0
 11 29  1  0  0  0  0
 11 30  1  0  0  0  0
 12 13  1  0  0  0  0
 12 31  1  0  0  0  0
 12 32  1  0  0  0  0
 13 14  1  0  0  0  0
 13 33  1  0  0  0  0
 13 34  1  0  0  0  0
 14 15  1  0  0  0  0
 14 35  1  0  0  0  0
 14 36  1  0  0  0  0
 15 16  1  0  0  0  0
 15 37  1  0  0  0  0
 15 38  1  0  0  0  0
 16 39  1  0  0  0  0
 16 40  1  0  0  0  0
 16 41  1  0  0  0  0
M  CHG  1   4  -1
M  END
>  <DRUGBANK_ID>
DB07681

>  <COMMON_NAME>
DODECANESULFONATE ION

$$$$
