
 OpenBabel10282417193D

 53 55  0  0  1  0  0  0  0  0999 V2000
    0.9540    0.0747   -0.0534 C   0  0  0  0  0  0  0  0  0  0  0  0
    0.5066    0.7828   -1.2593 C   0  0  0  0  0  0  0  0  0  0  0  0
   -0.0676    0.1397   -2.3459 C   0  0  0  0  0  0  0  0  0  0  0  0
   -0.2212    1.1332   -3.2436 C   0  0  0  0  0  0  0  0  0  0  0  0
   -0.7144    1.0116   -4.4653 N   0  0  0  0  0  0  0  0  0  0  0  0
   -0.7546    2.1273   -5.1027 C   0  0  0  0  0  0  0  0  0  0  0  0
   -0.2862    3.5105   -4.7142 C   0  0  0  0  0  0  0  0  0  0  0  0
    0.1671    3.5195   -3.4428 C   0  0  0  0  0  0  0  0  0  0  0  0
    0.2095    2.3363   -2.6943 N   0  0  0  0  0  0  0  0  0  0  0  0
    0.6574    2.1090   -1.4315 N   0  0  0  0  0  0  0  0  0  0  0  0
   -0.2655    4.8194   -5.4702 C   0  0  0  0  0  0  0  0  0  0  0  0
    0.1478    5.8687   -4.9702 O   0  0  0  0  0  0  0  0  0  0  0  0
   -0.7965    4.8866   -6.7306 N   0  0  0  0  0  0  0  0  0  0  0  0
   -1.3681    3.7872   -7.4738 C   0  0  0  0  0  0  0  0  0  0  0  0
   -3.0538    3.4522   -7.6659 C   0  0  0  0  0  0  0  0  0  0  0  0
   -3.8602    4.1550   -8.7245 C   0  0  0  0  0  0  0  0  0  0  0  0
   -3.4267    2.0767   -8.2871 C   0  0  0  0  0  0  0  0  0  0  0  0
   -3.7886    4.0182   -6.5231 N   0  0  0  0  0  0  0  0  0  0  0  0
   -3.3547    5.4319   -6.2056 C   0  0  0  0  0  0  0  0  0  0  0  0
   -3.1822    6.6150   -7.4003 C   0  0  0  0  0  0  0  0  0  0  0  0
   -3.8261    7.6596   -7.2104 O   0  0  0  0  0  0  0  0  0  0  0  0
   -2.1747    6.5072   -8.5689 N   0  0  0  0  0  0  0  0  0  0  0  0
   -1.7288    7.7556   -9.1442 C   0  0  0  0  0  0  0  0  0  0  0  0
   -0.8046    7.2563  -10.2794 C   0  0  0  0  0  0  0  0  0  0  0  0
   -1.5837    6.2366  -11.0515 C   0  0  0  0  0  0  0  0  0  0  0  0
   -2.1464    5.5115   -9.8945 C   0  0  1  0  0  0  0  0  0  0  0  0
   -1.4019    4.2143   -9.9772 C   0  0  0  0  0  0  0  0  0  0  0  0
   -0.8904    3.1444  -10.1087 N   0  0  0  0  0  0  0  0  0  0  0  0
    0.5868   -0.9598   -0.0741 H   0  0  0  0  0  0  0  0  0  0  0  0
    0.5718    0.5547    0.8461 H   0  0  0  0  0  0  0  0  0  0  0  0
    2.0449    0.0382   -0.0395 H   0  0  0  0  0  0  0  0  0  0  0  0
   -0.3191   -0.8939   -2.5290 H   0  0  0  0  0  0  0  0  0  0  0  0
   -1.2691    1.8460   -6.0013 H   0  0  0  0  0  0  0  0  0  0  0  0
    0.5229    4.4185   -2.9506 H   0  0  0  0  0  0  0  0  0  0  0  0
   -0.7292    5.8033   -7.1826 H   0  0  0  0  0  0  0  0  0  0  0  0
   -0.5276    3.6084   -8.1357 H   0  0  0  0  0  0  0  0  0  0  0  0
   -1.0783    2.9341   -6.9916 H   0  0  0  0  0  0  0  0  0  0  0  0
   -3.7082    3.7891   -9.7427 H   0  0  0  0  0  0  0  0  0  0  0  0
   -4.8279    4.6606   -8.6751 H   0  0  0  0  0  0  0  0  0  0  0  0
   -3.3338    4.9965   -8.5041 H   0  0  0  0  0  0  0  0  0  0  0  0
   -3.2628    1.2101   -7.6718 H   0  0  0  0  0  0  0  0  0  0  0  0
   -4.4951    2.0820   -8.5979 H   0  0  0  0  0  0  0  0  0  0  0  0
   -2.9207    1.9265   -9.2602 H   0  0  0  0  0  0  0  0  0  0  0  0
   -4.7892    4.0724   -6.7475 H   0  0  0  0  0  0  0  0  0  0  0  0
   -4.0412    5.7817   -5.4196 H   0  0  0  0  0  0  0  0  0  0  0  0
   -2.4651    5.3985   -5.6034 H   0  0  0  0  0  0  0  0  0  0  0  0
   -1.2086    8.3247   -8.3747 H   0  0  0  0  0  0  0  0  0  0  0  0
   -2.5824    8.3288   -9.5321 H   0  0  0  0  0  0  0  0  0  0  0  0
    0.0394    6.7259   -9.8083 H   0  0  0  0  0  0  0  0  0  0  0  0
   -0.4500    8.0022  -10.9721 H   0  0  0  0  0  0  0  0  0  0  0  0
   -1.0256    5.5267  -11.6848 H   0  0  0  0  0  0  0  0  0  0  0  0
   -2.4231    6.5877  -11.6593 H   0  0  0  0  0  0  0  0  0  0  0  0
   -3.1832    5.4684  -10.2430 H   0  0  0  0  0  0  0  0  0  0  0  0
  1  2  1  0  0  0  0
  1 29  1  0  0  0  0
  1 30  1  0  0  0  0
  1 31  1  0  0  0  0
  2  3  1  0  0  0  0
  2 10  2  0  0  0  0
  3  4  2  0  0  0  0
  3 32  1  0  0  0  0
  4  5  1  0  0  0  0
  4  9  1  0  0  0  0
  5  6  2  0  0  0  0
  6  7  1  0  0  0  0
  6 33  1  0  0  0  0
  7  8  2  0  0  0  0
  7 11  1  0  0  0  0
  8  9  1  0  0  0  0
  8 34  1  0  0  0  0
  9 10  1  0  0  0  0
 11 12  2  0  0  0  0
 11 13  1  0  0  0  0
 13 14  1  0  0  0  0
 13 35  1  0  0  0  0
 14 15  1  0  0  0  0
 14 36  1  0  0  0  0
 14 37  1  0  0  0  0
 15 16  1  0  0  0  0
 15 17  1  0  0  0  0
 15 18  1  0  0  0  0
 16 38  1  0  0  0  0
 16 39  1  0  0  0  0
 16 40  1  0  0  0  0
 17 41  1  0  0  0  0
 17 42  1  0  0  0  0
 17 43  1  0  0  0  0
 18 19  1  0  0  0  0
 18 44  1  0  0  0  0
 19 20  1  0  0  0  0
 19 45  1  0  0  0  0
 19 46  1  0  0  0  0
 20 21  2  0  0  0  0
 20 22  1  0  0  0  0
 22 23  1  0  0  0  0
 22 26  1  0  0  0  0
 23 24  1  0  0  0  0
 23 47  1  0  0  0  0
 23 48  1  0  0  0  0
 24 25  1  0  0  0  0
 24 49  1  0  0  0  0
 24 50  1  0  0  0  0
 25 26  1  0  0  0  0
 25 51  1  0  0  0  0
 25 52  1  0  0  0  0
 26 27  1  0  0  0  0
 26 53  1  6  0  0  0
 27 28  3  0  0  0  0
M  END
>  <DRUGBANK_ID>
DB12417

>  <COMMON_NAME>
Anagliptin

>  <CAS_NUMBER>
739366-20-2

>  <UNII>
K726J96838

>  <SYNONYMS>
Anagliptin

$$$$
