
 OpenBabel10282417243D

 72 74  0  0  1  0  0  0  0  0999 V2000
    0.9399   -6.5203    3.9581 C   0  0  0  0  0  0  0  0  0  0  0  0
    2.2661   -6.5757    3.2187 C   0  0  0  0  0  0  0  0  0  0  0  0
    3.2734   -5.7051    3.9353 C   0  0  0  0  0  0  0  0  0  0  0  0
    3.4398   -6.2057    5.3654 C   0  0  0  0  0  0  0  0  0  0  0  0
    4.1638   -7.5434    5.4838 C   0  0  0  0  0  0  0  0  0  0  0  0
    5.5455   -7.5895    4.8052 C   0  0  0  0  0  0  0  0  0  0  0  0
    6.6572   -6.7060    5.4600 C   0  0  0  0  0  0  0  0  0  0  0  0
    6.9179   -7.1922    6.8926 C   0  0  0  0  0  0  0  0  0  0  0  0
    7.9610   -6.8814    4.6453 C   0  0  0  0  0  0  0  0  0  0  0  0
    6.3100   -5.2206    5.4770 C   0  0  0  0  0  0  0  0  0  0  0  0
    5.7511   -4.5762    6.5863 C   0  0  0  0  0  0  0  0  0  0  0  0
    5.1840   -3.2960    6.5036 C   0  0  0  0  0  0  0  0  0  0  0  0
    4.3342   -2.8383    7.4966 O   0  0  0  0  0  0  0  0  0  0  0  0
    4.0127   -3.7105    8.5860 C   0  0  0  0  0  0  0  0  0  0  0  0
    5.3661   -2.4902    5.3372 C   0  0  0  0  0  0  0  0  0  0  0  0
    4.8078   -1.0326    5.4434 C   0  0  1  0  0  0  0  0  0  0  0  0
    5.2772   -0.2491    6.6619 C   0  0  0  0  0  0  0  0  0  0  0  0
    5.8764    0.9844    6.5584 C   0  0  0  0  0  0  0  0  0  0  0  0
    6.4885    1.6884    7.6967 C   0  0  0  0  0  0  0  0  0  0  0  0
    7.9017    1.6894    7.5299 O   0  0  0  0  0  0  0  0  0  0  0  0
    6.0501    1.5713    5.1866 C   0  0  1  0  0  0  0  0  0  0  0  0
    6.7525    0.5086    4.3652 C   0  0  0  0  0  0  0  0  0  0  0  0
    5.1815   -0.1257    4.2643 C   0  0  2  0  0  0  0  0  0  0  0  0
    4.8425    1.3945    4.1638 C   0  0  0  0  0  0  0  0  0  0  0  0
    3.4486    1.7660    4.6171 C   0  0  0  0  0  0  0  0  0  0  0  0
    5.0169    1.8762    2.6922 C   0  0  0  0  0  0  0  0  0  0  0  0
    5.9452   -3.1773    4.2125 C   0  0  0  0  0  0  0  0  0  0  0  0
    6.1764   -2.8510    2.8859 O   0  0  0  0  0  0  0  0  0  0  0  0
    6.7315   -1.5927    2.7221 C   0  0  0  0  0  0  0  0  0  0  0  0
    6.3839   -4.4969    4.3076 C   0  0  0  0  0  0  0  0  0  0  0  0
    1.0142   -6.9018    4.9809 H   0  0  0  0  0  0  0  0  0  0  0  0
    0.1959   -7.1401    3.4657 H   0  0  0  0  0  0  0  0  0  0  0  0
    0.5934   -5.4835    4.0210 H   0  0  0  0  0  0  0  0  0  0  0  0
    2.6369   -7.6057    3.1725 H   0  0  0  0  0  0  0  0  0  0  0  0
    2.1543   -6.2323    2.1870 H   0  0  0  0  0  0  0  0  0  0  0  0
    4.2137   -5.7089    3.3758 H   0  0  0  0  0  0  0  0  0  0  0  0
    2.9531   -4.6552    3.9446 H   0  0  0  0  0  0  0  0  0  0  0  0
    3.9277   -5.4361    5.9117 H   0  0  0  0  0  0  0  0  0  0  0  0
    2.5111   -6.2294    5.9365 H   0  0  0  0  0  0  0  0  0  0  0  0
    4.2510   -7.8072    6.5416 H   0  0  0  0  0  0  0  0  0  0  0  0
    3.5310   -8.3294    5.0544 H   0  0  0  0  0  0  0  0  0  0  0  0
    5.8803   -8.6362    4.8200 H   0  0  0  0  0  0  0  0  0  0  0  0
    5.4399   -7.3580    3.7367 H   0  0  0  0  0  0  0  0  0  0  0  0
    7.2795   -8.2211    6.9037 H   0  0  0  0  0  0  0  0  0  0  0  0
    7.6530   -6.5468    7.3854 H   0  0  0  0  0  0  0  0  0  0  0  0
    6.0124   -7.1707    7.5082 H   0  0  0  0  0  0  0  0  0  0  0  0
    7.8248   -6.6596    3.5790 H   0  0  0  0  0  0  0  0  0  0  0  0
    8.7381   -6.2031    5.0179 H   0  0  0  0  0  0  0  0  0  0  0  0
    8.3321   -7.9065    4.6947 H   0  0  0  0  0  0  0  0  0  0  0  0
    5.5370   -5.1831    7.4560 H   0  0  0  0  0  0  0  0  0  0  0  0
    3.3608   -4.5311    8.2612 H   0  0  0  0  0  0  0  0  0  0  0  0
    4.9123   -4.0955    9.0776 H   0  0  0  0  0  0  0  0  0  0  0  0
    3.4691   -3.1370    9.3435 H   0  0  0  0  0  0  0  0  0  0  0  0
    3.7110   -1.1296    5.4984 H   0  0  0  0  0  0  0  0  0  0  0  0
    5.1398   -0.6770    7.6401 H   0  0  0  0  0  0  0  0  0  0  0  0
    6.1295    2.7198    7.7019 H   0  0  0  0  0  0  0  0  0  0  0  0
    6.2514    1.2113    8.6498 H   0  0  0  0  0  0  0  0  0  0  0  0
    8.1798    0.7584    7.4671 H   0  0  0  0  0  0  0  0  0  0  0  0
    6.5829    2.5284    5.1688 H   0  0  0  0  0  0  0  0  0  0  0  0
    7.2616    0.8715    3.4629 H   0  0  0  0  0  0  0  0  0  0  0  0
    7.5403   -0.0152    4.9346 H   0  0  0  0  0  0  0  0  0  0  0  0
    4.6552   -0.5856    3.4224 H   0  0  0  0  0  0  0  0  0  0  0  0
    3.3623    2.8532    4.6733 H   0  0  0  0  0  0  0  0  0  0  0  0
    2.7108    1.3946    3.8966 H   0  0  0  0  0  0  0  0  0  0  0  0
    3.1984    1.3441    5.5907 H   0  0  0  0  0  0  0  0  0  0  0  0
    5.9999    1.6809    2.2511 H   0  0  0  0  0  0  0  0  0  0  0  0
    4.3019    1.3614    2.0365 H   0  0  0  0  0  0  0  0  0  0  0  0
    4.8460    2.9511    2.6163 H   0  0  0  0  0  0  0  0  0  0  0  0
    5.9493   -0.9951    2.2598 H   0  0  0  0  0  0  0  0  0  0  0  0
    7.1034   -1.3603    3.7002 H   0  0  0  0  0  0  0  0  0  0  0  0
    7.6098   -1.4197    2.1048 H   0  0  0  0  0  0  0  0  0  0  0  0
    6.7517   -4.9582    3.3926 H   0  0  0  0  0  0  0  0  0  0  0  0
  1  2  1  0  0  0  0
  1 31  1  0  0  0  0
  1 32  1  0  0  0  0
  1 33  1  0  0  0  0
  2  3  1  0  0  0  0
  2 34  1  0  0  0  0
  2 35  1  0  0  0  0
  3  4  1  0  0  0  0
  3 36  1  0  0  0  0
  3 37  1  0  0  0  0
  4  5  1  0  0  0  0
  4 38  1  0  0  0  0
  4 39  1  0  0  0  0
  5  6  1  0  0  0  0
  5 40  1  0  0  0  0
  5 41  1  0  0  0  0
  6  7  1  0  0  0  0
  6 42  1  0  0  0  0
  6 43  1  0  0  0  0
  7  8  1  0  0  0  0
  7  9  1  0  0  0  0
  7 10  1  0  0  0  0
  8 44  1  0  0  0  0
  8 45  1  0  0  0  0
  8 46  1  0  0  0  0
  9 47  1  0  0  0  0
  9 48  1  0  0  0  0
  9 49  1  0  0  0  0
 10 11  2  0  0  0  0
 10 30  1  0  0  0  0
 11 12  1  0  0  0  0
 11 50  1  0  0  0  0
 12 13  1  0  0  0  0
 12 15  2  0  0  0  0
 13 14  1  0  0  0  0
 14 51  1  0  0  0  0
 14 52  1  0  0  0  0
 14 53  1  0  0  0  0
 15 27  1  0  0  0  0
 16 17  1  0  0  0  0
 16 23  1  0  0  0  0
 16 54  1  1  0  0  0
 16 15  1  0  0  0  0
 17 18  2  0  0  0  0
 17 55  1  0  0  0  0
 18 19  1  0  0  0  0
 19 20  1  0  0  0  0
 19 56  1  0  0  0  0
 19 57  1  0  0  0  0
 20 58  1  0  0  0  0
 21 18  1  0  0  0  0
 21 22  1  0  0  0  0
 21 24  1  0  0  0  0
 21 59  1  6  0  0  0
 22 60  1  0  0  0  0
 22 61  1  0  0  0  0
 23 22  1  0  0  0  0
 23 24  1  0  0  0  0
 23 62  1  6  0  0  0
 24 25  1  0  0  0  0
 24 26  1  0  0  0  0
 25 63  1  0  0  0  0
 25 64  1  0  0  0  0
 25 65  1  0  0  0  0
 26 66  1  0  0  0  0
 26 67  1  0  0  0  0
 26 68  1  0  0  0  0
 27 28  1  0  0  0  0
 27 30  2  0  0  0  0
 28 29  1  0  0  0  0
 29 69  1  0  0  0  0
 29 70  1  0  0  0  0
 29 71  1  0  0  0  0
 30 72  1  0  0  0  0
M  END
>  <DRUGBANK_ID>
DB18076

>  <COMMON_NAME>
Onternabez

>  <CAS_NUMBER>
256934-39-1

>  <UNII>
8I5L034D55

>  <SYNONYMS>
[(1S,2S,5S)-2-[2,6-dimethoxy-4-(2-methyloctan-2-yl)phenyl]-6,6-dimethyl-4-bicyclo[3.1.1]hept-3-enyl]methanol

$$$$
