
 OpenBabel10282417213D

 23 23  0  0  1  0  0  0  0  0999 V2000
   -1.5684   -2.0187    0.2100 C   0  0  0  0  0  0  0  0  0  0  0  0
   -0.7138   -0.9038   -0.3684 C   0  0  2  0  0  0  0  0  0  0  0  0
    0.6340   -1.0687    0.1397 N   0  0  0  0  0  0  0  0  0  0  0  0
    1.5813   -0.1127   -0.0732 C   0  0  0  0  0  0  0  0  0  0  0  0
    2.7388   -0.4740   -0.2419 O   0  0  0  0  0  0  0  0  0  0  0  0
    1.1123    1.3606   -0.0557 C   0  0  2  0  0  0  0  0  0  0  0  0
    1.7684    2.1513    1.0848 C   0  0  0  0  0  0  0  0  0  0  0  0
    3.2814    2.1701    1.0851 C   0  0  0  0  0  0  0  0  0  0  0  0
    3.8331    3.3863    0.8855 O   0  0  0  0  0  0  0  0  0  0  0  0
    3.9863    1.2032    1.3303 O   0  0  0  0  0  0  0  0  0  0  0  0
   -0.3555    1.5002    0.0785 N   0  0  0  0  0  0  0  0  0  0  0  0
   -1.2700    0.4793   -0.0083 C   0  0  0  0  0  0  0  0  0  0  0  0
   -2.4696    0.7341    0.0638 O   0  0  0  0  0  0  0  0  0  0  0  0
   -1.1886   -2.9956   -0.1115 H   0  0  0  0  0  0  0  0  0  0  0  0
   -1.5204   -1.9970    1.3053 H   0  0  0  0  0  0  0  0  0  0  0  0
   -2.6168   -1.9384   -0.0871 H   0  0  0  0  0  0  0  0  0  0  0  0
   -0.6857   -0.9699   -1.4647 H   0  0  0  0  0  0  0  0  0  0  0  0
    1.0382   -1.9964    0.0838 H   0  0  0  0  0  0  0  0  0  0  0  0
    1.3729    1.7952   -1.0283 H   0  0  0  0  0  0  0  0  0  0  0  0
    1.3970    3.1848    1.0722 H   0  0  0  0  0  0  0  0  0  0  0  0
    1.4542    1.7446    2.0546 H   0  0  0  0  0  0  0  0  0  0  0  0
    3.2277    4.1473    0.8543 H   0  0  0  0  0  0  0  0  0  0  0  0
   -0.7755    2.4133    0.2074 H   0  0  0  0  0  0  0  0  0  0  0  0
  1 14  1  0  0  0  0
  1 15  1  0  0  0  0
  1 16  1  0  0  0  0
  2  1  1  0  0  0  0
  2  3  1  0  0  0  0
  2 12  1  0  0  0  0
  2 17  1  6  0  0  0
  3  4  1  0  0  0  0
  3 18  1  0  0  0  0
  4  5  2  0  0  0  0
  6  4  1  0  0  0  0
  6  7  1  0  0  0  0
  6 11  1  0  0  0  0
  6 19  1  6  0  0  0
  7  8  1  0  0  0  0
  7 20  1  0  0  0  0
  7 21  1  0  0  0  0
  8  9  1  0  0  0  0
  8 10  2  0  0  0  0
  9 22  1  0  0  0  0
 11 12  1  0  0  0  0
 11 23  1  0  0  0  0
 12 13  2  0  0  0  0
M  END
>  <DRUGBANK_ID>
DB14940

>  <COMMON_NAME>
Aspartyl-alanyl-diketopiperazine

>  <CAS_NUMBER>
110954-19-3

>  <UNII>
R9CHM391D5

$$$$
