
 OpenBabel10282417193D

 30 30  0  0  1  0  0  0  0  0999 V2000
   -8.1019    1.0190   -1.4580 C   0  0  0  0  0  0  0  0  0  0  0  0
   -9.2334    1.2332   -0.6397 C   0  0  0  0  0  0  0  0  0  0  0  0
   -9.7235    0.0190   -0.2470 C   0  0  0  0  0  0  0  0  0  0  0  0
   -8.6747   -1.2871   -0.5909 S   0  0  0  0  0  0  0  0  0  0  0  0
   -7.5596   -0.2504   -1.3749 C   0  0  0  0  0  0  0  0  0  0  0  0
   -6.0155   -0.8716   -2.0585 S   0  0  0  0  0  0  0  0  0  0  0  0
   -5.3531   -1.7141   -1.0775 O   0  0  0  0  0  0  0  0  0  0  0  0
   -6.3284   -1.3670   -3.3682 O   0  0  0  0  0  0  0  0  0  0  0  0
   -5.0172    0.5345   -2.2525 N   0  0  0  0  0  0  0  0  0  0  0  0
   -4.6761    1.4791   -1.0895 C   0  0  2  0  0  0  0  0  0  0  0  0
   -4.7850    0.7328    0.2554 C   0  0  0  0  0  0  0  0  0  0  0  0
   -3.5160    0.2037    0.5897 O   0  0  0  0  0  0  0  0  0  0  0  0
   -5.4821    2.7928   -1.1238 C   0  0  0  0  0  0  0  0  0  0  0  0
   -5.2287    3.7453    0.0077 C   0  0  0  0  0  0  0  0  0  0  0  0
   -3.9617    4.1723    0.0668 F   0  0  0  0  0  0  0  0  0  0  0  0
   -6.0510    4.8139   -0.0729 F   0  0  0  0  0  0  0  0  0  0  0  0
   -5.5322    3.1840    1.1986 F   0  0  0  0  0  0  0  0  0  0  0  0
   -5.3207    3.5650   -2.4020 C   0  0  0  0  0  0  0  0  0  0  0  0
   -5.6164    2.8071   -3.4840 F   0  0  0  0  0  0  0  0  0  0  0  0
   -6.1715    4.6132   -2.4558 F   0  0  0  0  0  0  0  0  0  0  0  0
   -4.0701    4.0307   -2.5713 F   0  0  0  0  0  0  0  0  0  0  0  0
  -11.2718   -0.2233    0.4558 Cl  0  0  0  0  0  0  0  0  0  0  0  0
   -7.6679    1.7830   -2.0764 H   0  0  0  0  0  0  0  0  0  0  0  0
   -9.7242    2.1908   -0.4935 H   0  0  0  0  0  0  0  0  0  0  0  0
   -4.1898    0.2563   -2.7987 H   0  0  0  0  0  0  0  0  0  0  0  0
   -3.6207    1.7501   -1.2510 H   0  0  0  0  0  0  0  0  0  0  0  0
   -5.1298    1.3202    1.0907 H   0  0  0  0  0  0  0  0  0  0  0  0
   -5.5214   -0.0597    0.2757 H   0  0  0  0  0  0  0  0  0  0  0  0
   -3.2992   -0.4755   -0.0749 H   0  0  0  0  0  0  0  0  0  0  0  0
   -6.5216    2.5902   -0.9677 H   0  0  0  0  0  0  0  0  0  0  0  0
  1  2  1  0  0  0  0
  1  5  2  0  0  0  0
  1 23  1  0  0  0  0
  2  3  2  0  0  0  0
  2 24  1  0  0  0  0
  3  4  1  0  0  0  0
  3 22  1  0  0  0  0
  4  5  1  0  0  0  0
  5  6  1  0  0  0  0
  6  7  2  0  0  0  0
  6  8  2  0  0  0  0
  6  9  1  0  0  0  0
  9 25  1  0  0  0  0
 10 13  1  0  0  0  0
 10 26  1  6  0  0  0
 10 11  1  0  0  0  0
 10  9  1  0  0  0  0
 11 12  1  0  0  0  0
 11 27  1  0  0  0  0
 11 28  1  0  0  0  0
 12 29  1  0  0  0  0
 13 14  1  0  0  0  0
 13 18  1  0  0  0  0
 13 30  1  0  0  0  0
 14 15  1  0  0  0  0
 14 16  1  0  0  0  0
 14 17  1  0  0  0  0
 18 19  1  0  0  0  0
 18 20  1  0  0  0  0
 18 21  1  0  0  0  0
M  END
>  <DRUGBANK_ID>
DB12263

>  <COMMON_NAME>
Begacestat

>  <CAS_NUMBER>
769169-27-9

>  <UNII>
3666C56BBU

>  <SYNONYMS>
Begacestat

$$$$
