C90
 OpenBabel10282417163D

 59 61  0  0  0  0  0  0  0  0999 V2000
    1.0790    0.0487    0.0430 C   0  0  0  0  0  0  0  0  0  0  0  0
    0.6018    0.5234    1.4794 C   0  0  0  0  0  0  0  0  0  0  0  0
   -0.2931    1.0316    4.0680 C   0  0  0  0  0  0  0  0  0  0  0  0
   -0.8431    1.2363    5.3285 C   0  0  0  0  0  0  0  0  0  0  0  0
    1.2172   -3.6279    1.1969 O   0  0  0  0  0  0  0  0  0  0  0  0
   -1.0991    1.2476    6.4400 C   0  0  0  0  0  0  0  0  0  0  0  0
   -1.2364    1.3472    7.8266 C   0  0  0  0  0  0  0  0  0  0  0  0
   -5.4212   -1.3915   11.8621 C   0  0  1  0  0  0  0  0  0  0  0  0
   -2.2126    1.7484   10.4383 C   0  0  0  0  0  0  0  0  0  0  0  0
   -3.2515    1.9226   11.8154 C   0  0  0  0  0  0  0  0  0  0  0  0
   -3.9816   -0.7814   12.0339 C   0  0  1  0  0  0  0  0  0  0  0  0
   -5.3858   -2.9110   12.0357 C   0  0  0  0  0  0  0  0  0  0  0  0
   -3.7537   -1.0512   10.5765 C   0  0  0  0  0  0  0  0  0  0  0  0
    0.5748   -2.4857    1.6714 C   0  0  0  0  0  0  0  0  0  0  0  0
    2.0758   -3.1335    0.1777 C   0  0  0  0  0  0  0  0  0  0  0  0
   -0.3994   -1.7769    0.4364 C   0  0  0  0  0  0  0  0  0  0  0  0
    1.2827   -2.4098   -0.9305 C   0  0  0  0  0  0  0  0  0  0  0  0
    0.4879   -1.2192   -0.5529 N   0  0  0  0  0  0  0  0  0  0  0  0
    0.6954    1.8006    1.9576 C   0  0  0  0  0  0  0  0  0  0  0  0
   -0.0857   -0.2927    2.4148 C   0  0  0  0  0  0  0  0  0  0  0  0
    0.1751    2.0594    3.2420 C   0  0  0  0  0  0  0  0  0  0  0  0
   -0.3117   -0.2438    3.7284 C   0  0  0  0  0  0  0  0  0  0  0  0
   -1.6097    2.6570    8.3314 C   0  0  0  0  0  0  0  0  0  0  0  0
   -1.2371    0.1635    8.4844 C   0  0  0  0  0  0  0  0  0  0  0  0
   -2.1442    2.8766    9.6185 C   0  0  0  0  0  0  0  0  0  0  0  0
   -1.7084    0.4376    9.7584 C   0  0  0  0  0  0  0  0  0  0  0  0
   -3.6405    3.0285   12.2190 O   0  0  0  0  0  0  0  0  0  0  0  0
   -3.9213    0.7526   12.3872 N   0  0  0  0  0  0  0  0  0  0  0  0
   -6.3246   -0.7840   12.7503 O   0  0  0  0  0  0  0  0  0  0  0  0
   -4.2443    0.0744    9.9289 N   0  0  0  0  0  0  0  0  0  0  0  0
   -3.2816   -2.0969   10.1526 O   0  0  0  0  0  0  0  0  0  0  0  0
   -4.1930    0.6647    8.6631 O   0  0  0  0  0  0  0  0  0  0  0  0
   -5.8401   -1.2303   10.8456 H   0  0  0  0  0  0  0  0  0  0  0  0
   -3.3322   -1.3326   12.7298 H   0  0  0  0  0  0  0  0  0  0  0  0
    0.7469    0.8549   -0.6322 H   0  0  0  0  0  0  0  0  0  0  0  0
    2.1778    0.0446   -0.0067 H   0  0  0  0  0  0  0  0  0  0  0  0
   -4.7515   -3.4322   11.3055 H   0  0  0  0  0  0  0  0  0  0  0  0
   -5.0035   -3.1443   13.0282 H   0  0  0  0  0  0  0  0  0  0  0  0
   -6.3916   -3.3189   11.9273 H   0  0  0  0  0  0  0  0  0  0  0  0
    1.4153   -1.8306    2.0296 H   0  0  0  0  0  0  0  0  0  0  0  0
    0.0147   -2.7567    2.5777 H   0  0  0  0  0  0  0  0  0  0  0  0
    2.5593   -4.0322   -0.1832 H   0  0  0  0  0  0  0  0  0  0  0  0
    2.8215   -2.4465    0.5971 H   0  0  0  0  0  0  0  0  0  0  0  0
   -1.1852   -2.4705    0.1583 H   0  0  0  0  0  0  0  0  0  0  0  0
   -1.0585   -0.8838    0.5687 H   0  0  0  0  0  0  0  0  0  0  0  0
    0.5275   -3.1432   -1.2759 H   0  0  0  0  0  0  0  0  0  0  0  0
    1.9314   -2.2209   -1.7785 H   0  0  0  0  0  0  0  0  0  0  0  0
    1.0489    2.6060    1.3308 H   0  0  0  0  0  0  0  0  0  0  0  0
   -0.7833   -1.0761    2.2038 H   0  0  0  0  0  0  0  0  0  0  0  0
    0.1067    3.0618    3.6292 H   0  0  0  0  0  0  0  0  0  0  0  0
   -0.7472   -1.1131    4.2314 H   0  0  0  0  0  0  0  0  0  0  0  0
   -1.5539    3.4922    7.6246 H   0  0  0  0  0  0  0  0  0  0  0  0
   -1.5230   -0.8447    7.9856 H   0  0  0  0  0  0  0  0  0  0  0  0
   -2.5811    3.8496    9.8940 H   0  0  0  0  0  0  0  0  0  0  0  0
   -2.3114   -0.4382    9.6211 H   0  0  0  0  0  0  0  0  0  0  0  0
   -4.4775    0.9609   13.2289 H   0  0  0  0  0  0  0  0  0  0  0  0
   -5.9280   -0.8863   13.6248 H   0  0  0  0  0  0  0  0  0  0  0  0
   -4.0336    0.7577   10.6261 H   0  0  0  0  0  0  0  0  0  0  0  0
   -3.4295    0.4019    8.1184 H   0  0  0  0  0  0  0  0  0  0  0  0
  1 18  1  0  0  0  0
  1  2  1  0  0  0  0
  1 35  1  0  0  0  0
  1 36  1  0  0  0  0
  2 19  2  0  0  0  0
  3  4  1  0  0  0  0
  3 21  2  0  0  0  0
  4  6  3  0  0  0  0
  5 14  1  0  0  0  0
  6  7  1  0  0  0  0
  7 24  2  0  0  0  0
  8 29  1  0  0  0  0
  8 33  1  6  0  0  0
  9 10  1  0  0  0  0
  9 26  2  0  0  0  0
 10 27  2  0  0  0  0
 11 28  1  0  0  0  0
 11 34  1  1  0  0  0
 11  8  1  0  0  0  0
 12  8  1  0  0  0  0
 12 37  1  0  0  0  0
 12 38  1  0  0  0  0
 12 39  1  0  0  0  0
 13 30  1  0  0  0  0
 13 11  1  0  0  0  0
 14 40  1  0  0  0  0
 14 41  1  0  0  0  0
 15  5  1  0  0  0  0
 15 42  1  0  0  0  0
 15 43  1  0  0  0  0
 16 14  1  0  0  0  0
 16 44  1  0  0  0  0
 16 45  1  0  0  0  0
 17 15  1  0  0  0  0
 17 18  1  0  0  0  0
 17 46  1  0  0  0  0
 17 47  1  0  0  0  0
 18 16  1  0  0  0  0
 19 21  1  0  0  0  0
 19 48  1  0  0  0  0
 20 22  2  0  0  0  0
 20  2  1  0  0  0  0
 20 49  1  0  0  0  0
 21 50  1  0  0  0  0
 22  3  1  0  0  0  0
 22 51  1  0  0  0  0
 23 25  2  0  0  0  0
 23  7  1  0  0  0  0
 23 52  1  0  0  0  0
 24 26  1  0  0  0  0
 24 53  1  0  0  0  0
 25  9  1  0  0  0  0
 25 54  1  0  0  0  0
 26 55  1  0  0  0  0
 28 10  1  0  0  0  0
 28 56  1  0  0  0  0
 29 57  1  0  0  0  0
 30 58  1  0  0  0  0
 31 13  2  0  0  0  0
 32 30  1  0  0  0  0
 32 59  1  0  0  0  0
M  END
>  <DRUGBANK_ID>
DB07536

>  <COMMON_NAME>
N-{(1S,2R)-2-hydroxy-1-[(hydroxyamino)carbonyl]propyl}-4-{[4-(morpholin-4-ylmethyl)phenyl]ethynyl}benzamide

$$$$
