
 OpenBabel10282417153D

 49 48  0  0  0  0  0  0  0  0999 V2000
    0.9403    0.0060   -0.0434 C   0  0  0  0  0  0  0  0  0  0  0  0
    0.3927   -1.4063    0.0635 C   0  0  0  0  0  0  0  0  0  0  0  0
    0.8187   -2.0222    1.3191 N   0  0  0  0  0  0  0  0  0  0  0  0
    0.3749   -3.4169    1.4297 C   0  0  0  0  0  0  0  0  0  0  0  0
    0.9207   -4.3654    0.3488 C   0  0  0  0  0  0  0  0  0  0  0  0
    2.4479   -4.3964    0.2526 C   0  0  0  0  0  0  0  0  0  0  0  0
    3.0365   -4.9427    1.4751 N   0  0  0  0  0  0  0  0  0  0  0  0
    4.4999   -4.8616    1.4854 C   0  0  0  0  0  0  0  0  0  0  0  0
    5.0741   -3.4360    1.4555 C   0  0  0  0  0  0  0  0  0  0  0  0
    4.5829   -2.5297    2.5855 C   0  0  0  0  0  0  0  0  0  0  0  0
    5.0103   -3.0120    3.8966 N   0  0  0  0  0  0  0  0  0  0  0  0
    4.4398   -2.2183    4.9907 C   0  0  0  0  0  0  0  0  0  0  0  0
    2.9076   -2.2759    5.1104 C   0  0  0  0  0  0  0  0  0  0  0  0
    2.3418   -3.6915    5.2333 C   0  0  0  0  0  0  0  0  0  0  0  0
    2.8392   -4.3717    6.4277 N   0  0  0  0  0  0  0  0  0  0  0  0
    2.3728   -5.7546    6.5198 C   0  0  0  0  0  0  0  0  0  0  0  0
    2.9075   -6.6453    5.4047 C   0  0  0  0  0  0  0  0  0  0  0  0
    0.5947    0.6336    0.7832 H   0  0  0  0  0  0  0  0  0  0  0  0
    0.6045    0.4580   -0.9823 H   0  0  0  0  0  0  0  0  0  0  0  0
    2.0359    0.0050   -0.0461 H   0  0  0  0  0  0  0  0  0  0  0  0
   -0.6996   -1.3855    0.0114 H   0  0  0  0  0  0  0  0  0  0  0  0
    0.7694   -1.9633   -0.7994 H   0  0  0  0  0  0  0  0  0  0  0  0
    1.8284   -1.9660    1.3945 H   0  0  0  0  0  0  0  0  0  0  0  0
    0.6697   -3.7825    2.4210 H   0  0  0  0  0  0  0  0  0  0  0  0
   -0.7197   -3.4502    1.4257 H   0  0  0  0  0  0  0  0  0  0  0  0
    0.5413   -5.3771    0.5343 H   0  0  0  0  0  0  0  0  0  0  0  0
    0.5198   -4.0777   -0.6307 H   0  0  0  0  0  0  0  0  0  0  0  0
    2.7464   -5.0083   -0.6030 H   0  0  0  0  0  0  0  0  0  0  0  0
    2.8005   -3.3800    0.0565 H   0  0  0  0  0  0  0  0  0  0  0  0
    2.6667   -4.4602    2.2823 H   0  0  0  0  0  0  0  0  0  0  0  0
    4.8455   -5.3735    2.3919 H   0  0  0  0  0  0  0  0  0  0  0  0
    4.9021   -5.4409    0.6495 H   0  0  0  0  0  0  0  0  0  0  0  0
    6.1683   -3.4923    1.4795 H   0  0  0  0  0  0  0  0  0  0  0  0
    4.8255   -2.9576    0.5004 H   0  0  0  0  0  0  0  0  0  0  0  0
    4.9611   -1.5150    2.4248 H   0  0  0  0  0  0  0  0  0  0  0  0
    3.4953   -2.4728    2.5291 H   0  0  0  0  0  0  0  0  0  0  0  0
    4.7513   -3.9879    4.0185 H   0  0  0  0  0  0  0  0  0  0  0  0
    4.8895   -2.5797    5.9229 H   0  0  0  0  0  0  0  0  0  0  0  0
    4.7640   -1.1770    4.8948 H   0  0  0  0  0  0  0  0  0  0  0  0
    2.5938   -1.6786    5.9740 H   0  0  0  0  0  0  0  0  0  0  0  0
    2.4474   -1.7951    4.2384 H   0  0  0  0  0  0  0  0  0  0  0  0
    1.2477   -3.6434    5.2525 H   0  0  0  0  0  0  0  0  0  0  0  0
    2.6155   -4.2453    4.3347 H   0  0  0  0  0  0  0  0  0  0  0  0
    3.8571   -4.3689    6.4375 H   0  0  0  0  0  0  0  0  0  0  0  0
    2.7200   -6.1545    7.4796 H   0  0  0  0  0  0  0  0  0  0  0  0
    1.2787   -5.7848    6.5462 H   0  0  0  0  0  0  0  0  0  0  0  0
    4.0017   -6.6194    5.3693 H   0  0  0  0  0  0  0  0  0  0  0  0
    2.5939   -7.6802    5.5673 H   0  0  0  0  0  0  0  0  0  0  0  0
    2.5272   -6.3469    4.4230 H   0  0  0  0  0  0  0  0  0  0  0  0
  1  2  1  0  0  0  0
  1 18  1  0  0  0  0
  1 19  1  0  0  0  0
  1 20  1  0  0  0  0
  2  3  1  0  0  0  0
  2 21  1  0  0  0  0
  2 22  1  0  0  0  0
  3  4  1  0  0  0  0
  3 23  1  0  0  0  0
  4  5  1  0  0  0  0
  4 24  1  0  0  0  0
  4 25  1  0  0  0  0
  5  6  1  0  0  0  0
  5 26  1  0  0  0  0
  5 27  1  0  0  0  0
  6  7  1  0  0  0  0
  6 28  1  0  0  0  0
  6 29  1  0  0  0  0
  7  8  1  0  0  0  0
  7 30  1  0  0  0  0
  8  9  1  0  0  0  0
  8 31  1  0  0  0  0
  8 32  1  0  0  0  0
  9 10  1  0  0  0  0
  9 33  1  0  0  0  0
  9 34  1  0  0  0  0
 10 11  1  0  0  0  0
 10 35  1  0  0  0  0
 10 36  1  0  0  0  0
 11 12  1  0  0  0  0
 11 37  1  0  0  0  0
 12 13  1  0  0  0  0
 12 38  1  0  0  0  0
 12 39  1  0  0  0  0
 13 14  1  0  0  0  0
 13 40  1  0  0  0  0
 13 41  1  0  0  0  0
 14 15  1  0  0  0  0
 14 42  1  0  0  0  0
 14 43  1  0  0  0  0
 15 16  1  0  0  0  0
 15 44  1  0  0  0  0
 16 17  1  0  0  0  0
 16 45  1  0  0  0  0
 16 46  1  0  0  0  0
 17 47  1  0  0  0  0
 17 48  1  0  0  0  0
 17 49  1  0  0  0  0
M  END
>  <DRUGBANK_ID>
DB06445

>  <COMMON_NAME>
Diethylnorspermine

>  <CAS_NUMBER>
121749-39-1

>  <UNII>
HLI827Z1ST

>  <SYNONYMS>
1,3-PROPANEDIAMINE, N,N'-BIS(3-(ETHYLAMINO)PROPYL)-; DENSPM; N(1),N(11)-Diethylnorspermine; N1,N11-Diethylnorspermine

$$$$
