1468
 OpenBabel10282417113D

 37 38  0  0  1  0  0  0  0  0999 V2000
   -1.0531    0.0274    0.0070 S   0  0  0  0  0  0  0  0  0  0  0  0
    1.3314    4.7235    1.2880 S   0  0  0  0  0  0  0  0  0  0  0  0
   -2.5757    4.9762   -1.2533 N   0  0  0  0  0  0  0  0  0  0  0  0
   -1.8364    4.6154   -0.0211 C   0  0  3  0  0  0  0  0  0  0  0  0
   -1.4077    3.1600    0.0321 C   0  0  0  0  0  0  0  0  0  0  0  0
   -2.8476    6.4340   -1.3079 C   0  0  0  0  0  0  0  0  0  0  0  0
   -2.6230    4.9386    1.2596 C   0  0  0  0  0  0  0  0  0  0  0  0
   -0.1384    2.6988    0.0538 C   0  0  0  0  0  0  0  0  0  0  0  0
   -1.8316    4.5803   -2.4612 C   0  0  0  0  0  0  0  0  0  0  0  0
   -1.6090    7.3389   -1.2765 C   0  0  0  0  0  0  0  0  0  0  0  0
    0.1490    1.2722    0.0374 C   0  0  0  0  0  0  0  0  0  0  0  0
    0.9538    3.6522   -0.0181 C   0  0  0  0  0  0  0  0  0  0  0  0
    1.4074    0.6793    0.0349 C   0  0  0  0  0  0  0  0  0  0  0  0
    1.8821    3.8041   -1.0369 C   0  0  0  0  0  0  0  0  0  0  0  0
    1.3883   -0.7401    0.0075 C   0  0  0  0  0  0  0  0  0  0  0  0
    2.8359    4.8292   -0.7851 C   0  0  0  0  0  0  0  0  0  0  0  0
    0.1053   -1.2257   -0.0040 C   0  0  0  0  0  0  0  0  0  0  0  0
    2.6026    5.4602    0.4139 C   0  0  0  0  0  0  0  0  0  0  0  0
   -0.9471    5.2334    0.0002 H   0  0  0  0  0  0  0  0  0  0  0  0
   -2.2568    2.4755    0.0297 H   0  0  0  0  0  0  0  0  0  0  0  0
   -3.4270    6.6563   -2.2125 H   0  0  0  0  0  0  0  0  0  0  0  0
   -3.5172    6.7175   -0.4880 H   0  0  0  0  0  0  0  0  0  0  0  0
   -2.0530    4.6507    2.1503 H   0  0  0  0  0  0  0  0  0  0  0  0
   -2.8108    6.0125    1.3607 H   0  0  0  0  0  0  0  0  0  0  0  0
   -3.5876    4.4205    1.2887 H   0  0  0  0  0  0  0  0  0  0  0  0
   -0.8378    5.0383   -2.5110 H   0  0  0  0  0  0  0  0  0  0  0  0
   -1.6958    3.4958   -2.5209 H   0  0  0  0  0  0  0  0  0  0  0  0
   -2.3857    4.8625   -3.3634 H   0  0  0  0  0  0  0  0  0  0  0  0
   -0.9626    7.1640   -2.1414 H   0  0  0  0  0  0  0  0  0  0  0  0
   -1.9034    8.3905   -1.2911 H   0  0  0  0  0  0  0  0  0  0  0  0
   -1.0084    7.1981   -0.3728 H   0  0  0  0  0  0  0  0  0  0  0  0
    2.3274    1.2525    0.0516 H   0  0  0  0  0  0  0  0  0  0  0  0
    1.8783    3.1846   -1.9270 H   0  0  0  0  0  0  0  0  0  0  0  0
    2.2732   -1.3632    0.0026 H   0  0  0  0  0  0  0  0  0  0  0  0
    3.6449    5.0941   -1.4542 H   0  0  0  0  0  0  0  0  0  0  0  0
   -0.2063   -2.2609   -0.0175 H   0  0  0  0  0  0  0  0  0  0  0  0
    3.1478    6.2918    0.8395 H   0  0  0  0  0  0  0  0  0  0  0  0
  1 11  1  0  0  0  0
  1 17  1  0  0  0  0
  2 12  1  0  0  0  0
  2 18  1  0  0  0  0
  3  4  1  0  0  0  0
  3  6  1  0  0  0  0
  3  9  1  0  0  0  0
  4  5  1  0  0  0  0
  4  7  1  0  0  0  0
  4 19  1  0  0  0  0
  5  8  2  0  0  0  0
  5 20  1  0  0  0  0
  6 10  1  0  0  0  0
  6 21  1  0  0  0  0
  6 22  1  0  0  0  0
  7 23  1  0  0  0  0
  7 24  1  0  0  0  0
  7 25  1  0  0  0  0
  8 11  1  0  0  0  0
  8 12  1  0  0  0  0
  9 26  1  0  0  0  0
  9 27  1  0  0  0  0
  9 28  1  0  0  0  0
 10 29  1  0  0  0  0
 10 30  1  0  0  0  0
 10 31  1  0  0  0  0
 11 13  2  0  0  0  0
 12 14  2  0  0  0  0
 13 15  1  0  0  0  0
 13 32  1  0  0  0  0
 14 16  1  0  0  0  0
 14 33  1  0  0  0  0
 15 17  2  0  0  0  0
 15 34  1  0  0  0  0
 16 18  2  0  0  0  0
 16 35  1  0  0  0  0
 17 36  1  0  0  0  0
 18 37  1  0  0  0  0
M  END
>  <DRUGBANK_ID>
DB01468

>  <COMMON_NAME>
Ethylmethylthiambutene

>  <CAS_NUMBER>
441-61-2

>  <UNII>
722BFZ899Q

>  <SYNONYMS>
Ethylmethylthiambutene

$$$$
