
 OpenBabel10282417123D

 76 81  0  0  1  0  0  0  0  0999 V2000
    0.9813   -0.2640   -0.2143 C   0  0  0  0  0  0  0  0  0  0  0  0
    2.8529    2.7660    3.0582 C   0  0  0  0  0  0  0  0  0  0  0  0
    5.4111    1.5514    1.8391 C   0  0  0  0  0  0  0  0  0  0  0  0
    4.1585    7.5040    3.4762 C   0  0  0  0  0  0  0  0  0  0  0  0
    2.6985    5.9349    1.0350 C   0  0  0  0  0  0  0  0  0  0  0  0
    0.6322    7.6268    0.7716 C   0  0  0  0  0  0  0  0  0  0  0  0
    0.1352    0.6808    0.5623 C   0  0  2  0  0  0  0  0  0  0  0  0
    1.1128    3.1916    3.2296 C   0  0  2  0  0  0  0  0  0  0  0  0
    4.9440    3.8630    0.2275 C   0  0  0  0  0  0  0  0  0  0  0  0
    2.4826    8.4579    1.6031 C   0  0  0  0  0  0  0  0  0  0  0  0
   -0.7254    1.7946   -0.4577 C   0  0  2  0  0  0  0  0  0  0  0  0
   -0.0981    3.0210    1.9232 C   0  0  2  0  0  0  0  0  0  0  0  0
    0.2493    3.0902   -0.5481 C   0  0  2  0  0  0  0  0  0  0  0  0
   -0.1069    4.7293    1.0960 C   0  0  2  0  0  0  0  0  0  0  0  0
    6.2648    3.5726    0.9040 C   0  0  0  0  0  0  0  0  0  0  0  0
    3.6790    9.1371    1.8739 C   0  0  0  0  0  0  0  0  0  0  0  0
    3.5711    2.6959    0.8980 C   0  0  0  0  0  0  0  0  0  0  0  0
    2.1242    7.4464    2.5135 C   0  0  0  0  0  0  0  0  0  0  0  0
    1.5660    2.9379    0.5836 C   0  0  2  0  0  0  0  0  0  0  0  0
    0.3239    5.5625    2.2866 C   0  0  2  0  0  0  0  0  0  0  0  0
    7.3551    4.4198    0.8168 N   0  0  0  0  0  0  0  0  0  0  0  0
    3.9659   10.3225    1.2336 N   0  0  0  0  0  0  0  0  0  0  0  0
    6.4112    2.4603    1.7133 N   0  0  0  0  0  0  0  0  0  0  0  0
    4.4795    8.6759    2.8728 N   0  0  0  0  0  0  0  0  0  0  0  0
    4.1496    1.4734    1.2891 N   0  0  0  0  0  0  0  0  0  0  0  0
    3.0006    6.8124    3.3559 N   0  0  0  0  0  0  0  0  0  0  0  0
    4.1899    5.6902   -0.1049 N   0  0  0  0  0  0  0  0  0  0  0  0
    1.5578    8.5519    0.5495 N   0  0  0  0  0  0  0  0  0  0  0  0
    2.2049    4.0410    1.6334 N   0  0  0  0  0  0  0  0  0  0  0  0
    0.8778    6.9242    2.0000 N   0  0  0  0  0  0  0  0  0  0  0  0
   -1.9648    2.3723   -0.1343 O   0  0  0  0  0  0  0  0  0  0  0  0
   -1.2851    2.4832    2.1822 O   0  0  0  0  0  0  0  0  0  0  0  0
   -0.1305    4.1376   -1.4390 O   0  0  0  0  0  0  0  0  0  0  0  0
   -1.2600    4.9057    0.3563 O   0  0  0  0  0  0  0  0  0  0  0  0
    0.5935    0.4905   -3.8543 O   0  0  0  0  0  0  0  0  0  0  0  0
    0.5199    1.7337   -2.1062 O   0  0  0  0  0  0  0  0  0  0  0  0
    3.3507    2.8711   -0.8482 O   0  0  0  0  0  0  0  0  0  0  0  0
    4.4682    5.3448    1.5558 O   0  0  0  0  0  0  0  0  0  0  0  0
    3.6161    3.8648   -2.6940 O   0  0  0  0  0  0  0  0  0  0  0  0
    1.4169    4.9282   -3.0080 O   0  0  0  0  0  0  0  0  0  0  0  0
    0.8348   -0.1624   -1.6301 O   0  0  0  0  0  0  0  0  0  0  0  0
    3.7883    3.7937    1.9323 O   0  0  0  0  0  0  0  0  0  0  0  0
    1.4356    1.4148    1.2782 O   0  0  0  0  0  0  0  0  0  0  0  0
    1.0336    4.7338    3.3946 O   0  0  0  0  0  0  0  0  0  0  0  0
    1.6596    2.6134   -3.1667 O   0  0  0  0  0  0  0  0  0  0  0  0
    2.4502    5.1534   -0.9543 O   0  0  0  0  0  0  0  0  0  0  0  0
    1.5667    0.9589   -2.7016 P   0  0  3  0  0  0  0  0  0  0  0  0
    3.1192    4.4736    0.4890 P   0  0  3  0  0  0  0  0  0  0  0  0
    2.0549    3.8834   -2.0605 P   0  0  3  0  0  0  0  0  0  0  0  0
   -0.3970    0.4024    1.5066 H   0  0  0  0  0  0  0  0  0  0  0  0
    0.9144    2.5554    4.0566 H   0  0  0  0  0  0  0  0  0  0  0  0
   -1.0183    1.2587   -1.3465 H   0  0  0  0  0  0  0  0  0  0  0  0
    0.0895    2.3771    1.0889 H   0  0  0  0  0  0  0  0  0  0  0  0
    1.1582    2.7419   -0.9063 H   0  0  0  0  0  0  0  0  0  0  0  0
    0.6895    4.9793    0.2726 H   0  0  0  0  0  0  0  0  0  0  0  0
    1.2290    3.6771    1.2741 H   0  0  0  0  0  0  0  0  0  0  0  0
   -0.6697    5.6592    2.5920 H   0  0  0  0  0  0  0  0  0  0  0  0
    0.6649   -1.1880    0.2898 H   0  0  0  0  0  0  0  0  0  0  0  0
    2.0469   -0.1157   -0.0655 H   0  0  0  0  0  0  0  0  0  0  0  0
    2.7470    1.8730    2.4735 H   0  0  0  0  0  0  0  0  0  0  0  0
    3.5338    2.2810    3.7324 H   0  0  0  0  0  0  0  0  0  0  0  0
    5.5666    0.6898    2.5095 H   0  0  0  0  0  0  0  0  0  0  0  0
    4.8576    7.1331    4.2297 H   0  0  0  0  0  0  0  0  0  0  0  0
    2.0970    6.4516    0.1612 H   0  0  0  0  0  0  0  0  0  0  0  0
   -0.0216    7.2306   -0.0259 H   0  0  0  0  0  0  0  0  0  0  0  0
    7.2036    5.3288    0.4004 H   0  0  0  0  0  0  0  0  0  0  0  0
    8.2680    4.1030    1.1073 H   0  0  0  0  0  0  0  0  0  0  0  0
    3.3665   10.6244    0.4771 H   0  0  0  0  0  0  0  0  0  0  0  0
    4.7479   10.8704    1.5416 H   0  0  0  0  0  0  0  0  0  0  0  0
   -1.7146    2.8015    0.6758 H   0  0  0  0  0  0  0  0  0  0  0  0
   -1.5038    3.2966    2.6027 H   0  0  0  0  0  0  0  0  0  0  0  0
   -0.8454    4.7028   -1.0905 H   0  0  0  0  0  0  0  0  0  0  0  0
   -1.9692    4.3802    0.7276 H   0  0  0  0  0  0  0  0  0  0  0  0
    0.9772   -0.0954   -4.4803 H   0  0  0  0  0  0  0  0  0  0  0  0
    2.7830    2.0488   -0.5567 H   0  0  0  0  0  0  0  0  0  0  0  0
    4.1470    3.2985   -2.0910 H   0  0  0  0  0  0  0  0  0  0  0  0
  1 58  1  0  0  0  0
  1 59  1  0  0  0  0
  2 60  1  0  0  0  0
  2 61  1  0  0  0  0
  3 62  1  0  0  0  0
  4 63  1  0  0  0  0
  5 64  1  0  0  0  0
  6 65  1  0  0  0  0
  7  1  1  0  0  0  0
  7 50  1  1  0  0  0
  8  2  1  0  0  0  0
  8 51  1  1  0  0  0
 11  7  1  0  0  0  0
 11 31  1  0  0  0  0
 11 52  1  6  0  0  0
 12  8  1  0  0  0  0
 12 32  1  0  0  0  0
 12 53  1  6  0  0  0
 13 11  1  0  0  0  0
 13 33  1  0  0  0  0
 13 54  1  6  0  0  0
 14 12  1  0  0  0  0
 14 34  1  0  0  0  0
 14 55  1  6  0  0  0
 15  9  2  0  0  0  0
 16 10  2  0  0  0  0
 17  9  1  0  0  0  0
 18 10  1  0  0  0  0
 19 13  1  0  0  0  0
 19 56  1  1  0  0  0
 19 29  1  0  0  0  0
 20 14  1  0  0  0  0
 20 57  1  1  0  0  0
 20 30  1  0  0  0  0
 21 15  1  0  0  0  0
 21 66  1  0  0  0  0
 21 67  1  0  0  0  0
 22 16  1  0  0  0  0
 22 68  1  0  0  0  0
 22 69  1  0  0  0  0
 23  3  2  0  0  0  0
 23 15  1  0  0  0  0
 24  4  2  0  0  0  0
 24 16  1  0  0  0  0
 25  3  1  0  0  0  0
 25 17  2  0  0  0  0
 26  4  1  0  0  0  0
 26 18  2  0  0  0  0
 27  5  2  0  0  0  0
 27  9  1  0  0  0  0
 28  6  2  0  0  0  0
 28 10  1  0  0  0  0
 29  5  1  0  0  0  0
 29 17  1  0  0  0  0
 30  6  1  0  0  0  0
 30 18  1  0  0  0  0
 31 70  1  0  0  0  0
 32 71  1  0  0  0  0
 33 72  1  0  0  0  0
 34 73  1  0  0  0  0
 35 74  1  0  0  0  0
 37 75  1  0  0  0  0
 39 76  1  0  0  0  0
 41  1  1  0  0  0  0
 42  2  1  0  0  0  0
 43  7  1  0  0  0  0
 43 19  1  0  0  0  0
 44  8  1  0  0  0  0
 44 20  1  0  0  0  0
 47 35  1  0  0  0  0
 47 36  2  0  0  0  0
 47 41  1  0  0  0  0
 47 45  1  0  0  0  0
 48 37  1  0  0  0  0
 48 38  2  0  0  0  0
 48 42  1  0  0  0  0
 48 46  1  0  0  0  0
 49 39  1  0  0  0  0
 49 40  2  0  0  0  0
 49 45  1  0  0  0  0
 49 46  1  0  0  0  0
M  END
>  <DRUGBANK_ID>
DB01690

>  <SECONDARY_ACCESSION_NUMBERS>
EXPT00618

>  <COMMON_NAME>
Bis(Adenosine)-5'-Triphosphate

$$$$
