
 OpenBabel10282417123D

 42 42  0  0  1  0  0  0  0  0999 V2000
   -1.4721    1.2714    1.0351 C   0  0  0  0  0  0  0  0  0  0  0  0
   -0.0613    0.7821    1.3190 C   0  0  0  0  0  0  0  0  0  0  0  0
    0.1479   -0.0388    2.2664 O   0  0  0  0  0  0  0  0  0  0  0  0
    1.0610    1.2583    0.4978 N   0  0  0  0  0  0  0  0  0  0  0  0
    0.8092    2.1803   -0.6191 C   0  0  2  0  0  0  0  0  0  0  0  0
    2.0581    3.0043   -0.8873 C   0  0  0  0  0  0  0  0  0  0  0  0
    3.2494    2.1342   -0.5212 C   0  0  0  0  0  0  0  0  0  0  0  0
    4.0586    1.7027   -1.5662 C   0  0  0  0  0  0  0  0  0  0  0  0
    5.2424    1.0256   -1.2919 C   0  0  0  0  0  0  0  0  0  0  0  0
    5.5852    0.7867    0.0284 C   0  0  0  0  0  0  0  0  0  0  0  0
    7.0570   -0.0745    0.3593 Cl  0  0  0  0  0  0  0  0  0  0  0  0
    4.8130    1.2440    1.0859 C   0  0  0  0  0  0  0  0  0  0  0  0
    3.6251    1.9133    0.7941 C   0  0  0  0  0  0  0  0  0  0  0  0
   -0.4024    3.1552   -0.2431 B   0  5  0  0  0  0  0  0  0  0  0  0
   -0.6594    4.0960   -1.3828 O   0  0  0  0  0  0  0  0  0  0  0  0
   -1.6348    2.3421    0.0215 O   0  0  0  0  0  0  0  0  0  0  0  0
   -0.0491    3.9415    0.9844 O   0  0  0  0  0  0  0  0  0  0  0  0
   -1.1245    4.8067    1.3181 C   0  0  0  0  0  0  0  0  0  0  0  0
   -1.4917    5.7457    0.1807 C   0  0  2  0  0  0  0  0  0  0  0  0
   -0.2667    6.2108   -0.4857 N   0  0  0  0  0  0  0  0  0  0  0  0
   -2.2517    6.9398    0.7347 C   0  0  0  0  0  0  0  0  0  0  0  0
   -3.5740    7.2076    0.2917 O   0  0  0  0  0  0  0  0  0  0  0  0
   -1.7037    7.6986    1.5944 O   0  0  0  0  0  0  0  0  0  0  0  0
   -2.1520    0.8214    1.7280 H   0  0  0  0  0  0  0  0  0  0  0  0
   -1.7492    1.0018    0.0374 H   0  0  0  0  0  0  0  0  0  0  0  0
   -1.5084    2.3357    1.1400 H   0  0  0  0  0  0  0  0  0  0  0  0
    2.0077    0.9299    0.6883 H   0  0  0  0  0  0  0  0  0  0  0  0
    0.5572    1.6194   -1.4948 H   0  0  0  0  0  0  0  0  0  0  0  0
    2.1172    3.2734   -1.9212 H   0  0  0  0  0  0  0  0  0  0  0  0
    2.0656    3.8902   -0.2872 H   0  0  0  0  0  0  0  0  0  0  0  0
    3.7714    1.8911   -2.5796 H   0  0  0  0  0  0  0  0  0  0  0  0
    5.8771    0.6950   -2.0873 H   0  0  0  0  0  0  0  0  0  0  0  0
    5.1206    1.0872    2.0986 H   0  0  0  0  0  0  0  0  0  0  0  0
    2.9999    2.2586    1.5908 H   0  0  0  0  0  0  0  0  0  0  0  0
    0.1622    4.6381   -1.5592 H   0  0  0  0  0  0  0  0  0  0  0  0
   -1.8704    1.8179   -0.7969 H   0  0  0  0  0  0  0  0  0  0  0  0
   -2.0036    4.2267    1.5069 H   0  0  0  0  0  0  0  0  0  0  0  0
   -0.8724    5.3676    2.1938 H   0  0  0  0  0  0  0  0  0  0  0  0
   -2.1068    5.2277   -0.5251 H   0  0  0  0  0  0  0  0  0  0  0  0
    0.4958    6.1772    0.1910 H   0  0  0  0  0  0  0  0  0  0  0  0
   -0.3819    7.1673   -0.8207 H   0  0  0  0  0  0  0  0  0  0  0  0
   -4.0051    6.6106   -0.3848 H   0  0  0  0  0  0  0  0  0  0  0  0
  1  2  1  0  0  0  0
  1 24  1  0  0  0  0
  1 25  1  0  0  0  0
  1 26  1  0  0  0  0
  2  3  2  0  0  0  0
  2  4  1  0  0  0  0
  4 27  1  0  0  0  0
  5 14  1  0  0  0  0
  5 28  1  6  0  0  0
  5  6  1  0  0  0  0
  5  4  1  0  0  0  0
  6  7  1  0  0  0  0
  6 29  1  0  0  0  0
  6 30  1  0  0  0  0
  7  8  2  0  0  0  0
  7 13  1  0  0  0  0
  8  9  1  0  0  0  0
  8 31  1  0  0  0  0
  9 10  2  0  0  0  0
  9 32  1  0  0  0  0
 10 11  1  0  0  0  0
 10 12  1  0  0  0  0
 12 13  2  0  0  0  0
 12 33  1  0  0  0  0
 13 34  1  0  0  0  0
 14 15  1  0  0  0  0
 14 16  1  0  0  0  0
 14 17  1  0  0  0  0
 15 35  1  0  0  0  0
 16 36  1  0  0  0  0
 17 18  1  0  0  0  0
 18 37  1  0  0  0  0
 18 38  1  0  0  0  0
 19 21  1  0  0  0  0
 19 39  1  6  0  0  0
 19 20  1  0  0  0  0
 19 18  1  0  0  0  0
 20 40  1  0  0  0  0
 20 41  1  0  0  0  0
 21 22  1  0  0  0  0
 21 23  2  0  0  0  0
 22 42  1  0  0  0  0
M  CHG  1  14  -1
M  END
>  <DRUGBANK_ID>
DB02560

>  <SECONDARY_ACCESSION_NUMBERS>
EXPT00938

>  <COMMON_NAME>
[(1S)-1-acetamido-2-(4-chlorophenyl)ethyl]-[(2S)-2-amino-3-hydroxy-3-oxo-propoxy]-dihydroxy-boron

$$$$
