BDI
 OpenBabel10282417123D

 27 28  0  0  0  0  0  0  0  0999 V2000
   -1.5717   -1.1714    0.0047 N   0  0  0  0  0  0  0  0  0  0  0  0
   -2.3294   -0.0900   -0.0306 C   0  0  0  0  0  0  0  0  0  0  0  0
   -3.8274   -0.0557    0.0145 C   0  0  0  0  0  0  0  0  0  0  0  0
   -4.3837    0.6917    1.2362 C   0  0  0  0  0  0  0  0  0  0  0  0
   -4.0011    2.1742    1.2962 C   0  0  0  0  0  0  0  0  0  0  0  0
   -4.4305    2.9218    0.0403 C   0  0  0  0  0  0  0  0  0  0  0  0
   -1.5440    1.0394   -0.1350 N   0  0  0  0  0  0  0  0  0  0  0  0
   -0.2426    0.6560   -0.0471 C   0  0  0  0  0  0  0  0  0  0  0  0
    0.9336    1.4578   -0.0208 C   0  0  0  0  0  0  0  0  0  0  0  0
    2.1019    0.7171    0.0053 N   0  0  0  0  0  0  0  0  0  0  0  0
    2.1138   -0.7045    0.0028 N   0  0  0  0  0  0  0  0  0  0  0  0
    0.9606   -1.4875    0.0063 C   0  0  0  0  0  0  0  0  0  0  0  0
    1.0234   -2.7148    0.0103 O   0  0  0  0  0  0  0  0  0  0  0  0
   -0.2705   -0.7169   -0.0111 C   0  0  0  0  0  0  0  0  0  0  0  0
    0.9339    2.6872   -0.0186 O   0  0  0  0  0  0  0  0  0  0  0  0
   -4.2189    0.3694   -0.9162 H   0  0  0  0  0  0  0  0  0  0  0  0
   -4.2069   -1.0851    0.0391 H   0  0  0  0  0  0  0  0  0  0  0  0
   -5.4797    0.6206    1.2269 H   0  0  0  0  0  0  0  0  0  0  0  0
   -4.0495    0.1953    2.1560 H   0  0  0  0  0  0  0  0  0  0  0  0
   -4.4537    2.6424    2.1760 H   0  0  0  0  0  0  0  0  0  0  0  0
   -2.9260    2.2817    1.4617 H   0  0  0  0  0  0  0  0  0  0  0  0
   -5.5216    2.9290   -0.0352 H   0  0  0  0  0  0  0  0  0  0  0  0
   -4.0685    3.9520    0.0608 H   0  0  0  0  0  0  0  0  0  0  0  0
   -4.0389    2.4705   -0.8766 H   0  0  0  0  0  0  0  0  0  0  0  0
   -1.8536    1.9997   -0.1949 H   0  0  0  0  0  0  0  0  0  0  0  0
    2.9848    1.2166    0.0136 H   0  0  0  0  0  0  0  0  0  0  0  0
    3.0034   -1.1895   -0.0010 H   0  0  0  0  0  0  0  0  0  0  0  0
  1  2  2  0  0  0  0
  1 14  1  0  0  0  0
  2  3  1  0  0  0  0
  2  7  1  0  0  0  0
  3  4  1  0  0  0  0
  3 16  1  0  0  0  0
  3 17  1  0  0  0  0
  4  5  1  0  0  0  0
  4 18  1  0  0  0  0
  4 19  1  0  0  0  0
  5  6  1  0  0  0  0
  5 20  1  0  0  0  0
  5 21  1  0  0  0  0
  6 22  1  0  0  0  0
  6 23  1  0  0  0  0
  6 24  1  0  0  0  0
  7  8  1  0  0  0  0
  7 25  1  0  0  0  0
  8  9  1  0  0  0  0
  8 14  2  0  0  0  0
  9 10  1  0  0  0  0
  9 15  2  0  0  0  0
 10 11  1  0  0  0  0
 10 26  1  0  0  0  0
 11 12  1  0  0  0  0
 11 27  1  0  0  0  0
 12 13  2  0  0  0  0
 12 14  1  0  0  0  0
M  END
>  <DRUGBANK_ID>
DB02441

>  <SECONDARY_ACCESSION_NUMBERS>
EXPT00650

>  <COMMON_NAME>
2-Butyl-5,6-Dihydro-1h-Imidazo[4,5-D]Pyridazine-4,7-Dione

>  <UNII>
917N15H9XX

$$$$
