CLK
 OpenBabel10282417143D

 32 32  0  0  0  0  0  0  0  0999 V2000
   -1.2787   -1.2227   -1.5589 C   0  0  0  0  0  0  0  0  0  0  0  0
   -2.4011   -1.1065   -2.9014 Cl  0  0  0  0  0  0  0  0  0  0  0  0
   -1.2667   -1.4212    0.1715 Cl  0  0  0  0  0  0  0  0  0  0  0  0
   -0.3578   -0.1416   -1.9724 C   0  0  0  0  0  0  0  0  0  0  0  0
    0.6947   -0.4630   -2.5742 O   0  0  0  0  0  0  0  0  0  0  0  0
   -0.7543    1.1684   -1.9811 N   0  0  0  0  0  0  0  0  0  0  0  0
   -1.8633    2.0210   -1.3677 C   0  0  2  0  0  0  0  0  0  0  0  0
   -1.0891    3.1401   -0.6023 C   0  0  0  0  0  0  0  0  0  0  0  0
   -0.2301    3.8615   -1.4946 O   0  0  0  0  0  0  0  0  0  0  0  0
   -2.9814    1.4301   -0.3745 C   0  0  2  0  0  0  0  0  0  0  0  0
   -2.3136    0.9769    0.7914 O   0  0  0  0  0  0  0  0  0  0  0  0
   -4.1031    0.5043   -0.9260 C   0  0  0  0  0  0  0  0  0  0  0  0
   -4.2457   -0.8907   -0.7197 C   0  0  0  0  0  0  0  0  0  0  0  0
   -4.9243   -1.7080   -1.6592 C   0  0  0  0  0  0  0  0  0  0  0  0
   -5.7115   -1.1445   -2.6503 C   0  0  0  0  0  0  0  0  0  0  0  0
   -6.1502   -1.9085   -3.7356 N   0  0  0  0  0  0  0  0  0  0  0  0
   -5.7804    0.2486   -2.6937 C   0  0  0  0  0  0  0  0  0  0  0  0
   -4.9849    1.0597   -1.8601 C   0  0  0  0  0  0  0  0  0  0  0  0
   -2.3561    2.4993   -2.2291 H   0  0  0  0  0  0  0  0  0  0  0  0
   -3.5336    2.2987    0.0109 H   0  0  0  0  0  0  0  0  0  0  0  0
   -0.9931   -2.2351   -1.7628 H   0  0  0  0  0  0  0  0  0  0  0  0
   -0.2344    1.6497   -2.7085 H   0  0  0  0  0  0  0  0  0  0  0  0
   -1.7612    3.8677   -0.1379 H   0  0  0  0  0  0  0  0  0  0  0  0
   -0.4560    2.7046    0.1794 H   0  0  0  0  0  0  0  0  0  0  0  0
    0.4679    3.2414   -1.7698 H   0  0  0  0  0  0  0  0  0  0  0  0
   -2.4462    0.0187    0.8576 H   0  0  0  0  0  0  0  0  0  0  0  0
   -3.6565   -1.4593   -0.0150 H   0  0  0  0  0  0  0  0  0  0  0  0
   -4.6321   -2.7610   -1.7443 H   0  0  0  0  0  0  0  0  0  0  0  0
   -6.9818   -1.5436   -4.1862 H   0  0  0  0  0  0  0  0  0  0  0  0
   -6.1892   -2.9107   -3.5842 H   0  0  0  0  0  0  0  0  0  0  0  0
   -6.3646    0.7280   -3.4721 H   0  0  0  0  0  0  0  0  0  0  0  0
   -4.9950    2.1340   -2.0250 H   0  0  0  0  0  0  0  0  0  0  0  0
  1  2  1  0  0  0  0
  1  3  1  0  0  0  0
  1  4  1  0  0  0  0
  1 21  1  0  0  0  0
  4  5  2  0  0  0  0
  4  6  1  0  0  0  0
  6 22  1  0  0  0  0
  7 19  1  6  0  0  0
  7  8  1  0  0  0  0
  7  6  1  0  0  0  0
  8  9  1  0  0  0  0
  8 23  1  0  0  0  0
  8 24  1  0  0  0  0
  9 25  1  0  0  0  0
 10 12  1  0  0  0  0
 10 20  1  1  0  0  0
 10 11  1  0  0  0  0
 10  7  1  0  0  0  0
 11 26  1  0  0  0  0
 12 13  2  0  0  0  0
 12 18  1  0  0  0  0
 13 14  1  0  0  0  0
 13 27  1  0  0  0  0
 14 15  2  0  0  0  0
 14 28  1  0  0  0  0
 15 16  1  0  0  0  0
 15 17  1  0  0  0  0
 16 29  1  0  0  0  0
 16 30  1  0  0  0  0
 17 18  2  0  0  0  0
 17 31  1  0  0  0  0
 18 32  1  0  0  0  0
M  END
>  <DRUGBANK_ID>
DB04411

>  <SECONDARY_ACCESSION_NUMBERS>
EXPT00940

>  <COMMON_NAME>
Alpha-N-Dichloroacetyl-P-Aminophenylserinol

$$$$
