
 OpenBabel10282417153D

 70 74  0  0  0  0  0  0  0  0999 V2000
    0.9613    0.1636    0.3698 C   0  0  0  0  0  0  0  0  0  0  0  0
    0.5007   -1.0867    0.8624 O   0  0  0  0  0  0  0  0  0  0  0  0
    1.0560   -2.2457    0.2192 C   0  0  0  0  0  0  0  0  0  0  0  0
    0.5857   -2.4224   -1.2038 C   0  0  0  0  0  0  0  0  0  0  0  0
    1.1149   -1.4115   -2.1253 N   0  0  0  0  0  0  0  0  0  0  0  0
    0.3619   -1.4304   -3.3613 C   0  0  0  0  0  0  0  0  0  0  0  0
   -1.1375   -1.5103   -3.0109 C   0  0  0  0  0  0  0  0  0  0  0  0
   -1.8059   -2.7267   -3.1399 C   0  0  0  0  0  0  0  0  0  0  0  0
   -3.1667   -2.9464   -2.6869 C   0  0  0  0  0  0  0  0  0  0  0  0
   -3.9657   -2.0059   -2.0168 C   0  0  0  0  0  0  0  0  0  0  0  0
   -3.3006   -0.7620   -1.8539 N   0  0  0  0  0  0  0  0  0  0  0  0
   -1.9267   -0.5638   -2.3391 C   0  0  0  0  0  0  0  0  0  0  0  0
   -5.6850   -2.2035   -2.0001 C   0  0  0  0  0  0  0  0  0  0  0  0
   -6.8582   -2.9016   -1.3433 C   0  0  0  0  0  0  0  0  0  0  0  0
   -8.2606   -2.7273   -2.0916 C   0  0  0  0  0  0  0  0  0  0  0  0
   -7.8565   -2.2930   -3.3189 C   0  0  0  0  0  0  0  0  0  0  0  0
   -6.3834   -3.3413   -3.3524 S   0  0  0  0  0  0  0  0  0  0  0  0
   -8.6886   -1.6282   -4.2511 C   0  0  0  0  0  0  0  0  0  0  0  0
  -10.0399   -1.5785   -3.9488 C   0  0  0  0  0  0  0  0  0  0  0  0
  -10.4422   -2.4118   -2.9065 C   0  0  0  0  0  0  0  0  0  0  0  0
   -9.6108   -3.0361   -1.9602 N   0  0  0  0  0  0  0  0  0  0  0  0
   -8.2149   -1.0935   -5.4497 O   0  0  0  0  0  0  0  0  0  0  0  0
   -6.8448   -1.1799   -5.5037 C   0  0  0  0  0  0  0  0  0  0  0  0
   -6.1789   -0.3410   -4.7153 C   0  0  0  0  0  0  0  0  0  0  0  0
   -4.7963   -0.5765   -4.2585 C   0  0  0  0  0  0  0  0  0  0  0  0
   -3.8730   -1.3846   -4.8643 C   0  0  0  0  0  0  0  0  0  0  0  0
   -4.5975   -2.4194   -5.4749 C   0  0  0  0  0  0  0  0  0  0  0  0
   -6.0624   -2.2832   -5.8518 C   0  0  0  0  0  0  0  0  0  0  0  0
   -6.7248   -3.3441   -6.2973 F   0  0  0  0  0  0  0  0  0  0  0  0
   -2.4970   -0.6892   -5.1779 N   0  0  0  0  0  0  0  0  0  0  0  0
   -1.9306    0.6232   -5.0150 C   0  0  0  0  0  0  0  0  0  0  0  0
   -0.3927    1.0103   -5.6283 S   0  0  0  0  0  0  0  0  0  0  0  0
   -2.4659    1.6903   -4.2831 N   0  0  0  0  0  0  0  0  0  0  0  0
   -3.6659    2.2968   -3.9100 C   0  0  0  0  0  0  0  0  0  0  0  0
   -3.7415    3.0644   -2.9747 O   0  0  0  0  0  0  0  0  0  0  0  0
   -4.8711    1.7994   -4.6318 C   0  0  0  0  0  0  0  0  0  0  0  0
   -4.6081    1.1343   -6.2831 C   0  0  0  0  0  0  0  0  0  0  0  0
   -4.4928   -0.2107   -7.0674 C   0  0  0  0  0  0  0  0  0  0  0  0
   -4.1905   -0.6083   -8.3723 C   0  0  0  0  0  0  0  0  0  0  0  0
   -3.5250    0.4035   -8.9361 C   0  0  0  0  0  0  0  0  0  0  0  0
   -3.4318    1.6700   -8.2715 C   0  0  0  0  0  0  0  0  0  0  0  0
   -4.0947    2.0821   -7.0768 C   0  0  0  0  0  0  0  0  0  0  0  0
   -2.8770    0.1615  -10.0768 F   0  0  0  0  0  0  0  0  0  0  0  0
    0.7320    0.9581    1.0782 H   0  0  0  0  0  0  0  0  0  0  0  0
    0.3866    0.4693   -0.5056 H   0  0  0  0  0  0  0  0  0  0  0  0
    2.0366    0.1382    0.1628 H   0  0  0  0  0  0  0  0  0  0  0  0
    2.1439   -2.2547    0.2682 H   0  0  0  0  0  0  0  0  0  0  0  0
    0.6693   -3.1146    0.7649 H   0  0  0  0  0  0  0  0  0  0  0  0
    0.8379   -3.4013   -1.6204 H   0  0  0  0  0  0  0  0  0  0  0  0
   -0.4988   -2.3823   -1.0864 H   0  0  0  0  0  0  0  0  0  0  0  0
    0.8991   -0.4906   -1.7785 H   0  0  0  0  0  0  0  0  0  0  0  0
    0.7331   -0.5407   -3.8796 H   0  0  0  0  0  0  0  0  0  0  0  0
    0.7213   -2.2639   -3.9845 H   0  0  0  0  0  0  0  0  0  0  0  0
   -1.2772   -3.5385   -3.6337 H   0  0  0  0  0  0  0  0  0  0  0  0
   -3.6432   -3.8177   -3.1059 H   0  0  0  0  0  0  0  0  0  0  0  0
   -1.5043    0.4549   -2.2571 H   0  0  0  0  0  0  0  0  0  0  0  0
   -6.7067   -3.8191   -0.7774 H   0  0  0  0  0  0  0  0  0  0  0  0
  -10.7506   -1.0151   -4.5561 H   0  0  0  0  0  0  0  0  0  0  0  0
  -11.5235   -2.5977   -2.8132 H   0  0  0  0  0  0  0  0  0  0  0  0
   -6.7224    0.6232   -4.6828 H   0  0  0  0  0  0  0  0  0  0  0  0
   -4.1615    0.0139   -3.6376 H   0  0  0  0  0  0  0  0  0  0  0  0
   -4.1205   -3.3493   -5.7617 H   0  0  0  0  0  0  0  0  0  0  0  0
   -1.8399   -1.3118   -5.6655 H   0  0  0  0  0  0  0  0  0  0  0  0
   -1.7568    2.2769   -3.8493 H   0  0  0  0  0  0  0  0  0  0  0  0
   -5.1521    1.2620   -3.6757 H   0  0  0  0  0  0  0  0  0  0  0  0
   -5.8383    2.3051   -4.4402 H   0  0  0  0  0  0  0  0  0  0  0  0
   -3.9172   -1.0772   -6.7440 H   0  0  0  0  0  0  0  0  0  0  0  0
   -4.0452   -1.6718   -8.6707 H   0  0  0  0  0  0  0  0  0  0  0  0
   -2.7059    2.3532   -8.6684 H   0  0  0  0  0  0  0  0  0  0  0  0
   -4.0729    3.0738   -6.6617 H   0  0  0  0  0  0  0  0  0  0  0  0
  1  2  1  0  0  0  0
  1 44  1  0  0  0  0
  1 45  1  0  0  0  0
  1 46  1  0  0  0  0
  2  3  1  0  0  0  0
  3  4  1  0  0  0  0
  3 47  1  0  0  0  0
  3 48  1  0  0  0  0
  4  5  1  0  0  0  0
  4 49  1  0  0  0  0
  4 50  1  0  0  0  0
  5  6  1  0  0  0  0
  5 51  1  0  0  0  0
  6  7  1  0  0  0  0
  6 52  1  0  0  0  0
  6 53  1  0  0  0  0
  7  8  2  0  0  0  0
  7 12  1  0  0  0  0
  8  9  1  0  0  0  0
  8 54  1  0  0  0  0
  9 10  2  0  0  0  0
  9 55  1  0  0  0  0
 10 11  1  0  0  0  0
 10 13  1  0  0  0  0
 11 12  2  0  0  0  0
 12 56  1  0  0  0  0
 13 14  2  0  0  0  0
 13 17  1  0  0  0  0
 14 15  1  0  0  0  0
 14 57  1  0  0  0  0
 15 16  1  0  0  0  0
 15 21  2  0  0  0  0
 16 17  1  0  0  0  0
 16 18  2  0  0  0  0
 18 19  1  0  0  0  0
 18 22  1  0  0  0  0
 19 20  2  0  0  0  0
 19 58  1  0  0  0  0
 20 21  1  0  0  0  0
 20 59  1  0  0  0  0
 22 23  1  0  0  0  0
 23 24  2  0  0  0  0
 23 28  1  0  0  0  0
 24 25  1  0  0  0  0
 24 60  1  0  0  0  0
 25 26  2  0  0  0  0
 25 61  1  0  0  0  0
 26 27  1  0  0  0  0
 26 30  1  0  0  0  0
 27 28  2  0  0  0  0
 27 62  1  0  0  0  0
 28 29  1  0  0  0  0
 30 31  1  0  0  0  0
 30 63  1  0  0  0  0
 31 32  2  0  0  0  0
 31 33  1  0  0  0  0
 33 34  1  0  0  0  0
 33 64  1  0  0  0  0
 34 35  2  0  0  0  0
 34 36  1  0  0  0  0
 36 37  1  0  0  0  0
 36 65  1  0  0  0  0
 36 66  1  0  0  0  0
 37 38  2  0  0  0  0
 37 42  1  0  0  0  0
 38 39  1  0  0  0  0
 38 67  1  0  0  0  0
 39 40  2  0  0  0  0
 39 68  1  0  0  0  0
 40 41  1  0  0  0  0
 40 43  1  0  0  0  0
 41 42  2  0  0  0  0
 41 69  1  0  0  0  0
 42 70  1  0  0  0  0
M  END
>  <DRUGBANK_ID>
DB06302

>  <COMMON_NAME>
Glesatinib

>  <CAS_NUMBER>
936694-12-1

>  <UNII>
7Q29OXD98N

>  <SYNONYMS>
Glesatinib

$$$$
