
 OpenBabel10282417193D

 99103  0  0  1  0  0  0  0  0999 V2000
    0.9667    0.1282   -0.0682 C   0  0  0  0  0  0  0  0  0  0  0  0
    0.4556    1.4104   -0.5759 N   0  0  0  0  0  0  0  0  0  0  0  0
   -0.4182    1.3231   -1.8615 C   0  0  1  0  0  0  0  0  0  0  0  0
   -1.9507    1.6141   -1.6760 C   0  0  0  0  0  0  0  0  0  0  0  0
   -2.4865    2.9729   -1.2723 C   0  0  0  0  0  0  0  0  0  0  0  0
   -2.3643    3.4397    0.0542 C   0  0  0  0  0  0  0  0  0  0  0  0
   -2.4468    4.8356    0.2758 C   0  0  0  0  0  0  0  0  0  0  0  0
   -2.7233    5.7274   -0.8073 C   0  0  0  0  0  0  0  0  0  0  0  0
   -2.7682    5.2615   -2.1085 C   0  0  0  0  0  0  0  0  0  0  0  0
   -2.7793    3.8862   -2.3119 C   0  0  0  0  0  0  0  0  0  0  0  0
   -2.9618    7.4380   -0.6228 Cl  0  0  0  0  0  0  0  0  0  0  0  0
    0.1680    1.6501   -3.3572 C   0  0  0  0  0  0  0  0  0  0  0  0
   -0.0584    0.8260   -4.2480 O   0  0  0  0  0  0  0  0  0  0  0  0
    0.8619    2.8348   -3.6063 N   0  0  0  0  0  0  0  0  0  0  0  0
    0.9791    3.7259   -2.6025 C   0  0  0  0  0  0  0  0  0  0  0  0
    2.2374    4.3992   -2.2968 C   0  0  0  0  0  0  0  0  0  0  0  0
    2.2473    5.7972   -2.3362 C   0  0  0  0  0  0  0  0  0  0  0  0
    3.3173    6.5255   -2.0064 C   0  0  0  0  0  0  0  0  0  0  0  0
    4.2951    5.7882   -1.4127 C   0  0  0  0  0  0  0  0  0  0  0  0
    4.1561    4.3942   -1.0812 C   0  0  0  0  0  0  0  0  0  0  0  0
    3.1975    3.6509   -1.6636 C   0  0  0  0  0  0  0  0  0  0  0  0
    1.3950    3.4736   -4.7661 C   0  0  0  0  0  0  0  0  0  0  0  0
    2.8077    2.8989   -4.9542 C   0  0  0  0  0  0  0  0  0  0  0  0
    2.7669    1.4158   -5.2278 C   0  0  0  0  0  0  0  0  0  0  0  0
    1.9701    1.1587   -6.4835 C   0  0  0  0  0  0  0  0  0  0  0  0
    1.6445    2.1853   -7.3849 C   0  0  0  0  0  0  0  0  0  0  0  0
    0.5246    2.0623   -8.1971 C   0  0  0  0  0  0  0  0  0  0  0  0
   -0.0553    0.8866   -8.4296 N   0  0  0  0  0  0  0  0  0  0  0  0
    0.4710   -0.1619   -7.7535 C   0  0  0  0  0  0  0  0  0  0  0  0
    1.4028   -0.0727   -6.7265 C   0  0  0  0  0  0  0  0  0  0  0  0
    0.2489    3.7036   -5.7287 C   0  0  0  0  0  0  0  0  0  0  0  0
   -1.0290    4.4229   -5.3635 C   0  0  0  0  0  0  0  0  0  0  0  0
   -0.8894    5.9032   -5.2320 C   0  0  0  0  0  0  0  0  0  0  0  0
    0.0099    6.4672   -4.3613 C   0  0  0  0  0  0  0  0  0  0  0  0
    0.1620    7.8161   -4.1377 C   0  0  0  0  0  0  0  0  0  0  0  0
   -0.5544    8.6924   -4.8210 N   0  0  0  0  0  0  0  0  0  0  0  0
   -1.4051    8.1564   -5.7299 C   0  0  0  0  0  0  0  0  0  0  0  0
   -1.6045    6.7991   -5.9744 C   0  0  0  0  0  0  0  0  0  0  0  0
    0.8667    2.5616    0.2389 C   0  0  0  0  0  0  0  0  0  0  0  0
    1.6930    2.4317    1.1407 O   0  0  0  0  0  0  0  0  0  0  0  0
    0.3568    4.0146   -0.0453 C   0  0  0  0  0  0  0  0  0  0  0  0
   -0.3797    4.1588   -0.9356 O   0  0  0  0  0  0  0  0  0  0  0  0
    0.8273    5.3507    0.4042 C   0  0  0  0  0  0  0  0  0  0  0  0
    2.0684    5.5163    0.9095 C   0  0  0  0  0  0  0  0  0  0  0  0
    2.6272    6.7924    0.9105 C   0  0  0  0  0  0  0  0  0  0  0  0
    1.8695    7.9435    0.3934 C   0  0  0  0  0  0  0  0  0  0  0  0
    0.6449    7.7882   -0.2050 C   0  0  0  0  0  0  0  0  0  0  0  0
    0.1483    6.5179   -0.0520 C   0  0  0  0  0  0  0  0  0  0  0  0
   -0.1545    8.6515   -0.9095 O   0  0  0  0  0  0  0  0  0  0  0  0
    0.1018   10.0554   -0.9173 C   0  0  0  0  0  0  0  0  0  0  0  0
    2.2284    9.2513    0.3761 O   0  0  0  0  0  0  0  0  0  0  0  0
    3.5346    9.5177    0.7638 C   0  0  0  0  0  0  0  0  0  0  0  0
    3.9708    6.9449    1.2072 O   0  0  0  0  0  0  0  0  0  0  0  0
    4.9839    5.9216    1.3006 C   0  0  0  0  0  0  0  0  0  0  0  0
    0.5929   -0.7506   -0.6082 H   0  0  0  0  0  0  0  0  0  0  0  0
    0.6415    0.0432    0.9719 H   0  0  0  0  0  0  0  0  0  0  0  0
    2.0621    0.1083   -0.0950 H   0  0  0  0  0  0  0  0  0  0  0  0
   -0.4661    0.2235   -2.0077 H   0  0  0  0  0  0  0  0  0  0  0  0
   -2.4396    1.3758   -2.6288 H   0  0  0  0  0  0  0  0  0  0  0  0
   -2.3301    0.9051   -0.9346 H   0  0  0  0  0  0  0  0  0  0  0  0
   -1.7976    2.8285    0.7727 H   0  0  0  0  0  0  0  0  0  0  0  0
   -1.8899    5.1962    1.1583 H   0  0  0  0  0  0  0  0  0  0  0  0
   -2.7124    5.9575   -2.9483 H   0  0  0  0  0  0  0  0  0  0  0  0
   -2.8875    3.5233   -3.3230 H   0  0  0  0  0  0  0  0  0  0  0  0
    0.1680    4.4212   -2.7658 H   0  0  0  0  0  0  0  0  0  0  0  0
    0.9543    3.0277   -1.8371 H   0  0  0  0  0  0  0  0  0  0  0  0
    1.3179    6.3427   -2.3471 H   0  0  0  0  0  0  0  0  0  0  0  0
    3.2334    7.6020   -1.8544 H   0  0  0  0  0  0  0  0  0  0  0  0
    4.9827    6.4857   -0.9559 H   0  0  0  0  0  0  0  0  0  0  0  0
    4.5838    3.8929   -0.2068 H   0  0  0  0  0  0  0  0  0  0  0  0
    3.0390    2.5982   -1.4211 H   0  0  0  0  0  0  0  0  0  0  0  0
    1.7106    4.5042   -4.5838 H   0  0  0  0  0  0  0  0  0  0  0  0
    3.3779    3.4841   -5.6787 H   0  0  0  0  0  0  0  0  0  0  0  0
    3.3965    3.0286   -4.0351 H   0  0  0  0  0  0  0  0  0  0  0  0
    3.7753    1.0145   -5.2849 H   0  0  0  0  0  0  0  0  0  0  0  0
    2.3440    0.9281   -4.3317 H   0  0  0  0  0  0  0  0  0  0  0  0
    2.0624    3.1790   -7.2658 H   0  0  0  0  0  0  0  0  0  0  0  0
    0.0082    2.9481   -8.5724 H   0  0  0  0  0  0  0  0  0  0  0  0
    0.1076   -1.1257   -8.0787 H   0  0  0  0  0  0  0  0  0  0  0  0
    1.6536   -0.9309   -6.1175 H   0  0  0  0  0  0  0  0  0  0  0  0
    0.6257    4.2808   -6.5700 H   0  0  0  0  0  0  0  0  0  0  0  0
   -0.1442    2.7132   -5.9350 H   0  0  0  0  0  0  0  0  0  0  0  0
   -1.7209    4.2062   -6.1868 H   0  0  0  0  0  0  0  0  0  0  0  0
   -1.4609    3.9533   -4.4900 H   0  0  0  0  0  0  0  0  0  0  0  0
    0.6539    5.8066   -3.8739 H   0  0  0  0  0  0  0  0  0  0  0  0
    0.8788    8.1890   -3.4103 H   0  0  0  0  0  0  0  0  0  0  0  0
   -1.9537    8.8923   -6.2942 H   0  0  0  0  0  0  0  0  0  0  0  0
   -2.2780    6.4471   -6.7408 H   0  0  0  0  0  0  0  0  0  0  0  0
    2.6198    4.6227    1.1333 H   0  0  0  0  0  0  0  0  0  0  0  0
   -0.8855    6.6063    0.1766 H   0  0  0  0  0  0  0  0  0  0  0  0
    0.2177   10.4174    0.1054 H   0  0  0  0  0  0  0  0  0  0  0  0
    0.9640   10.2974   -1.5493 H   0  0  0  0  0  0  0  0  0  0  0  0
   -0.7604   10.5967   -1.3342 H   0  0  0  0  0  0  0  0  0  0  0  0
    3.7273    9.0665    1.7347 H   0  0  0  0  0  0  0  0  0  0  0  0
    4.1949    9.1753   -0.0354 H   0  0  0  0  0  0  0  0  0  0  0  0
    3.6114   10.5942    0.8794 H   0  0  0  0  0  0  0  0  0  0  0  0
    4.7069    5.0506    1.8877 H   0  0  0  0  0  0  0  0  0  0  0  0
    5.4402    5.4899    0.4068 H   0  0  0  0  0  0  0  0  0  0  0  0
    5.9036    6.4358    1.5709 H   0  0  0  0  0  0  0  0  0  0  0  0
  1  2  1  0  0  0  0
  1 55  1  0  0  0  0
  1 56  1  0  0  0  0
  1 57  1  0  0  0  0
  2 39  1  0  0  0  0
  3  2  1  0  0  0  0
  3  4  1  0  0  0  0
  3 12  1  0  0  0  0
  3 58  1  6  0  0  0
  4  5  1  0  0  0  0
  4 59  1  0  0  0  0
  4 60  1  0  0  0  0
  5  6  2  0  0  0  0
  5 10  1  0  0  0  0
  6  7  1  0  0  0  0
  6 61  1  0  0  0  0
  7  8  2  0  0  0  0
  7 62  1  0  0  0  0
  8  9  1  0  0  0  0
  8 11  1  0  0  0  0
  9 10  2  0  0  0  0
  9 63  1  0  0  0  0
 10 64  1  0  0  0  0
 12 13  2  0  0  0  0
 12 14  1  0  0  0  0
 14 15  1  0  0  0  0
 14 22  1  0  0  0  0
 15 16  1  0  0  0  0
 15 65  1  0  0  0  0
 15 66  1  0  0  0  0
 16 17  2  0  0  0  0
 16 21  1  0  0  0  0
 17 18  1  0  0  0  0
 17 67  1  0  0  0  0
 18 19  2  0  0  0  0
 18 68  1  0  0  0  0
 19 20  1  0  0  0  0
 19 69  1  0  0  0  0
 20 21  2  0  0  0  0
 20 70  1  0  0  0  0
 21 71  1  0  0  0  0
 22 23  1  0  0  0  0
 22 31  1  0  0  0  0
 22 72  1  0  0  0  0
 23 24  1  0  0  0  0
 23 73  1  0  0  0  0
 23 74  1  0  0  0  0
 24 25  1  0  0  0  0
 24 75  1  0  0  0  0
 24 76  1  0  0  0  0
 25 26  2  0  0  0  0
 25 30  1  0  0  0  0
 26 27  1  0  0  0  0
 26 77  1  0  0  0  0
 27 28  2  0  0  0  0
 27 78  1  0  0  0  0
 28 29  1  0  0  0  0
 29 30  2  0  0  0  0
 29 79  1  0  0  0  0
 30 80  1  0  0  0  0
 31 32  1  0  0  0  0
 31 81  1  0  0  0  0
 31 82  1  0  0  0  0
 32 33  1  0  0  0  0
 32 83  1  0  0  0  0
 32 84  1  0  0  0  0
 33 34  2  0  0  0  0
 33 38  1  0  0  0  0
 34 35  1  0  0  0  0
 34 85  1  0  0  0  0
 35 36  2  0  0  0  0
 35 86  1  0  0  0  0
 36 37  1  0  0  0  0
 37 38  2  0  0  0  0
 37 87  1  0  0  0  0
 38 88  1  0  0  0  0
 39 40  2  0  0  0  0
 39 41  1  0  0  0  0
 41 42  2  0  0  0  0
 41 43  1  0  0  0  0
 43 44  2  0  0  0  0
 43 48  1  0  0  0  0
 44 45  1  0  0  0  0
 44 89  1  0  0  0  0
 45 46  2  0  0  0  0
 45 53  1  0  0  0  0
 46 47  1  0  0  0  0
 46 51  1  0  0  0  0
 47 48  2  0  0  0  0
 47 49  1  0  0  0  0
 48 90  1  0  0  0  0
 49 50  1  0  0  0  0
 50 91  1  0  0  0  0
 50 92  1  0  0  0  0
 50 93  1  0  0  0  0
 51 52  1  0  0  0  0
 52 94  1  0  0  0  0
 52 95  1  0  0  0  0
 52 96  1  0  0  0  0
 53 54  1  0  0  0  0
 54 97  1  0  0  0  0
 54 98  1  0  0  0  0
 54 99  1  0  0  0  0
M  END
>  <DRUGBANK_ID>
DB12761

>  <COMMON_NAME>
Timcodar

>  <CAS_NUMBER>
179033-51-3

>  <UNII>
U141W322WZ

>  <SYNONYMS>
Timcodar

$$$$
