
 OpenBabel10282417223D

 80 83  0  0  0  0  0  0  0  0999 V2000
   17.6909    2.0914   -7.8189 O   0  0  0  0  0  0  0  0  0  0  0  0
   17.2601    2.1749   -6.6519 C   0  0  0  0  0  0  0  0  0  0  0  0
   15.8202    2.4011   -6.4466 C   0  0  0  0  0  0  0  0  0  0  0  0
   14.9105    1.5373   -7.0968 C   0  0  0  0  0  0  0  0  0  0  0  0
   15.2955    0.6035   -8.0263 O   0  0  0  0  0  0  0  0  0  0  0  0
   13.5412    1.5709   -6.8151 C   0  0  0  0  0  0  0  0  0  0  0  0
   13.0583    2.4173   -5.8269 C   0  0  0  0  0  0  0  0  0  0  0  0
   11.6815    2.4774   -5.7310 O   0  0  0  0  0  0  0  0  0  0  0  0
   11.0852    3.6657   -5.1709 C   0  0  2  0  0  0  0  0  0  0  0  0
    9.6129    3.5292   -5.0549 O   0  0  0  0  0  0  0  0  0  0  0  0
    8.9689    4.5736   -4.2848 C   0  0  1  0  0  0  0  0  0  0  0  0
    9.2873    5.9881   -4.7948 C   0  0  1  0  0  0  0  0  0  0  0  0
    8.8527    6.9787   -3.8445 O   0  0  0  0  0  0  0  0  0  0  0  0
   10.8006    6.1368   -5.1069 C   0  0  2  0  0  0  0  0  0  0  0  0
   11.0237    7.4006   -5.7232 O   0  0  0  0  0  0  0  0  0  0  0  0
   11.3860    4.9812   -5.9150 C   0  0  1  0  0  0  0  0  0  0  0  0
   12.7769    5.2934   -6.0566 O   0  0  0  0  0  0  0  0  0  0  0  0
    7.5673    4.2224   -3.6332 C   0  0  0  0  0  0  0  0  0  0  0  0
    7.5895    3.0938   -2.7102 O   0  0  0  0  0  0  0  0  0  0  0  0
   13.9925    3.1731   -5.0982 C   0  0  0  0  0  0  0  0  0  0  0  0
   15.3306    3.3295   -5.5257 C   0  0  0  0  0  0  0  0  0  0  0  0
   15.9827    4.3841   -4.9228 O   0  0  0  0  0  0  0  0  0  0  0  0
   17.2331    4.8882   -5.4052 C   0  0  0  0  0  0  0  0  0  0  0  0
   18.2077    2.0591   -5.5006 C   0  0  0  0  0  0  0  0  0  0  0  0
   17.8484    2.1774   -4.2063 C   0  0  0  0  0  0  0  0  0  0  0  0
   18.7817    2.5771   -3.1454 C   0  0  0  0  0  0  0  0  0  0  0  0
   19.7782    3.5551   -3.2953 C   0  0  0  0  0  0  0  0  0  0  0  0
   20.7083    3.8107   -2.2851 C   0  0  0  0  0  0  0  0  0  0  0  0
   20.6284    3.1043   -1.0835 C   0  0  0  0  0  0  0  0  0  0  0  0
   21.4591    3.1116   -0.0003 O   0  0  0  0  0  0  0  0  0  0  0  0
   22.6037    3.9364   -0.0265 C   0  0  0  0  0  0  0  0  0  0  0  0
   19.5460    2.2239   -0.8999 C   0  0  0  0  0  0  0  0  0  0  0  0
   18.6086    1.9928   -1.9026 C   0  0  0  0  0  0  0  0  0  0  0  0
    8.2285    3.1066   -1.4001 C   0  0  2  0  0  0  0  0  0  0  0  0
    8.1976    4.3396   -0.6527 O   0  0  0  0  0  0  0  0  0  0  0  0
    9.0492    5.3389   -1.1708 C   0  0  2  0  0  0  0  0  0  0  0  0
   10.5166    4.8370   -1.3416 C   0  0  2  0  0  0  0  0  0  0  0  0
   11.2761    5.7748   -2.0894 O   0  0  0  0  0  0  0  0  0  0  0  0
   10.6383    3.3902   -1.9603 C   0  0  1  0  0  0  0  0  0  0  0  0
   11.9795    2.9176   -2.0748 O   0  0  0  0  0  0  0  0  0  0  0  0
    9.6432    2.4318   -1.3743 C   0  0  1  0  0  0  0  0  0  0  0  0
   10.1220    2.1161   -0.0699 O   0  0  0  0  0  0  0  0  0  0  0  0
    8.8388    6.7140   -0.5391 C   0  0  0  0  0  0  0  0  0  0  0  0
   21.6259    4.7500   -2.6626 O   0  0  0  0  0  0  0  0  0  0  0  0
   16.2334    0.7550   -8.2606 H   0  0  0  0  0  0  0  0  0  0  0  0
   12.8527    0.9298   -7.3602 H   0  0  0  0  0  0  0  0  0  0  0  0
   11.5323    3.7633   -4.1916 H   0  0  0  0  0  0  0  0  0  0  0  0
    9.5260    4.6312   -3.4012 H   0  0  0  0  0  0  0  0  0  0  0  0
    8.7265    6.1756   -5.7049 H   0  0  0  0  0  0  0  0  0  0  0  0
    9.5789    7.4024   -3.3511 H   0  0  0  0  0  0  0  0  0  0  0  0
   11.4535    6.2207   -4.2386 H   0  0  0  0  0  0  0  0  0  0  0  0
   10.6655    7.3318   -6.6223 H   0  0  0  0  0  0  0  0  0  0  0  0
   10.9609    4.9406   -6.9145 H   0  0  0  0  0  0  0  0  0  0  0  0
   13.1588    5.4604   -5.1715 H   0  0  0  0  0  0  0  0  0  0  0  0
    7.0951    5.0590   -3.0964 H   0  0  0  0  0  0  0  0  0  0  0  0
    6.8449    3.9845   -4.4209 H   0  0  0  0  0  0  0  0  0  0  0  0
   13.6865    3.7340   -4.2208 H   0  0  0  0  0  0  0  0  0  0  0  0
   18.0503    4.2389   -5.1673 H   0  0  0  0  0  0  0  0  0  0  0  0
   17.2855    5.0547   -6.4823 H   0  0  0  0  0  0  0  0  0  0  0  0
   17.5243    5.7718   -4.8291 H   0  0  0  0  0  0  0  0  0  0  0  0
   19.2519    2.1247   -5.7935 H   0  0  0  0  0  0  0  0  0  0  0  0
   16.8112    2.1905   -3.8845 H   0  0  0  0  0  0  0  0  0  0  0  0
   19.8797    4.1440   -4.2047 H   0  0  0  0  0  0  0  0  0  0  0  0
   23.2787    3.6367   -0.8356 H   0  0  0  0  0  0  0  0  0  0  0  0
   22.3067    4.9879   -0.0915 H   0  0  0  0  0  0  0  0  0  0  0  0
   23.1517    3.8109    0.9095 H   0  0  0  0  0  0  0  0  0  0  0  0
   19.4440    1.6711    0.0307 H   0  0  0  0  0  0  0  0  0  0  0  0
   17.7714    1.3227   -1.7263 H   0  0  0  0  0  0  0  0  0  0  0  0
    7.6151    2.4338   -0.7894 H   0  0  0  0  0  0  0  0  0  0  0  0
    8.6255    5.5972   -2.1167 H   0  0  0  0  0  0  0  0  0  0  0  0
   11.0118    4.8268   -0.3754 H   0  0  0  0  0  0  0  0  0  0  0  0
   10.6545    6.1422   -2.7253 H   0  0  0  0  0  0  0  0  0  0  0  0
   10.3308    3.2550   -2.9687 H   0  0  0  0  0  0  0  0  0  0  0  0
   12.5228    3.2883   -1.3677 H   0  0  0  0  0  0  0  0  0  0  0  0
    9.6173    1.5095   -1.9740 H   0  0  0  0  0  0  0  0  0  0  0  0
   10.4826    2.9333    0.3109 H   0  0  0  0  0  0  0  0  0  0  0  0
    9.2473    7.5142   -1.1739 H   0  0  0  0  0  0  0  0  0  0  0  0
    7.7622    6.9211   -0.4559 H   0  0  0  0  0  0  0  0  0  0  0  0
    9.2905    6.7880    0.4454 H   0  0  0  0  0  0  0  0  0  0  0  0
   22.3625    4.8225   -2.0496 H   0  0  0  0  0  0  0  0  0  0  0  0
  1  2  2  0  0  0  0
  2 24  1  0  0  0  0
  2  3  1  0  0  0  0
  3  4  1  0  0  0  0
  4  5  1  0  0  0  0
  4  6  2  0  0  0  0
  5 45  1  0  0  0  0
  6  7  1  0  0  0  0
  6 46  1  0  0  0  0
  7 20  2  0  0  0  0
  7  8  1  0  0  0  0
  9 10  1  0  0  0  0
  9 47  1  1  0  0  0
  9  8  1  0  0  0  0
 10 11  1  0  0  0  0
 11 12  1  0  0  0  0
 11 18  1  0  0  0  0
 11 48  1  1  0  0  0
 12 13  1  0  0  0  0
 12 14  1  0  0  0  0
 12 49  1  6  0  0  0
 13 50  1  0  0  0  0
 14 15  1  0  0  0  0
 14 16  1  0  0  0  0
 14 51  1  1  0  0  0
 15 52  1  0  0  0  0
 16  9  1  0  0  0  0
 16 17  1  0  0  0  0
 16 53  1  6  0  0  0
 17 54  1  0  0  0  0
 18 19  1  0  0  0  0
 18 55  1  0  0  0  0
 18 56  1  0  0  0  0
 20 21  1  0  0  0  0
 20 57  1  0  0  0  0
 21  3  2  0  0  0  0
 21 22  1  0  0  0  0
 22 23  1  0  0  0  0
 23 58  1  0  0  0  0
 23 59  1  0  0  0  0
 23 60  1  0  0  0  0
 24 25  2  0  0  0  0
 24 61  1  0  0  0  0
 25 26  1  0  0  0  0
 25 62  1  0  0  0  0
 26 27  1  0  0  0  0
 27 28  2  0  0  0  0
 27 63  1  0  0  0  0
 28 29  1  0  0  0  0
 28 44  1  0  0  0  0
 29 30  1  0  0  0  0
 29 32  2  0  0  0  0
 30 31  1  0  0  0  0
 31 64  1  0  0  0  0
 31 65  1  0  0  0  0
 31 66  1  0  0  0  0
 32 33  1  0  0  0  0
 32 67  1  0  0  0  0
 33 26  2  0  0  0  0
 33 68  1  0  0  0  0
 34 35  1  0  0  0  0
 34 69  1  1  0  0  0
 34 19  1  0  0  0  0
 35 36  1  0  0  0  0
 36 37  1  0  0  0  0
 36 43  1  0  0  0  0
 36 70  1  6  0  0  0
 37 38  1  0  0  0  0
 37 39  1  0  0  0  0
 37 71  1  1  0  0  0
 38 72  1  0  0  0  0
 39 40  1  0  0  0  0
 39 41  1  0  0  0  0
 39 73  1  6  0  0  0
 40 74  1  0  0  0  0
 41 34  1  0  0  0  0
 41 42  1  0  0  0  0
 41 75  1  6  0  0  0
 42 76  1  0  0  0  0
 43 77  1  0  0  0  0
 43 78  1  0  0  0  0
 43 79  1  0  0  0  0
 44 80  1  0  0  0  0
M  END
>  <DRUGBANK_ID>
DB15943

>  <COMMON_NAME>
Hesperidin methylchalcone

>  <CAS_NUMBER>
24292-52-2

>  <UNII>
4T2GVA922X

>  <SYNONYMS>
Hesperidin methyl chalcone

$$$$
