
 OpenBabel10282417133D

 15 15  0  0  0  0  0  0  0  0999 V2000
    2.6546    1.0081    0.0450 C   0  0  0  0  0  0  0  0  0  0  0  0
    1.2009    0.6757    0.0055 C   0  0  0  0  0  0  0  0  0  0  0  0
    0.2282    1.5947   -0.0168 C   0  0  0  0  0  0  0  0  0  0  0  0
   -1.0892    1.2380   -0.0360 N   0  0  0  0  0  0  0  0  0  0  0  0
   -1.5241   -0.0587   -0.0151 C   0  0  0  0  0  0  0  0  0  0  0  0
   -2.7160   -0.3431    0.0042 O   0  0  0  0  0  0  0  0  0  0  0  0
   -0.5421   -1.0079   -0.0151 N   0  0  0  0  0  0  0  0  0  0  0  0
    0.8029   -0.7578   -0.0079 C   0  0  0  0  0  0  0  0  0  0  0  0
    1.6338   -1.6606   -0.0095 O   0  0  0  0  0  0  0  0  0  0  0  0
    3.1191    0.6023    0.9493 H   0  0  0  0  0  0  0  0  0  0  0  0
    3.1702    0.6014   -0.8303 H   0  0  0  0  0  0  0  0  0  0  0  0
    2.8143    2.0921    0.0498 H   0  0  0  0  0  0  0  0  0  0  0  0
    0.4379    2.6598   -0.0127 H   0  0  0  0  0  0  0  0  0  0  0  0
   -1.8143    1.9463   -0.0512 H   0  0  0  0  0  0  0  0  0  0  0  0
   -0.8356   -1.9717   -0.0143 H   0  0  0  0  0  0  0  0  0  0  0  0
  1  2  1  0  0  0  0
  1 10  1  0  0  0  0
  1 11  1  0  0  0  0
  1 12  1  0  0  0  0
  2  3  2  0  0  0  0
  2  8  1  0  0  0  0
  3  4  1  0  0  0  0
  3 13  1  0  0  0  0
  4  5  1  0  0  0  0
  4 14  1  0  0  0  0
  5  6  2  0  0  0  0
  5  7  1  0  0  0  0
  7  8  1  0  0  0  0
  7 15  1  0  0  0  0
  8  9  2  0  0  0  0
M  END
>  <DRUGBANK_ID>
DB03462

>  <SECONDARY_ACCESSION_NUMBERS>
EXPT03032

>  <COMMON_NAME>
Thymine

>  <CAS_NUMBER>
65-71-4

>  <UNII>
QR26YLT7LT

>  <SYNONYMS>
Thymine

$$$$
