
 OpenBabel10282417203D

 30 32  0  0  0  0  0  0  0  0999 V2000
   -3.6767   -0.7329   -0.0007 C   0  0  0  0  0  0  0  0  0  0  0  0
    3.6861   -0.7133    0.0004 C   0  0  0  0  0  0  0  0  0  0  0  0
   -3.6839    0.6550    0.0019 C   0  0  0  0  0  0  0  0  0  0  0  0
    3.6833    0.6737   -0.0213 C   0  0  0  0  0  0  0  0  0  0  0  0
   -2.4650   -1.4094   -0.0012 C   0  0  0  0  0  0  0  0  0  0  0  0
    2.4786   -1.4006    0.0006 C   0  0  0  0  0  0  0  0  0  0  0  0
   -2.4828    1.3697    0.0058 C   0  0  0  0  0  0  0  0  0  0  0  0
    2.4769    1.3730   -0.0499 C   0  0  0  0  0  0  0  0  0  0  0  0
    0.0331    2.8904    0.0551 C   0  0  0  0  0  0  0  0  0  0  0  0
   -1.2639   -0.6858    0.0054 C   0  0  0  0  0  0  0  0  0  0  0  0
    1.2704   -0.6878   -0.0001 C   0  0  0  0  0  0  0  0  0  0  0  0
   -1.2372    0.7251    0.0131 C   0  0  0  0  0  0  0  0  0  0  0  0
    1.2364    0.7186   -0.0109 C   0  0  0  0  0  0  0  0  0  0  0  0
    0.6991    3.4445    1.3067 C   0  0  0  0  0  0  0  0  0  0  0  0
    0.0041   -1.4409    0.0053 C   0  0  0  0  0  0  0  0  0  0  0  0
   -0.0019    1.4064    0.0226 N   0  0  0  0  0  0  0  0  0  0  0  0
    1.6444    4.2234    1.3220 O   0  0  0  0  0  0  0  0  0  0  0  0
    0.1480    3.0242    2.4618 O   0  0  0  0  0  0  0  0  0  0  0  0
    0.0058   -2.6712    0.0035 O   0  0  0  0  0  0  0  0  0  0  0  0
   -4.6106   -1.2855   -0.0017 H   0  0  0  0  0  0  0  0  0  0  0  0
    4.6261   -1.2556    0.0088 H   0  0  0  0  0  0  0  0  0  0  0  0
   -4.6241    1.1998    0.0036 H   0  0  0  0  0  0  0  0  0  0  0  0
    4.6156    1.2315   -0.0194 H   0  0  0  0  0  0  0  0  0  0  0  0
   -2.4493   -2.4975   -0.0039 H   0  0  0  0  0  0  0  0  0  0  0  0
    2.4734   -2.4887    0.0052 H   0  0  0  0  0  0  0  0  0  0  0  0
   -2.5837    2.4470    0.0036 H   0  0  0  0  0  0  0  0  0  0  0  0
    2.5602    2.4520   -0.1036 H   0  0  0  0  0  0  0  0  0  0  0  0
    0.5566    3.2590   -0.8358 H   0  0  0  0  0  0  0  0  0  0  0  0
   -0.9392    3.3817    0.0138 H   0  0  0  0  0  0  0  0  0  0  0  0
    0.7217    3.3966    3.1636 H   0  0  0  0  0  0  0  0  0  0  0  0
  1 20  1  0  0  0  0
  2 21  1  0  0  0  0
  3  1  2  0  0  0  0
  3 22  1  0  0  0  0
  4  2  2  0  0  0  0
  4 23  1  0  0  0  0
  5  1  1  0  0  0  0
  5 24  1  0  0  0  0
  6  2  1  0  0  0  0
  6 25  1  0  0  0  0
  7  3  1  0  0  0  0
  7 26  1  0  0  0  0
  8  4  1  0  0  0  0
  8 27  1  0  0  0  0
  9 28  1  0  0  0  0
  9 29  1  0  0  0  0
 10  5  2  0  0  0  0
 11  6  2  0  0  0  0
 12  7  2  0  0  0  0
 12 10  1  0  0  0  0
 13  8  2  0  0  0  0
 13 11  1  0  0  0  0
 14  9  1  0  0  0  0
 15 10  1  0  0  0  0
 15 11  1  0  0  0  0
 16  9  1  0  0  0  0
 16 12  1  0  0  0  0
 16 13  1  0  0  0  0
 17 14  2  0  0  0  0
 18 14  1  0  0  0  0
 18 30  1  0  0  0  0
 19 15  2  0  0  0  0
M  END
>  <DRUGBANK_ID>
DB13674

>  <COMMON_NAME>
Cridanimod

>  <CAS_NUMBER>
38609-97-1

>  <UNII>
X91E9EME19

>  <SYNONYMS>
Cridanimod

$$$$
