1583
 OpenBabel10282417123D

 70 70  0  0  1  0  0  0  0  0999 V2000
    5.1440   -4.6533   -5.9516 I   0  0  0  0  0  0  0  0  0  0  0  0
    3.1903   -9.3652   -2.7867 I   0  0  0  0  0  0  0  0  0  0  0  0
    5.1440   -4.6533   -5.9516 I   0  0  0  0  0  0  0  0  0  0  0  0
    3.1903   -9.3652   -2.7867 I   0  0  0  0  0  0  0  0  0  0  0  0
    9.0936   -4.3082   -5.3121 I   0  0  0  0  0  0  0  0  0  0  0  0
    6.7324   -8.6429  -10.2860 I   0  0  0  0  0  0  0  0  0  0  0  0
    9.8673   -4.7041   -8.6013 I   0  0  0  0  0  0  0  0  0  0  0  0
    1.7373    1.6738   -0.2231 Na  0  3  0  0  0  0  0  0  0  0  0  0
    0.6016   -1.3953    0.3804 Na  0  3  0  0  0  0  0  0  0  0  0  0
    4.8368   -7.6454   -4.9390 O   0  0  0  0  0  0  0  0  0  0  0  0
    4.8368   -7.6454   -4.9390 O   0  0  0  0  0  0  0  0  0  0  0  0
    0.0962   -6.8598   -2.5219 O   0  5  0  0  0  0  0  0  0  0  0  0
    1.2812   -6.8644   -0.5140 O   0  0  0  0  0  0  0  0  0  0  0  0
    0.0962   -6.8598   -2.5219 O   0  5  0  0  0  0  0  0  0  0  0  0
    1.2812   -6.8644   -0.5140 O   0  0  0  0  0  0  0  0  0  0  0  0
    9.2066   -7.4072   -8.8124 O   0  0  0  0  0  0  0  0  0  0  0  0
    7.0666   -4.2614   -9.8997 O   0  0  0  0  0  0  0  0  0  0  0  0
    0.0308   -4.2365   -0.1449 N   0  0  0  0  0  0  0  0  0  0  0  0
    0.0308   -4.2365   -0.1449 N   0  0  0  0  0  0  0  0  0  0  0  0
    2.1446   -4.1614   -1.3643 C   0  0  0  0  0  0  0  0  0  0  0  0
    2.1446   -4.1614   -1.3643 C   0  0  0  0  0  0  0  0  0  0  0  0
    0.7135   -4.6734   -1.3712 C   0  0  1  0  0  0  0  0  0  0  0  0
    2.8398   -5.0975   -2.3394 C   0  0  0  0  0  0  0  0  0  0  0  0
    0.7135   -4.6734   -1.3712 C   0  0  1  0  0  0  0  0  0  0  0  0
    2.8398   -5.0975   -2.3394 C   0  0  0  0  0  0  0  0  0  0  0  0
    2.7345   -6.4466   -2.1274 C   0  0  0  0  0  0  0  0  0  0  0  0
    3.5408   -4.5416   -3.3873 C   0  0  0  0  0  0  0  0  0  0  0  0
    2.7345   -6.4466   -2.1274 C   0  0  0  0  0  0  0  0  0  0  0  0
    3.5408   -4.5416   -3.3873 C   0  0  0  0  0  0  0  0  0  0  0  0
    4.1337   -6.7773   -4.0624 C   0  0  0  0  0  0  0  0  0  0  0  0
    4.1777   -5.4146   -4.2522 C   0  0  0  0  0  0  0  0  0  0  0  0
    3.3916   -7.2989   -3.0002 C   0  0  0  0  0  0  0  0  0  0  0  0
    4.1337   -6.7773   -4.0624 C   0  0  0  0  0  0  0  0  0  0  0  0
    4.1777   -5.4146   -4.2522 C   0  0  0  0  0  0  0  0  0  0  0  0
    3.3916   -7.2989   -3.0002 C   0  0  0  0  0  0  0  0  0  0  0  0
    0.7191   -6.1921   -1.4344 C   0  0  0  0  0  0  0  0  0  0  0  0
    0.7191   -6.1921   -1.4344 C   0  0  0  0  0  0  0  0  0  0  0  0
    5.5895   -7.1087   -6.0169 C   0  0  0  0  0  0  0  0  0  0  0  0
    5.5895   -7.1087   -6.0169 C   0  0  0  0  0  0  0  0  0  0  0  0
    6.0100   -8.5821   -7.0925 C   0  0  0  0  0  0  0  0  0  0  0  0
    7.2082   -6.7376   -5.0472 C   0  0  0  0  0  0  0  0  0  0  0  0
    7.0368   -6.5185   -7.0657 C   0  0  0  0  0  0  0  0  0  0  0  0
    4.7594   -6.7960   -7.7494 C   0  0  0  0  0  0  0  0  0  0  0  0
    8.8354   -6.9257   -5.9613 C   0  0  0  0  0  0  0  0  0  0  0  0
    7.4199   -8.8266   -7.9427 C   0  0  0  0  0  0  0  0  0  0  0  0
    7.5261   -5.5449   -8.0815 C   0  0  0  0  0  0  0  0  0  0  0  0
    5.3374   -5.8368   -8.9426 C   0  0  0  0  0  0  0  0  0  0  0  0
    8.8966   -7.7145   -7.3536 C   0  0  0  0  0  0  0  0  0  0  0  0
    6.6144   -5.1382   -8.9928 C   0  0  0  0  0  0  0  0  0  0  0  0
    9.1323   -6.4317   -9.0545 H   0  0  0  0  0  0  0  0  0  0  0  0
    7.9870   -4.0323   -9.6056 H   0  0  0  0  0  0  0  0  0  0  0  0
   -0.9538   -4.4996   -0.1861 H   0  0  0  0  0  0  0  0  0  0  0  0
    0.1086   -3.2234   -0.0566 H   0  0  0  0  0  0  0  0  0  0  0  0
   -0.9538   -4.4996   -0.1861 H   0  0  0  0  0  0  0  0  0  0  0  0
    0.1086   -3.2234   -0.0566 H   0  0  0  0  0  0  0  0  0  0  0  0
    2.5347   -4.3177   -0.3802 H   0  0  0  0  0  0  0  0  0  0  0  0
    2.3166   -3.1473   -1.6592 H   0  0  0  0  0  0  0  0  0  0  0  0
    2.5347   -4.3177   -0.3802 H   0  0  0  0  0  0  0  0  0  0  0  0
    2.3166   -3.1473   -1.6592 H   0  0  0  0  0  0  0  0  0  0  0  0
    0.1991   -4.2828   -2.2243 H   0  0  0  0  0  0  0  0  0  0  0  0
    0.1991   -4.2828   -2.2243 H   0  0  0  0  0  0  0  0  0  0  0  0
    2.1606   -6.8316   -1.3104 H   0  0  0  0  0  0  0  0  0  0  0  0
    3.5906   -3.4818   -3.5264 H   0  0  0  0  0  0  0  0  0  0  0  0
    2.1606   -6.8316   -1.3104 H   0  0  0  0  0  0  0  0  0  0  0  0
    3.5906   -3.4818   -3.5264 H   0  0  0  0  0  0  0  0  0  0  0  0
    5.0883   -9.1724   -7.4886 H   0  0  0  0  0  0  0  0  0  0  0  0
    7.1664   -5.9461   -4.2512 H   0  0  0  0  0  0  0  0  0  0  0  0
    7.3955   -7.4570   -6.6194 H   0  0  0  0  0  0  0  0  0  0  0  0
    3.9972   -7.5035   -8.1194 H   0  0  0  0  0  0  0  0  0  0  0  0
    4.7050   -5.7054   -9.8166 H   0  0  0  0  0  0  0  0  0  0  0  0
  1 31  1  0  0  0  0
  2 32  1  0  0  0  0
  3 34  1  0  0  0  0
  4 35  1  0  0  0  0
  5 44  1  0  0  0  0
  6 45  1  0  0  0  0
  7 46  1  0  0  0  0
 10 30  1  0  0  0  0
 10 38  1  0  0  0  0
 11 33  1  0  0  0  0
 11 39  1  0  0  0  0
 12 36  1  0  0  0  0
 13 36  2  0  0  0  0
 14 37  1  0  0  0  0
 15 37  2  0  0  0  0
 16 48  1  0  0  0  0
 16 50  1  0  0  0  0
 17 49  1  0  0  0  0
 17 51  1  0  0  0  0
 18 52  1  0  0  0  0
 18 53  1  0  0  0  0
 19 54  1  0  0  0  0
 19 55  1  0  0  0  0
 20 23  1  0  0  0  0
 20 56  1  0  0  0  0
 20 57  1  0  0  0  0
 21 25  1  0  0  0  0
 21 58  1  0  0  0  0
 21 59  1  0  0  0  0
 22 36  1  0  0  0  0
 22 60  1  6  0  0  0
 22 20  1  0  0  0  0
 22 18  1  0  0  0  0
 23 26  2  0  0  0  0
 23 27  1  0  0  0  0
 24 37  1  0  0  0  0
 24 61  1  6  0  0  0
 24 21  1  0  0  0  0
 24 19  1  0  0  0  0
 25 28  2  0  0  0  0
 25 29  1  0  0  0  0
 26 32  1  0  0  0  0
 26 62  1  0  0  0  0
 27 31  2  0  0  0  0
 27 63  1  0  0  0  0
 28 35  1  0  0  0  0
 28 64  1  0  0  0  0
 29 34  2  0  0  0  0
 29 65  1  0  0  0  0
 30 31  1  0  0  0  0
 30 32  2  0  0  0  0
 33 34  1  0  0  0  0
 33 35  2  0  0  0  0
 38 40  2  0  0  0  0
 38 41  1  0  0  0  0
 39 42  2  0  0  0  0
 39 43  1  0  0  0  0
 40 45  1  0  0  0  0
 40 66  1  0  0  0  0
 41 44  2  0  0  0  0
 41 67  1  0  0  0  0
 42 46  1  0  0  0  0
 42 68  1  0  0  0  0
 43 47  2  0  0  0  0
 43 69  1  0  0  0  0
 44 48  1  0  0  0  0
 45 48  2  0  0  0  0
 46 49  2  0  0  0  0
 47 49  1  0  0  0  0
 47 70  1  0  0  0  0
M  CHG  4   8   1   9   1  12  -1  14  -1
M  END
>  <DRUGBANK_ID>
DB01583

>  <COMMON_NAME>
Liotrix

>  <CAS_NUMBER>
8065-29-0

>  <UNII>
YW8HJ0N26X

>  <SYNONYMS>
Levothyroxine Sodium mixture with Liothyronine Sodium; Liotrix; Liotrix (T4;T3)

$$$$
