
 OpenBabel10282417233D

 52 54  0  0  0  0  0  0  0  0999 V2000
   -0.5738   -1.2388    0.0923 C   0  0  0  0  0  0  0  0  0  0  0  0
   -1.2877   -0.0935    0.0354 N   0  0  0  0  0  0  0  0  0  0  0  0
   -0.6445    1.0921    0.0006 C   0  0  0  0  0  0  0  0  0  0  0  0
    0.7278    1.2028   -0.0060 C   0  0  0  0  0  0  0  0  0  0  0  0
    1.4650    0.0234   -0.0155 C   0  0  0  0  0  0  0  0  0  0  0  0
    0.8104   -1.2164    0.0129 C   0  0  0  0  0  0  0  0  0  0  0  0
   -4.5461   -6.5457   -0.2001 C   0  0  0  0  0  0  0  0  0  0  0  0
   -5.1593   -5.3844   -0.6760 C   0  0  0  0  0  0  0  0  0  0  0  0
   -4.4477   -4.0424   -0.6182 C   0  0  0  0  0  0  0  0  0  0  0  0
   -3.3588   -3.8124    0.1897 C   0  0  0  0  0  0  0  0  0  0  0  0
   -2.9403   -4.8617    1.0745 N   0  0  0  0  0  0  0  0  0  0  0  0
   -2.8987   -6.3872    0.3698 S   0  0  0  0  0  0  0  0  0  0  0  0
   -6.4561   -7.9350   -0.6931 C   0  0  0  0  0  0  0  0  0  0  0  0
   -7.0854   -6.8200   -1.2412 C   0  0  0  0  0  0  0  0  0  0  0  0
   -6.4500   -5.5602   -1.2265 C   0  0  0  0  0  0  0  0  0  0  0  0
   -5.1749   -7.8008   -0.1723 C   0  0  0  0  0  0  0  0  0  0  0  0
   -2.6824   -7.3606    1.4175 O   0  0  0  0  0  0  0  0  0  0  0  0
   -2.0481   -6.3234   -0.8013 O   0  0  0  0  0  0  0  0  0  0  0  0
   -3.5016   -4.7489    2.4362 C   0  0  0  0  0  0  0  0  0  0  0  0
   -2.6106   -2.5167    0.4992 C   0  0  0  0  0  0  0  0  0  0  0  0
   -1.2578   -2.4768    0.1953 N   0  0  0  0  0  0  0  0  0  0  0  0
   -3.1983   -1.6255    1.0985 O   0  0  0  0  0  0  0  0  0  0  0  0
   -5.0679   -3.1607   -1.4840 O   0  0  0  0  0  0  0  0  0  0  0  0
   -4.6180   -1.8232   -1.6874 C   0  0  3  0  0  0  0  0  0  0  0  0
   -4.7910   -0.9444   -0.5663 O   0  0  0  0  0  0  0  0  0  0  0  0
   -5.8813   -0.9494    0.2552 C   0  0  0  0  0  0  0  0  0  0  0  0
   -6.9986   -1.4424   -0.3592 O   0  0  0  0  0  0  0  0  0  0  0  0
   -8.2304   -1.1867    0.3474 C   0  0  0  0  0  0  0  0  0  0  0  0
   -8.3630   -1.9968    1.6286 C   0  0  0  0  0  0  0  0  0  0  0  0
   -5.8776   -0.4647    1.3711 O   0  0  0  0  0  0  0  0  0  0  0  0
   -3.1810   -1.8429   -2.2546 C   0  0  0  0  0  0  0  0  0  0  0  0
   -1.2876    1.9687   -0.0078 H   0  0  0  0  0  0  0  0  0  0  0  0
    1.2037    2.1776    0.0002 H   0  0  0  0  0  0  0  0  0  0  0  0
    2.5501    0.0704   -0.0253 H   0  0  0  0  0  0  0  0  0  0  0  0
    1.3907   -2.1307    0.0113 H   0  0  0  0  0  0  0  0  0  0  0  0
   -6.9537   -8.9035   -0.6853 H   0  0  0  0  0  0  0  0  0  0  0  0
   -8.0766   -6.9325   -1.6806 H   0  0  0  0  0  0  0  0  0  0  0  0
   -6.9949   -4.7221   -1.6603 H   0  0  0  0  0  0  0  0  0  0  0  0
   -4.6635   -8.6696    0.2376 H   0  0  0  0  0  0  0  0  0  0  0  0
   -4.5302   -5.1176    2.4765 H   0  0  0  0  0  0  0  0  0  0  0  0
   -2.8685   -5.2964    3.1356 H   0  0  0  0  0  0  0  0  0  0  0  0
   -3.5093   -3.7024    2.7622 H   0  0  0  0  0  0  0  0  0  0  0  0
   -0.7503   -3.3364    0.0358 H   0  0  0  0  0  0  0  0  0  0  0  0
   -5.2219   -1.3725   -2.4798 H   0  0  0  0  0  0  0  0  0  0  0  0
   -8.3411   -0.1114    0.5406 H   0  0  0  0  0  0  0  0  0  0  0  0
   -9.0427   -1.4674   -0.3325 H   0  0  0  0  0  0  0  0  0  0  0  0
   -7.6068   -1.7227    2.3693 H   0  0  0  0  0  0  0  0  0  0  0  0
   -9.3417   -1.8358    2.0916 H   0  0  0  0  0  0  0  0  0  0  0  0
   -8.2296   -3.0616    1.4208 H   0  0  0  0  0  0  0  0  0  0  0  0
   -3.1762   -2.1778   -3.2934 H   0  0  0  0  0  0  0  0  0  0  0  0
   -2.6713   -0.8843   -2.1476 H   0  0  0  0  0  0  0  0  0  0  0  0
   -2.5359   -2.6060   -1.8201 H   0  0  0  0  0  0  0  0  0  0  0  0
  1  2  2  0  0  0  0
  2  3  1  0  0  0  0
  3  4  2  0  0  0  0
  3 32  1  0  0  0  0
  4  5  1  0  0  0  0
  4 33  1  0  0  0  0
  5  6  2  0  0  0  0
  5 34  1  0  0  0  0
  6  1  1  0  0  0  0
  6 35  1  0  0  0  0
  7 16  2  0  0  0  0
  7 12  1  0  0  0  0
  7  8  1  0  0  0  0
  8  9  1  0  0  0  0
  9 10  2  0  0  0  0
  9 23  1  0  0  0  0
 10 20  1  0  0  0  0
 10 11  1  0  0  0  0
 11 19  1  0  0  0  0
 11 12  1  0  0  0  0
 12 17  2  0  0  0  0
 12 18  2  0  0  0  0
 13 14  2  0  0  0  0
 13 36  1  0  0  0  0
 14 15  1  0  0  0  0
 14 37  1  0  0  0  0
 15  8  2  0  0  0  0
 15 38  1  0  0  0  0
 16 13  1  0  0  0  0
 16 39  1  0  0  0  0
 19 40  1  0  0  0  0
 19 41  1  0  0  0  0
 19 42  1  0  0  0  0
 20 21  1  0  0  0  0
 20 22  2  0  0  0  0
 21  1  1  0  0  0  0
 21 43  1  0  0  0  0
 23 24  1  0  0  0  0
 24 25  1  0  0  0  0
 24 31  1  0  0  0  0
 24 44  1  0  0  0  0
 25 26  1  0  0  0  0
 26 27  1  0  0  0  0
 26 30  2  0  0  0  0
 27 28  1  0  0  0  0
 28 29  1  0  0  0  0
 28 45  1  0  0  0  0
 28 46  1  0  0  0  0
 29 47  1  0  0  0  0
 29 48  1  0  0  0  0
 29 49  1  0  0  0  0
 31 50  1  0  0  0  0
 31 51  1  0  0  0  0
 31 52  1  0  0  0  0
M  END
>  <DRUGBANK_ID>
DB16877

>  <COMMON_NAME>
Ampiroxicam

>  <CAS_NUMBER>
99464-64-9

>  <UNII>
0PV32JZB1J

>  <SYNONYMS>
Ampiroxicam

$$$$
