
 OpenBabel10282417243D

 19 19  0  0  0  0  0  0  0  0999 V2000
    0.9067    0.0113    0.0863 O   0  0  0  0  0  0  0  0  0  0  0  0
    0.3374   -0.9432   -0.6636 C   0  0  0  0  0  0  0  0  0  0  0  0
    1.0029   -1.7607   -1.2800 O   0  0  0  0  0  0  0  0  0  0  0  0
   -1.1306   -0.9125   -0.6612 C   0  0  0  0  0  0  0  0  0  0  0  0
   -1.8663   -0.0127    0.0103 C   0  0  0  0  0  0  0  0  0  0  0  0
   -3.3361   -0.0384    0.0368 C   0  0  0  0  0  0  0  0  0  0  0  0
   -4.0353   -1.2393    0.2195 C   0  0  0  0  0  0  0  0  0  0  0  0
   -5.4262   -1.2442    0.3444 C   0  0  0  0  0  0  0  0  0  0  0  0
   -6.1323   -0.0448    0.3157 C   0  0  0  0  0  0  0  0  0  0  0  0
   -5.4472    1.1586    0.1594 C   0  0  0  0  0  0  0  0  0  0  0  0
   -4.0590    1.1600   -0.0151 C   0  0  0  0  0  0  0  0  0  0  0  0
    1.8698   -0.1367   -0.0159 H   0  0  0  0  0  0  0  0  0  0  0  0
   -1.5913   -1.6928   -1.2566 H   0  0  0  0  0  0  0  0  0  0  0  0
   -1.3934    0.7706    0.5988 H   0  0  0  0  0  0  0  0  0  0  0  0
   -3.5031   -2.1850    0.2841 H   0  0  0  0  0  0  0  0  0  0  0  0
   -5.9528   -2.1840    0.4875 H   0  0  0  0  0  0  0  0  0  0  0  0
   -7.2145   -0.0481    0.4179 H   0  0  0  0  0  0  0  0  0  0  0  0
   -5.9942    2.0978    0.1858 H   0  0  0  0  0  0  0  0  0  0  0  0
   -3.5521    2.1061   -0.1927 H   0  0  0  0  0  0  0  0  0  0  0  0
  1  2  1  0  0  0  0
  1 12  1  0  0  0  0
  2  3  2  0  0  0  0
  2  4  1  0  0  0  0
  4  5  2  0  0  0  0
  4 13  1  0  0  0  0
  5  6  1  0  0  0  0
  5 14  1  0  0  0  0
  6  7  2  0  0  0  0
  6 11  1  0  0  0  0
  7  8  1  0  0  0  0
  7 15  1  0  0  0  0
  8  9  2  0  0  0  0
  8 16  1  0  0  0  0
  9 10  1  0  0  0  0
  9 17  1  0  0  0  0
 10 11  2  0  0  0  0
 10 18  1  0  0  0  0
 11 19  1  0  0  0  0
M  END
>  <DRUGBANK_ID>
DB18313

>  <COMMON_NAME>
Cinnamic acid

>  <CAS_NUMBER>
140-10-3

>  <UNII>
U14A832J8D

>  <SYNONYMS>
2-propenoic acid, 3-phenyl-; 2-propenoic acid, 3-phenyl-, (2e)-; 2-propenoic acid, 3-phenyl-, (e)-; 3-phenyl-2-propenoic acid; 3-phenylacrylic acid; 3-phenylpropenoic acid; Cinnamic acid (constituent of cinnamomum verum bark); Cinnamic acid, (e)-; Cinnamic acid, trans-; Cinnamic acidum; E-cinnamic acid; Trans-cinnamic acid; Trans-cinnamic acid (constituent of cinnamomum cassia bark)

$$$$
