
 OpenBabel10282417133D

129134  0  0  1  0  0  0  0  0999 V2000
   -0.6515    0.4819    3.7957 C   0  0  0  0  0  0  0  0  0  0  0  0
   -1.7053    1.9766    0.8829 C   0  0  0  0  0  0  0  0  0  0  0  0
   -0.6143   -0.0369    2.0927 C   0  0  0  0  0  0  0  0  0  0  0  0
    0.3625    3.5388   -2.5719 C   0  0  0  0  0  0  0  0  0  0  0  0
    2.2513    1.8666    0.1430 C   0  0  0  0  0  0  0  0  0  0  0  0
    1.4116    2.1185   -1.5507 C   0  0  0  0  0  0  0  0  0  0  0  0
    0.7010   -0.9174    3.2055 C   0  0  2  0  0  0  0  0  0  0  0  0
   -0.3610    1.0580    0.7337 C   0  0  2  0  0  0  0  0  0  0  0  0
    0.3150   -1.3100    1.3835 C   0  0  2  0  0  0  0  0  0  0  0  0
   -0.0222    1.7056   -2.9966 C   0  0  2  0  0  0  0  0  0  0  0  0
    1.2169    0.5204   -0.4977 C   0  0  2  0  0  0  0  0  0  0  0  0
    1.0993    0.2056   -2.2423 C   0  0  2  0  0  0  0  0  0  0  0  0
   -0.6473   -2.2888    2.5297 C   0  0  2  0  0  0  0  0  0  0  0  0
    0.5039   -3.5862    1.7889 C   0  0  1  0  0  0  0  0  0  0  0  0
   -0.0089   -2.1334   -0.3669 C   0  0  2  0  0  0  0  0  0  0  0  0
    0.1657   -4.1058   -0.4566 C   0  0  2  0  0  0  0  0  0  0  0  0
    0.7808   -1.1791   -4.3837 C   0  0  2  0  0  0  0  0  0  0  0  0
    1.4432   -2.7307   -1.6437 C   0  0  2  0  0  0  0  0  0  0  0  0
    1.7298   -1.7041   -3.1375 C   0  0  2  0  0  0  0  0  0  0  0  0
   -1.2726   -1.1533   -4.7430 C   0  0  2  0  0  0  0  0  0  0  0  0
   -0.2028   -1.5841   -2.2711 C   0  0  2  0  0  0  0  0  0  0  0  0
   -0.1815   -2.6795   -3.7673 C   0  0  2  0  0  0  0  0  0  0  0  0
    2.3227   -3.6099    2.3801 C   0  0  2  0  0  0  0  0  0  0  0  0
    1.6079   -1.9220    0.1424 C   0  0  2  0  0  0  0  0  0  0  0  0
    1.9713   -4.3697    0.2118 C   0  0  2  0  0  0  0  0  0  0  0  0
   -0.7852   -0.7900   -0.0326 C   0  0  2  0  0  0  0  0  0  0  0  0
   -1.1559   -2.7184    0.6817 C   0  0  2  0  0  0  0  0  0  0  0  0
    1.6179    0.7393   -3.7615 C   0  0  2  0  0  0  0  0  0  0  0  0
    2.7083   -1.0701   -0.8103 C   0  0  2  0  0  0  0  0  0  0  0  0
    2.2896   -0.7530   -2.4166 C   0  0  2  0  0  0  0  0  0  0  0  0
   -2.4053    0.1735   -3.7993 C   0  0  1  0  0  0  0  0  0  0  0  0
   -1.7414   -0.2558   -1.3781 C   0  0  2  0  0  0  0  0  0  0  0  0
   -1.7330   -1.5090   -2.8763 C   0  0  2  0  0  0  0  0  0  0  0  0
    3.2636   -2.1210    2.8895 C   0  0  2  0  0  0  0  0  0  0  0  0
    2.6179   -0.0122    0.4829 C   0  0  2  0  0  0  0  0  0  0  0  0
    3.2073   -2.7191    0.7396 C   0  0  2  0  0  0  0  0  0  0  0  0
    0.3144    0.8999    4.5874 O   0  0  0  0  0  0  0  0  0  0  0  0
   -0.9721    3.1131    1.1468 O   0  0  0  0  0  0  0  0  0  0  0  0
    0.3048    1.6439    2.5933 O   0  0  0  0  0  0  0  0  0  0  0  0
   -0.8647    3.9283   -1.8885 O   0  0  0  0  0  0  0  0  0  0  0  0
    1.3182    2.9305    0.9059 O   0  0  0  0  0  0  0  0  0  0  0  0
    0.3748    2.7603   -0.8612 O   0  0  0  0  0  0  0  0  0  0  0  0
   -2.3337   -1.6668    1.7098 O   0  0  0  0  0  0  0  0  0  0  0  0
   -0.1284   -4.7971    1.3947 O   0  0  0  0  0  0  0  0  0  0  0  0
   -1.4386   -3.5681   -0.6797 O   0  0  0  0  0  0  0  0  0  0  0  0
   -0.2762   -5.3660   -0.9236 O   0  0  0  0  0  0  0  0  0  0  0  0
    1.5535   -2.3351   -4.9359 O   0  0  0  0  0  0  0  0  0  0  0  0
    2.0091   -3.7667   -2.7504 O   0  0  0  0  0  0  0  0  0  0  0  0
    3.1355   -2.3203   -3.5325 O   0  0  0  0  0  0  0  0  0  0  0  0
   -2.1411   -2.7057   -4.5509 O   0  0  0  0  0  0  0  0  0  0  0  0
   -1.4128   -3.1058   -2.3740 O   0  0  0  0  0  0  0  0  0  0  0  0
   -0.3243   -4.2668   -3.4046 O   0  0  0  0  0  0  0  0  0  0  0  0
    3.5304   -4.5521    1.4683 O   0  0  0  0  0  0  0  0  0  0  0  0
    2.7976   -3.0975   -0.7548 O   0  0  0  0  0  0  0  0  0  0  0  0
    2.7359   -5.1241   -0.7788 O   0  0  0  0  0  0  0  0  0  0  0  0
   -3.6155   -0.3798   -2.4537 O   0  0  0  0  0  0  0  0  0  0  0  0
   -1.6215    1.6510   -3.5533 O   0  0  0  0  0  0  0  0  0  0  0  0
   -0.7700    1.0536   -0.8441 O   0  0  0  0  0  0  0  0  0  0  0  0
   -0.7957    0.0759   -2.8853 O   0  0  0  0  0  0  0  0  0  0  0  0
    2.1084   -1.1997    3.7418 O   0  0  0  0  0  0  0  0  0  0  0  0
    1.3270    0.9448    1.3650 O   0  0  0  0  0  0  0  0  0  0  0  0
    2.2054   -1.4090    1.6941 O   0  0  0  0  0  0  0  0  0  0  0  0
   -1.2674   -1.7871   -1.0694 O   0  0  0  0  0  0  0  0  0  0  0  0
   -2.6708   -1.7434   -0.3767 O   0  0  0  0  0  0  0  0  0  0  0  0
    3.4088    0.9127   -1.8193 S   0  0  0  0  0  0  0  0  0  0  0  0
    4.4727   -1.0140    1.0603 S   0  0  0  0  0  0  0  0  0  0  0  0
    4.4099   -1.9533   -1.3347 S   0  0  0  0  0  0  0  0  0  0  0  0
    1.2970   -0.3138    2.2361 H   0  0  0  0  0  0  0  0  0  0  0  0
    0.2104    1.5941    0.1927 H   0  0  0  0  0  0  0  0  0  0  0  0
    0.3790   -0.3742    1.0097 H   0  0  0  0  0  0  0  0  0  0  0  0
   -0.1231    0.7829   -1.9256 H   0  0  0  0  0  0  0  0  0  0  0  0
    0.9630   -0.3331   -0.1677 H   0  0  0  0  0  0  0  0  0  0  0  0
    0.6732   -0.3673   -1.6200 H   0  0  0  0  0  0  0  0  0  0  0  0
   -1.1422   -2.7456    3.2248 H   0  0  0  0  0  0  0  0  0  0  0  0
    0.7462   -3.3503    0.7374 H   0  0  0  0  0  0  0  0  0  0  0  0
    0.3641   -1.4935   -0.8969 H   0  0  0  0  0  0  0  0  0  0  0  0
    0.1089   -3.7653   -1.4806 H   0  0  0  0  0  0  0  0  0  0  0  0
    0.7779   -2.3936   -3.1273 H   0  0  0  0  0  0  0  0  0  0  0  0
    1.5219   -3.7971   -1.4790 H   0  0  0  0  0  0  0  0  0  0  0  0
    1.5436   -1.3588   -1.8126 H   0  0  0  0  0  0  0  0  0  0  0  0
   -0.7019   -0.9970   -5.5796 H   0  0  0  0  0  0  0  0  0  0  0  0
   -0.2202   -0.9750   -3.4444 H   0  0  0  0  0  0  0  0  0  0  0  0
   -0.2034   -2.8134   -4.8100 H   0  0  0  0  0  0  0  0  0  0  0  0
    1.6925   -4.1193    3.0323 H   0  0  0  0  0  0  0  0  0  0  0  0
    1.4794   -2.4093    1.0773 H   0  0  0  0  0  0  0  0  0  0  0  0
    1.7275   -4.9729    1.0626 H   0  0  0  0  0  0  0  0  0  0  0  0
   -1.1546   -1.0259    0.9070 H   0  0  0  0  0  0  0  0  0  0  0  0
   -1.8116   -3.2751    1.3369 H   0  0  0  0  0  0  0  0  0  0  0  0
    2.1419    0.2389   -4.5165 H   0  0  0  0  0  0  0  0  0  0  0  0
    3.6198   -0.8339   -2.0975 H   0  0  0  0  0  0  0  0  0  0  0  0
    2.7222   -0.1661   -3.0600 H   0  0  0  0  0  0  0  0  0  0  0  0
   -3.3239    0.1128   -4.2210 H   0  0  0  0  0  0  0  0  0  0  0  0
   -2.3420    0.4866   -1.8696 H   0  0  0  0  0  0  0  0  0  0  0  0
   -2.7522   -1.6913   -3.1047 H   0  0  0  0  0  0  0  0  0  0  0  0
    4.2164   -2.3410    3.2250 H   0  0  0  0  0  0  0  0  0  0  0  0
    3.1273    0.1352    1.5563 H   0  0  0  0  0  0  0  0  0  0  0  0
    4.0390   -2.8961    1.3305 H   0  0  0  0  0  0  0  0  0  0  0  0
   -1.9564    0.1835    3.0157 H   0  0  0  0  0  0  0  0  0  0  0  0
   -1.1571    1.4348    2.8607 H   0  0  0  0  0  0  0  0  0  0  0  0
   -2.3167    1.5803   -0.0109 H   0  0  0  0  0  0  0  0  0  0  0  0
   -2.2961    1.6377    1.7321 H   0  0  0  0  0  0  0  0  0  0  0  0
   -1.7884    0.2011    1.2670 H   0  0  0  0  0  0  0  0  0  0  0  0
   -1.1581   -0.8719    3.1832 H   0  0  0  0  0  0  0  0  0  0  0  0
    1.4243    3.8615   -1.6962 H   0  0  0  0  0  0  0  0  0  0  0  0
    0.9256    3.1413   -3.4026 H   0  0  0  0  0  0  0  0  0  0  0  0
    2.9411    1.7065    0.8841 H   0  0  0  0  0  0  0  0  0  0  0  0
    3.0154    2.2873   -0.9268 H   0  0  0  0  0  0  0  0  0  0  0  0
    2.1963    3.1758   -0.6674 H   0  0  0  0  0  0  0  0  0  0  0  0
    1.9196    2.2235   -2.4688 H   0  0  0  0  0  0  0  0  0  0  0  0
    0.9972    1.1331    3.9008 H   0  0  0  0  0  0  0  0  0  0  0  0
   -0.1132    2.7647    1.6638 H   0  0  0  0  0  0  0  0  0  0  0  0
    1.2983    1.6098    2.4482 H   0  0  0  0  0  0  0  0  0  0  0  0
   -1.5539    3.2323   -1.8691 H   0  0  0  0  0  0  0  0  0  0  0  0
    0.4096    3.0298    0.3776 H   0  0  0  0  0  0  0  0  0  0  0  0
   -0.5344    2.5167   -1.0493 H   0  0  0  0  0  0  0  0  0  0  0  0
   -2.3335   -1.3174    0.5190 H   0  0  0  0  0  0  0  0  0  0  0  0
   -0.9503   -4.8382    1.8225 H   0  0  0  0  0  0  0  0  0  0  0  0
   -1.3893   -4.2098    0.0918 H   0  0  0  0  0  0  0  0  0  0  0  0
   -0.7927   -5.4845   -0.1485 H   0  0  0  0  0  0  0  0  0  0  0  0
    2.2498   -1.7184   -5.0149 H   0  0  0  0  0  0  0  0  0  0  0  0
    2.0363   -3.1081   -3.3826 H   0  0  0  0  0  0  0  0  0  0  0  0
    3.0351   -3.2464   -4.0511 H   0  0  0  0  0  0  0  0  0  0  0  0
   -2.1377   -3.1916   -3.5575 H   0  0  0  0  0  0  0  0  0  0  0  0
   -1.9618   -2.9633   -1.5293 H   0  0  0  0  0  0  0  0  0  0  0  0
   -0.8622   -4.2535   -2.5317 H   0  0  0  0  0  0  0  0  0  0  0  0
    3.6771   -4.2889    0.3629 H   0  0  0  0  0  0  0  0  0  0  0  0
    3.3776   -2.7211   -1.3878 H   0  0  0  0  0  0  0  0  0  0  0  0
    3.0179   -4.3578   -1.3762 H   0  0  0  0  0  0  0  0  0  0  0  0
   -3.4252   -0.7581   -1.4589 H   0  0  0  0  0  0  0  0  0  0  0  0
  1 98  1  0  0  0  0
  1 99  1  0  0  0  0
  2100  1  0  0  0  0
  2101  1  0  0  0  0
  3102  1  0  0  0  0
  3103  1  0  0  0  0
  4104  1  0  0  0  0
  4105  1  0  0  0  0
  5106  1  0  0  0  0
  5107  1  0  0  0  0
  6108  1  0  0  0  0
  6109  1  0  0  0  0
  7 68  1  6  0  0  0
  7  1  1  0  0  0  0
  8  2  1  0  0  0  0
  8 69  1  6  0  0  0
  9  3  1  0  0  0  0
  9 70  1  6  0  0  0
 10  4  1  0  0  0  0
 10 71  1  1  0  0  0
 11  5  1  0  0  0  0
 11 72  1  1  0  0  0
 12  6  1  0  0  0  0
 12 73  1  1  0  0  0
 13  7  1  0  0  0  0
 13 43  1  0  0  0  0
 13 74  1  1  0  0  0
 14 13  1  0  0  0  0
 14 44  1  0  0  0  0
 14 75  1  6  0  0  0
 15 45  1  0  0  0  0
 15 76  1  6  0  0  0
 16 46  1  0  0  0  0
 16 77  1  6  0  0  0
 17 47  1  0  0  0  0
 17 78  1  1  0  0  0
 18 48  1  0  0  0  0
 18 79  1  1  0  0  0
 19 49  1  0  0  0  0
 19 80  1  1  0  0  0
 20 17  1  0  0  0  0
 20 50  1  0  0  0  0
 20 81  1  6  0  0  0
 21 18  1  0  0  0  0
 21 51  1  0  0  0  0
 21 82  1  6  0  0  0
 22 19  1  0  0  0  0
 22 52  1  0  0  0  0
 22 83  1  6  0  0  0
 23 14  1  0  0  0  0
 23 53  1  0  0  0  0
 23 84  1  1  0  0  0
 24 15  1  0  0  0  0
 24 54  1  0  0  0  0
 24 85  1  1  0  0  0
 25 16  1  0  0  0  0
 25 55  1  0  0  0  0
 25 86  1  1  0  0  0
 26  8  1  0  0  0  0
 26 15  1  0  0  0  0
 26 63  1  0  0  0  0
 26 87  1  1  0  0  0
 27  9  1  0  0  0  0
 27 16  1  0  0  0  0
 27 64  1  0  0  0  0
 27 88  1  1  0  0  0
 28 10  1  0  0  0  0
 28 17  1  0  0  0  0
 28 65  1  0  0  0  0
 28 89  1  6  0  0  0
 29 11  1  0  0  0  0
 29 18  1  0  0  0  0
 29 66  1  0  0  0  0
 29 90  1  6  0  0  0
 30 12  1  0  0  0  0
 30 19  1  0  0  0  0
 30 67  1  0  0  0  0
 30 91  1  6  0  0  0
 31 20  1  0  0  0  0
 31 92  1  6  0  0  0
 31 56  1  0  0  0  0
 32 21  1  0  0  0  0
 32 93  1  6  0  0  0
 32 64  1  0  0  0  0
 33 22  1  0  0  0  0
 33 94  1  6  0  0  0
 33 63  1  0  0  0  0
 34 23  1  0  0  0  0
 34 95  1  1  0  0  0
 34 66  1  0  0  0  0
 35 24  1  0  0  0  0
 35 96  1  1  0  0  0
 35 65  1  0  0  0  0
 36 25  1  0  0  0  0
 36 97  1  1  0  0  0
 36 67  1  0  0  0  0
 37  1  1  0  0  0  0
 37110  1  0  0  0  0
 38  2  1  0  0  0  0
 38111  1  0  0  0  0
 39  3  1  0  0  0  0
 39112  1  0  0  0  0
 40  4  1  0  0  0  0
 40113  1  0  0  0  0
 41  5  1  0  0  0  0
 41114  1  0  0  0  0
 42  6  1  0  0  0  0
 42115  1  0  0  0  0
 43116  1  0  0  0  0
 44117  1  0  0  0  0
 45118  1  0  0  0  0
 46119  1  0  0  0  0
 47120  1  0  0  0  0
 48121  1  0  0  0  0
 49122  1  0  0  0  0
 50123  1  0  0  0  0
 51124  1  0  0  0  0
 52125  1  0  0  0  0
 53126  1  0  0  0  0
 54127  1  0  0  0  0
 55128  1  0  0  0  0
 56129  1  0  0  0  0
 57 10  1  0  0  0  0
 57 31  1  0  0  0  0
 58 11  1  0  0  0  0
 58 32  1  0  0  0  0
 59 12  1  0  0  0  0
 59 33  1  0  0  0  0
 60  7  1  0  0  0  0
 60 34  1  0  0  0  0
 61  8  1  0  0  0  0
 61 35  1  0  0  0  0
 62  9  1  0  0  0  0
 62 36  1  0  0  0  0
M  END
>  <DRUGBANK_ID>
DB03198

>  <SECONDARY_ACCESSION_NUMBERS>
EXPT03068

>  <COMMON_NAME>
Thio-Maltohexaose

$$$$
