
 OpenBabel10282417133D

 45 46  0  0  0  0  0  0  0  0999 V2000
    0.1713    2.1216    0.8264 O   0  0  0  0  0  0  0  0  0  0  0  0
   -1.1313    1.5745    0.6986 C   0  0  1  0  0  0  0  0  0  0  0  0
   -1.2520    0.1021    1.1576 C   0  0  2  0  0  0  0  0  0  0  0  0
   -0.1324   -0.7563    0.5652 C   0  0  1  0  0  0  0  0  0  0  0  0
    1.2490   -0.0500    0.5313 C   0  0  2  0  0  0  0  0  0  0  0  0
    1.0914    1.3704   -0.0563 C   0  0  1  0  0  0  0  0  0  0  0  0
    0.8989    1.4980   -1.5020 O   0  0  0  0  0  0  0  0  0  0  0  0
    2.3176   -0.7898   -0.0706 O   0  0  0  0  0  0  0  0  0  0  0  0
   -0.0955   -2.1164    0.9953 O   0  0  0  0  0  0  0  0  0  0  0  0
   -2.5213   -0.5074    0.8510 O   0  0  0  0  0  0  0  0  0  0  0  0
   -2.4307    2.3396    0.9744 C   0  0  0  0  0  0  0  0  0  0  0  0
   -2.4062    3.7070    0.6210 O   0  0  0  0  0  0  0  0  0  0  0  0
   -2.3248    0.3109   -3.1280 O   0  0  0  0  0  0  0  0  0  0  0  0
   -1.4743    1.1855   -2.3827 C   0  0  1  0  0  0  0  0  0  0  0  0
    0.0241    0.7587   -2.4182 C   0  0  2  0  0  0  0  0  0  0  0  0
    0.2767   -0.7671   -2.4978 C   0  0  1  0  0  0  0  0  0  0  0  0
   -0.9493   -1.6866   -2.8242 C   0  0  2  0  0  0  0  0  0  0  0  0
   -2.2799   -0.9804   -2.4890 C   0  0  3  0  0  0  0  0  0  0  0  0
   -3.4771   -1.6877   -2.7167 O   0  0  0  0  0  0  0  0  0  0  0  0
   -0.8256   -2.9280   -2.0974 O   0  0  0  0  0  0  0  0  0  0  0  0
    1.4977   -1.0460   -3.2141 O   0  0  0  0  0  0  0  0  0  0  0  0
   -1.5648    2.7141   -2.6424 C   0  0  0  0  0  0  0  0  0  0  0  0
   -2.8027    3.3096   -2.2740 O   0  0  0  0  0  0  0  0  0  0  0  0
   -1.1209    1.7349   -0.3343 H   0  0  0  0  0  0  0  0  0  0  0  0
   -1.1751    0.0473    2.2390 H   0  0  0  0  0  0  0  0  0  0  0  0
   -0.5489   -0.8937   -0.4027 H   0  0  0  0  0  0  0  0  0  0  0  0
    1.5493    0.0507    1.5793 H   0  0  0  0  0  0  0  0  0  0  0  0
    2.0530    1.8804    0.0908 H   0  0  0  0  0  0  0  0  0  0  0  0
    2.4109   -0.5730   -1.0234 H   0  0  0  0  0  0  0  0  0  0  0  0
    0.3086   -2.1765    1.8717 H   0  0  0  0  0  0  0  0  0  0  0  0
   -3.0018   -0.0843    0.1190 H   0  0  0  0  0  0  0  0  0  0  0  0
   -3.2128    1.8970    0.3316 H   0  0  0  0  0  0  0  0  0  0  0  0
   -2.7656    2.2162    1.9995 H   0  0  0  0  0  0  0  0  0  0  0  0
   -1.5079    3.9539    0.3441 H   0  0  0  0  0  0  0  0  0  0  0  0
   -1.9649    1.0296   -1.4441 H   0  0  0  0  0  0  0  0  0  0  0  0
    0.3584    1.1135   -3.4081 H   0  0  0  0  0  0  0  0  0  0  0  0
    0.6381   -1.0992   -1.5598 H   0  0  0  0  0  0  0  0  0  0  0  0
   -0.9484   -1.9581   -3.8764 H   0  0  0  0  0  0  0  0  0  0  0  0
   -2.3095   -0.8913   -1.4108 H   0  0  0  0  0  0  0  0  0  0  0  0
   -3.6870   -1.5971   -3.6551 H   0  0  0  0  0  0  0  0  0  0  0  0
   -0.9742   -2.7987   -1.1341 H   0  0  0  0  0  0  0  0  0  0  0  0
    1.3202   -1.6198   -3.9360 H   0  0  0  0  0  0  0  0  0  0  0  0
   -0.8136    3.2393   -2.0336 H   0  0  0  0  0  0  0  0  0  0  0  0
   -1.3677    2.9566   -3.6850 H   0  0  0  0  0  0  0  0  0  0  0  0
   -3.4890    2.6366   -2.1545 H   0  0  0  0  0  0  0  0  0  0  0  0
  1  2  1  0  0  0  0
  1  6  1  0  0  0  0
  2  3  1  0  0  0  0
  2 11  1  0  0  0  0
  2 24  1  6  0  0  0
  3  4  1  0  0  0  0
  3 10  1  0  0  0  0
  3 25  1  1  0  0  0
  4  5  1  0  0  0  0
  4  9  1  0  0  0  0
  4 26  1  6  0  0  0
  5  6  1  0  0  0  0
  5  8  1  0  0  0  0
  5 27  1  1  0  0  0
  6 28  1  1  0  0  0
  6  7  1  0  0  0  0
  8 29  1  0  0  0  0
  9 30  1  0  0  0  0
 10 31  1  0  0  0  0
 11 12  1  0  0  0  0
 11 32  1  0  0  0  0
 11 33  1  0  0  0  0
 12 34  1  0  0  0  0
 13 14  1  0  0  0  0
 13 18  1  0  0  0  0
 14 15  1  0  0  0  0
 14 22  1  0  0  0  0
 14 35  1  1  0  0  0
 15 16  1  0  0  0  0
 15  7  1  0  0  0  0
 15 36  1  6  0  0  0
 16 17  1  0  0  0  0
 16 21  1  0  0  0  0
 16 37  1  1  0  0  0
 17 18  1  0  0  0  0
 17 20  1  0  0  0  0
 17 38  1  6  0  0  0
 18 19  1  0  0  0  0
 18 39  1  0  0  0  0
 19 40  1  0  0  0  0
 20 41  1  0  0  0  0
 21 42  1  0  0  0  0
 22 23  1  0  0  0  0
 22 43  1  0  0  0  0
 22 44  1  0  0  0  0
 23 45  1  0  0  0  0
M  END
>  <DRUGBANK_ID>
DB03323

>  <SECONDARY_ACCESSION_NUMBERS>
EXPT02111

>  <COMMON_NAME>
Maltose

>  <CAS_NUMBER>
69-79-4

>  <UNII>
66Y63L379N

>  <SYNONYMS>
D-(+)-maltose; Maltose anhydrous

$$$$
