
 OpenBabel10282417163D

 44 45  0  0  0  0  0  0  0  0999 V2000
    1.5721   -1.1685    0.0228 C   0  0  0  0  0  0  0  0  0  0  0  0
    2.5265   -0.1503    0.1199 C   0  0  0  0  0  0  0  0  0  0  0  0
    2.0152    1.1524    0.3058 C   0  0  0  0  0  0  0  0  0  0  0  0
    0.2053   -0.8463    0.0470 C   0  0  0  0  0  0  0  0  0  0  0  0
   -0.2054    0.4734    0.0554 C   0  0  0  0  0  0  0  0  0  0  0  0
    0.6803    1.5214    0.1491 C   0  0  0  0  0  0  0  0  0  0  0  0
   -1.5721    0.4266   -0.0027 N   0  0  0  0  0  0  0  0  0  0  0  0
   -1.9405   -0.8890    0.0301 C   0  0  0  0  0  0  0  0  0  0  0  0
   -0.8755   -1.6679    0.0647 N   0  0  0  0  0  0  0  0  0  0  0  0
   -3.3412   -1.3861   -0.0106 C   0  0  0  0  0  0  0  0  0  0  0  0
   -3.5465   -2.3156   -1.2083 C   0  0  0  0  0  0  0  0  0  0  0  0
   -2.6403   -3.5517   -1.2214 C   0  0  0  0  0  0  0  0  0  0  0  0
   -2.8389   -4.4490   -0.0286 C   0  0  0  0  0  0  0  0  0  0  0  0
   -3.2125   -5.6185   -0.0808 O   0  0  0  0  0  0  0  0  0  0  0  0
   -2.5864   -3.8784    1.1585 O   0  0  0  0  0  0  0  0  0  0  0  0
   -2.4141    1.5933   -0.0334 C   0  0  0  0  0  0  0  0  0  0  0  0
    3.9004   -0.3635   -0.0052 N   0  0  0  0  0  0  0  0  0  0  0  0
    4.5101   -1.7158    0.0046 C   0  0  0  0  0  0  0  0  0  0  0  0
    4.7954    0.8140    0.0002 C   0  0  0  0  0  0  0  0  0  0  0  0
    4.8585    1.5884   -1.3435 C   0  0  0  0  0  0  0  0  0  0  0  0
    3.4559    2.5297   -1.9280 Cl  0  0  0  0  0  0  0  0  0  0  0  0
    5.3166   -2.0612   -1.2577 C   0  0  0  0  0  0  0  0  0  0  0  0
    6.8939   -1.2380   -1.4023 Cl  0  0  0  0  0  0  0  0  0  0  0  0
    1.8146   -2.2172   -0.0636 H   0  0  0  0  0  0  0  0  0  0  0  0
    2.6755    1.9849    0.5192 H   0  0  0  0  0  0  0  0  0  0  0  0
    0.3764    2.5596    0.1430 H   0  0  0  0  0  0  0  0  0  0  0  0
   -3.5762   -1.8822    0.9338 H   0  0  0  0  0  0  0  0  0  0  0  0
   -4.0708   -0.5775   -0.0716 H   0  0  0  0  0  0  0  0  0  0  0  0
   -4.5945   -2.6351   -1.2251 H   0  0  0  0  0  0  0  0  0  0  0  0
   -3.3776   -1.7424   -2.1312 H   0  0  0  0  0  0  0  0  0  0  0  0
   -2.8613   -4.1319   -2.1242 H   0  0  0  0  0  0  0  0  0  0  0  0
   -1.5799   -3.3046   -1.3186 H   0  0  0  0  0  0  0  0  0  0  0  0
   -2.7957   -4.5307    1.8536 H   0  0  0  0  0  0  0  0  0  0  0  0
   -2.1773    2.2077    0.8385 H   0  0  0  0  0  0  0  0  0  0  0  0
   -2.2088    2.1364   -0.9589 H   0  0  0  0  0  0  0  0  0  0  0  0
   -3.4667    1.3223    0.0011 H   0  0  0  0  0  0  0  0  0  0  0  0
    5.1132   -1.8500    0.9113 H   0  0  0  0  0  0  0  0  0  0  0  0
    3.7496   -2.4993    0.0708 H   0  0  0  0  0  0  0  0  0  0  0  0
    4.6053    1.4613    0.8655 H   0  0  0  0  0  0  0  0  0  0  0  0
    5.8133    0.4721    0.2096 H   0  0  0  0  0  0  0  0  0  0  0  0
    5.6495    2.3343   -1.2618 H   0  0  0  0  0  0  0  0  0  0  0  0
    5.0838    0.9060   -2.1612 H   0  0  0  0  0  0  0  0  0  0  0  0
    5.5636   -3.1263   -1.2460 H   0  0  0  0  0  0  0  0  0  0  0  0
    4.7376   -1.8487   -2.1604 H   0  0  0  0  0  0  0  0  0  0  0  0
  1  2  1  0  0  0  0
  1  4  2  0  0  0  0
  1 24  1  0  0  0  0
  2  3  2  0  0  0  0
  2 17  1  0  0  0  0
  3 25  1  0  0  0  0
  4  5  1  0  0  0  0
  5  6  2  0  0  0  0
  5  7  1  0  0  0  0
  6  3  1  0  0  0  0
  6 26  1  0  0  0  0
  7  8  1  0  0  0  0
  7 16  1  0  0  0  0
  8  9  2  0  0  0  0
  8 10  1  0  0  0  0
  9  4  1  0  0  0  0
 10 11  1  0  0  0  0
 10 27  1  0  0  0  0
 10 28  1  0  0  0  0
 11 12  1  0  0  0  0
 11 29  1  0  0  0  0
 11 30  1  0  0  0  0
 12 13  1  0  0  0  0
 12 31  1  0  0  0  0
 12 32  1  0  0  0  0
 13 14  2  0  0  0  0
 13 15  1  0  0  0  0
 15 33  1  0  0  0  0
 16 34  1  0  0  0  0
 16 35  1  0  0  0  0
 16 36  1  0  0  0  0
 17 18  1  0  0  0  0
 17 19  1  0  0  0  0
 18 22  1  0  0  0  0
 18 37  1  0  0  0  0
 18 38  1  0  0  0  0
 19 20  1  0  0  0  0
 19 39  1  0  0  0  0
 19 40  1  0  0  0  0
 20 21  1  0  0  0  0
 20 41  1  0  0  0  0
 20 42  1  0  0  0  0
 22 23  1  0  0  0  0
 22 43  1  0  0  0  0
 22 44  1  0  0  0  0
M  END
>  <DRUGBANK_ID>
DB06769

>  <COMMON_NAME>
Bendamustine

>  <CAS_NUMBER>
16506-27-7

>  <UNII>
9266D9P3PQ

>  <SYNONYMS>
Bendamustina; Bendamustine; Ribomustine

$$$$
