786
 OpenBabel10282417113D

 52 51  0  0  1  0  0  0  0  0999 V2000
    0.9546    0.3069   -0.1187 O   0  0  0  0  0  0  0  0  0  0  0  0
   -0.2779   -2.1454   -3.7961 O   0  0  0  0  0  0  0  0  0  0  0  0
    3.8546   -4.8929   -0.9790 O   0  0  0  0  0  0  0  0  0  0  0  0
    0.6117   -2.4754    1.4823 O   0  0  0  0  0  0  0  0  0  0  0  0
    3.5517   -0.9832    0.6354 O   0  0  0  0  0  0  0  0  0  0  0  0
    0.5172   -3.6937   -2.3841 N   0  0  0  0  0  0  0  0  0  0  0  0
    2.8788   -6.2124   -2.4805 N   0  0  0  0  0  0  0  0  0  0  0  0
    2.6497   -2.0283    0.8047 N   0  0  0  0  0  0  0  0  0  0  0  0
    0.5858   -4.9804   -0.1505 C   0  0  0  0  0  0  0  0  0  0  0  0
    1.3763   -4.3453   -1.3149 C   0  0  1  0  0  0  0  0  0  0  0  0
    1.0723   -1.1752   -2.0229 C   0  0  1  0  0  0  0  0  0  0  0  0
    2.5847   -0.9137   -2.4126 C   0  0  0  0  0  0  0  0  0  0  0  0
    3.4539   -2.1574   -2.2310 C   0  0  0  0  0  0  0  0  0  0  0  0
    0.3418   -2.3599   -2.7429 C   0  0  0  0  0  0  0  0  0  0  0  0
    0.2048   -6.3658   -0.6205 C   0  0  0  0  0  0  0  0  0  0  0  0
    1.5597   -5.2086    1.0614 C   0  0  0  0  0  0  0  0  0  0  0  0
   -0.7887   -4.2916    0.1055 C   0  0  0  0  0  0  0  0  0  0  0  0
    0.6982   -1.0415   -0.5183 C   0  0  1  0  0  0  0  0  0  0  0  0
    2.8083   -5.1877   -1.5708 C   0  0  0  0  0  0  0  0  0  0  0  0
    3.1485   -3.0554   -3.4193 C   0  0  0  0  0  0  0  0  0  0  0  0
    4.9220   -2.0892   -1.8505 C   0  0  0  0  0  0  0  0  0  0  0  0
    1.3246   -1.8893    0.6266 C   0  0  0  0  0  0  0  0  0  0  0  0
    1.7398   -6.7637   -3.1318 C   0  0  0  0  0  0  0  0  0  0  0  0
    1.8281    0.3025    0.3139 H   0  0  0  0  0  0  0  0  0  0  0  0
    3.3878   -0.6894   -0.2646 H   0  0  0  0  0  0  0  0  0  0  0  0
    0.1679   -4.2772   -3.1403 H   0  0  0  0  0  0  0  0  0  0  0  0
    3.8139   -6.5551   -2.7035 H   0  0  0  0  0  0  0  0  0  0  0  0
    3.0534   -2.9679    0.8209 H   0  0  0  0  0  0  0  0  0  0  0  0
    1.7324   -3.4592   -0.8691 H   0  0  0  0  0  0  0  0  0  0  0  0
    0.5868   -0.2886   -2.4871 H   0  0  0  0  0  0  0  0  0  0  0  0
    2.6687   -0.6298   -3.4698 H   0  0  0  0  0  0  0  0  0  0  0  0
    2.9485   -0.0321   -1.8779 H   0  0  0  0  0  0  0  0  0  0  0  0
    3.0898   -2.5759   -1.3227 H   0  0  0  0  0  0  0  0  0  0  0  0
    1.1191   -6.9316   -0.7759 H   0  0  0  0  0  0  0  0  0  0  0  0
   -0.3695   -6.9272    0.1082 H   0  0  0  0  0  0  0  0  0  0  0  0
   -0.3857   -6.2792   -1.5372 H   0  0  0  0  0  0  0  0  0  0  0  0
    1.9136   -4.3305    1.5960 H   0  0  0  0  0  0  0  0  0  0  0  0
    1.1334   -5.8775    1.8052 H   0  0  0  0  0  0  0  0  0  0  0  0
    2.4934   -5.6957    0.7436 H   0  0  0  0  0  0  0  0  0  0  0  0
   -0.8654   -3.2646    0.4462 H   0  0  0  0  0  0  0  0  0  0  0  0
   -1.3557   -4.2229   -0.8305 H   0  0  0  0  0  0  0  0  0  0  0  0
   -1.3612   -4.8693    0.8308 H   0  0  0  0  0  0  0  0  0  0  0  0
   -0.3929   -1.1950   -0.4771 H   0  0  0  0  0  0  0  0  0  0  0  0
    3.6793   -2.9030   -4.3415 H   0  0  0  0  0  0  0  0  0  0  0  0
    3.1866   -4.1029   -3.2406 H   0  0  0  0  0  0  0  0  0  0  0  0
    2.1293   -2.9054   -3.7081 H   0  0  0  0  0  0  0  0  0  0  0  0
    5.1725   -1.2166   -1.2431 H   0  0  0  0  0  0  0  0  0  0  0  0
    5.1820   -2.9471   -1.2059 H   0  0  0  0  0  0  0  0  0  0  0  0
    5.5493   -2.1457   -2.7312 H   0  0  0  0  0  0  0  0  0  0  0  0
    1.8901   -6.8923   -4.1964 H   0  0  0  0  0  0  0  0  0  0  0  0
    1.4985   -7.7075   -2.6387 H   0  0  0  0  0  0  0  0  0  0  0  0
    0.9297   -6.0635   -3.0167 H   0  0  0  0  0  0  0  0  0  0  0  0
  1 24  1  0  0  0  0
  2 14  2  0  0  0  0
  3 19  2  0  0  0  0
  4 22  2  0  0  0  0
  5  8  1  0  0  0  0
  5 25  1  0  0  0  0
  6 14  1  0  0  0  0
  6 26  1  0  0  0  0
  7 19  1  0  0  0  0
  7 23  1  0  0  0  0
  7 27  1  0  0  0  0
  8 22  1  0  0  0  0
  8 28  1  0  0  0  0
  9 10  1  0  0  0  0
  9 15  1  0  0  0  0
  9 16  1  0  0  0  0
  9 17  1  0  0  0  0
 10  6  1  0  0  0  0
 10 19  1  0  0  0  0
 10 29  1  1  0  0  0
 11 12  1  0  0  0  0
 11 14  1  0  0  0  0
 11 18  1  0  0  0  0
 11 30  1  6  0  0  0
 12 13  1  0  0  0  0
 12 31  1  0  0  0  0
 12 32  1  0  0  0  0
 13 20  1  0  0  0  0
 13 21  1  0  0  0  0
 13 33  1  0  0  0  0
 15 34  1  0  0  0  0
 15 35  1  0  0  0  0
 15 36  1  0  0  0  0
 16 37  1  0  0  0  0
 16 38  1  0  0  0  0
 16 39  1  0  0  0  0
 17 40  1  0  0  0  0
 17 41  1  0  0  0  0
 17 42  1  0  0  0  0
 18  1  1  0  0  0  0
 18 22  1  0  0  0  0
 18 43  1  1  0  0  0
 20 44  1  0  0  0  0
 20 45  1  0  0  0  0
 20 46  1  0  0  0  0
 21 47  1  0  0  0  0
 21 48  1  0  0  0  0
 21 49  1  0  0  0  0
 23 50  1  0  0  0  0
 23 51  1  0  0  0  0
 23 52  1  0  0  0  0
M  END
>  <DRUGBANK_ID>
DB00786

>  <SECONDARY_ACCESSION_NUMBERS>
APRD00559

>  <COMMON_NAME>
Marimastat

>  <CAS_NUMBER>
154039-60-8

>  <UNII>
D5EQV23TDS

>  <SYNONYMS>
Marimastat

$$$$
