
 OpenBabel10282417183D

 62 65  0  0  0  0  0  0  0  0999 V2000
    2.4745   -0.6054   -0.0283 C   0  0  0  0  0  0  0  0  0  0  0  0
    2.4275    0.7991   -0.0187 C   0  0  0  0  0  0  0  0  0  0  0  0
    1.1758    1.3931    0.0434 C   0  0  0  0  0  0  0  0  0  0  0  0
   -0.0036    0.6688    0.0774 C   0  0  0  0  0  0  0  0  0  0  0  0
    0.0374   -0.7328    0.0641 C   0  0  0  0  0  0  0  0  0  0  0  0
    1.2883   -1.3673    0.0048 C   0  0  0  0  0  0  0  0  0  0  0  0
   -1.2062    1.3714    0.1400 C   0  0  0  0  0  0  0  0  0  0  0  0
   -2.3978    0.6795    0.2274 C   0  0  0  0  0  0  0  0  0  0  0  0
   -2.3926   -0.7207    0.1430 C   0  0  0  0  0  0  0  0  0  0  0  0
   -1.1767   -1.4232    0.0942 C   0  0  0  0  0  0  0  0  0  0  0  0
   -3.6531   -1.4348    0.0038 C   0  0  0  0  0  0  0  0  0  0  0  0
   -4.0144   -2.2777    1.0672 C   0  0  0  0  0  0  0  0  0  0  0  0
   -5.2425   -2.9220    1.0989 C   0  0  0  0  0  0  0  0  0  0  0  0
   -6.1392   -2.6996    0.0671 C   0  0  0  0  0  0  0  0  0  0  0  0
   -5.8564   -1.7842   -0.9688 C   0  0  0  0  0  0  0  0  0  0  0  0
   -4.5464   -1.2406   -1.0672 C   0  0  0  0  0  0  0  0  0  0  0  0
   -4.2893   -0.5276   -2.2149 O   0  0  0  0  0  0  0  0  0  0  0  0
   -2.9726   -0.1536   -2.6043 C   0  0  0  0  0  0  0  0  0  0  0  0
   -7.0123   -1.2883   -1.8604 C   0  0  0  0  0  0  0  0  0  0  0  0
   -5.6457   -3.6470    2.2535 N   0  0  0  0  0  0  0  0  0  0  0  0
   -5.5026   -3.0707    3.5038 C   0  0  0  0  0  0  0  0  0  0  0  0
   -5.7394   -3.7396    4.6312 C   0  0  0  0  0  0  0  0  0  0  0  0
   -6.2552   -5.1102    4.5357 C   0  0  0  0  0  0  0  0  0  0  0  0
   -6.5857   -5.5315    3.2817 N   0  0  0  0  0  0  0  0  0  0  0  0
   -6.1834   -4.9341    2.1092 C   0  0  0  0  0  0  0  0  0  0  0  0
   -6.3841   -5.8049    5.5363 O   0  0  0  0  0  0  0  0  0  0  0  0
   -6.2743   -5.5592    1.0536 O   0  0  0  0  0  0  0  0  0  0  0  0
    3.6418    1.5668    0.1219 N   0  0  0  0  0  0  0  0  0  0  0  0
    3.7255    3.2589   -0.1058 S   0  0  0  0  0  0  0  0  0  0  0  0
    4.6213    3.7471    1.3454 C   0  0  0  0  0  0  0  0  0  0  0  0
    4.5646    3.4987   -1.2515 O   0  0  0  0  0  0  0  0  0  0  0  0
    2.4416    3.9236    0.0225 O   0  0  0  0  0  0  0  0  0  0  0  0
   -7.1723    0.2404   -1.6752 C   0  0  0  0  0  0  0  0  0  0  0  0
   -6.7426   -1.6366   -3.3293 C   0  0  0  0  0  0  0  0  0  0  0  0
   -8.3786   -1.9158   -1.4771 C   0  0  0  0  0  0  0  0  0  0  0  0
    3.4188   -1.1444   -0.0468 H   0  0  0  0  0  0  0  0  0  0  0  0
    1.0483    2.4584    0.0928 H   0  0  0  0  0  0  0  0  0  0  0  0
    1.3380   -2.4555    0.0038 H   0  0  0  0  0  0  0  0  0  0  0  0
   -1.2258    2.4578    0.0655 H   0  0  0  0  0  0  0  0  0  0  0  0
   -3.3345    1.2367    0.1999 H   0  0  0  0  0  0  0  0  0  0  0  0
   -1.1961   -2.5089    0.0243 H   0  0  0  0  0  0  0  0  0  0  0  0
   -3.3061   -2.4396    1.8765 H   0  0  0  0  0  0  0  0  0  0  0  0
   -7.1071   -3.1844    0.1435 H   0  0  0  0  0  0  0  0  0  0  0  0
   -2.6835    0.7530   -2.0803 H   0  0  0  0  0  0  0  0  0  0  0  0
   -2.2430   -0.9624   -2.4972 H   0  0  0  0  0  0  0  0  0  0  0  0
   -2.9689    0.1561   -3.6527 H   0  0  0  0  0  0  0  0  0  0  0  0
   -5.2000   -2.0265    3.5323 H   0  0  0  0  0  0  0  0  0  0  0  0
   -5.5882   -3.3159    5.6137 H   0  0  0  0  0  0  0  0  0  0  0  0
   -6.9445   -6.4694    3.1966 H   0  0  0  0  0  0  0  0  0  0  0  0
    4.4872    1.0985   -0.2126 H   0  0  0  0  0  0  0  0  0  0  0  0
    5.6425    3.3734    1.2881 H   0  0  0  0  0  0  0  0  0  0  0  0
    4.6237    4.8411    1.3687 H   0  0  0  0  0  0  0  0  0  0  0  0
    4.1026    3.3772    2.2322 H   0  0  0  0  0  0  0  0  0  0  0  0
   -6.2731    0.8003   -1.9478 H   0  0  0  0  0  0  0  0  0  0  0  0
   -7.9880    0.6301   -2.2931 H   0  0  0  0  0  0  0  0  0  0  0  0
   -7.3955    0.4908   -0.6294 H   0  0  0  0  0  0  0  0  0  0  0  0
   -6.6181   -2.7183   -3.4493 H   0  0  0  0  0  0  0  0  0  0  0  0
   -7.5661   -1.3046   -3.9681 H   0  0  0  0  0  0  0  0  0  0  0  0
   -5.8416   -1.1636   -3.7241 H   0  0  0  0  0  0  0  0  0  0  0  0
   -8.3603   -3.0068   -1.5891 H   0  0  0  0  0  0  0  0  0  0  0  0
   -8.6489   -1.6853   -0.4373 H   0  0  0  0  0  0  0  0  0  0  0  0
   -9.1898   -1.5414   -2.1083 H   0  0  0  0  0  0  0  0  0  0  0  0
  1  2  2  0  0  0  0
  1  6  1  0  0  0  0
  1 36  1  0  0  0  0
  2  3  1  0  0  0  0
  2 28  1  0  0  0  0
  3  4  2  0  0  0  0
  3 37  1  0  0  0  0
  4  5  1  0  0  0  0
  4  7  1  0  0  0  0
  5  6  2  0  0  0  0
  5 10  1  0  0  0  0
  6 38  1  0  0  0  0
  7  8  2  0  0  0  0
  7 39  1  0  0  0  0
  8  9  1  0  0  0  0
  8 40  1  0  0  0  0
  9 10  2  0  0  0  0
  9 11  1  0  0  0  0
 10 41  1  0  0  0  0
 11 12  2  0  0  0  0
 11 16  1  0  0  0  0
 12 13  1  0  0  0  0
 12 42  1  0  0  0  0
 13 14  2  0  0  0  0
 13 20  1  0  0  0  0
 14 15  1  0  0  0  0
 14 43  1  0  0  0  0
 15 16  2  0  0  0  0
 15 19  1  0  0  0  0
 16 17  1  0  0  0  0
 17 18  1  0  0  0  0
 18 44  1  0  0  0  0
 18 45  1  0  0  0  0
 18 46  1  0  0  0  0
 19 33  1  0  0  0  0
 19 34  1  0  0  0  0
 19 35  1  0  0  0  0
 20 21  1  0  0  0  0
 20 25  1  0  0  0  0
 21 22  2  0  0  0  0
 21 47  1  0  0  0  0
 22 23  1  0  0  0  0
 22 48  1  0  0  0  0
 23 24  1  0  0  0  0
 23 26  2  0  0  0  0
 24 25  1  0  0  0  0
 24 49  1  0  0  0  0
 25 27  2  0  0  0  0
 28 29  1  0  0  0  0
 28 50  1  0  0  0  0
 29 30  1  0  0  0  0
 29 31  2  0  0  0  0
 29 32  2  0  0  0  0
 30 51  1  0  0  0  0
 30 52  1  0  0  0  0
 30 53  1  0  0  0  0
 33 54  1  0  0  0  0
 33 55  1  0  0  0  0
 33 56  1  0  0  0  0
 34 57  1  0  0  0  0
 34 58  1  0  0  0  0
 34 59  1  0  0  0  0
 35 60  1  0  0  0  0
 35 61  1  0  0  0  0
 35 62  1  0  0  0  0
M  END
>  <DRUGBANK_ID>
DB09183

>  <COMMON_NAME>
Dasabuvir

>  <CAS_NUMBER>
1132935-63-7

>  <UNII>
DE54EQW8T1

>  <SYNONYMS>
Sodium 3-(3-tert-butyl-4-methoxy-5-{6Â­ [(methylsulfonyl)amino]naphthalene-2-yl}phenyl)-2,6-dioxo-3,6-dihydro-2H-pyrimidin-1-ide hydrate (1:1:1); Dasabuvir; N-{6-[3-tert-butyl-5-(2,4-dioxo-3,4-dihydropyrimidin-1(2H)-yl)-2-methoxyphenyl]naphthalen-2-yl}methanesulfonamide

$$$$
