
 OpenBabel10282417223D

 54 57  0  0  1  0  0  0  0  0999 V2000
    0.9217    0.3047    0.1395 N   0  0  0  0  0  0  0  0  0  0  0  0
    0.3202    0.0294   -1.3765 S   0  0  0  0  0  0  0  0  0  0  0  0
    0.9615   -1.2611   -1.5606 O   0  0  0  0  0  0  0  0  0  0  0  0
   -1.1004    0.1931   -1.3285 O   0  0  0  0  0  0  0  0  0  0  0  0
    0.9644    1.1080   -2.4196 O   0  0  0  0  0  0  0  0  0  0  0  0
    0.4528    1.1792   -3.7732 C   0  0  0  0  0  0  0  0  0  0  0  0
    0.9000   -0.0307   -4.6146 C   0  0  1  0  0  0  0  0  0  0  0  0
    0.3634   -1.3408   -4.0322 C   0  0  0  0  0  0  0  0  0  0  0  0
   -0.2228   -2.2530   -5.0766 C   0  0  1  0  0  0  0  0  0  0  0  0
   -1.7017   -2.3567   -4.9590 N   0  0  0  0  0  0  0  0  0  0  0  0
   -2.5698   -1.2484   -5.0031 C   0  0  0  0  0  0  0  0  0  0  0  0
   -2.6960   -0.5498   -6.1428 C   0  0  0  0  0  0  0  0  0  0  0  0
   -3.4845    0.6926   -6.1096 C   0  0  0  0  0  0  0  0  0  0  0  0
   -4.1855    1.1183   -5.1103 N   0  0  0  0  0  0  0  0  0  0  0  0
   -4.1521    0.3346   -3.9912 C   0  0  0  0  0  0  0  0  0  0  0  0
   -4.8153    0.4669   -2.7998 C   0  0  0  0  0  0  0  0  0  0  0  0
   -4.3355   -0.5745   -1.9775 C   0  0  0  0  0  0  0  0  0  0  0  0
   -3.4684   -1.3703   -2.6327 N   0  0  0  0  0  0  0  0  0  0  0  0
   -3.3536   -0.8193   -3.8800 N   0  0  0  0  0  0  0  0  0  0  0  0
   -4.7850   -0.8553   -0.6160 C   0  0  0  0  0  0  0  0  0  0  0  0
   -6.1405   -1.1213   -0.3971 C   0  0  0  0  0  0  0  0  0  0  0  0
   -6.5898   -1.4706    0.8720 C   0  0  0  0  0  0  0  0  0  0  0  0
   -5.6868   -1.5751    1.9300 C   0  0  0  0  0  0  0  0  0  0  0  0
   -4.3212   -1.3504    1.7320 C   0  0  0  0  0  0  0  0  0  0  0  0
   -3.0660   -1.6816    2.9687 S   0  0  0  0  0  0  0  0  0  0  0  0
   -3.9832   -2.4318    4.3270 C   0  0  0  0  0  0  0  0  0  0  0  0
   -4.8536   -1.5536    4.8820 F   0  0  0  0  0  0  0  0  0  0  0  0
   -4.6914   -3.5255    3.9523 F   0  0  0  0  0  0  0  0  0  0  0  0
   -3.1436   -2.8298    5.3148 F   0  0  0  0  0  0  0  0  0  0  0  0
   -3.8906   -0.9183    0.4633 C   0  0  0  0  0  0  0  0  0  0  0  0
    0.3119   -1.6071   -6.3519 C   0  0  2  0  0  0  0  0  0  0  0  0
    1.6487   -2.0719   -6.6260 O   0  0  0  0  0  0  0  0  0  0  0  0
    0.3832   -0.0830   -6.0426 C   0  0  2  0  0  0  0  0  0  0  0  0
    1.2400    0.6016   -6.9389 O   0  0  0  0  0  0  0  0  0  0  0  0
    0.5633   -0.5225    0.6387 H   0  0  0  0  0  0  0  0  0  0  0  0
    1.9274    0.1517    0.0554 H   0  0  0  0  0  0  0  0  0  0  0  0
   -0.6401    1.2836   -3.7685 H   0  0  0  0  0  0  0  0  0  0  0  0
    0.8405    2.1005   -4.2325 H   0  0  0  0  0  0  0  0  0  0  0  0
    1.9995   -0.0297   -4.6122 H   0  0  0  0  0  0  0  0  0  0  0  0
    1.2240   -1.8529   -3.5939 H   0  0  0  0  0  0  0  0  0  0  0  0
   -0.4407   -1.1530   -3.3323 H   0  0  0  0  0  0  0  0  0  0  0  0
    0.1911   -3.2539   -4.8946 H   0  0  0  0  0  0  0  0  0  0  0  0
   -1.9878   -3.0186   -4.2271 H   0  0  0  0  0  0  0  0  0  0  0  0
   -2.1748   -0.7908   -7.0543 H   0  0  0  0  0  0  0  0  0  0  0  0
   -3.4165    1.3001   -7.0268 H   0  0  0  0  0  0  0  0  0  0  0  0
   -5.5389    1.2328   -2.5599 H   0  0  0  0  0  0  0  0  0  0  0  0
   -6.8493   -1.0806   -1.2206 H   0  0  0  0  0  0  0  0  0  0  0  0
   -7.6391   -1.7029    1.0327 H   0  0  0  0  0  0  0  0  0  0  0  0
   -6.0911   -1.8556    2.8967 H   0  0  0  0  0  0  0  0  0  0  0  0
   -2.8497   -0.6463    0.2996 H   0  0  0  0  0  0  0  0  0  0  0  0
   -0.3008   -1.8669   -7.2146 H   0  0  0  0  0  0  0  0  0  0  0  0
    2.2032   -1.9127   -5.8408 H   0  0  0  0  0  0  0  0  0  0  0  0
   -0.5713    0.4314   -6.0810 H   0  0  0  0  0  0  0  0  0  0  0  0
    1.9935    0.0071   -7.1140 H   0  0  0  0  0  0  0  0  0  0  0  0
  1  2  1  0  0  0  0
  1 35  1  0  0  0  0
  1 36  1  0  0  0  0
  2  3  2  0  0  0  0
  2  4  2  0  0  0  0
  2  5  1  0  0  0  0
  5  6  1  0  0  0  0
  6 37  1  0  0  0  0
  6 38  1  0  0  0  0
  7  6  1  0  0  0  0
  7  8  1  0  0  0  0
  7 39  1  6  0  0  0
  8 40  1  0  0  0  0
  8 41  1  0  0  0  0
  9  8  1  0  0  0  0
  9 42  1  1  0  0  0
  9 10  1  0  0  0  0
 10 11  1  0  0  0  0
 10 43  1  0  0  0  0
 11 12  2  0  0  0  0
 11 19  1  0  0  0  0
 12 13  1  0  0  0  0
 12 44  1  0  0  0  0
 13 14  2  0  0  0  0
 13 45  1  0  0  0  0
 14 15  1  0  0  0  0
 15 16  2  0  0  0  0
 15 19  1  0  0  0  0
 16 17  1  0  0  0  0
 16 46  1  0  0  0  0
 17 18  2  0  0  0  0
 17 20  1  0  0  0  0
 18 19  1  0  0  0  0
 20 21  2  0  0  0  0
 20 30  1  0  0  0  0
 21 22  1  0  0  0  0
 21 47  1  0  0  0  0
 22 23  2  0  0  0  0
 22 48  1  0  0  0  0
 23 24  1  0  0  0  0
 23 49  1  0  0  0  0
 24 25  1  0  0  0  0
 24 30  2  0  0  0  0
 25 26  1  0  0  0  0
 26 27  1  0  0  0  0
 26 28  1  0  0  0  0
 26 29  1  0  0  0  0
 30 50  1  0  0  0  0
 31  9  1  0  0  0  0
 31 32  1  0  0  0  0
 31 33  1  0  0  0  0
 31 51  1  6  0  0  0
 32 52  1  0  0  0  0
 33  7  1  0  0  0  0
 33 34  1  0  0  0  0
 33 53  1  6  0  0  0
 34 54  1  0  0  0  0
M  END
>  <DRUGBANK_ID>
DB15013

>  <COMMON_NAME>
TAK-243

>  <CAS_NUMBER>
1450833-55-2

>  <UNII>
V9GGV0YCDI

$$$$
