
 OpenBabel10282417143D

107111  0  0  1  0  0  0  0  0999 V2000
    7.3219   -8.4140   -2.2675 N   0  0  0  0  0  0  0  0  0  0  0  0
    8.2700   -7.5719   -1.5457 C   0  0  0  0  0  0  0  0  0  0  0  0
    9.8428   -7.4687   -1.2994 C   0  0  2  0  0  0  0  0  0  0  0  0
   10.2403   -8.9026   -1.3446 O   0  0  0  0  0  0  0  0  0  0  0  0
   10.7367   -9.6639   -0.2234 C   0  0  2  0  0  0  0  0  0  0  0  0
    9.8359   -9.8698    0.7583 O   0  0  0  0  0  0  0  0  0  0  0  0
    9.2108   -8.8740    1.4374 C   0  0  2  0  0  0  0  0  0  0  0  0
    8.2699   -8.0237    0.7676 C   0  0  1  0  0  0  0  0  0  0  0  0
    6.3469   -8.2914    0.0181 C   0  0  0  0  0  0  0  0  0  0  0  0
    5.6464   -7.2049   -0.8069 O   0  0  0  0  0  0  0  0  0  0  0  0
    8.5772   -7.0083    1.6245 O   0  0  0  0  0  0  0  0  0  0  0  0
    9.3345   -6.4563    2.4995 C   0  0  1  0  0  0  0  0  0  0  0  0
    8.0274   -5.5466    3.3582 O   0  0  0  0  0  0  0  0  0  0  0  0
    7.0135   -6.4724    4.7767 C   0  0  2  0  0  0  0  0  0  0  0  0
    8.3093   -8.3241    5.1007 C   0  0  1  0  0  0  0  0  0  0  0  0
    7.8159   -9.2960    5.8451 O   0  0  0  0  0  0  0  0  0  0  0  0
    8.5141   -9.4160    3.3775 C   0  0  2  0  0  0  0  0  0  0  0  0
   10.2905   -9.7147    3.3342 N   0  0  0  0  0  0  0  0  0  0  0  0
    7.1268   -9.2410    1.7551 C   0  0  0  0  0  0  0  0  0  0  0  0
    6.5585   -7.1656    1.6022 C   0  0  2  0  0  0  0  0  0  0  0  0
    7.5740   -5.9624    0.4776 N   0  0  0  0  0  0  0  0  0  0  0  0
    5.6800   -6.7453    3.2442 C   0  0  1  0  0  0  0  0  0  0  0  0
    4.7654   -7.8843    3.2234 O   0  0  0  0  0  0  0  0  0  0  0  0
    5.2424   -9.2844    3.3824 C   0  0  1  0  0  0  0  0  0  0  0  0
    6.1303   -9.7505    4.4646 O   0  0  0  0  0  0  0  0  0  0  0  0
    6.9063  -11.1051    4.4604 C   0  0  2  0  0  0  0  0  0  0  0  0
    7.8686  -11.7465    3.4148 C   0  0  0  0  0  0  0  0  0  0  0  0
    9.2324  -11.7301    3.9508 O   0  0  0  0  0  0  0  0  0  0  0  0
    5.7362  -11.9103    4.7072 C   0  0  1  0  0  0  0  0  0  0  0  0
    5.1660  -11.4153    5.9316 O   0  0  0  0  0  0  0  0  0  0  0  0
    4.8718  -11.6373    3.4675 C   0  0  0  0  0  0  0  0  0  0  0  0
    4.1730  -10.2473    3.3345 C   0  0  1  0  0  0  0  0  0  0  0  0
    3.5638   -9.6783    4.5129 N   0  0  0  0  0  0  0  0  0  0  0  0
    9.9167   -7.6773    2.8312 C   0  0  2  0  0  0  0  0  0  0  0  0
   11.1856   -7.8256    2.3855 O   0  0  0  0  0  0  0  0  0  0  0  0
   11.9786   -9.0957    0.5032 C   0  0  2  0  0  0  0  0  0  0  0  0
   12.3541   -9.8859    1.8687 N   0  0  0  0  0  0  0  0  0  0  0  0
   12.0421   -7.3135    0.3958 C   0  0  1  0  0  0  0  0  0  0  0  0
   12.9682   -6.8173    1.3957 O   0  0  0  0  0  0  0  0  0  0  0  0
   10.9875   -6.5193   -0.4220 C   0  0  2  0  0  0  0  0  0  0  0  0
   10.9150   -4.9876    0.2971 O   0  0  0  0  0  0  0  0  0  0  0  0
   10.1242   -4.4907    1.7403 C   0  0  1  0  0  0  0  0  0  0  0  0
   10.4666   -5.1431    3.4319 O   0  0  0  0  0  0  0  0  0  0  0  0
    9.2522   -6.0158    4.5610 C   0  0  2  0  0  0  0  0  0  0  0  0
    8.0048   -7.3626    3.5451 C   0  0  0  0  0  0  0  0  0  0  0  0
    7.1211   -8.2731    3.2945 O   0  0  0  0  0  0  0  0  0  0  0  0
    8.5258   -4.4043    4.8049 C   0  0  1  0  0  0  0  0  0  0  0  0
    9.6575   -3.6700    5.1598 O   0  0  0  0  0  0  0  0  0  0  0  0
    7.9155   -3.5972    3.2524 C   0  0  2  0  0  0  0  0  0  0  0  0
    6.6707   -4.1537    2.6139 O   0  0  0  0  0  0  0  0  0  0  0  0
    9.0199   -3.4816    2.0842 C   0  0  2  0  0  0  0  0  0  0  0  0
    8.3980   -3.0451    0.8820 O   0  0  0  0  0  0  0  0  0  0  0  0
    6.4448   -7.9098   -1.9389 H   0  0  0  0  0  0  0  0  0  0  0  0
    7.1909   -9.3057   -1.7264 H   0  0  0  0  0  0  0  0  0  0  0  0
    7.7006   -6.7009   -1.2909 H   0  0  0  0  0  0  0  0  0  0  0  0
    8.1064   -8.3767   -0.8982 H   0  0  0  0  0  0  0  0  0  0  0  0
    9.7443   -6.8402   -2.1563 H   0  0  0  0  0  0  0  0  0  0  0  0
   10.8211  -10.7589   -0.4191 H   0  0  0  0  0  0  0  0  0  0  0  0
    8.7455   -9.8502    1.6178 H   0  0  0  0  0  0  0  0  0  0  0  0
    9.1003   -7.9413    0.2202 H   0  0  0  0  0  0  0  0  0  0  0  0
    6.0405   -9.3027   -0.3225 H   0  0  0  0  0  0  0  0  0  0  0  0
    5.4596   -8.3647    0.8048 H   0  0  0  0  0  0  0  0  0  0  0  0
    6.0494   -6.2972   -0.6601 H   0  0  0  0  0  0  0  0  0  0  0  0
   10.2302   -6.1382    2.0815 H   0  0  0  0  0  0  0  0  0  0  0  0
    6.5809   -6.1732    5.6735 H   0  0  0  0  0  0  0  0  0  0  0  0
    9.3159   -8.2131    5.4148 H   0  0  0  0  0  0  0  0  0  0  0  0
    6.9398   -9.2842    5.4051 H   0  0  0  0  0  0  0  0  0  0  0  0
    9.0548  -10.2614    2.9936 H   0  0  0  0  0  0  0  0  0  0  0  0
   10.5797   -9.8927    2.2810 H   0  0  0  0  0  0  0  0  0  0  0  0
   10.6925   -9.0201    2.7212 H   0  0  0  0  0  0  0  0  0  0  0  0
    7.5457   -9.7266    0.6397 H   0  0  0  0  0  0  0  0  0  0  0  0
    6.5386  -10.1658    1.4681 H   0  0  0  0  0  0  0  0  0  0  0  0
    5.8955   -6.5388    1.0055 H   0  0  0  0  0  0  0  0  0  0  0  0
    7.8382   -5.1925    1.0513 H   0  0  0  0  0  0  0  0  0  0  0  0
    8.7004   -6.2681    0.5900 H   0  0  0  0  0  0  0  0  0  0  0  0
    5.2347   -5.8344    2.7621 H   0  0  0  0  0  0  0  0  0  0  0  0
    5.5869   -9.6510    2.4994 H   0  0  0  0  0  0  0  0  0  0  0  0
    7.5351  -11.1893    5.3676 H   0  0  0  0  0  0  0  0  0  0  0  0
    7.9202  -12.8011    3.2999 H   0  0  0  0  0  0  0  0  0  0  0  0
    7.6665  -11.4346    2.3759 H   0  0  0  0  0  0  0  0  0  0  0  0
    9.4687  -10.8443    4.3606 H   0  0  0  0  0  0  0  0  0  0  0  0
    6.1278  -12.9132    4.8255 H   0  0  0  0  0  0  0  0  0  0  0  0
    5.8845  -11.1680    6.5572 H   0  0  0  0  0  0  0  0  0  0  0  0
    5.5130  -11.8099    2.5712 H   0  0  0  0  0  0  0  0  0  0  0  0
    4.0790  -12.3386    3.5048 H   0  0  0  0  0  0  0  0  0  0  0  0
    3.7160  -10.1022    2.3397 H   0  0  0  0  0  0  0  0  0  0  0  0
    2.9455  -10.3640    4.8650 H   0  0  0  0  0  0  0  0  0  0  0  0
    4.3593   -9.6292    5.1961 H   0  0  0  0  0  0  0  0  0  0  0  0
   10.3102   -7.7711    3.8806 H   0  0  0  0  0  0  0  0  0  0  0  0
   10.8159   -8.0439    1.5098 H   0  0  0  0  0  0  0  0  0  0  0  0
   12.7964   -9.3240   -0.1490 H   0  0  0  0  0  0  0  0  0  0  0  0
   12.8493   -9.2629    2.5056 H   0  0  0  0  0  0  0  0  0  0  0  0
   11.7913  -10.3077    2.6861 H   0  0  0  0  0  0  0  0  0  0  0  0
   11.3033   -6.7928    0.9610 H   0  0  0  0  0  0  0  0  0  0  0  0
   12.8068   -7.4354    2.1582 H   0  0  0  0  0  0  0  0  0  0  0  0
   11.6797   -6.4157   -1.2426 H   0  0  0  0  0  0  0  0  0  0  0  0
    9.4209   -4.8696    0.9684 H   0  0  0  0  0  0  0  0  0  0  0  0
    9.7476   -6.4887    5.4294 H   0  0  0  0  0  0  0  0  0  0  0  0
    6.9496   -7.9395    4.2064 H   0  0  0  0  0  0  0  0  0  0  0  0
    7.3551   -6.7866    3.0084 H   0  0  0  0  0  0  0  0  0  0  0  0
    7.6796   -8.0927    2.5489 H   0  0  0  0  0  0  0  0  0  0  0  0
    7.6733   -4.5325    5.5009 H   0  0  0  0  0  0  0  0  0  0  0  0
    9.9615   -3.9664    6.0218 H   0  0  0  0  0  0  0  0  0  0  0  0
    7.5072   -2.6641    3.5684 H   0  0  0  0  0  0  0  0  0  0  0  0
    6.9706   -5.0204    2.2820 H   0  0  0  0  0  0  0  0  0  0  0  0
    9.7745   -2.8959    2.5519 H   0  0  0  0  0  0  0  0  0  0  0  0
    9.0336   -3.1795    0.1546 H   0  0  0  0  0  0  0  0  0  0  0  0
  1  2  1  0  0  0  0
  1 53  1  0  0  0  0
  1 54  1  0  0  0  0
  2 55  1  0  0  0  0
  2 56  1  0  0  0  0
  3  2  1  0  0  0  0
  3  4  1  0  0  0  0
  3 40  1  0  0  0  0
  3 57  1  6  0  0  0
  4  5  1  0  0  0  0
  5  6  1  0  0  0  0
  5 36  1  0  0  0  0
  5 58  1  6  0  0  0
  7  8  1  0  0  0  0
  7 34  1  0  0  0  0
  7 59  1  1  0  0  0
  7  6  1  0  0  0  0
  8  9  1  0  0  0  0
  8 11  1  0  0  0  0
  8 60  1  6  0  0  0
  9 10  1  0  0  0  0
  9 61  1  0  0  0  0
  9 62  1  0  0  0  0
 10 63  1  0  0  0  0
 11 12  1  0  0  0  0
 12 13  1  0  0  0  0
 12 34  1  0  0  0  0
 12 64  1  6  0  0  0
 14 13  1  0  0  0  0
 14 15  1  0  0  0  0
 14 22  1  0  0  0  0
 14 65  1  1  0  0  0
 15 17  1  0  0  0  0
 15 66  1  1  0  0  0
 15 16  1  0  0  0  0
 16 67  1  0  0  0  0
 17 18  1  0  0  0  0
 17 19  1  0  0  0  0
 17 68  1  1  0  0  0
 18 69  1  0  0  0  0
 18 70  1  0  0  0  0
 19 20  1  0  0  0  0
 19 71  1  0  0  0  0
 19 72  1  0  0  0  0
 20 21  1  0  0  0  0
 20 22  1  0  0  0  0
 20 73  1  6  0  0  0
 21 74  1  0  0  0  0
 21 75  1  0  0  0  0
 22 23  1  0  0  0  0
 22 76  1  6  0  0  0
 24 25  1  0  0  0  0
 24 32  1  0  0  0  0
 24 77  1  6  0  0  0
 24 23  1  0  0  0  0
 25 26  1  0  0  0  0
 26 27  1  0  0  0  0
 26 29  1  0  0  0  0
 26 78  1  1  0  0  0
 27 28  1  0  0  0  0
 27 79  1  0  0  0  0
 27 80  1  0  0  0  0
 28 81  1  0  0  0  0
 29 31  1  0  0  0  0
 29 82  1  1  0  0  0
 29 30  1  0  0  0  0
 30 83  1  0  0  0  0
 31 32  1  0  0  0  0
 31 84  1  0  0  0  0
 31 85  1  0  0  0  0
 32 33  1  0  0  0  0
 32 86  1  6  0  0  0
 33 87  1  0  0  0  0
 33 88  1  0  0  0  0
 34 35  1  0  0  0  0
 34 89  1  1  0  0  0
 35 90  1  0  0  0  0
 36 37  1  0  0  0  0
 36 38  1  0  0  0  0
 36 91  1  6  0  0  0
 37 92  1  0  0  0  0
 37 93  1  0  0  0  0
 38 40  1  0  0  0  0
 38 94  1  1  0  0  0
 38 39  1  0  0  0  0
 39 95  1  0  0  0  0
 40 96  1  6  0  0  0
 40 41  1  0  0  0  0
 42 43  1  0  0  0  0
 42 51  1  0  0  0  0
 42 97  1  6  0  0  0
 42 41  1  0  0  0  0
 43 44  1  0  0  0  0
 44 45  1  0  0  0  0
 44 47  1  0  0  0  0
 44 98  1  1  0  0  0
 45 46  1  0  0  0  0
 45 99  1  0  0  0  0
 45100  1  0  0  0  0
 46101  1  0  0  0  0
 47 49  1  0  0  0  0
 47102  1  1  0  0  0
 47 48  1  0  0  0  0
 48103  1  0  0  0  0
 49 50  1  0  0  0  0
 49 51  1  0  0  0  0
 49104  1  1  0  0  0
 50105  1  0  0  0  0
 51106  1  1  0  0  0
 51 52  1  0  0  0  0
 52107  1  0  0  0  0
M  END
>  <DRUGBANK_ID>
DB04728

>  <COMMON_NAME>
Lividomycin A

>  <CAS_NUMBER>
36441-41-5

>  <UNII>
A606AJ494W

>  <SYNONYMS>
lividomicina

$$$$
