
 OpenBabel10282417183D

 67 69  0  0  0  0  0  0  0  0999 V2000
    0.7220    1.2065   -0.0915 C   0  0  0  0  0  0  0  0  0  0  0  0
   -0.6739    1.2820   -0.0939 C   0  0  0  0  0  0  0  0  0  0  0  0
   -1.4544    0.1920   -0.1528 N   0  0  0  0  0  0  0  0  0  0  0  0
   -0.7716   -0.9620   -0.2437 C   0  0  0  0  0  0  0  0  0  0  0  0
    0.6383   -1.0740   -0.2361 C   0  0  0  0  0  0  0  0  0  0  0  0
    1.3679    0.0347   -0.1637 N   0  0  0  0  0  0  0  0  0  0  0  0
    1.6132    2.3543   -0.0077 C   0  0  0  0  0  0  0  0  0  0  0  0
   -1.3653    2.5499   -0.0396 C   0  0  0  0  0  0  0  0  0  0  0  0
    1.5266    3.2534    1.0644 C   0  0  0  0  0  0  0  0  0  0  0  0
    2.3370    4.3795    1.1044 C   0  0  0  0  0  0  0  0  0  0  0  0
    3.2808    4.5858    0.1014 C   0  0  0  0  0  0  0  0  0  0  0  0
    3.4120    3.6733   -0.9445 C   0  0  0  0  0  0  0  0  0  0  0  0
    2.5533    2.5835   -1.0220 C   0  0  0  0  0  0  0  0  0  0  0  0
   -2.1506    2.8755    1.0709 C   0  0  0  0  0  0  0  0  0  0  0  0
   -2.6270    4.1714    1.2131 C   0  0  0  0  0  0  0  0  0  0  0  0
   -2.3012    5.1400    0.2613 C   0  0  0  0  0  0  0  0  0  0  0  0
   -1.5056    4.8216   -0.8362 C   0  0  0  0  0  0  0  0  0  0  0  0
   -1.0915    3.5149   -1.0192 C   0  0  0  0  0  0  0  0  0  0  0  0
    1.3410   -2.2490   -0.1626 N   0  0  0  0  0  0  0  0  0  0  0  0
    0.6452   -3.4805   -0.2817 C   0  0  0  0  0  0  0  0  0  0  0  0
    2.8018   -2.3093    0.0052 C   0  0  0  0  0  0  0  0  0  0  0  0
    3.4450   -1.8017   -1.2707 C   0  0  0  0  0  0  0  0  0  0  0  0
    3.3606   -1.7458    1.3001 C   0  0  0  0  0  0  0  0  0  0  0  0
    0.9319   -4.2976   -1.5084 C   0  0  0  0  0  0  0  0  0  0  0  0
    2.2325   -5.0916   -1.3786 C   0  0  0  0  0  0  0  0  0  0  0  0
    2.4617   -5.8449   -0.0488 C   0  0  0  0  0  0  0  0  0  0  0  0
    1.6243   -6.9889    0.0786 O   0  0  0  0  0  0  0  0  0  0  0  0
    0.2447   -6.7346    0.3621 C   0  0  0  0  0  0  0  0  0  0  0  0
   -0.0869   -5.9378    1.6806 C   0  0  0  0  0  0  0  0  0  0  0  0
   -0.8370   -4.7086    1.5885 N   0  0  0  0  0  0  0  0  0  0  0  0
   -1.0702   -3.5869    2.8249 S   0  0  0  0  0  0  0  0  0  0  0  0
    0.3793   -6.3223    2.7314 O   0  0  0  0  0  0  0  0  0  0  0  0
    0.0356   -2.1542    2.7272 C   0  0  0  0  0  0  0  0  0  0  0  0
   -2.3967   -3.0468    2.5344 O   0  0  0  0  0  0  0  0  0  0  0  0
   -0.7760   -4.2082    4.0767 O   0  0  0  0  0  0  0  0  0  0  0  0
   -1.4501   -1.8040   -0.1855 H   0  0  0  0  0  0  0  0  0  0  0  0
    0.7953    3.0958    1.8548 H   0  0  0  0  0  0  0  0  0  0  0  0
    2.2280    5.0871    1.9203 H   0  0  0  0  0  0  0  0  0  0  0  0
    3.9164    5.4646    0.1342 H   0  0  0  0  0  0  0  0  0  0  0  0
    4.1791    3.8093   -1.7002 H   0  0  0  0  0  0  0  0  0  0  0  0
    2.6009    1.9129   -1.8793 H   0  0  0  0  0  0  0  0  0  0  0  0
   -2.3434    2.1295    1.8409 H   0  0  0  0  0  0  0  0  0  0  0  0
   -3.2225    4.4318    2.0822 H   0  0  0  0  0  0  0  0  0  0  0  0
   -2.6674    6.1543    0.3752 H   0  0  0  0  0  0  0  0  0  0  0  0
   -1.1794    5.5861   -1.5336 H   0  0  0  0  0  0  0  0  0  0  0  0
   -0.4782    3.2565   -1.8819 H   0  0  0  0  0  0  0  0  0  0  0  0
    0.9271   -3.9975    0.6205 H   0  0  0  0  0  0  0  0  0  0  0  0
   -0.4269   -3.3424   -0.2852 H   0  0  0  0  0  0  0  0  0  0  0  0
    3.0999   -3.3505    0.1243 H   0  0  0  0  0  0  0  0  0  0  0  0
    3.2636   -0.7371   -1.4068 H   0  0  0  0  0  0  0  0  0  0  0  0
    4.5189   -1.9836   -1.2697 H   0  0  0  0  0  0  0  0  0  0  0  0
    3.0055   -2.3038   -2.1417 H   0  0  0  0  0  0  0  0  0  0  0  0
    3.0043   -2.3217    2.1611 H   0  0  0  0  0  0  0  0  0  0  0  0
    4.4503   -1.8613    1.3111 H   0  0  0  0  0  0  0  0  0  0  0  0
    3.1131   -0.6987    1.4557 H   0  0  0  0  0  0  0  0  0  0  0  0
    0.0868   -4.9687   -1.6743 H   0  0  0  0  0  0  0  0  0  0  0  0
    0.9116   -3.6618   -2.3962 H   0  0  0  0  0  0  0  0  0  0  0  0
    2.3054   -5.7858   -2.2164 H   0  0  0  0  0  0  0  0  0  0  0  0
    3.0589   -4.3973   -1.5273 H   0  0  0  0  0  0  0  0  0  0  0  0
    3.5083   -6.1789   -0.0392 H   0  0  0  0  0  0  0  0  0  0  0  0
    2.3917   -5.2396    0.8629 H   0  0  0  0  0  0  0  0  0  0  0  0
   -0.2319   -6.3397   -0.5274 H   0  0  0  0  0  0  0  0  0  0  0  0
   -0.2210   -7.7214    0.4497 H   0  0  0  0  0  0  0  0  0  0  0  0
   -1.4208   -4.5438    0.7717 H   0  0  0  0  0  0  0  0  0  0  0  0
   -0.2509   -1.4611    1.9550 H   0  0  0  0  0  0  0  0  0  0  0  0
   -0.1074   -1.5578    3.6359 H   0  0  0  0  0  0  0  0  0  0  0  0
    1.0786   -2.4362    2.6780 H   0  0  0  0  0  0  0  0  0  0  0  0
  1  2  2  0  0  0  0
  1  6  1  0  0  0  0
  1  7  1  0  0  0  0
  2  3  1  0  0  0  0
  2  8  1  0  0  0  0
  3  4  2  0  0  0  0
  4  5  1  0  0  0  0
  4 36  1  0  0  0  0
  5  6  2  0  0  0  0
  5 19  1  0  0  0  0
  7  9  2  0  0  0  0
  7 13  1  0  0  0  0
  8 14  2  0  0  0  0
  8 18  1  0  0  0  0
  9 10  1  0  0  0  0
  9 37  1  0  0  0  0
 10 11  2  0  0  0  0
 10 38  1  0  0  0  0
 11 12  1  0  0  0  0
 11 39  1  0  0  0  0
 12 13  2  0  0  0  0
 12 40  1  0  0  0  0
 13 41  1  0  0  0  0
 14 15  1  0  0  0  0
 14 42  1  0  0  0  0
 15 16  2  0  0  0  0
 15 43  1  0  0  0  0
 16 17  1  0  0  0  0
 16 44  1  0  0  0  0
 17 18  2  0  0  0  0
 17 45  1  0  0  0  0
 18 46  1  0  0  0  0
 19 20  1  0  0  0  0
 19 21  1  0  0  0  0
 20 24  1  0  0  0  0
 20 47  1  0  0  0  0
 20 48  1  0  0  0  0
 21 22  1  0  0  0  0
 21 23  1  0  0  0  0
 21 49  1  0  0  0  0
 22 50  1  0  0  0  0
 22 51  1  0  0  0  0
 22 52  1  0  0  0  0
 23 53  1  0  0  0  0
 23 54  1  0  0  0  0
 23 55  1  0  0  0  0
 24 25  1  0  0  0  0
 24 56  1  0  0  0  0
 24 57  1  0  0  0  0
 25 26  1  0  0  0  0
 25 58  1  0  0  0  0
 25 59  1  0  0  0  0
 26 27  1  0  0  0  0
 26 60  1  0  0  0  0
 26 61  1  0  0  0  0
 27 28  1  0  0  0  0
 28 29  1  0  0  0  0
 28 62  1  0  0  0  0
 28 63  1  0  0  0  0
 29 30  1  0  0  0  0
 29 32  2  0  0  0  0
 30 31  1  0  0  0  0
 30 64  1  0  0  0  0
 31 33  1  0  0  0  0
 31 34  2  0  0  0  0
 31 35  2  0  0  0  0
 33 65  1  0  0  0  0
 33 66  1  0  0  0  0
 33 67  1  0  0  0  0
M  END
>  <DRUGBANK_ID>
DB11362

>  <COMMON_NAME>
Selexipag

>  <CAS_NUMBER>
475086-01-2

>  <UNII>
5EXC0E384L

>  <SYNONYMS>
Selexipag

$$$$
