462
 OpenBabel10282417163D

 51 53  0  0  0  0  0  0  0  0999 V2000
    1.2639   -0.5646   -0.1037 C   0  0  0  0  0  0  0  0  0  0  0  0
    0.5354   -0.5980    1.2433 C   0  0  0  0  0  0  0  0  0  0  0  0
    0.9914    0.4449    2.2823 C   0  0  0  0  0  0  0  0  0  0  0  0
    0.4747    1.7984    2.2220 O   0  0  0  0  0  0  0  0  0  0  0  0
    0.6374    2.5131    1.0715 C   0  0  0  0  0  0  0  0  0  0  0  0
    0.0468    2.1143   -0.1148 C   0  0  0  0  0  0  0  0  0  0  0  0
    0.4318    2.6817   -1.3422 C   0  0  0  0  0  0  0  0  0  0  0  0
    1.1589    3.8748   -1.3667 C   0  0  0  0  0  0  0  0  0  0  0  0
    1.4561    4.4542   -0.1294 C   0  0  0  0  0  0  0  0  0  0  0  0
    1.2778    3.7448    1.0760 C   0  0  0  0  0  0  0  0  0  0  0  0
    1.8106    4.4178   -2.5868 C   0  0  0  0  0  0  0  0  0  0  0  0
    1.1814    4.3962   -3.8171 C   0  0  0  0  0  0  0  0  0  0  0  0
    2.1153    5.1321   -5.0461 S   0  0  0  0  0  0  0  0  0  0  0  0
    3.4461    5.3909   -3.9987 C   0  0  0  0  0  0  0  0  0  0  0  0
    3.2289    4.8365   -2.7387 C   0  0  0  0  0  0  0  0  0  0  0  0
    4.3363    4.7157   -1.6794 C   0  0  0  0  0  0  0  0  0  0  0  0
    5.5526    3.8535   -2.0860 C   0  0  0  0  0  0  0  0  0  0  0  0
    6.6996    4.3037   -1.9678 O   0  0  0  0  0  0  0  0  0  0  0  0
    5.4118    2.5587   -2.5898 N   0  0  0  0  0  0  0  0  0  0  0  0
    4.3766    1.6601   -2.5973 C   0  0  0  0  0  0  0  0  0  0  0  0
    4.3890    0.5334   -3.1914 N   0  0  0  0  0  0  0  0  0  0  0  0
    3.2544    1.9094   -1.9247 N   0  0  0  0  0  0  0  0  0  0  0  0
    4.6510    6.0705   -4.5144 C   0  0  0  0  0  0  0  0  0  0  0  0
    5.8463    5.3464   -4.6534 C   0  0  0  0  0  0  0  0  0  0  0  0
    7.0546    5.9625   -4.9766 C   0  0  0  0  0  0  0  0  0  0  0  0
    7.0590    7.3011   -5.3310 C   0  0  0  0  0  0  0  0  0  0  0  0
    5.8661    8.0238   -5.3018 C   0  0  0  0  0  0  0  0  0  0  0  0
    4.6877    7.4381   -4.8188 C   0  0  0  0  0  0  0  0  0  0  0  0
    3.3382    8.4845   -4.5395 Cl  0  0  0  0  0  0  0  0  0  0  0  0
    1.1952    0.3381   -0.6902 H   0  0  0  0  0  0  0  0  0  0  0  0
    0.8454   -1.3215   -0.7714 H   0  0  0  0  0  0  0  0  0  0  0  0
    2.3381   -0.6867    0.0316 H   0  0  0  0  0  0  0  0  0  0  0  0
   -0.5539   -0.5519    1.1228 H   0  0  0  0  0  0  0  0  0  0  0  0
    0.7469   -1.5966    1.6489 H   0  0  0  0  0  0  0  0  0  0  0  0
    0.6299    0.0669    3.2532 H   0  0  0  0  0  0  0  0  0  0  0  0
    2.0839    0.4558    2.3729 H   0  0  0  0  0  0  0  0  0  0  0  0
   -0.5911    1.2371   -0.1145 H   0  0  0  0  0  0  0  0  0  0  0  0
    0.2756    2.0702   -2.2324 H   0  0  0  0  0  0  0  0  0  0  0  0
    1.9081    5.4411   -0.1094 H   0  0  0  0  0  0  0  0  0  0  0  0
    1.6471    4.1732    2.0031 H   0  0  0  0  0  0  0  0  0  0  0  0
    0.1996    4.0142   -4.0686 H   0  0  0  0  0  0  0  0  0  0  0  0
    4.6871    5.7317   -1.4495 H   0  0  0  0  0  0  0  0  0  0  0  0
    3.9878    4.3171   -0.7257 H   0  0  0  0  0  0  0  0  0  0  0  0
    6.2876    2.1930   -2.9421 H   0  0  0  0  0  0  0  0  0  0  0  0
    5.2710    0.2953   -3.6366 H   0  0  0  0  0  0  0  0  0  0  0  0
    3.1318    2.8240   -1.5645 H   0  0  0  0  0  0  0  0  0  0  0  0
    2.4500    1.5874   -2.4445 H   0  0  0  0  0  0  0  0  0  0  0  0
    5.8717    4.2804   -4.4678 H   0  0  0  0  0  0  0  0  0  0  0  0
    7.9778    5.3867   -4.9559 H   0  0  0  0  0  0  0  0  0  0  0  0
    7.9884    7.7799   -5.6260 H   0  0  0  0  0  0  0  0  0  0  0  0
    5.8637    9.0564   -5.6379 H   0  0  0  0  0  0  0  0  0  0  0  0
  1  2  1  0  0  0  0
  1 30  1  0  0  0  0
  1 31  1  0  0  0  0
  1 32  1  0  0  0  0
  2  3  1  0  0  0  0
  2 33  1  0  0  0  0
  2 34  1  0  0  0  0
  3  4  1  0  0  0  0
  3 35  1  0  0  0  0
  3 36  1  0  0  0  0
  4  5  1  0  0  0  0
  5  6  2  0  0  0  0
  5 10  1  0  0  0  0
  6  7  1  0  0  0  0
  6 37  1  0  0  0  0
  7  8  2  0  0  0  0
  7 38  1  0  0  0  0
  8 11  1  0  0  0  0
  9  8  1  0  0  0  0
  9 39  1  0  0  0  0
 10  9  2  0  0  0  0
 10 40  1  0  0  0  0
 11 12  2  0  0  0  0
 12 13  1  0  0  0  0
 12 41  1  0  0  0  0
 14 13  1  0  0  0  0
 15 11  1  0  0  0  0
 15 14  2  0  0  0  0
 16 17  1  0  0  0  0
 16 15  1  0  0  0  0
 16 42  1  0  0  0  0
 16 43  1  0  0  0  0
 17 18  2  0  0  0  0
 19 20  1  0  0  0  0
 19 17  1  0  0  0  0
 19 44  1  0  0  0  0
 20 21  2  0  0  0  0
 21 45  1  0  0  0  0
 22 20  1  0  0  0  0
 22 46  1  0  0  0  0
 22 47  1  0  0  0  0
 23 14  1  0  0  0  0
 23 24  2  0  0  0  0
 24 48  1  0  0  0  0
 25 24  1  0  0  0  0
 25 49  1  0  0  0  0
 26 25  2  0  0  0  0
 26 50  1  0  0  0  0
 27 28  2  0  0  0  0
 27 26  1  0  0  0  0
 27 51  1  0  0  0  0
 28 23  1  0  0  0  0
 29 28  1  0  0  0  0
M  END
>  <DRUGBANK_ID>
DB07089

>  <COMMON_NAME>
N-[amino(imino)methyl]-2-[2-(2-chlorophenyl)-4-(4-propoxyphenyl)-3-thienyl]acetamide

$$$$
