
 OpenBabel10282417203D

 54 57  0  0  1  0  0  0  0  0999 V2000
    0.4690   -0.2526   -0.1268 C   0  0  0  0  0  0  0  0  0  0  0  0
    0.5623   -1.7209   -0.2310 C   0  0  0  0  0  0  0  0  0  0  0  0
    1.4537   -2.2595    0.8900 C   0  0  0  0  0  0  0  0  0  0  0  0
    0.7443   -2.7275    1.8129 O   0  0  0  0  0  0  0  0  0  0  0  0
    3.1531   -2.1017    1.1872 C   0  0  1  0  0  0  0  0  0  0  0  0
    4.8506   -1.5907    0.7628 C   0  0  0  0  0  0  0  0  0  0  0  0
    4.9219   -0.1037    0.2919 C   0  0  0  0  0  0  0  0  0  0  0  0
    3.4603    0.1152    0.3406 C   0  0  2  0  0  0  0  0  0  0  0  0
    2.9151   -0.5466    1.7723 C   0  0  2  0  0  0  0  0  0  0  0  0
    3.1987    0.7881    2.5459 C   0  0  0  0  0  0  0  0  0  0  0  0
    2.3186    2.0396    2.2158 C   0  0  0  0  0  0  0  0  0  0  0  0
    2.5412    2.7930    0.8836 C   0  0  0  0  0  0  0  0  0  0  0  0
    2.4517    4.1278    0.3915 C   0  0  0  0  0  0  0  0  0  0  0  0
    2.1773    5.9533    0.6273 C   0  0  0  0  0  0  0  0  0  0  0  0
    3.4698    6.9136    0.2874 C   0  0  0  0  0  0  0  0  0  0  0  0
    4.3363    5.7841    0.3685 C   0  0  0  0  0  0  0  0  0  0  0  0
    4.6693    5.3240    1.5210 O   0  0  0  0  0  0  0  0  0  0  0  0
    4.2344    5.0049   -0.8613 C   0  0  0  0  0  0  0  0  0  0  0  0
    3.2191    4.1327   -0.8564 C   0  0  0  0  0  0  0  0  0  0  0  0
    3.2506    3.1219   -1.9640 C   0  0  0  0  0  0  0  0  0  0  0  0
    3.1100    1.6793   -1.6184 C   0  0  0  0  0  0  0  0  0  0  0  0
    2.8654    1.5587   -0.1184 C   0  0  1  0  0  0  0  0  0  0  0  0
    3.5051   -1.2309    3.1178 C   0  0  0  0  0  0  0  0  0  0  0  0
    3.0832   -3.5343    2.2281 C   0  0  0  0  0  0  0  0  0  0  0  0
    0.1915    0.2114    0.8268 H   0  0  0  0  0  0  0  0  0  0  0  0
    0.1311    0.3082   -0.9973 H   0  0  0  0  0  0  0  0  0  0  0  0
    1.5036   -0.1641   -0.1592 H   0  0  0  0  0  0  0  0  0  0  0  0
   -0.4826   -2.0346   -0.0939 H   0  0  0  0  0  0  0  0  0  0  0  0
    0.9084   -2.0545   -1.2049 H   0  0  0  0  0  0  0  0  0  0  0  0
    5.6494   -2.1611    0.2570 H   0  0  0  0  0  0  0  0  0  0  0  0
    5.3773   -1.5211    1.7271 H   0  0  0  0  0  0  0  0  0  0  0  0
    5.3642    0.0507   -0.7043 H   0  0  0  0  0  0  0  0  0  0  0  0
    5.4320    0.6075    0.9519 H   0  0  0  0  0  0  0  0  0  0  0  0
    3.1923   -0.5630   -0.5147 H   0  0  0  0  0  0  0  0  0  0  0  0
    2.8781    0.6641    3.5891 H   0  0  0  0  0  0  0  0  0  0  0  0
    4.2795    1.0062    2.5819 H   0  0  0  0  0  0  0  0  0  0  0  0
    1.3098    1.6053    2.2478 H   0  0  0  0  0  0  0  0  0  0  0  0
    2.4545    2.6844    3.0819 H   0  0  0  0  0  0  0  0  0  0  0  0
    1.8935    6.3673    1.6084 H   0  0  0  0  0  0  0  0  0  0  0  0
    1.3757    6.3191   -0.0551 H   0  0  0  0  0  0  0  0  0  0  0  0
    3.8721    7.6538    1.0008 H   0  0  0  0  0  0  0  0  0  0  0  0
    3.5545    7.3642   -0.7267 H   0  0  0  0  0  0  0  0  0  0  0  0
    4.3279    5.4843   -1.8291 H   0  0  0  0  0  0  0  0  0  0  0  0
    4.2711    3.1545   -2.3613 H   0  0  0  0  0  0  0  0  0  0  0  0
    2.5429    3.3698   -2.7510 H   0  0  0  0  0  0  0  0  0  0  0  0
    3.9574    1.0816   -1.9947 H   0  0  0  0  0  0  0  0  0  0  0  0
    2.2792    1.2230   -2.1959 H   0  0  0  0  0  0  0  0  0  0  0  0
    1.7986    1.4483   -0.2528 H   0  0  0  0  0  0  0  0  0  0  0  0
    2.5685   -1.5509    3.5917 H   0  0  0  0  0  0  0  0  0  0  0  0
    4.2449   -2.0306    3.0445 H   0  0  0  0  0  0  0  0  0  0  0  0
    4.0359   -0.6998    3.9050 H   0  0  0  0  0  0  0  0  0  0  0  0
    2.5167   -3.3343    3.1645 H   0  0  0  0  0  0  0  0  0  0  0  0
    2.4641   -4.3546    1.8280 H   0  0  0  0  0  0  0  0  0  0  0  0
    4.0387   -3.9463    2.5677 H   0  0  0  0  0  0  0  0  0  0  0  0
  1  2  1  0  0  0  0
  1 25  1  0  0  0  0
  1 26  1  0  0  0  0
  1 27  1  0  0  0  0
  2  3  1  0  0  0  0
  2 28  1  0  0  0  0
  2 29  1  0  0  0  0
  3  4  2  0  0  0  0
  5  3  1  6  0  0  0
  5  6  1  0  0  0  0
  5  9  1  0  0  0  0
  5 24  1  0  0  0  0
  6  7  1  0  0  0  0
  6 30  1  0  0  0  0
  6 31  1  0  0  0  0
  7 32  1  0  0  0  0
  7 33  1  0  0  0  0
  8  7  1  0  0  0  0
  8  9  1  0  0  0  0
  8 22  1  0  0  0  0
  8 34  1  1  0  0  0
  9 10  1  0  0  0  0
  9 23  1  6  0  0  0
 10 11  1  0  0  0  0
 10 35  1  0  0  0  0
 10 36  1  0  0  0  0
 11 12  1  0  0  0  0
 11 37  1  0  0  0  0
 11 38  1  0  0  0  0
 12 13  2  0  0  0  0
 12 22  1  0  0  0  0
 13 14  1  0  0  0  0
 13 19  1  0  0  0  0
 14 15  1  0  0  0  0
 14 39  1  0  0  0  0
 14 40  1  0  0  0  0
 15 16  1  0  0  0  0
 15 41  1  0  0  0  0
 15 42  1  0  0  0  0
 16 17  2  0  0  0  0
 16 18  1  0  0  0  0
 18 19  2  0  0  0  0
 18 43  1  0  0  0  0
 19 20  1  0  0  0  0
 20 21  1  0  0  0  0
 20 44  1  0  0  0  0
 20 45  1  0  0  0  0
 21 46  1  0  0  0  0
 21 47  1  0  0  0  0
 22 21  1  0  0  0  0
 22 48  1  6  0  0  0
 23 49  1  0  0  0  0
 23 50  1  0  0  0  0
 23 51  1  0  0  0  0
 24 52  1  0  0  0  0
 24 53  1  0  0  0  0
 24 54  1  0  0  0  0
M  END
>  <DRUGBANK_ID>
DB13602

>  <COMMON_NAME>
Promegestone

>  <CAS_NUMBER>
34184-77-5

>  <UNII>
9XE0V2SQYX

>  <SYNONYMS>
promegestona; Promegestone

$$$$
