
 OpenBabel10282417133D

 72 76  0  0  1  0  0  0  0  0999 V2000
   -0.7683    1.1587    0.0775 C   0  0  0  0  0  0  0  0  0  0  0  0
   -1.4042   -0.0690   -0.0324 C   0  0  0  0  0  0  0  0  0  0  0  0
    0.6112    1.2107   -0.0186 C   0  0  0  0  0  0  0  0  0  0  0  0
   -1.2998   -2.5844   -0.2125 C   0  0  0  0  0  0  0  0  0  0  0  0
    0.7335   -1.1322    0.0574 C   0  0  0  0  0  0  0  0  0  0  0  0
    3.8735   -2.6896   -1.2623 C   0  0  0  0  0  0  0  0  0  0  0  0
    4.7337   -7.2074    4.7975 C   0  0  0  0  0  0  0  0  0  0  0  0
    9.2261   -3.8906    1.2137 C   0  0  0  0  0  0  0  0  0  0  0  0
    6.0810   -2.8197    4.0509 C   0  0  0  0  0  0  0  0  0  0  0  0
   -0.6513   -1.2378   -0.0474 C   0  0  0  0  0  0  0  0  0  0  0  0
    4.4062   -1.2497   -1.0974 C   0  0  2  0  0  0  0  0  0  0  0  0
    5.4243   -6.3846    5.8895 C   0  0  2  0  0  0  0  0  0  0  0  0
    7.5642   -4.6157    2.7857 C   0  0  0  0  0  0  0  0  0  0  0  0
    4.8285   -0.7759    0.3273 C   0  0  2  0  0  0  0  0  0  0  0  0
    4.3381   -5.4594    6.3790 C   0  0  2  0  0  0  0  0  0  0  0  0
    3.5305   -0.3821    1.0026 C   0  0  2  0  0  0  0  0  0  0  0  0
    4.6330   -4.1282    5.7008 C   0  0  2  0  0  0  0  0  0  0  0  0
    7.6294   -5.3892    1.1394 C   0  0  0  0  0  0  0  0  0  0  0  0
    8.2047   -3.6211    3.3212 C   0  0  0  0  0  0  0  0  0  0  0  0
    2.7974    0.1897   -0.1884 C   0  0  2  0  0  0  0  0  0  0  0  0
    6.3818   -4.1684    5.7594 C   0  0  2  0  0  0  0  0  0  0  0  0
   -0.7727   -3.2375   -1.4008 N   0  0  0  0  0  0  0  0  0  0  0  0
    6.7480   -6.2450    0.0626 N   0  0  0  0  0  0  0  0  0  0  0  0
    8.6897   -4.9343    0.5235 N   0  0  0  0  0  0  0  0  0  0  0  0
    9.0268   -3.0451    2.4152 N   0  0  0  0  0  0  0  0  0  0  0  0
    6.0595   -4.2085    3.8710 N   0  0  0  0  0  0  0  0  0  0  0  0
    1.3405    0.0762   -0.0331 N   0  3  0  0  0  0  0  0  0  0  0  0
    7.2668   -3.2295    4.5826 N   0  0  0  0  0  0  0  0  0  0  0  0
    5.7824    0.2673    0.3435 O   0  0  0  0  0  0  0  0  0  0  0  0
    4.5479   -5.2472    7.7653 O   0  0  0  0  0  0  0  0  0  0  0  0
    3.7007    0.5617    2.0484 O   0  0  0  0  0  0  0  0  0  0  0  0
    4.1566   -2.9835    6.4147 O   0  0  0  0  0  0  0  0  0  0  0  0
    4.1405   -4.8039    1.2307 O   0  0  0  0  0  0  0  0  0  0  0  0
    5.9689   -3.3377    0.0605 O   0  0  0  0  0  0  0  0  0  0  0  0
    5.6343   -6.8777    1.7137 O   0  0  0  0  0  0  0  0  0  0  0  0
    7.2900   -6.3459    3.7208 O   0  5  0  0  0  0  0  0  0  0  0  0
    3.5125   -3.0977    0.0339 O   0  0  0  0  0  0  0  0  0  0  0  0
    5.3393   -7.1401    3.6341 O   0  0  0  0  0  0  0  0  0  0  0  0
    3.2467   -0.4226   -1.3985 O   0  0  0  0  0  0  0  0  0  0  0  0
    6.6516   -5.5573    5.8759 O   0  0  0  0  0  0  0  0  0  0  0  0
    6.0519   -3.7832    2.2819 O   0  0  0  0  0  0  0  0  0  0  0  0
    4.7822   -3.4405    1.1579 P   0  0  3  0  0  0  0  0  0  0  0  0
    5.9468   -5.9772    2.8344 P   0  0  3  0  0  0  0  0  0  0  0  0
    5.1746   -1.0399   -1.8457 H   0  0  0  0  0  0  0  0  0  0  0  0
    5.7620   -7.1671    6.5649 H   0  0  0  0  0  0  0  0  0  0  0  0
    5.3645   -1.4538    0.9523 H   0  0  0  0  0  0  0  0  0  0  0  0
    3.3298   -5.8481    6.1672 H   0  0  0  0  0  0  0  0  0  0  0  0
    2.9992   -1.2358    1.4398 H   0  0  0  0  0  0  0  0  0  0  0  0
    4.0415   -4.1253    4.7504 H   0  0  0  0  0  0  0  0  0  0  0  0
    3.0578    1.2474   -0.2905 H   0  0  0  0  0  0  0  0  0  0  0  0
    6.7340   -3.5067    6.5152 H   0  0  0  0  0  0  0  0  0  0  0  0
   -1.3425    2.0706    0.2054 H   0  0  0  0  0  0  0  0  0  0  0  0
   -2.4883   -0.1153   -0.1067 H   0  0  0  0  0  0  0  0  0  0  0  0
    1.1389    2.1582   -0.0900 H   0  0  0  0  0  0  0  0  0  0  0  0
   -1.1098   -3.1969    0.6751 H   0  0  0  0  0  0  0  0  0  0  0  0
   -2.3857   -2.4762   -0.3114 H   0  0  0  0  0  0  0  0  0  0  0  0
    1.3466   -2.0200    0.1837 H   0  0  0  0  0  0  0  0  0  0  0  0
    3.0115   -2.7013   -1.9389 H   0  0  0  0  0  0  0  0  0  0  0  0
    4.5128   -3.4681   -1.7043 H   0  0  0  0  0  0  0  0  0  0  0  0
    3.7877   -6.8729    4.3801 H   0  0  0  0  0  0  0  0  0  0  0  0
    4.6722   -8.2870    5.0225 H   0  0  0  0  0  0  0  0  0  0  0  0
   10.1369   -3.6037    0.7296 H   0  0  0  0  0  0  0  0  0  0  0  0
    5.2981   -2.1120    4.3997 H   0  0  0  0  0  0  0  0  0  0  0  0
   -1.2240   -4.1488   -1.5127 H   0  0  0  0  0  0  0  0  0  0  0  0
   -1.0195   -2.7103   -2.2378 H   0  0  0  0  0  0  0  0  0  0  0  0
    5.9688   -6.7322    0.5869 H   0  0  0  0  0  0  0  0  0  0  0  0
    7.1721   -7.1282   -0.2588 H   0  0  0  0  0  0  0  0  0  0  0  0
    5.4990    1.0226   -0.1735 H   0  0  0  0  0  0  0  0  0  0  0  0
    5.4967   -5.0198    7.8122 H   0  0  0  0  0  0  0  0  0  0  0  0
    4.4190    1.1729    1.7932 H   0  0  0  0  0  0  0  0  0  0  0  0
    4.6362   -3.0339    7.2570 H   0  0  0  0  0  0  0  0  0  0  0  0
    5.9829   -3.1137   -0.8702 H   0  0  0  0  0  0  0  0  0  0  0  0
  1 52  1  0  0  0  0
  2  1  2  0  0  0  0
  2 53  1  0  0  0  0
  3  1  1  0  0  0  0
  3 54  1  0  0  0  0
  4 55  1  0  0  0  0
  4 56  1  0  0  0  0
  5 57  1  0  0  0  0
  6 58  1  0  0  0  0
  6 59  1  0  0  0  0
  7 60  1  0  0  0  0
  7 61  1  0  0  0  0
  8 62  1  0  0  0  0
  9 63  1  0  0  0  0
 10  2  1  0  0  0  0
 10  4  1  0  0  0  0
 10  5  2  0  0  0  0
 11 44  1  6  0  0  0
 11  6  1  0  0  0  0
 12  7  1  0  0  0  0
 12 45  1  1  0  0  0
 14 11  1  0  0  0  0
 14 29  1  0  0  0  0
 14 46  1  1  0  0  0
 15 12  1  0  0  0  0
 15 30  1  0  0  0  0
 15 47  1  6  0  0  0
 16 14  1  0  0  0  0
 16 31  1  0  0  0  0
 16 48  1  1  0  0  0
 17 15  1  0  0  0  0
 17 32  1  0  0  0  0
 17 49  1  6  0  0  0
 18 13  2  0  0  0  0
 19 13  1  0  0  0  0
 20 16  1  0  0  0  0
 20 27  1  0  0  0  0
 20 50  1  6  0  0  0
 21 17  1  0  0  0  0
 21 51  1  1  0  0  0
 21 28  1  0  0  0  0
 22  4  1  0  0  0  0
 22 64  1  0  0  0  0
 22 65  1  0  0  0  0
 23 18  1  0  0  0  0
 23 66  1  0  0  0  0
 23 67  1  0  0  0  0
 24  8  2  0  0  0  0
 24 18  1  0  0  0  0
 25  8  1  0  0  0  0
 25 19  2  0  0  0  0
 26  9  2  0  0  0  0
 26 13  1  0  0  0  0
 27  3  2  0  0  0  0
 27  5  1  0  0  0  0
 28  9  1  0  0  0  0
 28 19  1  0  0  0  0
 29 68  1  0  0  0  0
 30 69  1  0  0  0  0
 31 70  1  0  0  0  0
 32 71  1  0  0  0  0
 34 72  1  0  0  0  0
 37  6  1  0  0  0  0
 38  7  1  0  0  0  0
 39 11  1  0  0  0  0
 39 20  1  0  0  0  0
 40 12  1  0  0  0  0
 40 21  1  0  0  0  0
 42 33  2  0  0  0  0
 42 34  1  0  0  0  0
 42 37  1  0  0  0  0
 42 41  1  0  0  0  0
 43 35  2  0  0  0  0
 43 36  1  0  0  0  0
 43 38  1  0  0  0  0
 43 41  1  0  0  0  0
M  CHG  2  27   1  36  -1
M  END
>  <DRUGBANK_ID>
DB03797

>  <SECONDARY_ACCESSION_NUMBERS>
EXPT02317

>  <COMMON_NAME>
3-Aminomethyl-Pyridinium-Adenine-Dinucleotide

$$$$
