
 OpenBabel10282417133D

 74 77  0  0  0  0  0  0  0  0999 V2000
    0.9475    0.1190   -0.1087 C   0  0  0  0  0  0  0  0  0  0  0  0
    0.4820   -0.3134    1.2586 C   0  0  0  0  0  0  0  0  0  0  0  0
   -0.0537    0.6298    2.1369 C   0  0  0  0  0  0  0  0  0  0  0  0
   -0.4456    0.3005    3.4415 C   0  0  0  0  0  0  0  0  0  0  0  0
   -1.1034    1.2312    4.2155 N   0  0  0  0  0  0  0  0  0  0  0  0
   -0.3822   -1.0408    3.8457 C   0  0  0  0  0  0  0  0  0  0  0  0
   -0.8461   -1.5086    5.1414 C   0  0  0  0  0  0  0  0  0  0  0  0
   -0.9497   -2.8679    5.4663 C   0  0  0  0  0  0  0  0  0  0  0  0
   -0.4655   -3.7561    4.5852 C   0  0  0  0  0  0  0  0  0  0  0  0
   -0.1027   -3.2508    3.3395 C   0  0  0  0  0  0  0  0  0  0  0  0
    0.0593   -1.9379    2.9189 C   0  0  0  0  0  0  0  0  0  0  0  0
    0.5786   -1.6102    1.6659 N   0  3  0  0  0  0  0  0  0  0  0  0
    1.2011   -2.6170    0.7069 C   0  0  0  0  0  0  0  0  0  0  0  0
    2.5581   -3.1580    1.1689 C   0  0  0  0  0  0  0  0  0  0  0  0
    2.4257   -4.0942    2.3486 C   0  0  0  0  0  0  0  0  0  0  0  0
    1.4354   -5.2511    1.9784 C   0  0  0  0  0  0  0  0  0  0  0  0
    1.9738   -6.1610    0.9208 C   0  0  0  0  0  0  0  0  0  0  0  0
    3.2134   -6.7495    1.4977 C   0  0  0  0  0  0  0  0  0  0  0  0
    2.8034   -7.4304    2.7861 C   0  0  0  0  0  0  0  0  0  0  0  0
    1.7342   -8.5381    2.5293 C   0  0  0  0  0  0  0  0  0  0  0  0
    2.3907   -9.6164    1.7209 C   0  0  0  0  0  0  0  0  0  0  0  0
    3.6760  -10.0595    2.4205 C   0  0  0  0  0  0  0  0  0  0  0  0
    3.4500  -10.7609    3.7406 N   0  3  0  0  0  0  0  0  0  0  0  0
    3.0442  -10.1259    4.9150 C   0  0  0  0  0  0  0  0  0  0  0  0
    2.8159   -8.6587    5.2323 C   0  0  0  0  0  0  0  0  0  0  0  0
    2.8545  -10.8526    6.0812 C   0  0  0  0  0  0  0  0  0  0  0  0
    3.1717  -12.1740    6.1779 C   0  0  0  0  0  0  0  0  0  0  0  0
    2.8663  -12.7901    7.3807 N   0  0  0  0  0  0  0  0  0  0  0  0
    3.5643  -12.8239    5.0107 C   0  0  0  0  0  0  0  0  0  0  0  0
    3.7133  -12.1195    3.7789 C   0  0  0  0  0  0  0  0  0  0  0  0
    4.1301  -12.8701    2.6523 C   0  0  0  0  0  0  0  0  0  0  0  0
    4.1958  -14.2592    2.6833 C   0  0  0  0  0  0  0  0  0  0  0  0
    3.9533  -14.9259    3.8646 C   0  0  0  0  0  0  0  0  0  0  0  0
    3.7786  -14.2049    5.0343 C   0  0  0  0  0  0  0  0  0  0  0  0
    0.6255    1.1373   -0.3357 H   0  0  0  0  0  0  0  0  0  0  0  0
    0.5284   -0.5132   -0.9000 H   0  0  0  0  0  0  0  0  0  0  0  0
    2.0414    0.0813   -0.1496 H   0  0  0  0  0  0  0  0  0  0  0  0
   -0.1826    1.6547    1.7949 H   0  0  0  0  0  0  0  0  0  0  0  0
   -1.2838    1.0319    5.1946 H   0  0  0  0  0  0  0  0  0  0  0  0
   -1.0828    2.2143    3.9779 H   0  0  0  0  0  0  0  0  0  0  0  0
   -1.1316   -0.8187    5.9182 H   0  0  0  0  0  0  0  0  0  0  0  0
   -1.4439   -3.2155    6.3720 H   0  0  0  0  0  0  0  0  0  0  0  0
   -0.3969   -4.8285    4.7762 H   0  0  0  0  0  0  0  0  0  0  0  0
    0.0101   -3.9617    2.6163 H   0  0  0  0  0  0  0  0  0  0  0  0
    0.4428   -3.3690    0.4772 H   0  0  0  0  0  0  0  0  0  0  0  0
    1.4017   -2.1685   -0.2651 H   0  0  0  0  0  0  0  0  0  0  0  0
    3.0284   -3.7208    0.3499 H   0  0  0  0  0  0  0  0  0  0  0  0
    3.2504   -2.3429    1.3963 H   0  0  0  0  0  0  0  0  0  0  0  0
    3.3969   -4.4623    2.6936 H   0  0  0  0  0  0  0  0  0  0  0  0
    2.1604   -3.4987    3.2251 H   0  0  0  0  0  0  0  0  0  0  0  0
    1.0867   -5.7378    2.9023 H   0  0  0  0  0  0  0  0  0  0  0  0
    0.4957   -5.0126    1.4782 H   0  0  0  0  0  0  0  0  0  0  0  0
    1.2054   -6.9040    0.6807 H   0  0  0  0  0  0  0  0  0  0  0  0
    2.1360   -5.6269   -0.0117 H   0  0  0  0  0  0  0  0  0  0  0  0
    3.6953   -7.4236    0.7974 H   0  0  0  0  0  0  0  0  0  0  0  0
    3.9700   -5.9936    1.7189 H   0  0  0  0  0  0  0  0  0  0  0  0
    3.7551   -7.7546    3.1871 H   0  0  0  0  0  0  0  0  0  0  0  0
    2.4782   -6.7341    3.5694 H   0  0  0  0  0  0  0  0  0  0  0  0
    1.3045   -9.0653    3.3805 H   0  0  0  0  0  0  0  0  0  0  0  0
    0.8130   -8.1416    2.0947 H   0  0  0  0  0  0  0  0  0  0  0  0
    1.6978  -10.4472    1.5660 H   0  0  0  0  0  0  0  0  0  0  0  0
    2.6137   -9.2228    0.7207 H   0  0  0  0  0  0  0  0  0  0  0  0
    4.1776  -10.6790    1.6871 H   0  0  0  0  0  0  0  0  0  0  0  0
    4.4436   -9.3080    2.5993 H   0  0  0  0  0  0  0  0  0  0  0  0
    3.7196   -8.0897    5.0388 H   0  0  0  0  0  0  0  0  0  0  0  0
    1.8941   -8.2435    4.8355 H   0  0  0  0  0  0  0  0  0  0  0  0
    2.6033   -8.4673    6.2894 H   0  0  0  0  0  0  0  0  0  0  0  0
    2.4802  -10.3453    6.9709 H   0  0  0  0  0  0  0  0  0  0  0  0
    3.2243  -13.7118    7.5907 H   0  0  0  0  0  0  0  0  0  0  0  0
    2.7111  -12.2146    8.2043 H   0  0  0  0  0  0  0  0  0  0  0  0
    4.4009  -12.4555    1.6887 H   0  0  0  0  0  0  0  0  0  0  0  0
    4.4455  -14.8181    1.7840 H   0  0  0  0  0  0  0  0  0  0  0  0
    3.9114  -16.0105    3.8913 H   0  0  0  0  0  0  0  0  0  0  0  0
    3.7783  -14.7568    5.9684 H   0  0  0  0  0  0  0  0  0  0  0  0
  1  2  1  0  0  0  0
  1 35  1  0  0  0  0
  1 36  1  0  0  0  0
  1 37  1  0  0  0  0
  2  3  2  0  0  0  0
  2 12  1  0  0  0  0
  3  4  1  0  0  0  0
  3 38  1  0  0  0  0
  4  5  1  0  0  0  0
  4  6  2  0  0  0  0
  5 39  1  0  0  0  0
  5 40  1  0  0  0  0
  6  7  1  0  0  0  0
  6 11  1  0  0  0  0
  7  8  2  0  0  0  0
  7 41  1  0  0  0  0
  8  9  1  0  0  0  0
  8 42  1  0  0  0  0
  9 10  2  0  0  0  0
  9 43  1  0  0  0  0
 10 11  1  0  0  0  0
 10 44  1  0  0  0  0
 11 12  2  0  0  0  0
 12 13  1  0  0  0  0
 13 14  1  0  0  0  0
 13 45  1  0  0  0  0
 13 46  1  0  0  0  0
 14 15  1  0  0  0  0
 14 47  1  0  0  0  0
 14 48  1  0  0  0  0
 15 16  1  0  0  0  0
 15 49  1  0  0  0  0
 15 50  1  0  0  0  0
 16 17  1  0  0  0  0
 16 51  1  0  0  0  0
 16 52  1  0  0  0  0
 17 18  1  0  0  0  0
 17 53  1  0  0  0  0
 17 54  1  0  0  0  0
 18 19  1  0  0  0  0
 18 55  1  0  0  0  0
 18 56  1  0  0  0  0
 19 20  1  0  0  0  0
 19 57  1  0  0  0  0
 19 58  1  0  0  0  0
 20 21  1  0  0  0  0
 20 59  1  0  0  0  0
 20 60  1  0  0  0  0
 21 22  1  0  0  0  0
 21 61  1  0  0  0  0
 21 62  1  0  0  0  0
 22 23  1  0  0  0  0
 22 63  1  0  0  0  0
 22 64  1  0  0  0  0
 23 24  2  0  0  0  0
 23 30  1  0  0  0  0
 24 25  1  0  0  0  0
 24 26  1  0  0  0  0
 25 65  1  0  0  0  0
 25 66  1  0  0  0  0
 25 67  1  0  0  0  0
 26 27  2  0  0  0  0
 26 68  1  0  0  0  0
 27 28  1  0  0  0  0
 27 29  1  0  0  0  0
 28 69  1  0  0  0  0
 28 70  1  0  0  0  0
 29 30  2  0  0  0  0
 29 34  1  0  0  0  0
 30 31  1  0  0  0  0
 31 32  2  0  0  0  0
 31 71  1  0  0  0  0
 32 33  1  0  0  0  0
 32 72  1  0  0  0  0
 33 34  2  0  0  0  0
 33 73  1  0  0  0  0
 34 74  1  0  0  0  0
M  CHG  2  12   1  23   1
M  END
>  <DRUGBANK_ID>
DB04209

>  <SECONDARY_ACCESSION_NUMBERS>
EXPT01162; DB11615

>  <COMMON_NAME>
Dequalinium

>  <CAS_NUMBER>
6707-58-0

>  <UNII>
E7QC7V26B8

>  <SYNONYMS>
1,1'-(1,10-Decanediyl)bis(4-amino-2-methylquinolinium) dichloride; 1,1'-Decamethylenebis(4-aminoquinaldinium chloride); Decamethylenebis(4-aminoquinaldinium chloride)

$$$$
