
 OpenBabel10282417153D

 51 54  0  0  1  0  0  0  0  0999 V2000
    1.5887   -0.3802    0.4843 O   0  0  0  0  0  0  0  0  0  0  0  0
   -1.8259   -1.9233   -1.9674 O   0  0  0  0  0  0  0  0  0  0  0  0
   -0.3504   -0.3429   -2.0833 N   0  0  0  0  0  0  0  0  0  0  0  0
   -0.1145   -2.2795    2.8771 N   0  0  0  0  0  0  0  0  0  0  0  0
    0.5851    0.6352   -1.6266 C   0  0  3  0  0  0  0  0  0  0  0  0
    1.9648    0.3437   -2.2266 C   0  0  0  0  0  0  0  0  0  0  0  0
    0.1980    2.0677   -1.5773 C   0  0  0  0  0  0  0  0  0  0  0  0
   -0.5090   -1.7362    0.0953 C   0  0  0  0  0  0  0  0  0  0  0  0
   -0.9072   -1.3522   -1.3482 C   0  0  0  0  0  0  0  0  0  0  0  0
   -1.3147   -2.7064    0.7822 C   0  0  0  0  0  0  0  0  0  0  0  0
    1.9664    0.7935   -3.6766 C   0  0  0  0  0  0  0  0  0  0  0  0
    0.5210   -1.1555    0.8696 C   0  0  0  0  0  0  0  0  0  0  0  0
   -1.0288   -2.9422    2.1583 C   0  0  0  0  0  0  0  0  0  0  0  0
    0.5827   -1.3319    2.2491 C   0  0  0  0  0  0  0  0  0  0  0  0
   -1.1099    2.4351   -1.8417 C   0  0  0  0  0  0  0  0  0  0  0  0
    1.1218    3.0084   -1.0790 C   0  0  0  0  0  0  0  0  0  0  0  0
   -2.3792   -3.4728    0.2257 C   0  0  0  0  0  0  0  0  0  0  0  0
    1.5310   -0.4779    2.9962 C   0  0  0  0  0  0  0  0  0  0  0  0
   -1.7744   -3.8596    2.8718 C   0  0  0  0  0  0  0  0  0  0  0  0
   -1.4053    3.7752   -1.9355 C   0  0  0  0  0  0  0  0  0  0  0  0
    0.7826    4.3443   -1.0531 C   0  0  0  0  0  0  0  0  0  0  0  0
   -3.2087   -4.2714    1.0062 C   0  0  0  0  0  0  0  0  0  0  0  0
   -0.4492    4.7270   -1.5753 C   0  0  0  0  0  0  0  0  0  0  0  0
   -2.9341   -4.4195    2.3494 C   0  0  0  0  0  0  0  0  0  0  0  0
    1.4141    0.9371    2.9350 C   0  0  0  0  0  0  0  0  0  0  0  0
    2.7356   -1.0203    3.4477 C   0  0  0  0  0  0  0  0  0  0  0  0
    2.4943    1.7655    3.2452 C   0  0  0  0  0  0  0  0  0  0  0  0
    3.7671   -0.1856    3.8792 C   0  0  0  0  0  0  0  0  0  0  0  0
    3.6635    1.2002    3.7409 C   0  0  0  0  0  0  0  0  0  0  0  0
    2.1466   -0.8145   -0.1660 H   0  0  0  0  0  0  0  0  0  0  0  0
   -0.7426   -0.2355   -3.0124 H   0  0  0  0  0  0  0  0  0  0  0  0
    0.4487    0.5591   -0.5825 H   0  0  0  0  0  0  0  0  0  0  0  0
    2.7672    0.8536   -1.6806 H   0  0  0  0  0  0  0  0  0  0  0  0
    2.2058   -0.7290   -2.1891 H   0  0  0  0  0  0  0  0  0  0  0  0
    1.7254    1.8581   -3.7425 H   0  0  0  0  0  0  0  0  0  0  0  0
    2.9400    0.6338   -4.1399 H   0  0  0  0  0  0  0  0  0  0  0  0
    1.2092    0.2407   -4.2407 H   0  0  0  0  0  0  0  0  0  0  0  0
   -1.8761    1.6778   -1.9877 H   0  0  0  0  0  0  0  0  0  0  0  0
    2.0997    2.7000   -0.7057 H   0  0  0  0  0  0  0  0  0  0  0  0
   -2.6166   -3.4577   -0.8330 H   0  0  0  0  0  0  0  0  0  0  0  0
   -1.4714   -4.1096    3.8855 H   0  0  0  0  0  0  0  0  0  0  0  0
   -2.3819    4.0637   -2.3021 H   0  0  0  0  0  0  0  0  0  0  0  0
    1.4827    5.0746   -0.6604 H   0  0  0  0  0  0  0  0  0  0  0  0
   -4.0560   -4.7762    0.5510 H   0  0  0  0  0  0  0  0  0  0  0  0
   -0.6783    5.7783   -1.6891 H   0  0  0  0  0  0  0  0  0  0  0  0
   -3.6134   -4.9652    2.9952 H   0  0  0  0  0  0  0  0  0  0  0  0
    0.5189    1.3940    2.5111 H   0  0  0  0  0  0  0  0  0  0  0  0
    2.8973   -2.0933    3.3762 H   0  0  0  0  0  0  0  0  0  0  0  0
    2.4309    2.8383    3.0739 H   0  0  0  0  0  0  0  0  0  0  0  0
    4.6691   -0.6250    4.2918 H   0  0  0  0  0  0  0  0  0  0  0  0
    4.5017    1.8376    4.0084 H   0  0  0  0  0  0  0  0  0  0  0  0
  1 12  1  0  0  0  0
  1 30  1  0  0  0  0
  2  9  2  0  0  0  0
  3  5  1  0  0  0  0
  3  9  1  0  0  0  0
  3 31  1  0  0  0  0
  4 13  1  0  0  0  0
  4 14  2  0  0  0  0
  5  6  1  0  0  0  0
  5  7  1  0  0  0  0
  5 32  1  0  0  0  0
  6 11  1  0  0  0  0
  6 33  1  0  0  0  0
  6 34  1  0  0  0  0
  7 15  2  0  0  0  0
  7 16  1  0  0  0  0
  8  9  1  0  0  0  0
  8 10  1  0  0  0  0
  8 12  2  0  0  0  0
 10 13  1  0  0  0  0
 10 17  2  0  0  0  0
 11 35  1  0  0  0  0
 11 36  1  0  0  0  0
 11 37  1  0  0  0  0
 12 14  1  0  0  0  0
 13 19  2  0  0  0  0
 14 18  1  0  0  0  0
 15 20  1  0  0  0  0
 15 38  1  0  0  0  0
 16 21  2  0  0  0  0
 16 39  1  0  0  0  0
 17 22  1  0  0  0  0
 17 40  1  0  0  0  0
 18 25  2  0  0  0  0
 18 26  1  0  0  0  0
 19 24  1  0  0  0  0
 19 41  1  0  0  0  0
 20 23  2  0  0  0  0
 20 42  1  0  0  0  0
 21 23  1  0  0  0  0
 21 43  1  0  0  0  0
 22 24  2  0  0  0  0
 22 44  1  0  0  0  0
 23 45  1  0  0  0  0
 24 46  1  0  0  0  0
 25 27  1  0  0  0  0
 25 47  1  0  0  0  0
 26 28  2  0  0  0  0
 26 48  1  0  0  0  0
 27 29  2  0  0  0  0
 27 49  1  0  0  0  0
 28 29  1  0  0  0  0
 28 50  1  0  0  0  0
 29 51  1  0  0  0  0
M  END
>  <DRUGBANK_ID>
DB06429

>  <COMMON_NAME>
Talnetant

>  <CAS_NUMBER>
174636-32-9

>  <UNII>
CZ3T9T146K

>  <SYNONYMS>
Talnetant

$$$$
