
 OpenBabel10282417183D

  6  3  0  0  0  0  0  0  0  0999 V2000
    1.3138    0.7666   -0.4265 O   0  5  0  0  0  0  0  0  0  0  0  0
    2.4413    0.2798   -0.2748 C   0  0  0  0  0  0  0  0  0  0  0  0
    2.7573    0.4672    0.8967 O   0  5  0  0  0  0  0  0  0  0  0  0
    2.8784   -0.6055   -0.9785 O   0  0  0  0  0  0  0  0  0  0  0  0
    0.8936   -1.3799   -0.8013 Na  0  3  0  0  0  0  0  0  0  0  0  0
    0.8763    0.8389    1.7624 Na  0  3  0  0  0  0  0  0  0  0  0  0
  1  2  1  0  0  0  0
  2  3  1  0  0  0  0
  2  4  2  0  0  0  0
M  CHG  4   1  -1   3  -1   5   1   6   1
M  END
>  <DRUGBANK_ID>
DB09460

>  <COMMON_NAME>
Sodium carbonate

>  <CAS_NUMBER>
497-19-8

>  <UNII>
45P3261C7T

>  <SYNONYMS>
Anhydrous sodium carbonate; Carbonic acid sodium salt (1:2); Carbonic acid, disodium salt; Disodium carbonate; Natriumkarbonat; Natrum carbonicum; Soda ash; Soda-ash; Sodium carbonate (anhydrous); Sodium carbonate anhydrous; Sodium carbonate, anhydrous; Sodium salt of carbonic acid

$$$$
