
 OpenBabel10282417153D

 58 61  0  0  0  0  0  0  0  0999 V2000
   -1.8264   -1.5443   -1.1875 C   0  0  1  0  0  0  0  0  0  0  0  0
   -3.1316   -1.4366   -2.9474 C   0  0  0  0  0  0  0  0  0  0  0  0
   -4.5103   -1.0241   -2.4262 C   0  0  0  0  0  0  0  0  0  0  0  0
   -3.9332    0.2839   -1.9306 C   0  0  0  0  0  0  0  0  0  0  0  0
   -2.3737    0.2182   -1.8069 C   0  0  0  0  0  0  0  0  0  0  0  0
   -2.4907   -0.4669   -0.4921 C   0  0  2  0  0  0  0  0  0  0  0  0
   -0.1474   -0.7986   -0.8065 C   0  0  2  0  0  0  0  0  0  0  0  0
    0.0038    0.7524    0.1055 C   0  0  1  0  0  0  0  0  0  0  0  0
   -1.1747    1.6181   -0.1630 C   0  0  0  0  0  0  0  0  0  0  0  0
   -2.0186    0.5815    0.4389 C   0  0  0  0  0  0  0  0  0  0  0  0
    1.1481   -1.3997    0.0577 C   0  0  0  0  0  0  0  0  0  0  0  0
    2.4414   -0.5835   -0.5231 C   0  0  0  0  0  0  0  0  0  0  0  0
    2.5978    0.9806    0.0223 C   0  0  1  0  0  0  0  0  0  0  0  0
    1.1959    1.5938   -0.2613 C   0  0  1  0  0  0  0  0  0  0  0  0
    1.2202    1.7829   -1.8634 C   0  0  0  0  0  0  0  0  0  0  0  0
    2.6584    1.9267   -2.2755 C   0  0  0  0  0  0  0  0  0  0  0  0
    3.1700    2.2666   -0.9418 C   0  0  0  0  0  0  0  0  0  0  0  0
    3.4044    3.4628   -0.7259 O   0  0  0  0  0  0  0  0  0  0  0  0
    3.2514    0.6328    1.3960 C   0  0  0  0  0  0  0  0  0  0  0  0
    1.1044    2.5519    0.2734 H   0  0  0  0  0  0  0  0  0  0  0  0
    0.0841    0.5765    1.2106 H   0  0  0  0  0  0  0  0  0  0  0  0
    0.2376   -0.8114   -1.8059 H   0  0  0  0  0  0  0  0  0  0  0  0
   -1.5241   -2.5285    0.1886 C   0  0  0  0  0  0  0  0  0  0  0  0
   -3.1723   -1.1079    0.0958 H   0  0  0  0  0  0  0  0  0  0  0  0
   -2.0387    0.4089    1.6624 O   0  0  0  0  0  0  0  0  0  0  0  0
   -4.5339    0.8958   -0.9725 N   0  0  0  0  0  0  0  0  0  0  0  0
   -4.9996   -0.1679   -0.1574 O   0  0  0  0  0  0  0  0  0  0  0  0
   -4.9159    0.0316    1.2569 C   0  0  0  0  0  0  0  0  0  0  0  0
   -4.5212    1.4153    1.8077 C   0  0  0  0  0  0  0  0  0  0  0  0
   -4.8562    2.5040    0.9023 N   0  0  0  0  0  0  0  0  0  0  0  0
   -3.6867   -0.9168   -3.9290 H   0  0  0  0  0  0  0  0  0  0  0  0
   -2.8165   -0.2640   -3.5731 H   0  0  0  0  0  0  0  0  0  0  0  0
   -5.3824   -0.9496   -3.1543 H   0  0  0  0  0  0  0  0  0  0  0  0
   -4.7018   -1.8455   -1.7812 H   0  0  0  0  0  0  0  0  0  0  0  0
   -1.6376   -0.4485   -2.6549 H   0  0  0  0  0  0  0  0  0  0  0  0
   -1.5168    0.7364   -2.1889 H   0  0  0  0  0  0  0  0  0  0  0  0
   -1.4812    2.6487   -0.0082 H   0  0  0  0  0  0  0  0  0  0  0  0
   -1.0391    1.7771   -1.2106 H   0  0  0  0  0  0  0  0  0  0  0  0
    1.4005   -2.4702    0.0562 H   0  0  0  0  0  0  0  0  0  0  0  0
    0.9674   -1.2364    1.1440 H   0  0  0  0  0  0  0  0  0  0  0  0
    3.4070   -1.0867   -0.3567 H   0  0  0  0  0  0  0  0  0  0  0  0
    2.3494   -0.7451   -1.5995 H   0  0  0  0  0  0  0  0  0  0  0  0
    0.5645    1.7719   -2.7498 H   0  0  0  0  0  0  0  0  0  0  0  0
    0.9776    0.7476   -1.9441 H   0  0  0  0  0  0  0  0  0  0  0  0
    3.1098    2.4773   -3.0982 H   0  0  0  0  0  0  0  0  0  0  0  0
    2.9626    0.9191   -2.4486 H   0  0  0  0  0  0  0  0  0  0  0  0
    3.1357   -0.4517    1.6201 H   0  0  0  0  0  0  0  0  0  0  0  0
    4.3488    0.7077    1.3620 H   0  0  0  0  0  0  0  0  0  0  0  0
    2.8560    1.0862    2.3045 H   0  0  0  0  0  0  0  0  0  0  0  0
   -1.2379   -1.8393    1.0642 H   0  0  0  0  0  0  0  0  0  0  0  0
   -2.1989   -3.1818    0.7423 H   0  0  0  0  0  0  0  0  0  0  0  0
   -0.5575   -3.0347    0.0849 H   0  0  0  0  0  0  0  0  0  0  0  0
   -5.9550   -0.1615    1.4726 H   0  0  0  0  0  0  0  0  0  0  0  0
   -4.3562   -0.7853    1.7652 H   0  0  0  0  0  0  0  0  0  0  0  0
   -4.9408    1.4858    2.8060 H   0  0  0  0  0  0  0  0  0  0  0  0
   -3.4824    1.6248    2.0334 H   0  0  0  0  0  0  0  0  0  0  0  0
   -4.3386    3.3316    1.1645 H   0  0  0  0  0  0  0  0  0  0  0  0
   -4.4415    2.2116   -0.0055 H   0  0  0  0  0  0  0  0  0  0  0  0
  1  2  1  0  0  0  0
  1  7  1  0  0  0  0
  1 23  1  6  0  0  0
  2  3  1  0  0  0  0
  2 31  1  0  0  0  0
  2 32  1  0  0  0  0
  3  4  1  0  0  0  0
  3 33  1  0  0  0  0
  3 34  1  0  0  0  0
  4  5  1  0  0  0  0
  4 26  2  3  0  0  0
  5  6  1  0  0  0  0
  5 35  1  0  0  0  0
  5 36  1  0  0  0  0
  6  1  1  0  0  0  0
  6 24  1  1  0  0  0
  7 11  1  0  0  0  0
  7 22  1  1  0  0  0
  8  9  1  0  0  0  0
  8  7  1  0  0  0  0
  8 21  1  6  0  0  0
  9 10  1  0  0  0  0
  9 37  1  0  0  0  0
  9 38  1  0  0  0  0
 10  6  1  0  0  0  0
 10 25  2  0  0  0  0
 11 12  1  0  0  0  0
 11 39  1  0  0  0  0
 11 40  1  0  0  0  0
 12 13  1  0  0  0  0
 12 41  1  0  0  0  0
 12 42  1  0  0  0  0
 13 17  1  0  0  0  0
 13 14  1  0  0  0  0
 13 19  1  6  0  0  0
 14  8  1  0  0  0  0
 14 15  1  0  0  0  0
 14 20  1  1  0  0  0
 15 16  1  0  0  0  0
 15 43  1  0  0  0  0
 15 44  1  0  0  0  0
 16 17  1  0  0  0  0
 16 45  1  0  0  0  0
 16 46  1  0  0  0  0
 17 18  2  0  0  0  0
 19 47  1  0  0  0  0
 19 48  1  0  0  0  0
 19 49  1  0  0  0  0
 23 50  1  0  0  0  0
 23 51  1  0  0  0  0
 23 52  1  0  0  0  0
 26 27  1  0  0  0  0
 27 28  1  0  0  0  0
 28 29  1  0  0  0  0
 28 53  1  0  0  0  0
 28 54  1  0  0  0  0
 29 30  1  0  0  0  0
 29 55  1  0  0  0  0
 29 56  1  0  0  0  0
 30 57  1  0  0  0  0
 30 58  1  0  0  0  0
M  END
>  <DRUGBANK_ID>
DB06157

>  <COMMON_NAME>
Istaroxime

>  <CAS_NUMBER>
203737-93-3

>  <UNII>
W8I9H2TPPL

>  <SYNONYMS>
(E,Z)-Istaroxime; 3-((2-Aminoethoxy)imino)-5alpha-androstan-6,17-dione; Istaroxime

$$$$
