
 OpenBabel10282417183D

 32 33  0  0  0  0  0  0  0  0999 V2000
    0.9856   -0.0699    0.0538 C   0  0  0  0  0  0  0  0  0  0  0  0
    0.4873    0.8195   -1.0995 C   0  0  3  0  0  0  0  0  0  0  0  0
    1.6172    1.5569   -1.8223 C   0  0  0  0  0  0  0  0  0  0  0  0
    2.3993    2.7516   -0.7750 S   0  0  0  0  0  0  0  0  0  0  0  0
    2.9690    2.0940    0.3789 O   0  0  0  0  0  0  0  0  0  0  0  0
    3.2344    3.5994   -1.6131 O   0  0  0  0  0  0  0  0  0  0  0  0
    0.9964    3.6949   -0.2596 C   0  0  0  0  0  0  0  0  0  0  0  0
   -0.0656    2.7742    0.3170 C   0  0  0  0  0  0  0  0  0  0  0  0
   -0.5519    1.7664   -0.6560 N   0  0  0  0  0  0  0  0  0  0  0  0
   -1.8814    1.7706   -0.9873 N   0  0  0  0  0  0  0  0  0  0  0  0
   -2.4188    0.8179   -1.6939 C   0  0  0  0  0  0  0  0  0  0  0  0
   -3.8297    0.8534   -2.0451 C   0  0  0  0  0  0  0  0  0  0  0  0
   -4.6382    1.9219   -2.3964 C   0  0  0  0  0  0  0  0  0  0  0  0
   -5.9419    1.4209   -2.6158 C   0  0  0  0  0  0  0  0  0  0  0  0
   -5.8621    0.0693   -2.3892 C   0  0  0  0  0  0  0  0  0  0  0  0
   -4.5812   -0.3123   -2.0782 O   0  0  0  0  0  0  0  0  0  0  0  0
   -6.8997   -0.9228   -2.4286 N   0  3  0  0  0  0  0  0  0  0  0  0
   -6.6039   -2.0972   -2.1817 O   0  0  0  0  0  0  0  0  0  0  0  0
   -8.0345   -0.5068   -2.7108 O   0  5  0  0  0  0  0  0  0  0  0  0
    0.5672   -1.0761   -0.0278 H   0  0  0  0  0  0  0  0  0  0  0  0
    0.6916    0.2949    1.0427 H   0  0  0  0  0  0  0  0  0  0  0  0
    2.0751   -0.1670    0.0554 H   0  0  0  0  0  0  0  0  0  0  0  0
    0.0916    0.1355   -1.8545 H   0  0  0  0  0  0  0  0  0  0  0  0
    2.3870    0.8717   -2.1880 H   0  0  0  0  0  0  0  0  0  0  0  0
    1.2226    2.1105   -2.6845 H   0  0  0  0  0  0  0  0  0  0  0  0
    1.3563    4.4106    0.4853 H   0  0  0  0  0  0  0  0  0  0  0  0
    0.6238    4.2392   -1.1316 H   0  0  0  0  0  0  0  0  0  0  0  0
    0.3363    2.2841    1.2112 H   0  0  0  0  0  0  0  0  0  0  0  0
   -0.8970    3.3849    0.6872 H   0  0  0  0  0  0  0  0  0  0  0  0
   -1.8602   -0.0441   -2.0860 H   0  0  0  0  0  0  0  0  0  0  0  0
   -4.3081    2.9467   -2.4889 H   0  0  0  0  0  0  0  0  0  0  0  0
   -6.8348    1.9661   -2.8909 H   0  0  0  0  0  0  0  0  0  0  0  0
  1  2  1  0  0  0  0
  1 20  1  0  0  0  0
  1 21  1  0  0  0  0
  1 22  1  0  0  0  0
  2  3  1  0  0  0  0
  2  9  1  0  0  0  0
  2 23  1  0  0  0  0
  3  4  1  0  0  0  0
  3 24  1  0  0  0  0
  3 25  1  0  0  0  0
  4  5  2  0  0  0  0
  4  6  2  0  0  0  0
  4  7  1  0  0  0  0
  7  8  1  0  0  0  0
  7 26  1  0  0  0  0
  7 27  1  0  0  0  0
  8  9  1  0  0  0  0
  8 28  1  0  0  0  0
  8 29  1  0  0  0  0
  9 10  1  0  0  0  0
 10 11  2  0  0  0  0
 11 12  1  0  0  0  0
 11 30  1  0  0  0  0
 12 13  2  0  0  0  0
 12 16  1  0  0  0  0
 13 14  1  0  0  0  0
 13 31  1  0  0  0  0
 14 15  2  0  0  0  0
 14 32  1  0  0  0  0
 15 16  1  0  0  0  0
 15 17  1  0  0  0  0
 17 18  2  0  0  0  0
 17 19  1  0  0  0  0
M  CHG  2  17   1  19  -1
M  END
>  <DRUGBANK_ID>
DB11820

>  <COMMON_NAME>
Nifurtimox

>  <CAS_NUMBER>
23256-30-6

>  <UNII>
M84I3K7C2O

>  <SYNONYMS>
Nifurtimox; Nifurtimoxum

$$$$
