
 OpenBabel10282417153D

 40 41  0  0  0  0  0  0  0  0999 V2000
    0.5860   -1.1031   -0.4387 C   0  0  0  0  0  0  0  0  0  0  0  0
    0.3452   -0.1259   -1.7069 C   0  0  0  0  0  0  0  0  0  0  0  0
    5.4033    1.7362   -1.2493 C   0  0  0  0  0  0  0  0  0  0  0  0
    5.3639    1.1595    0.1642 C   0  0  0  0  0  0  0  0  0  0  0  0
    4.3196    1.2151   -2.1652 C   0  0  0  0  0  0  0  0  0  0  0  0
    3.9686    1.2629    0.7024 C   0  0  0  0  0  0  0  0  0  0  0  0
   -1.1202    4.4133    1.8982 C   0  0  0  0  0  0  0  0  0  0  0  0
   -0.6928    3.1166    1.7508 C   0  0  0  0  0  0  0  0  0  0  0  0
    0.6166    4.7158    3.5859 C   0  0  0  0  0  0  0  0  0  0  0  0
   -0.4570    5.1944    2.8233 C   0  0  0  0  0  0  0  0  0  0  0  0
    3.1608    0.6567   -1.7369 C   0  0  0  0  0  0  0  0  0  0  0  0
    1.0989    3.4448    3.3872 C   0  0  0  0  0  0  0  0  0  0  0  0
    0.4959    2.6838    2.4128 C   0  0  0  0  0  0  0  0  0  0  0  0
    2.9301    0.6045   -0.2202 C   0  0  2  0  0  0  0  0  0  0  0  0
    2.4609   -0.1948   -2.8071 C   0  0  0  0  0  0  0  0  0  0  0  0
    2.5179    2.8782    4.2009 Cl  0  0  0  0  0  0  0  0  0  0  0  0
   -0.8666    6.4516    2.9986 F   0  0  0  0  0  0  0  0  0  0  0  0
    1.3206    1.6146    1.9433 N   0  0  0  0  0  0  0  0  0  0  0  0
    3.1123   -0.6386   -3.7494 O   0  0  0  0  0  0  0  0  0  0  0  0
    1.5384    3.0059   -0.1943 O   0  0  0  0  0  0  0  0  0  0  0  0
   -0.0089    1.1285    0.1393 O   0  0  0  0  0  0  0  0  0  0  0  0
    1.1484   -0.5617   -2.7672 O   0  0  0  0  0  0  0  0  0  0  0  0
    1.3451    1.6731    0.2896 S   0  0  0  0  0  0  0  0  0  0  0  0
    3.0501   -0.4337    0.0842 H   0  0  0  0  0  0  0  0  0  0  0  0
    0.2695   -2.1240   -0.5933 H   0  0  0  0  0  0  0  0  0  0  0  0
    0.2177   -0.8331    0.5735 H   0  0  0  0  0  0  0  0  0  0  0  0
    1.6328   -1.2524   -0.2485 H   0  0  0  0  0  0  0  0  0  0  0  0
   -0.7240    0.0303   -1.9210 H   0  0  0  0  0  0  0  0  0  0  0  0
    0.6426    0.9395   -1.7370 H   0  0  0  0  0  0  0  0  0  0  0  0
    5.3124    2.8257   -1.2002 H   0  0  0  0  0  0  0  0  0  0  0  0
    6.3861    1.5016   -1.6711 H   0  0  0  0  0  0  0  0  0  0  0  0
    6.0313    1.7149    0.8329 H   0  0  0  0  0  0  0  0  0  0  0  0
    5.6922    0.1130    0.1772 H   0  0  0  0  0  0  0  0  0  0  0  0
    4.5629    1.2390   -3.2299 H   0  0  0  0  0  0  0  0  0  0  0  0
    3.8999    0.7799    1.6876 H   0  0  0  0  0  0  0  0  0  0  0  0
    3.7258    2.3174    0.8557 H   0  0  0  0  0  0  0  0  0  0  0  0
   -1.9074    4.8020    1.2565 H   0  0  0  0  0  0  0  0  0  0  0  0
   -1.2141    2.5726    0.9621 H   0  0  0  0  0  0  0  0  0  0  0  0
    1.1139    5.3576    4.2933 H   0  0  0  0  0  0  0  0  0  0  0  0
    1.1188    0.7112    2.3751 H   0  0  0  0  0  0  0  0  0  0  0  0
  1 25  1  0  0  0  0
  1 26  1  0  0  0  0
  1 27  1  0  0  0  0
  2  1  1  0  0  0  0
  2 28  1  0  0  0  0
  2 29  1  0  0  0  0
  3 30  1  0  0  0  0
  3 31  1  0  0  0  0
  4  3  1  0  0  0  0
  4 32  1  0  0  0  0
  4 33  1  0  0  0  0
  5  3  1  0  0  0  0
  5 34  1  0  0  0  0
  6  4  1  0  0  0  0
  6 35  1  0  0  0  0
  6 36  1  0  0  0  0
  7 37  1  0  0  0  0
  8  7  2  0  0  0  0
  8 38  1  0  0  0  0
  9 39  1  0  0  0  0
 10  7  1  0  0  0  0
 10  9  2  0  0  0  0
 11  5  2  0  0  0  0
 12  9  1  0  0  0  0
 13  8  1  0  0  0  0
 13 12  2  0  0  0  0
 14  6  1  0  0  0  0
 14 11  1  0  0  0  0
 14 24  1  1  0  0  0
 14 23  1  0  0  0  0
 15 11  1  0  0  0  0
 16 12  1  0  0  0  0
 17 10  1  0  0  0  0
 18 13  1  0  0  0  0
 18 40  1  0  0  0  0
 19 15  2  0  0  0  0
 22  2  1  0  0  0  0
 22 15  1  0  0  0  0
 23 18  1  0  0  0  0
 23 20  2  0  0  0  0
 23 21  2  0  0  0  0
M  END
>  <DRUGBANK_ID>
DB05943

>  <COMMON_NAME>
Resatorvid

>  <CAS_NUMBER>
243984-11-4

>  <UNII>
H2MZ648C31

>  <SYNONYMS>
Resatorvid

$$$$
