
 OpenBabel10282417233D

 34 35  0  0  0  0  0  0  0  0999 V2000
    0.9590    0.0694    0.0169 F   0  0  0  0  0  0  0  0  0  0  0  0
    2.7432    1.3076   -0.1409 F   0  0  0  0  0  0  0  0  0  0  0  0
    2.7475   -0.4584    1.1303 F   0  0  0  0  0  0  0  0  0  0  0  0
    2.4848   -5.0971   -1.0056 F   0  0  0  0  0  0  0  0  0  0  0  0
    0.9604   -4.5724   -2.4648 F   0  0  0  0  0  0  0  0  0  0  0  0
    2.9043   -5.2886   -3.1308 F   0  0  0  0  0  0  0  0  0  0  0  0
   10.4045   -0.9754   -7.4023 O   0  0  0  0  0  0  0  0  0  0  0  0
    8.5456   -2.1081   -6.9142 O   0  0  0  0  0  0  0  0  0  0  0  0
    7.3866   -0.4189   -4.5114 N   0  0  0  0  0  0  0  0  0  0  0  0
    6.6615   -0.6086   -3.3859 N   0  0  0  0  0  0  0  0  0  0  0  0
    4.3521   -1.3733   -2.9812 C   0  0  0  0  0  0  0  0  0  0  0  0
    5.4595   -1.0065   -3.8453 C   0  0  0  0  0  0  0  0  0  0  0  0
    8.7956   -0.0663   -4.4597 C   0  0  0  0  0  0  0  0  0  0  0  0
    2.7875   -0.8526   -1.2041 C   0  0  0  0  0  0  0  0  0  0  0  0
    2.7958   -3.0756   -2.2117 C   0  0  0  0  0  0  0  0  0  0  0  0
    3.8314   -2.6708   -3.0590 C   0  0  0  0  0  0  0  0  0  0  0  0
    3.8004   -0.4508   -2.0861 C   0  0  0  0  0  0  0  0  0  0  0  0
    5.4337   -1.0456   -5.2552 C   0  0  0  0  0  0  0  0  0  0  0  0
    6.6331   -0.5167   -5.6415 C   0  0  0  0  0  0  0  0  0  0  0  0
    2.2746   -2.1557   -1.2954 C   0  0  0  0  0  0  0  0  0  0  0  0
    9.7500   -1.0997   -5.0718 C   0  0  0  0  0  0  0  0  0  0  0  0
    2.3166    0.0198   -0.0713 C   0  0  0  0  0  0  0  0  0  0  0  0
    2.2944   -4.4936   -2.2112 C   0  0  0  0  0  0  0  0  0  0  0  0
    9.4932   -1.4371   -6.5247 C   0  0  0  0  0  0  0  0  0  0  0  0
   11.2281   -0.6102   -7.0335 H   0  0  0  0  0  0  0  0  0  0  0  0
    8.8932    0.9063   -4.9549 H   0  0  0  0  0  0  0  0  0  0  0  0
    9.0603    0.0824   -3.4031 H   0  0  0  0  0  0  0  0  0  0  0  0
    4.2576   -3.3796   -3.7690 H   0  0  0  0  0  0  0  0  0  0  0  0
    4.1762    0.5722   -2.0684 H   0  0  0  0  0  0  0  0  0  0  0  0
    4.6322   -1.3686   -5.9019 H   0  0  0  0  0  0  0  0  0  0  0  0
    7.0285   -0.3112   -6.6236 H   0  0  0  0  0  0  0  0  0  0  0  0
    1.4835   -2.4676   -0.6109 H   0  0  0  0  0  0  0  0  0  0  0  0
   10.7820   -0.7443   -4.9653 H   0  0  0  0  0  0  0  0  0  0  0  0
    9.6937   -2.0422   -4.5156 H   0  0  0  0  0  0  0  0  0  0  0  0
  1 22  1  0  0  0  0
  2 22  1  0  0  0  0
  3 22  1  0  0  0  0
  4 23  1  0  0  0  0
  5 23  1  0  0  0  0
  6 23  1  0  0  0  0
  7 24  1  0  0  0  0
  7 25  1  0  0  0  0
  8 24  2  0  0  0  0
  9 10  1  0  0  0  0
  9 13  1  0  0  0  0
  9 19  1  0  0  0  0
 10 12  2  0  0  0  0
 11 12  1  0  0  0  0
 11 16  2  0  0  0  0
 11 17  1  0  0  0  0
 12 18  1  0  0  0  0
 13 21  1  0  0  0  0
 13 26  1  0  0  0  0
 13 27  1  0  0  0  0
 14 17  2  0  0  0  0
 14 20  1  0  0  0  0
 14 22  1  0  0  0  0
 15 16  1  0  0  0  0
 15 20  2  0  0  0  0
 15 23  1  0  0  0  0
 16 28  1  0  0  0  0
 17 29  1  0  0  0  0
 18 19  2  0  0  0  0
 18 30  1  0  0  0  0
 19 31  1  0  0  0  0
 20 32  1  0  0  0  0
 21 24  1  0  0  0  0
 21 33  1  0  0  0  0
 21 34  1  0  0  0  0
M  END
>  <DRUGBANK_ID>
DB16734

>  <COMMON_NAME>
STG-001

>  <UNII>
IK88NC17OD

$$$$
