
 OpenBabel10282417203D

 23 23  0  0  0  0  0  0  0  0999 V2000
    1.4785   -0.1388    0.1999 C   0  0  0  0  0  0  0  0  0  0  0  0
    0.6223   -1.2655    0.0726 C   0  0  0  0  0  0  0  0  0  0  0  0
    0.8820    1.1303    0.0771 C   0  0  0  0  0  0  0  0  0  0  0  0
    2.9779   -0.1536    0.4773 C   0  0  0  0  0  0  0  0  0  0  0  0
   -0.7801   -1.0745    0.0038 C   0  0  0  0  0  0  0  0  0  0  0  0
    0.9160   -2.5981   -0.0994 O   0  0  0  0  0  0  0  0  0  0  0  0
   -0.5051    1.3007    0.0348 C   0  0  0  0  0  0  0  0  0  0  0  0
    3.7506    0.9343    0.2003 N   0  0  0  0  0  0  0  0  0  0  0  0
    3.6297   -1.0802    0.9548 O   0  0  0  0  0  0  0  0  0  0  0  0
   -1.3420    0.1983    0.0074 C   0  0  0  0  0  0  0  0  0  0  0  0
    2.2736   -2.9998   -0.2052 C   0  0  0  0  0  0  0  0  0  0  0  0
    2.9680   -2.4088   -1.4380 C   0  0  0  0  0  0  0  0  0  0  0  0
    1.4828    2.0283    0.0167 H   0  0  0  0  0  0  0  0  0  0  0  0
   -1.4451   -1.9375   -0.0587 H   0  0  0  0  0  0  0  0  0  0  0  0
   -0.9236    2.3034    0.0444 H   0  0  0  0  0  0  0  0  0  0  0  0
    4.7317    0.7689    0.3951 H   0  0  0  0  0  0  0  0  0  0  0  0
    3.4420    1.8808    0.0694 H   0  0  0  0  0  0  0  0  0  0  0  0
   -2.4206    0.3291   -0.0390 H   0  0  0  0  0  0  0  0  0  0  0  0
    2.7263   -2.8590    0.7758 H   0  0  0  0  0  0  0  0  0  0  0  0
    2.3121   -4.0893   -0.3013 H   0  0  0  0  0  0  0  0  0  0  0  0
    2.7919   -1.3424   -1.6054 H   0  0  0  0  0  0  0  0  0  0  0  0
    4.0507   -2.5532   -1.3926 H   0  0  0  0  0  0  0  0  0  0  0  0
    2.5705   -2.8698   -2.3439 H   0  0  0  0  0  0  0  0  0  0  0  0
  1  2  2  0  0  0  0
  1  3  1  0  0  0  0
  1  4  1  0  0  0  0
  2  5  1  0  0  0  0
  2  6  1  0  0  0  0
  3  7  2  0  0  0  0
  3 13  1  0  0  0  0
  4  8  1  0  0  0  0
  4  9  2  0  0  0  0
  5 10  2  0  0  0  0
  5 14  1  0  0  0  0
  6 11  1  0  0  0  0
  7 10  1  0  0  0  0
  7 15  1  0  0  0  0
  8 16  1  0  0  0  0
  8 17  1  0  0  0  0
 10 18  1  0  0  0  0
 11 12  1  0  0  0  0
 11 19  1  0  0  0  0
 11 20  1  0  0  0  0
 12 21  1  0  0  0  0
 12 22  1  0  0  0  0
 12 23  1  0  0  0  0
M  END
>  <DRUGBANK_ID>
DB13544

>  <COMMON_NAME>
Ethenzamide

>  <CAS_NUMBER>
938-73-8

>  <UNII>
L929ZCK4BF

>  <SYNONYMS>
Etenzamida; Etenzamide; Ethbenzamide; Ã©thenzamide; Ethenzamide; Ethenzamidum; o-Ethoxybenzamide

$$$$
