
 OpenBabel10282417203D

 45 45  0  0  0  0  0  0  0  0999 V2000
    1.3440   -0.2250    0.0360 C   0  0  0  0  0  0  0  0  0  0  0  0
    0.5020   -1.2510   -0.0040 C   0  0  0  0  0  0  0  0  0  0  0  0
   -0.8560   -1.0420    0.0030 C   0  0  0  0  0  0  0  0  0  0  0  0
   -1.3730    0.2230   -0.0410 C   0  0  0  0  0  0  0  0  0  0  0  0
   -0.5090    1.2150    0.0750 C   0  0  0  0  0  0  0  0  0  0  0  0
    0.8920    1.0800   -0.0700 C   0  0  0  0  0  0  0  0  0  0  0  0
    1.9334    2.7595    0.0551 C   0  0  0  0  0  0  0  0  0  0  0  0
    1.7325    3.6711   -1.1681 N   0  0  0  0  0  0  0  0  0  0  0  0
   -1.9766   -2.4617    0.0715 S   0  0  0  0  0  0  0  0  0  0  0  0
   -2.8450   -2.3661    1.3281 O   0  0  0  0  0  0  0  0  0  0  0  0
   -2.8730   -2.4644   -1.1690 O   0  0  0  0  0  0  0  0  0  0  0  0
   -1.0369   -3.9491    0.1195 N   0  0  0  0  0  0  0  0  0  0  0  0
    1.3440   -0.2250    0.0360 C   0  0  0  0  0  0  0  0  0  0  0  0
    0.5020   -1.2510   -0.0040 C   0  0  0  0  0  0  0  0  0  0  0  0
   -0.8560   -1.0420    0.0030 C   0  0  0  0  0  0  0  0  0  0  0  0
   -1.3730    0.2230   -0.0410 C   0  0  0  0  0  0  0  0  0  0  0  0
   -0.5090    1.2150    0.0750 C   0  0  0  0  0  0  0  0  0  0  0  0
    0.8920    1.0800   -0.0700 C   0  0  0  0  0  0  0  0  0  0  0  0
    1.4324    1.3490   -1.8581 N   0  0  0  0  0  0  0  0  0  0  0  0
   -1.9766   -2.4617    0.0715 S   0  0  0  0  0  0  0  0  0  0  0  0
   -2.8450   -2.3661    1.3281 O   0  0  0  0  0  0  0  0  0  0  0  0
   -2.8730   -2.4644   -1.1690 O   0  0  0  0  0  0  0  0  0  0  0  0
   -1.0369   -3.9491    0.1195 N   0  0  0  0  0  0  0  0  0  0  0  0
    0.7501   -4.5758    0.0595 C   0  0  0  0  0  0  0  0  0  0  0  0
    1.0916   -6.1428   -0.4495 S   0  0  0  0  0  0  0  0  0  0  0  0
    1.6659   -3.9565    0.8552 N   0  0  0  0  0  0  0  0  0  0  0  0
    2.3915   -0.4099    0.1523 H   0  0  0  0  0  0  0  0  0  0  0  0
    0.8845   -2.2496   -0.0420 H   0  0  0  0  0  0  0  0  0  0  0  0
   -2.4212    0.3997   -0.1629 H   0  0  0  0  0  0  0  0  0  0  0  0
   -0.8953    2.1885    0.2939 H   0  0  0  0  0  0  0  0  0  0  0  0
    1.5785    3.2498    0.9819 H   0  0  0  0  0  0  0  0  0  0  0  0
    2.9680    2.4000    0.1962 H   0  0  0  0  0  0  0  0  0  0  0  0
    2.5547    4.2618   -1.3284 H   0  0  0  0  0  0  0  0  0  0  0  0
    1.7812    3.2433   -2.1103 H   0  0  0  0  0  0  0  0  0  0  0  0
   -0.8258   -4.1167    1.2543 H   0  0  0  0  0  0  0  0  0  0  0  0
   -2.0601   -4.5608    0.3733 H   0  0  0  0  0  0  0  0  0  0  0  0
    2.3915   -0.4099    0.1523 H   0  0  0  0  0  0  0  0  0  0  0  0
    0.8845   -2.2496   -0.0420 H   0  0  0  0  0  0  0  0  0  0  0  0
   -2.4212    0.3997   -0.1629 H   0  0  0  0  0  0  0  0  0  0  0  0
   -0.8953    2.1885    0.2939 H   0  0  0  0  0  0  0  0  0  0  0  0
    0.8445    2.1616   -1.8701 H   0  0  0  0  0  0  0  0  0  0  0  0
    2.4716    1.5393   -1.6514 H   0  0  0  0  0  0  0  0  0  0  0  0
   -1.1678   -4.7845   -0.6846 H   0  0  0  0  0  0  0  0  0  0  0  0
    1.1907   -3.3523    1.5070 H   0  0  0  0  0  0  0  0  0  0  0  0
    2.4048   -3.4720    0.3319 H   0  0  0  0  0  0  0  0  0  0  0  0
  1  2  2  0  0  0  0
  1  6  1  0  0  0  0
  1 27  1  0  0  0  0
  2  3  1  0  0  0  0
  2 28  1  0  0  0  0
  3  4  2  0  0  0  0
  3  9  1  0  0  0  0
  4  5  1  0  0  0  0
  4 29  1  0  0  0  0
  5  6  2  0  0  0  0
  5 30  1  0  0  0  0
  6  7  1  0  0  0  0
  7  8  1  0  0  0  0
  7 31  1  0  0  0  0
  7 32  1  0  0  0  0
  8 33  1  0  0  0  0
  8 34  1  0  0  0  0
  9 10  2  0  0  0  0
  9 11  2  0  0  0  0
  9 12  1  0  0  0  0
 12 35  1  0  0  0  0
 12 36  1  0  0  0  0
 13 14  2  0  0  0  0
 13 18  1  0  0  0  0
 13 37  1  0  0  0  0
 14 15  1  0  0  0  0
 14 38  1  0  0  0  0
 15 16  2  0  0  0  0
 15 20  1  0  0  0  0
 16 17  1  0  0  0  0
 16 39  1  0  0  0  0
 17 18  2  0  0  0  0
 17 40  1  0  0  0  0
 18 19  1  0  0  0  0
 19 41  1  0  0  0  0
 19 42  1  0  0  0  0
 20 21  2  0  0  0  0
 20 22  2  0  0  0  0
 20 23  1  0  0  0  0
 23 24  1  0  0  0  0
 23 43  1  0  0  0  0
 24 25  2  0  0  0  0
 24 26  1  0  0  0  0
 26 44  1  0  0  0  0
 26 45  1  0  0  0  0
M  END
>  <DRUGBANK_ID>
DB13547

>  <COMMON_NAME>
Sulfatolamide

>  <CAS_NUMBER>
1161-88-2

>  <UNII>
3OLH2HAK9F

>  <SYNONYMS>
Sulfatolamide

$$$$
