
 OpenBabel10282417213D

 65 67  0  0  0  0  0  0  0  0999 V2000
    1.0122   -0.0072    0.0891 C   0  0  0  0  0  0  0  0  0  0  0  0
    0.5802   -1.3321    0.3711 O   0  0  0  0  0  0  0  0  0  0  0  0
    0.8872   -2.2380   -0.6115 C   0  0  0  0  0  0  0  0  0  0  0  0
    2.1797   -2.4942   -1.1058 C   0  0  0  0  0  0  0  0  0  0  0  0
    3.2224   -1.7638   -0.5987 O   0  0  0  0  0  0  0  0  0  0  0  0
    4.5193   -2.0280   -1.1217 C   0  0  0  0  0  0  0  0  0  0  0  0
    2.3518   -3.5153   -2.0480 C   0  0  0  0  0  0  0  0  0  0  0  0
    1.2803   -4.3369   -2.4176 C   0  0  0  0  0  0  0  0  0  0  0  0
    1.4665   -5.4405   -3.4408 C   0  0  0  0  0  0  0  0  0  0  0  0
    0.4622   -6.5310   -3.4111 N   0  0  0  0  0  0  0  0  0  0  0  0
   -0.0492   -7.1374   -4.6457 C   0  0  0  0  0  0  0  0  0  0  0  0
   -1.1111   -6.2846   -5.4490 C   0  0  0  0  0  0  0  0  0  0  0  0
   -0.5730   -4.9853   -5.9128 C   0  0  0  0  0  0  0  0  0  0  0  0
    0.6272   -5.4886   -6.6667 C   0  0  0  0  0  0  0  0  0  0  0  0
    0.6784   -5.6566   -8.1757 N   0  0  0  0  0  0  0  0  0  0  0  0
    1.4247   -5.1535   -9.3167 C   0  0  0  0  0  0  0  0  0  0  0  0
    0.7062   -5.2088  -10.3900 O   0  0  0  0  0  0  0  0  0  0  0  0
    2.9667   -4.5310   -9.5297 C   0  0  0  0  0  0  0  0  0  0  0  0
    4.0744   -4.3518   -8.5990 C   0  0  0  0  0  0  0  0  0  0  0  0
    4.1266   -4.3993   -7.2478 O   0  0  0  0  0  0  0  0  0  0  0  0
    2.8318   -4.5909   -6.9670 C   0  0  0  0  0  0  0  0  0  0  0  0
    1.7280   -3.2467   -7.3917 C   0  0  0  0  0  0  0  0  0  0  0  0
    1.9936   -2.5507   -8.5164 F   0  0  0  0  0  0  0  0  0  0  0  0
    5.3342   -3.8027   -8.8415 C   0  0  0  0  0  0  0  0  0  0  0  0
    5.5746   -3.2783  -10.0248 C   0  0  0  0  0  0  0  0  0  0  0  0
    4.5533   -3.3056  -10.9865 C   0  0  0  0  0  0  0  0  0  0  0  0
    4.8957   -2.6820  -12.2877 C   0  0  0  0  0  0  0  0  0  0  0  0
    3.2676   -3.9137  -10.7433 C   0  0  0  0  0  0  0  0  0  0  0  0
   -0.6816   -6.3154   -2.5295 C   0  0  0  0  0  0  0  0  0  0  0  0
   -1.1503   -4.8720   -2.4234 C   0  0  0  0  0  0  0  0  0  0  0  0
   -0.0030   -4.0462   -1.9382 C   0  0  0  0  0  0  0  0  0  0  0  0
   -0.1975   -3.0063   -1.0373 C   0  0  0  0  0  0  0  0  0  0  0  0
    0.6010    0.6405    0.8691 H   0  0  0  0  0  0  0  0  0  0  0  0
    0.6313    0.3404   -0.8771 H   0  0  0  0  0  0  0  0  0  0  0  0
    2.0971    0.0931    0.1394 H   0  0  0  0  0  0  0  0  0  0  0  0
    4.8191   -3.0678   -0.9484 H   0  0  0  0  0  0  0  0  0  0  0  0
    4.5642   -1.7767   -2.1869 H   0  0  0  0  0  0  0  0  0  0  0  0
    5.2340   -1.3880   -0.5974 H   0  0  0  0  0  0  0  0  0  0  0  0
    3.3192   -3.7034   -2.5024 H   0  0  0  0  0  0  0  0  0  0  0  0
    2.4928   -5.8366   -3.4141 H   0  0  0  0  0  0  0  0  0  0  0  0
    1.4571   -4.8539   -4.3453 H   0  0  0  0  0  0  0  0  0  0  0  0
    0.7970   -7.5506   -5.2091 H   0  0  0  0  0  0  0  0  0  0  0  0
   -0.5654   -8.0748   -4.4203 H   0  0  0  0  0  0  0  0  0  0  0  0
   -1.3789   -6.8030   -6.3724 H   0  0  0  0  0  0  0  0  0  0  0  0
   -2.0226   -6.0979   -4.8866 H   0  0  0  0  0  0  0  0  0  0  0  0
   -1.1958   -4.2910   -6.4804 H   0  0  0  0  0  0  0  0  0  0  0  0
   -0.2889   -4.3408   -5.0491 H   0  0  0  0  0  0  0  0  0  0  0  0
    1.1389   -4.6888   -6.1965 H   0  0  0  0  0  0  0  0  0  0  0  0
    1.2342   -6.2998   -6.2844 H   0  0  0  0  0  0  0  0  0  0  0  0
    0.0904   -6.4337   -8.4499 H   0  0  0  0  0  0  0  0  0  0  0  0
    2.6689   -5.6020   -7.4269 H   0  0  0  0  0  0  0  0  0  0  0  0
    2.8481   -4.8581   -5.9077 H   0  0  0  0  0  0  0  0  0  0  0  0
    0.6696   -3.5216   -7.5750 H   0  0  0  0  0  0  0  0  0  0  0  0
    1.6369   -2.5779   -6.5444 H   0  0  0  0  0  0  0  0  0  0  0  0
    6.0339   -3.7195   -7.9975 H   0  0  0  0  0  0  0  0  0  0  0  0
    6.5481   -2.8124  -10.1790 H   0  0  0  0  0  0  0  0  0  0  0  0
    4.7947   -3.4404  -13.0621 H   0  0  0  0  0  0  0  0  0  0  0  0
    4.2641   -1.8128  -12.4687 H   0  0  0  0  0  0  0  0  0  0  0  0
    5.9429   -2.3494  -12.2753 H   0  0  0  0  0  0  0  0  0  0  0  0
    2.4973   -3.8197  -11.5135 H   0  0  0  0  0  0  0  0  0  0  0  0
   -1.5290   -6.9301   -2.8557 H   0  0  0  0  0  0  0  0  0  0  0  0
   -0.4075   -6.7052   -1.5472 H   0  0  0  0  0  0  0  0  0  0  0  0
   -1.5098   -4.4650   -3.3744 H   0  0  0  0  0  0  0  0  0  0  0  0
   -2.0009   -4.8363   -1.7406 H   0  0  0  0  0  0  0  0  0  0  0  0
   -1.1914   -2.8110   -0.6435 H   0  0  0  0  0  0  0  0  0  0  0  0
  1  2  1  0  0  0  0
  1 33  1  0  0  0  0
  1 34  1  0  0  0  0
  1 35  1  0  0  0  0
  2  3  1  0  0  0  0
  3  4  2  0  0  0  0
  3 32  1  0  0  0  0
  4  5  1  0  0  0  0
  4  7  1  0  0  0  0
  5  6  1  0  0  0  0
  6 36  1  0  0  0  0
  6 37  1  0  0  0  0
  6 38  1  0  0  0  0
  7  8  2  0  0  0  0
  7 39  1  0  0  0  0
  8  9  1  0  0  0  0
  8 31  1  0  0  0  0
  9 10  1  0  0  0  0
  9 40  1  0  0  0  0
  9 41  1  0  0  0  0
 10 11  1  0  0  0  0
 10 29  1  0  0  0  0
 11 12  1  0  0  0  0
 11 42  1  0  0  0  0
 11 43  1  0  0  0  0
 12 13  1  0  0  0  0
 12 44  1  0  0  0  0
 12 45  1  0  0  0  0
 13 14  1  0  0  0  0
 13 46  1  0  0  0  0
 13 47  1  0  0  0  0
 14 15  1  0  0  0  0
 14 48  1  0  0  0  0
 14 49  1  0  0  0  0
 15 16  1  0  0  0  0
 15 50  1  0  0  0  0
 16 17  2  0  0  0  0
 16 18  1  0  0  0  0
 18 19  2  0  0  0  0
 18 28  1  0  0  0  0
 19 20  1  0  0  0  0
 19 24  1  0  0  0  0
 20 21  1  0  0  0  0
 21 22  1  0  0  0  0
 21 51  1  0  0  0  0
 21 52  1  0  0  0  0
 22 23  1  0  0  0  0
 22 53  1  0  0  0  0
 22 54  1  0  0  0  0
 24 25  2  0  0  0  0
 24 55  1  0  0  0  0
 25 26  1  0  0  0  0
 25 56  1  0  0  0  0
 26 27  1  0  0  0  0
 26 28  2  0  0  0  0
 27 57  1  0  0  0  0
 27 58  1  0  0  0  0
 27 59  1  0  0  0  0
 28 60  1  0  0  0  0
 29 30  1  0  0  0  0
 29 61  1  0  0  0  0
 29 62  1  0  0  0  0
 30 31  1  0  0  0  0
 30 63  1  0  0  0  0
 30 64  1  0  0  0  0
 31 32  2  0  0  0  0
 32 65  1  0  0  0  0
M  ISO  1  23  18
M  END
>  <DRUGBANK_ID>
DB14900

>  <COMMON_NAME>
ISO-1 F-18

>  <CAS_NUMBER>
945992-47-2

>  <UNII>
3G67X40A29

>  <SYNONYMS>
[18F]ISO-1; F-18-ISO

$$$$
