
 OpenBabel10282417143D

 17 18  0  0  0  0  0  0  0  0999 V2000
   -2.4919    0.6419   -0.0138 C   0  0  0  0  0  0  0  0  0  0  0  0
   -2.4530   -0.7507   -0.0050 C   0  0  0  0  0  0  0  0  0  0  0  0
   -1.2255   -1.4141    0.0058 C   0  0  0  0  0  0  0  0  0  0  0  0
   -0.0233   -0.6849    0.0033 C   0  0  0  0  0  0  0  0  0  0  0  0
    1.2349   -1.2922   -0.0028 C   0  0  0  0  0  0  0  0  0  0  0  0
    2.4117   -0.6229   -0.0017 N   0  0  0  0  0  0  0  0  0  0  0  0
    2.3365    0.7239    0.0064 C   0  0  0  0  0  0  0  0  0  0  0  0
    1.1458    1.4331    0.0084 C   0  0  0  0  0  0  0  0  0  0  0  0
   -0.0606    0.7239    0.0039 C   0  0  0  0  0  0  0  0  0  0  0  0
   -1.3042    1.3760   -0.0036 C   0  0  0  0  0  0  0  0  0  0  0  0
   -3.4480    1.1589   -0.0291 H   0  0  0  0  0  0  0  0  0  0  0  0
   -3.3788   -1.3203   -0.0084 H   0  0  0  0  0  0  0  0  0  0  0  0
   -1.2103   -2.5017    0.0144 H   0  0  0  0  0  0  0  0  0  0  0  0
    1.3354   -2.3746   -0.0130 H   0  0  0  0  0  0  0  0  0  0  0  0
    3.2921    1.2404    0.0103 H   0  0  0  0  0  0  0  0  0  0  0  0
    1.1645    2.5176    0.0117 H   0  0  0  0  0  0  0  0  0  0  0  0
   -1.3564    2.4626   -0.0052 H   0  0  0  0  0  0  0  0  0  0  0  0
  1  2  2  0  0  0  0
  1 10  1  0  0  0  0
  1 11  1  0  0  0  0
  2  3  1  0  0  0  0
  2 12  1  0  0  0  0
  3  4  2  0  0  0  0
  3 13  1  0  0  0  0
  4  5  1  0  0  0  0
  4  9  1  0  0  0  0
  5  6  2  0  0  0  0
  5 14  1  0  0  0  0
  6  7  1  0  0  0  0
  7  8  2  0  0  0  0
  7 15  1  0  0  0  0
  8  9  1  0  0  0  0
  8 16  1  0  0  0  0
  9 10  2  0  0  0  0
 10 17  1  0  0  0  0
M  END
>  <DRUGBANK_ID>
DB04329

>  <SECONDARY_ACCESSION_NUMBERS>
EXPT01938

>  <COMMON_NAME>
Isoquinoline

>  <CAS_NUMBER>
119-65-3

>  <UNII>
JGX76Y85M6

$$$$
