
 OpenBabel10282417183D

 31 32  0  0  0  0  0  0  0  0999 V2000
    1.0627   -0.7794   -0.0771 N   0  3  0  0  0  0  0  0  0  0  0  0
    2.2582   -1.4920    0.1924 N   0  0  0  0  0  0  0  0  0  0  0  0
   -0.1867   -1.3820   -0.0856 C   0  0  0  0  0  0  0  0  0  0  0  0
    1.0571    0.4822   -0.3947 N   0  0  0  0  0  0  0  0  0  0  0  0
    3.2338   -0.9068    1.1115 C   0  0  0  0  0  0  0  0  0  0  0  0
    2.8392   -2.1433   -0.9788 C   0  0  0  0  0  0  0  0  0  0  0  0
   -1.0630   -0.3545   -0.3641 C   0  0  0  0  0  0  0  0  0  0  0  0
   -0.2702    0.6954   -0.7556 O   0  0  0  0  0  0  0  0  0  0  0  0
    4.5497   -0.4029    0.5082 C   0  0  0  0  0  0  0  0  0  0  0  0
    4.1562   -1.5503   -1.4926 C   0  0  0  0  0  0  0  0  0  0  0  0
   -2.4102   -0.4163   -0.2627 N   0  5  0  0  0  0  0  0  0  0  0  0
    5.0727   -1.3575   -0.4159 O   0  0  0  0  0  0  0  0  0  0  0  0
   -3.3299    0.5606   -0.1101 C   0  0  0  0  0  0  0  0  0  0  0  0
   -3.0493    1.8968    0.0705 O   0  0  0  0  0  0  0  0  0  0  0  0
   -4.5418    0.2942   -0.0774 O   0  0  0  0  0  0  0  0  0  0  0  0
   -1.7603    2.4914    0.1929 C   0  0  0  0  0  0  0  0  0  0  0  0
   -1.1089    1.9977    1.4837 C   0  0  0  0  0  0  0  0  0  0  0  0
   -0.3642   -2.4190    0.1467 H   0  0  0  0  0  0  0  0  0  0  0  0
    3.4925   -1.7508    1.7623 H   0  0  0  0  0  0  0  0  0  0  0  0
    2.8048   -0.1431    1.7708 H   0  0  0  0  0  0  0  0  0  0  0  0
    3.0342   -3.1643   -0.6405 H   0  0  0  0  0  0  0  0  0  0  0  0
    2.1258   -2.2133   -1.8092 H   0  0  0  0  0  0  0  0  0  0  0  0
    4.4355    0.5648    0.0081 H   0  0  0  0  0  0  0  0  0  0  0  0
    5.2967   -0.2784    1.3022 H   0  0  0  0  0  0  0  0  0  0  0  0
    4.6203   -2.2503   -2.1964 H   0  0  0  0  0  0  0  0  0  0  0  0
    4.0117   -0.5995   -2.0188 H   0  0  0  0  0  0  0  0  0  0  0  0
   -1.2863    2.3591   -0.7797 H   0  0  0  0  0  0  0  0  0  0  0  0
   -1.8232    3.5828    0.2256 H   0  0  0  0  0  0  0  0  0  0  0  0
   -1.2717    0.9348    1.6932 H   0  0  0  0  0  0  0  0  0  0  0  0
   -0.0328    2.1799    1.4984 H   0  0  0  0  0  0  0  0  0  0  0  0
   -1.5757    2.4863    2.3397 H   0  0  0  0  0  0  0  0  0  0  0  0
  1  2  1  0  0  0  0
  1  3  1  0  0  0  0
  1  4  2  0  0  0  0
  2  5  1  0  0  0  0
  2  6  1  0  0  0  0
  3  7  2  0  0  0  0
  3 18  1  0  0  0  0
  4  8  1  0  0  0  0
  5  9  1  0  0  0  0
  5 19  1  0  0  0  0
  5 20  1  0  0  0  0
  6 10  1  0  0  0  0
  6 21  1  0  0  0  0
  6 22  1  0  0  0  0
  7 11  1  0  0  0  0
  7  8  1  0  0  0  0
  9 12  1  0  0  0  0
  9 23  1  0  0  0  0
  9 24  1  0  0  0  0
 10 12  1  0  0  0  0
 10 25  1  0  0  0  0
 10 26  1  0  0  0  0
 11 13  1  0  0  0  0
 13 14  1  0  0  0  0
 13 15  2  0  0  0  0
 14 16  1  0  0  0  0
 16 17  1  0  0  0  0
 16 27  1  0  0  0  0
 16 28  1  0  0  0  0
 17 29  1  0  0  0  0
 17 30  1  0  0  0  0
 17 31  1  0  0  0  0
M  CHG  2   1   1  11  -1
M  END
>  <DRUGBANK_ID>
DB09282

>  <COMMON_NAME>
Molsidomine

>  <CAS_NUMBER>
25717-80-0

>  <UNII>
D46583G77X

>  <SYNONYMS>
Molsidomina; Molsidomine; Molsidominum

$$$$
