
 OpenBabel10282417153D

 53 55  0  0  0  0  0  0  0  0999 V2000
    0.4713   -0.8837    0.2442 C   0  0  1  0  0  0  0  0  0  0  0  0
   -0.5555   -0.9471   -0.9699 C   0  0  2  0  0  0  0  0  0  0  0  0
    0.9975    0.6272    0.3019 C   0  0  0  0  0  0  0  0  0  0  0  0
   -1.0455    0.5548   -0.7791 C   0  0  0  0  0  0  0  0  0  0  0  0
   -0.4209    1.1617    0.4396 C   0  0  1  0  0  0  0  0  0  0  0  0
   -0.3535   -0.9178    1.5734 C   0  0  0  0  0  0  0  0  0  0  0  0
   -1.6272   -2.2228   -0.9567 C   0  0  0  0  0  0  0  0  0  0  0  0
   -1.1155    0.4200    1.5828 C   0  0  0  0  0  0  0  0  0  0  0  0
    0.1284   -1.1026   -2.2387 O   0  0  0  0  0  0  0  0  0  0  0  0
    1.5242   -1.9632    0.1720 C   0  0  0  0  0  0  0  0  0  0  0  0
   -2.5071    0.9093   -2.8878 N   0  0  0  0  0  0  0  0  0  0  0  0
    1.7719    1.2205   -0.9052 C   0  0  0  0  0  0  0  0  0  0  0  0
    1.7860    1.0559    1.5337 C   0  0  0  0  0  0  0  0  0  0  0  0
    0.0097   -0.1600   -3.3150 C   0  0  0  0  0  0  0  0  0  0  0  0
   -1.3204    0.6756   -3.7237 C   0  0  0  0  0  0  0  0  0  0  0  0
   -2.6609   -2.3540   -0.0148 C   0  0  0  0  0  0  0  0  0  0  0  0
   -1.8787   -2.9335   -2.1976 C   0  0  0  0  0  0  0  0  0  0  0  0
   -3.2326    2.1318   -2.7372 C   0  0  0  0  0  0  0  0  0  0  0  0
   -3.2391   -0.1977   -2.3678 C   0  0  0  0  0  0  0  0  0  0  0  0
   -3.1783   -3.4201   -2.5059 C   0  0  0  0  0  0  0  0  0  0  0  0
   -3.9034   -2.9623   -0.2797 C   0  0  0  0  0  0  0  0  0  0  0  0
   -4.1867   -3.4338   -1.5690 C   0  0  0  0  0  0  0  0  0  0  0  0
   -0.5418    2.2509    0.4530 H   0  0  0  0  0  0  0  0  0  0  0  0
   -2.0956    0.7049   -0.5982 H   0  0  0  0  0  0  0  0  0  0  0  0
   -0.7056    1.2238   -1.5619 H   0  0  0  0  0  0  0  0  0  0  0  0
    0.2739   -0.9803    2.4615 H   0  0  0  0  0  0  0  0  0  0  0  0
   -0.9785   -1.7965    1.6563 H   0  0  0  0  0  0  0  0  0  0  0  0
   -1.0363    0.9570    2.5281 H   0  0  0  0  0  0  0  0  0  0  0  0
   -2.1938    0.3077    1.3895 H   0  0  0  0  0  0  0  0  0  0  0  0
    1.0519   -2.9516    0.1515 H   0  0  0  0  0  0  0  0  0  0  0  0
    2.1343   -1.8680   -0.7309 H   0  0  0  0  0  0  0  0  0  0  0  0
    2.1840   -1.9222    1.0412 H   0  0  0  0  0  0  0  0  0  0  0  0
    2.5251    0.5294   -1.2902 H   0  0  0  0  0  0  0  0  0  0  0  0
    1.1549    1.5707   -1.7265 H   0  0  0  0  0  0  0  0  0  0  0  0
    2.2755    2.1601   -0.6452 H   0  0  0  0  0  0  0  0  0  0  0  0
    1.2369    0.9298    2.4665 H   0  0  0  0  0  0  0  0  0  0  0  0
    2.7244    0.5075    1.5897 H   0  0  0  0  0  0  0  0  0  0  0  0
    1.9947    2.1321    1.4731 H   0  0  0  0  0  0  0  0  0  0  0  0
    0.8575    0.5194   -3.2067 H   0  0  0  0  0  0  0  0  0  0  0  0
    0.3366   -0.6932   -4.2218 H   0  0  0  0  0  0  0  0  0  0  0  0
   -0.9163    1.6577   -4.0061 H   0  0  0  0  0  0  0  0  0  0  0  0
   -1.6765    0.2108   -4.6433 H   0  0  0  0  0  0  0  0  0  0  0  0
   -2.6631   -1.8437    0.9456 H   0  0  0  0  0  0  0  0  0  0  0  0
   -1.1952   -2.8487   -3.0360 H   0  0  0  0  0  0  0  0  0  0  0  0
   -4.1778    2.0421   -3.2738 H   0  0  0  0  0  0  0  0  0  0  0  0
   -3.4860    2.2812   -1.6727 H   0  0  0  0  0  0  0  0  0  0  0  0
   -2.6807    3.0161   -3.0464 H   0  0  0  0  0  0  0  0  0  0  0  0
   -3.9415   -0.7103   -3.0051 H   0  0  0  0  0  0  0  0  0  0  0  0
   -2.4386   -0.8582   -2.2642 H   0  0  0  0  0  0  0  0  0  0  0  0
   -3.6598   -0.0603   -1.3556 H   0  0  0  0  0  0  0  0  0  0  0  0
   -3.4391   -3.6367   -3.5528 H   0  0  0  0  0  0  0  0  0  0  0  0
   -4.6872   -2.9310    0.4617 H   0  0  0  0  0  0  0  0  0  0  0  0
   -5.2053   -3.7205   -1.8175 H   0  0  0  0  0  0  0  0  0  0  0  0
  1 10  1  6  0  0  0
  2  1  1  0  0  0  0
  2  9  1  6  0  0  0
  2  7  1  0  0  0  0
  3  1  1  0  0  0  0
  4  2  1  0  0  0  0
  4  5  1  0  0  0  0
  4 24  1  0  0  0  0
  4 25  1  0  0  0  0
  5  3  1  0  0  0  0
  5 23  1  1  0  0  0
  5  8  1  0  0  0  0
  6  1  1  0  0  0  0
  6 26  1  0  0  0  0
  6 27  1  0  0  0  0
  8  6  1  0  0  0  0
  8 28  1  0  0  0  0
  8 29  1  0  0  0  0
 10 30  1  0  0  0  0
 10 31  1  0  0  0  0
 10 32  1  0  0  0  0
 11 15  1  0  0  0  0
 12  3  1  0  0  0  0
 12 33  1  0  0  0  0
 12 34  1  0  0  0  0
 12 35  1  0  0  0  0
 13  3  1  0  0  0  0
 13 36  1  0  0  0  0
 13 37  1  0  0  0  0
 13 38  1  0  0  0  0
 14  9  1  0  0  0  0
 14 39  1  0  0  0  0
 14 40  1  0  0  0  0
 15 14  1  0  0  0  0
 15 41  1  0  0  0  0
 15 42  1  0  0  0  0
 16  7  2  0  0  0  0
 16 43  1  0  0  0  0
 17  7  1  0  0  0  0
 17 44  1  0  0  0  0
 18 11  1  0  0  0  0
 18 45  1  0  0  0  0
 18 46  1  0  0  0  0
 18 47  1  0  0  0  0
 19 11  1  0  0  0  0
 19 48  1  0  0  0  0
 19 49  1  0  0  0  0
 19 50  1  0  0  0  0
 20 17  2  0  0  0  0
 20 51  1  0  0  0  0
 21 16  1  0  0  0  0
 21 22  2  0  0  0  0
 21 52  1  0  0  0  0
 22 20  1  0  0  0  0
 22 53  1  0  0  0  0
M  END
>  <DRUGBANK_ID>
DB06512

>  <COMMON_NAME>
Deramciclane

>  <CAS_NUMBER>
120444-71-5

>  <UNII>
O5KFK61E74

>  <SYNONYMS>
Deramciclane

$$$$
