
 OpenBabel10282417183D

 77 78  0  0  1  0  0  0  0  0999 V2000
   -8.0341   -1.8549    4.8918 C   0  0  0  0  0  0  0  0  0  0  0  0
   -8.3401   -0.9236    5.8882 C   0  0  0  0  0  0  0  0  0  0  0  0
   -8.1702    0.4456    5.6745 C   0  0  0  0  0  0  0  0  0  0  0  0
   -7.7466    0.8991    4.4326 C   0  0  0  0  0  0  0  0  0  0  0  0
   -7.5385   -0.0613    3.4200 C   0  0  0  0  0  0  0  0  0  0  0  0
   -7.6166   -1.4224    3.6511 C   0  0  0  0  0  0  0  0  0  0  0  0
   -7.5192    2.3775    4.2093 C   0  0  0  0  0  0  0  0  0  0  0  0
   -6.0419    2.7180    3.9277 C   0  0  0  0  0  0  0  0  0  0  0  0
   -5.5506    1.9717    2.6713 C   0  0  1  0  0  0  0  0  0  0  0  0
   -6.3429    2.4180    1.4319 C   0  0  0  0  0  0  0  0  0  0  0  0
   -6.3038    3.9353    1.2036 C   0  0  0  0  0  0  0  0  0  0  0  0
   -4.9125    4.5211    0.9193 C   0  0  1  0  0  0  0  0  0  0  0  0
   -5.0748    6.0320    0.6215 C   0  0  1  0  0  0  0  0  0  0  0  0
   -4.4421    6.8014    1.7897 C   0  0  0  0  0  0  0  0  0  0  0  0
   -4.0907    5.7650    2.8219 C   0  0  1  0  0  0  0  0  0  0  0  0
   -3.8089    4.5013    2.0330 C   0  0  2  0  0  0  0  0  0  0  0  0
   -2.3948    4.1543    1.4979 C   0  0  0  0  0  0  0  0  0  0  0  0
   -2.2022    4.4350    0.0473 C   0  0  0  0  0  0  0  0  0  0  0  0
   -1.5773    5.5283   -0.3731 C   0  0  0  0  0  0  0  0  0  0  0  0
   -0.9040    6.4856    0.5521 C   0  0  0  0  0  0  0  0  0  0  0  0
    0.5377    6.5771    0.1221 C   0  0  0  0  0  0  0  0  0  0  0  0
    0.6794    7.0356   -1.3194 C   0  0  0  0  0  0  0  0  0  0  0  0
    0.1357    8.3994   -1.5954 C   0  0  0  0  0  0  0  0  0  0  0  0
    0.7860    9.1818   -2.2798 O   0  0  0  0  0  0  0  0  0  0  0  0
   -1.0828    8.6235   -1.0483 O   0  0  0  0  0  0  0  0  0  0  0  0
   -1.6775    9.9343   -0.9814 C   0  0  0  0  0  0  0  0  0  0  0  0
   -0.9792   10.8181    0.0742 C   0  0  0  0  0  0  0  0  0  0  0  0
    0.4564   11.1549   -0.3199 C   0  0  0  0  0  0  0  0  0  0  0  0
    0.5378   11.7569   -1.7406 C   0  0  0  0  0  0  0  0  0  0  0  0
    0.1759   13.1334   -1.7534 O   0  0  0  0  0  0  0  0  0  0  0  0
   -1.2157   13.4160   -1.7939 N   0  3  0  0  0  0  0  0  0  0  0  0
   -2.0108   12.5074   -1.9728 O   0  0  0  0  0  0  0  0  0  0  0  0
   -1.4470   14.6175   -1.6165 O   0  5  0  0  0  0  0  0  0  0  0  0
   -3.0788    6.1332    3.7316 O   0  0  0  0  0  0  0  0  0  0  0  0
   -4.4651    6.3814   -0.6084 O   0  0  0  0  0  0  0  0  0  0  0  0
   -4.1677    1.9482    2.3892 O   0  0  0  0  0  0  0  0  0  0  0  0
   -8.1388   -2.9180    5.0719 H   0  0  0  0  0  0  0  0  0  0  0  0
   -8.7173   -1.2693    6.8435 H   0  0  0  0  0  0  0  0  0  0  0  0
   -8.3820    1.1513    6.4738 H   0  0  0  0  0  0  0  0  0  0  0  0
   -7.2475    0.1980    2.4090 H   0  0  0  0  0  0  0  0  0  0  0  0
   -7.3653   -2.1114    2.8494 H   0  0  0  0  0  0  0  0  0  0  0  0
   -8.1686    2.7054    3.3882 H   0  0  0  0  0  0  0  0  0  0  0  0
   -7.8597    2.9672    5.0710 H   0  0  0  0  0  0  0  0  0  0  0  0
   -5.9811    3.8032    3.8082 H   0  0  0  0  0  0  0  0  0  0  0  0
   -5.4023    2.5077    4.7908 H   0  0  0  0  0  0  0  0  0  0  0  0
   -5.6148    0.9218    2.8876 H   0  0  0  0  0  0  0  0  0  0  0  0
   -5.9698    1.8966    0.5435 H   0  0  0  0  0  0  0  0  0  0  0  0
   -7.4002    2.1362    1.5085 H   0  0  0  0  0  0  0  0  0  0  0  0
   -6.9313    4.1259    0.3192 H   0  0  0  0  0  0  0  0  0  0  0  0
   -6.7968    4.4832    2.0124 H   0  0  0  0  0  0  0  0  0  0  0  0
   -4.5963    3.9707    0.0282 H   0  0  0  0  0  0  0  0  0  0  0  0
   -6.1222    6.3088    0.4905 H   0  0  0  0  0  0  0  0  0  0  0  0
   -3.5612    7.3840    1.5194 H   0  0  0  0  0  0  0  0  0  0  0  0
   -5.1775    7.4862    2.2217 H   0  0  0  0  0  0  0  0  0  0  0  0
   -4.9796    5.5875    3.4404 H   0  0  0  0  0  0  0  0  0  0  0  0
   -3.8946    3.8194    2.8659 H   0  0  0  0  0  0  0  0  0  0  0  0
   -1.6383    4.6099    2.1306 H   0  0  0  0  0  0  0  0  0  0  0  0
   -2.1613    3.0908    1.6131 H   0  0  0  0  0  0  0  0  0  0  0  0
   -2.6921    3.8108   -0.7013 H   0  0  0  0  0  0  0  0  0  0  0  0
   -1.6451    5.7593   -1.4387 H   0  0  0  0  0  0  0  0  0  0  0  0
   -1.4497    7.4256    0.5790 H   0  0  0  0  0  0  0  0  0  0  0  0
   -0.9068    6.2099    1.6013 H   0  0  0  0  0  0  0  0  0  0  0  0
    1.0755    7.2324    0.8138 H   0  0  0  0  0  0  0  0  0  0  0  0
    0.9881    5.5778    0.2141 H   0  0  0  0  0  0  0  0  0  0  0  0
    1.7473    7.0514   -1.5500 H   0  0  0  0  0  0  0  0  0  0  0  0
    0.2181    6.3603   -2.0443 H   0  0  0  0  0  0  0  0  0  0  0  0
   -1.6993   10.3153   -2.0004 H   0  0  0  0  0  0  0  0  0  0  0  0
   -2.7324    9.8323   -0.6931 H   0  0  0  0  0  0  0  0  0  0  0  0
   -1.5131   11.7588    0.2521 H   0  0  0  0  0  0  0  0  0  0  0  0
   -0.9871   10.3082    1.0453 H   0  0  0  0  0  0  0  0  0  0  0  0
    0.9003   11.8513    0.3985 H   0  0  0  0  0  0  0  0  0  0  0  0
    1.0556   10.2424   -0.2080 H   0  0  0  0  0  0  0  0  0  0  0  0
    1.5928   11.7052   -2.0421 H   0  0  0  0  0  0  0  0  0  0  0  0
    0.0125   11.2135   -2.5322 H   0  0  0  0  0  0  0  0  0  0  0  0
   -2.2200    6.1218    3.2863 H   0  0  0  0  0  0  0  0  0  0  0  0
   -3.5112    6.3947   -0.4536 H   0  0  0  0  0  0  0  0  0  0  0  0
   -4.0693    2.2878    1.4841 H   0  0  0  0  0  0  0  0  0  0  0  0
  1  2  2  0  0  0  0
  1  6  1  0  0  0  0
  1 37  1  0  0  0  0
  2  3  1  0  0  0  0
  2 38  1  0  0  0  0
  3  4  2  0  0  0  0
  3 39  1  0  0  0  0
  4  5  1  0  0  0  0
  4  7  1  0  0  0  0
  5  6  2  0  0  0  0
  5 40  1  0  0  0  0
  6 41  1  0  0  0  0
  7  8  1  0  0  0  0
  7 42  1  0  0  0  0
  7 43  1  0  0  0  0
  8  9  1  0  0  0  0
  8 44  1  0  0  0  0
  8 45  1  0  0  0  0
  9 10  1  0  0  0  0
  9 36  1  0  0  0  0
  9 46  1  1  0  0  0
 10 11  1  0  0  0  0
 10 47  1  0  0  0  0
 10 48  1  0  0  0  0
 11 49  1  0  0  0  0
 11 50  1  0  0  0  0
 12 13  1  0  0  0  0
 12 16  1  0  0  0  0
 12 51  1  6  0  0  0
 12 11  1  0  0  0  0
 13 14  1  0  0  0  0
 13 35  1  0  0  0  0
 13 52  1  6  0  0  0
 14 15  1  0  0  0  0
 14 53  1  0  0  0  0
 14 54  1  0  0  0  0
 15 16  1  0  0  0  0
 15 34  1  0  0  0  0
 15 55  1  1  0  0  0
 16 56  1  1  0  0  0
 16 17  1  0  0  0  0
 17 18  1  0  0  0  0
 17 57  1  0  0  0  0
 17 58  1  0  0  0  0
 18 19  2  0  0  0  0
 18 59  1  0  0  0  0
 19 20  1  0  0  0  0
 19 60  1  0  0  0  0
 20 21  1  0  0  0  0
 20 61  1  0  0  0  0
 20 62  1  0  0  0  0
 21 22  1  0  0  0  0
 21 63  1  0  0  0  0
 21 64  1  0  0  0  0
 22 23  1  0  0  0  0
 22 65  1  0  0  0  0
 22 66  1  0  0  0  0
 23 24  2  0  0  0  0
 23 25  1  0  0  0  0
 25 26  1  0  0  0  0
 26 27  1  0  0  0  0
 26 67  1  0  0  0  0
 26 68  1  0  0  0  0
 27 28  1  0  0  0  0
 27 69  1  0  0  0  0
 27 70  1  0  0  0  0
 28 29  1  0  0  0  0
 28 71  1  0  0  0  0
 28 72  1  0  0  0  0
 29 30  1  0  0  0  0
 29 73  1  0  0  0  0
 29 74  1  0  0  0  0
 30 31  1  0  0  0  0
 31 32  2  0  0  0  0
 31 33  1  0  0  0  0
 34 75  1  0  0  0  0
 35 76  1  0  0  0  0
 36 77  1  0  0  0  0
M  CHG  2  31   1  33  -1
M  END
>  <DRUGBANK_ID>
DB11660

>  <COMMON_NAME>
Latanoprostene bunod

>  <CAS_NUMBER>
860005-21-6

>  <UNII>
I6393O0922

>  <SYNONYMS>
Latanoprostene bunod

$$$$
