
 OpenBabel10282417133D

 75 78  0  0  0  0  0  0  0  0999 V2000
   -1.1491    0.8238   -0.0747 O   0  0  0  0  0  0  0  0  0  0  0  0
    0.3209    2.1008   -1.5324 O   0  0  0  0  0  0  0  0  0  0  0  0
    1.6917   -1.8151   -0.1128 O   0  0  0  0  0  0  0  0  0  0  0  0
   -0.9567   -1.5802    0.8734 O   0  0  0  0  0  0  0  0  0  0  0  0
    2.4137    1.0282    0.0847 O   0  0  0  0  0  0  0  0  0  0  0  0
   -1.2777    3.3242    5.3386 O   0  0  0  0  0  0  0  0  0  0  0  0
   -3.3435    0.8644    0.3310 O   0  0  0  0  0  0  0  0  0  0  0  0
   -3.9083   -0.0256   -1.9304 O   0  0  0  0  0  0  0  0  0  0  0  0
   -3.5243    6.9269   -1.3475 O   0  0  0  0  0  0  0  0  0  0  0  0
    0.6262    4.8434   -5.5794 O   0  5  0  0  0  0  0  0  0  0  0  0
   -0.7518    6.5282   -5.3029 O   0  0  0  0  0  0  0  0  0  0  0  0
   -2.7064    5.0620    3.5033 N   0  0  0  0  0  0  0  0  0  0  0  0
   -5.0799    2.9565    0.2928 N   0  0  0  0  0  0  0  0  0  0  0  0
   -3.4066    5.6156    0.4551 N   0  0  0  0  0  0  0  0  0  0  0  0
   -0.2894    5.4158   -4.9869 N   0  3  0  0  0  0  0  0  0  0  0  0
    0.8436   -0.7772   -0.5710 C   0  0  1  0  0  0  0  0  0  0  0  0
   -0.5963   -1.3068   -0.5042 C   0  0  2  0  0  0  0  0  0  0  0  0
   -3.1479    4.4246    1.1902 C   0  0  0  0  0  0  0  0  0  0  0  0
    1.0959    0.5187    0.2419 C   0  0  2  0  0  0  0  0  0  0  0  0
   -1.4493   -0.2187   -1.0662 C   0  0  1  0  0  0  0  0  0  0  0  0
   -2.1474    4.5084    2.2833 C   0  0  0  0  0  0  0  0  0  0  0  0
   -4.2629    3.4056    1.4484 C   0  0  0  0  0  0  0  0  0  0  0  0
    0.0697    1.5566   -0.2018 C   0  0  2  0  0  0  0  0  0  0  0  0
   -1.5170    5.5250    4.2334 C   0  0  0  0  0  0  0  0  0  0  0  0
   -3.3904    4.0519    4.3526 C   0  0  0  0  0  0  0  0  0  0  0  0
   -5.5969    1.6006    0.6097 C   0  0  0  0  0  0  0  0  0  0  0  0
   -4.2360    2.8645   -0.8865 C   0  0  0  0  0  0  0  0  0  0  0  0
   -2.9254   -0.8467   -1.2692 C   0  0  0  0  0  0  0  0  0  0  0  0
   -0.5969    4.3275    4.5656 C   0  0  0  0  0  0  0  0  0  0  0  0
   -2.4892    2.8664    4.7205 C   0  0  0  0  0  0  0  0  0  0  0  0
   -4.5231    0.6216    1.0429 C   0  0  0  0  0  0  0  0  0  0  0  0
   -3.0871    2.0033   -0.5097 C   0  0  0  0  0  0  0  0  0  0  0  0
   -2.9427    5.9549   -0.8040 C   0  0  0  0  0  0  0  0  0  0  0  0
   -0.3093    3.2489   -1.9770 C   0  0  0  0  0  0  0  0  0  0  0  0
   -1.8772    5.1860   -1.6317 C   0  0  0  0  0  0  0  0  0  0  0  0
   -1.0302    4.1383   -1.1707 C   0  0  0  0  0  0  0  0  0  0  0  0
   -0.1881    3.5994   -3.3100 C   0  0  0  0  0  0  0  0  0  0  0  0
   -1.7335    5.5105   -2.9772 C   0  0  0  0  0  0  0  0  0  0  0  0
   -0.8048    4.7936   -3.7610 C   0  0  0  0  0  0  0  0  0  0  0  0
   -4.1591    6.1699    0.8376 H   0  0  0  0  0  0  0  0  0  0  0  0
    1.3268   -2.0683    0.7582 H   0  0  0  0  0  0  0  0  0  0  0  0
   -1.1723   -0.7213    1.2976 H   0  0  0  0  0  0  0  0  0  0  0  0
    2.5149    1.2220   -0.8639 H   0  0  0  0  0  0  0  0  0  0  0  0
   -4.3408    0.4814   -1.2227 H   0  0  0  0  0  0  0  0  0  0  0  0
    1.0699   -0.5551   -1.6190 H   0  0  0  0  0  0  0  0  0  0  0  0
   -0.7555   -2.2255   -1.0682 H   0  0  0  0  0  0  0  0  0  0  0  0
   -2.5052    3.9775    0.5132 H   0  0  0  0  0  0  0  0  0  0  0  0
    0.9561    0.3100    1.3162 H   0  0  0  0  0  0  0  0  0  0  0  0
   -1.1631    0.1839   -2.0385 H   0  0  0  0  0  0  0  0  0  0  0  0
   -1.7004    3.5090    2.4041 H   0  0  0  0  0  0  0  0  0  0  0  0
   -1.3084    5.1135    1.9023 H   0  0  0  0  0  0  0  0  0  0  0  0
   -3.7098    2.5735    1.9197 H   0  0  0  0  0  0  0  0  0  0  0  0
   -4.9828    3.7266    2.1837 H   0  0  0  0  0  0  0  0  0  0  0  0
    0.1128    2.3704    0.5422 H   0  0  0  0  0  0  0  0  0  0  0  0
   -1.8497    6.0600    5.1235 H   0  0  0  0  0  0  0  0  0  0  0  0
   -0.9912    6.2608    3.6068 H   0  0  0  0  0  0  0  0  0  0  0  0
   -3.7331    4.5603    5.2594 H   0  0  0  0  0  0  0  0  0  0  0  0
   -4.3176    3.6708    3.9235 H   0  0  0  0  0  0  0  0  0  0  0  0
   -6.0795    1.1976   -0.2893 H   0  0  0  0  0  0  0  0  0  0  0  0
   -6.3467    1.6384    1.3950 H   0  0  0  0  0  0  0  0  0  0  0  0
   -4.7015    2.5016   -1.8076 H   0  0  0  0  0  0  0  0  0  0  0  0
   -3.8712    3.8274   -1.2130 H   0  0  0  0  0  0  0  0  0  0  0  0
   -2.9000   -1.6996   -1.9364 H   0  0  0  0  0  0  0  0  0  0  0  0
   -3.3335   -1.2344   -0.3271 H   0  0  0  0  0  0  0  0  0  0  0  0
   -0.1826    3.8438    3.6686 H   0  0  0  0  0  0  0  0  0  0  0  0
    0.2710    4.6869    5.1158 H   0  0  0  0  0  0  0  0  0  0  0  0
   -3.0160    2.2067    5.4169 H   0  0  0  0  0  0  0  0  0  0  0  0
   -2.2556    2.2363    3.8510 H   0  0  0  0  0  0  0  0  0  0  0  0
   -4.2549    0.6168    2.1059 H   0  0  0  0  0  0  0  0  0  0  0  0
   -4.8259   -0.4101    0.8355 H   0  0  0  0  0  0  0  0  0  0  0  0
   -2.5581    1.7901   -1.4480 H   0  0  0  0  0  0  0  0  0  0  0  0
   -2.3162    2.4597    0.0725 H   0  0  0  0  0  0  0  0  0  0  0  0
   -0.9122    3.9535   -0.1260 H   0  0  0  0  0  0  0  0  0  0  0  0
    0.4348    3.0022   -3.9737 H   0  0  0  0  0  0  0  0  0  0  0  0
   -2.2918    6.3521   -3.3958 H   0  0  0  0  0  0  0  0  0  0  0  0
  1 20  1  0  0  0  0
  1 23  1  0  0  0  0
  2 34  1  0  0  0  0
  3 41  1  0  0  0  0
  4 42  1  0  0  0  0
  5 43  1  0  0  0  0
  6 29  1  0  0  0  0
  6 30  1  0  0  0  0
  7 31  1  0  0  0  0
  7 32  1  0  0  0  0
  8 28  1  0  0  0  0
  8 44  1  0  0  0  0
  9 33  2  0  0  0  0
 10 15  1  0  0  0  0
 11 15  2  0  0  0  0
 12 21  1  0  0  0  0
 12 24  1  0  0  0  0
 12 25  1  0  0  0  0
 13 22  1  0  0  0  0
 13 26  1  0  0  0  0
 13 27  1  0  0  0  0
 14 18  1  0  0  0  0
 14 33  1  0  0  0  0
 14 40  1  0  0  0  0
 15 39  1  0  0  0  0
 16  3  1  0  0  0  0
 16 17  1  0  0  0  0
 16 19  1  0  0  0  0
 16 45  1  6  0  0  0
 17  4  1  0  0  0  0
 17 20  1  0  0  0  0
 17 46  1  6  0  0  0
 18 21  1  0  0  0  0
 18 22  1  0  0  0  0
 18 47  1  0  0  0  0
 19  5  1  0  0  0  0
 19 23  1  0  0  0  0
 19 48  1  1  0  0  0
 20 28  1  0  0  0  0
 20 49  1  6  0  0  0
 21 50  1  0  0  0  0
 21 51  1  0  0  0  0
 22 52  1  0  0  0  0
 22 53  1  0  0  0  0
 23 54  1  1  0  0  0
 23  2  1  0  0  0  0
 24 29  1  0  0  0  0
 24 55  1  0  0  0  0
 24 56  1  0  0  0  0
 25 30  1  0  0  0  0
 25 57  1  0  0  0  0
 25 58  1  0  0  0  0
 26 31  1  0  0  0  0
 26 59  1  0  0  0  0
 26 60  1  0  0  0  0
 27 32  1  0  0  0  0
 27 61  1  0  0  0  0
 27 62  1  0  0  0  0
 28 63  1  0  0  0  0
 28 64  1  0  0  0  0
 29 65  1  0  0  0  0
 29 66  1  0  0  0  0
 30 67  1  0  0  0  0
 30 68  1  0  0  0  0
 31 69  1  0  0  0  0
 31 70  1  0  0  0  0
 32 71  1  0  0  0  0
 32 72  1  0  0  0  0
 33 35  1  0  0  0  0
 34 36  2  0  0  0  0
 34 37  1  0  0  0  0
 35 36  1  0  0  0  0
 35 38  2  0  0  0  0
 36 73  1  0  0  0  0
 37 39  2  0  0  0  0
 37 74  1  0  0  0  0
 38 39  1  0  0  0  0
 38 75  1  0  0  0  0
M  CHG  2  10  -1  15   1
M  END
>  <DRUGBANK_ID>
DB04040

>  <SECONDARY_ACCESSION_NUMBERS>
EXPT00072

>  <COMMON_NAME>
N-[1,3-Di(4-morpholinyl)-2-propanyl]-3-(Î±-D-galactopyranosyloxy)-5-nitrobenzamide

$$$$
