
 OpenBabel10282417203D

 18 18  0  0  0  0  0  0  0  0999 V2000
   -0.6778   -1.1966    0.0074 C   0  0  0  0  0  0  0  0  0  0  0  0
    0.7201   -1.1877    0.0024 C   0  0  0  0  0  0  0  0  0  0  0  0
   -0.6846    1.2228    0.0065 C   0  0  0  0  0  0  0  0  0  0  0  0
   -1.3689    0.0105   -0.0007 C   0  0  0  0  0  0  0  0  0  0  0  0
    1.4186    0.0236   -0.0022 C   0  0  0  0  0  0  0  0  0  0  0  0
    0.7194    1.2292    0.0127 C   0  0  0  0  0  0  0  0  0  0  0  0
   -2.7315    0.0507   -0.0162 O   0  0  0  0  0  0  0  0  0  0  0  0
    2.7781   -0.0012   -0.0287 O   0  0  0  0  0  0  0  0  0  0  0  0
    0.9784    3.5363   -1.2809 O   0  0  0  0  0  0  0  0  0  0  0  0
    1.0242    3.5286    1.1980 O   0  0  0  0  0  0  0  0  0  0  0  0
    2.9563    2.6586   -0.1739 O   0  0  0  0  0  0  0  0  0  0  0  0
    1.5374    2.8063    0.0511 S   0  0  0  0  0  0  0  0  0  0  0  0
   -1.2023   -2.1480    0.0182 H   0  0  0  0  0  0  0  0  0  0  0  0
    1.2518   -2.1354    0.0037 H   0  0  0  0  0  0  0  0  0  0  0  0
   -1.2476    2.1543    0.0213 H   0  0  0  0  0  0  0  0  0  0  0  0
   -3.0875   -0.8539   -0.0174 H   0  0  0  0  0  0  0  0  0  0  0  0
    3.1140   -0.9117   -0.0077 H   0  0  0  0  0  0  0  0  0  0  0  0
    1.4550    3.1732   -2.0558 H   0  0  0  0  0  0  0  0  0  0  0  0
  1 13  1  0  0  0  0
  2  1  2  0  0  0  0
  2 14  1  0  0  0  0
  3 15  1  0  0  0  0
  4  1  1  0  0  0  0
  4  3  2  0  0  0  0
  5  2  1  0  0  0  0
  6  3  1  0  0  0  0
  6  5  2  0  0  0  0
  7  4  1  0  0  0  0
  7 16  1  0  0  0  0
  8  5  1  0  0  0  0
  8 17  1  0  0  0  0
  9 18  1  0  0  0  0
 12  6  1  0  0  0  0
 12  9  1  0  0  0  0
 12 10  2  0  0  0  0
 12 11  2  0  0  0  0
M  END
>  <DRUGBANK_ID>
DB13529

>  <COMMON_NAME>
Dobesilic acid

>  <CAS_NUMBER>
88-46-0

>  <UNII>
TO0PAT081I

$$$$
