
 OpenBabel10282417133D

 33 35  0  0  1  0  0  0  0  0999 V2000
    1.0717   -0.1715    0.0070 C   0  0  0  0  0  0  0  0  0  0  0  0
   -2.7333   -6.0908   -3.8622 C   0  0  0  0  0  0  0  0  0  0  0  0
    0.0890   -5.0464   -0.6908 C   0  0  0  0  0  0  0  0  0  0  0  0
    0.5486   -0.9329   -1.2167 C   0  0  2  0  0  0  0  0  0  0  0  0
   -1.4421   -2.0542   -2.0362 C   0  0  2  0  0  0  0  0  0  0  0  0
   -1.2204   -6.4033   -1.6948 C   0  0  0  0  0  0  0  0  0  0  0  0
   -0.9473   -0.7296   -1.4239 C   0  0  2  0  0  0  0  0  0  0  0  0
   -2.0116   -7.4748   -2.1517 C   0  0  0  0  0  0  0  0  0  0  0  0
   -1.2812   -5.2169   -2.4167 C   0  0  0  0  0  0  0  0  0  0  0  0
   -0.1877   -2.9523   -2.0684 C   0  0  2  0  0  0  0  0  0  0  0  0
   -2.0563   -1.8622   -3.3621 N   0  0  0  0  0  0  0  0  0  0  0  0
   -2.0479   -8.6980   -1.5179 N   0  0  0  0  0  0  0  0  0  0  0  0
   -2.7737   -7.2954   -3.2516 N   0  0  0  0  0  0  0  0  0  0  0  0
   -2.0165   -4.9985   -3.5176 N   0  0  0  0  0  0  0  0  0  0  0  0
   -0.3611   -6.2831   -0.6248 N   0  0  0  0  0  0  0  0  0  0  0  0
   -0.4506   -4.3483   -1.7396 N   0  0  0  0  0  0  0  0  0  0  0  0
    0.5826   -0.7456    1.2128 O   0  0  0  0  0  0  0  0  0  0  0  0
   -1.1826    0.3755   -2.3091 O   0  0  0  0  0  0  0  0  0  0  0  0
    0.7445   -2.3566   -1.1121 O   0  0  0  0  0  0  0  0  0  0  0  0
    1.1020   -0.5715   -2.0931 H   0  0  0  0  0  0  0  0  0  0  0  0
   -2.1844   -2.4933   -1.3561 H   0  0  0  0  0  0  0  0  0  0  0  0
   -1.4844   -0.5296   -0.4891 H   0  0  0  0  0  0  0  0  0  0  0  0
    0.3073   -2.9405   -3.0482 H   0  0  0  0  0  0  0  0  0  0  0  0
    0.7502    0.8769   -0.0209 H   0  0  0  0  0  0  0  0  0  0  0  0
    2.1653   -0.1822    0.0461 H   0  0  0  0  0  0  0  0  0  0  0  0
   -3.3635   -5.9931   -4.7420 H   0  0  0  0  0  0  0  0  0  0  0  0
    0.7998   -4.6079   -0.0054 H   0  0  0  0  0  0  0  0  0  0  0  0
   -1.8031   -0.9193   -3.6786 H   0  0  0  0  0  0  0  0  0  0  0  0
   -3.0693   -1.8290   -3.2525 H   0  0  0  0  0  0  0  0  0  0  0  0
   -1.4649   -8.8408   -0.7067 H   0  0  0  0  0  0  0  0  0  0  0  0
   -2.6220   -9.4283   -1.9068 H   0  0  0  0  0  0  0  0  0  0  0  0
    0.9223   -1.6599    1.2332 H   0  0  0  0  0  0  0  0  0  0  0  0
   -0.7206    1.1530   -1.9482 H   0  0  0  0  0  0  0  0  0  0  0  0
  1 24  1  0  0  0  0
  1 25  1  0  0  0  0
  2 26  1  0  0  0  0
  3 27  1  0  0  0  0
  4  1  1  0  0  0  0
  4 20  1  6  0  0  0
  5 21  1  1  0  0  0
  5 11  1  0  0  0  0
  7  4  1  0  0  0  0
  7  5  1  0  0  0  0
  7 22  1  1  0  0  0
  7 18  1  0  0  0  0
  8  6  2  0  0  0  0
  9  6  1  0  0  0  0
 10  5  1  0  0  0  0
 10 16  1  0  0  0  0
 10 23  1  6  0  0  0
 11 28  1  0  0  0  0
 11 29  1  0  0  0  0
 12  8  1  0  0  0  0
 12 30  1  0  0  0  0
 12 31  1  0  0  0  0
 13  2  2  0  0  0  0
 13  8  1  0  0  0  0
 14  2  1  0  0  0  0
 14  9  2  0  0  0  0
 15  3  2  0  0  0  0
 15  6  1  0  0  0  0
 16  3  1  0  0  0  0
 16  9  1  0  0  0  0
 17  1  1  0  0  0  0
 17 32  1  0  0  0  0
 18 33  1  0  0  0  0
 19  4  1  0  0  0  0
 19 10  1  0  0  0  0
M  END
>  <DRUGBANK_ID>
DB04102

>  <SECONDARY_ACCESSION_NUMBERS>
EXPT00101

>  <COMMON_NAME>
2-Amino-Adenosine

$$$$
