1025
 OpenBabel10282417113D

 36 38  0  0  0  0  0  0  0  0999 V2000
    0.0656    1.3881   -0.0017 O   0  0  0  0  0  0  0  0  0  0  0  0
    0.0397   -2.6959    0.0007 O   0  0  0  0  0  0  0  0  0  0  0  0
    4.9943   -2.7427   -0.0009 O   0  0  0  0  0  0  0  0  0  0  0  0
    6.0494   -0.7747   -0.0017 O   0  0  0  0  0  0  0  0  0  0  0  0
    2.3973    1.3785   -0.0006 N   0  0  0  0  0  0  0  0  0  0  0  0
    4.7163    1.4867    0.0010 N   0  0  0  0  0  0  0  0  0  0  0  0
   -4.9052   -1.4462   -0.0058 C   0  0  0  0  0  0  0  0  0  0  0  0
   -3.6019   -0.6769   -0.0007 C   0  0  0  0  0  0  0  0  0  0  0  0
   -1.1925   -0.6951   -0.0005 C   0  0  0  0  0  0  0  0  0  0  0  0
   -2.3994   -1.3791   -0.0010 C   0  0  0  0  0  0  0  0  0  0  0  0
   -1.1275    0.6931   -0.0009 C   0  0  0  0  0  0  0  0  0  0  0  0
   -3.5594    0.7247    0.0018 C   0  0  0  0  0  0  0  0  0  0  0  0
    1.2732   -0.7204    0.0003 C   0  0  0  0  0  0  0  0  0  0  0  0
    0.0345   -1.4692    0.0001 C   0  0  0  0  0  0  0  0  0  0  0  0
   -5.0070   -2.3100   -1.2675 C   0  0  0  0  0  0  0  0  0  0  0  0
   -5.0127   -2.3193    1.2486 C   0  0  0  0  0  0  0  0  0  0  0  0
   -2.3286    1.4079   -0.0001 C   0  0  0  0  0  0  0  0  0  0  0  0
    1.2489    0.6602   -0.0006 C   0  0  0  0  0  0  0  0  0  0  0  0
    2.4765   -1.4166    0.0009 C   0  0  0  0  0  0  0  0  0  0  0  0
    3.6671   -0.7057    0.0002 C   0  0  0  0  0  0  0  0  0  0  0  0
    3.5844    0.7028   -0.0002 C   0  0  0  0  0  0  0  0  0  0  0  0
    4.9938   -1.3922   -0.0007 C   0  0  0  0  0  0  0  0  0  0  0  0
    4.1598   -3.2395   -0.0005 H   0  0  0  0  0  0  0  0  0  0  0  0
    5.6287    1.0292   -0.0008 H   0  0  0  0  0  0  0  0  0  0  0  0
    4.6448    2.4904   -0.0003 H   0  0  0  0  0  0  0  0  0  0  0  0
   -5.7429   -0.7384   -0.0052 H   0  0  0  0  0  0  0  0  0  0  0  0
   -2.3908   -2.4677   -0.0021 H   0  0  0  0  0  0  0  0  0  0  0  0
   -4.4879    1.2939    0.0048 H   0  0  0  0  0  0  0  0  0  0  0  0
   -4.2105   -3.0623   -1.3146 H   0  0  0  0  0  0  0  0  0  0  0  0
   -5.9615   -2.8434   -1.2963 H   0  0  0  0  0  0  0  0  0  0  0  0
   -4.9275   -1.6939   -2.1700 H   0  0  0  0  0  0  0  0  0  0  0  0
   -4.9372   -1.7100    2.1560 H   0  0  0  0  0  0  0  0  0  0  0  0
   -5.9673   -2.8528    1.2690 H   0  0  0  0  0  0  0  0  0  0  0  0
   -4.2165   -3.0721    1.2935 H   0  0  0  0  0  0  0  0  0  0  0  0
   -2.3271    2.4956   -0.0012 H   0  0  0  0  0  0  0  0  0  0  0  0
    2.4271   -2.4975    0.0017 H   0  0  0  0  0  0  0  0  0  0  0  0
  1 11  1  0  0  0  0
  1 18  1  0  0  0  0
  2 14  2  0  0  0  0
  3 22  1  0  0  0  0
  3 23  1  0  0  0  0
  4 22  2  0  0  0  0
  5 18  2  0  0  0  0
  5 21  1  0  0  0  0
  6 21  1  0  0  0  0
  6 24  1  0  0  0  0
  6 25  1  0  0  0  0
  7  8  1  0  0  0  0
  7 15  1  0  0  0  0
  7 16  1  0  0  0  0
  7 26  1  0  0  0  0
  8 10  2  0  0  0  0
  8 12  1  0  0  0  0
  9 10  1  0  0  0  0
  9 11  2  0  0  0  0
  9 14  1  0  0  0  0
 10 27  1  0  0  0  0
 11 17  1  0  0  0  0
 12 17  2  0  0  0  0
 12 28  1  0  0  0  0
 13 14  1  0  0  0  0
 13 18  1  0  0  0  0
 13 19  2  0  0  0  0
 15 29  1  0  0  0  0
 15 30  1  0  0  0  0
 15 31  1  0  0  0  0
 16 32  1  0  0  0  0
 16 33  1  0  0  0  0
 16 34  1  0  0  0  0
 17 35  1  0  0  0  0
 19 20  1  0  0  0  0
 19 36  1  0  0  0  0
 20 21  2  0  0  0  0
 20 22  1  0  0  0  0
M  END
>  <DRUGBANK_ID>
DB01025

>  <SECONDARY_ACCESSION_NUMBERS>
APRD00795

>  <COMMON_NAME>
Amlexanox

>  <CAS_NUMBER>
68302-57-8

>  <UNII>
BRL1C2459K

>  <SYNONYMS>
2-Amino-7-isopropyl-5-oxo-5H-(1)benzopyrano(2,3-b)pyridine-3-carboxylic acid; Amlexanox; Amlexanoxo; Amlexanoxum; Amoxanox

$$$$
