CVB
 OpenBabel10282417123D

 23 23  0  0  0  0  0  0  0  0999 V2000
    0.9575   -0.0507    0.0750 B   0  0  0  0  0  0  0  0  0  0  0  0
    0.2075   -1.3493    0.0402 O   0  0  0  0  0  0  0  0  0  0  0  0
    0.2075    1.2479    0.1098 O   0  0  0  0  0  0  0  0  0  0  0  0
    2.5575   -0.0507    0.0750 C   0  0  0  0  0  0  0  0  0  0  0  0
    3.2089    1.1060    0.1060 C   0  0  0  0  0  0  0  0  0  0  0  0
    4.5736    1.1362    0.2623 C   0  0  0  0  0  0  0  0  0  0  0  0
    5.3030   -0.0197    0.2978 C   0  0  0  0  0  0  0  0  0  0  0  0
    6.8230   -0.0081    0.2898 C   0  0  0  0  0  0  0  0  0  0  0  0
    7.5123   -1.1804    0.3261 C   0  0  0  0  0  0  0  0  0  0  0  0
    9.0323   -1.1688    0.3182 C   0  0  0  0  0  0  0  0  0  0  0  0
    9.7518   -2.3924    0.3560 O   0  0  0  0  0  0  0  0  0  0  0  0
    9.6591   -0.0640    0.2776 O   0  0  0  0  0  0  0  0  0  0  0  0
    4.6160   -1.1468    0.3393 C   0  0  0  0  0  0  0  0  0  0  0  0
    3.2369   -1.2573    0.0427 C   0  0  0  0  0  0  0  0  0  0  0  0
    0.8573   -2.1091    0.0198 H   0  0  0  0  0  0  0  0  0  0  0  0
   -0.7757    1.0652    0.1049 H   0  0  0  0  0  0  0  0  0  0  0  0
    2.6660    2.0229    0.0084 H   0  0  0  0  0  0  0  0  0  0  0  0
    5.0727    2.0778    0.3576 H   0  0  0  0  0  0  0  0  0  0  0  0
    7.3507    0.9221    0.2557 H   0  0  0  0  0  0  0  0  0  0  0  0
    6.9846   -2.1105    0.3602 H   0  0  0  0  0  0  0  0  0  0  0  0
    9.2586   -3.2617    0.3879 H   0  0  0  0  0  0  0  0  0  0  0  0
    5.1385   -2.0383    0.6166 H   0  0  0  0  0  0  0  0  0  0  0  0
    2.7620   -2.1885   -0.1859 H   0  0  0  0  0  0  0  0  0  0  0  0
  1  2  1  0  0  0  0
  1  3  1  0  0  0  0
  1  4  1  0  0  0  0
  2 15  1  0  0  0  0
  3 16  1  0  0  0  0
  4  5  2  0  0  0  0
  4 14  1  0  0  0  0
  5  6  1  0  0  0  0
  5 17  1  0  0  0  0
  6  7  2  0  0  0  0
  6 18  1  0  0  0  0
  7  8  1  0  0  0  0
  7 13  1  0  0  0  0
  8  9  2  0  0  0  0
  8 19  1  0  0  0  0
  9 10  1  0  0  0  0
  9 20  1  0  0  0  0
 10 11  1  0  0  0  0
 10 12  2  0  0  0  0
 11 21  1  0  0  0  0
 13 14  2  0  0  0  0
 13 22  1  0  0  0  0
 14 23  1  0  0  0  0
M  END
>  <DRUGBANK_ID>
DB02503

>  <SECONDARY_ACCESSION_NUMBERS>
EXPT01061

>  <COMMON_NAME>
4-(Carboxyvin-2-Yl)Phenylboronic Acid

$$$$
