
 OpenBabel10282417133D

 87 92  0  0  0  0  0  0  0  0999 V2000
   -5.7766   -2.4936    2.9536 C   0  0  0  0  0  0  0  0  0  0  0  0
   -4.8561   -1.7292    2.0868 C   0  0  1  0  0  0  0  0  0  0  0  0
   -5.4166   -0.1877    1.2297 C   0  0  1  0  0  0  0  0  0  0  0  0
   -4.8163    0.8632    2.0421 C   0  0  0  0  0  0  0  0  0  0  0  0
   -3.3401    1.9528    3.2876 C   0  0  2  0  0  0  0  0  0  0  0  0
   -3.4536    2.8945    2.3824 C   0  0  0  0  0  0  0  0  0  0  0  0
   -3.6731    2.1344    0.5681 N   0  0  0  0  0  0  0  0  0  0  0  0
   -3.1026    4.0186    2.8770 O   0  0  0  0  0  0  0  0  0  0  0  0
   -1.7165    0.8344    3.4475 O   0  0  0  0  0  0  0  0  0  0  0  0
   -1.4565   -0.3417    1.9147 C   0  0  0  0  0  0  0  0  0  0  0  0
   -2.3449   -1.1347    0.8373 C   0  0  0  0  0  0  0  0  0  0  0  0
   -5.0605   -2.5838   -0.7416 C   0  0  0  0  0  0  0  0  0  0  0  0
   -4.9361   -1.3539   -0.5489 C   0  0  0  0  0  0  0  0  0  0  0  0
   -3.5028   -0.8118    0.2960 C   0  0  0  0  0  0  0  0  0  0  0  0
   -2.4902   -2.3551    0.4185 C   0  0  0  0  0  0  0  0  0  0  0  0
   -3.7549   -2.9425   -0.4105 C   0  0  0  0  0  0  0  0  0  0  0  0
   -4.9234    0.6483   -0.2826 O   0  0  0  0  0  0  0  0  0  0  0  0
   -3.1162   -0.9467    3.6796 C   0  0  0  0  0  0  0  0  0  0  0  0
   -3.4674    0.4103    3.0102 C   0  0  0  0  0  0  0  0  0  0  0  0
   -2.2463    1.5374    1.8189 C   0  0  0  0  0  0  0  0  0  0  0  0
   -2.3513    3.3142    1.0355 C   0  0  0  0  0  0  0  0  0  0  0  0
   -4.2255    3.8998    1.0994 C   0  0  0  0  0  0  0  0  0  0  0  0
   -5.4045    2.9619    2.3141 C   0  0  0  0  0  0  0  0  0  0  0  0
   -5.0445    1.5233    3.6015 C   0  0  0  0  0  0  0  0  0  0  0  0
   -3.5723   -1.8948    2.7777 O   0  0  0  0  0  0  0  0  0  0  0  0
   -5.8978   -2.0759    4.1138 O   0  0  0  0  0  0  0  0  0  0  0  0
   -6.3505   -3.7275    2.4790 N   0  0  0  0  0  0  0  0  0  0  0  0
   -6.0435   -4.7209    1.1924 C   0  0  2  0  0  0  0  0  0  0  0  0
   -5.2797   -5.6081   -1.0926 C   0  0  0  0  0  0  0  0  0  0  0  0
   -6.4211   -6.0100   -0.1196 C   0  0  1  0  0  0  0  0  0  0  0  0
   -5.9953   -7.3982    0.1307 O   0  0  0  0  0  0  0  0  0  0  0  0
   -4.2179   -5.6787   -0.0167 C   0  0  0  0  0  0  0  0  0  0  0  0
   -2.2371   -4.9995    1.8250 C   0  0  0  0  0  0  0  0  0  0  0  0
   -1.9123   -5.6427    0.6378 C   0  0  0  0  0  0  0  0  0  0  0  0
   -2.8989   -5.9995   -0.2790 C   0  0  0  0  0  0  0  0  0  0  0  0
   -4.5875   -5.0642    1.1962 C   0  0  0  0  0  0  0  0  0  0  0  0
   -3.5705   -4.6787    2.0691 C   0  0  0  0  0  0  0  0  0  0  0  0
   -3.2450    2.9114   -1.0194 C   0  0  2  0  0  0  0  0  0  0  0  0
   -4.5658    2.7498   -2.2161 C   0  0  1  0  0  0  0  0  0  0  0  0
   -3.7606    2.8508   -3.4795 C   0  0  0  0  0  0  0  0  0  0  0  0
   -2.6090    2.0012   -3.0861 C   0  0  0  0  0  0  0  0  0  0  0  0
   -2.1255    2.1966   -1.8051 C   0  0  0  0  0  0  0  0  0  0  0  0
   -0.8623    1.7124   -1.4668 C   0  0  0  0  0  0  0  0  0  0  0  0
   -0.3591    0.6614   -2.2313 C   0  0  0  0  0  0  0  0  0  0  0  0
   -1.0117    0.2898   -3.4064 C   0  0  0  0  0  0  0  0  0  0  0  0
   -2.1350    0.9705   -3.8372 C   0  0  0  0  0  0  0  0  0  0  0  0
   -5.3857    1.5507   -2.2804 O   0  0  0  0  0  0  0  0  0  0  0  0
   -4.7458   -2.4696    1.3809 H   0  0  0  0  0  0  0  0  0  0  0  0
   -6.5401   -0.1450    1.1123 H   0  0  0  0  0  0  0  0  0  0  0  0
   -5.8435    1.1783    1.9288 H   0  0  0  0  0  0  0  0  0  0  0  0
   -5.1996   -0.1088    2.9737 H   0  0  0  0  0  0  0  0  0  0  0  0
   -3.4708    2.3398    4.3547 H   0  0  0  0  0  0  0  0  0  0  0  0
   -4.4504    1.6877    0.1671 H   0  0  0  0  0  0  0  0  0  0  0  0
   -1.1772    0.2768    0.9949 H   0  0  0  0  0  0  0  0  0  0  0  0
   -0.5976   -0.9074    2.1734 H   0  0  0  0  0  0  0  0  0  0  0  0
   -6.1026   -2.9295   -0.7292 H   0  0  0  0  0  0  0  0  0  0  0  0
   -6.0186   -0.8504   -0.5688 H   0  0  0  0  0  0  0  0  0  0  0  0
   -3.5433    0.0968    0.8589 H   0  0  0  0  0  0  0  0  0  0  0  0
   -2.0096   -2.9351    1.1910 H   0  0  0  0  0  0  0  0  0  0  0  0
   -3.5777   -3.9331   -0.3861 H   0  0  0  0  0  0  0  0  0  0  0  0
   -3.8606    0.6049   -0.6012 H   0  0  0  0  0  0  0  0  0  0  0  0
   -3.6374   -1.1295    4.5893 H   0  0  0  0  0  0  0  0  0  0  0  0
   -2.0234   -1.1495    3.8329 H   0  0  0  0  0  0  0  0  0  0  0  0
   -1.0462    1.6560    2.0780 H   0  0  0  0  0  0  0  0  0  0  0  0
   -1.4423    3.8989    0.9732 H   0  0  0  0  0  0  0  0  0  0  0  0
   -4.5848    4.8197    0.7229 H   0  0  0  0  0  0  0  0  0  0  0  0
   -6.2765    2.6209    1.5342 H   0  0  0  0  0  0  0  0  0  0  0  0
   -6.0800    0.9822    3.8269 H   0  0  0  0  0  0  0  0  0  0  0  0
   -6.8054   -4.0565    3.3103 H   0  0  0  0  0  0  0  0  0  0  0  0
   -6.4959   -3.9518    0.5842 H   0  0  0  0  0  0  0  0  0  0  0  0
   -5.5175   -4.6371   -1.5565 H   0  0  0  0  0  0  0  0  0  0  0  0
   -4.9514   -6.2080   -1.9500 H   0  0  0  0  0  0  0  0  0  0  0  0
   -7.2452   -6.0440   -0.8759 H   0  0  0  0  0  0  0  0  0  0  0  0
   -6.6921   -8.0665    0.1460 H   0  0  0  0  0  0  0  0  0  0  0  0
   -1.4642   -4.5864    2.4777 H   0  0  0  0  0  0  0  0  0  0  0  0
   -0.8786   -5.8334    0.4014 H   0  0  0  0  0  0  0  0  0  0  0  0
   -2.6681   -6.4560   -1.2248 H   0  0  0  0  0  0  0  0  0  0  0  0
   -3.7100   -3.9012    2.8005 H   0  0  0  0  0  0  0  0  0  0  0  0
   -2.6774    3.8908   -0.8926 H   0  0  0  0  0  0  0  0  0  0  0  0
   -5.3702    3.4967   -2.3467 H   0  0  0  0  0  0  0  0  0  0  0  0
   -3.4586    3.8963   -3.6095 H   0  0  0  0  0  0  0  0  0  0  0  0
   -4.2274    2.4787   -4.3914 H   0  0  0  0  0  0  0  0  0  0  0  0
   -0.2625    2.0648   -0.6315 H   0  0  0  0  0  0  0  0  0  0  0  0
    0.5069    0.0937   -1.8978 H   0  0  0  0  0  0  0  0  0  0  0  0
   -0.6268   -0.5020   -4.0312 H   0  0  0  0  0  0  0  0  0  0  0  0
   -2.6922    0.6865   -4.7150 H   0  0  0  0  0  0  0  0  0  0  0  0
   -5.0066    0.7561   -2.7017 H   0  0  0  0  0  0  0  0  0  0  0  0
  1 27  1  0  0  0  0
  1  2  1  0  0  0  0
  1 26  2  0  0  0  0
  2  3  1  0  0  0  0
  2 25  1  0  0  0  0
  2 48  1  6  0  0  0
  3  4  1  0  0  0  0
  3 17  1  0  0  0  0
  3 49  1  1  0  0  0
  4 50  1  0  0  0  0
  4 51  1  0  0  0  0
  5  9  1  0  0  0  0
  5 52  1  1  0  0  0
  5  6  1  0  0  0  0
  5  4  1  0  0  0  0
  6  7  1  0  0  0  0
  6  8  2  0  0  0  0
  7 53  1  0  0  0  0
  9 10  1  0  0  0  0
 10 11  1  0  0  0  0
 10 54  1  0  0  0  0
 10 55  1  0  0  0  0
 11 14  2  0  0  0  0
 11 15  1  0  0  0  0
 12 13  2  0  0  0  0
 12 16  1  0  0  0  0
 12 56  1  0  0  0  0
 13 14  1  0  0  0  0
 13 57  1  0  0  0  0
 14 58  1  0  0  0  0
 15 16  2  0  0  0  0
 15 59  1  0  0  0  0
 16 60  1  0  0  0  0
 17 61  1  0  0  0  0
 18 25  1  0  0  0  0
 18 19  1  0  0  0  0
 18 62  1  0  0  0  0
 18 63  1  0  0  0  0
 19 20  2  0  0  0  0
 19 24  1  0  0  0  0
 20 21  1  0  0  0  0
 20 64  1  0  0  0  0
 21 22  2  0  0  0  0
 21 65  1  0  0  0  0
 22 23  1  0  0  0  0
 22 66  1  0  0  0  0
 23 24  2  0  0  0  0
 23 67  1  0  0  0  0
 24 68  1  0  0  0  0
 27 69  1  0  0  0  0
 28 30  1  0  0  0  0
 28 36  1  0  0  0  0
 28 70  1  6  0  0  0
 28 27  1  0  0  0  0
 29 32  1  0  0  0  0
 29 30  1  0  0  0  0
 29 71  1  0  0  0  0
 29 72  1  0  0  0  0
 30 73  1  6  0  0  0
 30 31  1  0  0  0  0
 31 74  1  0  0  0  0
 32 35  2  0  0  0  0
 32 36  1  0  0  0  0
 33 34  2  0  0  0  0
 33 37  1  0  0  0  0
 33 75  1  0  0  0  0
 34 35  1  0  0  0  0
 34 76  1  0  0  0  0
 35 77  1  0  0  0  0
 36 37  2  0  0  0  0
 37 78  1  0  0  0  0
 38 39  1  0  0  0  0
 38 42  1  0  0  0  0
 38 79  1  1  0  0  0
 38  7  1  0  0  0  0
 39 40  1  0  0  0  0
 39 80  1  1  0  0  0
 39 47  1  0  0  0  0
 40 41  1  0  0  0  0
 40 81  1  0  0  0  0
 40 82  1  0  0  0  0
 41 46  2  0  0  0  0
 41 42  1  0  0  0  0
 42 43  2  0  0  0  0
 43 44  1  0  0  0  0
 43 83  1  0  0  0  0
 44 45  2  0  0  0  0
 44 84  1  0  0  0  0
 45 46  1  0  0  0  0
 45 85  1  0  0  0  0
 46 86  1  0  0  0  0
 47 87  1  0  0  0  0
M  END
>  <DRUGBANK_ID>
DB04190

>  <SECONDARY_ACCESSION_NUMBERS>
EXPT00664

>  <COMMON_NAME>
2,5-dibenzyloxy-3-hydroxy-hexanedioic acid bis-[(2-hydroxy-indan-1-yl)-amide]

$$$$
