
 OpenBabel10282417233D

 65 69  0  0  0  0  0  0  0  0999 V2000
    0.9252   -0.0330   -0.0476 C   0  0  0  0  0  0  0  0  0  0  0  0
    0.4795    1.1500    0.7936 C   0  0  0  0  0  0  0  0  0  0  0  0
    0.9336    2.4903    0.2697 C   0  0  0  0  0  0  0  0  0  0  0  0
    1.9097    2.6698   -0.7082 C   0  0  0  0  0  0  0  0  0  0  0  0
    2.2206    3.9540   -1.1716 C   0  0  0  0  0  0  0  0  0  0  0  0
    3.1678    4.0371   -2.1272 F   0  0  0  0  0  0  0  0  0  0  0  0
    1.6041    5.1170   -0.6990 C   0  0  0  0  0  0  0  0  0  0  0  0
    1.9066    6.3565   -1.1658 N   0  0  0  0  0  0  0  0  0  0  0  0
    1.3461    7.4625   -0.6106 C   0  0  0  0  0  0  0  0  0  0  0  0
    1.8323    8.6833   -1.0114 N   0  0  0  0  0  0  0  0  0  0  0  0
    2.4156    9.6594   -0.1008 C   0  0  0  0  0  0  0  0  0  0  0  0
    1.5815   10.9397   -0.0905 C   0  0  0  0  0  0  0  0  0  0  0  0
    1.3361   11.4656   -1.4993 C   0  0  0  0  0  0  0  0  0  0  0  0
    1.0027   10.3336   -2.4839 C   0  0  0  0  0  0  0  0  0  0  0  0
    1.8196    9.0658   -2.3958 C   0  0  0  0  0  0  0  0  0  0  0  0
    0.3012   12.5364   -1.4594 N   0  0  0  0  0  0  0  0  0  0  0  0
    0.0422   13.2283   -2.7385 C   0  0  0  0  0  0  0  0  0  0  0  0
   -0.7025   12.3763   -3.7817 C   0  0  0  0  0  0  0  0  0  0  0  0
   -0.5728   12.8591   -5.2074 C   0  0  0  0  0  0  0  0  0  0  0  0
    0.7572   13.2798   -5.4993 O   0  0  0  0  0  0  0  0  0  0  0  0
    1.1655   14.3682   -4.6773 C   0  0  0  0  0  0  0  0  0  0  0  0
    1.3191   13.9039   -3.2481 C   0  0  0  0  0  0  0  0  0  0  0  0
    0.3641    7.3428    0.3876 C   0  0  0  0  0  0  0  0  0  0  0  0
   -0.2380    8.4981    1.0111 C   0  0  0  0  0  0  0  0  0  0  0  0
   -0.1187    8.8952    2.2597 N   0  0  0  0  0  0  0  0  0  0  0  0
   -0.9457    9.9792    2.3011 C   0  0  0  0  0  0  0  0  0  0  0  0
   -1.0641   10.7770    3.5325 C   0  0  0  0  0  0  0  0  0  0  0  0
   -1.5924   10.2530    1.1574 N   0  0  0  0  0  0  0  0  0  0  0  0
   -1.1224    9.2467    0.2839 O   0  0  0  0  0  0  0  0  0  0  0  0
    0.0067    6.0667    0.8551 C   0  0  0  0  0  0  0  0  0  0  0  0
   -1.0326    5.9042    1.9448 C   0  0  0  0  0  0  0  0  0  0  0  0
    0.6423    4.9326    0.3240 C   0  0  0  0  0  0  0  0  0  0  0  0
    0.3382    3.6353    0.7879 C   0  0  0  0  0  0  0  0  0  0  0  0
    0.5791    0.0790   -1.0810 H   0  0  0  0  0  0  0  0  0  0  0  0
    0.5204   -0.9671    0.3499 H   0  0  0  0  0  0  0  0  0  0  0  0
    2.0166   -0.1153   -0.0546 H   0  0  0  0  0  0  0  0  0  0  0  0
   -0.6193    1.1450    0.8283 H   0  0  0  0  0  0  0  0  0  0  0  0
    0.8336    1.0255    1.8247 H   0  0  0  0  0  0  0  0  0  0  0  0
    2.4379    1.8292   -1.1454 H   0  0  0  0  0  0  0  0  0  0  0  0
    3.4214    9.9086   -0.4612 H   0  0  0  0  0  0  0  0  0  0  0  0
    2.5301    9.2539    0.9070 H   0  0  0  0  0  0  0  0  0  0  0  0
    2.0585   11.6990    0.5384 H   0  0  0  0  0  0  0  0  0  0  0  0
    0.6231   10.7679    0.3664 H   0  0  0  0  0  0  0  0  0  0  0  0
    2.2931   11.9032   -1.7900 H   0  0  0  0  0  0  0  0  0  0  0  0
   -0.0604   10.0653   -2.3784 H   0  0  0  0  0  0  0  0  0  0  0  0
    1.2422   10.6877   -3.4878 H   0  0  0  0  0  0  0  0  0  0  0  0
    1.3764    8.3225   -3.0721 H   0  0  0  0  0  0  0  0  0  0  0  0
    2.8292    9.2842   -2.7607 H   0  0  0  0  0  0  0  0  0  0  0  0
   -0.5763   12.1593   -1.0903 H   0  0  0  0  0  0  0  0  0  0  0  0
   -0.6522   14.0509   -2.5066 H   0  0  0  0  0  0  0  0  0  0  0  0
   -0.3099   11.3844   -3.8815 H   0  0  0  0  0  0  0  0  0  0  0  0
   -1.7347   12.1779   -3.4736 H   0  0  0  0  0  0  0  0  0  0  0  0
   -0.7821   12.0109   -5.8721 H   0  0  0  0  0  0  0  0  0  0  0  0
   -1.2870   13.6515   -5.4309 H   0  0  0  0  0  0  0  0  0  0  0  0
    0.4484   15.1891   -4.7625 H   0  0  0  0  0  0  0  0  0  0  0  0
    2.1358   14.7192   -5.0425 H   0  0  0  0  0  0  0  0  0  0  0  0
    1.5902   14.7439   -2.5944 H   0  0  0  0  0  0  0  0  0  0  0  0
    2.1664   13.2143   -3.2373 H   0  0  0  0  0  0  0  0  0  0  0  0
   -1.4911   10.1600    4.3291 H   0  0  0  0  0  0  0  0  0  0  0  0
   -0.0726   11.1088    3.8606 H   0  0  0  0  0  0  0  0  0  0  0  0
   -1.6938   11.6586    3.3949 H   0  0  0  0  0  0  0  0  0  0  0  0
   -1.8533    5.2789    1.5816 H   0  0  0  0  0  0  0  0  0  0  0  0
   -0.5712    5.4554    2.8301 H   0  0  0  0  0  0  0  0  0  0  0  0
   -1.4958    6.8360    2.2697 H   0  0  0  0  0  0  0  0  0  0  0  0
   -0.4033    3.4973    1.5765 H   0  0  0  0  0  0  0  0  0  0  0  0
  1  2  1  0  0  0  0
  1 34  1  0  0  0  0
  1 35  1  0  0  0  0
  1 36  1  0  0  0  0
  2  3  1  0  0  0  0
  2 37  1  0  0  0  0
  2 38  1  0  0  0  0
  3  4  2  0  0  0  0
  3 33  1  0  0  0  0
  4  5  1  0  0  0  0
  4 39  1  0  0  0  0
  5  6  1  0  0  0  0
  5  7  2  0  0  0  0
  7  8  1  0  0  0  0
  7 32  1  0  0  0  0
  8  9  2  0  0  0  0
  9 10  1  0  0  0  0
  9 23  1  0  0  0  0
 10 11  1  0  0  0  0
 10 15  1  0  0  0  0
 11 12  1  0  0  0  0
 11 40  1  0  0  0  0
 11 41  1  0  0  0  0
 12 13  1  0  0  0  0
 12 42  1  0  0  0  0
 12 43  1  0  0  0  0
 13 14  1  0  0  0  0
 13 16  1  0  0  0  0
 13 44  1  0  0  0  0
 14 15  1  0  0  0  0
 14 45  1  0  0  0  0
 14 46  1  0  0  0  0
 15 47  1  0  0  0  0
 15 48  1  0  0  0  0
 16 17  1  0  0  0  0
 16 49  1  0  0  0  0
 17 18  1  0  0  0  0
 17 22  1  0  0  0  0
 17 50  1  0  0  0  0
 18 19  1  0  0  0  0
 18 51  1  0  0  0  0
 18 52  1  0  0  0  0
 19 20  1  0  0  0  0
 19 53  1  0  0  0  0
 19 54  1  0  0  0  0
 20 21  1  0  0  0  0
 21 22  1  0  0  0  0
 21 55  1  0  0  0  0
 21 56  1  0  0  0  0
 22 57  1  0  0  0  0
 22 58  1  0  0  0  0
 23 24  1  0  0  0  0
 23 30  2  0  0  0  0
 24 25  2  0  0  0  0
 24 29  1  0  0  0  0
 25 26  1  0  0  0  0
 26 27  1  0  0  0  0
 26 28  2  0  0  0  0
 27 59  1  0  0  0  0
 27 60  1  0  0  0  0
 27 61  1  0  0  0  0
 28 29  1  0  0  0  0
 30 31  1  0  0  0  0
 30 32  1  0  0  0  0
 31 62  1  0  0  0  0
 31 63  1  0  0  0  0
 31 64  1  0  0  0  0
 32 33  2  0  0  0  0
 33 65  1  0  0  0  0
M  END
>  <DRUGBANK_ID>
DB16068

>  <COMMON_NAME>
BTRX-335140

>  <CAS_NUMBER>
2244614-14-8

>  <UNII>
XK5ILZ28KI

$$$$
