
 OpenBabel10282417133D

 19 19  0  0  0  0  0  0  0  0999 V2000
    2.3011   -0.0414   -0.0052 O   0  0  0  0  0  0  0  0  0  0  0  0
    0.9342   -0.0363    0.0102 C   0  0  0  0  0  0  0  0  0  0  0  0
    0.1755   -1.2272    0.0134 C   0  0  0  0  0  0  0  0  0  0  0  0
   -1.2322   -1.1908   -0.0009 C   0  0  0  0  0  0  0  0  0  0  0  0
   -1.8873    0.0468   -0.0136 C   0  0  0  0  0  0  0  0  0  0  0  0
   -1.1543    1.2400    0.0002 C   0  0  0  0  0  0  0  0  0  0  0  0
    0.2557    1.1995    0.0152 C   0  0  0  0  0  0  0  0  0  0  0  0
    0.9752    2.4940    0.0465 N   0  3  0  0  0  0  0  0  0  0  0  0
    0.2771    3.5191    0.0577 O   0  5  0  0  0  0  0  0  0  0  0  0
    2.2097    2.5080    0.0667 O   0  0  0  0  0  0  0  0  0  0  0  0
   -3.3590    0.0971   -0.0405 N   0  3  0  0  0  0  0  0  0  0  0  0
   -3.8930    1.2135   -0.0517 O   0  5  0  0  0  0  0  0  0  0  0  0
   -3.9670   -0.9797   -0.0528 O   0  0  0  0  0  0  0  0  0  0  0  0
    0.8355   -2.5433    0.0404 N   0  3  0  0  0  0  0  0  0  0  0  0
    0.1189   -3.5512    0.0552 O   0  5  0  0  0  0  0  0  0  0  0  0
    2.0751   -2.5603    0.0491 O   0  0  0  0  0  0  0  0  0  0  0  0
    2.6843   -0.9444   -0.0091 H   0  0  0  0  0  0  0  0  0  0  0  0
   -1.8111   -2.1157   -0.0029 H   0  0  0  0  0  0  0  0  0  0  0  0
   -1.6782    2.1975   -0.0009 H   0  0  0  0  0  0  0  0  0  0  0  0
  1  2  1  0  0  0  0
  1 17  1  0  0  0  0
  2  3  2  0  0  0  0
  2  7  1  0  0  0  0
  3  4  1  0  0  0  0
  3 14  1  0  0  0  0
  4  5  2  0  0  0  0
  4 18  1  0  0  0  0
  5  6  1  0  0  0  0
  5 11  1  0  0  0  0
  6  7  2  0  0  0  0
  6 19  1  0  0  0  0
  7  8  1  0  0  0  0
  8  9  1  0  0  0  0
  8 10  2  0  0  0  0
 11 12  1  0  0  0  0
 11 13  2  0  0  0  0
 14 15  1  0  0  0  0
 14 16  2  0  0  0  0
M  CHG  6   8   1   9  -1  11   1  12  -1  14   1  15  -1
M  END
>  <DRUGBANK_ID>
DB03651

>  <SECONDARY_ACCESSION_NUMBERS>
EXPT03078; DB11163; DBSALT001532

>  <COMMON_NAME>
Picric acid

>  <CAS_NUMBER>
88-89-1

>  <UNII>
A49OS0F91S

>  <SYNONYMS>
Picricum acidum; Trinitrophenol

$$$$
