HS6
 OpenBabel10282417163D

 23 23  0  0  0  0  0  0  0  0999 V2000
    0.9635    0.3079   -0.1994 O   0  0  0  0  0  0  0  0  0  0  0  0
    2.3582    0.1063    0.1049 S   0  0  0  0  0  0  0  0  0  0  0  0
    2.7488   -0.9313    1.0301 O   0  0  0  0  0  0  0  0  0  0  0  0
    3.1278   -0.1935   -1.3764 N   0  0  0  0  0  0  0  0  0  0  0  0
    4.6092   -0.2520   -1.4321 C   0  0  0  0  0  0  0  0  0  0  0  0
    5.2859   -1.3556   -0.6371 C   0  0  0  0  0  0  0  0  0  0  0  0
    5.7450   -2.3601   -1.1740 O   0  0  0  0  0  0  0  0  0  0  0  0
    5.3552   -1.2567    0.7621 N   0  0  0  0  0  0  0  0  0  0  0  0
    5.4964   -2.3317    1.3541 O   0  0  0  0  0  0  0  0  0  0  0  0
    3.0417    1.6678    0.6342 C   0  0  0  0  0  0  0  0  0  0  0  0
    4.0450    1.7645    1.6131 C   0  0  0  0  0  0  0  0  0  0  0  0
    2.4576    2.8265    0.1141 C   0  0  0  0  0  0  0  0  0  0  0  0
    2.8552    4.0787    0.5820 C   0  0  0  0  0  0  0  0  0  0  0  0
    3.8375    4.1702    1.5610 C   0  0  0  0  0  0  0  0  0  0  0  0
    4.1904    5.3748    2.0280 F   0  0  0  0  0  0  0  0  0  0  0  0
    4.4457    3.0276    2.0711 C   0  0  0  0  0  0  0  0  0  0  0  0
    2.6675   -0.9859   -1.8382 H   0  0  0  0  0  0  0  0  0  0  0  0
    4.8841   -0.4009   -2.4874 H   0  0  0  0  0  0  0  0  0  0  0  0
    5.0272    0.7245   -1.1678 H   0  0  0  0  0  0  0  0  0  0  0  0
    4.5097    0.8869    2.0552 H   0  0  0  0  0  0  0  0  0  0  0  0
    1.6713    2.7534   -0.6336 H   0  0  0  0  0  0  0  0  0  0  0  0
    2.3860    4.9812    0.2045 H   0  0  0  0  0  0  0  0  0  0  0  0
    5.2058    3.1339    2.8418 H   0  0  0  0  0  0  0  0  0  0  0  0
  1  2  2  0  0  0  0
  2  3  2  0  0  0  0
  2  4  1  0  0  0  0
  2 10  1  0  0  0  0
  4  5  1  0  0  0  0
  4 17  1  0  0  0  0
  5  6  1  0  0  0  0
  5 18  1  0  0  0  0
  5 19  1  0  0  0  0
  6  7  2  0  0  0  0
  6  8  1  0  0  0  0
  8  9  2  0  0  0  0
 10 11  2  0  0  0  0
 10 12  1  0  0  0  0
 11 16  1  0  0  0  0
 11 20  1  0  0  0  0
 12 13  2  0  0  0  0
 12 21  1  0  0  0  0
 13 14  1  0  0  0  0
 13 22  1  0  0  0  0
 14 15  1  0  0  0  0
 14 16  2  0  0  0  0
 16 23  1  0  0  0  0
M  END
>  <DRUGBANK_ID>
DB07921

>  <COMMON_NAME>
2-[(4-fluorophenyl)sulfonylamino]-N-oxo-ethanamide

$$$$
