DBA
 OpenBabel10282417163D

 25 25  0  0  0  0  0  0  0  0999 V2000
    1.0058   -0.6065   -0.2244 C   0  0  0  0  0  0  0  0  0  0  0  0
    0.3603   -0.6050    1.1916 C   0  0  0  0  0  0  0  0  0  0  0  0
    0.1653    1.5746    2.3001 C   0  0  0  0  0  0  0  0  0  0  0  0
    1.0918    2.3593    1.5867 C   0  0  0  0  0  0  0  0  0  0  0  0
    1.6632    3.5175    2.1170 C   0  0  0  0  0  0  0  0  0  0  0  0
    1.2703    3.9795    3.3476 C   0  0  0  0  0  0  0  0  0  0  0  0
    0.2979    3.2760    4.0481 C   0  0  0  0  0  0  0  0  0  0  0  0
   -0.2701    2.0780    3.5459 C   0  0  0  0  0  0  0  0  0  0  0  0
    1.5910    2.0129    0.2443 C   0  0  0  0  0  0  0  0  0  0  0  0
   -1.3218    1.4168    4.3983 C   0  0  0  0  0  0  0  0  0  0  0  0
    0.4073   -0.3543   -1.2715 O   0  0  0  0  0  0  0  0  0  0  0  0
    2.3494   -0.8409   -0.2363 O   0  0  0  0  0  0  0  0  0  0  0  0
   -0.4227    0.4376    1.7877 O   0  0  0  0  0  0  0  0  0  0  0  0
   -0.3450   -1.4424    1.0739 H   0  0  0  0  0  0  0  0  0  0  0  0
    1.0924   -0.9794    1.9172 H   0  0  0  0  0  0  0  0  0  0  0  0
    2.4180    4.0492    1.5419 H   0  0  0  0  0  0  0  0  0  0  0  0
    1.7124    4.8898    3.7364 H   0  0  0  0  0  0  0  0  0  0  0  0
   -0.0233    3.6819    5.0042 H   0  0  0  0  0  0  0  0  0  0  0  0
    2.1952    1.1568    0.4859 H   0  0  0  0  0  0  0  0  0  0  0  0
    0.7467    1.8812   -0.4334 H   0  0  0  0  0  0  0  0  0  0  0  0
    2.3126    2.6841   -0.2191 H   0  0  0  0  0  0  0  0  0  0  0  0
   -2.2733    1.3397    3.8653 H   0  0  0  0  0  0  0  0  0  0  0  0
   -0.9923    0.4293    4.7321 H   0  0  0  0  0  0  0  0  0  0  0  0
   -1.5160    2.0096    5.3039 H   0  0  0  0  0  0  0  0  0  0  0  0
    2.7958   -0.7344    0.6297 H   0  0  0  0  0  0  0  0  0  0  0  0
  1  2  1  0  0  0  0
  1 11  2  0  0  0  0
  1 12  1  0  0  0  0
  2 13  1  0  0  0  0
  2 14  1  0  0  0  0
  2 15  1  0  0  0  0
  3  4  2  0  0  0  0
  3  8  1  0  0  0  0
  3 13  1  0  0  0  0
  4  5  1  0  0  0  0
  4  9  1  0  0  0  0
  5  6  2  0  0  0  0
  5 16  1  0  0  0  0
  6  7  1  0  0  0  0
  6 17  1  0  0  0  0
  7  8  2  0  0  0  0
  7 18  1  0  0  0  0
  8 10  1  0  0  0  0
  9 19  1  0  0  0  0
  9 20  1  0  0  0  0
  9 21  1  0  0  0  0
 10 22  1  0  0  0  0
 10 23  1  0  0  0  0
 10 24  1  0  0  0  0
 12 25  1  0  0  0  0
M  END
>  <DRUGBANK_ID>
DB07634

>  <COMMON_NAME>
(2,6-Dimethylphenoxy)acetic acid

>  <CAS_NUMBER>
13335-71-2

>  <UNII>
8RVEL9W5CF

>  <SYNONYMS>
(2,6-Xylyloxy) acetic acid

$$$$
