FRX
 OpenBabel10282417163D

 49 52  0  0  0  0  0  0  0  0999 V2000
    0.7944   -0.0021    0.0076 O   0  0  0  0  0  0  0  0  0  0  0  0
    2.0168   -0.0972    0.0946 C   0  0  0  0  0  0  0  0  0  0  0  0
    2.5923   -1.1676    0.7247 N   0  0  0  0  0  0  0  0  0  0  0  0
    1.9791   -2.1936    1.5363 C   0  0  0  0  0  0  0  0  0  0  0  0
    2.4915   -3.5492    1.0437 C   0  0  0  0  0  0  0  0  0  0  0  0
    3.9059   -3.6692    1.2546 O   0  0  0  0  0  0  0  0  0  0  0  0
    2.9826    0.9124   -0.6233 C   0  0  0  0  0  0  0  0  0  0  0  0
    3.8874    1.7505    0.1994 N   0  0  0  0  0  0  0  0  0  0  0  0
    3.7902    3.1407    0.0819 C   0  0  0  0  0  0  0  0  0  0  0  0
    3.1956    3.6968   -0.8477 O   0  0  0  0  0  0  0  0  0  0  0  0
    4.7467    1.1630    1.1717 C   0  0  0  0  0  0  0  0  0  0  0  0
    5.2247   -0.1300    1.0429 C   0  0  0  0  0  0  0  0  0  0  0  0
    5.6344   -0.8451    2.1709 C   0  0  0  0  0  0  0  0  0  0  0  0
    5.8362   -0.1856    3.3726 C   0  0  0  0  0  0  0  0  0  0  0  0
    5.0809    1.8573    2.3303 C   0  0  0  0  0  0  0  0  0  0  0  0
    5.6242    1.1838    3.4333 C   0  0  0  0  0  0  0  0  0  0  0  0
    4.7125    3.2917    2.4534 C   0  0  0  0  0  0  0  0  0  0  0  0
    4.6339    3.9595    1.0788 C   0  0  2  0  0  0  0  0  0  0  0  0
    4.1290    5.3317    1.1544 N   0  0  0  0  0  0  0  0  0  0  0  0
    2.9682    5.5826    1.8599 C   0  0  0  0  0  0  0  0  0  0  0  0
    2.3591    4.7267    2.4783 O   0  0  0  0  0  0  0  0  0  0  0  0
    2.5083    6.9357    1.8775 C   0  0  0  0  0  0  0  0  0  0  0  0
    2.2334    7.7055    0.7580 N   0  0  0  0  0  0  0  0  0  0  0  0
    1.6382    8.8376    1.1942 C   0  0  0  0  0  0  0  0  0  0  0  0
    1.5371    8.8038    2.5283 C   0  0  0  0  0  0  0  0  0  0  0  0
    2.0637    7.6229    3.0139 C   0  0  0  0  0  0  0  0  0  0  0  0
    0.9230    9.9110    3.1060 C   0  0  0  0  0  0  0  0  0  0  0  0
    0.9889   10.1986    0.5004 S   0  0  0  0  0  0  0  0  0  0  0  0
    0.5858   10.7758    2.0763 C   0  0  0  0  0  0  0  0  0  0  0  0
   -0.1634   12.3143    2.2215 Cl  0  0  0  0  0  0  0  0  0  0  0  0
    5.6434    4.0148    0.6429 H   0  0  0  0  0  0  0  0  0  0  0  0
    3.5712   -1.2187    0.8315 H   0  0  0  0  0  0  0  0  0  0  0  0
    2.3421   -2.0192    2.5584 H   0  0  0  0  0  0  0  0  0  0  0  0
    0.8943   -2.1051    1.5093 H   0  0  0  0  0  0  0  0  0  0  0  0
    2.0117   -4.3610    1.5913 H   0  0  0  0  0  0  0  0  0  0  0  0
    2.3023   -3.6694   -0.0281 H   0  0  0  0  0  0  0  0  0  0  0  0
    4.3552   -3.1444    0.5718 H   0  0  0  0  0  0  0  0  0  0  0  0
    3.5836    0.3978   -1.3817 H   0  0  0  0  0  0  0  0  0  0  0  0
    2.3077    1.5725   -1.1863 H   0  0  0  0  0  0  0  0  0  0  0  0
    5.1422   -0.6370    0.0849 H   0  0  0  0  0  0  0  0  0  0  0  0
    5.7534   -1.9248    2.1264 H   0  0  0  0  0  0  0  0  0  0  0  0
    6.1807   -0.7323    4.2454 H   0  0  0  0  0  0  0  0  0  0  0  0
    5.8314    1.7193    4.3569 H   0  0  0  0  0  0  0  0  0  0  0  0
    5.4311    3.8323    3.0791 H   0  0  0  0  0  0  0  0  0  0  0  0
    3.7654    3.2744    2.9912 H   0  0  0  0  0  0  0  0  0  0  0  0
    4.5144    6.0265    0.5298 H   0  0  0  0  0  0  0  0  0  0  0  0
    2.3491    7.4165   -0.2050 H   0  0  0  0  0  0  0  0  0  0  0  0
    2.1032    7.2364    4.0257 H   0  0  0  0  0  0  0  0  0  0  0  0
    0.7388   10.0940    4.1563 H   0  0  0  0  0  0  0  0  0  0  0  0
  1  2  2  0  0  0  0
  2  7  1  0  0  0  0
  2  3  1  0  0  0  0
  3  4  1  0  0  0  0
  3 32  1  0  0  0  0
  4  5  1  0  0  0  0
  4 33  1  0  0  0  0
  4 34  1  0  0  0  0
  5  6  1  0  0  0  0
  5 35  1  0  0  0  0
  5 36  1  0  0  0  0
  6 37  1  0  0  0  0
  7  8  1  0  0  0  0
  7 38  1  0  0  0  0
  7 39  1  0  0  0  0
  8 11  1  0  0  0  0
  8  9  1  0  0  0  0
  9 18  1  0  0  0  0
  9 10  2  0  0  0  0
 11 15  2  0  0  0  0
 11 12  1  0  0  0  0
 12 13  2  0  0  0  0
 12 40  1  0  0  0  0
 13 14  1  0  0  0  0
 13 41  1  0  0  0  0
 14 16  2  0  0  0  0
 14 42  1  0  0  0  0
 15 16  1  0  0  0  0
 15 17  1  0  0  0  0
 16 43  1  0  0  0  0
 17 18  1  0  0  0  0
 17 44  1  0  0  0  0
 17 45  1  0  0  0  0
 18 31  1  6  0  0  0
 18 19  1  0  0  0  0
 19 20  1  0  0  0  0
 19 46  1  0  0  0  0
 20 22  1  0  0  0  0
 20 21  2  0  0  0  0
 22 26  2  0  0  0  0
 22 23  1  0  0  0  0
 23 24  1  0  0  0  0
 23 47  1  0  0  0  0
 24 25  2  0  0  0  0
 24 28  1  0  0  0  0
 25 27  1  0  0  0  0
 25 26  1  0  0  0  0
 26 48  1  0  0  0  0
 27 29  2  0  0  0  0
 27 49  1  0  0  0  0
 28 29  1  0  0  0  0
 29 30  1  0  0  0  0
M  END
>  <DRUGBANK_ID>
DB07792

>  <COMMON_NAME>
(S)-2-CHLORO-N-(1-(2-(2-HYDROXYETHYLAMINO)-2-OXOETHYL)-2-OXO-1,2,3,4-TETRAHYDROQUINOLIN-3-YL)-6H-THIENO[2,3-B]PYRROLE-5-CARBOXAMIDE

$$$$
