
 OpenBabel10282417143D

 64 68  0  0  1  0  0  0  0  0999 V2000
    1.0943    0.0302    0.0099 O   0  0  0  0  0  0  0  0  0  0  0  0
    0.3418    0.7471    0.8975 C   0  0  0  0  0  0  0  0  0  0  0  0
   -0.8378    0.1888    1.3061 C   0  0  0  0  0  0  0  0  0  0  0  0
   -1.6512    0.8830    2.2040 C   0  0  0  0  0  0  0  0  0  0  0  0
   -1.2418    2.0953    2.8076 C   0  0  0  0  0  0  0  0  0  0  0  0
   -2.0601    2.7134    3.9776 C   0  0  2  0  0  0  0  0  0  0  0  0
   -1.4086    3.9406    4.5172 N   0  0  0  0  0  0  0  0  0  0  0  0
   -0.8091    4.8080    3.5168 C   0  0  0  0  0  0  0  0  0  0  0  0
    0.3401    4.0556    2.8251 C   0  0  0  0  0  0  0  0  0  0  0  0
   -0.0762    2.6917    2.3146 C   0  0  0  0  0  0  0  0  0  0  0  0
    0.7297    2.0098    1.3650 C   0  0  0  0  0  0  0  0  0  0  0  0
   -1.2120    4.2116    5.8689 C   0  0  0  0  0  0  0  0  0  0  0  0
   -1.7288    5.3754    6.4525 C   0  0  0  0  0  0  0  0  0  0  0  0
   -1.6054    5.6191    7.8311 C   0  0  0  0  0  0  0  0  0  0  0  0
   -1.0661    4.6560    8.6791 C   0  0  0  0  0  0  0  0  0  0  0  0
   -0.6318    3.4554    8.1434 C   0  0  0  0  0  0  0  0  0  0  0  0
   -0.6217    3.2891    6.7548 C   0  0  0  0  0  0  0  0  0  0  0  0
   -2.3889    1.7716    5.1337 C   0  0  0  0  0  0  0  0  0  0  0  0
   -3.3389    2.1600    6.1086 C   0  0  0  0  0  0  0  0  0  0  0  0
   -3.5164    1.4013    7.2706 C   0  0  0  0  0  0  0  0  0  0  0  0
   -2.8979    0.1431    7.3780 C   0  0  0  0  0  0  0  0  0  0  0  0
   -3.5050   -0.7292    8.2579 O   0  0  0  0  0  0  0  0  0  0  0  0
   -3.3859   -2.1404    7.9796 C   0  0  0  0  0  0  0  0  0  0  0  0
   -4.3054   -2.7863    6.8615 C   0  0  0  0  0  0  0  0  0  0  0  0
   -4.2247   -2.2365    5.4941 N   0  0  0  0  0  0  0  0  0  0  0  0
   -4.8187   -3.0433    4.4127 C   0  0  0  0  0  0  0  0  0  0  0  0
   -4.5242   -2.3927    3.0300 C   0  0  0  0  0  0  0  0  0  0  0  0
   -4.9586   -0.9272    2.9547 C   0  0  0  0  0  0  0  0  0  0  0  0
   -4.4251   -0.2515    4.1761 C   0  0  0  0  0  0  0  0  0  0  0  0
   -4.9149   -0.9456    5.4241 C   0  0  0  0  0  0  0  0  0  0  0  0
   -1.9806   -0.2559    6.4064 C   0  0  0  0  0  0  0  0  0  0  0  0
   -1.6822    0.5743    5.3330 C   0  0  0  0  0  0  0  0  0  0  0  0
    2.0098    0.3325    0.0499 H   0  0  0  0  0  0  0  0  0  0  0  0
   -1.1352   -0.8033    0.9590 H   0  0  0  0  0  0  0  0  0  0  0  0
   -2.5819    0.4271    2.4729 H   0  0  0  0  0  0  0  0  0  0  0  0
   -3.0122    3.0234    3.5157 H   0  0  0  0  0  0  0  0  0  0  0  0
   -1.5765    5.0803    2.7791 H   0  0  0  0  0  0  0  0  0  0  0  0
   -0.4393    5.7447    3.9476 H   0  0  0  0  0  0  0  0  0  0  0  0
    0.6925    4.6623    1.9847 H   0  0  0  0  0  0  0  0  0  0  0  0
    1.1668    3.9171    3.5301 H   0  0  0  0  0  0  0  0  0  0  0  0
    1.6394    2.4661    1.0025 H   0  0  0  0  0  0  0  0  0  0  0  0
   -2.2915    6.0785    5.8461 H   0  0  0  0  0  0  0  0  0  0  0  0
   -1.9664    6.5542    8.2500 H   0  0  0  0  0  0  0  0  0  0  0  0
   -0.9967    4.8268    9.7491 H   0  0  0  0  0  0  0  0  0  0  0  0
   -0.3254    2.6362    8.7891 H   0  0  0  0  0  0  0  0  0  0  0  0
   -0.2300    2.3473    6.3824 H   0  0  0  0  0  0  0  0  0  0  0  0
   -3.9078    3.0801    5.9721 H   0  0  0  0  0  0  0  0  0  0  0  0
   -4.2686    1.7127    7.9906 H   0  0  0  0  0  0  0  0  0  0  0  0
   -2.3341   -2.4212    7.8566 H   0  0  0  0  0  0  0  0  0  0  0  0
   -3.6831   -2.6210    8.9206 H   0  0  0  0  0  0  0  0  0  0  0  0
   -4.0102   -3.8449    6.8282 H   0  0  0  0  0  0  0  0  0  0  0  0
   -5.3473   -2.7614    7.1989 H   0  0  0  0  0  0  0  0  0  0  0  0
   -5.9055   -3.0986    4.5494 H   0  0  0  0  0  0  0  0  0  0  0  0
   -4.4251   -4.0632    4.4103 H   0  0  0  0  0  0  0  0  0  0  0  0
   -5.0187   -2.9383    2.2246 H   0  0  0  0  0  0  0  0  0  0  0  0
   -3.4405   -2.4442    2.8438 H   0  0  0  0  0  0  0  0  0  0  0  0
   -4.5549   -0.4386    2.0608 H   0  0  0  0  0  0  0  0  0  0  0  0
   -6.0426   -0.8022    2.9461 H   0  0  0  0  0  0  0  0  0  0  0  0
   -3.3490   -0.3899    4.1040 H   0  0  0  0  0  0  0  0  0  0  0  0
   -4.6528    0.8144    4.1805 H   0  0  0  0  0  0  0  0  0  0  0  0
   -4.7205   -0.3460    6.2824 H   0  0  0  0  0  0  0  0  0  0  0  0
   -6.0020   -1.0287    5.4545 H   0  0  0  0  0  0  0  0  0  0  0  0
   -1.6386   -1.2800    6.3145 H   0  0  0  0  0  0  0  0  0  0  0  0
   -1.0088    0.1864    4.5746 H   0  0  0  0  0  0  0  0  0  0  0  0
  1  2  1  0  0  0  0
  1 33  1  0  0  0  0
  2  3  2  0  0  0  0
  2 11  1  0  0  0  0
  3  4  1  0  0  0  0
  3 34  1  0  0  0  0
  4  5  2  0  0  0  0
  4 35  1  0  0  0  0
  5  6  1  0  0  0  0
  5 10  1  0  0  0  0
  6  7  1  0  0  0  0
  6 18  1  0  0  0  0
  6 36  1  6  0  0  0
  7  8  1  0  0  0  0
  7 12  1  0  0  0  0
  8  9  1  0  0  0  0
  8 37  1  0  0  0  0
  8 38  1  0  0  0  0
  9 10  1  0  0  0  0
  9 39  1  0  0  0  0
  9 40  1  0  0  0  0
 10 11  2  0  0  0  0
 11 41  1  0  0  0  0
 12 13  2  0  0  0  0
 12 17  1  0  0  0  0
 13 14  1  0  0  0  0
 13 42  1  0  0  0  0
 14 15  2  0  0  0  0
 14 43  1  0  0  0  0
 15 16  1  0  0  0  0
 15 44  1  0  0  0  0
 16 17  2  0  0  0  0
 16 45  1  0  0  0  0
 17 46  1  0  0  0  0
 18 19  2  0  0  0  0
 18 32  1  0  0  0  0
 19 20  1  0  0  0  0
 19 47  1  0  0  0  0
 20 21  2  0  0  0  0
 20 48  1  0  0  0  0
 21 22  1  0  0  0  0
 21 31  1  0  0  0  0
 22 23  1  0  0  0  0
 23 24  1  0  0  0  0
 23 49  1  0  0  0  0
 23 50  1  0  0  0  0
 24 25  1  0  0  0  0
 24 51  1  0  0  0  0
 24 52  1  0  0  0  0
 25 26  1  0  0  0  0
 25 30  1  0  0  0  0
 26 27  1  0  0  0  0
 26 53  1  0  0  0  0
 26 54  1  0  0  0  0
 27 28  1  0  0  0  0
 27 55  1  0  0  0  0
 27 56  1  0  0  0  0
 28 29  1  0  0  0  0
 28 57  1  0  0  0  0
 28 58  1  0  0  0  0
 29 30  1  0  0  0  0
 29 59  1  0  0  0  0
 29 60  1  0  0  0  0
 30 61  1  0  0  0  0
 30 62  1  0  0  0  0
 31 32  2  0  0  0  0
 31 63  1  0  0  0  0
 32 64  1  0  0  0  0
M  END
>  <DRUGBANK_ID>
DB04471

>  <SECONDARY_ACCESSION_NUMBERS>
EXPT02683

>  <COMMON_NAME>
2-Phenyl-1-[4-(2-Piperidin-1-Yl-Ethoxy)-Phenyl]-1,2,3,4-Tetrahydro-Isoquinolin-6-Ol

$$$$
