
 OpenBabel10282417133D

 16 15  0  0  0  0  0  0  0  0999 V2000
    0.9437    0.0026   -0.1688 C   0  0  0  0  0  0  0  0  0  0  0  0
    0.4662   -1.2718    0.5111 C   0  0  0  0  0  0  0  0  0  0  0  0
    0.9018   -1.3562    1.9782 C   0  0  0  0  0  0  0  0  0  0  0  0
    0.3901   -0.2121    2.8591 C   0  0  0  0  0  0  0  0  0  0  0  0
   -1.0675   -0.1652    2.8882 N   0  0  0  0  0  0  0  0  0  0  0  0
    0.5476    0.8971    0.3207 H   0  0  0  0  0  0  0  0  0  0  0  0
    0.6094    0.0274   -1.2097 H   0  0  0  0  0  0  0  0  0  0  0  0
    2.0366    0.0600   -0.1555 H   0  0  0  0  0  0  0  0  0  0  0  0
   -0.6243   -1.3433    0.4317 H   0  0  0  0  0  0  0  0  0  0  0  0
    0.8678   -2.1369   -0.0295 H   0  0  0  0  0  0  0  0  0  0  0  0
    0.5640   -2.3141    2.3941 H   0  0  0  0  0  0  0  0  0  0  0  0
    1.9984   -1.3708    2.0235 H   0  0  0  0  0  0  0  0  0  0  0  0
    0.7626   -0.3469    3.8793 H   0  0  0  0  0  0  0  0  0  0  0  0
    0.7817    0.7481    2.5077 H   0  0  0  0  0  0  0  0  0  0  0  0
   -1.3684    0.6624    3.4044 H   0  0  0  0  0  0  0  0  0  0  0  0
   -1.4305   -0.0497    1.9455 H   0  0  0  0  0  0  0  0  0  0  0  0
  1  2  1  0  0  0  0
  1  6  1  0  0  0  0
  1  7  1  0  0  0  0
  1  8  1  0  0  0  0
  2  3  1  0  0  0  0
  2  9  1  0  0  0  0
  2 10  1  0  0  0  0
  3  4  1  0  0  0  0
  3 11  1  0  0  0  0
  3 12  1  0  0  0  0
  4  5  1  0  0  0  0
  4 13  1  0  0  0  0
  4 14  1  0  0  0  0
  5 15  1  0  0  0  0
  5 16  1  0  0  0  0
M  END
>  <DRUGBANK_ID>
DB03659

>  <SECONDARY_ACCESSION_NUMBERS>
EXPT02080

>  <COMMON_NAME>
Butylamine

>  <CAS_NUMBER>
109-73-9

>  <UNII>
N2QV60B4WR

>  <SYNONYMS>
1-aminobutane; 1-butanamine; n-butylamine

$$$$
