
 OpenBabel10282417143D

 22 22  0  0  0  0  0  0  0  0999 V2000
    2.4299   -0.0004    0.0551 C   0  0  0  0  0  0  0  0  0  0  0  0
    0.3396   -1.2053    0.2532 C   0  0  0  0  0  0  0  0  0  0  0  0
    0.3296    1.1926    0.2511 C   0  0  0  0  0  0  0  0  0  0  0  0
   -1.1396   -1.2500   -0.1742 C   0  0  0  0  0  0  0  0  0  0  0  0
   -1.1623    1.2185   -0.1452 C   0  0  0  0  0  0  0  0  0  0  0  0
   -3.0891   -0.0073    0.7785 C   0  0  0  0  0  0  0  0  0  0  0  0
    1.0114   -0.0046   -0.2889 N   0  0  0  0  0  0  0  0  0  0  0  0
   -1.8387   -0.0265    0.2229 N   0  0  0  0  0  0  0  0  0  0  0  0
   -3.7422    0.9798    1.0819 O   0  0  0  0  0  0  0  0  0  0  0  0
   -3.5963   -1.2327    1.0118 O   0  0  0  0  0  0  0  0  0  0  0  0
    2.9251    0.8792   -0.3714 H   0  0  0  0  0  0  0  0  0  0  0  0
    2.5943   -0.0009    1.1377 H   0  0  0  0  0  0  0  0  0  0  0  0
    2.9295   -0.8773   -0.3721 H   0  0  0  0  0  0  0  0  0  0  0  0
    0.8384   -2.1132   -0.1028 H   0  0  0  0  0  0  0  0  0  0  0  0
    0.3970   -1.2023    1.3507 H   0  0  0  0  0  0  0  0  0  0  0  0
    0.4082    1.2028    1.3468 H   0  0  0  0  0  0  0  0  0  0  0  0
    0.8136    2.1019   -0.1230 H   0  0  0  0  0  0  0  0  0  0  0  0
   -1.2094   -1.3250   -1.2666 H   0  0  0  0  0  0  0  0  0  0  0  0
   -1.6161   -2.1377    0.2503 H   0  0  0  0  0  0  0  0  0  0  0  0
   -1.2514    1.3307   -1.2332 H   0  0  0  0  0  0  0  0  0  0  0  0
   -1.6552    2.0789    0.3189 H   0  0  0  0  0  0  0  0  0  0  0  0
   -4.4668   -1.0528    1.4215 H   0  0  0  0  0  0  0  0  0  0  0  0
  1 11  1  0  0  0  0
  1 12  1  0  0  0  0
  1 13  1  0  0  0  0
  2 14  1  0  0  0  0
  2 15  1  0  0  0  0
  3 16  1  0  0  0  0
  3 17  1  0  0  0  0
  4  2  1  0  0  0  0
  4 18  1  0  0  0  0
  4 19  1  0  0  0  0
  5  3  1  0  0  0  0
  5 20  1  0  0  0  0
  5 21  1  0  0  0  0
  7  1  1  0  0  0  0
  7  2  1  0  0  0  0
  7  3  1  0  0  0  0
  8  4  1  0  0  0  0
  8  5  1  0  0  0  0
  8  6  1  0  0  0  0
  9  6  2  0  0  0  0
 10  6  1  0  0  0  0
 10 22  1  0  0  0  0
M  END
>  <DRUGBANK_ID>
DB04451

>  <SECONDARY_ACCESSION_NUMBERS>
EXPT02419

>  <COMMON_NAME>
4-Methylpiperazin-1-Yl Carbonyl Group

$$$$
