
 OpenBabel10282417223D

 42 42  0  0  1  0  0  0  0  0999 V2000
    0.9294    2.1234   -1.1743 C   0  0  0  0  0  0  0  0  0  0  0  0
    0.4228    1.4062    0.0664 C   0  0  2  0  0  0  0  0  0  0  0  0
    0.9128    0.0203    0.0656 N   0  0  0  0  0  0  0  0  0  0  0  0
   -1.0972    1.4062    0.0664 C   0  0  0  0  0  0  0  0  0  0  0  0
   -1.7327    1.9560    1.0198 O   0  0  0  0  0  0  0  0  0  0  0  0
   -1.8322    0.7703   -1.0365 N   0  0  0  0  0  0  0  0  0  0  0  0
   -1.5565   -0.6011   -1.6870 C   0  0  0  0  0  0  0  0  0  0  0  0
   -2.9065   -1.1165   -2.2161 C   0  0  2  0  0  0  0  0  0  0  0  0
   -2.8500   -1.3636   -3.7148 C   0  0  0  0  0  0  0  0  0  0  0  0
   -1.7943   -2.4150   -4.0155 C   0  0  0  0  0  0  0  0  0  0  0  0
   -2.1501   -3.7090   -3.3017 C   0  0  0  0  0  0  0  0  0  0  0  0
   -3.5765   -4.2244   -3.8114 B   0  0  0  0  0  0  0  0  0  0  0  0
   -3.6975   -5.5670   -4.4692 O   0  0  0  0  0  0  0  0  0  0  0  0
   -4.7926   -3.3650   -3.6315 O   0  0  0  0  0  0  0  0  0  0  0  0
   -3.9557   -0.0397   -1.8685 C   0  0  1  0  0  0  0  0  0  0  0  0
   -4.6401   -0.3661   -0.6092 N   0  0  0  0  0  0  0  0  0  0  0  0
   -3.1288    1.2655   -1.7232 C   0  0  0  0  0  0  0  0  0  0  0  0
   -5.0435    0.0751   -2.9240 C   0  0  0  0  0  0  0  0  0  0  0  0
   -6.2754    0.7057   -2.6062 O   0  0  0  0  0  0  0  0  0  0  0  0
   -4.8516   -0.3936   -4.0897 O   0  0  0  0  0  0  0  0  0  0  0  0
    0.3546    1.7168   -1.9800 H   0  0  0  0  0  0  0  0  0  0  0  0
    1.9719    2.0153   -1.3898 H   0  0  0  0  0  0  0  0  0  0  0  0
    0.6952    3.1609   -1.0572 H   0  0  0  0  0  0  0  0  0  0  0  0
    0.7794    1.9101    0.9403 H   0  0  0  0  0  0  0  0  0  0  0  0
    1.1368   -0.2587   -0.8896 H   0  0  0  0  0  0  0  0  0  0  0  0
    0.7788   -0.8117    0.6402 H   0  0  0  0  0  0  0  0  0  0  0  0
   -0.8396   -0.5162   -2.4768 H   0  0  0  0  0  0  0  0  0  0  0  0
   -1.1605   -1.2808   -0.9617 H   0  0  0  0  0  0  0  0  0  0  0  0
   -3.1584   -2.0434   -1.7446 H   0  0  0  0  0  0  0  0  0  0  0  0
   -3.8039   -1.7083   -4.0557 H   0  0  0  0  0  0  0  0  0  0  0  0
   -2.5995   -0.4528   -4.2173 H   0  0  0  0  0  0  0  0  0  0  0  0
   -1.7545   -2.5890   -5.0705 H   0  0  0  0  0  0  0  0  0  0  0  0
   -0.8404   -2.0704   -3.6746 H   0  0  0  0  0  0  0  0  0  0  0  0
   -1.4069   -4.4491   -3.5134 H   0  0  0  0  0  0  0  0  0  0  0  0
   -2.1899   -3.5350   -2.2467 H   0  0  0  0  0  0  0  0  0  0  0  0
   -2.7979   -6.0019   -4.5073 H   0  0  0  0  0  0  0  0  0  0  0  0
   -5.5921   -3.8366   -4.0036 H   0  0  0  0  0  0  0  0  0  0  0  0
   -4.3585   -1.3041   -0.3240 H   0  0  0  0  0  0  0  0  0  0  0  0
   -5.6544   -0.3321   -0.7118 H   0  0  0  0  0  0  0  0  0  0  0  0
   -3.6355    2.0309   -1.1733 H   0  0  0  0  0  0  0  0  0  0  0  0
   -2.9185    1.6978   -2.6791 H   0  0  0  0  0  0  0  0  0  0  0  0
   -6.4263    1.0745   -1.6890 H   0  0  0  0  0  0  0  0  0  0  0  0
  1 21  1  0  0  0  0
  1 22  1  0  0  0  0
  1 23  1  0  0  0  0
  2  4  1  0  0  0  0
  2 24  1  1  0  0  0
  2  3  1  0  0  0  0
  2  1  1  0  0  0  0
  3 25  1  0  0  0  0
  3 26  1  0  0  0  0
  4  5  2  0  0  0  0
  4  6  1  0  0  0  0
  6  7  1  0  0  0  0
  6 17  1  0  0  0  0
  7 27  1  0  0  0  0
  7 28  1  0  0  0  0
  8  7  1  0  0  0  0
  8  9  1  0  0  0  0
  8 15  1  0  0  0  0
  8 29  1  1  0  0  0
  9 10  1  0  0  0  0
  9 30  1  0  0  0  0
  9 31  1  0  0  0  0
 10 11  1  0  0  0  0
 10 32  1  0  0  0  0
 10 33  1  0  0  0  0
 11 12  1  0  0  0  0
 11 34  1  0  0  0  0
 11 35  1  0  0  0  0
 12 13  1  0  0  0  0
 12 14  1  0  0  0  0
 13 36  1  0  0  0  0
 14 37  1  0  0  0  0
 15 17  1  0  0  0  0
 15 18  1  6  0  0  0
 15 16  1  0  0  0  0
 16 38  1  0  0  0  0
 16 39  1  0  0  0  0
 17 40  1  0  0  0  0
 17 41  1  0  0  0  0
 18 19  1  0  0  0  0
 18 20  2  0  0  0  0
 19 42  1  0  0  0  0
M  END
>  <DRUGBANK_ID>
DB15286

>  <COMMON_NAME>
CB-1158

>  <CAS_NUMBER>
2095732-06-0

>  <UNII>
IFD73D535A

>  <SYNONYMS>
INCB001158

$$$$
