PNB
 OpenBabel10282417173D

 41 41  0  0  0  0  0  0  0  0999 V2000
    0.8786    0.0767    0.0600 N   0  3  0  0  0  0  0  0  0  0  0  0
    0.2807    1.1618    0.0607 O   0  0  0  0  0  0  0  0  0  0  0  0
    0.3273   -1.0327    0.0129 O   0  5  0  0  0  0  0  0  0  0  0  0
    5.1762    0.2044    0.1341 C   0  0  0  0  0  0  0  0  0  0  0  0
    4.4569   -1.0193    0.3081 C   0  0  0  0  0  0  0  0  0  0  0  0
    3.0584   -1.0780    0.2195 C   0  0  0  0  0  0  0  0  0  0  0  0
    2.3450    0.1120    0.1313 C   0  0  0  0  0  0  0  0  0  0  0  0
    3.0261    1.3380    0.0720 C   0  0  0  0  0  0  0  0  0  0  0  0
    4.4273    1.3739   -0.0086 C   0  0  0  0  0  0  0  0  0  0  0  0
    6.7112    0.2561   -0.0789 C   0  0  0  0  0  0  0  0  0  0  0  0
    7.1415    0.7043   -1.4025 O   0  0  0  0  0  0  0  0  0  0  0  0
    6.5511   -0.1455   -2.7889 P   0  0  1  0  0  0  0  0  0  0  0  0
    7.9387   -0.7459   -3.0258 O   0  0  0  0  0  0  0  0  0  0  0  0
    5.7993   -1.2262   -1.8753 O   0  0  0  0  0  0  0  0  0  0  0  0
    5.9265   -1.0444   -4.2555 C   0  0  0  0  0  0  0  0  0  0  0  0
    4.9560   -2.2084   -3.9051 C   0  0  0  0  0  0  0  0  0  0  0  0
    3.6657   -1.6139   -3.2913 C   0  0  0  0  0  0  0  0  0  0  0  0
    2.8670   -0.5963   -4.1258 C   0  0  0  0  0  0  0  0  0  0  0  0
    1.6693   -0.8316   -4.3157 O   0  0  0  0  0  0  0  0  0  0  0  0
    3.3384    0.6121   -4.6065 N   0  0  0  0  0  0  0  0  0  0  0  0
    4.6205    1.3265   -4.5369 C   0  0  0  0  0  0  0  0  0  0  0  0
    5.6996    1.3250   -5.7456 C   0  0  0  0  0  0  0  0  0  0  0  0
    6.6921    2.0009   -5.7706 O   0  0  0  0  0  0  0  0  0  0  0  0
    5.5561    0.3154   -6.6617 O   0  0  0  0  0  0  0  0  0  0  0  0
    4.9580   -1.9883    0.3351 H   0  0  0  0  0  0  0  0  0  0  0  0
    2.5602   -2.0474    0.1569 H   0  0  0  0  0  0  0  0  0  0  0  0
    2.4759    2.2752    0.0593 H   0  0  0  0  0  0  0  0  0  0  0  0
    4.9279    2.3165   -0.2211 H   0  0  0  0  0  0  0  0  0  0  0  0
    7.1709    0.8943    0.6822 H   0  0  0  0  0  0  0  0  0  0  0  0
    7.1692   -0.7270    0.1022 H   0  0  0  0  0  0  0  0  0  0  0  0
    6.2774   -1.6626   -1.1650 H   0  0  0  0  0  0  0  0  0  0  0  0
    5.2794   -0.6726   -4.9981 H   0  0  0  0  0  0  0  0  0  0  0  0
    6.7716   -1.4605   -4.8202 H   0  0  0  0  0  0  0  0  0  0  0  0
    4.6977   -2.7776   -4.8061 H   0  0  0  0  0  0  0  0  0  0  0  0
    5.4516   -2.9439   -3.2487 H   0  0  0  0  0  0  0  0  0  0  0  0
    3.0279   -2.4668   -3.0082 H   0  0  0  0  0  0  0  0  0  0  0  0
    3.8046   -1.1055   -2.3416 H   0  0  0  0  0  0  0  0  0  0  0  0
    2.6323    1.0955   -5.1378 H   0  0  0  0  0  0  0  0  0  0  0  0
    4.6157    2.3162   -4.0727 H   0  0  0  0  0  0  0  0  0  0  0  0
    4.9828    0.8350   -3.6686 H   0  0  0  0  0  0  0  0  0  0  0  0
    6.4304    0.1444   -7.0889 H   0  0  0  0  0  0  0  0  0  0  0  0
  1  2  2  0  0  0  0
  1  3  1  0  0  0  0
  1  7  1  0  0  0  0
  4  5  2  0  0  0  0
  4  9  1  0  0  0  0
  4 10  1  0  0  0  0
  5  6  1  0  0  0  0
  5 25  1  0  0  0  0
  6  7  2  0  0  0  0
  6 26  1  0  0  0  0
  7  8  1  0  0  0  0
  8  9  2  0  0  0  0
  8 27  1  0  0  0  0
  9 28  1  0  0  0  0
 10 11  1  0  0  0  0
 10 29  1  0  0  0  0
 10 30  1  0  0  0  0
 12 11  1  0  0  0  0
 12 13  2  1  0  0  0
 12 14  1  0  0  0  0
 12 15  1  0  0  0  0
 14 31  1  0  0  0  0
 15 16  1  0  0  0  0
 15 32  1  0  0  0  0
 15 33  1  0  0  0  0
 16 17  1  0  0  0  0
 16 34  1  0  0  0  0
 16 35  1  0  0  0  0
 17 18  1  0  0  0  0
 17 36  1  0  0  0  0
 17 37  1  0  0  0  0
 18 19  2  0  0  0  0
 18 20  1  0  0  0  0
 20 21  1  0  0  0  0
 20 38  1  0  0  0  0
 21 22  1  0  0  0  0
 21 39  1  0  0  0  0
 21 40  1  0  0  0  0
 22 23  2  0  0  0  0
 22 24  1  0  0  0  0
 24 41  1  0  0  0  0
M  CHG  2   1   1   3  -1
M  END
>  <DRUGBANK_ID>
DB08409

>  <COMMON_NAME>
4-NITRO-BENZYLPHOSPHONOBUTANOYL-GLYCINE

$$$$
