7X1
 OpenBabel10282417163D

 60 64  0  0  0  0  0  0  0  0999 V2000
    1.1343   -0.8684    0.2250 C   0  0  0  0  0  0  0  0  0  0  0  0
    1.3530   -0.3705   -1.5650 O   0  0  0  0  0  0  0  0  0  0  0  0
    1.3808    0.9257   -2.3556 C   0  0  0  0  0  0  0  0  0  0  0  0
    0.2028    1.5563   -3.1014 C   0  0  0  0  0  0  0  0  0  0  0  0
    0.3917    2.3586   -4.2112 C   0  0  0  0  0  0  0  0  0  0  0  0
   -0.6029    2.8489   -5.1191 C   0  0  0  0  0  0  0  0  0  0  0  0
   -1.9956    2.5823   -5.0300 N   0  0  0  0  0  0  0  0  0  0  0  0
   -2.9718    3.0041   -5.9798 C   0  0  0  0  0  0  0  0  0  0  0  0
   -4.1272    3.6728   -5.5632 C   0  0  0  0  0  0  0  0  0  0  0  0
   -4.4893    3.9497   -4.2718 O   0  0  0  0  0  0  0  0  0  0  0  0
   -5.7890    4.5494   -4.4652 C   0  0  0  0  0  0  0  0  0  0  0  0
   -6.0705    4.8478   -5.8460 O   0  0  0  0  0  0  0  0  0  0  0  0
   -5.0449    4.1932   -6.4595 C   0  0  0  0  0  0  0  0  0  0  0  0
   -4.9009    4.0512   -7.8234 C   0  0  0  0  0  0  0  0  0  0  0  0
   -3.8000    3.3282   -8.2824 C   0  0  0  0  0  0  0  0  0  0  0  0
   -2.8550    2.7999   -7.3769 C   0  0  0  0  0  0  0  0  0  0  0  0
   -1.5931    1.8339   -8.0761 Cl  0  0  0  0  0  0  0  0  0  0  0  0
   -0.2181    3.7121   -6.0656 N   0  0  0  0  0  0  0  0  0  0  0  0
    1.0865    3.9927   -6.1435 C   0  0  0  0  0  0  0  0  0  0  0  0
    2.0792    3.5088   -5.3859 N   0  0  0  0  0  0  0  0  0  0  0  0
    1.7454    2.6797   -4.4155 C   0  0  0  0  0  0  0  0  0  0  0  0
    2.8074    2.1712   -3.5929 C   0  0  0  0  0  0  0  0  0  0  0  0
    2.6638    1.2758   -2.5525 C   0  0  0  0  0  0  0  0  0  0  0  0
    3.7107    0.8004   -1.8012 O   0  0  0  0  0  0  0  0  0  0  0  0
    3.3721    0.0727   -0.6009 C   0  0  0  0  0  0  0  0  0  0  0  0
    2.0992    1.0545    0.4600 C   0  0  0  0  0  0  0  0  0  0  0  0
    0.2623    1.0177   -0.3233 C   0  0  0  0  0  0  0  0  0  0  0  0
   -0.6493   -0.5661   -1.2755 N   0  0  0  0  0  0  0  0  0  0  0  0
   -0.1645   -0.9628   -2.8929 C   0  0  0  0  0  0  0  0  0  0  0  0
   -0.5336   -2.1966   -3.6158 C   0  0  0  0  0  0  0  0  0  0  0  0
    0.1205   -3.3681   -2.9539 C   0  0  0  0  0  0  0  0  0  0  0  0
   -0.3367   -3.4513   -1.5301 C   0  0  0  0  0  0  0  0  0  0  0  0
   -0.0565   -2.2113   -0.7990 C   0  0  0  0  0  0  0  0  0  0  0  0
    0.0542   -0.8427    0.4602 H   0  0  0  0  0  0  0  0  0  0  0  0
    0.7860   -0.1530    1.0718 H   0  0  0  0  0  0  0  0  0  0  0  0
    1.6334   -0.1717   -0.2944 H   0  0  0  0  0  0  0  0  0  0  0  0
   -0.8632    1.3250   -2.9016 H   0  0  0  0  0  0  0  0  0  0  0  0
   -2.3229    1.8205   -4.4489 H   0  0  0  0  0  0  0  0  0  0  0  0
   -6.5532    3.8500   -4.1020 H   0  0  0  0  0  0  0  0  0  0  0  0
   -5.8652    5.4693   -3.8722 H   0  0  0  0  0  0  0  0  0  0  0  0
   -5.6245    4.4637   -8.5178 H   0  0  0  0  0  0  0  0  0  0  0  0
   -3.6689    3.1666   -9.3506 H   0  0  0  0  0  0  0  0  0  0  0  0
    1.3828    4.7030   -6.9006 H   0  0  0  0  0  0  0  0  0  0  0  0
    3.8193    2.4993   -3.7810 H   0  0  0  0  0  0  0  0  0  0  0  0
    3.0355   -0.9806   -0.9871 H   0  0  0  0  0  0  0  0  0  0  0  0
    4.1610   -0.4576   -0.0254 H   0  0  0  0  0  0  0  0  0  0  0  0
    2.2640    0.3352    1.4259 H   0  0  0  0  0  0  0  0  0  0  0  0
    2.5882    1.9580    0.9114 H   0  0  0  0  0  0  0  0  0  0  0  0
   -0.5737    1.2535    0.3819 H   0  0  0  0  0  0  0  0  0  0  0  0
    0.2430    1.9446   -0.9101 H   0  0  0  0  0  0  0  0  0  0  0  0
    0.9366   -1.1203   -3.1174 H   0  0  0  0  0  0  0  0  0  0  0  0
   -0.5645   -0.2676   -3.5897 H   0  0  0  0  0  0  0  0  0  0  0  0
   -0.0905   -2.0503   -4.6227 H   0  0  0  0  0  0  0  0  0  0  0  0
   -1.6109   -2.1637   -3.6524 H   0  0  0  0  0  0  0  0  0  0  0  0
   -0.1743   -4.2663   -3.4728 H   0  0  0  0  0  0  0  0  0  0  0  0
    1.2281   -3.2803   -3.0135 H   0  0  0  0  0  0  0  0  0  0  0  0
   -1.3937   -3.5618   -1.3797 H   0  0  0  0  0  0  0  0  0  0  0  0
    0.2569   -4.2272   -1.0136 H   0  0  0  0  0  0  0  0  0  0  0  0
   -0.2568   -2.4508    0.2785 H   0  0  0  0  0  0  0  0  0  0  0  0
    1.0745   -2.3105   -0.9217 H   0  0  0  0  0  0  0  0  0  0  0  0
  1  2  1  0  0  0  0
  1 34  1  0  0  0  0
  1 35  1  0  0  0  0
  1 36  1  0  0  0  0
  2  3  1  0  0  0  0
  3  4  1  0  0  0  0
  3 23  2  0  0  0  0
  4  5  2  0  0  0  0
  4 37  1  0  0  0  0
  5  6  1  0  0  0  0
  5 21  1  0  0  0  0
  6  7  1  0  0  0  0
  6 18  2  0  0  0  0
  7  8  1  0  0  0  0
  7 38  1  0  0  0  0
  8  9  1  0  0  0  0
  8 16  2  0  0  0  0
  9 10  1  0  0  0  0
  9 13  2  0  0  0  0
 10 11  1  0  0  0  0
 11 12  1  0  0  0  0
 11 39  1  0  0  0  0
 11 40  1  0  0  0  0
 12 13  1  0  0  0  0
 13 14  1  0  0  0  0
 14 15  2  0  0  0  0
 14 41  1  0  0  0  0
 15 16  1  0  0  0  0
 15 42  1  0  0  0  0
 16 17  1  0  0  0  0
 18 19  1  0  0  0  0
 19 20  2  0  0  0  0
 19 43  1  0  0  0  0
 20 21  1  0  0  0  0
 21 22  2  0  0  0  0
 22 23  1  0  0  0  0
 22 44  1  0  0  0  0
 23 24  1  0  0  0  0
 24 25  1  0  0  0  0
 25 26  1  0  0  0  0
 25 45  1  0  0  0  0
 25 46  1  0  0  0  0
 26 27  1  0  0  0  0
 26 47  1  0  0  0  0
 26 48  1  0  0  0  0
 27 28  1  0  0  0  0
 27 49  1  0  0  0  0
 27 50  1  0  0  0  0
 28 29  1  0  0  0  0
 28 33  1  0  0  0  0
 29 30  1  0  0  0  0
 29 51  1  0  0  0  0
 29 52  1  0  0  0  0
 30 31  1  0  0  0  0
 30 53  1  0  0  0  0
 30 54  1  0  0  0  0
 31 32  1  0  0  0  0
 31 55  1  0  0  0  0
 31 56  1  0  0  0  0
 32 33  1  0  0  0  0
 32 57  1  0  0  0  0
 32 58  1  0  0  0  0
 33 59  1  0  0  0  0
 33 60  1  0  0  0  0
M  END
>  <DRUGBANK_ID>
DB07249

>  <COMMON_NAME>
N-(5-chloro-1,3-benzodioxol-4-yl)-6-methoxy-7-(3-piperidin-1-ylpropoxy)quinazolin-4-amine

$$$$
