1626
 OpenBabel10282417123D

 25 25  0  0  1  0  0  0  0  0999 V2000
    0.9061    0.0200   -0.1346 N   0  0  0  0  0  0  0  0  0  0  0  0
    0.3521    0.3270   -1.4974 C   0  0  0  0  0  0  0  0  0  0  0  0
    0.6252   -0.6162   -2.6841 C   0  0  0  0  0  0  0  0  0  0  0  0
    0.4269   -1.2479    0.4609 C   0  0  0  0  0  0  0  0  0  0  0  0
    2.3693    0.1014   -0.0658 C   0  0  0  0  0  0  0  0  0  0  0  0
    1.7868   -0.4986   -3.4522 C   0  0  0  0  0  0  0  0  0  0  0  0
   -0.1976   -1.7501   -2.9099 C   0  0  0  0  0  0  0  0  0  0  0  0
    2.2336   -1.5533   -4.2660 C   0  0  0  0  0  0  0  0  0  0  0  0
    0.2826   -2.8317   -3.6812 C   0  0  0  0  0  0  0  0  0  0  0  0
    1.5128   -2.7518   -4.3173 C   0  0  0  0  0  0  0  0  0  0  0  0
    0.9336   -2.3504   -0.4545 C   0  0  0  0  0  0  0  0  0  0  0  0
    1.3682   -3.2962   -1.2398 C   0  0  0  0  0  0  0  0  0  0  0  0
   -0.7337    0.4332   -1.3927 H   0  0  0  0  0  0  0  0  0  0  0  0
    0.7072    1.3269   -1.7801 H   0  0  0  0  0  0  0  0  0  0  0  0
    0.7973   -1.3885    1.4817 H   0  0  0  0  0  0  0  0  0  0  0  0
   -0.6676   -1.2587    0.4947 H   0  0  0  0  0  0  0  0  0  0  0  0
    2.7258    1.0890   -0.3721 H   0  0  0  0  0  0  0  0  0  0  0  0
    2.7117   -0.0436    0.9682 H   0  0  0  0  0  0  0  0  0  0  0  0
    2.8802   -0.6474   -0.6813 H   0  0  0  0  0  0  0  0  0  0  0  0
    2.4140    0.3883   -3.3625 H   0  0  0  0  0  0  0  0  0  0  0  0
   -1.0496   -1.9309   -2.2573 H   0  0  0  0  0  0  0  0  0  0  0  0
    3.1801   -1.4793   -4.7852 H   0  0  0  0  0  0  0  0  0  0  0  0
   -0.1856   -3.8157   -3.5549 H   0  0  0  0  0  0  0  0  0  0  0  0
    1.9625   -3.6368   -4.7659 H   0  0  0  0  0  0  0  0  0  0  0  0
    1.8339   -4.1062   -1.7515 H   0  0  0  0  0  0  0  0  0  0  0  0
  1  2  1  0  0  0  0
  1  4  1  0  0  0  0
  1  5  1  0  0  0  0
  2  3  1  0  0  0  0
  2 13  1  0  0  0  0
  2 14  1  0  0  0  0
  3  6  2  0  0  0  0
  3  7  1  0  0  0  0
  4 11  1  0  0  0  0
  4 15  1  0  0  0  0
  4 16  1  0  0  0  0
  5 17  1  0  0  0  0
  5 18  1  0  0  0  0
  5 19  1  0  0  0  0
  6  8  1  0  0  0  0
  6 20  1  0  0  0  0
  7  9  2  0  0  0  0
  7 21  1  0  0  0  0
  8 10  2  0  0  0  0
  8 22  1  0  0  0  0
  9 10  1  0  0  0  0
  9 23  1  0  0  0  0
 10 24  1  0  0  0  0
 11 12  3  0  0  0  0
 12 25  1  0  0  0  0
M  END
>  <DRUGBANK_ID>
DB01626

>  <COMMON_NAME>
Pargyline

>  <CAS_NUMBER>
555-57-7

>  <UNII>
9MV14S8G3E

>  <SYNONYMS>
Pargilina; Pargyline; Pargylinum

$$$$
