
 OpenBabel10282417103D

119118  0  0  0  0  0  0  0  0999 V2000
    0.9493   -0.0854   -0.0116 O   0  0  0  0  0  0  0  0  0  0  0  0
    1.0723    0.0678   -0.0135 O   0  0  0  0  0  0  0  0  0  0  0  0
    0.4489    0.7804   -1.6261 Al  0  0  0  0  0  0  0  0  0  0  0  0
    1.6641    1.3548   -2.9262 O   0  0  0  0  0  0  0  0  0  0  0  0
   -1.3896    0.9185   -1.9387 O   0  0  0  0  0  0  0  0  0  0  0  0
    0.9445   -0.0490   -0.0671 O   0  0  0  0  0  0  0  0  0  0  0  0
    0.3211    0.6563    1.5486 Al  0  0  0  0  0  0  0  0  0  0  0  0
    1.5363    1.2250    2.8513 O   0  0  0  0  0  0  0  0  0  0  0  0
   -1.5174    0.7931    1.8618 O   0  0  0  0  0  0  0  0  0  0  0  0
   -1.7832    1.4689    3.4099 S   0  0  0  0  0  0  0  0  0  0  0  0
   -1.1498    0.5702    4.4745 O   0  0  0  0  0  0  0  0  0  0  0  0
   -1.1498    2.8606    3.4746 O   0  0  0  0  0  0  0  0  0  0  0  0
   -3.4644    1.5939    3.6963 O   0  0  0  0  0  0  0  0  0  0  0  0
   -3.6851    2.1552    4.9819 C   0  0  0  0  0  0  0  0  0  0  0  0
   -3.0560    1.2626    6.0392 C   0  0  1  0  0  0  0  0  0  0  0  0
   -3.6085   -0.0763    5.9433 O   0  0  0  0  0  0  0  0  0  0  0  0
   -2.5533   -1.0465    5.9397 C   0  0  1  0  0  0  0  0  0  0  0  0
   -2.8459   -2.1440    6.9498 C   0  0  0  0  0  0  0  0  0  0  0  0
   -3.3162   -3.2866    6.2501 O   0  0  0  0  0  0  0  0  0  0  0  0
   -4.6849   -2.8605    5.3177 S   0  0  0  0  0  0  0  0  0  0  0  0
   -5.7881   -2.3376    6.2405 O   0  0  0  0  0  0  0  0  0  0  0  0
   -4.2997   -1.7708    4.3146 O   0  0  0  0  0  0  0  0  0  0  0  0
   -5.2512   -4.2365    4.4750 O   0  0  0  0  0  0  0  0  0  0  0  0
   -6.7480   -3.7706    3.4553 Al  0  0  0  0  0  0  0  0  0  0  0  0
   -7.3857   -2.0129    3.4798 O   0  0  0  0  0  0  0  0  0  0  0  0
   -7.6070   -5.0625    2.4112 O   0  0  0  0  0  0  0  0  0  0  0  0
   -2.4246   -1.6598    4.6654 O   0  0  0  0  0  0  0  0  0  0  0  0
   -2.1336   -0.6467    3.7139 C   0  0  1  0  0  0  0  0  0  0  0  0
   -3.2006    0.3172    3.6060 O   0  0  0  0  0  0  0  0  0  0  0  0
   -2.9206    1.3521    2.6413 C   0  0  2  0  0  0  0  0  0  0  0  0
   -2.7377    0.7194    1.2714 C   0  0  0  0  0  0  0  0  0  0  0  0
   -3.8103   -0.2004    1.1310 O   0  0  0  0  0  0  0  0  0  0  0  0
   -3.6787   -1.4163    2.3262 S   0  0  0  0  0  0  0  0  0  0  0  0
   -2.3485   -2.1544    2.1587 O   0  0  0  0  0  0  0  0  0  0  0  0
   -3.7350   -0.7750    3.7147 O   0  0  0  0  0  0  0  0  0  0  0  0
   -4.9704   -2.5239    2.1571 O   0  0  0  0  0  0  0  0  0  0  0  0
   -4.8265   -3.8536    3.4642 Al  0  0  0  0  0  0  0  0  0  0  0  0
   -3.4129   -3.8128    4.6877 O   0  0  0  0  0  0  0  0  0  0  0  0
   -6.0961   -5.2239    3.5477 O   0  0  0  0  0  0  0  0  0  0  0  0
   -1.6456    2.1174    3.0151 C   0  0  1  0  0  0  0  0  0  0  0  0
   -1.8579    2.8170    4.2325 O   0  0  0  0  0  0  0  0  0  0  0  0
   -2.2383    1.7018    5.4718 S   0  0  0  0  0  0  0  0  0  0  0  0
   -3.5083    0.9350    5.0960 O   0  0  0  0  0  0  0  0  0  0  0  0
   -1.0799    0.7167    5.6449 O   0  0  0  0  0  0  0  0  0  0  0  0
   -2.4939    2.5442    6.9378 O   0  0  0  0  0  0  0  0  0  0  0  0
   -2.9099    1.3248    8.2931 Al  0  0  0  0  0  0  0  0  0  0  0  0
   -2.9884   -0.5045    7.9131 O   0  0  0  0  0  0  0  0  0  0  0  0
   -3.2473    1.9346   10.0284 O   0  0  0  0  0  0  0  0  0  0  0  0
   -0.4883    1.1372    3.1914 C   0  0  2  0  0  0  0  0  0  0  0  0
   -0.1931    0.5662    1.9252 O   0  0  0  0  0  0  0  0  0  0  0  0
   -1.5676   -0.2666    1.3410 S   0  0  0  0  0  0  0  0  0  0  0  0
   -1.9483   -1.3756    2.3246 O   0  0  0  0  0  0  0  0  0  0  0  0
   -2.7353    0.7126    1.1993 O   0  0  0  0  0  0  0  0  0  0  0  0
   -1.2120   -0.9542   -0.1837 O   0  0  0  0  0  0  0  0  0  0  0  0
   -2.7152   -1.8649   -0.8226 Al  0  0  0  0  0  0  0  0  0  0  0  0
   -4.2841   -1.9084    0.1940 O   0  0  0  0  0  0  0  0  0  0  0  0
   -2.6493   -2.7322   -2.4780 O   0  0  0  0  0  0  0  0  0  0  0  0
   -0.8494    0.0104    4.1496 C   0  0  1  0  0  0  0  0  0  0  0  0
   -1.0124    0.5396    5.4572 O   0  0  0  0  0  0  0  0  0  0  0  0
   -2.5626    1.2023    5.7434 S   0  0  0  0  0  0  0  0  0  0  0  0
   -2.8357    2.3170    4.7308 O   0  0  0  0  0  0  0  0  0  0  0  0
   -3.6211    0.1071    5.5943 O   0  0  0  0  0  0  0  0  0  0  0  0
   -2.6249    1.8434    7.3274 O   0  0  0  0  0  0  0  0  0  0  0  0
   -4.3201    2.5681    7.6404 Al  0  0  0  0  0  0  0  0  0  0  0  0
   -5.6242    2.5085    6.3014 O   0  0  0  0  0  0  0  0  0  0  0  0
   -4.7112    3.3526    9.2922 O   0  0  0  0  0  0  0  0  0  0  0  0
   -1.2729   -0.2996    6.3262 C   0  0  1  0  0  0  0  0  0  0  0  0
   -0.0937   -0.8779    5.7863 O   0  0  0  0  0  0  0  0  0  0  0  0
   -0.2107   -0.9239    4.0809 S   0  0  0  0  0  0  0  0  0  0  0  0
   -1.4233   -1.7650    3.6752 O   0  0  0  0  0  0  0  0  0  0  0  0
   -0.3738    0.4993    3.5422 O   0  0  0  0  0  0  0  0  0  0  0  0
    1.2093   -1.6203    3.4307 O   0  0  0  0  0  0  0  0  0  0  0  0
    1.0813   -1.6706    1.5658 Al  0  0  0  0  0  0  0  0  0  0  0  0
   -0.4482   -1.0116    0.7154 O   0  0  0  0  0  0  0  0  0  0  0  0
    2.4829   -2.3799    0.5512 O   0  0  0  0  0  0  0  0  0  0  0  0
   -1.5491    1.1088    5.8154 C   0  0  2  0  0  0  0  0  0  0  0  0
   -0.8206    2.0744    6.5593 O   0  0  0  0  0  0  0  0  0  0  0  0
    0.1337    1.1274    7.6160 S   0  0  0  0  0  0  0  0  0  0  0  0
   -0.7642    0.4822    8.6742 O   0  0  0  0  0  0  0  0  0  0  0  0
    0.8474    0.0342    6.8173 O   0  0  0  0  0  0  0  0  0  0  0  0
    1.2937    2.1226    8.3827 O   0  0  0  0  0  0  0  0  0  0  0  0
    2.3373    1.0870    9.5382 Al  0  0  0  0  0  0  0  0  0  0  0  0
    2.0133   -0.7477    9.6996 O   0  0  0  0  0  0  0  0  0  0  0  0
    3.7049    1.8859   10.5323 O   0  0  0  0  0  0  0  0  0  0  0  0
    0.6160    0.6270    0.6060 H   0  0  0  0  0  0  0  0  0  0  0  0
    1.9493   -0.0854   -0.0116 H   0  0  0  0  0  0  0  0  0  0  0  0
    2.0723    0.0678   -0.0135 H   0  0  0  0  0  0  0  0  0  0  0  0
    2.5973    1.2096   -2.5975 H   0  0  0  0  0  0  0  0  0  0  0  0
   -1.5450    1.3177   -2.8422 H   0  0  0  0  0  0  0  0  0  0  0  0
    1.9445   -0.0490   -0.0671 H   0  0  0  0  0  0  0  0  0  0  0  0
    2.4695    1.0813    2.5220 H   0  0  0  0  0  0  0  0  0  0  0  0
   -3.2423    3.1282    5.0271 H   0  0  0  0  0  0  0  0  0  0  0  0
   -4.7371    2.2334    5.1611 H   0  0  0  0  0  0  0  0  0  0  0  0
   -3.2541    1.7174    6.9873 H   0  0  0  0  0  0  0  0  0  0  0  0
   -1.9895   -2.4106    7.5333 H   0  0  0  0  0  0  0  0  0  0  0  0
   -3.6172   -1.7783    7.5950 H   0  0  0  0  0  0  0  0  0  0  0  0
   -6.8136   -1.4591    4.0849 H   0  0  0  0  0  0  0  0  0  0  0  0
   -8.3814   -4.6455    1.9354 H   0  0  0  0  0  0  0  0  0  0  0  0
   -2.0315   -1.0776    2.7398 H   0  0  0  0  0  0  0  0  0  0  0  0
   -3.7408    2.0392    2.6288 H   0  0  0  0  0  0  0  0  0  0  0  0
   -2.8200    1.4802    0.5235 H   0  0  0  0  0  0  0  0  0  0  0  0
   -1.8077    0.2034    1.1543 H   0  0  0  0  0  0  0  0  0  0  0  0
   -2.8332   -3.0196    4.5010 H   0  0  0  0  0  0  0  0  0  0  0  0
   -5.8691   -5.8434    4.2992 H   0  0  0  0  0  0  0  0  0  0  0  0
   -1.4074    2.8126    2.2374 H   0  0  0  0  0  0  0  0  0  0  0  0
   -2.7831   -0.6532    6.9458 H   0  0  0  0  0  0  0  0  0  0  0  0
   -3.4514    1.1558   10.6216 H   0  0  0  0  0  0  0  0  0  0  0  0
    0.3578    1.6651    3.5791 H   0  0  0  0  0  0  0  0  0  0  0  0
   -4.1454   -1.3986    1.0430 H   0  0  0  0  0  0  0  0  0  0  0  0
   -3.5318   -3.1645   -2.6631 H   0  0  0  0  0  0  0  0  0  0  0  0
   -0.0648   -0.7171    4.1470 H   0  0  0  0  0  0  0  0  0  0  0  0
   -5.2493    2.0585    5.4909 H   0  0  0  0  0  0  0  0  0  0  0  0
   -5.6539    3.6860    9.2880 H   0  0  0  0  0  0  0  0  0  0  0  0
   -1.1264   -0.3052    7.3861 H   0  0  0  0  0  0  0  0  0  0  0  0
   -1.0916   -0.6730    1.4020 H   0  0  0  0  0  0  0  0  0  0  0  0
    2.2503   -2.3291   -0.4200 H   0  0  0  0  0  0  0  0  0  0  0  0
   -1.2554    1.2548    4.7969 H   0  0  0  0  0  0  0  0  0  0  0  0
    1.2537   -1.0058    9.1027 H   0  0  0  0  0  0  0  0  0  0  0  0
    4.1581    1.1929   11.0929 H   0  0  0  0  0  0  0  0  0  0  0  0
  1 85  1  0  0  0  0
  1 86  1  0  0  0  0
  2  3  1  0  0  0  0
  2 87  1  0  0  0  0
  3  4  1  0  0  0  0
  3  5  1  0  0  0  0
  4 88  1  0  0  0  0
  5 89  1  0  0  0  0
  6  7  1  0  0  0  0
  6 90  1  0  0  0  0
  7  8  1  0  0  0  0
  7  9  1  0  0  0  0
  8 91  1  0  0  0  0
  9 10  1  0  0  0  0
 10 11  2  0  0  0  0
 10 12  2  0  0  0  0
 10 13  1  0  0  0  0
 13 14  1  0  0  0  0
 14 92  1  0  0  0  0
 14 93  1  0  0  0  0
 15 14  1  0  0  0  0
 15 16  1  0  0  0  0
 15 94  1  1  0  0  0
 17 16  1  0  0  0  0
 17 27  1  6  0  0  0
 17 18  1  0  0  0  0
 18 19  1  0  0  0  0
 18 95  1  0  0  0  0
 18 96  1  0  0  0  0
 19 20  1  0  0  0  0
 20 21  2  0  0  0  0
 20 22  2  0  0  0  0
 20 23  1  0  0  0  0
 23 24  1  0  0  0  0
 24 25  1  0  0  0  0
 24 26  1  0  0  0  0
 25 97  1  0  0  0  0
 26 98  1  0  0  0  0
 28 27  1  0  0  0  0
 28 29  1  0  0  0  0
 28 99  1  6  0  0  0
 30 29  1  0  0  0  0
 30100  1  6  0  0  0
 30 31  1  0  0  0  0
 31 32  1  0  0  0  0
 31101  1  0  0  0  0
 31102  1  0  0  0  0
 32 33  1  0  0  0  0
 33 34  2  0  0  0  0
 33 35  2  0  0  0  0
 33 36  1  0  0  0  0
 36 37  1  0  0  0  0
 37 38  1  0  0  0  0
 37 39  1  0  0  0  0
 38103  1  0  0  0  0
 39104  1  0  0  0  0
 40 30  1  0  0  0  0
 40 41  1  0  0  0  0
 40 49  1  0  0  0  0
 40105  1  6  0  0  0
 41 42  1  0  0  0  0
 42 43  2  0  0  0  0
 42 44  2  0  0  0  0
 42 45  1  0  0  0  0
 45 46  1  0  0  0  0
 46 47  1  0  0  0  0
 46 48  1  0  0  0  0
 47106  1  0  0  0  0
 48107  1  0  0  0  0
 49 50  1  0  0  0  0
 49 58  1  0  0  0  0
 49108  1  1  0  0  0
 50 51  1  0  0  0  0
 51 52  2  0  0  0  0
 51 53  2  0  0  0  0
 51 54  1  0  0  0  0
 54 55  1  0  0  0  0
 55 56  1  0  0  0  0
 55 57  1  0  0  0  0
 56109  1  0  0  0  0
 57110  1  0  0  0  0
 58 28  1  0  0  0  0
 58111  1  1  0  0  0
 58 59  1  0  0  0  0
 59 60  1  0  0  0  0
 60 61  2  0  0  0  0
 60 62  2  0  0  0  0
 60 63  1  0  0  0  0
 63 64  1  0  0  0  0
 64 65  1  0  0  0  0
 64 66  1  0  0  0  0
 65112  1  0  0  0  0
 66113  1  0  0  0  0
 67 17  1  0  0  0  0
 67 68  1  0  0  0  0
 67 76  1  0  0  0  0
 67114  1  1  0  0  0
 68 69  1  0  0  0  0
 69 70  2  0  0  0  0
 69 71  2  0  0  0  0
 69 72  1  0  0  0  0
 72 73  1  0  0  0  0
 73 74  1  0  0  0  0
 73 75  1  0  0  0  0
 74115  1  0  0  0  0
 75116  1  0  0  0  0
 76 15  1  0  0  0  0
 76117  1  6  0  0  0
 76 77  1  0  0  0  0
 77 78  1  0  0  0  0
 78 79  2  0  0  0  0
 78 80  2  0  0  0  0
 78 81  1  0  0  0  0
 81 82  1  0  0  0  0
 82 83  1  0  0  0  0
 82 84  1  0  0  0  0
 83118  1  0  0  0  0
 84119  1  0  0  0  0
M  END
>  <DRUGBANK_ID>
DB00364

>  <SECONDARY_ACCESSION_NUMBERS>
APRD01238

>  <COMMON_NAME>
Sucralfate

>  <CAS_NUMBER>
54182-58-0

>  <UNII>
XX73205DH5

>  <SYNONYMS>
Hexadeca-μ-hydroxytetracosahydroxy[μ8-[1,3,4,6-tetra-O-sulfo-β-Dfructofuranosyl-α-D-glucopyranoside tetrakis(hydrogen sulfato)8-)]]hexadecaaluminum; Sucralfat; Sucralfate; Sucralfato; Sucralfatum

$$$$
