
 OpenBabel10282417203D

118120  0  0  1  0  0  0  0  0999 V2000
    3.5953    0.8911   -5.3770 C   0  0  0  0  0  0  0  0  0  0  0  0
    2.6249    0.9718   -6.4408 C   0  0  0  0  0  0  0  0  0  0  0  0
    1.7713    2.0241   -5.9159 C   0  0  2  0  0  0  0  0  0  0  0  0
    2.5834    3.8562   -5.7995 C   0  0  1  0  0  0  0  0  0  0  0  0
    3.7314    4.4275   -6.6870 C   0  0  1  0  0  0  0  0  0  0  0  0
    5.1869    4.8075   -5.9568 C   0  0  2  0  0  0  0  0  0  0  0  0
    6.2373    3.7792   -5.3419 C   0  0  0  0  0  0  0  0  0  0  0  0
    6.7283    3.1050   -6.2495 O   0  0  0  0  0  0  0  0  0  0  0  0
    6.8237    3.7444   -3.6560 C   0  0  1  0  0  0  0  0  0  0  0  0
    6.7793    2.3174   -2.5437 C   0  0  0  0  0  0  0  0  0  0  0  0
    5.7452    1.3980   -1.2917 C   0  0  1  0  0  0  0  0  0  0  0  0
    4.9411    0.2372   -1.8006 C   0  0  1  0  0  0  0  0  0  0  0  0
    3.8875   -0.7152   -1.1371 C   0  0  2  0  0  0  0  0  0  0  0  0
    2.7060   -1.1425   -2.2005 C   0  0  1  0  0  0  0  0  0  0  0  0
    1.4919    0.0365   -2.5258 C   0  0  2  0  0  0  0  0  0  0  0  0
    1.0772    0.1111   -4.0615 C   0  0  0  0  0  0  0  0  0  0  0  0
    0.9734   -0.9239   -4.7178 O   0  0  0  0  0  0  0  0  0  0  0  0
    0.8616    1.3456   -4.6628 O   0  0  0  0  0  0  0  0  0  0  0  0
    1.7938    1.2217   -1.6541 C   0  0  0  0  0  0  0  0  0  0  0  0
    3.3039   -2.1149   -3.2390 O   0  0  0  0  0  0  0  0  0  0  0  0
    4.1938   -1.6384   -4.3582 C   0  0  1  0  0  0  0  0  0  0  0  0
    5.6748   -1.2865   -3.9997 C   0  0  0  0  0  0  0  0  0  0  0  0
    6.7261   -0.5563   -4.8853 C   0  0  1  0  0  0  0  0  0  0  0  0
    6.6995   -1.3547   -6.1284 C   0  0  2  0  0  0  0  0  0  0  0  0
    5.2460   -1.6174   -6.6601 C   0  0  1  0  0  0  0  0  0  0  0  0
    4.3256   -2.2898   -5.6756 O   0  0  0  0  0  0  0  0  0  0  0  0
    4.7080   -0.4780   -7.5578 C   0  0  0  0  0  0  0  0  0  0  0  0
    7.3374   -2.5568   -5.7340 O   0  0  0  0  0  0  0  0  0  0  0  0
    6.4855    0.8531   -5.3654 C   0  0  0  0  0  0  0  0  0  0  0  0
    8.1154   -0.5465   -4.2652 O   0  0  0  0  0  0  0  0  0  0  0  0
    8.3835    0.4384   -3.2843 C   0  0  0  0  0  0  0  0  0  0  0  0
    3.5164   -0.1693    0.2517 C   0  0  0  0  0  0  0  0  0  0  0  0
    4.4201    0.9040   -2.9685 O   0  0  0  0  0  0  0  0  0  0  0  0
    3.7778    2.2308   -2.8086 C   0  0  1  0  0  0  0  0  0  0  0  0
    4.5876    3.4740   -2.5495 C   0  0  1  0  0  0  0  0  0  0  0  0
    3.8185    4.7541   -2.3642 C   0  0  2  0  0  0  0  0  0  0  0  0
    2.6708    4.8063   -3.2928 C   0  0  0  0  0  0  0  0  0  0  0  0
    1.5449    3.4832   -3.8848 C   0  0  2  0  0  0  0  0  0  0  0  0
    2.5374    2.3370   -3.6687 O   0  0  0  0  0  0  0  0  0  0  0  0
    0.4908    3.6460   -5.7208 C   0  0  0  0  0  0  0  0  0  0  0  0
    4.6166    6.1558   -2.1622 N   0  0  0  0  0  0  0  0  0  0  0  0
    5.3644    6.1222   -0.9273 C   0  0  0  0  0  0  0  0  0  0  0  0
    5.2596    7.2865   -3.0115 C   0  0  0  0  0  0  0  0  0  0  0  0
    5.5847    3.6903   -1.4213 O   0  0  0  0  0  0  0  0  0  0  0  0
    6.6933    0.8629   -0.2608 C   0  0  0  0  0  0  0  0  0  0  0  0
    4.7870    2.1028   -0.4162 O   0  0  0  0  0  0  0  0  0  0  0  0
    8.0408    4.5322   -3.3863 C   0  0  0  0  0  0  0  0  0  0  0  0
    6.1219    4.7362   -3.0575 F   0  0  0  0  0  0  0  0  0  0  0  0
    4.9807    5.8669   -5.0425 C   0  0  0  0  0  0  0  0  0  0  0  0
    4.0806    3.4184   -7.6204 O   0  0  0  0  0  0  0  0  0  0  0  0
    1.3833    5.4237   -5.0053 C   0  0  0  0  0  0  0  0  0  0  0  0
    3.7300    3.4388   -5.1194 O   0  0  0  0  0  0  0  0  0  0  0  0
    4.2415    1.7160   -5.4008 H   0  0  0  0  0  0  0  0  0  0  0  0
    4.3588    0.1788   -5.3622 H   0  0  0  0  0  0  0  0  0  0  0  0
    3.0954    0.6602   -4.4750 H   0  0  0  0  0  0  0  0  0  0  0  0
    2.9676    1.3613   -7.3886 H   0  0  0  0  0  0  0  0  0  0  0  0
    2.1206    0.0129   -6.5528 H   0  0  0  0  0  0  0  0  0  0  0  0
    0.9702    1.8634   -6.6753 H   0  0  0  0  0  0  0  0  0  0  0  0
    3.3370    5.3301   -7.1281 H   0  0  0  0  0  0  0  0  0  0  0  0
    5.8017    5.3304   -6.6840 H   0  0  0  0  0  0  0  0  0  0  0  0
    6.6990    1.6078   -3.3033 H   0  0  0  0  0  0  0  0  0  0  0  0
    7.7299    2.3911   -2.0196 H   0  0  0  0  0  0  0  0  0  0  0  0
    5.7293   -0.5581   -1.8409 H   0  0  0  0  0  0  0  0  0  0  0  0
    4.3691   -1.6873   -0.9130 H   0  0  0  0  0  0  0  0  0  0  0  0
    2.0677   -1.8022   -1.5951 H   0  0  0  0  0  0  0  0  0  0  0  0
    0.5660   -0.1434   -1.9875 H   0  0  0  0  0  0  0  0  0  0  0  0
    1.5546    2.2243   -1.9594 H   0  0  0  0  0  0  0  0  0  0  0  0
    2.0857    1.4646   -0.6341 H   0  0  0  0  0  0  0  0  0  0  0  0
    2.7925    0.9240   -1.7801 H   0  0  0  0  0  0  0  0  0  0  0  0
    3.4253   -0.9954   -4.6680 H   0  0  0  0  0  0  0  0  0  0  0  0
    5.7562   -0.4696   -3.3929 H   0  0  0  0  0  0  0  0  0  0  0  0
    6.0556   -2.1049   -3.3807 H   0  0  0  0  0  0  0  0  0  0  0  0
    7.3148   -0.8232   -6.8604 H   0  0  0  0  0  0  0  0  0  0  0  0
    5.3689   -2.3869   -7.4076 H   0  0  0  0  0  0  0  0  0  0  0  0
    5.4077    0.0950   -8.1780 H   0  0  0  0  0  0  0  0  0  0  0  0
    3.7042   -0.6380   -7.9512 H   0  0  0  0  0  0  0  0  0  0  0  0
    4.5413    0.3921   -7.0102 H   0  0  0  0  0  0  0  0  0  0  0  0
    6.8213   -3.2734   -6.1122 H   0  0  0  0  0  0  0  0  0  0  0  0
    5.8870    1.4358   -4.6889 H   0  0  0  0  0  0  0  0  0  0  0  0
    7.4283    1.3150   -5.6311 H   0  0  0  0  0  0  0  0  0  0  0  0
    5.9263    1.0231   -6.2633 H   0  0  0  0  0  0  0  0  0  0  0  0
    8.4702    1.4272   -3.7721 H   0  0  0  0  0  0  0  0  0  0  0  0
    7.5856    0.2613   -2.5815 H   0  0  0  0  0  0  0  0  0  0  0  0
    9.2060    0.4925   -2.5517 H   0  0  0  0  0  0  0  0  0  0  0  0
    4.0070    0.7476    0.4853 H   0  0  0  0  0  0  0  0  0  0  0  0
    2.4758    0.0818    0.3929 H   0  0  0  0  0  0  0  0  0  0  0  0
    3.9359   -0.7041    1.0936 H   0  0  0  0  0  0  0  0  0  0  0  0
    3.3890    2.3582   -1.8777 H   0  0  0  0  0  0  0  0  0  0  0  0
    5.0452    3.2634   -3.4940 H   0  0  0  0  0  0  0  0  0  0  0  0
    3.2918    4.5805   -1.4354 H   0  0  0  0  0  0  0  0  0  0  0  0
    2.6634    5.8780   -3.4707 H   0  0  0  0  0  0  0  0  0  0  0  0
    3.2344    4.7862   -4.1551 H   0  0  0  0  0  0  0  0  0  0  0  0
    0.7583    3.3667   -3.1713 H   0  0  0  0  0  0  0  0  0  0  0  0
    0.6932    4.5490   -6.4484 H   0  0  0  0  0  0  0  0  0  0  0  0
    0.9834    3.4143   -6.8000 H   0  0  0  0  0  0  0  0  0  0  0  0
   -0.5170    3.4046   -5.7557 H   0  0  0  0  0  0  0  0  0  0  0  0
    6.4350    6.3211   -1.0724 H   0  0  0  0  0  0  0  0  0  0  0  0
    4.8328    6.8433   -0.3391 H   0  0  0  0  0  0  0  0  0  0  0  0
    5.2967    5.2247   -0.3224 H   0  0  0  0  0  0  0  0  0  0  0  0
    6.3548    7.4099   -2.8499 H   0  0  0  0  0  0  0  0  0  0  0  0
    5.4490    7.4866   -4.0974 H   0  0  0  0  0  0  0  0  0  0  0  0
    4.5499    8.1040   -3.0044 H   0  0  0  0  0  0  0  0  0  0  0  0
    5.7569    3.1571   -0.6002 H   0  0  0  0  0  0  0  0  0  0  0  0
    7.1904    1.7319    0.1544 H   0  0  0  0  0  0  0  0  0  0  0  0
    6.1169    0.3552    0.5113 H   0  0  0  0  0  0  0  0  0  0  0  0
    7.4139    0.1509   -0.6488 H   0  0  0  0  0  0  0  0  0  0  0  0
    4.3398    2.9358   -0.6896 H   0  0  0  0  0  0  0  0  0  0  0  0
    7.8011    5.5703   -3.6705 H   0  0  0  0  0  0  0  0  0  0  0  0
    8.1421    4.5769   -2.2848 H   0  0  0  0  0  0  0  0  0  0  0  0
    8.8443    4.1232   -3.9524 H   0  0  0  0  0  0  0  0  0  0  0  0
    5.9288    5.9020   -4.5339 H   0  0  0  0  0  0  0  0  0  0  0  0
    4.4425    6.6968   -5.4693 H   0  0  0  0  0  0  0  0  0  0  0  0
    4.3876    5.7819   -4.2034 H   0  0  0  0  0  0  0  0  0  0  0  0
    4.5658    2.7618   -7.0739 H   0  0  0  0  0  0  0  0  0  0  0  0
    0.5117    4.9610   -4.3186 H   0  0  0  0  0  0  0  0  0  0  0  0
    1.3716    6.1074   -4.1630 H   0  0  0  0  0  0  0  0  0  0  0  0
    0.6366    5.9015   -5.6276 H   0  0  0  0  0  0  0  0  0  0  0  0
    3.3497    2.9301   -4.4209 H   0  0  0  0  0  0  0  0  0  0  0  0
  1  2  1  0  0  0  0
  1 53  1  0  0  0  0
  1 54  1  0  0  0  0
  1 55  1  0  0  0  0
  2 56  1  0  0  0  0
  2 57  1  0  0  0  0
  3  2  1  0  0  0  0
  3  4  1  0  0  0  0
  3 18  1  0  0  0  0
  3 58  1  6  0  0  0
  4  5  1  0  0  0  0
  4 51  1  0  0  0  0
  4 52  1  1  0  0  0
  5  6  1  0  0  0  0
  5 50  1  0  0  0  0
  5 59  1  6  0  0  0
  6  7  1  0  0  0  0
  6 60  1  6  0  0  0
  6 49  1  0  0  0  0
  7  8  2  0  0  0  0
  7  9  1  0  0  0  0
  9 10  1  0  0  0  0
  9 47  1  0  0  0  0
  9 48  1  1  0  0  0
 10 11  1  0  0  0  0
 10 61  1  0  0  0  0
 10 62  1  0  0  0  0
 11 12  1  0  0  0  0
 11 45  1  0  0  0  0
 11 46  1  1  0  0  0
 12 13  1  0  0  0  0
 12 33  1  0  0  0  0
 12 63  1  6  0  0  0
 13 14  1  0  0  0  0
 13 64  1  1  0  0  0
 13 32  1  0  0  0  0
 14 15  1  0  0  0  0
 14 20  1  0  0  0  0
 14 65  1  1  0  0  0
 15 16  1  0  0  0  0
 15 66  1  1  0  0  0
 15 19  1  0  0  0  0
 16 17  2  0  0  0  0
 16 18  1  0  0  0  0
 19 67  1  0  0  0  0
 19 68  1  0  0  0  0
 19 69  1  0  0  0  0
 21 22  1  0  0  0  0
 21 26  1  0  0  0  0
 21 70  1  6  0  0  0
 21 20  1  0  0  0  0
 22 23  1  0  0  0  0
 22 71  1  0  0  0  0
 22 72  1  0  0  0  0
 23 24  1  0  0  0  0
 23 29  1  0  0  0  0
 23 30  1  1  0  0  0
 24 25  1  0  0  0  0
 24 73  1  6  0  0  0
 24 28  1  0  0  0  0
 25 26  1  0  0  0  0
 25 27  1  0  0  0  0
 25 74  1  6  0  0  0
 27 75  1  0  0  0  0
 27 76  1  0  0  0  0
 27 77  1  0  0  0  0
 28 78  1  0  0  0  0
 29 79  1  0  0  0  0
 29 80  1  0  0  0  0
 29 81  1  0  0  0  0
 30 31  1  0  0  0  0
 31 82  1  0  0  0  0
 31 83  1  0  0  0  0
 31 84  1  0  0  0  0
 32 85  1  0  0  0  0
 32 86  1  0  0  0  0
 32 87  1  0  0  0  0
 34 35  1  0  0  0  0
 34 39  1  0  0  0  0
 34 88  1  1  0  0  0
 34 33  1  0  0  0  0
 35 36  1  0  0  0  0
 35 44  1  0  0  0  0
 35 89  1  6  0  0  0
 36 37  1  0  0  0  0
 36 90  1  1  0  0  0
 36 41  1  0  0  0  0
 37 38  1  0  0  0  0
 37 91  1  0  0  0  0
 37 92  1  0  0  0  0
 38 39  1  0  0  0  0
 38 93  1  1  0  0  0
 38 40  1  0  0  0  0
 40 94  1  0  0  0  0
 40 95  1  0  0  0  0
 40 96  1  0  0  0  0
 41 42  1  0  0  0  0
 41 43  1  0  0  0  0
 42 97  1  0  0  0  0
 42 98  1  0  0  0  0
 42 99  1  0  0  0  0
 43100  1  0  0  0  0
 43101  1  0  0  0  0
 43102  1  0  0  0  0
 44103  1  0  0  0  0
 45104  1  0  0  0  0
 45105  1  0  0  0  0
 45106  1  0  0  0  0
 46107  1  0  0  0  0
 47108  1  0  0  0  0
 47109  1  0  0  0  0
 47110  1  0  0  0  0
 49111  1  0  0  0  0
 49112  1  0  0  0  0
 49113  1  0  0  0  0
 50114  1  0  0  0  0
 51115  1  0  0  0  0
 51116  1  0  0  0  0
 51117  1  0  0  0  0
 52118  1  0  0  0  0
M  END
>  <DRUGBANK_ID>
DB13338

>  <COMMON_NAME>
Flurithromycin

>  <CAS_NUMBER>
82664-20-8

>  <UNII>
56C9DTE69V

>  <SYNONYMS>
Flurithromycin; fluritromicina

$$$$
