
 OpenBabel10282417143D

 25 24  0  0  1  0  0  0  0  0999 V2000
   -1.2445    3.6242   -0.0247 O   0  0  0  0  0  0  0  0  0  0  0  0
   -1.0569    2.9072   -1.2446 C   0  0  0  0  0  0  0  0  0  0  0  0
   -2.0660    3.3282   -2.3179 C   0  0  2  0  0  0  0  0  0  0  0  0
   -2.5969    2.1567   -2.9593 O   0  0  0  0  0  0  0  0  0  0  0  0
   -1.4528    4.2241   -3.4169 C   0  0  1  0  0  0  0  0  0  0  0  0
   -2.4958    4.4755   -4.3818 O   0  0  0  0  0  0  0  0  0  0  0  0
   -0.8910    5.5564   -2.8378 C   0  0  2  0  0  0  0  0  0  0  0  0
   -1.3919    6.6804   -3.5711 O   0  0  0  0  0  0  0  0  0  0  0  0
    0.6541    5.5879   -2.8530 C   0  0  2  0  0  0  0  0  0  0  0  0
    1.2445    4.7786   -1.8370 O   0  0  0  0  0  0  0  0  0  0  0  0
    1.1235    7.0075   -2.5977 C   0  0  0  0  0  0  0  0  0  0  0  0
    1.8913    7.5457   -3.5630 O   0  0  0  0  0  0  0  0  0  0  0  0
    0.8434    7.6028   -1.5579 O   0  0  0  0  0  0  0  0  0  0  0  0
   -1.2703    4.5785   -0.1913 H   0  0  0  0  0  0  0  0  0  0  0  0
   -0.0338    3.0426   -1.5849 H   0  0  0  0  0  0  0  0  0  0  0  0
   -1.1352    1.8437   -1.0092 H   0  0  0  0  0  0  0  0  0  0  0  0
   -2.9154    3.8484   -1.8573 H   0  0  0  0  0  0  0  0  0  0  0  0
   -3.5240    2.3663   -3.1765 H   0  0  0  0  0  0  0  0  0  0  0  0
   -0.6750    3.6690   -3.9569 H   0  0  0  0  0  0  0  0  0  0  0  0
   -2.6997    3.6198   -4.8005 H   0  0  0  0  0  0  0  0  0  0  0  0
   -1.2546    5.6756   -1.8142 H   0  0  0  0  0  0  0  0  0  0  0  0
   -1.5380    7.4002   -2.9262 H   0  0  0  0  0  0  0  0  0  0  0  0
    1.0305    5.2300   -3.8159 H   0  0  0  0  0  0  0  0  0  0  0  0
    1.1750    5.2567   -0.9844 H   0  0  0  0  0  0  0  0  0  0  0  0
    2.0459    6.9624   -4.3321 H   0  0  0  0  0  0  0  0  0  0  0  0
  1  2  1  0  0  0  0
  1 14  1  0  0  0  0
  2 15  1  0  0  0  0
  2 16  1  0  0  0  0
  3  5  1  0  0  0  0
  3 17  1  1  0  0  0
  3  4  1  0  0  0  0
  3  2  1  0  0  0  0
  4 18  1  0  0  0  0
  5  6  1  0  0  0  0
  5 19  1  6  0  0  0
  6 20  1  0  0  0  0
  7 21  1  1  0  0  0
  7  8  1  0  0  0  0
  7  5  1  0  0  0  0
  8 22  1  0  0  0  0
  9 11  1  0  0  0  0
  9 23  1  6  0  0  0
  9 10  1  0  0  0  0
  9  7  1  0  0  0  0
 10 24  1  0  0  0  0
 11 12  1  0  0  0  0
 11 13  2  0  0  0  0
 12 25  1  0  0  0  0
M  END
>  <DRUGBANK_ID>
DB04304

>  <SECONDARY_ACCESSION_NUMBERS>
EXPT01560

>  <COMMON_NAME>
L-Gluconic Acid

>  <CAS_NUMBER>
526-97-6

>  <UNII>
0IK55ZPI0I

>  <SYNONYMS>
Xylosecarboxylic acid

$$$$
