
 OpenBabel10282417133D

 43 46  0  0  0  0  0  0  0  0999 V2000
    0.9136   -0.0364    0.1351 C   0  0  0  0  0  0  0  0  0  0  0  0
    0.4524    0.9448   -0.9194 C   0  0  0  0  0  0  0  0  0  0  0  0
    0.6627    2.3200   -0.6465 C   0  0  0  0  0  0  0  0  0  0  0  0
    0.3500    3.3002   -1.5256 N   0  0  0  0  0  0  0  0  0  0  0  0
   -0.1003    2.9577   -2.7386 C   0  0  0  0  0  0  0  0  0  0  0  0
   -0.2234    3.9681   -3.6963 C   0  0  0  0  0  0  0  0  0  0  0  0
   -0.4429    3.6744   -5.0417 C   0  0  0  0  0  0  0  0  0  0  0  0
   -0.8697    2.4108   -5.3604 C   0  0  0  0  0  0  0  0  0  0  0  0
   -1.2462    2.1043   -6.6060 F   0  0  0  0  0  0  0  0  0  0  0  0
   -0.9645    1.4425   -4.3801 C   0  0  0  0  0  0  0  0  0  0  0  0
   -0.4017    1.6183   -3.1022 C   0  0  0  0  0  0  0  0  0  0  0  0
   -0.1126    0.5717   -2.1705 C   0  0  0  0  0  0  0  0  0  0  0  0
   -0.3272   -0.9181   -2.4666 C   0  0  0  0  0  0  0  0  0  0  0  0
   -0.8027   -1.3535   -3.6455 O   0  0  0  0  0  0  0  0  0  0  0  0
   -0.1191   -1.7986   -1.6378 O   0  0  0  0  0  0  0  0  0  0  0  0
    1.2618    2.7804    0.6334 C   0  0  0  0  0  0  0  0  0  0  0  0
    2.4896    2.2551    1.0816 C   0  0  0  0  0  0  0  0  0  0  0  0
    2.8924    2.3740    2.4113 C   0  0  0  0  0  0  0  0  0  0  0  0
    2.1787    3.1853    3.2917 C   0  0  0  0  0  0  0  0  0  0  0  0
    1.0656    3.8829    2.7917 C   0  0  0  0  0  0  0  0  0  0  0  0
    0.5737    3.6343    1.5027 C   0  0  0  0  0  0  0  0  0  0  0  0
    2.5808    3.3074    4.6966 C   0  0  0  0  0  0  0  0  0  0  0  0
    1.6581    3.0702    5.7277 C   0  0  0  0  0  0  0  0  0  0  0  0
    1.9824    3.3583    7.0529 C   0  0  0  0  0  0  0  0  0  0  0  0
    3.2741    3.7633    7.3774 C   0  0  0  0  0  0  0  0  0  0  0  0
    4.2443    3.8555    6.3826 C   0  0  0  0  0  0  0  0  0  0  0  0
    3.8879    3.6762    5.0460 C   0  0  0  0  0  0  0  0  0  0  0  0
    0.5384   -1.0459    0.0855 H   0  0  0  0  0  0  0  0  0  0  0  0
    0.5870    0.2907    1.1273 H   0  0  0  0  0  0  0  0  0  0  0  0
    2.0034   -0.1234    0.0900 H   0  0  0  0  0  0  0  0  0  0  0  0
   -0.1066    5.0102   -3.4030 H   0  0  0  0  0  0  0  0  0  0  0  0
   -0.3414    4.4219   -5.8199 H   0  0  0  0  0  0  0  0  0  0  0  0
   -1.5261    0.5702   -4.6641 H   0  0  0  0  0  0  0  0  0  0  0  0
   -0.6154   -0.8876   -4.4712 H   0  0  0  0  0  0  0  0  0  0  0  0
    3.1039    1.6535    0.4164 H   0  0  0  0  0  0  0  0  0  0  0  0
    3.7503    1.8020    2.7600 H   0  0  0  0  0  0  0  0  0  0  0  0
    0.5568    4.6111    3.4210 H   0  0  0  0  0  0  0  0  0  0  0  0
   -0.3712    4.0806    1.1998 H   0  0  0  0  0  0  0  0  0  0  0  0
    0.6737    2.6666    5.4975 H   0  0  0  0  0  0  0  0  0  0  0  0
    1.2266    3.2666    7.8280 H   0  0  0  0  0  0  0  0  0  0  0  0
    3.5267    3.9990    8.4071 H   0  0  0  0  0  0  0  0  0  0  0  0
    5.2730    4.0883    6.6421 H   0  0  0  0  0  0  0  0  0  0  0  0
    4.6330    3.8450    4.2714 H   0  0  0  0  0  0  0  0  0  0  0  0
  1  2  1  0  0  0  0
  1 28  1  0  0  0  0
  1 29  1  0  0  0  0
  1 30  1  0  0  0  0
  2  3  2  0  0  0  0
  2 12  1  0  0  0  0
  3  4  1  0  0  0  0
  3 16  1  0  0  0  0
  4  5  2  0  0  0  0
  5  6  1  0  0  0  0
  5 11  1  0  0  0  0
  6  7  2  0  0  0  0
  6 31  1  0  0  0  0
  7  8  1  0  0  0  0
  7 32  1  0  0  0  0
  8  9  1  0  0  0  0
  8 10  2  0  0  0  0
 10 11  1  0  0  0  0
 10 33  1  0  0  0  0
 11 12  2  0  0  0  0
 12 13  1  0  0  0  0
 13 14  1  0  0  0  0
 13 15  2  0  0  0  0
 14 34  1  0  0  0  0
 16 17  2  0  0  0  0
 16 21  1  0  0  0  0
 17 18  1  0  0  0  0
 17 35  1  0  0  0  0
 18 19  2  0  0  0  0
 18 36  1  0  0  0  0
 19 20  1  0  0  0  0
 19 22  1  0  0  0  0
 20 21  2  0  0  0  0
 20 37  1  0  0  0  0
 21 38  1  0  0  0  0
 22 23  2  0  0  0  0
 22 27  1  0  0  0  0
 23 24  1  0  0  0  0
 23 39  1  0  0  0  0
 24 25  2  0  0  0  0
 24 40  1  0  0  0  0
 25 26  1  0  0  0  0
 25 41  1  0  0  0  0
 26 27  2  0  0  0  0
 26 42  1  0  0  0  0
 27 43  1  0  0  0  0
M  END
>  <DRUGBANK_ID>
DB03480

>  <SECONDARY_ACCESSION_NUMBERS>
EXPT00751

>  <COMMON_NAME>
Brequinar Analog

$$$$
