
 OpenBabel10282417143D

132138  0  0  0  0  0  0  0  0999 V2000
   32.2676  -11.4322   15.5826 O   0  0  0  0  0  0  0  0  0  0  0  0
   29.7031   -5.1023   17.8989 O   0  0  0  0  0  0  0  0  0  0  0  0
   33.7282  -14.8685   17.0995 O   0  0  0  0  0  0  0  0  0  0  0  0
   32.7030   -9.3158   15.1548 O   0  0  0  0  0  0  0  0  0  0  0  0
   31.2622   -9.7496   19.6820 O   0  0  0  0  0  0  0  0  0  0  0  0
   30.1703   -7.7863   20.2557 O   0  0  0  0  0  0  0  0  0  0  0  0
   27.7154   -4.8404   19.2832 O   0  0  0  0  0  0  0  0  0  0  0  0
   26.7606   -7.0327   21.5215 O   0  0  0  0  0  0  0  0  0  0  0  0
   35.8412  -18.1931   20.6406 O   0  0  0  0  0  0  0  0  0  0  0  0
   31.2512  -15.7783   20.0002 O   0  0  0  0  0  0  0  0  0  0  0  0
   31.7276  -13.2723   21.1075 O   0  0  0  0  0  0  0  0  0  0  0  0
   32.3333  -11.2416   19.8411 O   0  0  0  0  0  0  0  0  0  0  0  0
   29.9113  -14.5586   21.6231 O   0  0  0  0  0  0  0  0  0  0  0  0
   30.8333   -5.7377   16.2549 N   0  0  0  0  0  0  0  0  0  0  0  0
   28.5529   -6.4213   20.4407 N   0  0  0  0  0  0  0  0  0  0  0  0
   28.0942   -0.7433   17.8902 N   0  0  0  0  0  0  0  0  0  0  0  0
   29.6815    0.1621   15.4416 N   0  0  0  0  0  0  0  0  0  0  0  0
   30.8671   -8.1881   16.9541 C   0  0  0  0  0  0  0  0  0  0  0  0
   31.6179   -9.1932   16.0002 C   0  0  0  0  0  0  0  0  0  0  0  0
   30.4279   -8.6338   18.0848 C   0  0  0  0  0  0  0  0  0  0  0  0
   31.5637  -10.4434   16.3852 C   0  0  0  0  0  0  0  0  0  0  0  0
   30.5789   -6.7671   16.9988 C   0  0  0  0  0  0  0  0  0  0  0  0
   32.8078  -10.7414   15.7616 C   0  0  0  0  0  0  0  0  0  0  0  0
   33.4472  -12.9352   16.0255 C   0  0  2  0  0  0  0  0  0  0  0  0
   29.8083   -6.3356   18.1322 C   0  0  0  0  0  0  0  0  0  0  0  0
   31.0520   -9.7265   18.3340 C   0  0  0  0  0  0  0  0  0  0  0  0
   31.4086  -10.7592   17.5609 C   0  0  0  0  0  0  0  0  0  0  0  0
   29.8001   -7.9013   19.0880 C   0  0  0  0  0  0  0  0  0  0  0  0
   29.2178   -6.7426   19.2014 C   0  0  0  0  0  0  0  0  0  0  0  0
   29.9919   -4.6604   17.0524 C   0  0  0  0  0  0  0  0  0  0  0  0
   29.6639   -3.5956   17.1189 C   0  0  0  0  0  0  0  0  0  0  0  0
   33.0078  -11.3446   14.3338 C   0  0  0  0  0  0  0  0  0  0  0  0
   28.7130   -3.9630   18.4498 C   0  0  0  0  0  0  0  0  0  0  0  0
   31.8313  -12.0772   17.7122 C   0  0  0  0  0  0  0  0  0  0  0  0
   29.3908   -2.4010   17.0260 C   0  0  0  0  0  0  0  0  0  0  0  0
   28.5276   -2.0048   17.9894 C   0  0  0  0  0  0  0  0  0  0  0  0
   27.9647   -7.2573   21.3509 C   0  0  0  0  0  0  0  0  0  0  0  0
   28.1505   -2.7878   18.9685 C   0  0  0  0  0  0  0  0  0  0  0  0
   34.2044  -16.7479   18.3379 C   0  0  0  0  0  0  0  0  0  0  0  0
   28.4150   -8.6650   21.6533 C   0  0  0  0  0  0  0  0  0  0  0  0
   34.3506  -18.5013   19.0695 C   0  0  0  0  0  0  0  0  0  0  0  0
   27.4966   -0.5050   16.5831 C   0  0  0  0  0  0  0  0  0  0  0  0
   29.3799   -0.1798   17.9048 C   0  0  0  0  0  0  0  0  0  0  0  0
   33.9542  -18.2408   20.4999 C   0  0  1  0  0  0  0  0  0  0  0  0
   28.9525   -9.5998   20.8871 C   0  0  0  0  0  0  0  0  0  0  0  0
   28.0152   -9.3478   22.8324 C   0  0  0  0  0  0  0  0  0  0  0  0
   28.4286   -0.6232   15.3963 C   0  0  0  0  0  0  0  0  0  0  0  0
   30.3653   -0.0838   16.7147 C   0  0  0  0  0  0  0  0  0  0  0  0
   32.5076  -18.4101   20.5198 C   0  0  2  0  0  0  0  0  0  0  0  0
   32.0743  -16.9021   20.3515 C   0  0  2  0  0  0  0  0  0  0  0  0
   29.4958  -10.8793   20.7435 C   0  0  0  0  0  0  0  0  0  0  0  0
   32.8222  -16.1466   21.4789 C   0  0  1  0  0  0  0  0  0  0  0  0
   29.3352    1.5836   15.3531 C   0  0  0  0  0  0  0  0  0  0  0  0
   32.1853  -19.8019   20.4316 C   0  0  0  0  0  0  0  0  0  0  0  0
   29.8249  -11.6362   19.6772 C   0  0  0  0  0  0  0  0  0  0  0  0
   32.8300  -14.8038   20.9301 C   0  0  1  0  0  0  0  0  0  0  0  0
   33.0677  -13.9423   19.8453 C   0  0  1  0  0  0  0  0  0  0  0  0
   30.7861  -12.6752   19.6539 C   0  0  1  0  0  0  0  0  0  0  0  0
   36.3685  -17.0733   19.5500 C   0  0  0  0  0  0  0  0  0  0  0  0
   32.5977  -12.5099   19.5968 C   0  0  2  0  0  0  0  0  0  0  0  0
   28.5036    2.1587   16.4775 C   0  0  0  0  0  0  0  0  0  0  0  0
   30.9159  -14.8047   21.0553 C   0  0  0  0  0  0  0  0  0  0  0  0
   33.5246  -15.6272   22.9456 C   0  0  0  0  0  0  0  0  0  0  0  0
   34.0085  -14.7983   19.3791 C   0  0  0  0  0  0  0  0  0  0  0  0
   29.4612  -13.2442   20.1062 C   0  0  0  0  0  0  0  0  0  0  0  0
   29.1728    2.2752   17.8979 C   0  0  0  0  0  0  0  0  0  0  0  0
   28.0246    3.5119   16.3360 C   0  0  0  0  0  0  0  0  0  0  0  0
   32.3253  -13.9662   22.4795 C   0  0  0  0  0  0  0  0  0  0  0  0
   31.2344  -10.7619   19.9795 H   0  0  0  0  0  0  0  0  0  0  0  0
   27.7775   -5.8130   19.4274 H   0  0  0  0  0  0  0  0  0  0  0  0
   32.5001  -12.7836   21.1165 H   0  0  0  0  0  0  0  0  0  0  0  0
   32.4976  -10.5192   19.1674 H   0  0  0  0  0  0  0  0  0  0  0  0
   28.5802   -5.5066   20.8779 H   0  0  0  0  0  0  0  0  0  0  0  0
   32.0204  -10.2653   13.6527 H   0  0  0  0  0  0  0  0  0  0  0  0
   33.0033   -9.8274   13.7733 H   0  0  0  0  0  0  0  0  0  0  0  0
   33.0195  -10.4644   13.0594 H   0  0  0  0  0  0  0  0  0  0  0  0
   31.1302  -12.8535   17.7713 H   0  0  0  0  0  0  0  0  0  0  0  0
   32.1851  -12.4559   16.9062 H   0  0  0  0  0  0  0  0  0  0  0  0
   32.8499  -12.1360   18.0445 H   0  0  0  0  0  0  0  0  0  0  0  0
   29.8714   -2.0681   16.1637 H   0  0  0  0  0  0  0  0  0  0  0  0
   27.4486   -2.4722   19.7620 H   0  0  0  0  0  0  0  0  0  0  0  0
   34.8640  -17.4498   19.6021 H   0  0  0  0  0  0  0  0  0  0  0  0
   34.3913  -20.1076   19.5464 H   0  0  0  0  0  0  0  0  0  0  0  0
   26.6107   -1.0537   16.5177 H   0  0  0  0  0  0  0  0  0  0  0  0
   26.9994    0.4081   16.5700 H   0  0  0  0  0  0  0  0  0  0  0  0
   28.6951    0.6262   17.6689 H   0  0  0  0  0  0  0  0  0  0  0  0
   29.9237   -0.0996   18.8897 H   0  0  0  0  0  0  0  0  0  0  0  0
   33.8643  -17.1927   20.5405 H   0  0  0  0  0  0  0  0  0  0  0  0
   29.2332   -9.2777   20.0070 H   0  0  0  0  0  0  0  0  0  0  0  0
   26.9519   -9.4054   22.9513 H   0  0  0  0  0  0  0  0  0  0  0  0
   28.3544  -10.3729   22.7233 H   0  0  0  0  0  0  0  0  0  0  0  0
   28.5410   -8.9192   23.6509 H   0  0  0  0  0  0  0  0  0  0  0  0
   28.6211   -1.6728   15.3409 H   0  0  0  0  0  0  0  0  0  0  0  0
   27.9177   -0.4711   14.4732 H   0  0  0  0  0  0  0  0  0  0  0  0
   30.8376   -1.0312   16.8076 H   0  0  0  0  0  0  0  0  0  0  0  0
   31.2357    0.5610   16.8237 H   0  0  0  0  0  0  0  0  0  0  0  0
   31.4915  -18.2684   20.2366 H   0  0  0  0  0  0  0  0  0  0  0  0
   32.0188  -17.1851   19.2106 H   0  0  0  0  0  0  0  0  0  0  0  0
   29.4456  -11.2502   21.6819 H   0  0  0  0  0  0  0  0  0  0  0  0
   33.3793  -16.9042   21.9776 H   0  0  0  0  0  0  0  0  0  0  0  0
   30.2386    2.1748   15.3695 H   0  0  0  0  0  0  0  0  0  0  0  0
   28.8253    1.7438   14.4001 H   0  0  0  0  0  0  0  0  0  0  0  0
   31.7521  -19.8843   19.4522 H   0  0  0  0  0  0  0  0  0  0  0  0
   32.6960  -20.7459   20.6639 H   0  0  0  0  0  0  0  0  0  0  0  0
   31.5590  -19.6135   21.2745 H   0  0  0  0  0  0  0  0  0  0  0  0
   30.0481  -11.0773   18.9027 H   0  0  0  0  0  0  0  0  0  0  0  0
   31.9527  -15.3035   21.8896 H   0  0  0  0  0  0  0  0  0  0  0  0
   32.6875  -13.9678   18.8781 H   0  0  0  0  0  0  0  0  0  0  0  0
   31.0625  -13.5992   19.2154 H   0  0  0  0  0  0  0  0  0  0  0  0
   36.0118  -17.4022   18.5345 H   0  0  0  0  0  0  0  0  0  0  0  0
   35.7965  -16.2744   20.0126 H   0  0  0  0  0  0  0  0  0  0  0  0
   37.3522  -17.1618   19.6368 H   0  0  0  0  0  0  0  0  0  0  0  0
   33.4584  -12.0119   20.0242 H   0  0  0  0  0  0  0  0  0  0  0  0
   27.5503    1.7222   16.4232 H   0  0  0  0  0  0  0  0  0  0  0  0
   32.8926  -14.5592   23.8259 H   0  0  0  0  0  0  0  0  0  0  0  0
   33.0670  -16.2767   23.6609 H   0  0  0  0  0  0  0  0  0  0  0  0
   34.3468  -14.9816   22.7845 H   0  0  0  0  0  0  0  0  0  0  0  0
   34.9419  -14.8742   19.7823 H   0  0  0  0  0  0  0  0  0  0  0  0
   33.4256  -15.7132   19.3719 H   0  0  0  0  0  0  0  0  0  0  0  0
   34.1682  -14.1954   18.5544 H   0  0  0  0  0  0  0  0  0  0  0  0
   28.4748  -12.8478   19.8025 H   0  0  0  0  0  0  0  0  0  0  0  0
   29.4630  -14.2639   19.7267 H   0  0  0  0  0  0  0  0  0  0  0  0
   29.2480  -13.0601   21.2481 H   0  0  0  0  0  0  0  0  0  0  0  0
   30.1869    2.5160   17.8512 H   0  0  0  0  0  0  0  0  0  0  0  0
   28.4371    2.0872   18.6974 H   0  0  0  0  0  0  0  0  0  0  0  0
   29.8638    1.4366   18.2095 H   0  0  0  0  0  0  0  0  0  0  0  0
   27.5096    3.6204   15.4036 H   0  0  0  0  0  0  0  0  0  0  0  0
   27.3608    3.7282   17.1769 H   0  0  0  0  0  0  0  0  0  0  0  0
   28.9259    4.0833   16.3977 H   0  0  0  0  0  0  0  0  0  0  0  0
   31.9455  -15.1923   23.1749 H   0  0  0  0  0  0  0  0  0  0  0  0
   33.5530  -13.6207   21.9207 H   0  0  0  0  0  0  0  0  0  0  0  0
   31.9528  -13.1175   22.9357 H   0  0  0  0  0  0  0  0  0  0  0  0
  1 21  1  0  0  0  0
  1 24  1  0  0  0  0
  2 25  1  0  0  0  0
  2 31  1  0  0  0  0
  3 24  1  0  0  0  0
  3 39  1  0  0  0  0
  4 23  2  0  0  0  0
  5 69  1  0  0  0  0
  5 26  1  0  0  0  0
  6 28  2  0  0  0  0
  7 70  1  0  0  0  0
  7 33  1  0  0  0  0
  8 37  2  0  0  0  0
  9 59  1  0  0  0  0
 10 62  1  0  0  0  0
 11 71  1  0  0  0  0
 12 72  1  0  0  0  0
 13 62  2  0  0  0  0
 14 22  2  0  0  0  0
 14 30  1  0  0  0  0
 15 29  1  0  0  0  0
 15 37  1  0  0  0  0
 15 73  1  0  0  0  0
 16 42  1  0  0  0  0
 16 43  1  0  0  0  0
 16 36  1  0  0  0  0
 17 47  1  0  0  0  0
 17 48  1  0  0  0  0
 17 53  1  0  0  0  0
 18 19  2  0  0  0  0
 18 20  1  0  0  0  0
 18 22  1  0  0  0  0
 19 21  1  0  0  0  0
 19 23  1  0  0  0  0
 20 26  2  0  0  0  0
 20 28  1  0  0  0  0
 21 27  2  0  0  0  0
 22 25  1  0  0  0  0
 23 24  1  0  0  0  0
 24 32  1  6  0  0  0
 25 29  2  0  0  0  0
 26 27  1  0  0  0  0
 27 34  1  0  0  0  0
 28 29  1  0  0  0  0
 30 31  1  0  0  0  0
 30 33  2  0  0  0  0
 31 35  2  0  0  0  0
 32 74  1  0  0  0  0
 32 75  1  0  0  0  0
 32 76  1  0  0  0  0
 33 38  1  0  0  0  0
 34 77  1  0  0  0  0
 34 78  1  0  0  0  0
 34 79  1  0  0  0  0
 35 36  1  0  0  0  0
 35 80  1  0  0  0  0
 36 38  2  0  0  0  0
 37 40  1  0  0  0  0
 38 81  1  0  0  0  0
 39 41  2  0  0  0  0
 39 82  1  0  0  0  0
 40 45  2  0  0  0  0
 40 46  1  0  0  0  0
 41 44  1  0  0  0  0
 41 83  1  0  0  0  0
 42 47  1  0  0  0  0
 42 84  1  0  0  0  0
 42 85  1  0  0  0  0
 43 48  1  0  0  0  0
 43 86  1  0  0  0  0
 43 87  1  0  0  0  0
 44 49  1  0  0  0  0
 44  9  1  0  0  0  0
 44 88  1  6  0  0  0
 45 51  1  0  0  0  0
 45 89  1  0  0  0  0
 46 90  1  0  0  0  0
 46 91  1  0  0  0  0
 46 92  1  0  0  0  0
 47 93  1  0  0  0  0
 47 94  1  0  0  0  0
 48 95  1  0  0  0  0
 48 96  1  0  0  0  0
 49 50  1  0  0  0  0
 49 54  1  0  0  0  0
 49 97  1  6  0  0  0
 50 52  1  0  0  0  0
 50 98  1  6  0  0  0
 50 10  1  0  0  0  0
 51 55  2  0  0  0  0
 51 99  1  0  0  0  0
 52 56  1  0  0  0  0
 52100  1  6  0  0  0
 52 63  1  0  0  0  0
 53 61  1  0  0  0  0
 53101  1  0  0  0  0
 53102  1  0  0  0  0
 54103  1  0  0  0  0
 54104  1  0  0  0  0
 54105  1  0  0  0  0
 55 58  1  0  0  0  0
 55106  1  0  0  0  0
 56 57  1  0  0  0  0
 56107  1  1  0  0  0
 56 11  1  0  0  0  0
 57 60  1  0  0  0  0
 57 64  1  0  0  0  0
 57108  1  6  0  0  0
 58 60  1  0  0  0  0
 58 65  1  0  0  0  0
 58109  1  6  0  0  0
 59110  1  0  0  0  0
 59111  1  0  0  0  0
 59112  1  0  0  0  0
 60113  1  1  0  0  0
 60 12  1  0  0  0  0
 61 66  1  0  0  0  0
 61 67  1  0  0  0  0
 61114  1  0  0  0  0
 62 68  1  0  0  0  0
 63115  1  0  0  0  0
 63116  1  0  0  0  0
 63117  1  0  0  0  0
 64118  1  0  0  0  0
 64119  1  0  0  0  0
 64120  1  0  0  0  0
 65121  1  0  0  0  0
 65122  1  0  0  0  0
 65123  1  0  0  0  0
 66124  1  0  0  0  0
 66125  1  0  0  0  0
 66126  1  0  0  0  0
 67127  1  0  0  0  0
 67128  1  0  0  0  0
 67129  1  0  0  0  0
 68130  1  0  0  0  0
 68131  1  0  0  0  0
 68132  1  0  0  0  0
M  END
>  <DRUGBANK_ID>
DB04934

>  <COMMON_NAME>
Rifalazil

>  <CAS_NUMBER>
129791-92-0

>  <UNII>
S1976TE8QK

>  <SYNONYMS>
3'-hydroxy-5'-(4-isobutyl-1-piperazinyl)benzoxazinorifamycin; Rifalazil; Rifalazilo; Rifalazilum

$$$$
