630
 OpenBabel10282417103D

 27 26  0  0  0  0  0  0  0  0999 V2000
    1.0367   -0.0637   -0.0678 P   0  0  0  0  0  0  0  0  0  0  0  0
    3.4767   -1.7578    0.2596 P   0  0  0  0  0  0  0  0  0  0  0  0
    3.5186    0.3331   -1.3284 O   0  0  0  0  0  0  0  0  0  0  0  0
    0.9770    0.6892    1.3225 O   0  0  0  0  0  0  0  0  0  0  0  0
    1.1450    0.5160   -1.5692 O   0  0  0  0  0  0  0  0  0  0  0  0
    4.9694   -1.0894    0.4278 O   0  0  0  0  0  0  0  0  0  0  0  0
    2.9466   -1.6299    1.8126 O   0  0  0  0  0  0  0  0  0  0  0  0
   -0.5117   -0.0637   -0.0678 O   0  0  0  0  0  0  0  0  0  0  0  0
    3.9928   -3.1910    0.5365 O   0  0  0  0  0  0  0  0  0  0  0  0
    0.9570    2.8519    2.1978 N   0  0  0  0  0  0  0  0  0  0  0  0
    2.8667   -0.0637   -0.0678 C   0  0  0  0  0  0  0  0  0  0  0  0
    3.4157    1.0742    0.9499 C   0  0  0  0  0  0  0  0  0  0  0  0
    2.9893    2.5700    0.7323 C   0  0  0  0  0  0  0  0  0  0  0  0
    1.5141    3.0378    0.8410 C   0  0  0  0  0  0  0  0  0  0  0  0
    3.0072    0.0211   -2.0833 H   0  0  0  0  0  0  0  0  0  0  0  0
    0.1020    1.0200    1.3880 H   0  0  0  0  0  0  0  0  0  0  0  0
    1.0529   -0.2752   -2.1659 H   0  0  0  0  0  0  0  0  0  0  0  0
    5.5890   -1.3877   -0.2631 H   0  0  0  0  0  0  0  0  0  0  0  0
    2.2748   -0.9782    2.1098 H   0  0  0  0  0  0  0  0  0  0  0  0
   -0.0589    2.7770    2.1720 H   0  0  0  0  0  0  0  0  0  0  0  0
    1.2942    1.9415    2.5417 H   0  0  0  0  0  0  0  0  0  0  0  0
    3.2091    0.7981    1.9921 H   0  0  0  0  0  0  0  0  0  0  0  0
    4.5102    1.0889    0.8954 H   0  0  0  0  0  0  0  0  0  0  0  0
    3.5407    3.1516    1.4833 H   0  0  0  0  0  0  0  0  0  0  0  0
    3.3683    2.8822   -0.2446 H   0  0  0  0  0  0  0  0  0  0  0  0
    1.4158    4.0988    0.6134 H   0  0  0  0  0  0  0  0  0  0  0  0
    0.9147    2.5451    0.0643 H   0  0  0  0  0  0  0  0  0  0  0  0
  1  4  1  0  0  0  0
  1  5  1  0  0  0  0
  1  8  2  0  0  0  0
  1 11  1  0  0  0  0
  2  6  1  0  0  0  0
  2  7  1  0  0  0  0
  2  9  2  0  0  0  0
  2 11  1  0  0  0  0
  3 11  1  0  0  0  0
  3 15  1  0  0  0  0
  4 16  1  0  0  0  0
  5 17  1  0  0  0  0
  6 18  1  0  0  0  0
  7 19  1  0  0  0  0
 10 14  1  0  0  0  0
 10 20  1  0  0  0  0
 10 21  1  0  0  0  0
 11 12  1  0  0  0  0
 12 13  1  0  0  0  0
 12 22  1  0  0  0  0
 12 23  1  0  0  0  0
 13 14  1  0  0  0  0
 13 24  1  0  0  0  0
 13 25  1  0  0  0  0
 14 26  1  0  0  0  0
 14 27  1  0  0  0  0
M  END
>  <DRUGBANK_ID>
DB00630

>  <SECONDARY_ACCESSION_NUMBERS>
APRD00561

>  <COMMON_NAME>
Alendronic acid

>  <CAS_NUMBER>
66376-36-1

>  <UNII>
X1J18R4W8P

>  <SYNONYMS>
(4-amino-1-hydroxybutane-1,1-diyl)bis(phosphonic acid); (4-amino-1-hydroxybutylidene)bisphosphonic acid; 4-amino-1-hydroxybutane-1,1-diphosphonic acid; ABDP; Acide Alendronique; Acido Alendronico; Acidum Alendronicum; Alendronate; Alendronic acid

$$$$
