
 OpenBabel10282417133D

 62 66  0  0  1  0  0  0  0  0999 V2000
   -1.5512    0.0166   -0.1141 C   0  0  0  0  0  0  0  0  0  0  0  0
   -0.8075    1.2528    0.3788 C   0  0  0  0  0  0  0  0  0  0  0  0
   -0.8127   -1.2503    0.3023 C   0  0  0  0  0  0  0  0  0  0  0  0
   -4.7091    2.7301   -6.7176 C   0  0  0  0  0  0  0  0  0  0  0  0
   -4.5501    0.2894   -6.9991 C   0  0  0  0  0  0  0  0  0  0  0  0
   -0.6833   -0.0289   -4.6645 C   0  0  0  0  0  0  0  0  0  0  0  0
   -0.8328    2.2783   -4.3133 C   0  0  0  0  0  0  0  0  0  0  0  0
   -5.2020    2.5458   -5.4469 C   0  0  0  0  0  0  0  0  0  0  0  0
   -5.0010    0.1201   -5.7096 C   0  0  0  0  0  0  0  0  0  0  0  0
    0.4171    5.0501   -6.1971 C   0  0  0  0  0  0  0  0  0  0  0  0
    0.4463   -0.1256   -3.7694 C   0  0  0  0  0  0  0  0  0  0  0  0
    0.3836    2.1999   -3.5213 C   0  0  0  0  0  0  0  0  0  0  0  0
    0.3648    3.7093   -6.4169 C   0  0  0  0  0  0  0  0  0  0  0  0
    0.6412    1.2045   -0.0630 C   0  0  0  0  0  0  0  0  0  0  0  0
    0.6366   -1.2261   -0.1689 C   0  0  0  0  0  0  0  0  0  0  0  0
    2.7189    0.0057   -0.3110 C   0  0  0  0  0  0  0  0  0  0  0  0
    2.8357   -0.0352   -1.8732 C   0  0  0  0  0  0  0  0  0  0  0  0
   -1.1590    5.3554   -8.0104 C   0  0  0  0  0  0  0  0  0  0  0  0
   -1.2734    1.1990   -5.1087 C   0  0  0  0  0  0  0  0  0  0  0  0
   -4.2246    1.5986   -7.3670 C   0  0  0  0  0  0  0  0  0  0  0  0
   -5.2977    1.2451   -4.9511 C   0  0  0  0  0  0  0  0  0  0  0  0
   -0.2625    5.8895   -7.0812 C   0  0  0  0  0  0  0  0  0  0  0  0
    1.0806    1.0050   -3.2931 C   0  0  0  0  0  0  0  0  0  0  0  0
   -0.5413    3.1453   -7.2882 C   0  0  0  0  0  0  0  0  0  0  0  0
   -1.3734    3.9792   -8.0484 C   0  0  0  0  0  0  0  0  0  0  0  0
   -1.7196    1.2962   -6.7153 C   0  0  1  0  0  0  0  0  0  0  0  0
   -2.8393    1.7055   -7.9138 C   0  0  2  0  0  0  0  0  0  0  0  0
    1.3589   -0.0273    0.2752 N   0  0  0  0  0  0  0  0  0  0  0  0
   -5.6439    1.0444   -3.6494 O   0  0  0  0  0  0  0  0  0  0  0  0
    0.0203    7.2132   -7.0753 O   0  0  0  0  0  0  0  0  0  0  0  0
    2.2439    1.0974   -2.5544 O   0  0  0  0  0  0  0  0  0  0  0  0
   -0.5237    1.7705   -7.3546 O   0  0  0  0  0  0  0  0  0  0  0  0
   -2.6190    3.2057   -9.0138 S   0  0  0  0  0  0  0  0  0  0  0  0
   -1.8321    0.2057   -6.8381 H   0  0  0  0  0  0  0  0  0  0  0  0
   -2.7545    0.9353   -8.7018 H   0  0  0  0  0  0  0  0  0  0  0  0
   -2.5700    0.0129    0.2819 H   0  0  0  0  0  0  0  0  0  0  0  0
   -1.6342    0.0453   -1.2099 H   0  0  0  0  0  0  0  0  0  0  0  0
   -1.2723    2.1461   -0.0586 H   0  0  0  0  0  0  0  0  0  0  0  0
   -0.8636    1.3414    1.4658 H   0  0  0  0  0  0  0  0  0  0  0  0
   -0.8447   -1.3583    1.3912 H   0  0  0  0  0  0  0  0  0  0  0  0
   -1.3125   -2.1234   -0.1325 H   0  0  0  0  0  0  0  0  0  0  0  0
   -4.4601    3.7350   -7.0544 H   0  0  0  0  0  0  0  0  0  0  0  0
   -4.1474   -0.5602   -7.5492 H   0  0  0  0  0  0  0  0  0  0  0  0
   -1.0543   -0.9759   -5.0502 H   0  0  0  0  0  0  0  0  0  0  0  0
   -1.2682    3.2699   -4.4151 H   0  0  0  0  0  0  0  0  0  0  0  0
   -5.3619    3.4239   -4.8372 H   0  0  0  0  0  0  0  0  0  0  0  0
   -4.9857   -0.8707   -5.2698 H   0  0  0  0  0  0  0  0  0  0  0  0
    1.0379    5.4288   -5.3935 H   0  0  0  0  0  0  0  0  0  0  0  0
    0.8129   -1.1125   -3.5076 H   0  0  0  0  0  0  0  0  0  0  0  0
    0.8186    3.1191   -3.1185 H   0  0  0  0  0  0  0  0  0  0  0  0
    0.9817    3.0207   -5.8392 H   0  0  0  0  0  0  0  0  0  0  0  0
    0.5613    1.2940   -1.1262 H   0  0  0  0  0  0  0  0  0  0  0  0
    1.1872    2.0902    0.2800 H   0  0  0  0  0  0  0  0  0  0  0  0
    1.1506   -2.1245    0.1948 H   0  0  0  0  0  0  0  0  0  0  0  0
    0.6207   -1.2989   -1.2573 H   0  0  0  0  0  0  0  0  0  0  0  0
    3.2479    0.8842    0.0857 H   0  0  0  0  0  0  0  0  0  0  0  0
    3.2712   -0.8545    0.1004 H   0  0  0  0  0  0  0  0  0  0  0  0
    3.9130   -0.0109   -2.0928 H   0  0  0  0  0  0  0  0  0  0  0  0
    2.4881   -0.9956   -2.2542 H   0  0  0  0  0  0  0  0  0  0  0  0
   -1.6524    6.0345   -8.7120 H   0  0  0  0  0  0  0  0  0  0  0  0
   -5.9372    1.9015   -3.3079 H   0  0  0  0  0  0  0  0  0  0  0  0
    0.7917    7.3434   -6.4876 H   0  0  0  0  0  0  0  0  0  0  0  0
  1 36  1  0  0  0  0
  1 37  1  0  0  0  0
  2  1  1  0  0  0  0
  2 38  1  0  0  0  0
  2 39  1  0  0  0  0
  3  1  1  0  0  0  0
  3 40  1  0  0  0  0
  3 41  1  0  0  0  0
  4 42  1  0  0  0  0
  5 43  1  0  0  0  0
  6 44  1  0  0  0  0
  7 45  1  0  0  0  0
  8  4  1  0  0  0  0
  8 46  1  0  0  0  0
  9  5  2  0  0  0  0
  9 47  1  0  0  0  0
 10 48  1  0  0  0  0
 11  6  1  0  0  0  0
 11 49  1  0  0  0  0
 12  7  2  0  0  0  0
 12 50  1  0  0  0  0
 13 10  2  0  0  0  0
 13 51  1  0  0  0  0
 14  2  1  0  0  0  0
 14 52  1  0  0  0  0
 14 53  1  0  0  0  0
 15  3  1  0  0  0  0
 15 54  1  0  0  0  0
 15 55  1  0  0  0  0
 16 56  1  0  0  0  0
 16 57  1  0  0  0  0
 17 16  1  0  0  0  0
 17 58  1  0  0  0  0
 17 59  1  0  0  0  0
 18 60  1  0  0  0  0
 19  6  2  0  0  0  0
 19  7  1  0  0  0  0
 20  4  2  0  0  0  0
 20  5  1  0  0  0  0
 21  8  2  0  0  0  0
 21  9  1  0  0  0  0
 22 10  1  0  0  0  0
 22 18  2  0  0  0  0
 23 11  2  0  0  0  0
 23 12  1  0  0  0  0
 24 13  1  0  0  0  0
 25 18  1  0  0  0  0
 25 24  2  0  0  0  0
 26 19  1  0  0  0  0
 26 34  1  6  0  0  0
 27 20  1  0  0  0  0
 27 26  1  0  0  0  0
 27 35  1  6  0  0  0
 28 14  1  0  0  0  0
 28 15  1  0  0  0  0
 28 16  1  0  0  0  0
 29 21  1  0  0  0  0
 29 61  1  0  0  0  0
 30 22  1  0  0  0  0
 30 62  1  0  0  0  0
 31 17  1  0  0  0  0
 31 23  1  0  0  0  0
 32 24  1  0  0  0  0
 32 26  1  0  0  0  0
 33 25  1  0  0  0  0
 33 27  1  0  0  0  0
M  END
>  <DRUGBANK_ID>
DB03742

>  <SECONDARY_ACCESSION_NUMBERS>
EXPT01315

>  <COMMON_NAME>
Compound 4-D

$$$$
