
 OpenBabel10282417113D

 49 51  0  0  0  0  0  0  0  0999 V2000
    0.8120   -0.0278   -0.0463 O   0  0  0  0  0  0  0  0  0  0  0  0
    2.4965   -1.4358    0.4909 O   0  0  0  0  0  0  0  0  0  0  0  0
    0.8624    3.8223    0.2335 N   0  0  0  0  0  0  0  0  0  0  0  0
    0.1545    1.0619   -0.7661 C   0  0  0  0  0  0  0  0  0  0  0  0
    0.7393    2.2077   -1.6600 C   0  0  0  0  0  0  0  0  0  0  0  0
   -0.5436    1.7419    0.4230 C   0  0  0  0  0  0  0  0  0  0  0  0
    1.4692    3.3384   -0.9878 C   0  0  0  0  0  0  0  0  0  0  0  0
    0.4247    2.7289    1.1148 C   0  0  0  0  0  0  0  0  0  0  0  0
   -0.5704    0.2461   -1.8123 C   0  0  0  0  0  0  0  0  0  0  0  0
    1.8368    4.7302    0.8948 C   0  0  0  0  0  0  0  0  0  0  0  0
    3.1499    4.1252    1.5127 C   0  0  0  0  0  0  0  0  0  0  0  0
    0.1914   -0.3419   -2.8606 C   0  0  0  0  0  0  0  0  0  0  0  0
   -1.9442    0.1150   -1.8288 C   0  0  0  0  0  0  0  0  0  0  0  0
    2.0316   -0.5098   -0.1954 C   0  0  0  0  0  0  0  0  0  0  0  0
    4.2032    3.5343    0.5750 C   0  0  0  0  0  0  0  0  0  0  0  0
   -0.3964   -0.9861   -3.9253 C   0  0  0  0  0  0  0  0  0  0  0  0
   -2.5326   -0.6088   -2.8593 C   0  0  0  0  0  0  0  0  0  0  0  0
   -1.7703   -1.1191   -3.9184 C   0  0  0  0  0  0  0  0  0  0  0  0
    2.8837    0.3059   -1.0227 C   0  0  0  0  0  0  0  0  0  0  0  0
    4.8502    4.2951   -0.4052 C   0  0  0  0  0  0  0  0  0  0  0  0
    4.4870    2.1663    0.5765 C   0  0  0  0  0  0  0  0  0  0  0  0
    5.5553    3.6882   -1.4647 C   0  0  0  0  0  0  0  0  0  0  0  0
    5.2885    1.5881   -0.4418 C   0  0  0  0  0  0  0  0  0  0  0  0
    5.6630    2.3161   -1.5496 C   0  0  0  0  0  0  0  0  0  0  0  0
    1.4049    1.8497   -2.4533 H   0  0  0  0  0  0  0  0  0  0  0  0
   -0.1041    2.6697   -2.1949 H   0  0  0  0  0  0  0  0  0  0  0  0
   -1.4507    2.2625    0.1179 H   0  0  0  0  0  0  0  0  0  0  0  0
   -0.8264    0.9933    1.1810 H   0  0  0  0  0  0  0  0  0  0  0  0
    2.4546    3.0027   -0.7626 H   0  0  0  0  0  0  0  0  0  0  0  0
    1.6617    4.1374   -1.7160 H   0  0  0  0  0  0  0  0  0  0  0  0
   -0.0868    3.1580    1.9839 H   0  0  0  0  0  0  0  0  0  0  0  0
    1.2822    2.1633    1.4995 H   0  0  0  0  0  0  0  0  0  0  0  0
    2.1072    5.5192    0.1787 H   0  0  0  0  0  0  0  0  0  0  0  0
    1.2852    5.2478    1.6905 H   0  0  0  0  0  0  0  0  0  0  0  0
    3.6416    4.9202    2.0817 H   0  0  0  0  0  0  0  0  0  0  0  0
    2.8581    3.3788    2.2624 H   0  0  0  0  0  0  0  0  0  0  0  0
    1.2691   -0.2587   -2.9042 H   0  0  0  0  0  0  0  0  0  0  0  0
   -2.5544    0.5860   -1.0658 H   0  0  0  0  0  0  0  0  0  0  0  0
    0.2238   -1.3648   -4.7326 H   0  0  0  0  0  0  0  0  0  0  0  0
   -3.6035   -0.7691   -2.8406 H   0  0  0  0  0  0  0  0  0  0  0  0
   -2.2533   -1.6213   -4.7469 H   0  0  0  0  0  0  0  0  0  0  0  0
    2.9265    0.3194   -2.1038 H   0  0  0  0  0  0  0  0  0  0  0  0
    2.6931    1.2874   -0.6487 H   0  0  0  0  0  0  0  0  0  0  0  0
    3.8261   -0.0339   -0.6701 H   0  0  0  0  0  0  0  0  0  0  0  0
    4.7595    5.3741   -0.3970 H   0  0  0  0  0  0  0  0  0  0  0  0
    3.9102    1.5126    1.2390 H   0  0  0  0  0  0  0  0  0  0  0  0
    6.0313    4.2852   -2.2336 H   0  0  0  0  0  0  0  0  0  0  0  0
    5.4816    0.5162   -0.5002 H   0  0  0  0  0  0  0  0  0  0  0  0
    6.0352    1.8075   -2.4385 H   0  0  0  0  0  0  0  0  0  0  0  0
  1  4  1  0  0  0  0
  1 14  1  0  0  0  0
  2 14  2  0  0  0  0
  3  7  1  0  0  0  0
  3  8  1  0  0  0  0
  3 10  1  0  0  0  0
  4  5  1  0  0  0  0
  4  6  1  0  0  0  0
  4  9  1  0  0  0  0
  5  7  1  0  0  0  0
  5 25  1  0  0  0  0
  5 26  1  0  0  0  0
  6  8  1  0  0  0  0
  6 27  1  0  0  0  0
  6 28  1  0  0  0  0
  7 29  1  0  0  0  0
  7 30  1  0  0  0  0
  8 31  1  0  0  0  0
  8 32  1  0  0  0  0
  9 12  2  0  0  0  0
  9 13  1  0  0  0  0
 10 11  1  0  0  0  0
 10 33  1  0  0  0  0
 10 34  1  0  0  0  0
 11 15  1  0  0  0  0
 11 35  1  0  0  0  0
 11 36  1  0  0  0  0
 12 16  1  0  0  0  0
 12 37  1  0  0  0  0
 13 17  2  0  0  0  0
 13 38  1  0  0  0  0
 14 19  1  0  0  0  0
 15 20  2  0  0  0  0
 15 21  1  0  0  0  0
 16 18  2  0  0  0  0
 16 39  1  0  0  0  0
 17 18  1  0  0  0  0
 17 40  1  0  0  0  0
 18 41  1  0  0  0  0
 19 42  1  0  0  0  0
 19 43  1  0  0  0  0
 19 44  1  0  0  0  0
 20 22  1  0  0  0  0
 20 45  1  0  0  0  0
 21 23  2  0  0  0  0
 21 46  1  0  0  0  0
 22 24  2  0  0  0  0
 22 47  1  0  0  0  0
 23 24  1  0  0  0  0
 23 48  1  0  0  0  0
 24 49  1  0  0  0  0
M  END
>  <DRUGBANK_ID>
DB01562

>  <COMMON_NAME>
1-(2-Phenylethyl)-4-phenyl-4-acetoxypiperidine

>  <CAS_NUMBER>
64-52-8

>  <UNII>
T6LN72I828

>  <SYNONYMS>
1-(2-Phenethyl)-4-phenyl-4-acetoxypiperidine; 1-Phenethyl-4-phenyl-4-piperidinol acetate (ester); PEPAP

$$$$
