
 OpenBabel10282417233D

 57 60  0  0  0  0  0  0  0  0999 V2000
    1.0146   -0.1084    0.1256 O   0  0  0  0  0  0  0  0  0  0  0  0
    2.8114   -1.7813    1.6107 O   0  0  0  0  0  0  0  0  0  0  0  0
    2.7446    1.1010   -0.3402 O   0  0  0  0  0  0  0  0  0  0  0  0
   -2.4277   -2.5297    0.0224 N   0  0  0  0  0  0  0  0  0  0  0  0
   -1.0150   -0.7343    1.0614 C   0  0  1  0  0  0  0  0  0  0  0  0
   -0.3250   -1.7626   -1.0690 C   0  0  2  0  0  0  0  0  0  0  0  0
    0.1830   -1.2635    0.2861 C   0  0  3  0  0  0  0  0  0  0  0  0
   -1.6012    0.4941    0.3427 C   0  0  0  0  0  0  0  0  0  0  0  0
   -0.8343   -0.5973   -1.9094 C   0  0  0  0  0  0  0  0  0  0  0  0
   -2.0181   -1.8649    1.2658 C   0  0  0  0  0  0  0  0  0  0  0  0
   -1.3073   -2.8979   -0.8375 C   0  0  0  0  0  0  0  0  0  0  0  0
   -1.7601    0.3677   -1.1770 C   0  0  0  0  0  0  0  0  0  0  0  0
    2.9883   -2.3489   -0.7681 C   0  0  0  0  0  0  0  0  0  0  0  0
    3.2302   -1.2680    0.3295 C   0  0  1  0  0  0  0  0  0  0  0  0
    2.7070   -3.7700   -0.2657 C   0  0  0  0  0  0  0  0  0  0  0  0
    4.0115   -2.5129   -1.8918 C   0  0  0  0  0  0  0  0  0  0  0  0
    2.3396   -0.0121    0.0033 C   0  0  0  0  0  0  0  0  0  0  0  0
    2.9862   -4.6896   -1.4449 C   0  0  0  0  0  0  0  0  0  0  0  0
    3.7038   -3.8644   -2.5085 C   0  0  0  0  0  0  0  0  0  0  0  0
   -3.1825   -3.7400    0.3441 C   0  0  0  0  0  0  0  0  0  0  0  0
    4.7267   -0.9827    0.4810 C   0  0  0  0  0  0  0  0  0  0  0  0
    5.2545    0.3099    0.4215 C   0  0  0  0  0  0  0  0  0  0  0  0
    5.6452   -2.0451    0.6181 C   0  0  0  0  0  0  0  0  0  0  0  0
    6.6197    0.5429    0.4171 C   0  0  0  0  0  0  0  0  0  0  0  0
    7.0188   -1.8182    0.5958 C   0  0  0  0  0  0  0  0  0  0  0  0
    7.5026   -0.5210    0.4857 C   0  0  0  0  0  0  0  0  0  0  0  0
   -0.6725   -0.3930    2.0494 H   0  0  0  0  0  0  0  0  0  0  0  0
    0.4415   -2.2179   -1.6891 H   0  0  0  0  0  0  0  0  0  0  0  0
    3.1430   -1.1638    2.2871 H   0  0  0  0  0  0  0  0  0  0  0  0
    0.6722   -2.0500    0.8596 H   0  0  0  0  0  0  0  0  0  0  0  0
   -0.9470    1.3546    0.5461 H   0  0  0  0  0  0  0  0  0  0  0  0
   -2.5670    0.7605    0.7849 H   0  0  0  0  0  0  0  0  0  0  0  0
    0.0391   -0.0387   -2.2787 H   0  0  0  0  0  0  0  0  0  0  0  0
   -1.3308   -0.9773   -2.8099 H   0  0  0  0  0  0  0  0  0  0  0  0
   -2.9061   -1.4523    1.7581 H   0  0  0  0  0  0  0  0  0  0  0  0
   -1.5707   -2.5887    1.9609 H   0  0  0  0  0  0  0  0  0  0  0  0
   -0.7479   -3.7419   -0.4070 H   0  0  0  0  0  0  0  0  0  0  0  0
   -1.6788   -3.2357   -1.8130 H   0  0  0  0  0  0  0  0  0  0  0  0
   -1.6248    1.3623   -1.6205 H   0  0  0  0  0  0  0  0  0  0  0  0
   -2.7902    0.0711   -1.3911 H   0  0  0  0  0  0  0  0  0  0  0  0
    2.1330   -2.0188   -1.3329 H   0  0  0  0  0  0  0  0  0  0  0  0
    3.3543   -4.0398    0.5739 H   0  0  0  0  0  0  0  0  0  0  0  0
    1.6786   -3.9034    0.0892 H   0  0  0  0  0  0  0  0  0  0  0  0
    3.9522   -1.6865   -2.6079 H   0  0  0  0  0  0  0  0  0  0  0  0
    5.0447   -2.5607   -1.5670 H   0  0  0  0  0  0  0  0  0  0  0  0
    3.5968   -5.5381   -1.1170 H   0  0  0  0  0  0  0  0  0  0  0  0
    2.0556   -5.0997   -1.8514 H   0  0  0  0  0  0  0  0  0  0  0  0
    4.6358   -4.3507   -2.8146 H   0  0  0  0  0  0  0  0  0  0  0  0
    3.0776   -3.7463   -3.3972 H   0  0  0  0  0  0  0  0  0  0  0  0
   -2.5748   -4.4469    0.9234 H   0  0  0  0  0  0  0  0  0  0  0  0
   -4.0746   -3.4894    0.9229 H   0  0  0  0  0  0  0  0  0  0  0  0
   -3.5088   -4.2427   -0.5719 H   0  0  0  0  0  0  0  0  0  0  0  0
    4.6468    1.2005    0.3408 H   0  0  0  0  0  0  0  0  0  0  0  0
    5.3092   -3.0815    0.6194 H   0  0  0  0  0  0  0  0  0  0  0  0
    6.9649    1.5691    0.3451 H   0  0  0  0  0  0  0  0  0  0  0  0
    7.7036   -2.6594    0.6367 H   0  0  0  0  0  0  0  0  0  0  0  0
    8.5681   -0.3311    0.4513 H   0  0  0  0  0  0  0  0  0  0  0  0
  1  7  1  0  0  0  0
  1 17  1  0  0  0  0
  2 29  1  0  0  0  0
  3 17  2  0  0  0  0
  4 10  1  0  0  0  0
  4 11  1  0  0  0  0
  4 20  1  0  0  0  0
  5  7  1  0  0  0  0
  5  8  1  0  0  0  0
  5 10  1  0  0  0  0
  5 27  1  1  0  0  0
  6  7  1  0  0  0  0
  6  9  1  0  0  0  0
  6 11  1  0  0  0  0
  6 28  1  6  0  0  0
  7 30  1  0  0  0  0
  8 12  1  0  0  0  0
  8 31  1  0  0  0  0
  8 32  1  0  0  0  0
  9 12  1  0  0  0  0
  9 33  1  0  0  0  0
  9 34  1  0  0  0  0
 10 35  1  0  0  0  0
 10 36  1  0  0  0  0
 11 37  1  0  0  0  0
 11 38  1  0  0  0  0
 12 39  1  0  0  0  0
 12 40  1  0  0  0  0
 13 14  1  0  0  0  0
 13 15  1  0  0  0  0
 13 16  1  0  0  0  0
 13 41  1  0  0  0  0
 14  2  1  1  0  0  0
 14 17  1  0  0  0  0
 14 21  1  0  0  0  0
 15 18  1  0  0  0  0
 15 42  1  0  0  0  0
 15 43  1  0  0  0  0
 16 19  1  0  0  0  0
 16 44  1  0  0  0  0
 16 45  1  0  0  0  0
 18 19  1  0  0  0  0
 18 46  1  0  0  0  0
 18 47  1  0  0  0  0
 19 48  1  0  0  0  0
 19 49  1  0  0  0  0
 20 50  1  0  0  0  0
 20 51  1  0  0  0  0
 20 52  1  0  0  0  0
 21 22  2  0  0  0  0
 21 23  1  0  0  0  0
 22 24  1  0  0  0  0
 22 53  1  0  0  0  0
 23 25  2  0  0  0  0
 23 54  1  0  0  0  0
 24 26  2  0  0  0  0
 24 55  1  0  0  0  0
 25 26  1  0  0  0  0
 25 56  1  0  0  0  0
 26 57  1  0  0  0  0
M  END
>  <DRUGBANK_ID>
DB16011

>  <COMMON_NAME>
Levophencynonate

>  <CAS_NUMBER>
230313-75-4

>  <UNII>
4TNV157KEQ

>  <SYNONYMS>
Levo-phencynonate

$$$$
