PU3
 OpenBabel10282417123D

 52 54  0  0  0  0  0  0  0  0999 V2000
    0.8831   -0.0331   -0.1813 C   0  0  0  0  0  0  0  0  0  0  0  0
    0.2043    0.1035    1.0515 O   0  0  0  0  0  0  0  0  0  0  0  0
    0.5967   -0.6841    2.0863 C   0  0  0  0  0  0  0  0  0  0  0  0
    1.9758   -1.0400    2.2002 C   0  0  0  0  0  0  0  0  0  0  0  0
   -0.3769   -0.9211    3.1627 C   0  0  0  0  0  0  0  0  0  0  0  0
   -1.7478   -0.9928    3.0025 O   0  0  0  0  0  0  0  0  0  0  0  0
   -2.2245   -0.4886    1.7873 C   0  0  0  0  0  0  0  0  0  0  0  0
    0.0201   -1.2670    4.3868 C   0  0  0  0  0  0  0  0  0  0  0  0
   -0.8486   -1.7262    5.3985 O   0  0  0  0  0  0  0  0  0  0  0  0
   -0.4450   -2.4340    6.6100 C   0  0  0  0  0  0  0  0  0  0  0  0
    1.4011   -1.4932    4.4093 C   0  0  0  0  0  0  0  0  0  0  0  0
    2.4556   -1.4203    3.3829 C   0  0  0  0  0  0  0  0  0  0  0  0
    3.9522   -1.9738    3.4350 C   0  0  0  0  0  0  0  0  0  0  0  0
    4.6998   -1.7149    4.7277 C   0  0  0  0  0  0  0  0  0  0  0  0
    5.6898   -0.8500    4.7290 N   0  0  0  0  0  0  0  0  0  0  0  0
    5.8790   -0.5214    6.0419 C   0  0  0  0  0  0  0  0  0  0  0  0
    6.6801    0.4466    6.6306 C   0  0  0  0  0  0  0  0  0  0  0  0
    7.5040    1.2405    5.8591 N   0  0  0  0  0  0  0  0  0  0  0  0
    5.0997   -1.3025    6.8655 C   0  0  0  0  0  0  0  0  0  0  0  0
    5.0032   -1.1975    8.2063 N   0  0  0  0  0  0  0  0  0  0  0  0
    5.7937   -0.2059    8.6640 C   0  0  0  0  0  0  0  0  0  0  0  0
    6.6284    0.6057    7.9715 N   0  0  0  0  0  0  0  0  0  0  0  0
    4.4834   -2.2125    6.0303 N   0  0  0  0  0  0  0  0  0  0  0  0
    3.7816   -3.3784    6.5867 C   0  0  0  0  0  0  0  0  0  0  0  0
    2.3731   -3.5955    6.1281 C   0  0  0  0  0  0  0  0  0  0  0  0
    2.2710   -4.0668    4.6622 C   0  0  0  0  0  0  0  0  0  0  0  0
    2.7274   -5.2936    3.9893 C   0  0  0  0  0  0  0  0  0  0  0  0
    0.5257    0.7800   -0.8116 H   0  0  0  0  0  0  0  0  0  0  0  0
    0.6104   -0.9927   -0.6234 H   0  0  0  0  0  0  0  0  0  0  0  0
    1.9683    0.0832   -0.1195 H   0  0  0  0  0  0  0  0  0  0  0  0
    2.6645   -1.0039    1.3474 H   0  0  0  0  0  0  0  0  0  0  0  0
   -1.9114    0.5544    1.6997 H   0  0  0  0  0  0  0  0  0  0  0  0
   -1.8900   -1.1131    0.9501 H   0  0  0  0  0  0  0  0  0  0  0  0
   -3.3112   -0.5015    1.8146 H   0  0  0  0  0  0  0  0  0  0  0  0
   -0.2775   -3.5076    6.4217 H   0  0  0  0  0  0  0  0  0  0  0  0
    0.4144   -1.9773    7.1137 H   0  0  0  0  0  0  0  0  0  0  0  0
   -1.2343   -2.4270    7.3782 H   0  0  0  0  0  0  0  0  0  0  0  0
    1.2992   -2.3155    5.0012 H   0  0  0  0  0  0  0  0  0  0  0  0
    4.1117   -3.0257    3.1182 H   0  0  0  0  0  0  0  0  0  0  0  0
    4.5376   -1.5244    2.6090 H   0  0  0  0  0  0  0  0  0  0  0  0
    7.4981    1.0642    4.8599 H   0  0  0  0  0  0  0  0  0  0  0  0
    8.1070    1.9076    6.2930 H   0  0  0  0  0  0  0  0  0  0  0  0
    5.7664   -0.0438    9.7393 H   0  0  0  0  0  0  0  0  0  0  0  0
    4.3476   -4.2845    6.4136 H   0  0  0  0  0  0  0  0  0  0  0  0
    3.6783   -3.2001    7.6668 H   0  0  0  0  0  0  0  0  0  0  0  0
    1.7178   -4.1744    6.7644 H   0  0  0  0  0  0  0  0  0  0  0  0
    2.0852   -2.5512    6.3407 H   0  0  0  0  0  0  0  0  0  0  0  0
    1.4092   -3.7895    4.0352 H   0  0  0  0  0  0  0  0  0  0  0  0
    3.0602   -3.4661    4.3561 H   0  0  0  0  0  0  0  0  0  0  0  0
    1.9325   -6.0168    4.1036 H   0  0  0  0  0  0  0  0  0  0  0  0
    2.8155   -5.0387    2.9139 H   0  0  0  0  0  0  0  0  0  0  0  0
    3.7105   -5.5776    4.3455 H   0  0  0  0  0  0  0  0  0  0  0  0
  1  2  1  0  0  0  0
  1 28  1  0  0  0  0
  1 29  1  0  0  0  0
  1 30  1  0  0  0  0
  2  3  1  0  0  0  0
  3  4  2  0  0  0  0
  3  5  1  0  0  0  0
  4 12  1  0  0  0  0
  4 31  1  0  0  0  0
  5  6  1  0  0  0  0
  5  8  2  0  0  0  0
  6  7  1  0  0  0  0
  7 32  1  0  0  0  0
  7 33  1  0  0  0  0
  7 34  1  0  0  0  0
  8  9  1  0  0  0  0
  8 11  1  0  0  0  0
  9 10  1  0  0  0  0
 10 35  1  0  0  0  0
 10 36  1  0  0  0  0
 10 37  1  0  0  0  0
 11 12  2  0  0  0  0
 11 38  1  0  0  0  0
 12 13  1  0  0  0  0
 13 14  1  0  0  0  0
 13 39  1  0  0  0  0
 13 40  1  0  0  0  0
 14 15  2  0  0  0  0
 14 23  1  0  0  0  0
 15 16  1  0  0  0  0
 16 17  2  0  0  0  0
 16 19  1  0  0  0  0
 17 18  1  0  0  0  0
 17 22  1  0  0  0  0
 18 41  1  0  0  0  0
 18 42  1  0  0  0  0
 19 20  2  0  0  0  0
 19 23  1  0  0  0  0
 20 21  1  0  0  0  0
 21 22  2  0  0  0  0
 21 43  1  0  0  0  0
 23 24  1  0  0  0  0
 24 25  1  0  0  0  0
 24 44  1  0  0  0  0
 24 45  1  0  0  0  0
 25 26  1  0  0  0  0
 25 46  1  0  0  0  0
 25 47  1  0  0  0  0
 26 27  1  0  0  0  0
 26 48  1  0  0  0  0
 26 49  1  0  0  0  0
 27 50  1  0  0  0  0
 27 51  1  0  0  0  0
 27 52  1  0  0  0  0
M  END
>  <DRUGBANK_ID>
DB02754

>  <SECONDARY_ACCESSION_NUMBERS>
EXPT02694

>  <COMMON_NAME>
9-Butyl-8-(3,4,5-Trimethoxybenzyl)-9h-Purin-6-Amine

$$$$
