
 OpenBabel10282417223D

 64 68  0  0  1  0  0  0  0  0999 V2000
   -2.1197   -0.0431   -0.0676 C   0  0  0  0  0  0  0  0  0  0  0  0
   -0.6816   -0.0229    0.0302 N   0  0  0  0  0  0  0  0  0  0  0  0
    0.1569   -1.0892    0.1752 C   0  0  0  0  0  0  0  0  0  0  0  0
    1.4042   -0.5267    0.4355 C   0  0  0  0  0  0  0  0  0  0  0  0
    1.2458    0.8248    0.1056 C   0  0  0  0  0  0  0  0  0  0  0  0
   -0.0335    1.1545   -0.0579 N   0  0  0  0  0  0  0  0  0  0  0  0
    2.6475   -1.2394    0.4991 C   0  0  0  0  0  0  0  0  0  0  0  0
    2.8194   -2.0215   -0.5451 C   0  0  0  0  0  0  0  0  0  0  0  0
    4.0047   -2.6683   -0.6075 C   0  0  0  0  0  0  0  0  0  0  0  0
    5.1128   -2.7076    0.1955 C   0  0  0  0  0  0  0  0  0  0  0  0
    5.0377   -1.7622    1.1463 C   0  0  0  0  0  0  0  0  0  0  0  0
    3.7653   -1.0903    1.3300 C   0  0  0  0  0  0  0  0  0  0  0  0
    6.7066   -3.9082   -0.2871 S   0  0  0  0  0  0  0  0  0  0  0  0
    7.7507   -2.9246   -0.5172 O   0  0  0  0  0  0  0  0  0  0  0  0
    6.7367   -4.7730    0.8733 O   0  0  0  0  0  0  0  0  0  0  0  0
    6.7022   -5.1101   -1.9149 C   0  0  2  0  0  0  0  0  0  0  0  0
    6.8955   -4.4132   -3.2979 C   0  0  0  0  0  0  0  0  0  0  0  0
    5.5244   -4.4225   -3.8814 C   0  0  2  0  0  0  0  0  0  0  0  0
    4.7808   -5.5845   -3.4753 N   0  0  0  0  0  0  0  0  0  0  0  0
    5.5224   -6.1528   -2.1825 C   0  0  0  0  0  0  0  0  0  0  0  0
    3.5825   -6.1909   -4.1619 C   0  0  0  0  0  0  0  0  0  0  0  0
    3.2963   -7.2736   -3.6338 O   0  0  0  0  0  0  0  0  0  0  0  0
    2.2762   -5.6278   -5.3343 C   0  0  0  0  0  0  0  0  0  0  0  0
    2.6981   -5.1390   -6.7071 C   0  0  0  0  0  0  0  0  0  0  0  0
    1.9451   -3.9496   -6.3166 C   0  0  0  0  0  0  0  0  0  0  0  0
    0.8830   -6.5272   -4.8042 C   0  0  0  0  0  0  0  0  0  0  0  0
    1.1626   -7.8241   -4.5702 F   0  0  0  0  0  0  0  0  0  0  0  0
    0.3351   -6.0908   -3.6181 F   0  0  0  0  0  0  0  0  0  0  0  0
   -0.1661   -6.4719   -5.6506 F   0  0  0  0  0  0  0  0  0  0  0  0
    4.9068   -3.8098   -4.9963 C   0  0  0  0  0  0  0  0  0  0  0  0
    5.5213   -3.1892   -5.8433 O   0  0  0  0  0  0  0  0  0  0  0  0
    3.5399   -3.5591   -4.7413 N   0  0  0  0  0  0  0  0  0  0  0  0
    1.9575   -4.0240   -3.8920 C   0  0  0  0  0  0  0  0  0  0  0  0
    1.5437   -3.3823   -2.6413 C   0  0  0  0  0  0  0  0  0  0  0  0
    2.0014   -4.8105   -2.5097 C   0  0  0  0  0  0  0  0  0  0  0  0
    0.4623   -3.9426   -4.6040 C   0  0  0  0  0  0  0  0  0  0  0  0
   -0.4749   -3.9172   -5.4153 N   0  0  0  0  0  0  0  0  0  0  0  0
    4.4181   -3.3829   -1.6786 C   0  0  0  0  0  0  0  0  0  0  0  0
    5.5852   -2.8140   -2.0277 F   0  0  0  0  0  0  0  0  0  0  0  0
    4.4908   -4.5936   -1.1629 F   0  0  0  0  0  0  0  0  0  0  0  0
    3.6832   -3.3549   -2.7140 F   0  0  0  0  0  0  0  0  0  0  0  0
   -2.5176    0.5415    0.7659 H   0  0  0  0  0  0  0  0  0  0  0  0
   -2.4021    0.4039   -1.0229 H   0  0  0  0  0  0  0  0  0  0  0  0
   -2.4840   -1.0717   -0.0087 H   0  0  0  0  0  0  0  0  0  0  0  0
   -0.2017   -2.1136    0.0937 H   0  0  0  0  0  0  0  0  0  0  0  0
    2.0336    1.5523   -0.0366 H   0  0  0  0  0  0  0  0  0  0  0  0
    2.0304   -2.0092   -1.2537 H   0  0  0  0  0  0  0  0  0  0  0  0
    5.9252   -1.5423    1.7049 H   0  0  0  0  0  0  0  0  0  0  0  0
    3.6293   -0.4485    2.1752 H   0  0  0  0  0  0  0  0  0  0  0  0
    7.6244   -5.6701   -1.7241 H   0  0  0  0  0  0  0  0  0  0  0  0
    7.4518   -4.9920   -4.0274 H   0  0  0  0  0  0  0  0  0  0  0  0
    7.3263   -3.4037   -3.2267 H   0  0  0  0  0  0  0  0  0  0  0  0
    5.2813   -3.4239   -3.5480 H   0  0  0  0  0  0  0  0  0  0  0  0
    5.8461   -7.1790   -2.3748 H   0  0  0  0  0  0  0  0  0  0  0  0
    4.8978   -6.3319   -1.2883 H   0  0  0  0  0  0  0  0  0  0  0  0
    3.7626   -5.1460   -6.8603 H   0  0  0  0  0  0  0  0  0  0  0  0
    2.1469   -5.4349   -7.5876 H   0  0  0  0  0  0  0  0  0  0  0  0
    1.6744   -2.9188   -5.6756 H   0  0  0  0  0  0  0  0  0  0  0  0
    2.3261   -2.7384   -5.9519 H   0  0  0  0  0  0  0  0  0  0  0  0
    3.6054   -3.2920   -5.7184 H   0  0  0  0  0  0  0  0  0  0  0  0
    2.0532   -2.4481   -2.8717 H   0  0  0  0  0  0  0  0  0  0  0  0
    0.5113   -3.2024   -2.3858 H   0  0  0  0  0  0  0  0  0  0  0  0
    1.4199   -5.6794   -2.2002 H   0  0  0  0  0  0  0  0  0  0  0  0
    2.9059   -5.1931   -2.0745 H   0  0  0  0  0  0  0  0  0  0  0  0
  1  2  1  0  0  0  0
  1 42  1  0  0  0  0
  1 43  1  0  0  0  0
  1 44  1  0  0  0  0
  2  3  1  0  0  0  0
  2  6  1  0  0  0  0
  3  4  2  0  0  0  0
  3 45  1  0  0  0  0
  4  5  1  0  0  0  0
  4  7  1  0  0  0  0
  5  6  2  0  0  0  0
  5 46  1  0  0  0  0
  7  8  2  0  0  0  0
  7 12  1  0  0  0  0
  8  9  1  0  0  0  0
  8 47  1  0  0  0  0
  9 10  2  0  0  0  0
  9 38  1  0  0  0  0
 10 11  1  0  0  0  0
 10 13  1  0  0  0  0
 11 12  2  0  0  0  0
 11 48  1  0  0  0  0
 12 49  1  0  0  0  0
 13 14  2  0  0  0  0
 13 15  2  0  0  0  0
 16 13  1  0  0  0  0
 16 17  1  0  0  0  0
 16 20  1  0  0  0  0
 16 50  1  1  0  0  0
 17 51  1  0  0  0  0
 17 52  1  0  0  0  0
 18 17  1  0  0  0  0
 18 19  1  0  0  0  0
 18 53  1  1  0  0  0
 18 30  1  0  0  0  0
 19 20  1  0  0  0  0
 19 21  1  0  0  0  0
 20 54  1  0  0  0  0
 20 55  1  0  0  0  0
 21 22  2  0  0  0  0
 21 23  1  0  0  0  0
 23 24  1  0  0  0  0
 23 25  1  0  0  0  0
 23 26  1  0  0  0  0
 24 25  1  0  0  0  0
 24 56  1  0  0  0  0
 24 57  1  0  0  0  0
 25 58  1  0  0  0  0
 25 59  1  0  0  0  0
 26 27  1  0  0  0  0
 26 28  1  0  0  0  0
 26 29  1  0  0  0  0
 30 31  2  0  0  0  0
 30 32  1  0  0  0  0
 32 33  1  0  0  0  0
 32 60  1  0  0  0  0
 33 34  1  0  0  0  0
 33 35  1  0  0  0  0
 33 36  1  0  0  0  0
 34 35  1  0  0  0  0
 34 61  1  0  0  0  0
 34 62  1  0  0  0  0
 35 63  1  0  0  0  0
 35 64  1  0  0  0  0
 36 37  3  0  0  0  0
 38 39  1  0  0  0  0
 38 40  1  0  0  0  0
 38 41  1  0  0  0  0
M  END
>  <DRUGBANK_ID>
DB15297

>  <COMMON_NAME>
Petesicatib

>  <CAS_NUMBER>
1252637-35-6

>  <UNII>
A26QO95U37

>  <SYNONYMS>
Petesicatib

$$$$
