
 OpenBabel10282417153D

 65 70  0  0  0  0  0  0  0  0999 V2000
    3.6256    0.4761   -0.0159 C   0  0  0  0  0  0  0  0  0  0  0  0
    2.8032    1.5966    0.0028 C   0  0  0  0  0  0  0  0  0  0  0  0
    1.4024    1.4437    0.0515 C   0  0  0  0  0  0  0  0  0  0  0  0
    0.8060    0.1714   -0.0239 C   0  0  0  0  0  0  0  0  0  0  0  0
    1.6621   -0.9135    0.0058 C   0  0  0  0  0  0  0  0  0  0  0  0
    3.0497   -0.7889    0.0113 C   0  0  0  0  0  0  0  0  0  0  0  0
    0.8982   -2.1755    0.0718 C   0  0  0  0  0  0  0  0  0  0  0  0
   -0.4707   -1.8064    0.1924 O   0  0  0  0  0  0  0  0  0  0  0  0
   -0.6361   -0.3668   -0.0393 C   0  0  0  0  0  0  0  0  0  0  0  0
   -1.4166    0.0286    1.2511 C   0  0  0  0  0  0  0  0  0  0  0  0
   -2.9186   -0.2252    1.1584 C   0  0  0  0  0  0  0  0  0  0  0  0
   -3.5158    0.2656   -0.0700 N   0  0  0  0  0  0  0  0  0  0  0  0
   -2.9523   -0.3966   -1.2578 C   0  0  0  0  0  0  0  0  0  0  0  0
   -1.3920   -0.4514   -1.4320 C   0  0  0  0  0  0  0  0  0  0  0  0
   -3.6577    1.7072   -0.0746 C   0  0  0  0  0  0  0  0  0  0  0  0
   -2.4099    2.5570   -0.0814 C   0  0  0  0  0  0  0  0  0  0  0  0
   -1.4596    2.4591   -1.2406 C   0  0  0  0  0  0  0  0  0  0  0  0
   -1.7328    3.2437   -2.4745 C   0  0  0  0  0  0  0  0  0  0  0  0
   -1.3583    4.7413   -2.2395 C   0  0  0  0  0  0  0  0  0  0  0  0
   -1.5363    5.9853   -2.9196 C   0  0  0  0  0  0  0  0  0  0  0  0
   -2.8934    5.7638   -3.1801 N   0  0  0  0  0  0  0  0  0  0  0  0
   -3.1783    5.7500   -1.6676 C   0  0  0  0  0  0  0  0  0  0  0  0
   -1.8906    5.2685   -1.1366 C   0  0  0  0  0  0  0  0  0  0  0  0
   -1.6417    5.1135    0.2792 C   0  0  0  0  0  0  0  0  0  0  0  0
   -2.6116    5.4716    1.1129 C   0  0  0  0  0  0  0  0  0  0  0  0
   -3.4685    6.4726    0.6786 C   0  0  0  0  0  0  0  0  0  0  0  0
   -3.6260    6.7128   -0.7396 C   0  0  0  0  0  0  0  0  0  0  0  0
   -2.9421    4.9874   -4.4838 C   0  0  0  0  0  0  0  0  0  0  0  0
   -3.5609    3.7447   -4.6400 C   0  0  0  0  0  0  0  0  0  0  0  0
   -2.8428    2.7299   -5.3370 C   0  0  0  0  0  0  0  0  0  0  0  0
   -1.6212    2.9676   -5.9939 C   0  0  0  0  0  0  0  0  0  0  0  0
   -1.1092    4.2536   -6.0492 C   0  0  0  0  0  0  0  0  0  0  0  0
   -1.7806    5.2437   -5.3336 C   0  0  0  0  0  0  0  0  0  0  0  0
   -0.8857    1.9558   -6.4537 F   0  0  0  0  0  0  0  0  0  0  0  0
    4.7068    0.5875   -0.0295 H   0  0  0  0  0  0  0  0  0  0  0  0
    3.2530    2.5905   -0.0091 H   0  0  0  0  0  0  0  0  0  0  0  0
    0.8574    2.3737    0.1663 H   0  0  0  0  0  0  0  0  0  0  0  0
    3.6754   -1.6735    0.0373 H   0  0  0  0  0  0  0  0  0  0  0  0
    1.1374   -2.7423    0.9699 H   0  0  0  0  0  0  0  0  0  0  0  0
    1.0239   -2.7626   -0.8371 H   0  0  0  0  0  0  0  0  0  0  0  0
   -1.2079    1.0369    1.6138 H   0  0  0  0  0  0  0  0  0  0  0  0
   -1.0574   -0.5699    2.1000 H   0  0  0  0  0  0  0  0  0  0  0  0
   -3.4415    0.2114    2.0240 H   0  0  0  0  0  0  0  0  0  0  0  0
   -3.1167   -1.2988    1.2304 H   0  0  0  0  0  0  0  0  0  0  0  0
   -3.2922   -1.4374   -1.2131 H   0  0  0  0  0  0  0  0  0  0  0  0
   -3.4451    0.0115   -2.1550 H   0  0  0  0  0  0  0  0  0  0  0  0
   -1.0269    0.2442   -2.2124 H   0  0  0  0  0  0  0  0  0  0  0  0
   -1.1275   -1.3498   -2.0089 H   0  0  0  0  0  0  0  0  0  0  0  0
   -4.2962    2.0381   -0.9044 H   0  0  0  0  0  0  0  0  0  0  0  0
   -4.2067    2.0404    0.8238 H   0  0  0  0  0  0  0  0  0  0  0  0
   -2.9359    3.4789   -0.1712 H   0  0  0  0  0  0  0  0  0  0  0  0
   -1.8593    2.5545    0.8566 H   0  0  0  0  0  0  0  0  0  0  0  0
   -0.3938    2.4488   -1.1150 H   0  0  0  0  0  0  0  0  0  0  0  0
   -1.7343    1.5018   -1.5004 H   0  0  0  0  0  0  0  0  0  0  0  0
   -1.2081    2.7515   -3.2971 H   0  0  0  0  0  0  0  0  0  0  0  0
   -2.8081    3.0363   -2.5929 H   0  0  0  0  0  0  0  0  0  0  0  0
   -1.4266    7.0459   -2.6656 H   0  0  0  0  0  0  0  0  0  0  0  0
   -0.8134    4.4457    0.5681 H   0  0  0  0  0  0  0  0  0  0  0  0
   -2.6505    5.0667    2.1426 H   0  0  0  0  0  0  0  0  0  0  0  0
   -3.8239    7.1574    1.4206 H   0  0  0  0  0  0  0  0  0  0  0  0
   -3.7287    7.7578   -1.0357 H   0  0  0  0  0  0  0  0  0  0  0  0
   -4.4089    3.4540   -4.0280 H   0  0  0  0  0  0  0  0  0  0  0  0
   -3.1261    1.6823   -5.2120 H   0  0  0  0  0  0  0  0  0  0  0  0
   -0.1357    4.4369   -6.5015 H   0  0  0  0  0  0  0  0  0  0  0  0
   -1.1893    6.1611   -5.1993 H   0  0  0  0  0  0  0  0  0  0  0  0
  1  2  2  0  0  0  0
  1  6  1  0  0  0  0
  1 35  1  0  0  0  0
  2  3  1  0  0  0  0
  2 36  1  0  0  0  0
  3  4  2  0  0  0  0
  3 37  1  0  0  0  0
  4  5  1  0  0  0  0
  4  9  1  0  0  0  0
  5  6  2  0  0  0  0
  5  7  1  0  0  0  0
  6 38  1  0  0  0  0
  7  8  1  0  0  0  0
  7 39  1  0  0  0  0
  7 40  1  0  0  0  0
  8  9  1  0  0  0  0
  9 10  1  0  0  0  0
  9 14  1  0  0  0  0
 10 11  1  0  0  0  0
 10 41  1  0  0  0  0
 10 42  1  0  0  0  0
 11 12  1  0  0  0  0
 11 43  1  0  0  0  0
 11 44  1  0  0  0  0
 12 13  1  0  0  0  0
 12 15  1  0  0  0  0
 13 14  1  0  0  0  0
 13 45  1  0  0  0  0
 13 46  1  0  0  0  0
 14 47  1  0  0  0  0
 14 48  1  0  0  0  0
 15 16  1  0  0  0  0
 15 49  1  0  0  0  0
 15 50  1  0  0  0  0
 16 17  1  0  0  0  0
 16 51  1  0  0  0  0
 16 52  1  0  0  0  0
 17 18  1  0  0  0  0
 17 53  1  0  0  0  0
 17 54  1  0  0  0  0
 18 19  1  0  0  0  0
 18 55  1  0  0  0  0
 18 56  1  0  0  0  0
 19 20  2  0  0  0  0
 19 23  1  0  0  0  0
 20 21  1  0  0  0  0
 20 57  1  0  0  0  0
 21 22  1  0  0  0  0
 21 28  1  0  0  0  0
 22 23  1  0  0  0  0
 22 27  2  0  0  0  0
 23 24  2  0  0  0  0
 24 25  1  0  0  0  0
 24 58  1  0  0  0  0
 25 26  2  0  0  0  0
 25 59  1  0  0  0  0
 26 27  1  0  0  0  0
 26 60  1  0  0  0  0
 27 61  1  0  0  0  0
 28 29  2  0  0  0  0
 28 33  1  0  0  0  0
 29 30  1  0  0  0  0
 29 62  1  0  0  0  0
 30 31  2  0  0  0  0
 30 63  1  0  0  0  0
 31 32  1  0  0  0  0
 31 34  1  0  0  0  0
 32 33  2  0  0  0  0
 32 64  1  0  0  0  0
 33 65  1  0  0  0  0
M  END
>  <DRUGBANK_ID>
DB06555

>  <COMMON_NAME>
Siramesine

>  <CAS_NUMBER>
147817-50-3

>  <UNII>
3IX8CWR24V

>  <SYNONYMS>
Siramesine

$$$$
