
 OpenBabel10282417153D

 52 56  0  0  0  0  0  0  0  0999 V2000
    0.8025    0.9315   -0.9988 C   0  0  3  0  0  0  0  0  0  0  0  0
    1.3818   -0.4298   -0.6372 C   0  0  0  0  0  0  0  0  0  0  0  0
    0.4363   -1.4368   -0.7347 N   0  0  0  0  0  0  0  0  0  0  0  0
   -0.8250   -1.1374   -1.0995 C   0  0  0  0  0  0  0  0  0  0  0  0
   -0.7873    0.3926   -1.9880 S   0  0  0  0  0  0  0  0  0  0  0  0
   -0.7513   -0.0073    2.1166 C   0  0  0  0  0  0  0  0  0  0  0  0
   -0.2293    0.6105    3.1975 C   0  0  0  0  0  0  0  0  0  0  0  0
   -0.2379    2.0330    3.2556 C   0  0  0  0  0  0  0  0  0  0  0  0
   -0.6497    2.8899    2.2091 C   0  0  0  0  0  0  0  0  0  0  0  0
   -1.1061    2.2585    1.0863 C   0  0  0  0  0  0  0  0  0  0  0  0
   -1.1625    0.8635    1.1389 C   0  0  0  0  0  0  0  0  0  0  0  0
   -0.5583    4.3577    2.2458 C   0  0  0  0  0  0  0  0  0  0  0  0
    0.4624    4.9415    2.9875 O   0  0  0  0  0  0  0  0  0  0  0  0
    0.4109    6.3075    2.6882 C   0  0  0  0  0  0  0  0  0  0  0  0
   -0.6974    6.4580    1.8560 C   0  0  0  0  0  0  0  0  0  0  0  0
   -1.2775    5.2349    1.5738 N   0  0  0  0  0  0  0  0  0  0  0  0
    1.6112    7.2287    3.0152 C   0  0  0  0  0  0  0  0  0  0  0  0
   -1.2220    7.6833    1.2094 C   0  0  0  0  0  0  0  0  0  0  0  0
   -0.5304    8.1690   -0.0767 C   0  0  0  0  0  0  0  0  0  0  0  0
   -0.6196    7.3403   -1.2519 O   0  0  0  0  0  0  0  0  0  0  0  0
    0.0291    6.1035   -1.3541 C   0  0  0  0  0  0  0  0  0  0  0  0
    0.9611    3.3741   -1.6633 C   0  0  0  0  0  0  0  0  0  0  0  0
   -0.0082    3.9427   -2.4954 C   0  0  0  0  0  0  0  0  0  0  0  0
   -0.4167    5.2835   -2.3906 C   0  0  0  0  0  0  0  0  0  0  0  0
    1.4764    4.2307   -0.6995 C   0  0  0  0  0  0  0  0  0  0  0  0
    1.0901    5.5692   -0.5807 C   0  0  0  0  0  0  0  0  0  0  0  0
    1.9418    6.1573    0.3720 C   0  0  0  0  0  0  0  0  0  0  0  0
    2.5899    5.2292    1.1668 C   0  0  0  0  0  0  0  0  0  0  0  0
    2.6380    3.7230    0.4736 S   0  0  0  0  0  0  0  0  0  0  0  0
    1.5137    1.9664   -1.8240 C   0  0  0  0  0  0  0  0  0  0  0  0
   -1.8599   -1.6622   -0.6238 O   0  0  0  0  0  0  0  0  0  0  0  0
    2.4758   -0.6128   -0.1250 O   0  0  0  0  0  0  0  0  0  0  0  0
    0.7766    1.3801    0.0120 H   0  0  0  0  0  0  0  0  0  0  0  0
    0.5849   -2.2371   -0.1378 H   0  0  0  0  0  0  0  0  0  0  0  0
   -0.7098   -1.0813    1.9222 H   0  0  0  0  0  0  0  0  0  0  0  0
    0.2078   -0.0219    3.9586 H   0  0  0  0  0  0  0  0  0  0  0  0
    0.0897    2.4892    4.1716 H   0  0  0  0  0  0  0  0  0  0  0  0
   -1.2156    2.7632    0.1184 H   0  0  0  0  0  0  0  0  0  0  0  0
   -1.2224    0.3835    0.2250 H   0  0  0  0  0  0  0  0  0  0  0  0
    2.1002    7.0055    3.9600 H   0  0  0  0  0  0  0  0  0  0  0  0
    2.5015    7.1873    2.3637 H   0  0  0  0  0  0  0  0  0  0  0  0
    1.3674    8.2801    2.8352 H   0  0  0  0  0  0  0  0  0  0  0  0
   -1.1298    8.4689    1.9708 H   0  0  0  0  0  0  0  0  0  0  0  0
   -2.2938    7.5503    1.0208 H   0  0  0  0  0  0  0  0  0  0  0  0
    0.4896    8.5310    0.0672 H   0  0  0  0  0  0  0  0  0  0  0  0
   -1.0656    9.1010   -0.3299 H   0  0  0  0  0  0  0  0  0  0  0  0
   -0.4563    3.3181   -3.2574 H   0  0  0  0  0  0  0  0  0  0  0  0
   -1.0741    5.6994   -3.1502 H   0  0  0  0  0  0  0  0  0  0  0  0
    1.7803    7.1905    0.6175 H   0  0  0  0  0  0  0  0  0  0  0  0
    2.9271    5.2841    2.1938 H   0  0  0  0  0  0  0  0  0  0  0  0
    2.5772    1.9839   -1.5568 H   0  0  0  0  0  0  0  0  0  0  0  0
    1.4486    1.6866   -2.8656 H   0  0  0  0  0  0  0  0  0  0  0  0
  1  2  1  0  0  0  0
  1 30  1  0  0  0  0
  1 33  1  0  0  0  0
  2  3  1  0  0  0  0
  2 32  2  0  0  0  0
  3  4  1  0  0  0  0
  3 34  1  0  0  0  0
  4  5  1  0  0  0  0
  4 31  2  0  0  0  0
  5  1  1  0  0  0  0
  6  7  2  0  0  0  0
  6 35  1  0  0  0  0
  7  8  1  0  0  0  0
  7 36  1  0  0  0  0
  8  9  2  0  0  0  0
  8 37  1  0  0  0  0
  9 10  1  0  0  0  0
  9 12  1  0  0  0  0
 10 11  2  0  0  0  0
 10 38  1  0  0  0  0
 11  6  1  0  0  0  0
 11 39  1  0  0  0  0
 12 13  1  0  0  0  0
 13 14  1  0  0  0  0
 14 17  1  0  0  0  0
 14 15  2  0  0  0  0
 15 16  1  0  0  0  0
 15 18  1  0  0  0  0
 16 12  2  0  0  0  0
 17 40  1  0  0  0  0
 17 41  1  0  0  0  0
 17 42  1  0  0  0  0
 18 19  1  0  0  0  0
 18 43  1  0  0  0  0
 18 44  1  0  0  0  0
 19 20  1  0  0  0  0
 19 45  1  0  0  0  0
 19 46  1  0  0  0  0
 20 21  1  0  0  0  0
 21 26  2  0  0  0  0
 22 23  1  0  0  0  0
 22 30  1  0  0  0  0
 23 24  2  0  0  0  0
 23 47  1  0  0  0  0
 24 21  1  0  0  0  0
 24 48  1  0  0  0  0
 25 22  2  0  0  0  0
 25 26  1  0  0  0  0
 26 27  1  0  0  0  0
 27 28  2  0  0  0  0
 27 49  1  0  0  0  0
 28 29  1  0  0  0  0
 28 50  1  0  0  0  0
 29 25  1  0  0  0  0
 30 51  1  0  0  0  0
 30 52  1  0  0  0  0
M  END
>  <DRUGBANK_ID>
DB06519

>  <COMMON_NAME>
Edaglitazone

>  <CAS_NUMBER>
213411-83-7

>  <UNII>
8GKF7V499B

>  <SYNONYMS>
Edaglitazone

$$$$
