
 OpenBabel10282417103D

 45 46  0  0  0  0  0  0  0  0999 V2000
    0.1283    0.9246   -0.2695 C   0  0  1  0  0  0  0  0  0  0  0  0
   -1.1885    0.1818   -0.0699 C   0  0  1  0  0  0  0  0  0  0  0  0
   -0.4502   -1.0841   -0.0893 N   0  0  0  0  0  0  0  0  0  0  0  0
    0.7938   -0.4936   -0.0167 C   0  0  0  0  0  0  0  0  0  0  0  0
   -0.8269   -2.5776   -0.6961 S   0  0  0  0  0  0  0  0  0  0  0  0
   -0.1010   -2.6275   -1.9577 O   0  5  0  0  0  0  0  0  0  0  0  0
   -0.3745   -3.4879    0.3456 O   0  0  0  0  0  0  0  0  0  0  0  0
   -2.2763   -2.4670   -0.8284 O   0  0  0  0  0  0  0  0  0  0  0  0
    1.8826   -0.9492    0.2785 O   0  0  0  0  0  0  0  0  0  0  0  0
   -1.7550    0.4380    1.3497 C   0  0  0  0  0  0  0  0  0  0  0  0
    0.5001    1.7001   -1.4590 N   0  0  0  0  0  0  0  0  0  0  0  0
    1.0294    3.0023   -1.4901 C   0  0  0  0  0  0  0  0  0  0  0  0
    1.2167    3.4779   -2.6050 O   0  0  0  0  0  0  0  0  0  0  0  0
    1.3335    3.8370   -0.1644 C   0  0  0  0  0  0  0  0  0  0  0  0
    1.6734    5.1006   -0.1551 N   0  0  0  0  0  0  0  0  0  0  0  0
    1.3785    1.5858    3.1585 S   0  0  0  0  0  0  0  0  0  0  0  0
    1.9585    2.1265    1.6242 C   0  0  0  0  0  0  0  0  0  0  0  0
    1.2718    3.2658    1.2101 C   0  0  0  0  0  0  0  0  0  0  0  0
    0.3399    3.7207    2.1743 N   0  0  0  0  0  0  0  0  0  0  0  0
    0.3448    2.9320    3.2146 C   0  0  0  0  0  0  0  0  0  0  0  0
    1.8272    5.6521   -1.4412 O   0  0  0  0  0  0  0  0  0  0  0  0
    2.2867    7.0157   -1.4003 C   0  0  0  0  0  0  0  0  0  0  0  0
    1.2813    7.9408   -0.6983 C   0  0  0  0  0  0  0  0  0  0  0  0
    1.4967    8.6573    0.2693 O   0  0  0  0  0  0  0  0  0  0  0  0
    0.0459    7.9221   -1.2494 O   0  0  0  0  0  0  0  0  0  0  0  0
    3.6619    7.1214   -0.7266 C   0  0  0  0  0  0  0  0  0  0  0  0
    2.4527    7.4818   -2.8570 C   0  0  0  0  0  0  0  0  0  0  0  0
   -0.6923    3.0560    4.1612 N   0  3  0  0  0  0  0  0  0  0  0  0
    0.0752    1.6175    0.5312 H   0  0  0  0  0  0  0  0  0  0  0  0
   -1.9263    0.3689   -0.8460 H   0  0  0  0  0  0  0  0  0  0  0  0
   -2.0076    1.4983    1.4810 H   0  0  0  0  0  0  0  0  0  0  0  0
   -2.6559   -0.1491    1.5267 H   0  0  0  0  0  0  0  0  0  0  0  0
   -1.0471    0.1855    2.1543 H   0  0  0  0  0  0  0  0  0  0  0  0
    0.4286    1.3065   -2.4009 H   0  0  0  0  0  0  0  0  0  0  0  0
    2.6156    1.4933    1.0394 H   0  0  0  0  0  0  0  0  0  0  0  0
   -0.4710    8.5689   -0.7256 H   0  0  0  0  0  0  0  0  0  0  0  0
    4.3971    6.4803   -1.2254 H   0  0  0  0  0  0  0  0  0  0  0  0
    4.0359    8.1529   -0.7469 H   0  0  0  0  0  0  0  0  0  0  0  0
    3.6194    6.8093    0.3215 H   0  0  0  0  0  0  0  0  0  0  0  0
    3.1773    6.8534   -3.3893 H   0  0  0  0  0  0  0  0  0  0  0  0
    1.5123    7.4086   -3.4140 H   0  0  0  0  0  0  0  0  0  0  0  0
    2.7971    8.5215   -2.9133 H   0  0  0  0  0  0  0  0  0  0  0  0
   -1.5415    3.2711    3.6304 H   0  0  0  0  0  0  0  0  0  0  0  0
   -0.5911    3.8942    4.7456 H   0  0  0  0  0  0  0  0  0  0  0  0
   -0.8009    2.2336    4.7608 H   0  0  0  0  0  0  0  0  0  0  0  0
  1  2  1  0  0  0  0
  1  4  1  0  0  0  0
  1 11  1  0  0  0  0
  1 29  1  1  0  0  0
  2  3  1  0  0  0  0
  2 10  1  0  0  0  0
  2 30  1  6  0  0  0
  3  5  1  0  0  0  0
  4  3  1  0  0  0  0
  4  9  2  0  0  0  0
  5  6  1  0  0  0  0
  5  7  2  0  0  0  0
  5  8  2  0  0  0  0
 10 31  1  0  0  0  0
 10 32  1  0  0  0  0
 10 33  1  0  0  0  0
 11 12  1  0  0  0  0
 11 34  1  0  0  0  0
 12 13  2  0  0  0  0
 12 14  1  0  0  0  0
 14 18  1  0  0  0  0
 14 15  2  0  0  0  0
 15 21  1  0  0  0  0
 16 17  1  0  0  0  0
 16 20  1  0  0  0  0
 17 18  2  0  0  0  0
 17 35  1  0  0  0  0
 18 19  1  0  0  0  0
 19 20  2  0  0  0  0
 20 28  1  0  0  0  0
 21 22  1  0  0  0  0
 22 23  1  0  0  0  0
 22 26  1  0  0  0  0
 22 27  1  0  0  0  0
 23 24  2  0  0  0  0
 23 25  1  0  0  0  0
 25 36  1  0  0  0  0
 26 37  1  0  0  0  0
 26 38  1  0  0  0  0
 26 39  1  0  0  0  0
 27 40  1  0  0  0  0
 27 41  1  0  0  0  0
 27 42  1  0  0  0  0
 28 43  1  0  0  0  0
 28 44  1  0  0  0  0
 28 45  1  0  0  0  0
M  CHG  2   6  -1  28   1
M  END
>  <DRUGBANK_ID>
DB00355

>  <SECONDARY_ACCESSION_NUMBERS>
APRD00815; EXPT00605

>  <COMMON_NAME>
Aztreonam

>  <CAS_NUMBER>
78110-38-0

>  <UNII>
G2B4VE5GH8

>  <SYNONYMS>
(Z,)-2-((((2-Amino-4-thiazolyl)(((2S,3S,)-2-methyl-4-oxo-1-sulfo-3-azetidinyl)carbamoyl)methylene)amino)oxy)-2-methylpropionic acid; 2-({[(1Z)-1-(2-amino-1,3-thiazol-4-yl) -2- {[(2S,3S)-2-methyl-4-oxo-1-sulfoazetidin-3-yl]amino} -2- oxoethylidene]amino}oxy)-2-methylpropanoic acid; Aztreonam; Aztr√©onam; Aztreonamum

$$$$
