
 OpenBabel10282417123D

 17 17  0  0  0  0  0  0  0  0999 V2000
    2.3395    0.0025   -0.0446 N   0  0  0  0  0  0  0  0  0  0  0  0
    0.9574   -0.0081    0.0071 C   0  0  0  0  0  0  0  0  0  0  0  0
    0.2380    1.1874   -0.0055 C   0  0  0  0  0  0  0  0  0  0  0  0
   -1.1559    1.1756    0.0041 C   0  0  0  0  0  0  0  0  0  0  0  0
   -1.8397   -0.0415    0.0047 C   0  0  0  0  0  0  0  0  0  0  0  0
   -1.1365   -1.2578   -0.0028 C   0  0  0  0  0  0  0  0  0  0  0  0
    0.2644   -1.2243   -0.0010 C   0  0  0  0  0  0  0  0  0  0  0  0
   -1.9349   -2.5209   -0.0169 C   0  0  0  0  0  0  0  0  0  0  0  0
   -1.2509   -3.6830   -0.0266 O   0  0  0  0  0  0  0  0  0  0  0  0
   -3.1592   -2.5091   -0.0210 O   0  0  0  0  0  0  0  0  0  0  0  0
    2.8707   -0.8545    0.0220 H   0  0  0  0  0  0  0  0  0  0  0  0
    2.8437    0.8771    0.0206 H   0  0  0  0  0  0  0  0  0  0  0  0
    0.7597    2.1414   -0.0191 H   0  0  0  0  0  0  0  0  0  0  0  0
   -1.7062    2.1138    0.0079 H   0  0  0  0  0  0  0  0  0  0  0  0
   -2.9293   -0.0345    0.0078 H   0  0  0  0  0  0  0  0  0  0  0  0
    0.8570   -2.1287   -0.0036 H   0  0  0  0  0  0  0  0  0  0  0  0
   -0.2816   -3.6521   -0.0267 H   0  0  0  0  0  0  0  0  0  0  0  0
  1  2  1  0  0  0  0
  1 11  1  0  0  0  0
  1 12  1  0  0  0  0
  2  3  2  0  0  0  0
  2  7  1  0  0  0  0
  3  4  1  0  0  0  0
  3 13  1  0  0  0  0
  4  5  2  0  0  0  0
  4 14  1  0  0  0  0
  5  6  1  0  0  0  0
  5 15  1  0  0  0  0
  6  7  2  0  0  0  0
  6  8  1  0  0  0  0
  7 16  1  0  0  0  0
  8  9  1  0  0  0  0
  8 10  2  0  0  0  0
  9 17  1  0  0  0  0
M  END
>  <DRUGBANK_ID>
DB02054

>  <SECONDARY_ACCESSION_NUMBERS>
EXPT01542

>  <COMMON_NAME>
Gabaculine

>  <CAS_NUMBER>
87980-11-8

>  <UNII>
G2X3B3O37U

$$$$
