
 OpenBabel10282417143D

 13 14  0  0  1  0  0  0  0  0999 V2000
    1.1150   -0.0410    0.0836 O   0  0  0  0  0  0  0  0  0  0  0  0
    3.2509    0.7372    0.1446 N   0  0  0  0  0  0  0  0  0  0  0  0
    2.8530   -1.5182   -0.0398 N   0  0  0  0  0  0  0  0  0  0  0  0
    4.9752   -2.4836    0.0073 N   0  0  0  0  0  0  0  0  0  0  0  0
    4.6435   -0.0802    0.2880 C   0  0  3  0  0  0  0  0  0  0  0  0
    4.4368    1.3261    0.0174 C   0  0  0  0  0  0  0  0  0  0  0  0
    4.1289   -1.4319    0.0435 C   0  0  0  0  0  0  0  0  0  0  0  0
    2.3238   -0.2636    0.0518 C   0  0  0  0  0  0  0  0  0  0  0  0
    4.5596   -3.4092    0.0165 H   0  0  0  0  0  0  0  0  0  0  0  0
    5.9811   -2.4173    0.0562 H   0  0  0  0  0  0  0  0  0  0  0  0
    5.6990   -0.0126   -0.0088 H   0  0  0  0  0  0  0  0  0  0  0  0
    4.6290    1.7821   -0.9453 H   0  0  0  0  0  0  0  0  0  0  0  0
    4.6841    1.9807    0.8495 H   0  0  0  0  0  0  0  0  0  0  0  0
  1  8  2  0  0  0  0
  2  5  1  0  0  0  0
  2  6  1  0  0  0  0
  2  8  1  0  0  0  0
  3  7  2  0  0  0  0
  3  8  1  0  0  0  0
  4  7  1  0  0  0  0
  4  9  1  0  0  0  0
  4 10  1  0  0  0  0
  5  6  1  0  0  0  0
  5  7  1  0  0  0  0
  5 11  1  0  0  0  0
  6 12  1  0  0  0  0
  6 13  1  0  0  0  0
M  END
>  <DRUGBANK_ID>
DB05003

>  <COMMON_NAME>
Imexon

>  <CAS_NUMBER>
59643-91-3

>  <UNII>
8F63U28T2V

>  <SYNONYMS>
Imexon

$$$$
