6IN
 OpenBabel10282417133D

 52 54  0  0  0  0  0  0  0  0999 V2000
   -2.0383   -0.8747   -0.1223 C   0  0  0  0  0  0  0  0  0  0  0  0
   -1.9096    0.4520   -0.4467 C   0  0  0  0  0  0  0  0  0  0  0  0
   -0.8123    1.2769   -0.1901 C   0  0  0  0  0  0  0  0  0  0  0  0
    0.3635    0.5895   -0.0255 C   0  0  0  0  0  0  0  0  0  0  0  0
    0.3464   -0.8121    0.0146 C   0  0  0  0  0  0  0  0  0  0  0  0
   -0.8624   -1.5515    0.0352 C   0  0  0  0  0  0  0  0  0  0  0  0
    1.6779    1.0245    0.0340 N   0  0  0  0  0  0  0  0  0  0  0  0
    2.4668   -0.0982   -0.1160 C   0  0  0  0  0  0  0  0  0  0  0  0
    1.6834   -1.2230    0.0026 C   0  0  0  0  0  0  0  0  0  0  0  0
    2.1357    2.4350    0.0616 C   0  0  0  0  0  0  0  0  0  0  0  0
    2.9489    2.7795    1.3015 C   0  0  0  0  0  0  0  0  0  0  0  0
    4.1534    2.1377    1.6111 C   0  0  0  0  0  0  0  0  0  0  0  0
    4.7321    2.1553    2.8662 C   0  0  0  0  0  0  0  0  0  0  0  0
    4.2996    3.1011    3.7610 C   0  0  0  0  0  0  0  0  0  0  0  0
    3.2728    3.9693    3.3863 C   0  0  0  0  0  0  0  0  0  0  0  0
    2.5455    3.7621    2.2026 C   0  0  0  0  0  0  0  0  0  0  0  0
    3.9205   -0.1102   -0.3061 C   0  0  0  0  0  0  0  0  0  0  0  0
    2.1388   -2.6310    0.0296 C   0  0  0  0  0  0  0  0  0  0  0  0
    1.6555   -3.3150    1.2955 C   0  0  0  0  0  0  0  0  0  0  0  0
    0.8878   -4.4290    1.0972 N   0  0  0  0  0  0  0  0  0  0  0  0
    1.9045   -2.9293    2.4288 O   0  0  0  0  0  0  0  0  0  0  0  0
   -3.2358   -1.5089    0.0400 O   0  0  0  0  0  0  0  0  0  0  0  0
   -4.4532   -0.7219    0.0387 C   0  0  0  0  0  0  0  0  0  0  0  0
   -4.6931    0.2200    1.2532 C   0  0  0  0  0  0  0  0  0  0  0  0
   -3.8197    1.4795    1.3575 C   0  0  0  0  0  0  0  0  0  0  0  0
   -4.0118    2.4336    0.1396 C   0  0  0  0  0  0  0  0  0  0  0  0
   -3.7199    3.7258    0.4033 O   0  0  0  0  0  0  0  0  0  0  0  0
   -4.3433    2.1201   -0.9801 O   0  0  0  0  0  0  0  0  0  0  0  0
   -2.7684    0.8900   -0.8771 H   0  0  0  0  0  0  0  0  0  0  0  0
   -0.8930    2.3566   -0.2259 H   0  0  0  0  0  0  0  0  0  0  0  0
   -0.8660   -2.6323    0.1009 H   0  0  0  0  0  0  0  0  0  0  0  0
    2.6988    2.6197   -0.8609 H   0  0  0  0  0  0  0  0  0  0  0  0
    1.2469    3.0791    0.0114 H   0  0  0  0  0  0  0  0  0  0  0  0
    4.7327    1.5972    0.8927 H   0  0  0  0  0  0  0  0  0  0  0  0
    5.5389    1.4614    3.0868 H   0  0  0  0  0  0  0  0  0  0  0  0
    4.8022    3.1844    4.7171 H   0  0  0  0  0  0  0  0  0  0  0  0
    3.0295    4.8038    4.0342 H   0  0  0  0  0  0  0  0  0  0  0  0
    1.6816    4.3875    1.9941 H   0  0  0  0  0  0  0  0  0  0  0  0
    4.3773   -0.3894    0.6536 H   0  0  0  0  0  0  0  0  0  0  0  0
    4.2276   -0.8443   -1.0462 H   0  0  0  0  0  0  0  0  0  0  0  0
    4.2656    0.8445   -0.6987 H   0  0  0  0  0  0  0  0  0  0  0  0
    1.7638   -3.1335   -0.8690 H   0  0  0  0  0  0  0  0  0  0  0  0
    3.2286   -2.6925    0.0145 H   0  0  0  0  0  0  0  0  0  0  0  0
    0.4872   -4.8537    1.9224 H   0  0  0  0  0  0  0  0  0  0  0  0
    0.5607   -4.7197    0.1874 H   0  0  0  0  0  0  0  0  0  0  0  0
   -4.5871   -0.2207   -0.9241 H   0  0  0  0  0  0  0  0  0  0  0  0
   -5.2682   -1.4588    0.0611 H   0  0  0  0  0  0  0  0  0  0  0  0
   -5.7317    0.5709    1.2295 H   0  0  0  0  0  0  0  0  0  0  0  0
   -4.5716   -0.3700    2.1712 H   0  0  0  0  0  0  0  0  0  0  0  0
   -4.0366    2.0380    2.2708 H   0  0  0  0  0  0  0  0  0  0  0  0
   -2.7911    1.1579    1.5409 H   0  0  0  0  0  0  0  0  0  0  0  0
   -3.5950    3.9129    1.3444 H   0  0  0  0  0  0  0  0  0  0  0  0
  1  2  1  0  0  0  0
  1  6  2  0  0  0  0
  1 22  1  0  0  0  0
  2  3  2  0  0  0  0
  2 29  1  0  0  0  0
  3  4  1  0  0  0  0
  3 30  1  0  0  0  0
  4  5  2  0  0  0  0
  4  7  1  0  0  0  0
  5  6  1  0  0  0  0
  5  9  1  0  0  0  0
  6 31  1  0  0  0  0
  7  8  1  0  0  0  0
  7 10  1  0  0  0  0
  8  9  2  0  0  0  0
  8 17  1  0  0  0  0
  9 18  1  0  0  0  0
 10 11  1  0  0  0  0
 10 32  1  0  0  0  0
 10 33  1  0  0  0  0
 11 12  2  0  0  0  0
 11 16  1  0  0  0  0
 12 13  1  0  0  0  0
 12 34  1  0  0  0  0
 13 14  2  0  0  0  0
 13 35  1  0  0  0  0
 14 15  1  0  0  0  0
 14 36  1  0  0  0  0
 15 16  2  0  0  0  0
 15 37  1  0  0  0  0
 16 38  1  0  0  0  0
 17 39  1  0  0  0  0
 17 40  1  0  0  0  0
 17 41  1  0  0  0  0
 18 19  1  0  0  0  0
 18 42  1  0  0  0  0
 18 43  1  0  0  0  0
 19 20  1  0  0  0  0
 19 21  2  0  0  0  0
 20 44  1  0  0  0  0
 20 45  1  0  0  0  0
 22 23  1  0  0  0  0
 23 24  1  0  0  0  0
 23 46  1  0  0  0  0
 23 47  1  0  0  0  0
 24 25  1  0  0  0  0
 24 48  1  0  0  0  0
 24 49  1  0  0  0  0
 25 26  1  0  0  0  0
 25 50  1  0  0  0  0
 25 51  1  0  0  0  0
 26 27  1  0  0  0  0
 26 28  2  0  0  0  0
 27 52  1  0  0  0  0
M  END
>  <DRUGBANK_ID>
DB02936

>  <SECONDARY_ACCESSION_NUMBERS>
EXPT00286

>  <COMMON_NAME>
4-(1-Benzyl-3-Carbamoylmethyl-2-Methyl-1h-Indol-5-Yloxy)-Butyric Acid

$$$$
