
 OpenBabel10282417203D

 46 48  0  0  0  0  0  0  0  0999 V2000
    0.9407    0.0006   -0.0367 C   0  0  0  0  0  0  0  0  0  0  0  0
    0.3904   -0.1286    1.4158 C   0  0  0  0  0  0  0  0  0  0  0  0
    0.9134    1.0650    2.1994 C   0  0  0  0  0  0  0  0  0  0  0  0
    0.5358    2.2356    1.6491 F   0  0  0  0  0  0  0  0  0  0  0  0
    0.5621    1.1221    3.4899 F   0  0  0  0  0  0  0  0  0  0  0  0
    2.2767    1.0463    2.1921 F   0  0  0  0  0  0  0  0  0  0  0  0
   -1.1247   -0.0812    1.3317 C   0  0  0  0  0  0  0  0  0  0  0  0
   -1.5606   -1.1172    0.5621 F   0  0  0  0  0  0  0  0  0  0  0  0
   -1.7954   -0.1831    2.4830 F   0  0  0  0  0  0  0  0  0  0  0  0
   -1.5606    1.0533    0.7498 F   0  0  0  0  0  0  0  0  0  0  0  0
    0.8300   -1.3735    2.0451 O   0  0  0  0  0  0  0  0  0  0  0  0
    0.3720   -1.5074    3.3490 C   0  0  0  0  0  0  0  0  0  0  0  0
   -0.4059   -0.8044    3.9518 O   0  0  0  0  0  0  0  0  0  0  0  0
    0.8769   -2.4763    4.2586 C   0  0  0  0  0  0  0  0  0  0  0  0
    2.0028   -3.1517    3.3611 C   0  0  0  0  0  0  0  0  0  0  0  0
    2.1966   -4.7647    3.5374 C   0  0  0  0  0  0  0  0  0  0  0  0
    1.3360   -5.9482    4.7461 C   0  0  0  0  0  0  0  0  0  0  0  0
   -0.0004   -5.1381    5.8485 C   0  0  0  0  0  0  0  0  0  0  0  0
   -0.2054   -3.3098    5.5125 C   0  0  0  0  0  0  0  0  0  0  0  0
    2.1968   -6.7301    5.9843 C   0  0  0  0  0  0  0  0  0  0  0  0
    2.1929   -5.3627    6.7606 C   0  0  0  0  0  0  0  0  0  0  0  0
    2.0960   -4.3410    5.7563 C   0  0  0  0  0  0  0  0  0  0  0  0
    3.6388   -5.1013    5.2738 C   0  0  0  0  0  0  0  0  0  0  0  0
    3.8440   -6.1032    3.9498 C   0  0  0  0  0  0  0  0  0  0  0  0
    4.8402   -5.7876    3.1225 C   0  0  0  0  0  0  0  0  0  0  0  0
    5.7967   -5.1151    3.8531 C   0  0  0  0  0  0  0  0  0  0  0  0
    5.7233   -4.5978    5.2649 C   0  0  0  0  0  0  0  0  0  0  0  0
    4.6147   -4.6297    6.0447 C   0  0  0  0  0  0  0  0  0  0  0  0
    4.3656   -4.3384    7.3648 O   0  0  0  0  0  0  0  0  0  0  0  0
    3.2242   -5.0416    7.8503 C   0  0  0  0  0  0  0  0  0  0  0  0
    3.0544   -5.2906    9.0413 O   0  0  0  0  0  0  0  0  0  0  0  0
    0.7776   -4.3510    4.3826 O   0  0  0  0  0  0  0  0  0  0  0  0
    0.6035    0.9442   -0.4959 H   0  0  0  0  0  0  0  0  0  0  0  0
    0.6003   -0.8139   -0.6855 H   0  0  0  0  0  0  0  0  0  0  0  0
    2.0362   -0.0010   -0.0732 H   0  0  0  0  0  0  0  0  0  0  0  0
    2.7497   -2.6119    2.7616 H   0  0  0  0  0  0  0  0  0  0  0  0
    3.3042   -4.2257    3.6582 H   0  0  0  0  0  0  0  0  0  0  0  0
   -0.3064   -5.5123    6.8284 H   0  0  0  0  0  0  0  0  0  0  0  0
   -1.1691   -3.2107    4.9317 H   0  0  0  0  0  0  0  0  0  0  0  0
    1.6420   -7.6610    5.9752 H   0  0  0  0  0  0  0  0  0  0  0  0
    3.2424   -7.1169    5.8117 H   0  0  0  0  0  0  0  0  0  0  0  0
    2.9528   -6.4642    3.2980 H   0  0  0  0  0  0  0  0  0  0  0  0
    4.6689   -5.7802    2.0308 H   0  0  0  0  0  0  0  0  0  0  0  0
    6.7277   -5.0262    3.3327 H   0  0  0  0  0  0  0  0  0  0  0  0
    6.5819   -4.0915    5.6635 H   0  0  0  0  0  0  0  0  0  0  0  0
   -0.0601   -4.9288    4.1675 H   0  0  0  0  0  0  0  0  0  0  0  0
  1  2  1  0  0  0  0
  1 33  1  0  0  0  0
  1 34  1  0  0  0  0
  1 35  1  0  0  0  0
  2  3  1  0  0  0  0
  2  7  1  0  0  0  0
  2 11  1  0  0  0  0
  3  4  1  0  0  0  0
  3  5  1  0  0  0  0
  3  6  1  0  0  0  0
  7  8  1  0  0  0  0
  7  9  1  0  0  0  0
  7 10  1  0  0  0  0
 11 12  1  0  0  0  0
 12 13  2  0  0  0  0
 12 14  1  0  0  0  0
 14 15  2  0  0  0  0
 14 19  1  0  0  0  0
 15 16  1  0  0  0  0
 15 36  1  0  0  0  0
 16 17  2  0  0  0  0
 16 37  1  0  0  0  0
 17 18  1  0  0  0  0
 17 20  1  0  0  0  0
 18 19  2  0  0  0  0
 18 38  1  0  0  0  0
 19 39  1  0  0  0  0
 20 21  1  0  0  0  0
 20 40  1  0  0  0  0
 20 41  1  0  0  0  0
 21 22  2  0  0  0  0
 21 30  1  0  0  0  0
 22 23  1  0  0  0  0
 22 32  1  0  0  0  0
 23 24  2  0  0  0  0
 23 28  1  0  0  0  0
 24 25  1  0  0  0  0
 24 42  1  0  0  0  0
 25 26  2  0  0  0  0
 25 43  1  0  0  0  0
 26 27  1  0  0  0  0
 26 44  1  0  0  0  0
 27 28  2  0  0  0  0
 27 45  1  0  0  0  0
 28 29  1  0  0  0  0
 29 30  1  0  0  0  0
 30 31  2  0  0  0  0
 32 46  1  0  0  0  0
M  END
>  <DRUGBANK_ID>
DB12823

>  <COMMON_NAME>
Tecarfarin

>  <CAS_NUMBER>
867257-26-9

>  <UNII>
WN1479YT50

>  <SYNONYMS>
Tecarfarin

$$$$
