
 OpenBabel10282417233D

 39 40  0  0  0  0  0  0  0  0999 V2000
   -0.5046    1.6790   -0.7935 C   0  0  2  0  0  0  0  0  0  0  0  0
    0.6965    0.8751   -0.3347 C   0  0  2  0  0  0  0  0  0  0  0  0
    0.1886    1.3904   -2.3624 C   0  0  0  0  0  0  0  0  0  0  0  0
   -1.7210    1.1824    0.0083 C   0  0  0  0  0  0  0  0  0  0  0  0
    0.2475    0.0395   -1.8274 C   0  0  0  0  0  0  0  0  0  0  0  0
    1.5496    0.0900    0.5369 C   0  0  0  0  0  0  0  0  0  0  0  0
   -0.5068    1.2710   -3.6946 C   0  0  0  0  0  0  0  0  0  0  0  0
    1.7305    1.5277   -2.6464 C   0  0  0  0  0  0  0  0  0  0  0  0
   -2.0848   -0.3360   -0.1379 C   0  0  0  0  0  0  0  0  0  0  0  0
    2.2337   -1.0114   -0.1737 C   0  0  0  0  0  0  0  0  0  0  0  0
    1.3697   -0.0291    1.9359 C   0  0  0  0  0  0  0  0  0  0  0  0
   -1.3482   -1.4546    0.7673 C   0  0  0  0  0  0  0  0  0  0  0  0
    1.0601   -2.0777   -0.2502 C   0  0  0  0  0  0  0  0  0  0  0  0
   -0.1895   -2.2300    0.6808 C   0  0  0  0  0  0  0  0  0  0  0  0
   -2.0422   -1.5699    2.1013 C   0  0  0  0  0  0  0  0  0  0  0  0
   -0.4199    2.7798   -0.6751 H   0  0  0  0  0  0  0  0  0  0  0  0
    1.1028    1.8200    0.0113 H   0  0  0  0  0  0  0  0  0  0  0  0
   -2.5830    1.8136   -0.2614 H   0  0  0  0  0  0  0  0  0  0  0  0
   -1.5364    1.4022    1.0683 H   0  0  0  0  0  0  0  0  0  0  0  0
    0.5405   -0.7432   -2.5576 H   0  0  0  0  0  0  0  0  0  0  0  0
   -0.6229   -0.5678   -1.6840 H   0  0  0  0  0  0  0  0  0  0  0  0
    0.2029    0.8680   -4.4370 H   0  0  0  0  0  0  0  0  0  0  0  0
   -1.3506    0.5751   -3.6937 H   0  0  0  0  0  0  0  0  0  0  0  0
   -0.8080    2.2600   -4.0200 H   0  0  0  0  0  0  0  0  0  0  0  0
    1.9091    2.2687   -3.4151 H   0  0  0  0  0  0  0  0  0  0  0  0
    2.3289    1.7733   -1.7622 H   0  0  0  0  0  0  0  0  0  0  0  0
    2.1448    0.5770   -3.0400 H   0  0  0  0  0  0  0  0  0  0  0  0
   -3.1649   -0.4126    0.0577 H   0  0  0  0  0  0  0  0  0  0  0  0
   -2.1621   -0.5984   -1.1971 H   0  0  0  0  0  0  0  0  0  0  0  0
    3.2510   -1.3122    0.1040 H   0  0  0  0  0  0  0  0  0  0  0  0
    2.4411   -0.5919   -1.1829 H   0  0  0  0  0  0  0  0  0  0  0  0
    1.7192   -0.9733    2.3240 H   0  0  0  0  0  0  0  0  0  0  0  0
    0.6312    0.5174    2.4370 H   0  0  0  0  0  0  0  0  0  0  0  0
    1.0773   -2.6304   -1.1917 H   0  0  0  0  0  0  0  0  0  0  0  0
    0.4277   -1.3374   -0.5808 H   0  0  0  0  0  0  0  0  0  0  0  0
    0.0279   -2.9386    1.4764 H   0  0  0  0  0  0  0  0  0  0  0  0
   -3.0629   -1.1822    2.0795 H   0  0  0  0  0  0  0  0  0  0  0  0
   -2.0756   -2.6086    2.4362 H   0  0  0  0  0  0  0  0  0  0  0  0
   -1.4778   -0.9768    2.8302 H   0  0  0  0  0  0  0  0  0  0  0  0
  1  2  1  0  0  0  0
  1  3  1  0  0  0  0
  1  4  1  0  0  0  0
  1 16  1  6  0  0  0
  2  5  1  0  0  0  0
  2  6  1  0  0  0  0
  2 17  1  6  0  0  0
  3  5  1  0  0  0  0
  3  7  1  0  0  0  0
  3  8  1  0  0  0  0
  4  9  1  0  0  0  0
  4 18  1  0  0  0  0
  4 19  1  0  0  0  0
  5 20  1  0  0  0  0
  5 21  1  0  0  0  0
  6 10  1  0  0  0  0
  6 11  2  0  0  0  0
  7 22  1  0  0  0  0
  7 23  1  0  0  0  0
  7 24  1  0  0  0  0
  8 25  1  0  0  0  0
  8 26  1  0  0  0  0
  8 27  1  0  0  0  0
  9 12  1  0  0  0  0
  9 28  1  0  0  0  0
  9 29  1  0  0  0  0
 10 13  1  0  0  0  0
 10 30  1  0  0  0  0
 10 31  1  0  0  0  0
 11 32  1  0  0  0  0
 11 33  1  0  0  0  0
 12 14  2  0  0  0  0
 12 15  1  0  0  0  0
 13 14  1  0  0  0  0
 13 34  1  0  0  0  0
 13 35  1  0  0  0  0
 14 36  1  0  0  0  0
 15 37  1  0  0  0  0
 15 38  1  0  0  0  0
 15 39  1  0  0  0  0
M  END
>  <DRUGBANK_ID>
DB16854

>  <COMMON_NAME>
Caryophyllene

>  <CAS_NUMBER>
87-44-5

>  <UNII>
NRY8I0KNIR

>  <SYNONYMS>
Beta-Caryophyllene; Î²-Caryophyllene

$$$$
