2,3-Dihydroxybenzoic acid
 OpenBabel10282417123D

 17 17  0  0  0  0  0  0  0  0999 V2000
    0.9180   -0.1867   -0.0743 O   0  0  0  0  0  0  0  0  0  0  0  0
    0.3620   -0.6779    1.0507 C   0  0  0  0  0  0  0  0  0  0  0  0
    1.0378   -1.0527    1.9923 O   0  0  0  0  0  0  0  0  0  0  0  0
   -1.1130   -0.6506    0.9883 C   0  0  0  0  0  0  0  0  0  0  0  0
   -1.8257   -0.9859   -0.1696 C   0  0  0  0  0  0  0  0  0  0  0  0
   -1.2319   -1.3645   -1.3472 O   0  0  0  0  0  0  0  0  0  0  0  0
   -3.2224   -0.9767   -0.1424 C   0  0  0  0  0  0  0  0  0  0  0  0
   -3.9527   -1.3233   -1.2452 O   0  0  0  0  0  0  0  0  0  0  0  0
   -3.9172   -0.6282    1.0093 C   0  0  0  0  0  0  0  0  0  0  0  0
   -3.2116   -0.2998    2.1656 C   0  0  0  0  0  0  0  0  0  0  0  0
   -1.8128   -0.3197    2.1606 C   0  0  0  0  0  0  0  0  0  0  0  0
    1.8808   -0.1379    0.1251 H   0  0  0  0  0  0  0  0  0  0  0  0
   -0.2671   -1.2288   -1.2509 H   0  0  0  0  0  0  0  0  0  0  0  0
   -3.2999   -1.5531   -1.9341 H   0  0  0  0  0  0  0  0  0  0  0  0
   -5.0037   -0.6236    1.0051 H   0  0  0  0  0  0  0  0  0  0  0  0
   -3.7549   -0.0378    3.0706 H   0  0  0  0  0  0  0  0  0  0  0  0
   -1.2744   -0.0761    3.0750 H   0  0  0  0  0  0  0  0  0  0  0  0
  1  2  1  0  0  0  0
  1 12  1  0  0  0  0
  2  3  2  0  0  0  0
  2  4  1  0  0  0  0
  4  5  2  0  0  0  0
  4 11  1  0  0  0  0
  5  6  1  0  0  0  0
  5  7  1  0  0  0  0
  6 13  1  0  0  0  0
  7  8  1  0  0  0  0
  7  9  2  0  0  0  0
  8 14  1  0  0  0  0
  9 10  1  0  0  0  0
  9 15  1  0  0  0  0
 10 11  2  0  0  0  0
 10 16  1  0  0  0  0
 11 17  1  0  0  0  0
M  END
>  <DRUGBANK_ID>
DB01672

>  <SECONDARY_ACCESSION_NUMBERS>
EXPT01121

>  <COMMON_NAME>
2,3-Dihydroxy-Benzoic Acid

>  <CAS_NUMBER>
303-38-8

>  <UNII>
70D5FBB392

$$$$
