
 OpenBabel10282417243D

 42 44  0  0  1  0  0  0  0  0999 V2000
    1.1431    0.0723   -0.0495 C   0  0  0  0  0  0  0  0  0  0  0  0
    0.7379   -0.0889    1.3670 C   0  0  0  0  0  0  0  0  0  0  0  0
    0.5720   -1.2384    2.0722 C   0  0  0  0  0  0  0  0  0  0  0  0
    0.6555   -2.6281    1.5501 C   0  0  0  0  0  0  0  0  0  0  0  0
   -0.3183   -2.8231    0.4700 N   0  0  0  0  0  0  0  0  0  0  0  0
    0.2412   -3.2184   -0.7696 O   0  0  0  0  0  0  0  0  0  0  0  0
   -1.6894   -2.7613    0.4948 C   0  0  0  0  0  0  0  0  0  0  0  0
   -2.2822   -2.5109    1.6870 N   0  0  0  0  0  0  0  0  0  0  0  0
   -2.4257   -2.9362   -0.4842 O   0  0  0  0  0  0  0  0  0  0  0  0
    0.0588   -0.8477    3.3782 C   0  0  0  0  0  0  0  0  0  0  0  0
   -0.4310   -1.5819    4.4022 C   0  0  0  0  0  0  0  0  0  0  0  0
   -0.3038   -3.0844    4.5297 C   0  0  0  0  0  0  0  0  0  0  0  0
   -1.4335   -0.9178    5.2972 C   0  0  0  0  0  0  0  0  0  0  0  0
   -2.8805   -1.3669    4.7707 C   0  0  0  0  0  0  0  0  0  0  0  0
   -2.3511   -1.6861    6.1545 C   0  0  0  0  0  0  0  0  0  0  0  0
   -1.1439    0.5849    5.6482 C   0  0  1  0  0  0  0  0  0  0  0  0
   -2.4592    1.2960    5.9524 C   0  0  0  0  0  0  0  0  0  0  0  0
   -0.1752    0.6722    6.6997 O   0  0  0  0  0  0  0  0  0  0  0  0
   -0.5430    1.3878    4.4876 C   0  0  0  0  0  0  0  0  0  0  0  0
   -0.4799    2.6230    4.4615 O   0  0  0  0  0  0  0  0  0  0  0  0
   -0.0500    0.5990    3.3640 C   0  0  0  0  0  0  0  0  0  0  0  0
    0.3605    1.0556    2.1765 C   0  0  0  0  0  0  0  0  0  0  0  0
    0.7427    0.9907   -0.4886 H   0  0  0  0  0  0  0  0  0  0  0  0
    0.7864   -0.7504   -0.6698 H   0  0  0  0  0  0  0  0  0  0  0  0
    2.2339    0.0955   -0.1007 H   0  0  0  0  0  0  0  0  0  0  0  0
    1.6794   -2.8077    1.2086 H   0  0  0  0  0  0  0  0  0  0  0  0
    0.4407   -3.3960    2.2821 H   0  0  0  0  0  0  0  0  0  0  0  0
    1.2013   -3.1362   -0.6596 H   0  0  0  0  0  0  0  0  0  0  0  0
   -3.2811   -2.3620    1.6881 H   0  0  0  0  0  0  0  0  0  0  0  0
   -1.7803   -2.1617    2.4803 H   0  0  0  0  0  0  0  0  0  0  0  0
   -0.9978   -3.5857    3.8467 H   0  0  0  0  0  0  0  0  0  0  0  0
    0.7188   -3.4224    4.3471 H   0  0  0  0  0  0  0  0  0  0  0  0
   -0.5466   -3.4499    5.5287 H   0  0  0  0  0  0  0  0  0  0  0  0
   -3.9540   -1.4619    5.0320 H   0  0  0  0  0  0  0  0  0  0  0  0
   -3.2251   -0.4975    4.1800 H   0  0  0  0  0  0  0  0  0  0  0  0
   -2.2513   -2.7476    6.3481 H   0  0  0  0  0  0  0  0  0  0  0  0
   -2.7959   -1.2082    7.0192 H   0  0  0  0  0  0  0  0  0  0  0  0
   -2.9887    0.8345    6.7852 H   0  0  0  0  0  0  0  0  0  0  0  0
   -2.3645    2.3615    6.1577 H   0  0  0  0  0  0  0  0  0  0  0  0
   -3.0873    1.2289    5.0588 H   0  0  0  0  0  0  0  0  0  0  0  0
   -0.5258    0.2996    7.5210 H   0  0  0  0  0  0  0  0  0  0  0  0
    0.3736    2.0912    1.8670 H   0  0  0  0  0  0  0  0  0  0  0  0
  1  2  1  0  0  0  0
  1 23  1  0  0  0  0
  1 24  1  0  0  0  0
  1 25  1  0  0  0  0
  2  3  2  0  0  0  0
  2 22  1  0  0  0  0
  3  4  1  0  0  0  0
  3 10  1  0  0  0  0
  4  5  1  0  0  0  0
  4 26  1  0  0  0  0
  4 27  1  0  0  0  0
  5  6  1  0  0  0  0
  5  7  1  0  0  0  0
  6 28  1  0  0  0  0
  7  8  1  0  0  0  0
  7  9  2  0  0  0  0
  8 29  1  0  0  0  0
  8 30  1  0  0  0  0
 10 11  2  0  0  0  0
 10 21  1  0  0  0  0
 11 12  1  0  0  0  0
 11 13  1  0  0  0  0
 12 31  1  0  0  0  0
 12 32  1  0  0  0  0
 12 33  1  0  0  0  0
 13 14  1  0  0  0  0
 13 15  1  0  0  0  0
 14 15  1  0  0  0  0
 14 34  1  0  0  0  0
 14 35  1  0  0  0  0
 15 36  1  0  0  0  0
 15 37  1  0  0  0  0
 16 13  1  0  0  0  0
 16 17  1  0  0  0  0
 16 18  1  1  0  0  0
 16 19  1  0  0  0  0
 17 38  1  0  0  0  0
 17 39  1  0  0  0  0
 17 40  1  0  0  0  0
 18 41  1  0  0  0  0
 19 20  2  0  0  0  0
 19 21  1  0  0  0  0
 21 22  2  0  0  0  0
 22 42  1  0  0  0  0
M  END
>  <DRUGBANK_ID>
DB18215

>  <COMMON_NAME>
LP-184

>  <CAS_NUMBER>
924835-67-6

>  <UNII>
L683VC69K8

>  <SYNONYMS>
(R)-1-HYDROXY-1-((6'-HYDROXY-2',4',6'-TRIMETHYL-7'-OXO-6',7'-DIHYDROSPIRO(CYCLOPROPANE-1,5'-INDEN)-3'-YL)METHYL)UREA; Hydroxyurea methylacylfulvene; N-(((6'R)-6',7'-DIHYDRO-6'-HYDROXY-2',4',6'-TRIMETHYL-7'-OXOSPIRO(CYCLOPROPANE-1,5'-(5H)INDEN)-3'-YL)METHYL)-N-HYDROXYUREA; N-HYDROXY-N-(METHYLACYLFULVENE)UREA; UREA, N-(((6'R)-6',7'-DIHYDRO-6'-HYDROXY-2',4',6'-TRIMETHYL-7'-OXOSPIRO(CYCLOPROPANE-1,5'-(5H)INDEN)-3'-YL)METHYL)-N-HYDROXY-

$$$$
