
 OpenBabel10282417143D

 61 64  0  0  1  0  0  0  0  0999 V2000
   -2.1375   -0.2107    0.4911 O   0  0  0  0  0  0  0  0  0  0  0  0
    1.7567    3.2075   -3.6849 O   0  0  0  0  0  0  0  0  0  0  0  0
    1.4579   -0.8662    0.1560 N   0  0  0  0  0  0  0  0  0  0  0  0
    1.1274    1.1447   -2.7558 N   0  0  0  0  0  0  0  0  0  0  0  0
    0.0631   -1.3172    0.3034 C   0  0  0  0  0  0  0  0  0  0  0  0
    1.4886    0.5562    0.5093 C   0  0  0  0  0  0  0  0  0  0  0  0
   -0.8125   -0.1097    0.0173 C   0  0  2  0  0  0  0  0  0  0  0  0
    0.0038    0.9861    0.6904 C   0  0  0  0  0  0  0  0  0  0  0  0
    1.9308   -1.0766   -1.2334 C   0  0  0  0  0  0  0  0  0  0  0  0
    1.0515   -0.5952   -2.4490 C   0  0  2  0  0  0  0  0  0  0  0  0
    1.4448   -1.5621   -3.5930 C   0  0  0  0  0  0  0  0  0  0  0  0
    1.7201    1.9707   -3.7811 C   0  0  0  0  0  0  0  0  0  0  0  0
    2.2650    1.3557   -5.1317 C   0  0  0  0  0  0  0  0  0  0  0  0
    0.5009    2.0862   -1.8294 C   0  0  0  0  0  0  0  0  0  0  0  0
    2.0924   -0.8791   -4.5202 C   0  0  0  0  0  0  0  0  0  0  0  0
    1.4527   -2.8511   -4.0794 C   0  0  0  0  0  0  0  0  0  0  0  0
    3.9950    0.5810   -4.6844 C   0  0  0  0  0  0  0  0  0  0  0  0
    0.6441    0.6812   -5.8588 C   0  0  0  0  0  0  0  0  0  0  0  0
    2.6166   -1.0929   -6.0979 C   0  0  0  0  0  0  0  0  0  0  0  0
    2.0719   -3.2531   -5.4774 C   0  0  0  0  0  0  0  0  0  0  0  0
    2.5948   -2.3796   -6.5131 C   0  0  0  0  0  0  0  0  0  0  0  0
    4.9474    1.1612   -3.8735 C   0  0  0  0  0  0  0  0  0  0  0  0
    0.2500   -0.7057   -6.0419 C   0  0  0  0  0  0  0  0  0  0  0  0
    4.3484   -0.9663   -4.5007 C   0  0  0  0  0  0  0  0  0  0  0  0
   -0.5998    1.2627   -6.0277 C   0  0  0  0  0  0  0  0  0  0  0  0
    5.9817    0.2633   -3.2462 C   0  0  0  0  0  0  0  0  0  0  0  0
   -0.7757   -1.6158   -6.3044 C   0  0  0  0  0  0  0  0  0  0  0  0
    5.0285   -1.8559   -3.7191 C   0  0  0  0  0  0  0  0  0  0  0  0
   -1.8478    0.4076   -6.3316 C   0  0  0  0  0  0  0  0  0  0  0  0
    6.0513   -1.1757   -3.1702 C   0  0  0  0  0  0  0  0  0  0  0  0
   -1.9175   -1.0062   -6.4863 C   0  0  0  0  0  0  0  0  0  0  0  0
   -2.5989   -0.8199   -0.1166 H   0  0  0  0  0  0  0  0  0  0  0  0
   -0.1063   -1.6368    1.3345 H   0  0  0  0  0  0  0  0  0  0  0  0
   -0.1683   -2.1736   -0.3386 H   0  0  0  0  0  0  0  0  0  0  0  0
    2.0543    0.8014    1.4124 H   0  0  0  0  0  0  0  0  0  0  0  0
    2.1308    1.0273   -0.2440 H   0  0  0  0  0  0  0  0  0  0  0  0
   -0.9366    0.0482   -1.0481 H   0  0  0  0  0  0  0  0  0  0  0  0
   -0.2899    1.9846    0.3470 H   0  0  0  0  0  0  0  0  0  0  0  0
   -0.2399    1.0426    1.7501 H   0  0  0  0  0  0  0  0  0  0  0  0
    2.9640   -0.7128   -1.3514 H   0  0  0  0  0  0  0  0  0  0  0  0
    2.0433   -2.1700   -1.3086 H   0  0  0  0  0  0  0  0  0  0  0  0
   -0.0108   -0.7926   -2.3519 H   0  0  0  0  0  0  0  0  0  0  0  0
    2.5194    2.1965   -5.7974 H   0  0  0  0  0  0  0  0  0  0  0  0
   -0.5313    1.8041   -1.6712 H   0  0  0  0  0  0  0  0  0  0  0  0
    1.1431    2.2321   -0.9752 H   0  0  0  0  0  0  0  0  0  0  0  0
    0.4280    3.1496   -2.0864 H   0  0  0  0  0  0  0  0  0  0  0  0
    2.4180   -0.0749   -3.8817 H   0  0  0  0  0  0  0  0  0  0  0  0
    0.9317   -3.6089   -3.5103 H   0  0  0  0  0  0  0  0  0  0  0  0
    3.0458   -0.2583   -6.6824 H   0  0  0  0  0  0  0  0  0  0  0  0
    2.0703   -4.3027   -5.7295 H   0  0  0  0  0  0  0  0  0  0  0  0
    2.9898   -2.5913   -7.4961 H   0  0  0  0  0  0  0  0  0  0  0  0
    4.9561    2.2208   -3.6764 H   0  0  0  0  0  0  0  0  0  0  0  0
    0.8137   -1.5222   -5.7708 H   0  0  0  0  0  0  0  0  0  0  0  0
    3.8171   -1.8169   -4.8868 H   0  0  0  0  0  0  0  0  0  0  0  0
   -0.7515    2.3277   -5.9172 H   0  0  0  0  0  0  0  0  0  0  0  0
    6.8372    0.7195   -2.7630 H   0  0  0  0  0  0  0  0  0  0  0  0
   -0.5775   -2.6973   -6.2033 H   0  0  0  0  0  0  0  0  0  0  0  0
    4.7686   -2.9168   -3.6925 H   0  0  0  0  0  0  0  0  0  0  0  0
   -2.8159    0.8774   -6.3996 H   0  0  0  0  0  0  0  0  0  0  0  0
    6.8108   -1.8303   -2.7961 H   0  0  0  0  0  0  0  0  0  0  0  0
   -2.7428   -1.6749   -6.6813 H   0  0  0  0  0  0  0  0  0  0  0  0
  1 32  1  0  0  0  0
  2 12  2  0  0  0  0
  3  5  1  0  0  0  0
  3  6  1  0  0  0  0
  3  9  1  0  0  0  0
  4 12  1  0  0  0  0
  4 14  1  0  0  0  0
  5  7  1  0  0  0  0
  5 33  1  0  0  0  0
  5 34  1  0  0  0  0
  6  8  1  0  0  0  0
  6 35  1  0  0  0  0
  6 36  1  0  0  0  0
  7  1  1  0  0  0  0
  7  8  1  0  0  0  0
  7 37  1  6  0  0  0
  8 38  1  0  0  0  0
  8 39  1  0  0  0  0
  9 10  1  0  0  0  0
  9 40  1  0  0  0  0
  9 41  1  0  0  0  0
 10  4  1  0  0  0  0
 10 11  1  0  0  0  0
 10 42  1  1  0  0  0
 11 15  2  0  0  0  0
 11 16  1  0  0  0  0
 12 13  1  0  0  0  0
 13 17  1  0  0  0  0
 13 18  1  0  0  0  0
 13 43  1  0  0  0  0
 14 44  1  0  0  0  0
 14 45  1  0  0  0  0
 14 46  1  0  0  0  0
 15 19  1  0  0  0  0
 15 47  1  0  0  0  0
 16 20  2  0  0  0  0
 16 48  1  0  0  0  0
 17 22  2  0  0  0  0
 17 24  1  0  0  0  0
 18 23  2  0  0  0  0
 18 25  1  0  0  0  0
 19 21  2  0  0  0  0
 19 49  1  0  0  0  0
 20 21  1  0  0  0  0
 20 50  1  0  0  0  0
 21 51  1  0  0  0  0
 22 26  1  0  0  0  0
 22 52  1  0  0  0  0
 23 27  1  0  0  0  0
 23 53  1  0  0  0  0
 24 28  2  0  0  0  0
 24 54  1  0  0  0  0
 25 29  2  0  0  0  0
 25 55  1  0  0  0  0
 26 30  2  0  0  0  0
 26 56  1  0  0  0  0
 27 31  2  0  0  0  0
 27 57  1  0  0  0  0
 28 30  1  0  0  0  0
 28 58  1  0  0  0  0
 29 31  1  0  0  0  0
 29 59  1  0  0  0  0
 30 60  1  0  0  0  0
 31 61  1  0  0  0  0
M  END
>  <DRUGBANK_ID>
DB05104

>  <COMMON_NAME>
Asimadoline

>  <CAS_NUMBER>
153205-46-0

>  <UNII>
D0VK52NV5M

>  <SYNONYMS>
Asimadoline

$$$$
