
 OpenBabel10282417223D

 43 46  0  0  1  0  0  0  0  0999 V2000
   -2.6762    1.8244   -2.8143 O   0  0  0  0  0  0  0  0  0  0  0  0
   -1.7298    0.9051   -2.5285 C   0  0  0  0  0  0  0  0  0  0  0  0
   -1.2698    0.2204   -3.4331 O   0  0  0  0  0  0  0  0  0  0  0  0
   -1.3849    0.7571   -1.0226 C   0  0  1  0  0  0  0  0  0  0  0  0
   -1.8747    1.9202   -0.1426 C   0  0  0  0  0  0  0  0  0  0  0  0
   -3.3947    2.0642   -0.2521 C   0  0  0  0  0  0  0  0  0  0  0  0
   -4.0024    3.2371   -0.5909 C   0  0  0  0  0  0  0  0  0  0  0  0
   -5.4578    3.5275   -0.8276 C   0  0  0  0  0  0  0  0  0  0  0  0
   -5.6156    5.0143   -0.6117 C   0  0  0  0  0  0  0  0  0  0  0  0
   -4.2952    5.5379   -0.4259 N   0  0  0  0  0  0  0  0  0  0  0  0
   -3.3309    4.5909   -0.7603 C   0  0  0  0  0  0  0  0  0  0  0  0
   -2.1854    4.7909   -1.1466 O   0  0  0  0  0  0  0  0  0  0  0  0
   -4.0422    6.6875    0.3657 C   0  0  0  0  0  0  0  0  0  0  0  0
   -4.6457    6.8341    1.6270 C   0  0  0  0  0  0  0  0  0  0  0  0
   -4.5201    8.0226    2.3586 C   0  0  0  0  0  0  0  0  0  0  0  0
   -3.7213    9.0517    1.8744 C   0  0  0  0  0  0  0  0  0  0  0  0
   -3.0301    8.8740    0.6760 C   0  0  0  0  0  0  0  0  0  0  0  0
   -3.2139    7.7119   -0.0920 C   0  0  0  0  0  0  0  0  0  0  0  0
   -4.0636    0.7061   -0.1113 C   0  0  0  0  0  0  0  0  0  0  0  0
   -5.4328    0.5731    0.1257 C   0  0  0  0  0  0  0  0  0  0  0  0
   -6.0739   -0.6544    0.2292 C   0  0  0  0  0  0  0  0  0  0  0  0
   -5.3329   -1.8143    0.1528 C   0  0  0  0  0  0  0  0  0  0  0  0
   -6.1417   -3.3211    0.3144 Cl  0  0  0  0  0  0  0  0  0  0  0  0
   -3.9551   -1.7473   -0.0433 C   0  0  0  0  0  0  0  0  0  0  0  0
   -3.3076   -0.5014   -0.1846 C   0  0  0  0  0  0  0  0  0  0  0  0
   -1.9464   -0.4874   -0.4810 N   0  0  0  0  0  0  0  0  0  0  0  0
   -2.8938    1.7543   -3.7618 H   0  0  0  0  0  0  0  0  0  0  0  0
   -0.2898    0.7079   -0.9592 H   0  0  0  0  0  0  0  0  0  0  0  0
   -1.6190    1.7174    0.9090 H   0  0  0  0  0  0  0  0  0  0  0  0
   -1.3243    2.8206   -0.4144 H   0  0  0  0  0  0  0  0  0  0  0  0
   -5.7557    3.2144   -1.8361 H   0  0  0  0  0  0  0  0  0  0  0  0
   -6.1431    3.1002   -0.1098 H   0  0  0  0  0  0  0  0  0  0  0  0
   -6.0395    5.4709   -1.5138 H   0  0  0  0  0  0  0  0  0  0  0  0
   -6.2893    5.2205    0.2248 H   0  0  0  0  0  0  0  0  0  0  0  0
   -5.1803    6.0064    2.0856 H   0  0  0  0  0  0  0  0  0  0  0  0
   -5.0314    8.1395    3.3116 H   0  0  0  0  0  0  0  0  0  0  0  0
   -3.6244    9.9795    2.4353 H   0  0  0  0  0  0  0  0  0  0  0  0
   -2.3502    9.6505    0.3339 H   0  0  0  0  0  0  0  0  0  0  0  0
   -2.7388    7.6401   -1.0662 H   0  0  0  0  0  0  0  0  0  0  0  0
   -6.0801    1.4096    0.2709 H   0  0  0  0  0  0  0  0  0  0  0  0
   -7.1486   -0.6665    0.3851 H   0  0  0  0  0  0  0  0  0  0  0  0
   -3.3894   -2.6727   -0.1099 H   0  0  0  0  0  0  0  0  0  0  0  0
   -1.3573   -1.3007   -0.3524 H   0  0  0  0  0  0  0  0  0  0  0  0
  1  2  1  0  0  0  0
  1 27  1  0  0  0  0
  2  3  2  0  0  0  0
  4  5  1  0  0  0  0
  4 26  1  0  0  0  0
  4 28  1  1  0  0  0
  4  2  1  0  0  0  0
  5  6  1  0  0  0  0
  5 29  1  0  0  0  0
  5 30  1  0  0  0  0
  6  7  2  0  0  0  0
  6 19  1  0  0  0  0
  7  8  1  0  0  0  0
  7 11  1  0  0  0  0
  8  9  1  0  0  0  0
  8 31  1  0  0  0  0
  8 32  1  0  0  0  0
  9 10  1  0  0  0  0
  9 33  1  0  0  0  0
  9 34  1  0  0  0  0
 10 11  1  0  0  0  0
 10 13  1  0  0  0  0
 11 12  2  0  0  0  0
 13 14  2  0  0  0  0
 13 18  1  0  0  0  0
 14 15  1  0  0  0  0
 14 35  1  0  0  0  0
 15 16  2  0  0  0  0
 15 36  1  0  0  0  0
 16 17  1  0  0  0  0
 16 37  1  0  0  0  0
 17 18  2  0  0  0  0
 17 38  1  0  0  0  0
 18 39  1  0  0  0  0
 19 20  2  0  0  0  0
 19 25  1  0  0  0  0
 20 21  1  0  0  0  0
 20 40  1  0  0  0  0
 21 22  2  0  0  0  0
 21 41  1  0  0  0  0
 22 23  1  0  0  0  0
 22 24  1  0  0  0  0
 24 25  2  0  0  0  0
 24 42  1  0  0  0  0
 25 26  1  0  0  0  0
 26 43  1  0  0  0  0
M  END
>  <DRUGBANK_ID>
DB15099

>  <COMMON_NAME>
GW-468816

>  <CAS_NUMBER>
476689-77-7

>  <UNII>
3WGI8FOO62

$$$$
