
 OpenBabel10282417143D

 22 21  0  0  0  0  0  0  0  0999 V2000
    1.0880    0.0601    2.3970 C   0  0  0  0  0  0  0  0  0  0  0  0
    1.4638    1.5241    2.1516 C   0  0  0  0  0  0  0  0  0  0  0  0
    2.3875    0.1555   -0.2993 O   0  0  0  0  0  0  0  0  0  0  0  0
    2.0307    2.2133    3.3812 C   0  0  0  0  0  0  0  0  0  0  0  0
    1.0675   -0.1368   -0.2090 C   0  0  0  0  0  0  0  0  0  0  0  0
    0.3393    0.0151   -1.1870 O   0  0  0  0  0  0  0  0  0  0  0  0
    0.5892   -0.6968    1.1599 C   0  0  2  0  0  0  0  0  0  0  0  0
   -0.8869   -0.7500    1.2078 N   0  0  0  0  0  0  0  0  0  0  0  0
    3.2440    1.4733    3.9311 C   0  0  0  0  0  0  0  0  0  0  0  0
    1.9354   -0.5100    2.7928 H   0  0  0  0  0  0  0  0  0  0  0  0
    0.3374    0.0293    3.2026 H   0  0  0  0  0  0  0  0  0  0  0  0
    2.2523    1.6224    1.4071 H   0  0  0  0  0  0  0  0  0  0  0  0
    0.6012    2.0700    1.7543 H   0  0  0  0  0  0  0  0  0  0  0  0
    2.9173    0.0621    0.5137 H   0  0  0  0  0  0  0  0  0  0  0  0
    2.3397    3.2225    3.0832 H   0  0  0  0  0  0  0  0  0  0  0  0
    1.2561    2.3135    4.1460 H   0  0  0  0  0  0  0  0  0  0  0  0
    0.9403   -1.7353    1.2124 H   0  0  0  0  0  0  0  0  0  0  0  0
   -1.2089   -1.1531    2.0850 H   0  0  0  0  0  0  0  0  0  0  0  0
   -1.2622    0.1971    1.1550 H   0  0  0  0  0  0  0  0  0  0  0  0
    4.0160    1.3611    3.1607 H   0  0  0  0  0  0  0  0  0  0  0  0
    3.6707    2.0163    4.7757 H   0  0  0  0  0  0  0  0  0  0  0  0
    2.9819    0.4733    4.2891 H   0  0  0  0  0  0  0  0  0  0  0  0
  1  2  1  0  0  0  0
  1 10  1  0  0  0  0
  1 11  1  0  0  0  0
  2  4  1  0  0  0  0
  2 12  1  0  0  0  0
  2 13  1  0  0  0  0
  3 14  1  0  0  0  0
  4  9  1  0  0  0  0
  4 15  1  0  0  0  0
  4 16  1  0  0  0  0
  5  3  1  0  0  0  0
  5  6  2  0  0  0  0
  7  8  1  0  0  0  0
  7 17  1  1  0  0  0
  7  5  1  0  0  0  0
  7  1  1  0  0  0  0
  8 18  1  0  0  0  0
  8 19  1  0  0  0  0
  9 20  1  0  0  0  0
  9 21  1  0  0  0  0
  9 22  1  0  0  0  0
M  END
>  <DRUGBANK_ID>
DB04419

>  <SECONDARY_ACCESSION_NUMBERS>
EXPT02355

>  <COMMON_NAME>
D-norleucine

>  <CAS_NUMBER>
327-56-0

>  <UNII>
VP8G7LX265

>  <SYNONYMS>
D-(âˆ’)-norleucine; D-2-aminohexanoic acid

$$$$
