
 OpenBabel10282417213D

 73 75  0  0  1  0  0  0  0  0999 V2000
    2.0005    0.4364    0.5865 C   0  0  0  0  0  0  0  0  0  0  0  0
    2.3549    1.2553   -0.6505 C   0  0  0  0  0  0  0  0  0  0  0  0
    2.9611    0.4181   -1.8171 C   0  0  0  0  0  0  0  0  0  0  0  0
    1.9101   -0.6377   -2.1836 C   0  0  0  0  0  0  0  0  0  0  0  0
    3.1203    1.4043   -2.9753 C   0  0  0  0  0  0  0  0  0  0  0  0
    4.3379   -0.1603   -1.3838 C   0  0  0  0  0  0  0  0  0  0  0  0
    4.8329    0.1281   -0.2934 O   0  0  0  0  0  0  0  0  0  0  0  0
    5.0276   -0.9875   -2.2088 O   0  0  0  0  0  0  0  0  0  0  0  0
    4.7970   -1.2287   -3.6108 C   0  0  1  0  0  0  0  0  0  0  0  0
    5.3936   -0.1605   -4.5170 C   0  0  0  0  0  0  0  0  0  0  0  0
    6.9080   -0.1324   -4.4939 C   0  0  2  0  0  0  0  0  0  0  0  0
    7.5249   -1.4924   -4.3969 C   0  0  0  0  0  0  0  0  0  0  0  0
    6.8302   -2.6255   -4.2213 C   0  0  0  0  0  0  0  0  0  0  0  0
    5.3213   -2.6074   -4.0945 C   0  0  1  0  0  0  0  0  0  0  0  0
    4.8417   -3.7930   -3.2568 C   0  0  2  0  0  0  0  0  0  0  0  0
    5.4149   -5.1323   -3.7358 C   0  0  2  0  0  0  0  0  0  0  0  0
    6.8934   -5.0480   -3.8878 C   0  0  0  0  0  0  0  0  0  0  0  0
    7.5259   -3.8916   -4.1046 C   0  0  0  0  0  0  0  0  0  0  0  0
    4.7861   -5.6034   -5.0395 C   0  0  0  0  0  0  0  0  0  0  0  0
    3.3150   -3.8134   -3.1677 C   0  0  0  0  0  0  0  0  0  0  0  0
    2.6313   -5.1412   -2.7950 C   0  0  0  0  0  0  0  0  0  0  0  0
    3.2427   -5.9474   -1.6379 C   0  0  2  0  0  0  0  0  0  0  0  0
    2.2246   -6.2924   -0.5921 C   0  0  0  0  0  0  0  0  0  0  0  0
    1.7649   -4.9992    0.0881 C   0  0  2  0  0  0  0  0  0  0  0  0
    2.6237   -3.7651   -0.1353 C   0  0  0  0  0  0  0  0  0  0  0  0
    4.0811   -4.1198   -0.3028 C   0  0  0  0  0  0  0  0  0  0  0  0
    4.9889   -3.3985    0.0934 O   0  0  0  0  0  0  0  0  0  0  0  0
    4.3238   -5.2738   -0.9802 O   0  0  0  0  0  0  0  0  0  0  0  0
    1.6004   -5.1712    1.4954 O   0  0  0  0  0  0  0  0  0  0  0  0
    2.7691   -5.4048    2.1720 C   0  0  0  0  0  0  0  0  0  0  0  0
    3.8566   -5.6118    1.7027 O   0  0  0  0  0  0  0  0  0  0  0  0
    2.5318   -5.4049    3.6271 C   0  0  0  0  0  0  0  0  0  0  0  0
    7.3784    0.7613   -3.3448 C   0  0  0  0  0  0  0  0  0  0  0  0
    1.2730   -0.3464    0.3606 H   0  0  0  0  0  0  0  0  0  0  0  0
    1.5534    1.0777    1.3476 H   0  0  0  0  0  0  0  0  0  0  0  0
    2.8783   -0.0449    1.0223 H   0  0  0  0  0  0  0  0  0  0  0  0
    1.4347    1.7386   -1.0090 H   0  0  0  0  0  0  0  0  0  0  0  0
    3.0356    2.0694   -0.3692 H   0  0  0  0  0  0  0  0  0  0  0  0
    0.9667   -0.1643   -2.4673 H   0  0  0  0  0  0  0  0  0  0  0  0
    2.1479   -1.2759   -3.0238 H   0  0  0  0  0  0  0  0  0  0  0  0
    1.7267   -1.3153   -1.3547 H   0  0  0  0  0  0  0  0  0  0  0  0
    3.9437    2.1075   -2.7961 H   0  0  0  0  0  0  0  0  0  0  0  0
    3.2744    0.8719   -3.9074 H   0  0  0  0  0  0  0  0  0  0  0  0
    2.2112    1.9747   -3.1762 H   0  0  0  0  0  0  0  0  0  0  0  0
    3.7393   -1.2337   -3.7947 H   0  0  0  0  0  0  0  0  0  0  0  0
    5.0891    0.8515   -4.2703 H   0  0  0  0  0  0  0  0  0  0  0  0
    5.0094   -0.3533   -5.5270 H   0  0  0  0  0  0  0  0  0  0  0  0
    7.2196    0.3222   -5.4402 H   0  0  0  0  0  0  0  0  0  0  0  0
    8.6064   -1.5315   -4.4624 H   0  0  0  0  0  0  0  0  0  0  0  0
    4.8970   -2.7472   -5.0969 H   0  0  0  0  0  0  0  0  0  0  0  0
    5.2731   -3.5872   -2.2717 H   0  0  0  0  0  0  0  0  0  0  0  0
    5.2734   -5.8975   -2.9717 H   0  0  0  0  0  0  0  0  0  0  0  0
    7.4462   -5.9754   -3.7755 H   0  0  0  0  0  0  0  0  0  0  0  0
    8.6060   -3.8996   -4.1865 H   0  0  0  0  0  0  0  0  0  0  0  0
    5.0884   -6.6320   -5.2390 H   0  0  0  0  0  0  0  0  0  0  0  0
    3.6989   -5.5984   -5.0636 H   0  0  0  0  0  0  0  0  0  0  0  0
    5.0701   -4.9448   -5.8589 H   0  0  0  0  0  0  0  0  0  0  0  0
    3.1204   -3.0449   -2.4346 H   0  0  0  0  0  0  0  0  0  0  0  0
    2.8285   -3.4041   -4.0579 H   0  0  0  0  0  0  0  0  0  0  0  0
    1.5579   -4.9697   -2.6507 H   0  0  0  0  0  0  0  0  0  0  0  0
    2.6002   -5.8280   -3.6399 H   0  0  0  0  0  0  0  0  0  0  0  0
    3.6455   -6.8883   -2.0426 H   0  0  0  0  0  0  0  0  0  0  0  0
    2.6794   -6.9840    0.1236 H   0  0  0  0  0  0  0  0  0  0  0  0
    1.3876   -6.8356   -1.0443 H   0  0  0  0  0  0  0  0  0  0  0  0
    0.7771   -4.7632   -0.3356 H   0  0  0  0  0  0  0  0  0  0  0  0
    2.5545   -3.0292    0.6689 H   0  0  0  0  0  0  0  0  0  0  0  0
    2.1968   -3.2527   -0.9849 H   0  0  0  0  0  0  0  0  0  0  0  0
    2.1451   -4.4357    3.9399 H   0  0  0  0  0  0  0  0  0  0  0  0
    1.8586   -6.2301    3.8476 H   0  0  0  0  0  0  0  0  0  0  0  0
    3.5040   -5.5787    4.0940 H   0  0  0  0  0  0  0  0  0  0  0  0
    8.4646    0.8626   -3.3580 H   0  0  0  0  0  0  0  0  0  0  0  0
    6.9408    1.7634   -3.4296 H   0  0  0  0  0  0  0  0  0  0  0  0
    7.0914    0.3658   -2.3651 H   0  0  0  0  0  0  0  0  0  0  0  0
  1  2  1  0  0  0  0
  1 34  1  0  0  0  0
  1 35  1  0  0  0  0
  1 36  1  0  0  0  0
  2  3  1  0  0  0  0
  2 37  1  0  0  0  0
  2 38  1  0  0  0  0
  3  4  1  0  0  0  0
  3  5  1  0  0  0  0
  3  6  1  0  0  0  0
  4 39  1  0  0  0  0
  4 40  1  0  0  0  0
  4 41  1  0  0  0  0
  5 42  1  0  0  0  0
  5 43  1  0  0  0  0
  5 44  1  0  0  0  0
  6  7  2  0  0  0  0
  6  8  1  0  0  0  0
  9 10  1  0  0  0  0
  9 14  1  0  0  0  0
  9 45  1  6  0  0  0
  9  8  1  0  0  0  0
 10 11  1  0  0  0  0
 10 46  1  0  0  0  0
 10 47  1  0  0  0  0
 11 12  1  0  0  0  0
 11 33  1  0  0  0  0
 11 48  1  6  0  0  0
 12 13  2  0  0  0  0
 12 49  1  0  0  0  0
 13 18  1  0  0  0  0
 14 13  1  0  0  0  0
 14 15  1  0  0  0  0
 14 50  1  6  0  0  0
 15 16  1  0  0  0  0
 15 51  1  1  0  0  0
 15 20  1  0  0  0  0
 16 17  1  0  0  0  0
 16 19  1  0  0  0  0
 16 52  1  1  0  0  0
 17 18  2  0  0  0  0
 17 53  1  0  0  0  0
 18 54  1  0  0  0  0
 19 55  1  0  0  0  0
 19 56  1  0  0  0  0
 19 57  1  0  0  0  0
 20 21  1  0  0  0  0
 20 58  1  0  0  0  0
 20 59  1  0  0  0  0
 21 60  1  0  0  0  0
 21 61  1  0  0  0  0
 22 21  1  0  0  0  0
 22 23  1  0  0  0  0
 22 28  1  0  0  0  0
 22 62  1  6  0  0  0
 23 24  1  0  0  0  0
 23 63  1  0  0  0  0
 23 64  1  0  0  0  0
 24 25  1  0  0  0  0
 24 29  1  0  0  0  0
 24 65  1  6  0  0  0
 25 26  1  0  0  0  0
 25 66  1  0  0  0  0
 25 67  1  0  0  0  0
 26 27  2  0  0  0  0
 26 28  1  0  0  0  0
 29 30  1  0  0  0  0
 30 31  2  0  0  0  0
 30 32  1  0  0  0  0
 32 68  1  0  0  0  0
 32 69  1  0  0  0  0
 32 70  1  0  0  0  0
 33 71  1  0  0  0  0
 33 72  1  0  0  0  0
 33 73  1  0  0  0  0
M  END
>  <DRUGBANK_ID>
DB14648

>  <SECONDARY_ACCESSION_NUMBERS>
DBSALT002310

>  <COMMON_NAME>
Acetyl simvastatin

>  <CAS_NUMBER>
145576-25-6

>  <UNII>
171OXS3HEK

>  <SYNONYMS>
4'-acetylsimvastatin; Simvastatin acetate; Simvastatin acetate ester

$$$$
