
 OpenBabel10282417193D

 68 70  0  0  0  0  0  0  0  0999 V2000
    1.1072    0.0453    0.1174 C   0  0  0  0  0  0  0  0  0  0  0  0
    0.6149    1.4303    0.4521 C   0  0  0  0  0  0  0  0  0  0  0  0
   -0.2348    2.0412   -0.3800 C   0  0  0  0  0  0  0  0  0  0  0  0
   -0.7468    3.4496   -0.3590 C   0  0  0  0  0  0  0  0  0  0  0  0
   -0.1678    4.2924   -1.5062 C   0  0  0  0  0  0  0  0  0  0  0  0
   -0.6071    3.8386   -2.8926 C   0  0  0  0  0  0  0  0  0  0  0  0
   -1.3155    4.6799   -3.6507 C   0  0  0  0  0  0  0  0  0  0  0  0
   -2.0020    4.3930   -4.9529 C   0  0  0  0  0  0  0  0  0  0  0  0
   -3.5312    4.4089   -4.8393 C   0  0  0  0  0  0  0  0  0  0  0  0
   -4.1028    5.7833   -4.5634 C   0  0  0  0  0  0  0  0  0  0  0  0
   -4.8410    6.3996   -5.5000 C   0  0  0  0  0  0  0  0  0  0  0  0
   -5.3561    7.7949   -5.3844 C   0  0  0  0  0  0  0  0  0  0  0  0
   -4.7434    8.6176   -6.4010 N   0  0  0  0  0  0  0  0  0  0  0  0
   -5.4949    8.9077   -7.5412 C   0  0  0  0  0  0  0  0  0  0  0  0
   -5.5294    7.9497   -8.5513 C   0  0  0  0  0  0  0  0  0  0  0  0
   -6.1565    8.2505   -9.7428 C   0  0  0  0  0  0  0  0  0  0  0  0
   -6.7556    9.4942   -9.9319 C   0  0  0  0  0  0  0  0  0  0  0  0
   -6.7502   10.4288   -8.8821 C   0  0  0  0  0  0  0  0  0  0  0  0
   -6.1381   10.1381   -7.6559 C   0  0  0  0  0  0  0  0  0  0  0  0
   -6.0413   11.0652   -6.5981 N   0  0  0  0  0  0  0  0  0  0  0  0
   -4.7998   11.5919   -6.1607 C   0  0  0  0  0  0  0  0  0  0  0  0
   -3.6341   10.8159   -6.0062 C   0  0  0  0  0  0  0  0  0  0  0  0
   -2.4299   11.4405   -5.6190 C   0  0  0  0  0  0  0  0  0  0  0  0
   -2.3583   12.8189   -5.4240 C   0  0  0  0  0  0  0  0  0  0  0  0
   -3.4937   13.6006   -5.6075 C   0  0  0  0  0  0  0  0  0  0  0  0
   -4.6978   12.9873   -5.9609 C   0  0  0  0  0  0  0  0  0  0  0  0
   -5.8235   13.7528   -6.1523 O   0  0  0  0  0  0  0  0  0  0  0  0
   -3.5905    9.3258   -6.1258 C   0  0  0  0  0  0  0  0  0  0  0  0
   -2.5159    8.7362   -5.9269 O   0  0  0  0  0  0  0  0  0  0  0  0
   -7.3223   11.6629   -9.0507 O   0  0  0  0  0  0  0  0  0  0  0  0
   -6.1264    7.2858  -10.7044 O   0  0  0  0  0  0  0  0  0  0  0  0
   -3.7868    6.4392   -3.2455 C   0  0  0  0  0  0  0  0  0  0  0  0
   -0.2285    2.4899   -3.4131 C   0  0  0  0  0  0  0  0  0  0  0  0
    1.0844    2.0551    1.7211 C   0  0  0  0  0  0  0  0  0  0  0  0
    0.7565   -0.2959   -0.8670 H   0  0  0  0  0  0  0  0  0  0  0  0
    0.7559   -0.6764    0.8576 H   0  0  0  0  0  0  0  0  0  0  0  0
    2.2012    0.0260    0.0779 H   0  0  0  0  0  0  0  0  0  0  0  0
   -0.6039    1.4195   -1.1793 H   0  0  0  0  0  0  0  0  0  0  0  0
   -1.8415    3.4300   -0.4091 H   0  0  0  0  0  0  0  0  0  0  0  0
   -0.5055    3.9609    0.5762 H   0  0  0  0  0  0  0  0  0  0  0  0
   -0.5040    5.3258   -1.3156 H   0  0  0  0  0  0  0  0  0  0  0  0
    0.9264    4.3372   -1.4549 H   0  0  0  0  0  0  0  0  0  0  0  0
   -1.3905    5.6835   -3.2647 H   0  0  0  0  0  0  0  0  0  0  0  0
   -1.6492    5.1080   -5.7015 H   0  0  0  0  0  0  0  0  0  0  0  0
   -1.7461    3.4065   -5.3421 H   0  0  0  0  0  0  0  0  0  0  0  0
   -3.9180    4.0174   -5.7929 H   0  0  0  0  0  0  0  0  0  0  0  0
   -3.8786    3.6987   -4.0773 H   0  0  0  0  0  0  0  0  0  0  0  0
   -5.0576    5.8818   -6.4313 H   0  0  0  0  0  0  0  0  0  0  0  0
   -6.4489    7.7921   -5.4556 H   0  0  0  0  0  0  0  0  0  0  0  0
   -5.1223    8.2717   -4.4332 H   0  0  0  0  0  0  0  0  0  0  0  0
   -5.0171    7.0007   -8.4280 H   0  0  0  0  0  0  0  0  0  0  0  0
   -7.2087    9.7340  -10.8863 H   0  0  0  0  0  0  0  0  0  0  0  0
   -6.7999   11.7413   -6.5540 H   0  0  0  0  0  0  0  0  0  0  0  0
   -1.5341   10.8402   -5.4579 H   0  0  0  0  0  0  0  0  0  0  0  0
   -1.4146   13.2723   -5.1298 H   0  0  0  0  0  0  0  0  0  0  0  0
   -3.4194   14.6757   -5.4761 H   0  0  0  0  0  0  0  0  0  0  0  0
   -5.5813   14.6906   -6.0729 H   0  0  0  0  0  0  0  0  0  0  0  0
   -7.6295   11.7496   -9.9675 H   0  0  0  0  0  0  0  0  0  0  0  0
   -6.5786    7.6010  -11.5011 H   0  0  0  0  0  0  0  0  0  0  0  0
   -3.9492    5.7445   -2.4191 H   0  0  0  0  0  0  0  0  0  0  0  0
   -2.7739    6.8334   -3.2466 H   0  0  0  0  0  0  0  0  0  0  0  0
   -4.3748    7.3229   -3.0117 H   0  0  0  0  0  0  0  0  0  0  0  0
    0.8445    2.3340   -3.2904 H   0  0  0  0  0  0  0  0  0  0  0  0
   -0.8187    1.7054   -2.9511 H   0  0  0  0  0  0  0  0  0  0  0  0
   -0.4327    2.3497   -4.4723 H   0  0  0  0  0  0  0  0  0  0  0  0
    0.7189    1.4596    2.5615 H   0  0  0  0  0  0  0  0  0  0  0  0
    2.1722    2.1249    1.7444 H   0  0  0  0  0  0  0  0  0  0  0  0
    0.6945    3.0645    1.8680 H   0  0  0  0  0  0  0  0  0  0  0  0
  1  2  1  0  0  0  0
  1 35  1  0  0  0  0
  1 36  1  0  0  0  0
  1 37  1  0  0  0  0
  2  3  2  0  0  0  0
  2 34  1  0  0  0  0
  3  4  1  0  0  0  0
  3 38  1  0  0  0  0
  4  5  1  0  0  0  0
  4 39  1  0  0  0  0
  4 40  1  0  0  0  0
  5  6  1  0  0  0  0
  5 41  1  0  0  0  0
  5 42  1  0  0  0  0
  6  7  2  0  0  0  0
  6 33  1  0  0  0  0
  7  8  1  0  0  0  0
  7 43  1  0  0  0  0
  8  9  1  0  0  0  0
  8 44  1  0  0  0  0
  8 45  1  0  0  0  0
  9 10  1  0  0  0  0
  9 46  1  0  0  0  0
  9 47  1  0  0  0  0
 10 11  2  0  0  0  0
 10 32  1  0  0  0  0
 11 12  1  0  0  0  0
 11 48  1  0  0  0  0
 12 13  1  0  0  0  0
 12 49  1  0  0  0  0
 12 50  1  0  0  0  0
 13 14  1  0  0  0  0
 13 28  1  0  0  0  0
 14 15  2  0  0  0  0
 14 19  1  0  0  0  0
 15 16  1  0  0  0  0
 15 51  1  0  0  0  0
 16 17  2  0  0  0  0
 16 31  1  0  0  0  0
 17 18  1  0  0  0  0
 17 52  1  0  0  0  0
 18 19  2  0  0  0  0
 18 30  1  0  0  0  0
 19 20  1  0  0  0  0
 20 21  1  0  0  0  0
 20 53  1  0  0  0  0
 21 22  2  0  0  0  0
 21 26  1  0  0  0  0
 22 23  1  0  0  0  0
 22 28  1  0  0  0  0
 23 24  2  0  0  0  0
 23 54  1  0  0  0  0
 24 25  1  0  0  0  0
 24 55  1  0  0  0  0
 25 26  2  0  0  0  0
 25 56  1  0  0  0  0
 26 27  1  0  0  0  0
 27 57  1  0  0  0  0
 28 29  2  0  0  0  0
 30 58  1  0  0  0  0
 31 59  1  0  0  0  0
 32 60  1  0  0  0  0
 32 61  1  0  0  0  0
 32 62  1  0  0  0  0
 33 63  1  0  0  0  0
 33 64  1  0  0  0  0
 33 65  1  0  0  0  0
 34 66  1  0  0  0  0
 34 67  1  0  0  0  0
 34 68  1  0  0  0  0
M  END
>  <DRUGBANK_ID>
DB12420

>  <SECONDARY_ACCESSION_NUMBERS>
DB05923

>  <COMMON_NAME>
Diazepinomicin

>  <CAS_NUMBER>
733035-26-2

>  <UNII>
YPH994Y0RF

>  <SYNONYMS>
4,6,8-trihydroxy-10-(3,7,11-trimethyldodeca-2,6,10-trienyl)-5,10-dihydrodibenzo(b,e)(1,4)diazepin-11-one; DIAZEPINOMICIN

$$$$
