
 OpenBabel10282417193D

 77 80  0  0  1  0  0  0  0  0999 V2000
    1.0819    0.0852    0.0277 C   0  0  0  0  0  0  0  0  0  0  0  0
    0.5621    0.4518   -1.3285 C   0  0  0  0  0  0  0  0  0  0  0  0
   -0.2477   -0.3883   -1.9853 C   0  0  0  0  0  0  0  0  0  0  0  0
   -0.7836   -0.1542   -3.3543 C   0  0  0  0  0  0  0  0  0  0  0  0
   -0.1681   -1.0878   -4.3175 C   0  0  2  0  0  0  0  0  0  0  0  0
   -1.0264   -2.0753   -4.9957 C   0  0  1  0  0  0  0  0  0  0  0  0
   -0.1699   -2.4837   -3.9410 O   0  0  0  0  0  0  0  0  0  0  0  0
   -2.5005   -2.1181   -4.7426 C   0  0  0  0  0  0  0  0  0  0  0  0
   -0.6489   -2.4881   -6.3444 C   0  0  1  0  0  0  0  0  0  0  0  0
   -0.1835   -1.3729   -7.4502 C   0  0  1  0  0  0  0  0  0  0  0  0
   -1.1125   -1.7971   -8.5664 C   0  0  1  0  0  0  0  0  0  0  0  0
   -0.7042   -3.2571   -9.0134 C   0  0  0  0  0  0  0  0  0  0  0  0
    0.1290   -4.1032   -8.0240 C   0  0  0  0  0  0  0  0  0  0  0  0
   -0.5662   -3.9641   -6.7380 C   0  0  2  0  0  0  0  0  0  0  0  0
   -1.7608   -4.9944   -6.5175 C   0  0  0  0  0  0  0  0  0  0  0  0
   -0.5701   -4.9600   -5.7313 O   0  0  0  0  0  0  0  0  0  0  0  0
   -2.5107   -1.4715   -7.9671 O   0  0  0  0  0  0  0  0  0  0  0  0
   -3.6013   -2.2462   -7.7852 C   0  0  0  0  0  0  0  0  0  0  0  0
   -4.3246   -2.2772   -6.7733 O   0  0  0  0  0  0  0  0  0  0  0  0
   -4.0613   -2.9418   -8.9423 C   0  0  0  0  0  0  0  0  0  0  0  0
   -3.3708   -2.7080  -10.0530 C   0  0  0  0  0  0  0  0  0  0  0  0
   -3.6961   -3.0204  -11.3759 C   0  0  0  0  0  0  0  0  0  0  0  0
   -4.7922   -2.3214  -11.8430 C   0  0  0  0  0  0  0  0  0  0  0  0
   -5.1369   -2.4821  -13.1587 C   0  0  0  0  0  0  0  0  0  0  0  0
   -4.4184   -3.4043  -13.9376 C   0  0  0  0  0  0  0  0  0  0  0  0
   -3.2094   -3.9793  -13.4719 C   0  0  0  0  0  0  0  0  0  0  0  0
   -2.8528   -3.8075  -12.1494 C   0  0  0  0  0  0  0  0  0  0  0  0
   -5.0219   -4.1405  -14.9435 O   0  0  0  0  0  0  0  0  0  0  0  0
   -6.4620   -4.0747  -15.0721 C   0  0  0  0  0  0  0  0  0  0  0  0
   -7.4156   -4.7781  -14.0125 C   0  0  0  0  0  0  0  0  0  0  0  0
   -7.2273   -4.3885  -12.6077 N   0  0  0  0  0  0  0  0  0  0  0  0
   -8.2953   -4.6833  -11.6695 C   0  0  0  0  0  0  0  0  0  0  0  0
   -6.0579   -5.0672  -12.0599 C   0  0  0  0  0  0  0  0  0  0  0  0
   -0.3517    0.0615   -7.2008 O   0  0  0  0  0  0  0  0  0  0  0  0
   -0.7602    0.9196   -8.3108 C   0  0  0  0  0  0  0  0  0  0  0  0
    1.0030    1.7724   -1.8896 C   0  0  0  0  0  0  0  0  0  0  0  0
    0.7402   -0.9064    0.3483 H   0  0  0  0  0  0  0  0  0  0  0  0
    0.7301    0.8117    0.7645 H   0  0  0  0  0  0  0  0  0  0  0  0
    2.1755    0.0719    0.0266 H   0  0  0  0  0  0  0  0  0  0  0  0
   -0.5047   -1.3577   -1.5524 H   0  0  0  0  0  0  0  0  0  0  0  0
   -1.8745   -0.2136   -3.3149 H   0  0  0  0  0  0  0  0  0  0  0  0
   -0.6039    0.8436   -3.7490 H   0  0  0  0  0  0  0  0  0  0  0  0
    0.6900   -0.6802   -4.8342 H   0  0  0  0  0  0  0  0  0  0  0  0
   -2.9208   -1.3122   -5.3542 H   0  0  0  0  0  0  0  0  0  0  0  0
   -2.8836   -3.0770   -5.0884 H   0  0  0  0  0  0  0  0  0  0  0  0
   -2.8924   -2.0100   -3.7398 H   0  0  0  0  0  0  0  0  0  0  0  0
   -1.6631   -2.5636   -6.6348 H   0  0  0  0  0  0  0  0  0  0  0  0
    0.8747   -1.5125   -7.7147 H   0  0  0  0  0  0  0  0  0  0  0  0
   -1.0539   -1.1295   -9.4291 H   0  0  0  0  0  0  0  0  0  0  0  0
   -0.1213   -3.1508   -9.9331 H   0  0  0  0  0  0  0  0  0  0  0  0
   -1.5700   -3.8766   -9.2213 H   0  0  0  0  0  0  0  0  0  0  0  0
    1.1450   -3.7117   -7.9253 H   0  0  0  0  0  0  0  0  0  0  0  0
    0.2007   -5.1366   -8.3750 H   0  0  0  0  0  0  0  0  0  0  0  0
   -2.7225   -4.7107   -6.0955 H   0  0  0  0  0  0  0  0  0  0  0  0
   -1.9038   -5.9051   -7.0973 H   0  0  0  0  0  0  0  0  0  0  0  0
   -5.0002   -3.4619   -8.8546 H   0  0  0  0  0  0  0  0  0  0  0  0
   -2.5066   -2.0929  -10.1409 H   0  0  0  0  0  0  0  0  0  0  0  0
   -5.4634   -1.8378  -11.1306 H   0  0  0  0  0  0  0  0  0  0  0  0
   -6.1334   -2.1399  -13.4055 H   0  0  0  0  0  0  0  0  0  0  0  0
   -2.6735   -4.7212  -14.0552 H   0  0  0  0  0  0  0  0  0  0  0  0
   -2.0144   -4.3411  -11.7009 H   0  0  0  0  0  0  0  0  0  0  0  0
   -6.7560   -3.0342  -15.2417 H   0  0  0  0  0  0  0  0  0  0  0  0
   -6.6606   -4.5900  -16.0197 H   0  0  0  0  0  0  0  0  0  0  0  0
   -8.4404   -4.5243  -14.3254 H   0  0  0  0  0  0  0  0  0  0  0  0
   -7.3315   -5.8676  -14.0959 H   0  0  0  0  0  0  0  0  0  0  0  0
   -8.3218   -5.7542  -11.4455 H   0  0  0  0  0  0  0  0  0  0  0  0
   -8.0695   -4.1534  -10.7312 H   0  0  0  0  0  0  0  0  0  0  0  0
   -9.2796   -4.3477  -11.9952 H   0  0  0  0  0  0  0  0  0  0  0  0
   -6.1503   -6.1333  -11.8811 H   0  0  0  0  0  0  0  0  0  0  0  0
   -5.2552   -5.0520  -12.7648 H   0  0  0  0  0  0  0  0  0  0  0  0
   -5.7611   -4.5670  -11.1366 H   0  0  0  0  0  0  0  0  0  0  0  0
   -0.0842    0.9092   -9.1827 H   0  0  0  0  0  0  0  0  0  0  0  0
   -1.7724    0.6725   -8.6539 H   0  0  0  0  0  0  0  0  0  0  0  0
   -0.8381    1.9594   -7.9727 H   0  0  0  0  0  0  0  0  0  0  0  0
    0.6341    2.5823   -1.2577 H   0  0  0  0  0  0  0  0  0  0  0  0
    2.0919    1.8112   -1.9620 H   0  0  0  0  0  0  0  0  0  0  0  0
    0.6352    1.9812   -2.8959 H   0  0  0  0  0  0  0  0  0  0  0  0
  1  2  1  0  0  0  0
  1 37  1  0  0  0  0
  1 38  1  0  0  0  0
  1 39  1  0  0  0  0
  2  3  2  0  0  0  0
  2 36  1  0  0  0  0
  3  4  1  0  0  0  0
  3 40  1  0  0  0  0
  4 41  1  0  0  0  0
  4 42  1  0  0  0  0
  5  4  1  0  0  0  0
  5  6  1  0  0  0  0
  5  7  1  0  0  0  0
  5 43  1  6  0  0  0
  6  7  1  0  0  0  0
  6  8  1  1  0  0  0
  6  9  1  0  0  0  0
  8 44  1  0  0  0  0
  8 45  1  0  0  0  0
  8 46  1  0  0  0  0
  9 10  1  0  0  0  0
  9 14  1  0  0  0  0
  9 47  1  6  0  0  0
 10 11  1  0  0  0  0
 10 34  1  0  0  0  0
 10 48  1  6  0  0  0
 11 12  1  0  0  0  0
 11 49  1  6  0  0  0
 11 17  1  0  0  0  0
 12 13  1  0  0  0  0
 12 50  1  0  0  0  0
 12 51  1  0  0  0  0
 13 14  1  0  0  0  0
 13 52  1  0  0  0  0
 13 53  1  0  0  0  0
 14 15  1  0  0  0  0
 14 16  1  1  0  0  0
 15 16  1  0  0  0  0
 15 54  1  0  0  0  0
 15 55  1  0  0  0  0
 17 18  1  0  0  0  0
 18 19  2  0  0  0  0
 18 20  1  0  0  0  0
 20 21  2  0  0  0  0
 20 56  1  0  0  0  0
 21 22  1  0  0  0  0
 21 57  1  0  0  0  0
 22 23  2  0  0  0  0
 22 27  1  0  0  0  0
 23 24  1  0  0  0  0
 23 58  1  0  0  0  0
 24 25  2  0  0  0  0
 24 59  1  0  0  0  0
 25 26  1  0  0  0  0
 25 28  1  0  0  0  0
 26 27  2  0  0  0  0
 26 60  1  0  0  0  0
 27 61  1  0  0  0  0
 28 29  1  0  0  0  0
 29 30  1  0  0  0  0
 29 62  1  0  0  0  0
 29 63  1  0  0  0  0
 30 31  1  0  0  0  0
 30 64  1  0  0  0  0
 30 65  1  0  0  0  0
 31 32  1  0  0  0  0
 31 33  1  0  0  0  0
 32 66  1  0  0  0  0
 32 67  1  0  0  0  0
 32 68  1  0  0  0  0
 33 69  1  0  0  0  0
 33 70  1  0  0  0  0
 33 71  1  0  0  0  0
 34 35  1  0  0  0  0
 35 72  1  0  0  0  0
 35 73  1  0  0  0  0
 35 74  1  0  0  0  0
 36 75  1  0  0  0  0
 36 76  1  0  0  0  0
 36 77  1  0  0  0  0
M  END
>  <DRUGBANK_ID>
DB12671

>  <COMMON_NAME>
Beloranib

>  <CAS_NUMBER>
251111-30-5

>  <UNII>
FI471K8BU6

>  <SYNONYMS>
Beloranib

$$$$
