
 OpenBabel10282417103D

 40 42  0  0  1  0  0  0  0  0999 V2000
   -0.8982   -8.4461    3.6019 N   0  0  0  0  0  0  0  0  0  0  0  0
   -0.8556   -7.5597    4.6140 C   0  0  0  0  0  0  0  0  0  0  0  0
   -0.5784   -6.3761    3.6205 C   0  0  2  0  0  0  0  0  0  0  0  0
   -0.7305   -9.8046    3.4310 C   0  0  0  0  0  0  0  0  0  0  0  0
   -0.7674   -7.4664    2.5153 C   0  0  1  0  0  0  0  0  0  0  0  0
    0.7712   -5.7019    3.6187 N   0  0  0  0  0  0  0  0  0  0  0  0
    0.9595   -4.6464    2.7397 C   0  0  0  0  0  0  0  0  0  0  0  0
   -1.0878  -10.8244    4.4946 C   0  0  0  0  0  0  0  0  0  0  0  0
   -0.2055  -10.2201    2.2527 C   0  0  0  0  0  0  0  0  0  0  0  0
    2.2430   -3.7110    2.7646 C   0  0  2  0  0  0  0  0  0  0  0  0
    0.3777   -7.8269    1.5997 C   0  0  0  0  0  0  0  0  0  0  0  0
   -0.9403   -7.7449    5.8130 O   0  0  0  0  0  0  0  0  0  0  0  0
    2.1677   -2.9165    1.5108 N   0  0  0  0  0  0  0  0  0  0  0  0
    0.0209   -4.3989    1.9670 O   0  0  0  0  0  0  0  0  0  0  0  0
    0.2299   -9.2742    1.1604 C   0  0  0  0  0  0  0  0  0  0  0  0
   -1.6431  -10.3535    5.6289 O   0  0  0  0  0  0  0  0  0  0  0  0
   -0.9557  -12.0329    4.3600 O   0  0  0  0  0  0  0  0  0  0  0  0
    3.6021   -4.3875    2.9018 C   0  0  0  0  0  0  0  0  0  0  0  0
    0.1328  -11.8635    1.7966 Cl  0  0  0  0  0  0  0  0  0  0  0  0
    3.8450   -5.3136    3.9222 C   0  0  0  0  0  0  0  0  0  0  0  0
    4.6864   -4.0760    2.0537 C   0  0  0  0  0  0  0  0  0  0  0  0
    5.8748   -4.8006    2.0971 C   0  0  0  0  0  0  0  0  0  0  0  0
    5.0369   -6.0332    3.9810 C   0  0  0  0  0  0  0  0  0  0  0  0
    6.0509   -5.7768    3.0666 C   0  0  0  0  0  0  0  0  0  0  0  0
   -1.3646   -5.6141    3.6550 H   0  0  0  0  0  0  0  0  0  0  0  0
   -1.7114   -7.3347    1.9663 H   0  0  0  0  0  0  0  0  0  0  0  0
    1.5451   -6.1770    4.0599 H   0  0  0  0  0  0  0  0  0  0  0  0
    2.1157   -3.0097    3.5982 H   0  0  0  0  0  0  0  0  0  0  0  0
    1.3459   -7.7027    2.0972 H   0  0  0  0  0  0  0  0  0  0  0  0
    0.3815   -7.1760    0.7181 H   0  0  0  0  0  0  0  0  0  0  0  0
    2.2043   -3.5659    0.7238 H   0  0  0  0  0  0  0  0  0  0  0  0
    2.9432   -2.2705    1.4283 H   0  0  0  0  0  0  0  0  0  0  0  0
    1.2034   -9.5848    0.7632 H   0  0  0  0  0  0  0  0  0  0  0  0
   -0.5056   -9.3376    0.3514 H   0  0  0  0  0  0  0  0  0  0  0  0
   -1.6440   -9.3864    5.7703 H   0  0  0  0  0  0  0  0  0  0  0  0
    3.1242   -5.4825    4.7125 H   0  0  0  0  0  0  0  0  0  0  0  0
    4.6462   -3.2628    1.3330 H   0  0  0  0  0  0  0  0  0  0  0  0
    6.6507   -4.6053    1.3614 H   0  0  0  0  0  0  0  0  0  0  0  0
    5.1672   -6.7959    4.7437 H   0  0  0  0  0  0  0  0  0  0  0  0
    6.9906   -6.3156    3.1272 H   0  0  0  0  0  0  0  0  0  0  0  0
  2  1  1  0  0  0  0
  3  5  1  0  0  0  0
  3  2  1  0  0  0  0
  3 25  1  6  0  0  0
  3  6  1  0  0  0  0
  4  1  1  0  0  0  0
  5  1  1  0  0  0  0
  5 11  1  0  0  0  0
  5 26  1  6  0  0  0
  6 27  1  0  0  0  0
  7  6  1  0  0  0  0
  8  4  1  0  0  0  0
  9  4  2  0  0  0  0
 10 28  1  1  0  0  0
 10 13  1  0  0  0  0
 10  7  1  0  0  0  0
 11 29  1  0  0  0  0
 11 30  1  0  0  0  0
 12  2  2  0  0  0  0
 13 31  1  0  0  0  0
 13 32  1  0  0  0  0
 14  7  2  0  0  0  0
 15 11  1  0  0  0  0
 15  9  1  0  0  0  0
 15 33  1  0  0  0  0
 15 34  1  0  0  0  0
 16  8  1  0  0  0  0
 16 35  1  0  0  0  0
 17  8  2  0  0  0  0
 18 10  1  0  0  0  0
 19  9  1  0  0  0  0
 20 18  1  0  0  0  0
 20 36  1  0  0  0  0
 21 18  2  0  0  0  0
 21 37  1  0  0  0  0
 22 21  1  0  0  0  0
 22 38  1  0  0  0  0
 23 20  2  0  0  0  0
 23 24  1  0  0  0  0
 23 39  1  0  0  0  0
 24 22  2  0  0  0  0
 24 40  1  0  0  0  0
M  END
>  <DRUGBANK_ID>
DB00447

>  <SECONDARY_ACCESSION_NUMBERS>
APRD01077

>  <COMMON_NAME>
Loracarbef

>  <CAS_NUMBER>
76470-66-1

>  <UNII>
W72I5ZT78Z

>  <SYNONYMS>
Anhydrous loracarbef; Loracarbef; Loracarbef anhydrous; Loracarbef, anhydrous; Loracarbefum

$$$$
