966
 OpenBabel10282417113D

 69 74  0  0  0  0  0  0  0  0999 V2000
    0.8155   -0.0696   -0.1956 O   0  0  0  0  0  0  0  0  0  0  0  0
    1.0295    1.0795   -2.1219 O   0  0  0  0  0  0  0  0  0  0  0  0
    0.0914    2.1712    5.8672 N   0  0  0  0  0  0  0  0  0  0  0  0
   -1.3513    1.4588    7.4441 N   0  0  0  0  0  0  0  0  0  0  0  0
    0.1285    7.6479    6.7267 N   0  0  0  0  0  0  0  0  0  0  0  0
    0.8301    7.3225    8.8107 N   0  0  0  0  0  0  0  0  0  0  0  0
   -0.1520    3.2343    6.7207 C   0  0  0  0  0  0  0  0  0  0  0  0
   -0.5609    1.0469    6.4719 C   0  0  0  0  0  0  0  0  0  0  0  0
   -1.0979    2.7779    7.6274 C   0  0  0  0  0  0  0  0  0  0  0  0
    0.9011    2.3700    4.5954 C   0  0  0  0  0  0  0  0  0  0  0  0
   -0.5416   -0.4720    6.1656 C   0  0  0  0  0  0  0  0  0  0  0  0
   -0.1977    5.3852    7.7217 C   0  0  0  0  0  0  0  0  0  0  0  0
    0.3381    4.5333    6.7530 C   0  0  0  0  0  0  0  0  0  0  0  0
   -1.6490    3.6327    8.5950 C   0  0  0  0  0  0  0  0  0  0  0  0
   -1.1667    4.9462    8.6270 C   0  0  0  0  0  0  0  0  0  0  0  0
    0.2532    6.7590    7.7694 C   0  0  0  0  0  0  0  0  0  0  0  0
    0.0556    2.2163    3.2223 C   0  0  0  0  0  0  0  0  0  0  0  0
   -0.7492   -0.7697    4.7079 C   0  0  0  0  0  0  0  0  0  0  0  0
   -2.6860    3.1709    9.5697 C   0  0  0  0  0  0  0  0  0  0  0  0
    0.6656    8.8446    7.1311 C   0  0  0  0  0  0  0  0  0  0  0  0
    1.1016    8.6057    8.4305 C   0  0  0  0  0  0  0  0  0  0  0  0
    0.2286    3.0447    2.1454 C   0  0  0  0  0  0  0  0  0  0  0  0
   -0.8688    1.1216    2.9286 C   0  0  0  0  0  0  0  0  0  0  0  0
    0.6792   -0.4608    4.1910 C   0  0  0  0  0  0  0  0  0  0  0  0
   -0.4777    7.4050    5.4380 C   0  0  0  0  0  0  0  0  0  0  0  0
   -1.4364    1.6172    0.9266 C   0  0  0  0  0  0  0  0  0  0  0  0
   -0.4531    2.6702    0.9679 C   0  0  0  0  0  0  0  0  0  0  0  0
   -1.8628    0.9762    2.0382 C   0  0  0  0  0  0  0  0  0  0  0  0
    0.8022   10.0829    6.5022 C   0  0  0  0  0  0  0  0  0  0  0  0
    1.7193    9.6321    9.1555 C   0  0  0  0  0  0  0  0  0  0  0  0
   -1.9754    1.0499   -0.2626 C   0  0  0  0  0  0  0  0  0  0  0  0
    1.4144   11.0990    7.2416 C   0  0  0  0  0  0  0  0  0  0  0  0
    1.8698   10.8804    8.5439 C   0  0  0  0  0  0  0  0  0  0  0  0
   -1.1916    0.5827   -1.3178 C   0  0  0  0  0  0  0  0  0  0  0  0
   -3.3786    1.0214   -0.2951 C   0  0  0  0  0  0  0  0  0  0  0  0
   -1.8651    0.2684   -2.4881 C   0  0  0  0  0  0  0  0  0  0  0  0
   -3.9958    0.9548   -1.5036 C   0  0  0  0  0  0  0  0  0  0  0  0
   -3.2458    0.5253   -2.5904 C   0  0  0  0  0  0  0  0  0  0  0  0
    0.2842    0.5492   -1.2530 C   0  0  0  0  0  0  0  0  0  0  0  0
    1.7897    0.0568   -0.2621 H   0  0  0  0  0  0  0  0  0  0  0  0
    1.7931    1.7077    4.7081 H   0  0  0  0  0  0  0  0  0  0  0  0
    1.4013    3.3481    4.6376 H   0  0  0  0  0  0  0  0  0  0  0  0
    0.4200   -0.9025    6.4513 H   0  0  0  0  0  0  0  0  0  0  0  0
   -1.3255   -0.9922    6.7214 H   0  0  0  0  0  0  0  0  0  0  0  0
    1.0931    4.8855    6.0599 H   0  0  0  0  0  0  0  0  0  0  0  0
   -1.5479    5.6402    9.3731 H   0  0  0  0  0  0  0  0  0  0  0  0
   -1.0835   -1.7319    4.3376 H   0  0  0  0  0  0  0  0  0  0  0  0
   -1.6271   -0.1063    4.4997 H   0  0  0  0  0  0  0  0  0  0  0  0
   -3.5825    2.8350    9.0379 H   0  0  0  0  0  0  0  0  0  0  0  0
   -2.2938    2.3432   10.1683 H   0  0  0  0  0  0  0  0  0  0  0  0
   -2.9756    3.9777   10.2491 H   0  0  0  0  0  0  0  0  0  0  0  0
    0.9236    3.8787    2.1722 H   0  0  0  0  0  0  0  0  0  0  0  0
   -0.4664    0.1043    2.6220 H   0  0  0  0  0  0  0  0  0  0  0  0
    1.5798   -0.6331    4.7594 H   0  0  0  0  0  0  0  0  0  0  0  0
    1.0529   -0.2003    3.1859 H   0  0  0  0  0  0  0  0  0  0  0  0
    0.4991    0.5106    4.5144 H   0  0  0  0  0  0  0  0  0  0  0  0
   -1.3164    8.0925    5.3113 H   0  0  0  0  0  0  0  0  0  0  0  0
    0.2794    7.5647    4.6657 H   0  0  0  0  0  0  0  0  0  0  0  0
   -0.8553    6.3847    5.3583 H   0  0  0  0  0  0  0  0  0  0  0  0
   -0.1779    3.1394    0.0298 H   0  0  0  0  0  0  0  0  0  0  0  0
   -2.4052    0.0037    1.9934 H   0  0  0  0  0  0  0  0  0  0  0  0
    0.4486   10.2540    5.4923 H   0  0  0  0  0  0  0  0  0  0  0  0
    2.0652    9.4527   10.1675 H   0  0  0  0  0  0  0  0  0  0  0  0
    1.5367   12.0807    6.7910 H   0  0  0  0  0  0  0  0  0  0  0  0
    2.3445   11.6885    9.0936 H   0  0  0  0  0  0  0  0  0  0  0  0
   -3.9651    1.1772    0.6133 H   0  0  0  0  0  0  0  0  0  0  0  0
   -1.3124   -0.1041   -3.3426 H   0  0  0  0  0  0  0  0  0  0  0  0
   -5.0292    1.2748   -1.5636 H   0  0  0  0  0  0  0  0  0  0  0  0
   -3.7560    0.3921   -3.5342 H   0  0  0  0  0  0  0  0  0  0  0  0
  1 39  1  0  0  0  0
  1 40  1  0  0  0  0
  2 39  2  0  0  0  0
  3  7  1  0  0  0  0
  3  8  1  0  0  0  0
  3 10  1  0  0  0  0
  4  8  2  0  0  0  0
  4  9  1  0  0  0  0
  5 16  1  0  0  0  0
  5 20  1  0  0  0  0
  5 25  1  0  0  0  0
  6 16  2  0  0  0  0
  6 21  1  0  0  0  0
  7  9  2  0  0  0  0
  7 13  1  0  0  0  0
  8 11  1  0  0  0  0
  9 14  1  0  0  0  0
 10 17  1  0  0  0  0
 10 41  1  0  0  0  0
 10 42  1  0  0  0  0
 11 18  1  0  0  0  0
 11 43  1  0  0  0  0
 11 44  1  0  0  0  0
 12 13  2  0  0  0  0
 12 15  1  0  0  0  0
 12 16  1  0  0  0  0
 13 45  1  0  0  0  0
 14 15  2  0  0  0  0
 14 19  1  0  0  0  0
 15 46  1  0  0  0  0
 17 22  2  0  0  0  0
 17 23  1  0  0  0  0
 18 24  1  0  0  0  0
 18 47  1  0  0  0  0
 18 48  1  0  0  0  0
 19 49  1  0  0  0  0
 19 50  1  0  0  0  0
 19 51  1  0  0  0  0
 20 21  1  0  0  0  0
 20 29  2  0  0  0  0
 21 30  2  0  0  0  0
 22 27  1  0  0  0  0
 22 52  1  0  0  0  0
 23 28  2  0  0  0  0
 23 53  1  0  0  0  0
 24 54  1  0  0  0  0
 24 55  1  0  0  0  0
 24 56  1  0  0  0  0
 25 57  1  0  0  0  0
 25 58  1  0  0  0  0
 25 59  1  0  0  0  0
 26 27  2  0  0  0  0
 26 28  1  0  0  0  0
 26 31  1  0  0  0  0
 27 60  1  0  0  0  0
 28 61  1  0  0  0  0
 29 32  1  0  0  0  0
 29 62  1  0  0  0  0
 30 33  1  0  0  0  0
 30 63  1  0  0  0  0
 31 34  1  0  0  0  0
 31 35  2  0  0  0  0
 32 33  2  0  0  0  0
 32 64  1  0  0  0  0
 33 65  1  0  0  0  0
 34 36  2  0  0  0  0
 34 39  1  0  0  0  0
 35 37  1  0  0  0  0
 35 66  1  0  0  0  0
 36 38  1  0  0  0  0
 36 67  1  0  0  0  0
 37 38  2  0  0  0  0
 37 68  1  0  0  0  0
 38 69  1  0  0  0  0
M  END
>  <DRUGBANK_ID>
DB00966

>  <SECONDARY_ACCESSION_NUMBERS>
APRD01247

>  <COMMON_NAME>
Telmisartan

>  <CAS_NUMBER>
144701-48-4

>  <UNII>
U5SYW473RQ

>  <SYNONYMS>
4'-((1,4'-dimethyl-2'-propyl(2,6'-bi-1H-benzimidazol)-1'-yl)methyl)-(1,1'-biphenyl)-2-carboxylic acid; 4'-((4-methyl-6-(1-methyl-2-benzimidazolyl)-2-propyl-1-benzimidazolyl)methyl)-2-biphenylcarboxylic acid; 4'-[(1,4'-dimethyl-2'propyl[2,6'-bi-1H-benzimidazol]-1'-yl)methyl]-[1,1'-biphenyl]-2-carboxylic acid; 4'-[(1,7'-dimethyl-2'-propyl-1H,3'H-2,5'-bibenzimidazol-3'-yl)methyl]biphenyl-2-carboxylic acid; Telmisartan

$$$$
