
 OpenBabel10282417193D

 34 36  0  0  0  0  0  0  0  0999 V2000
   -2.5962   -7.9222    1.3733 C   0  0  0  0  0  0  0  0  0  0  0  0
    3.9517   -4.4202    4.7400 C   0  0  0  0  0  0  0  0  0  0  0  0
    2.9648   -3.2992    4.6177 C   0  0  0  0  0  0  0  0  0  0  0  0
    4.5647   -4.4713    3.3638 C   0  0  0  0  0  0  0  0  0  0  0  0
   -2.2990   -6.6521    0.5991 C   0  0  2  0  0  0  0  0  0  0  0  0
    2.4984   -3.3839    3.1715 C   0  0  2  0  0  0  0  0  0  0  0  0
   -1.3493   -5.6767    1.2792 C   0  0  1  0  0  0  0  0  0  0  0  0
    0.0381   -3.9900    3.5268 C   0  0  0  0  0  0  0  0  0  0  0  0
    1.2654   -4.2286    3.0129 C   0  0  0  0  0  0  0  0  0  0  0  0
   -1.9132   -4.6859    2.3131 C   0  0  0  0  0  0  0  0  0  0  0  0
   -0.3753   -6.0716    2.4129 C   0  0  2  0  0  0  0  0  0  0  0  0
   -0.3193   -2.8111    4.3995 C   0  0  0  0  0  0  0  0  0  0  0  0
   -0.9284   -4.9533    3.2250 N   0  0  0  0  0  0  0  0  0  0  0  0
   -3.5161   -5.9961    0.2458 O   0  0  0  0  0  0  0  0  0  0  0  0
   -2.8166   -3.8711    2.3073 O   0  0  0  0  0  0  0  0  0  0  0  0
   -1.3462   -2.6655    5.0378 O   0  0  0  0  0  0  0  0  0  0  0  0
    0.6663   -1.8929    4.4981 O   0  0  0  0  0  0  0  0  0  0  0  0
    3.6092   -3.9404    2.4406 O   0  0  0  0  0  0  0  0  0  0  0  0
    1.3441   -5.6840    2.0418 S   0  0  0  0  0  0  0  0  0  0  0  0
   -0.4909   -7.0277    2.9254 H   0  0  0  0  0  0  0  0  0  0  0  0
   -2.0564   -7.9974    2.3129 H   0  0  0  0  0  0  0  0  0  0  0  0
   -2.2725   -8.7840    0.7761 H   0  0  0  0  0  0  0  0  0  0  0  0
   -3.6590   -8.0479    1.5920 H   0  0  0  0  0  0  0  0  0  0  0  0
    3.4233   -5.3551    4.9631 H   0  0  0  0  0  0  0  0  0  0  0  0
    4.6803   -4.2436    5.5334 H   0  0  0  0  0  0  0  0  0  0  0  0
    2.1845   -3.4132    5.3751 H   0  0  0  0  0  0  0  0  0  0  0  0
    3.4495   -2.3298    4.7725 H   0  0  0  0  0  0  0  0  0  0  0  0
    5.4538   -3.8393    3.3060 H   0  0  0  0  0  0  0  0  0  0  0  0
    4.8341   -5.4910    3.0743 H   0  0  0  0  0  0  0  0  0  0  0  0
   -1.8496   -6.9540   -0.3568 H   0  0  0  0  0  0  0  0  0  0  0  0
    2.2943   -2.4048    2.7236 H   0  0  0  0  0  0  0  0  0  0  0  0
   -0.8506   -5.1384    0.4569 H   0  0  0  0  0  0  0  0  0  0  0  0
   -3.8707   -5.5235    1.0244 H   0  0  0  0  0  0  0  0  0  0  0  0
    0.4143   -1.2546    5.1993 H   0  0  0  0  0  0  0  0  0  0  0  0
  1 21  1  0  0  0  0
  1 22  1  0  0  0  0
  1 23  1  0  0  0  0
  2 24  1  0  0  0  0
  2 25  1  0  0  0  0
  3  2  1  0  0  0  0
  3 26  1  0  0  0  0
  3 27  1  0  0  0  0
  4  2  1  0  0  0  0
  4 28  1  0  0  0  0
  4 29  1  0  0  0  0
  5 14  1  0  0  0  0
  5 30  1  6  0  0  0
  5  1  1  0  0  0  0
  6  3  1  0  0  0  0
  6 31  1  6  0  0  0
  6  9  1  0  0  0  0
  7  5  1  0  0  0  0
  7 32  1  6  0  0  0
  9  8  2  0  0  0  0
 10  7  1  0  0  0  0
 11  7  1  0  0  0  0
 11 20  1  1  0  0  0
 12  8  1  0  0  0  0
 13  8  1  0  0  0  0
 13 10  1  0  0  0  0
 13 11  1  0  0  0  0
 14 33  1  0  0  0  0
 15 10  2  0  0  0  0
 16 12  2  0  0  0  0
 17 12  1  0  0  0  0
 17 34  1  0  0  0  0
 18  4  1  0  0  0  0
 18  6  1  0  0  0  0
 19  9  1  0  0  0  0
 19 11  1  0  0  0  0
M  END
>  <DRUGBANK_ID>
DB12190

>  <COMMON_NAME>
Faropenem

>  <CAS_NUMBER>
106560-14-9

>  <UNII>
F52Y83BGH3

>  <SYNONYMS>
Faropenem

$$$$
