507
 OpenBabel10282417103D

 30 31  0  0  0  0  0  0  0  0999 V2000
   -0.9356    0.1665    1.0373 S   0  0  0  0  0  0  0  0  0  0  0  0
   -1.4199   -1.0046   -1.8688 O   0  0  0  0  0  0  0  0  0  0  0  0
   -1.3699   -4.2836    0.3807 O   0  0  0  0  0  0  0  0  0  0  0  0
   -0.4964   -3.1266   -2.1580 O   0  0  0  0  0  0  0  0  0  0  0  0
   -1.5541    2.8903   -0.0045 O   0  5  0  0  0  0  0  0  0  0  0  0
    0.5562    3.5154   -0.0362 O   0  0  0  0  0  0  0  0  0  0  0  0
   -0.1014   -2.4034    0.5930 N   0  0  0  0  0  0  0  0  0  0  0  0
    1.4034   -0.5874    0.3475 N   0  0  0  0  0  0  0  0  0  0  0  0
   -0.3397    2.6719    0.0940 N   0  3  0  0  0  0  0  0  0  0  0  0
   -2.5226   -2.3281   -0.0311 C   0  0  0  0  0  0  0  0  0  0  0  0
   -2.5623   -1.3707   -1.0622 C   0  0  0  0  0  0  0  0  0  0  0  0
   -1.3030   -3.0532    0.3586 C   0  0  0  0  0  0  0  0  0  0  0  0
   -3.6634   -2.5883    0.7513 C   0  0  0  0  0  0  0  0  0  0  0  0
   -3.6882   -0.5342   -1.1427 C   0  0  0  0  0  0  0  0  0  0  0  0
   -4.8199   -1.8348    0.5744 C   0  0  0  0  0  0  0  0  0  0  0  0
    0.2056   -1.0546    0.6410 C   0  0  0  0  0  0  0  0  0  0  0  0
   -4.8056   -0.7640   -0.3185 C   0  0  0  0  0  0  0  0  0  0  0  0
    0.0858    1.3297    0.3383 C   0  0  0  0  0  0  0  0  0  0  0  0
    1.3419    0.7985    0.1779 C   0  0  0  0  0  0  0  0  0  0  0  0
   -0.4004   -1.9182   -2.2044 C   0  0  0  0  0  0  0  0  0  0  0  0
    0.9061   -1.2613   -2.5736 C   0  0  0  0  0  0  0  0  0  0  0  0
    0.6800   -3.0216    0.3962 H   0  0  0  0  0  0  0  0  0  0  0  0
   -3.6348   -3.3540    1.5262 H   0  0  0  0  0  0  0  0  0  0  0  0
   -3.6955    0.3330   -1.7977 H   0  0  0  0  0  0  0  0  0  0  0  0
   -5.7127   -2.0607    1.1552 H   0  0  0  0  0  0  0  0  0  0  0  0
   -5.6681   -0.0991   -0.3571 H   0  0  0  0  0  0  0  0  0  0  0  0
    2.2322    1.3466   -0.1143 H   0  0  0  0  0  0  0  0  0  0  0  0
    0.9949   -1.2408   -3.6551 H   0  0  0  0  0  0  0  0  0  0  0  0
    1.0492   -0.2571   -2.1766 H   0  0  0  0  0  0  0  0  0  0  0  0
    1.7127   -1.8792   -2.1496 H   0  0  0  0  0  0  0  0  0  0  0  0
  1 16  1  0  0  0  0
  1 18  1  0  0  0  0
  2 11  1  0  0  0  0
  2 20  1  0  0  0  0
  3 12  2  0  0  0  0
  4 20  2  0  0  0  0
  5  9  1  0  0  0  0
  6  9  2  0  0  0  0
  7 12  1  0  0  0  0
  7 16  1  0  0  0  0
  7 22  1  0  0  0  0
  8 16  2  0  0  0  0
  8 19  1  0  0  0  0
  9 18  1  0  0  0  0
 10 11  1  0  0  0  0
 10 12  1  0  0  0  0
 10 13  2  0  0  0  0
 11 14  2  0  0  0  0
 13 15  1  0  0  0  0
 13 23  1  0  0  0  0
 14 17  1  0  0  0  0
 14 24  1  0  0  0  0
 15 17  2  0  0  0  0
 15 25  1  0  0  0  0
 17 26  1  0  0  0  0
 18 19  2  0  0  0  0
 19 27  1  0  0  0  0
 20 21  1  0  0  0  0
 21 28  1  0  0  0  0
 21 29  1  0  0  0  0
 21 30  1  0  0  0  0
M  CHG  2   5  -1   9   1
M  END
>  <DRUGBANK_ID>
DB00507

>  <SECONDARY_ACCESSION_NUMBERS>
APRD00558

>  <COMMON_NAME>
Nitazoxanide

>  <CAS_NUMBER>
55981-09-4

>  <UNII>
SOA12P041N

>  <SYNONYMS>
Nitaxozanid; Nitaxozanide; Nitazoxanida; Nitazoxanide; Nitazoxanidum

$$$$
