IOF
 OpenBabel10282417123D

 34 35  0  0  0  0  0  0  0  0999 V2000
    1.2143   -0.3112    0.2095 C   0  0  0  0  0  0  0  0  0  0  0  0
    0.3470   -1.3741    0.0625 C   0  0  0  0  0  0  0  0  0  0  0  0
   -1.0008   -1.1186   -0.0219 C   0  0  0  0  0  0  0  0  0  0  0  0
   -1.4598    0.2024   -0.0180 C   0  0  0  0  0  0  0  0  0  0  0  0
   -0.5332    1.2694   -0.0033 C   0  0  0  0  0  0  0  0  0  0  0  0
    0.8462    1.0201    0.0138 C   0  0  0  0  0  0  0  0  0  0  0  0
    1.8102    2.1630   -0.2130 C   0  0  0  0  0  0  0  0  0  0  0  0
    1.3744    3.3117   -0.3088 O   0  0  0  0  0  0  0  0  0  0  0  0
    3.1680    1.9917   -0.3908 N   0  0  0  0  0  0  0  0  0  0  0  0
    3.9797    0.8018   -0.4024 C   0  0  0  0  0  0  0  0  0  0  0  0
   -2.0682   -2.5208   -0.0064 S   0  0  0  0  0  0  0  0  0  0  0  0
   -2.9179   -2.3269    1.4326 N   0  0  0  0  0  0  0  0  0  0  0  0
   -2.9864   -2.4148   -1.1023 O   0  0  0  0  0  0  0  0  0  0  0  0
   -1.2554   -3.7057    0.2140 O   0  0  0  0  0  0  0  0  0  0  0  0
    4.6012    0.4309   -1.7036 C   0  0  0  0  0  0  0  0  0  0  0  0
    5.2591    1.3899   -2.4584 C   0  0  0  0  0  0  0  0  0  0  0  0
    5.9287    1.0022   -3.6056 C   0  0  0  0  0  0  0  0  0  0  0  0
    5.9673   -0.3314   -3.9988 C   0  0  0  0  0  0  0  0  0  0  0  0
    5.3267   -1.2962   -3.2382 C   0  0  0  0  0  0  0  0  0  0  0  0
    4.6002   -0.9217   -2.1195 C   0  0  0  0  0  0  0  0  0  0  0  0
    6.5773    1.9390   -4.3059 F   0  0  0  0  0  0  0  0  0  0  0  0
    6.6231   -0.6825   -5.1112 F   0  0  0  0  0  0  0  0  0  0  0  0
    5.4422   -2.5968   -3.5399 F   0  0  0  0  0  0  0  0  0  0  0  0
    2.1590   -0.6441    0.5902 H   0  0  0  0  0  0  0  0  0  0  0  0
    0.7557   -2.3822    0.0822 H   0  0  0  0  0  0  0  0  0  0  0  0
   -2.5252    0.4125   -0.0444 H   0  0  0  0  0  0  0  0  0  0  0  0
   -0.8978    2.2970    0.0244 H   0  0  0  0  0  0  0  0  0  0  0  0
    3.6482    2.8725   -0.5442 H   0  0  0  0  0  0  0  0  0  0  0  0
    4.6839    0.8186    0.4331 H   0  0  0  0  0  0  0  0  0  0  0  0
    3.3747   -0.0463   -0.2659 H   0  0  0  0  0  0  0  0  0  0  0  0
   -3.6236   -3.0659    1.4784 H   0  0  0  0  0  0  0  0  0  0  0  0
   -2.3009   -2.3779    2.2445 H   0  0  0  0  0  0  0  0  0  0  0  0
    5.2539    2.4309   -2.1554 H   0  0  0  0  0  0  0  0  0  0  0  0
    4.0518   -1.6941   -1.5779 H   0  0  0  0  0  0  0  0  0  0  0  0
  1  2  2  0  0  0  0
  1  6  1  0  0  0  0
  1 24  1  0  0  0  0
  2  3  1  0  0  0  0
  2 25  1  0  0  0  0
  3  4  2  0  0  0  0
  3 11  1  0  0  0  0
  4  5  1  0  0  0  0
  4 26  1  0  0  0  0
  5  6  2  0  0  0  0
  5 27  1  0  0  0  0
  6  7  1  0  0  0  0
  7  8  2  0  0  0  0
  7  9  1  0  0  0  0
  9 10  1  0  0  0  0
  9 28  1  0  0  0  0
 10 15  1  0  0  0  0
 10 29  1  0  0  0  0
 10 30  1  0  0  0  0
 11 12  1  0  0  0  0
 11 13  2  0  0  0  0
 11 14  2  0  0  0  0
 12 31  1  0  0  0  0
 12 32  1  0  0  0  0
 15 16  2  0  0  0  0
 15 20  1  0  0  0  0
 16 17  1  0  0  0  0
 16 33  1  0  0  0  0
 17 18  2  0  0  0  0
 17 21  1  0  0  0  0
 18 19  1  0  0  0  0
 18 22  1  0  0  0  0
 19 20  2  0  0  0  0
 19 23  1  0  0  0  0
 20 34  1  0  0  0  0
M  END
>  <DRUGBANK_ID>
DB02861

>  <SECONDARY_ACCESSION_NUMBERS>
EXPT01904

>  <COMMON_NAME>
4-(Aminosulfonyl)-N-[(3,4,5-Trifluorophenyl)Methyl]-Benzamide

$$$$
