
 OpenBabel10282417133D

 14 13  0  0  0  0  0  0  0  0999 V2000
    1.1268   -0.1143   -0.0347 C   0  0  0  0  0  0  0  0  0  0  0  0
    0.5061   -0.7538    1.0861 N   0  0  0  0  0  0  0  0  0  0  0  0
   -0.2934   -0.2934    2.1266 C   0  0  0  0  0  0  0  0  0  0  0  0
   -0.7307   -1.1755    3.0517 C   0  0  0  0  0  0  0  0  0  0  0  0
   -0.7757    1.1267    2.3956 C   0  0  0  0  0  0  0  0  0  0  0  0
   -0.4413    2.1398    1.5819 O   0  0  0  0  0  0  0  0  0  0  0  0
   -1.4869    1.3901    3.3671 O   0  0  0  0  0  0  0  0  0  0  0  0
    0.9457    0.9435   -0.0984 H   0  0  0  0  0  0  0  0  0  0  0  0
    0.7511   -0.5373   -0.9694 H   0  0  0  0  0  0  0  0  0  0  0  0
    2.2123   -0.2278    0.0163 H   0  0  0  0  0  0  0  0  0  0  0  0
    0.6887   -1.7586    1.1307 H   0  0  0  0  0  0  0  0  0  0  0  0
   -1.3589   -0.8726    3.8876 H   0  0  0  0  0  0  0  0  0  0  0  0
   -0.4890   -2.2328    3.0253 H   0  0  0  0  0  0  0  0  0  0  0  0
    0.1095    2.0057    0.8076 H   0  0  0  0  0  0  0  0  0  0  0  0
  1  2  1  0  0  0  0
  1  8  1  0  0  0  0
  1  9  1  0  0  0  0
  1 10  1  0  0  0  0
  2  3  1  0  0  0  0
  2 11  1  0  0  0  0
  3  4  2  0  0  0  0
  3  5  1  0  0  0  0
  4 12  1  0  0  0  0
  4 13  1  0  0  0  0
  5  6  1  0  0  0  0
  5  7  2  0  0  0  0
  6 14  1  0  0  0  0
M  END
>  <DRUGBANK_ID>
DB03920

>  <SECONDARY_ACCESSION_NUMBERS>
EXPT01110

>  <COMMON_NAME>
N-Methyl-Alpha-Beta-Dehydroalanine

>  <UNII>
YNW06WML0Q

$$$$
