
 OpenBabel10282417143D

 21 22  0  0  0  0  0  0  0  0999 V2000
   -1.4042    2.1694    0.0137 C   0  0  0  0  0  0  0  0  0  0  0  0
   -0.9988    0.7746    0.0245 N   0  0  0  0  0  0  0  0  0  0  0  0
   -1.9845   -0.2025    0.0096 C   0  0  0  0  0  0  0  0  0  0  0  0
   -3.1936    0.0239   -0.0270 O   0  0  0  0  0  0  0  0  0  0  0  0
   -1.5367   -1.6156    0.0426 C   0  0  0  0  0  0  0  0  0  0  0  0
   -0.2429   -1.9498    0.0160 C   0  0  0  0  0  0  0  0  0  0  0  0
    0.7776   -0.9055   -0.0070 C   0  0  0  0  0  0  0  0  0  0  0  0
    2.1372   -1.2439   -0.0411 C   0  0  0  0  0  0  0  0  0  0  0  0
    3.1114   -0.2445   -0.0432 C   0  0  0  0  0  0  0  0  0  0  0  0
    2.7342    1.0936   -0.0016 C   0  0  0  0  0  0  0  0  0  0  0  0
    1.3826    1.4364    0.0311 C   0  0  0  0  0  0  0  0  0  0  0  0
    0.3903    0.4454    0.0195 C   0  0  0  0  0  0  0  0  0  0  0  0
   -1.0241    2.6619    0.9146 H   0  0  0  0  0  0  0  0  0  0  0  0
   -1.0051    2.6556   -0.8826 H   0  0  0  0  0  0  0  0  0  0  0  0
   -2.4911    2.2805    0.0020 H   0  0  0  0  0  0  0  0  0  0  0  0
   -2.3239   -2.3586    0.0802 H   0  0  0  0  0  0  0  0  0  0  0  0
    0.0611   -2.9903    0.0243 H   0  0  0  0  0  0  0  0  0  0  0  0
    2.4505   -2.2849   -0.0656 H   0  0  0  0  0  0  0  0  0  0  0  0
    4.1653   -0.5083   -0.0744 H   0  0  0  0  0  0  0  0  0  0  0  0
    3.4880    1.8770    0.0032 H   0  0  0  0  0  0  0  0  0  0  0  0
    1.1320    2.4916    0.0645 H   0  0  0  0  0  0  0  0  0  0  0  0
  1  2  1  0  0  0  0
  1 13  1  0  0  0  0
  1 14  1  0  0  0  0
  1 15  1  0  0  0  0
  2  3  1  0  0  0  0
  2 12  1  0  0  0  0
  3  4  2  0  0  0  0
  3  5  1  0  0  0  0
  5  6  2  0  0  0  0
  5 16  1  0  0  0  0
  6  7  1  0  0  0  0
  6 17  1  0  0  0  0
  7  8  2  0  0  0  0
  7 12  1  0  0  0  0
  8  9  1  0  0  0  0
  8 18  1  0  0  0  0
  9 10  2  0  0  0  0
  9 19  1  0  0  0  0
 10 11  1  0  0  0  0
 10 20  1  0  0  0  0
 11 12  2  0  0  0  0
 11 21  1  0  0  0  0
M  END
>  <DRUGBANK_ID>
DB04580

>  <COMMON_NAME>
1-Methyl-2-quinolone

>  <CAS_NUMBER>
606-43-9

>  <UNII>
UQ470VV48X

$$$$
