
 OpenBabel10282417203D

 36 37  0  0  1  0  0  0  0  0999 V2000
    0.8935    0.1164    0.0864 C   0  0  0  0  0  0  0  0  0  0  0  0
    0.4531    0.5949   -1.3211 C   0  0  1  0  0  0  0  0  0  0  0  0
    1.0639   -0.4327   -2.3046 C   0  0  0  0  0  0  0  0  0  0  0  0
    0.5787   -1.8653   -2.1813 C   0  0  0  0  0  0  0  0  0  0  0  0
    1.2816   -2.8815   -2.8339 C   0  0  0  0  0  0  0  0  0  0  0  0
    0.8729   -4.2093   -2.6938 C   0  0  0  0  0  0  0  0  0  0  0  0
   -0.2400   -4.5545   -1.9279 C   0  0  0  0  0  0  0  0  0  0  0  0
   -0.9687   -3.5582   -1.3006 C   0  0  0  0  0  0  0  0  0  0  0  0
   -0.5584   -2.2486   -1.4544 C   0  0  0  0  0  0  0  0  0  0  0  0
   -0.9938    0.8728   -1.4041 N   0  0  0  0  0  0  0  0  0  0  0  0
   -1.6192    1.2517   -2.6852 C   0  0  0  0  0  0  0  0  0  0  0  0
   -1.3675    0.3921   -3.9127 C   0  0  0  0  0  0  0  0  0  0  0  0
   -0.4834    0.8822   -4.8990 C   0  0  0  0  0  0  0  0  0  0  0  0
    0.0290    0.0439   -5.8963 C   0  0  0  0  0  0  0  0  0  0  0  0
   -0.3112   -1.3047   -5.9109 C   0  0  0  0  0  0  0  0  0  0  0  0
   -1.2421   -1.7873   -4.9918 C   0  0  0  0  0  0  0  0  0  0  0  0
   -1.8449   -0.9191   -4.0674 C   0  0  0  0  0  0  0  0  0  0  0  0
   -3.1867   -1.5169   -3.1551 Cl  0  0  0  0  0  0  0  0  0  0  0  0
    0.5559   -0.8977    0.3238 H   0  0  0  0  0  0  0  0  0  0  0  0
    0.5421    0.7626    0.8901 H   0  0  0  0  0  0  0  0  0  0  0  0
    1.9906    0.0736    0.1293 H   0  0  0  0  0  0  0  0  0  0  0  0
    0.9494    1.5604   -1.4819 H   0  0  0  0  0  0  0  0  0  0  0  0
    0.9710   -0.0816   -3.3240 H   0  0  0  0  0  0  0  0  0  0  0  0
    2.1540   -0.4219   -2.1675 H   0  0  0  0  0  0  0  0  0  0  0  0
    2.1358   -2.6340   -3.4564 H   0  0  0  0  0  0  0  0  0  0  0  0
    1.4366   -4.9950   -3.1915 H   0  0  0  0  0  0  0  0  0  0  0  0
   -0.5611   -5.5810   -1.8225 H   0  0  0  0  0  0  0  0  0  0  0  0
   -1.8539   -3.7731   -0.7122 H   0  0  0  0  0  0  0  0  0  0  0  0
   -1.2174   -1.5327   -0.9854 H   0  0  0  0  0  0  0  0  0  0  0  0
   -1.5672    0.1951   -0.9192 H   0  0  0  0  0  0  0  0  0  0  0  0
   -2.7032    1.3066   -2.5252 H   0  0  0  0  0  0  0  0  0  0  0  0
   -1.3122    2.2820   -2.8922 H   0  0  0  0  0  0  0  0  0  0  0  0
   -0.0990    1.8978   -4.8248 H   0  0  0  0  0  0  0  0  0  0  0  0
    0.7574    0.4278   -6.6062 H   0  0  0  0  0  0  0  0  0  0  0  0
    0.1469   -1.9797   -6.6298 H   0  0  0  0  0  0  0  0  0  0  0  0
   -1.4496   -2.8557   -4.9571 H   0  0  0  0  0  0  0  0  0  0  0  0
  1 19  1  0  0  0  0
  1 20  1  0  0  0  0
  1 21  1  0  0  0  0
  2  1  1  0  0  0  0
  2  3  1  0  0  0  0
  2 10  1  0  0  0  0
  2 22  1  6  0  0  0
  3  4  1  0  0  0  0
  3 23  1  0  0  0  0
  3 24  1  0  0  0  0
  4  5  2  0  0  0  0
  4  9  1  0  0  0  0
  5  6  1  0  0  0  0
  5 25  1  0  0  0  0
  6  7  2  0  0  0  0
  6 26  1  0  0  0  0
  7  8  1  0  0  0  0
  7 27  1  0  0  0  0
  8  9  2  0  0  0  0
  8 28  1  0  0  0  0
  9 29  1  0  0  0  0
 10 11  1  0  0  0  0
 10 30  1  0  0  0  0
 11 12  1  0  0  0  0
 11 31  1  0  0  0  0
 11 32  1  0  0  0  0
 12 13  2  0  0  0  0
 12 17  1  0  0  0  0
 13 14  1  0  0  0  0
 13 33  1  0  0  0  0
 14 15  2  0  0  0  0
 14 34  1  0  0  0  0
 15 16  1  0  0  0  0
 15 35  1  0  0  0  0
 16 17  2  0  0  0  0
 16 36  1  0  0  0  0
 17 18  1  0  0  0  0
M  END
>  <DRUGBANK_ID>
DB13561

>  <COMMON_NAME>
Clobenzorex

>  <CAS_NUMBER>
13364-32-4

>  <UNII>
4A5352XI2A

>  <SYNONYMS>
Clobenzorex

$$$$
