
 OpenBabel10282417123D

 25 24  0  0  0  0  0  0  0  0999 V2000
   -0.2064    4.1477   -0.5686 C   0  0  0  0  0  0  0  0  0  0  0  0
   -0.3670    0.5304   -2.1579 C   0  0  0  0  0  0  0  0  0  0  0  0
   -1.4631    3.3740   -0.9152 C   0  0  0  0  0  0  0  0  0  0  0  0
   -1.7323    1.2338   -2.1282 C   0  0  1  0  0  0  0  0  0  0  0  0
   -1.5525    2.7401   -2.2919 C   0  0  1  0  0  0  0  0  0  0  0  0
    0.7898    4.1169   -1.5725 O   0  0  0  0  0  0  0  0  0  0  0  0
   -2.3975    3.2731   -0.1087 O   0  0  0  0  0  0  0  0  0  0  0  0
   -2.5926    0.7560   -3.1722 O   0  0  0  0  0  0  0  0  0  0  0  0
   -2.6541    3.3030   -3.0024 O   0  0  0  0  0  0  0  0  0  0  0  0
   -0.5587   -1.9551   -4.7899 O   0  0  0  0  0  0  0  0  0  0  0  0
   -0.7098   -2.3291   -2.4059 O   0  0  0  0  0  0  0  0  0  0  0  0
   -2.5985   -2.4542   -3.7087 O   0  0  0  0  0  0  0  0  0  0  0  0
   -0.2009   -0.2473   -3.3496 O   0  0  0  0  0  0  0  0  0  0  0  0
   -1.4661   -1.4119   -3.5391 P   0  0  0  0  0  0  0  0  0  0  0  0
   -2.2270    0.9842   -1.1806 H   0  0  0  0  0  0  0  0  0  0  0  0
   -0.6718    2.9335   -2.9055 H   0  0  0  0  0  0  0  0  0  0  0  0
    0.2205    3.7050    0.3361 H   0  0  0  0  0  0  0  0  0  0  0  0
   -0.4826    5.1868   -0.3717 H   0  0  0  0  0  0  0  0  0  0  0  0
    0.4787    1.2205   -2.0759 H   0  0  0  0  0  0  0  0  0  0  0  0
   -0.2790   -0.1037   -1.2688 H   0  0  0  0  0  0  0  0  0  0  0  0
    0.4691    4.6506   -2.3242 H   0  0  0  0  0  0  0  0  0  0  0  0
   -2.2628    1.1537   -4.0039 H   0  0  0  0  0  0  0  0  0  0  0  0
   -3.4620    2.9541   -2.5747 H   0  0  0  0  0  0  0  0  0  0  0  0
   -0.9660   -1.7314   -5.6397 H   0  0  0  0  0  0  0  0  0  0  0  0
   -0.1303   -1.8794   -1.7821 H   0  0  0  0  0  0  0  0  0  0  0  0
  1 17  1  0  0  0  0
  1 18  1  0  0  0  0
  2 19  1  0  0  0  0
  2 20  1  0  0  0  0
  3  1  1  0  0  0  0
  4  8  1  0  0  0  0
  4 15  1  1  0  0  0
  4  5  1  0  0  0  0
  4  2  1  0  0  0  0
  5  3  1  0  0  0  0
  5  9  1  0  0  0  0
  5 16  1  6  0  0  0
  6  1  1  0  0  0  0
  6 21  1  0  0  0  0
  7  3  2  0  0  0  0
  8 22  1  0  0  0  0
  9 23  1  0  0  0  0
 10 24  1  0  0  0  0
 11 25  1  0  0  0  0
 13  2  1  0  0  0  0
 14 10  1  0  0  0  0
 14 11  1  0  0  0  0
 14 12  2  0  0  0  0
 14 13  1  0  0  0  0
M  END
>  <DRUGBANK_ID>
DB01923

>  <SECONDARY_ACCESSION_NUMBERS>
EXPT02069

>  <COMMON_NAME>
L-Xylulose 5-Phosphate

>  <CAS_NUMBER>
60802-29-1

$$$$
