
 OpenBabel10282417173D

 71 53  0  0  0  0  0  0  0  0999 V2000
    1.0842    0.0537    0.0042 Fe  0  1  0  0  0  0  0  0  0  0  0  0
    1.0940   -0.0250    0.0234 Fe  0  1  0  0  0  0  0  0  0  0  0  0
    0.9602    0.0708   -0.0583 Fe  0  1  0  0  0  0  0  0  0  0  0  0
    0.9586   -0.0146   -0.0899 Fe  0  1  0  0  0  0  0  0  0  0  0  0
    0.9253   -0.0540   -0.0386 Fe  0  1  0  0  0  0  0  0  0  0  0  0
    0.9671   -0.0417    0.0847 Na  0  3  0  0  0  0  0  0  0  0  0  0
    0.9999    0.0990    0.0141 Na  0  3  0  0  0  0  0  0  0  0  0  0
    1.8380   -0.0370   -0.0600 O   0  0  0  0  0  0  0  0  0  0  0  0
    1.1237   -1.8300    1.2701 O   0  0  0  0  0  0  0  0  0  0  0  0
    1.5666    0.2069    2.4172 O   0  0  0  0  0  0  0  0  0  0  0  0
   -1.4480   -1.5310    0.1030 O   0  0  0  0  0  0  0  0  0  0  0  0
   -1.3640    1.5670   -0.1610 O   0  0  0  0  0  0  0  0  0  0  0  0
   -1.5087   -1.6820    1.8296 O   0  0  0  0  0  0  0  0  0  0  0  0
   -2.0857    0.8161    0.5995 O   0  0  0  0  0  0  0  0  0  0  0  0
    0.2741    2.2258   -0.3576 O   0  0  0  0  0  0  0  0  0  0  0  0
    1.3677   -1.6471   -2.3264 O   0  0  0  0  0  0  0  0  0  0  0  0
    2.8910    2.4868    0.8348 O   0  0  0  0  0  0  0  0  0  0  0  0
    3.8695    1.6585    1.7218 O   0  0  0  0  0  0  0  0  0  0  0  0
    0.9186   -0.0524   -0.0250 O   0  0  0  0  0  0  0  0  0  0  0  0
    0.9314   -0.0727   -0.0046 O   0  0  0  0  0  0  0  0  0  0  0  0
    0.9982   -0.0128   -0.0992 O   0  0  0  0  0  0  0  0  0  0  0  0
    1.0714    0.0620   -0.0324 O   0  5  0  0  0  0  0  0  0  0  0  0
    0.9294   -0.0657    0.0265 O   0  6  0  0  0  0  0  0  0  0  0  0
    0.9716    0.0756    0.0590 O   0  6  0  0  0  0  0  0  0  0  0  0
    0.9151   -0.0029   -0.0528 O   0  6  0  0  0  0  0  0  0  0  0  0
    0.9511    0.0763    0.0422 O   0  6  0  0  0  0  0  0  0  0  0  0
    1.0589   -0.0510    0.0627 O   0  6  0  0  0  0  0  0  0  0  0  0
    0.9259    0.0425   -0.0520 O   0  6  0  0  0  0  0  0  0  0  0  0
    1.0789    0.0613    0.0039 O   0  6  0  0  0  0  0  0  0  0  0  0
    0.9676    0.0889    0.0324 O   0  6  0  0  0  0  0  0  0  0  0  0
    1.0370   -1.1870    0.0070 C   0  0  1  0  0  0  0  0  0  0  0  0
   -0.3930   -0.6860   -0.2980 C   0  0  2  0  0  0  0  0  0  0  0  0
   -0.3780    0.7000    0.3780 C   0  0  1  0  0  0  0  0  0  0  0  0
    1.0320    1.1740    0.0690 C   0  0  1  0  0  0  0  0  0  0  0  0
    0.7225   -0.9266    2.2896 C   0  0  1  0  0  0  0  0  0  0  0  0
   -0.6992   -0.5213    2.0019 C   0  0  1  0  0  0  0  0  0  0  0  0
   -0.7584    0.3332    0.7603 C   0  0  2  0  0  0  0  0  0  0  0  0
    0.2489    1.4549    0.8390 C   0  0  1  0  0  0  0  0  0  0  0  0
    1.6350    0.9495    1.2021 C   0  0  1  0  0  0  0  0  0  0  0  0
    1.4790   -2.2094   -1.0272 C   0  0  0  0  0  0  0  0  0  0  0  0
    1.5667    2.0895    1.1582 C   0  0  0  0  0  0  0  0  0  0  0  0
    2.5742    2.1310    1.3824 C   0  0  0  0  0  0  0  0  0  0  0  0
   -1.4041   -1.6726    1.0919 H   0  0  0  0  0  0  0  0  0  0  0  0
   -1.2287    1.6528   -1.1481 H   0  0  0  0  0  0  0  0  0  0  0  0
   -1.1657   -2.2158    1.0566 H   0  0  0  0  0  0  0  0  0  0  0  0
   -2.3401    1.3634    1.3968 H   0  0  0  0  0  0  0  0  0  0  0  0
    0.5683    1.6490   -1.1196 H   0  0  0  0  0  0  0  0  0  0  0  0
    0.4167   -1.3894   -2.4977 H   0  0  0  0  0  0  0  0  0  0  0  0
    3.4739    1.6773    0.7638 H   0  0  0  0  0  0  0  0  0  0  0  0
    3.8216    1.1376    2.5741 H   0  0  0  0  0  0  0  0  0  0  0  0
    0.5853    0.1342   -0.9492 H   0  0  0  0  0  0  0  0  0  0  0  0
    1.9186   -0.0524   -0.0250 H   0  0  0  0  0  0  0  0  0  0  0  0
    0.5981    0.5035   -0.7508 H   0  0  0  0  0  0  0  0  0  0  0  0
    1.9314   -0.0727   -0.0046 H   0  0  0  0  0  0  0  0  0  0  0  0
    0.6649    0.3309   -0.9771 H   0  0  0  0  0  0  0  0  0  0  0  0
    1.9982   -0.0128   -0.0992 H   0  0  0  0  0  0  0  0  0  0  0  0
    2.0714    0.0620   -0.0324 H   0  0  0  0  0  0  0  0  0  0  0  0
   -0.6057   -0.6578   -1.3463 H   0  0  0  0  0  0  0  0  0  0  0  0
   -0.6068    0.6753    1.4230 H   0  0  0  0  0  0  0  0  0  0  0  0
    1.0464    1.7306   -0.8447 H   0  0  0  0  0  0  0  0  0  0  0  0
    0.7994   -1.4242    3.2337 H   0  0  0  0  0  0  0  0  0  0  0  0
   -1.0695    0.0467    2.8297 H   0  0  0  0  0  0  0  0  0  0  0  0
   -0.5020   -0.2495   -0.0998 H   0  0  0  0  0  0  0  0  0  0  0  0
   -0.0690    2.1014    1.6301 H   0  0  0  0  0  0  0  0  0  0  0  0
    2.0013    0.3192    0.4189 H   0  0  0  0  0  0  0  0  0  0  0  0
    2.4965   -2.4852   -0.8440 H   0  0  0  0  0  0  0  0  0  0  0  0
    0.8566   -3.0772   -0.9596 H   0  0  0  0  0  0  0  0  0  0  0  0
    0.9430    2.9556    1.2341 H   0  0  0  0  0  0  0  0  0  0  0  0
    1.5688    1.5685    2.0928 H   0  0  0  0  0  0  0  0  0  0  0  0
    2.6254    2.6883    0.4704 H   0  0  0  0  0  0  0  0  0  0  0  0
    2.2080    2.7614    2.1655 H   0  0  0  0  0  0  0  0  0  0  0  0
  8 31  1  0  0  0  0
  8 34  1  0  0  0  0
 10 35  1  0  0  0  0
 10 39  1  0  0  0  0
 11 43  1  0  0  0  0
 12 44  1  0  0  0  0
 13 45  1  0  0  0  0
 14 46  1  0  0  0  0
 15 47  1  0  0  0  0
 16 40  1  0  0  0  0
 16 48  1  0  0  0  0
 17 41  1  0  0  0  0
 17 49  1  0  0  0  0
 18 42  1  0  0  0  0
 18 50  1  0  0  0  0
 19 51  1  0  0  0  0
 19 52  1  0  0  0  0
 20 53  1  0  0  0  0
 20 54  1  0  0  0  0
 21 55  1  0  0  0  0
 21 56  1  0  0  0  0
 22 57  1  0  0  0  0
 31  9  1  1  0  0  0
 31 32  1  0  0  0  0
 31 40  1  0  0  0  0
 32 11  1  0  0  0  0
 32 33  1  0  0  0  0
 32 58  1  6  0  0  0
 33 12  1  0  0  0  0
 33 34  1  0  0  0  0
 33 59  1  1  0  0  0
 34 41  1  0  0  0  0
 34 60  1  6  0  0  0
 35  9  1  0  0  0  0
 35 36  1  0  0  0  0
 35 61  1  1  0  0  0
 36 13  1  0  0  0  0
 36 37  1  0  0  0  0
 36 62  1  1  0  0  0
 37 14  1  0  0  0  0
 37 38  1  0  0  0  0
 37 63  1  6  0  0  0
 38 15  1  0  0  0  0
 38 39  1  0  0  0  0
 38 64  1  1  0  0  0
 39 42  1  0  0  0  0
 39 65  1  6  0  0  0
 40 66  1  0  0  0  0
 40 67  1  0  0  0  0
 41 68  1  0  0  0  0
 41 69  1  0  0  0  0
 42 70  1  0  0  0  0
 42 71  1  0  0  0  0
M  CHG  8   1   3   2   3   3   3   4   3   5   3   6   1   7   1  22  -1
M  CHG  8  23  -2  24  -2  25  -2  26  -2  27  -2  28  -2  29  -2  30  -2
M  END
>  <DRUGBANK_ID>
DB09146

>  <SECONDARY_ACCESSION_NUMBERS>
DB06790

>  <COMMON_NAME>
Iron sucrose

>  <CAS_NUMBER>
8047-67-4

>  <UNII>
FZ7NYF5N8L

>  <SYNONYMS>
Ferric hydroxide sucrose complex; Iron oxide saccharated; Iron saccharate; Iron sucrose; Iron sucrose complex; Iron sugar; Iron(III) hydroxide sucrose complex; Saccharated ferric oxide; Saccharated iron; Saccharated iron oxide; Sucroferric oxyhydroxide

$$$$
