
 OpenBabel10282417243D

112114  0  0  1  0  0  0  0  0999 V2000
   -2.8063   -1.1521   -2.0228 C   0  0  0  0  0  0  0  0  0  0  0  0
   -1.5568   -0.4287   -0.8303 C   0  0  0  0  0  0  0  0  0  0  0  0
   -1.6444    1.0195    0.3173 C   0  0  0  0  0  0  0  0  0  0  0  0
   -0.6244   -1.4274   -0.2522 C   0  0  2  0  0  0  0  0  0  0  0  0
    0.7751   -1.1236   -0.4383 N   0  0  0  0  0  0  0  0  0  0  0  0
    1.4985   -0.2630   -1.2359 C   0  0  0  0  0  0  0  0  0  0  0  0
    2.7234   -0.4384   -1.1752 O   0  0  0  0  0  0  0  0  0  0  0  0
    0.9534    1.0164   -2.1163 C   0  0  1  0  0  0  0  0  0  0  0  0
   -0.1213    0.7934   -3.0965 N   0  0  0  0  0  0  0  0  0  0  0  0
   -1.4990    0.7512   -3.0932 C   0  0  0  0  0  0  0  0  0  0  0  0
   -1.6319   -0.0966   -3.8732 O   0  0  0  0  0  0  0  0  0  0  0  0
   -2.9151    1.3248   -2.0045 C   0  0  2  0  0  0  0  0  0  0  0  0
   -3.7078    0.4423   -0.5783 C   0  0  0  0  0  0  0  0  0  0  0  0
   -4.5286    1.4792    0.0384 C   0  0  0  0  0  0  0  0  0  0  0  0
   -5.1451    1.9444   -1.2720 C   0  0  0  0  0  0  0  0  0  0  0  0
   -4.2438    1.6469   -2.4812 N   0  0  0  0  0  0  0  0  0  0  0  0
   -4.7441    1.4928   -3.7542 C   0  0  0  0  0  0  0  0  0  0  0  0
   -5.9570    1.6951   -3.9104 O   0  0  0  0  0  0  0  0  0  0  0  0
   -3.8826    1.0924   -5.0294 C   0  0  2  0  0  0  0  0  0  0  0  0
   -3.5026   -0.3631   -5.3613 C   0  0  0  0  0  0  0  0  0  0  0  0
   -2.2251   -0.2253   -6.2259 C   0  0  0  0  0  0  0  0  0  0  0  0
   -1.7084    1.2192   -6.0438 C   0  0  0  0  0  0  0  0  0  0  0  0
   -2.7136    1.9935   -5.2857 N   0  0  0  0  0  0  0  0  0  0  0  0
    0.3997    2.0862   -1.2495 C   0  0  1  0  0  0  0  0  0  0  0  0
    0.9658    2.6170    0.0088 C   0  0  0  0  0  0  0  0  0  0  0  0
   -0.4942    3.0303   -1.8271 O   0  0  0  0  0  0  0  0  0  0  0  0
   -1.2925   -2.6180   -0.8454 C   0  0  0  0  0  0  0  0  0  0  0  0
   -2.3767   -2.6424   -0.2215 O   0  0  0  0  0  0  0  0  0  0  0  0
   -0.9999   -3.2499   -2.0895 N   0  0  0  0  0  0  0  0  0  0  0  0
    0.2522   -3.0868   -2.7801 C   0  0  0  0  0  0  0  0  0  0  0  0
   -0.0773   -2.9565   -4.2535 C   0  0  0  0  0  0  0  0  0  0  0  0
   -1.2407   -3.8949   -4.4721 C   0  0  0  0  0  0  0  0  0  0  0  0
   -1.9582   -3.9659   -3.0918 C   0  0  1  0  0  0  0  0  0  0  0  0
   -2.2781   -5.4478   -2.7558 C   0  0  0  0  0  0  0  0  0  0  0  0
   -2.2039   -6.3562   -3.5840 O   0  0  0  0  0  0  0  0  0  0  0  0
   -2.8082   -5.7703   -1.5313 N   0  0  0  0  0  0  0  0  0  0  0  0
   -3.0900   -4.8033   -0.4926 C   0  0  1  0  0  0  0  0  0  0  0  0
   -4.5446   -4.4061   -0.1053 C   0  0  1  0  0  0  0  0  0  0  0  0
   -5.1854   -5.5251    0.5743 C   0  0  0  0  0  0  0  0  0  0  0  0
   -4.6643   -3.3140    0.8179 O   0  0  0  0  0  0  0  0  0  0  0  0
   -1.9968   -4.9029    0.7330 C   0  0  0  0  0  0  0  0  0  0  0  0
   -1.0591   -4.1497    1.0164 O   0  0  0  0  0  0  0  0  0  0  0  0
   -2.0583   -5.9568    1.5806 N   0  0  0  0  0  0  0  0  0  0  0  0
   -2.9310   -7.1011    1.4729 C   0  0  1  0  0  0  0  0  0  0  0  0
   -2.1321   -8.3214    1.0731 C   0  0  0  0  0  0  0  0  0  0  0  0
   -1.2155   -8.7613    2.1870 C   0  0  0  0  0  0  0  0  0  0  0  0
   -1.9902   -9.0712    3.4468 C   0  0  0  0  0  0  0  0  0  0  0  0
   -3.0435  -10.0422    3.1839 N   0  0  0  0  0  0  0  0  0  0  0  0
   -3.1688  -11.0999    4.0017 C   0  0  0  0  0  0  0  0  0  0  0  0
   -4.1091  -11.9922    3.6713 N   0  0  0  0  0  0  0  0  0  0  0  0
   -2.3758  -11.2551    4.9981 N   0  0  0  0  0  0  0  0  0  0  0  0
   -3.9815   -7.1090    2.6807 C   0  0  0  0  0  0  0  0  0  0  0  0
   -5.2327   -7.5719    2.4378 O   0  0  0  0  0  0  0  0  0  0  0  0
   -3.7450   -6.6238    3.7829 O   0  0  0  0  0  0  0  0  0  0  0  0
   -3.6115   -1.8099   -1.6767 H   0  0  0  0  0  0  0  0  0  0  0  0
   -2.2712   -1.6850   -2.7920 H   0  0  0  0  0  0  0  0  0  0  0  0
   -3.3968   -0.5099   -2.6703 H   0  0  0  0  0  0  0  0  0  0  0  0
   -0.8596   -0.2301   -1.5723 H   0  0  0  0  0  0  0  0  0  0  0  0
   -2.3164    0.9946    1.1774 H   0  0  0  0  0  0  0  0  0  0  0  0
   -0.7307    1.1835    0.8716 H   0  0  0  0  0  0  0  0  0  0  0  0
   -1.8975    1.9946   -0.1627 H   0  0  0  0  0  0  0  0  0  0  0  0
   -0.8326   -1.4047    0.8285 H   0  0  0  0  0  0  0  0  0  0  0  0
    1.3292   -1.8215    0.0431 H   0  0  0  0  0  0  0  0  0  0  0  0
    1.7865    1.3892   -2.7112 H   0  0  0  0  0  0  0  0  0  0  0  0
    0.1147    0.0272   -3.7341 H   0  0  0  0  0  0  0  0  0  0  0  0
   -2.6064    2.3441   -1.7992 H   0  0  0  0  0  0  0  0  0  0  0  0
   -4.3905   -0.3910   -0.8043 H   0  0  0  0  0  0  0  0  0  0  0  0
   -3.2240   -0.1348    0.2321 H   0  0  0  0  0  0  0  0  0  0  0  0
   -5.1266    0.9805    0.8175 H   0  0  0  0  0  0  0  0  0  0  0  0
   -3.9388    2.2465    0.5483 H   0  0  0  0  0  0  0  0  0  0  0  0
   -6.0992    1.4299   -1.3728 H   0  0  0  0  0  0  0  0  0  0  0  0
   -5.2213    3.0214   -1.1743 H   0  0  0  0  0  0  0  0  0  0  0  0
   -4.5484    1.3572   -5.8535 H   0  0  0  0  0  0  0  0  0  0  0  0
   -3.3502   -1.0403   -4.5189 H   0  0  0  0  0  0  0  0  0  0  0  0
   -4.2948   -0.9182   -5.8656 H   0  0  0  0  0  0  0  0  0  0  0  0
   -1.4417   -0.9457   -5.9440 H   0  0  0  0  0  0  0  0  0  0  0  0
   -2.4433   -0.4485   -7.2653 H   0  0  0  0  0  0  0  0  0  0  0  0
   -0.7271    1.2572   -5.5384 H   0  0  0  0  0  0  0  0  0  0  0  0
   -1.4960    1.6870   -7.0047 H   0  0  0  0  0  0  0  0  0  0  0  0
   -2.3189    2.3306   -4.4127 H   0  0  0  0  0  0  0  0  0  0  0  0
   -0.2183    1.3663   -0.8392 H   0  0  0  0  0  0  0  0  0  0  0  0
    1.7225    3.3344   -0.2539 H   0  0  0  0  0  0  0  0  0  0  0  0
    0.1574    3.1304    0.5558 H   0  0  0  0  0  0  0  0  0  0  0  0
    1.3252    1.8006    0.6434 H   0  0  0  0  0  0  0  0  0  0  0  0
   -0.1598    3.2921   -2.6969 H   0  0  0  0  0  0  0  0  0  0  0  0
    0.8174   -3.9984   -2.5878 H   0  0  0  0  0  0  0  0  0  0  0  0
    0.8104   -2.2264   -2.4615 H   0  0  0  0  0  0  0  0  0  0  0  0
   -0.3863   -1.9409   -4.4767 H   0  0  0  0  0  0  0  0  0  0  0  0
    0.7776   -3.1663   -4.9005 H   0  0  0  0  0  0  0  0  0  0  0  0
   -1.8942   -3.5394   -5.2844 H   0  0  0  0  0  0  0  0  0  0  0  0
   -0.8519   -4.8635   -4.7988 H   0  0  0  0  0  0  0  0  0  0  0  0
   -2.9323   -3.4595   -3.2026 H   0  0  0  0  0  0  0  0  0  0  0  0
   -2.8376   -6.7601   -1.3647 H   0  0  0  0  0  0  0  0  0  0  0  0
   -3.0316   -3.9855   -1.1642 H   0  0  0  0  0  0  0  0  0  0  0  0
   -5.1415   -4.1642   -0.9877 H   0  0  0  0  0  0  0  0  0  0  0  0
   -4.6257   -5.5081    1.4986 H   0  0  0  0  0  0  0  0  0  0  0  0
   -6.2042   -5.3858    0.9015 H   0  0  0  0  0  0  0  0  0  0  0  0
   -5.0971   -6.4325   -0.0299 H   0  0  0  0  0  0  0  0  0  0  0  0
   -4.0113   -3.4216    1.5383 H   0  0  0  0  0  0  0  0  0  0  0  0
   -1.3923   -5.8786    2.3488 H   0  0  0  0  0  0  0  0  0  0  0  0
   -3.4550   -6.9623    0.5522 H   0  0  0  0  0  0  0  0  0  0  0  0
   -2.8258   -9.1057    0.7536 H   0  0  0  0  0  0  0  0  0  0  0  0
   -1.5193   -8.0946    0.1841 H   0  0  0  0  0  0  0  0  0  0  0  0
   -0.6344   -9.6277    1.8646 H   0  0  0  0  0  0  0  0  0  0  0  0
   -0.5039   -7.9553    2.4039 H   0  0  0  0  0  0  0  0  0  0  0  0
   -1.2954   -9.3754    4.2270 H   0  0  0  0  0  0  0  0  0  0  0  0
   -2.3800   -8.1645    3.8792 H   0  0  0  0  0  0  0  0  0  0  0  0
   -3.8001   -9.8271    2.5488 H   0  0  0  0  0  0  0  0  0  0  0  0
   -4.1857  -12.8420    4.2097 H   0  0  0  0  0  0  0  0  0  0  0  0
   -4.7363  -11.8905    2.8895 H   0  0  0  0  0  0  0  0  0  0  0  0
   -2.5752  -12.1167    5.4891 H   0  0  0  0  0  0  0  0  0  0  0  0
   -5.6478   -7.4574    1.5634 H   0  0  0  0  0  0  0  0  0  0  0  0
  1  2  1  0  0  0  0
  1 55  1  0  0  0  0
  1 56  1  0  0  0  0
  1 57  1  0  0  0  0
  2  3  1  0  0  0  0
  2 58  1  0  0  0  0
  3 59  1  0  0  0  0
  3 60  1  0  0  0  0
  3 61  1  0  0  0  0
  4 27  1  0  0  0  0
  4 62  1  1  0  0  0
  4  5  1  0  0  0  0
  4  2  1  0  0  0  0
  5  6  1  0  0  0  0
  5 63  1  0  0  0  0
  6  7  2  0  0  0  0
  8  6  1  0  0  0  0
  8  9  1  0  0  0  0
  8 24  1  0  0  0  0
  8 64  1  6  0  0  0
  9 10  1  0  0  0  0
  9 65  1  0  0  0  0
 10 11  2  0  0  0  0
 12 10  1  0  0  0  0
 12 13  1  0  0  0  0
 12 16  1  0  0  0  0
 12 66  1  1  0  0  0
 13 14  1  0  0  0  0
 13 67  1  0  0  0  0
 13 68  1  0  0  0  0
 14 15  1  0  0  0  0
 14 69  1  0  0  0  0
 14 70  1  0  0  0  0
 15 16  1  0  0  0  0
 15 71  1  0  0  0  0
 15 72  1  0  0  0  0
 16 17  1  0  0  0  0
 17 18  2  0  0  0  0
 19 17  1  0  0  0  0
 19 20  1  0  0  0  0
 19 23  1  0  0  0  0
 19 73  1  6  0  0  0
 20 21  1  0  0  0  0
 20 74  1  0  0  0  0
 20 75  1  0  0  0  0
 21 22  1  0  0  0  0
 21 76  1  0  0  0  0
 21 77  1  0  0  0  0
 22 23  1  0  0  0  0
 22 78  1  0  0  0  0
 22 79  1  0  0  0  0
 23 80  1  0  0  0  0
 24 25  1  0  0  0  0
 24 26  1  0  0  0  0
 24 81  1  1  0  0  0
 25 82  1  0  0  0  0
 25 83  1  0  0  0  0
 25 84  1  0  0  0  0
 26 85  1  0  0  0  0
 27 28  2  0  0  0  0
 27 29  1  0  0  0  0
 29 30  1  0  0  0  0
 30 31  1  0  0  0  0
 30 86  1  0  0  0  0
 30 87  1  0  0  0  0
 31 32  1  0  0  0  0
 31 88  1  0  0  0  0
 31 89  1  0  0  0  0
 32 90  1  0  0  0  0
 32 91  1  0  0  0  0
 33 32  1  0  0  0  0
 33 29  1  0  0  0  0
 33 92  1  6  0  0  0
 33 34  1  0  0  0  0
 34 35  2  0  0  0  0
 34 36  1  0  0  0  0
 36 93  1  0  0  0  0
 37 36  1  0  0  0  0
 37 38  1  0  0  0  0
 37 41  1  0  0  0  0
 37 94  1  6  0  0  0
 38 39  1  0  0  0  0
 38 40  1  0  0  0  0
 38 95  1  6  0  0  0
 39 96  1  0  0  0  0
 39 97  1  0  0  0  0
 39 98  1  0  0  0  0
 40 99  1  0  0  0  0
 41 42  2  0  0  0  0
 41 43  1  0  0  0  0
 43100  1  0  0  0  0
 44 43  1  0  0  0  0
 44 45  1  0  0  0  0
 44 52  1  0  0  0  0
 44101  1  6  0  0  0
 45 46  1  0  0  0  0
 45102  1  0  0  0  0
 45103  1  0  0  0  0
 46 47  1  0  0  0  0
 46104  1  0  0  0  0
 46105  1  0  0  0  0
 47 48  1  0  0  0  0
 47106  1  0  0  0  0
 47107  1  0  0  0  0
 48 49  1  0  0  0  0
 48108  1  0  0  0  0
 49 50  1  0  0  0  0
 49 51  2  0  0  0  0
 50109  1  0  0  0  0
 50110  1  0  0  0  0
 51111  1  0  0  0  0
 52 53  1  0  0  0  0
 52 54  2  0  0  0  0
 53112  1  0  0  0  0
M  END
>  <DRUGBANK_ID>
DB17872

>  <COMMON_NAME>
Pro-Pro-Thr-Val-Pro-Thr-Arg

>  <CAS_NUMBER>
1616927-79-7

>  <UNII>
CU50CY5QP5

>  <SYNONYMS>
L-arginine, l-prolyl-l-prolyl-l-threonyl-l-valyl-l-prolyl-l-threonyl-

$$$$
