
 OpenBabel10282417213D

 39 41  0  0  0  0  0  0  0  0999 V2000
    1.0263    0.1479   -0.0873 C   0  0  0  0  0  0  0  0  0  0  0  0
    0.2496   -1.0944   -0.4134 C   0  0  0  0  0  0  0  0  0  0  0  0
   -0.8147   -1.3382    0.1496 O   0  0  0  0  0  0  0  0  0  0  0  0
    0.8286   -1.8134   -1.4171 O   0  0  0  0  0  0  0  0  0  0  0  0
    0.2300   -3.0834   -1.8372 C   0  0  3  0  0  0  0  0  0  0  0  0
   -0.2386   -3.9270   -0.6179 C   0  0  0  0  0  0  0  0  0  0  0  0
    0.1384   -3.6533    0.5320 O   0  0  0  0  0  0  0  0  0  0  0  0
   -0.9638   -5.0972   -0.8065 N   0  0  0  0  0  0  0  0  0  0  0  0
   -0.7985   -5.9110   -1.9530 C   0  0  0  0  0  0  0  0  0  0  0  0
   -0.5122   -7.2770   -1.7590 C   0  0  0  0  0  0  0  0  0  0  0  0
   -0.4361   -8.1643   -2.8280 C   0  0  0  0  0  0  0  0  0  0  0  0
   -0.6487   -7.6920   -4.1143 C   0  0  0  0  0  0  0  0  0  0  0  0
   -0.8968   -6.3356   -4.3388 C   0  0  0  0  0  0  0  0  0  0  0  0
   -0.9489   -5.4280   -3.2605 C   0  0  0  0  0  0  0  0  0  0  0  0
   -1.2768   -3.9955   -3.5287 C   0  0  0  0  0  0  0  0  0  0  0  0
   -0.7894   -2.9750   -2.9041 N   0  0  0  0  0  0  0  0  0  0  0  0
   -2.2989   -3.7170   -4.5934 C   0  0  0  0  0  0  0  0  0  0  0  0
   -1.9702   -2.9385   -5.7087 C   0  0  0  0  0  0  0  0  0  0  0  0
   -2.9746   -2.5430   -6.5995 C   0  0  0  0  0  0  0  0  0  0  0  0
   -4.2864   -2.9842   -6.4189 C   0  0  0  0  0  0  0  0  0  0  0  0
   -4.5924   -3.8451   -5.3651 C   0  0  0  0  0  0  0  0  0  0  0  0
   -3.6081   -4.1873   -4.4333 C   0  0  0  0  0  0  0  0  0  0  0  0
   -0.6028   -8.7938   -5.4335 Cl  0  0  0  0  0  0  0  0  0  0  0  0
   -1.5196   -5.6667    0.4129 C   0  0  0  0  0  0  0  0  0  0  0  0
    0.7640    0.4661    0.9294 H   0  0  0  0  0  0  0  0  0  0  0  0
    0.7323    0.9329   -0.7864 H   0  0  0  0  0  0  0  0  0  0  0  0
    2.1077   -0.0098   -0.1063 H   0  0  0  0  0  0  0  0  0  0  0  0
    1.0853   -3.6325   -2.2530 H   0  0  0  0  0  0  0  0  0  0  0  0
   -0.3129   -7.6662   -0.7620 H   0  0  0  0  0  0  0  0  0  0  0  0
   -0.2178   -9.2129   -2.6405 H   0  0  0  0  0  0  0  0  0  0  0  0
   -1.0616   -6.0007   -5.3605 H   0  0  0  0  0  0  0  0  0  0  0  0
   -0.9449   -2.6235   -5.8815 H   0  0  0  0  0  0  0  0  0  0  0  0
   -2.7410   -1.8743   -7.4253 H   0  0  0  0  0  0  0  0  0  0  0  0
   -5.0722   -2.6502   -7.0938 H   0  0  0  0  0  0  0  0  0  0  0  0
   -5.6061   -4.2231   -5.2532 H   0  0  0  0  0  0  0  0  0  0  0  0
   -3.8798   -4.7884   -3.5703 H   0  0  0  0  0  0  0  0  0  0  0  0
   -0.7519   -5.7367    1.1899 H   0  0  0  0  0  0  0  0  0  0  0  0
   -2.3014   -4.9803    0.7571 H   0  0  0  0  0  0  0  0  0  0  0  0
   -1.9819   -6.6441    0.2605 H   0  0  0  0  0  0  0  0  0  0  0  0
  1  2  1  0  0  0  0
  1 25  1  0  0  0  0
  1 26  1  0  0  0  0
  1 27  1  0  0  0  0
  2  3  2  0  0  0  0
  2  4  1  0  0  0  0
  4  5  1  0  0  0  0
  5  6  1  0  0  0  0
  5 16  1  0  0  0  0
  5 28  1  0  0  0  0
  6  7  2  0  0  0  0
  6  8  1  0  0  0  0
  8  9  1  0  0  0  0
  8 24  1  0  0  0  0
  9 10  2  0  0  0  0
  9 14  1  0  0  0  0
 10 11  1  0  0  0  0
 10 29  1  0  0  0  0
 11 12  2  0  0  0  0
 11 30  1  0  0  0  0
 12 13  1  0  0  0  0
 12 23  1  0  0  0  0
 13 14  2  0  0  0  0
 13 31  1  0  0  0  0
 14 15  1  0  0  0  0
 15 16  2  0  0  0  0
 15 17  1  0  0  0  0
 17 18  2  0  0  0  0
 17 22  1  0  0  0  0
 18 19  1  0  0  0  0
 18 32  1  0  0  0  0
 19 20  2  0  0  0  0
 19 33  1  0  0  0  0
 20 21  1  0  0  0  0
 20 34  1  0  0  0  0
 21 22  2  0  0  0  0
 21 35  1  0  0  0  0
 22 36  1  0  0  0  0
 24 37  1  0  0  0  0
 24 38  1  0  0  0  0
 24 39  1  0  0  0  0
M  END
>  <DRUGBANK_ID>
DB14671

>  <SECONDARY_ACCESSION_NUMBERS>
DBSALT002270

>  <COMMON_NAME>
Temazepam acetate

>  <CAS_NUMBER>
18818-64-9

>  <UNII>
9F3H3E4BIM

$$$$
