177
 OpenBabel10282417103D

 61 63  0  0  1  0  0  0  0  0999 V2000
    0.8476    0.0493    0.1082 O   0  0  0  0  0  0  0  0  0  0  0  0
   -0.6626   -2.8044    1.4989 O   0  0  0  0  0  0  0  0  0  0  0  0
    1.0137   -1.8594   -1.0185 O   0  0  0  0  0  0  0  0  0  0  0  0
   -1.7344   -0.8585    0.9124 N   0  0  0  0  0  0  0  0  0  0  0  0
   -5.9958   -4.4842    5.1788 N   0  0  0  0  0  0  0  0  0  0  0  0
   -5.3156   -2.3616    5.5741 N   0  0  0  0  0  0  0  0  0  0  0  0
   -4.7448   -4.3883    5.6546 N   0  0  0  0  0  0  0  0  0  0  0  0
   -4.3044   -3.1513    5.9097 N   0  0  0  0  0  0  0  0  0  0  0  0
   -1.2559   -1.0397   -0.4828 C   0  0  1  0  0  0  0  0  0  0  0  0
   -1.7760    0.0826   -1.4515 C   0  0  0  0  0  0  0  0  0  0  0  0
   -2.8115    0.1188    1.0758 C   0  0  0  0  0  0  0  0  0  0  0  0
   -1.3342   -1.8274    1.8578 C   0  0  0  0  0  0  0  0  0  0  0  0
   -1.1788   -0.0013   -2.8406 C   0  0  0  0  0  0  0  0  0  0  0  0
   -3.3178    0.0852   -1.6995 C   0  0  0  0  0  0  0  0  0  0  0  0
   -1.7464   -1.7707    3.3435 C   0  0  0  0  0  0  0  0  0  0  0  0
    0.3011   -1.0508   -0.4774 C   0  0  0  0  0  0  0  0  0  0  0  0
   -4.1871   -0.4169    1.3746 C   0  0  0  0  0  0  0  0  0  0  0  0
   -1.1953   -0.6115    4.1878 C   0  0  0  0  0  0  0  0  0  0  0  0
   -1.5959    0.7646    3.7159 C   0  0  0  0  0  0  0  0  0  0  0  0
   -4.3881   -1.7895    1.5217 C   0  0  0  0  0  0  0  0  0  0  0  0
   -5.1823    0.4886    1.7874 C   0  0  0  0  0  0  0  0  0  0  0  0
   -6.3828   -1.3507    2.7837 C   0  0  0  0  0  0  0  0  0  0  0  0
   -5.4622   -2.2512    2.2495 C   0  0  0  0  0  0  0  0  0  0  0  0
   -6.2059    0.0257    2.5942 C   0  0  0  0  0  0  0  0  0  0  0  0
   -3.1109    0.9127    3.8609 C   0  0  0  0  0  0  0  0  0  0  0  0
   -7.5815   -1.8273    3.4523 C   0  0  0  0  0  0  0  0  0  0  0  0
   -7.5734   -2.6837    4.5670 C   0  0  0  0  0  0  0  0  0  0  0  0
   -8.8078   -1.4196    2.8916 C   0  0  0  0  0  0  0  0  0  0  0  0
   -8.7969   -3.0887    5.1113 C   0  0  0  0  0  0  0  0  0  0  0  0
  -10.0103   -1.7779    3.4737 C   0  0  0  0  0  0  0  0  0  0  0  0
   -6.3297   -3.1816    5.1341 C   0  0  0  0  0  0  0  0  0  0  0  0
  -10.0043   -2.6294    4.5720 C   0  0  0  0  0  0  0  0  0  0  0  0
    1.8125   -0.0981    0.0049 H   0  0  0  0  0  0  0  0  0  0  0  0
   -4.1623   -5.2056    5.8152 H   0  0  0  0  0  0  0  0  0  0  0  0
   -1.5901   -2.0235   -0.8303 H   0  0  0  0  0  0  0  0  0  0  0  0
   -1.4441    1.0544   -1.0450 H   0  0  0  0  0  0  0  0  0  0  0  0
   -2.5248    0.8796    1.7540 H   0  0  0  0  0  0  0  0  0  0  0  0
   -2.8292    0.8825    0.3116 H   0  0  0  0  0  0  0  0  0  0  0  0
   -1.5112   -0.9232   -3.3220 H   0  0  0  0  0  0  0  0  0  0  0  0
   -1.5369    0.8525   -3.4272 H   0  0  0  0  0  0  0  0  0  0  0  0
   -0.0902    0.0394   -2.8256 H   0  0  0  0  0  0  0  0  0  0  0  0
   -3.9953    0.2062   -0.8621 H   0  0  0  0  0  0  0  0  0  0  0  0
   -3.5937    0.9480   -2.3108 H   0  0  0  0  0  0  0  0  0  0  0  0
   -3.6415   -0.8586   -2.1337 H   0  0  0  0  0  0  0  0  0  0  0  0
   -2.8237   -1.8936    3.4488 H   0  0  0  0  0  0  0  0  0  0  0  0
   -1.3714   -2.6962    3.8116 H   0  0  0  0  0  0  0  0  0  0  0  0
   -1.5555   -0.7144    5.2157 H   0  0  0  0  0  0  0  0  0  0  0  0
   -0.1054   -0.6659    4.1857 H   0  0  0  0  0  0  0  0  0  0  0  0
   -1.1379    1.6210    4.2022 H   0  0  0  0  0  0  0  0  0  0  0  0
   -1.1341    0.8300    2.7227 H   0  0  0  0  0  0  0  0  0  0  0  0
   -3.6391   -2.5142    1.2207 H   0  0  0  0  0  0  0  0  0  0  0  0
   -5.0546    1.5650    1.6811 H   0  0  0  0  0  0  0  0  0  0  0  0
   -5.5196   -3.3148    2.4631 H   0  0  0  0  0  0  0  0  0  0  0  0
   -6.8241    0.7350    3.1453 H   0  0  0  0  0  0  0  0  0  0  0  0
   -3.4704    1.0919    4.8671 H   0  0  0  0  0  0  0  0  0  0  0  0
   -3.4932    1.7236    3.2313 H   0  0  0  0  0  0  0  0  0  0  0  0
   -3.5971   -0.0279    3.6097 H   0  0  0  0  0  0  0  0  0  0  0  0
   -8.8111   -0.8225    1.9784 H   0  0  0  0  0  0  0  0  0  0  0  0
   -8.8130   -3.7556    5.9692 H   0  0  0  0  0  0  0  0  0  0  0  0
  -10.9386   -1.3925    3.0638 H   0  0  0  0  0  0  0  0  0  0  0  0
  -10.9477   -2.9469    5.0042 H   0  0  0  0  0  0  0  0  0  0  0  0
  1 16  1  0  0  0  0
  1 33  1  0  0  0  0
  2 12  2  0  0  0  0
  3 16  2  0  0  0  0
  4 11  1  0  0  0  0
  4 12  1  0  0  0  0
  5  7  1  0  0  0  0
  5 31  2  0  0  0  0
  6  8  2  0  0  0  0
  6 31  1  0  0  0  0
  7  8  1  0  0  0  0
  7 34  1  0  0  0  0
  9  4  1  0  0  0  0
  9 10  1  0  0  0  0
  9 16  1  0  0  0  0
  9 35  1  6  0  0  0
 10 13  1  0  0  0  0
 10 14  1  0  0  0  0
 10 36  1  0  0  0  0
 11 17  1  0  0  0  0
 11 37  1  0  0  0  0
 11 38  1  0  0  0  0
 12 15  1  0  0  0  0
 13 39  1  0  0  0  0
 13 40  1  0  0  0  0
 13 41  1  0  0  0  0
 14 42  1  0  0  0  0
 14 43  1  0  0  0  0
 14 44  1  0  0  0  0
 15 18  1  0  0  0  0
 15 45  1  0  0  0  0
 15 46  1  0  0  0  0
 17 20  2  0  0  0  0
 17 21  1  0  0  0  0
 18 19  1  0  0  0  0
 18 47  1  0  0  0  0
 18 48  1  0  0  0  0
 19 25  1  0  0  0  0
 19 49  1  0  0  0  0
 19 50  1  0  0  0  0
 20 23  1  0  0  0  0
 20 51  1  0  0  0  0
 21 24  2  0  0  0  0
 21 52  1  0  0  0  0
 22 23  2  0  0  0  0
 22 24  1  0  0  0  0
 22 26  1  0  0  0  0
 23 53  1  0  0  0  0
 24 54  1  0  0  0  0
 25 55  1  0  0  0  0
 25 56  1  0  0  0  0
 25 57  1  0  0  0  0
 26 27  1  0  0  0  0
 26 28  2  0  0  0  0
 27 29  2  0  0  0  0
 27 31  1  0  0  0  0
 28 30  1  0  0  0  0
 28 58  1  0  0  0  0
 29 32  1  0  0  0  0
 29 59  1  0  0  0  0
 30 32  2  0  0  0  0
 30 60  1  0  0  0  0
 32 61  1  0  0  0  0
M  END
>  <DRUGBANK_ID>
DB00177

>  <SECONDARY_ACCESSION_NUMBERS>
APRD00133

>  <COMMON_NAME>
Valsartan

>  <CAS_NUMBER>
137862-53-4

>  <UNII>
80M03YXJ7I

>  <SYNONYMS>
(S)-N-Valeryl-N-{[2'-(1H-tetrazol-5-yl)biphenyl-4-yl]-methyl}-valine; N-(P-(O-1H-Tetrazol-5-ylphenyl)benzyl)-N-valeryl-L-valine; N-pentanoyl-N-{[2'-(1H-tetrazol-5-yl)biphenyl-4-yl]methyl}-L-valine; Valsartan

$$$$
