
 OpenBabel10282417223D

 54 58  0  0  0  0  0  0  0  0999 V2000
    0.9743   -0.2098    0.0027 N   0  0  0  0  0  0  0  0  0  0  0  0
    0.3736   -1.4922    0.9156 S   0  0  0  0  0  0  0  0  0  0  0  0
    1.0310   -1.3980    2.1907 O   0  0  0  0  0  0  0  0  0  0  0  0
   -1.0693   -1.4293    0.7855 O   0  0  0  0  0  0  0  0  0  0  0  0
    0.9222   -2.9559    0.1176 C   0  0  0  0  0  0  0  0  0  0  0  0
    0.3871   -4.1456    0.5819 C   0  0  0  0  0  0  0  0  0  0  0  0
    0.6930   -5.3538    0.0570 N   0  0  0  0  0  0  0  0  0  0  0  0
    1.5611   -5.3615   -0.9858 C   0  0  0  0  0  0  0  0  0  0  0  0
    2.1692   -4.2266   -1.5255 C   0  0  0  0  0  0  0  0  0  0  0  0
    1.8374   -2.9905   -0.9395 C   0  0  0  0  0  0  0  0  0  0  0  0
    3.0690   -4.3549   -2.6697 C   0  0  0  0  0  0  0  0  0  0  0  0
    2.5711   -4.9482   -3.7597 N   0  0  0  0  0  0  0  0  0  0  0  0
    3.3779   -5.0835   -4.8255 C   0  0  0  0  0  0  0  0  0  0  0  0
    2.8294   -5.7056   -5.9223 N   0  0  0  0  0  0  0  0  0  0  0  0
    1.4473   -6.1091   -6.0998 C   0  0  0  0  0  0  0  0  0  0  0  0
    0.8154   -5.3353   -7.2510 C   0  0  0  0  0  0  0  0  0  0  0  0
    0.0904   -6.0184   -8.1770 N   0  0  0  0  0  0  0  0  0  0  0  0
   -0.4553   -5.3036   -9.1904 C   0  0  0  0  0  0  0  0  0  0  0  0
   -0.2996   -3.9358   -9.3464 C   0  0  0  0  0  0  0  0  0  0  0  0
    0.4510   -3.2520   -8.4018 C   0  0  0  0  0  0  0  0  0  0  0  0
    0.9963   -3.9538   -7.3334 C   0  0  0  0  0  0  0  0  0  0  0  0
    4.7122   -4.5752   -4.8429 C   0  0  0  0  0  0  0  0  0  0  0  0
    5.6641   -4.5786   -5.9396 C   0  0  0  0  0  0  0  0  0  0  0  0
    6.9730   -4.1120   -5.7335 C   0  0  0  0  0  0  0  0  0  0  0  0
    7.3632   -3.6293   -4.4979 C   0  0  0  0  0  0  0  0  0  0  0  0
    6.4367   -3.5889   -3.4588 C   0  0  0  0  0  0  0  0  0  0  0  0
    5.1244   -4.0279   -3.6098 C   0  0  0  0  0  0  0  0  0  0  0  0
    4.3211   -3.8999   -2.5464 N   0  0  0  0  0  0  0  0  0  0  0  0
    5.3568   -5.1025   -7.2827 C   0  0  0  0  0  0  0  0  0  0  0  0
    5.9658   -6.2906   -7.7162 C   0  0  0  0  0  0  0  0  0  0  0  0
    5.5750   -6.9004   -8.9071 C   0  0  0  0  0  0  0  0  0  0  0  0
    4.5339   -6.3594   -9.6560 C   0  0  0  0  0  0  0  0  0  0  0  0
    3.9036   -5.1939   -9.2298 C   0  0  0  0  0  0  0  0  0  0  0  0
    4.3665   -4.5233   -8.0949 C   0  0  0  0  0  0  0  0  0  0  0  0
    0.5173    0.6464    0.3339 H   0  0  0  0  0  0  0  0  0  0  0  0
    1.9852   -0.1254    0.1029 H   0  0  0  0  0  0  0  0  0  0  0  0
   -0.3227   -4.1715    1.4057 H   0  0  0  0  0  0  0  0  0  0  0  0
    1.7661   -6.3508   -1.3926 H   0  0  0  0  0  0  0  0  0  0  0  0
    2.2758   -2.0796   -1.3362 H   0  0  0  0  0  0  0  0  0  0  0  0
    3.4331   -6.0526   -6.6488 H   0  0  0  0  0  0  0  0  0  0  0  0
    1.4490   -7.1758   -6.3576 H   0  0  0  0  0  0  0  0  0  0  0  0
    0.8394   -5.9846   -5.2008 H   0  0  0  0  0  0  0  0  0  0  0  0
   -1.0427   -5.8775   -9.9026 H   0  0  0  0  0  0  0  0  0  0  0  0
   -0.7538   -3.4141  -10.1811 H   0  0  0  0  0  0  0  0  0  0  0  0
    0.6163   -2.1827   -8.4895 H   0  0  0  0  0  0  0  0  0  0  0  0
    1.5909   -3.4376   -6.5866 H   0  0  0  0  0  0  0  0  0  0  0  0
    7.6944   -4.1404   -6.5491 H   0  0  0  0  0  0  0  0  0  0  0  0
    8.3813   -3.2794   -4.3479 H   0  0  0  0  0  0  0  0  0  0  0  0
    6.7598   -3.2025   -2.4928 H   0  0  0  0  0  0  0  0  0  0  0  0
    6.7246   -6.7687   -7.0995 H   0  0  0  0  0  0  0  0  0  0  0  0
    6.0562   -7.8207   -9.2256 H   0  0  0  0  0  0  0  0  0  0  0  0
    4.2012   -6.8536  -10.5647 H   0  0  0  0  0  0  0  0  0  0  0  0
    3.0144   -4.8406   -9.7482 H   0  0  0  0  0  0  0  0  0  0  0  0
    3.8544   -3.6197   -7.7697 H   0  0  0  0  0  0  0  0  0  0  0  0
  1  2  1  0  0  0  0
  1 35  1  0  0  0  0
  1 36  1  0  0  0  0
  2  3  2  0  0  0  0
  2  4  2  0  0  0  0
  2  5  1  0  0  0  0
  5  6  2  0  0  0  0
  5 10  1  0  0  0  0
  6  7  1  0  0  0  0
  6 37  1  0  0  0  0
  7  8  2  0  0  0  0
  8  9  1  0  0  0  0
  8 38  1  0  0  0  0
  9 10  2  0  0  0  0
  9 11  1  0  0  0  0
 10 39  1  0  0  0  0
 11 12  2  0  0  0  0
 11 28  1  0  0  0  0
 12 13  1  0  0  0  0
 13 14  1  0  0  0  0
 13 22  2  0  0  0  0
 14 15  1  0  0  0  0
 14 40  1  0  0  0  0
 15 16  1  0  0  0  0
 15 41  1  0  0  0  0
 15 42  1  0  0  0  0
 16 17  2  0  0  0  0
 16 21  1  0  0  0  0
 17 18  1  0  0  0  0
 18 19  2  0  0  0  0
 18 43  1  0  0  0  0
 19 20  1  0  0  0  0
 19 44  1  0  0  0  0
 20 21  2  0  0  0  0
 20 45  1  0  0  0  0
 21 46  1  0  0  0  0
 22 23  1  0  0  0  0
 22 27  1  0  0  0  0
 23 24  2  0  0  0  0
 23 29  1  0  0  0  0
 24 25  1  0  0  0  0
 24 47  1  0  0  0  0
 25 26  2  0  0  0  0
 25 48  1  0  0  0  0
 26 27  1  0  0  0  0
 26 49  1  0  0  0  0
 27 28  2  0  0  0  0
 29 30  2  0  0  0  0
 29 34  1  0  0  0  0
 30 31  1  0  0  0  0
 30 50  1  0  0  0  0
 31 32  2  0  0  0  0
 31 51  1  0  0  0  0
 32 33  1  0  0  0  0
 32 52  1  0  0  0  0
 33 34  2  0  0  0  0
 33 53  1  0  0  0  0
 34 54  1  0  0  0  0
M  END
>  <DRUGBANK_ID>
DB15047

>  <COMMON_NAME>
BMS-919373

>  <CAS_NUMBER>
1272353-82-8

>  <UNII>
NGB50MQK8N

$$$$
