
 OpenBabel10282417233D

 38 38  0  0  1  0  0  0  0  0999 V2000
    2.5039    1.8391    0.1324 C   0  0  0  0  0  0  0  0  0  0  0  0
    1.1750    1.1488    0.2004 C   0  0  0  0  0  0  0  0  0  0  0  0
   -0.0219    1.7326    0.1055 C   0  0  0  0  0  0  0  0  0  0  0  0
   -0.1726    3.2140   -0.0882 C   0  0  0  0  0  0  0  0  0  0  0  0
   -1.2633    0.9113    0.1563 C   0  0  0  0  0  0  0  0  0  0  0  0
   -2.3456    1.4331   -0.0294 O   0  0  0  0  0  0  0  0  0  0  0  0
   -1.1404   -0.5870    0.3839 C   0  0  0  0  0  0  0  0  0  0  0  0
   -2.4784   -1.3129    0.1282 C   0  0  0  0  0  0  0  0  0  0  0  0
   -2.6422   -2.1226   -1.2018 C   0  0  0  0  0  0  0  0  0  0  0  0
   -1.5764   -3.1952   -1.4397 C   0  0  1  0  0  0  0  0  0  0  0  0
   -1.6996   -4.1688   -0.2016 C   0  0  0  0  0  0  0  0  0  0  0  0
   -1.9149   -3.9844   -2.5923 O   0  0  0  0  0  0  0  0  0  0  0  0
   -0.1974   -2.5154   -1.9566 C   0  0  0  0  0  0  0  0  0  0  0  0
   -0.1715   -1.1599   -2.2216 N   0  0  0  0  0  0  0  0  0  0  0  0
    0.8623   -3.1230   -2.1122 O   0  0  0  0  0  0  0  0  0  0  0  0
    0.0826   -1.1329    0.6394 C   0  0  0  0  0  0  0  0  0  0  0  0
    0.5103   -2.5718    0.8764 C   0  0  0  0  0  0  0  0  0  0  0  0
    1.3058   -0.3100    0.3646 C   0  0  0  0  0  0  0  0  0  0  0  0
    2.3914   -0.8250    0.1648 O   0  0  0  0  0  0  0  0  0  0  0  0
    3.0975    1.5617    1.0098 H   0  0  0  0  0  0  0  0  0  0  0  0
    3.0513    1.5365   -0.7680 H   0  0  0  0  0  0  0  0  0  0  0  0
    2.4189    2.9260    0.1243 H   0  0  0  0  0  0  0  0  0  0  0  0
    0.2771    3.7383    0.7616 H   0  0  0  0  0  0  0  0  0  0  0  0
    0.3309    3.5404   -1.0064 H   0  0  0  0  0  0  0  0  0  0  0  0
   -1.2118    3.5431   -0.1569 H   0  0  0  0  0  0  0  0  0  0  0  0
   -2.7271   -1.9250    0.9993 H   0  0  0  0  0  0  0  0  0  0  0  0
   -3.3107   -0.5960    0.1004 H   0  0  0  0  0  0  0  0  0  0  0  0
   -3.6232   -2.6188   -1.1925 H   0  0  0  0  0  0  0  0  0  0  0  0
   -2.7026   -1.4596   -2.0734 H   0  0  0  0  0  0  0  0  0  0  0  0
   -2.6535   -4.7123   -0.2128 H   0  0  0  0  0  0  0  0  0  0  0  0
   -0.9105   -4.9231   -0.1300 H   0  0  0  0  0  0  0  0  0  0  0  0
   -1.7264   -3.6586    0.7714 H   0  0  0  0  0  0  0  0  0  0  0  0
   -2.5763   -4.6442   -2.3368 H   0  0  0  0  0  0  0  0  0  0  0  0
    0.7558   -0.7437   -2.1727 H   0  0  0  0  0  0  0  0  0  0  0  0
   -0.9289   -0.5315   -1.9989 H   0  0  0  0  0  0  0  0  0  0  0  0
    0.1011   -3.0063    1.7841 H   0  0  0  0  0  0  0  0  0  0  0  0
    0.2486   -3.2270    0.0724 H   0  0  0  0  0  0  0  0  0  0  0  0
    1.5891   -2.7475    0.8454 H   0  0  0  0  0  0  0  0  0  0  0  0
  1  2  1  0  0  0  0
  1 20  1  0  0  0  0
  1 21  1  0  0  0  0
  1 22  1  0  0  0  0
  2  3  2  0  0  0  0
  2 18  1  0  0  0  0
  3  4  1  0  0  0  0
  3  5  1  0  0  0  0
  4 23  1  0  0  0  0
  4 24  1  0  0  0  0
  4 25  1  0  0  0  0
  5  6  2  0  0  0  0
  5  7  1  0  0  0  0
  7  8  1  0  0  0  0
  7 16  2  0  0  0  0
  8  9  1  0  0  0  0
  8 26  1  0  0  0  0
  8 27  1  0  0  0  0
  9 28  1  0  0  0  0
  9 29  1  0  0  0  0
 10  9  1  0  0  0  0
 10 11  1  0  0  0  0
 10 12  1  6  0  0  0
 10 13  1  0  0  0  0
 11 30  1  0  0  0  0
 11 31  1  0  0  0  0
 11 32  1  0  0  0  0
 12 33  1  0  0  0  0
 13 14  1  0  0  0  0
 13 15  2  0  0  0  0
 14 34  1  0  0  0  0
 14 35  1  0  0  0  0
 16 17  1  0  0  0  0
 16 18  1  0  0  0  0
 17 36  1  0  0  0  0
 17 37  1  0  0  0  0
 17 38  1  0  0  0  0
 18 19  2  0  0  0  0
M  END
>  <DRUGBANK_ID>
DB16041

>  <COMMON_NAME>
EPI-589

>  <CAS_NUMBER>
1147883-03-1

>  <UNII>
I4ZSB1Q2DU

$$$$
