DF2
 OpenBabel10282417163D

 47 50  0  0  0  0  0  0  0  0999 V2000
   -2.4759    9.5224   -3.1343 C   0  0  0  0  0  0  0  0  0  0  0  0
   -3.7784    5.4603   -4.3629 C   0  0  0  0  0  0  0  0  0  0  0  0
   -4.3632    4.3228   -5.0590 C   0  0  0  0  0  0  0  0  0  0  0  0
   -4.0523    4.0784   -6.3963 C   0  0  0  0  0  0  0  0  0  0  0  0
   -4.4029    2.8584   -6.9727 C   0  0  0  0  0  0  0  0  0  0  0  0
   -5.0326    1.8740   -6.2070 C   0  0  0  0  0  0  0  0  0  0  0  0
   -5.3281    2.1079   -4.8678 C   0  0  0  0  0  0  0  0  0  0  0  0
   -5.0328    3.3444   -4.3080 C   0  0  0  0  0  0  0  0  0  0  0  0
   -2.8727    3.6944   -1.4930 C   0  0  0  0  0  0  0  0  0  0  0  0
   -2.2051    2.6350   -0.8762 C   0  0  0  0  0  0  0  0  0  0  0  0
   -1.2032    1.9403   -1.5634 C   0  0  0  0  0  0  0  0  0  0  0  0
   -0.9013    2.2706   -2.8813 C   0  0  0  0  0  0  0  0  0  0  0  0
   -3.2583    8.9264   -4.0384 N   0  0  0  0  0  0  0  0  0  0  0  0
    0.4378    3.9024    0.5225 C   0  0  0  0  0  0  0  0  0  0  0  0
   -3.2518    7.5920   -3.8933 C   0  0  0  0  0  0  0  0  0  0  0  0
   -2.5437    6.8283   -2.9674 C   0  0  0  0  0  0  0  0  0  0  0  0
   -0.0663    4.4159    1.7506 O   0  0  0  0  0  0  0  0  0  0  0  0
   -0.8190    7.1482   -1.0756 N   0  0  0  0  0  0  0  0  0  0  0  0
   -1.7192    7.5842   -2.0585 C   0  0  0  0  0  0  0  0  0  0  0  0
   -1.7501    8.9423   -2.1644 N   0  0  0  0  0  0  0  0  0  0  0  0
   -3.9777    6.7698   -4.7164 N   0  0  0  0  0  0  0  0  0  0  0  0
   -1.5551    3.3406   -3.4962 C   0  0  0  0  0  0  0  0  0  0  0  0
   -2.8957    5.4381   -3.2943 C   0  0  0  0  0  0  0  0  0  0  0  0
   -2.4713    4.1209   -2.7733 C   0  0  0  0  0  0  0  0  0  0  0  0
    0.3387    4.9277   -0.6212 C   0  0  1  0  0  0  0  0  0  0  0  0
   -0.9270    5.8056   -0.5644 C   0  0  0  0  0  0  0  0  0  0  0  0
    1.5329    5.7096   -0.5924 O   0  0  0  0  0  0  0  0  0  0  0  0
    0.3686    4.3949   -1.5795 H   0  0  0  0  0  0  0  0  0  0  0  0
   -2.4107   10.6057   -3.1994 H   0  0  0  0  0  0  0  0  0  0  0  0
   -3.4759    4.7992   -6.9713 H   0  0  0  0  0  0  0  0  0  0  0  0
   -4.1443    2.6569   -8.0079 H   0  0  0  0  0  0  0  0  0  0  0  0
   -5.2773    0.9134   -6.6499 H   0  0  0  0  0  0  0  0  0  0  0  0
   -5.7509    1.3239   -4.2457 H   0  0  0  0  0  0  0  0  0  0  0  0
   -5.2454    3.5126   -3.2542 H   0  0  0  0  0  0  0  0  0  0  0  0
   -3.5362    4.3182   -0.8936 H   0  0  0  0  0  0  0  0  0  0  0  0
   -2.3450    2.4698    0.1930 H   0  0  0  0  0  0  0  0  0  0  0  0
   -0.5820    1.2157   -1.0371 H   0  0  0  0  0  0  0  0  0  0  0  0
   -0.0934    1.7578   -3.3980 H   0  0  0  0  0  0  0  0  0  0  0  0
   -0.1087    2.9843    0.3510 H   0  0  0  0  0  0  0  0  0  0  0  0
    1.4761    3.5942    0.6688 H   0  0  0  0  0  0  0  0  0  0  0  0
    0.4036    5.2454    1.9261 H   0  0  0  0  0  0  0  0  0  0  0  0
   -0.6521    7.8935   -0.4078 H   0  0  0  0  0  0  0  0  0  0  0  0
   -4.5610    7.0994   -5.4610 H   0  0  0  0  0  0  0  0  0  0  0  0
   -1.2975    3.5978   -4.5202 H   0  0  0  0  0  0  0  0  0  0  0  0
   -1.5305    5.7317    0.3466 H   0  0  0  0  0  0  0  0  0  0  0  0
   -1.5315    5.3440   -1.2798 H   0  0  0  0  0  0  0  0  0  0  0  0
    1.3995    6.3817    0.0896 H   0  0  0  0  0  0  0  0  0  0  0  0
  1 13  1  0  0  0  0
  1 20  2  0  0  0  0
  1 29  1  0  0  0  0
  2  3  1  0  0  0  0
  2 21  1  0  0  0  0
  2 23  2  0  0  0  0
  3  4  2  0  0  0  0
  3  8  1  0  0  0  0
  4  5  1  0  0  0  0
  4 30  1  0  0  0  0
  5  6  2  0  0  0  0
  5 31  1  0  0  0  0
  6  7  1  0  0  0  0
  6 32  1  0  0  0  0
  7  8  2  0  0  0  0
  7 33  1  0  0  0  0
  8 34  1  0  0  0  0
  9 10  2  0  0  0  0
  9 24  1  0  0  0  0
  9 35  1  0  0  0  0
 10 11  1  0  0  0  0
 10 36  1  0  0  0  0
 11 12  2  0  0  0  0
 11 37  1  0  0  0  0
 12 22  1  0  0  0  0
 12 38  1  0  0  0  0
 13 15  2  0  0  0  0
 14 17  1  0  0  0  0
 14 39  1  0  0  0  0
 14 40  1  0  0  0  0
 15 16  1  0  0  0  0
 15 21  1  0  0  0  0
 16 19  2  0  0  0  0
 16 23  1  0  0  0  0
 17 41  1  0  0  0  0
 18 19  1  0  0  0  0
 18 26  1  0  0  0  0
 18 42  1  0  0  0  0
 19 20  1  0  0  0  0
 21 43  1  0  0  0  0
 22 24  2  0  0  0  0
 22 44  1  0  0  0  0
 23 24  1  0  0  0  0
 25 27  1  0  0  0  0
 25 28  1  6  0  0  0
 25 26  1  0  0  0  0
 25 14  1  0  0  0  0
 26 45  1  0  0  0  0
 26 46  1  0  0  0  0
 27 47  1  0  0  0  0
M  END
>  <DRUGBANK_ID>
DB07648

>  <COMMON_NAME>
(2R)-3-{[(4Z)-5,6-DIPHENYL-6,7-DIHYDRO-4H-PYRROLO[2,3-D]PYRIMIDIN-4-YLIDENE]AMINO}PROPANE-1,2-DIOL

$$$$
