
 OpenBabel10282417193D

 32 33  0  0  0  0  0  0  0  0999 V2000
    1.0818    0.0501    0.3336 C   0  0  0  0  0  0  0  0  0  0  0  0
    0.4585    1.3739   -0.1023 C   0  0  0  0  0  0  0  0  0  0  0  0
    1.2504    1.9259   -1.2188 C   0  0  0  0  0  0  0  0  0  0  0  0
   -0.9005    1.2642   -0.5703 O   0  0  0  0  0  0  0  0  0  0  0  0
   -1.2596    0.1951   -1.4821 C   0  0  0  0  0  0  0  0  0  0  0  0
   -0.8673    0.2246   -3.0369 C   0  0  0  0  0  0  0  0  0  0  0  0
    0.5875    0.0951   -3.4770 N   0  0  0  0  0  0  0  0  0  0  0  0
    1.3328   -1.0116   -3.0266 C   0  0  0  0  0  0  0  0  0  0  0  0
    0.9231   -2.2645   -2.5255 C   0  0  0  0  0  0  0  0  0  0  0  0
    2.0655   -3.0334   -2.4387 C   0  0  0  0  0  0  0  0  0  0  0  0
    3.1370   -2.1752   -2.4392 N   0  0  0  0  0  0  0  0  0  0  0  0
    2.6996   -0.9612   -2.8946 C   0  0  0  0  0  0  0  0  0  0  0  0
    3.4836    0.2116   -3.1122 C   0  0  0  0  0  0  0  0  0  0  0  0
    4.6427    0.3516   -2.7837 O   0  0  0  0  0  0  0  0  0  0  0  0
    2.7266    1.2212   -3.6874 N   0  0  0  0  0  0  0  0  0  0  0  0
    1.3422    1.2383   -3.9594 C   0  0  0  0  0  0  0  0  0  0  0  0
    0.7119    2.6721   -4.5851 S   0  0  0  0  0  0  0  0  0  0  0  0
    0.7806   -0.7904   -0.2889 H   0  0  0  0  0  0  0  0  0  0  0  0
    0.7706   -0.1912    1.3470 H   0  0  0  0  0  0  0  0  0  0  0  0
    2.1766    0.0767    0.2770 H   0  0  0  0  0  0  0  0  0  0  0  0
    0.5399    2.1366    0.6757 H   0  0  0  0  0  0  0  0  0  0  0  0
    0.9921    1.1677   -1.8856 H   0  0  0  0  0  0  0  0  0  0  0  0
    0.8681    2.8457   -1.6571 H   0  0  0  0  0  0  0  0  0  0  0  0
    2.3345    1.8671   -1.1670 H   0  0  0  0  0  0  0  0  0  0  0  0
   -1.0486   -0.7698   -1.0165 H   0  0  0  0  0  0  0  0  0  0  0  0
   -2.3598    0.2351   -1.4729 H   0  0  0  0  0  0  0  0  0  0  0  0
   -1.3982   -0.6075   -3.5175 H   0  0  0  0  0  0  0  0  0  0  0  0
   -1.2759    1.1533   -3.4360 H   0  0  0  0  0  0  0  0  0  0  0  0
   -0.0859   -2.6119   -2.3576 H   0  0  0  0  0  0  0  0  0  0  0  0
    2.2012   -4.1005   -2.3315 H   0  0  0  0  0  0  0  0  0  0  0  0
    4.0984   -2.4120   -2.2187 H   0  0  0  0  0  0  0  0  0  0  0  0
    3.1897    2.1219   -3.6535 H   0  0  0  0  0  0  0  0  0  0  0  0
  1  2  1  0  0  0  0
  1 18  1  0  0  0  0
  1 19  1  0  0  0  0
  1 20  1  0  0  0  0
  2  3  1  0  0  0  0
  2  4  1  0  0  0  0
  2 21  1  0  0  0  0
  3 22  1  0  0  0  0
  3 23  1  0  0  0  0
  3 24  1  0  0  0  0
  4  5  1  0  0  0  0
  5  6  1  0  0  0  0
  5 25  1  0  0  0  0
  5 26  1  0  0  0  0
  6  7  1  0  0  0  0
  6 27  1  0  0  0  0
  6 28  1  0  0  0  0
  7  8  1  0  0  0  0
  7 16  1  0  0  0  0
  8  9  1  0  0  0  0
  8 12  2  0  0  0  0
  9 10  2  0  0  0  0
  9 29  1  0  0  0  0
 10 11  1  0  0  0  0
 10 30  1  0  0  0  0
 11 12  1  0  0  0  0
 11 31  1  0  0  0  0
 12 13  1  0  0  0  0
 13 14  2  0  0  0  0
 13 15  1  0  0  0  0
 15 16  1  0  0  0  0
 15 32  1  0  0  0  0
 16 17  2  0  0  0  0
M  END
>  <DRUGBANK_ID>
DB12440

>  <COMMON_NAME>
Verdiperstat

>  <CAS_NUMBER>
890655-80-8

>  <UNII>
TT3345YXVR

>  <SYNONYMS>
Verdiperstat

$$$$
