
 OpenBabel10282417153D

 42 40  0  0  1  0  0  0  0  0999 V2000
    1.3440   -0.2250    0.0360 C   0  0  0  0  0  0  0  0  0  0  0  0
    0.5020   -1.2510   -0.0040 C   0  0  0  0  0  0  0  0  0  0  0  0
   -0.8560   -1.0420    0.0030 C   0  0  0  0  0  0  0  0  0  0  0  0
   -1.3730    0.2230   -0.0410 C   0  0  0  0  0  0  0  0  0  0  0  0
   -0.5090    1.2150    0.0750 C   0  0  0  0  0  0  0  0  0  0  0  0
    0.8920    1.0800   -0.0700 C   0  0  0  0  0  0  0  0  0  0  0  0
    1.8171    2.2600   -0.3195 C   0  0  0  0  0  0  0  0  0  0  0  0
    1.4218    2.9486   -1.6156 C   0  0  1  0  0  0  0  0  0  0  0  0
   -0.0120    3.4422   -1.5103 C   0  0  0  0  0  0  0  0  0  0  0  0
   -0.2679    4.6812   -1.6309 O   0  0  0  0  0  0  0  0  0  0  0  0
   -1.0654    2.5190   -1.2771 O   0  0  0  0  0  0  0  0  0  0  0  0
    2.3164    4.0897   -1.8569 N   0  0  0  0  0  0  0  0  0  0  0  0
   -1.7661   -2.1950    0.0586 N   0  3  0  0  0  0  0  0  0  0  0  0
   -3.0806   -1.6388   -0.2931 C   0  0  0  0  0  0  0  0  0  0  0  0
   -3.9761   -2.7487   -0.8191 C   0  0  0  0  0  0  0  0  0  0  0  0
   -4.1758   -3.9950    0.4361 Cl  0  0  0  0  0  0  0  0  0  0  0  0
   -3.2208   -1.9835    0.0666 C   0  0  0  0  0  0  0  0  0  0  0  0
   -3.8390   -2.6679   -1.1417 C   0  0  0  0  0  0  0  0  0  0  0  0
   -3.4928   -4.4127   -1.0769 Cl  0  0  0  0  0  0  0  0  0  0  0  0
   -1.2586   -3.4668    0.1030 O   0  5  0  0  0  0  0  0  0  0  0  0
    0.9387   -0.0544    0.0573 Cl  0  0  0  0  0  0  0  0  0  0  0  0
    1.0605    0.0748   -0.0273 Cl  0  0  0  0  0  0  0  0  0  0  0  0
    2.3915   -0.4099    0.1523 H   0  0  0  0  0  0  0  0  0  0  0  0
    0.8845   -2.2496   -0.0420 H   0  0  0  0  0  0  0  0  0  0  0  0
   -2.4212    0.3997   -0.1629 H   0  0  0  0  0  0  0  0  0  0  0  0
   -0.8953    2.1885    0.2939 H   0  0  0  0  0  0  0  0  0  0  0  0
    1.7373    2.9534    0.4915 H   0  0  0  0  0  0  0  0  0  0  0  0
    2.8264    1.9125   -0.3936 H   0  0  0  0  0  0  0  0  0  0  0  0
    1.5016    2.2551   -2.4266 H   0  0  0  0  0  0  0  0  0  0  0  0
   -2.0087    2.8437   -1.2078 H   0  0  0  0  0  0  0  0  0  0  0  0
    2.0512    4.5518   -2.7267 H   0  0  0  0  0  0  0  0  0  0  0  0
    2.2404    4.7508   -1.0838 H   0  0  0  0  0  0  0  0  0  0  0  0
   -3.5270   -1.2018    0.5756 H   0  0  0  0  0  0  0  0  0  0  0  0
   -2.9606   -0.8897   -1.0476 H   0  0  0  0  0  0  0  0  0  0  0  0
   -4.9329   -2.3439   -1.0751 H   0  0  0  0  0  0  0  0  0  0  0  0
   -3.5297   -3.1857   -1.6878 H   0  0  0  0  0  0  0  0  0  0  0  0
   -3.6364   -2.3965    0.9619 H   0  0  0  0  0  0  0  0  0  0  0  0
   -3.4289   -0.9346    0.0276 H   0  0  0  0  0  0  0  0  0  0  0  0
   -4.8978   -2.5139   -1.1358 H   0  0  0  0  0  0  0  0  0  0  0  0
   -3.4234   -2.2548   -2.0370 H   0  0  0  0  0  0  0  0  0  0  0  0
    2.2687   -0.0544    0.0573 H   0  0  0  0  0  0  0  0  0  0  0  0
    2.3905    0.0748   -0.0273 H   0  0  0  0  0  0  0  0  0  0  0  0
  1  2  2  0  0  0  0
  1  6  1  0  0  0  0
  1 23  1  0  0  0  0
  2  3  1  0  0  0  0
  2 24  1  0  0  0  0
  3  4  2  0  0  0  0
  3 13  1  0  0  0  0
  4  5  1  0  0  0  0
  4 25  1  0  0  0  0
  5  6  2  0  0  0  0
  5 26  1  0  0  0  0
  6  7  1  0  0  0  0
  7  8  1  0  0  0  0
  7 27  1  0  0  0  0
  7 28  1  0  0  0  0
  8  9  1  0  0  0  0
  8 12  1  0  0  0  0
  8 29  1  6  0  0  0
  9 10  2  0  0  0  0
  9 11  1  0  0  0  0
 11 30  1  0  0  0  0
 12 31  1  0  0  0  0
 12 32  1  0  0  0  0
 13 14  1  0  0  0  0
 13 17  1  0  0  0  0
 13 20  1  0  0  0  0
 14 15  1  0  0  0  0
 14 33  1  0  0  0  0
 14 34  1  0  0  0  0
 15 16  1  0  0  0  0
 15 35  1  0  0  0  0
 15 36  1  0  0  0  0
 17 18  1  0  0  0  0
 17 37  1  0  0  0  0
 17 38  1  0  0  0  0
 18 19  1  0  0  0  0
 18 39  1  0  0  0  0
 18 40  1  0  0  0  0
 21 41  1  0  0  0  0
 22 42  1  0  0  0  0
M  CHG  2  13   1  20  -1
M  END
>  <DRUGBANK_ID>
DB06082

>  <COMMON_NAME>
PX-478

>  <CAS_NUMBER>
685898-44-6

>  <UNII>
T23U22X160

$$$$
