
 OpenBabel10282417153D

 34 34  0  0  1  0  0  0  0  0999 V2000
    2.1198   -5.2195    0.0631 B   0  0  0  0  0  0  0  0  0  0  0  0
    2.9969   -4.7581   -1.1930 C   0  0  2  0  0  0  0  0  0  0  0  0
    4.3974   -5.3011   -1.1255 C   0  0  0  0  0  0  0  0  0  0  0  0
    5.1717   -4.3986   -2.1329 C   0  0  0  0  0  0  0  0  0  0  0  0
    4.4855   -3.0380   -1.9864 C   0  0  0  0  0  0  0  0  0  0  0  0
    3.2333   -3.3026   -1.1816 N   0  0  0  0  0  0  0  0  0  0  0  0
    2.4026   -2.2928   -0.5099 C   0  0  0  0  0  0  0  0  0  0  0  0
    2.7180   -1.0635   -0.5774 O   0  0  0  0  0  0  0  0  0  0  0  0
    1.1748   -2.7243    0.2753 C   0  0  2  0  0  0  0  0  0  0  0  0
   -0.0207   -2.8087   -0.6596 C   0  0  0  0  0  0  0  0  0  0  0  0
   -0.0629   -4.1842   -1.3050 C   0  0  0  0  0  0  0  0  0  0  0  0
   -1.2992   -2.5800    0.1300 C   0  0  0  0  0  0  0  0  0  0  0  0
    0.9003   -1.7425    1.3343 N   0  0  0  0  0  0  0  0  0  0  0  0
    2.7333   -5.2622    1.4312 O   0  0  0  0  0  0  0  0  0  0  0  0
    0.6839   -5.6093   -0.1274 O   0  0  0  0  0  0  0  0  0  0  0  0
    2.4451   -5.1007   -2.0434 H   0  0  0  0  0  0  0  0  0  0  0  0
    4.8101   -5.2820   -0.1385 H   0  0  0  0  0  0  0  0  0  0  0  0
    4.4270   -6.3273   -1.4270 H   0  0  0  0  0  0  0  0  0  0  0  0
    6.2232   -4.3604   -1.9382 H   0  0  0  0  0  0  0  0  0  0  0  0
    5.0768   -4.7703   -3.1318 H   0  0  0  0  0  0  0  0  0  0  0  0
    5.1209   -2.3219   -1.5086 H   0  0  0  0  0  0  0  0  0  0  0  0
    4.2352   -2.6398   -2.9475 H   0  0  0  0  0  0  0  0  0  0  0  0
    1.3517   -3.6835    0.7154 H   0  0  0  0  0  0  0  0  0  0  0  0
    0.0677   -2.0607   -1.4196 H   0  0  0  0  0  0  0  0  0  0  0  0
   -0.1513   -4.9322   -0.5450 H   0  0  0  0  0  0  0  0  0  0  0  0
   -0.9042   -4.2436   -1.9635 H   0  0  0  0  0  0  0  0  0  0  0  0
    0.8371   -4.3452   -1.8608 H   0  0  0  0  0  0  0  0  0  0  0  0
   -1.2695   -1.6117    0.5843 H   0  0  0  0  0  0  0  0  0  0  0  0
   -2.1405   -2.6394   -0.5285 H   0  0  0  0  0  0  0  0  0  0  0  0
   -1.3877   -3.3280    0.8900 H   0  0  0  0  0  0  0  0  0  0  0  0
    1.7025   -1.6859    1.9617 H   0  0  0  0  0  0  0  0  0  0  0  0
    0.7316   -0.8281    0.9148 H   0  0  0  0  0  0  0  0  0  0  0  0
    3.6892   -4.9733    1.3770 H   0  0  0  0  0  0  0  0  0  0  0  0
    0.4405   -5.5235   -1.0936 H   0  0  0  0  0  0  0  0  0  0  0  0
  1 14  1  0  0  0  0
  1 15  1  0  0  0  0
  2  1  1  0  0  0  0
  2  3  1  0  0  0  0
  2  6  1  0  0  0  0
  2 16  1  6  0  0  0
  3  4  1  0  0  0  0
  3 17  1  0  0  0  0
  3 18  1  0  0  0  0
  4  5  1  0  0  0  0
  4 19  1  0  0  0  0
  4 20  1  0  0  0  0
  5  6  1  0  0  0  0
  5 21  1  0  0  0  0
  5 22  1  0  0  0  0
  6  7  1  0  0  0  0
  7  8  2  0  0  0  0
  9 13  1  0  0  0  0
  9 23  1  1  0  0  0
  9 10  1  0  0  0  0
  9  7  1  0  0  0  0
 10 11  1  0  0  0  0
 10 12  1  0  0  0  0
 10 24  1  0  0  0  0
 11 25  1  0  0  0  0
 11 26  1  0  0  0  0
 11 27  1  0  0  0  0
 12 28  1  0  0  0  0
 12 29  1  0  0  0  0
 12 30  1  0  0  0  0
 13 31  1  0  0  0  0
 13 32  1  0  0  0  0
 14 33  1  0  0  0  0
 15 34  1  0  0  0  0
M  END
>  <DRUGBANK_ID>
DB06182

>  <COMMON_NAME>
Talabostat

>  <CAS_NUMBER>
149682-77-9

>  <UNII>
KZ1O2SH88Z

>  <SYNONYMS>
Talabostat

$$$$
