
 OpenBabel10282417213D

 53 54  0  0  0  0  0  0  0  0999 V2000
   -4.0938   -2.6244   -0.7635 C   0  0  0  0  0  0  0  0  0  0  0  0
    0.6795   -1.6060    0.7037 C   0  0  0  0  0  0  0  0  0  0  0  0
   -0.6461   -1.8585    0.4800 N   0  0  0  0  0  0  0  0  0  0  0  0
   -1.8720   -1.1769    0.9222 C   0  0  1  0  0  0  0  0  0  0  0  0
   -0.3947    1.4415    1.1901 C   0  0  0  0  0  0  0  0  0  0  0  0
   -3.2585   -1.5233   -1.3306 C   0  0  1  0  0  0  0  0  0  0  0  0
   -0.1090   -3.8072    4.7900 C   0  0  0  0  0  0  0  0  0  0  0  0
   -2.7998   -0.6003   -0.2152 C   0  0  0  0  0  0  0  0  0  0  0  0
   -3.6227   -3.5894   -0.1637 O   0  0  0  0  0  0  0  0  0  0  0  0
    1.5109   -2.3298    0.1465 O   0  0  0  0  0  0  0  0  0  0  0  0
   -1.2005    1.7846    2.0210 O   0  0  0  0  0  0  0  0  0  0  0  0
    0.7145   -4.4618    5.7902 C   0  0  0  0  0  0  0  0  0  0  0  0
   -1.0372   -4.5235    4.0332 C   0  0  0  0  0  0  0  0  0  0  0  0
   -0.0120   -2.4182    4.6369 C   0  0  0  0  0  0  0  0  0  0  0  0
   -2.6900   -1.8017    2.0613 C   0  0  0  0  0  0  0  0  0  0  0  0
    1.1445   -0.5463    1.6859 C   0  0  0  0  0  0  0  0  0  0  0  0
    0.9843    0.9221    1.3690 C   0  0  0  0  0  0  0  0  0  0  0  0
   -5.4177   -2.4432   -0.9059 O   0  0  0  0  0  0  0  0  0  0  0  0
   -1.8386   -2.4656    3.0905 C   0  0  0  0  0  0  0  0  0  0  0  0
   -0.7885    1.3336   -0.0811 O   0  0  0  0  0  0  0  0  0  0  0  0
   -0.9542   -1.7400    3.8851 C   0  0  0  0  0  0  0  0  0  0  0  0
   -1.8741   -3.8568    3.1604 C   0  0  0  0  0  0  0  0  0  0  0  0
   -2.0621   -2.0488   -2.1159 C   0  0  0  0  0  0  0  0  0  0  0  0
    1.5120   -5.5624    5.4713 C   0  0  0  0  0  0  0  0  0  0  0  0
    0.7437   -3.9373    7.0923 C   0  0  0  0  0  0  0  0  0  0  0  0
    1.6557   -4.4153    8.0194 C   0  0  0  0  0  0  0  0  0  0  0  0
    2.3812   -6.0835    6.4225 C   0  0  0  0  0  0  0  0  0  0  0  0
    2.4612   -5.5011    7.6885 C   0  0  0  0  0  0  0  0  0  0  0  0
   -0.7373   -2.7814    0.0713 H   0  0  0  0  0  0  0  0  0  0  0  0
   -1.4736   -0.3606    1.4821 H   0  0  0  0  0  0  0  0  0  0  0  0
   -3.8591   -0.9239   -2.0318 H   0  0  0  0  0  0  0  0  0  0  0  0
   -2.3342    0.1571   -0.8428 H   0  0  0  0  0  0  0  0  0  0  0  0
   -3.6393   -0.0663    0.2574 H   0  0  0  0  0  0  0  0  0  0  0  0
   -1.1199   -5.6014    4.1216 H   0  0  0  0  0  0  0  0  0  0  0  0
    0.8050   -1.8693    5.1062 H   0  0  0  0  0  0  0  0  0  0  0  0
   -3.2892   -1.0150    2.5384 H   0  0  0  0  0  0  0  0  0  0  0  0
   -3.4144   -2.5217    1.7079 H   0  0  0  0  0  0  0  0  0  0  0  0
    0.7080   -0.7725    2.6413 H   0  0  0  0  0  0  0  0  0  0  0  0
    2.2150   -0.7265    1.8592 H   0  0  0  0  0  0  0  0  0  0  0  0
    1.3735    1.5209    2.1957 H   0  0  0  0  0  0  0  0  0  0  0  0
    1.5352    1.1596    0.4593 H   0  0  0  0  0  0  0  0  0  0  0  0
   -5.6629   -1.7388   -1.5360 H   0  0  0  0  0  0  0  0  0  0  0  0
   -1.7399    1.4500    0.1229 H   0  0  0  0  0  0  0  0  0  0  0  0
   -0.9210   -0.6527    3.8444 H   0  0  0  0  0  0  0  0  0  0  0  0
   -2.5664   -4.4170    2.5370 H   0  0  0  0  0  0  0  0  0  0  0  0
   -2.3782   -2.6186   -2.9863 H   0  0  0  0  0  0  0  0  0  0  0  0
   -1.3900   -1.2364   -2.4242 H   0  0  0  0  0  0  0  0  0  0  0  0
   -1.4790   -2.7565   -1.5390 H   0  0  0  0  0  0  0  0  0  0  0  0
    1.4743   -5.9943    4.4735 H   0  0  0  0  0  0  0  0  0  0  0  0
    0.0612   -3.1342    7.3700 H   0  0  0  0  0  0  0  0  0  0  0  0
    1.7461   -3.9262    8.9839 H   0  0  0  0  0  0  0  0  0  0  0  0
    3.0187   -6.9220    6.1611 H   0  0  0  0  0  0  0  0  0  0  0  0
    3.1546   -5.8963    8.4230 H   0  0  0  0  0  0  0  0  0  0  0  0
  2  3  1  0  0  0  0
  3 29  1  0  0  0  0
  4 15  1  0  0  0  0
  4 30  1  1  0  0  0
  4  8  1  0  0  0  0
  4  3  1  0  0  0  0
  5 17  1  0  0  0  0
  6  1  1  0  0  0  0
  6 23  1  0  0  0  0
  6 31  1  6  0  0  0
  7 13  2  0  0  0  0
  7 14  1  0  0  0  0
  8  6  1  0  0  0  0
  8 32  1  0  0  0  0
  8 33  1  0  0  0  0
  9  1  2  0  0  0  0
 10  2  2  0  0  0  0
 11  5  2  0  0  0  0
 12  7  1  0  0  0  0
 13 22  1  0  0  0  0
 13 34  1  0  0  0  0
 14 21  2  0  0  0  0
 14 35  1  0  0  0  0
 15 36  1  0  0  0  0
 15 37  1  0  0  0  0
 16  2  1  0  0  0  0
 16 38  1  0  0  0  0
 16 39  1  0  0  0  0
 17 16  1  0  0  0  0
 17 40  1  0  0  0  0
 17 41  1  0  0  0  0
 18  1  1  0  0  0  0
 18 42  1  0  0  0  0
 19 15  1  0  0  0  0
 20  5  1  0  0  0  0
 20 43  1  0  0  0  0
 21 19  1  0  0  0  0
 21 44  1  0  0  0  0
 22 19  2  0  0  0  0
 22 45  1  0  0  0  0
 23 46  1  0  0  0  0
 23 47  1  0  0  0  0
 23 48  1  0  0  0  0
 24 12  2  0  0  0  0
 24 49  1  0  0  0  0
 25 12  1  0  0  0  0
 25 50  1  0  0  0  0
 26 25  2  0  0  0  0
 26 51  1  0  0  0  0
 27 24  1  0  0  0  0
 27 28  2  0  0  0  0
 27 52  1  0  0  0  0
 28 26  1  0  0  0  0
 28 53  1  0  0  0  0
M  END
>  <DRUGBANK_ID>
DB14127

>  <COMMON_NAME>
Sacubitrilat

>  <CAS_NUMBER>
149709-44-4

>  <UNII>
SPI5PBF81S

>  <SYNONYMS>
Sacubitrilat

$$$$
