AGA
 OpenBabel10282417163D

 66 65  0  0  0  0  0  0  0  0999 V2000
    2.7554    1.4928    2.1992 O   0  0  0  0  0  0  0  0  0  0  0  0
    2.4449    0.5515    3.1946 C   0  0  0  0  0  0  0  0  0  0  0  0
    0.9752    0.3295    3.3054 C   0  0  2  0  0  0  0  0  0  0  0  0
    0.3526   -0.3277    2.2135 O   0  0  0  0  0  0  0  0  0  0  0  0
    0.4938    1.7180    3.6451 C   0  0  0  0  0  0  0  0  0  0  0  0
   -1.3951    2.0650    1.6543 P   0  0  1  0  0  0  0  0  0  0  0  0
   -0.0243    1.7996    1.3452 O   0  5  0  0  0  0  0  0  0  0  0  0
   -2.3710    0.9004    1.7883 O   0  0  0  0  0  0  0  0  0  0  0  0
   -0.8184    1.7503    3.2547 O   0  0  0  0  0  0  0  0  0  0  0  0
   -1.9718    2.3797    0.0538 O   0  0  0  0  0  0  0  0  0  0  0  0
   -1.0148    2.8629   -0.9540 C   0  0  0  0  0  0  0  0  0  0  0  0
    0.1173    3.8822   -0.6034 C   0  0  1  0  0  0  0  0  0  0  0  0
    0.9266    3.5868    0.6087 C   0  0  0  0  0  0  0  0  0  0  0  0
    1.6204    2.0554    0.2629 O   0  0  0  0  0  0  0  0  0  0  0  0
    0.9972    0.7211   -0.1444 C   0  0  0  0  0  0  0  0  0  0  0  0
   -0.1483    0.4372   -0.5263 O   0  0  0  0  0  0  0  0  0  0  0  0
    1.8519   -0.4954    0.0919 C   0  0  0  0  0  0  0  0  0  0  0  0
    3.1559   -0.3639   -0.6149 C   0  0  0  0  0  0  0  0  0  0  0  0
    4.1290    0.7522   -0.1297 C   0  0  0  0  0  0  0  0  0  0  0  0
    4.8958    0.5567    1.1899 C   0  0  0  0  0  0  0  0  0  0  0  0
    1.2828    3.9857   -1.4780 O   0  0  0  0  0  0  0  0  0  0  0  0
    1.9272    2.8383   -1.9088 C   0  0  0  0  0  0  0  0  0  0  0  0
    1.4461    1.7761   -2.1415 O   0  0  0  0  0  0  0  0  0  0  0  0
    3.2648    3.0527   -2.5107 C   0  0  0  0  0  0  0  0  0  0  0  0
    2.7373    3.2558   -3.9206 C   0  0  0  0  0  0  0  0  0  0  0  0
    1.8933    4.5426   -3.9522 C   0  0  0  0  0  0  0  0  0  0  0  0
    2.7371    5.6938   -3.3828 C   0  0  0  0  0  0  0  0  0  0  0  0
    3.9552    5.8774   -4.2840 C   0  0  0  0  0  0  0  0  0  0  0  0
    3.4967    6.1360   -5.7173 C   0  0  0  0  0  0  0  0  0  0  0  0
    2.6263    7.3812   -5.7593 C   0  0  0  0  0  0  0  0  0  0  0  0
    0.7686   -0.4001    4.0712 H   0  0  0  0  0  0  0  0  0  0  0  0
   -0.3696    4.8725   -0.5483 H   0  0  0  0  0  0  0  0  0  0  0  0
    2.5108    1.0356    1.3813 H   0  0  0  0  0  0  0  0  0  0  0  0
    2.9332   -0.4062    3.0309 H   0  0  0  0  0  0  0  0  0  0  0  0
    2.8585    1.0776    4.0438 H   0  0  0  0  0  0  0  0  0  0  0  0
   -0.0586    0.4087    1.6878 H   0  0  0  0  0  0  0  0  0  0  0  0
    0.6242    1.8273    4.7233 H   0  0  0  0  0  0  0  0  0  0  0  0
    1.0171    2.5863    3.2215 H   0  0  0  0  0  0  0  0  0  0  0  0
   -0.5634    2.0369   -1.4568 H   0  0  0  0  0  0  0  0  0  0  0  0
   -1.5901    3.2071   -1.8191 H   0  0  0  0  0  0  0  0  0  0  0  0
    1.7661    4.2687    0.8355 H   0  0  0  0  0  0  0  0  0  0  0  0
    0.2987    3.7566    1.5150 H   0  0  0  0  0  0  0  0  0  0  0  0
    2.0125   -0.8276    1.1104 H   0  0  0  0  0  0  0  0  0  0  0  0
    1.2212   -1.3337   -0.2712 H   0  0  0  0  0  0  0  0  0  0  0  0
    3.6324   -1.3389   -0.5417 H   0  0  0  0  0  0  0  0  0  0  0  0
    2.8712   -0.2068   -1.6613 H   0  0  0  0  0  0  0  0  0  0  0  0
    4.8729    0.8930   -0.9128 H   0  0  0  0  0  0  0  0  0  0  0  0
    3.6577    1.7388   -0.0977 H   0  0  0  0  0  0  0  0  0  0  0  0
    5.4846   -0.3489    1.1697 H   0  0  0  0  0  0  0  0  0  0  0  0
    5.4045    1.4925    1.4645 H   0  0  0  0  0  0  0  0  0  0  0  0
    4.3810    0.3651    2.1133 H   0  0  0  0  0  0  0  0  0  0  0  0
    3.8982    3.8051   -2.0354 H   0  0  0  0  0  0  0  0  0  0  0  0
    3.8283    2.1197   -2.4504 H   0  0  0  0  0  0  0  0  0  0  0  0
    3.5588    3.2408   -4.6308 H   0  0  0  0  0  0  0  0  0  0  0  0
    2.0954    2.4098   -4.2124 H   0  0  0  0  0  0  0  0  0  0  0  0
    1.5028    4.7033   -4.9519 H   0  0  0  0  0  0  0  0  0  0  0  0
    0.9435    4.4633   -3.4136 H   0  0  0  0  0  0  0  0  0  0  0  0
    2.1294    6.5943   -3.2865 H   0  0  0  0  0  0  0  0  0  0  0  0
    3.0765    5.5362   -2.3514 H   0  0  0  0  0  0  0  0  0  0  0  0
    4.5750    6.6944   -3.9098 H   0  0  0  0  0  0  0  0  0  0  0  0
    4.6026    4.9905   -4.2585 H   0  0  0  0  0  0  0  0  0  0  0  0
    4.3636    6.2359   -6.3704 H   0  0  0  0  0  0  0  0  0  0  0  0
    2.9380    5.2835   -6.1228 H   0  0  0  0  0  0  0  0  0  0  0  0
    3.1982    8.2358   -5.3884 H   0  0  0  0  0  0  0  0  0  0  0  0
    2.2803    7.5760   -6.7727 H   0  0  0  0  0  0  0  0  0  0  0  0
    1.7275    7.2885   -5.1388 H   0  0  0  0  0  0  0  0  0  0  0  0
  1  2  1  0  0  0  0
  1 33  1  0  0  0  0
  2 34  1  0  0  0  0
  2 35  1  0  0  0  0
  3  5  1  0  0  0  0
  3 31  1  1  0  0  0
  3  4  1  0  0  0  0
  3  2  1  0  0  0  0
  4 36  1  0  0  0  0
  5  9  1  0  0  0  0
  5 37  1  0  0  0  0
  5 38  1  0  0  0  0
  6  7  1  6  0  0  0
  6  8  2  0  0  0  0
  6  9  1  0  0  0  0
  6 10  1  0  0  0  0
 10 11  1  0  0  0  0
 11 12  1  0  0  0  0
 11 39  1  0  0  0  0
 11 40  1  0  0  0  0
 12 13  1  0  0  0  0
 12 21  1  0  0  0  0
 12 32  1  1  0  0  0
 13 14  1  0  0  0  0
 13 41  1  0  0  0  0
 13 42  1  0  0  0  0
 14 15  1  0  0  0  0
 15 16  2  0  0  0  0
 15 17  1  0  0  0  0
 17 18  1  0  0  0  0
 17 43  1  0  0  0  0
 17 44  1  0  0  0  0
 18 19  1  0  0  0  0
 18 45  1  0  0  0  0
 18 46  1  0  0  0  0
 19 20  1  0  0  0  0
 19 47  1  0  0  0  0
 19 48  1  0  0  0  0
 20 49  1  0  0  0  0
 20 50  1  0  0  0  0
 20 51  1  0  0  0  0
 21 22  1  0  0  0  0
 22 23  2  0  0  0  0
 22 24  1  0  0  0  0
 24 25  1  0  0  0  0
 24 52  1  0  0  0  0
 24 53  1  0  0  0  0
 25 26  1  0  0  0  0
 25 54  1  0  0  0  0
 25 55  1  0  0  0  0
 26 27  1  0  0  0  0
 26 56  1  0  0  0  0
 26 57  1  0  0  0  0
 27 28  1  0  0  0  0
 27 58  1  0  0  0  0
 27 59  1  0  0  0  0
 28 29  1  0  0  0  0
 28 60  1  0  0  0  0
 28 61  1  0  0  0  0
 29 30  1  0  0  0  0
 29 62  1  0  0  0  0
 29 63  1  0  0  0  0
 30 64  1  0  0  0  0
 30 65  1  0  0  0  0
 30 66  1  0  0  0  0
M  CHG  1   7  -1
M  END
>  <DRUGBANK_ID>
DB07349

>  <COMMON_NAME>
(1S)-2-{[{[(2S)-2,3-DIHYDROXYPROPYL]OXY}(HYDROXY)PHOSPHORYL]OXY}-1-[(PENTANOYLOXY)METHYL]ETHYL OCTANOATE

$$$$
