
 OpenBabel10282417183D

 18 12  0  0  0  0  0  0  0  0999 V2000
    2.4571    3.0435    0.0446 Na  0  3  0  0  0  0  0  0  0  0  0  0
    0.9651   -0.0676    0.0649 O   0  0  0  0  0  0  0  0  0  0  0  0
    2.5134   -0.0676    0.0649 P   0  0  0  0  0  0  0  0  0  0  0  0
    2.4634   -1.5368    0.3726 O   0  5  0  0  0  0  0  0  0  0  0  0
    2.4803    0.8599    1.2985 O   0  5  0  0  0  0  0  0  0  0  0  0
    4.2434   -0.0676    0.0649 O   0  0  0  0  0  0  0  0  0  0  0  0
    4.8201    1.4708    0.6067 P   0  0  0  0  0  0  0  0  0  0  0  0
    6.2284    0.9131    0.3218 O   0  0  0  0  0  0  0  0  0  0  0  0
    4.2276    2.2039   -0.8440 O   0  0  0  0  0  0  0  0  0  0  0  0
    3.4865    0.9977   -1.8384 P   0  0  0  0  0  0  0  0  0  0  0  0
    2.0909    1.6760   -1.5533 O   0  5  0  0  0  0  0  0  0  0  0  0
    5.3968    3.0093    1.1486 O   0  5  0  0  0  0  0  0  0  0  0  0
    3.8900    1.7810   -3.1077 O   0  0  0  0  0  0  0  0  0  0  0  0
    2.7453   -0.2084   -2.8328 O   0  5  0  0  0  0  0  0  0  0  0  0
    0.1247   -0.7759   -1.4697 Na  0  3  0  0  0  0  0  0  0  0  0  0
    2.6066   -3.3896   -0.1361 Na  0  3  0  0  0  0  0  0  0  0  0  0
    2.0140    1.5037   -3.7623 Na  0  3  0  0  0  0  0  0  0  0  0  0
    0.9604    0.1827    2.2507 Na  0  3  0  0  0  0  0  0  0  0  0  0
  2  3  2  0  0  0  0
  3  4  1  0  0  0  0
  3  5  1  0  0  0  0
  3  6  1  0  0  0  0
  6  7  1  0  0  0  0
  7  8  2  0  0  0  0
  7  9  1  0  0  0  0
  7 12  1  0  0  0  0
  9 10  1  0  0  0  0
 10 11  1  0  0  0  0
 10 13  2  0  0  0  0
 10 14  1  0  0  0  0
M  CHG  8   1   1   4  -1   5  -1  11  -1  12  -1  14  -1  15   1  16   1
M  CHG  2  17   1  18   1
M  END
>  <DRUGBANK_ID>
DB11493

>  <COMMON_NAME>
Sodium tripolyphosphate

>  <CAS_NUMBER>
7758-29-4

>  <UNII>
9SW4PFD2FZ

>  <SYNONYMS>
Pentasodium triphosphate; Pentasodium tripolyphosphate; Sodium tripolyphosphate anhydrous

$$$$
