
 OpenBabel10282417193D

 90 90  0  0  1  0  0  0  0  0999 V2000
    0.6384    0.2321    0.0470 O   0  0  0  0  0  0  0  0  0  0  0  0
    0.3829   -0.6936    1.0904 C   0  0  0  0  0  0  0  0  0  0  0  0
    0.8579   -2.1485    0.9574 C   0  0  1  0  0  0  0  0  0  0  0  0
    2.2770   -2.2649    0.9341 O   0  0  0  0  0  0  0  0  0  0  0  0
    2.8646   -1.4923   -0.1843 C   0  0  0  0  0  0  0  0  0  0  0  0
    2.2546   -2.2022   -1.7568 P   0  0  3  0  0  0  0  0  0  0  0  0
    4.2351   -1.4548   -1.8686 O   0  0  0  0  0  0  0  0  0  0  0  0
    4.8269   -0.4381   -3.2666 C   0  0  0  0  0  0  0  0  0  0  0  0
    3.6272   -0.1944   -4.7173 C   0  0  0  0  0  0  0  0  0  0  0  0
    1.9422    0.0922   -4.5176 C   0  0  0  0  0  0  0  0  0  0  0  0
    1.6155    1.0425   -3.4910 O   0  0  0  0  0  0  0  0  0  0  0  0
    2.5665    1.1739   -2.4781 C   0  0  0  0  0  0  0  0  0  0  0  0
    2.7851   -0.1910   -2.1800 C   0  0  0  0  0  0  0  0  0  0  0  0
    3.3666   -1.7766   -3.4492 C   0  0  0  0  0  0  0  0  0  0  0  0
    4.5524   -3.0720   -3.0046 C   0  0  0  0  0  0  0  0  0  0  0  0
    5.1308   -3.1926   -1.3456 C   0  0  0  0  0  0  0  0  0  0  0  0
    4.4337   -4.2369   -0.4861 C   0  0  0  0  0  0  0  0  0  0  0  0
    4.4073   -5.4257   -1.3894 C   0  0  0  0  0  0  0  0  0  0  0  0
    5.8533   -5.5354   -1.9170 C   0  0  0  0  0  0  0  0  0  0  0  0
    6.7781   -5.6512   -0.7005 C   0  0  0  0  0  0  0  0  0  0  0  0
    6.3279   -6.8871    0.0612 C   0  0  0  0  0  0  0  0  0  0  0  0
    6.3942   -8.0761   -0.8980 C   0  0  0  0  0  0  0  0  0  0  0  0
    7.8313   -8.2215   -1.4023 C   0  0  0  0  0  0  0  0  0  0  0  0
    8.7635   -8.4411   -0.2080 C   0  0  0  0  0  0  0  0  0  0  0  0
    8.3624   -9.7143    0.5432 C   0  0  0  0  0  0  0  0  0  0  0  0
    8.4282  -10.9290   -0.3817 C   0  0  0  0  0  0  0  0  0  0  0  0
    9.8422  -11.1026   -0.9094 C   0  0  0  0  0  0  0  0  0  0  0  0
    1.9266   -3.5675   -1.1686 O   0  0  0  0  0  0  0  0  0  0  0  0
    1.6780   -2.8734   -3.2434 O   0  0  0  0  0  0  0  0  0  0  0  0
    0.3427   -3.0599    2.0808 C   0  0  0  0  0  0  0  0  0  0  0  0
   -1.1282   -3.1076    2.0787 N   0  0  0  0  0  0  0  0  0  0  0  0
   -1.8560   -1.9667    2.4732 C   0  0  0  0  0  0  0  0  0  0  0  0
   -3.2090   -1.9767    2.2900 N   0  0  0  0  0  0  0  0  0  0  0  0
   -3.7931   -3.1248    2.3437 C   0  0  0  0  0  0  0  0  0  0  0  0
   -3.0433   -4.3978    2.3997 C   0  0  0  0  0  0  0  0  0  0  0  0
   -1.7717   -4.3218    2.0007 C   0  0  0  0  0  0  0  0  0  0  0  0
   -5.1502   -3.1331    2.3182 N   0  0  0  0  0  0  0  0  0  0  0  0
   -1.3206   -0.9784    2.9575 O   0  0  0  0  0  0  0  0  0  0  0  0
    1.4156    0.7542    0.2996 H   0  0  0  0  0  0  0  0  0  0  0  0
    0.7423   -0.2767    2.0369 H   0  0  0  0  0  0  0  0  0  0  0  0
   -0.6833   -0.7528    0.9628 H   0  0  0  0  0  0  0  0  0  0  0  0
    0.4078   -2.5361    0.0449 H   0  0  0  0  0  0  0  0  0  0  0  0
    2.6133   -0.5135    0.1888 H   0  0  0  0  0  0  0  0  0  0  0  0
    3.8981   -1.5178    0.1481 H   0  0  0  0  0  0  0  0  0  0  0  0
    5.1746    0.4130   -2.7185 H   0  0  0  0  0  0  0  0  0  0  0  0
    5.6836   -1.0350   -3.5987 H   0  0  0  0  0  0  0  0  0  0  0  0
    4.0471    0.5189   -5.3769 H   0  0  0  0  0  0  0  0  0  0  0  0
    3.6299   -1.1885   -5.2788 H   0  0  0  0  0  0  0  0  0  0  0  0
    1.3531    0.2884   -5.4008 H   0  0  0  0  0  0  0  0  0  0  0  0
    1.3037   -0.8459   -4.4434 H   0  0  0  0  0  0  0  0  0  0  0  0
    3.5807    1.5246   -2.6289 H   0  0  0  0  0  0  0  0  0  0  0  0
    2.2211    1.5983   -1.4869 H   0  0  0  0  0  0  0  0  0  0  0  0
    3.4861    0.0484   -1.3100 H   0  0  0  0  0  0  0  0  0  0  0  0
    1.7487   -0.3420   -1.7386 H   0  0  0  0  0  0  0  0  0  0  0  0
    3.2382   -2.9082   -3.2164 H   0  0  0  0  0  0  0  0  0  0  0  0
    2.3804   -1.5100   -3.6221 H   0  0  0  0  0  0  0  0  0  0  0  0
    4.3594   -4.0826   -3.4701 H   0  0  0  0  0  0  0  0  0  0  0  0
    5.2730   -2.7792   -3.7376 H   0  0  0  0  0  0  0  0  0  0  0  0
    6.2057   -3.2018   -1.4926 H   0  0  0  0  0  0  0  0  0  0  0  0
    5.2240   -2.3622   -0.6339 H   0  0  0  0  0  0  0  0  0  0  0  0
    4.9520   -4.3326    0.4770 H   0  0  0  0  0  0  0  0  0  0  0  0
    3.4529   -4.0362   -0.0854 H   0  0  0  0  0  0  0  0  0  0  0  0
    4.0227   -6.2957   -0.8624 H   0  0  0  0  0  0  0  0  0  0  0  0
    3.6813   -5.3044   -2.1947 H   0  0  0  0  0  0  0  0  0  0  0  0
    5.9158   -6.3165   -2.6619 H   0  0  0  0  0  0  0  0  0  0  0  0
    6.2183   -4.6991   -2.5218 H   0  0  0  0  0  0  0  0  0  0  0  0
    7.8165   -5.6651   -1.0304 H   0  0  0  0  0  0  0  0  0  0  0  0
    6.7693   -4.7817   -0.0303 H   0  0  0  0  0  0  0  0  0  0  0  0
    6.9330   -7.0084    0.9575 H   0  0  0  0  0  0  0  0  0  0  0  0
    5.3171   -6.7921    0.4679 H   0  0  0  0  0  0  0  0  0  0  0  0
    6.0206   -8.9695   -0.4001 H   0  0  0  0  0  0  0  0  0  0  0  0
    5.7143   -7.9779   -1.7507 H   0  0  0  0  0  0  0  0  0  0  0  0
    7.8842   -9.0293   -2.1338 H   0  0  0  0  0  0  0  0  0  0  0  0
    8.1661   -7.3503   -1.9755 H   0  0  0  0  0  0  0  0  0  0  0  0
    9.7988   -8.4774   -0.5499 H   0  0  0  0  0  0  0  0  0  0  0  0
    8.7572   -7.5894    0.4800 H   0  0  0  0  0  0  0  0  0  0  0  0
    9.0149   -9.8522    1.4091 H   0  0  0  0  0  0  0  0  0  0  0  0
    7.3513   -9.6268    0.9599 H   0  0  0  0  0  0  0  0  0  0  0  0
    8.1058  -11.8225    0.1576 H   0  0  0  0  0  0  0  0  0  0  0  0
    7.7312  -10.8290   -1.2225 H   0  0  0  0  0  0  0  0  0  0  0  0
   10.5328  -11.2356   -0.0718 H   0  0  0  0  0  0  0  0  0  0  0  0
    9.9033  -11.9613   -1.5767 H   0  0  0  0  0  0  0  0  0  0  0  0
   10.1779  -10.2345   -1.4863 H   0  0  0  0  0  0  0  0  0  0  0  0
    1.1768   -3.6769   -2.9832 H   0  0  0  0  0  0  0  0  0  0  0  0
    0.7664   -4.0739    1.9619 H   0  0  0  0  0  0  0  0  0  0  0  0
    0.7101   -2.7120    3.0563 H   0  0  0  0  0  0  0  0  0  0  0  0
   -3.5574   -5.3113    2.6367 H   0  0  0  0  0  0  0  0  0  0  0  0
   -1.1847   -5.2013    1.7523 H   0  0  0  0  0  0  0  0  0  0  0  0
   -5.6952   -3.9775    2.3777 H   0  0  0  0  0  0  0  0  0  0  0  0
   -5.6304   -2.2473    2.2099 H   0  0  0  0  0  0  0  0  0  0  0  0
  1 39  1  0  0  0  0
  2  1  1  0  0  0  0
  2 40  1  0  0  0  0
  2 41  1  0  0  0  0
  3  2  1  0  0  0  0
  3  4  1  0  0  0  0
  3 42  1  6  0  0  0
  4  5  1  0  0  0  0
  5  6  1  0  0  0  0
  5 43  1  0  0  0  0
  5 44  1  0  0  0  0
  6  7  1  0  0  0  0
  6 28  2  0  0  0  0
  6 29  1  0  0  0  0
  7  8  1  0  0  0  0
  8  9  1  0  0  0  0
  8 45  1  0  0  0  0
  8 46  1  0  0  0  0
  9 10  1  0  0  0  0
  9 47  1  0  0  0  0
  9 48  1  0  0  0  0
 10 11  1  0  0  0  0
 10 49  1  0  0  0  0
 10 50  1  0  0  0  0
 11 12  1  0  0  0  0
 12 13  1  0  0  0  0
 12 51  1  0  0  0  0
 12 52  1  0  0  0  0
 13 14  1  0  0  0  0
 13 53  1  0  0  0  0
 13 54  1  0  0  0  0
 14 15  1  0  0  0  0
 14 55  1  0  0  0  0
 14 56  1  0  0  0  0
 15 16  1  0  0  0  0
 15 57  1  0  0  0  0
 15 58  1  0  0  0  0
 16 17  1  0  0  0  0
 16 59  1  0  0  0  0
 16 60  1  0  0  0  0
 17 18  1  0  0  0  0
 17 61  1  0  0  0  0
 17 62  1  0  0  0  0
 18 19  1  0  0  0  0
 18 63  1  0  0  0  0
 18 64  1  0  0  0  0
 19 20  1  0  0  0  0
 19 65  1  0  0  0  0
 19 66  1  0  0  0  0
 20 21  1  0  0  0  0
 20 67  1  0  0  0  0
 20 68  1  0  0  0  0
 21 22  1  0  0  0  0
 21 69  1  0  0  0  0
 21 70  1  0  0  0  0
 22 23  1  0  0  0  0
 22 71  1  0  0  0  0
 22 72  1  0  0  0  0
 23 24  1  0  0  0  0
 23 73  1  0  0  0  0
 23 74  1  0  0  0  0
 24 25  1  0  0  0  0
 24 75  1  0  0  0  0
 24 76  1  0  0  0  0
 25 26  1  0  0  0  0
 25 77  1  0  0  0  0
 25 78  1  0  0  0  0
 26 27  1  0  0  0  0
 26 79  1  0  0  0  0
 26 80  1  0  0  0  0
 27 81  1  0  0  0  0
 27 82  1  0  0  0  0
 27 83  1  0  0  0  0
 29 84  1  0  0  0  0
 30  3  1  0  0  0  0
 30 85  1  0  0  0  0
 30 86  1  0  0  0  0
 31 30  1  0  0  0  0
 31 36  1  0  0  0  0
 32 31  1  0  0  0  0
 32 38  2  0  0  0  0
 33 32  1  0  0  0  0
 34 33  2  0  0  0  0
 34 37  1  0  0  0  0
 35 34  1  0  0  0  0
 35 87  1  0  0  0  0
 36 35  2  0  0  0  0
 36 88  1  0  0  0  0
 37 89  1  0  0  0  0
 37 90  1  0  0  0  0
M  END
>  <DRUGBANK_ID>
DB12151

>  <SECONDARY_ACCESSION_NUMBERS>
DB05176

>  <COMMON_NAME>
Brincidofovir

>  <CAS_NUMBER>
444805-28-1

>  <UNII>
6794O900AX

>  <SYNONYMS>
Brincidofovir; Cidofovir hexadecyloxypropyl ester

$$$$
