
 OpenBabel10282417193D

 62 63  0  0  0  0  0  0  0  0999 V2000
    0.7082   -0.0147    0.3045 C   0  0  0  0  0  0  0  0  0  0  0  0
    0.1900   -1.2878   -0.2623 N   0  0  0  0  0  0  0  0  0  0  0  0
   -1.2407   -1.2936   -0.0685 C   0  0  0  0  0  0  0  0  0  0  0  0
    0.4399   -1.7580   -1.6870 C   0  0  0  0  0  0  0  0  0  0  0  0
    0.3648   -0.8046   -2.8527 C   0  0  3  0  0  0  0  0  0  0  0  0
    1.0229    0.5173   -2.5638 C   0  0  0  0  0  0  0  0  0  0  0  0
    2.3605    0.5468   -2.0255 O   0  0  0  0  0  0  0  0  0  0  0  0
    3.1818   -0.3117   -1.3246 C   0  0  0  0  0  0  0  0  0  0  0  0
    3.0069   -1.6131   -0.7638 C   0  0  0  0  0  0  0  0  0  0  0  0
    3.9334   -2.4746   -0.2306 C   0  0  0  0  0  0  0  0  0  0  0  0
    5.1916   -2.0059   -0.2057 C   0  0  0  0  0  0  0  0  0  0  0  0
    5.4675   -0.7282   -0.7421 C   0  0  0  0  0  0  0  0  0  0  0  0
    4.4502    0.1868   -1.1303 C   0  0  0  0  0  0  0  0  0  0  0  0
    4.6664    1.6958   -1.0575 C   0  0  0  0  0  0  0  0  0  0  0  0
    4.7032    2.3015    0.3855 C   0  0  0  0  0  0  0  0  0  0  0  0
    5.7509    1.7493    1.3264 C   0  0  0  0  0  0  0  0  0  0  0  0
    6.7912    2.4978    1.8558 C   0  0  0  0  0  0  0  0  0  0  0  0
    7.7637    1.8698    2.6486 C   0  0  0  0  0  0  0  0  0  0  0  0
    7.7671    0.4840    2.8377 C   0  0  0  0  0  0  0  0  0  0  0  0
    6.6902   -0.2519    2.3941 C   0  0  0  0  0  0  0  0  0  0  0  0
    5.6569    0.4217    1.7493 C   0  0  0  0  0  0  0  0  0  0  0  0
    6.5177   -1.5998    2.5141 O   0  0  0  0  0  0  0  0  0  0  0  0
    7.3669   -2.2665    3.4292 C   0  0  0  0  0  0  0  0  0  0  0  0
    0.9900   -1.3213   -4.0949 O   0  0  0  0  0  0  0  0  0  0  0  0
    2.3248   -1.6132   -4.2313 C   0  0  0  0  0  0  0  0  0  0  0  0
    3.2353   -1.4575   -3.4755 O   0  0  0  0  0  0  0  0  0  0  0  0
    2.6590   -2.2585   -5.5228 C   0  0  0  0  0  0  0  0  0  0  0  0
    2.1919   -3.6932   -5.5250 C   0  0  0  0  0  0  0  0  0  0  0  0
    0.6952   -3.8054   -5.5781 C   0  0  0  0  0  0  0  0  0  0  0  0
    0.0368   -4.0054   -6.5824 O   0  0  0  0  0  0  0  0  0  0  0  0
    0.0941   -3.5921   -4.3925 O   0  0  0  0  0  0  0  0  0  0  0  0
    0.4066    0.1401    1.3472 H   0  0  0  0  0  0  0  0  0  0  0  0
    0.3208    0.8671   -0.1933 H   0  0  0  0  0  0  0  0  0  0  0  0
    1.7879    0.0916    0.4022 H   0  0  0  0  0  0  0  0  0  0  0  0
   -1.6967   -0.6483   -0.8209 H   0  0  0  0  0  0  0  0  0  0  0  0
   -1.6009   -2.3176   -0.1737 H   0  0  0  0  0  0  0  0  0  0  0  0
   -1.5121   -0.9374    0.9279 H   0  0  0  0  0  0  0  0  0  0  0  0
    1.3879   -2.1844   -1.9853 H   0  0  0  0  0  0  0  0  0  0  0  0
   -0.0437   -2.7412   -1.7812 H   0  0  0  0  0  0  0  0  0  0  0  0
   -0.7057   -0.7031   -3.0772 H   0  0  0  0  0  0  0  0  0  0  0  0
    1.0069    1.0719   -3.5137 H   0  0  0  0  0  0  0  0  0  0  0  0
    0.3856    1.1574   -1.9549 H   0  0  0  0  0  0  0  0  0  0  0  0
    2.1187   -2.1626   -0.5529 H   0  0  0  0  0  0  0  0  0  0  0  0
    3.5998   -3.4298    0.1731 H   0  0  0  0  0  0  0  0  0  0  0  0
    5.8864   -2.5571    0.4132 H   0  0  0  0  0  0  0  0  0  0  0  0
    6.4781   -0.3650   -0.6121 H   0  0  0  0  0  0  0  0  0  0  0  0
    5.5715    1.9465   -1.6134 H   0  0  0  0  0  0  0  0  0  0  0  0
    3.8498    2.2272   -1.5727 H   0  0  0  0  0  0  0  0  0  0  0  0
    4.8451    3.3863    0.2831 H   0  0  0  0  0  0  0  0  0  0  0  0
    3.7278    2.1791    0.8774 H   0  0  0  0  0  0  0  0  0  0  0  0
    6.8329    3.5709    1.6961 H   0  0  0  0  0  0  0  0  0  0  0  0
    8.5235    2.4645    3.1430 H   0  0  0  0  0  0  0  0  0  0  0  0
    8.5823    0.0165    3.3751 H   0  0  0  0  0  0  0  0  0  0  0  0
    4.7670   -0.1403    1.4860 H   0  0  0  0  0  0  0  0  0  0  0  0
    8.4031   -2.2727    3.0772 H   0  0  0  0  0  0  0  0  0  0  0  0
    7.2773   -1.8057    4.4157 H   0  0  0  0  0  0  0  0  0  0  0  0
    7.0332   -3.3058    3.5080 H   0  0  0  0  0  0  0  0  0  0  0  0
    2.3208   -1.6244   -6.3397 H   0  0  0  0  0  0  0  0  0  0  0  0
    3.7621   -2.2625   -5.5565 H   0  0  0  0  0  0  0  0  0  0  0  0
    2.5996   -4.1683   -6.4210 H   0  0  0  0  0  0  0  0  0  0  0  0
    2.5711   -4.2582   -4.6637 H   0  0  0  0  0  0  0  0  0  0  0  0
   -0.8377   -3.3731   -4.6040 H   0  0  0  0  0  0  0  0  0  0  0  0
  1  2  1  0  0  0  0
  1 32  1  0  0  0  0
  1 33  1  0  0  0  0
  1 34  1  0  0  0  0
  2  3  1  0  0  0  0
  2  4  1  0  0  0  0
  3 35  1  0  0  0  0
  3 36  1  0  0  0  0
  3 37  1  0  0  0  0
  4  5  1  0  0  0  0
  4 38  1  0  0  0  0
  4 39  1  0  0  0  0
  5  6  1  0  0  0  0
  5 24  1  0  0  0  0
  5 40  1  0  0  0  0
  6  7  1  0  0  0  0
  6 41  1  0  0  0  0
  6 42  1  0  0  0  0
  7  8  1  0  0  0  0
  8  9  2  0  0  0  0
  8 13  1  0  0  0  0
  9 10  1  0  0  0  0
  9 43  1  0  0  0  0
 10 11  2  0  0  0  0
 10 44  1  0  0  0  0
 11 12  1  0  0  0  0
 11 45  1  0  0  0  0
 12 13  2  0  0  0  0
 12 46  1  0  0  0  0
 13 14  1  0  0  0  0
 14 15  1  0  0  0  0
 14 47  1  0  0  0  0
 14 48  1  0  0  0  0
 15 16  1  0  0  0  0
 15 49  1  0  0  0  0
 15 50  1  0  0  0  0
 16 17  2  0  0  0  0
 16 21  1  0  0  0  0
 17 18  1  0  0  0  0
 17 51  1  0  0  0  0
 18 19  2  0  0  0  0
 18 52  1  0  0  0  0
 19 20  1  0  0  0  0
 19 53  1  0  0  0  0
 20 21  2  0  0  0  0
 20 22  1  0  0  0  0
 21 54  1  0  0  0  0
 22 23  1  0  0  0  0
 23 55  1  0  0  0  0
 23 56  1  0  0  0  0
 23 57  1  0  0  0  0
 24 25  1  0  0  0  0
 25 26  2  0  0  0  0
 25 27  1  0  0  0  0
 27 28  1  0  0  0  0
 27 58  1  0  0  0  0
 27 59  1  0  0  0  0
 28 29  1  0  0  0  0
 28 60  1  0  0  0  0
 28 61  1  0  0  0  0
 29 30  2  0  0  0  0
 29 31  1  0  0  0  0
 31 62  1  0  0  0  0
M  END
>  <DRUGBANK_ID>
DB12163

>  <COMMON_NAME>
Sarpogrelate

>  <CAS_NUMBER>
125926-17-2

>  <UNII>
19P708E787

>  <SYNONYMS>
Sarpogrelate

$$$$
