Untitled Document-7
 OpenBabel10282417133D

 53 56  0  0  0  0  0  0  0  0999 V2000
    1.4817   -1.1748    0.4735 C   0  0  0  0  0  0  0  0  0  0  0  0
    1.6482   -2.6643    1.1740 C   0  0  1  0  0  0  0  0  0  0  0  0
    2.1018   -2.5185    2.6991 C   0  0  0  0  0  0  0  0  0  0  0  0
    2.2034   -1.0110    2.9917 C   0  0  1  0  0  0  0  0  0  0  0  0
    0.8044   -0.4031    2.6884 C   0  0  2  0  0  0  0  0  0  0  0  0
    0.3054   -0.7607    1.2898 C   0  0  0  0  0  0  0  0  0  0  0  0
    2.7089   -0.5171    4.3462 C   0  0  0  0  0  0  0  0  0  0  0  0
    2.7083    1.0937    4.4704 C   0  0  0  0  0  0  0  0  0  0  0  0
    1.2655    1.7653    4.1735 C   0  0  2  0  0  0  0  0  0  0  0  0
    0.9375    1.1486    2.7094 C   0  0  2  0  0  0  0  0  0  0  0  0
    0.7206    3.4950    4.6633 C   0  0  1  0  0  0  0  0  0  0  0  0
    0.0830    3.5991    3.3429 C   0  0  2  0  0  0  0  0  0  0  0  0
   -0.1034    3.1478    1.9823 C   0  0  0  0  0  0  0  0  0  0  0  0
   -0.2965    1.7051    2.0262 C   0  0  0  0  0  0  0  0  0  0  0  0
   -0.7502    4.8663    4.5214 C   0  0  0  0  0  0  0  0  0  0  0  0
   -0.5448    5.8201    3.3089 C   0  0  0  0  0  0  0  0  0  0  0  0
    0.7320    5.1598    3.2771 C   0  0  2  0  0  0  0  0  0  0  0  0
    0.4052   -3.4191    1.2286 O   0  0  0  0  0  0  0  0  0  0  0  0
   -0.2553   -0.9553    3.6529 C   0  0  0  0  0  0  0  0  0  0  0  0
    0.7243    1.1851    4.9159 H   0  0  0  0  0  0  0  0  0  0  0  0
   -1.1665    2.6581    4.4210 C   0  0  0  0  0  0  0  0  0  0  0  0
    1.6346    5.4527    2.2509 O   0  0  0  0  0  0  0  0  0  0  0  0
    2.9937   -0.6689    2.3085 H   0  0  0  0  0  0  0  0  0  0  0  0
    1.7888    1.4096    2.0467 H   0  0  0  0  0  0  0  0  0  0  0  0
    1.6389    3.9850    4.9391 H   0  0  0  0  0  0  0  0  0  0  0  0
    1.1020   -0.8014   -0.4906 H   0  0  0  0  0  0  0  0  0  0  0  0
    2.4321   -0.6094    0.5234 H   0  0  0  0  0  0  0  0  0  0  0  0
    2.3114   -3.3550    0.6642 H   0  0  0  0  0  0  0  0  0  0  0  0
    3.0563   -3.0268    2.8726 H   0  0  0  0  0  0  0  0  0  0  0  0
    1.4105   -3.0029    3.4092 H   0  0  0  0  0  0  0  0  0  0  0  0
   -0.6488   -0.2842    1.0619 H   0  0  0  0  0  0  0  0  0  0  0  0
   -0.2990   -1.6137    1.0195 H   0  0  0  0  0  0  0  0  0  0  0  0
    2.1000   -0.9589    5.1377 H   0  0  0  0  0  0  0  0  0  0  0  0
    3.7244   -0.9157    4.4911 H   0  0  0  0  0  0  0  0  0  0  0  0
    3.0457    1.3166    5.4827 H   0  0  0  0  0  0  0  0  0  0  0  0
    3.4711    1.4492    3.7603 H   0  0  0  0  0  0  0  0  0  0  0  0
   -1.0122    3.5863    1.5488 H   0  0  0  0  0  0  0  0  0  0  0  0
    0.7291    3.3962    1.3121 H   0  0  0  0  0  0  0  0  0  0  0  0
   -1.2031    1.3991    2.5478 H   0  0  0  0  0  0  0  0  0  0  0  0
   -0.4597    1.4253    0.9885 H   0  0  0  0  0  0  0  0  0  0  0  0
   -1.1859    5.3558    5.3911 H   0  0  0  0  0  0  0  0  0  0  0  0
   -1.7268    4.5026    4.1162 H   0  0  0  0  0  0  0  0  0  0  0  0
   -0.5578    6.8971    3.4749 H   0  0  0  0  0  0  0  0  0  0  0  0
   -1.1138    5.6046    2.3851 H   0  0  0  0  0  0  0  0  0  0  0  0
    1.2467    5.5780    4.1747 H   0  0  0  0  0  0  0  0  0  0  0  0
   -0.0074   -3.3584    0.3488 H   0  0  0  0  0  0  0  0  0  0  0  0
   -1.2362   -0.5251    3.4534 H   0  0  0  0  0  0  0  0  0  0  0  0
   -0.3842   -2.0356    3.5394 H   0  0  0  0  0  0  0  0  0  0  0  0
    0.0016   -0.7709    4.6941 H   0  0  0  0  0  0  0  0  0  0  0  0
   -0.9911    1.5872    4.5197 H   0  0  0  0  0  0  0  0  0  0  0  0
   -1.1254    2.9549    5.5097 H   0  0  0  0  0  0  0  0  0  0  0  0
   -2.2018    2.7511    4.0990 H   0  0  0  0  0  0  0  0  0  0  0  0
    1.1472    5.5435    1.4270 H   0  0  0  0  0  0  0  0  0  0  0  0
  1  2  1  0  0  0  0
  1 26  1  0  0  0  0
  1 27  1  0  0  0  0
  2  3  1  0  0  0  0
  2 28  1  6  0  0  0
  2 18  1  0  0  0  0
  3  4  1  0  0  0  0
  3 29  1  0  0  0  0
  3 30  1  0  0  0  0
  4  5  1  0  0  0  0
  4  7  1  0  0  0  0
  4 23  1  6  0  0  0
  5  6  1  0  0  0  0
  5 19  1  1  0  0  0
  6  1  1  0  0  0  0
  6 31  1  0  0  0  0
  6 32  1  0  0  0  0
  7  8  1  0  0  0  0
  7 33  1  0  0  0  0
  7 34  1  0  0  0  0
  8  9  1  0  0  0  0
  8 35  1  0  0  0  0
  8 36  1  0  0  0  0
  9 10  1  0  0  0  0
  9 11  1  0  0  0  0
  9 20  1  1  0  0  0
 10  5  1  0  0  0  0
 10 24  1  6  0  0  0
 11 12  1  0  0  0  0
 11 15  1  0  0  0  0
 11 25  1  6  0  0  0
 12 13  1  0  0  0  0
 12 21  1  1  0  0  0
 13 14  1  0  0  0  0
 13 37  1  0  0  0  0
 13 38  1  0  0  0  0
 14 10  1  0  0  0  0
 14 39  1  0  0  0  0
 14 40  1  0  0  0  0
 15 16  1  0  0  0  0
 15 41  1  0  0  0  0
 15 42  1  0  0  0  0
 16 17  1  0  0  0  0
 16 43  1  0  0  0  0
 16 44  1  0  0  0  0
 17 12  1  0  0  0  0
 17 45  1  1  0  0  0
 17 22  1  0  0  0  0
 18 46  1  0  0  0  0
 19 47  1  0  0  0  0
 19 48  1  0  0  0  0
 19 49  1  0  0  0  0
 21 50  1  0  0  0  0
 21 51  1  0  0  0  0
 21 52  1  0  0  0  0
 22 53  1  0  0  0  0
M  END
>  <DRUGBANK_ID>
DB03882

>  <SECONDARY_ACCESSION_NUMBERS>
EXPT00530; DB01507

>  <COMMON_NAME>
5-Alpha-Androstane-3-Beta,17beta-Diol

>  <CAS_NUMBER>
571-20-0

>  <UNII>
6J0K4253QD

$$$$
