
 OpenBabel10282417183D

 65 69  0  0  0  0  0  0  0  0999 V2000
    1.4200   -0.3729   -1.8464 O   0  0  0  0  0  0  0  0  0  0  0  0
    0.5645   -1.4898   -2.1977 S   0  0  0  0  0  0  0  0  0  0  0  0
    0.9606   -2.4193   -3.2393 O   0  0  0  0  0  0  0  0  0  0  0  0
    1.1826   -5.1623   -5.1294 C   0  0  0  0  0  0  0  0  0  0  0  0
    1.7837   -5.2925   -3.8728 C   0  0  0  0  0  0  0  0  0  0  0  0
    1.0308   -5.7256   -2.7758 C   0  0  0  0  0  0  0  0  0  0  0  0
   -0.3519   -5.9815   -2.9460 C   0  0  0  0  0  0  0  0  0  0  0  0
   -0.1709   -5.4688   -5.3221 C   0  0  0  0  0  0  0  0  0  0  0  0
   -0.9582   -5.8521   -4.2146 C   0  0  0  0  0  0  0  0  0  0  0  0
   -2.4228   -6.2063   -4.4176 C   0  0  0  0  0  0  0  0  0  0  0  0
   -2.9645   -5.6843   -5.7449 C   0  0  0  0  0  0  0  0  0  0  0  0
   -2.0346   -6.0163   -6.8252 N   0  0  0  0  0  0  0  0  0  0  0  0
   -0.7587   -5.3279   -6.7127 C   0  0  0  0  0  0  0  0  0  0  0  0
   -2.3994   -6.9316   -7.8125 C   0  0  0  0  0  0  0  0  0  0  0  0
   -1.4603   -7.2632   -8.9233 C   0  0  0  0  0  0  0  0  0  0  0  0
   -3.5045   -7.4701   -7.8440 O   0  0  0  0  0  0  0  0  0  0  0  0
   -0.2109   -7.8581   -8.6901 C   0  0  0  0  0  0  0  0  0  0  0  0
    0.6603   -8.1625   -9.7580 C   0  0  0  0  0  0  0  0  0  0  0  0
   -1.9018   -7.0286  -10.2336 C   0  0  0  0  0  0  0  0  0  0  0  0
   -1.3718   -6.4443   -1.6044 Cl  0  0  0  0  0  0  0  0  0  0  0  0
    3.4776   -4.9391   -3.7975 Cl  0  0  0  0  0  0  0  0  0  0  0  0
    1.6776   -6.1568   -1.5156 C   0  0  0  0  0  0  0  0  0  0  0  0
    2.7189   -5.4227   -0.9725 N   0  0  0  0  0  0  0  0  0  0  0  0
    1.3220   -7.2290   -1.0639 O   0  0  0  0  0  0  0  0  0  0  0  0
    3.1779   -5.5987    0.4237 C   0  0  1  0  0  0  0  0  0  0  0  0
    2.7573   -4.4661    1.4109 C   0  0  0  0  0  0  0  0  0  0  0  0
    2.7562   -6.9278    1.0894 C   0  0  0  0  0  0  0  0  0  0  0  0
    3.7433   -7.8486    1.1982 O   0  0  0  0  0  0  0  0  0  0  0  0
    1.6375   -7.1387    1.5405 O   0  0  0  0  0  0  0  0  0  0  0  0
    1.5093   -3.7402    0.9854 C   0  0  0  0  0  0  0  0  0  0  0  0
    0.3031   -3.9040    1.6643 C   0  0  0  0  0  0  0  0  0  0  0  0
   -0.8642   -3.3412    1.1449 C   0  0  0  0  0  0  0  0  0  0  0  0
   -0.8417   -2.6295   -0.0612 C   0  0  0  0  0  0  0  0  0  0  0  0
    0.3715   -2.4335   -0.7122 C   0  0  0  0  0  0  0  0  0  0  0  0
    1.5416   -2.9507   -0.1697 C   0  0  0  0  0  0  0  0  0  0  0  0
   -1.0231   -7.3490  -11.2643 C   0  0  0  0  0  0  0  0  0  0  0  0
    0.2398   -7.8956  -11.0783 C   0  0  0  0  0  0  0  0  0  0  0  0
    0.7808   -8.0441  -12.3888 C   0  0  0  0  0  0  0  0  0  0  0  0
   -0.1794   -7.5868  -13.2676 C   0  0  0  0  0  0  0  0  0  0  0  0
   -1.2770   -7.1649  -12.5875 O   0  0  0  0  0  0  0  0  0  0  0  0
   -1.0222   -0.8512   -2.6266 C   0  0  0  0  0  0  0  0  0  0  0  0
    1.7853   -4.8371   -5.9759 H   0  0  0  0  0  0  0  0  0  0  0  0
   -3.0321   -5.7771   -3.6141 H   0  0  0  0  0  0  0  0  0  0  0  0
   -2.5222   -7.2987   -4.3829 H   0  0  0  0  0  0  0  0  0  0  0  0
   -3.0426   -4.5889   -5.6950 H   0  0  0  0  0  0  0  0  0  0  0  0
   -3.9732   -6.0709   -5.9206 H   0  0  0  0  0  0  0  0  0  0  0  0
   -0.0445   -5.6784   -7.4554 H   0  0  0  0  0  0  0  0  0  0  0  0
   -0.9431   -4.2652   -6.9084 H   0  0  0  0  0  0  0  0  0  0  0  0
    0.0974   -8.0908   -7.6721 H   0  0  0  0  0  0  0  0  0  0  0  0
    1.6350   -8.6010   -9.5563 H   0  0  0  0  0  0  0  0  0  0  0  0
   -2.8781   -6.6192  -10.4567 H   0  0  0  0  0  0  0  0  0  0  0  0
    3.0111   -4.5915   -1.4722 H   0  0  0  0  0  0  0  0  0  0  0  0
    4.2749   -5.5657    0.3674 H   0  0  0  0  0  0  0  0  0  0  0  0
    3.5585   -3.7208    1.5125 H   0  0  0  0  0  0  0  0  0  0  0  0
    2.6335   -4.8710    2.4264 H   0  0  0  0  0  0  0  0  0  0  0  0
    4.6110   -7.5923    0.8422 H   0  0  0  0  0  0  0  0  0  0  0  0
    0.2597   -4.4906    2.5818 H   0  0  0  0  0  0  0  0  0  0  0  0
   -1.7993   -3.4749    1.6838 H   0  0  0  0  0  0  0  0  0  0  0  0
   -1.7734   -2.2312   -0.4431 H   0  0  0  0  0  0  0  0  0  0  0  0
    2.4814   -2.7810   -0.6909 H   0  0  0  0  0  0  0  0  0  0  0  0
    1.7528   -8.4409  -12.6467 H   0  0  0  0  0  0  0  0  0  0  0  0
   -0.2546   -7.4917  -14.3445 H   0  0  0  0  0  0  0  0  0  0  0  0
   -1.3952   -0.2460   -1.8000 H   0  0  0  0  0  0  0  0  0  0  0  0
   -0.9030   -0.2278   -3.5154 H   0  0  0  0  0  0  0  0  0  0  0  0
   -1.6948   -1.6815   -2.8502 H   0  0  0  0  0  0  0  0  0  0  0  0
  2  1  2  0  0  0  0
  2 41  1  0  0  0  0
  3  2  2  0  0  0  0
  4  5  2  0  0  0  0
  4 42  1  0  0  0  0
  5  6  1  0  0  0  0
  5 21  1  0  0  0  0
  6  7  2  0  0  0  0
  6 22  1  0  0  0  0
  7  9  1  0  0  0  0
  7 20  1  0  0  0  0
  8  4  1  0  0  0  0
  8  9  2  0  0  0  0
  8 13  1  0  0  0  0
  9 10  1  0  0  0  0
 10 11  1  0  0  0  0
 10 43  1  0  0  0  0
 10 44  1  0  0  0  0
 11 12  1  0  0  0  0
 11 45  1  0  0  0  0
 11 46  1  0  0  0  0
 12 13  1  0  0  0  0
 12 14  1  0  0  0  0
 13 47  1  0  0  0  0
 13 48  1  0  0  0  0
 14 15  1  0  0  0  0
 14 16  2  0  0  0  0
 15 17  2  0  0  0  0
 17 18  1  0  0  0  0
 17 49  1  0  0  0  0
 18 37  2  0  0  0  0
 18 50  1  0  0  0  0
 19 15  1  0  0  0  0
 19 51  1  0  0  0  0
 22 23  1  0  0  0  0
 22 24  2  0  0  0  0
 23 52  1  0  0  0  0
 25 27  1  0  0  0  0
 25 53  1  6  0  0  0
 25 26  1  0  0  0  0
 25 23  1  0  0  0  0
 26 30  1  0  0  0  0
 26 54  1  0  0  0  0
 26 55  1  0  0  0  0
 27 28  1  0  0  0  0
 27 29  2  0  0  0  0
 28 56  1  0  0  0  0
 30 31  2  0  0  0  0
 31 32  1  0  0  0  0
 31 57  1  0  0  0  0
 32 33  2  0  0  0  0
 32 58  1  0  0  0  0
 33 34  1  0  0  0  0
 33 59  1  0  0  0  0
 34 35  2  0  0  0  0
 34  2  1  0  0  0  0
 35 30  1  0  0  0  0
 35 60  1  0  0  0  0
 36 19  2  0  0  0  0
 36 37  1  0  0  0  0
 37 38  1  0  0  0  0
 38 39  2  0  0  0  0
 38 61  1  0  0  0  0
 39 40  1  0  0  0  0
 39 62  1  0  0  0  0
 40 36  1  0  0  0  0
 41 63  1  0  0  0  0
 41 64  1  0  0  0  0
 41 65  1  0  0  0  0
M  END
>  <DRUGBANK_ID>
DB11611

>  <COMMON_NAME>
Lifitegrast

>  <CAS_NUMBER>
1025967-78-5

>  <UNII>
038E5L962W

>  <SYNONYMS>
Lifitegrast

$$$$
