
 OpenBabel10282417183D

 56 59  0  0  1  0  0  0  0  0999 V2000
    3.5220    4.5997   -3.5763 C   0  0  0  0  0  0  0  0  0  0  0  0
    6.0421    4.0937    2.1593 C   0  0  0  0  0  0  0  0  0  0  0  0
    9.0063    3.2186   -0.6990 C   0  0  0  0  0  0  0  0  0  0  0  0
    3.8147    5.6071    0.7564 C   0  0  0  0  0  0  0  0  0  0  0  0
    7.8223    0.2420    1.2449 C   0  0  0  0  0  0  0  0  0  0  0  0
    1.1620    2.8672    0.8759 C   0  0  0  0  0  0  0  0  0  0  0  0
    4.0962    2.2649    2.0129 C   0  0  0  0  0  0  0  0  0  0  0  0
    1.9010    4.1204    1.3047 C   0  0  0  0  0  0  0  0  0  0  0  0
    5.3883    1.1807    2.2622 C   0  0  0  0  0  0  0  0  0  0  0  0
    4.9867    3.7664   -1.9211 C   0  0  0  0  0  0  0  0  0  0  0  0
    5.5596    1.5662    0.2013 C   0  0  0  0  0  0  0  0  0  0  0  0
    1.3719    4.2100   -1.3436 C   0  0  0  0  0  0  0  0  0  0  0  0
    3.7496    4.2495   -2.1512 C   0  0  0  0  0  0  0  0  0  0  0  0
    6.3712    3.0269    1.3737 C   0  0  0  0  0  0  0  0  0  0  0  0
    8.9723    3.2083    0.8136 C   0  0  0  0  0  0  0  0  0  0  0  0
    0.5403    3.3193   -0.4227 C   0  0  0  0  0  0  0  0  0  0  0  0
    5.4287    3.4207   -0.5700 C   0  0  2  0  0  0  0  0  0  0  0  0
    3.9808    3.0488    0.4640 C   0  0  1  0  0  0  0  0  0  0  0  0
    2.6946    4.3084   -1.0985 C   0  0  0  0  0  0  0  0  0  0  0  0
    6.6418    2.1982   -0.3720 C   0  0  1  0  0  0  0  0  0  0  0  0
    3.1209    4.2821    0.3776 C   0  0  1  0  0  0  0  0  0  0  0  0
    7.0052    1.5008    1.2485 C   0  0  2  0  0  0  0  0  0  0  0  0
    7.7651    2.6662    1.6600 C   0  0  2  0  0  0  0  0  0  0  0  0
    9.9897    3.5971    1.4090 O   0  0  0  0  0  0  0  0  0  0  0  0
   -0.5592    2.9074   -0.7781 O   0  0  0  0  0  0  0  0  0  0  0  0
    8.0165    2.6914    3.0502 O   0  0  0  0  0  0  0  0  0  0  0  0
    5.9244    4.3565   -0.2881 H   0  0  0  0  0  0  0  0  0  0  0  0
    3.4506    2.2592   -0.1005 H   0  0  0  0  0  0  0  0  0  0  0  0
    6.9935    1.6589   -1.2472 H   0  0  0  0  0  0  0  0  0  0  0  0
    4.4078    5.1272   -3.9602 H   0  0  0  0  0  0  0  0  0  0  0  0
    2.6657    5.2543   -3.7029 H   0  0  0  0  0  0  0  0  0  0  0  0
    3.4044    3.6798   -4.1589 H   0  0  0  0  0  0  0  0  0  0  0  0
    5.1195    4.4389    2.6122 H   0  0  0  0  0  0  0  0  0  0  0  0
    6.7793    4.8272    2.4947 H   0  0  0  0  0  0  0  0  0  0  0  0
    9.6024    4.0610   -1.0464 H   0  0  0  0  0  0  0  0  0  0  0  0
    9.4079    2.2633   -1.0504 H   0  0  0  0  0  0  0  0  0  0  0  0
    8.0669    3.4395   -1.1913 H   0  0  0  0  0  0  0  0  0  0  0  0
    4.8679    5.6796    0.4863 H   0  0  0  0  0  0  0  0  0  0  0  0
    3.3454    6.4595    0.2664 H   0  0  0  0  0  0  0  0  0  0  0  0
    3.7702    5.7763    1.8365 H   0  0  0  0  0  0  0  0  0  0  0  0
    8.1697    0.0512    0.2304 H   0  0  0  0  0  0  0  0  0  0  0  0
    8.6593    0.3510    1.9315 H   0  0  0  0  0  0  0  0  0  0  0  0
    7.1897   -0.5824    1.5805 H   0  0  0  0  0  0  0  0  0  0  0  0
    0.4638    2.5478    1.6507 H   0  0  0  0  0  0  0  0  0  0  0  0
    1.7626    1.9677    0.6805 H   0  0  0  0  0  0  0  0  0  0  0  0
    3.8235    2.3463    3.0874 H   0  0  0  0  0  0  0  0  0  0  0  0
    3.9972    3.2900    2.3296 H   0  0  0  0  0  0  0  0  0  0  0  0
    2.1254    4.1086    2.3761 H   0  0  0  0  0  0  0  0  0  0  0  0
    1.2768    5.0137    1.1697 H   0  0  0  0  0  0  0  0  0  0  0  0
    5.6014    0.9577    3.3032 H   0  0  0  0  0  0  0  0  0  0  0  0
    4.9147    0.2556    1.8707 H   0  0  0  0  0  0  0  0  0  0  0  0
    5.7516    3.6862   -2.6903 H   0  0  0  0  0  0  0  0  0  0  0  0
    5.7810    0.4740    0.2003 H   0  0  0  0  0  0  0  0  0  0  0  0
    4.9455    1.5171   -0.7171 H   0  0  0  0  0  0  0  0  0  0  0  0
    0.8948    4.5604   -2.2415 H   0  0  0  0  0  0  0  0  0  0  0  0
    8.3760    3.5842    3.2189 H   0  0  0  0  0  0  0  0  0  0  0  0
  1 30  1  0  0  0  0
  1 31  1  0  0  0  0
  1 32  1  0  0  0  0
  2 33  1  0  0  0  0
  2 34  1  0  0  0  0
  3 35  1  0  0  0  0
  3 36  1  0  0  0  0
  3 37  1  0  0  0  0
  4 38  1  0  0  0  0
  4 39  1  0  0  0  0
  4 40  1  0  0  0  0
  5 41  1  0  0  0  0
  5 42  1  0  0  0  0
  5 43  1  0  0  0  0
  6 44  1  0  0  0  0
  6 45  1  0  0  0  0
  7 46  1  0  0  0  0
  7 47  1  0  0  0  0
  8  6  1  0  0  0  0
  8 48  1  0  0  0  0
  8 49  1  0  0  0  0
  9  7  1  0  0  0  0
  9 50  1  0  0  0  0
  9 51  1  0  0  0  0
 10 52  1  0  0  0  0
 11 53  1  0  0  0  0
 11 54  1  0  0  0  0
 12 55  1  0  0  0  0
 13 10  2  0  0  0  0
 13  1  1  0  0  0  0
 14 11  1  0  0  0  0
 14  2  2  0  0  0  0
 15  3  1  0  0  0  0
 16  6  1  0  0  0  0
 16 12  1  0  0  0  0
 17 10  1  0  0  0  0
 17 27  1  6  0  0  0
 18  7  1  0  0  0  0
 18 17  1  0  0  0  0
 18 28  1  1  0  0  0
 19 12  2  0  0  0  0
 19 13  1  0  0  0  0
 20 11  1  0  0  0  0
 20 17  1  0  0  0  0
 20 29  1  6  0  0  0
 21  8  1  0  0  0  0
 21 18  1  0  0  0  0
 21 19  1  0  0  0  0
 21  4  1  6  0  0  0
 22  9  1  0  0  0  0
 22 20  1  0  0  0  0
 22  5  1  6  0  0  0
 23 14  1  0  0  0  0
 23 22  1  0  0  0  0
 23 26  1  1  0  0  0
 23 15  1  0  0  0  0
 24 15  2  0  0  0  0
 25 16  2  0  0  0  0
 26 56  1  0  0  0  0
M  END
>  <DRUGBANK_ID>
DB11529

>  <COMMON_NAME>
Melengestrol

>  <CAS_NUMBER>
5633-18-1

>  <UNII>
BX98J4T6JU

>  <SYNONYMS>
Melengesterol; Melengestrel; Melengestrol; Melengestrolo; Melengestrolum

$$$$
