
 OpenBabel10282417183D

 71 76  0  0  1  0  0  0  0  0999 V2000
   -2.0335    0.0322   -0.0049 C   0  0  0  0  0  0  0  0  0  0  0  0
   -1.3176    1.2433   -0.0221 C   0  0  0  0  0  0  0  0  0  0  0  0
    0.0535    1.2231   -0.2420 C   0  0  0  0  0  0  0  0  0  0  0  0
    0.6048   -0.0152   -0.5554 C   0  0  0  0  0  0  0  0  0  0  0  0
    0.0011   -1.2130   -0.1900 C   0  0  0  0  0  0  0  0  0  0  0  0
   -1.3596   -1.1952    0.0035 C   0  0  0  0  0  0  0  0  0  0  0  0
   -2.0668   -2.3958    0.0357 N   0  0  0  0  0  0  0  0  0  0  0  0
   -1.8929   -3.4105    1.0168 C   0  0  0  0  0  0  0  0  0  0  0  0
   -3.0684   -4.3237    0.7207 C   0  0  1  0  0  0  0  0  0  0  0  0
   -3.4634   -4.0153   -0.6238 O   0  0  0  0  0  0  0  0  0  0  0  0
   -2.9178   -2.8086   -0.9653 C   0  0  0  0  0  0  0  0  0  0  0  0
   -3.1525   -2.2428   -2.0203 O   0  0  0  0  0  0  0  0  0  0  0  0
   -2.7199   -5.7991    0.8381 C   0  0  0  0  0  0  0  0  0  0  0  0
   -2.3289   -6.1254    2.1653 O   0  0  0  0  0  0  0  0  0  0  0  0
    1.8095   -0.0917   -1.1308 F   0  0  0  0  0  0  0  0  0  0  0  0
    0.7594    2.3890   -0.0882 O   0  0  0  0  0  0  0  0  0  0  0  0
    2.2123    2.3473   -0.0050 C   0  0  0  0  0  0  0  0  0  0  0  0
    2.8220    1.6967    1.2864 C   0  0  0  0  0  0  0  0  0  0  0  0
    4.3622    1.8107    1.2665 C   0  0  0  0  0  0  0  0  0  0  0  0
    4.9686    0.9035    2.3400 C   0  0  0  0  0  0  0  0  0  0  0  0
    4.4589   -0.4419    2.0675 N   0  0  0  0  0  0  0  0  0  0  0  0
    3.0739   -0.6421    2.4131 C   0  0  0  0  0  0  0  0  0  0  0  0
    2.4208    0.2271    1.3988 C   0  0  0  0  0  0  0  0  0  0  0  0
    5.2916   -1.5213    1.9201 C   0  0  0  0  0  0  0  0  0  0  0  0
    5.3603   -2.4117    0.8247 C   0  0  0  0  0  0  0  0  0  0  0  0
    6.1835   -3.6253    0.9610 C   0  0  0  0  0  0  0  0  0  0  0  0
    6.5422   -4.1069    2.2223 C   0  0  0  0  0  0  0  0  0  0  0  0
    6.7422   -3.0515    3.1091 C   0  0  0  0  0  0  0  0  0  0  0  0
    6.1336   -1.8098    2.9698 C   0  0  0  0  0  0  0  0  0  0  0  0
    6.2844   -0.9233    3.9641 F   0  0  0  0  0  0  0  0  0  0  0  0
    7.5107   -5.3556    2.1819 C   0  0  0  0  0  0  0  0  0  0  0  0
    7.0984   -6.5397    2.1237 O   0  0  0  0  0  0  0  0  0  0  0  0
    8.9553   -5.1280    1.9430 C   0  0  0  0  0  0  0  0  0  0  0  0
    8.7968   -4.0805    1.0757 C   0  0  0  0  0  0  0  0  0  0  0  0
    7.4498   -3.8726    0.1375 N   0  0  0  0  0  0  0  0  0  0  0  0
    7.1431   -5.1175   -0.9205 C   0  0  0  0  0  0  0  0  0  0  0  0
    7.0624   -6.6582   -0.6987 C   0  0  0  0  0  0  0  0  0  0  0  0
    8.3446   -5.9841   -1.0730 C   0  0  0  0  0  0  0  0  0  0  0  0
    9.9195   -6.3028    1.7604 C   0  0  0  0  0  0  0  0  0  0  0  0
   10.0019   -7.0836    0.8192 O   0  0  0  0  0  0  0  0  0  0  0  0
   10.7953   -6.4908    2.7760 O   0  0  0  0  0  0  0  0  0  0  0  0
    2.3235    2.3947    2.4340 O   0  0  0  0  0  0  0  0  0  0  0  0
   -3.1188    0.0483    0.0323 H   0  0  0  0  0  0  0  0  0  0  0  0
   -1.8437    2.1886    0.0815 H   0  0  0  0  0  0  0  0  0  0  0  0
    0.5910   -2.1226   -0.1738 H   0  0  0  0  0  0  0  0  0  0  0  0
   -0.9235   -3.9106    0.9021 H   0  0  0  0  0  0  0  0  0  0  0  0
   -1.9584   -2.9821    2.0220 H   0  0  0  0  0  0  0  0  0  0  0  0
   -3.9048   -4.0857    1.3894 H   0  0  0  0  0  0  0  0  0  0  0  0
   -3.5926   -6.4082    0.5776 H   0  0  0  0  0  0  0  0  0  0  0  0
   -1.9240   -6.0814    0.1390 H   0  0  0  0  0  0  0  0  0  0  0  0
   -1.5070   -5.6535    2.3790 H   0  0  0  0  0  0  0  0  0  0  0  0
    2.6236    1.9091   -0.9222 H   0  0  0  0  0  0  0  0  0  0  0  0
    2.5403    3.3963   -0.0291 H   0  0  0  0  0  0  0  0  0  0  0  0
    4.7481    1.4877    0.2890 H   0  0  0  0  0  0  0  0  0  0  0  0
    4.6846    2.8430    1.4339 H   0  0  0  0  0  0  0  0  0  0  0  0
    6.0583    0.9408    2.2898 H   0  0  0  0  0  0  0  0  0  0  0  0
    4.6676    1.2465    3.3409 H   0  0  0  0  0  0  0  0  0  0  0  0
    2.7214   -1.6734    2.2588 H   0  0  0  0  0  0  0  0  0  0  0  0
    2.7701   -0.3349    3.4226 H   0  0  0  0  0  0  0  0  0  0  0  0
    1.3650    0.1458    1.6200 H   0  0  0  0  0  0  0  0  0  0  0  0
    2.7801   -0.2546    0.4860 H   0  0  0  0  0  0  0  0  0  0  0  0
    4.6630   -2.2401   -0.0146 H   0  0  0  0  0  0  0  0  0  0  0  0
    7.5222   -3.0673    3.8473 H   0  0  0  0  0  0  0  0  0  0  0  0
    8.7429   -3.2532    1.8330 H   0  0  0  0  0  0  0  0  0  0  0  0
    6.4857   -4.8077   -1.7304 H   0  0  0  0  0  0  0  0  0  0  0  0
    6.6014   -7.0277    0.2046 H   0  0  0  0  0  0  0  0  0  0  0  0
    6.8688   -7.5026   -1.3743 H   0  0  0  0  0  0  0  0  0  0  0  0
    8.8880   -6.1809   -1.9786 H   0  0  0  0  0  0  0  0  0  0  0  0
    9.1105   -5.5672   -0.4603 H   0  0  0  0  0  0  0  0  0  0  0  0
   11.3023   -7.2979    2.4960 H   0  0  0  0  0  0  0  0  0  0  0  0
    2.5596    1.8849    3.2263 H   0  0  0  0  0  0  0  0  0  0  0  0
  1  2  2  0  0  0  0
  1  6  1  0  0  0  0
  1 43  1  0  0  0  0
  2  3  1  0  0  0  0
  2 44  1  0  0  0  0
  3  4  2  0  0  0  0
  3 16  1  0  0  0  0
  4  5  1  0  0  0  0
  4 15  1  0  0  0  0
  5  6  2  0  0  0  0
  5 45  1  0  0  0  0
  6  7  1  0  0  0  0
  7  8  1  0  0  0  0
  7 11  1  0  0  0  0
  8  9  1  0  0  0  0
  8 46  1  0  0  0  0
  8 47  1  0  0  0  0
  9 10  1  0  0  0  0
  9 13  1  0  0  0  0
  9 48  1  1  0  0  0
 10 11  1  0  0  0  0
 11 12  2  0  0  0  0
 13 14  1  0  0  0  0
 13 49  1  0  0  0  0
 13 50  1  0  0  0  0
 14 51  1  0  0  0  0
 16 17  1  0  0  0  0
 17 18  1  0  0  0  0
 17 52  1  0  0  0  0
 17 53  1  0  0  0  0
 18 19  1  0  0  0  0
 18 23  1  0  0  0  0
 18 42  1  0  0  0  0
 19 20  1  0  0  0  0
 19 54  1  0  0  0  0
 19 55  1  0  0  0  0
 20 21  1  0  0  0  0
 20 56  1  0  0  0  0
 20 57  1  0  0  0  0
 21 22  1  0  0  0  0
 21 24  1  0  0  0  0
 22 23  1  0  0  0  0
 22 58  1  0  0  0  0
 22 59  1  0  0  0  0
 23 60  1  0  0  0  0
 23 61  1  0  0  0  0
 24 25  1  0  0  0  0
 24 29  2  0  0  0  0
 25 26  2  0  0  0  0
 25 62  1  0  0  0  0
 26 27  1  0  0  0  0
 26 35  1  0  0  0  0
 27 28  2  0  0  0  0
 27 31  1  0  0  0  0
 28 29  1  0  0  0  0
 28 63  1  0  0  0  0
 29 30  1  0  0  0  0
 31 32  2  0  0  0  0
 31 33  1  0  0  0  0
 33 34  2  0  0  0  0
 33 39  1  0  0  0  0
 34 35  1  0  0  0  0
 34 64  1  0  0  0  0
 35 36  1  0  0  0  0
 36 37  1  0  0  0  0
 36 38  1  0  0  0  0
 36 65  1  0  0  0  0
 37 38  1  0  0  0  0
 37 66  1  0  0  0  0
 37 67  1  0  0  0  0
 38 68  1  0  0  0  0
 38 69  1  0  0  0  0
 39 40  2  0  0  0  0
 39 41  1  0  0  0  0
 41 70  1  0  0  0  0
 42 71  1  0  0  0  0
M  END
>  <DRUGBANK_ID>
DB11847

>  <COMMON_NAME>
Cadazolid

>  <CAS_NUMBER>
1025097-10-2

>  <UNII>
2OEA2UN10Y

>  <SYNONYMS>
Cadazolid

$$$$
