
 OpenBabel10282417193D

 97 97  0  0  0  0  0  0  0  0999 V2000
    6.2718    2.6437    2.5986 O   0  0  0  0  0  0  0  0  0  0  0  0
    2.3242    0.9238    1.4861 O   0  0  0  0  0  0  0  0  0  0  0  0
    3.2361   -3.3240   -1.6920 O   0  0  0  0  0  0  0  0  0  0  0  0
    9.0145    3.6356   -1.0128 O   0  0  0  0  0  0  0  0  0  0  0  0
    6.3145   -2.5837    0.0224 O   0  0  0  0  0  0  0  0  0  0  0  0
   -1.0191   -5.2342    1.3033 O   0  0  0  0  0  0  0  0  0  0  0  0
    4.9604   -3.6667    1.1216 O   0  0  0  0  0  0  0  0  0  0  0  0
   -0.8883   -5.6882   -0.8485 O   0  0  0  0  0  0  0  0  0  0  0  0
   -3.1178   -4.8477   -5.1375 O   0  0  0  0  0  0  0  0  0  0  0  0
    2.1269   -1.2515    0.9712 N   0  0  0  0  0  0  0  0  0  0  0  0
    4.9466    0.9765    1.9400 N   0  0  0  0  0  0  0  0  0  0  0  0
    7.6661    2.2029    0.0789 N   0  0  0  0  0  0  0  0  0  0  0  0
    1.0706   -3.5327   -1.1595 N   0  0  0  0  0  0  0  0  0  0  0  0
   10.2000    2.6290    1.9616 N   0  0  0  0  0  0  0  0  0  0  0  0
   10.1422   -2.6704    1.6763 N   0  0  0  0  0  0  0  0  0  0  0  0
   13.1046    0.3232   -0.3520 N   0  0  0  0  0  0  0  0  0  0  0  0
   12.5845    1.3111    1.7731 N   0  0  0  0  0  0  0  0  0  0  0  0
   13.9674   -0.2953    1.7023 N   0  0  0  0  0  0  0  0  0  0  0  0
    2.6248   -2.5819    0.5360 C   0  0  3  0  0  0  0  0  0  0  0  0
    7.2518    1.1309    1.0097 C   0  0  1  0  0  0  0  0  0  0  0  0
    2.6671   -3.7069    1.7639 C   0  0  0  0  0  0  0  0  0  0  0  0
    8.2426    0.7041    2.1252 C   0  0  0  0  0  0  0  0  0  0  0  0
    4.4693   -0.1981    1.1804 C   0  0  2  0  0  0  0  0  0  0  0  0
    8.1597   -0.5860    2.8780 C   0  0  0  0  0  0  0  0  0  0  0  0
    6.1140    1.6625    1.8687 C   0  0  0  0  0  0  0  0  0  0  0  0
    2.9034   -0.1369    1.2316 C   0  0  0  0  0  0  0  0  0  0  0  0
    2.3353   -3.1643   -0.8647 C   0  0  0  0  0  0  0  0  0  0  0  0
    7.9475   -1.7640    1.9539 C   0  0  0  0  0  0  0  0  0  0  0  0
    1.2967   -4.1148    2.1327 C   0  0  0  0  0  0  0  0  0  0  0  0
    3.2628   -5.1919    1.5100 C   0  0  0  0  0  0  0  0  0  0  0  0
    5.0235   -1.4242    1.8532 C   0  0  0  0  0  0  0  0  0  0  0  0
   10.0897    2.2095    0.5426 C   0  0  2  0  0  0  0  0  0  0  0  0
    8.8820    2.7577   -0.1594 C   0  0  0  0  0  0  0  0  0  0  0  0
   -0.0739   -3.4260   -0.2572 C   0  0  1  0  0  0  0  0  0  0  0  0
   10.2406    0.6729    0.1279 C   0  0  0  0  0  0  0  0  0  0  0  0
    8.9451   -2.3316    0.9786 C   0  0  0  0  0  0  0  0  0  0  0  0
   -1.0236   -2.3208   -0.6542 C   0  0  0  0  0  0  0  0  0  0  0  0
   10.8073    0.3889   -1.2184 C   0  0  0  0  0  0  0  0  0  0  0  0
    5.3837   -2.6079    0.9669 C   0  0  0  0  0  0  0  0  0  0  0  0
   -1.6880   -2.7775   -1.8948 C   0  0  0  0  0  0  0  0  0  0  0  0
   12.1841    1.0050   -1.2798 C   0  0  0  0  0  0  0  0  0  0  0  0
   -0.7058   -4.8602    0.0368 C   0  0  0  0  0  0  0  0  0  0  0  0
   -1.1352   -2.4957   -3.1462 C   0  0  0  0  0  0  0  0  0  0  0  0
   -2.7003   -3.7288   -1.7478 C   0  0  0  0  0  0  0  0  0  0  0  0
   -1.6207   -3.1694   -4.2590 C   0  0  0  0  0  0  0  0  0  0  0  0
   -3.1310   -4.4408   -2.8435 C   0  0  0  0  0  0  0  0  0  0  0  0
   -2.6094   -4.1410   -4.0914 C   0  0  0  0  0  0  0  0  0  0  0  0
   13.1962    0.4776    0.9124 C   0  0  0  0  0  0  0  0  0  0  0  0
    6.6315   -3.5204    0.1732 H   0  0  0  0  0  0  0  0  0  0  0  0
   -0.7419   -4.7867    2.1228 H   0  0  0  0  0  0  0  0  0  0  0  0
   -2.7040   -4.5331   -5.9542 H   0  0  0  0  0  0  0  0  0  0  0  0
    1.1347   -1.0435    0.9980 H   0  0  0  0  0  0  0  0  0  0  0  0
    4.3154    1.3684    2.6335 H   0  0  0  0  0  0  0  0  0  0  0  0
    6.9705    2.5865   -0.5538 H   0  0  0  0  0  0  0  0  0  0  0  0
    0.9605   -3.9957   -2.0603 H   0  0  0  0  0  0  0  0  0  0  0  0
   10.3930    1.9704    2.7095 H   0  0  0  0  0  0  0  0  0  0  0  0
    9.6472    3.4311    2.2660 H   0  0  0  0  0  0  0  0  0  0  0  0
   10.8383   -2.9278    0.9804 H   0  0  0  0  0  0  0  0  0  0  0  0
   10.4974   -1.8391    2.1389 H   0  0  0  0  0  0  0  0  0  0  0  0
   12.1542    0.8693    2.5761 H   0  0  0  0  0  0  0  0  0  0  0  0
   11.8703    1.8392    1.3216 H   0  0  0  0  0  0  0  0  0  0  0  0
   14.8308   -0.5873    1.2684 H   0  0  0  0  0  0  0  0  0  0  0  0
   14.0603    0.0416    2.6530 H   0  0  0  0  0  0  0  0  0  0  0  0
    3.5639   -2.1913    0.1967 H   0  0  0  0  0  0  0  0  0  0  0  0
    6.9336    0.3293    0.3392 H   0  0  0  0  0  0  0  0  0  0  0  0
    3.0392   -3.2558    2.6906 H   0  0  0  0  0  0  0  0  0  0  0  0
    9.2273    0.5235    1.8072 H   0  0  0  0  0  0  0  0  0  0  0  0
    8.3448    1.5136    2.8416 H   0  0  0  0  0  0  0  0  0  0  0  0
    4.8068   -0.0931    0.1453 H   0  0  0  0  0  0  0  0  0  0  0  0
    9.0910   -0.7317    3.4298 H   0  0  0  0  0  0  0  0  0  0  0  0
    7.3663   -0.4359    3.6119 H   0  0  0  0  0  0  0  0  0  0  0  0
    7.5043   -2.5714    2.5446 H   0  0  0  0  0  0  0  0  0  0  0  0
    7.2654   -1.3538    1.2366 H   0  0  0  0  0  0  0  0  0  0  0  0
    1.0751   -4.6711    1.2318 H   0  0  0  0  0  0  0  0  0  0  0  0
    1.2076   -4.8596    2.9186 H   0  0  0  0  0  0  0  0  0  0  0  0
    0.6250   -3.2848    2.3609 H   0  0  0  0  0  0  0  0  0  0  0  0
    4.3288   -5.3691    1.6781 H   0  0  0  0  0  0  0  0  0  0  0  0
    2.8708   -5.9286    2.2242 H   0  0  0  0  0  0  0  0  0  0  0  0
    3.0406   -5.5223    0.4897 H   0  0  0  0  0  0  0  0  0  0  0  0
    5.8892   -1.1731    2.4211 H   0  0  0  0  0  0  0  0  0  0  0  0
    4.4078   -1.7473    2.6966 H   0  0  0  0  0  0  0  0  0  0  0  0
   10.9065    2.8027    0.1402 H   0  0  0  0  0  0  0  0  0  0  0  0
    0.2970   -2.9460    0.6206 H   0  0  0  0  0  0  0  0  0  0  0  0
   10.7719    0.0418    0.8586 H   0  0  0  0  0  0  0  0  0  0  0  0
    9.2654    0.2082    0.0102 H   0  0  0  0  0  0  0  0  0  0  0  0
    8.5455   -3.2248    0.4898 H   0  0  0  0  0  0  0  0  0  0  0  0
    9.0943   -1.6577    0.1365 H   0  0  0  0  0  0  0  0  0  0  0  0
   -1.7357   -2.1656    0.1635 H   0  0  0  0  0  0  0  0  0  0  0  0
   -0.4885   -1.3700   -0.7982 H   0  0  0  0  0  0  0  0  0  0  0  0
   10.8407   -0.7020   -1.3699 H   0  0  0  0  0  0  0  0  0  0  0  0
   10.0883    0.7825   -1.9466 H   0  0  0  0  0  0  0  0  0  0  0  0
   12.5107    0.8670   -2.3137 H   0  0  0  0  0  0  0  0  0  0  0  0
   12.1320    2.0844   -1.1317 H   0  0  0  0  0  0  0  0  0  0  0  0
   -0.2920   -1.8105   -3.2389 H   0  0  0  0  0  0  0  0  0  0  0  0
   -3.0361   -4.0354   -0.7574 H   0  0  0  0  0  0  0  0  0  0  0  0
   -1.2022   -2.9411   -5.2323 H   0  0  0  0  0  0  0  0  0  0  0  0
   -3.8383   -5.2499   -2.7057 H   0  0  0  0  0  0  0  0  0  0  0  0
  1 25  2  0  0  0  0
  2 26  2  0  0  0  0
  3 27  2  0  0  0  0
  4 33  2  0  0  0  0
  5 39  1  0  0  0  0
  5 49  1  0  0  0  0
  6 42  1  0  0  0  0
  6 50  1  0  0  0  0
  7 39  2  0  0  0  0
  8 42  2  0  0  0  0
  9 47  1  0  0  0  0
  9 51  1  0  0  0  0
 10 19  1  0  0  0  0
 10 26  1  0  0  0  0
 10 52  1  0  0  0  0
 11 25  1  0  0  0  0
 11 53  1  0  0  0  0
 12 33  1  0  0  0  0
 12 54  1  0  0  0  0
 13 27  1  0  0  0  0
 13 55  1  0  0  0  0
 14 56  1  0  0  0  0
 14 57  1  0  0  0  0
 15 36  1  0  0  0  0
 15 58  1  0  0  0  0
 15 59  1  0  0  0  0
 16 41  1  0  0  0  0
 16 48  2  0  0  0  0
 17 48  1  0  0  0  0
 17 60  1  0  0  0  0
 17 61  1  0  0  0  0
 18 48  1  0  0  0  0
 18 62  1  0  0  0  0
 18 63  1  0  0  0  0
 19 21  1  0  0  0  0
 19 27  1  0  0  0  0
 19 64  1  0  0  0  0
 20 12  1  0  0  0  0
 20 22  1  0  0  0  0
 20 25  1  0  0  0  0
 20 65  1  6  0  0  0
 21 29  1  0  0  0  0
 21 30  1  0  0  0  0
 21 66  1  0  0  0  0
 22 24  1  0  0  0  0
 22 67  1  0  0  0  0
 22 68  1  0  0  0  0
 23 31  1  0  0  0  0
 23 69  1  6  0  0  0
 23 26  1  0  0  0  0
 23 11  1  0  0  0  0
 24 28  1  0  0  0  0
 24 70  1  0  0  0  0
 24 71  1  0  0  0  0
 28 36  1  0  0  0  0
 28 72  1  0  0  0  0
 28 73  1  0  0  0  0
 29 74  1  0  0  0  0
 29 75  1  0  0  0  0
 29 76  1  0  0  0  0
 30 77  1  0  0  0  0
 30 78  1  0  0  0  0
 30 79  1  0  0  0  0
 31 39  1  0  0  0  0
 31 80  1  0  0  0  0
 31 81  1  0  0  0  0
 32 14  1  0  0  0  0
 32 33  1  0  0  0  0
 32 35  1  0  0  0  0
 32 82  1  6  0  0  0
 34 13  1  0  0  0  0
 34 37  1  0  0  0  0
 34 42  1  0  0  0  0
 34 83  1  1  0  0  0
 35 38  1  0  0  0  0
 35 84  1  0  0  0  0
 35 85  1  0  0  0  0
 36 86  1  0  0  0  0
 36 87  1  0  0  0  0
 37 40  1  0  0  0  0
 37 88  1  0  0  0  0
 37 89  1  0  0  0  0
 38 41  1  0  0  0  0
 38 90  1  0  0  0  0
 38 91  1  0  0  0  0
 40 43  2  0  0  0  0
 40 44  1  0  0  0  0
 41 92  1  0  0  0  0
 41 93  1  0  0  0  0
 43 45  1  0  0  0  0
 43 94  1  0  0  0  0
 44 46  2  0  0  0  0
 44 95  1  0  0  0  0
 45 47  2  0  0  0  0
 45 96  1  0  0  0  0
 46 47  1  0  0  0  0
 46 97  1  0  0  0  0
M  END
>  <DRUGBANK_ID>
DB11996

>  <COMMON_NAME>
Thymopentin

>  <CAS_NUMBER>
69558-55-0

>  <UNII>
O3Y80ZF13F

>  <SYNONYMS>
Thymopentin; Thymopentine; Thymopentinum; Timopentina

$$$$
