
 OpenBabel10282417153D

 67 71  0  0  1  0  0  0  0  0999 V2000
   -2.5054    0.0992   -0.1311 C   0  0  0  0  0  0  0  0  0  0  0  0
   -1.0979    0.0927    0.2319 N   0  0  0  0  0  0  0  0  0  0  0  0
   -0.5387   -1.1040   -0.3598 C   0  0  0  0  0  0  0  0  0  0  0  0
    0.9018   -1.1929    0.0003 C   0  0  0  0  0  0  0  0  0  0  0  0
    1.7943    0.0252   -0.2975 C   0  0  0  0  0  0  0  0  0  0  0  0
    1.0725    1.2913    0.1772 C   0  0  0  0  0  0  0  0  0  0  0  0
   -0.3928    1.2853   -0.2574 C   0  0  0  0  0  0  0  0  0  0  0  0
    3.1982    0.0350    0.2175 N   0  0  3  0  0  0  0  0  0  0  0  0
    4.0372   -1.0441   -0.3311 C   0  0  0  0  0  0  0  0  0  0  0  0
    3.6583   -2.3816    0.2495 C   0  0  0  0  0  0  0  0  0  0  0  0
    3.5650   -2.4150    1.7218 N   0  0  0  0  0  0  0  0  0  0  0  0
    2.9187   -1.2813    2.3938 C   0  0  0  0  0  0  0  0  0  0  0  0
    3.3263    0.0170    1.6995 C   0  0  0  0  0  0  0  0  0  0  0  0
    3.9229   -3.4875    2.5108 C   0  0  0  0  0  0  0  0  0  0  0  0
    3.7748   -3.4611    3.7376 O   0  0  0  0  0  0  0  0  0  0  0  0
    4.4997   -4.7417    1.8314 C   0  0  1  0  0  0  0  0  0  0  0  0
    3.4809   -5.5779    1.0213 C   0  0  0  0  0  0  0  0  0  0  0  0
    3.6239   -6.9575    0.8198 C   0  0  0  0  0  0  0  0  0  0  0  0
    2.7158   -7.7183    0.0851 C   0  0  0  0  0  0  0  0  0  0  0  0
    1.6296   -7.1178   -0.5176 C   0  0  0  0  0  0  0  0  0  0  0  0
    1.4190   -5.7706   -0.3160 C   0  0  0  0  0  0  0  0  0  0  0  0
    2.3046   -5.0457    0.4799 C   0  0  0  0  0  0  0  0  0  0  0  0
    5.7548   -4.4326    1.0871 N   0  0  0  0  0  0  0  0  0  0  0  0
    7.0799   -4.6910    1.3756 C   0  0  0  0  0  0  0  0  0  0  0  0
    7.9483   -4.1843    0.6962 O   0  0  0  0  0  0  0  0  0  0  0  0
    7.4278   -5.6764    2.4279 C   0  0  0  0  0  0  0  0  0  0  0  0
    6.6234   -6.7981    2.5260 C   0  0  0  0  0  0  0  0  0  0  0  0
    6.7993   -7.8416    3.4066 C   0  0  0  0  0  0  0  0  0  0  0  0
    7.9442   -7.7843    4.1748 C   0  0  0  0  0  0  0  0  0  0  0  0
    8.4316   -8.6311    5.1906 C   0  0  0  0  0  0  0  0  0  0  0  0
    9.6147   -8.0857    5.6163 C   0  0  0  0  0  0  0  0  0  0  0  0
    9.9612   -7.1329    4.6911 N   0  0  0  0  0  0  0  0  0  0  0  0
    8.8432   -6.7276    4.0020 C   0  0  0  0  0  0  0  0  0  0  0  0
    8.5937   -5.6112    3.1785 C   0  0  0  0  0  0  0  0  0  0  0  0
   -3.0111    0.9656    0.2924 H   0  0  0  0  0  0  0  0  0  0  0  0
   -2.6215    0.0920   -1.2200 H   0  0  0  0  0  0  0  0  0  0  0  0
   -2.9908   -0.8005    0.2691 H   0  0  0  0  0  0  0  0  0  0  0  0
   -1.0130   -2.0006    0.0703 H   0  0  0  0  0  0  0  0  0  0  0  0
   -0.6492   -1.1594   -1.4477 H   0  0  0  0  0  0  0  0  0  0  0  0
    0.8623   -1.3915    1.0566 H   0  0  0  0  0  0  0  0  0  0  0  0
    1.1823   -2.0788   -0.5511 H   0  0  0  0  0  0  0  0  0  0  0  0
    1.8684    0.0965   -1.3934 H   0  0  0  0  0  0  0  0  0  0  0  0
    1.0947    1.3714    1.2692 H   0  0  0  0  0  0  0  0  0  0  0  0
    1.5846    2.1792   -0.2159 H   0  0  0  0  0  0  0  0  0  0  0  0
   -0.4400    1.3383   -1.3503 H   0  0  0  0  0  0  0  0  0  0  0  0
   -0.8619    2.1819    0.1574 H   0  0  0  0  0  0  0  0  0  0  0  0
    3.9567   -1.0944   -1.4241 H   0  0  0  0  0  0  0  0  0  0  0  0
    5.0980   -0.8802   -0.1055 H   0  0  0  0  0  0  0  0  0  0  0  0
    2.7086   -2.6199   -0.1656 H   0  0  0  0  0  0  0  0  0  0  0  0
    4.2244   -3.1821   -0.2010 H   0  0  0  0  0  0  0  0  0  0  0  0
    1.8436   -1.4503    2.4631 H   0  0  0  0  0  0  0  0  0  0  0  0
    3.1805   -1.2359    3.4559 H   0  0  0  0  0  0  0  0  0  0  0  0
    4.3911    0.1502    1.9345 H   0  0  0  0  0  0  0  0  0  0  0  0
    2.8367    0.8756    2.1605 H   0  0  0  0  0  0  0  0  0  0  0  0
    4.7623   -5.3226    2.7152 H   0  0  0  0  0  0  0  0  0  0  0  0
    4.3987   -7.5651    1.2482 H   0  0  0  0  0  0  0  0  0  0  0  0
    2.8743   -8.7897    0.0168 H   0  0  0  0  0  0  0  0  0  0  0  0
    0.9311   -7.7046   -1.0993 H   0  0  0  0  0  0  0  0  0  0  0  0
    0.5473   -5.2712   -0.7268 H   0  0  0  0  0  0  0  0  0  0  0  0
    1.9775   -4.0440    0.6933 H   0  0  0  0  0  0  0  0  0  0  0  0
    5.7370   -3.7632    0.3342 H   0  0  0  0  0  0  0  0  0  0  0  0
    5.8034   -6.8556    1.8670 H   0  0  0  0  0  0  0  0  0  0  0  0
    6.0943   -8.6616    3.4635 H   0  0  0  0  0  0  0  0  0  0  0  0
    7.9255   -9.5092    5.5682 H   0  0  0  0  0  0  0  0  0  0  0  0
   10.2875   -8.3664    6.4112 H   0  0  0  0  0  0  0  0  0  0  0  0
   10.9087   -6.9236    4.4127 H   0  0  0  0  0  0  0  0  0  0  0  0
    9.2591   -4.7564    3.1157 H   0  0  0  0  0  0  0  0  0  0  0  0
  1  2  1  0  0  0  0
  1 35  1  0  0  0  0
  1 36  1  0  0  0  0
  1 37  1  0  0  0  0
  2  3  1  0  0  0  0
  2  7  1  0  0  0  0
  3  4  1  0  0  0  0
  3 38  1  0  0  0  0
  3 39  1  0  0  0  0
  4  5  1  0  0  0  0
  4 40  1  0  0  0  0
  4 41  1  0  0  0  0
  5  6  1  0  0  0  0
  5  8  1  0  0  0  0
  5 42  1  0  0  0  0
  6  7  1  0  0  0  0
  6 43  1  0  0  0  0
  6 44  1  0  0  0  0
  7 45  1  0  0  0  0
  7 46  1  0  0  0  0
  8  9  1  0  0  0  0
  8 13  1  0  0  0  0
  9 10  1  0  0  0  0
  9 47  1  0  0  0  0
  9 48  1  0  0  0  0
 10 11  1  0  0  0  0
 10 49  1  0  0  0  0
 10 50  1  0  0  0  0
 11 12  1  0  0  0  0
 11 14  1  0  0  0  0
 12 13  1  0  0  0  0
 12 51  1  0  0  0  0
 12 52  1  0  0  0  0
 13 53  1  0  0  0  0
 13 54  1  0  0  0  0
 14 15  2  0  0  0  0
 14 16  1  0  0  0  0
 16 17  1  0  0  0  0
 16 23  1  0  0  0  0
 16 55  1  1  0  0  0
 17 18  2  0  0  0  0
 17 22  1  0  0  0  0
 18 19  1  0  0  0  0
 18 56  1  0  0  0  0
 19 20  2  0  0  0  0
 19 57  1  0  0  0  0
 20 21  1  0  0  0  0
 20 58  1  0  0  0  0
 21 22  2  0  0  0  0
 21 59  1  0  0  0  0
 22 60  1  0  0  0  0
 23 24  1  0  0  0  0
 23 61  1  0  0  0  0
 24 25  2  0  0  0  0
 24 26  1  0  0  0  0
 26 27  2  0  0  0  0
 26 34  1  0  0  0  0
 27 28  1  0  0  0  0
 27 62  1  0  0  0  0
 28 29  2  0  0  0  0
 28 63  1  0  0  0  0
 29 30  1  0  0  0  0
 29 33  1  0  0  0  0
 30 31  2  0  0  0  0
 30 64  1  0  0  0  0
 31 32  1  0  0  0  0
 31 65  1  0  0  0  0
 32 33  1  0  0  0  0
 32 66  1  0  0  0  0
 33 34  2  0  0  0  0
 34 67  1  0  0  0  0
M  END
>  <DRUGBANK_ID>
DB05713

>  <COMMON_NAME>
LY-517717

>  <CAS_NUMBER>
313489-71-3

>  <UNII>
TSA990HP1K

$$$$
