
 OpenBabel10282417213D

 69 74  0  0  0  0  0  0  0  0999 V2000
    0.8574   -0.3079   -0.1811 C   0  0  0  0  0  0  0  0  0  0  0  0
   -0.0095    4.8888    5.8318 C   0  0  0  0  0  0  0  0  0  0  0  0
    5.6774    4.1514   -3.8433 C   0  0  0  0  0  0  0  0  0  0  0  0
   -0.0602    4.3228    4.5922 C   0  0  0  0  0  0  0  0  0  0  0  0
    4.7789    4.1439   -2.8061 C   0  0  0  0  0  0  0  0  0  0  0  0
   -0.9094    5.1804    1.1380 C   0  0  0  0  0  0  0  0  0  0  0  0
    3.9727    5.9496    0.3336 C   0  0  0  0  0  0  0  0  0  0  0  0
   -0.9498    6.5669    1.2560 C   0  0  0  0  0  0  0  0  0  0  0  0
    4.9630    6.9192    0.2383 C   0  0  0  0  0  0  0  0  0  0  0  0
    0.3415   -0.5322    1.3005 C   0  0  0  0  0  0  0  0  0  0  0  0
    0.4633    1.0707   -0.7383 C   0  0  0  0  0  0  0  0  0  0  0  0
   -0.3504    0.8251    3.2903 C   0  0  0  0  0  0  0  0  0  0  0  0
    1.6628    1.4081    2.2217 C   0  0  0  0  0  0  0  0  0  0  0  0
    2.5203    1.7588   -1.7676 C   0  0  0  0  0  0  0  0  0  0  0  0
    0.7336    3.3794   -1.7355 C   0  0  0  0  0  0  0  0  0  0  0  0
   -1.1824    1.9427    2.5818 C   0  0  0  0  0  0  0  0  0  0  0  0
    0.9907    2.7180    1.7297 C   0  0  0  0  0  0  0  0  0  0  0  0
    3.2906    2.5730   -0.6767 C   0  0  0  0  0  0  0  0  0  0  0  0
    1.5360    4.3674   -0.8097 C   0  0  0  0  0  0  0  0  0  0  0  0
   -0.4990    7.0250    4.7848 C   0  0  0  0  0  0  0  0  0  0  0  0
    6.6575    6.1026   -2.8271 C   0  0  0  0  0  0  0  0  0  0  0  0
   -0.2500    6.2466    5.9240 C   0  0  0  0  0  0  0  0  0  0  0  0
    6.6238    5.1561   -3.8527 C   0  0  0  0  0  0  0  0  0  0  0  0
   -0.4185    5.0682    3.4655 C   0  0  0  0  0  0  0  0  0  0  0  0
    4.8097    5.0419   -1.7355 C   0  0  0  0  0  0  0  0  0  0  0  0
   -0.5818    6.4624    3.5266 C   0  0  0  0  0  0  0  0  0  0  0  0
    5.7817    6.0734   -1.7515 C   0  0  0  0  0  0  0  0  0  0  0  0
   -0.6057    4.4053    2.2667 C   0  0  0  0  0  0  0  0  0  0  0  0
    3.8969    4.9826   -0.6675 C   0  0  0  0  0  0  0  0  0  0  0  0
   -0.2359    6.9613    7.4804 Cl  0  0  0  0  0  0  0  0  0  0  0  0
    7.7327    5.2181   -5.1586 Cl  0  0  0  0  0  0  0  0  0  0  0  0
   -0.8083    7.2107    2.4302 N   0  0  0  0  0  0  0  0  0  0  0  0
    5.8498    6.9898   -0.7796 N   0  0  0  0  0  0  0  0  0  0  0  0
    0.7625    0.2869    2.4718 N   0  0  0  0  0  0  0  0  0  0  0  0
    1.0479    1.8861   -1.8206 N   0  0  0  0  0  0  0  0  0  0  0  0
   -0.2900    3.0555    2.2789 N   0  0  0  0  0  0  0  0  0  0  0  0
    2.9242    3.9868   -0.6295 N   0  0  0  0  0  0  0  0  0  0  0  0
    0.5099   -1.1028   -0.8422 H   0  0  0  0  0  0  0  0  0  0  0  0
    1.9505   -0.3913   -0.1299 H   0  0  0  0  0  0  0  0  0  0  0  0
    0.1965    4.2509    6.6822 H   0  0  0  0  0  0  0  0  0  0  0  0
    5.6076    3.3952   -4.6164 H   0  0  0  0  0  0  0  0  0  0  0  0
    0.1638    3.2664    4.5149 H   0  0  0  0  0  0  0  0  0  0  0  0
    4.0106    3.3962   -2.8605 H   0  0  0  0  0  0  0  0  0  0  0  0
   -1.0400    4.7594    0.1487 H   0  0  0  0  0  0  0  0  0  0  0  0
    3.3062    5.9506    1.1903 H   0  0  0  0  0  0  0  0  0  0  0  0
   -1.0857    7.2124    0.3883 H   0  0  0  0  0  0  0  0  0  0  0  0
    5.0760    7.6828    1.0015 H   0  0  0  0  0  0  0  0  0  0  0  0
   -0.7501   -0.5973    1.2772 H   0  0  0  0  0  0  0  0  0  0  0  0
    0.6878   -1.5432    1.5544 H   0  0  0  0  0  0  0  0  0  0  0  0
   -0.6028    1.2777   -0.5846 H   0  0  0  0  0  0  0  0  0  0  0  0
    1.0759    1.4855   -0.0096 H   0  0  0  0  0  0  0  0  0  0  0  0
   -0.9844    0.0206    3.6630 H   0  0  0  0  0  0  0  0  0  0  0  0
    0.1176    1.2533    4.1901 H   0  0  0  0  0  0  0  0  0  0  0  0
    2.2032    1.6826    3.1387 H   0  0  0  0  0  0  0  0  0  0  0  0
    2.4692    1.0323    1.5893 H   0  0  0  0  0  0  0  0  0  0  0  0
    2.7995    0.7083   -1.6696 H   0  0  0  0  0  0  0  0  0  0  0  0
    2.8399    2.0198   -2.7700 H   0  0  0  0  0  0  0  0  0  0  0  0
    0.9156    3.7792   -2.7395 H   0  0  0  0  0  0  0  0  0  0  0  0
   -0.3413    3.5286   -1.5640 H   0  0  0  0  0  0  0  0  0  0  0  0
   -1.6092    1.5436    1.6552 H   0  0  0  0  0  0  0  0  0  0  0  0
   -2.0031    2.2749    3.2210 H   0  0  0  0  0  0  0  0  0  0  0  0
    0.5858    2.7139    0.7487 H   0  0  0  0  0  0  0  0  0  0  0  0
    1.7538    3.4945    1.7456 H   0  0  0  0  0  0  0  0  0  0  0  0
    3.0978    2.1802    0.3089 H   0  0  0  0  0  0  0  0  0  0  0  0
    4.3694    2.4147   -0.7719 H   0  0  0  0  0  0  0  0  0  0  0  0
    1.1070    4.4191    0.1708 H   0  0  0  0  0  0  0  0  0  0  0  0
    1.4135    5.4115   -1.1302 H   0  0  0  0  0  0  0  0  0  0  0  0
   -0.6591    8.0938    4.8764 H   0  0  0  0  0  0  0  0  0  0  0  0
    7.3971    6.9015   -2.8618 H   0  0  0  0  0  0  0  0  0  0  0  0
  1 38  1  0  0  0  0
  1 39  1  0  0  0  0
  2 40  1  0  0  0  0
  3 41  1  0  0  0  0
  4  2  2  0  0  0  0
  4 42  1  0  0  0  0
  5  3  2  0  0  0  0
  5 43  1  0  0  0  0
  6 44  1  0  0  0  0
  7 45  1  0  0  0  0
  8  6  1  0  0  0  0
  8 46  1  0  0  0  0
  9  7  1  0  0  0  0
  9 47  1  0  0  0  0
 10  1  1  0  0  0  0
 10 48  1  0  0  0  0
 10 49  1  0  0  0  0
 11  1  1  0  0  0  0
 11 50  1  0  0  0  0
 11 51  1  0  0  0  0
 12 52  1  0  0  0  0
 12 53  1  0  0  0  0
 13 54  1  0  0  0  0
 13 55  1  0  0  0  0
 14 56  1  0  0  0  0
 14 57  1  0  0  0  0
 15 58  1  0  0  0  0
 15 59  1  0  0  0  0
 16 12  1  0  0  0  0
 16 60  1  0  0  0  0
 16 61  1  0  0  0  0
 17 13  1  0  0  0  0
 17 62  1  0  0  0  0
 17 63  1  0  0  0  0
 18 14  1  0  0  0  0
 18 64  1  0  0  0  0
 18 65  1  0  0  0  0
 19 15  1  0  0  0  0
 19 66  1  0  0  0  0
 19 67  1  0  0  0  0
 20 68  1  0  0  0  0
 21 69  1  0  0  0  0
 22  2  1  0  0  0  0
 22 20  2  0  0  0  0
 23  3  1  0  0  0  0
 23 21  2  0  0  0  0
 24  4  1  0  0  0  0
 25  5  1  0  0  0  0
 26 20  1  0  0  0  0
 26 24  2  0  0  0  0
 27 21  1  0  0  0  0
 27 25  2  0  0  0  0
 28  6  2  0  0  0  0
 28 24  1  0  0  0  0
 29  7  2  0  0  0  0
 29 25  1  0  0  0  0
 30 22  1  0  0  0  0
 31 23  1  0  0  0  0
 32  8  2  0  0  0  0
 32 26  1  0  0  0  0
 33  9  2  0  0  0  0
 33 27  1  0  0  0  0
 34 10  1  0  0  0  0
 34 12  1  0  0  0  0
 34 13  1  0  0  0  0
 35 11  1  0  0  0  0
 35 14  1  0  0  0  0
 35 15  1  0  0  0  0
 36 16  1  0  0  0  0
 36 17  1  0  0  0  0
 36 28  1  0  0  0  0
 37 18  1  0  0  0  0
 37 19  1  0  0  0  0
 37 29  1  0  0  0  0
M  END
>  <DRUGBANK_ID>
DB13941

>  <COMMON_NAME>
Piperaquine

>  <CAS_NUMBER>
4085-31-8

>  <UNII>
A0HV2Q956Y

>  <SYNONYMS>
1,3-bis[4-(7-chloroquinolin-4-yl)piperazin-1-yl]propane

$$$$
