
 OpenBabel10282417173D

 26 27  0  0  0  0  0  0  0  0999 V2000
   -0.2670    1.4342    0.0792 S   0  0  0  0  0  0  0  0  0  0  0  0
   -2.2784   -0.8071   -0.0036 S   0  0  0  0  0  0  0  0  0  0  0  0
    2.5339    8.0716   -2.1714 F   0  0  0  0  0  0  0  0  0  0  0  0
    0.5626    7.8375   -1.2809 F   0  0  0  0  0  0  0  0  0  0  0  0
    2.3118    8.0373   -0.0071 F   0  0  0  0  0  0  0  0  0  0  0  0
    2.6517   -1.0895   -0.0200 O   0  0  0  0  0  0  0  0  0  0  0  0
    0.3724   -1.0328    0.0021 N   0  0  0  0  0  0  0  0  0  0  0  0
    1.5223    1.0528    0.0581 C   0  0  2  0  0  0  0  0  0  0  0  0
    2.2264    1.6626   -1.1498 C   0  0  0  0  0  0  0  0  0  0  0  0
    2.1422    3.1668   -1.1641 C   0  0  0  0  0  0  0  0  0  0  0  0
    1.6110   -0.4539    0.0091 C   0  0  0  0  0  0  0  0  0  0  0  0
    2.6456    3.9015   -0.0828 C   0  0  0  0  0  0  0  0  0  0  0  0
    1.5631    3.8363   -2.2467 C   0  0  0  0  0  0  0  0  0  0  0  0
    2.0210    5.9640   -1.1764 C   0  0  0  0  0  0  0  0  0  0  0  0
    2.5759    5.2887   -0.0831 C   0  0  0  0  0  0  0  0  0  0  0  0
    1.5522    5.2281   -2.2753 C   0  0  0  0  0  0  0  0  0  0  0  0
   -0.7268   -0.2370    0.0214 C   0  0  0  0  0  0  0  0  0  0  0  0
    1.8654    7.4596   -1.1572 C   0  0  0  0  0  0  0  0  0  0  0  0
    0.2915   -2.0378   -0.0236 H   0  0  0  0  0  0  0  0  0  0  0  0
    1.9568    1.3844    1.0065 H   0  0  0  0  0  0  0  0  0  0  0  0
    3.2921    1.3957   -1.1397 H   0  0  0  0  0  0  0  0  0  0  0  0
    1.8343    1.2415   -2.0860 H   0  0  0  0  0  0  0  0  0  0  0  0
    3.0735    3.3983    0.7813 H   0  0  0  0  0  0  0  0  0  0  0  0
    1.1015    3.2835   -3.0630 H   0  0  0  0  0  0  0  0  0  0  0  0
    2.9534    5.8382    0.7773 H   0  0  0  0  0  0  0  0  0  0  0  0
    1.1608    5.7426   -3.1515 H   0  0  0  0  0  0  0  0  0  0  0  0
  1  8  1  0  0  0  0
  1 17  1  0  0  0  0
  2 17  2  0  0  0  0
  3 18  1  0  0  0  0
  4 18  1  0  0  0  0
  5 18  1  0  0  0  0
  6 11  2  0  0  0  0
  7 11  1  0  0  0  0
  7 17  1  0  0  0  0
  7 19  1  0  0  0  0
  8 11  1  0  0  0  0
  8 20  1  1  0  0  0
  8  9  1  0  0  0  0
  9 10  1  0  0  0  0
  9 21  1  0  0  0  0
  9 22  1  0  0  0  0
 10 12  2  0  0  0  0
 10 13  1  0  0  0  0
 12 15  1  0  0  0  0
 12 23  1  0  0  0  0
 13 16  2  0  0  0  0
 13 24  1  0  0  0  0
 14 15  2  0  0  0  0
 14 16  1  0  0  0  0
 14 18  1  0  0  0  0
 15 25  1  0  0  0  0
 16 26  1  0  0  0  0
M  END
>  <DRUGBANK_ID>
DB08574

>  <COMMON_NAME>
(5R)-2-sulfanyl-5-[4-(trifluoromethyl)benzyl]-1,3-thiazol-4(5H)-one

$$$$
