949
 OpenBabel10282417113D

 31 31  0  0  0  0  0  0  0  0999 V2000
    1.0866    0.0990    0.3413 O   0  0  0  0  0  0  0  0  0  0  0  0
   -1.6055    1.6566   -2.6585 O   0  0  0  0  0  0  0  0  0  0  0  0
    2.8526   -0.1810    1.7584 O   0  0  0  0  0  0  0  0  0  0  0  0
   -1.6347   -0.6379   -2.5098 O   0  0  0  0  0  0  0  0  0  0  0  0
    3.1002   -0.5242   -0.4149 N   0  0  0  0  0  0  0  0  0  0  0  0
   -3.4526    0.5677   -1.9840 N   0  0  0  0  0  0  0  0  0  0  0  0
    0.7729    1.4889   -1.8204 C   0  0  0  0  0  0  0  0  0  0  0  0
    2.2162    1.6514   -2.3760 C   0  0  0  0  0  0  0  0  0  0  0  0
    0.4669    0.1968   -0.9872 C   0  0  0  0  0  0  0  0  0  0  0  0
   -0.1989    1.6710   -3.0073 C   0  0  0  0  0  0  0  0  0  0  0  0
    2.8495    2.8845   -2.1863 C   0  0  0  0  0  0  0  0  0  0  0  0
    3.0012    0.5945   -2.8925 C   0  0  0  0  0  0  0  0  0  0  0  0
    4.2430    2.9856   -2.2540 C   0  0  0  0  0  0  0  0  0  0  0  0
    4.3990    0.6485   -2.7350 C   0  0  0  0  0  0  0  0  0  0  0  0
    5.0235    1.8495   -2.4391 C   0  0  0  0  0  0  0  0  0  0  0  0
    2.3638   -0.2273    0.6574 C   0  0  0  0  0  0  0  0  0  0  0  0
   -2.1812    0.4512   -2.4249 C   0  0  0  0  0  0  0  0  0  0  0  0
    2.5459   -0.2420   -1.1780 H   0  0  0  0  0  0  0  0  0  0  0  0
    3.9916   -0.0439   -0.4084 H   0  0  0  0  0  0  0  0  0  0  0  0
   -3.9927    1.4071   -2.1198 H   0  0  0  0  0  0  0  0  0  0  0  0
   -3.9068   -0.2813   -1.6772 H   0  0  0  0  0  0  0  0  0  0  0  0
    0.5918    2.3044   -1.1014 H   0  0  0  0  0  0  0  0  0  0  0  0
    0.6236   -0.7091   -1.5892 H   0  0  0  0  0  0  0  0  0  0  0  0
   -0.5808    0.2218   -0.6867 H   0  0  0  0  0  0  0  0  0  0  0  0
   -0.0069    2.6628   -3.4430 H   0  0  0  0  0  0  0  0  0  0  0  0
    0.0124    0.9428   -3.7982 H   0  0  0  0  0  0  0  0  0  0  0  0
    2.2664    3.7628   -1.9173 H   0  0  0  0  0  0  0  0  0  0  0  0
    2.5759   -0.3978   -3.0762 H   0  0  0  0  0  0  0  0  0  0  0  0
    4.7227    3.9416   -2.0706 H   0  0  0  0  0  0  0  0  0  0  0  0
    4.9745   -0.2787   -2.6396 H   0  0  0  0  0  0  0  0  0  0  0  0
    6.1041    1.8871   -2.3223 H   0  0  0  0  0  0  0  0  0  0  0  0
  1  9  1  0  0  0  0
  1 16  1  0  0  0  0
  2 10  1  0  0  0  0
  2 17  1  0  0  0  0
  3 16  2  0  0  0  0
  4 17  2  0  0  0  0
  5 16  1  0  0  0  0
  5 18  1  0  0  0  0
  5 19  1  0  0  0  0
  6 17  1  0  0  0  0
  6 20  1  0  0  0  0
  6 21  1  0  0  0  0
  7  8  1  0  0  0  0
  7  9  1  0  0  0  0
  7 10  1  0  0  0  0
  7 22  1  0  0  0  0
  8 11  2  0  0  0  0
  8 12  1  0  0  0  0
  9 23  1  0  0  0  0
  9 24  1  0  0  0  0
 10 25  1  0  0  0  0
 10 26  1  0  0  0  0
 11 13  1  0  0  0  0
 11 27  1  0  0  0  0
 12 14  2  0  0  0  0
 12 28  1  0  0  0  0
 13 15  2  0  0  0  0
 13 29  1  0  0  0  0
 14 15  1  0  0  0  0
 14 30  1  0  0  0  0
 15 31  1  0  0  0  0
M  END
>  <DRUGBANK_ID>
DB00949

>  <SECONDARY_ACCESSION_NUMBERS>
APRD00505

>  <COMMON_NAME>
Felbamate

>  <CAS_NUMBER>
25451-15-4

>  <UNII>
X72RBB02N8

>  <SYNONYMS>
2-phenyl-1,3-propanediol dicarbamate; carbamic acid 2-phenyltrimethylene ester; Carbamic acid 3-carbamoyloxy-2-phenyl-propyl ester; Felbamate; Felbamato; Felbamatum

$$$$
