
 OpenBabel10282417203D

 49 52  0  0  0  0  0  0  0  0999 V2000
   12.5712   -6.5335  -14.2017 N   0  0  0  0  0  0  0  0  0  0  0  0
   12.8391   -5.3924  -13.5654 N   0  0  0  0  0  0  0  0  0  0  0  0
   12.4163   -4.3355  -14.3326 C   0  0  0  0  0  0  0  0  0  0  0  0
   11.4954   -4.8937  -15.2583 C   0  0  0  0  0  0  0  0  0  0  0  0
   11.6971   -6.2640  -15.1890 N   0  0  0  0  0  0  0  0  0  0  0  0
    9.8279   -4.1524  -16.2010 S   0  0  0  0  0  0  0  0  0  0  0  0
    9.0679   -2.2105  -15.6397 C   0  0  0  0  0  0  0  0  0  0  0  0
    8.4269   -2.1304  -14.1835 C   0  0  0  0  0  0  0  0  0  0  0  0
    8.9037   -2.8598  -13.1825 C   0  0  0  0  0  0  0  0  0  0  0  0
    8.4752   -3.0520  -11.9390 N   0  0  0  0  0  0  0  0  0  0  0  0
    7.2588   -2.5340  -11.4494 C   0  0  2  0  0  0  0  0  0  0  0  0
    7.3512   -0.7528  -11.9044 S   0  0  0  0  0  0  0  0  0  0  0  0
    7.4245   -1.0806  -13.7846 C   0  0  0  0  0  0  0  0  0  0  0  0
   10.1228   -3.4814  -13.4316 C   0  0  0  0  0  0  0  0  0  0  0  0
   10.2793   -4.6337  -13.0684 O   0  0  0  0  0  0  0  0  0  0  0  0
   10.8430   -2.5582  -14.1580 O   0  0  0  0  0  0  0  0  0  0  0  0
    9.0941   -3.3005  -10.7728 C   0  0  0  0  0  0  0  0  0  0  0  0
    7.7544   -3.0843  -10.0699 C   0  0  1  0  0  0  0  0  0  0  0  0
   10.2662   -3.5067  -10.4584 O   0  0  0  0  0  0  0  0  0  0  0  0
    7.7022   -2.1361   -8.9643 N   0  0  0  0  0  0  0  0  0  0  0  0
    7.1644   -2.4860   -7.7512 C   0  0  0  0  0  0  0  0  0  0  0  0
    7.0216   -1.4097   -6.6236 C   0  0  2  0  0  0  0  0  0  0  0  0
    6.7166   -3.6269   -7.5911 O   0  0  0  0  0  0  0  0  0  0  0  0
    5.5900   -1.4607   -6.2057 N   0  0  0  0  0  0  0  0  0  0  0  0
    7.4988    0.0062   -6.9495 C   0  0  0  0  0  0  0  0  0  0  0  0
    8.6032    0.2668   -7.7821 C   0  0  0  0  0  0  0  0  0  0  0  0
    8.8441    1.5408   -8.2926 C   0  0  0  0  0  0  0  0  0  0  0  0
    8.1229    2.6081   -7.7863 C   0  0  0  0  0  0  0  0  0  0  0  0
    7.1767    2.4110   -6.7949 C   0  0  0  0  0  0  0  0  0  0  0  0
    6.8720    1.1210   -6.3751 C   0  0  0  0  0  0  0  0  0  0  0  0
    8.3464    3.8853   -8.1962 O   0  0  0  0  0  0  0  0  0  0  0  0
    6.3744   -3.0480  -11.8238 H   0  0  0  0  0  0  0  0  0  0  0  0
    7.3293   -4.0622   -9.8107 H   0  0  0  0  0  0  0  0  0  0  0  0
   13.1825   -5.3411  -12.6028 H   0  0  0  0  0  0  0  0  0  0  0  0
   12.5360   -3.4047  -13.7828 H   0  0  0  0  0  0  0  0  0  0  0  0
    9.8845   -1.4828  -15.7883 H   0  0  0  0  0  0  0  0  0  0  0  0
    8.3152   -1.8953  -16.3794 H   0  0  0  0  0  0  0  0  0  0  0  0
    6.4447   -1.4321  -14.0955 H   0  0  0  0  0  0  0  0  0  0  0  0
    7.6788   -0.1242  -14.2506 H   0  0  0  0  0  0  0  0  0  0  0  0
   11.1332   -2.8718  -15.0627 H   0  0  0  0  0  0  0  0  0  0  0  0
    7.8299   -1.1663   -9.2169 H   0  0  0  0  0  0  0  0  0  0  0  0
    7.6217   -1.7674   -5.7784 H   0  0  0  0  0  0  0  0  0  0  0  0
    5.0537   -1.9519   -6.9239 H   0  0  0  0  0  0  0  0  0  0  0  0
    5.1719   -0.5401   -6.1615 H   0  0  0  0  0  0  0  0  0  0  0  0
    9.2756   -0.5293   -8.1019 H   0  0  0  0  0  0  0  0  0  0  0  0
    9.5972    1.6661   -9.0648 H   0  0  0  0  0  0  0  0  0  0  0  0
    6.6640    3.2549   -6.3471 H   0  0  0  0  0  0  0  0  0  0  0  0
    6.1370    1.0126   -5.5815 H   0  0  0  0  0  0  0  0  0  0  0  0
    9.0498    3.8784   -8.8643 H   0  0  0  0  0  0  0  0  0  0  0  0
  1  2  1  0  0  0  0
  2  3  1  0  0  0  0
  2 34  1  0  0  0  0
  3  4  2  0  0  0  0
  3 35  1  0  0  0  0
  4  5  1  0  0  0  0
  4  6  1  0  0  0  0
  5  1  2  0  0  0  0
  6  7  1  0  0  0  0
  7  8  1  0  0  0  0
  7 36  1  0  0  0  0
  7 37  1  0  0  0  0
  8  9  2  0  0  0  0
  9 10  1  0  0  0  0
  9 14  1  0  0  0  0
 10 11  1  0  0  0  0
 10 17  1  0  0  0  0
 11 12  1  0  0  0  0
 11 18  1  0  0  0  0
 11 32  1  6  0  0  0
 12 13  1  0  0  0  0
 13  8  1  0  0  0  0
 13 38  1  0  0  0  0
 13 39  1  0  0  0  0
 14 15  2  0  0  0  0
 14 16  1  0  0  0  0
 16 40  1  0  0  0  0
 17 19  2  0  0  0  0
 18 17  1  0  0  0  0
 18 20  1  0  0  0  0
 18 33  1  1  0  0  0
 20 21  1  0  0  0  0
 20 41  1  0  0  0  0
 21 23  2  0  0  0  0
 22 25  1  0  0  0  0
 22 42  1  1  0  0  0
 22 24  1  0  0  0  0
 22 21  1  0  0  0  0
 24 43  1  0  0  0  0
 24 44  1  0  0  0  0
 25 26  1  0  0  0  0
 26 27  2  0  0  0  0
 26 45  1  0  0  0  0
 27 28  1  0  0  0  0
 27 46  1  0  0  0  0
 28 29  2  0  0  0  0
 28 31  1  0  0  0  0
 29 30  1  0  0  0  0
 29 47  1  0  0  0  0
 30 25  2  0  0  0  0
 30 48  1  0  0  0  0
 31 49  1  0  0  0  0
M  END
>  <DRUGBANK_ID>
DB13266

>  <COMMON_NAME>
Cefatrizine

>  <CAS_NUMBER>
51627-14-6

>  <UNII>
8P4W949T8K

>  <SYNONYMS>
cefatrizina; cÃ©fatrizine; Cefatrizine; cefatrizinum

$$$$
