
 OpenBabel10282417173D

 68 67  0  0  0  0  0  0  0  0999 V2000
    0.9211    0.0608    0.0091 C   0  0  0  0  0  0  0  0  0  0  0  0
    0.4144   -0.7195    1.2111 C   0  0  0  0  0  0  0  0  0  0  0  0
    4.4216    0.4710    1.7849 C   0  0  0  0  0  0  0  0  0  0  0  0
    4.1088   -0.3392    3.9654 C   0  0  0  0  0  0  0  0  0  0  0  0
    3.1043    0.4382    1.6210 C   0  0  0  0  0  0  0  0  0  0  0  0
    2.7924   -0.3123    3.8636 C   0  0  0  0  0  0  0  0  0  0  0  0
    5.9091   -0.8896    7.2770 C   0  0  0  0  0  0  0  0  0  0  0  0
    4.4525   -1.1935    6.9664 C   0  0  0  0  0  0  0  0  0  0  0  0
    6.4550    0.5268    3.3301 C   0  0  0  0  0  0  0  0  0  0  0  0
    5.8648    0.9264    5.7077 C   0  0  0  0  0  0  0  0  0  0  0  0
    6.4800   -1.2761    4.9776 C   0  0  0  0  0  0  0  0  0  0  0  0
    2.9697   -2.4484    5.5562 C   0  0  0  0  0  0  0  0  0  0  0  0
    5.0234   -1.5800    4.6671 C   0  0  0  0  0  0  0  0  0  0  0  0
    8.0146    2.7753    5.8880 C   0  0  0  0  0  0  0  0  0  0  0  0
    8.6298    0.5728    5.1579 C   0  0  0  0  0  0  0  0  0  0  0  0
    4.9984    0.2228    3.0195 C   0  0  0  0  0  0  0  0  0  0  0  0
    6.5318    1.5204    4.4777 C   0  0  1  0  0  0  0  0  0  0  0  0
    2.2839    0.0063    2.6351 C   0  0  0  0  0  0  0  0  0  0  0  0
    5.0234   -1.5800    4.6670 C   0  0  0  0  0  0  0  0  0  0  0  0
    2.2568   -1.1646    5.1634 C   0  0  0  0  0  0  0  0  0  0  0  0
    4.3105   -0.2962    4.2743 C   0  0  0  0  0  0  0  0  0  0  0  0
    7.3476    2.1813    7.1179 C   0  0  0  0  0  0  0  0  0  0  0  0
    7.9628   -0.0212    6.3878 C   0  0  0  0  0  0  0  0  0  0  0  0
    6.5542   -0.3151    6.0875 N   0  0  0  0  0  0  0  0  0  0  0  0
    4.3783   -2.1545    5.8565 N   0  0  0  0  0  0  0  0  0  0  0  0
    7.9404    1.8143    4.7781 N   0  0  0  0  0  0  0  0  0  0  0  0
    4.5538   -1.3286    3.5131 O   0  0  0  0  0  0  0  0  0  0  0  0
    4.1873   -2.1447    5.6662 O   0  5  0  0  0  0  0  0  0  0  0  0
    1.7174   -1.0624    4.0173 O   0  0  0  0  0  0  0  0  0  0  0  0
    2.1936   -0.0795    6.0772 O   0  5  0  0  0  0  0  0  0  0  0  0
    4.9487    0.8025    4.2480 O   0  0  0  0  0  0  0  0  0  0  0  0
    2.9315   -0.3246    3.9367 O   0  5  0  0  0  0  0  0  0  0  0  0
    8.0167    2.0143    8.1854 O   0  0  0  0  0  0  0  0  0  0  0  0
    5.9769    1.8129    7.0741 O   0  0  0  0  0  0  0  0  0  0  0  0
    7.4543   -1.1847    6.3354 O   0  0  0  0  0  0  0  0  0  0  0  0
    7.9079    0.7239    7.5953 O   0  0  0  0  0  0  0  0  0  0  0  0
    0.8878   -0.1116    2.4039 O   0  0  0  0  0  0  0  0  0  0  0  0
    0.9000   -0.0009   -0.0008 Gd  0  1  0  0  0  0  0  0  0  0  0  0
    6.0299    2.4241    4.2013 H   0  0  0  0  0  0  0  0  0  0  0  0
    0.5644    1.0682    0.0617 H   0  0  0  0  0  0  0  0  0  0  0  0
    0.5644   -0.3974   -0.8897 H   0  0  0  0  0  0  0  0  0  0  0  0
    1.9911    0.0608    0.0091 H   0  0  0  0  0  0  0  0  0  0  0  0
   -0.6556   -0.7195    1.2111 H   0  0  0  0  0  0  0  0  0  0  0  0
    0.7711   -1.7270    1.1585 H   0  0  0  0  0  0  0  0  0  0  0  0
    5.0493    0.6933    0.9474 H   0  0  0  0  0  0  0  0  0  0  0  0
    4.5321   -0.8194    4.8228 H   0  0  0  0  0  0  0  0  0  0  0  0
    2.6778    0.7509    0.6909 H   0  0  0  0  0  0  0  0  0  0  0  0
    2.1579   -0.5282    4.6977 H   0  0  0  0  0  0  0  0  0  0  0  0
    6.4109   -1.7933    7.5534 H   0  0  0  0  0  0  0  0  0  0  0  0
    5.9631   -0.1901    8.0849 H   0  0  0  0  0  0  0  0  0  0  0  0
    3.9830   -1.6116    7.8322 H   0  0  0  0  0  0  0  0  0  0  0  0
    3.9507   -0.2898    6.6900 H   0  0  0  0  0  0  0  0  0  0  0  0
    6.9568   -0.3769    3.6065 H   0  0  0  0  0  0  0  0  0  0  0  0
    6.9245    0.9449    2.4643 H   0  0  0  0  0  0  0  0  0  0  0  0
    5.9188    1.6259    6.5156 H   0  0  0  0  0  0  0  0  0  0  0  0
    4.8394    0.7125    5.4891 H   0  0  0  0  0  0  0  0  0  0  0  0
    6.9495   -0.8579    4.1118 H   0  0  0  0  0  0  0  0  0  0  0  0
    6.9818   -2.1798    5.2540 H   0  0  0  0  0  0  0  0  0  0  0  0
    2.9156   -3.1478    4.7483 H   0  0  0  0  0  0  0  0  0  0  0  0
    2.5001   -2.8665    6.4220 H   0  0  0  0  0  0  0  0  0  0  0  0
    6.0487   -1.3661    4.8856 H   0  0  0  0  0  0  0  0  0  0  0  0
    4.9694   -2.2795    3.8591 H   0  0  0  0  0  0  0  0  0  0  0  0
    9.0400    2.9892    6.1066 H   0  0  0  0  0  0  0  0  0  0  0  0
    7.5128    3.6790    5.6115 H   0  0  0  0  0  0  0  0  0  0  0  0
    8.5758   -0.1267    4.3500 H   0  0  0  0  0  0  0  0  0  0  0  0
    9.6552    0.7867    5.3765 H   0  0  0  0  0  0  0  0  0  0  0  0
    5.5381    1.4222    7.8833 H   0  0  0  0  0  0  0  0  0  0  0  0
    7.4691    0.3331    8.4045 H   0  0  0  0  0  0  0  0  0  0  0  0
  1 40  1  0  0  0  0
  1 41  1  0  0  0  0
  1 42  1  0  0  0  0
  2  1  1  0  0  0  0
  2 43  1  0  0  0  0
  2 44  1  0  0  0  0
  3 45  1  0  0  0  0
  4 46  1  0  0  0  0
  5  3  1  0  0  0  0
  5 47  1  0  0  0  0
  6  4  2  0  0  0  0
  6 48  1  0  0  0  0
  7 49  1  0  0  0  0
  7 50  1  0  0  0  0
  8  7  1  0  0  0  0
  8 51  1  0  0  0  0
  8 52  1  0  0  0  0
  9 53  1  0  0  0  0
  9 54  1  0  0  0  0
 10 55  1  0  0  0  0
 10 56  1  0  0  0  0
 11 57  1  0  0  0  0
 11 58  1  0  0  0  0
 12 59  1  0  0  0  0
 12 60  1  0  0  0  0
 13 61  1  0  0  0  0
 13 62  1  0  0  0  0
 14 63  1  0  0  0  0
 14 64  1  0  0  0  0
 15 65  1  0  0  0  0
 15 66  1  0  0  0  0
 16  3  2  0  0  0  0
 16  4  1  0  0  0  0
 16  9  1  0  0  0  0
 17  9  1  0  0  0  0
 17 10  1  0  0  0  0
 17 26  1  0  0  0  0
 17 39  1  6  0  0  0
 18  5  2  0  0  0  0
 18  6  1  0  0  0  0
 19 11  1  0  0  0  0
 20 12  1  0  0  0  0
 21 13  1  0  0  0  0
 22 14  1  0  0  0  0
 23 15  1  0  0  0  0
 24  7  1  0  0  0  0
 24 10  1  0  0  0  0
 24 11  1  0  0  0  0
 25  8  1  0  0  0  0
 25 12  1  0  0  0  0
 25 13  1  0  0  0  0
 26 14  1  0  0  0  0
 26 15  1  0  0  0  0
 27 19  2  0  0  0  0
 28 19  1  0  0  0  0
 29 20  2  0  0  0  0
 30 20  1  0  0  0  0
 31 21  2  0  0  0  0
 32 21  1  0  0  0  0
 33 22  2  0  0  0  0
 34 22  1  0  0  0  0
 34 67  1  0  0  0  0
 35 23  2  0  0  0  0
 36 23  1  0  0  0  0
 36 68  1  0  0  0  0
 37  2  1  0  0  0  0
 37 18  1  0  0  0  0
M  CHG  4  28  -1  30  -1  32  -1  38   3
M  END
>  <DRUGBANK_ID>
DB08884

>  <COMMON_NAME>
Gadoxetic acid

>  <CAS_NUMBER>
135326-11-3

>  <UNII>
3QJA87N40S

>  <SYNONYMS>
Gadoxetate; Gadoxetic acid; Gd-EOB-DTPA

$$$$
