
 OpenBabel10282417193D

 72 75  0  0  1  0  0  0  0  0999 V2000
   -6.9361   -6.1993   -3.2346 C   0  0  0  0  0  0  0  0  0  0  0  0
   -5.7282   -5.8029   -3.6835 C   0  0  0  0  0  0  0  0  0  0  0  0
   -5.0792   -4.7747   -4.2745 C   0  0  0  0  0  0  0  0  0  0  0  0
   -5.9305   -3.7426   -4.4302 C   0  0  0  0  0  0  0  0  0  0  0  0
   -7.2943   -3.9968   -4.0057 C   0  0  0  0  0  0  0  0  0  0  0  0
   -7.7485   -5.1504   -3.2906 C   0  0  0  0  0  0  0  0  0  0  0  0
   -8.4206   -3.3138   -4.6456 C   0  0  0  0  0  0  0  0  0  0  0  0
   -9.5494   -3.6580   -4.4738 O   0  0  0  0  0  0  0  0  0  0  0  0
   -8.0524   -2.3747   -5.5803 N   0  0  0  0  0  0  0  0  0  0  0  0
   -3.5189   -5.2358   -4.3268 C   0  0  1  0  0  0  0  0  0  0  0  0
   -2.2629   -5.4695   -2.8607 C   0  0  0  0  0  0  0  0  0  0  0  0
   -2.3000   -6.5774   -1.9452 C   0  0  1  0  0  0  0  0  0  0  0  0
   -3.5228   -6.3048   -1.1384 C   0  0  0  0  0  0  0  0  0  0  0  0
   -4.4448   -7.2179   -1.8642 C   0  0  0  0  0  0  0  0  0  0  0  0
   -3.7092   -7.5546   -3.4658 C   0  0  1  0  0  0  0  0  0  0  0  0
   -3.7490   -6.6553   -4.8358 C   0  0  0  0  0  0  0  0  0  0  0  0
   -2.2928   -7.5769   -3.0227 N   0  0  0  0  0  0  0  0  0  0  0  0
   -1.2514   -7.2022   -4.1584 C   0  0  0  0  0  0  0  0  0  0  0  0
   -1.1588   -5.6256   -5.0826 C   0  0  0  0  0  0  0  0  0  0  0  0
   -1.2675   -4.0339   -4.2495 N   0  0  0  0  0  0  0  0  0  0  0  0
   -0.1647   -3.2503   -4.5640 C   0  0  0  0  0  0  0  0  0  0  0  0
   -0.7545   -1.9968   -5.1624 C   0  0  0  0  0  0  0  0  0  0  0  0
   -2.2835   -2.0719   -5.5157 C   0  0  0  0  0  0  0  0  0  0  0  0
   -2.8773   -0.8274   -6.0499 C   0  0  0  0  0  0  0  0  0  0  0  0
   -2.1340   -0.5690   -7.3195 C   0  0  0  0  0  0  0  0  0  0  0  0
   -0.6223   -0.4892   -7.0662 C   0  0  0  0  0  0  0  0  0  0  0  0
   -0.0335   -1.7487   -6.4599 C   0  0  0  0  0  0  0  0  0  0  0  0
   -2.3377   -3.2680   -3.2522 C   0  0  0  0  0  0  0  0  0  0  0  0
   -3.5299   -3.5579   -2.9990 O   0  0  0  0  0  0  0  0  0  0  0  0
   -2.0271   -2.2300   -2.1973 C   0  0  2  0  0  0  0  0  0  0  0  0
   -1.4976   -2.8262   -0.8870 C   0  0  0  0  0  0  0  0  0  0  0  0
   -2.3182   -3.7813   -0.1894 O   0  0  0  0  0  0  0  0  0  0  0  0
   -3.3763   -1.7052   -1.8204 O   0  0  0  0  0  0  0  0  0  0  0  0
   -7.0374   -7.1008   -2.6448 H   0  0  0  0  0  0  0  0  0  0  0  0
   -4.9174   -5.9248   -3.0501 H   0  0  0  0  0  0  0  0  0  0  0  0
   -5.5918   -2.7844   -4.8030 H   0  0  0  0  0  0  0  0  0  0  0  0
   -8.7043   -5.2612   -2.8041 H   0  0  0  0  0  0  0  0  0  0  0  0
   -7.1051   -2.2259   -5.8704 H   0  0  0  0  0  0  0  0  0  0  0  0
   -8.8001   -2.0304   -6.1519 H   0  0  0  0  0  0  0  0  0  0  0  0
   -3.2066   -4.5429   -5.1316 H   0  0  0  0  0  0  0  0  0  0  0  0
   -1.1806   -5.5535   -3.1133 H   0  0  0  0  0  0  0  0  0  0  0  0
   -1.9258   -4.7056   -2.1710 H   0  0  0  0  0  0  0  0  0  0  0  0
   -1.4187   -6.4863   -1.2889 H   0  0  0  0  0  0  0  0  0  0  0  0
   -3.8846   -5.2453   -1.1969 H   0  0  0  0  0  0  0  0  0  0  0  0
   -3.4767   -6.4882   -0.0663 H   0  0  0  0  0  0  0  0  0  0  0  0
   -5.3377   -6.5923   -1.6520 H   0  0  0  0  0  0  0  0  0  0  0  0
   -4.7782   -8.1202   -1.3871 H   0  0  0  0  0  0  0  0  0  0  0  0
   -4.1018   -8.5097   -3.7842 H   0  0  0  0  0  0  0  0  0  0  0  0
   -4.6550   -6.6614   -5.4765 H   0  0  0  0  0  0  0  0  0  0  0  0
   -3.0715   -7.0022   -5.6286 H   0  0  0  0  0  0  0  0  0  0  0  0
   -0.2729   -7.2685   -3.6589 H   0  0  0  0  0  0  0  0  0  0  0  0
   -1.2881   -8.0328   -4.8696 H   0  0  0  0  0  0  0  0  0  0  0  0
   -0.1765   -5.6857   -5.5723 H   0  0  0  0  0  0  0  0  0  0  0  0
   -1.8231   -5.6042   -5.9606 H   0  0  0  0  0  0  0  0  0  0  0  0
    0.4045   -3.1697   -3.6380 H   0  0  0  0  0  0  0  0  0  0  0  0
    0.4614   -3.8062   -5.2750 H   0  0  0  0  0  0  0  0  0  0  0  0
   -0.5534   -1.1944   -4.4479 H   0  0  0  0  0  0  0  0  0  0  0  0
   -2.4714   -2.9091   -6.2007 H   0  0  0  0  0  0  0  0  0  0  0  0
   -2.9688   -2.1610   -4.6953 H   0  0  0  0  0  0  0  0  0  0  0  0
   -3.9493   -1.0170   -6.2061 H   0  0  0  0  0  0  0  0  0  0  0  0
   -2.7882   -0.0421   -5.2897 H   0  0  0  0  0  0  0  0  0  0  0  0
   -2.3515   -1.3969   -8.0085 H   0  0  0  0  0  0  0  0  0  0  0  0
   -2.5192    0.3541   -7.7420 H   0  0  0  0  0  0  0  0  0  0  0  0
   -0.1087   -0.2918   -8.0016 H   0  0  0  0  0  0  0  0  0  0  0  0
   -0.4305    0.3254   -6.3579 H   0  0  0  0  0  0  0  0  0  0  0  0
    1.0410   -1.6543   -6.2633 H   0  0  0  0  0  0  0  0  0  0  0  0
   -0.1656   -2.6136   -7.1276 H   0  0  0  0  0  0  0  0  0  0  0  0
   -1.4784   -1.4087   -2.6203 H   0  0  0  0  0  0  0  0  0  0  0  0
   -0.5482   -3.3267   -1.0680 H   0  0  0  0  0  0  0  0  0  0  0  0
   -1.3921   -2.0108   -0.1798 H   0  0  0  0  0  0  0  0  0  0  0  0
   -3.2481   -3.4910   -0.1838 H   0  0  0  0  0  0  0  0  0  0  0  0
   -3.9778   -2.4963   -1.9248 H   0  0  0  0  0  0  0  0  0  0  0  0
  1  2  2  0  0  0  0
  1  6  1  0  0  0  0
  1 34  1  0  0  0  0
  2  3  1  0  0  0  0
  2 35  1  0  0  0  0
  3  4  2  0  0  0  0
  4  5  1  0  0  0  0
  4 36  1  0  0  0  0
  5  6  2  0  0  0  0
  5  7  1  0  0  0  0
  6 37  1  0  0  0  0
  7  8  2  0  0  0  0
  7  9  1  0  0  0  0
  9 38  1  0  0  0  0
  9 39  1  0  0  0  0
 10  3  1  0  0  0  0
 10 11  1  0  0  0  0
 10 16  1  0  0  0  0
 10 40  1  6  0  0  0
 11 12  1  0  0  0  0
 11 41  1  0  0  0  0
 11 42  1  0  0  0  0
 12 13  1  0  0  0  0
 12 17  1  0  0  0  0
 12 43  1  1  0  0  0
 13 14  1  0  0  0  0
 13 44  1  0  0  0  0
 13 45  1  0  0  0  0
 14 15  1  0  0  0  0
 14 46  1  0  0  0  0
 14 47  1  0  0  0  0
 15 16  1  0  0  0  0
 15 17  1  0  0  0  0
 15 48  1  6  0  0  0
 16 49  1  0  0  0  0
 16 50  1  0  0  0  0
 17 18  1  0  0  0  0
 18 19  1  0  0  0  0
 18 51  1  0  0  0  0
 18 52  1  0  0  0  0
 19 20  1  0  0  0  0
 19 53  1  0  0  0  0
 19 54  1  0  0  0  0
 20 21  1  0  0  0  0
 20 28  1  0  0  0  0
 21 22  1  0  0  0  0
 21 55  1  0  0  0  0
 21 56  1  0  0  0  0
 22 23  1  0  0  0  0
 22 27  1  0  0  0  0
 22 57  1  0  0  0  0
 23 24  1  0  0  0  0
 23 58  1  0  0  0  0
 23 59  1  0  0  0  0
 24 25  1  0  0  0  0
 24 60  1  0  0  0  0
 24 61  1  0  0  0  0
 25 26  1  0  0  0  0
 25 62  1  0  0  0  0
 25 63  1  0  0  0  0
 26 27  1  0  0  0  0
 26 64  1  0  0  0  0
 26 65  1  0  0  0  0
 27 66  1  0  0  0  0
 27 67  1  0  0  0  0
 28 29  2  0  0  0  0
 30 33  1  0  0  0  0
 30 68  1  6  0  0  0
 30 31  1  0  0  0  0
 30 28  1  0  0  0  0
 31 32  1  0  0  0  0
 31 69  1  0  0  0  0
 31 70  1  0  0  0  0
 32 71  1  0  0  0  0
 33 72  1  0  0  0  0
M  END
>  <DRUGBANK_ID>
DB12013

>  <COMMON_NAME>
Axelopran

>  <CAS_NUMBER>
949904-48-7

>  <UNII>
85U7ROB149

>  <SYNONYMS>
Axelopran

$$$$
