
 OpenBabel10282417123D

 12 11  0  0  0  0  0  0  0  0999 V2000
    2.9539   -1.8228    0.7969 S   0  0  0  0  0  0  0  0  0  0  0  0
    0.6731    0.0534    1.6502 P   0  0  0  0  0  0  0  0  0  0  0  0
    2.9798    0.0534    0.0191 P   0  0  2  0  0  0  0  0  0  0  0  0
    1.2498    0.0534    0.0191 O   0  0  0  0  0  0  0  0  0  0  0  0
   -0.4254    1.1638    1.1316 O   0  0  0  0  0  0  0  0  0  0  0  0
   -0.1945   -1.2770    1.2153 O   0  0  0  0  0  0  0  0  0  0  0  0
    2.7975   -0.1791   -1.5944 O   0  0  0  0  0  0  0  0  0  0  0  0
    0.1570    0.0534    3.1100 O   0  0  0  0  0  0  0  0  0  0  0  0
    4.7098    0.0534    0.0191 O   0  5  0  0  0  0  0  0  0  0  0  0
   -0.2464    2.0300    1.5254 H   0  0  0  0  0  0  0  0  0  0  0  0
    0.4624   -2.0032    1.1350 H   0  0  0  0  0  0  0  0  0  0  0  0
    2.3680   -1.0591   -1.6666 H   0  0  0  0  0  0  0  0  0  0  0  0
  2  4  1  0  0  0  0
  2  5  1  0  0  0  0
  2  6  1  0  0  0  0
  2  8  2  0  0  0  0
  3  7  1  0  0  0  0
  3  9  1  1  0  0  0
  3  4  1  0  0  0  0
  3  1  2  0  0  0  0
  5 10  1  0  0  0  0
  6 11  1  0  0  0  0
  7 12  1  0  0  0  0
M  CHG  1   9  -1
M  END
>  <DRUGBANK_ID>
DB02423

>  <SECONDARY_ACCESSION_NUMBERS>
EXPT02603

>  <COMMON_NAME>
Thiopyrophosphate

>  <CAS_NUMBER>
68488-87-9

>  <SYNONYMS>
Trihydrogen thiodiphosphate

$$$$
