
 OpenBabel10282417203D

 58 58  0  0  1  0  0  0  0  0999 V2000
    1.0789   -0.1856    0.0169 C   0  0  0  0  0  0  0  0  0  0  0  0
    0.6433   -0.0768    1.4695 C   0  0  0  0  0  0  0  0  0  0  0  0
    1.1309    1.2340    2.0905 C   0  0  0  0  0  0  0  0  0  0  0  0
    0.5635    2.4615    1.3683 C   0  0  0  0  0  0  0  0  0  0  0  0
   -0.9692    2.4752    1.3957 C   0  0  0  0  0  0  0  0  0  0  0  0
   -1.5048    2.5393    2.8327 C   0  0  0  0  0  0  0  0  0  0  0  0
   -1.0517    3.8153    3.5605 C   0  0  0  0  0  0  0  0  0  0  0  0
   -1.4629    5.0850    2.8137 C   0  0  0  0  0  0  0  0  0  0  0  0
   -2.9100    5.1062    2.6624 N   0  0  0  0  0  0  0  0  0  0  0  0
   -3.4280    6.2464    1.8968 C   0  0  1  0  0  0  0  0  0  0  0  0
   -2.9464    6.1898    0.4457 C   0  0  0  0  0  0  0  0  0  0  0  0
   -4.9936    6.2709    1.9193 C   0  0  1  0  0  0  0  0  0  0  0  0
   -5.5099    6.3243    3.3394 C   0  0  0  0  0  0  0  0  0  0  0  0
   -5.7115    5.1242    4.0076 C   0  0  0  0  0  0  0  0  0  0  0  0
   -6.0295    5.1106    5.3578 C   0  0  0  0  0  0  0  0  0  0  0  0
   -6.1863    6.2961    6.0821 C   0  0  0  0  0  0  0  0  0  0  0  0
   -5.9643    7.4991    5.4162 C   0  0  0  0  0  0  0  0  0  0  0  0
   -5.6546    7.5243    4.0530 C   0  0  0  0  0  0  0  0  0  0  0  0
   -6.6856    6.4003    7.7917 S   0  0  0  0  0  0  0  0  0  0  0  0
   -7.0363    4.6760    8.3197 C   0  0  0  0  0  0  0  0  0  0  0  0
   -8.1681    4.0103    7.5335 C   0  0  0  0  0  0  0  0  0  0  0  0
   -5.7480    3.8603    8.4216 C   0  0  0  0  0  0  0  0  0  0  0  0
   -5.5029    7.3676    1.1643 O   0  0  0  0  0  0  0  0  0  0  0  0
    0.6712    0.6251   -0.5954 H   0  0  0  0  0  0  0  0  0  0  0  0
    0.7299   -1.1218   -0.4221 H   0  0  0  0  0  0  0  0  0  0  0  0
    2.1701   -0.1436   -0.0504 H   0  0  0  0  0  0  0  0  0  0  0  0
   -0.4477   -0.1614    1.5345 H   0  0  0  0  0  0  0  0  0  0  0  0
    1.0385   -0.9210    2.0427 H   0  0  0  0  0  0  0  0  0  0  0  0
    0.8586    1.2552    3.1525 H   0  0  0  0  0  0  0  0  0  0  0  0
    2.2251    1.2736    2.0712 H   0  0  0  0  0  0  0  0  0  0  0  0
    0.9725    3.3712    1.8211 H   0  0  0  0  0  0  0  0  0  0  0  0
    0.9114    2.4994    0.3312 H   0  0  0  0  0  0  0  0  0  0  0  0
   -1.3364    3.3135    0.7941 H   0  0  0  0  0  0  0  0  0  0  0  0
   -1.3820    1.5946    0.8929 H   0  0  0  0  0  0  0  0  0  0  0  0
   -2.5972    2.4648    2.8149 H   0  0  0  0  0  0  0  0  0  0  0  0
   -1.1882    1.6643    3.4093 H   0  0  0  0  0  0  0  0  0  0  0  0
   -1.4538    3.8223    4.5791 H   0  0  0  0  0  0  0  0  0  0  0  0
    0.0392    3.8173    3.6750 H   0  0  0  0  0  0  0  0  0  0  0  0
   -1.1139    5.9674    3.3574 H   0  0  0  0  0  0  0  0  0  0  0  0
   -0.9582    5.0970    1.8445 H   0  0  0  0  0  0  0  0  0  0  0  0
   -3.2480    4.2450    2.2389 H   0  0  0  0  0  0  0  0  0  0  0  0
   -3.0637    7.1724    2.3589 H   0  0  0  0  0  0  0  0  0  0  0  0
   -3.2733    5.2620   -0.0374 H   0  0  0  0  0  0  0  0  0  0  0  0
   -3.3371    7.0344   -0.1264 H   0  0  0  0  0  0  0  0  0  0  0  0
   -1.8570    6.2442    0.3739 H   0  0  0  0  0  0  0  0  0  0  0  0
   -5.3830    5.3633    1.4356 H   0  0  0  0  0  0  0  0  0  0  0  0
   -5.5755    4.1674    3.5019 H   0  0  0  0  0  0  0  0  0  0  0  0
   -6.1325    4.1339    5.7910 H   0  0  0  0  0  0  0  0  0  0  0  0
   -6.0212    8.4476    5.9517 H   0  0  0  0  0  0  0  0  0  0  0  0
   -5.5155    8.4829    3.5728 H   0  0  0  0  0  0  0  0  0  0  0  0
   -7.4104    4.7793    9.3457 H   0  0  0  0  0  0  0  0  0  0  0  0
   -7.9745    3.8829    6.4689 H   0  0  0  0  0  0  0  0  0  0  0  0
   -8.3633    3.0079    7.9269 H   0  0  0  0  0  0  0  0  0  0  0  0
   -9.0954    4.5881    7.6125 H   0  0  0  0  0  0  0  0  0  0  0  0
   -5.0374    4.3408    9.1033 H   0  0  0  0  0  0  0  0  0  0  0  0
   -5.9595    2.8591    8.8068 H   0  0  0  0  0  0  0  0  0  0  0  0
   -5.2223    3.7251    7.4764 H   0  0  0  0  0  0  0  0  0  0  0  0
   -5.0971    8.1696    1.5301 H   0  0  0  0  0  0  0  0  0  0  0  0
  1  2  1  0  0  0  0
  1 24  1  0  0  0  0
  1 25  1  0  0  0  0
  1 26  1  0  0  0  0
  2  3  1  0  0  0  0
  2 27  1  0  0  0  0
  2 28  1  0  0  0  0
  3  4  1  0  0  0  0
  3 29  1  0  0  0  0
  3 30  1  0  0  0  0
  4  5  1  0  0  0  0
  4 31  1  0  0  0  0
  4 32  1  0  0  0  0
  5  6  1  0  0  0  0
  5 33  1  0  0  0  0
  5 34  1  0  0  0  0
  6  7  1  0  0  0  0
  6 35  1  0  0  0  0
  6 36  1  0  0  0  0
  7  8  1  0  0  0  0
  7 37  1  0  0  0  0
  7 38  1  0  0  0  0
  8  9  1  0  0  0  0
  8 39  1  0  0  0  0
  8 40  1  0  0  0  0
  9 10  1  0  0  0  0
  9 41  1  0  0  0  0
 10 11  1  0  0  0  0
 10 12  1  0  0  0  0
 10 42  1  1  0  0  0
 11 43  1  0  0  0  0
 11 44  1  0  0  0  0
 11 45  1  0  0  0  0
 12 13  1  0  0  0  0
 12 23  1  0  0  0  0
 12 46  1  6  0  0  0
 13 14  2  0  0  0  0
 13 18  1  0  0  0  0
 14 15  1  0  0  0  0
 14 47  1  0  0  0  0
 15 16  2  0  0  0  0
 15 48  1  0  0  0  0
 16 17  1  0  0  0  0
 16 19  1  0  0  0  0
 17 18  2  0  0  0  0
 17 49  1  0  0  0  0
 18 50  1  0  0  0  0
 19 20  1  0  0  0  0
 20 21  1  0  0  0  0
 20 22  1  0  0  0  0
 20 51  1  0  0  0  0
 21 52  1  0  0  0  0
 21 53  1  0  0  0  0
 21 54  1  0  0  0  0
 22 55  1  0  0  0  0
 22 56  1  0  0  0  0
 22 57  1  0  0  0  0
 23 58  1  0  0  0  0
M  END
>  <DRUGBANK_ID>
DB13340

>  <COMMON_NAME>
Suloctidil

>  <CAS_NUMBER>
54767-75-8

>  <UNII>
XV1N1XY17K

>  <SYNONYMS>
Suloctidil

$$$$
