
 OpenBabel10282417133D

111115  0  0  0  0  0  0  0  0999 V2000
  -17.4254    4.1760   -1.0495 Br  0  0  0  0  0  0  0  0  0  0  0  0
  -10.4103   -2.1213   -0.0906 S   0  0  0  0  0  0  0  0  0  0  0  0
  -11.8791   -1.2397   -9.0846 P   0  0  0  0  0  0  0  0  0  0  0  0
  -10.4766   -5.0496   -8.9230 P   0  0  2  0  0  0  0  0  0  0  0  0
  -12.4719   -6.4153   -7.4619 P   0  0  2  0  0  0  0  0  0  0  0  0
   -9.4658   -2.4050   -5.5533 O   0  0  0  0  0  0  0  0  0  0  0  0
  -10.6397   -2.2104   -8.9025 O   0  0  0  0  0  0  0  0  0  0  0  0
   -9.1194   -0.0795   -7.7009 O   0  0  0  0  0  0  0  0  0  0  0  0
  -10.6866   -4.8895   -7.3391 O   0  0  0  0  0  0  0  0  0  0  0  0
  -12.1174   -1.3968  -10.6457 O   0  0  0  0  0  0  0  0  0  0  0  0
  -13.0655   -2.0499   -8.4070 O   0  0  0  0  0  0  0  0  0  0  0  0
  -11.8479   -6.0974   -9.0438 O   0  0  0  0  0  0  0  0  0  0  0  0
  -11.6831    0.1299   -8.5516 O   0  0  0  0  0  0  0  0  0  0  0  0
  -11.4321   -7.7915   -7.3283 O   0  0  0  0  0  0  0  0  0  0  0  0
   -9.6920   -6.3619   -9.4484 O   0  0  0  0  0  0  0  0  0  0  0  0
   -9.2493   -4.1118   -8.8149 O   0  0  0  0  0  0  0  0  0  0  0  0
  -12.2643   -6.0017   -5.3453 O   0  0  0  0  0  0  0  0  0  0  0  0
  -13.6140   -7.5305   -7.8508 O   0  0  0  0  0  0  0  0  0  0  0  0
  -13.4025   -5.1836   -7.5815 O   0  0  0  0  0  0  0  0  0  0  0  0
  -10.8363   -3.8249   -3.9112 O   0  0  0  0  0  0  0  0  0  0  0  0
  -11.0833   -7.2902    0.4936 O   0  0  0  0  0  0  0  0  0  0  0  0
  -12.9175   -4.8253    0.7484 O   0  0  0  0  0  0  0  0  0  0  0  0
   -7.1811   -2.9156   -6.1903 N   0  0  0  0  0  0  0  0  0  0  0  0
   -6.0472   -4.7718   -5.6199 N   0  0  0  0  0  0  0  0  0  0  0  0
   -5.4685   -1.7828   -7.4802 N   0  0  0  0  0  0  0  0  0  0  0  0
   -3.3849   -3.0417   -7.5301 N   0  0  0  0  0  0  0  0  0  0  0  0
   -3.0980   -5.1304   -6.4924 N   0  0  0  0  0  0  0  0  0  0  0  0
  -11.9346   -5.4882   -2.9428 N   0  0  0  0  0  0  0  0  0  0  0  0
  -10.2591   -5.4724   -0.5395 N   0  0  0  0  0  0  0  0  0  0  0  0
  -17.3932   -1.8203   -0.9916 N   0  0  0  0  0  0  0  0  0  0  0  0
  -13.6179   -2.7180    0.8409 N   0  0  0  0  0  0  0  0  0  0  0  0
   -9.8725   -2.2195   -7.7387 C   0  0  1  0  0  0  0  0  0  0  0  0
   -8.6629   -1.4115   -7.6338 C   0  0  2  0  0  0  0  0  0  0  0  0
  -10.5728   -2.3956   -6.4953 C   0  0  1  0  0  0  0  0  0  0  0  0
   -8.2324   -1.8918   -6.2216 C   0  0  1  0  0  0  0  0  0  0  0  0
  -11.3073   -3.7006   -6.7534 C   0  0  0  0  0  0  0  0  0  0  0  0
   -5.9388   -2.8089   -6.7594 C   0  0  0  0  0  0  0  0  0  0  0  0
   -7.1668   -4.0888   -5.4835 C   0  0  0  0  0  0  0  0  0  0  0  0
   -5.2497   -3.9579   -6.3923 C   0  0  0  0  0  0  0  0  0  0  0  0
   -9.9838   -7.0072   -5.5320 C   0  0  0  0  0  0  0  0  0  0  0  0
   -3.9087   -4.0615   -6.8105 C   0  0  0  0  0  0  0  0  0  0  0  0
  -10.8500   -5.8199   -5.1194 C   0  0  2  0  0  0  0  0  0  0  0  0
  -10.9024   -8.1192   -6.0304 C   0  0  0  0  0  0  0  0  0  0  0  0
   -8.8668   -6.7938   -6.5698 C   0  0  0  0  0  0  0  0  0  0  0  0
   -9.1858   -7.1650   -4.2988 C   0  0  0  0  0  0  0  0  0  0  0  0
   -4.1804   -1.9864   -7.8195 C   0  0  0  0  0  0  0  0  0  0  0  0
  -11.1284   -4.9823   -3.9114 C   0  0  0  0  0  0  0  0  0  0  0  0
  -12.1318   -6.8600   -2.6876 C   0  0  0  0  0  0  0  0  0  0  0  0
  -11.0358   -7.4438   -1.8240 C   0  0  0  0  0  0  0  0  0  0  0  0
  -10.8375   -6.7107   -0.5613 C   0  0  0  0  0  0  0  0  0  0  0  0
  -15.3853   -0.8769   -0.7811 C   0  0  0  0  0  0  0  0  0  0  0  0
  -13.9168   -0.7003   -0.5618 C   0  0  0  0  0  0  0  0  0  0  0  0
  -16.3646    0.1562   -0.8783 C   0  0  0  0  0  0  0  0  0  0  0  0
  -17.6070   -0.4647   -1.0093 C   0  0  0  0  0  0  0  0  0  0  0  0
   -9.7572   -4.4463   -1.4872 C   0  0  0  0  0  0  0  0  0  0  0  0
  -13.4885   -1.2732    0.7902 C   0  0  0  0  0  0  0  0  0  0  0  0
  -16.0565   -2.0783   -0.9146 C   0  0  0  0  0  0  0  0  0  0  0  0
  -16.3069    1.5639   -0.8675 C   0  0  0  0  0  0  0  0  0  0  0  0
  -10.6266   -3.1376   -1.5507 C   0  0  0  0  0  0  0  0  0  0  0  0
  -18.8018    0.2460   -1.1357 C   0  0  0  0  0  0  0  0  0  0  0  0
  -17.4936    2.2855   -1.0168 C   0  0  0  0  0  0  0  0  0  0  0  0
  -18.7210    1.6403   -1.1492 C   0  0  0  0  0  0  0  0  0  0  0  0
  -11.2152   -3.1486    1.1661 C   0  0  0  0  0  0  0  0  0  0  0  0
  -12.6210   -3.6374    0.8727 C   0  0  0  0  0  0  0  0  0  0  0  0
   -3.4820   -5.8927   -5.9533 H   0  0  0  0  0  0  0  0  0  0  0  0
   -2.1391   -5.1223   -6.8013 H   0  0  0  0  0  0  0  0  0  0  0  0
  -12.0580   -4.8991   -2.1446 H   0  0  0  0  0  0  0  0  0  0  0  0
  -10.0775   -5.2645    0.4200 H   0  0  0  0  0  0  0  0  0  0  0  0
  -18.1170   -2.5225   -1.0548 H   0  0  0  0  0  0  0  0  0  0  0  0
  -14.5466   -3.1168    0.7770 H   0  0  0  0  0  0  0  0  0  0  0  0
  -10.0399   -0.0596   -7.3585 H   0  0  0  0  0  0  0  0  0  0  0  0
  -11.3947   -0.9329  -11.1111 H   0  0  0  0  0  0  0  0  0  0  0  0
  -13.0835   -3.0161   -8.5441 H   0  0  0  0  0  0  0  0  0  0  0  0
  -10.1240   -6.6591  -10.2791 H   0  0  0  0  0  0  0  0  0  0  0  0
  -12.7849   -5.1653   -5.4135 H   0  0  0  0  0  0  0  0  0  0  0  0
  -13.5549   -8.2666   -7.2137 H   0  0  0  0  0  0  0  0  0  0  0  0
   -9.3331   -3.1167   -7.5122 H   0  0  0  0  0  0  0  0  0  0  0  0
   -7.9754   -1.6573   -8.4590 H   0  0  0  0  0  0  0  0  0  0  0  0
  -11.3295   -1.6654   -6.2212 H   0  0  0  0  0  0  0  0  0  0  0  0
   -7.8850   -1.0537   -5.6278 H   0  0  0  0  0  0  0  0  0  0  0  0
  -12.2824   -3.5862   -7.1446 H   0  0  0  0  0  0  0  0  0  0  0  0
  -11.6247   -3.8987   -5.7724 H   0  0  0  0  0  0  0  0  0  0  0  0
   -8.0153   -4.4144   -4.9063 H   0  0  0  0  0  0  0  0  0  0  0  0
  -10.2072   -5.0650   -5.5414 H   0  0  0  0  0  0  0  0  0  0  0  0
  -10.3426   -9.0545   -6.1051 H   0  0  0  0  0  0  0  0  0  0  0  0
  -11.7516   -8.3237   -5.3752 H   0  0  0  0  0  0  0  0  0  0  0  0
   -8.4193   -5.8111   -6.5047 H   0  0  0  0  0  0  0  0  0  0  0  0
   -8.0715   -7.5363   -6.4621 H   0  0  0  0  0  0  0  0  0  0  0  0
   -9.1975   -6.9066   -7.5809 H   0  0  0  0  0  0  0  0  0  0  0  0
   -8.6831   -6.2325   -4.0045 H   0  0  0  0  0  0  0  0  0  0  0  0
  -10.0089   -7.3059   -3.6758 H   0  0  0  0  0  0  0  0  0  0  0  0
   -8.5373   -8.0175   -4.1852 H   0  0  0  0  0  0  0  0  0  0  0  0
   -3.7206   -1.1879   -8.3933 H   0  0  0  0  0  0  0  0  0  0  0  0
  -12.2062   -7.4040   -3.6259 H   0  0  0  0  0  0  0  0  0  0  0  0
  -13.1166   -6.8946   -2.2305 H   0  0  0  0  0  0  0  0  0  0  0  0
   -9.9839   -7.4641   -2.1068 H   0  0  0  0  0  0  0  0  0  0  0  0
  -11.2636   -8.5052   -1.7202 H   0  0  0  0  0  0  0  0  0  0  0  0
  -13.3697   -1.1683   -1.3901 H   0  0  0  0  0  0  0  0  0  0  0  0
  -13.6522    0.3636   -0.5750 H   0  0  0  0  0  0  0  0  0  0  0  0
   -9.5826   -4.9502   -2.4308 H   0  0  0  0  0  0  0  0  0  0  0  0
   -8.7370   -4.1612   -1.2220 H   0  0  0  0  0  0  0  0  0  0  0  0
  -12.4647   -0.9732    0.9929 H   0  0  0  0  0  0  0  0  0  0  0  0
  -14.0882   -0.8757    1.6111 H   0  0  0  0  0  0  0  0  0  0  0  0
  -15.7024   -3.1001   -0.9262 H   0  0  0  0  0  0  0  0  0  0  0  0
  -15.3545    2.0755   -0.7675 H   0  0  0  0  0  0  0  0  0  0  0  0
  -11.7097   -3.2623   -1.6925 H   0  0  0  0  0  0  0  0  0  0  0  0
  -10.3182   -2.4834   -2.3778 H   0  0  0  0  0  0  0  0  0  0  0  0
  -19.7542   -0.2630   -1.2360 H   0  0  0  0  0  0  0  0  0  0  0  0
  -19.6341    2.2165   -1.2692 H   0  0  0  0  0  0  0  0  0  0  0  0
  -11.2575   -2.5454    2.0690 H   0  0  0  0  0  0  0  0  0  0  0  0
  -10.5784   -3.9787    1.4427 H   0  0  0  0  0  0  0  0  0  0  0  0
  1 61  1  0  0  0  0
  2 59  1  0  0  0  0
  2 63  1  0  0  0  0
  3  7  1  0  0  0  0
  3 10  1  0  0  0  0
  3 11  1  0  0  0  0
  3 13  2  0  0  0  0
  4  9  1  0  0  0  0
  4 12  1  0  0  0  0
  4 15  1  0  0  0  0
  4 16  2  6  0  0  0
  5 12  1  0  0  0  0
  5 14  1  0  0  0  0
  5 18  1  0  0  0  0
  5 19  2  1  0  0  0
  6 34  1  0  0  0  0
  6 35  1  0  0  0  0
  8 71  1  0  0  0  0
  9 36  1  0  0  0  0
 10 72  1  0  0  0  0
 11 73  1  0  0  0  0
 14 43  1  0  0  0  0
 15 74  1  0  0  0  0
 17 75  1  0  0  0  0
 18 76  1  0  0  0  0
 20 47  2  0  0  0  0
 21 50  2  0  0  0  0
 22 64  2  0  0  0  0
 23 37  1  0  0  0  0
 23 38  1  0  0  0  0
 24 38  2  0  0  0  0
 24 39  1  0  0  0  0
 25 37  2  0  0  0  0
 25 46  1  0  0  0  0
 26 41  1  0  0  0  0
 26 46  2  0  0  0  0
 27 41  1  0  0  0  0
 27 65  1  0  0  0  0
 27 66  1  0  0  0  0
 28 47  1  0  0  0  0
 28 48  1  0  0  0  0
 28 67  1  0  0  0  0
 29 50  1  0  0  0  0
 29 55  1  0  0  0  0
 29 68  1  0  0  0  0
 30 54  1  0  0  0  0
 30 57  1  0  0  0  0
 30 69  1  0  0  0  0
 31 56  1  0  0  0  0
 31 64  1  0  0  0  0
 31 70  1  0  0  0  0
 32  7  1  0  0  0  0
 32 33  1  0  0  0  0
 32 34  1  0  0  0  0
 32 77  1  6  0  0  0
 33  8  1  0  0  0  0
 33 35  1  0  0  0  0
 33 78  1  6  0  0  0
 34 79  1  1  0  0  0
 34 36  1  0  0  0  0
 35 23  1  0  0  0  0
 35 80  1  1  0  0  0
 36 81  1  0  0  0  0
 36 82  1  0  0  0  0
 37 39  1  0  0  0  0
 38 83  1  0  0  0  0
 39 41  2  0  0  0  0
 40 43  1  0  0  0  0
 40 44  1  0  0  0  0
 40 45  1  0  0  0  0
 42 47  1  0  0  0  0
 42 84  1  6  0  0  0
 42 40  1  0  0  0  0
 42 17  1  0  0  0  0
 43 85  1  0  0  0  0
 43 86  1  0  0  0  0
 44 87  1  0  0  0  0
 44 88  1  0  0  0  0
 44 89  1  0  0  0  0
 45 90  1  0  0  0  0
 45 91  1  0  0  0  0
 45 92  1  0  0  0  0
 46 93  1  0  0  0  0
 48 49  1  0  0  0  0
 48 94  1  0  0  0  0
 48 95  1  0  0  0  0
 49 50  1  0  0  0  0
 49 96  1  0  0  0  0
 49 97  1  0  0  0  0
 51 52  1  0  0  0  0
 51 53  1  0  0  0  0
 51 57  2  0  0  0  0
 52 56  1  0  0  0  0
 52 98  1  0  0  0  0
 52 99  1  0  0  0  0
 53 54  2  0  0  0  0
 53 58  1  0  0  0  0
 54 60  1  0  0  0  0
 55 59  1  0  0  0  0
 55100  1  0  0  0  0
 55101  1  0  0  0  0
 56102  1  0  0  0  0
 56103  1  0  0  0  0
 57104  1  0  0  0  0
 58 61  2  0  0  0  0
 58105  1  0  0  0  0
 59106  1  0  0  0  0
 59107  1  0  0  0  0
 60 62  2  0  0  0  0
 60108  1  0  0  0  0
 61 62  1  0  0  0  0
 62109  1  0  0  0  0
 63 64  1  0  0  0  0
 63110  1  0  0  0  0
 63111  1  0  0  0  0
M  END
>  <DRUGBANK_ID>
DB03341

>  <SECONDARY_ACCESSION_NUMBERS>
EXPT00819

>  <COMMON_NAME>
CoA-S-acetyl 5-bromotryptamine

$$$$
