CED
 OpenBabel10282417133D

 38 39  0  0  0  0  0  0  0  0999 V2000
    0.4385    1.7278    0.5664 S   0  0  0  0  0  0  0  0  0  0  0  0
   -1.1683    1.0738    0.1991 C   0  0  0  0  0  0  0  0  0  0  0  0
   -1.4110   -0.3937    0.3520 C   0  0  0  0  0  0  0  0  0  0  0  0
   -2.9073   -0.6251    0.2917 C   0  0  0  0  0  0  0  0  0  0  0  0
   -0.4231   -1.3146    0.4288 C   0  0  0  0  0  0  0  0  0  0  0  0
   -0.7703   -2.8096    0.5238 C   0  0  0  0  0  0  0  0  0  0  0  0
   -1.8590   -3.3271    0.6172 O   0  0  0  0  0  0  0  0  0  0  0  0
    0.3192   -3.5973    0.3273 O   0  0  0  0  0  0  0  0  0  0  0  0
    0.9201   -0.9592    0.2980 N   0  0  0  0  0  0  0  0  0  0  0  0
    1.5083    0.3620    0.0970 C   0  0  1  0  0  0  0  0  0  0  0  0
    2.1426    0.5682   -1.3033 C   0  0  1  0  0  0  0  0  0  0  0  0
    2.7225    1.9727   -1.4951 C   0  0  0  0  0  0  0  0  0  0  0  0
    3.9133    2.2344   -1.6410 O   0  0  0  0  0  0  0  0  0  0  0  0
    3.1594   -0.4510   -1.5702 N   0  0  0  0  0  0  0  0  0  0  0  0
    3.1605   -1.3991   -2.5484 C   0  0  0  0  0  0  0  0  0  0  0  0
    4.1102   -2.1845   -2.5896 O   0  0  0  0  0  0  0  0  0  0  0  0
    2.0640   -1.4319   -3.6046 C   0  0  0  0  0  0  0  0  0  0  0  0
    0.7241   -1.8719   -3.1023 C   0  0  0  0  0  0  0  0  0  0  0  0
    0.3357   -3.1466   -2.7435 C   0  0  0  0  0  0  0  0  0  0  0  0
   -1.0294   -3.2057   -2.3587 C   0  0  0  0  0  0  0  0  0  0  0  0
   -1.6268   -1.9702   -2.4043 C   0  0  0  0  0  0  0  0  0  0  0  0
   -0.6157   -0.7934   -3.0977 S   0  0  0  0  0  0  0  0  0  0  0  0
    2.3170    0.4328    0.8303 H   0  0  0  0  0  0  0  0  0  0  0  0
    1.3958    0.5156   -2.0840 H   0  0  0  0  0  0  0  0  0  0  0  0
   -1.7828    1.5703    0.9528 H   0  0  0  0  0  0  0  0  0  0  0  0
   -1.5186    1.4203   -0.7818 H   0  0  0  0  0  0  0  0  0  0  0  0
   -3.3979   -0.1339    1.1347 H   0  0  0  0  0  0  0  0  0  0  0  0
   -3.3034   -0.1600   -0.6234 H   0  0  0  0  0  0  0  0  0  0  0  0
   -3.2378   -1.6590    0.2656 H   0  0  0  0  0  0  0  0  0  0  0  0
   -0.0917   -4.4804    0.1837 H   0  0  0  0  0  0  0  0  0  0  0  0
    1.5194   -1.7580    0.0657 H   0  0  0  0  0  0  0  0  0  0  0  0
    1.9709    2.7833   -1.5453 H   0  0  0  0  0  0  0  0  0  0  0  0
    3.9987   -0.4376   -0.9960 H   0  0  0  0  0  0  0  0  0  0  0  0
    2.0209   -0.4625   -4.1096 H   0  0  0  0  0  0  0  0  0  0  0  0
    2.3666   -2.1702   -4.3555 H   0  0  0  0  0  0  0  0  0  0  0  0
    1.0097   -3.9938   -2.7303 H   0  0  0  0  0  0  0  0  0  0  0  0
   -1.5249   -4.0744   -1.9425 H   0  0  0  0  0  0  0  0  0  0  0  0
   -2.5999   -1.7155   -2.0156 H   0  0  0  0  0  0  0  0  0  0  0  0
  1  2  1  0  0  0  0
  1 10  1  0  0  0  0
  2  3  1  0  0  0  0
  2 25  1  0  0  0  0
  2 26  1  0  0  0  0
  3  4  1  0  0  0  0
  3  5  2  0  0  0  0
  4 27  1  0  0  0  0
  4 28  1  0  0  0  0
  4 29  1  0  0  0  0
  5  6  1  0  0  0  0
  5  9  1  0  0  0  0
  6  7  2  0  0  0  0
  6  8  1  0  0  0  0
  8 30  1  0  0  0  0
  9 10  1  0  0  0  0
  9 31  1  0  0  0  0
 10 11  1  0  0  0  0
 10 23  1  1  0  0  0
 11 12  1  0  0  0  0
 11 14  1  0  0  0  0
 11 24  1  6  0  0  0
 12 13  2  0  0  0  0
 12 32  1  0  0  0  0
 14 15  1  0  0  0  0
 14 33  1  0  0  0  0
 15 16  2  0  0  0  0
 15 17  1  0  0  0  0
 17 18  1  0  0  0  0
 17 34  1  0  0  0  0
 17 35  1  0  0  0  0
 18 19  2  0  0  0  0
 18 22  1  0  0  0  0
 19 20  1  0  0  0  0
 19 36  1  0  0  0  0
 20 21  2  0  0  0  0
 20 37  1  0  0  0  0
 21 22  1  0  0  0  0
 21 38  1  0  0  0  0
M  END
>  <DRUGBANK_ID>
DB04133

>  <SECONDARY_ACCESSION_NUMBERS>
EXPT00884

>  <COMMON_NAME>
Degraded Cephaloridine

$$$$
