
 OpenBabel10282417213D

 20 20  0  0  0  0  0  0  0  0999 V2000
    1.3802   -0.2193   -0.0002 C   0  0  0  0  0  0  0  0  0  0  0  0
    0.4829   -1.2926    0.0089 C   0  0  0  0  0  0  0  0  0  0  0  0
    0.9057    1.0906   -0.0078 C   0  0  0  0  0  0  0  0  0  0  0  0
   -0.4629    1.3296    0.0170 C   0  0  0  0  0  0  0  0  0  0  0  0
   -1.3559    0.2598   -0.0034 C   0  0  0  0  0  0  0  0  0  0  0  0
   -0.9017   -1.0666    0.0055 C   0  0  0  0  0  0  0  0  0  0  0  0
   -1.8220   -2.2159    0.0436 C   0  0  0  0  0  0  0  0  0  0  0  0
   -3.1645   -2.1194    0.0730 C   0  0  0  0  0  0  0  0  0  0  0  0
   -4.0935   -3.2787    0.1289 C   0  0  0  0  0  0  0  0  0  0  0  0
   -4.8927   -3.1485    1.2934 O   0  0  0  0  0  0  0  0  0  0  0  0
    2.4511   -0.4054    0.0104 H   0  0  0  0  0  0  0  0  0  0  0  0
    0.8822   -2.3046    0.0216 H   0  0  0  0  0  0  0  0  0  0  0  0
    1.5987    1.9264   -0.0321 H   0  0  0  0  0  0  0  0  0  0  0  0
   -0.8471    2.3449    0.0589 H   0  0  0  0  0  0  0  0  0  0  0  0
   -2.4149    0.4953   -0.0211 H   0  0  0  0  0  0  0  0  0  0  0  0
   -1.3593   -3.1999    0.0658 H   0  0  0  0  0  0  0  0  0  0  0  0
   -3.6649   -1.1580    0.0515 H   0  0  0  0  0  0  0  0  0  0  0  0
   -4.7503   -3.2661   -0.7455 H   0  0  0  0  0  0  0  0  0  0  0  0
   -3.5697   -4.2374    0.1639 H   0  0  0  0  0  0  0  0  0  0  0  0
   -4.2826   -3.1208    2.0504 H   0  0  0  0  0  0  0  0  0  0  0  0
  1  2  2  0  0  0  0
  1 11  1  0  0  0  0
  2  6  1  0  0  0  0
  2 12  1  0  0  0  0
  3  1  1  0  0  0  0
  3  4  2  0  0  0  0
  3 13  1  0  0  0  0
  4  5  1  0  0  0  0
  4 14  1  0  0  0  0
  5  6  2  0  0  0  0
  5 15  1  0  0  0  0
  6  7  1  0  0  0  0
  7  8  2  0  0  0  0
  7 16  1  0  0  0  0
  8  9  1  0  0  0  0
  8 17  1  0  0  0  0
  9 10  1  0  0  0  0
  9 18  1  0  0  0  0
  9 19  1  0  0  0  0
 10 20  1  0  0  0  0
M  END
>  <DRUGBANK_ID>
DB14186

>  <COMMON_NAME>
Cinnamyl alcohol

>  <CAS_NUMBER>
4407-36-7

>  <UNII>
SS8YOP444F

>  <SYNONYMS>
(2E)-3-phenylprop-2-en-1-ol; (E)-cinnamyl alcohol; Cinnamyl alcohol; Styrylcarbinol

$$$$
