R18
 OpenBabel10282417133D

 45 48  0  0  0  0  0  0  0  0999 V2000
   -0.1800    0.6649    0.5833 C   0  0  0  0  0  0  0  0  0  0  0  0
    0.3401    1.9888    1.4444 C   0  0  0  0  0  0  0  0  0  0  0  0
   -0.4873    2.8795    0.6589 C   0  0  0  0  0  0  0  0  0  0  0  0
   -0.0658    3.2456   -0.6643 C   0  0  0  0  0  0  0  0  0  0  0  0
   -0.2381    2.2101   -1.5110 C   0  0  0  0  0  0  0  0  0  0  0  0
   -0.8429    2.4275   -2.8819 C   0  0  0  0  0  0  0  0  0  0  0  0
    0.1055    1.8078   -3.8984 C   0  0  0  0  0  0  0  0  0  0  0  0
    0.1227    0.2701   -3.8162 C   0  0  2  0  0  0  0  0  0  0  0  0
   -0.2252   -0.1301   -2.1944 C   0  0  0  0  0  0  0  0  0  0  0  0
   -0.1662    0.7782   -1.1168 C   0  0  0  0  0  0  0  0  0  0  0  0
   -0.5395   -1.5526   -2.0680 C   0  0  0  0  0  0  0  0  0  0  0  0
   -0.5557   -2.4275   -3.0980 C   0  0  0  0  0  0  0  0  0  0  0  0
   -0.2259   -2.1743   -4.5672 C   0  0  1  0  0  0  0  0  0  0  0  0
   -0.4200   -0.7554   -5.1441 C   0  0  1  0  0  0  0  0  0  0  0  0
    0.3879   -1.2709   -6.5785 C   0  0  0  0  0  0  0  0  0  0  0  0
    1.7802   -1.3074   -6.0766 C   0  0  0  0  0  0  0  0  0  0  0  0
    1.4765   -2.2821   -4.8598 C   0  0  1  0  0  0  0  0  0  0  0  0
   -1.2898   -3.0444   -5.3358 C   0  0  0  0  0  0  0  0  0  0  0  0
    2.2266   -1.9473   -3.5554 C   0  0  0  0  0  0  0  0  0  0  0  0
   -1.7000    3.0777    1.0046 O   0  0  0  0  0  0  0  0  0  0  0  0
    1.9254   -3.5743   -5.2753 O   0  0  0  0  0  0  0  0  0  0  0  0
    1.1996    0.1375   -3.8883 H   0  0  0  0  0  0  0  0  0  0  0  0
   -1.4351   -0.4508   -5.4227 H   0  0  0  0  0  0  0  0  0  0  0  0
   -1.2501    0.5601    0.8278 H   0  0  0  0  0  0  0  0  0  0  0  0
    0.2582   -0.2745    0.9405 H   0  0  0  0  0  0  0  0  0  0  0  0
    0.0090    2.5068    2.3867 H   0  0  0  0  0  0  0  0  0  0  0  0
    1.4295    2.1335    1.5881 H   0  0  0  0  0  0  0  0  0  0  0  0
   -0.1682    4.2917   -0.8792 H   0  0  0  0  0  0  0  0  0  0  0  0
   -1.0436    3.4745   -3.1323 H   0  0  0  0  0  0  0  0  0  0  0  0
   -1.8397    1.9587   -2.8433 H   0  0  0  0  0  0  0  0  0  0  0  0
    0.0209    2.2139   -4.9050 H   0  0  0  0  0  0  0  0  0  0  0  0
    1.1078    2.1410   -3.5640 H   0  0  0  0  0  0  0  0  0  0  0  0
   -0.5982   -1.9709   -1.0653 H   0  0  0  0  0  0  0  0  0  0  0  0
   -0.6123   -3.4910   -2.8535 H   0  0  0  0  0  0  0  0  0  0  0  0
    0.1261   -1.0217   -7.6258 H   0  0  0  0  0  0  0  0  0  0  0  0
    0.2843   -2.3709   -6.7907 H   0  0  0  0  0  0  0  0  0  0  0  0
    2.4618   -1.6489   -6.8729 H   0  0  0  0  0  0  0  0  0  0  0  0
    2.0171   -0.2718   -5.8335 H   0  0  0  0  0  0  0  0  0  0  0  0
   -1.3601   -2.9526   -6.4286 H   0  0  0  0  0  0  0  0  0  0  0  0
   -1.1890   -4.1059   -5.1171 H   0  0  0  0  0  0  0  0  0  0  0  0
   -2.2898   -2.6911   -5.0388 H   0  0  0  0  0  0  0  0  0  0  0  0
    2.7761   -2.7711   -3.1074 H   0  0  0  0  0  0  0  0  0  0  0  0
    2.7318   -0.9839   -3.4854 H   0  0  0  0  0  0  0  0  0  0  0  0
    1.5076   -1.8346   -2.7767 H   0  0  0  0  0  0  0  0  0  0  0  0
    2.5918   -3.8815   -4.6333 H   0  0  0  0  0  0  0  0  0  0  0  0
  1  2  1  0  0  0  0
  1 10  1  0  0  0  0
  1 24  1  0  0  0  0
  1 25  1  0  0  0  0
  2  3  1  0  0  0  0
  2 26  1  0  0  0  0
  2 27  1  0  0  0  0
  3  4  1  0  0  0  0
  3 20  2  0  0  0  0
  4  5  2  0  0  0  0
  4 28  1  0  0  0  0
  5  6  1  0  0  0  0
  5 10  1  0  0  0  0
  6  7  1  0  0  0  0
  6 29  1  0  0  0  0
  6 30  1  0  0  0  0
  7  8  1  0  0  0  0
  7 31  1  0  0  0  0
  7 32  1  0  0  0  0
  8  9  1  0  0  0  0
  8 14  1  0  0  0  0
  8 22  1  1  0  0  0
  9 10  2  0  0  0  0
  9 11  1  0  0  0  0
 11 12  2  0  0  0  0
 11 33  1  0  0  0  0
 12 13  1  0  0  0  0
 12 34  1  0  0  0  0
 13 14  1  0  0  0  0
 13 17  1  0  0  0  0
 13 18  1  6  0  0  0
 14 15  1  0  0  0  0
 14 23  1  1  0  0  0
 15 16  1  0  0  0  0
 15 35  1  0  0  0  0
 15 36  1  0  0  0  0
 16 17  1  0  0  0  0
 16 37  1  0  0  0  0
 16 38  1  0  0  0  0
 17 21  1  6  0  0  0
 17 19  1  0  0  0  0
 18 39  1  0  0  0  0
 18 40  1  0  0  0  0
 18 41  1  0  0  0  0
 19 42  1  0  0  0  0
 19 43  1  0  0  0  0
 19 44  1  0  0  0  0
 21 45  1  0  0  0  0
M  END
>  <DRUGBANK_ID>
DB02998

>  <SECONDARY_ACCESSION_NUMBERS>
EXPT02741

>  <COMMON_NAME>
Metribolone

>  <CAS_NUMBER>
965-93-5

>  <UNII>
2C323EGI97

>  <SYNONYMS>
17-beta-Hydroxy-17-methylestra-4,9,11-trien-3-one; 17alpha-Methyltrienolone; Methyltrienolone; Metribolona; Metribolone; Metribolonum

$$$$
