
 OpenBabel10282417203D

 36 36  0  0  0  0  0  0  0  0999 V2000
    0.7071    0.0201    0.0515 C   0  0  0  0  0  0  0  0  0  0  0  0
    0.4717    1.3820    0.6666 C   0  0  0  0  0  0  0  0  0  0  0  0
   -0.2251    2.2234    0.0964 O   0  0  0  0  0  0  0  0  0  0  0  0
    0.9661    1.6541    1.9240 N   0  0  0  0  0  0  0  0  0  0  0  0
    1.8255    0.8573    2.7327 C   0  0  0  0  0  0  0  0  0  0  0  0
    1.4885    0.6136    4.1140 C   0  0  0  0  0  0  0  0  0  0  0  0
    2.2826   -0.2221    4.9927 C   0  0  0  0  0  0  0  0  0  0  0  0
    3.4426   -0.8448    4.3038 C   0  0  0  0  0  0  0  0  0  0  0  0
    3.8651   -0.5173    2.9619 C   0  0  0  0  0  0  0  0  0  0  0  0
    3.0563    0.3680    2.2227 C   0  0  0  0  0  0  0  0  0  0  0  0
    3.9242    1.4026    0.4059 I   0  0  0  0  0  0  0  0  0  0  0  0
    5.1636   -1.0273    2.3990 C   0  0  0  0  0  0  0  0  0  0  0  0
    6.2165   -1.2491    3.0027 O   0  0  0  0  0  0  0  0  0  0  0  0
    5.1742   -1.2680    1.0886 O   0  0  0  0  0  0  0  0  0  0  0  0
    4.6920   -2.8260    4.9917 I   0  0  0  0  0  0  0  0  0  0  0  0
    1.8638   -0.1903    6.5498 C   0  0  0  0  0  0  0  0  0  0  0  0
    0.8736    0.4029    6.9757 O   0  0  0  0  0  0  0  0  0  0  0  0
    2.6115   -0.6826    7.5972 N   0  0  0  0  0  0  0  0  0  0  0  0
    3.9226   -1.1834    7.5008 C   0  0  0  0  0  0  0  0  0  0  0  0
    5.1991   -0.5449    7.9964 C   0  0  0  0  0  0  0  0  0  0  0  0
    6.0869   -1.2272    8.5075 O   0  0  0  0  0  0  0  0  0  0  0  0
    5.4614    0.7504    7.6340 N   0  0  0  0  0  0  0  0  0  0  0  0
    4.6714    1.6527    6.8256 C   0  0  0  0  0  0  0  0  0  0  0  0
   -0.4939    1.5016    4.6775 I   0  0  0  0  0  0  0  0  0  0  0  0
    0.2422   -0.0233   -0.9378 H   0  0  0  0  0  0  0  0  0  0  0  0
    0.3041   -0.7656    0.6929 H   0  0  0  0  0  0  0  0  0  0  0  0
    1.7542   -0.1925   -0.1177 H   0  0  0  0  0  0  0  0  0  0  0  0
    0.4685    2.4273    2.3636 H   0  0  0  0  0  0  0  0  0  0  0  0
    6.1253   -1.4867    0.9496 H   0  0  0  0  0  0  0  0  0  0  0  0
    2.2148   -0.5823    8.5283 H   0  0  0  0  0  0  0  0  0  0  0  0
    3.8813   -2.2616    7.6719 H   0  0  0  0  0  0  0  0  0  0  0  0
    4.0880   -0.9665    6.4754 H   0  0  0  0  0  0  0  0  0  0  0  0
    6.3674    1.0715    7.9487 H   0  0  0  0  0  0  0  0  0  0  0  0
    4.2444    2.4186    7.4709 H   0  0  0  0  0  0  0  0  0  0  0  0
    5.2961    2.0946    6.0457 H   0  0  0  0  0  0  0  0  0  0  0  0
    3.8652    1.1532    6.3166 H   0  0  0  0  0  0  0  0  0  0  0  0
  1  2  1  0  0  0  0
  1 25  1  0  0  0  0
  1 26  1  0  0  0  0
  1 27  1  0  0  0  0
  2  3  2  0  0  0  0
  2  4  1  0  0  0  0
  4  5  1  0  0  0  0
  4 28  1  0  0  0  0
  5  6  2  0  0  0  0
  5 10  1  0  0  0  0
  6  7  1  0  0  0  0
  6 24  1  0  0  0  0
  7  8  2  0  0  0  0
  7 16  1  0  0  0  0
  8  9  1  0  0  0  0
  8 15  1  0  0  0  0
  9 10  2  0  0  0  0
  9 12  1  0  0  0  0
 10 11  1  0  0  0  0
 12 13  2  0  0  0  0
 12 14  1  0  0  0  0
 14 29  1  0  0  0  0
 16 17  2  0  0  0  0
 16 18  1  0  0  0  0
 18 19  1  0  0  0  0
 18 30  1  0  0  0  0
 19 20  1  0  0  0  0
 19 31  1  0  0  0  0
 19 32  1  0  0  0  0
 20 21  2  0  0  0  0
 20 22  1  0  0  0  0
 22 23  1  0  0  0  0
 22 33  1  0  0  0  0
 23 34  1  0  0  0  0
 23 35  1  0  0  0  0
 23 36  1  0  0  0  0
M  END
>  <DRUGBANK_ID>
DB13701

>  <COMMON_NAME>
Ioglicic acid

>  <CAS_NUMBER>
49755-67-1

>  <UNII>
3LGR5S8101

>  <SYNONYMS>
Ioglicic acid

$$$$
