
 OpenBabel10282417103D

 53 53  0  0  1  0  0  0  0  0999 V2000
    1.3355   -0.0960    0.3191 O   0  0  0  0  0  0  0  0  0  0  0  0
    2.6946   -0.0170    0.1231 C   0  0  0  0  0  0  0  0  0  0  0  0
    3.2437    0.9004   -0.4893 O   0  0  0  0  0  0  0  0  0  0  0  0
   -0.3892    0.8590    1.5196 C   0  0  3  0  0  0  0  0  0  0  0  0
   -1.0471   -0.4074    0.6630 C   0  0  0  0  0  0  0  0  0  0  0  0
   -0.2530    1.0404    2.8363 C   0  0  3  0  0  0  0  0  0  0  0  0
   -0.3419   -0.9297    2.5539 C   0  0  0  0  0  0  0  0  0  0  0  0
    0.2031   -1.0925    0.8970 C   0  0  2  0  0  0  0  0  0  0  0  0
   -1.3738    1.6079    2.2581 N   0  3  0  0  0  0  0  0  0  0  0  0
   -0.1533    1.1686   -2.3654 Br  0  5  0  0  0  0  0  0  0  0  0  0
   -0.1060    1.2353    4.2388 C   0  0  0  0  0  0  0  0  0  0  0  0
    0.8553    0.6231    3.2986 C   0  0  0  0  0  0  0  0  0  0  0  0
   -2.5842    1.0923    2.8628 C   0  0  0  0  0  0  0  0  0  0  0  0
   -1.1928    3.0914    2.1262 C   0  0  0  0  0  0  0  0  0  0  0  0
    3.5581   -1.1011    0.7538 C   0  0  0  0  0  0  0  0  0  0  0  0
    3.4375   -1.1907    2.2570 C   0  0  0  0  0  0  0  0  0  0  0  0
    3.1755   -2.4038    0.1003 C   0  0  0  0  0  0  0  0  0  0  0  0
    2.1311   -1.8200    2.5911 C   0  0  0  0  0  0  0  0  0  0  0  0
    1.4063   -3.1149    2.1825 C   0  0  0  0  0  0  0  0  0  0  0  0
    3.4521   -2.5248   -1.3531 C   0  0  0  0  0  0  0  0  0  0  0  0
    4.9167   -2.3131   -1.5248 C   0  0  0  0  0  0  0  0  0  0  0  0
   -0.2181    1.5357    0.6968 H   0  0  0  0  0  0  0  0  0  0  0  0
   -1.1899   -0.4643   -0.4161 H   0  0  0  0  0  0  0  0  0  0  0  0
   -1.9100   -0.9993    1.0355 H   0  0  0  0  0  0  0  0  0  0  0  0
    0.8401    1.8598    2.1988 H   0  0  0  0  0  0  0  0  0  0  0  0
   -1.3428   -1.3065    2.7489 H   0  0  0  0  0  0  0  0  0  0  0  0
    0.1510   -1.4592    3.3666 H   0  0  0  0  0  0  0  0  0  0  0  0
    0.2469   -2.0069    0.3038 H   0  0  0  0  0  0  0  0  0  0  0  0
    0.2105    2.2435    4.5672 H   0  0  0  0  0  0  0  0  0  0  0  0
   -0.5473    0.5356    4.9228 H   0  0  0  0  0  0  0  0  0  0  0  0
    1.4839    1.1175    4.0824 H   0  0  0  0  0  0  0  0  0  0  0  0
    1.6864    0.0028    3.4147 H   0  0  0  0  0  0  0  0  0  0  0  0
   -2.5672    1.3637    3.9215 H   0  0  0  0  0  0  0  0  0  0  0  0
   -3.3944    1.5394    2.3135 H   0  0  0  0  0  0  0  0  0  0  0  0
   -2.6354    0.0132    2.7784 H   0  0  0  0  0  0  0  0  0  0  0  0
   -0.2665    3.3403    1.5778 H   0  0  0  0  0  0  0  0  0  0  0  0
   -2.0481    3.4454    1.5722 H   0  0  0  0  0  0  0  0  0  0  0  0
   -1.1157    3.5144    3.1309 H   0  0  0  0  0  0  0  0  0  0  0  0
    4.6064   -0.8281    0.6149 H   0  0  0  0  0  0  0  0  0  0  0  0
    4.1419   -1.7810    2.8191 H   0  0  0  0  0  0  0  0  0  0  0  0
    3.5078   -0.1429    2.6380 H   0  0  0  0  0  0  0  0  0  0  0  0
    3.5531   -3.2465    0.6928 H   0  0  0  0  0  0  0  0  0  0  0  0
    2.1074   -2.4490    0.0183 H   0  0  0  0  0  0  0  0  0  0  0  0
    1.9825   -1.7445    3.6643 H   0  0  0  0  0  0  0  0  0  0  0  0
    1.6693   -0.9935    2.1178 H   0  0  0  0  0  0  0  0  0  0  0  0
    1.8140   -3.8728    2.8127 H   0  0  0  0  0  0  0  0  0  0  0  0
    0.3127   -3.1097    2.3408 H   0  0  0  0  0  0  0  0  0  0  0  0
    1.3936   -3.4768    1.1606 H   0  0  0  0  0  0  0  0  0  0  0  0
    3.1100   -3.5152   -1.6732 H   0  0  0  0  0  0  0  0  0  0  0  0
    2.8463   -1.7862   -1.8933 H   0  0  0  0  0  0  0  0  0  0  0  0
    5.4519   -3.0400   -0.9052 H   0  0  0  0  0  0  0  0  0  0  0  0
    5.1728   -2.4054   -2.5708 H   0  0  0  0  0  0  0  0  0  0  0  0
    5.2020   -1.3111   -1.1945 H   0  0  0  0  0  0  0  0  0  0  0  0
  2  1  1  0  0  0  0
  2  3  2  0  0  0  0
  2 15  1  0  0  0  0
  4  9  1  0  0  0  0
  4 12  1  0  0  0  0
  4 22  1  0  0  0  0
  5  4  1  0  0  0  0
  5 23  1  0  0  0  0
  5 24  1  0  0  0  0
  6  9  1  0  0  0  0
  6 11  1  0  0  0  0
  6 25  1  0  0  0  0
  7  6  1  0  0  0  0
  7  8  1  0  0  0  0
  7 26  1  0  0  0  0
  7 27  1  0  0  0  0
  8  1  1  0  0  0  0
  8  5  1  0  0  0  0
  8 28  1  6  0  0  0
  9 13  1  0  0  0  0
  9 14  1  0  0  0  0
 11 29  1  0  0  0  0
 11 30  1  0  0  0  0
 12 11  1  0  0  0  0
 12 31  1  0  0  0  0
 12 32  1  0  0  0  0
 13 33  1  0  0  0  0
 13 34  1  0  0  0  0
 13 35  1  0  0  0  0
 14 36  1  0  0  0  0
 14 37  1  0  0  0  0
 14 38  1  0  0  0  0
 15 16  1  0  0  0  0
 15 17  1  0  0  0  0
 15 39  1  0  0  0  0
 16 18  1  0  0  0  0
 16 40  1  0  0  0  0
 16 41  1  0  0  0  0
 17 20  1  0  0  0  0
 17 42  1  0  0  0  0
 17 43  1  0  0  0  0
 18 19  1  0  0  0  0
 18 44  1  0  0  0  0
 18 45  1  0  0  0  0
 19 46  1  0  0  0  0
 19 47  1  0  0  0  0
 19 48  1  0  0  0  0
 20 21  1  0  0  0  0
 20 49  1  0  0  0  0
 20 50  1  0  0  0  0
 21 51  1  0  0  0  0
 21 52  1  0  0  0  0
 21 53  1  0  0  0  0
M  CHG  2   9   1  10  -1
M  END
>  <DRUGBANK_ID>
DB00517

>  <SECONDARY_ACCESSION_NUMBERS>
APRD00800

>  <COMMON_NAME>
Anisotropine methylbromide

>  <CAS_NUMBER>
80-50-2

>  <UNII>
62M960DHIL

>  <SYNONYMS>
8-Methyl-3-(2-propylpentanoyloxy)tropinium bromide; 8-Methyltropinium bromide 2-propylpentanoate; 8-Methyltropinium bromide 2-propylvalerate; Anisotropine methobromide; Anisotropine methylbromide; endo-8,8-Dimethyl-3-((1-oxo-2-propylpentyl)oxy)-8-azoniabicyclo(3.2.1)octane bromide; MÃ©thylbromure d'octatropine; Methyloctatropine bromide; Metilbromuro de octatropina; Octatropine methylbromide; Octatropini methylbromidum

$$$$
