3G4
 OpenBabel10282417163D

 48 49  0  0  0  0  0  0  0  0999 V2000
    1.8741   -0.8606    0.1554 Cl  0  0  0  0  0  0  0  0  0  0  0  0
    0.1493   -0.6241    0.1984 C   0  0  0  0  0  0  0  0  0  0  0  0
   -0.6737   -1.6908    0.0027 C   0  0  0  0  0  0  0  0  0  0  0  0
   -2.0471   -1.4459   -0.0422 C   0  0  0  0  0  0  0  0  0  0  0  0
   -2.5812   -0.1248   -0.0595 C   0  0  0  0  0  0  0  0  0  0  0  0
   -0.4233    0.6416    0.4039 C   0  0  0  0  0  0  0  0  0  0  0  0
    0.4685    1.6607    0.8835 C   0  0  0  0  0  0  0  0  0  0  0  0
   -1.7332    0.9757    0.0858 C   0  0  0  0  0  0  0  0  0  0  0  0
   -2.3612    2.7109   -0.1352 S   0  0  0  0  0  0  0  0  0  0  0  0
   -3.1035    2.6905   -1.3658 O   0  0  0  0  0  0  0  0  0  0  0  0
   -3.0818    2.9798    1.1165 O   0  0  0  0  0  0  0  0  0  0  0  0
   -1.2604    4.0488   -0.3143 N   0  0  0  0  0  0  0  0  0  0  0  0
    0.1657    4.0268   -0.5063 C   0  0  0  0  0  0  0  0  0  0  0  0
    0.9060    4.5321    0.5304 N   0  0  0  0  0  0  0  0  0  0  0  0
    0.7481    3.2505   -1.4995 C   0  0  0  0  0  0  0  0  0  0  0  0
    2.0855    2.8071   -1.3305 C   0  0  0  0  0  0  0  0  0  0  0  0
    2.7847    3.1475   -0.1704 C   0  0  0  0  0  0  0  0  0  0  0  0
    2.2123    4.0965    0.6788 C   0  0  0  0  0  0  0  0  0  0  0  0
    3.1380    4.7536    1.6831 C   0  0  0  0  0  0  0  0  0  0  0  0
    3.2451    6.2330    1.3784 C   0  0  0  0  0  0  0  0  0  0  0  0
    3.0029    7.0473    2.2754 O   0  0  0  0  0  0  0  0  0  0  0  0
    3.6303    6.6294    0.0889 N   0  0  0  0  0  0  0  0  0  0  0  0
    4.0854    5.7554   -0.9985 C   0  0  0  0  0  0  0  0  0  0  0  0
    3.1251    5.7389   -2.1860 C   0  0  0  0  0  0  0  0  0  0  0  0
    3.5601    8.0460   -0.2327 C   0  0  0  0  0  0  0  0  0  0  0  0
    2.1432    8.5947   -0.1573 C   0  0  0  0  0  0  0  0  0  0  0  0
   -0.2355   -2.6816   -0.0553 H   0  0  0  0  0  0  0  0  0  0  0  0
   -2.7036   -2.3091   -0.0741 H   0  0  0  0  0  0  0  0  0  0  0  0
   -3.6586    0.0069   -0.1346 H   0  0  0  0  0  0  0  0  0  0  0  0
    1.1679    1.5214    1.6906 H   0  0  0  0  0  0  0  0  0  0  0  0
    1.0349    1.6437   -0.0153 H   0  0  0  0  0  0  0  0  0  0  0  0
   -0.1194    2.5255    1.1200 H   0  0  0  0  0  0  0  0  0  0  0  0
   -1.5689    4.8598    0.2289 H   0  0  0  0  0  0  0  0  0  0  0  0
    0.1085    2.7323   -2.2020 H   0  0  0  0  0  0  0  0  0  0  0  0
    2.4581    1.9662   -1.9144 H   0  0  0  0  0  0  0  0  0  0  0  0
    3.7487    2.6890    0.0596 H   0  0  0  0  0  0  0  0  0  0  0  0
    2.7819    4.5980    2.7101 H   0  0  0  0  0  0  0  0  0  0  0  0
    4.1590    4.3398    1.6620 H   0  0  0  0  0  0  0  0  0  0  0  0
    5.0787    6.0780   -1.3173 H   0  0  0  0  0  0  0  0  0  0  0  0
    4.2780    4.7574   -0.6291 H   0  0  0  0  0  0  0  0  0  0  0  0
    3.1283    6.6954   -2.7119 H   0  0  0  0  0  0  0  0  0  0  0  0
    3.4043    4.9608   -2.9038 H   0  0  0  0  0  0  0  0  0  0  0  0
    2.0899    5.5739   -1.8804 H   0  0  0  0  0  0  0  0  0  0  0  0
    4.2296    8.5805    0.4455 H   0  0  0  0  0  0  0  0  0  0  0  0
    3.9429    8.1950   -1.2488 H   0  0  0  0  0  0  0  0  0  0  0  0
    1.7338    8.5270    0.8542 H   0  0  0  0  0  0  0  0  0  0  0  0
    2.1354    9.6484   -0.4459 H   0  0  0  0  0  0  0  0  0  0  0  0
    1.4671    8.0433   -0.8194 H   0  0  0  0  0  0  0  0  0  0  0  0
  1  2  1  0  0  0  0
  2  3  2  0  0  0  0
  2  6  1  0  0  0  0
  3  4  1  0  0  0  0
  3 27  1  0  0  0  0
  4  5  2  0  0  0  0
  4 28  1  0  0  0  0
  5  8  1  0  0  0  0
  5 29  1  0  0  0  0
  6  7  1  0  0  0  0
  6  8  2  0  0  0  0
  7 30  1  0  0  0  0
  7 31  1  0  0  0  0
  7 32  1  0  0  0  0
  8  9  1  0  0  0  0
  9 10  2  0  0  0  0
  9 11  2  0  0  0  0
  9 12  1  0  0  0  0
 12 13  1  0  0  0  0
 12 33  1  0  0  0  0
 13 14  2  0  0  0  0
 13 15  1  0  0  0  0
 14 18  1  0  0  0  0
 15 16  2  0  0  0  0
 15 34  1  0  0  0  0
 16 17  1  0  0  0  0
 16 35  1  0  0  0  0
 17 18  2  0  0  0  0
 17 36  1  0  0  0  0
 18 19  1  0  0  0  0
 19 20  1  0  0  0  0
 19 37  1  0  0  0  0
 19 38  1  0  0  0  0
 20 21  2  0  0  0  0
 20 22  1  0  0  0  0
 22 23  1  0  0  0  0
 22 25  1  0  0  0  0
 23 24  1  0  0  0  0
 23 39  1  0  0  0  0
 23 40  1  0  0  0  0
 24 41  1  0  0  0  0
 24 42  1  0  0  0  0
 24 43  1  0  0  0  0
 25 26  1  0  0  0  0
 25 44  1  0  0  0  0
 25 45  1  0  0  0  0
 26 46  1  0  0  0  0
 26 47  1  0  0  0  0
 26 48  1  0  0  0  0
M  END
>  <DRUGBANK_ID>
DB07056

>  <COMMON_NAME>
2-(6-{[(3-chloro-2-methylphenyl)sulfonyl]amino}pyridin-2-yl)-N,N-diethylacetamide

$$$$
