
 OpenBabel10282417103D

 56 59  0  0  0  0  0  0  0  0999 V2000
    3.8035   -1.0457   -0.1586 C   0  0  2  0  0  0  0  0  0  0  0  0
    1.2754   -0.9079   -0.1280 C   0  0  0  0  0  0  0  0  0  0  0  0
    4.3789   -0.1859   -1.4131 C   0  0  2  0  0  0  0  0  0  0  0  0
    5.6580   -2.5632   -0.1494 C   0  0  0  0  0  0  0  0  0  0  0  0
    2.3958   -1.5735    0.1644 C   0  0  0  0  0  0  0  0  0  0  0  0
    4.3032   -2.2918   -0.6322 C   0  0  0  0  0  0  0  0  0  0  0  0
    6.4108   -2.1852   -1.1737 C   0  0  0  0  0  0  0  0  0  0  0  0
   -0.0339   -1.5809    0.0774 C   0  0  0  0  0  0  0  0  0  0  0  0
    1.3665    0.4914   -0.6175 C   0  0  2  0  0  0  0  0  0  0  0  0
    5.6118   -1.6214   -2.3752 C   0  0  1  0  0  0  0  0  0  0  0  0
   -1.2611   -0.7754    0.0345 C   0  0  0  0  0  0  0  0  0  0  0  0
    2.9981    0.8788   -0.5773 C   0  0  2  0  0  0  0  0  0  0  0  0
   -1.2031    0.6196    0.0922 C   0  0  0  0  0  0  0  0  0  0  0  0
    0.1696    1.3558    0.1552 C   0  0  2  0  0  0  0  0  0  0  0  0
    6.3801   -2.3323    1.1299 C   0  0  0  0  0  0  0  0  0  0  0  0
    6.0899   -3.1258   -3.2968 N   0  0  0  0  0  0  0  0  0  0  0  0
    3.7277   -2.7789   -1.6237 O   0  0  0  0  0  0  0  0  0  0  0  0
   -0.1575   -2.7956    0.2180 O   0  0  0  0  0  0  0  0  0  0  0  0
   -2.5045   -1.4332   -0.0787 C   0  0  0  0  0  0  0  0  0  0  0  0
    4.2392   -0.4788    1.0772 O   0  0  0  0  0  0  0  0  0  0  0  0
    5.7949   -1.6655    2.1490 N   0  0  0  0  0  0  0  0  0  0  0  0
    2.3139   -2.8168    0.7956 O   0  0  0  0  0  0  0  0  0  0  0  0
    7.7687   -2.5475   -1.2296 O   0  0  0  0  0  0  0  0  0  0  0  0
    3.0259    2.3245   -0.7047 O   0  0  0  0  0  0  0  0  0  0  0  0
    7.5492   -2.6854    1.2600 O   0  0  0  0  0  0  0  0  0  0  0  0
   -2.4446    1.3123    0.0816 C   0  0  0  0  0  0  0  0  0  0  0  0
   -0.0957    2.7267   -0.5067 C   0  0  0  0  0  0  0  0  0  0  0  0
   -2.6266   -2.7978   -0.1574 O   0  0  0  0  0  0  0  0  0  0  0  0
   -3.6664    0.6616   -0.0693 C   0  0  0  0  0  0  0  0  0  0  0  0
   -3.6950   -0.7181   -0.1451 C   0  0  0  0  0  0  0  0  0  0  0  0
    5.9733   -3.4395   -4.7569 C   0  0  0  0  0  0  0  0  0  0  0  0
    6.8625   -4.4825   -2.8588 C   0  0  0  0  0  0  0  0  0  0  0  0
    1.1092    0.5940   -1.6684 H   0  0  0  0  0  0  0  0  0  0  0  0
    3.9817    0.2015   -2.3501 H   0  0  0  0  0  0  0  0  0  0  0  0
    5.9984   -0.9721   -3.1559 H   0  0  0  0  0  0  0  0  0  0  0  0
    3.1192    0.9493    0.5364 H   0  0  0  0  0  0  0  0  0  0  0  0
    0.3695    1.4791    1.2365 H   0  0  0  0  0  0  0  0  0  0  0  0
    5.0647    0.0383    0.9589 H   0  0  0  0  0  0  0  0  0  0  0  0
    6.3243   -1.4037    2.9672 H   0  0  0  0  0  0  0  0  0  0  0  0
    4.8238   -1.3463    2.1394 H   0  0  0  0  0  0  0  0  0  0  0  0
    3.1398   -3.3228    0.7531 H   0  0  0  0  0  0  0  0  0  0  0  0
    7.9567   -3.1334   -0.4415 H   0  0  0  0  0  0  0  0  0  0  0  0
    2.3757    2.6512   -0.0282 H   0  0  0  0  0  0  0  0  0  0  0  0
   -2.5284    2.3922    0.1558 H   0  0  0  0  0  0  0  0  0  0  0  0
   -0.8989    3.2940   -0.0179 H   0  0  0  0  0  0  0  0  0  0  0  0
    0.7251    3.4324   -0.4907 H   0  0  0  0  0  0  0  0  0  0  0  0
   -0.4043    2.5570   -1.5451 H   0  0  0  0  0  0  0  0  0  0  0  0
   -1.7243   -3.1849   -0.0590 H   0  0  0  0  0  0  0  0  0  0  0  0
   -4.5816    1.2462   -0.1314 H   0  0  0  0  0  0  0  0  0  0  0  0
   -4.6418   -1.2356   -0.2519 H   0  0  0  0  0  0  0  0  0  0  0  0
    6.8370   -4.0411   -5.1742 H   0  0  0  0  0  0  0  0  0  0  0  0
    5.1770   -4.1849   -4.8870 H   0  0  0  0  0  0  0  0  0  0  0  0
    5.9378   -2.6289   -5.4751 H   0  0  0  0  0  0  0  0  0  0  0  0
    7.5404   -4.9085   -3.6652 H   0  0  0  0  0  0  0  0  0  0  0  0
    7.5852   -4.5681   -2.0316 H   0  0  0  0  0  0  0  0  0  0  0  0
    6.1400   -5.3089   -2.7751 H   0  0  0  0  0  0  0  0  0  0  0  0
  1 20  1  6  0  0  0
  3  1  1  0  0  0  0
  3 34  1  6  0  0  0
  5  1  1  0  0  0  0
  5  2  2  0  0  0  0
  6  1  1  0  0  0  0
  6  4  1  0  0  0  0
  7  4  2  0  0  0  0
  8  2  1  0  0  0  0
  9  2  1  0  0  0  0
  9 33  1  6  0  0  0
 10  3  1  0  0  0  0
 10  7  1  0  0  0  0
 10 35  1  6  0  0  0
 10 16  1  0  0  0  0
 11  8  1  0  0  0  0
 12  3  1  0  0  0  0
 12  9  1  0  0  0  0
 12 36  1  1  0  0  0
 12 24  1  0  0  0  0
 13 11  1  0  0  0  0
 14  9  1  0  0  0  0
 14 13  1  0  0  0  0
 14 27  1  0  0  0  0
 14 37  1  1  0  0  0
 15  4  1  0  0  0  0
 17  6  2  0  0  0  0
 18  8  2  0  0  0  0
 19 11  2  0  0  0  0
 20 38  1  0  0  0  0
 21 15  1  0  0  0  0
 21 39  1  0  0  0  0
 21 40  1  0  0  0  0
 22  5  1  0  0  0  0
 22 41  1  0  0  0  0
 23  7  1  0  0  0  0
 23 42  1  0  0  0  0
 24 43  1  0  0  0  0
 25 15  2  0  0  0  0
 26 13  2  0  0  0  0
 26 44  1  0  0  0  0
 27 45  1  0  0  0  0
 27 46  1  0  0  0  0
 27 47  1  0  0  0  0
 28 19  1  0  0  0  0
 28 48  1  0  0  0  0
 29 26  1  0  0  0  0
 29 49  1  0  0  0  0
 30 19  1  0  0  0  0
 30 29  2  0  0  0  0
 30 50  1  0  0  0  0
 31 16  1  0  0  0  0
 31 51  1  0  0  0  0
 31 52  1  0  0  0  0
 31 53  1  0  0  0  0
 32 16  1  0  0  0  0
 32 54  1  0  0  0  0
 32 55  1  0  0  0  0
 32 56  1  0  0  0  0
M  END
>  <DRUGBANK_ID>
DB00254

>  <SECONDARY_ACCESSION_NUMBERS>
APRD00597

>  <COMMON_NAME>
Doxycycline

>  <CAS_NUMBER>
564-25-0

>  <UNII>
334895S862

>  <SYNONYMS>
5-hydroxy-α-6-deoxytetracycline; 6-alpha-deoxy-5-oxytetracycline; 6alpha-deoxy-5-oxytetracycline; 6α-deoxy-5-oxytetracycline; Anhydrous doxycycline; Doxiciclina; Doxycyclin; Doxycycline; Doxycycline (anhydrous); Doxycycline anhydrous; Doxycyclinum

$$$$
