11X
 OpenBabel10282417163D

 26 27  0  0  0  0  0  0  0  0999 V2000
   -1.3535   -0.0646    0.0125 N   0  0  0  0  0  0  0  0  0  0  0  0
    1.0464   -5.4973    0.0891 C   0  0  0  0  0  0  0  0  0  0  0  0
    0.3224   -6.6698   -0.1390 C   0  0  0  0  0  0  0  0  0  0  0  0
    0.6467   -4.5680    1.0604 C   0  0  0  0  0  0  0  0  0  0  0  0
   -0.4800   -4.8770    1.8321 C   0  0  0  0  0  0  0  0  0  0  0  0
   -0.8298   -6.9306    0.5938 C   0  0  0  0  0  0  0  0  0  0  0  0
   -1.2281   -6.0353    1.5860 C   0  0  0  0  0  0  0  0  0  0  0  0
   -0.6082   -1.1974    0.0360 C   0  0  0  0  0  0  0  0  0  0  0  0
    1.4373    0.0157    0.0349 C   0  0  0  0  0  0  0  0  0  0  0  0
    0.6973    1.1977    0.0139 C   0  0  0  0  0  0  0  0  0  0  0  0
   -0.6836    1.1067    0.0051 C   0  0  0  0  0  0  0  0  0  0  0  0
    1.5429   -2.5259    0.0226 C   0  0  0  0  0  0  0  0  0  0  0  0
    0.7832   -1.2227    0.0587 C   0  0  0  0  0  0  0  0  0  0  0  0
    1.3072   -3.3498    1.2083 N   0  0  0  0  0  0  0  0  0  0  0  0
    1.9495   -5.3189   -0.4874 H   0  0  0  0  0  0  0  0  0  0  0  0
    0.6581   -7.3736   -0.8972 H   0  0  0  0  0  0  0  0  0  0  0  0
   -0.8082   -4.2043    2.6214 H   0  0  0  0  0  0  0  0  0  0  0  0
   -1.4106   -7.8275    0.3982 H   0  0  0  0  0  0  0  0  0  0  0  0
   -2.1300   -6.2352    2.1593 H   0  0  0  0  0  0  0  0  0  0  0  0
   -1.1860   -2.1183    0.0259 H   0  0  0  0  0  0  0  0  0  0  0  0
    2.5232    0.0713    0.0204 H   0  0  0  0  0  0  0  0  0  0  0  0
    1.1848    2.1666    0.0001 H   0  0  0  0  0  0  0  0  0  0  0  0
   -1.3046    1.9984   -0.0113 H   0  0  0  0  0  0  0  0  0  0  0  0
    1.2913   -3.0357   -0.9164 H   0  0  0  0  0  0  0  0  0  0  0  0
    2.6183   -2.3196   -0.0207 H   0  0  0  0  0  0  0  0  0  0  0  0
    1.1259   -2.8387    2.0665 H   0  0  0  0  0  0  0  0  0  0  0  0
  1  8  2  0  0  0  0
  1 11  1  0  0  0  0
  2  3  2  0  0  0  0
  2  4  1  0  0  0  0
  2 15  1  0  0  0  0
  3  6  1  0  0  0  0
  3 16  1  0  0  0  0
  4  5  2  0  0  0  0
  4 14  1  0  0  0  0
  5  7  1  0  0  0  0
  5 17  1  0  0  0  0
  6  7  2  0  0  0  0
  6 18  1  0  0  0  0
  7 19  1  0  0  0  0
  8 13  1  0  0  0  0
  8 20  1  0  0  0  0
  9 10  1  0  0  0  0
  9 13  2  0  0  0  0
  9 21  1  0  0  0  0
 10 11  2  0  0  0  0
 10 22  1  0  0  0  0
 11 23  1  0  0  0  0
 12 13  1  0  0  0  0
 12 14  1  0  0  0  0
 12 24  1  0  0  0  0
 12 25  1  0  0  0  0
 14 26  1  0  0  0  0
M  END
>  <DRUGBANK_ID>
DB06851

>  <COMMON_NAME>
N-(pyridin-3-ylmethyl)aniline

>  <UNII>
24B88BKX5U

$$$$
