
 OpenBabel10282417173D

 34 35  0  0  0  0  0  0  0  0999 V2000
    1.3421   -0.2185    0.0231 C   0  0  0  0  0  0  0  0  0  0  0  0
    0.4604   -1.3019    0.0336 C   0  0  0  0  0  0  0  0  0  0  0  0
    0.8446    1.0834    0.0056 C   0  0  0  0  0  0  0  0  0  0  0  0
   -5.8953    4.4529   -4.1354 C   0  0  0  0  0  0  0  0  0  0  0  0
   -0.9238   -1.0886    0.0165 C   0  0  0  0  0  0  0  0  0  0  0  0
   -0.5340    1.3033    0.0324 C   0  0  0  0  0  0  0  0  0  0  0  0
   -4.5101    4.6556   -4.7532 C   0  0  0  0  0  0  0  0  0  0  0  0
   -6.2588    2.9858   -3.8958 C   0  0  0  0  0  0  0  0  0  0  0  0
   -5.5682    1.7150   -1.8181 C   0  0  0  0  0  0  0  0  0  0  0  0
   -1.4177    0.2186    0.0015 C   0  0  0  0  0  0  0  0  0  0  0  0
   -4.6501    1.1615   -1.0144 C   0  0  0  0  0  0  0  0  0  0  0  0
   -4.3849    4.0679   -6.1359 C   0  0  0  0  0  0  0  0  0  0  0  0
   -2.8387    0.4912   -0.2406 C   0  0  0  0  0  0  0  0  0  0  0  0
   -4.9621    0.4237    0.2403 C   0  0  0  0  0  0  0  0  0  0  0  0
   -5.3038    2.3842   -2.9912 N   0  0  0  0  0  0  0  0  0  0  0  0
   -3.2966    1.1857   -1.2329 N   0  0  0  0  0  0  0  0  0  0  0  0
   -4.1912    4.6943   -7.1639 O   0  0  0  0  0  0  0  0  0  0  0  0
   -4.5013    2.7276   -6.1613 O   0  0  0  0  0  0  0  0  0  0  0  0
   -6.0299    0.2334    0.7774 O   0  0  0  0  0  0  0  0  0  0  0  0
   -3.7249    0.0001    0.6565 O   0  0  0  0  0  0  0  0  0  0  0  0
    2.4173   -0.3884    0.0264 H   0  0  0  0  0  0  0  0  0  0  0  0
    0.8594   -2.3140    0.0230 H   0  0  0  0  0  0  0  0  0  0  0  0
    1.5293    1.9264   -0.0521 H   0  0  0  0  0  0  0  0  0  0  0  0
   -6.6542    4.9113   -4.7814 H   0  0  0  0  0  0  0  0  0  0  0  0
   -5.9345    4.9882   -3.1767 H   0  0  0  0  0  0  0  0  0  0  0  0
   -1.5955   -1.9415   -0.0242 H   0  0  0  0  0  0  0  0  0  0  0  0
   -0.9155    2.3211    0.0588 H   0  0  0  0  0  0  0  0  0  0  0  0
   -4.3146    5.7321   -4.8328 H   0  0  0  0  0  0  0  0  0  0  0  0
   -3.7149    4.2523   -4.1180 H   0  0  0  0  0  0  0  0  0  0  0  0
   -6.2945    2.4270   -4.8340 H   0  0  0  0  0  0  0  0  0  0  0  0
   -7.2742    2.9244   -3.4913 H   0  0  0  0  0  0  0  0  0  0  0  0
   -6.6274    1.6649   -1.5772 H   0  0  0  0  0  0  0  0  0  0  0  0
   -4.3242    2.3494   -3.2803 H   0  0  0  0  0  0  0  0  0  0  0  0
   -4.5058    2.4628   -7.1042 H   0  0  0  0  0  0  0  0  0  0  0  0
  1 21  1  0  0  0  0
  2  1  2  0  0  0  0
  2 22  1  0  0  0  0
  3  1  1  0  0  0  0
  3 23  1  0  0  0  0
  4 24  1  0  0  0  0
  4 25  1  0  0  0  0
  5  2  1  0  0  0  0
  5 26  1  0  0  0  0
  6  3  2  0  0  0  0
  6 27  1  0  0  0  0
  7  4  1  0  0  0  0
  7 28  1  0  0  0  0
  7 29  1  0  0  0  0
  8  4  1  0  0  0  0
  8 30  1  0  0  0  0
  8 31  1  0  0  0  0
  9 15  1  0  0  0  0
  9 32  1  0  0  0  0
 10  5  2  0  0  0  0
 10  6  1  0  0  0  0
 11  9  2  3  0  0  0
 12  7  1  0  0  0  0
 13 10  1  0  0  0  0
 14 11  1  0  0  0  0
 15  8  1  0  0  0  0
 15 33  1  0  0  0  0
 16 11  1  0  0  0  0
 16 13  2  0  0  0  0
 17 12  2  0  0  0  0
 18 12  1  0  0  0  0
 18 34  1  0  0  0  0
 19 14  2  0  0  0  0
 20 13  1  0  0  0  0
 20 14  1  0  0  0  0
M  END
>  <DRUGBANK_ID>
DB08396

>  <COMMON_NAME>
4-{[(Z)-(5-oxo-2-phenyl-1,3-oxazol-4(5H)-ylidene)methyl]amino}butanoic acid

$$$$
