
 OpenBabel10282417143D

 28 29  0  0  1  0  0  0  0  0999 V2000
   -3.0268    0.0596    0.2144 Cl  0  0  0  0  0  0  0  0  0  0  0  0
    2.5644    0.8387    0.0139 Cl  0  0  0  0  0  0  0  0  0  0  0  0
   -0.0903    1.9089    0.1168 O   0  0  0  0  0  0  0  0  0  0  0  0
   -2.8371    3.3859   -1.9765 N   0  0  0  0  0  0  0  0  0  0  0  0
   -1.7840    1.3839   -2.0640 N   0  0  0  0  0  0  0  0  0  0  0  0
   -1.2320    2.7381   -0.0436 C   0  0  3  0  0  0  0  0  0  0  0  0
   -1.9621    2.4897   -1.3973 C   0  0  0  0  0  0  0  0  0  0  0  0
   -3.4518    2.7329   -3.1207 C   0  0  0  0  0  0  0  0  0  0  0  0
   -2.7410    1.3832   -3.1786 C   0  0  0  0  0  0  0  0  0  0  0  0
   -2.0085    2.7162    1.2790 C   0  0  0  0  0  0  0  0  0  0  0  0
   -0.1812    0.5345    0.1054 C   0  0  0  0  0  0  0  0  0  0  0  0
   -1.3187   -0.3207    0.1214 C   0  0  0  0  0  0  0  0  0  0  0  0
    1.0897   -0.0831    0.0491 C   0  0  0  0  0  0  0  0  0  0  0  0
   -1.1560   -1.7072    0.0481 C   0  0  0  0  0  0  0  0  0  0  0  0
    1.2251   -1.4738    0.0146 C   0  0  0  0  0  0  0  0  0  0  0  0
    0.1001   -2.2840    0.0071 C   0  0  0  0  0  0  0  0  0  0  0  0
   -2.5324    4.3454   -2.0853 H   0  0  0  0  0  0  0  0  0  0  0  0
   -0.8642    3.7718   -0.1276 H   0  0  0  0  0  0  0  0  0  0  0  0
   -3.3428    3.2712   -4.0671 H   0  0  0  0  0  0  0  0  0  0  0  0
   -4.5145    2.5983   -2.9018 H   0  0  0  0  0  0  0  0  0  0  0  0
   -3.4530    0.5554   -3.0671 H   0  0  0  0  0  0  0  0  0  0  0  0
   -2.1898    1.2291   -4.1092 H   0  0  0  0  0  0  0  0  0  0  0  0
   -1.4290    3.2199    2.0616 H   0  0  0  0  0  0  0  0  0  0  0  0
   -3.0025    3.1572    1.2068 H   0  0  0  0  0  0  0  0  0  0  0  0
   -2.1011    1.7200    1.7149 H   0  0  0  0  0  0  0  0  0  0  0  0
   -2.0373   -2.3440    0.0207 H   0  0  0  0  0  0  0  0  0  0  0  0
    2.2095   -1.9306   -0.0142 H   0  0  0  0  0  0  0  0  0  0  0  0
    0.1845   -3.3635   -0.0304 H   0  0  0  0  0  0  0  0  0  0  0  0
  1 12  1  0  0  0  0
  2 13  1  0  0  0  0
  3  6  1  0  0  0  0
  3 11  1  0  0  0  0
  4  7  1  0  0  0  0
  4  8  1  0  0  0  0
  4 17  1  0  0  0  0
  5  7  2  0  0  0  0
  5  9  1  0  0  0  0
  6  7  1  0  0  0  0
  6 10  1  0  0  0  0
  6 18  1  0  0  0  0
  8  9  1  0  0  0  0
  8 19  1  0  0  0  0
  8 20  1  0  0  0  0
  9 21  1  0  0  0  0
  9 22  1  0  0  0  0
 10 23  1  0  0  0  0
 10 24  1  0  0  0  0
 10 25  1  0  0  0  0
 11 12  2  0  0  0  0
 11 13  1  0  0  0  0
 12 14  1  0  0  0  0
 13 15  2  0  0  0  0
 14 16  2  0  0  0  0
 14 26  1  0  0  0  0
 15 16  1  0  0  0  0
 15 27  1  0  0  0  0
 16 28  1  0  0  0  0
M  END
>  <DRUGBANK_ID>
DB04948

>  <COMMON_NAME>
Lofexidine

>  <CAS_NUMBER>
31036-80-3

>  <UNII>
UI82K0T627

>  <SYNONYMS>
2-(alpha-(2,6-Dichlorophenoxy)ethyl)2-imidazoline; Lofexidina; Lofexidine; Lofexidinum

$$$$
