
 OpenBabel10282417103D

 25 24  0  0  1  0  0  0  0  0999 V2000
    1.0675   -0.0603   -0.0980 C   0  0  0  0  0  0  0  0  0  0  0  0
    0.5748   -0.2197    1.3491 C   0  0  0  0  0  0  0  0  0  0  0  0
    1.0713    0.8508    2.3635 C   0  0  1  0  0  0  0  0  0  0  0  0
    0.5070    2.3043    2.2261 C   0  0  0  0  0  0  0  0  0  0  0  0
   -0.5032    2.7272    2.7636 O   0  0  0  0  0  0  0  0  0  0  0  0
    1.2100    3.1060    1.4020 O   0  0  0  0  0  0  0  0  0  0  0  0
    0.6360    0.3660    3.6976 N   0  0  0  0  0  0  0  0  0  0  0  0
    0.5695    1.2479   -0.6520 C   0  0  0  0  0  0  0  0  0  0  0  0
    0.8823    1.5321   -2.0106 N   0  0  0  0  0  0  0  0  0  0  0  0
    0.0463    1.9942   -2.9651 C   0  0  0  0  0  0  0  0  0  0  0  0
    0.4710    2.3967   -4.0293 O   0  0  0  0  0  0  0  0  0  0  0  0
   -1.2745    1.9653   -2.6890 N   0  0  0  0  0  0  0  0  0  0  0  0
    0.7229   -0.8939   -0.7226 H   0  0  0  0  0  0  0  0  0  0  0  0
    2.1634   -0.0751   -0.1182 H   0  0  0  0  0  0  0  0  0  0  0  0
   -0.5238   -0.2614    1.3470 H   0  0  0  0  0  0  0  0  0  0  0  0
    0.9135   -1.2127    1.6806 H   0  0  0  0  0  0  0  0  0  0  0  0
    2.1657    0.8868    2.3562 H   0  0  0  0  0  0  0  0  0  0  0  0
    0.5668    3.7271    0.9898 H   0  0  0  0  0  0  0  0  0  0  0  0
    0.9173    1.0644    4.3889 H   0  0  0  0  0  0  0  0  0  0  0  0
   -0.3886    0.4118    3.7179 H   0  0  0  0  0  0  0  0  0  0  0  0
   -0.4768    1.4224   -0.3874 H   0  0  0  0  0  0  0  0  0  0  0  0
    1.1852    1.9853   -0.1888 H   0  0  0  0  0  0  0  0  0  0  0  0
    1.8520    1.7572   -2.2088 H   0  0  0  0  0  0  0  0  0  0  0  0
   -1.6751    1.7362   -1.7978 H   0  0  0  0  0  0  0  0  0  0  0  0
   -1.9031    2.2312   -3.4312 H   0  0  0  0  0  0  0  0  0  0  0  0
  1  2  1  0  0  0  0
  1  8  1  0  0  0  0
  1 13  1  0  0  0  0
  1 14  1  0  0  0  0
  2  3  1  0  0  0  0
  2 15  1  0  0  0  0
  2 16  1  0  0  0  0
  3  4  1  0  0  0  0
  3  7  1  0  0  0  0
  3 17  1  6  0  0  0
  4  5  2  0  0  0  0
  4  6  1  0  0  0  0
  6 18  1  0  0  0  0
  7 19  1  0  0  0  0
  7 20  1  0  0  0  0
  8  9  1  0  0  0  0
  8 21  1  0  0  0  0
  8 22  1  0  0  0  0
  9 10  1  0  0  0  0
  9 23  1  0  0  0  0
 10 11  2  0  0  0  0
 10 12  1  0  0  0  0
 12 24  1  0  0  0  0
 12 25  1  0  0  0  0
M  END
>  <DRUGBANK_ID>
DB00155

>  <SECONDARY_ACCESSION_NUMBERS>
NUTR00021

>  <COMMON_NAME>
Citrulline

>  <CAS_NUMBER>
372-75-8

>  <UNII>
29VT07BGDA

>  <SYNONYMS>
(S)-2-Amino-5-ureidopentanoic acid; 2-Amino-5-ureidovaleric acid; alpha-amino-delta-Ureidovaleric acid; Cit; Citrulina; Citrulline; delta-Ureidonorvaline; L-2-Amino-5-ureidovaleric acid; L-Citrulline; N(5)-(Aminocarbonyl)-L-ornithine; N(delta)-Carbamylornithine; N5-(Aminocarbonyl)ornithine; N5-Carbamoyl-L-ornithine; N5-carbamoylornithine; α-amino-δ-ureidovaleric acid; δ-ureidonorvaline

$$$$
