393
 OpenBabel10282417103D

 56 57  0  0  1  0  0  0  0  0999 V2000
    0.9079   -0.0368    0.0827 O   0  0  0  0  0  0  0  0  0  0  0  0
   -5.6140   -3.6736   -1.5150 O   0  0  0  0  0  0  0  0  0  0  0  0
    1.0111   -1.5921   -1.5925 O   0  0  0  0  0  0  0  0  0  0  0  0
   -3.7856   -4.5553   -0.7798 O   0  0  0  0  0  0  0  0  0  0  0  0
   -5.6991   -1.2146    0.6144 O   0  0  0  0  0  0  0  0  0  0  0  0
    2.4827   -6.3994   -1.4661 O   0  5  0  0  0  0  0  0  0  0  0  0
    2.5690   -4.7016   -0.0806 O   0  0  0  0  0  0  0  0  0  0  0  0
   -3.0470    0.2033   -1.0586 N   0  0  0  0  0  0  0  0  0  0  0  0
    1.9792   -5.4179   -0.9023 N   0  3  0  0  0  0  0  0  0  0  0  0
   -1.9255   -2.2838   -0.6749 C   0  0  3  0  0  0  0  0  0  0  0  0
   -1.0938   -0.9637   -0.7398 C   0  0  0  0  0  0  0  0  0  0  0  0
   -3.4251   -2.1390   -1.3208 C   0  0  0  0  0  0  0  0  0  0  0  0
   -1.1915   -3.4985   -1.2265 C   0  0  0  0  0  0  0  0  0  0  0  0
   -1.7054    0.2090   -0.9486 C   0  0  0  0  0  0  0  0  0  0  0  0
   -3.7824   -0.8356   -1.5579 C   0  0  0  0  0  0  0  0  0  0  0  0
    0.3791   -0.9332   -0.8131 C   0  0  0  0  0  0  0  0  0  0  0  0
   -0.0116   -3.9781   -0.6527 C   0  0  0  0  0  0  0  0  0  0  0  0
   -4.2751   -3.5429   -1.2984 C   0  0  0  0  0  0  0  0  0  0  0  0
   -1.7442   -4.2238   -2.2915 C   0  0  0  0  0  0  0  0  0  0  0  0
   -1.1531    1.5673   -1.2598 C   0  0  0  0  0  0  0  0  0  0  0  0
   -5.0272   -0.2006   -2.0358 C   0  0  0  0  0  0  0  0  0  0  0  0
    0.6012   -5.0842   -1.2420 C   0  0  0  0  0  0  0  0  0  0  0  0
   -1.3260   -5.4924   -2.6071 C   0  0  0  0  0  0  0  0  0  0  0  0
    2.3444    0.0319    0.0124 C   0  0  0  0  0  0  0  0  0  0  0  0
   -0.0749   -5.8690   -2.1852 C   0  0  0  0  0  0  0  0  0  0  0  0
   -6.5585   -2.6215   -1.5805 C   0  0  0  0  0  0  0  0  0  0  0  0
    2.8307    1.3066    0.6901 C   0  0  0  0  0  0  0  0  0  0  0  0
    2.9104   -1.1833    0.7310 C   0  0  0  0  0  0  0  0  0  0  0  0
   -6.7790   -1.7618   -0.1944 C   0  0  0  0  0  0  0  0  0  0  0  0
   -4.8559   -2.1771    1.2052 C   0  0  0  0  0  0  0  0  0  0  0  0
   -3.4987    1.1162   -1.0470 H   0  0  0  0  0  0  0  0  0  0  0  0
   -2.0667   -2.4882    0.4015 H   0  0  0  0  0  0  0  0  0  0  0  0
    0.4757   -3.4387    0.1587 H   0  0  0  0  0  0  0  0  0  0  0  0
   -2.6257   -3.8848   -2.8198 H   0  0  0  0  0  0  0  0  0  0  0  0
   -1.5034    1.8357   -2.2668 H   0  0  0  0  0  0  0  0  0  0  0  0
   -1.5584    2.3110   -0.5643 H   0  0  0  0  0  0  0  0  0  0  0  0
   -0.0712    1.6270   -1.2706 H   0  0  0  0  0  0  0  0  0  0  0  0
   -5.3924    0.6327   -1.4225 H   0  0  0  0  0  0  0  0  0  0  0  0
   -5.1932   -0.0655   -3.0995 H   0  0  0  0  0  0  0  0  0  0  0  0
   -5.7049   -0.8876   -1.7171 H   0  0  0  0  0  0  0  0  0  0  0  0
   -1.9704   -6.1224   -3.2100 H   0  0  0  0  0  0  0  0  0  0  0  0
    2.6700    0.0625   -1.0361 H   0  0  0  0  0  0  0  0  0  0  0  0
    0.3640   -6.7508   -2.6322 H   0  0  0  0  0  0  0  0  0  0  0  0
   -6.2809   -2.1636   -2.5460 H   0  0  0  0  0  0  0  0  0  0  0  0
   -7.5506   -2.9729   -1.8865 H   0  0  0  0  0  0  0  0  0  0  0  0
    2.4778    1.3589    1.7246 H   0  0  0  0  0  0  0  0  0  0  0  0
    3.9260    1.3480    0.6912 H   0  0  0  0  0  0  0  0  0  0  0  0
    2.4537    2.1959    0.1747 H   0  0  0  0  0  0  0  0  0  0  0  0
    2.5834   -2.1075    0.2513 H   0  0  0  0  0  0  0  0  0  0  0  0
    4.0017   -1.1730    0.7363 H   0  0  0  0  0  0  0  0  0  0  0  0
    2.5358   -1.2222    1.7593 H   0  0  0  0  0  0  0  0  0  0  0  0
   -7.3369   -0.8552   -0.4798 H   0  0  0  0  0  0  0  0  0  0  0  0
   -7.3957   -2.3301    0.4933 H   0  0  0  0  0  0  0  0  0  0  0  0
   -5.2964   -2.9014    1.8811 H   0  0  0  0  0  0  0  0  0  0  0  0
   -4.6567   -2.8201    0.4187 H   0  0  0  0  0  0  0  0  0  0  0  0
   -3.8566   -1.8108    1.4741 H   0  0  0  0  0  0  0  0  0  0  0  0
  1 16  1  0  0  0  0
  1 24  1  0  0  0  0
  2 18  1  0  0  0  0
  2 26  1  0  0  0  0
  3 16  2  0  0  0  0
  4 18  2  0  0  0  0
  5 29  1  0  0  0  0
  5 30  1  0  0  0  0
  6  9  1  0  0  0  0
  7  9  2  0  0  0  0
  8 14  1  0  0  0  0
  8 15  1  0  0  0  0
  8 31  1  0  0  0  0
  9 22  1  0  0  0  0
 10 11  1  0  0  0  0
 10 12  1  0  0  0  0
 10 13  1  0  0  0  0
 10 32  1  0  0  0  0
 11 14  2  0  0  0  0
 11 16  1  0  0  0  0
 12 15  2  0  0  0  0
 12 18  1  0  0  0  0
 13 17  2  0  0  0  0
 13 19  1  0  0  0  0
 14 20  1  0  0  0  0
 15 21  1  0  0  0  0
 17 22  1  0  0  0  0
 17 33  1  0  0  0  0
 19 23  2  0  0  0  0
 19 34  1  0  0  0  0
 20 35  1  0  0  0  0
 20 36  1  0  0  0  0
 20 37  1  0  0  0  0
 21 38  1  0  0  0  0
 21 39  1  0  0  0  0
 21 40  1  0  0  0  0
 22 25  2  0  0  0  0
 23 25  1  0  0  0  0
 23 41  1  0  0  0  0
 24 27  1  0  0  0  0
 24 28  1  0  0  0  0
 24 42  1  0  0  0  0
 25 43  1  0  0  0  0
 26 29  1  0  0  0  0
 26 44  1  0  0  0  0
 26 45  1  0  0  0  0
 27 46  1  0  0  0  0
 27 47  1  0  0  0  0
 27 48  1  0  0  0  0
 28 49  1  0  0  0  0
 28 50  1  0  0  0  0
 28 51  1  0  0  0  0
 29 52  1  0  0  0  0
 29 53  1  0  0  0  0
 30 54  1  0  0  0  0
 30 55  1  0  0  0  0
 30 56  1  0  0  0  0
M  CHG  2   6  -1   9   1
M  END
>  <DRUGBANK_ID>
DB00393

>  <SECONDARY_ACCESSION_NUMBERS>
APRD00612

>  <COMMON_NAME>
Nimodipine

>  <CAS_NUMBER>
66085-59-4

>  <UNII>
57WA9QZ5WH

>  <SYNONYMS>
2,6-dimethyl-4-(3'-nitrophenyl)-1,4-dihydropyridine-3,5-dicarboxylic acid 3-Î²-methoxyethyl ester 5-isopropyl ester; isopropyl 2-methoxyethyl 1,4-dihydro-2,6-dimethyl-4-(3-nitrophenyl)-3,5-pyridinedicarboxylate; isopropyl 2-methoxyethyl 1,4-dihydro-2,6-dimethyl-4-(m-nitrophenyl)-3,5-pyridinedicarboxylate; Nimodipine; Nimodipino; Nimodipinum

$$$$
