
 OpenBabel10282417173D

 35 35  0  0  0  0  0  0  0  0999 V2000
   -1.3226   -0.1345   -0.0234 C   0  0  0  0  0  0  0  0  0  0  0  0
   -0.5955   -1.2623   -0.0109 N   0  0  0  0  0  0  0  0  0  0  0  0
   -0.8450    1.1169    0.0105 N   0  0  0  0  0  0  0  0  0  0  0  0
    0.4651    1.2182    0.0359 C   0  0  0  0  0  0  0  0  0  0  0  0
    1.2357    0.1522    0.0362 N   0  0  0  0  0  0  0  0  0  0  0  0
    1.0492    2.4602    0.0445 N   0  0  0  0  0  0  0  0  0  0  0  0
    2.9720    3.5143   -1.0388 C   0  0  0  0  0  0  0  0  0  0  0  0
    2.4808    2.6802    0.1321 C   0  0  0  0  0  0  0  0  0  0  0  0
    0.7123   -1.0567    0.0205 C   0  0  0  0  0  0  0  0  0  0  0  0
    1.5746   -2.1374    0.0390 N   0  0  0  0  0  0  0  0  0  0  0  0
    3.5853   -2.7495    1.3265 C   0  0  0  0  0  0  0  0  0  0  0  0
    3.5989   -2.8313   -1.1754 C   0  0  0  0  0  0  0  0  0  0  0  0
   -3.1087   -0.2148   -0.1068 S   0  0  0  0  0  0  0  0  0  0  0  0
   -3.4419   -1.9918   -0.1443 C   0  0  0  0  0  0  0  0  0  0  0  0
    3.0525   -2.0849    0.0490 C   0  0  0  0  0  0  0  0  0  0  0  0
    3.6486   -0.6776    0.0073 C   0  0  0  0  0  0  0  0  0  0  0  0
    0.4122    3.2353    0.1452 H   0  0  0  0  0  0  0  0  0  0  0  0
    2.5299    4.5138   -1.0212 H   0  0  0  0  0  0  0  0  0  0  0  0
    4.0625    3.6225   -1.0004 H   0  0  0  0  0  0  0  0  0  0  0  0
    2.7181    3.0393   -1.9924 H   0  0  0  0  0  0  0  0  0  0  0  0
    2.7340    3.1783    1.0747 H   0  0  0  0  0  0  0  0  0  0  0  0
    3.0610    1.7625    0.1218 H   0  0  0  0  0  0  0  0  0  0  0  0
    1.1131   -3.0352    0.0647 H   0  0  0  0  0  0  0  0  0  0  0  0
    3.3230   -3.8101    1.3768 H   0  0  0  0  0  0  0  0  0  0  0  0
    4.6803   -2.6758    1.3690 H   0  0  0  0  0  0  0  0  0  0  0  0
    3.1906   -2.2589    2.2236 H   0  0  0  0  0  0  0  0  0  0  0  0
    3.2123   -2.4011   -2.1061 H   0  0  0  0  0  0  0  0  0  0  0  0
    4.6942   -2.7603   -1.2114 H   0  0  0  0  0  0  0  0  0  0  0  0
    3.3363   -3.8929   -1.1573 H   0  0  0  0  0  0  0  0  0  0  0  0
   -2.9966   -2.4685   -1.0210 H   0  0  0  0  0  0  0  0  0  0  0  0
   -3.0963   -2.4820    0.7690 H   0  0  0  0  0  0  0  0  0  0  0  0
   -4.5278   -2.1288   -0.2061 H   0  0  0  0  0  0  0  0  0  0  0  0
    3.3323   -0.1551   -0.9047 H   0  0  0  0  0  0  0  0  0  0  0  0
    3.3475   -0.1254    0.9057 H   0  0  0  0  0  0  0  0  0  0  0  0
    4.7406   -0.6618    0.0024 H   0  0  0  0  0  0  0  0  0  0  0  0
  1  2  2  0  0  0  0
  3  1  1  0  0  0  0
  4  3  2  0  0  0  0
  5  4  1  0  0  0  0
  6  4  1  0  0  0  0
  6  8  1  0  0  0  0
  6 17  1  0  0  0  0
  7 18  1  0  0  0  0
  7 19  1  0  0  0  0
  7 20  1  0  0  0  0
  8  7  1  0  0  0  0
  8 21  1  0  0  0  0
  8 22  1  0  0  0  0
  9  5  2  0  0  0  0
  9  2  1  0  0  0  0
 10  9  1  0  0  0  0
 10 15  1  0  0  0  0
 10 23  1  0  0  0  0
 11 24  1  0  0  0  0
 11 25  1  0  0  0  0
 11 26  1  0  0  0  0
 12 27  1  0  0  0  0
 12 28  1  0  0  0  0
 12 29  1  0  0  0  0
 13  1  1  0  0  0  0
 13 14  1  0  0  0  0
 14 30  1  0  0  0  0
 14 31  1  0  0  0  0
 14 32  1  0  0  0  0
 15 11  1  0  0  0  0
 15 12  1  0  0  0  0
 15 16  1  0  0  0  0
 16 33  1  0  0  0  0
 16 34  1  0  0  0  0
 16 35  1  0  0  0  0
M  END
>  <DRUGBANK_ID>
DB08215

>  <COMMON_NAME>
Terbutryn

>  <CAS_NUMBER>
886-50-0

>  <UNII>
ZXL474TLFP

>  <SYNONYMS>
Terbutryn; Terbutryne

$$$$
