408
 OpenBabel10282417103D

 41 44  0  0  0  0  0  0  0  0999 V2000
   -4.3907   -0.0419   -0.7641 Cl  0  0  0  0  0  0  0  0  0  0  0  0
    1.0333    0.8554    1.2825 O   0  0  0  0  0  0  0  0  0  0  0  0
   -0.3782   -2.9792    1.4774 N   0  0  0  0  0  0  0  0  0  0  0  0
   -1.9335   -4.8398    3.0574 N   0  0  0  0  0  0  0  0  0  0  0  0
    1.5082   -1.9275    0.6068 N   0  0  0  0  0  0  0  0  0  0  0  0
   -1.3126   -3.9205    0.8497 C   0  0  0  0  0  0  0  0  0  0  0  0
    0.2039   -3.5402    2.7120 C   0  0  0  0  0  0  0  0  0  0  0  0
   -2.4676   -4.1877    1.8416 C   0  0  0  0  0  0  0  0  0  0  0  0
   -0.9476   -3.9249    3.6863 C   0  0  0  0  0  0  0  0  0  0  0  0
    0.2246   -1.9009    0.8259 C   0  0  0  0  0  0  0  0  0  0  0  0
   -3.0019   -5.2000    3.9796 C   0  0  0  0  0  0  0  0  0  0  0  0
   -0.6584   -0.7133    0.5175 C   0  0  0  0  0  0  0  0  0  0  0  0
   -0.2196    0.5846    0.7937 C   0  0  0  0  0  0  0  0  0  0  0  0
    2.2275   -0.8462    0.0434 C   0  0  0  0  0  0  0  0  0  0  0  0
   -1.9591   -0.8734    0.0290 C   0  0  0  0  0  0  0  0  0  0  0  0
    2.0281    0.4917    0.4064 C   0  0  0  0  0  0  0  0  0  0  0  0
   -1.0660    1.6861    0.6073 C   0  0  0  0  0  0  0  0  0  0  0  0
   -2.7989    0.2196   -0.1645 C   0  0  0  0  0  0  0  0  0  0  0  0
   -2.3599    1.5027    0.1249 C   0  0  0  0  0  0  0  0  0  0  0  0
    3.2738   -1.1205   -0.8454 C   0  0  0  0  0  0  0  0  0  0  0  0
    2.8417    1.5222   -0.0841 C   0  0  0  0  0  0  0  0  0  0  0  0
    4.0897   -0.0956   -1.3515 C   0  0  0  0  0  0  0  0  0  0  0  0
    3.8747    1.2263   -0.9672 C   0  0  0  0  0  0  0  0  0  0  0  0
   -0.8017   -4.8600    0.6063 H   0  0  0  0  0  0  0  0  0  0  0  0
   -1.7042   -3.5712   -0.1039 H   0  0  0  0  0  0  0  0  0  0  0  0
    0.8055   -4.4286    2.4796 H   0  0  0  0  0  0  0  0  0  0  0  0
    0.8555   -2.8123    3.2078 H   0  0  0  0  0  0  0  0  0  0  0  0
   -3.2169   -4.8245    1.3596 H   0  0  0  0  0  0  0  0  0  0  0  0
   -2.9624   -3.2407    2.1065 H   0  0  0  0  0  0  0  0  0  0  0  0
   -1.4532   -3.0043    4.0109 H   0  0  0  0  0  0  0  0  0  0  0  0
   -0.5190   -4.3954    4.5783 H   0  0  0  0  0  0  0  0  0  0  0  0
   -2.5915   -5.7260    4.8484 H   0  0  0  0  0  0  0  0  0  0  0  0
   -3.5655   -4.3295    4.3305 H   0  0  0  0  0  0  0  0  0  0  0  0
   -3.7004   -5.8939    3.4976 H   0  0  0  0  0  0  0  0  0  0  0  0
   -2.3591   -1.8374   -0.2303 H   0  0  0  0  0  0  0  0  0  0  0  0
   -0.7066    2.6874    0.8277 H   0  0  0  0  0  0  0  0  0  0  0  0
   -3.0148    2.3547   -0.0282 H   0  0  0  0  0  0  0  0  0  0  0  0
    3.4705   -2.1491   -1.1367 H   0  0  0  0  0  0  0  0  0  0  0  0
    2.6636    2.5485    0.2234 H   0  0  0  0  0  0  0  0  0  0  0  0
    4.9037   -0.3342   -2.0319 H   0  0  0  0  0  0  0  0  0  0  0  0
    4.5134    2.0207   -1.3465 H   0  0  0  0  0  0  0  0  0  0  0  0
  1 18  1  0  0  0  0
  2 13  1  0  0  0  0
  2 16  1  0  0  0  0
  3  6  1  0  0  0  0
  3  7  1  0  0  0  0
  3 10  1  0  0  0  0
  4  8  1  0  0  0  0
  4  9  1  0  0  0  0
  4 11  1  0  0  0  0
  5 10  2  0  0  0  0
  5 14  1  0  0  0  0
  6  8  1  0  0  0  0
  6 24  1  0  0  0  0
  6 25  1  0  0  0  0
  7  9  1  0  0  0  0
  7 26  1  0  0  0  0
  7 27  1  0  0  0  0
  8 28  1  0  0  0  0
  8 29  1  0  0  0  0
  9 30  1  0  0  0  0
  9 31  1  0  0  0  0
 10 12  1  0  0  0  0
 11 32  1  0  0  0  0
 11 33  1  0  0  0  0
 11 34  1  0  0  0  0
 12 13  2  0  0  0  0
 12 15  1  0  0  0  0
 13 17  1  0  0  0  0
 14 16  1  0  0  0  0
 14 20  2  0  0  0  0
 15 18  2  0  0  0  0
 15 35  1  0  0  0  0
 16 21  2  0  0  0  0
 17 19  2  0  0  0  0
 17 36  1  0  0  0  0
 18 19  1  0  0  0  0
 19 37  1  0  0  0  0
 20 22  1  0  0  0  0
 20 38  1  0  0  0  0
 21 23  1  0  0  0  0
 21 39  1  0  0  0  0
 22 23  2  0  0  0  0
 22 40  1  0  0  0  0
 23 41  1  0  0  0  0
M  END
>  <DRUGBANK_ID>
DB00408

>  <SECONDARY_ACCESSION_NUMBERS>
APRD00574

>  <COMMON_NAME>
Loxapine

>  <CAS_NUMBER>
1977-10-2

>  <UNII>
LER583670J

>  <SYNONYMS>
2-Chloro-11-(4-methyl-1-piperazinyl)dibenz[b,f][1,4]oxazepine; Loxapina; Loxapine; Loxapinum; Oxilapine

$$$$
