4DI
 OpenBabel10282417163D

 28 27  0  0  0  0  0  0  0  0999 V2000
    0.6618   -0.0654    0.2208 C   0  0  0  0  0  0  0  0  0  0  0  0
   -0.1333    0.3253   -1.2689 S   0  0  0  0  0  0  0  0  0  0  0  0
    1.0779    0.8159   -2.5515 C   0  0  0  0  0  0  0  0  0  0  0  0
    1.8805    2.0836   -2.2368 C   0  0  0  0  0  0  0  0  0  0  0  0
    3.0238    1.8579   -1.2424 C   0  0  0  0  0  0  0  0  0  0  0  0
    3.9543    0.6442   -1.5231 C   0  0  0  0  0  0  0  0  0  0  0  0
    4.9216    0.7655   -2.6171 N   0  0  0  0  0  0  0  0  0  0  0  0
    5.6710   -0.4976   -2.7027 C   0  0  0  0  0  0  0  0  0  0  0  0
    4.2682    0.9744   -3.9075 C   0  0  0  0  0  0  0  0  0  0  0  0
   -0.0313   -0.0419    1.3609 N   0  0  0  0  0  0  0  0  0  0  0  0
    1.8932   -0.4462    0.3415 N   0  0  0  0  0  0  0  0  0  0  0  0
    1.6993   -0.0405   -2.8279 H   0  0  0  0  0  0  0  0  0  0  0  0
    0.5150    1.0227   -3.4746 H   0  0  0  0  0  0  0  0  0  0  0  0
    2.2687    2.5233   -3.1585 H   0  0  0  0  0  0  0  0  0  0  0  0
    1.2104    2.8730   -1.8776 H   0  0  0  0  0  0  0  0  0  0  0  0
    3.6321    2.7597   -1.1218 H   0  0  0  0  0  0  0  0  0  0  0  0
    2.5431    1.7571   -0.2632 H   0  0  0  0  0  0  0  0  0  0  0  0
    4.4716    0.4128   -0.5797 H   0  0  0  0  0  0  0  0  0  0  0  0
    3.3989   -0.2632   -1.7706 H   0  0  0  0  0  0  0  0  0  0  0  0
    5.0194   -1.3482   -2.9488 H   0  0  0  0  0  0  0  0  0  0  0  0
    6.4331   -0.4132   -3.4808 H   0  0  0  0  0  0  0  0  0  0  0  0
    6.1803   -0.7215   -1.7599 H   0  0  0  0  0  0  0  0  0  0  0  0
    3.4986    0.2203   -4.1177 H   0  0  0  0  0  0  0  0  0  0  0  0
    3.8383    1.9692   -3.9598 H   0  0  0  0  0  0  0  0  0  0  0  0
    4.9907    0.9599   -4.7242 H   0  0  0  0  0  0  0  0  0  0  0  0
    0.4974   -0.5118    2.0926 H   0  0  0  0  0  0  0  0  0  0  0  0
   -1.0068   -0.2993    1.2997 H   0  0  0  0  0  0  0  0  0  0  0  0
    2.2533   -0.4273   -0.5872 H   0  0  0  0  0  0  0  0  0  0  0  0
  1  2  1  0  0  0  0
  1 10  1  0  0  0  0
  1 11  2  0  0  0  0
  2  3  1  0  0  0  0
  3  4  1  0  0  0  0
  3 12  1  0  0  0  0
  3 13  1  0  0  0  0
  4  5  1  0  0  0  0
  4 14  1  0  0  0  0
  4 15  1  0  0  0  0
  5  6  1  0  0  0  0
  5 16  1  0  0  0  0
  5 17  1  0  0  0  0
  6  7  1  0  0  0  0
  6 18  1  0  0  0  0
  6 19  1  0  0  0  0
  7  8  1  0  0  0  0
  7  9  1  0  0  0  0
  8 20  1  0  0  0  0
  8 21  1  0  0  0  0
  8 22  1  0  0  0  0
  9 23  1  0  0  0  0
  9 24  1  0  0  0  0
  9 25  1  0  0  0  0
 10 26  1  0  0  0  0
 10 27  1  0  0  0  0
 11 28  1  0  0  0  0
M  END
>  <DRUGBANK_ID>
DB07106

>  <COMMON_NAME>
SKF-91488

>  <CAS_NUMBER>
68643-23-2

>  <UNII>
1I4LVX494H

>  <SYNONYMS>
Homodimaprit

$$$$
