131
 OpenBabel10282417103D

 37 39  0  0  1  0  0  0  0  0999 V2000
    1.0183   -0.0908   -0.0377 P   0  0  0  0  0  0  0  0  0  0  0  0
   -1.8090   -0.2288    2.1504 O   0  0  0  0  0  0  0  0  0  0  0  0
   -2.0751   -2.9796   -0.4398 O   0  0  0  0  0  0  0  0  0  0  0  0
   -1.5320   -3.3684    2.2400 O   0  0  0  0  0  0  0  0  0  0  0  0
    0.7752    0.6738    1.3406 O   0  0  0  0  0  0  0  0  0  0  0  0
    0.7557   -0.1374   -1.6044 O   0  0  0  0  0  0  0  0  0  0  0  0
   -0.7117   -0.0908   -0.0377 O   0  0  0  0  0  0  0  0  0  0  0  0
    2.5666   -0.0908   -0.0377 O   0  0  0  0  0  0  0  0  0  0  0  0
   -2.1875    1.1138   -0.3182 N   0  0  0  0  0  0  0  0  0  0  0  0
   -2.1491    1.3887   -2.6576 N   0  0  0  0  0  0  0  0  0  0  0  0
    0.4152    2.3634   -0.3419 N   0  0  0  0  0  0  0  0  0  0  0  0
    1.4525    2.3714   -2.5586 N   0  0  0  0  0  0  0  0  0  0  0  0
    0.2366    2.5384   -4.4849 N   0  0  0  0  0  0  0  0  0  0  0  0
   -1.3940   -1.9893    0.3004 C   0  0  2  0  0  0  0  0  0  0  0  0
   -0.6907   -2.4003    1.6129 C   0  0  1  0  0  0  0  0  0  0  0  0
   -2.3282   -0.4099    0.7445 C   0  0  1  0  0  0  0  0  0  0  0  0
   -0.6062   -1.0953    2.4515 C   0  0  1  0  0  0  0  0  0  0  0  0
    0.7479   -0.2849    2.4088 C   0  0  0  0  0  0  0  0  0  0  0  0
   -0.8326    1.9801   -0.8921 C   0  0  0  0  0  0  0  0  0  0  0  0
   -2.7701    0.9433   -1.6117 C   0  0  0  0  0  0  0  0  0  0  0  0
   -0.9242    1.9387   -2.2907 C   0  0  0  0  0  0  0  0  0  0  0  0
    0.2229    2.3060   -3.1106 C   0  0  0  0  0  0  0  0  0  0  0  0
    1.4901    2.4314   -1.2333 C   0  0  0  0  0  0  0  0  0  0  0  0
   -2.4976   -3.5824    0.1871 H   0  0  0  0  0  0  0  0  0  0  0  0
   -2.3849   -2.9225    2.3651 H   0  0  0  0  0  0  0  0  0  0  0  0
    1.4334    0.3173   -2.1510 H   0  0  0  0  0  0  0  0  0  0  0  0
   -0.7383   -0.2731   -1.0305 H   0  0  0  0  0  0  0  0  0  0  0  0
   -0.6526    2.9318   -4.7703 H   0  0  0  0  0  0  0  0  0  0  0  0
    1.0468    3.1110   -4.7241 H   0  0  0  0  0  0  0  0  0  0  0  0
   -0.4843   -1.9400   -0.3349 H   0  0  0  0  0  0  0  0  0  0  0  0
    0.2978   -2.8981    1.4968 H   0  0  0  0  0  0  0  0  0  0  0  0
   -3.3980   -0.6145    0.6494 H   0  0  0  0  0  0  0  0  0  0  0  0
   -0.6713   -1.4245    3.4995 H   0  0  0  0  0  0  0  0  0  0  0  0
    1.6409   -0.9413    2.3484 H   0  0  0  0  0  0  0  0  0  0  0  0
    0.8866    0.2655    3.3463 H   0  0  0  0  0  0  0  0  0  0  0  0
   -3.6566    0.2942   -1.6718 H   0  0  0  0  0  0  0  0  0  0  0  0
    2.5279    2.2403   -0.8648 H   0  0  0  0  0  0  0  0  0  0  0  0
  1  5  1  0  0  0  0
  1  6  1  0  0  0  0
  1  7  1  0  0  0  0
  1  8  2  0  0  0  0
  2 16  1  0  0  0  0
  2 17  1  0  0  0  0
  3 24  1  0  0  0  0
  4 25  1  0  0  0  0
  5 18  1  0  0  0  0
  6 26  1  0  0  0  0
  7 27  1  0  0  0  0
  9 19  1  0  0  0  0
  9 20  1  0  0  0  0
 10 20  2  0  0  0  0
 10 21  1  0  0  0  0
 11 19  2  0  0  0  0
 11 23  1  0  0  0  0
 12 22  1  0  0  0  0
 12 23  2  0  0  0  0
 13 22  1  0  0  0  0
 13 28  1  0  0  0  0
 13 29  1  0  0  0  0
 14  3  1  0  0  0  0
 14 15  1  0  0  0  0
 14 16  1  0  0  0  0
 14 30  1  6  0  0  0
 15  4  1  0  0  0  0
 15 17  1  0  0  0  0
 15 31  1  6  0  0  0
 16 32  1  1  0  0  0
 16  9  1  0  0  0  0
 17 18  1  0  0  0  0
 17 33  1  1  0  0  0
 18 34  1  0  0  0  0
 18 35  1  0  0  0  0
 19 21  1  0  0  0  0
 20 36  1  0  0  0  0
 21 22  2  0  0  0  0
 23 37  1  0  0  0  0
M  END
>  <DRUGBANK_ID>
DB00131

>  <SECONDARY_ACCESSION_NUMBERS>
NUTR00011; EXPT00512

>  <COMMON_NAME>
Adenosine phosphate

>  <CAS_NUMBER>
61-19-8

>  <UNII>
415SHH325A

>  <SYNONYMS>
5'-Adenosine monophosphate; 5'-Adenylic acid; 5'-AMP; 5'-O-Phosphonoadenosine; Adenosine 5'-(dihydrogen phosphate); Adenosine 5'-monophosphate; Adenosine 5'-phosphate; Adenosine monophosphate; Adenosine phosphate; Adenosine-5'-Monophosphate; Adenosine-5'-monophosphoric acid; Adenosine-5'P; Adenosini phosphas; Adenylate; Adenylic acid; Ado5'P; AMP; Fosfato de adenosina; PAdo; Phosphate d'ad√©nosine

$$$$
