
 OpenBabel10282417123D

 13 13  0  0  0  0  0  0  0  0999 V2000
   -2.6235    0.4822    0.0519 O   0  0  0  0  0  0  0  0  0  0  0  0
   -1.2774    0.2325    0.0175 C   0  0  0  0  0  0  0  0  0  0  0  0
   -0.3459    1.2765    0.0126 C   0  0  0  0  0  0  0  0  0  0  0  0
   -0.9137    3.0856    0.0212 Br  0  0  0  0  0  0  0  0  0  0  0  0
    1.0230    1.0046   -0.0028 C   0  0  0  0  0  0  0  0  0  0  0  0
    1.4569   -0.3205   -0.0232 C   0  0  0  0  0  0  0  0  0  0  0  0
    3.3099   -0.6973   -0.0252 Br  0  0  0  0  0  0  0  0  0  0  0  0
    0.5403   -1.3704   -0.0364 C   0  0  0  0  0  0  0  0  0  0  0  0
   -0.8278   -1.0915   -0.0112 C   0  0  0  0  0  0  0  0  0  0  0  0
   -2.0422   -2.5490   -0.0133 Br  0  0  0  0  0  0  0  0  0  0  0  0
   -2.7583    1.4468    0.0803 H   0  0  0  0  0  0  0  0  0  0  0  0
    1.7468    1.8157    0.0017 H   0  0  0  0  0  0  0  0  0  0  0  0
    0.8880   -2.4004   -0.0629 H   0  0  0  0  0  0  0  0  0  0  0  0
  1  2  1  0  0  0  0
  1 11  1  0  0  0  0
  2  3  2  0  0  0  0
  2  9  1  0  0  0  0
  3  4  1  0  0  0  0
  3  5  1  0  0  0  0
  5  6  2  0  0  0  0
  5 12  1  0  0  0  0
  6  7  1  0  0  0  0
  6  8  1  0  0  0  0
  8  9  2  0  0  0  0
  8 13  1  0  0  0  0
  9 10  1  0  0  0  0
M  END
>  <DRUGBANK_ID>
DB02417

>  <SECONDARY_ACCESSION_NUMBERS>
EXPT03018

>  <COMMON_NAME>
2,4,6-Tribromophenol

>  <CAS_NUMBER>
118-79-6

>  <UNII>
YS6K3EU393

$$$$
