
 OpenBabel10282417123D

 85 89  0  0  0  0  0  0  0  0999 V2000
    1.8539    0.2883   -0.0862 O   0  0  0  0  0  0  0  0  0  0  0  0
   -4.1130   -0.7310   -0.5163 O   0  0  0  0  0  0  0  0  0  0  0  0
   -4.6118   -1.7729    1.2930 O   0  0  0  0  0  0  0  0  0  0  0  0
   -1.6973    3.2011    2.5885 O   0  0  0  0  0  0  0  0  0  0  0  0
   -1.1645   -1.0248    1.9545 O   0  0  0  0  0  0  0  0  0  0  0  0
   -3.3388    1.9290    3.7439 O   0  0  0  0  0  0  0  0  0  0  0  0
    1.5133   -3.2873   -0.0711 O   0  0  0  0  0  0  0  0  0  0  0  0
   -1.8016   -3.7810    1.8289 O   0  0  0  0  0  0  0  0  0  0  0  0
   -3.6223    3.0660   -0.4382 O   0  0  0  0  0  0  0  0  0  0  0  0
   -1.8550   -2.8730   -0.1975 N   0  0  0  0  0  0  0  0  0  0  0  0
   -1.4974    2.2498   -0.5316 N   0  0  0  0  0  0  0  0  0  0  0  0
   -2.0422   -1.8195   -1.2039 C   0  0  2  0  0  0  0  0  0  0  0  0
   -2.8035   -0.4811   -0.8957 C   0  0  1  0  0  0  0  0  0  0  0  0
   -0.3715    1.2834   -0.1633 C   0  0  1  0  0  0  0  0  0  0  0  0
   -3.0688    0.3853   -2.0547 C   0  0  0  0  0  0  0  0  0  0  0  0
   -2.8003   -2.0082   -2.3930 C   0  0  0  0  0  0  0  0  0  0  0  0
   -0.2273   -0.1229   -0.6422 C   0  0  0  0  0  0  0  0  0  0  0  0
   -3.4372   -0.8122   -2.8359 C   0  0  0  0  0  0  0  0  0  0  0  0
    0.9666   -0.8312   -0.0925 C   0  0  1  0  0  0  0  0  0  0  0  0
    1.0856    1.5491   -0.3318 C   0  0  0  0  0  0  0  0  0  0  0  0
   -2.4661   -0.3790    1.8844 C   0  0  2  0  0  0  0  0  0  0  0  0
   -3.1026    1.3280    2.3553 C   0  0  2  0  0  0  0  0  0  0  0  0
   -3.2609   -1.7496    1.7069 C   0  0  2  0  0  0  0  0  0  0  0  0
   -2.6936    2.6336    1.7209 C   0  0  2  0  0  0  0  0  0  0  0  0
   -2.2981   -2.9284    1.1065 C   0  0  0  0  0  0  0  0  0  0  0  0
   -2.8993   -3.2187   -3.0243 C   0  0  0  0  0  0  0  0  0  0  0  0
   -2.6447    2.6769    0.1746 C   0  0  0  0  0  0  0  0  0  0  0  0
   -4.4941   -0.8037   -3.6130 C   0  0  0  0  0  0  0  0  0  0  0  0
    1.3059   -2.1366   -0.9003 C   0  0  0  0  0  0  0  0  0  0  0  0
   -3.8680   -3.1745   -3.9600 C   0  0  0  0  0  0  0  0  0  0  0  0
   -4.7035   -2.0329   -4.2115 C   0  0  0  0  0  0  0  0  0  0  0  0
   -5.3513   -0.5369    1.4214 C   0  0  0  0  0  0  0  0  0  0  0  0
   -0.6239    2.2755    2.8314 C   0  0  0  0  0  0  0  0  0  0  0  0
   -5.8898   -0.5390    2.7914 C   0  0  0  0  0  0  0  0  0  0  0  0
   -0.7095    0.8369    3.7791 C   0  0  0  0  0  0  0  0  0  0  0  0
   -7.0765   -1.2034    2.9378 C   0  0  0  0  0  0  0  0  0  0  0  0
   -5.2306   -0.2167    3.9589 C   0  0  0  0  0  0  0  0  0  0  0  0
    0.4247    0.0591    3.9620 C   0  0  0  0  0  0  0  0  0  0  0  0
   -1.8844   -0.0124    4.2517 C   0  0  0  0  0  0  0  0  0  0  0  0
   -7.4620   -1.5690    4.2110 C   0  0  0  0  0  0  0  0  0  0  0  0
   -5.4578   -0.7300    5.2004 C   0  0  0  0  0  0  0  0  0  0  0  0
    0.2890   -1.3415    4.4677 C   0  0  0  0  0  0  0  0  0  0  0  0
   -2.0817   -1.3391    4.7074 C   0  0  0  0  0  0  0  0  0  0  0  0
   -6.6547   -1.3767    5.3375 C   0  0  0  0  0  0  0  0  0  0  0  0
   -0.9431   -2.0460    4.7268 C   0  0  0  0  0  0  0  0  0  0  0  0
   -0.9761   -3.4179   -0.2218 H   0  0  0  0  0  0  0  0  0  0  0  0
   -1.6969    2.4615   -1.5093 H   0  0  0  0  0  0  0  0  0  0  0  0
   -4.1894   -1.6873   -0.3311 H   0  0  0  0  0  0  0  0  0  0  0  0
   -0.8514   -1.1390    2.8290 H   0  0  0  0  0  0  0  0  0  0  0  0
   -2.6943    1.7736    4.4570 H   0  0  0  0  0  0  0  0  0  0  0  0
    2.0950   -3.0505    0.6676 H   0  0  0  0  0  0  0  0  0  0  0  0
   -1.0915   -1.7801   -1.7197 H   0  0  0  0  0  0  0  0  0  0  0  0
   -2.4490    0.2189   -0.2078 H   0  0  0  0  0  0  0  0  0  0  0  0
   -0.5591    1.0884    0.8487 H   0  0  0  0  0  0  0  0  0  0  0  0
   -3.8937    1.0569   -1.7626 H   0  0  0  0  0  0  0  0  0  0  0  0
   -2.2531    0.9354   -2.5021 H   0  0  0  0  0  0  0  0  0  0  0  0
   -0.3145   -0.1444   -1.7246 H   0  0  0  0  0  0  0  0  0  0  0  0
   -0.8724   -0.7271   -0.0723 H   0  0  0  0  0  0  0  0  0  0  0  0
    0.8136   -1.1778    0.9457 H   0  0  0  0  0  0  0  0  0  0  0  0
    1.2353    1.8252   -1.3728 H   0  0  0  0  0  0  0  0  0  0  0  0
    1.3991    2.2852    0.3970 H   0  0  0  0  0  0  0  0  0  0  0  0
   -1.8724    0.1209    1.2034 H   0  0  0  0  0  0  0  0  0  0  0  0
   -4.1308    1.2704    2.1353 H   0  0  0  0  0  0  0  0  0  0  0  0
   -3.3471   -2.2043    2.6829 H   0  0  0  0  0  0  0  0  0  0  0  0
   -3.5909    3.2799    1.9232 H   0  0  0  0  0  0  0  0  0  0  0  0
   -2.2451   -4.0172   -2.7084 H   0  0  0  0  0  0  0  0  0  0  0  0
   -5.1081    0.0915   -3.6684 H   0  0  0  0  0  0  0  0  0  0  0  0
    0.5181   -2.5272   -1.5489 H   0  0  0  0  0  0  0  0  0  0  0  0
    2.1502   -1.9723   -1.5560 H   0  0  0  0  0  0  0  0  0  0  0  0
   -4.0176   -4.0913   -4.5146 H   0  0  0  0  0  0  0  0  0  0  0  0
   -5.5167   -2.0842   -4.8961 H   0  0  0  0  0  0  0  0  0  0  0  0
   -4.8438    0.3490    1.0510 H   0  0  0  0  0  0  0  0  0  0  0  0
   -6.1424   -0.5610    0.6634 H   0  0  0  0  0  0  0  0  0  0  0  0
   -0.3094    2.2739    1.8065 H   0  0  0  0  0  0  0  0  0  0  0  0
    0.2935    2.8064    3.0970 H   0  0  0  0  0  0  0  0  0  0  0  0
   -7.6267   -1.4423    2.0371 H   0  0  0  0  0  0  0  0  0  0  0  0
   -4.4739    0.5086    4.0153 H   0  0  0  0  0  0  0  0  0  0  0  0
    1.3616    0.3680    3.4935 H   0  0  0  0  0  0  0  0  0  0  0  0
   -2.8530    0.0458    3.8083 H   0  0  0  0  0  0  0  0  0  0  0  0
   -8.4147   -2.0653    4.3079 H   0  0  0  0  0  0  0  0  0  0  0  0
   -4.7359   -0.5828    5.9984 H   0  0  0  0  0  0  0  0  0  0  0  0
    1.1488   -1.9970    4.4313 H   0  0  0  0  0  0  0  0  0  0  0  0
   -3.0663   -1.8456    4.5753 H   0  0  0  0  0  0  0  0  0  0  0  0
   -6.9440   -1.6744    6.3277 H   0  0  0  0  0  0  0  0  0  0  0  0
   -1.0793   -3.1285    4.6224 H   0  0  0  0  0  0  0  0  0  0  0  0
  1 19  1  0  0  0  0
  1 20  1  0  0  0  0
  2 48  1  0  0  0  0
  3 32  1  0  0  0  0
  4 33  1  0  0  0  0
  5 49  1  0  0  0  0
  6 50  1  0  0  0  0
  7 29  1  0  0  0  0
  7 51  1  0  0  0  0
  8 25  2  0  0  0  0
  9 27  2  0  0  0  0
 10 25  1  0  0  0  0
 10 46  1  0  0  0  0
 11 27  1  0  0  0  0
 11 47  1  0  0  0  0
 12 10  1  0  0  0  0
 12 13  1  0  0  0  0
 12 16  1  0  0  0  0
 12 52  1  6  0  0  0
 13  2  1  0  0  0  0
 13 15  1  0  0  0  0
 13 53  1  1  0  0  0
 14 11  1  0  0  0  0
 14 17  1  0  0  0  0
 14 20  1  0  0  0  0
 14 54  1  1  0  0  0
 15 18  1  0  0  0  0
 15 55  1  0  0  0  0
 15 56  1  0  0  0  0
 16 18  1  0  0  0  0
 16 26  2  0  0  0  0
 17 19  1  0  0  0  0
 17 57  1  0  0  0  0
 17 58  1  0  0  0  0
 18 28  2  0  0  0  0
 19 59  1  1  0  0  0
 19 29  1  0  0  0  0
 20 60  1  0  0  0  0
 20 61  1  0  0  0  0
 21  5  1  0  0  0  0
 21 23  1  0  0  0  0
 21 62  1  6  0  0  0
 22 63  1  6  0  0  0
 22 21  1  0  0  0  0
 22  6  1  0  0  0  0
 23  3  1  0  0  0  0
 23 25  1  0  0  0  0
 23 64  1  1  0  0  0
 24 27  1  0  0  0  0
 24 65  1  1  0  0  0
 24 22  1  0  0  0  0
 24  4  1  0  0  0  0
 26 30  1  0  0  0  0
 26 66  1  0  0  0  0
 28 31  1  0  0  0  0
 28 67  1  0  0  0  0
 29 68  1  0  0  0  0
 29 69  1  0  0  0  0
 30 31  2  0  0  0  0
 30 70  1  0  0  0  0
 31 71  1  0  0  0  0
 32 34  1  0  0  0  0
 32 72  1  0  0  0  0
 32 73  1  0  0  0  0
 33 35  1  0  0  0  0
 33 74  1  0  0  0  0
 33 75  1  0  0  0  0
 34 36  2  0  0  0  0
 34 37  1  0  0  0  0
 35 38  2  0  0  0  0
 35 39  1  0  0  0  0
 36 40  1  0  0  0  0
 36 76  1  0  0  0  0
 37 41  2  0  0  0  0
 37 77  1  0  0  0  0
 38 42  1  0  0  0  0
 38 78  1  0  0  0  0
 39 43  2  0  0  0  0
 39 79  1  0  0  0  0
 40 44  2  0  0  0  0
 40 80  1  0  0  0  0
 41 44  1  0  0  0  0
 41 81  1  0  0  0  0
 42 45  2  0  0  0  0
 42 82  1  0  0  0  0
 43 45  1  0  0  0  0
 43 83  1  0  0  0  0
 44 84  1  0  0  0  0
 45 85  1  0  0  0  0
M  END
>  <DRUGBANK_ID>
DB01887

>  <SECONDARY_ACCESSION_NUMBERS>
EXPT00659

>  <COMMON_NAME>
N,N-[2,5-O-Dibenzyl-glucaryl]-DI-[1-amino-indan-2-OL]

>  <SYNONYMS>
Inhibitor BEA369

$$$$
