
 OpenBabel10282417233D

 31 28  0  0  0  0  0  0  0  0999 V2000
    2.0081    0.3359    0.6927 O   0  5  0  0  0  0  0  0  0  0  0  0
    3.2438    0.6114    0.4761 C   0  0  0  0  0  0  0  0  0  0  0  0
    3.8196    1.3526    1.5597 C   0  0  0  0  0  0  0  0  0  0  0  0
    3.0509    2.5530    0.9900 C   0  0  3  0  0  0  0  0  0  0  0  0
    1.4367    2.7926    1.1023 C   0  0  0  0  0  0  0  0  0  0  0  0
    0.6657    2.3693    0.1718 O   0  5  0  0  0  0  0  0  0  0  0  0
    4.0197    0.4401   -0.4695 O   0  0  0  0  0  0  0  0  0  0  0  0
    3.7385    3.5719    1.8273 N   0  3  0  0  0  0  0  0  0  0  0  0
    1.1619    3.5095    2.1056 O   0  0  0  0  0  0  0  0  0  0  0  0
    0.3251    0.5974   -0.4742 Zn  0  2  0  0  0  0  0  0  0  0  0  0
    0.4456   -1.3430   -0.9121 O   0  5  0  0  0  0  0  0  0  0  0  0
    1.6820   -1.1711   -1.1623 C   0  0  0  0  0  0  0  0  0  0  0  0
    2.7398   -1.9691   -0.3341 C   0  0  0  0  0  0  0  0  0  0  0  0
    2.5342   -2.2798    1.1758 C   0  0  3  0  0  0  0  0  0  0  0  0
    1.0517   -2.6074    1.4954 C   0  0  0  0  0  0  0  0  0  0  0  0
    0.3036   -1.6470    1.8539 O   0  5  0  0  0  0  0  0  0  0  0  0
    1.8802   -0.0829   -1.7856 O   0  0  0  0  0  0  0  0  0  0  0  0
    3.4667   -3.4743    1.4548 N   0  3  0  0  0  0  0  0  0  0  0  0
    0.8673   -3.8575    1.4719 O   0  0  0  0  0  0  0  0  0  0  0  0
    3.5032    0.9300    2.5133 H   0  0  0  0  0  0  0  0  0  0  0  0
    4.9086    1.3156    1.4141 H   0  0  0  0  0  0  0  0  0  0  0  0
    3.2928    2.7985   -0.0624 H   0  0  0  0  0  0  0  0  0  0  0  0
    4.7474    3.4886    1.7081 H   0  0  0  0  0  0  0  0  0  0  0  0
    3.3262    4.4794    1.6165 H   0  0  0  0  0  0  0  0  0  0  0  0
    3.4104    3.3245    2.7717 H   0  0  0  0  0  0  0  0  0  0  0  0
    2.8053   -2.8871   -0.9061 H   0  0  0  0  0  0  0  0  0  0  0  0
    3.7853   -1.6358   -0.3699 H   0  0  0  0  0  0  0  0  0  0  0  0
    2.8992   -1.5477    1.9184 H   0  0  0  0  0  0  0  0  0  0  0  0
    4.4599   -3.2390    1.4339 H   0  0  0  0  0  0  0  0  0  0  0  0
    3.1718   -3.9132    2.3360 H   0  0  0  0  0  0  0  0  0  0  0  0
    3.2096   -4.1612    0.7396 H   0  0  0  0  0  0  0  0  0  0  0  0
  1  2  1  0  0  0  0
  2  7  2  0  0  0  0
  2  3  1  0  0  0  0
  3  4  1  0  0  0  0
  3 20  1  0  0  0  0
  3 21  1  0  0  0  0
  4  5  1  0  0  0  0
  4  8  1  0  0  0  0
  4 22  1  0  0  0  0
  5  9  2  0  0  0  0
  5  6  1  0  0  0  0
  8 23  1  0  0  0  0
  8 24  1  0  0  0  0
  8 25  1  0  0  0  0
 11 12  1  0  0  0  0
 12 17  2  0  0  0  0
 12 13  1  0  0  0  0
 13 14  1  0  0  0  0
 13 26  1  0  0  0  0
 13 27  1  0  0  0  0
 14 15  1  0  0  0  0
 14 18  1  0  0  0  0
 14 28  1  0  0  0  0
 15 19  2  0  0  0  0
 15 16  1  0  0  0  0
 18 29  1  0  0  0  0
 18 30  1  0  0  0  0
 18 31  1  0  0  0  0
M  CHG  7   1  -1   6  -1   8   1  10   2  11  -1  16  -1  18   1
M  END
>  <DRUGBANK_ID>
DB16006

>  <COMMON_NAME>
Zinc DL-aspartate

>  <CAS_NUMBER>
15281-32-0

>  <UNII>
T967Q579KA

$$$$
