
 OpenBabel10282417123D

 43 43  0  0  0  0  0  0  0  0999 V2000
    0.8474   -0.2394   -0.1585 N   0  0  0  0  0  0  0  0  0  0  0  0
    0.2123   -1.2861    0.6728 C   0  0  0  0  0  0  0  0  0  0  0  0
    0.3585   -1.4197    2.2189 C   0  0  0  0  0  0  0  0  0  0  0  0
    0.4421   -0.2407    2.9858 O   0  0  0  0  0  0  0  0  0  0  0  0
    0.9770    0.9716    2.5034 C   0  0  0  0  0  0  0  0  0  0  0  0
    2.4873    1.0111    2.2496 C   0  0  0  0  0  0  0  0  0  0  0  0
    2.9680    0.0141    1.3718 O   0  0  0  0  0  0  0  0  0  0  0  0
    3.1143   -1.3236    1.8062 C   0  0  0  0  0  0  0  0  0  0  0  0
    3.2406   -1.6441    3.3371 C   0  0  0  0  0  0  0  0  0  0  0  0
    2.6157   -0.7994    4.4148 N   0  0  0  0  0  0  0  0  0  0  0  0
    1.6849   -1.0152    5.4130 C   0  0  0  0  0  0  0  0  0  0  0  0
    1.2656   -0.0779    6.0769 O   0  0  0  0  0  0  0  0  0  0  0  0
    1.3064   -2.3881    5.7779 C   0  0  0  0  0  0  0  0  0  0  0  0
    2.3217   -3.3419    5.8172 C   0  0  0  0  0  0  0  0  0  0  0  0
    2.0526   -4.6397    6.2140 C   0  0  0  0  0  0  0  0  0  0  0  0
    0.7753   -4.9665    6.6663 C   0  0  0  0  0  0  0  0  0  0  0  0
   -0.2312   -3.9909    6.7282 C   0  0  0  0  0  0  0  0  0  0  0  0
    0.0193   -2.7049    6.2263 C   0  0  0  0  0  0  0  0  0  0  0  0
    0.3903   -6.6649    7.0020 S   0  0  0  0  0  0  0  0  0  0  0  0
   -0.0305   -6.6871    8.6302 N   0  0  0  0  0  0  0  0  0  0  0  0
   -0.7496   -7.0350    6.2409 O   0  0  0  0  0  0  0  0  0  0  0  0
    1.6485   -7.4284    6.9337 O   0  0  0  0  0  0  0  0  0  0  0  0
    0.4274    0.6714   -0.0049 H   0  0  0  0  0  0  0  0  0  0  0  0
    1.8438   -0.1094    0.0760 H   0  0  0  0  0  0  0  0  0  0  0  0
   -0.8503   -1.2607    0.4649 H   0  0  0  0  0  0  0  0  0  0  0  0
    0.6282   -2.1982    0.2237 H   0  0  0  0  0  0  0  0  0  0  0  0
    0.7906   -2.4365    2.4014 H   0  0  0  0  0  0  0  0  0  0  0  0
   -0.4272   -1.8140    2.8658 H   0  0  0  0  0  0  0  0  0  0  0  0
    0.4090    1.3193    1.6462 H   0  0  0  0  0  0  0  0  0  0  0  0
    0.7414    1.7281    3.2573 H   0  0  0  0  0  0  0  0  0  0  0  0
    2.7213    1.9719    1.7858 H   0  0  0  0  0  0  0  0  0  0  0  0
    3.1072    1.0598    3.1365 H   0  0  0  0  0  0  0  0  0  0  0  0
    3.9023   -1.5277    1.0768 H   0  0  0  0  0  0  0  0  0  0  0  0
    2.6710   -2.2447    1.3487 H   0  0  0  0  0  0  0  0  0  0  0  0
    2.8009   -2.6379    3.4540 H   0  0  0  0  0  0  0  0  0  0  0  0
    4.3007   -1.6810    3.5654 H   0  0  0  0  0  0  0  0  0  0  0  0
    2.8911    0.1624    4.5351 H   0  0  0  0  0  0  0  0  0  0  0  0
    3.3314   -3.0750    5.5229 H   0  0  0  0  0  0  0  0  0  0  0  0
    2.8528   -5.3726    6.1603 H   0  0  0  0  0  0  0  0  0  0  0  0
   -1.2013   -4.2266    7.1576 H   0  0  0  0  0  0  0  0  0  0  0  0
   -0.7793   -1.9642    6.1798 H   0  0  0  0  0  0  0  0  0  0  0  0
   -0.3374   -7.6358    8.8682 H   0  0  0  0  0  0  0  0  0  0  0  0
    0.7318   -6.3958    9.2391 H   0  0  0  0  0  0  0  0  0  0  0  0
  1  2  1  0  0  0  0
  1 23  1  0  0  0  0
  1 24  1  0  0  0  0
  2  3  1  0  0  0  0
  2 25  1  0  0  0  0
  2 26  1  0  0  0  0
  3  4  1  0  0  0  0
  3 27  1  0  0  0  0
  3 28  1  0  0  0  0
  4  5  1  0  0  0  0
  5  6  1  0  0  0  0
  5 29  1  0  0  0  0
  5 30  1  0  0  0  0
  6  7  1  0  0  0  0
  6 31  1  0  0  0  0
  6 32  1  0  0  0  0
  7  8  1  0  0  0  0
  8  9  1  0  0  0  0
  8 33  1  0  0  0  0
  8 34  1  0  0  0  0
  9 10  1  0  0  0  0
  9 35  1  0  0  0  0
  9 36  1  0  0  0  0
 10 11  1  0  0  0  0
 10 37  1  0  0  0  0
 11 12  2  0  0  0  0
 11 13  1  0  0  0  0
 13 14  2  0  0  0  0
 13 18  1  0  0  0  0
 14 15  1  0  0  0  0
 14 38  1  0  0  0  0
 15 16  2  0  0  0  0
 15 39  1  0  0  0  0
 16 17  1  0  0  0  0
 16 19  1  0  0  0  0
 17 18  2  0  0  0  0
 17 40  1  0  0  0  0
 18 41  1  0  0  0  0
 19 20  1  0  0  0  0
 19 21  2  0  0  0  0
 19 22  2  0  0  0  0
 20 42  1  0  0  0  0
 20 43  1  0  0  0  0
M  END
>  <DRUGBANK_ID>
DB02535

>  <SECONDARY_ACCESSION_NUMBERS>
EXPT01328

>  <COMMON_NAME>
Aminodi(Ethyloxy)Ethylaminocarbonylbenzenesulfonamide

>  <UNII>
P7AMK4J5SW

$$$$
