5BP
 OpenBabel10282417163D

 31 34  0  0  0  0  0  0  0  0999 V2000
    1.4890    1.0841    0.0119 N   0  0  0  0  0  0  0  0  0  0  0  0
    0.2672   -0.8272    0.0385 C   0  0  0  0  0  0  0  0  0  0  0  0
   -0.9729   -1.4960    0.0143 C   0  0  0  0  0  0  0  0  0  0  0  0
   -2.1020   -0.7664    0.0014 C   0  0  0  0  0  0  0  0  0  0  0  0
   -1.9484    0.7077   -0.0033 C   0  0  0  0  0  0  0  0  0  0  0  0
    2.0894   -2.5788   -0.0019 C   0  0  0  0  0  0  0  0  0  0  0  0
    1.8305   -3.3099   -1.1363 C   0  0  0  0  0  0  0  0  0  0  0  0
    4.4659   -6.1727    2.3208 C   0  0  0  0  0  0  0  0  0  0  0  0
    2.2964    0.0181    0.0555 C   0  0  0  0  0  0  0  0  0  0  0  0
    1.5964   -1.2116    0.0842 C   0  0  0  0  0  0  0  0  0  0  0  0
   -0.8347    1.3652   -0.0019 N   0  0  0  0  0  0  0  0  0  0  0  0
    0.2545    0.5559    0.0240 N   0  0  0  0  0  0  0  0  0  0  0  0
    2.8576   -3.0546    1.0040 N   0  0  0  0  0  0  0  0  0  0  0  0
    3.3718   -4.3028    0.8609 C   0  0  0  0  0  0  0  0  0  0  0  0
    3.3024   -4.9953   -0.2778 N   0  0  0  0  0  0  0  0  0  0  0  0
    2.5547   -4.4669   -1.2613 C   0  0  0  0  0  0  0  0  0  0  0  0
    3.9584   -4.8468    1.9996 N   0  0  0  0  0  0  0  0  0  0  0  0
    4.1886   -7.5619    1.8308 C   0  0  0  0  0  0  0  0  0  0  0  0
    5.4694   -6.8830    1.4475 C   0  0  0  0  0  0  0  0  0  0  0  0
   -1.0074   -2.5770    0.0234 H   0  0  0  0  0  0  0  0  0  0  0  0
   -3.0882   -1.2023   -0.0005 H   0  0  0  0  0  0  0  0  0  0  0  0
   -2.9011    1.2674   -0.0116 H   0  0  0  0  0  0  0  0  0  0  0  0
    1.1590   -2.9721   -1.9130 H   0  0  0  0  0  0  0  0  0  0  0  0
    4.5945   -6.2044    3.4025 H   0  0  0  0  0  0  0  0  0  0  0  0
    3.3668    0.1816    0.0299 H   0  0  0  0  0  0  0  0  0  0  0  0
    2.5706   -5.0149   -2.1972 H   0  0  0  0  0  0  0  0  0  0  0  0
    3.9290   -4.1417    2.7263 H   0  0  0  0  0  0  0  0  0  0  0  0
    4.2864   -8.3708    2.5561 H   0  0  0  0  0  0  0  0  0  0  0  0
    3.4699   -7.7778    1.0541 H   0  0  0  0  0  0  0  0  0  0  0  0
    5.5650   -6.6764    0.3874 H   0  0  0  0  0  0  0  0  0  0  0  0
    6.4021   -7.1660    1.9211 H   0  0  0  0  0  0  0  0  0  0  0  0
  1 12  1  0  0  0  0
  2 12  1  0  0  0  0
  2  3  1  0  0  0  0
  3  4  2  0  0  0  0
  3 20  1  0  0  0  0
  4  5  1  0  0  0  0
  4 21  1  0  0  0  0
  5 22  1  0  0  0  0
  6 13  1  0  0  0  0
  6 10  1  0  0  0  0
  7  6  2  0  0  0  0
  7 23  1  0  0  0  0
  8 19  1  0  0  0  0
  8 18  1  0  0  0  0
  8 24  1  0  0  0  0
  9  1  2  0  0  0  0
  9 10  1  0  0  0  0
  9 25  1  0  0  0  0
 10  2  2  0  0  0  0
 11  5  2  0  0  0  0
 12 11  1  0  0  0  0
 14 13  2  0  0  0  0
 14 17  1  0  0  0  0
 15 14  1  0  0  0  0
 16  7  1  0  0  0  0
 16 15  2  0  0  0  0
 16 26  1  0  0  0  0
 17  8  1  0  0  0  0
 17 27  1  0  0  0  0
 18 28  1  0  0  0  0
 18 29  1  0  0  0  0
 19 18  1  0  0  0  0
 19 30  1  0  0  0  0
 19 31  1  0  0  0  0
M  END
>  <DRUGBANK_ID>
DB07164

>  <COMMON_NAME>
N-cyclopropyl-4-pyrazolo[1,5-b]pyridazin-3-ylpyrimidin-2-amine

$$$$
