1514
 OpenBabel10282417113D

 54 58  0  0  1  0  0  0  0  0999 V2000
    0.5685    0.2495    0.5271 O   0  0  0  0  0  0  0  0  0  0  0  0
   -7.0162   -7.9188    3.3991 O   0  0  0  0  0  0  0  0  0  0  0  0
   -7.0418   -7.5039    2.0546 N   0  0  0  0  0  0  0  0  0  0  0  0
   -5.7131   -8.1406    3.8717 N   0  0  0  0  0  0  0  0  0  0  0  0
   -0.8754   -2.8858    1.2198 C   0  0  2  0  0  0  0  0  0  0  0  0
   -1.2022   -1.4496    1.5776 C   0  0  1  0  0  0  0  0  0  0  0  0
   -1.6458   -4.0544    1.7709 C   0  0  1  0  0  0  0  0  0  0  0  0
   -3.2004   -3.9603    1.4013 C   0  0  1  0  0  0  0  0  0  0  0  0
   -4.0829   -5.4014    1.6628 C   0  0  2  0  0  0  0  0  0  0  0  0
   -0.2318   -0.8989    0.2687 C   0  0  2  0  0  0  0  0  0  0  0  0
   -2.7850   -1.3488    1.6220 C   0  0  0  0  0  0  0  0  0  0  0  0
   -3.5255   -2.6112    2.2199 C   0  0  0  0  0  0  0  0  0  0  0  0
   -3.0225   -6.5701    1.9020 C   0  0  1  0  0  0  0  0  0  0  0  0
    0.6667   -2.8624    1.2280 C   0  0  0  0  0  0  0  0  0  0  0  0
   -1.0556   -5.2541    1.0945 C   0  0  0  0  0  0  0  0  0  0  0  0
    0.8285   -2.0771   -0.0405 C   0  0  0  0  0  0  0  0  0  0  0  0
   -1.5108   -6.4266    1.8860 C   0  0  0  0  0  0  0  0  0  0  0  0
   -5.1013   -6.4842    0.6786 C   0  0  0  0  0  0  0  0  0  0  0  0
   -0.7593   -1.1371    3.0548 C   0  0  0  0  0  0  0  0  0  0  0  0
   -5.2339   -4.9152    2.5978 C   0  0  0  0  0  0  0  0  0  0  0  0
   -3.4743   -7.7319    2.8113 C   0  0  0  0  0  0  0  0  0  0  0  0
   -1.1024   -0.6926   -0.9836 C   0  0  0  0  0  0  0  0  0  0  0  0
   -5.7271   -7.4302    1.7288 C   0  0  0  0  0  0  0  0  0  0  0  0
   -4.9457   -7.8927    2.7913 C   0  0  0  0  0  0  0  0  0  0  0  0
   -1.2163   -2.9692    0.1733 H   0  0  0  0  0  0  0  0  0  0  0  0
   -1.4834   -4.0922    2.8572 H   0  0  0  0  0  0  0  0  0  0  0  0
   -3.3456   -3.7109    0.3449 H   0  0  0  0  0  0  0  0  0  0  0  0
   -2.9982   -7.0003    0.8902 H   0  0  0  0  0  0  0  0  0  0  0  0
    1.4416    0.1154    0.0977 H   0  0  0  0  0  0  0  0  0  0  0  0
   -3.0799   -0.4649    2.2124 H   0  0  0  0  0  0  0  0  0  0  0  0
   -3.2547   -1.2000    0.6543 H   0  0  0  0  0  0  0  0  0  0  0  0
   -3.2320   -2.7215    3.2803 H   0  0  0  0  0  0  0  0  0  0  0  0
   -4.5942   -2.3716    2.2299 H   0  0  0  0  0  0  0  0  0  0  0  0
    1.2034   -3.8017    1.2846 H   0  0  0  0  0  0  0  0  0  0  0  0
    1.1324   -2.2470    2.0045 H   0  0  0  0  0  0  0  0  0  0  0  0
    0.0338   -5.2721    1.1064 H   0  0  0  0  0  0  0  0  0  0  0  0
   -1.3396   -5.2635    0.0323 H   0  0  0  0  0  0  0  0  0  0  0  0
    0.5438   -2.7276   -0.8860 H   0  0  0  0  0  0  0  0  0  0  0  0
    1.8758   -1.8025   -0.2107 H   0  0  0  0  0  0  0  0  0  0  0  0
   -1.1011   -6.3876    2.8953 H   0  0  0  0  0  0  0  0  0  0  0  0
   -1.0689   -7.2990    1.3849 H   0  0  0  0  0  0  0  0  0  0  0  0
   -4.5444   -7.2130    0.0513 H   0  0  0  0  0  0  0  0  0  0  0  0
   -5.8513   -6.0516    0.0186 H   0  0  0  0  0  0  0  0  0  0  0  0
   -1.1142   -1.9440    3.7147 H   0  0  0  0  0  0  0  0  0  0  0  0
    0.3125   -1.0536    3.2478 H   0  0  0  0  0  0  0  0  0  0  0  0
   -1.2100   -0.2193    3.4516 H   0  0  0  0  0  0  0  0  0  0  0  0
   -6.0948   -4.6462    1.9563 H   0  0  0  0  0  0  0  0  0  0  0  0
   -5.5852   -5.6207    3.3400 H   0  0  0  0  0  0  0  0  0  0  0  0
   -5.0330   -4.0454    3.2041 H   0  0  0  0  0  0  0  0  0  0  0  0
   -3.0496   -8.6493    2.3842 H   0  0  0  0  0  0  0  0  0  0  0  0
   -3.0673   -7.5951    3.8140 H   0  0  0  0  0  0  0  0  0  0  0  0
   -2.1461   -0.6690   -0.7012 H   0  0  0  0  0  0  0  0  0  0  0  0
   -0.9289    0.2450   -1.5118 H   0  0  0  0  0  0  0  0  0  0  0  0
   -1.0410   -1.5298   -1.6906 H   0  0  0  0  0  0  0  0  0  0  0  0
  1 29  1  0  0  0  0
  2  3  1  0  0  0  0
  2  4  1  0  0  0  0
  3 23  2  0  0  0  0
  4 24  2  0  0  0  0
  5  6  1  0  0  0  0
  5  7  1  0  0  0  0
  5 14  1  0  0  0  0
  5 25  1  6  0  0  0
  6 10  1  0  0  0  0
  6 11  1  0  0  0  0
  6 19  1  1  0  0  0
  7  8  1  0  0  0  0
  7 15  1  0  0  0  0
  7 26  1  1  0  0  0
  8  9  1  0  0  0  0
  8 12  1  0  0  0  0
  8 27  1  6  0  0  0
  9 13  1  0  0  0  0
  9 18  1  0  0  0  0
  9 20  1  1  0  0  0
 10  1  1  1  0  0  0
 10 16  1  0  0  0  0
 10 22  1  0  0  0  0
 11 12  1  0  0  0  0
 11 30  1  0  0  0  0
 11 31  1  0  0  0  0
 12 32  1  0  0  0  0
 12 33  1  0  0  0  0
 13 17  1  0  0  0  0
 13 21  1  0  0  0  0
 13 28  1  6  0  0  0
 14 16  1  0  0  0  0
 14 34  1  0  0  0  0
 14 35  1  0  0  0  0
 15 17  1  0  0  0  0
 15 36  1  0  0  0  0
 15 37  1  0  0  0  0
 16 38  1  0  0  0  0
 16 39  1  0  0  0  0
 17 40  1  0  0  0  0
 17 41  1  0  0  0  0
 18 23  1  0  0  0  0
 18 42  1  0  0  0  0
 18 43  1  0  0  0  0
 19 44  1  0  0  0  0
 19 45  1  0  0  0  0
 19 46  1  0  0  0  0
 20 47  1  0  0  0  0
 20 48  1  0  0  0  0
 20 49  1  0  0  0  0
 21 24  1  0  0  0  0
 21 50  1  0  0  0  0
 21 51  1  0  0  0  0
 22 52  1  0  0  0  0
 22 53  1  0  0  0  0
 22 54  1  0  0  0  0
 23 24  1  0  0  0  0
M  END
>  <DRUGBANK_ID>
DB01514

>  <COMMON_NAME>
Furazabol

>  <CAS_NUMBER>
1239-29-8

>  <UNII>
2W07HSP5PX

>  <SYNONYMS>
Furazabol

$$$$
