
 OpenBabel10282417233D

 56 58  0  0  1  0  0  0  0  0999 V2000
    4.9594   -5.1738    1.5395 N   0  0  0  0  0  0  0  0  0  0  0  0
    4.4952   -4.4017    0.3779 C   0  0  0  0  0  0  0  0  0  0  0  0
    2.9777   -4.4538    0.3086 C   0  0  0  0  0  0  0  0  0  0  0  0
    2.4110   -3.8791    1.5372 N   0  0  0  0  0  0  0  0  0  0  0  0
    0.9435   -3.9304    1.4689 C   0  0  1  0  0  0  0  0  0  0  0  0
    0.5302   -5.0274    0.4914 C   0  0  0  0  0  0  0  0  0  0  0  0
    0.9759   -6.3969    0.9831 C   0  0  0  0  0  0  0  0  0  0  0  0
    0.4144   -6.7049    2.3654 C   0  0  2  0  0  0  0  0  0  0  0  0
   -1.1028   -6.7541    2.2874 C   0  0  0  0  0  0  0  0  0  0  0  0
   -1.5249   -7.8374    1.3083 C   0  0  0  0  0  0  0  0  0  0  0  0
   -2.2459   -8.8062    1.7045 O   0  0  0  0  0  0  0  0  0  0  0  0
   -1.0993   -7.7646   -0.0969 N   0  0  0  0  0  0  0  0  0  0  0  0
   -0.2654   -6.6441   -0.5551 C   0  0  1  0  0  0  0  0  0  0  0  0
   -0.8461   -5.3514    0.0135 C   0  0  0  0  0  0  0  0  0  0  0  0
    0.0693   -4.1887   -0.2708 C   0  0  0  0  0  0  0  0  0  0  0  0
   -0.4582   -2.9124   -0.1570 C   0  0  0  0  0  0  0  0  0  0  0  0
    0.3365   -1.7953   -0.4052 C   0  0  0  0  0  0  0  0  0  0  0  0
    1.6757   -1.9702   -0.7602 C   0  0  0  0  0  0  0  0  0  0  0  0
    2.1895   -3.2426   -0.8680 C   0  0  0  0  0  0  0  0  0  0  0  0
    3.6464   -3.4339   -1.2568 C   0  0  0  0  0  0  0  0  0  0  0  0
    4.4689   -2.3036   -1.5064 O   0  0  0  0  0  0  0  0  0  0  0  0
    4.1285   -4.6054   -1.3586 O   0  0  0  0  0  0  0  0  0  0  0  0
    1.3911   -4.3555   -0.6253 C   0  0  0  0  0  0  0  0  0  0  0  0
    2.0251   -5.7143   -0.7703 O   0  0  0  0  0  0  0  0  0  0  0  0
    1.1824   -6.7784   -0.0696 B   0  0  0  0  0  0  0  0  0  0  0  0
    1.6856   -7.7833    0.9239 O   0  0  0  0  0  0  0  0  0  0  0  0
    0.8282   -5.6217    3.3490 C   0  0  0  0  0  0  0  0  0  0  0  0
    0.3950   -4.2421    2.8671 C   0  0  0  0  0  0  0  0  0  0  0  0
    4.5662   -4.7750    2.3920 H   0  0  0  0  0  0  0  0  0  0  0  0
    4.6564   -6.1433    1.4464 H   0  0  0  0  0  0  0  0  0  0  0  0
    4.8130   -3.3847    0.4755 H   0  0  0  0  0  0  0  0  0  0  0  0
    4.9077   -4.8200   -0.5164 H   0  0  0  0  0  0  0  0  0  0  0  0
    2.6397   -3.8918   -0.5369 H   0  0  0  0  0  0  0  0  0  0  0  0
    2.6598   -5.4708    0.2110 H   0  0  0  0  0  0  0  0  0  0  0  0
    2.7331   -4.4148    2.3432 H   0  0  0  0  0  0  0  0  0  0  0  0
    0.5868   -2.9799    1.1310 H   0  0  0  0  0  0  0  0  0  0  0  0
   -0.5367   -5.0263    0.4110 H   0  0  0  0  0  0  0  0  0  0  0  0
    0.9797   -4.8347   -0.4603 H   0  0  0  0  0  0  0  0  0  0  0  0
    0.6087   -7.1342    0.3001 H   0  0  0  0  0  0  0  0  0  0  0  0
    2.0447   -6.4185    1.0295 H   0  0  0  0  0  0  0  0  0  0  0  0
    0.7919   -7.6490    2.6987 H   0  0  0  0  0  0  0  0  0  0  0  0
   -1.5028   -6.9728    3.2554 H   0  0  0  0  0  0  0  0  0  0  0  0
   -1.4737   -5.8076    1.9537 H   0  0  0  0  0  0  0  0  0  0  0  0
   -1.3826   -8.4916   -0.7539 H   0  0  0  0  0  0  0  0  0  0  0  0
   -0.2621   -6.6406   -1.6251 H   0  0  0  0  0  0  0  0  0  0  0  0
   -1.7930   -5.1660   -0.4489 H   0  0  0  0  0  0  0  0  0  0  0  0
   -0.9648   -5.4549    1.0718 H   0  0  0  0  0  0  0  0  0  0  0  0
   -1.4828   -2.7839    0.1233 H   0  0  0  0  0  0  0  0  0  0  0  0
   -0.0760   -0.8113   -0.3244 H   0  0  0  0  0  0  0  0  0  0  0  0
    2.2985   -1.1205   -0.9471 H   0  0  0  0  0  0  0  0  0  0  0  0
    4.0897   -1.3817   -1.4264 H   0  0  0  0  0  0  0  0  0  0  0  0
    0.9276   -8.3606    1.2272 H   0  0  0  0  0  0  0  0  0  0  0  0
    0.3519   -5.8171    4.2870 H   0  0  0  0  0  0  0  0  0  0  0  0
    1.8928   -5.6355    3.4553 H   0  0  0  0  0  0  0  0  0  0  0  0
    0.7844   -3.5141    3.5477 H   0  0  0  0  0  0  0  0  0  0  0  0
   -0.6739   -4.2057    2.8361 H   0  0  0  0  0  0  0  0  0  0  0  0
  1  2  1  0  0  0  0
  1 29  1  0  0  0  0
  1 30  1  0  0  0  0
  2  3  1  0  0  0  0
  2 31  1  0  0  0  0
  2 32  1  0  0  0  0
  3  4  1  0  0  0  0
  3 33  1  0  0  0  0
  3 34  1  0  0  0  0
  4 35  1  0  0  0  0
  5  6  1  0  0  0  0
  5 28  1  0  0  0  0
  5 36  1  6  0  0  0
  5  4  1  0  0  0  0
  6  7  1  0  0  0  0
  6 37  1  0  0  0  0
  6 38  1  0  0  0  0
  7 39  1  0  0  0  0
  7 40  1  0  0  0  0
  8  7  1  0  0  0  0
  8  9  1  0  0  0  0
  8 27  1  0  0  0  0
  8 41  1  1  0  0  0
  9 10  1  0  0  0  0
  9 42  1  0  0  0  0
  9 43  1  0  0  0  0
 10 11  2  0  0  0  0
 10 12  1  0  0  0  0
 12 44  1  0  0  0  0
 13 12  1  0  0  0  0
 13 14  1  0  0  0  0
 13 25  1  0  0  0  0
 13 45  1  6  0  0  0
 14 15  1  0  0  0  0
 14 46  1  0  0  0  0
 14 47  1  0  0  0  0
 15 16  2  0  0  0  0
 15 23  1  0  0  0  0
 16 17  1  0  0  0  0
 16 48  1  0  0  0  0
 17 18  2  0  0  0  0
 17 49  1  0  0  0  0
 18 19  1  0  0  0  0
 18 50  1  0  0  0  0
 19 20  1  0  0  0  0
 19 23  2  0  0  0  0
 20 21  1  0  0  0  0
 20 22  2  0  0  0  0
 21 51  1  0  0  0  0
 23 24  1  0  0  0  0
 24 25  1  0  0  0  0
 25 26  1  0  0  0  0
 26 52  1  0  0  0  0
 27 28  1  0  0  0  0
 27 53  1  0  0  0  0
 27 54  1  0  0  0  0
 28 55  1  0  0  0  0
 28 56  1  0  0  0  0
M  END
>  <DRUGBANK_ID>
DB16338

>  <COMMON_NAME>
Taniborbactam

>  <CAS_NUMBER>
1613267-49-4

>  <UNII>
8IGQ156Z07

>  <SYNONYMS>
Taniborbactam

$$$$
