TTL
 OpenBabel10282417173D

 25 26  0  0  0  0  0  0  0  0999 V2000
    0.9666   -0.0376    0.0874 O   0  0  0  0  0  0  0  0  0  0  0  0
    0.4778    0.4382    1.3423 C   0  0  1  0  0  0  0  0  0  0  0  0
    0.0705    1.8881    1.1829 C   0  0  0  0  0  0  0  0  0  0  0  0
    1.0682    2.8773    1.1717 C   0  0  0  0  0  0  0  0  0  0  0  0
    0.7262    4.2239    1.0525 C   0  0  0  0  0  0  0  0  0  0  0  0
   -0.6079    4.5987    0.9469 C   0  0  0  0  0  0  0  0  0  0  0  0
   -1.6103    3.6283    0.9475 C   0  0  0  0  0  0  0  0  0  0  0  0
   -1.2813    2.2686    1.0450 C   0  0  0  0  0  0  0  0  0  0  0  0
   -2.4063    1.2563    1.0603 C   0  0  0  0  0  0  0  0  0  0  0  0
   -1.9094   -0.1773    0.8880 C   0  0  0  0  0  0  0  0  0  0  0  0
   -0.7063   -0.4554    1.8008 C   0  0  2  0  0  0  0  0  0  0  0  0
   -1.0620   -0.2545    3.2230 N   0  0  0  0  0  0  0  0  0  0  0  0
    1.2894    0.3501    2.0763 H   0  0  0  0  0  0  0  0  0  0  0  0
   -0.4222   -1.5075    1.6781 H   0  0  0  0  0  0  0  0  0  0  0  0
    1.9344    0.0357    0.1102 H   0  0  0  0  0  0  0  0  0  0  0  0
    2.1147    2.6011    1.2592 H   0  0  0  0  0  0  0  0  0  0  0  0
    1.5066    4.9814    1.0444 H   0  0  0  0  0  0  0  0  0  0  0  0
   -0.8748    5.6488    0.8596 H   0  0  0  0  0  0  0  0  0  0  0  0
   -2.6499    3.9347    0.8711 H   0  0  0  0  0  0  0  0  0  0  0  0
   -3.1283    1.4843    0.2678 H   0  0  0  0  0  0  0  0  0  0  0  0
   -2.9419    1.3464    2.0143 H   0  0  0  0  0  0  0  0  0  0  0  0
   -1.6143   -0.3270   -0.1602 H   0  0  0  0  0  0  0  0  0  0  0  0
   -2.7229   -0.8855    1.0815 H   0  0  0  0  0  0  0  0  0  0  0  0
   -0.2354   -0.3991    3.8013 H   0  0  0  0  0  0  0  0  0  0  0  0
   -1.3039    0.7294    3.3653 H   0  0  0  0  0  0  0  0  0  0  0  0
  1 15  1  0  0  0  0
  2  1  1  0  0  0  0
  2  3  1  0  0  0  0
  2 11  1  0  0  0  0
  2 13  1  1  0  0  0
  3  4  2  0  0  0  0
  3  8  1  0  0  0  0
  4  5  1  0  0  0  0
  4 16  1  0  0  0  0
  5  6  2  0  0  0  0
  5 17  1  0  0  0  0
  6  7  1  0  0  0  0
  6 18  1  0  0  0  0
  7  8  2  0  0  0  0
  7 19  1  0  0  0  0
  8  9  1  0  0  0  0
  9 10  1  0  0  0  0
  9 20  1  0  0  0  0
  9 21  1  0  0  0  0
 10 11  1  0  0  0  0
 10 22  1  0  0  0  0
 10 23  1  0  0  0  0
 11 12  1  0  0  0  0
 11 14  1  6  0  0  0
 12 24  1  0  0  0  0
 12 25  1  0  0  0  0
M  END
>  <DRUGBANK_ID>
DB08654

>  <COMMON_NAME>
TRANS-(1S,2S)-2-AMINO-1,2,3,4-TETRAHYDRONAPHTHALEN-1-OL

$$$$
