
 OpenBabel10282417183D

 55 58  0  0  0  0  0  0  0  0999 V2000
    0.2588   -0.2035    0.1087 C   0  0  1  0  0  0  0  0  0  0  0  0
   -0.3210    0.4710   -1.1570 C   0  0  2  0  0  0  0  0  0  0  0  0
    1.7631    0.2195    0.3062 C   0  0  2  0  0  0  0  0  0  0  0  0
   -0.0603    1.8859   -1.2446 O   0  0  0  0  0  0  0  0  0  0  0  0
    1.2943    2.3475   -1.1171 C   0  0  2  0  0  0  0  0  0  0  0  0
   -0.5490    0.0676    1.2768 O   0  0  0  0  0  0  0  0  0  0  0  0
   -1.7367    0.2201   -1.3191 O   0  0  0  0  0  0  0  0  0  0  0  0
    0.1262   -1.7312    0.2308 C   0  0  1  0  0  0  0  0  0  0  0  0
   -2.4277    0.0816   -0.0718 C   0  0  2  0  0  0  0  0  0  0  0  0
    2.0871    1.6515   -0.0513 C   0  0  2  0  0  0  0  0  0  0  0  0
   -1.7631    0.7913    0.9481 O   0  0  0  0  0  0  0  0  0  0  0  0
    2.7751   -0.5694   -0.4832 C   0  0  0  0  0  0  0  0  0  0  0  0
   -1.3047   -2.2199   -0.1232 C   0  0  0  0  0  0  0  0  0  0  0  0
    1.3395    3.8164   -0.8156 O   0  0  0  0  0  0  0  0  0  0  0  0
    1.2219   -2.4795   -0.5391 C   0  0  1  0  0  0  0  0  0  0  0  0
    2.6250   -2.0131   -0.1726 C   0  0  0  0  0  0  0  0  0  0  0  0
   -2.4986   -1.3881    0.3831 C   0  0  0  0  0  0  0  0  0  0  0  0
   -3.8197    0.7030   -0.1967 C   0  0  0  0  0  0  0  0  0  0  0  0
    3.5627    2.0603    0.0607 C   0  0  0  0  0  0  0  0  0  0  0  0
    1.1750   -3.9634   -0.2412 C   0  0  0  0  0  0  0  0  0  0  0  0
    0.1526    0.0050   -2.0241 H   0  0  0  0  0  0  0  0  0  0  0  0
    0.2735   -1.9850    1.3004 H   0  0  0  0  0  0  0  0  0  0  0  0
    2.0251    0.0791    1.3679 H   0  0  0  0  0  0  0  0  0  0  0  0
    1.8003    4.6036    0.1994 C   0  0  0  0  0  0  0  0  0  0  0  0
    2.0235    5.7939   -0.0547 O   0  0  0  0  0  0  0  0  0  0  0  0
    2.2048    4.1431    1.6150 C   0  0  0  0  0  0  0  0  0  0  0  0
    1.2337    3.5360    2.5899 C   0  0  0  0  0  0  0  0  0  0  0  0
    0.2031    2.6039    2.0923 C   0  0  0  0  0  0  0  0  0  0  0  0
    0.5040    1.4309    2.7437 O   0  0  0  0  0  0  0  0  0  0  0  0
   -0.5701    2.8439    1.2203 O   0  0  0  0  0  0  0  0  0  0  0  0
    1.7766    2.2182   -2.0964 H   0  0  0  0  0  0  0  0  0  0  0  0
    1.6999    2.1157    0.7995 H   0  0  0  0  0  0  0  0  0  0  0  0
    3.7885   -0.2993   -0.1673 H   0  0  0  0  0  0  0  0  0  0  0  0
    2.6876   -0.3414   -1.5508 H   0  0  0  0  0  0  0  0  0  0  0  0
   -1.3777   -2.2675   -1.2134 H   0  0  0  0  0  0  0  0  0  0  0  0
   -1.4395   -3.2334    0.2633 H   0  0  0  0  0  0  0  0  0  0  0  0
    1.0639   -2.2969   -1.6072 H   0  0  0  0  0  0  0  0  0  0  0  0
    2.8327   -2.1646    0.8971 H   0  0  0  0  0  0  0  0  0  0  0  0
    3.3933   -2.5482   -0.7355 H   0  0  0  0  0  0  0  0  0  0  0  0
   -3.4185   -1.8562    0.0179 H   0  0  0  0  0  0  0  0  0  0  0  0
   -2.5484   -1.4433    1.4835 H   0  0  0  0  0  0  0  0  0  0  0  0
   -3.7458    1.7686   -0.4502 H   0  0  0  0  0  0  0  0  0  0  0  0
   -4.3987    0.2206   -0.9895 H   0  0  0  0  0  0  0  0  0  0  0  0
   -4.3811    0.6466    0.7448 H   0  0  0  0  0  0  0  0  0  0  0  0
    3.6950    3.1239   -0.1456 H   0  0  0  0  0  0  0  0  0  0  0  0
    3.8580    1.8408    1.0984 H   0  0  0  0  0  0  0  0  0  0  0  0
    4.2846    1.5928   -0.5987 H   0  0  0  0  0  0  0  0  0  0  0  0
    0.2131   -4.3896   -0.5208 H   0  0  0  0  0  0  0  0  0  0  0  0
    1.9555   -4.4751   -0.8077 H   0  0  0  0  0  0  0  0  0  0  0  0
    1.3448   -4.1452    0.8271 H   0  0  0  0  0  0  0  0  0  0  0  0
    3.1285    3.5683    1.6443 H   0  0  0  0  0  0  0  0  0  0  0  0
    2.6114    5.0162    2.1403 H   0  0  0  0  0  0  0  0  0  0  0  0
    1.8451    2.9358    3.2792 H   0  0  0  0  0  0  0  0  0  0  0  0
    0.6572    4.2677    3.1337 H   0  0  0  0  0  0  0  0  0  0  0  0
    0.0672    0.6366    2.3781 H   0  0  0  0  0  0  0  0  0  0  0  0
  1  6  1  1  0  0  0
  2  1  1  0  0  0  0
  2  4  1  0  0  0  0
  2 21  1  6  0  0  0
  3  1  1  0  0  0  0
  3 23  1  1  0  0  0
  5 10  1  0  0  0  0
  5  4  1  0  0  0  0
  5 31  1  6  0  0  0
  5 14  1  0  0  0  0
  7  2  1  0  0  0  0
  8  1  1  0  0  0  0
  8 22  1  1  0  0  0
  9 11  1  0  0  0  0
  9 18  1  6  0  0  0
  9 17  1  0  0  0  0
  9  7  1  0  0  0  0
 10  3  1  0  0  0  0
 10 19  1  0  0  0  0
 10 32  1  1  0  0  0
 11  6  1  0  0  0  0
 12  3  1  0  0  0  0
 12 33  1  0  0  0  0
 12 34  1  0  0  0  0
 13  8  1  0  0  0  0
 13 35  1  0  0  0  0
 13 36  1  0  0  0  0
 14 24  1  0  0  0  0
 15  8  1  0  0  0  0
 15 20  1  0  0  0  0
 15 37  1  6  0  0  0
 16 15  1  0  0  0  0
 16 12  1  0  0  0  0
 16 38  1  0  0  0  0
 16 39  1  0  0  0  0
 17 13  1  0  0  0  0
 17 40  1  0  0  0  0
 17 41  1  0  0  0  0
 18 42  1  0  0  0  0
 18 43  1  0  0  0  0
 18 44  1  0  0  0  0
 19 45  1  0  0  0  0
 19 46  1  0  0  0  0
 19 47  1  0  0  0  0
 20 48  1  0  0  0  0
 20 49  1  0  0  0  0
 20 50  1  0  0  0  0
 24 25  2  0  0  0  0
 24 26  1  0  0  0  0
 26 27  1  0  0  0  0
 26 51  1  0  0  0  0
 26 52  1  0  0  0  0
 27 28  1  0  0  0  0
 27 53  1  0  0  0  0
 27 54  1  0  0  0  0
 28 29  1  0  0  0  0
 28 30  2  0  0  0  0
 29 55  1  0  0  0  0
M  END
>  <DRUGBANK_ID>
DB09274

>  <COMMON_NAME>
Artesunate

>  <CAS_NUMBER>
88495-63-0

>  <UNII>
60W3249T9M

>  <SYNONYMS>
Artesunate; Artesunato; Artesunatum; Artesunic acid; AS; butanedioic acid, 1-[(3R,5aS,6R,8aS,9R,10S,12R,12aR)-decahydro-3,6,9-trimethyl-3,12-epoxy-12H-pyrano[4,3-j]-1,2-benzodioxepin-10-yl] ester; dihydroqinghasu hemsuccinate; Succinyl dihydroartemisinin

$$$$
