
 OpenBabel10282417123D

 23 22  0  0  0  0  0  0  0  0999 V2000
    0.9028    0.0756   -0.0469 N   0  0  0  0  0  0  0  0  0  0  0  0
    0.1460    1.0535    0.5267 C   0  0  0  0  0  0  0  0  0  0  0  0
   -1.0748    0.9326    0.6085 O   0  0  0  0  0  0  0  0  0  0  0  0
    0.8923    2.2385    1.1456 C   0  0  0  0  0  0  0  0  0  0  0  0
    1.6496    1.8270    2.3458 N   0  0  0  0  0  0  0  0  0  0  0  0
    2.4775    2.9333    2.8951 C   0  0  0  0  0  0  0  0  0  0  0  0
    1.7252    4.1976    3.3301 C   0  0  0  0  0  0  0  0  0  0  0  0
    1.9921    4.5833    4.6001 O   0  0  0  0  0  0  0  0  0  0  0  0
    0.9931    4.8477    2.5972 O   0  0  0  0  0  0  0  0  0  0  0  0
    0.8266    1.1289    3.3584 C   0  0  0  0  0  0  0  0  0  0  0  0
   -0.2385    1.9631    4.0543 C   0  0  0  0  0  0  0  0  0  0  0  0
   -1.5084    1.7260    3.6742 O   0  0  0  0  0  0  0  0  0  0  0  0
    0.0395    2.7643    4.9427 O   0  0  0  0  0  0  0  0  0  0  0  0
    0.4239   -0.7414   -0.4051 H   0  0  0  0  0  0  0  0  0  0  0  0
    1.9104    0.0522    0.0369 H   0  0  0  0  0  0  0  0  0  0  0  0
    1.5657    2.6512    0.3834 H   0  0  0  0  0  0  0  0  0  0  0  0
    0.1376    2.9921    1.3802 H   0  0  0  0  0  0  0  0  0  0  0  0
    3.0981    2.5574    3.7179 H   0  0  0  0  0  0  0  0  0  0  0  0
    3.1953    3.2669    2.1326 H   0  0  0  0  0  0  0  0  0  0  0  0
    2.1468    3.8205    5.1931 H   0  0  0  0  0  0  0  0  0  0  0  0
    0.3655    0.2297    2.9368 H   0  0  0  0  0  0  0  0  0  0  0  0
    1.4839    0.7429    4.1475 H   0  0  0  0  0  0  0  0  0  0  0  0
   -1.6339    1.0691    2.9569 H   0  0  0  0  0  0  0  0  0  0  0  0
  1  2  1  0  0  0  0
  1 14  1  0  0  0  0
  1 15  1  0  0  0  0
  2  3  2  0  0  0  0
  2  4  1  0  0  0  0
  4  5  1  0  0  0  0
  4 16  1  0  0  0  0
  4 17  1  0  0  0  0
  5  6  1  0  0  0  0
  5 10  1  0  0  0  0
  6  7  1  0  0  0  0
  6 18  1  0  0  0  0
  6 19  1  0  0  0  0
  7  8  1  0  0  0  0
  7  9  2  0  0  0  0
  8 20  1  0  0  0  0
 10 11  1  0  0  0  0
 10 21  1  0  0  0  0
 10 22  1  0  0  0  0
 11 12  1  0  0  0  0
 11 13  2  0  0  0  0
 12 23  1  0  0  0  0
M  END
>  <DRUGBANK_ID>
DB02810

>  <SECONDARY_ACCESSION_NUMBERS>
EXPT02170

>  <COMMON_NAME>
N-(2-Acetamido)Iminodiacetic Acid

>  <CAS_NUMBER>
26239-55-4

>  <UNII>
5C4R3O704E

$$$$
