
 OpenBabel10282417183D

 86 87  0  0  0  0  0  0  0  0999 V2000
    2.4755    0.1890   -0.2635 C   0  0  0  0  0  0  0  0  0  0  0  0
   -2.1044    5.6469   -2.1872 C   0  0  0  0  0  0  0  0  0  0  0  0
   -1.8841   -0.0087   -0.1933 C   0  0  0  0  0  0  0  0  0  0  0  0
   -2.7566    2.8154    0.9892 C   0  0  0  0  0  0  0  0  0  0  0  0
    3.4322   -5.7100   -1.1412 C   0  0  0  0  0  0  0  0  0  0  0  0
   -4.9111   10.3296    0.1827 C   0  0  0  0  0  0  0  0  0  0  0  0
   -1.1601   -1.2080   -0.2435 C   0  0  0  0  0  0  0  0  0  0  0  0
   -3.4248    4.0533    1.0353 C   0  0  0  0  0  0  0  0  0  0  0  0
    2.4889   -4.7198   -0.9225 C   0  0  0  0  0  0  0  0  0  0  0  0
   -4.5236    9.0125    0.3005 C   0  0  0  0  0  0  0  0  0  0  0  0
    0.1930    1.2054   -0.4115 C   0  0  0  0  0  0  0  0  0  0  0  0
   -1.7248    3.4771   -1.0673 C   0  0  0  0  0  0  0  0  0  0  0  0
    6.0655   -7.5587    0.7477 C   0  0  0  0  0  0  0  0  0  0  0  0
   -7.1541   12.3923   -1.9580 C   0  0  0  0  0  0  0  0  0  0  0  0
    0.9599    0.0161   -0.3858 C   0  0  0  0  0  0  0  0  0  0  0  0
   -2.3786    4.7167   -1.0287 C   0  0  0  0  0  0  0  0  0  0  0  0
   -1.2141    1.2160   -0.2552 C   0  0  0  0  0  0  0  0  0  0  0  0
   -1.9179    2.4981   -0.0934 C   0  0  0  0  0  0  0  0  0  0  0  0
    4.4309   -5.9824   -0.2024 C   0  0  0  0  0  0  0  0  0  0  0  0
   -5.6541   10.7598   -0.9199 C   0  0  0  0  0  0  0  0  0  0  0  0
    0.2502   -1.2306   -0.3445 C   0  0  0  0  0  0  0  0  0  0  0  0
   -3.2717    5.0189    0.0287 C   0  0  0  0  0  0  0  0  0  0  0  0
    2.7087   -3.7392    0.0395 C   0  0  0  0  0  0  0  0  0  0  0  0
   -4.5432    8.1781   -0.8115 C   0  0  0  0  0  0  0  0  0  0  0  0
    5.1569   -7.2130   -0.2504 C   0  0  0  0  0  0  0  0  0  0  0  0
   -6.3159   12.0142   -0.9067 C   0  0  0  0  0  0  0  0  0  0  0  0
    6.2897   -6.6600    1.7892 C   0  0  0  0  0  0  0  0  0  0  0  0
   -7.3205   11.5410   -3.0512 C   0  0  0  0  0  0  0  0  0  0  0  0
    4.6450   -5.0274    0.8572 C   0  0  0  0  0  0  0  0  0  0  0  0
   -5.7898    9.8774   -2.0514 C   0  0  0  0  0  0  0  0  0  0  0  0
    5.6401   -5.4014    1.8437 C   0  0  0  0  0  0  0  0  0  0  0  0
   -6.6540   10.3096   -3.1272 C   0  0  0  0  0  0  0  0  0  0  0  0
    3.8384   -3.7775    0.9029 C   0  0  0  0  0  0  0  0  0  0  0  0
   -5.0892    8.5927   -2.0642 C   0  0  0  0  0  0  0  0  0  0  0  0
    5.8027   -4.5636    2.9604 N   0  0  0  0  0  0  0  0  0  0  0  0
   -6.7906    9.4891   -4.2532 N   0  0  0  0  0  0  0  0  0  0  0  0
    0.8119   -2.5334   -0.3622 N   0  0  0  0  0  0  0  0  0  0  0  0
   -4.0373    6.2040    0.1802 N   0  0  0  0  0  0  0  0  0  0  0  0
    1.9437   -2.5411    0.1214 N   0  0  0  0  0  0  0  0  0  0  0  0
   -3.8275    6.9715   -0.7687 N   0  0  0  0  0  0  0  0  0  0  0  0
    4.0644   -2.7596    1.6751 O   0  5  0  0  0  0  0  0  0  0  0  0
   -4.9773    7.8439   -3.1145 O   0  5  0  0  0  0  0  0  0  0  0  0
    3.4141   -8.7318   -1.4184 O   0  5  0  0  0  0  0  0  0  0  0  0
    5.2141   -7.7204   -2.7749 O   0  0  0  0  0  0  0  0  0  0  0  0
    5.7262   -9.5740   -1.2253 O   0  0  0  0  0  0  0  0  0  0  0  0
   -6.6770   12.3616    1.6518 O   0  5  0  0  0  0  0  0  0  0  0  0
   -4.7587   13.4788    0.5661 O   0  0  0  0  0  0  0  0  0  0  0  0
   -7.0466   14.2828    0.1633 O   0  0  0  0  0  0  0  0  0  0  0  0
    8.5434   -5.9592    3.0254 O   0  0  0  0  0  0  0  0  0  0  0  0
    6.7412   -7.0256    4.3495 O   0  0  0  0  0  0  0  0  0  0  0  0
    8.1133   -8.3377    2.6759 O   0  0  0  0  0  0  0  0  0  0  0  0
   -7.4922   12.0612   -5.6838 O   0  0  0  0  0  0  0  0  0  0  0  0
   -9.4069   10.9861   -4.5515 O   0  0  0  0  0  0  0  0  0  0  0  0
   -8.8206   13.4017   -4.1381 O   0  0  0  0  0  0  0  0  0  0  0  0
    4.8427   -8.4710   -1.5776 S   0  0  0  0  0  0  0  0  0  0  0  0
   -6.1853   13.1624    0.5323 S   0  0  0  0  0  0  0  0  0  0  0  0
    7.4363   -7.1434    3.0611 S   0  0  0  0  0  0  0  0  0  0  0  0
   -8.4192   12.0200   -4.3547 S   0  0  0  0  0  0  0  0  0  0  0  0
    2.1939   -2.2180    2.5101 Na  0  3  0  0  0  0  0  0  0  0  0  0
   -0.8923    0.1368    2.1501 Na  0  3  0  0  0  0  0  0  0  0  0  0
    2.0980    2.6520    1.6263 Na  0  3  0  0  0  0  0  0  0  0  0  0
    2.6579   -2.0954   -2.2931 Na  0  3  0  0  0  0  0  0  0  0  0  0
    2.8059   -0.2603    0.6781 H   0  0  0  0  0  0  0  0  0  0  0  0
    3.0796   -0.2034   -1.0844 H   0  0  0  0  0  0  0  0  0  0  0  0
    2.7684    1.2447   -0.1793 H   0  0  0  0  0  0  0  0  0  0  0  0
   -3.0199    5.8160   -2.7577 H   0  0  0  0  0  0  0  0  0  0  0  0
   -1.6676    6.5824   -1.8241 H   0  0  0  0  0  0  0  0  0  0  0  0
   -1.3815    5.2194   -2.8891 H   0  0  0  0  0  0  0  0  0  0  0  0
   -2.9747   -0.0392   -0.0862 H   0  0  0  0  0  0  0  0  0  0  0  0
   -2.9561    2.1349    1.8107 H   0  0  0  0  0  0  0  0  0  0  0  0
    3.3094   -6.3425   -2.0227 H   0  0  0  0  0  0  0  0  0  0  0  0
   -4.6702   10.9970    1.0057 H   0  0  0  0  0  0  0  0  0  0  0  0
   -1.7157   -2.1500   -0.1549 H   0  0  0  0  0  0  0  0  0  0  0  0
   -4.1156    4.2824    1.8501 H   0  0  0  0  0  0  0  0  0  0  0  0
    1.5925   -4.7539   -1.5297 H   0  0  0  0  0  0  0  0  0  0  0  0
   -4.1588    8.6533    1.2523 H   0  0  0  0  0  0  0  0  0  0  0  0
    0.6773    2.1788   -0.5411 H   0  0  0  0  0  0  0  0  0  0  0  0
   -1.0835    3.2769   -1.9239 H   0  0  0  0  0  0  0  0  0  0  0  0
    6.5598   -8.5296    0.7191 H   0  0  0  0  0  0  0  0  0  0  0  0
   -7.6899   13.3363   -1.9015 H   0  0  0  0  0  0  0  0  0  0  0  0
    5.4015   -3.6343    2.8480 H   0  0  0  0  0  0  0  0  0  0  0  0
    6.5195   -4.7227    3.6604 H   0  0  0  0  0  0  0  0  0  0  0  0
   -6.2669    8.6012   -4.1520 H   0  0  0  0  0  0  0  0  0  0  0  0
   -7.4561    9.6057   -4.9983 H   0  0  0  0  0  0  0  0  0  0  0  0
    9.0610   -6.0486    2.1968 H   0  0  0  0  0  0  0  0  0  0  0  0
   -6.7625   12.6963   -5.5449 H   0  0  0  0  0  0  0  0  0  0  0  0
  1 63  1  0  0  0  0
  1 64  1  0  0  0  0
  1 65  1  0  0  0  0
  2 66  1  0  0  0  0
  2 67  1  0  0  0  0
  2 68  1  0  0  0  0
  3 69  1  0  0  0  0
  4 70  1  0  0  0  0
  5 71  1  0  0  0  0
  6 72  1  0  0  0  0
  7  3  1  0  0  0  0
  7 73  1  0  0  0  0
  8  4  1  0  0  0  0
  8 74  1  0  0  0  0
  9  5  2  0  0  0  0
  9 75  1  0  0  0  0
 10  6  2  0  0  0  0
 10 76  1  0  0  0  0
 11 77  1  0  0  0  0
 12 78  1  0  0  0  0
 13 79  1  0  0  0  0
 14 80  1  0  0  0  0
 15  1  1  0  0  0  0
 15 11  2  0  0  0  0
 16  2  1  0  0  0  0
 16 12  2  0  0  0  0
 17  3  2  0  0  0  0
 17 11  1  0  0  0  0
 18  4  2  0  0  0  0
 18 12  1  0  0  0  0
 18 17  1  0  0  0  0
 19  5  1  0  0  0  0
 20  6  1  0  0  0  0
 21  7  2  0  0  0  0
 21 15  1  0  0  0  0
 22  8  2  0  0  0  0
 22 16  1  0  0  0  0
 23  9  1  0  0  0  0
 24 10  1  0  0  0  0
 25 13  2  0  0  0  0
 25 19  1  0  0  0  0
 26 14  2  0  0  0  0
 26 20  1  0  0  0  0
 27 13  1  0  0  0  0
 28 14  1  0  0  0  0
 29 19  2  0  0  0  0
 30 20  2  0  0  0  0
 31 27  2  0  0  0  0
 31 29  1  0  0  0  0
 32 28  2  0  0  0  0
 32 30  1  0  0  0  0
 33 23  2  0  0  0  0
 33 29  1  0  0  0  0
 34 24  2  0  0  0  0
 34 30  1  0  0  0  0
 35 31  1  0  0  0  0
 35 81  1  0  0  0  0
 35 82  1  0  0  0  0
 36 32  1  0  0  0  0
 36 83  1  0  0  0  0
 36 84  1  0  0  0  0
 37 21  1  0  0  0  0
 38 22  1  0  0  0  0
 39 23  1  0  0  0  0
 39 37  2  0  0  0  0
 40 24  1  0  0  0  0
 40 38  2  0  0  0  0
 41 33  1  0  0  0  0
 42 34  1  0  0  0  0
 49 85  1  0  0  0  0
 52 86  1  0  0  0  0
 55 25  1  0  0  0  0
 55 43  1  0  0  0  0
 55 44  2  0  0  0  0
 55 45  2  0  0  0  0
 56 26  1  0  0  0  0
 56 46  1  0  0  0  0
 56 47  2  0  0  0  0
 56 48  2  0  0  0  0
 57 27  1  0  0  0  0
 57 49  1  0  0  0  0
 57 50  2  0  0  0  0
 57 51  2  0  0  0  0
 58 28  1  0  0  0  0
 58 52  1  0  0  0  0
 58 53  2  0  0  0  0
 58 54  2  0  0  0  0
M  CHG  8  41  -1  42  -1  43  -1  46  -1  59   1  60   1  61   1  62   1
M  END
>  <DRUGBANK_ID>
DB09361

>  <COMMON_NAME>
Evans blue

>  <CAS_NUMBER>
314-13-6

>  <UNII>
45PG892GO1

>  <SYNONYMS>
Azovan blue; Evan's blue

$$$$
