
 OpenBabel10282417233D

 50 53  0  0  1  0  0  0  0  0999 V2000
   15.1960    3.9091   -5.0051 C   0  0  0  0  0  0  0  0  0  0  0  0
   14.8320    4.9064   -4.1338 C   0  0  0  0  0  0  0  0  0  0  0  0
   15.6788    5.8519   -3.5971 C   0  0  0  0  0  0  0  0  0  0  0  0
   16.9905    5.7942   -4.0210 C   0  0  0  0  0  0  0  0  0  0  0  0
   17.3375    4.7780   -4.9214 C   0  0  0  0  0  0  0  0  0  0  0  0
   16.4808    3.8367   -5.4148 N   0  0  0  0  0  0  0  0  0  0  0  0
   14.1975    2.8858   -5.5343 C   0  0  0  0  0  0  0  0  0  0  0  0
   14.5585    2.0262   -6.3254 O   0  0  0  0  0  0  0  0  0  0  0  0
   12.8504    2.8481   -5.1713 N   0  0  0  0  0  0  0  0  0  0  0  0
   11.9656    3.6086   -4.3090 C   0  0  0  0  0  0  0  0  0  0  0  0
   15.2153    6.8310   -2.7188 O   0  0  0  0  0  0  0  0  0  0  0  0
   10.4239    9.0643   -2.3248 S   0  0  0  0  0  0  0  0  0  0  0  0
    9.2806    7.9763   -1.6169 C   0  0  0  0  0  0  0  0  0  0  0  0
    9.7688    6.7806   -1.3851 N   0  0  0  0  0  0  0  0  0  0  0  0
   11.1355    6.7511   -1.5743 C   0  0  0  0  0  0  0  0  0  0  0  0
   11.6857    7.8772   -2.1820 C   0  0  0  0  0  0  0  0  0  0  0  0
   11.9807    5.6764   -1.2361 C   0  0  0  0  0  0  0  0  0  0  0  0
   13.3466    5.7227   -1.5668 C   0  0  0  0  0  0  0  0  0  0  0  0
   13.8772    6.8056   -2.2836 C   0  0  0  0  0  0  0  0  0  0  0  0
   13.0545    7.9155   -2.5646 C   0  0  0  0  0  0  0  0  0  0  0  0
    7.9979    8.3278   -1.3341 N   0  0  0  0  0  0  0  0  0  0  0  0
    7.0941    7.3739   -0.6649 C   0  0  1  0  0  0  0  0  0  0  0  0
    7.5718    7.0055    0.7803 C   0  0  1  0  0  0  0  0  0  0  0  0
    6.6112    6.0273    1.4379 C   0  0  0  0  0  0  0  0  0  0  0  0
    5.2077    6.5779    1.5285 C   0  0  0  0  0  0  0  0  0  0  0  0
    4.6969    6.9932    0.1542 C   0  0  0  0  0  0  0  0  0  0  0  0
    5.6610    7.9551   -0.5589 C   0  0  0  0  0  0  0  0  0  0  0  0
    8.8265    6.3376    0.8852 O   0  0  0  0  0  0  0  0  0  0  0  0
   13.8460    5.0246   -3.8295 H   0  0  0  0  0  0  0  0  0  0  0  0
   17.7289    6.5104   -3.6832 H   0  0  0  0  0  0  0  0  0  0  0  0
   18.3578    4.6866   -5.2891 H   0  0  0  0  0  0  0  0  0  0  0  0
   12.3897    2.0791   -5.6489 H   0  0  0  0  0  0  0  0  0  0  0  0
   11.1578    4.0385   -4.9002 H   0  0  0  0  0  0  0  0  0  0  0  0
   11.6121    2.9740   -3.4961 H   0  0  0  0  0  0  0  0  0  0  0  0
   12.3795    4.4550   -3.8207 H   0  0  0  0  0  0  0  0  0  0  0  0
   11.5521    4.8107   -0.7367 H   0  0  0  0  0  0  0  0  0  0  0  0
   13.9577    4.8542   -1.3311 H   0  0  0  0  0  0  0  0  0  0  0  0
   13.4499    8.7808   -3.0854 H   0  0  0  0  0  0  0  0  0  0  0  0
    7.6390    9.2403   -1.5938 H   0  0  0  0  0  0  0  0  0  0  0  0
    7.0469    6.4717   -1.2902 H   0  0  0  0  0  0  0  0  0  0  0  0
    7.6530    7.9277    1.3676 H   0  0  0  0  0  0  0  0  0  0  0  0
    6.6106    5.0883    0.8665 H   0  0  0  0  0  0  0  0  0  0  0  0
    6.9868    5.7674    2.4344 H   0  0  0  0  0  0  0  0  0  0  0  0
    5.1986    7.4381    2.2078 H   0  0  0  0  0  0  0  0  0  0  0  0
    4.5532    5.8144    1.9632 H   0  0  0  0  0  0  0  0  0  0  0  0
    3.7122    7.4603    0.2699 H   0  0  0  0  0  0  0  0  0  0  0  0
    4.5533    6.0971   -0.4627 H   0  0  0  0  0  0  0  0  0  0  0  0
    5.6840    8.9016   -0.0021 H   0  0  0  0  0  0  0  0  0  0  0  0
    5.2587    8.1903   -1.5519 H   0  0  0  0  0  0  0  0  0  0  0  0
    8.9358    5.8096    0.0705 H   0  0  0  0  0  0  0  0  0  0  0  0
  1  2  1  0  0  0  0
  1  6  2  0  0  0  0
  1  7  1  0  0  0  0
  2  3  2  0  0  0  0
  2 29  1  0  0  0  0
  3  4  1  0  0  0  0
  3 11  1  0  0  0  0
  4  5  2  0  0  0  0
  4 30  1  0  0  0  0
  5  6  1  0  0  0  0
  5 31  1  0  0  0  0
  7  8  2  0  0  0  0
  7  9  1  0  0  0  0
  9 10  1  0  0  0  0
  9 32  1  0  0  0  0
 10 33  1  0  0  0  0
 10 34  1  0  0  0  0
 10 35  1  0  0  0  0
 11 19  1  0  0  0  0
 12 13  1  0  0  0  0
 12 16  1  0  0  0  0
 13 14  2  0  0  0  0
 13 21  1  0  0  0  0
 14 15  1  0  0  0  0
 15 16  1  0  0  0  0
 17 18  1  0  0  0  0
 17 15  2  0  0  0  0
 17 36  1  0  0  0  0
 18 19  2  0  0  0  0
 18 37  1  0  0  0  0
 19 20  1  0  0  0  0
 20 16  2  0  0  0  0
 20 38  1  0  0  0  0
 21 39  1  0  0  0  0
 22 23  1  0  0  0  0
 22 27  1  0  0  0  0
 22 40  1  6  0  0  0
 22 21  1  0  0  0  0
 23 24  1  0  0  0  0
 23 28  1  0  0  0  0
 23 41  1  1  0  0  0
 24 25  1  0  0  0  0
 24 42  1  0  0  0  0
 24 43  1  0  0  0  0
 25 26  1  0  0  0  0
 25 44  1  0  0  0  0
 25 45  1  0  0  0  0
 26 27  1  0  0  0  0
 26 46  1  0  0  0  0
 26 47  1  0  0  0  0
 27 48  1  0  0  0  0
 27 49  1  0  0  0  0
 28 50  1  0  0  0  0
M  END
>  <DRUGBANK_ID>
DB16838

>  <COMMON_NAME>
BLZ-945

>  <CAS_NUMBER>
953769-46-5

>  <UNII>
7W3V82OQ0P

>  <SYNONYMS>
Sotuletinib

$$$$
