
 OpenBabel10282417203D

 23 22  0  0  0  0  0  0  0  0999 V2000
    0.8100   -0.0904    0.0315 O   0  0  0  0  0  0  0  0  0  0  0  0
    0.3301   -0.6474   -1.0977 C   0  0  0  0  0  0  0  0  0  0  0  0
   -2.6472   -0.6511    1.0433 C   0  0  0  0  0  0  0  0  0  0  0  0
   -1.8090   -1.2641    0.0965 N   0  0  0  0  0  0  0  0  0  0  0  0
   -3.0019    0.6763    1.0284 N   0  0  0  0  0  0  0  0  0  0  0  0
   -1.1833   -0.7173   -1.1420 C   0  0  0  0  0  0  0  0  0  0  0  0
   -2.4085    1.7037   -0.2986 P   0  0  0  0  0  0  0  0  0  0  0  0
   -3.1658   -1.2800    2.0563 N   0  0  0  0  0  0  0  0  0  0  0  0
   -1.4925   -2.7114    0.1215 C   0  0  0  0  0  0  0  0  0  0  0  0
   -3.8073    2.2694   -0.5438 O   0  0  0  0  0  0  0  0  0  0  0  0
   -1.6560    2.7139    0.7350 O   0  0  0  0  0  0  0  0  0  0  0  0
    1.0823   -0.9497   -2.0172 O   0  0  0  0  0  0  0  0  0  0  0  0
   -1.8319    2.7022   -1.5883 O   0  0  0  0  0  0  0  0  0  0  0  0
    1.7822   -0.0486   -0.0918 H   0  0  0  0  0  0  0  0  0  0  0  0
   -3.7401    0.9776    1.6424 H   0  0  0  0  0  0  0  0  0  0  0  0
   -1.4344    0.2800   -1.4262 H   0  0  0  0  0  0  0  0  0  0  0  0
   -1.5290   -1.2768   -2.0175 H   0  0  0  0  0  0  0  0  0  0  0  0
   -2.8915   -2.2571    2.0723 H   0  0  0  0  0  0  0  0  0  0  0  0
   -1.8556   -3.1853   -0.8005 H   0  0  0  0  0  0  0  0  0  0  0  0
   -0.4050   -2.8543    0.1516 H   0  0  0  0  0  0  0  0  0  0  0  0
   -1.9028   -3.2807    0.9532 H   0  0  0  0  0  0  0  0  0  0  0  0
   -1.9114    2.4874    1.6500 H   0  0  0  0  0  0  0  0  0  0  0  0
   -1.8945    3.6097   -1.2326 H   0  0  0  0  0  0  0  0  0  0  0  0
  1 14  1  0  0  0  0
  2  1  1  0  0  0  0
  2 12  2  0  0  0  0
  3  8  2  0  0  0  0
  3  4  1  0  0  0  0
  3  5  1  0  0  0  0
  4  9  1  0  0  0  0
  4  6  1  0  0  0  0
  5  7  1  0  0  0  0
  5 15  1  0  0  0  0
  6  2  1  0  0  0  0
  6 16  1  0  0  0  0
  6 17  1  0  0  0  0
  7 10  2  0  0  0  0
  7 11  1  0  0  0  0
  7 13  1  0  0  0  0
  8 18  1  0  0  0  0
  9 19  1  0  0  0  0
  9 20  1  0  0  0  0
  9 21  1  0  0  0  0
 11 22  1  0  0  0  0
 13 23  1  0  0  0  0
M  END
>  <DRUGBANK_ID>
DB13191

>  <COMMON_NAME>
Phosphocreatine

>  <CAS_NUMBER>
67-07-2

>  <UNII>
020IUV4N33

>  <SYNONYMS>
Creatine phosphate; Creatine phosphic acid; Creatine-P; Fosfocreatine; N-(N-phosphonoamido)sarcosine; N-(Phosphonoamidino)sarcosine; N-phosphocreatine; N-Phosphorylcreatine; phosphorylcreatine

$$$$
