1012
 OpenBabel10282417113D

 48 50  0  0  1  0  0  0  0  0999 V2000
    1.0355   -0.0819   -0.1338 F   0  0  0  0  0  0  0  0  0  0  0  0
    2.6462   -0.2338    1.3144 F   0  0  0  0  0  0  0  0  0  0  0  0
    2.7102   -1.4217   -0.5078 F   0  0  0  0  0  0  0  0  0  0  0  0
    5.1557    4.5276   -5.2012 N   0  0  0  0  0  0  0  0  0  0  0  0
    4.5680    5.8597   -4.9776 C   0  0  1  0  0  0  0  0  0  0  0  0
    4.2818    3.5768   -5.8606 C   0  0  0  0  0  0  0  0  0  0  0  0
    3.4451    6.0234   -3.8849 C   0  0  0  0  0  0  0  0  0  0  0  0
    4.5375    2.0961   -5.3458 C   0  0  0  0  0  0  0  0  0  0  0  0
    5.2083    1.7386   -3.9016 C   0  0  0  0  0  0  0  0  0  0  0  0
    2.4945    5.0192   -3.3930 C   0  0  0  0  0  0  0  0  0  0  0  0
    5.8494    6.7073   -4.6934 C   0  0  0  0  0  0  0  0  0  0  0  0
    1.6013    5.2729   -2.3274 C   0  0  0  0  0  0  0  0  0  0  0  0
    4.5654    1.8605   -2.4880 C   0  0  0  0  0  0  0  0  0  0  0  0
    3.2734    7.3186   -3.3874 C   0  0  0  0  0  0  0  0  0  0  0  0
    2.4353    3.6727   -3.7304 C   0  0  0  0  0  0  0  0  0  0  0  0
    1.6454    6.5380   -1.7673 C   0  0  0  0  0  0  0  0  0  0  0  0
    2.4046    7.5685   -2.3221 C   0  0  0  0  0  0  0  0  0  0  0  0
    3.9332    0.7657   -1.8556 C   0  0  0  0  0  0  0  0  0  0  0  0
    0.8158    4.1984   -1.7812 C   0  0  0  0  0  0  0  0  0  0  0  0
    4.5034    3.0926   -1.7984 C   0  0  0  0  0  0  0  0  0  0  0  0
    3.1250    0.9371   -0.6982 C   0  0  0  0  0  0  0  0  0  0  0  0
    1.6150    2.6171   -3.3430 C   0  0  0  0  0  0  0  0  0  0  0  0
    0.7970    2.8924   -2.2872 C   0  0  0  0  0  0  0  0  0  0  0  0
    3.6511    3.2822   -0.6929 C   0  0  0  0  0  0  0  0  0  0  0  0
    2.9261    2.2195   -0.1784 C   0  0  0  0  0  0  0  0  0  0  0  0
    2.3909   -0.1927   -0.0248 C   0  0  0  0  0  0  0  0  0  0  0  0
    5.5078    4.1857   -4.3143 H   0  0  0  0  0  0  0  0  0  0  0  0
    4.1586    6.2265   -5.9265 H   0  0  0  0  0  0  0  0  0  0  0  0
    4.3227    3.6355   -6.9534 H   0  0  0  0  0  0  0  0  0  0  0  0
    3.2360    3.8890   -5.7608 H   0  0  0  0  0  0  0  0  0  0  0  0
    5.2240    1.6814   -6.0914 H   0  0  0  0  0  0  0  0  0  0  0  0
    3.5978    1.5341   -5.4539 H   0  0  0  0  0  0  0  0  0  0  0  0
    6.1705    2.2565   -3.8509 H   0  0  0  0  0  0  0  0  0  0  0  0
    5.4592    0.6733   -3.9948 H   0  0  0  0  0  0  0  0  0  0  0  0
    6.6115    6.5537   -5.4728 H   0  0  0  0  0  0  0  0  0  0  0  0
    5.6569    7.7837   -4.6906 H   0  0  0  0  0  0  0  0  0  0  0  0
    6.3150    6.4472   -3.7330 H   0  0  0  0  0  0  0  0  0  0  0  0
    3.8167    8.1643   -3.8008 H   0  0  0  0  0  0  0  0  0  0  0  0
    3.3898    3.3094   -4.0166 H   0  0  0  0  0  0  0  0  0  0  0  0
    1.0722    6.7395   -0.8619 H   0  0  0  0  0  0  0  0  0  0  0  0
    2.3338    8.5727   -1.9210 H   0  0  0  0  0  0  0  0  0  0  0  0
    4.0021   -0.2271   -2.2964 H   0  0  0  0  0  0  0  0  0  0  0  0
    0.3266    4.3464   -0.8180 H   0  0  0  0  0  0  0  0  0  0  0  0
    4.9278    3.9948   -2.2313 H   0  0  0  0  0  0  0  0  0  0  0  0
    1.8787    1.5981   -3.6234 H   0  0  0  0  0  0  0  0  0  0  0  0
    0.3746    2.0529   -1.7429 H   0  0  0  0  0  0  0  0  0  0  0  0
    3.4039    4.2930   -0.3639 H   0  0  0  0  0  0  0  0  0  0  0  0
    2.1209    2.4031    0.5379 H   0  0  0  0  0  0  0  0  0  0  0  0
  1 26  1  0  0  0  0
  2 26  1  0  0  0  0
  3 26  1  0  0  0  0
  4  6  1  0  0  0  0
  4 27  1  0  0  0  0
  5  4  1  0  0  0  0
  5  7  1  0  0  0  0
  5 11  1  0  0  0  0
  5 28  1  6  0  0  0
  6  8  1  0  0  0  0
  6 29  1  0  0  0  0
  6 30  1  0  0  0  0
  7 10  1  0  0  0  0
  7 14  2  0  0  0  0
  8  9  1  0  0  0  0
  8 31  1  0  0  0  0
  8 32  1  0  0  0  0
  9 13  1  0  0  0  0
  9 33  1  0  0  0  0
  9 34  1  0  0  0  0
 10 12  1  0  0  0  0
 10 15  2  0  0  0  0
 11 35  1  0  0  0  0
 11 36  1  0  0  0  0
 11 37  1  0  0  0  0
 12 16  1  0  0  0  0
 12 19  2  0  0  0  0
 13 18  2  0  0  0  0
 13 20  1  0  0  0  0
 14 17  1  0  0  0  0
 14 38  1  0  0  0  0
 15 22  1  0  0  0  0
 15 39  1  0  0  0  0
 16 17  2  0  0  0  0
 16 40  1  0  0  0  0
 17 41  1  0  0  0  0
 18 21  1  0  0  0  0
 18 42  1  0  0  0  0
 19 23  1  0  0  0  0
 19 43  1  0  0  0  0
 20 24  2  0  0  0  0
 20 44  1  0  0  0  0
 21 25  2  0  0  0  0
 21 26  1  0  0  0  0
 22 23  2  0  0  0  0
 22 45  1  0  0  0  0
 23 46  1  0  0  0  0
 24 25  1  0  0  0  0
 24 47  1  0  0  0  0
 25 48  1  0  0  0  0
M  END
>  <DRUGBANK_ID>
DB01012

>  <SECONDARY_ACCESSION_NUMBERS>
APRD00872

>  <COMMON_NAME>
Cinacalcet

>  <CAS_NUMBER>
226256-56-0

>  <UNII>
UAZ6V7728S

>  <SYNONYMS>
(R)-Î±-methyl-N-[3-[3-(trifluoromethyl)phenyl]propyl]-1-naphthalenemethane amine; Cinacalcet; CNC; N-((1R)-1-(Naphthalen-1-yl)ethyl)-3-(3-(trifluoromethyl)phenyl)propan-1-amine

$$$$
