FQP
 OpenBabel10282417163D

 29 29  0  0  0  0  0  0  0  0999 V2000
   -1.8038   -0.0465    0.0037 N   0  0  0  0  0  0  0  0  0  0  0  0
   -1.0208   -1.1486    0.0296 C   0  0  0  0  0  0  0  0  0  0  0  0
   -1.6936   -2.5177    0.0862 C   0  0  0  0  0  0  0  0  0  0  0  0
    0.3298   -1.1097    0.1211 N   0  0  0  0  0  0  0  0  0  0  0  0
    0.9067    0.0913    0.2463 C   0  0  0  0  0  0  0  0  0  0  0  0
    2.2924    0.0298    0.4374 N   0  0  0  0  0  0  0  0  0  0  0  0
    0.1840    1.2831    0.2506 C   0  0  0  0  0  0  0  0  0  0  0  0
   -1.1770    1.1371    0.0865 C   0  0  0  0  0  0  0  0  0  0  0  0
    0.7660    2.6763    0.2652 C   0  0  0  0  0  0  0  0  0  0  0  0
    2.1011    1.6805   -1.6295 O   0  0  0  0  0  0  0  0  0  0  0  0
    1.0645    2.6738   -2.3885 P   0  0  2  0  0  0  0  0  0  0  0  0
    0.5113    3.4474   -0.9434 O   0  0  0  0  0  0  0  0  0  0  0  0
   -0.3197    2.0942   -2.6365 O   0  0  0  0  0  0  0  0  0  0  0  0
    1.6178    1.9002   -3.8336 O   0  0  0  0  0  0  0  0  0  0  0  0
    2.0838    2.9467   -4.9514 P   0  0  0  0  0  0  0  0  0  0  0  0
    1.6904    2.6954   -6.3719 O   0  0  0  0  0  0  0  0  0  0  0  0
    1.6337    4.3625   -4.3694 O   0  0  0  0  0  0  0  0  0  0  0  0
    3.6727    3.0822   -4.8113 O   0  0  0  0  0  0  0  0  0  0  0  0
   -1.3568   -3.3402   -0.9523 F   0  0  0  0  0  0  0  0  0  0  0  0
   -1.3678   -3.2102    1.2218 F   0  0  0  0  0  0  0  0  0  0  0  0
   -3.0604   -2.4664    0.0821 F   0  0  0  0  0  0  0  0  0  0  0  0
    2.5796   -0.8996    0.1254 H   0  0  0  0  0  0  0  0  0  0  0  0
    2.7589    0.7338   -0.1172 H   0  0  0  0  0  0  0  0  0  0  0  0
   -1.8200    2.0071   -0.0182 H   0  0  0  0  0  0  0  0  0  0  0  0
    0.3497    3.2304    1.1115 H   0  0  0  0  0  0  0  0  0  0  0  0
    1.8499    2.6717    0.4359 H   0  0  0  0  0  0  0  0  0  0  0  0
    3.0216    1.9865   -1.6898 H   0  0  0  0  0  0  0  0  0  0  0  0
    0.6669    4.5074   -4.4281 H   0  0  0  0  0  0  0  0  0  0  0  0
    4.0333    3.4376   -5.6532 H   0  0  0  0  0  0  0  0  0  0  0  0
  1  2  2  0  0  0  0
  1  8  1  0  0  0  0
  2  3  1  0  0  0  0
  2  4  1  0  0  0  0
  3 19  1  0  0  0  0
  3 20  1  0  0  0  0
  3 21  1  0  0  0  0
  4  5  2  0  0  0  0
  5  6  1  0  0  0  0
  5  7  1  0  0  0  0
  6 22  1  0  0  0  0
  6 23  1  0  0  0  0
  7  8  2  0  0  0  0
  7  9  1  0  0  0  0
  8 24  1  0  0  0  0
  9 12  1  0  0  0  0
  9 25  1  0  0  0  0
  9 26  1  0  0  0  0
 10 27  1  0  0  0  0
 11 10  1  0  0  0  0
 11 12  1  0  0  0  0
 11 13  2  1  0  0  0
 11 14  1  0  0  0  0
 14 15  1  0  0  0  0
 15 16  2  0  0  0  0
 15 17  1  0  0  0  0
 15 18  1  0  0  0  0
 17 28  1  0  0  0  0
 18 29  1  0  0  0  0
M  END
>  <DRUGBANK_ID>
DB07782

>  <COMMON_NAME>
4-AMINO-2-TRIFLUOROMETHYL-5-HYDROXYMETHYLPYRIMIDINE PYROPHOSPHATE

$$$$
