
 OpenBabel10282417143D

 50 51  0  0  1  0  0  0  0  0999 V2000
    1.0807    0.0669   -0.1052 C   0  0  0  0  0  0  0  0  0  0  0  0
    0.4393   -1.2438    0.3223 C   0  0  1  0  0  0  0  0  0  0  0  0
    1.0301   -1.7434    1.6146 N   0  0  0  0  0  0  0  0  0  0  0  0
    0.4974   -2.9169    2.2785 C   0  0  1  0  0  0  0  0  0  0  0  0
    0.8085   -4.0330    1.4161 N   0  0  0  0  0  0  0  0  0  0  0  0
    0.3876   -5.3971    1.7401 C   0  0  0  0  0  0  0  0  0  0  0  0
   -1.1327   -5.5790    1.5592 C   0  0  0  0  0  0  0  0  0  0  0  0
   -1.5112   -5.7526    0.2172 O   0  0  0  0  0  0  0  0  0  0  0  0
   -1.5635   -6.7046    2.2724 O   0  0  0  0  0  0  0  0  0  0  0  0
    0.9790   -3.1006    3.6314 N   0  0  0  0  0  0  0  0  0  0  0  0
    0.0774   -3.3350    4.7394 C   0  0  0  0  0  0  0  0  0  0  0  0
   -1.0307   -4.1788    4.6050 C   0  0  0  0  0  0  0  0  0  0  0  0
   -1.9034   -4.4612    5.6490 C   0  0  0  0  0  0  0  0  0  0  0  0
   -1.6739   -3.9083    6.8877 C   0  0  0  0  0  0  0  0  0  0  0  0
   -2.6398   -4.1831    8.0076 C   0  0  0  0  0  0  0  0  0  0  0  0
   -1.9784   -4.8543    9.1112 N   0  0  0  0  0  0  0  0  0  0  0  0
   -0.5410   -3.0861    7.0596 C   0  0  0  0  0  0  0  0  0  0  0  0
    0.3142   -2.7854    5.9817 C   0  0  0  0  0  0  0  0  0  0  0  0
   -1.0780   -1.1891    0.3661 C   0  0  0  0  0  0  0  0  0  0  0  0
   -1.7853   -2.3930    0.3215 C   0  0  0  0  0  0  0  0  0  0  0  0
   -3.1591   -2.4906    0.5031 C   0  0  0  0  0  0  0  0  0  0  0  0
   -3.8887   -1.3265    0.6516 C   0  0  0  0  0  0  0  0  0  0  0  0
   -3.2300   -0.0984    0.6186 C   0  0  0  0  0  0  0  0  0  0  0  0
   -1.8398   -0.0255    0.4580 C   0  0  0  0  0  0  0  0  0  0  0  0
    0.8214    0.8814    0.5769 H   0  0  0  0  0  0  0  0  0  0  0  0
    0.7390    0.3321   -1.1126 H   0  0  0  0  0  0  0  0  0  0  0  0
    2.1708   -0.0143   -0.1217 H   0  0  0  0  0  0  0  0  0  0  0  0
    0.7327   -1.9829   -0.4355 H   0  0  0  0  0  0  0  0  0  0  0  0
    1.8907   -1.3281    1.9508 H   0  0  0  0  0  0  0  0  0  0  0  0
   -0.5781   -2.7853    2.3628 H   0  0  0  0  0  0  0  0  0  0  0  0
    1.1460   -3.8614    0.4776 H   0  0  0  0  0  0  0  0  0  0  0  0
    0.9188   -6.0691    1.0594 H   0  0  0  0  0  0  0  0  0  0  0  0
    0.7391   -5.6335    2.7506 H   0  0  0  0  0  0  0  0  0  0  0  0
   -1.6811   -4.7094    1.9281 H   0  0  0  0  0  0  0  0  0  0  0  0
   -1.1488   -5.0367   -0.3224 H   0  0  0  0  0  0  0  0  0  0  0  0
   -1.3288   -7.4502    1.6936 H   0  0  0  0  0  0  0  0  0  0  0  0
    1.9508   -2.9329    3.8738 H   0  0  0  0  0  0  0  0  0  0  0  0
   -1.2288   -4.7211    3.7225 H   0  0  0  0  0  0  0  0  0  0  0  0
   -2.7361   -5.1451    5.4680 H   0  0  0  0  0  0  0  0  0  0  0  0
   -3.0764   -3.2330    8.3302 H   0  0  0  0  0  0  0  0  0  0  0  0
   -3.4713   -4.8074    7.6523 H   0  0  0  0  0  0  0  0  0  0  0  0
   -2.6651   -5.0417    9.8400 H   0  0  0  0  0  0  0  0  0  0  0  0
   -1.6483   -5.7658    8.7956 H   0  0  0  0  0  0  0  0  0  0  0  0
   -0.3258   -2.6920    8.0484 H   0  0  0  0  0  0  0  0  0  0  0  0
    1.1346   -2.0887    6.1427 H   0  0  0  0  0  0  0  0  0  0  0  0
   -1.2201   -3.2917    0.1887 H   0  0  0  0  0  0  0  0  0  0  0  0
   -3.6460   -3.4633    0.5376 H   0  0  0  0  0  0  0  0  0  0  0  0
   -4.9671   -1.3748    0.7737 H   0  0  0  0  0  0  0  0  0  0  0  0
   -3.8053    0.8177    0.7302 H   0  0  0  0  0  0  0  0  0  0  0  0
   -1.3879    0.9599    0.3952 H   0  0  0  0  0  0  0  0  0  0  0  0
  1 25  1  0  0  0  0
  1 26  1  0  0  0  0
  1 27  1  0  0  0  0
  2  1  1  0  0  0  0
  2  3  1  0  0  0  0
  2 19  1  0  0  0  0
  2 28  1  6  0  0  0
  3 29  1  0  0  0  0
  4  3  1  0  0  0  0
  4  5  1  0  0  0  0
  4 10  1  0  0  0  0
  4 30  1  1  0  0  0
  5  6  1  0  0  0  0
  5 31  1  0  0  0  0
  6  7  1  0  0  0  0
  6 32  1  0  0  0  0
  6 33  1  0  0  0  0
  7  8  1  0  0  0  0
  7  9  1  0  0  0  0
  7 34  1  0  0  0  0
  8 35  1  0  0  0  0
  9 36  1  0  0  0  0
 10 11  1  0  0  0  0
 10 37  1  0  0  0  0
 11 12  2  0  0  0  0
 11 18  1  0  0  0  0
 12 13  1  0  0  0  0
 12 38  1  0  0  0  0
 13 14  2  0  0  0  0
 13 39  1  0  0  0  0
 14 15  1  0  0  0  0
 14 17  1  0  0  0  0
 15 16  1  0  0  0  0
 15 40  1  0  0  0  0
 15 41  1  0  0  0  0
 16 42  1  0  0  0  0
 16 43  1  0  0  0  0
 17 18  2  0  0  0  0
 17 44  1  0  0  0  0
 18 45  1  0  0  0  0
 19 20  2  0  0  0  0
 19 24  1  0  0  0  0
 20 21  1  0  0  0  0
 20 46  1  0  0  0  0
 21 22  2  0  0  0  0
 21 47  1  0  0  0  0
 22 23  1  0  0  0  0
 22 48  1  0  0  0  0
 23 24  2  0  0  0  0
 23 49  1  0  0  0  0
 24 50  1  0  0  0  0
M  END
>  <DRUGBANK_ID>
DB04778

>  <COMMON_NAME>
SC45647

$$$$
