
 OpenBabel10282417233D

  5  4  0  0  0  0  0  0  0  0999 V2000
    0.9640   -0.0663   -0.0576 N   0  3  0  0  0  0  0  0  0  0  0  0
    0.2035   -1.0031    0.6175 O   0  0  0  0  0  0  0  0  0  0  0  0
    0.3202    0.7785   -0.6663 O   0  0  0  0  0  0  0  0  0  0  0  0
    2.1691   -0.2522    0.0764 O   0  5  0  0  0  0  0  0  0  0  0  0
    0.9709   -1.4833    0.9635 H   0  0  0  0  0  0  0  0  0  0  0  0
  1  2  1  0  0  0  0
  1  3  2  0  0  0  0
  1  4  1  0  0  0  0
  2  5  1  0  0  0  0
M  CHG  2   1   1   4  -1
M  END
>  <DRUGBANK_ID>
DB15995

>  <COMMON_NAME>
Nitric acid

>  <CAS_NUMBER>
7697-37-2

>  <UNII>
411VRN1TV4

>  <SYNONYMS>
Acide nitrique; Acido nitrico; Aqua fortis; Azotowy kwas; Kyselina dusicne; Nitric acid, anhydrous; Salpetersaure; Salpeterzuuroplossingen

$$$$
