
 OpenBabel10282417203D

 50 52  0  0  0  0  0  0  0  0999 V2000
    1.0907   -0.6198    0.1614 C   0  0  0  0  0  0  0  0  0  0  0  0
    5.4998    6.3685    2.1572 C   0  0  0  0  0  0  0  0  0  0  0  0
   -3.6301   -0.5121    0.0653 C   0  0  0  0  0  0  0  0  0  0  0  0
    4.4938    6.7860    1.3037 C   0  0  0  0  0  0  0  0  0  0  0  0
    5.2618    5.3260    3.0543 C   0  0  0  0  0  0  0  0  0  0  0  0
    0.8818    4.3393   -1.3827 C   0  0  0  0  0  0  0  0  0  0  0  0
    1.0194    2.9859   -1.5824 C   0  0  0  0  0  0  0  0  0  0  0  0
   -3.0658    0.7405    0.7129 C   0  0  0  0  0  0  0  0  0  0  0  0
   -3.0410   -1.7617    0.7122 C   0  0  0  0  0  0  0  0  0  0  0  0
    3.2406    6.2007    1.3978 C   0  0  0  0  0  0  0  0  0  0  0  0
    4.0216    4.6778    3.0819 C   0  0  0  0  0  0  0  0  0  0  0  0
    0.9128    4.8003   -0.0795 C   0  0  0  0  0  0  0  0  0  0  0  0
    1.2725    2.1918   -0.4754 C   0  0  0  0  0  0  0  0  0  0  0  0
   -1.5486    0.6695    0.7334 C   0  0  0  0  0  0  0  0  0  0  0  0
   -1.5219   -1.7348    0.7040 C   0  0  0  0  0  0  0  0  0  0  0  0
    1.5745    4.5418    2.3698 C   0  0  0  0  0  0  0  0  0  0  0  0
    1.1389    0.4954    2.3552 C   0  0  0  0  0  0  0  0  0  0  0  0
    0.4644   -0.6295    1.5221 C   0  0  3  0  0  0  0  0  0  0  0  0
    2.9725    5.1425    2.2815 C   0  0  0  0  0  0  0  0  0  0  0  0
    1.1287    3.9607    1.0399 C   0  0  0  0  0  0  0  0  0  0  0  0
    1.1665    2.5779    0.8541 C   0  0  0  0  0  0  0  0  0  0  0  0
   -1.0280   -0.5456    1.4212 N   0  0  0  0  0  0  0  0  0  0  0  0
    0.9758    1.8727    2.0035 O   0  0  0  0  0  0  0  0  0  0  0  0
    0.5169    0.1751   -0.2502 H   0  0  0  0  0  0  0  0  0  0  0  0
    0.8782   -1.3656   -0.5974 H   0  0  0  0  0  0  0  0  0  0  0  0
    2.1600   -0.3770    0.1835 H   0  0  0  0  0  0  0  0  0  0  0  0
    6.4658    6.8603    2.1204 H   0  0  0  0  0  0  0  0  0  0  0  0
   -4.7190   -0.5144    0.1532 H   0  0  0  0  0  0  0  0  0  0  0  0
   -3.3868   -0.5047   -1.0061 H   0  0  0  0  0  0  0  0  0  0  0  0
    4.6541    7.5784    0.5793 H   0  0  0  0  0  0  0  0  0  0  0  0
    6.0461    5.0235    3.7417 H   0  0  0  0  0  0  0  0  0  0  0  0
    0.8444    4.9932   -2.2393 H   0  0  0  0  0  0  0  0  0  0  0  0
    0.9708    2.5378   -2.5651 H   0  0  0  0  0  0  0  0  0  0  0  0
   -3.3747    1.6255    0.1405 H   0  0  0  0  0  0  0  0  0  0  0  0
   -3.4389    0.8656    1.7337 H   0  0  0  0  0  0  0  0  0  0  0  0
   -3.3853   -1.8358    1.7491 H   0  0  0  0  0  0  0  0  0  0  0  0
   -3.3829   -2.6517    0.1765 H   0  0  0  0  0  0  0  0  0  0  0  0
    2.4801    6.6016    0.7451 H   0  0  0  0  0  0  0  0  0  0  0  0
    3.8838    3.8222    3.7394 H   0  0  0  0  0  0  0  0  0  0  0  0
    0.8215    5.8747    0.0562 H   0  0  0  0  0  0  0  0  0  0  0  0
    1.6080    1.2418   -0.8521 H   0  0  0  0  0  0  0  0  0  0  0  0
   -1.2570    0.7079   -0.3249 H   0  0  0  0  0  0  0  0  0  0  0  0
   -1.2134    1.5861    1.2138 H   0  0  0  0  0  0  0  0  0  0  0  0
   -1.1392   -2.6444    1.1815 H   0  0  0  0  0  0  0  0  0  0  0  0
   -1.1778   -1.7503   -0.3388 H   0  0  0  0  0  0  0  0  0  0  0  0
    0.8612    5.3009    2.7071 H   0  0  0  0  0  0  0  0  0  0  0  0
    1.5772    3.7812    3.1639 H   0  0  0  0  0  0  0  0  0  0  0  0
    0.7545    0.3860    3.3844 H   0  0  0  0  0  0  0  0  0  0  0  0
    2.2174    0.3227    2.4443 H   0  0  0  0  0  0  0  0  0  0  0  0
    0.7401   -1.5856    1.9940 H   0  0  0  0  0  0  0  0  0  0  0  0
  1 24  1  0  0  0  0
  1 25  1  0  0  0  0
  1 26  1  0  0  0  0
  2 27  1  0  0  0  0
  3 28  1  0  0  0  0
  3 29  1  0  0  0  0
  4  2  2  0  0  0  0
  4 30  1  0  0  0  0
  5  2  1  0  0  0  0
  5 31  1  0  0  0  0
  6 32  1  0  0  0  0
  7  6  2  0  0  0  0
  7 33  1  0  0  0  0
  8  3  1  0  0  0  0
  8 34  1  0  0  0  0
  8 35  1  0  0  0  0
  9  3  1  0  0  0  0
  9 36  1  0  0  0  0
  9 37  1  0  0  0  0
 10  4  1  0  0  0  0
 10 38  1  0  0  0  0
 11  5  2  0  0  0  0
 11 39  1  0  0  0  0
 12  6  1  0  0  0  0
 12 40  1  0  0  0  0
 13  7  1  0  0  0  0
 13 41  1  0  0  0  0
 14  8  1  0  0  0  0
 14 42  1  0  0  0  0
 14 43  1  0  0  0  0
 15  9  1  0  0  0  0
 15 44  1  0  0  0  0
 15 45  1  0  0  0  0
 16 46  1  0  0  0  0
 16 47  1  0  0  0  0
 17 48  1  0  0  0  0
 17 49  1  0  0  0  0
 18  1  1  0  0  0  0
 18 17  1  0  0  0  0
 18 50  1  0  0  0  0
 19 10  2  0  0  0  0
 19 11  1  0  0  0  0
 19 16  1  0  0  0  0
 20 12  2  0  0  0  0
 20 16  1  0  0  0  0
 21 13  2  0  0  0  0
 21 20  1  0  0  0  0
 22 14  1  0  0  0  0
 22 15  1  0  0  0  0
 22 18  1  0  0  0  0
 23 17  1  0  0  0  0
 23 21  1  0  0  0  0
M  END
>  <DRUGBANK_ID>
DB13309

>  <COMMON_NAME>
Benproperine

>  <CAS_NUMBER>
2156-27-6

>  <UNII>
3AA6IZ48YK

>  <SYNONYMS>
Bemproperina; Benproperine; Benproperinum

$$$$
