KSF
 OpenBabel10282417173D

 36 39  0  0  0  0  0  0  0  0999 V2000
   -2.0932    0.0094   -0.0280 Cl  0  0  0  0  0  0  0  0  0  0  0  0
   -0.3625    0.0381   -0.0382 C   0  0  0  0  0  0  0  0  0  0  0  0
    0.3373    1.2607   -0.0431 C   0  0  0  0  0  0  0  0  0  0  0  0
    1.7401    1.1997   -0.0114 C   0  0  0  0  0  0  0  0  0  0  0  0
    2.4206   -0.0192    0.0192 C   0  0  0  0  0  0  0  0  0  0  0  0
    1.7104   -1.2135    0.0072 C   0  0  0  0  0  0  0  0  0  0  0  0
    0.3168   -1.1874   -0.0158 C   0  0  0  0  0  0  0  0  0  0  0  0
   -0.3468    2.4977   -0.1695 N   0  0  0  0  0  0  0  0  0  0  0  0
    0.2790    3.7255   -0.1345 C   0  0  0  0  0  0  0  0  0  0  0  0
    1.1378    4.0430   -1.0831 N   0  0  0  0  0  0  0  0  0  0  0  0
    1.7755    5.2651   -1.0581 C   0  0  0  0  0  0  0  0  0  0  0  0
    1.5995    6.2069   -0.1017 C   0  0  0  0  0  0  0  0  0  0  0  0
    0.7105    5.8861    0.9177 N   0  0  0  0  0  0  0  0  0  0  0  0
    0.3223    6.5523    2.0531 C   0  0  0  0  0  0  0  0  0  0  0  0
   -0.5463    5.8586    2.7592 N   0  0  0  0  0  0  0  0  0  0  0  0
   -0.7083    4.6807    2.0730 C   0  0  0  0  0  0  0  0  0  0  0  0
    0.0395    4.6845    0.9197 C   0  0  0  0  0  0  0  0  0  0  0  0
    2.3621    7.4652   -0.1592 C   0  0  0  0  0  0  0  0  0  0  0  0
    2.2574    8.3144   -1.2703 C   0  0  0  0  0  0  0  0  0  0  0  0
    3.0850    9.4330   -1.3862 C   0  0  0  0  0  0  0  0  0  0  0  0
    3.9490    9.7715   -0.3472 C   0  0  0  0  0  0  0  0  0  0  0  0
    3.9813    8.9962    0.8094 C   0  0  0  0  0  0  0  0  0  0  0  0
    3.2298    7.8219    0.8830 C   0  0  0  0  0  0  0  0  0  0  0  0
    2.3359    2.1087   -0.0122 H   0  0  0  0  0  0  0  0  0  0  0  0
    3.5077   -0.0233    0.0382 H   0  0  0  0  0  0  0  0  0  0  0  0
    2.2439   -2.1606    0.0131 H   0  0  0  0  0  0  0  0  0  0  0  0
   -0.2326   -2.1254   -0.0229 H   0  0  0  0  0  0  0  0  0  0  0  0
   -1.3103    2.4495    0.1426 H   0  0  0  0  0  0  0  0  0  0  0  0
    2.4688    5.4247   -1.8805 H   0  0  0  0  0  0  0  0  0  0  0  0
    0.7186    7.5216    2.3233 H   0  0  0  0  0  0  0  0  0  0  0  0
   -1.3364    3.8908    2.4611 H   0  0  0  0  0  0  0  0  0  0  0  0
    1.5393    8.1051   -2.0611 H   0  0  0  0  0  0  0  0  0  0  0  0
    3.0546   10.0411   -2.2870 H   0  0  0  0  0  0  0  0  0  0  0  0
    4.5946   10.6415   -0.4373 H   0  0  0  0  0  0  0  0  0  0  0  0
    4.6048    9.2963    1.6479 H   0  0  0  0  0  0  0  0  0  0  0  0
    3.3381    7.1853    1.7586 H   0  0  0  0  0  0  0  0  0  0  0  0
  1  2  1  0  0  0  0
  2  3  2  0  0  0  0
  2  7  1  0  0  0  0
  3  4  1  0  0  0  0
  3  8  1  0  0  0  0
  4  5  2  0  0  0  0
  4 24  1  0  0  0  0
  5  6  1  0  0  0  0
  5 25  1  0  0  0  0
  6  7  2  0  0  0  0
  6 26  1  0  0  0  0
  7 27  1  0  0  0  0
  8  9  1  0  0  0  0
  8 28  1  0  0  0  0
  9 10  2  0  0  0  0
  9 17  1  0  0  0  0
 10 11  1  0  0  0  0
 11 12  2  0  0  0  0
 11 29  1  0  0  0  0
 12 13  1  0  0  0  0
 12 18  1  0  0  0  0
 13 14  1  0  0  0  0
 13 17  1  0  0  0  0
 14 15  2  0  0  0  0
 14 30  1  0  0  0  0
 15 16  1  0  0  0  0
 16 17  2  0  0  0  0
 16 31  1  0  0  0  0
 18 19  2  0  0  0  0
 18 23  1  0  0  0  0
 19 20  1  0  0  0  0
 19 32  1  0  0  0  0
 20 21  2  0  0  0  0
 20 33  1  0  0  0  0
 21 22  1  0  0  0  0
 21 34  1  0  0  0  0
 22 23  2  0  0  0  0
 22 35  1  0  0  0  0
 23 36  1  0  0  0  0
M  END
>  <DRUGBANK_ID>
DB08055

>  <COMMON_NAME>
N-(2-chlorophenyl)-5-phenylimidazo[1,5-a]pyrazin-8-amine

$$$$
