
 OpenBabel10282417213D

 28 28  0  0  0  0  0  0  0  0999 V2000
    1.0959   -0.0461   -0.1546 C   0  0  0  0  0  0  0  0  0  0  0  0
    2.5452   -0.0818    0.0725 C   0  0  0  0  0  0  0  0  0  0  0  0
    3.2556   -1.2782    0.1063 C   0  0  0  0  0  0  0  0  0  0  0  0
    4.6517   -1.2376    0.1073 C   0  0  0  0  0  0  0  0  0  0  0  0
    5.3135   -0.0070    0.0923 C   0  0  0  0  0  0  0  0  0  0  0  0
    4.6106    1.1886    0.1114 C   0  0  0  0  0  0  0  0  0  0  0  0
    3.2230    1.1522    0.1080 C   0  0  0  0  0  0  0  0  0  0  0  0
    0.6210    0.9868   -0.6115 O   0  0  0  0  0  0  0  0  0  0  0  0
    0.4361   -1.1792    0.1925 O   0  0  0  0  0  0  0  0  0  0  0  0
    6.6724    0.0792    0.0460 O   0  0  0  0  0  0  0  0  0  0  0  0
   -1.0146   -1.1924    0.1233 C   0  0  0  0  0  0  0  0  0  0  0  0
   -1.6497   -0.5105    1.3442 C   0  0  0  0  0  0  0  0  0  0  0  0
   -1.3222    0.9780    1.4459 C   0  0  0  0  0  0  0  0  0  0  0  0
   -1.7977    1.7400    0.2073 C   0  0  0  0  0  0  0  0  0  0  0  0
    2.7305   -2.2289    0.0854 H   0  0  0  0  0  0  0  0  0  0  0  0
    5.2014   -2.1723    0.0936 H   0  0  0  0  0  0  0  0  0  0  0  0
    5.1340    2.1406    0.0982 H   0  0  0  0  0  0  0  0  0  0  0  0
    2.6702    2.0913    0.0915 H   0  0  0  0  0  0  0  0  0  0  0  0
    7.0440   -0.8157    0.0028 H   0  0  0  0  0  0  0  0  0  0  0  0
   -1.3748   -0.7848   -0.8286 H   0  0  0  0  0  0  0  0  0  0  0  0
   -1.3300   -2.2439    0.1199 H   0  0  0  0  0  0  0  0  0  0  0  0
   -2.7404   -0.6271    1.3179 H   0  0  0  0  0  0  0  0  0  0  0  0
   -1.2947   -1.0119    2.2532 H   0  0  0  0  0  0  0  0  0  0  0  0
   -1.7888    1.4165    2.3331 H   0  0  0  0  0  0  0  0  0  0  0  0
   -0.2471    1.0962    1.6246 H   0  0  0  0  0  0  0  0  0  0  0  0
   -2.8864    1.7765    0.1751 H   0  0  0  0  0  0  0  0  0  0  0  0
   -1.3869    2.7527    0.1975 H   0  0  0  0  0  0  0  0  0  0  0  0
   -1.5103    1.2777   -0.7416 H   0  0  0  0  0  0  0  0  0  0  0  0
  1  8  2  0  0  0  0
  1  9  1  0  0  0  0
  1  2  1  0  0  0  0
  2  7  2  0  0  0  0
  2  3  1  0  0  0  0
  3  4  2  0  0  0  0
  3 15  1  0  0  0  0
  4  5  1  0  0  0  0
  4 16  1  0  0  0  0
  5  6  2  0  0  0  0
  5 10  1  0  0  0  0
  6  7  1  0  0  0  0
  6 17  1  0  0  0  0
  7 18  1  0  0  0  0
  9 11  1  0  0  0  0
 10 19  1  0  0  0  0
 11 12  1  0  0  0  0
 11 20  1  0  0  0  0
 11 21  1  0  0  0  0
 12 13  1  0  0  0  0
 12 22  1  0  0  0  0
 12 23  1  0  0  0  0
 13 14  1  0  0  0  0
 13 24  1  0  0  0  0
 13 25  1  0  0  0  0
 14 26  1  0  0  0  0
 14 27  1  0  0  0  0
 14 28  1  0  0  0  0
M  END
>  <DRUGBANK_ID>
DB14084

>  <COMMON_NAME>
Butylparaben

>  <CAS_NUMBER>
94-26-8

>  <UNII>
3QPI1U3FV8

>  <SYNONYMS>
Butyl 4-hydroxybenzoate; Butyl hydroxybenzoate; Butyl p-hydroxy benzoate; Butyl parahydroxybenzoate

$$$$
