
 OpenBabel10282417133D

 25 27  0  0  1  0  0  0  0  0999 V2000
    1.0580    0.0798   -0.1297 N   0  0  0  0  0  0  0  0  0  0  0  0
    0.3999    0.7302   -1.1216 C   0  0  0  0  0  0  0  0  0  0  0  0
    0.7380    0.6978   -2.3716 N   0  0  0  0  0  0  0  0  0  0  0  0
    0.0405    1.4871   -3.2744 C   0  0  0  0  0  0  0  0  0  0  0  0
   -0.9487    2.3527   -2.8964 C   0  0  0  0  0  0  0  0  0  0  0  0
   -1.5696    3.1861   -3.8295 N   0  0  0  0  0  0  0  0  0  0  0  0
   -1.3760    2.9585   -5.2412 C   0  0  2  0  0  0  0  0  0  0  0  0
    0.0755    2.5743   -5.5214 C   0  0  0  0  0  0  0  0  0  0  0  0
    0.3941    1.4622   -4.6322 N   0  0  0  0  0  0  0  0  0  0  0  0
   -1.8298    4.2442   -5.8802 C   0  0  0  0  0  0  0  0  0  0  0  0
   -2.4565    4.9884   -4.8338 O   0  0  0  0  0  0  0  0  0  0  0  0
   -2.2633    4.3562   -3.6324 C   0  0  0  0  0  0  0  0  0  0  0  0
   -2.6375    4.8858   -2.5960 O   0  0  0  0  0  0  0  0  0  0  0  0
   -1.3087    2.3591   -1.4538 C   0  0  0  0  0  0  0  0  0  0  0  0
   -2.1809    3.0416   -0.9343 O   0  0  0  0  0  0  0  0  0  0  0  0
   -0.6263    1.4857   -0.6718 N   0  0  0  0  0  0  0  0  0  0  0  0
    0.5473   -0.3921    0.6073 H   0  0  0  0  0  0  0  0  0  0  0  0
    2.0104   -0.2209   -0.2846 H   0  0  0  0  0  0  0  0  0  0  0  0
   -2.0416    2.1369   -5.5431 H   0  0  0  0  0  0  0  0  0  0  0  0
    0.2270    2.3210   -6.5757 H   0  0  0  0  0  0  0  0  0  0  0  0
    0.7371    3.4183   -5.2832 H   0  0  0  0  0  0  0  0  0  0  0  0
    1.0146    0.7165   -4.9266 H   0  0  0  0  0  0  0  0  0  0  0  0
   -2.5814    4.0746   -6.6573 H   0  0  0  0  0  0  0  0  0  0  0  0
   -1.0135    4.8333   -6.3094 H   0  0  0  0  0  0  0  0  0  0  0  0
   -0.8300    1.5526    0.3110 H   0  0  0  0  0  0  0  0  0  0  0  0
  1  2  1  0  0  0  0
  1 17  1  0  0  0  0
  1 18  1  0  0  0  0
  2  3  2  0  0  0  0
  2 16  1  0  0  0  0
  3  4  1  0  0  0  0
  4  5  2  0  0  0  0
  4  9  1  0  0  0  0
  5  6  1  0  0  0  0
  5 14  1  0  0  0  0
  6 12  1  0  0  0  0
  7  6  1  0  0  0  0
  7  8  1  0  0  0  0
  7 10  1  0  0  0  0
  7 19  1  6  0  0  0
  8  9  1  0  0  0  0
  8 20  1  0  0  0  0
  8 21  1  0  0  0  0
  9 22  1  0  0  0  0
 10 11  1  0  0  0  0
 10 23  1  0  0  0  0
 10 24  1  0  0  0  0
 11 12  1  0  0  0  0
 12 13  2  0  0  0  0
 14 15  2  0  0  0  0
 14 16  1  0  0  0  0
 16 25  1  0  0  0  0
M  END
>  <DRUGBANK_ID>
DB03332

>  <SECONDARY_ACCESSION_NUMBERS>
EXPT00534

>  <COMMON_NAME>
5,6-Cyclic-Tetrahydropteridine

$$$$
