
 OpenBabel10282417123D

 31 30  0  0  1  0  0  0  0  0999 V2000
    0.9227    0.0246   -0.0408 N   0  0  0  0  0  0  0  0  0  0  0  0
    0.3760   -1.3019   -0.3798 C   0  0  1  0  0  0  0  0  0  0  0  0
    0.8874   -2.3333    0.6620 C   0  0  0  0  0  0  0  0  0  0  0  0
    0.4964   -2.0687    2.1203 C   0  0  0  0  0  0  0  0  0  0  0  0
   -0.9996   -2.0638    2.2942 C   0  0  0  0  0  0  0  0  0  0  0  0
   -1.5902   -3.3365    1.9249 N   0  0  0  0  0  0  0  0  0  0  0  0
   -2.4071   -4.0958    2.7034 C   0  0  0  0  0  0  0  0  0  0  0  0
   -2.7998   -5.1954    2.3336 O   0  0  0  0  0  0  0  0  0  0  0  0
   -2.7779   -3.5061    4.0142 C   0  0  0  0  0  0  0  0  0  0  0  0
   -1.2529   -3.1703    4.9684 P   0  0  0  0  0  0  0  0  0  0  0  0
   -2.2777   -2.3669    5.9709 O   0  0  0  0  0  0  0  0  0  0  0  0
   -1.4163   -4.6914    5.5863 O   0  0  0  0  0  0  0  0  0  0  0  0
    0.0373   -2.8862    5.7758 O   0  0  0  0  0  0  0  0  0  0  0  0
   -1.1705   -1.1679   -0.6316 C   0  0  0  0  0  0  0  0  0  0  0  0
   -1.6491   -1.8528   -1.6866 O   0  0  0  0  0  0  0  0  0  0  0  0
   -1.9490   -0.4794    0.0326 O   0  0  0  0  0  0  0  0  0  0  0  0
    0.5519    0.3232    0.8645 H   0  0  0  0  0  0  0  0  0  0  0  0
    1.9335   -0.0325    0.0763 H   0  0  0  0  0  0  0  0  0  0  0  0
    0.8118   -1.5839   -1.3432 H   0  0  0  0  0  0  0  0  0  0  0  0
    0.5848   -3.3479    0.3755 H   0  0  0  0  0  0  0  0  0  0  0  0
    1.9879   -2.3505    0.6368 H   0  0  0  0  0  0  0  0  0  0  0  0
    0.9493   -2.8250    2.7785 H   0  0  0  0  0  0  0  0  0  0  0  0
    0.8906   -1.1058    2.4625 H   0  0  0  0  0  0  0  0  0  0  0  0
   -1.2561   -1.7421    3.2931 H   0  0  0  0  0  0  0  0  0  0  0  0
   -1.4753   -1.2696    1.7675 H   0  0  0  0  0  0  0  0  0  0  0  0
   -1.4562   -3.7233    0.9940 H   0  0  0  0  0  0  0  0  0  0  0  0
   -3.3331   -2.5797    3.8157 H   0  0  0  0  0  0  0  0  0  0  0  0
   -3.4727   -4.1717    4.5408 H   0  0  0  0  0  0  0  0  0  0  0  0
   -2.0342   -1.4259    6.0486 H   0  0  0  0  0  0  0  0  0  0  0  0
   -1.7734   -5.3883    4.9995 H   0  0  0  0  0  0  0  0  0  0  0  0
   -0.9907   -2.0066   -2.3868 H   0  0  0  0  0  0  0  0  0  0  0  0
  1 17  1  0  0  0  0
  1 18  1  0  0  0  0
  2  1  1  0  0  0  0
  2  3  1  0  0  0  0
  2 14  1  0  0  0  0
  2 19  1  6  0  0  0
  3  4  1  0  0  0  0
  3 20  1  0  0  0  0
  3 21  1  0  0  0  0
  4  5  1  0  0  0  0
  4 22  1  0  0  0  0
  4 23  1  0  0  0  0
  5  6  1  0  0  0  0
  5 24  1  0  0  0  0
  5 25  1  0  0  0  0
  6  7  1  0  0  0  0
  6 26  1  0  0  0  0
  7  8  2  0  0  0  0
  7  9  1  0  0  0  0
  9 10  1  0  0  0  0
  9 27  1  0  0  0  0
  9 28  1  0  0  0  0
 10 11  1  0  0  0  0
 10 12  1  0  0  0  0
 10 13  2  0  0  0  0
 11 29  1  0  0  0  0
 12 30  1  0  0  0  0
 14 15  1  0  0  0  0
 14 16  2  0  0  0  0
 15 31  1  0  0  0  0
M  END
>  <DRUGBANK_ID>
DB02011

>  <SECONDARY_ACCESSION_NUMBERS>
EXPT02497

>  <COMMON_NAME>
N-(Phosphonoacetyl)-L-Ornithine

>  <CAS_NUMBER>
63446-55-9

$$$$
