
 OpenBabel10282417223D

 34 35  0  0  0  0  0  0  0  0999 V2000
   -3.2442    0.0082   -3.0662 O   0  0  0  0  0  0  0  0  0  0  0  0
   -3.3263    1.1356   -2.3344 C   0  0  0  0  0  0  0  0  0  0  0  0
   -3.6923    2.1863   -2.8423 O   0  0  0  0  0  0  0  0  0  0  0  0
   -2.9012    0.9531   -0.9073 C   0  0  0  0  0  0  0  0  0  0  0  0
   -3.7644   -0.0740   -0.1728 C   0  0  1  0  0  0  0  0  0  0  0  0
   -3.5875   -1.3521   -0.8010 O   0  0  0  0  0  0  0  0  0  0  0  0
   -3.3620   -0.2096    1.3144 C   0  0  1  0  0  0  0  0  0  0  0  0
   -3.9201    0.8801    2.2260 C   0  0  2  0  0  0  0  0  0  0  0  0
   -2.9839    2.0805    2.3860 C   0  0  0  0  0  0  0  0  0  0  0  0
   -4.1792    0.1753    3.4606 O   0  0  0  0  0  0  0  0  0  0  0  0
   -4.2646   -1.1377    3.0934 C   0  0  0  0  0  0  0  0  0  0  0  0
   -3.9122   -1.4579    1.8917 N   0  0  0  0  0  0  0  0  0  0  0  0
   -4.7482   -2.1235    4.0993 C   0  0  0  0  0  0  0  0  0  0  0  0
   -6.0070   -1.9937    4.7052 C   0  0  0  0  0  0  0  0  0  0  0  0
   -6.4463   -2.9631    5.6236 C   0  0  0  0  0  0  0  0  0  0  0  0
   -7.9791   -2.7976    6.3957 Cl  0  0  0  0  0  0  0  0  0  0  0  0
   -5.6599   -4.0724    5.9362 C   0  0  0  0  0  0  0  0  0  0  0  0
   -4.4282   -4.2325    5.3075 C   0  0  0  0  0  0  0  0  0  0  0  0
   -3.9807   -3.2665    4.3945 C   0  0  0  0  0  0  0  0  0  0  0  0
   -2.7560   -3.4429    3.8119 O   0  0  0  0  0  0  0  0  0  0  0  0
   -3.4870    0.2702   -3.9798 H   0  0  0  0  0  0  0  0  0  0  0  0
   -1.8413    0.6734   -0.8949 H   0  0  0  0  0  0  0  0  0  0  0  0
   -2.9911    1.9369   -0.4451 H   0  0  0  0  0  0  0  0  0  0  0  0
   -4.8269    0.1856   -0.2525 H   0  0  0  0  0  0  0  0  0  0  0  0
   -3.8118   -1.2581   -1.7451 H   0  0  0  0  0  0  0  0  0  0  0  0
   -2.2669   -0.2744    1.3922 H   0  0  0  0  0  0  0  0  0  0  0  0
   -4.8857    1.2510    1.8628 H   0  0  0  0  0  0  0  0  0  0  0  0
   -2.8233    2.5972    1.4350 H   0  0  0  0  0  0  0  0  0  0  0  0
   -3.4047    2.8254    3.0683 H   0  0  0  0  0  0  0  0  0  0  0  0
   -1.9998    1.7976    2.7721 H   0  0  0  0  0  0  0  0  0  0  0  0
   -6.6595   -1.1633    4.4541 H   0  0  0  0  0  0  0  0  0  0  0  0
   -5.9973   -4.8108    6.6624 H   0  0  0  0  0  0  0  0  0  0  0  0
   -3.8269   -5.1060    5.5472 H   0  0  0  0  0  0  0  0  0  0  0  0
   -2.3921   -4.3073    4.0616 H   0  0  0  0  0  0  0  0  0  0  0  0
  1  2  1  0  0  0  0
  1 21  1  0  0  0  0
  2  3  2  0  0  0  0
  2  4  1  0  0  0  0
  4 22  1  0  0  0  0
  4 23  1  0  0  0  0
  5  4  1  0  0  0  0
  5  6  1  0  0  0  0
  5 24  1  6  0  0  0
  6 25  1  0  0  0  0
  7  8  1  0  0  0  0
  7 12  1  0  0  0  0
  7 26  1  1  0  0  0
  7  5  1  0  0  0  0
  8  9  1  0  0  0  0
  8 10  1  0  0  0  0
  8 27  1  6  0  0  0
  9 28  1  0  0  0  0
  9 29  1  0  0  0  0
  9 30  1  0  0  0  0
 10 11  1  0  0  0  0
 11 12  2  0  0  0  0
 11 13  1  0  0  0  0
 13 14  2  0  0  0  0
 13 19  1  0  0  0  0
 14 15  1  0  0  0  0
 14 31  1  0  0  0  0
 15 16  1  0  0  0  0
 15 17  2  0  0  0  0
 17 18  1  0  0  0  0
 17 32  1  0  0  0  0
 18 19  2  0  0  0  0
 18 33  1  0  0  0  0
 19 20  1  0  0  0  0
 20 34  1  0  0  0  0
M  END
>  <DRUGBANK_ID>
DB15551

>  <COMMON_NAME>
Leptazoline A

$$$$
