
 OpenBabel10282417223D

 70 75  0  0  1  0  0  0  0  0999 V2000
    1.3530    0.2085   -0.5393 C   0  0  0  0  0  0  0  0  0  0  0  0
   -0.0237   -0.6552    0.9219 N   0  0  0  0  0  0  0  0  0  0  0  0
   -0.0721   -0.1082    2.3987 N   0  0  0  0  0  0  0  0  0  0  0  0
    0.0099   -0.8096    3.5062 N   0  0  0  0  0  0  0  0  0  0  0  0
   -0.1489   -2.0741    3.2187 C   0  0  0  0  0  0  0  0  0  0  0  0
   -0.1192   -2.9532    4.4695 C   0  0  0  0  0  0  0  0  0  0  0  0
    0.0973   -2.2202    1.7827 C   0  0  0  0  0  0  0  0  0  0  0  0
    1.4025   -2.9781    1.5047 C   0  0  0  0  0  0  0  0  0  0  0  0
    2.1567   -1.7441    1.8297 C   0  0  0  0  0  0  0  0  0  0  0  0
    1.7949   -0.4169    1.1141 C   0  0  0  0  0  0  0  0  0  0  0  0
    1.0944   -1.5796   -0.2362 C   0  0  0  0  0  0  0  0  0  0  0  0
    1.7797   -2.5710   -0.7428 N   0  0  0  0  0  0  0  0  0  0  0  0
    1.6480   -3.4597    0.2000 C   0  0  0  0  0  0  0  0  0  0  0  0
   -0.3267   -0.6319   -1.1363 C   0  0  0  0  0  0  0  0  0  0  0  0
   -0.7580    0.9527   -0.6335 C   0  0  0  0  0  0  0  0  0  0  0  0
   -1.5366    0.9797   -2.3469 C   0  0  0  0  0  0  0  0  0  0  0  0
   -1.0668    0.4672   -3.7908 C   0  0  0  0  0  0  0  0  0  0  0  0
    0.0685    0.7418   -3.2582 C   0  0  0  0  0  0  0  0  0  0  0  0
    0.0738   -0.4524   -2.4879 C   0  0  0  0  0  0  0  0  0  0  0  0
   -0.7756   -0.9730   -4.7979 C   0  0  0  0  0  0  0  0  0  0  0  0
    0.7787   -1.2318   -5.0548 C   0  0  0  0  0  0  0  0  0  0  0  0
   -1.4165   -2.1977   -4.1438 C   0  0  0  0  0  0  0  0  0  0  0  0
   -1.2748   -1.0204   -6.1810 O   0  0  0  0  0  0  0  0  0  0  0  0
    0.5369    1.1003    0.7935 N   0  0  0  0  0  0  0  0  0  0  0  0
    0.6694    2.1068    2.0553 C   0  0  1  0  0  0  0  0  0  0  0  0
    1.5759    3.3092    1.7469 C   0  0  0  0  0  0  0  0  0  0  0  0
    0.9588    3.9827    0.5403 C   0  0  0  0  0  0  0  0  0  0  0  0
    1.7675    5.1514    0.1005 C   0  0  0  0  0  0  0  0  0  0  0  0
    3.0976    4.7350   -0.1727 O   0  0  0  0  0  0  0  0  0  0  0  0
    3.7594    4.2234    0.9859 C   0  0  0  0  0  0  0  0  0  0  0  0
    3.0545    2.9810    1.5133 C   0  0  0  0  0  0  0  0  0  0  0  0
   -0.6608    2.4671    2.7059 C   0  0  0  0  0  0  0  0  0  0  0  0
   -1.5635    1.5529    3.2622 C   0  0  0  0  0  0  0  0  0  0  0  0
   -2.9085    1.7172    3.2933 C   0  0  0  0  0  0  0  0  0  0  0  0
   -3.3332    2.9971    3.1870 C   0  0  0  0  0  0  0  0  0  0  0  0
   -2.4082    4.0256    3.0509 C   0  0  0  0  0  0  0  0  0  0  0  0
   -1.0884    3.7629    2.7643 C   0  0  0  0  0  0  0  0  0  0  0  0
    1.4198    1.3083   -0.7212 H   0  0  0  0  0  0  0  0  0  0  0  0
    1.6610   -0.4222   -1.4514 H   0  0  0  0  0  0  0  0  0  0  0  0
    2.5359    0.1110   -0.3197 H   0  0  0  0  0  0  0  0  0  0  0  0
   -0.8292   -3.7541    4.2970 H   0  0  0  0  0  0  0  0  0  0  0  0
    0.8507   -3.3774    4.7756 H   0  0  0  0  0  0  0  0  0  0  0  0
   -0.4824   -2.4224    5.3811 H   0  0  0  0  0  0  0  0  0  0  0  0
    3.2070   -2.0238    1.9366 H   0  0  0  0  0  0  0  0  0  0  0  0
    1.8765   -4.4053   -0.2764 H   0  0  0  0  0  0  0  0  0  0  0  0
   -1.8611    1.9790   -3.1297 H   0  0  0  0  0  0  0  0  0  0  0  0
    0.0462    1.8852   -2.8118 H   0  0  0  0  0  0  0  0  0  0  0  0
    0.4180   -1.4187   -2.7613 H   0  0  0  0  0  0  0  0  0  0  0  0
    1.3897   -1.2292   -4.1589 H   0  0  0  0  0  0  0  0  0  0  0  0
    0.9921   -2.2111   -5.4992 H   0  0  0  0  0  0  0  0  0  0  0  0
    1.2251   -0.4531   -5.6789 H   0  0  0  0  0  0  0  0  0  0  0  0
   -2.4965   -2.0813   -4.1434 H   0  0  0  0  0  0  0  0  0  0  0  0
   -1.1391   -3.1445   -4.6205 H   0  0  0  0  0  0  0  0  0  0  0  0
   -1.1340   -2.3178   -3.1088 H   0  0  0  0  0  0  0  0  0  0  0  0
   -1.0305   -1.8966   -6.5788 H   0  0  0  0  0  0  0  0  0  0  0  0
    1.2814    1.5664    2.8102 H   0  0  0  0  0  0  0  0  0  0  0  0
    1.5967    3.9985    2.6140 H   0  0  0  0  0  0  0  0  0  0  0  0
    0.8740    3.2550   -0.2592 H   0  0  0  0  0  0  0  0  0  0  0  0
   -0.0606    4.3157    0.7059 H   0  0  0  0  0  0  0  0  0  0  0  0
    1.3008    5.5281   -0.8112 H   0  0  0  0  0  0  0  0  0  0  0  0
    1.7480    5.9371    0.8631 H   0  0  0  0  0  0  0  0  0  0  0  0
    3.7966    5.0013    1.7575 H   0  0  0  0  0  0  0  0  0  0  0  0
    4.7849    3.9712    0.7036 H   0  0  0  0  0  0  0  0  0  0  0  0
    3.5506    2.6472    2.4361 H   0  0  0  0  0  0  0  0  0  0  0  0
    3.1421    2.1799    0.7792 H   0  0  0  0  0  0  0  0  0  0  0  0
   -1.3525    0.5888    3.6643 H   0  0  0  0  0  0  0  0  0  0  0  0
   -3.5338    0.8493    3.4662 H   0  0  0  0  0  0  0  0  0  0  0  0
   -4.3833    3.1786    3.2865 H   0  0  0  0  0  0  0  0  0  0  0  0
   -2.7026    5.0541    3.1295 H   0  0  0  0  0  0  0  0  0  0  0  0
   -0.4321    4.5895    2.5436 H   0  0  0  0  0  0  0  0  0  0  0  0
  1  2  1  0  0  0  0
  1 38  1  0  0  0  0
  1 39  1  0  0  0  0
  1 40  1  0  0  0  0
  2  3  1  0  0  0  0
  2  7  1  0  0  0  0
  3  4  2  0  0  0  0
  4  5  1  0  0  0  0
  5  6  1  0  0  0  0
  5  7  2  0  0  0  0
  6 41  1  0  0  0  0
  6 42  1  0  0  0  0
  6 43  1  0  0  0  0
  7  8  1  0  0  0  0
  8  9  2  0  0  0  0
  8 13  1  0  0  0  0
  9 10  1  0  0  0  0
  9 44  1  0  0  0  0
 10 11  2  0  0  0  0
 10 24  1  0  0  0  0
 11 12  1  0  0  0  0
 11 14  1  0  0  0  0
 12 13  2  0  0  0  0
 13 45  1  0  0  0  0
 14 15  2  0  0  0  0
 14 19  1  0  0  0  0
 15 16  1  0  0  0  0
 15 24  1  0  0  0  0
 16 17  2  0  0  0  0
 16 46  1  0  0  0  0
 17 18  1  0  0  0  0
 17 20  1  0  0  0  0
 18 19  2  0  0  0  0
 18 47  1  0  0  0  0
 19 48  1  0  0  0  0
 20 21  1  0  0  0  0
 20 22  1  0  0  0  0
 20 23  1  0  0  0  0
 21 49  1  0  0  0  0
 21 50  1  0  0  0  0
 21 51  1  0  0  0  0
 22 52  1  0  0  0  0
 22 53  1  0  0  0  0
 22 54  1  0  0  0  0
 23 55  1  0  0  0  0
 25 24  1  0  0  0  0
 25 26  1  0  0  0  0
 25 32  1  0  0  0  0
 25 56  1  1  0  0  0
 26 27  1  0  0  0  0
 26 31  1  0  0  0  0
 26 57  1  0  0  0  0
 27 28  1  0  0  0  0
 27 58  1  0  0  0  0
 27 59  1  0  0  0  0
 28 29  1  0  0  0  0
 28 60  1  0  0  0  0
 28 61  1  0  0  0  0
 29 30  1  0  0  0  0
 30 31  1  0  0  0  0
 30 62  1  0  0  0  0
 30 63  1  0  0  0  0
 31 64  1  0  0  0  0
 31 65  1  0  0  0  0
 32 33  2  0  0  0  0
 32 37  1  0  0  0  0
 33 34  1  0  0  0  0
 33 66  1  0  0  0  0
 34 35  2  0  0  0  0
 34 67  1  0  0  0  0
 35 36  1  0  0  0  0
 35 68  1  0  0  0  0
 36 37  2  0  0  0  0
 36 69  1  0  0  0  0
 37 70  1  0  0  0  0
M  END
>  <DRUGBANK_ID>
DB15435

>  <COMMON_NAME>
BMS-986158

>  <CAS_NUMBER>
1800340-40-2

>  <UNII>
X8BW0MQ5PI

$$$$
