
 OpenBabel10282417133D

 42 44  0  0  0  0  0  0  0  0999 V2000
   -4.3536    3.1376    3.5196 C   0  0  0  0  0  0  0  0  0  0  0  0
   -4.2866    3.8793    2.3687 C   0  0  0  0  0  0  0  0  0  0  0  0
   -2.9297    4.3963    1.5370 C   0  0  0  0  0  0  0  0  0  0  0  0
   -1.4371    4.1248    1.7953 C   0  0  0  0  0  0  0  0  0  0  0  0
   -1.6684    3.1262    3.1361 C   0  0  0  0  0  0  0  0  0  0  0  0
   -3.0818    2.8281    3.9188 C   0  0  0  0  0  0  0  0  0  0  0  0
   -3.2226    2.1541    5.1306 O   0  0  0  0  0  0  0  0  0  0  0  0
   -5.6026    4.2138    1.9825 O   0  0  0  0  0  0  0  0  0  0  0  0
   -3.5350    5.0902    0.0560 Cl  0  0  0  0  0  0  0  0  0  0  0  0
   -0.7009    2.0589    3.7952 C   0  0  0  0  0  0  0  0  0  0  0  0
   -0.9646    0.7374    4.2908 O   0  0  0  0  0  0  0  0  0  0  0  0
    0.4949    2.4058    3.7825 O   0  0  0  0  0  0  0  0  0  0  0  0
   -1.9587    0.0562    5.3184 C   0  0  1  0  0  0  0  0  0  0  0  0
   -3.0622   -0.6304    4.3941 C   0  0  0  0  0  0  0  0  0  0  0  0
   -2.4426    0.1258    6.9333 C   0  0  0  0  0  0  0  0  0  0  0  0
   -3.7110    0.1910    3.2993 C   0  0  2  0  0  0  0  0  0  0  0  0
   -3.2163    0.7235    1.9270 C   0  0  1  0  0  0  0  0  0  0  0  0
    0.1035    4.7373    0.7783 C   0  0  0  0  0  0  0  0  0  0  0  0
    0.8960    3.6613    0.0308 C   0  0  0  0  0  0  0  0  0  0  0  0
   -0.0702    3.0039   -0.8537 C   0  0  0  0  0  0  0  0  0  0  0  0
    2.1784    3.5075   -0.1555 O   0  0  0  0  0  0  0  0  0  0  0  0
   -0.2868    1.8810   -0.1662 C   0  0  0  0  0  0  0  0  0  0  0  0
   -1.5989    1.6582    0.3465 C   0  0  0  0  0  0  0  0  0  0  0  0
   -1.9014    0.7382    1.2817 C   0  0  0  0  0  0  0  0  0  0  0  0
   -4.0141   -0.4433    2.0487 O   0  0  0  0  0  0  0  0  0  0  0  0
   -5.2605    2.7216    4.0110 H   0  0  0  0  0  0  0  0  0  0  0  0
   -4.0053    1.5560    5.2568 H   0  0  0  0  0  0  0  0  0  0  0  0
   -6.1082    3.4768    1.5748 H   0  0  0  0  0  0  0  0  0  0  0  0
   -1.8130    1.0547    5.6860 H   0  0  0  0  0  0  0  0  0  0  0  0
   -3.8802   -1.0074    5.0426 H   0  0  0  0  0  0  0  0  0  0  0  0
   -2.6811   -1.5379    3.9119 H   0  0  0  0  0  0  0  0  0  0  0  0
   -3.1313    0.9808    7.1417 H   0  0  0  0  0  0  0  0  0  0  0  0
   -3.0088   -0.7404    7.3042 H   0  0  0  0  0  0  0  0  0  0  0  0
   -1.6089    0.3157    7.6260 H   0  0  0  0  0  0  0  0  0  0  0  0
   -4.6078    0.6209    3.7253 H   0  0  0  0  0  0  0  0  0  0  0  0
   -3.7100    1.6450    1.6448 H   0  0  0  0  0  0  0  0  0  0  0  0
    0.2378    5.8641    0.5339 H   0  0  0  0  0  0  0  0  0  0  0  0
    0.1876    5.0215   -0.4152 H   0  0  0  0  0  0  0  0  0  0  0  0
   -0.8939    3.7017   -1.1073 H   0  0  0  0  0  0  0  0  0  0  0  0
    0.5773    1.4305    0.3159 H   0  0  0  0  0  0  0  0  0  0  0  0
   -2.3298    2.4323    0.0993 H   0  0  0  0  0  0  0  0  0  0  0  0
   -1.1059    0.0789    1.6033 H   0  0  0  0  0  0  0  0  0  0  0  0
  1  2  2  0  0  0  0
  1 26  1  0  0  0  0
  2  3  1  0  0  0  0
  2  8  1  0  0  0  0
  3  4  2  0  0  0  0
  3  9  1  0  0  0  0
  4 18  1  0  0  0  0
  4  5  1  0  0  0  0
  5 10  1  0  0  0  0
  5  6  2  0  0  0  0
  6  1  1  0  0  0  0
  6  7  1  0  0  0  0
  7 27  1  0  0  0  0
  8 28  1  0  0  0  0
 10 11  1  0  0  0  0
 10 12  2  0  0  0  0
 11 13  1  0  0  0  0
 13 14  1  0  0  0  0
 13 15  1  0  0  0  0
 13 29  1  6  0  0  0
 14 30  1  0  0  0  0
 14 31  1  0  0  0  0
 15 32  1  0  0  0  0
 15 33  1  0  0  0  0
 15 34  1  0  0  0  0
 16 14  1  0  0  0  0
 16 25  1  0  0  0  0
 16 35  1  6  0  0  0
 17 16  1  0  0  0  0
 17 24  1  0  0  0  0
 17 25  1  0  0  0  0
 17 36  1  6  0  0  0
 18 19  1  0  0  0  0
 18 37  1  0  0  0  0
 18 38  1  0  0  0  0
 19 20  1  0  0  0  0
 19 21  2  0  0  0  0
 20 22  2  0  0  0  0
 20 39  1  0  0  0  0
 22 23  1  0  0  0  0
 22 40  1  0  0  0  0
 23 24  2  0  0  0  0
 23 41  1  0  0  0  0
 24 42  1  0  0  0  0
M  END
>  <DRUGBANK_ID>
DB03758

>  <SECONDARY_ACCESSION_NUMBERS>
EXPT02763

>  <COMMON_NAME>
Radicicol

>  <CAS_NUMBER>
12772-57-5

>  <UNII>
I60EH8GECX

>  <SYNONYMS>
Monorden

$$$$
