
 OpenBabel10282417123D

 15 16  0  0  0  0  0  0  0  0999 V2000
   -0.2550   -0.6835   -0.0003 C   0  0  0  0  0  0  0  0  0  0  0  0
   -0.1625    0.6854    0.0007 C   0  0  0  0  0  0  0  0  0  0  0  0
    0.9622   -1.4434   -0.0005 C   0  0  0  0  0  0  0  0  0  0  0  0
   -1.5577   -1.0760   -0.0001 N   0  0  0  0  0  0  0  0  0  0  0  0
    0.9522    1.4571    0.0029 N   0  0  0  0  0  0  0  0  0  0  0  0
   -2.3026    0.0300    0.0003 N   0  0  0  0  0  0  0  0  0  0  0  0
   -1.4633    1.0902    0.0001 N   0  0  0  0  0  0  0  0  0  0  0  0
    2.0594    0.7583    0.0025 C   0  0  0  0  0  0  0  0  0  0  0  0
    3.2605    1.3803    0.0047 N   0  0  0  0  0  0  0  0  0  0  0  0
    1.0422   -2.6679   -0.0000 O   0  0  0  0  0  0  0  0  0  0  0  0
    2.0874   -0.6268   -0.0004 N   0  0  0  0  0  0  0  0  0  0  0  0
   -1.8482    2.0261    0.0002 H   0  0  0  0  0  0  0  0  0  0  0  0
    3.2749    2.3931    0.0172 H   0  0  0  0  0  0  0  0  0  0  0  0
    4.1481    0.9009    0.0181 H   0  0  0  0  0  0  0  0  0  0  0  0
    2.9654   -1.1171   -0.0023 H   0  0  0  0  0  0  0  0  0  0  0  0
  1  2  2  0  0  0  0
  1  3  1  0  0  0  0
  1  4  1  0  0  0  0
  2  5  1  0  0  0  0
  2  7  1  0  0  0  0
  3 11  1  0  0  0  0
  3 10  2  0  0  0  0
  4  6  2  0  0  0  0
  5  8  2  0  0  0  0
  7  6  1  0  0  0  0
  7 12  1  0  0  0  0
  8  9  1  0  0  0  0
  9 13  1  0  0  0  0
  9 14  1  0  0  0  0
 11  8  1  0  0  0  0
 11 15  1  0  0  0  0
M  END
>  <DRUGBANK_ID>
DB01667

>  <SECONDARY_ACCESSION_NUMBERS>
EXPT00603

>  <COMMON_NAME>
8-azaguanine

>  <CAS_NUMBER>
134-58-7

>  <UNII>
Q150359I72

>  <SYNONYMS>
3-amino-2,4,7,8,9-pentazabicyclo[4.3.0]nona-1,3,6-trien-5-one; 8 AG; Azaguanine; Azaguanine-8; Guanazol; Pathocidin; Pathocidine

$$$$
