00G
 OpenBabel10282417163D

 31 33  0  0  0  0  0  0  0  0999 V2000
    1.3234    1.7870    0.7715 C   0  0  0  0  0  0  0  0  0  0  0  0
    1.3446    3.2052    0.6934 C   0  0  0  0  0  0  0  0  0  0  0  0
    0.3593    3.5234   -0.3152 C   0  0  0  0  0  0  0  0  0  0  0  0
    0.7089    2.4483   -1.1576 C   0  0  0  0  0  0  0  0  0  0  0  0
    0.3816    1.4530   -0.1972 N   0  0  0  0  0  0  0  0  0  0  0  0
   -0.9581    0.9158    0.0511 C   0  0  0  0  0  0  0  0  0  0  0  0
   -1.1300   -0.3759   -0.7606 C   0  0  0  0  0  0  0  0  0  0  0  0
   -0.6443   -1.5899    0.0672 O   0  0  0  0  0  0  0  0  0  0  0  0
    0.5484   -2.3663   -0.2397 C   0  0  0  0  0  0  0  0  0  0  0  0
    0.5858   -2.6849   -1.5416 C   0  0  0  0  0  0  0  0  0  0  0  0
    1.0048   -3.5982    0.4849 C   0  0  0  0  0  0  0  0  0  0  0  0
    0.8764   -4.9572   -0.1647 C   0  0  0  0  0  0  0  0  0  0  0  0
    1.3121   -6.3643   -0.1339 C   0  0  0  0  0  0  0  0  0  0  0  0
    0.5654   -7.0730   -1.0696 C   0  0  0  0  0  0  0  0  0  0  0  0
   -0.3232   -6.1854   -1.6434 N   0  0  0  0  0  0  0  0  0  0  0  0
    0.0882   -4.9101   -1.3044 C   0  0  0  0  0  0  0  0  0  0  0  0
   -0.3754   -3.6775   -1.7749 C   0  0  0  0  0  0  0  0  0  0  0  0
    2.1537    1.0949    0.8687 H   0  0  0  0  0  0  0  0  0  0  0  0
    2.3028    3.7188    0.6888 H   0  0  0  0  0  0  0  0  0  0  0  0
   -0.6961    3.6839   -0.0782 H   0  0  0  0  0  0  0  0  0  0  0  0
    1.7409    2.3155   -1.5212 H   0  0  0  0  0  0  0  0  0  0  0  0
   -1.1010    0.7162    1.1173 H   0  0  0  0  0  0  0  0  0  0  0  0
   -1.6874    1.7066   -0.2163 H   0  0  0  0  0  0  0  0  0  0  0  0
   -2.2282   -0.4545   -0.9143 H   0  0  0  0  0  0  0  0  0  0  0  0
   -0.7329   -0.2328   -1.7870 H   0  0  0  0  0  0  0  0  0  0  0  0
    1.6216   -2.9443   -1.8530 H   0  0  0  0  0  0  0  0  0  0  0  0
    1.8330   -3.5554    1.2051 H   0  0  0  0  0  0  0  0  0  0  0  0
    2.0638   -6.8855    0.4593 H   0  0  0  0  0  0  0  0  0  0  0  0
    0.5331   -8.1165   -1.3930 H   0  0  0  0  0  0  0  0  0  0  0  0
   -1.0109   -6.3839   -2.3201 H   0  0  0  0  0  0  0  0  0  0  0  0
   -1.3888   -3.4739   -1.3975 H   0  0  0  0  0  0  0  0  0  0  0  0
  1  2  2  0  0  0  0
  1 18  1  0  0  0  0
  2 19  1  0  0  0  0
  3  2  1  0  0  0  0
  3 20  1  0  0  0  0
  4  3  2  0  0  0  0
  4  5  1  0  0  0  0
  4 21  1  0  0  0  0
  5  1  1  0  0  0  0
  6  5  1  0  0  0  0
  6  7  1  0  0  0  0
  6 22  1  0  0  0  0
  6 23  1  0  0  0  0
  7  8  1  0  0  0  0
  7 24  1  0  0  0  0
  7 25  1  0  0  0  0
  8  9  1  0  0  0  0
  9 11  2  0  0  0  0
  9 10  1  0  0  0  0
 10 17  2  0  0  0  0
 10 26  1  0  0  0  0
 11 12  1  0  0  0  0
 11 27  1  0  0  0  0
 12 13  1  0  0  0  0
 12 16  2  0  0  0  0
 13 14  2  0  0  0  0
 13 28  1  0  0  0  0
 14 15  1  0  0  0  0
 14 29  1  0  0  0  0
 15 30  1  0  0  0  0
 16 15  1  0  0  0  0
 17 16  1  0  0  0  0
 17 31  1  0  0  0  0
M  END
>  <DRUGBANK_ID>
DB06828

>  <COMMON_NAME>
5-[2-(1H-pyrrol-1-yl)ethoxy]-1H-indole

$$$$
