
 OpenBabel10282417233D

 42 44  0  0  0  0  0  0  0  0999 V2000
    0.3869   -0.5119    0.2220 O   0  0  0  0  0  0  0  0  0  0  0  0
    0.3513   -1.5266   -0.7288 N   0  0  0  0  0  0  0  0  0  0  0  0
    1.3532   -2.2880   -1.2321 C   0  0  0  0  0  0  0  0  0  0  0  0
    1.0276   -3.2994   -1.8630 O   0  0  0  0  0  0  0  0  0  0  0  0
    2.8421   -1.9726   -1.0781 C   0  0  0  0  0  0  0  0  0  0  0  0
    3.3189   -0.7103   -1.8002 C   0  0  0  0  0  0  0  0  0  0  0  0
    2.7661    0.5509   -1.1660 C   0  0  0  0  0  0  0  0  0  0  0  0
    3.1283    0.6015    0.3360 C   0  0  0  0  0  0  0  0  0  0  0  0
    4.5810    0.9596    0.5563 C   0  0  0  0  0  0  0  0  0  0  0  0
    4.8889    2.2185   -0.0724 N   0  0  0  0  0  0  0  0  0  0  0  0
    4.0482    3.2869    0.2299 C   0  0  0  0  0  0  0  0  0  0  0  0
    3.0821    3.2492    0.9910 O   0  0  0  0  0  0  0  0  0  0  0  0
    4.3262    4.5577   -0.4133 C   0  0  0  0  0  0  0  0  0  0  0  0
    3.5359    5.6547   -0.0592 C   0  0  0  0  0  0  0  0  0  0  0  0
    3.8545    6.9036   -0.5521 C   0  0  0  0  0  0  0  0  0  0  0  0
    4.9294    7.0358   -1.4315 C   0  0  0  0  0  0  0  0  0  0  0  0
    5.6905    5.9198   -1.8366 C   0  0  0  0  0  0  0  0  0  0  0  0
    5.3904    4.6544   -1.3065 C   0  0  0  0  0  0  0  0  0  0  0  0
    6.1617    3.5402   -1.6684 C   0  0  0  0  0  0  0  0  0  0  0  0
    7.1977    3.6560   -2.5954 C   0  0  0  0  0  0  0  0  0  0  0  0
    7.4926    4.9053   -3.1299 C   0  0  0  0  0  0  0  0  0  0  0  0
    6.7555    6.0287   -2.7423 C   0  0  0  0  0  0  0  0  0  0  0  0
    5.9039    2.2317   -1.0303 C   0  0  0  0  0  0  0  0  0  0  0  0
    6.5624    1.2566   -1.3531 O   0  0  0  0  0  0  0  0  0  0  0  0
    1.3099   -0.4697    0.4747 H   0  0  0  0  0  0  0  0  0  0  0  0
   -0.5944   -1.8239   -0.9386 H   0  0  0  0  0  0  0  0  0  0  0  0
    3.1372   -2.0094   -0.0264 H   0  0  0  0  0  0  0  0  0  0  0  0
    3.3968   -2.8093   -1.5245 H   0  0  0  0  0  0  0  0  0  0  0  0
    4.4162   -0.6605   -1.7821 H   0  0  0  0  0  0  0  0  0  0  0  0
    3.0400   -0.7461   -2.8588 H   0  0  0  0  0  0  0  0  0  0  0  0
    3.1197    1.4396   -1.7019 H   0  0  0  0  0  0  0  0  0  0  0  0
    1.6876    0.5931   -1.3414 H   0  0  0  0  0  0  0  0  0  0  0  0
    2.4228    1.2676    0.8371 H   0  0  0  0  0  0  0  0  0  0  0  0
    3.0048   -0.3287    0.8919 H   0  0  0  0  0  0  0  0  0  0  0  0
    4.7905    1.0388    1.6272 H   0  0  0  0  0  0  0  0  0  0  0  0
    5.2019    0.1418    0.1722 H   0  0  0  0  0  0  0  0  0  0  0  0
    2.6943    5.5324    0.6221 H   0  0  0  0  0  0  0  0  0  0  0  0
    3.2726    7.7648   -0.2381 H   0  0  0  0  0  0  0  0  0  0  0  0
    5.1719    8.0282   -1.8014 H   0  0  0  0  0  0  0  0  0  0  0  0
    7.7805    2.7839   -2.8866 H   0  0  0  0  0  0  0  0  0  0  0  0
    8.3079    5.0084   -3.8407 H   0  0  0  0  0  0  0  0  0  0  0  0
    7.0179    6.9991   -3.1563 H   0  0  0  0  0  0  0  0  0  0  0  0
  1  2  1  0  0  0  0
  1 25  1  0  0  0  0
  2  3  1  0  0  0  0
  2 26  1  0  0  0  0
  3  4  2  0  0  0  0
  3  5  1  0  0  0  0
  5  6  1  0  0  0  0
  5 27  1  0  0  0  0
  5 28  1  0  0  0  0
  6  7  1  0  0  0  0
  6 29  1  0  0  0  0
  6 30  1  0  0  0  0
  7  8  1  0  0  0  0
  7 31  1  0  0  0  0
  7 32  1  0  0  0  0
  8  9  1  0  0  0  0
  8 33  1  0  0  0  0
  8 34  1  0  0  0  0
  9 10  1  0  0  0  0
  9 35  1  0  0  0  0
  9 36  1  0  0  0  0
 10 11  1  0  0  0  0
 10 23  1  0  0  0  0
 11 12  2  0  0  0  0
 11 13  1  0  0  0  0
 13 14  2  0  0  0  0
 13 18  1  0  0  0  0
 14 15  1  0  0  0  0
 14 37  1  0  0  0  0
 15 16  2  0  0  0  0
 15 38  1  0  0  0  0
 16 17  1  0  0  0  0
 16 39  1  0  0  0  0
 17 18  2  0  0  0  0
 17 22  1  0  0  0  0
 18 19  1  0  0  0  0
 19 20  2  0  0  0  0
 19 23  1  0  0  0  0
 20 21  1  0  0  0  0
 20 40  1  0  0  0  0
 21 22  2  0  0  0  0
 21 41  1  0  0  0  0
 22 42  1  0  0  0  0
 23 24  2  0  0  0  0
M  END
>  <DRUGBANK_ID>
DB17053

>  <COMMON_NAME>
Scriptaid

>  <CAS_NUMBER>
287383-59-9

>  <UNII>
EJQ8CD8BSV

>  <SYNONYMS>
1h-benz(de)isoquinoline-2(3h)-hexanamide, n-hydroxy-1,3-dioxo-; N-hydroxy-1,3-dioxo-1h-benz(de)isoquinoline-2(3h)-hexan amide

$$$$
