INC
 OpenBabel10282417173D

 31 30  0  0  0  0  0  0  0  0999 V2000
    0.8262   -5.2106    1.7350 C   0  0  0  0  0  0  0  0  0  0  0  0
    0.1927   -4.2939    0.7330 C   0  0  0  0  0  0  0  0  0  0  0  0
   -0.3222   -3.2550    1.1520 O   0  0  0  0  0  0  0  0  0  0  0  0
    0.3345   -4.6030   -0.6039 N   0  0  0  0  0  0  0  0  0  0  0  0
    0.8423   -5.8479   -1.0382 O   0  0  0  0  0  0  0  0  0  0  0  0
    0.2261   -3.6038   -1.7096 C   0  0  2  0  0  0  0  0  0  0  0  0
    1.0035   -2.2631   -1.4875 C   0  0  0  0  0  0  0  0  0  0  0  0
    2.1074   -2.3685   -0.4150 C   0  0  0  0  0  0  0  0  0  0  0  0
    3.0590   -3.5349   -0.6762 C   0  0  0  0  0  0  0  0  0  0  0  0
    2.9428   -1.1264   -0.1935 C   0  0  0  0  0  0  0  0  0  0  0  0
   -1.2751   -3.4507   -1.9366 C   0  0  0  0  0  0  0  0  0  0  0  0
   -1.8606   -3.7787   -2.9491 O   0  0  0  0  0  0  0  0  0  0  0  0
   -1.8681   -2.9750   -0.8105 O   0  0  0  0  0  0  0  0  0  0  0  0
   -3.2783   -3.0920   -0.7342 C   0  0  0  0  0  0  0  0  0  0  0  0
    0.6400   -4.0518   -2.6258 H   0  0  0  0  0  0  0  0  0  0  0  0
    0.6316   -4.7948    2.7296 H   0  0  0  0  0  0  0  0  0  0  0  0
    1.9138   -5.2423    1.6074 H   0  0  0  0  0  0  0  0  0  0  0  0
    0.3859   -6.2018    1.6629 H   0  0  0  0  0  0  0  0  0  0  0  0
    1.4975   -6.1149   -0.3690 H   0  0  0  0  0  0  0  0  0  0  0  0
    1.4699   -1.9590   -2.4379 H   0  0  0  0  0  0  0  0  0  0  0  0
    0.3139   -1.4377   -1.2555 H   0  0  0  0  0  0  0  0  0  0  0  0
    1.6303   -2.4780    0.5547 H   0  0  0  0  0  0  0  0  0  0  0  0
    3.6736   -3.3449   -1.5556 H   0  0  0  0  0  0  0  0  0  0  0  0
    3.6665   -3.7317    0.2093 H   0  0  0  0  0  0  0  0  0  0  0  0
    2.5844   -4.4787   -0.8945 H   0  0  0  0  0  0  0  0  0  0  0  0
    2.3199   -0.2617    0.0463 H   0  0  0  0  0  0  0  0  0  0  0  0
    3.5928   -1.3145    0.6724 H   0  0  0  0  0  0  0  0  0  0  0  0
    3.5704   -0.9162   -1.0596 H   0  0  0  0  0  0  0  0  0  0  0  0
   -3.7281   -2.4140   -1.4578 H   0  0  0  0  0  0  0  0  0  0  0  0
   -3.5969   -4.1273   -0.8916 H   0  0  0  0  0  0  0  0  0  0  0  0
   -3.5763   -2.7938    0.2759 H   0  0  0  0  0  0  0  0  0  0  0  0
  1  2  1  0  0  0  0
  1 16  1  0  0  0  0
  1 17  1  0  0  0  0
  1 18  1  0  0  0  0
  2  3  2  0  0  0  0
  2  4  1  0  0  0  0
  4  5  1  0  0  0  0
  5 19  1  0  0  0  0
  6 11  1  0  0  0  0
  6 15  1  6  0  0  0
  6  7  1  0  0  0  0
  6  4  1  0  0  0  0
  7  8  1  0  0  0  0
  7 20  1  0  0  0  0
  7 21  1  0  0  0  0
  8  9  1  0  0  0  0
  8 10  1  0  0  0  0
  8 22  1  0  0  0  0
  9 23  1  0  0  0  0
  9 24  1  0  0  0  0
  9 25  1  0  0  0  0
 10 26  1  0  0  0  0
 10 27  1  0  0  0  0
 10 28  1  0  0  0  0
 11 12  2  0  0  0  0
 11 13  1  0  0  0  0
 13 14  1  0  0  0  0
 14 29  1  0  0  0  0
 14 30  1  0  0  0  0
 14 31  1  0  0  0  0
M  END
>  <DRUGBANK_ID>
DB07989

>  <COMMON_NAME>
2-(ACETYL-HYDROXY-AMINO)-4-METHYL-PENTANOIC ACID METHYL ESTER

$$$$
