1422
 OpenBabel10282417113D

 20 21  0  0  0  0  0  0  0  0999 V2000
   -1.6630    2.0128    0.0065 O   0  0  0  0  0  0  0  0  0  0  0  0
    0.8847   -3.8546   -0.0568 O   0  5  0  0  0  0  0  0  0  0  0  0
   -1.2572   -4.2274   -0.0289 O   0  0  0  0  0  0  0  0  0  0  0  0
    0.9713    1.3688   -0.0044 N   0  0  0  0  0  0  0  0  0  0  0  0
   -0.2871   -3.4580   -0.0327 N   0  3  0  0  0  0  0  0  0  0  0  0
    0.4572   -1.0041   -0.0030 C   0  0  0  0  0  0  0  0  0  0  0  0
    0.0692    0.3627   -0.0025 C   0  0  0  0  0  0  0  0  0  0  0  0
   -0.5709   -2.0003   -0.0109 C   0  0  0  0  0  0  0  0  0  0  0  0
   -1.2964    0.6846    0.0053 C   0  0  0  0  0  0  0  0  0  0  0  0
   -1.9300   -1.6299    0.0002 C   0  0  0  0  0  0  0  0  0  0  0  0
    1.8577   -1.2352    0.0087 C   0  0  0  0  0  0  0  0  0  0  0  0
   -2.2923   -0.2879    0.0148 C   0  0  0  0  0  0  0  0  0  0  0  0
    2.7750   -0.1955    0.0115 C   0  0  0  0  0  0  0  0  0  0  0  0
    2.2856    1.0842    0.0020 C   0  0  0  0  0  0  0  0  0  0  0  0
   -2.6272    2.1071   -0.0019 H   0  0  0  0  0  0  0  0  0  0  0  0
   -2.7197   -2.3800   -0.0017 H   0  0  0  0  0  0  0  0  0  0  0  0
    2.2853   -2.2313    0.0211 H   0  0  0  0  0  0  0  0  0  0  0  0
   -3.3443   -0.0178    0.0329 H   0  0  0  0  0  0  0  0  0  0  0  0
    3.8389   -0.3982    0.0216 H   0  0  0  0  0  0  0  0  0  0  0  0
    2.9504    1.9416    0.0022 H   0  0  0  0  0  0  0  0  0  0  0  0
  1  9  1  0  0  0  0
  1 15  1  0  0  0  0
  2  5  1  0  0  0  0
  3  5  2  0  0  0  0
  4  7  1  0  0  0  0
  4 14  2  0  0  0  0
  5  8  1  0  0  0  0
  6  7  1  0  0  0  0
  6  8  2  0  0  0  0
  6 11  1  0  0  0  0
  7  9  2  0  0  0  0
  8 10  1  0  0  0  0
  9 12  1  0  0  0  0
 10 12  2  0  0  0  0
 10 16  1  0  0  0  0
 11 13  2  0  0  0  0
 11 17  1  0  0  0  0
 12 18  1  0  0  0  0
 13 14  1  0  0  0  0
 13 19  1  0  0  0  0
 14 20  1  0  0  0  0
M  CHG  2   2  -1   5   1
M  END
>  <DRUGBANK_ID>
DB01422

>  <COMMON_NAME>
Nitroxoline

>  <CAS_NUMBER>
4008-48-4

>  <UNII>
A8M33244M6

>  <SYNONYMS>
5-Nitro-8-hydroxyquinoline; 5-Nitro-8-oxyquinoline; 5-Nitro-8-quinolinol; 5-Nitrox; 5-NOK; 5NOK; 8-Hydroxy-5-nitroquinoline; Nitroxolina; Nitroxoline; Nitroxolinum

$$$$
