
 OpenBabel10282417153D

 30 31  0  0  1  0  0  0  0  0999 V2000
    1.0535    0.0031    0.0729 O   0  0  0  0  0  0  0  0  0  0  0  0
    1.7133   -2.0155   -2.1174 N   0  0  0  0  0  0  0  0  0  0  0  0
    4.5522   -1.1868    0.4354 N   0  0  0  0  0  0  0  0  0  0  0  0
    0.4443   -1.9996   -1.3661 C   0  0  1  0  0  0  0  0  0  0  0  0
    0.0663   -3.4708   -1.1721 C   0  0  0  0  0  0  0  0  0  0  0  0
    0.8083   -4.2041   -2.2744 C   0  0  0  0  0  0  0  0  0  0  0  0
    2.0353   -3.3665   -2.5606 C   0  0  0  0  0  0  0  0  0  0  0  0
    0.2364   -1.1549   -0.0609 C   0  0  0  0  0  0  0  0  0  0  0  0
    2.3945   -0.1140    0.2870 C   0  0  0  0  0  0  0  0  0  0  0  0
    3.2002   -1.2468    0.5161 C   0  0  0  0  0  0  0  0  0  0  0  0
    3.0546    1.1200    0.1463 C   0  0  0  0  0  0  0  0  0  0  0  0
    2.7557   -2.6541    0.7510 C   0  0  0  0  0  0  0  0  0  0  0  0
    4.4357    1.1870    0.1225 C   0  0  0  0  0  0  0  0  0  0  0  0
    5.1419    0.0067    0.2219 C   0  0  0  0  0  0  0  0  0  0  0  0
    2.5069   -1.5915   -1.6480 H   0  0  0  0  0  0  0  0  0  0  0  0
   -0.2570   -1.5700   -2.0901 H   0  0  0  0  0  0  0  0  0  0  0  0
    0.3768   -3.8789   -0.2048 H   0  0  0  0  0  0  0  0  0  0  0  0
   -1.0141   -3.6239   -1.2383 H   0  0  0  0  0  0  0  0  0  0  0  0
    1.0721   -5.2241   -1.9749 H   0  0  0  0  0  0  0  0  0  0  0  0
    0.1826   -4.2540   -3.1692 H   0  0  0  0  0  0  0  0  0  0  0  0
    2.9130   -3.7725   -2.0438 H   0  0  0  0  0  0  0  0  0  0  0  0
    2.2875   -3.3615   -3.6247 H   0  0  0  0  0  0  0  0  0  0  0  0
    0.2356   -1.7005    0.8877 H   0  0  0  0  0  0  0  0  0  0  0  0
   -0.7995   -0.7863   -0.0952 H   0  0  0  0  0  0  0  0  0  0  0  0
    2.4731    2.0337    0.0124 H   0  0  0  0  0  0  0  0  0  0  0  0
    3.1379   -3.2989   -0.0437 H   0  0  0  0  0  0  0  0  0  0  0  0
    3.1270   -3.0427    1.6983 H   0  0  0  0  0  0  0  0  0  0  0  0
    1.6957   -2.8007    0.7974 H   0  0  0  0  0  0  0  0  0  0  0  0
    4.9589    2.1302    0.0022 H   0  0  0  0  0  0  0  0  0  0  0  0
    6.2184   -0.0249    0.1401 H   0  0  0  0  0  0  0  0  0  0  0  0
  1  8  1  0  0  0  0
  1  9  1  0  0  0  0
  2  4  1  0  0  0  0
  2  7  1  0  0  0  0
  2 15  1  0  0  0  0
  3 10  1  0  0  0  0
  3 14  2  0  0  0  0
  4  5  1  0  0  0  0
  4  8  1  0  0  0  0
  4 16  1  6  0  0  0
  5  6  1  0  0  0  0
  5 17  1  0  0  0  0
  5 18  1  0  0  0  0
  6  7  1  0  0  0  0
  6 19  1  0  0  0  0
  6 20  1  0  0  0  0
  7 21  1  0  0  0  0
  7 22  1  0  0  0  0
  8 23  1  0  0  0  0
  8 24  1  0  0  0  0
  9 10  2  0  0  0  0
  9 11  1  0  0  0  0
 10 12  1  0  0  0  0
 11 13  2  0  0  0  0
 11 25  1  0  0  0  0
 12 26  1  0  0  0  0
 12 27  1  0  0  0  0
 12 28  1  0  0  0  0
 13 14  1  0  0  0  0
 13 29  1  0  0  0  0
 14 30  1  0  0  0  0
M  END
>  <DRUGBANK_ID>
DB05458

>  <COMMON_NAME>
Pozanicline

>  <CAS_NUMBER>
161417-03-4

>  <UNII>
CL2002R563

>  <SYNONYMS>
Pozanicline

$$$$
