
 OpenBabel10282417243D

 15 12  0  0  0  0  0  0  0  0999 V2000
    1.0225   -0.0251    0.0941 N   0  3  0  0  0  0  0  0  0  0  0  0
    1.0564    0.0519   -0.0642 N   0  3  0  0  0  0  0  0  0  0  0  0
    1.0739   -0.0366   -0.0566 S   0  5  0  0  0  0  0  0  0  0  0  0
    3.6639   -0.0366   -0.0566 Mo  0  0  0  0  0  0  0  0  0  0  0  0
    4.5272    0.6880    2.2753 S   0  5  0  0  0  0  0  0  0  0  0  0
    4.4366   -2.1682   -0.5385 S   0  0  0  0  0  0  0  0  0  0  0  0
    4.4366    1.4466   -1.6617 S   0  0  0  0  0  0  0  0  0  0  0  0
    0.6825   -0.3067    1.0137 H   0  0  0  0  0  0  0  0  0  0  0  0
    0.6825    0.9120   -0.1218 H   0  0  0  0  0  0  0  0  0  0  0  0
    0.6825   -0.6807   -0.6095 H   0  0  0  0  0  0  0  0  0  0  0  0
    2.0425   -0.0251    0.0941 H   0  0  0  0  0  0  0  0  0  0  0  0
    0.7164    0.9303   -0.4556 H   0  0  0  0  0  0  0  0  0  0  0  0
    0.7164   -0.7263   -0.6293 H   0  0  0  0  0  0  0  0  0  0  0  0
    0.7164   -0.0483    0.8922 H   0  0  0  0  0  0  0  0  0  0  0  0
    2.0764    0.0519   -0.0642 H   0  0  0  0  0  0  0  0  0  0  0  0
  1  8  1  0  0  0  0
  1  9  1  0  0  0  0
  1 10  1  0  0  0  0
  1 11  1  0  0  0  0
  2 12  1  0  0  0  0
  2 13  1  0  0  0  0
  2 14  1  0  0  0  0
  2 15  1  0  0  0  0
  3  4  1  0  0  0  0
  4  5  1  0  0  0  0
  4  6  2  0  0  0  0
  4  7  2  0  0  0  0
M  CHG  4   1   1   2   1   3  -1   5  -1
M  END
>  <DRUGBANK_ID>
DB17641

>  <COMMON_NAME>
Ammonium tetrathiomolybdate

>  <CAS_NUMBER>
15060-55-6

>  <UNII>
4V6I63LW1E

>  <SYNONYMS>
Ammonium molybdenum sulfide ((nh4)2mos4); Coprexa; Diammonium tetrathiomolybdate; Molybdate(2-), tetrathioxo-, ammonium (1:2), (t-4)-; Molybdate(2-), tetrathioxo-, diammonium, (t-4)-; Tiomolibdate diammonium

$$$$
