881
 OpenBabel10282417113D

 62 64  0  0  1  0  0  0  0  0999 V2000
    1.1039    0.2049   -0.2871 O   0  0  0  0  0  0  0  0  0  0  0  0
    0.4919   -0.9407   -3.1208 O   0  0  0  0  0  0  0  0  0  0  0  0
    0.5415   -2.5298   -1.5159 O   0  0  0  0  0  0  0  0  0  0  0  0
    2.6865    5.8619    1.4185 O   0  0  0  0  0  0  0  0  0  0  0  0
    2.2456    5.0607   -0.6085 O   0  0  0  0  0  0  0  0  0  0  0  0
    3.0629   -0.9046   -0.7148 N   0  0  0  0  0  0  0  0  0  0  0  0
    2.7471    2.4576    0.2801 N   0  0  0  0  0  0  0  0  0  0  0  0
    2.6296   -1.3893   -2.0511 C   0  0  1  0  0  0  0  0  0  0  0  0
    3.3361   -2.7030   -2.4796 C   0  0  0  0  0  0  0  0  0  0  0  0
    4.2100   -1.5541   -0.0795 C   0  0  0  0  0  0  0  0  0  0  0  0
    4.8221   -2.6072   -2.2577 C   0  0  0  0  0  0  0  0  0  0  0  0
    5.2531   -1.9845   -1.0754 C   0  0  0  0  0  0  0  0  0  0  0  0
    3.0791    1.1124    0.7720 C   0  0  2  0  0  0  0  0  0  0  0  0
    2.3113    0.0812   -0.0829 C   0  0  0  0  0  0  0  0  0  0  0  0
    3.5098    3.5664    0.8913 C   0  0  1  0  0  0  0  0  0  0  0  0
    1.1261   -1.6789   -2.1736 C   0  0  0  0  0  0  0  0  0  0  0  0
    5.0192    3.4338    0.6442 C   0  0  0  0  0  0  0  0  0  0  0  0
    5.7557   -3.1265   -3.1580 C   0  0  0  0  0  0  0  0  0  0  0  0
    6.6213   -1.8331   -0.8318 C   0  0  0  0  0  0  0  0  0  0  0  0
    2.7039    0.9731    2.2398 C   0  0  0  0  0  0  0  0  0  0  0  0
    5.4456    3.3727   -0.8298 C   0  0  0  0  0  0  0  0  0  0  0  0
    7.1195   -2.9725   -2.9064 C   0  0  0  0  0  0  0  0  0  0  0  0
    7.5509   -2.3136   -1.7546 C   0  0  0  0  0  0  0  0  0  0  0  0
    2.7896    4.8909    0.4837 C   0  0  0  0  0  0  0  0  0  0  0  0
    5.2275    4.6991   -1.5047 C   0  0  0  0  0  0  0  0  0  0  0  0
    4.1766    4.8896   -2.4116 C   0  0  0  0  0  0  0  0  0  0  0  0
    5.9401    5.8117   -1.0433 C   0  0  0  0  0  0  0  0  0  0  0  0
    2.2539    5.5177    2.7411 C   0  0  0  0  0  0  0  0  0  0  0  0
    3.7741    6.1852   -2.7534 C   0  0  0  0  0  0  0  0  0  0  0  0
    5.5337    7.0987   -1.3843 C   0  0  0  0  0  0  0  0  0  0  0  0
    4.4503    7.2876   -2.2378 C   0  0  0  0  0  0  0  0  0  0  0  0
    1.1690    4.4461    2.8028 C   0  0  0  0  0  0  0  0  0  0  0  0
    1.0045   -0.2012   -3.4985 H   0  0  0  0  0  0  0  0  0  0  0  0
    2.8136    2.5208   -0.7374 H   0  0  0  0  0  0  0  0  0  0  0  0
    2.9172   -0.5957   -2.7564 H   0  0  0  0  0  0  0  0  0  0  0  0
    2.9592   -3.5502   -1.8906 H   0  0  0  0  0  0  0  0  0  0  0  0
    3.1149   -2.9220   -3.5315 H   0  0  0  0  0  0  0  0  0  0  0  0
    4.6558   -0.9314    0.6971 H   0  0  0  0  0  0  0  0  0  0  0  0
    3.8205   -2.4411    0.4356 H   0  0  0  0  0  0  0  0  0  0  0  0
    4.1437    0.9532    0.6212 H   0  0  0  0  0  0  0  0  0  0  0  0
    3.4202    3.4954    1.9727 H   0  0  0  0  0  0  0  0  0  0  0  0
    5.5478    4.2220    1.1926 H   0  0  0  0  0  0  0  0  0  0  0  0
    5.3681    2.5078    1.1256 H   0  0  0  0  0  0  0  0  0  0  0  0
    5.4340   -3.6437   -4.0589 H   0  0  0  0  0  0  0  0  0  0  0  0
    6.9738   -1.3428    0.0720 H   0  0  0  0  0  0  0  0  0  0  0  0
    2.9283   -0.0280    2.6115 H   0  0  0  0  0  0  0  0  0  0  0  0
    3.2598    1.6758    2.8690 H   0  0  0  0  0  0  0  0  0  0  0  0
    1.6350    1.1614    2.3919 H   0  0  0  0  0  0  0  0  0  0  0  0
    6.5094    3.1141   -0.8790 H   0  0  0  0  0  0  0  0  0  0  0  0
    4.9187    2.5676   -1.3554 H   0  0  0  0  0  0  0  0  0  0  0  0
    7.8497   -3.3628   -3.6116 H   0  0  0  0  0  0  0  0  0  0  0  0
    8.6149   -2.1830   -1.5722 H   0  0  0  0  0  0  0  0  0  0  0  0
    3.5259    4.0629   -2.6948 H   0  0  0  0  0  0  0  0  0  0  0  0
    6.7566    5.6790   -0.3383 H   0  0  0  0  0  0  0  0  0  0  0  0
    3.1438    5.2597    3.3203 H   0  0  0  0  0  0  0  0  0  0  0  0
    1.8378    6.4336    3.1749 H   0  0  0  0  0  0  0  0  0  0  0  0
    2.8416    6.3320   -3.2957 H   0  0  0  0  0  0  0  0  0  0  0  0
    6.0192    7.9543   -0.9259 H   0  0  0  0  0  0  0  0  0  0  0  0
    4.0942    8.2906   -2.4535 H   0  0  0  0  0  0  0  0  0  0  0  0
    1.4508    3.5092    2.3288 H   0  0  0  0  0  0  0  0  0  0  0  0
    0.9344    4.2049    3.8408 H   0  0  0  0  0  0  0  0  0  0  0  0
    0.2673    4.7632    2.2726 H   0  0  0  0  0  0  0  0  0  0  0  0
  1 14  2  0  0  0  0
  2 16  1  0  0  0  0
  2 33  1  0  0  0  0
  3 16  2  0  0  0  0
  4 24  1  0  0  0  0
  4 28  1  0  0  0  0
  5 24  2  0  0  0  0
  6  8  1  0  0  0  0
  6 10  1  0  0  0  0
  6 14  1  0  0  0  0
  7 34  1  0  0  0  0
  8  9  1  0  0  0  0
  8 16  1  0  0  0  0
  8 35  1  6  0  0  0
  9 11  1  0  0  0  0
  9 36  1  0  0  0  0
  9 37  1  0  0  0  0
 10 12  1  0  0  0  0
 10 38  1  0  0  0  0
 10 39  1  0  0  0  0
 11 12  1  0  0  0  0
 11 18  2  0  0  0  0
 12 19  2  0  0  0  0
 13  7  1  0  0  0  0
 13 14  1  0  0  0  0
 13 20  1  0  0  0  0
 13 40  1  6  0  0  0
 15  7  1  0  0  0  0
 15 17  1  0  0  0  0
 15 24  1  0  0  0  0
 15 41  1  1  0  0  0
 17 21  1  0  0  0  0
 17 42  1  0  0  0  0
 17 43  1  0  0  0  0
 18 22  1  0  0  0  0
 18 44  1  0  0  0  0
 19 23  1  0  0  0  0
 19 45  1  0  0  0  0
 20 46  1  0  0  0  0
 20 47  1  0  0  0  0
 20 48  1  0  0  0  0
 21 25  1  0  0  0  0
 21 49  1  0  0  0  0
 21 50  1  0  0  0  0
 22 23  2  0  0  0  0
 22 51  1  0  0  0  0
 23 52  1  0  0  0  0
 25 26  2  0  0  0  0
 25 27  1  0  0  0  0
 26 29  1  0  0  0  0
 26 53  1  0  0  0  0
 27 30  2  0  0  0  0
 27 54  1  0  0  0  0
 28 32  1  0  0  0  0
 28 55  1  0  0  0  0
 28 56  1  0  0  0  0
 29 31  2  0  0  0  0
 29 57  1  0  0  0  0
 30 31  1  0  0  0  0
 30 58  1  0  0  0  0
 31 59  1  0  0  0  0
 32 60  1  0  0  0  0
 32 61  1  0  0  0  0
 32 62  1  0  0  0  0
M  END
>  <DRUGBANK_ID>
DB00881

>  <SECONDARY_ACCESSION_NUMBERS>
APRD00523

>  <COMMON_NAME>
Quinapril

>  <CAS_NUMBER>
85441-61-8

>  <UNII>
RJ84Y44811

>  <SYNONYMS>
Quinapril; Quinaprilum

$$$$
