
 OpenBabel10282417233D

 46 50  0  0  1  0  0  0  0  0999 V2000
    1.1614    0.5306    2.4492 C   0  0  0  0  0  0  0  0  0  0  0  0
    0.5960   -0.2893    1.2700 C   0  0  2  0  0  0  0  0  0  0  0  0
    1.1960   -0.0636   -0.0883 N   0  0  0  0  0  0  0  0  0  0  0  0
    2.0987    0.9534   -0.4213 C   0  0  0  0  0  0  0  0  0  0  0  0
    1.9572    1.8593   -1.5282 C   0  0  0  0  0  0  0  0  0  0  0  0
    0.9822    2.0060   -2.5183 N   0  0  0  0  0  0  0  0  0  0  0  0
    1.1373    3.2320   -2.9868 C   0  0  0  0  0  0  0  0  0  0  0  0
    2.2673    3.8292   -2.4829 N   0  0  0  0  0  0  0  0  0  0  0  0
    2.7675    2.9941   -1.5151 C   0  0  0  0  0  0  0  0  0  0  0  0
    3.6950    3.3369   -0.6095 N   0  0  0  0  0  0  0  0  0  0  0  0
    3.8231    2.3738    0.3162 C   0  0  0  0  0  0  0  0  0  0  0  0
    3.1345    1.2167    0.4234 N   0  0  0  0  0  0  0  0  0  0  0  0
   -0.9908   -0.1928    1.2323 C   0  0  0  0  0  0  0  0  0  0  0  0
   -1.6673    0.9851    1.3146 C   0  0  0  0  0  0  0  0  0  0  0  0
   -3.1454    0.9970    1.3226 C   0  0  0  0  0  0  0  0  0  0  0  0
   -3.7224    2.0963    1.3318 O   0  0  0  0  0  0  0  0  0  0  0  0
   -3.7527   -0.2181    1.3261 N   0  0  0  0  0  0  0  0  0  0  0  0
   -5.1276   -0.4492    1.3455 C   0  0  0  0  0  0  0  0  0  0  0  0
   -6.1683    0.6330    1.3541 C   0  0  0  0  0  0  0  0  0  0  0  0
   -5.4350   -1.7543    1.3484 C   0  0  0  0  0  0  0  0  0  0  0  0
   -4.0175   -2.7657    1.3287 S   0  0  0  0  0  0  0  0  0  0  0  0
   -2.9661   -1.3548    1.2931 C   0  0  0  0  0  0  0  0  0  0  0  0
   -1.6726   -1.4101    1.2390 N   0  0  0  0  0  0  0  0  0  0  0  0
   -1.0169    2.2929    1.3767 C   0  0  0  0  0  0  0  0  0  0  0  0
   -1.0098    3.0848    2.5291 C   0  0  0  0  0  0  0  0  0  0  0  0
   -0.0451    4.0814    2.6701 C   0  0  0  0  0  0  0  0  0  0  0  0
    0.6633    4.4933    1.5613 C   0  0  0  0  0  0  0  0  0  0  0  0
    0.3605    3.9162    0.3507 C   0  0  0  0  0  0  0  0  0  0  0  0
    0.7516    4.5694   -0.7382 F   0  0  0  0  0  0  0  0  0  0  0  0
   -0.3709    2.7477    0.2563 C   0  0  0  0  0  0  0  0  0  0  0  0
    1.9261    1.2549    2.1992 H   0  0  0  0  0  0  0  0  0  0  0  0
    1.5584   -0.1141    3.2362 H   0  0  0  0  0  0  0  0  0  0  0  0
    0.4015    1.1044    2.9735 H   0  0  0  0  0  0  0  0  0  0  0  0
    0.8412   -1.3352    1.5128 H   0  0  0  0  0  0  0  0  0  0  0  0
    0.6334   -0.3975   -0.8634 H   0  0  0  0  0  0  0  0  0  0  0  0
    0.4307    3.7891   -3.5950 H   0  0  0  0  0  0  0  0  0  0  0  0
    2.4664    4.8192   -2.5207 H   0  0  0  0  0  0  0  0  0  0  0  0
    4.5379    2.5650    1.1113 H   0  0  0  0  0  0  0  0  0  0  0  0
   -6.8095    0.5498    0.4703 H   0  0  0  0  0  0  0  0  0  0  0  0
   -6.7938    0.5509    2.2489 H   0  0  0  0  0  0  0  0  0  0  0  0
   -5.7946    1.6548    1.3497 H   0  0  0  0  0  0  0  0  0  0  0  0
   -6.4423   -2.1532    1.3580 H   0  0  0  0  0  0  0  0  0  0  0  0
   -1.7085    2.8883    3.3351 H   0  0  0  0  0  0  0  0  0  0  0  0
    0.1320    4.5557    3.6266 H   0  0  0  0  0  0  0  0  0  0  0  0
    1.3788    5.3054    1.5813 H   0  0  0  0  0  0  0  0  0  0  0  0
   -0.4413    2.1640   -0.6543 H   0  0  0  0  0  0  0  0  0  0  0  0
  1 31  1  0  0  0  0
  1 32  1  0  0  0  0
  1 33  1  0  0  0  0
  2 13  1  0  0  0  0
  2 34  1  1  0  0  0
  2  3  1  0  0  0  0
  2  1  1  0  0  0  0
  3  4  1  0  0  0  0
  3 35  1  0  0  0  0
  4  5  2  0  0  0  0
  4 12  1  0  0  0  0
  5  6  1  0  0  0  0
  5  9  1  0  0  0  0
  6  7  2  0  0  0  0
  7  8  1  0  0  0  0
  7 36  1  0  0  0  0
  8  9  1  0  0  0  0
  8 37  1  0  0  0  0
  9 10  2  0  0  0  0
 10 11  1  0  0  0  0
 11 12  2  0  0  0  0
 11 38  1  0  0  0  0
 13 14  2  0  0  0  0
 13 23  1  0  0  0  0
 14 15  1  0  0  0  0
 14 24  1  0  0  0  0
 15 16  2  0  0  0  0
 15 17  1  0  0  0  0
 17 18  1  0  0  0  0
 17 22  1  0  0  0  0
 18 19  1  0  0  0  0
 18 20  2  0  0  0  0
 19 39  1  0  0  0  0
 19 40  1  0  0  0  0
 19 41  1  0  0  0  0
 20 21  1  0  0  0  0
 20 42  1  0  0  0  0
 21 22  1  0  0  0  0
 22 23  2  0  0  0  0
 24 25  2  0  0  0  0
 24 30  1  0  0  0  0
 25 26  1  0  0  0  0
 25 43  1  0  0  0  0
 26 27  2  0  0  0  0
 26 44  1  0  0  0  0
 27 28  1  0  0  0  0
 27 45  1  0  0  0  0
 28 29  1  0  0  0  0
 28 30  2  0  0  0  0
 30 46  1  0  0  0  0
M  END
>  <DRUGBANK_ID>
DB16137

>  <COMMON_NAME>
Dezapelisib

>  <CAS_NUMBER>
1262440-25-4

>  <UNII>
2K59L7G59M

>  <SYNONYMS>
6-(3-fluorophenyl)-3-methyl-7-[(1S)-1-(7H-purin-6-ylamino)ethyl]-[1,3]thiazolo[3,2-a]pyrimidin-5-one; Dezapelisib

$$$$
