1536
 OpenBabel10282417113D

 47 50  0  0  1  0  0  0  0  0999 V2000
    2.2688   -6.2925   13.3691 O   0  0  0  0  0  0  0  0  0  0  0  0
    0.9505   -0.3299   16.8492 O   0  0  0  0  0  0  0  0  0  0  0  0
    4.4542   -5.2736   15.9331 C   0  0  2  0  0  0  0  0  0  0  0  0
    3.3476   -5.1651   17.0111 C   0  0  1  0  0  0  0  0  0  0  0  0
    4.1639   -6.5412   15.2420 C   0  0  1  0  0  0  0  0  0  0  0  0
    3.5901   -7.8447   15.4325 C   0  0  2  0  0  0  0  0  0  0  0  0
    2.9517   -3.5986   17.2471 C   0  0  2  0  0  0  0  0  0  0  0  0
    3.9291   -6.3936   17.8551 C   0  0  0  0  0  0  0  0  0  0  0  0
    3.2579   -7.6080   17.0741 C   0  0  0  0  0  0  0  0  0  0  0  0
    4.2279   -4.0862   15.0862 C   0  0  0  0  0  0  0  0  0  0  0  0
    5.0872   -7.1221   13.9913 C   0  0  0  0  0  0  0  0  0  0  0  0
    3.7873   -2.3839   17.0534 C   0  0  0  0  0  0  0  0  0  0  0  0
    3.2895   -6.8042   13.7236 C   0  0  0  0  0  0  0  0  0  0  0  0
    4.6501   -2.7592   15.7943 C   0  0  0  0  0  0  0  0  0  0  0  0
    4.6934   -6.0683   13.1373 C   0  0  0  0  0  0  0  0  0  0  0  0
    2.2111   -2.6895   15.6494 C   0  0  0  0  0  0  0  0  0  0  0  0
    4.8863   -8.9029   15.8019 C   0  0  0  0  0  0  0  0  0  0  0  0
    4.0639   -3.7053   18.5848 C   0  0  0  0  0  0  0  0  0  0  0  0
    2.5609   -1.0374   15.3234 C   0  0  0  0  0  0  0  0  0  0  0  0
    3.0216   -1.3602   17.6186 C   0  0  0  0  0  0  0  0  0  0  0  0
    2.0992   -0.6876   16.6333 C   0  0  0  0  0  0  0  0  0  0  0  0
    5.4883   -5.3288   16.2496 H   0  0  0  0  0  0  0  0  0  0  0  0
    2.3115   -5.5301   16.8636 H   0  0  0  0  0  0  0  0  0  0  0  0
    2.9741   -6.2779   15.3400 H   0  0  0  0  0  0  0  0  0  0  0  0
    3.6754   -6.4639   18.9226 H   0  0  0  0  0  0  0  0  0  0  0  0
    5.0386   -6.3660   17.9002 H   0  0  0  0  0  0  0  0  0  0  0  0
    3.2876   -8.6944   17.2412 H   0  0  0  0  0  0  0  0  0  0  0  0
    2.5841   -7.8610   17.9058 H   0  0  0  0  0  0  0  0  0  0  0  0
    3.1763   -4.3500   14.8971 H   0  0  0  0  0  0  0  0  0  0  0  0
    4.4702   -3.9470   14.0426 H   0  0  0  0  0  0  0  0  0  0  0  0
    4.7839   -8.0592   13.4098 H   0  0  0  0  0  0  0  0  0  0  0  0
    6.1135   -7.2738   14.2642 H   0  0  0  0  0  0  0  0  0  0  0  0
    4.6032   -2.0704   14.9551 H   0  0  0  0  0  0  0  0  0  0  0  0
    5.6958   -2.7982   16.0779 H   0  0  0  0  0  0  0  0  0  0  0  0
    4.8371   -6.0206   12.0632 H   0  0  0  0  0  0  0  0  0  0  0  0
    5.3664   -5.3012   13.5637 H   0  0  0  0  0  0  0  0  0  0  0  0
    1.1266   -2.8226   15.5133 H   0  0  0  0  0  0  0  0  0  0  0  0
    2.4899   -2.9662   14.6083 H   0  0  0  0  0  0  0  0  0  0  0  0
    4.7492   -9.8824   15.3490 H   0  0  0  0  0  0  0  0  0  0  0  0
    5.9318   -8.5550   15.7533 H   0  0  0  0  0  0  0  0  0  0  0  0
    4.9016   -9.1685   16.8846 H   0  0  0  0  0  0  0  0  0  0  0  0
    4.1901   -2.8711   19.2864 H   0  0  0  0  0  0  0  0  0  0  0  0
    3.7433   -4.4946   19.2855 H   0  0  0  0  0  0  0  0  0  0  0  0
    5.0989   -4.0303   18.2954 H   0  0  0  0  0  0  0  0  0  0  0  0
    2.0989   -0.5407   14.4648 H   0  0  0  0  0  0  0  0  0  0  0  0
    3.6061   -0.6600   15.2896 H   0  0  0  0  0  0  0  0  0  0  0  0
    2.3659   -1.6101   18.4734 H   0  0  0  0  0  0  0  0  0  0  0  0
  1 13  2  0  0  0  0
  2 21  2  0  0  0  0
  3  4  1  0  0  0  0
  3  5  1  0  0  0  0
  3 10  1  0  0  0  0
  3 22  1  6  0  0  0
  4  7  1  0  0  0  0
  4  8  1  0  0  0  0
  4 23  1  1  0  0  0
  5  6  1  0  0  0  0
  5 11  1  0  0  0  0
  5 24  1  1  0  0  0
  6  9  1  0  0  0  0
  6 13  1  0  0  0  0
  6 17  1  1  0  0  0
  7 12  1  0  0  0  0
  7 16  1  0  0  0  0
  7 18  1  6  0  0  0
  8  9  1  0  0  0  0
  8 25  1  0  0  0  0
  8 26  1  0  0  0  0
  9 27  1  0  0  0  0
  9 28  1  0  0  0  0
 10 14  1  0  0  0  0
 10 29  1  0  0  0  0
 10 30  1  0  0  0  0
 11 15  1  0  0  0  0
 11 31  1  0  0  0  0
 11 32  1  0  0  0  0
 12 14  1  0  0  0  0
 12 20  2  0  0  0  0
 13 15  1  0  0  0  0
 14 33  1  0  0  0  0
 14 34  1  0  0  0  0
 15 35  1  0  0  0  0
 15 36  1  0  0  0  0
 16 19  1  0  0  0  0
 16 37  1  0  0  0  0
 16 38  1  0  0  0  0
 17 39  1  0  0  0  0
 17 40  1  0  0  0  0
 17 41  1  0  0  0  0
 18 42  1  0  0  0  0
 18 43  1  0  0  0  0
 18 44  1  0  0  0  0
 19 21  1  0  0  0  0
 19 45  1  0  0  0  0
 19 46  1  0  0  0  0
 20 21  1  0  0  0  0
 20 47  1  0  0  0  0
M  END
>  <DRUGBANK_ID>
DB01536

>  <SECONDARY_ACCESSION_NUMBERS>
EXPT00569; DB07386

>  <COMMON_NAME>
Androstenedione

>  <CAS_NUMBER>
63-05-8

>  <UNII>
409J2J96VR

>  <SYNONYMS>
4-Androstene-3,17-dione; 4-Androstenedione; Androst-4-ene-3,17-dione; Androstenedione; delta-4-Androstenedione

$$$$
