
 OpenBabel10282417223D

 72 74  0  0  0  0  0  0  0  0999 V2000
    0.0562    1.0900   -0.0842 C   0  0  1  0  0  0  0  0  0  0  0  0
    0.1101   -0.5198   -0.2472 C   0  0  2  0  0  0  0  0  0  0  0  0
    1.6516    1.2091   -0.0330 C   0  0  2  0  0  0  0  0  0  0  0  0
   -1.2751    1.2263    0.7237 C   0  0  0  0  0  0  0  0  0  0  0  0
   -0.1596    2.5227   -0.6403 C   0  0  0  0  0  0  0  0  0  0  0  0
   -1.0813   -1.4684   -0.3894 C   0  0  0  0  0  0  0  0  0  0  0  0
    1.4791   -1.1390   -0.5386 C   0  0  0  0  0  0  0  0  0  0  0  0
    2.4540   -0.0800   -0.2256 C   0  0  0  0  0  0  0  0  0  0  0  0
    2.6986    2.3643    0.1820 C   0  0  1  0  0  0  0  0  0  0  0  0
   -2.5144    0.4294    0.2309 C   0  0  0  0  0  0  0  0  0  0  0  0
   -0.8898   -2.9229   -0.1062 C   0  0  0  0  0  0  0  0  0  0  0  0
   -2.2984   -0.9750   -0.2492 C   0  0  0  0  0  0  0  0  0  0  0  0
    3.4625    2.4092   -1.2031 C   0  0  0  0  0  0  0  0  0  0  0  0
    2.3657    3.7660    0.7405 C   0  0  0  0  0  0  0  0  0  0  0  0
   -0.1612   -3.5121    0.8673 C   0  0  0  0  0  0  0  0  0  0  0  0
    2.5809    2.7910   -2.4402 C   0  0  0  0  0  0  0  0  0  0  0  0
    0.6974   -2.9005    1.9259 C   0  0  0  0  0  0  0  0  0  0  0  0
    2.2220    4.2655   -2.4705 C   0  0  0  0  0  0  0  0  0  0  0  0
    0.2862   -1.9105    2.7329 C   0  0  0  0  0  0  0  0  0  0  0  0
    2.1430   -3.4059    1.9594 C   0  0  0  0  0  0  0  0  0  0  0  0
    3.4816    5.0780   -2.2241 C   0  0  0  0  0  0  0  0  0  0  0  0
    1.2169   -1.0242    3.5144 C   0  0  0  0  0  0  0  0  0  0  0  0
   -1.1384   -1.4274    2.8370 C   0  0  0  0  0  0  0  0  0  0  0  0
    3.1684   -2.5842    2.7715 C   0  0  2  0  0  0  0  0  0  0  0  0
    4.3870    4.8694   -3.4267 C   0  0  0  0  0  0  0  0  0  0  0  0
    3.1518    6.5185   -1.9257 C   0  0  0  0  0  0  0  0  0  0  0  0
    2.6843   -1.3943    3.5922 C   0  0  0  0  0  0  0  0  0  0  0  0
    4.2288   -2.1348    1.9200 O   0  0  0  0  0  0  0  0  0  0  0  0
    0.2096   -0.6413    0.8232 H   0  0  0  0  0  0  0  0  0  0  0  0
    1.6013    1.2724   -1.1091 H   0  0  0  0  0  0  0  0  0  0  0  0
   -1.7865    2.1972    0.6287 H   0  0  0  0  0  0  0  0  0  0  0  0
   -1.0585    1.1494    1.7822 H   0  0  0  0  0  0  0  0  0  0  0  0
   -0.8572    2.6657   -1.4531 H   0  0  0  0  0  0  0  0  0  0  0  0
   -0.4005    3.1961    0.2204 H   0  0  0  0  0  0  0  0  0  0  0  0
    0.7233    3.0638   -0.8854 H   0  0  0  0  0  0  0  0  0  0  0  0
    1.7867   -1.8972    0.1594 H   0  0  0  0  0  0  0  0  0  0  0  0
    1.5855   -1.6442   -1.5024 H   0  0  0  0  0  0  0  0  0  0  0  0
    3.1042   -0.1725    0.6323 H   0  0  0  0  0  0  0  0  0  0  0  0
    3.1225   -0.1296   -1.0903 H   0  0  0  0  0  0  0  0  0  0  0  0
    3.4169    1.9937    0.9319 H   0  0  0  0  0  0  0  0  0  0  0  0
   -3.0993    0.9777   -0.5192 H   0  0  0  0  0  0  0  0  0  0  0  0
   -3.1503    0.4023    1.1241 H   0  0  0  0  0  0  0  0  0  0  0  0
   -1.5067   -3.5750   -0.7374 H   0  0  0  0  0  0  0  0  0  0  0  0
   -3.1860   -1.6156   -0.1450 H   0  0  0  0  0  0  0  0  0  0  0  0
    4.4000    2.9549   -1.1076 H   0  0  0  0  0  0  0  0  0  0  0  0
    3.8792    1.4339   -1.4538 H   0  0  0  0  0  0  0  0  0  0  0  0
    1.8743    3.7264    1.7153 H   0  0  0  0  0  0  0  0  0  0  0  0
    3.2962    4.3401    0.8566 H   0  0  0  0  0  0  0  0  0  0  0  0
    1.7434    4.4110    0.1262 H   0  0  0  0  0  0  0  0  0  0  0  0
   -0.1405   -4.6045    0.8836 H   0  0  0  0  0  0  0  0  0  0  0  0
    3.1108    2.4907   -3.3479 H   0  0  0  0  0  0  0  0  0  0  0  0
    1.6490    2.2272   -2.5690 H   0  0  0  0  0  0  0  0  0  0  0  0
    1.7548    4.5008   -3.4321 H   0  0  0  0  0  0  0  0  0  0  0  0
    1.4419    4.5346   -1.7603 H   0  0  0  0  0  0  0  0  0  0  0  0
    2.5378   -3.5415    0.9414 H   0  0  0  0  0  0  0  0  0  0  0  0
    2.1269   -4.4206    2.3725 H   0  0  0  0  0  0  0  0  0  0  0  0
    4.0162    4.7534   -1.3295 H   0  0  0  0  0  0  0  0  0  0  0  0
    0.8289   -0.9379    4.5342 H   0  0  0  0  0  0  0  0  0  0  0  0
    1.1517   -0.0081    3.0896 H   0  0  0  0  0  0  0  0  0  0  0  0
   -1.4448   -0.9770    1.9207 H   0  0  0  0  0  0  0  0  0  0  0  0
   -1.8422   -2.2302    3.0384 H   0  0  0  0  0  0  0  0  0  0  0  0
   -1.2599   -0.6064    3.5471 H   0  0  0  0  0  0  0  0  0  0  0  0
    3.6842   -3.2686    3.4507 H   0  0  0  0  0  0  0  0  0  0  0  0
    3.8583    5.1614   -4.3381 H   0  0  0  0  0  0  0  0  0  0  0  0
    5.3121    5.4304   -3.3266 H   0  0  0  0  0  0  0  0  0  0  0  0
    4.6697    3.8148   -3.5388 H   0  0  0  0  0  0  0  0  0  0  0  0
    2.5913    6.5885   -0.9839 H   0  0  0  0  0  0  0  0  0  0  0  0
    4.0781    7.0833   -1.8006 H   0  0  0  0  0  0  0  0  0  0  0  0
    2.5510    6.9514   -2.7241 H   0  0  0  0  0  0  0  0  0  0  0  0
    2.8924   -1.6131    4.6467 H   0  0  0  0  0  0  0  0  0  0  0  0
    3.2814   -0.4943    3.3783 H   0  0  0  0  0  0  0  0  0  0  0  0
    3.8305   -1.5119    1.3022 H   0  0  0  0  0  0  0  0  0  0  0  0
  1  2  1  0  0  0  0
  1  3  1  0  0  0  0
  1  4  1  0  0  0  0
  1  5  1  1  0  0  0
  2  6  1  0  0  0  0
  2  7  1  0  0  0  0
  2 29  1  6  0  0  0
  3  8  1  0  0  0  0
  3  9  1  0  0  0  0
  3 30  1  6  0  0  0
  4 10  1  0  0  0  0
  4 31  1  0  0  0  0
  4 32  1  0  0  0  0
  5 33  1  0  0  0  0
  5 34  1  0  0  0  0
  5 35  1  0  0  0  0
  6 12  2  0  0  0  0
  6 11  1  0  0  0  0
  7  8  1  0  0  0  0
  7 36  1  0  0  0  0
  7 37  1  0  0  0  0
  8 38  1  0  0  0  0
  8 39  1  0  0  0  0
  9 13  1  0  0  0  0
  9 14  1  0  0  0  0
  9 40  1  1  0  0  0
 10 12  1  0  0  0  0
 10 41  1  0  0  0  0
 10 42  1  0  0  0  0
 11 15  2  0  0  0  0
 11 43  1  0  0  0  0
 12 44  1  0  0  0  0
 13 16  1  0  0  0  0
 13 45  1  0  0  0  0
 13 46  1  0  0  0  0
 14 47  1  0  0  0  0
 14 48  1  0  0  0  0
 14 49  1  0  0  0  0
 15 17  1  0  0  0  0
 15 50  1  0  0  0  0
 16 18  1  0  0  0  0
 16 51  1  0  0  0  0
 16 52  1  0  0  0  0
 17 19  2  0  0  0  0
 17 20  1  0  0  0  0
 18 21  1  0  0  0  0
 18 53  1  0  0  0  0
 18 54  1  0  0  0  0
 19 22  1  0  0  0  0
 19 23  1  0  0  0  0
 20 24  1  0  0  0  0
 20 55  1  0  0  0  0
 20 56  1  0  0  0  0
 21 25  1  0  0  0  0
 21 26  1  0  0  0  0
 21 57  1  0  0  0  0
 22 27  1  0  0  0  0
 22 58  1  0  0  0  0
 22 59  1  0  0  0  0
 23 60  1  0  0  0  0
 23 61  1  0  0  0  0
 23 62  1  0  0  0  0
 24 28  1  0  0  0  0
 24 27  1  0  0  0  0
 24 63  1  1  0  0  0
 25 64  1  0  0  0  0
 25 65  1  0  0  0  0
 25 66  1  0  0  0  0
 26 67  1  0  0  0  0
 26 68  1  0  0  0  0
 26 69  1  0  0  0  0
 27 70  1  0  0  0  0
 27 71  1  0  0  0  0
 28 72  1  0  0  0  0
M  END
>  <DRUGBANK_ID>
DB15614

>  <COMMON_NAME>
Previtamin D(3)

>  <CAS_NUMBER>
1173-13-3

>  <UNII>
HDA46400N5

>  <SYNONYMS>
Precalciferol; Precholecalciferol; Previtamin D; Previtamin D(3); Previtamin D3

$$$$
