
 OpenBabel10282417203D

 30 33  0  0  0  0  0  0  0  0999 V2000
   -0.2189    0.7675   -0.0877 C   0  0  0  0  0  0  0  0  0  0  0  0
    0.5856   -0.5522    0.1199 C   0  0  0  0  0  0  0  0  0  0  0  0
   -6.4136   -4.4019   -0.5685 C   0  0  0  0  0  0  0  0  0  0  0  0
   -6.8600   -3.8836    0.8111 C   0  0  0  0  0  0  0  0  0  0  0  0
   -3.8645   -3.9806    3.6247 C   0  0  0  0  0  0  0  0  0  0  0  0
   -4.3289   -5.0977    2.6986 C   0  0  0  0  0  0  0  0  0  0  0  0
   -2.8347   -1.1691   -0.8728 C   0  0  0  0  0  0  0  0  0  0  0  0
   -1.9080   -1.2596    0.0689 C   0  0  0  0  0  0  0  0  0  0  0  0
   -4.1065   -1.9420   -0.8836 C   0  0  0  0  0  0  0  0  0  0  0  0
   -4.4915   -2.9000    0.2634 C   0  0  0  0  0  0  0  0  0  0  0  0
   -3.5617   -3.0979    1.2342 C   0  0  0  0  0  0  0  0  0  0  0  0
   -2.2281   -2.2543    1.1916 C   0  0  0  0  0  0  0  0  0  0  0  0
   -0.8222   -0.4409    0.3341 N   0  0  0  0  0  0  0  0  0  0  0  0
   -5.8156   -3.2690    0.0832 N   0  0  0  0  0  0  0  0  0  0  0  0
   -3.4634   -4.0638    2.2392 N   0  0  0  0  0  0  0  0  0  0  0  0
   -4.8473   -1.7648   -1.8433 O   0  0  0  0  0  0  0  0  0  0  0  0
   -1.4151   -2.3598    2.1122 O   0  0  0  0  0  0  0  0  0  0  0  0
   -0.1686    1.4999    0.7127 H   0  0  0  0  0  0  0  0  0  0  0  0
   -0.2119    1.1641   -1.0950 H   0  0  0  0  0  0  0  0  0  0  0  0
    1.0924   -0.8828   -0.7813 H   0  0  0  0  0  0  0  0  0  0  0  0
    1.1302   -0.6876    1.0480 H   0  0  0  0  0  0  0  0  0  0  0  0
   -6.0039   -5.4047   -0.5585 H   0  0  0  0  0  0  0  0  0  0  0  0
   -7.0263   -4.1394   -1.4242 H   0  0  0  0  0  0  0  0  0  0  0  0
   -7.7279   -3.2436    0.8884 H   0  0  0  0  0  0  0  0  0  0  0  0
   -6.7644   -4.5983    1.6004 H   0  0  0  0  0  0  0  0  0  0  0  0
   -4.6615   -3.3429    3.9870 H   0  0  0  0  0  0  0  0  0  0  0  0
   -3.0753   -4.2202    4.3278 H   0  0  0  0  0  0  0  0  0  0  0  0
   -3.8474   -6.0637    2.7463 H   0  0  0  0  0  0  0  0  0  0  0  0
   -5.3916   -5.1300    2.6033 H   0  0  0  0  0  0  0  0  0  0  0  0
   -2.7411   -0.4689   -1.7001 H   0  0  0  0  0  0  0  0  0  0  0  0
  1 18  1  0  0  0  0
  1 19  1  0  0  0  0
  2  1  1  0  0  0  0
  2 20  1  0  0  0  0
  2 21  1  0  0  0  0
  3 22  1  0  0  0  0
  3 23  1  0  0  0  0
  4  3  1  0  0  0  0
  4 24  1  0  0  0  0
  4 25  1  0  0  0  0
  5 26  1  0  0  0  0
  5 27  1  0  0  0  0
  6  5  1  0  0  0  0
  6 28  1  0  0  0  0
  6 29  1  0  0  0  0
  7 30  1  0  0  0  0
  8  7  2  0  0  0  0
  9  7  1  0  0  0  0
 10  9  1  0  0  0  0
 11 10  2  0  0  0  0
 12  8  1  0  0  0  0
 12 11  1  0  0  0  0
 13  1  1  0  0  0  0
 13  2  1  0  0  0  0
 13  8  1  0  0  0  0
 14  3  1  0  0  0  0
 14  4  1  0  0  0  0
 14 10  1  0  0  0  0
 15  5  1  0  0  0  0
 15  6  1  0  0  0  0
 15 11  1  0  0  0  0
 16  9  2  0  0  0  0
 17 12  2  0  0  0  0
M  END
>  <DRUGBANK_ID>
DB13304

>  <COMMON_NAME>
Triaziquone

>  <CAS_NUMBER>
68-76-8

>  <UNII>
F3D5D9P25I

>  <SYNONYMS>
triazicuona; Triaziquone

$$$$
