
 OpenBabel10282417203D

 37 39  0  0  0  0  0  0  0  0999 V2000
    0.0576   -1.0996    0.0120 C   0  0  0  0  0  0  0  0  0  0  0  0
   -1.3476   -0.9225   -0.0308 C   0  0  0  0  0  0  0  0  0  0  0  0
   -1.9240    0.3829   -0.0652 C   0  0  0  0  0  0  0  0  0  0  0  0
   -1.0604    1.4674   -0.0213 C   0  0  0  0  0  0  0  0  0  0  0  0
    0.3194    1.2928    0.0215 C   0  0  0  0  0  0  0  0  0  0  0  0
    0.8772    0.0224    0.0228 C   0  0  0  0  0  0  0  0  0  0  0  0
    2.2401   -0.0427    0.0234 O   0  0  0  0  0  0  0  0  0  0  0  0
   -3.4144    0.7105   -0.2407 C   0  0  0  0  0  0  0  0  0  0  0  0
   -4.0790    1.8574    0.6939 C   0  0  3  0  0  0  0  0  0  0  0  0
   -4.6361    3.4722    0.4855 C   0  0  0  0  0  0  0  0  0  0  0  0
   -4.7043    4.5210   -0.4802 C   0  0  0  0  0  0  0  0  0  0  0  0
   -5.7764    4.5449   -1.3846 C   0  0  0  0  0  0  0  0  0  0  0  0
   -6.1530    5.4986   -2.2842 O   0  0  0  0  0  0  0  0  0  0  0  0
   -5.1955    0.9479    1.2863 N   0  0  0  0  0  0  0  0  0  0  0  0
   -5.9061    1.4810    2.4550 C   0  0  0  0  0  0  0  0  0  0  0  0
   -5.7086    2.9669    2.5274 C   0  0  0  0  0  0  0  0  0  0  0  0
   -5.8528    3.4445    1.0996 C   0  0  0  0  0  0  0  0  0  0  0  0
   -6.8096    3.0787    0.1258 C   0  0  0  0  0  0  0  0  0  0  0  0
   -6.6907    3.5415   -1.1805 C   0  0  0  0  0  0  0  0  0  0  0  0
   -7.3990    3.0556   -2.2224 O   0  0  0  0  0  0  0  0  0  0  0  0
    0.4923   -2.0990    0.0222 H   0  0  0  0  0  0  0  0  0  0  0  0
   -1.9596   -1.8277   -0.0441 H   0  0  0  0  0  0  0  0  0  0  0  0
   -1.4718    2.4687   -0.0419 H   0  0  0  0  0  0  0  0  0  0  0  0
    0.9577    2.1675    0.0322 H   0  0  0  0  0  0  0  0  0  0  0  0
    2.5284   -0.9674   -0.0186 H   0  0  0  0  0  0  0  0  0  0  0  0
   -3.6639    0.8444   -1.2956 H   0  0  0  0  0  0  0  0  0  0  0  0
   -3.8741   -0.2628    0.0277 H   0  0  0  0  0  0  0  0  0  0  0  0
   -3.3751    1.9847    1.5272 H   0  0  0  0  0  0  0  0  0  0  0  0
   -4.6594    5.5633   -0.0459 H   0  0  0  0  0  0  0  0  0  0  0  0
   -5.9346    6.4102   -2.0032 H   0  0  0  0  0  0  0  0  0  0  0  0
   -5.8628    0.7899    0.5265 H   0  0  0  0  0  0  0  0  0  0  0  0
   -6.9823    1.2787    2.3634 H   0  0  0  0  0  0  0  0  0  0  0  0
   -5.5670    0.9782    3.3625 H   0  0  0  0  0  0  0  0  0  0  0  0
   -6.3327    3.5000    3.2446 H   0  0  0  0  0  0  0  0  0  0  0  0
   -4.6747    3.1521    2.8830 H   0  0  0  0  0  0  0  0  0  0  0  0
   -7.4834    2.2393    0.2852 H   0  0  0  0  0  0  0  0  0  0  0  0
   -7.0962    3.5779   -2.9955 H   0  0  0  0  0  0  0  0  0  0  0  0
  1  2  2  0  0  0  0
  1  6  1  0  0  0  0
  1 21  1  0  0  0  0
  2  3  1  0  0  0  0
  2 22  1  0  0  0  0
  3  4  2  0  0  0  0
  3  8  1  0  0  0  0
  4  5  1  0  0  0  0
  4 23  1  0  0  0  0
  5  6  2  0  0  0  0
  5 24  1  0  0  0  0
  6  7  1  0  0  0  0
  7 25  1  0  0  0  0
  8  9  1  0  0  0  0
  8 26  1  0  0  0  0
  8 27  1  0  0  0  0
  9 10  1  0  0  0  0
  9 14  1  0  0  0  0
  9 28  1  0  0  0  0
 10 11  1  0  0  0  0
 10 17  2  0  0  0  0
 11 12  2  0  0  0  0
 11 29  1  0  0  0  0
 12 13  1  0  0  0  0
 12 19  1  0  0  0  0
 13 30  1  0  0  0  0
 14 15  1  0  0  0  0
 14 31  1  0  0  0  0
 15 16  1  0  0  0  0
 15 32  1  0  0  0  0
 15 33  1  0  0  0  0
 16 17  1  0  0  0  0
 16 34  1  0  0  0  0
 16 35  1  0  0  0  0
 17 18  1  0  0  0  0
 18 19  2  0  0  0  0
 18 36  1  0  0  0  0
 19 20  1  0  0  0  0
 20 37  1  0  0  0  0
M  END
>  <DRUGBANK_ID>
DB12779

>  <COMMON_NAME>
Higenamine

>  <CAS_NUMBER>
5843-65-2

>  <UNII>
TBV5O16GAP

$$$$
