
 OpenBabel10282417233D

 20 20  0  0  0  0  0  0  0  0999 V2000
    2.4610   -0.0084   -0.0139 C   0  0  0  0  0  0  0  0  0  0  0  0
    0.9580   -0.0024   -0.0083 C   0  0  0  0  0  0  0  0  0  0  0  0
    0.2536    1.2074   -0.0086 C   0  0  0  0  0  0  0  0  0  0  0  0
   -1.1436    1.2160   -0.0173 C   0  0  0  0  0  0  0  0  0  0  0  0
   -1.8488    0.0087   -0.0274 C   0  0  0  0  0  0  0  0  0  0  0  0
   -1.1617   -1.2072   -0.0139 C   0  0  0  0  0  0  0  0  0  0  0  0
    0.2399   -1.2083   -0.0063 C   0  0  0  0  0  0  0  0  0  0  0  0
   -3.6214    0.0412   -0.0010 S   0  0  0  0  0  0  0  0  0  0  0  0
   -4.0614   -0.7544   -1.4218 N   0  0  0  0  0  0  0  0  0  0  0  0
   -4.0826   -0.7735    1.1008 O   0  0  0  0  0  0  0  0  0  0  0  0
   -4.0671    1.4011   -0.1881 O   0  0  0  0  0  0  0  0  0  0  0  0
    2.8484   -0.5309    0.8666 H   0  0  0  0  0  0  0  0  0  0  0  0
    2.8340   -0.4992   -0.9187 H   0  0  0  0  0  0  0  0  0  0  0  0
    2.8655    1.0101    0.0006 H   0  0  0  0  0  0  0  0  0  0  0  0
    0.7894    2.1546    0.0042 H   0  0  0  0  0  0  0  0  0  0  0  0
   -1.6684    2.1687   -0.0015 H   0  0  0  0  0  0  0  0  0  0  0  0
   -1.7040   -2.1500    0.0025 H   0  0  0  0  0  0  0  0  0  0  0  0
    0.7734   -2.1573    0.0074 H   0  0  0  0  0  0  0  0  0  0  0  0
   -5.0796   -0.8632   -1.4194 H   0  0  0  0  0  0  0  0  0  0  0  0
   -3.7615   -0.2330   -2.2454 H   0  0  0  0  0  0  0  0  0  0  0  0
  1  2  1  0  0  0  0
  1 12  1  0  0  0  0
  1 13  1  0  0  0  0
  1 14  1  0  0  0  0
  2  3  2  0  0  0  0
  2  7  1  0  0  0  0
  3  4  1  0  0  0  0
  3 15  1  0  0  0  0
  4  5  2  0  0  0  0
  4 16  1  0  0  0  0
  5  6  1  0  0  0  0
  5  8  1  0  0  0  0
  6  7  2  0  0  0  0
  6 17  1  0  0  0  0
  7 18  1  0  0  0  0
  8  9  1  0  0  0  0
  8 10  2  0  0  0  0
  8 11  2  0  0  0  0
  9 19  1  0  0  0  0
  9 20  1  0  0  0  0
M  END
>  <DRUGBANK_ID>
DB17299

>  <COMMON_NAME>
p-Toluenesulfonamide

>  <CAS_NUMBER>
70-55-3

>  <UNII>
I8266RI90M

>  <SYNONYMS>
4-methylbenzenesulfonamide; 4-toluenesulfonamide; Benzenesulfonamide, 4-methyl-; P-methylbenzenesulfonamide; P-toluenesulfonylamide; P-tosylamide; Para-toluenesulfonamide; Tolbutamide impurity a; Toluene-4-sulphonamide; Toluenesulfonamide, p-

$$$$
