
 OpenBabel10282417203D

 46 47  0  0  1  0  0  0  0  0999 V2000
    0.9849   -0.1319   -0.3397 C   0  0  0  0  0  0  0  0  0  0  0  0
    0.7311   -1.6665   -0.2238 C   0  0  1  0  0  0  0  0  0  0  0  0
    1.5471   -2.1568    1.0512 C   0  0  1  0  0  0  0  0  0  0  0  0
    1.1737   -1.7917    2.4904 C   0  0  0  0  0  0  0  0  0  0  0  0
    0.8393   -2.7077    3.5046 C   0  0  0  0  0  0  0  0  0  0  0  0
    0.7255   -2.2907    4.8453 C   0  0  0  0  0  0  0  0  0  0  0  0
    0.9797   -0.9689    5.2008 C   0  0  0  0  0  0  0  0  0  0  0  0
    1.2694   -0.0467    4.2092 C   0  0  0  0  0  0  0  0  0  0  0  0
    1.2999   -0.4513    2.8811 C   0  0  0  0  0  0  0  0  0  0  0  0
    1.8935   -3.5296    0.9329 O   0  0  0  0  0  0  0  0  0  0  0  0
   -0.7183   -1.8235   -0.1952 N   0  0  0  0  0  0  0  0  0  0  0  0
   -1.5342   -3.0191   -0.3482 C   0  0  0  0  0  0  0  0  0  0  0  0
   -1.6706   -3.7643    0.9717 C   0  0  0  0  0  0  0  0  0  0  0  0
   -2.1515   -3.0364    2.2950 C   0  0  0  0  0  0  0  0  0  0  0  0
   -2.3747   -3.7762    3.2368 O   0  0  0  0  0  0  0  0  0  0  0  0
   -2.1563   -1.4755    2.5939 C   0  0  0  0  0  0  0  0  0  0  0  0
   -2.1499   -0.4021    1.6804 C   0  0  0  0  0  0  0  0  0  0  0  0
   -1.6956    0.8850    2.0209 C   0  0  0  0  0  0  0  0  0  0  0  0
   -1.4714    1.2146    3.3386 C   0  0  0  0  0  0  0  0  0  0  0  0
   -1.7084    0.2579    4.3194 C   0  0  0  0  0  0  0  0  0  0  0  0
   -1.9970   -1.0856    3.9403 C   0  0  0  0  0  0  0  0  0  0  0  0
   -1.4988    0.5031    5.6585 O   0  0  0  0  0  0  0  0  0  0  0  0
   -1.1041    1.8347    6.0087 C   0  0  0  0  0  0  0  0  0  0  0  0
    0.4733    0.4487    0.4320 H   0  0  0  0  0  0  0  0  0  0  0  0
    0.6492    0.3096   -1.2804 H   0  0  0  0  0  0  0  0  0  0  0  0
    2.0549    0.0792   -0.2292 H   0  0  0  0  0  0  0  0  0  0  0  0
    1.1149   -2.1362   -1.1302 H   0  0  0  0  0  0  0  0  0  0  0  0
    2.5162   -1.6562    0.9567 H   0  0  0  0  0  0  0  0  0  0  0  0
    0.5666   -3.7365    3.2796 H   0  0  0  0  0  0  0  0  0  0  0  0
    0.3069   -2.9568    5.5984 H   0  0  0  0  0  0  0  0  0  0  0  0
    0.7299   -0.6161    6.1996 H   0  0  0  0  0  0  0  0  0  0  0  0
    1.2795    1.0196    4.4140 H   0  0  0  0  0  0  0  0  0  0  0  0
    1.3355    0.3494    2.1576 H   0  0  0  0  0  0  0  0  0  0  0  0
    1.0768   -4.0377    0.8878 H   0  0  0  0  0  0  0  0  0  0  0  0
   -0.8225   -1.6438    0.7887 H   0  0  0  0  0  0  0  0  0  0  0  0
   -2.5613   -2.7062   -0.6054 H   0  0  0  0  0  0  0  0  0  0  0  0
   -1.2146   -3.6532   -1.1843 H   0  0  0  0  0  0  0  0  0  0  0  0
   -2.3151   -4.6500    0.8213 H   0  0  0  0  0  0  0  0  0  0  0  0
   -0.7029   -4.2169    1.1916 H   0  0  0  0  0  0  0  0  0  0  0  0
   -2.3300   -0.5170    0.6161 H   0  0  0  0  0  0  0  0  0  0  0  0
   -1.4311    1.6022    1.2439 H   0  0  0  0  0  0  0  0  0  0  0  0
   -1.0185    2.1778    3.5554 H   0  0  0  0  0  0  0  0  0  0  0  0
   -1.9322   -1.8588    4.7058 H   0  0  0  0  0  0  0  0  0  0  0  0
   -0.1267    2.1167    5.5960 H   0  0  0  0  0  0  0  0  0  0  0  0
   -1.8631    2.5535    5.6887 H   0  0  0  0  0  0  0  0  0  0  0  0
   -1.0032    1.8906    7.0950 H   0  0  0  0  0  0  0  0  0  0  0  0
  1 24  1  0  0  0  0
  1 25  1  0  0  0  0
  1 26  1  0  0  0  0
  2  1  1  0  0  0  0
  2  3  1  0  0  0  0
  2 11  1  0  0  0  0
  2 27  1  6  0  0  0
  3  4  1  0  0  0  0
  3 10  1  0  0  0  0
  3 28  1  6  0  0  0
  4  5  2  0  0  0  0
  4  9  1  0  0  0  0
  5  6  1  0  0  0  0
  5 29  1  0  0  0  0
  6  7  2  0  0  0  0
  6 30  1  0  0  0  0
  7  8  1  0  0  0  0
  7 31  1  0  0  0  0
  8  9  2  0  0  0  0
  8 32  1  0  0  0  0
  9 33  1  0  0  0  0
 10 34  1  0  0  0  0
 11 12  1  0  0  0  0
 11 35  1  0  0  0  0
 12 13  1  0  0  0  0
 12 36  1  0  0  0  0
 12 37  1  0  0  0  0
 13 14  1  0  0  0  0
 13 38  1  0  0  0  0
 13 39  1  0  0  0  0
 14 15  2  0  0  0  0
 14 16  1  0  0  0  0
 16 17  2  0  0  0  0
 16 21  1  0  0  0  0
 17 18  1  0  0  0  0
 17 40  1  0  0  0  0
 18 19  2  0  0  0  0
 18 41  1  0  0  0  0
 19 20  1  0  0  0  0
 19 42  1  0  0  0  0
 20 21  2  0  0  0  0
 20 22  1  0  0  0  0
 21 43  1  0  0  0  0
 22 23  1  0  0  0  0
 23 44  1  0  0  0  0
 23 45  1  0  0  0  0
 23 46  1  0  0  0  0
M  END
>  <DRUGBANK_ID>
DB13398

>  <COMMON_NAME>
Oxyfedrine

>  <CAS_NUMBER>
15687-41-9

>  <UNII>
DWL616XF1K

>  <SYNONYMS>
Oxyfedrine

$$$$
