(3a,5b,12a)-3,12-dihydroxy-Cholan-24-oic acid.mol
 OpenBabel10282417133D

 68 71  0  0  0  0  0  0  0  0999 V2000
   -3.8015    0.3470   -0.7191 C   0  0  2  0  0  0  0  0  0  0  0  0
   -3.0542    1.5106   -0.0808 C   0  0  0  0  0  0  0  0  0  0  0  0
   -2.4913    1.0862    1.2733 C   0  0  0  0  0  0  0  0  0  0  0  0
   -2.8849   -0.8578   -0.8875 C   0  0  0  0  0  0  0  0  0  0  0  0
   -2.2775   -1.3121    0.4528 C   0  0  1  0  0  0  0  0  0  0  0  0
   -1.3709   -2.5319    0.2205 C   0  0  0  0  0  0  0  0  0  0  0  0
   -0.0950   -2.1892   -0.5233 C   0  0  0  0  0  0  0  0  0  0  0  0
    0.6403   -1.0504    0.1424 C   0  0  1  0  0  0  0  0  0  0  0  0
    1.8239   -0.6248   -0.7484 C   0  0  2  0  0  0  0  0  0  0  0  0
    2.8674   -1.6741   -1.1432 C   0  0  0  0  0  0  0  0  0  0  0  0
    4.1546   -0.8655   -1.3816 C   0  0  0  0  0  0  0  0  0  0  0  0
    3.9068    0.5970   -0.8600 C   0  0  2  0  0  0  0  0  0  0  0  0
    5.1896    1.3583   -0.2730 C   0  0  1  0  0  0  0  0  0  0  0  0
    5.0637    2.2057    1.0516 C   0  0  0  0  0  0  0  0  0  0  0  0
    4.6657    1.5465    2.4101 C   0  0  0  0  0  0  0  0  0  0  0  0
    5.4475    0.2899    2.9766 C   0  0  0  0  0  0  0  0  0  0  0  0
    6.3780    0.4154   -0.1487 C   0  0  0  0  0  0  0  0  0  0  0  0
    2.6411    0.3895    0.0320 C   0  0  2  0  0  0  0  0  0  0  0  0
    2.9989   -0.3961    1.2933 C   0  0  0  0  0  0  0  0  0  0  0  0
    1.8272    1.6750    0.3008 C   0  0  2  0  0  0  0  0  0  0  0  0
    0.5535    1.3559    1.0759 C   0  0  0  0  0  0  0  0  0  0  0  0
   -0.2439    0.2002    0.4236 C   0  0  2  0  0  0  0  0  0  0  0  0
   -1.5479   -0.1495    1.1964 C   0  0  1  0  0  0  0  0  0  0  0  0
   -1.2474   -0.5807    2.6537 C   0  0  0  0  0  0  0  0  0  0  0  0
    5.9842    0.2579    4.0903 O   0  0  0  0  0  0  0  0  0  0  0  0
    5.4945   -0.8352    2.2361 O   0  0  0  0  0  0  0  0  0  0  0  0
    1.4913    2.3509   -0.9125 O   0  0  0  0  0  0  0  0  0  0  0  0
   -4.3232    0.7321   -1.9842 O   0  0  0  0  0  0  0  0  0  0  0  0
   -3.1094   -1.6456    1.0866 H   0  0  0  0  0  0  0  0  0  0  0  0
   -0.5336    0.5690   -0.5649 H   0  0  0  0  0  0  0  0  0  0  0  0
    0.9723   -1.4461    1.1119 H   0  0  0  0  0  0  0  0  0  0  0  0
    1.4467   -0.1924   -1.6796 H   0  0  0  0  0  0  0  0  0  0  0  0
   -4.6527    0.0746   -0.0855 H   0  0  0  0  0  0  0  0  0  0  0  0
   -2.2615    1.8715   -0.7487 H   0  0  0  0  0  0  0  0  0  0  0  0
   -3.7305    2.3633    0.0466 H   0  0  0  0  0  0  0  0  0  0  0  0
   -1.9933    1.9413    1.7420 H   0  0  0  0  0  0  0  0  0  0  0  0
   -3.3345    0.8478    1.9336 H   0  0  0  0  0  0  0  0  0  0  0  0
   -3.4459   -1.6835   -1.3401 H   0  0  0  0  0  0  0  0  0  0  0  0
   -2.1046   -0.6093   -1.6177 H   0  0  0  0  0  0  0  0  0  0  0  0
   -1.1132   -2.9896    1.1829 H   0  0  0  0  0  0  0  0  0  0  0  0
   -1.9048   -3.2973   -0.3506 H   0  0  0  0  0  0  0  0  0  0  0  0
    0.5553   -3.0723   -0.5468 H   0  0  0  0  0  0  0  0  0  0  0  0
   -0.3022   -1.9202   -1.5623 H   0  0  0  0  0  0  0  0  0  0  0  0
    3.0477   -2.4164   -0.3522 H   0  0  0  0  0  0  0  0  0  0  0  0
    2.5805   -2.2589   -2.0142 H   0  0  0  0  0  0  0  0  0  0  0  0
    4.9357   -1.4080   -0.8466 H   0  0  0  0  0  0  0  0  0  0  0  0
    4.4468   -0.8627   -2.4340 H   0  0  0  0  0  0  0  0  0  0  0  0
    3.6003    1.1837   -1.7415 H   0  0  0  0  0  0  0  0  0  0  0  0
    5.4937    2.0835   -1.0513 H   0  0  0  0  0  0  0  0  0  0  0  0
    6.0127    2.7260    1.2326 H   0  0  0  0  0  0  0  0  0  0  0  0
    4.3588    3.0228    0.8289 H   0  0  0  0  0  0  0  0  0  0  0  0
    4.6456    2.2806    3.2211 H   0  0  0  0  0  0  0  0  0  0  0  0
    3.5839    1.4136    2.3781 H   0  0  0  0  0  0  0  0  0  0  0  0
    6.7268    0.0075   -1.0992 H   0  0  0  0  0  0  0  0  0  0  0  0
    7.2146    0.8177    0.4257 H   0  0  0  0  0  0  0  0  0  0  0  0
    6.0283   -0.4493    0.3747 H   0  0  0  0  0  0  0  0  0  0  0  0
    3.1819   -1.4717    1.2717 H   0  0  0  0  0  0  0  0  0  0  0  0
    3.9905   -0.0898    1.3468 H   0  0  0  0  0  0  0  0  0  0  0  0
    2.4433   -0.1929    2.2094 H   0  0  0  0  0  0  0  0  0  0  0  0
    2.3743    2.4178    0.8815 H   0  0  0  0  0  0  0  0  0  0  0  0
   -0.0518    2.2667    1.1174 H   0  0  0  0  0  0  0  0  0  0  0  0
    0.8184    1.1150    2.1105 H   0  0  0  0  0  0  0  0  0  0  0  0
   -0.5881   -1.4508    2.7105 H   0  0  0  0  0  0  0  0  0  0  0  0
   -0.7790    0.2218    3.2323 H   0  0  0  0  0  0  0  0  0  0  0  0
   -2.1749   -0.8435    3.1745 H   0  0  0  0  0  0  0  0  0  0  0  0
    6.3250   -1.3496    2.2843 H   0  0  0  0  0  0  0  0  0  0  0  0
    0.9083    1.7819   -1.4389 H   0  0  0  0  0  0  0  0  0  0  0  0
   -3.5796    0.8563   -2.5975 H   0  0  0  0  0  0  0  0  0  0  0  0
  1  2  1  0  0  0  0
  1  4  1  0  0  0  0
  1 28  1  0  0  0  0
  1 33  1  1  0  0  0
  2  3  1  0  0  0  0
  2 34  1  0  0  0  0
  2 35  1  0  0  0  0
  3 23  1  0  0  0  0
  3 36  1  0  0  0  0
  3 37  1  0  0  0  0
  4  5  1  0  0  0  0
  4 38  1  0  0  0  0
  4 39  1  0  0  0  0
  5  6  1  0  0  0  0
  5 23  1  0  0  0  0
  5 29  1  1  0  0  0
  6  7  1  0  0  0  0
  6 40  1  0  0  0  0
  6 41  1  0  0  0  0
  7  8  1  0  0  0  0
  7 42  1  0  0  0  0
  7 43  1  0  0  0  0
  8  9  1  0  0  0  0
  8 22  1  0  0  0  0
  8 31  1  1  0  0  0
  9 10  1  0  0  0  0
  9 18  1  0  0  0  0
  9 32  1  6  0  0  0
 10 11  1  0  0  0  0
 10 44  1  0  0  0  0
 10 45  1  0  0  0  0
 11 46  1  0  0  0  0
 11 47  1  0  0  0  0
 12 11  1  0  0  0  0
 12 18  1  0  0  0  0
 12 48  1  6  0  0  0
 12 13  1  0  0  0  0
 13 14  1  0  0  0  0
 13 17  1  0  0  0  0
 13 49  1  6  0  0  0
 14 15  1  0  0  0  0
 14 50  1  0  0  0  0
 14 51  1  0  0  0  0
 15 16  1  0  0  0  0
 15 52  1  0  0  0  0
 15 53  1  0  0  0  0
 16 25  2  0  0  0  0
 16 26  1  0  0  0  0
 17 54  1  0  0  0  0
 17 55  1  0  0  0  0
 17 56  1  0  0  0  0
 18 19  1  1  0  0  0
 18 20  1  0  0  0  0
 19 57  1  0  0  0  0
 19 58  1  0  0  0  0
 19 59  1  0  0  0  0
 20 21  1  0  0  0  0
 20 27  1  0  0  0  0
 20 60  1  1  0  0  0
 21 22  1  0  0  0  0
 21 61  1  0  0  0  0
 21 62  1  0  0  0  0
 22 23  1  0  0  0  0
 22 30  1  6  0  0  0
 23 24  1  1  0  0  0
 24 63  1  0  0  0  0
 24 64  1  0  0  0  0
 24 65  1  0  0  0  0
 26 66  1  0  0  0  0
 27 67  1  0  0  0  0
 28 68  1  0  0  0  0
M  END
>  <DRUGBANK_ID>
DB03619

>  <SECONDARY_ACCESSION_NUMBERS>
EXPT01194; DB07690

>  <COMMON_NAME>
Deoxycholic acid

>  <CAS_NUMBER>
83-44-3

>  <UNII>
005990WHZZ

>  <SYNONYMS>
(3α,5β,12α)-3,12-dihydroxycholan-24-oic acid; 3alpha,12alpha-Dihydroxy-5beta-cholanic acid; 7α-deoxycholic acid; Deoxycholate; Deoxycholic acid; Desoxycholic acid; Desoxycholsäure

$$$$
