FLX
 OpenBabel10282417123D

 57 59  0  0  0  0  0  0  0  0999 V2000
    0.7612   -0.0908    0.2522 N   0  0  0  0  0  0  0  0  0  0  0  0
    0.0699   -1.1596    0.7617 C   0  0  0  0  0  0  0  0  0  0  0  0
   -1.1701   -1.2321    0.6756 O   0  0  0  0  0  0  0  0  0  0  0  0
    0.8826   -2.1589    1.4058 C   0  0  0  0  0  0  0  0  0  0  0  0
    0.4981   -3.4675    1.3208 O   0  0  0  0  0  0  0  0  0  0  0  0
    2.0270   -2.0690    2.1847 C   0  0  0  0  0  0  0  0  0  0  0  0
    2.3113   -3.3816    2.6370 C   0  0  0  0  0  0  0  0  0  0  0  0
    1.3636   -4.1965    2.0664 C   0  0  0  0  0  0  0  0  0  0  0  0
    0.0660    0.9537   -0.5056 C   0  0  1  0  0  0  0  0  0  0  0  0
    0.0890    2.3206    0.2686 C   0  0  0  0  0  0  0  0  0  0  0  0
    1.2837    3.1262   -0.0628 C   0  0  0  0  0  0  0  0  0  0  0  0
    0.9298    3.5132   -1.7051 C   0  0  0  0  0  0  0  0  0  0  0  0
    1.8982    4.1917    0.9159 C   0  0  0  0  0  0  0  0  0  0  0  0
    0.5409    0.8511   -2.0085 C   0  0  0  0  0  0  0  0  0  0  0  0
   -0.2594    0.7450   -2.9426 O   0  0  0  0  0  0  0  0  0  0  0  0
    1.8680    1.0287   -2.3396 N   0  0  0  0  0  0  0  0  0  0  0  0
    2.9801    1.5378   -1.4751 C   0  0  1  0  0  0  0  0  0  0  0  0
    4.0978    0.4613   -1.7273 C   0  0  0  0  0  0  0  0  0  0  0  0
    4.7147    0.5408   -3.0742 C   0  0  0  0  0  0  0  0  0  0  0  0
    5.1108   -0.5921   -3.8360 C   0  0  0  0  0  0  0  0  0  0  0  0
    5.6198   -0.1175   -5.0411 C   0  0  0  0  0  0  0  0  0  0  0  0
    5.0586   -1.9801   -3.6106 C   0  0  0  0  0  0  0  0  0  0  0  0
    4.9921    1.6534   -3.8418 C   0  0  0  0  0  0  0  0  0  0  0  0
    5.5616    1.2469   -5.0097 N   0  0  0  0  0  0  0  0  0  0  0  0
    6.0776   -0.9571   -6.0490 C   0  0  0  0  0  0  0  0  0  0  0  0
    5.4934   -2.8385   -4.6196 C   0  0  0  0  0  0  0  0  0  0  0  0
    5.9912   -2.3304   -5.8183 C   0  0  0  0  0  0  0  0  0  0  0  0
    3.7691    3.1746   -1.6925 P   0  0  0  0  0  0  0  0  0  0  0  0
    2.8989    4.2444   -1.1381 O   0  0  0  0  0  0  0  0  0  0  0  0
    4.9720    2.8264   -0.6373 O   0  0  0  0  0  0  0  0  0  0  0  0
    4.5151    4.7219   -1.8980 O   0  0  0  0  0  0  0  0  0  0  0  0
   -0.9982    0.7100   -0.5473 H   0  0  0  0  0  0  0  0  0  0  0  0
    2.8005    1.1861   -0.4719 H   0  0  0  0  0  0  0  0  0  0  0  0
    1.7546   -0.2350    0.1412 H   0  0  0  0  0  0  0  0  0  0  0  0
    2.5436   -1.1610    2.4597 H   0  0  0  0  0  0  0  0  0  0  0  0
    3.0931   -3.6966    3.3140 H   0  0  0  0  0  0  0  0  0  0  0  0
    1.1602   -5.2574    2.1105 H   0  0  0  0  0  0  0  0  0  0  0  0
   -0.7221    2.9721   -0.0563 H   0  0  0  0  0  0  0  0  0  0  0  0
    0.0178    2.1871    1.3471 H   0  0  0  0  0  0  0  0  0  0  0  0
    2.0534    2.4156    0.2128 H   0  0  0  0  0  0  0  0  0  0  0  0
    1.0334    4.5532   -2.0177 H   0  0  0  0  0  0  0  0  0  0  0  0
    1.5886    3.0624   -2.4636 H   0  0  0  0  0  0  0  0  0  0  0  0
   -0.0391    3.1539   -2.0386 H   0  0  0  0  0  0  0  0  0  0  0  0
    1.7610    3.9665    1.9700 H   0  0  0  0  0  0  0  0  0  0  0  0
    3.0234    4.1969    0.8832 H   0  0  0  0  0  0  0  0  0  0  0  0
    1.5826    5.1872    0.6230 H   0  0  0  0  0  0  0  0  0  0  0  0
    2.0143    1.0437   -3.3520 H   0  0  0  0  0  0  0  0  0  0  0  0
    4.8783    0.4869   -0.9561 H   0  0  0  0  0  0  0  0  0  0  0  0
    3.6324   -0.5294   -1.5926 H   0  0  0  0  0  0  0  0  0  0  0  0
    4.6683   -2.3860   -2.6813 H   0  0  0  0  0  0  0  0  0  0  0  0
    4.8719    2.7163   -3.7189 H   0  0  0  0  0  0  0  0  0  0  0  0
    5.8647    1.8738   -5.7415 H   0  0  0  0  0  0  0  0  0  0  0  0
    6.4673   -0.5573   -6.9773 H   0  0  0  0  0  0  0  0  0  0  0  0
    5.4332   -3.9123   -4.4675 H   0  0  0  0  0  0  0  0  0  0  0  0
    6.3165   -3.0145   -6.5955 H   0  0  0  0  0  0  0  0  0  0  0  0
    4.8001    2.2880    0.1526 H   0  0  0  0  0  0  0  0  0  0  0  0
    3.7857    5.3547   -1.7294 H   0  0  0  0  0  0  0  0  0  0  0  0
  1  2  1  0  0  0  0
  1 34  1  0  0  0  0
  2  3  2  0  0  0  0
  2  4  1  0  0  0  0
  4  5  1  0  0  0  0
  4  6  2  0  0  0  0
  5  8  1  0  0  0  0
  6  7  1  0  0  0  0
  6 35  1  0  0  0  0
  7  8  2  0  0  0  0
  7 36  1  0  0  0  0
  8 37  1  0  0  0  0
  9  1  1  0  0  0  0
  9 10  1  0  0  0  0
  9 14  1  0  0  0  0
  9 32  1  6  0  0  0
 10 11  1  0  0  0  0
 10 38  1  0  0  0  0
 10 39  1  0  0  0  0
 11 12  1  0  0  0  0
 11 13  1  0  0  0  0
 11 40  1  0  0  0  0
 12 41  1  0  0  0  0
 12 42  1  0  0  0  0
 12 43  1  0  0  0  0
 13 44  1  0  0  0  0
 13 45  1  0  0  0  0
 13 46  1  0  0  0  0
 14 15  2  0  0  0  0
 14 16  1  0  0  0  0
 16 47  1  0  0  0  0
 17 16  1  0  0  0  0
 17 18  1  0  0  0  0
 17 28  1  0  0  0  0
 17 33  1  1  0  0  0
 18 19  1  0  0  0  0
 18 48  1  0  0  0  0
 18 49  1  0  0  0  0
 19 20  1  0  0  0  0
 19 23  2  0  0  0  0
 20 21  2  0  0  0  0
 20 22  1  0  0  0  0
 21 24  1  0  0  0  0
 21 25  1  0  0  0  0
 22 26  2  0  0  0  0
 22 50  1  0  0  0  0
 23 24  1  0  0  0  0
 23 51  1  0  0  0  0
 24 52  1  0  0  0  0
 25 27  2  0  0  0  0
 25 53  1  0  0  0  0
 26 27  1  0  0  0  0
 26 54  1  0  0  0  0
 27 55  1  0  0  0  0
 28 29  2  0  0  0  0
 28 30  1  0  0  0  0
 28 31  1  0  0  0  0
 30 56  1  0  0  0  0
 31 57  1  0  0  0  0
M  END
>  <DRUGBANK_ID>
DB02046

>  <SECONDARY_ACCESSION_NUMBERS>
EXPT01449

>  <COMMON_NAME>
N-[(Furan-2-Yl)Carbonyl]-(S)-Leucyl-(R)-[1-Amino-2(1h-Indol-3-Yl)Ethyl]-Phosphonic Acid

$$$$
