
 OpenBabel10282417133D

 97 96  0  0  1  0  0  0  0  0999 V2000
    0.8872    0.0184    0.0103 C   0  0  2  0  0  0  0  0  0  0  0  0
    0.4276    1.4352   -0.0200 N   0  0  0  0  0  0  0  0  0  0  0  0
    0.5644   -0.7952   -1.2883 C   0  0  0  0  0  0  0  0  0  0  0  0
    0.4619   -0.6894    1.3075 C   0  0  0  0  0  0  0  0  0  0  0  0
   -0.4831    1.8972   -0.9399 C   0  0  0  0  0  0  0  0  0  0  0  0
   -0.4184   -1.7659   -1.1730 N   0  0  0  0  0  0  0  0  0  0  0  0
    1.0891   -0.5093   -2.3654 O   0  0  0  0  0  0  0  0  0  0  0  0
    1.1266   -2.3906    1.5241 S   0  0  0  0  0  0  0  0  0  0  0  0
   -0.8062    3.3781   -0.9266 C   0  0  0  0  0  0  0  0  0  0  0  0
   -1.0323    1.1638   -1.7546 O   0  0  0  0  0  0  0  0  0  0  0  0
   -0.8832   -2.5311   -2.3118 C   0  0  0  0  0  0  0  0  0  0  0  0
    0.5012  -17.4186  -10.1453 S   0  0  0  0  0  0  0  0  0  0  0  0
   -0.3954    4.0783   -2.2369 C   0  0  0  0  0  0  0  0  0  0  0  0
   -0.2910   -3.9442   -2.2805 C   0  0  0  0  0  0  0  0  0  0  0  0
    1.0880  -15.9268   -9.1922 C   0  0  0  0  0  0  0  0  0  0  0  0
   -0.9518    3.4363   -3.5297 C   0  0  1  0  0  0  0  0  0  0  0  0
   -1.2132   -4.9718   -2.2810 N   0  0  0  0  0  0  0  0  0  0  0  0
    0.9171   -4.1519   -2.1964 O   0  0  0  0  0  0  0  0  0  0  0  0
    0.4509  -14.5009   -9.3655 C   0  0  2  0  0  0  0  0  0  0  0  0
   -2.5031    3.3854   -3.5292 C   0  0  0  0  0  0  0  0  0  0  0  0
   -0.4338    4.1730   -4.7080 N   0  0  0  0  0  0  0  0  0  0  0  0
   -0.7878   -6.3584   -2.2611 C   0  0  0  0  0  0  0  0  0  0  0  0
    0.8572  -13.7627  -10.6081 N   0  0  0  0  0  0  0  0  0  0  0  0
    0.9780  -13.7077   -8.1073 C   0  0  0  0  0  0  0  0  0  0  0  0
   -3.0910    4.0224   -4.5711 O   0  0  0  0  0  0  0  0  0  0  0  0
   -3.1941    2.8563   -2.6667 O   0  0  0  0  0  0  0  0  0  0  0  0
   -1.3318   -7.1065   -1.0432 C   0  0  0  0  0  0  0  0  0  0  0  0
    1.4321  -14.3624  -11.6957 C   0  0  0  0  0  0  0  0  0  0  0  0
    0.0542  -13.2675   -7.1708 N   0  0  0  0  0  0  0  0  0  0  0  0
    2.1844  -13.5247   -7.9365 O   0  0  0  0  0  0  0  0  0  0  0  0
   -2.8647   -7.1988   -1.0227 C   0  0  0  0  0  0  0  0  0  0  0  0
    1.8317  -13.5567  -12.8980 C   0  0  0  0  0  0  0  0  0  0  0  0
    1.6508  -15.5704  -11.7542 O   0  0  0  0  0  0  0  0  0  0  0  0
    0.4665  -12.5271   -5.9626 C   0  0  0  0  0  0  0  0  0  0  0  0
   -3.4419   -7.9046   -2.2469 C   0  0  0  0  0  0  0  0  0  0  0  0
    3.3088  -13.8428  -13.2697 C   0  0  0  0  0  0  0  0  0  0  0  0
    0.0013  -11.0617   -5.9919 C   0  0  0  0  0  0  0  0  0  0  0  0
   -2.9808   -9.2898   -2.3228 N   0  0  0  0  0  0  0  0  0  0  0  0
    3.6901  -15.3288  -13.5266 C   0  0  1  0  0  0  0  0  0  0  0  0
   -0.7700  -10.6513   -4.9208 N   0  0  0  0  0  0  0  0  0  0  0  0
    0.2567  -10.3167   -6.9351 O   0  0  0  0  0  0  0  0  0  0  0  0
   -3.4106   -9.9417   -3.5573 C   0  0  0  0  0  0  0  0  0  0  0  0
    2.8406  -15.9600  -14.6596 C   0  0  0  0  0  0  0  0  0  0  0  0
    5.1440  -15.4284  -13.8121 N   0  0  0  0  0  0  0  0  0  0  0  0
   -1.3075   -9.3022   -4.8547 C   0  0  0  0  0  0  0  0  0  0  0  0
   -2.8355   -9.3005   -4.8256 C   0  0  0  0  0  0  0  0  0  0  0  0
    3.5613  -16.4565  -15.6952 O   0  0  0  0  0  0  0  0  0  0  0  0
    1.6151  -16.0048  -14.6872 O   0  0  0  0  0  0  0  0  0  0  0  0
    1.9835    0.0996    0.0305 H   0  0  0  0  0  0  0  0  0  0  0  0
    0.7501    2.0613    0.7083 H   0  0  0  0  0  0  0  0  0  0  0  0
    0.8117   -0.1209    2.1757 H   0  0  0  0  0  0  0  0  0  0  0  0
   -0.6305   -0.7242    1.3819 H   0  0  0  0  0  0  0  0  0  0  0  0
   -0.7897   -2.0273   -0.2719 H   0  0  0  0  0  0  0  0  0  0  0  0
    0.8204   -2.9029    0.3130 H   0  0  0  0  0  0  0  0  0  0  0  0
   -1.8884    3.4546   -0.7824 H   0  0  0  0  0  0  0  0  0  0  0  0
   -0.3602    3.8839   -0.0641 H   0  0  0  0  0  0  0  0  0  0  0  0
   -1.9754   -2.5559   -2.2529 H   0  0  0  0  0  0  0  0  0  0  0  0
   -0.5858   -2.0526   -3.2469 H   0  0  0  0  0  0  0  0  0  0  0  0
   -0.4963  -17.8858   -9.4025 H   0  0  0  0  0  0  0  0  0  0  0  0
   -0.7258    5.1252   -2.1828 H   0  0  0  0  0  0  0  0  0  0  0  0
    0.7028    4.1028   -2.2852 H   0  0  0  0  0  0  0  0  0  0  0  0
    2.1475  -15.8158   -9.4550 H   0  0  0  0  0  0  0  0  0  0  0  0
    1.0793  -16.2290   -8.1427 H   0  0  0  0  0  0  0  0  0  0  0  0
   -0.5725    2.4184   -3.6520 H   0  0  0  0  0  0  0  0  0  0  0  0
   -2.2017   -4.7647   -2.3556 H   0  0  0  0  0  0  0  0  0  0  0  0
   -0.6458  -14.5218   -9.3438 H   0  0  0  0  0  0  0  0  0  0  0  0
   -0.6452    3.6793   -5.5728 H   0  0  0  0  0  0  0  0  0  0  0  0
   -0.6955    5.1525   -4.7179 H   0  0  0  0  0  0  0  0  0  0  0  0
   -1.1244   -6.8012   -3.2007 H   0  0  0  0  0  0  0  0  0  0  0  0
    0.3039   -6.4309   -2.2679 H   0  0  0  0  0  0  0  0  0  0  0  0
    0.7886  -12.7506  -10.6016 H   0  0  0  0  0  0  0  0  0  0  0  0
   -2.4363    4.3913   -5.1877 H   0  0  0  0  0  0  0  0  0  0  0  0
   -0.8961   -8.1128   -1.0198 H   0  0  0  0  0  0  0  0  0  0  0  0
   -0.9931   -6.6126   -0.1258 H   0  0  0  0  0  0  0  0  0  0  0  0
   -0.9358  -13.2972   -7.3763 H   0  0  0  0  0  0  0  0  0  0  0  0
   -3.1931   -7.7130   -0.1125 H   0  0  0  0  0  0  0  0  0  0  0  0
   -3.2879   -6.1884   -0.9770 H   0  0  0  0  0  0  0  0  0  0  0  0
    1.1750  -13.8697  -13.7175 H   0  0  0  0  0  0  0  0  0  0  0  0
    1.6535  -12.4901  -12.7467 H   0  0  0  0  0  0  0  0  0  0  0  0
    1.5572  -12.5146   -5.8604 H   0  0  0  0  0  0  0  0  0  0  0  0
    0.0561  -13.0478   -5.0903 H   0  0  0  0  0  0  0  0  0  0  0  0
   -4.5353   -7.8812   -2.2119 H   0  0  0  0  0  0  0  0  0  0  0  0
   -3.1509   -7.3280   -3.1280 H   0  0  0  0  0  0  0  0  0  0  0  0
    3.5482  -13.2572  -14.1658 H   0  0  0  0  0  0  0  0  0  0  0  0
    3.9380  -13.4525  -12.4571 H   0  0  0  0  0  0  0  0  0  0  0  0
   -1.9674   -9.3389   -2.2442 H   0  0  0  0  0  0  0  0  0  0  0  0
    3.5740  -15.9422  -12.6306 H   0  0  0  0  0  0  0  0  0  0  0  0
   -0.9344  -11.2705   -4.1353 H   0  0  0  0  0  0  0  0  0  0  0  0
   -3.0984  -10.9915   -3.5085 H   0  0  0  0  0  0  0  0  0  0  0  0
   -4.5050   -9.9569   -3.5969 H   0  0  0  0  0  0  0  0  0  0  0  0
    5.4482  -16.4000  -13.8211 H   0  0  0  0  0  0  0  0  0  0  0  0
    5.4269  -14.8966  -14.6263 H   0  0  0  0  0  0  0  0  0  0  0  0
   -0.9677   -8.7061   -5.7071 H   0  0  0  0  0  0  0  0  0  0  0  0
   -0.8805   -8.8337   -3.9640 H   0  0  0  0  0  0  0  0  0  0  0  0
   -3.2263   -9.8297   -5.7011 H   0  0  0  0  0  0  0  0  0  0  0  0
   -3.1964   -8.2698   -4.9259 H   0  0  0  0  0  0  0  0  0  0  0  0
    4.5175  -16.3691  -15.5436 H   0  0  0  0  0  0  0  0  0  0  0  0
  1  2  1  0  0  0  0
  1  3  1  0  0  0  0
  1  4  1  0  0  0  0
  1 49  1  1  0  0  0
  2  5  1  0  0  0  0
  2 50  1  0  0  0  0
  3  6  1  0  0  0  0
  3  7  2  0  0  0  0
  4  8  1  0  0  0  0
  4 51  1  0  0  0  0
  4 52  1  0  0  0  0
  5  9  1  0  0  0  0
  5 10  2  0  0  0  0
  6 11  1  0  0  0  0
  6 53  1  0  0  0  0
  8 54  1  0  0  0  0
  9 13  1  0  0  0  0
  9 55  1  0  0  0  0
  9 56  1  0  0  0  0
 11 14  1  0  0  0  0
 11 57  1  0  0  0  0
 11 58  1  0  0  0  0
 12 15  1  0  0  0  0
 12 59  1  0  0  0  0
 13 16  1  0  0  0  0
 13 60  1  0  0  0  0
 13 61  1  0  0  0  0
 14 17  1  0  0  0  0
 14 18  2  0  0  0  0
 15 62  1  0  0  0  0
 15 63  1  0  0  0  0
 16 20  1  0  0  0  0
 16 21  1  0  0  0  0
 16 64  1  6  0  0  0
 17 22  1  0  0  0  0
 17 65  1  0  0  0  0
 19 24  1  0  0  0  0
 19 66  1  1  0  0  0
 19 23  1  0  0  0  0
 19 15  1  0  0  0  0
 20 25  1  0  0  0  0
 20 26  2  0  0  0  0
 21 67  1  0  0  0  0
 21 68  1  0  0  0  0
 22 27  1  0  0  0  0
 22 69  1  0  0  0  0
 22 70  1  0  0  0  0
 23 28  1  0  0  0  0
 23 71  1  0  0  0  0
 24 29  1  0  0  0  0
 24 30  2  0  0  0  0
 25 72  1  0  0  0  0
 27 31  1  0  0  0  0
 27 73  1  0  0  0  0
 27 74  1  0  0  0  0
 28 32  1  0  0  0  0
 28 33  2  0  0  0  0
 29 34  1  0  0  0  0
 29 75  1  0  0  0  0
 31 35  1  0  0  0  0
 31 76  1  0  0  0  0
 31 77  1  0  0  0  0
 32 36  1  0  0  0  0
 32 78  1  0  0  0  0
 32 79  1  0  0  0  0
 34 37  1  0  0  0  0
 34 80  1  0  0  0  0
 34 81  1  0  0  0  0
 35 38  1  0  0  0  0
 35 82  1  0  0  0  0
 35 83  1  0  0  0  0
 36 39  1  0  0  0  0
 36 84  1  0  0  0  0
 36 85  1  0  0  0  0
 37 40  1  0  0  0  0
 37 41  2  0  0  0  0
 38 42  1  0  0  0  0
 38 86  1  0  0  0  0
 39 43  1  0  0  0  0
 39 44  1  0  0  0  0
 39 87  1  1  0  0  0
 40 45  1  0  0  0  0
 40 88  1  0  0  0  0
 42 46  1  0  0  0  0
 42 89  1  0  0  0  0
 42 90  1  0  0  0  0
 43 47  1  0  0  0  0
 43 48  2  0  0  0  0
 44 91  1  0  0  0  0
 44 92  1  0  0  0  0
 45 46  1  0  0  0  0
 45 93  1  0  0  0  0
 45 94  1  0  0  0  0
 46 95  1  0  0  0  0
 46 96  1  0  0  0  0
 47 97  1  0  0  0  0
M  END
>  <DRUGBANK_ID>
DB03470

>  <SECONDARY_ACCESSION_NUMBERS>
EXPT01557

>  <COMMON_NAME>
Trypanothione

$$$$
