186
 OpenBabel10282417123D

 54 55  0  0  0  0  0  0  0  0999 V2000
    2.7397    1.9297   -5.3459 O   0  0  0  0  0  0  0  0  0  0  0  0
    3.0306    2.5716   -4.3289 C   0  0  0  0  0  0  0  0  0  0  0  0
    3.8184    3.6507   -4.5088 O   0  0  0  0  0  0  0  0  0  0  0  0
    4.1401    4.5797   -3.4750 C   0  0  0  0  0  0  0  0  0  0  0  0
    2.8622    5.2292   -3.1603 C   0  0  0  0  0  0  0  0  0  0  0  0
    2.4146    5.2482   -1.8450 C   0  0  0  0  0  0  0  0  0  0  0  0
    1.1455    5.7199   -1.6042 C   0  0  0  0  0  0  0  0  0  0  0  0
    0.3724    6.2004   -2.6681 C   0  0  0  0  0  0  0  0  0  0  0  0
    0.8443    6.1980   -3.9806 C   0  0  0  0  0  0  0  0  0  0  0  0
    2.0819    5.6689   -4.2356 C   0  0  0  0  0  0  0  0  0  0  0  0
    2.7817    2.1917   -3.0155 N   0  0  0  0  0  0  0  0  0  0  0  0
    2.3527    0.8397   -2.6427 C   0  0  2  0  0  0  0  0  0  0  0  0
    3.0025    0.3018   -1.3144 C   0  0  0  0  0  0  0  0  0  0  0  0
    3.1782   -1.2114   -1.1648 C   0  0  0  0  0  0  0  0  0  0  0  0
    3.5679   -1.7652    0.0490 C   0  0  0  0  0  0  0  0  0  0  0  0
    3.6862   -3.1635    0.1747 C   0  0  0  0  0  0  0  0  0  0  0  0
    3.4093   -4.0315   -0.8873 C   0  0  0  0  0  0  0  0  0  0  0  0
    3.0400   -3.5108   -2.0894 C   0  0  0  0  0  0  0  0  0  0  0  0
    3.0087   -2.1419   -2.2048 C   0  0  0  0  0  0  0  0  0  0  0  0
    2.7357   -0.0064   -3.8508 C   0  0  0  0  0  0  0  0  0  0  0  0
    1.8644   -0.5975   -4.4990 O   0  0  0  0  0  0  0  0  0  0  0  0
    4.0943   -0.1741   -4.1261 N   0  0  0  0  0  0  0  0  0  0  0  0
    5.2407    0.4865   -3.5045 C   0  0  1  0  0  0  0  0  0  0  0  0
    6.2260   -0.4515   -2.8441 C   0  0  0  0  0  0  0  0  0  0  0  0
    5.9542    1.2751   -4.5509 C   0  0  0  0  0  0  0  0  0  0  0  0
    6.2639    2.5660   -4.3728 C   0  0  0  0  0  0  0  0  0  0  0  0
    6.6735    3.5275   -5.4216 C   0  0  0  0  0  0  0  0  0  0  0  0
    6.5959    4.7402   -5.2473 O   0  0  0  0  0  0  0  0  0  0  0  0
    7.2148    3.0545   -6.7369 C   0  0  0  0  0  0  0  0  0  0  0  0
    7.3374    1.8753   -7.0201 O   0  0  0  0  0  0  0  0  0  0  0  0
    1.2635    0.8427   -2.5021 H   0  0  0  0  0  0  0  0  0  0  0  0
    4.9029    1.1812   -2.7418 H   0  0  0  0  0  0  0  0  0  0  0  0
    4.5926    4.0982   -2.6022 H   0  0  0  0  0  0  0  0  0  0  0  0
    4.8323    5.3232   -3.8688 H   0  0  0  0  0  0  0  0  0  0  0  0
    3.0259    4.8364   -1.0437 H   0  0  0  0  0  0  0  0  0  0  0  0
    0.7630    5.7134   -0.5904 H   0  0  0  0  0  0  0  0  0  0  0  0
   -0.6235    6.5756   -2.4744 H   0  0  0  0  0  0  0  0  0  0  0  0
    0.2604    6.5851   -4.8074 H   0  0  0  0  0  0  0  0  0  0  0  0
    2.4284    5.5267   -5.2626 H   0  0  0  0  0  0  0  0  0  0  0  0
    2.7722    2.8855   -2.2903 H   0  0  0  0  0  0  0  0  0  0  0  0
    3.9646    0.7938   -1.1111 H   0  0  0  0  0  0  0  0  0  0  0  0
    2.3865    0.6588   -0.4738 H   0  0  0  0  0  0  0  0  0  0  0  0
    3.7971   -1.1303    0.9016 H   0  0  0  0  0  0  0  0  0  0  0  0
    3.9856   -3.5939    1.1221 H   0  0  0  0  0  0  0  0  0  0  0  0
    3.5010   -5.1057   -0.8105 H   0  0  0  0  0  0  0  0  0  0  0  0
    2.7987   -4.0964   -2.9736 H   0  0  0  0  0  0  0  0  0  0  0  0
    2.8954   -1.9354   -3.2441 H   0  0  0  0  0  0  0  0  0  0  0  0
    4.2533   -0.7765   -4.9228 H   0  0  0  0  0  0  0  0  0  0  0  0
    6.7013   -1.1016   -3.5812 H   0  0  0  0  0  0  0  0  0  0  0  0
    7.0047    0.1394   -2.3451 H   0  0  0  0  0  0  0  0  0  0  0  0
    5.7570   -1.0740   -2.0825 H   0  0  0  0  0  0  0  0  0  0  0  0
    6.1439    0.7602   -5.4818 H   0  0  0  0  0  0  0  0  0  0  0  0
    6.0453    3.0240   -3.4184 H   0  0  0  0  0  0  0  0  0  0  0  0
    7.5376    3.8723   -7.3935 H   0  0  0  0  0  0  0  0  0  0  0  0
  1  2  2  0  0  0  0
  2  3  1  0  0  0  0
  2 11  1  0  0  0  0
  3  4  1  0  0  0  0
  4  5  1  0  0  0  0
  4 33  1  0  0  0  0
  4 34  1  0  0  0  0
  5  6  2  0  0  0  0
  5 10  1  0  0  0  0
  6  7  1  0  0  0  0
  6 35  1  0  0  0  0
  7  8  2  0  0  0  0
  7 36  1  0  0  0  0
  8  9  1  0  0  0  0
  8 37  1  0  0  0  0
  9 10  2  0  0  0  0
  9 38  1  0  0  0  0
 10 39  1  0  0  0  0
 11 40  1  0  0  0  0
 12 20  1  0  0  0  0
 12 31  1  1  0  0  0
 12 13  1  0  0  0  0
 12 11  1  0  0  0  0
 13 14  1  0  0  0  0
 13 41  1  0  0  0  0
 13 42  1  0  0  0  0
 14 15  2  0  0  0  0
 14 19  1  0  0  0  0
 15 16  1  0  0  0  0
 15 43  1  0  0  0  0
 16 17  2  0  0  0  0
 16 44  1  0  0  0  0
 17 18  1  0  0  0  0
 17 45  1  0  0  0  0
 18 19  2  0  0  0  0
 18 46  1  0  0  0  0
 19 47  1  0  0  0  0
 20 21  2  0  0  0  0
 20 22  1  0  0  0  0
 22 23  1  0  0  0  0
 22 48  1  0  0  0  0
 23 24  1  0  0  0  0
 23 25  1  0  0  0  0
 23 32  1  1  0  0  0
 24 49  1  0  0  0  0
 24 50  1  0  0  0  0
 24 51  1  0  0  0  0
 25 26  2  0  0  0  0
 25 52  1  0  0  0  0
 26 27  1  0  0  0  0
 26 53  1  0  0  0  0
 27 28  2  0  0  0  0
 27 29  1  0  0  0  0
 29 30  2  0  0  0  0
 29 54  1  0  0  0  0
M  END
>  <DRUGBANK_ID>
DB01810

>  <SECONDARY_ACCESSION_NUMBERS>
EXPT00058

>  <COMMON_NAME>
[1-(1-Methyl-4,5-Dioxo-Pent-2-Enylcarbamoyl)-2-Phenyl-Ethyl]-Carbamic Acid Benzyl Ester

$$$$
