259
 OpenBabel10282417103D

 19 19  0  0  0  0  0  0  0  0999 V2000
    0.9176   -0.0352   -0.0786 S   0  0  0  0  0  0  0  0  0  0  0  0
    0.5040   -0.5621   -1.3532 O   0  0  0  0  0  0  0  0  0  0  0  0
    0.4646   -0.5963    1.1774 O   0  0  0  0  0  0  0  0  0  0  0  0
    0.4197    1.5779   -0.0846 N   0  0  0  0  0  0  0  0  0  0  0  0
    6.8814    0.0118   -0.1399 N   0  0  0  0  0  0  0  0  0  0  0  0
    2.6876    0.0211   -0.0500 C   0  0  0  0  0  0  0  0  0  0  0  0
    3.3867    1.2283   -0.0490 C   0  0  0  0  0  0  0  0  0  0  0  0
    3.3845   -1.1908   -0.0611 C   0  0  0  0  0  0  0  0  0  0  0  0
    5.4994    0.0121   -0.0411 C   0  0  0  0  0  0  0  0  0  0  0  0
    4.7871    1.2152   -0.0606 C   0  0  0  0  0  0  0  0  0  0  0  0
    4.7844   -1.1885   -0.0595 C   0  0  0  0  0  0  0  0  0  0  0  0
    0.6606    2.0289   -0.9666 H   0  0  0  0  0  0  0  0  0  0  0  0
   -0.5933    1.5963    0.0614 H   0  0  0  0  0  0  0  0  0  0  0  0
    7.3927   -0.8520   -0.0093 H   0  0  0  0  0  0  0  0  0  0  0  0
    7.3941    0.8745   -0.0084 H   0  0  0  0  0  0  0  0  0  0  0  0
    2.8730    2.1840   -0.0373 H   0  0  0  0  0  0  0  0  0  0  0  0
    2.8493   -2.1380   -0.0732 H   0  0  0  0  0  0  0  0  0  0  0  0
    5.3228    2.1611   -0.0758 H   0  0  0  0  0  0  0  0  0  0  0  0
    5.3147   -2.1377   -0.0675 H   0  0  0  0  0  0  0  0  0  0  0  0
  1  2  2  0  0  0  0
  1  3  2  0  0  0  0
  1  4  1  0  0  0  0
  1  6  1  0  0  0  0
  4 12  1  0  0  0  0
  4 13  1  0  0  0  0
  5  9  1  0  0  0  0
  5 14  1  0  0  0  0
  5 15  1  0  0  0  0
  6  7  2  0  0  0  0
  6  8  1  0  0  0  0
  7 10  1  0  0  0  0
  7 16  1  0  0  0  0
  8 11  2  0  0  0  0
  8 17  1  0  0  0  0
  9 10  2  0  0  0  0
  9 11  1  0  0  0  0
 10 18  1  0  0  0  0
 11 19  1  0  0  0  0
M  END
>  <DRUGBANK_ID>
DB00259

>  <SECONDARY_ACCESSION_NUMBERS>
APRD00438

>  <COMMON_NAME>
Sulfanilamide

>  <CAS_NUMBER>
63-74-1

>  <UNII>
21240MF57M

>  <SYNONYMS>
4-aminobenzene sulfonic acid amide; 4-azanylbenzenesulfonamide; p-aminobenzenesulfamide; p-aminobenzenesulfonamide; para-aminobenzenesulfonamide; Prontosil album; SA; Streptocide; Sulfamine; Sulfanilamida; Sulfanilamide; Sulfanilamidum; Sulphanilamide

$$$$
