
 OpenBabel10282417133D

 32 31  0  0  1  0  0  0  0  0999 V2000
    0.9201   -0.1419   -0.0621 C   0  0  1  0  0  0  0  0  0  0  0  0
    0.5221    0.4372   -1.3474 N   0  0  0  0  0  0  0  0  0  0  0  0
    0.3982    0.7551    1.0775 C   0  0  0  0  0  0  0  0  0  0  0  0
    0.4264   -1.5988   -0.0603 C   0  0  0  0  0  0  0  0  0  0  0  0
    1.4647    1.0018   -2.1648 C   0  0  0  0  0  0  0  0  0  0  0  0
   -0.3961    0.0346    2.1685 C   0  0  0  0  0  0  0  0  0  0  0  0
    1.3924   -2.5319    0.1310 O   0  0  0  0  0  0  0  0  0  0  0  0
   -0.7484   -1.9159   -0.2008 O   0  0  0  0  0  0  0  0  0  0  0  0
    0.9722    1.6052   -3.4658 C   0  0  0  0  0  0  0  0  0  0  0  0
    2.6543    0.9720   -1.8689 O   0  0  0  0  0  0  0  0  0  0  0  0
    0.4083   -1.0295    2.9211 C   0  0  0  0  0  0  0  0  0  0  0  0
    1.1630    3.1189   -3.5594 C   0  0  0  0  0  0  0  0  0  0  0  0
    1.5483   -0.4542    3.6174 N   0  0  0  0  0  0  0  0  0  0  0  0
    2.5892    3.5958   -3.3630 C   0  0  0  0  0  0  0  0  0  0  0  0
    3.1482    4.1847   -4.4411 O   0  0  0  0  0  0  0  0  0  0  0  0
    3.1926    3.5381   -2.2991 O   0  0  0  0  0  0  0  0  0  0  0  0
    2.0140   -0.1607    0.0123 H   0  0  0  0  0  0  0  0  0  0  0  0
   -0.4367    0.2906   -1.6479 H   0  0  0  0  0  0  0  0  0  0  0  0
    1.2483    1.2868    1.5283 H   0  0  0  0  0  0  0  0  0  0  0  0
   -0.2225    1.5667    0.6716 H   0  0  0  0  0  0  0  0  0  0  0  0
   -0.7799    0.7731    2.8831 H   0  0  0  0  0  0  0  0  0  0  0  0
   -1.2881   -0.4141    1.7144 H   0  0  0  0  0  0  0  0  0  0  0  0
    2.2978   -2.1877    0.2636 H   0  0  0  0  0  0  0  0  0  0  0  0
    1.5236    1.1042   -4.2695 H   0  0  0  0  0  0  0  0  0  0  0  0
   -0.0880    1.3623   -3.6153 H   0  0  0  0  0  0  0  0  0  0  0  0
   -0.2456   -1.5658    3.6140 H   0  0  0  0  0  0  0  0  0  0  0  0
    0.8069   -1.7925    2.2602 H   0  0  0  0  0  0  0  0  0  0  0  0
    0.7969    3.4619   -4.5357 H   0  0  0  0  0  0  0  0  0  0  0  0
    0.5475    3.6314   -2.8109 H   0  0  0  0  0  0  0  0  0  0  0  0
    2.1205   -1.2086    3.9954 H   0  0  0  0  0  0  0  0  0  0  0  0
    2.1520    0.0553    2.9745 H   0  0  0  0  0  0  0  0  0  0  0  0
    2.5758    4.3092   -5.2184 H   0  0  0  0  0  0  0  0  0  0  0  0
  1  4  1  0  0  0  0
  1 17  1  1  0  0  0
  1  3  1  0  0  0  0
  1  2  1  0  0  0  0
  2  5  1  0  0  0  0
  2 18  1  0  0  0  0
  3  6  1  0  0  0  0
  3 19  1  0  0  0  0
  3 20  1  0  0  0  0
  4  7  1  0  0  0  0
  4  8  2  0  0  0  0
  5  9  1  0  0  0  0
  5 10  2  0  0  0  0
  6 11  1  0  0  0  0
  6 21  1  0  0  0  0
  6 22  1  0  0  0  0
  7 23  1  0  0  0  0
  9 12  1  0  0  0  0
  9 24  1  0  0  0  0
  9 25  1  0  0  0  0
 11 13  1  0  0  0  0
 11 26  1  0  0  0  0
 11 27  1  0  0  0  0
 12 14  1  0  0  0  0
 12 28  1  0  0  0  0
 12 29  1  0  0  0  0
 13 30  1  0  0  0  0
 13 31  1  0  0  0  0
 14 15  1  0  0  0  0
 14 16  2  0  0  0  0
 15 32  1  0  0  0  0
M  END
>  <DRUGBANK_ID>
DB03582

>  <SECONDARY_ACCESSION_NUMBERS>
EXPT02981

>  <COMMON_NAME>
N~2~-Succinylornithine

$$$$
