
 OpenBabel10282417193D

 47 50  0  0  0  0  0  0  0  0999 V2000
   -1.1876    1.4569   -1.0390 C   0  0  0  0  0  0  0  0  0  0  0  0
   -1.1598    0.1966   -1.5748 C   0  0  0  0  0  0  0  0  0  0  0  0
    0.0064    2.2947   -0.8106 C   0  0  0  0  0  0  0  0  0  0  0  0
    0.1359   -0.3202   -1.7516 C   0  0  0  0  0  0  0  0  0  0  0  0
    1.3452    1.7488   -0.9011 C   0  0  0  0  0  0  0  0  0  0  0  0
    1.4564    0.4355   -1.3851 C   0  0  0  0  0  0  0  0  0  0  0  0
   -2.4522    1.7496   -0.3827 C   0  0  0  0  0  0  0  0  0  0  0  0
   -3.0938    0.9498    0.6112 N   0  0  0  0  0  0  0  0  0  0  0  0
   -3.0636    2.7786   -0.8215 N   0  0  0  0  0  0  0  0  0  0  0  0
   -4.1975    1.8044    0.8541 C   0  0  0  0  0  0  0  0  0  0  0  0
   -4.2089    2.8245   -0.1254 N   0  0  0  0  0  0  0  0  0  0  0  0
   -2.5958   -0.3397    1.4899 C   0  0  0  0  0  0  0  0  0  0  0  0
   -2.0307   -1.6716    1.1048 C   0  0  0  0  0  0  0  0  0  0  0  0
   -2.1298   -0.0755    2.7758 C   0  0  0  0  0  0  0  0  0  0  0  0
   -1.1091   -2.4465    1.9293 C   0  0  0  0  0  0  0  0  0  0  0  0
   -0.6957   -0.1848    2.6269 C   0  0  0  0  0  0  0  0  0  0  0  0
   -0.1422   -1.4829    2.0606 C   0  0  0  0  0  0  0  0  0  0  0  0
    0.0564    0.8739    2.1052 C   0  0  0  0  0  0  0  0  0  0  0  0
    0.6480    0.1410    1.1222 C   0  0  0  0  0  0  0  0  0  0  0  0
    0.8908   -1.2320    1.1316 N   0  0  0  0  0  0  0  0  0  0  0  0
    2.6389    2.3506   -0.2760 C   0  0  0  0  0  0  0  0  0  0  0  0
    2.9131    3.2000   -1.4770 C   0  0  0  0  0  0  0  0  0  0  0  0
    2.6576    2.9729    1.1340 C   0  0  0  0  0  0  0  0  0  0  0  0
    2.4608   -0.1820   -0.5460 O   0  0  0  0  0  0  0  0  0  0  0  0
   -2.2487   -0.6708   -1.5452 O   0  0  0  0  0  0  0  0  0  0  0  0
   -5.1238    1.7901    1.7543 O   0  0  0  0  0  0  0  0  0  0  0  0
    1.4912   -2.1694    0.0158 C   0  0  0  0  0  0  0  0  0  0  0  0
   -0.1205    3.2374   -0.2738 H   0  0  0  0  0  0  0  0  0  0  0  0
   -0.0513   -1.3990   -1.6232 H   0  0  0  0  0  0  0  0  0  0  0  0
   -4.8755    3.5581   -0.3319 H   0  0  0  0  0  0  0  0  0  0  0  0
   -1.8269   -2.0287    0.0871 H   0  0  0  0  0  0  0  0  0  0  0  0
   -2.3753   -0.7887    3.5750 H   0  0  0  0  0  0  0  0  0  0  0  0
   -1.4337   -2.8126    2.9089 H   0  0  0  0  0  0  0  0  0  0  0  0
   -0.4247    1.8554    1.8854 H   0  0  0  0  0  0  0  0  0  0  0  0
    0.1794    0.3578    0.2327 H   0  0  0  0  0  0  0  0  0  0  0  0
    3.5112    1.6727   -0.2124 H   0  0  0  0  0  0  0  0  0  0  0  0
    2.1017    3.9253   -1.5564 H   0  0  0  0  0  0  0  0  0  0  0  0
    3.8852    3.6683   -1.4792 H   0  0  0  0  0  0  0  0  0  0  0  0
    2.8727    2.5398   -2.3656 H   0  0  0  0  0  0  0  0  0  0  0  0
    2.6134    2.2163    1.9394 H   0  0  0  0  0  0  0  0  0  0  0  0
    3.6036    3.5050    1.3221 H   0  0  0  0  0  0  0  0  0  0  0  0
    1.8301    3.6594    1.2899 H   0  0  0  0  0  0  0  0  0  0  0  0
    3.4328   -0.1724   -0.4707 H   0  0  0  0  0  0  0  0  0  0  0  0
   -2.9327   -0.4323   -0.8720 H   0  0  0  0  0  0  0  0  0  0  0  0
    1.3730   -1.9801   -1.0777 H   0  0  0  0  0  0  0  0  0  0  0  0
    2.5983   -2.1196   -0.0290 H   0  0  0  0  0  0  0  0  0  0  0  0
    1.1766   -3.1977    0.1048 H   0  0  0  0  0  0  0  0  0  0  0  0
  1  7  1  0  0  0  0
  2  1  1  0  0  0  0
  2 25  1  0  0  0  0
  3  1  2  0  0  0  0
  3 28  1  0  0  0  0
  4  2  2  0  0  0  0
  4 29  1  0  0  0  0
  5  3  1  0  0  0  0
  5 21  1  0  0  0  0
  6  4  1  0  0  0  0
  6  5  2  0  0  0  0
  6 24  1  0  0  0  0
  8  7  1  0  0  0  0
  8 12  1  0  0  0  0
  9  7  2  0  0  0  0
 10  8  1  0  0  0  0
 10 26  2  0  0  0  0
 11  9  1  0  0  0  0
 11 10  1  0  0  0  0
 11 30  1  0  0  0  0
 13 12  1  0  0  0  0
 13 31  1  0  0  0  0
 14 12  2  0  0  0  0
 14 32  1  0  0  0  0
 15 13  2  0  0  0  0
 15 33  1  0  0  0  0
 16 14  1  0  0  0  0
 17 15  1  0  0  0  0
 17 16  2  0  0  0  0
 18 16  1  0  0  0  0
 18 34  1  0  0  0  0
 19 18  2  0  0  0  0
 19 35  1  0  0  0  0
 20 17  1  0  0  0  0
 20 19  1  0  0  0  0
 20 27  1  0  0  0  0
 21 22  1  0  0  0  0
 21 23  1  0  0  0  0
 21 36  1  0  0  0  0
 22 37  1  0  0  0  0
 22 38  1  0  0  0  0
 22 39  1  0  0  0  0
 23 40  1  0  0  0  0
 23 41  1  0  0  0  0
 23 42  1  0  0  0  0
 24 43  1  0  0  0  0
 25 44  1  0  0  0  0
 27 45  1  0  0  0  0
 27 46  1  0  0  0  0
 27 47  1  0  0  0  0
M  END
>  <DRUGBANK_ID>
DB12047

>  <COMMON_NAME>
Ganetespib

>  <CAS_NUMBER>
888216-25-9

>  <UNII>
2E8412Y946

>  <SYNONYMS>
Ganetespib

$$$$
