
 OpenBabel10282417233D

 59 60  0  0  1  0  0  0  0  0999 V2000
   -2.4207   -0.8271   -2.5784 C   0  0  0  0  0  0  0  0  0  0  0  0
   -1.3699   -0.3074   -1.5802 C   0  0  1  0  0  0  0  0  0  0  0  0
   -1.9441    0.8102   -0.8921 O   0  0  0  0  0  0  0  0  0  0  0  0
   -0.8616   -1.3336   -0.5195 C   0  0  2  0  0  0  0  0  0  0  0  0
    0.5800   -1.3135   -0.2081 N   0  0  0  0  0  0  0  0  0  0  0  0
   -1.4634   -2.6804   -0.8784 C   0  0  0  0  0  0  0  0  0  0  0  0
   -2.6124   -2.8567   -0.4567 O   0  0  0  0  0  0  0  0  0  0  0  0
   -0.9364   -3.5111   -1.8481 N   0  0  0  0  0  0  0  0  0  0  0  0
    0.3379   -3.3939   -2.5304 C   0  0  0  0  0  0  0  0  0  0  0  0
   -0.0041   -3.5169   -3.9962 C   0  0  0  0  0  0  0  0  0  0  0  0
   -1.1481   -4.5197   -4.0095 C   0  0  0  0  0  0  0  0  0  0  0  0
   -1.8566   -4.3821   -2.6298 C   0  0  1  0  0  0  0  0  0  0  0  0
   -2.0707   -5.7864   -2.0108 C   0  0  0  0  0  0  0  0  0  0  0  0
   -1.9915   -6.8064   -2.6994 O   0  0  0  0  0  0  0  0  0  0  0  0
   -2.2582   -5.8863   -0.6608 N   0  0  0  0  0  0  0  0  0  0  0  0
   -3.3090   -5.3144    0.1560 C   0  0  0  0  0  0  0  0  0  0  0  0
   -2.5683   -4.9935    1.4492 C   0  0  0  0  0  0  0  0  0  0  0  0
   -1.6239   -6.1847    1.5994 C   0  0  0  0  0  0  0  0  0  0  0  0
   -1.3456   -6.6560    0.1628 C   0  0  1  0  0  0  0  0  0  0  0  0
   -1.6527   -8.1522    0.0210 C   0  0  0  0  0  0  0  0  0  0  0  0
   -2.7066   -8.6451    0.4297 O   0  0  0  0  0  0  0  0  0  0  0  0
   -0.7658   -8.9746   -0.6008 N   0  0  0  0  0  0  0  0  0  0  0  0
    0.5149   -8.6804   -1.2371 C   0  0  1  0  0  0  0  0  0  0  0  0
    1.6518   -9.4775   -0.5595 C   0  0  1  0  0  0  0  0  0  0  0  0
    1.5245  -10.9962   -0.6612 C   0  0  0  0  0  0  0  0  0  0  0  0
    2.9201   -9.0440   -1.0573 O   0  0  0  0  0  0  0  0  0  0  0  0
    0.4585   -8.9910   -2.7412 C   0  0  0  0  0  0  0  0  0  0  0  0
    0.8127   -7.9549   -3.5396 O   0  0  0  0  0  0  0  0  0  0  0  0
    0.1765  -10.0867   -3.2066 O   0  0  0  0  0  0  0  0  0  0  0  0
   -3.3308   -1.1788   -2.0770 H   0  0  0  0  0  0  0  0  0  0  0  0
   -2.0279   -1.6363   -3.1947 H   0  0  0  0  0  0  0  0  0  0  0  0
   -2.7376   -0.0426   -3.2673 H   0  0  0  0  0  0  0  0  0  0  0  0
   -0.5202    0.0750   -2.1511 H   0  0  0  0  0  0  0  0  0  0  0  0
   -2.3640    1.3854   -1.5533 H   0  0  0  0  0  0  0  0  0  0  0  0
   -1.3109   -1.0753    0.4517 H   0  0  0  0  0  0  0  0  0  0  0  0
    1.0156   -0.4916   -0.6194 H   0  0  0  0  0  0  0  0  0  0  0  0
    1.0694   -2.1479   -0.4999 H   0  0  0  0  0  0  0  0  0  0  0  0
    0.9533   -4.2383   -2.1980 H   0  0  0  0  0  0  0  0  0  0  0  0
    0.8678   -2.4629   -2.3574 H   0  0  0  0  0  0  0  0  0  0  0  0
   -0.3396   -2.5501   -4.3872 H   0  0  0  0  0  0  0  0  0  0  0  0
    0.8564   -3.8344   -4.5929 H   0  0  0  0  0  0  0  0  0  0  0  0
   -1.8273   -4.3255   -4.8464 H   0  0  0  0  0  0  0  0  0  0  0  0
   -0.7219   -5.5156   -4.1695 H   0  0  0  0  0  0  0  0  0  0  0  0
   -2.8306   -3.8938   -2.7546 H   0  0  0  0  0  0  0  0  0  0  0  0
   -4.0430   -6.1059    0.3438 H   0  0  0  0  0  0  0  0  0  0  0  0
   -3.8691   -4.5220   -0.3381 H   0  0  0  0  0  0  0  0  0  0  0  0
   -1.9451   -4.0958    1.3769 H   0  0  0  0  0  0  0  0  0  0  0  0
   -3.2335   -4.8580    2.3043 H   0  0  0  0  0  0  0  0  0  0  0  0
   -0.6934   -5.8950    2.1001 H   0  0  0  0  0  0  0  0  0  0  0  0
   -2.0966   -6.9573    2.2122 H   0  0  0  0  0  0  0  0  0  0  0  0
   -0.3317   -6.3864   -0.1309 H   0  0  0  0  0  0  0  0  0  0  0  0
   -1.1432   -9.9080   -0.7325 H   0  0  0  0  0  0  0  0  0  0  0  0
    0.7592   -7.6224   -1.1314 H   0  0  0  0  0  0  0  0  0  0  0  0
    1.6474   -9.2240    0.5089 H   0  0  0  0  0  0  0  0  0  0  0  0
    1.6164  -11.3453   -1.6931 H   0  0  0  0  0  0  0  0  0  0  0  0
    2.3305  -11.4860   -0.1060 H   0  0  0  0  0  0  0  0  0  0  0  0
    0.5702  -11.3469   -0.2553 H   0  0  0  0  0  0  0  0  0  0  0  0
    3.0555   -9.4426   -1.9376 H   0  0  0  0  0  0  0  0  0  0  0  0
    0.8476   -7.0944   -3.0843 H   0  0  0  0  0  0  0  0  0  0  0  0
  1 30  1  0  0  0  0
  1 31  1  0  0  0  0
  1 32  1  0  0  0  0
  2  1  1  0  0  0  0
  2  3  1  0  0  0  0
  2 33  1  6  0  0  0
  3 34  1  0  0  0  0
  4  6  1  0  0  0  0
  4 35  1  1  0  0  0
  4  5  1  0  0  0  0
  4  2  1  0  0  0  0
  5 36  1  0  0  0  0
  5 37  1  0  0  0  0
  6  7  2  0  0  0  0
  6  8  1  0  0  0  0
  8  9  1  0  0  0  0
  9 10  1  0  0  0  0
  9 38  1  0  0  0  0
  9 39  1  0  0  0  0
 10 11  1  0  0  0  0
 10 40  1  0  0  0  0
 10 41  1  0  0  0  0
 11 42  1  0  0  0  0
 11 43  1  0  0  0  0
 12 11  1  0  0  0  0
 12  8  1  0  0  0  0
 12 44  1  6  0  0  0
 12 13  1  0  0  0  0
 13 14  2  0  0  0  0
 13 15  1  0  0  0  0
 15 16  1  0  0  0  0
 16 17  1  0  0  0  0
 16 45  1  0  0  0  0
 16 46  1  0  0  0  0
 17 18  1  0  0  0  0
 17 47  1  0  0  0  0
 17 48  1  0  0  0  0
 18 49  1  0  0  0  0
 18 50  1  0  0  0  0
 19 18  1  0  0  0  0
 19 15  1  0  0  0  0
 19 51  1  6  0  0  0
 19 20  1  0  0  0  0
 20 21  2  0  0  0  0
 20 22  1  0  0  0  0
 22 52  1  0  0  0  0
 23 22  1  0  0  0  0
 23 24  1  0  0  0  0
 23 27  1  0  0  0  0
 23 53  1  1  0  0  0
 24 25  1  0  0  0  0
 24 26  1  0  0  0  0
 24 54  1  1  0  0  0
 25 55  1  0  0  0  0
 25 56  1  0  0  0  0
 25 57  1  0  0  0  0
 26 58  1  0  0  0  0
 27 28  1  0  0  0  0
 27 29  2  0  0  0  0
 28 59  1  0  0  0  0
M  END
>  <DRUGBANK_ID>
DB16953

>  <COMMON_NAME>
NT 13

>  <CAS_NUMBER>
117928-93-5

>  <UNII>
A98MYD1EUX

>  <SYNONYMS>
L-threonyl-l-prolyl-l-prolyl-l-threonine

$$$$
