
 OpenBabel10282417183D

 20 20  0  0  0  0  0  0  0  0999 V2000
    0.2199    1.1559    0.1943 C   0  0  0  0  0  0  0  0  0  0  0  0
    0.3155   -1.2459    0.0005 C   0  0  0  0  0  0  0  0  0  0  0  0
    1.6040    1.1932    0.3474 C   0  0  0  0  0  0  0  0  0  0  0  0
    1.7131   -1.1914    0.0479 C   0  0  0  0  0  0  0  0  0  0  0  0
    4.3339    2.0247   -1.3047 C   0  0  0  0  0  0  0  0  0  0  0  0
    4.4328    1.2542    0.0264 C   0  0  0  0  0  0  0  0  0  0  0  0
   -0.4229   -0.0623    0.0402 C   0  0  0  0  0  0  0  0  0  0  0  0
    2.3660    0.0337    0.1812 C   0  0  0  0  0  0  0  0  0  0  0  0
   -2.1360   -0.1037   -0.0863 Cl  0  0  0  0  0  0  0  0  0  0  0  0
    3.0253    2.4462   -1.6717 O   0  0  0  0  0  0  0  0  0  0  0  0
    3.7270    0.0048    0.0456 O   0  0  0  0  0  0  0  0  0  0  0  0
   -0.3336    2.0923    0.1765 H   0  0  0  0  0  0  0  0  0  0  0  0
   -0.1878   -2.2022   -0.0938 H   0  0  0  0  0  0  0  0  0  0  0  0
    2.0615    2.1641    0.5005 H   0  0  0  0  0  0  0  0  0  0  0  0
    2.2897   -2.1113   -0.0396 H   0  0  0  0  0  0  0  0  0  0  0  0
    4.9350    2.9352   -1.2299 H   0  0  0  0  0  0  0  0  0  0  0  0
    4.7144    1.4177   -2.1290 H   0  0  0  0  0  0  0  0  0  0  0  0
    4.1643    1.8630    0.8973 H   0  0  0  0  0  0  0  0  0  0  0  0
    5.4913    0.9978    0.1603 H   0  0  0  0  0  0  0  0  0  0  0  0
    2.5130    1.6385   -1.8651 H   0  0  0  0  0  0  0  0  0  0  0  0
  1 12  1  0  0  0  0
  2 13  1  0  0  0  0
  3  1  1  0  0  0  0
  3 14  1  0  0  0  0
  4  2  2  0  0  0  0
  4 15  1  0  0  0  0
  5 16  1  0  0  0  0
  5 17  1  0  0  0  0
  6  5  1  0  0  0  0
  6 18  1  0  0  0  0
  6 19  1  0  0  0  0
  7  1  2  0  0  0  0
  7  2  1  0  0  0  0
  8  3  2  0  0  0  0
  8  4  1  0  0  0  0
  9  7  1  0  0  0  0
 10  5  1  0  0  0  0
 10 20  1  0  0  0  0
 11  6  1  0  0  0  0
 11  8  1  0  0  0  0
M  END
>  <DRUGBANK_ID>
DB11368

>  <COMMON_NAME>
Chlorophetanol

>  <CAS_NUMBER>
1892-43-9

>  <UNII>
Q73I5T98DA

>  <SYNONYMS>
2-(4-Chlorophenoxy)ethanol; 2-(4-chlorphenoxy)-ethanol; 2-(p-Chlorophenoxy)ethanol; p-Chlorophenyl glycol ether; p-Chlorophenyl monoglycol ether

$$$$
