
 OpenBabel10282417183D

 56 55  0  0  1  0  0  0  0  0999 V2000
   -0.2190   -2.5741   -0.3234 C   0  0  0  0  0  0  0  0  0  0  0  0
   -0.2193   -0.0304   -0.8807 C   0  0  0  0  0  0  0  0  0  0  0  0
   -5.2813   -0.0029   -0.4203 C   0  0  0  0  0  0  0  0  0  0  0  0
   -0.9087   -0.1683    4.5954 C   0  0  0  0  0  0  0  0  0  0  0  0
   -9.3891    3.1452    1.9514 C   0  0  0  0  0  0  0  0  0  0  0  0
   -7.3100    4.4965    2.4618 C   0  0  0  0  0  0  0  0  0  0  0  0
   -7.7732    3.8200   -0.4002 C   0  0  0  0  0  0  0  0  0  0  0  0
   -3.6891   -0.7745    2.0823 C   0  0  0  0  0  0  0  0  0  0  0  0
   -7.8239    0.6206    2.4482 C   0  0  0  0  0  0  0  0  0  0  0  0
   -5.1833   -0.7722    2.0267 C   0  0  0  0  0  0  0  0  0  0  0  0
   -2.9528   -0.4917    3.1726 C   0  0  0  0  0  0  0  0  0  0  0  0
   -7.2904    0.1981    1.0742 C   0  0  0  0  0  0  0  0  0  0  0  0
   -7.3600    2.0258    2.8786 C   0  0  0  0  0  0  0  0  0  0  0  0
   -0.7206   -0.6976    2.1650 C   0  0  0  0  0  0  0  0  0  0  0  0
    0.5572   -1.2609   -0.4139 C   0  0  0  0  0  0  0  0  0  0  0  0
   -5.7504    0.2425    1.0136 C   0  0  2  0  0  0  0  0  0  0  0  0
   -1.4844   -0.4699    3.2462 C   0  0  0  0  0  0  0  0  0  0  0  0
    0.7523   -0.7238    2.0344 C   0  0  0  0  0  0  0  0  0  0  0  0
   -7.8543    3.1662    1.9439 C   0  0  0  0  0  0  0  0  0  0  0  0
    1.5161   -0.5191    2.9730 O   0  0  0  0  0  0  0  0  0  0  0  0
   -7.3133    2.9598    0.6307 O   0  0  0  0  0  0  0  0  0  0  0  0
    1.2701   -0.9916    0.8138 O   0  0  0  0  0  0  0  0  0  0  0  0
   -3.2356   -1.0345    1.1351 H   0  0  0  0  0  0  0  0  0  0  0  0
   -3.4765   -0.2537    4.0995 H   0  0  0  0  0  0  0  0  0  0  0  0
   -1.2638   -0.8890    1.2657 H   0  0  0  0  0  0  0  0  0  0  0  0
   -5.3826    1.2425    1.2745 H   0  0  0  0  0  0  0  0  0  0  0  0
   -0.9672   -2.6053    0.4690 H   0  0  0  0  0  0  0  0  0  0  0  0
    0.4664   -3.3935   -0.0790 H   0  0  0  0  0  0  0  0  0  0  0  0
   -0.7337   -2.7936   -1.2601 H   0  0  0  0  0  0  0  0  0  0  0  0
   -0.9679    0.3294   -0.1744 H   0  0  0  0  0  0  0  0  0  0  0  0
    0.4660    0.8161   -1.0008 H   0  0  0  0  0  0  0  0  0  0  0  0
   -0.7339   -0.2227   -1.8234 H   0  0  0  0  0  0  0  0  0  0  0  0
   -5.6095   -0.9829   -0.7750 H   0  0  0  0  0  0  0  0  0  0  0  0
   -5.6792    0.7652   -1.0929 H   0  0  0  0  0  0  0  0  0  0  0  0
   -4.1914    0.0510   -0.4986 H   0  0  0  0  0  0  0  0  0  0  0  0
   -1.2210    0.8248    4.9276 H   0  0  0  0  0  0  0  0  0  0  0  0
   -1.2185   -0.9279    5.3168 H   0  0  0  0  0  0  0  0  0  0  0  0
    0.1784   -0.1619    4.6144 H   0  0  0  0  0  0  0  0  0  0  0  0
   -9.7736    3.2576    2.9696 H   0  0  0  0  0  0  0  0  0  0  0  0
   -9.8181    3.9421    1.3426 H   0  0  0  0  0  0  0  0  0  0  0  0
   -9.7790    2.2105    1.5329 H   0  0  0  0  0  0  0  0  0  0  0  0
   -6.2140    4.5028    2.4108 H   0  0  0  0  0  0  0  0  0  0  0  0
   -7.6545    5.3289    1.8417 H   0  0  0  0  0  0  0  0  0  0  0  0
   -7.6233    4.6905    3.4894 H   0  0  0  0  0  0  0  0  0  0  0  0
   -8.8592    3.7789   -0.5013 H   0  0  0  0  0  0  0  0  0  0  0  0
   -7.4401    4.8446   -0.2272 H   0  0  0  0  0  0  0  0  0  0  0  0
   -7.3479    3.4825   -1.3489 H   0  0  0  0  0  0  0  0  0  0  0  0
   -8.9156    0.5536    2.4512 H   0  0  0  0  0  0  0  0  0  0  0  0
   -7.5211   -0.1055    3.2100 H   0  0  0  0  0  0  0  0  0  0  0  0
   -5.5384   -1.7748    1.7594 H   0  0  0  0  0  0  0  0  0  0  0  0
   -5.5601   -0.5651    3.0328 H   0  0  0  0  0  0  0  0  0  0  0  0
   -7.7284    0.8199    0.2870 H   0  0  0  0  0  0  0  0  0  0  0  0
   -7.6494   -0.8096    0.8367 H   0  0  0  0  0  0  0  0  0  0  0  0
   -7.7147    2.2044    3.9022 H   0  0  0  0  0  0  0  0  0  0  0  0
   -6.2652    2.0455    2.9535 H   0  0  0  0  0  0  0  0  0  0  0  0
    1.3465   -1.4242   -1.1590 H   0  0  0  0  0  0  0  0  0  0  0  0
  1 27  1  0  0  0  0
  1 28  1  0  0  0  0
  1 29  1  0  0  0  0
  2 30  1  0  0  0  0
  2 31  1  0  0  0  0
  2 32  1  0  0  0  0
  3 33  1  0  0  0  0
  3 34  1  0  0  0  0
  3 35  1  0  0  0  0
  4 36  1  0  0  0  0
  4 37  1  0  0  0  0
  4 38  1  0  0  0  0
  5 39  1  0  0  0  0
  5 40  1  0  0  0  0
  5 41  1  0  0  0  0
  6 42  1  0  0  0  0
  6 43  1  0  0  0  0
  6 44  1  0  0  0  0
  7 45  1  0  0  0  0
  7 46  1  0  0  0  0
  7 47  1  0  0  0  0
  9 48  1  0  0  0  0
  9 49  1  0  0  0  0
 10  8  1  0  0  0  0
 10 50  1  0  0  0  0
 10 51  1  0  0  0  0
 11  8  2  0  0  0  0
 12  9  1  0  0  0  0
 12 52  1  0  0  0  0
 12 53  1  0  0  0  0
 13  9  1  0  0  0  0
 13 54  1  0  0  0  0
 13 55  1  0  0  0  0
 15  1  1  0  0  0  0
 15  2  1  0  0  0  0
 15 56  1  0  0  0  0
 16  3  1  0  0  0  0
 16 10  1  0  0  0  0
 16 12  1  0  0  0  0
 16 26  1  1  0  0  0
 17  4  1  0  0  0  0
 17 11  1  0  0  0  0
 17 14  2  0  0  0  0
 18 14  1  0  0  0  0
 19  5  1  0  0  0  0
 19  6  1  0  0  0  0
 19 13  1  0  0  0  0
 20 18  2  0  0  0  0
 21  7  1  0  0  0  0
 21 19  1  0  0  0  0
 22 15  1  0  0  0  0
 22 18  1  0  0  0  0
 23  8  1  0  0  0  0
 24 11  1  0  0  0  0
 25 14  1  0  0  0  0
M  END
>  <DRUGBANK_ID>
DB11495

>  <COMMON_NAME>
(S)-methoprene

>  <CAS_NUMBER>
65733-16-6

>  <UNII>
4YIQ0A94UR

>  <SYNONYMS>
(7S)-Methoprene; isopropyl (2E,4E,7S)-11-methoxy-3,7,11-trimethyldodeca-2,4-dienoate; S-Methoprene

$$$$
