
 OpenBabel10282417133D

 30 30  0  0  0  0  0  0  0  0999 V2000
    0.5437   -6.2108   -0.3299 C   0  0  0  0  0  0  0  0  0  0  0  0
    1.2903   -4.9587    0.1109 C   0  0  1  0  0  0  0  0  0  0  0  0
    2.6140   -4.9824   -0.4136 O   0  0  0  0  0  0  0  0  0  0  0  0
    0.5479   -3.7194   -0.3911 C   0  0  1  0  0  0  0  0  0  0  0  0
    0.4814   -3.7351   -1.8283 O   0  0  0  0  0  0  0  0  0  0  0  0
   -1.5539   -4.9346   -0.2472 O   0  0  0  0  0  0  0  0  0  0  0  0
   -1.6089   -2.4543   -0.2900 C   0  0  2  0  0  0  0  0  0  0  0  0
   -0.9386   -1.2848    0.2269 O   0  0  0  0  0  0  0  0  0  0  0  0
   -3.0553   -2.4041    0.1931 C   0  0  0  0  0  0  0  0  0  0  0  0
   -3.6656   -1.1758   -0.2082 O   0  0  0  0  0  0  0  0  0  0  0  0
   -0.8768   -3.7307    0.1787 C   0  0  2  0  0  0  0  0  0  0  0  0
   -0.8401   -3.7134    1.2767 H   0  0  0  0  0  0  0  0  0  0  0  0
   -2.0914   -8.3207    0.3258 O   0  0  0  0  0  0  0  0  0  0  0  0
   -1.6641   -7.3966   -0.3606 C   0  0  0  0  0  0  0  0  0  0  0  0
   -1.7724   -7.4456   -1.7057 O   0  0  0  0  0  0  0  0  0  0  0  0
   -0.9005   -6.1435    0.1778 C   0  0  1  0  0  0  0  0  0  0  0  0
   -0.8551   -6.1781    1.6050 O   0  0  0  0  0  0  0  0  0  0  0  0
    1.0631   -7.1010    0.0433 H   0  0  0  0  0  0  0  0  0  0  0  0
    0.5733   -6.2912   -1.4242 H   0  0  0  0  0  0  0  0  0  0  0  0
    1.3629   -4.9180    1.2060 H   0  0  0  0  0  0  0  0  0  0  0  0
    3.2084   -5.3142    0.2787 H   0  0  0  0  0  0  0  0  0  0  0  0
    1.0940   -2.8164   -0.1013 H   0  0  0  0  0  0  0  0  0  0  0  0
   -0.1381   -4.4393   -2.0906 H   0  0  0  0  0  0  0  0  0  0  0  0
   -1.5926   -2.3716   -1.3836 H   0  0  0  0  0  0  0  0  0  0  0  0
   -1.2397   -1.1427    1.1408 H   0  0  0  0  0  0  0  0  0  0  0  0
   -3.6436   -3.2339   -0.2031 H   0  0  0  0  0  0  0  0  0  0  0  0
   -3.0849   -2.4278    1.2864 H   0  0  0  0  0  0  0  0  0  0  0  0
   -3.0310   -0.4602   -0.0138 H   0  0  0  0  0  0  0  0  0  0  0  0
   -2.2532   -8.2794   -1.8983 H   0  0  0  0  0  0  0  0  0  0  0  0
   -0.5786   -7.0818    1.8484 H   0  0  0  0  0  0  0  0  0  0  0  0
  1  2  1  0  0  0  0
  1 18  1  0  0  0  0
  1 19  1  0  0  0  0
  2  4  1  0  0  0  0
  2 20  1  1  0  0  0
  2  3  1  0  0  0  0
  3 21  1  0  0  0  0
  4  5  1  0  0  0  0
  4 11  1  0  0  0  0
  4 22  1  1  0  0  0
  5 23  1  0  0  0  0
  7  9  1  0  0  0  0
  7 24  1  6  0  0  0
  7  8  1  0  0  0  0
  7 11  1  0  0  0  0
  8 25  1  0  0  0  0
  9 10  1  0  0  0  0
  9 26  1  0  0  0  0
  9 27  1  0  0  0  0
 10 28  1  0  0  0  0
 11  6  1  0  0  0  0
 11 12  1  1  0  0  0
 14 13  2  0  0  0  0
 14 15  1  0  0  0  0
 15 29  1  0  0  0  0
 16  1  1  0  0  0  0
 16  6  1  0  0  0  0
 16 14  1  6  0  0  0
 16 17  1  0  0  0  0
 17 30  1  0  0  0  0
M  END
>  <DRUGBANK_ID>
DB03548

>  <SECONDARY_ACCESSION_NUMBERS>
EXPT01967

>  <COMMON_NAME>
3-deoxy-alpha-D-manno-oct-2-ulopyranosonic acid

>  <SYNONYMS>
3-deoxy-α-D-manno-oct-2-ulopyranosonic acid; α-2-keto-3-deoxyoctulosonic acid pyranose; α-Kdo; α-KDop

$$$$
