Lutein
 OpenBabel10282417103D
Marvin  03020616332D
 98 99  0  0  0  0  0  0  0  0999 V2000
   -1.4357   -0.3894    0.0000 C   0  0  0  0  0  0  0  0  0  0  0  0
   -2.8925   -0.6896    0.0046 C   0  0  0  0  0  0  0  0  0  0  0  0
    0.9812   -1.1261   -0.0124 C   0  0  0  0  0  0  0  0  0  0  0  0
    0.4908    1.4304    0.0319 C   0  0  0  0  0  0  0  0  0  0  0  0
   -3.9167    0.1918    0.0415 C   0  0  0  0  0  0  0  0  0  0  0  0
   -5.3472   -0.0863    0.0375 C   0  0  0  0  0  0  0  0  0  0  0  0
   -6.2410    0.9330    0.0396 C   0  0  0  0  0  0  0  0  0  0  0  0
   -5.7000   -1.5473    0.0365 C   0  0  0  0  0  0  0  0  0  0  0  0
   -7.6764    0.7416    0.0457 C   0  0  0  0  0  0  0  0  0  0  0  0
   -8.6458    1.6719    0.0509 C   0  0  0  0  0  0  0  0  0  0  0  0
  -10.0812    1.3257    0.0616 C   0  0  0  0  0  0  0  0  0  0  0  0
  -11.0249    2.2905    0.0670 C   0  0  0  0  0  0  0  0  0  0  0  0
  -10.4346   -0.1491    0.0668 C   0  0  0  0  0  0  0  0  0  0  0  0
  -12.4573    2.0436    0.0777 C   0  0  0  0  0  0  0  0  0  0  0  0
  -13.3857    3.0053    0.0826 C   0  0  0  0  0  0  0  0  0  0  0  0
  -14.8144    2.7290    0.0938 C   0  0  0  0  0  0  0  0  0  0  0  0
  -15.7563    3.6967    0.1005 C   0  0  0  0  0  0  0  0  0  0  0  0
  -17.1753    3.3472    0.1134 C   0  0  0  0  0  0  0  0  0  0  0  0
  -15.3266    5.1467    0.0936 C   0  0  0  0  0  0  0  0  0  0  0  0
  -18.1596    4.2584    0.1191 C   0  0  0  0  0  0  0  0  0  0  0  0
  -19.5693    3.9968    0.1203 C   0  0  0  0  0  0  0  0  0  0  0  0
  -20.4841    4.9942    0.0963 C   0  0  0  0  0  0  0  0  0  0  0  0
  -21.8755    4.6209    0.1236 C   0  0  0  0  0  0  0  0  0  0  0  0
  -20.0946    6.4569    0.1190 C   0  0  0  0  0  0  0  0  0  0  0  0
  -22.8996    5.4542   -0.1326 C   0  0  0  0  0  0  0  0  0  0  0  0
  -24.3796    5.2263    0.0549 C   0  0  1  0  0  0  0  0  0  0  0  0
  -25.4599    3.5346    1.5525 C   0  0  0  0  0  0  0  0  0  0  0  0
  -25.8126    5.9932    2.1918 C   0  0  0  0  0  0  0  0  0  0  0  0
   -0.5070   -1.3732   -0.0126 C   0  0  0  0  0  0  0  0  0  0  0  0
   -0.8525   -2.8434   -0.0118 C   0  0  0  0  0  0  0  0  0  0  0  0
  -24.2762    2.6884   -0.4256 C   0  0  0  0  0  0  0  0  0  0  0  0
  -24.7377    3.8166    0.4626 C   0  0  0  0  0  0  0  0  0  0  0  0
   -1.4911    1.6274    1.4108 C   0  0  0  0  0  0  0  0  0  0  0  0
   -1.0225    1.0819    0.0361 C   0  0  0  0  0  0  0  0  0  0  0  0
   -1.5541    1.7469   -1.2662 C   0  0  0  0  0  0  0  0  0  0  0  0
  -25.9876    7.1395    0.0014 C   0  0  0  0  0  0  0  0  0  0  0  0
  -25.0014    6.3961    0.9358 C   0  0  0  0  0  0  0  0  0  0  0  0
  -23.9268    7.3800    1.4928 C   0  0  0  0  0  0  0  0  0  0  0  0
  -26.0159    4.5259    2.4954 C   0  0  1  0  0  0  0  0  0  0  0  0
  -27.4171    4.2873    2.5499 O   0  0  0  0  0  0  0  0  0  0  0  0
    1.4885    0.3067   -0.0912 C   0  0  2  0  0  0  0  0  0  0  0  0
    2.1626    0.4850   -1.3432 O   0  0  0  0  0  0  0  0  0  0  0  0
   -3.1386   -1.7470   -0.0217 H   0  0  0  0  0  0  0  0  0  0  0  0
    1.4084   -1.6816   -0.8584 H   0  0  0  0  0  0  0  0  0  0  0  0
    1.4008   -1.5814    0.8944 H   0  0  0  0  0  0  0  0  0  0  0  0
    0.7458    1.9881    0.9437 H   0  0  0  0  0  0  0  0  0  0  0  0
    0.6962    2.1735   -0.7525 H   0  0  0  0  0  0  0  0  0  0  0  0
   -3.7262    1.2577    0.0871 H   0  0  0  0  0  0  0  0  0  0  0  0
   -5.8989    1.9692    0.0371 H   0  0  0  0  0  0  0  0  0  0  0  0
   -5.2972   -2.0253   -0.8623 H   0  0  0  0  0  0  0  0  0  0  0  0
   -5.2844   -2.0280    0.9281 H   0  0  0  0  0  0  0  0  0  0  0  0
   -6.7661   -1.7585    0.0438 H   0  0  0  0  0  0  0  0  0  0  0  0
   -7.9892   -0.2907    0.0489 H   0  0  0  0  0  0  0  0  0  0  0  0
   -8.3761    2.7265    0.0483 H   0  0  0  0  0  0  0  0  0  0  0  0
  -10.7182    3.3368    0.0633 H   0  0  0  0  0  0  0  0  0  0  0  0
  -10.0459   -0.6392   -0.8318 H   0  0  0  0  0  0  0  0  0  0  0  0
  -10.0331   -0.6360    0.9616 H   0  0  0  0  0  0  0  0  0  0  0  0
  -11.5019   -0.3641    0.0749 H   0  0  0  0  0  0  0  0  0  0  0  0
  -12.8164    1.0230    0.0820 H   0  0  0  0  0  0  0  0  0  0  0  0
  -13.0575    4.0394    0.0786 H   0  0  0  0  0  0  0  0  0  0  0  0
  -15.1139    1.6811    0.0975 H   0  0  0  0  0  0  0  0  0  0  0  0
  -17.4422    2.2922    0.1142 H   0  0  0  0  0  0  0  0  0  0  0  0
  -14.7251    5.3572    0.9843 H   0  0  0  0  0  0  0  0  0  0  0  0
  -14.7380    5.3534   -0.8067 H   0  0  0  0  0  0  0  0  0  0  0  0
  -16.1248    5.8848    0.0975 H   0  0  0  0  0  0  0  0  0  0  0  0
  -17.9127    5.3073    0.1148 H   0  0  0  0  0  0  0  0  0  0  0  0
  -19.8870    2.9569    0.1273 H   0  0  0  0  0  0  0  0  0  0  0  0
  -22.0735    3.5918    0.3912 H   0  0  0  0  0  0  0  0  0  0  0  0
  -19.4922    6.6729    1.0089 H   0  0  0  0  0  0  0  0  0  0  0  0
  -19.5231    6.7061   -0.7807 H   0  0  0  0  0  0  0  0  0  0  0  0
  -20.9262    7.1625    0.1658 H   0  0  0  0  0  0  0  0  0  0  0  0
  -22.6682    6.4519   -0.4794 H   0  0  0  0  0  0  0  0  0  0  0  0
  -24.7907    5.3226   -0.9632 H   0  0  0  0  0  0  0  0  0  0  0  0
  -25.6775    2.4973    1.7949 H   0  0  0  0  0  0  0  0  0  0  0  0
  -25.3197    6.4057    3.0845 H   0  0  0  0  0  0  0  0  0  0  0  0
  -26.7789    6.5176    2.1899 H   0  0  0  0  0  0  0  0  0  0  0  0
   -1.4235   -3.1039    0.8851 H   0  0  0  0  0  0  0  0  0  0  0  0
   -1.4250   -3.1023   -0.9077 H   0  0  0  0  0  0  0  0  0  0  0  0
    0.0459   -3.4709   -0.0117 H   0  0  0  0  0  0  0  0  0  0  0  0
  -23.6068    2.0251    0.1349 H   0  0  0  0  0  0  0  0  0  0  0  0
  -25.1189    2.1053   -0.8019 H   0  0  0  0  0  0  0  0  0  0  0  0
  -23.7253    3.0583   -1.2970 H   0  0  0  0  0  0  0  0  0  0  0  0
   -1.2707    2.6910    1.5201 H   0  0  0  0  0  0  0  0  0  0  0  0
   -2.5406    1.4904    1.6644 H   0  0  0  0  0  0  0  0  0  0  0  0
   -0.9495    1.0845    2.2035 H   0  0  0  0  0  0  0  0  0  0  0  0
   -1.1286    1.2226   -2.1368 H   0  0  0  0  0  0  0  0  0  0  0  0
   -2.6294    1.7234   -1.4319 H   0  0  0  0  0  0  0  0  0  0  0  0
   -1.2662    2.7985   -1.3353 H   0  0  0  0  0  0  0  0  0  0  0  0
  -26.4587    7.9940    0.4956 H   0  0  0  0  0  0  0  0  0  0  0  0
  -25.4971    7.4999   -0.9091 H   0  0  0  0  0  0  0  0  0  0  0  0
  -26.7884    6.4515   -0.3054 H   0  0  0  0  0  0  0  0  0  0  0  0
  -23.1750    6.8133    2.0635 H   0  0  0  0  0  0  0  0  0  0  0  0
  -23.4202    7.9588    0.7168 H   0  0  0  0  0  0  0  0  0  0  0  0
  -24.3504    8.1099    2.1909 H   0  0  0  0  0  0  0  0  0  0  0  0
  -25.5941    4.3249    3.4876 H   0  0  0  0  0  0  0  0  0  0  0  0
  -27.6245    4.0687    3.4717 H   0  0  0  0  0  0  0  0  0  0  0  0
    2.2514    0.4541    0.6843 H   0  0  0  0  0  0  0  0  0  0  0  0
    1.4837    0.3804   -2.0337 H   0  0  0  0  0  0  0  0  0  0  0  0
  1 29  2  0  0  0  0
  1 34  1  0  0  0  0
  1  2  1  0  0  0  0
  2  5  2  0  0  0  0
  2 43  1  0  0  0  0
  3 41  1  0  0  0  0
  3 44  1  0  0  0  0
  3 45  1  0  0  0  0
  4 41  1  0  0  0  0
  4 46  1  0  0  0  0
  4 47  1  0  0  0  0
  5  6  1  0  0  0  0
  5 48  1  0  0  0  0
  6  7  2  0  0  0  0
  6  8  1  0  0  0  0
  7  9  1  0  0  0  0
  7 49  1  0  0  0  0
  8 50  1  0  0  0  0
  8 51  1  0  0  0  0
  8 52  1  0  0  0  0
  9 10  2  0  0  0  0
  9 53  1  0  0  0  0
 10 11  1  0  0  0  0
 10 54  1  0  0  0  0
 11 12  2  0  0  0  0
 11 13  1  0  0  0  0
 12 14  1  0  0  0  0
 12 55  1  0  0  0  0
 13 56  1  0  0  0  0
 13 57  1  0  0  0  0
 13 58  1  0  0  0  0
 14 15  2  0  0  0  0
 14 59  1  0  0  0  0
 15 16  1  0  0  0  0
 15 60  1  0  0  0  0
 16 17  2  0  0  0  0
 16 61  1  0  0  0  0
 17 18  1  0  0  0  0
 17 19  1  0  0  0  0
 18 20  2  0  0  0  0
 18 62  1  0  0  0  0
 19 63  1  0  0  0  0
 19 64  1  0  0  0  0
 19 65  1  0  0  0  0
 20 21  1  0  0  0  0
 20 66  1  0  0  0  0
 21 22  2  0  0  0  0
 21 67  1  0  0  0  0
 22 23  1  0  0  0  0
 22 24  1  0  0  0  0
 23 25  2  0  0  0  0
 23 68  1  0  0  0  0
 24 69  1  0  0  0  0
 24 70  1  0  0  0  0
 24 71  1  0  0  0  0
 25 72  1  0  0  0  0
 26 25  1  0  0  0  0
 26 32  1  0  0  0  0
 26 37  1  0  0  0  0
 26 73  1  6  0  0  0
 27 39  1  0  0  0  0
 27 74  1  0  0  0  0
 28 39  1  0  0  0  0
 28 75  1  0  0  0  0
 28 76  1  0  0  0  0
 29  3  1  0  0  0  0
 29 30  1  0  0  0  0
 30 77  1  0  0  0  0
 30 78  1  0  0  0  0
 30 79  1  0  0  0  0
 31 80  1  0  0  0  0
 31 81  1  0  0  0  0
 31 82  1  0  0  0  0
 32 27  2  0  0  0  0
 32 31  1  0  0  0  0
 33 83  1  0  0  0  0
 33 84  1  0  0  0  0
 33 85  1  0  0  0  0
 34  4  1  0  0  0  0
 34 33  1  0  0  0  0
 34 35  1  0  0  0  0
 35 86  1  0  0  0  0
 35 87  1  0  0  0  0
 35 88  1  0  0  0  0
 36 89  1  0  0  0  0
 36 90  1  0  0  0  0
 36 91  1  0  0  0  0
 37 28  1  0  0  0  0
 37 36  1  0  0  0  0
 37 38  1  0  0  0  0
 38 92  1  0  0  0  0
 38 93  1  0  0  0  0
 38 94  1  0  0  0  0
 39 95  1  1  0  0  0
 39 40  1  0  0  0  0
 40 96  1  0  0  0  0
 41 42  1  0  0  0  0
 41 97  1  1  0  0  0
 42 98  1  0  0  0  0
M  END
>  <DRUGBANK_ID>
DB00137

>  <SECONDARY_ACCESSION_NUMBERS>
NUTR00036; DB11138

>  <COMMON_NAME>
Lutein

>  <CAS_NUMBER>
127-40-2

>  <UNII>
X72A60C9MT

>  <SYNONYMS>
Xanthophyll; Xantofyl

$$$$
