
 OpenBabel10282417233D

 44 46  0  0  0  0  0  0  0  0999 V2000
    1.1939    0.1923    0.0064 C   0  0  0  0  0  0  0  0  0  0  0  0
   -0.5084    1.2030   -1.3117 C   0  0  0  0  0  0  0  0  0  0  0  0
   -0.9304    4.2620    4.1647 C   0  0  0  0  0  0  0  0  0  0  0  0
   -1.4149    4.2547    5.4320 N   0  0  0  0  0  0  0  0  0  0  0  0
   -0.6614    5.3804    3.7054 O   0  0  0  0  0  0  0  0  0  0  0  0
   -1.4430    1.2133    4.9935 N   0  0  0  0  0  0  0  0  0  0  0  0
   -1.6833   -0.0427    5.5076 C   0  0  0  0  0  0  0  0  0  0  0  0
   -2.1185   -0.0969    6.6622 O   0  0  0  0  0  0  0  0  0  0  0  0
    0.8077    5.2419   -0.8031 C   0  0  0  0  0  0  0  0  0  0  0  0
   -1.2800    3.9306   -0.6917 C   0  0  0  0  0  0  0  0  0  0  0  0
   -0.2749    1.7971    1.3554 C   0  0  0  0  0  0  0  0  0  0  0  0
   -0.2756    3.0175    2.0214 C   0  0  0  0  0  0  0  0  0  0  0  0
   -1.1033    0.7062    2.3417 S   0  0  0  0  0  0  0  0  0  0  0  0
    0.3316    1.5107   -0.0574 C   0  0  0  0  0  0  0  0  0  0  0  0
   -0.7873    3.0158    3.3865 C   0  0  0  0  0  0  0  0  0  0  0  0
    0.1715    4.2379    1.3145 C   0  0  0  0  0  0  0  0  0  0  0  0
   -1.0762    1.7042    3.7455 C   0  0  0  0  0  0  0  0  0  0  0  0
    1.0102    2.7652   -0.4378 O   0  0  0  0  0  0  0  0  0  0  0  0
    0.1925    3.9789   -0.1890 C   0  0  0  0  0  0  0  0  0  0  0  0
   -1.3832   -1.2272    4.7237 C   0  0  0  0  0  0  0  0  0  0  0  0
   -0.1482   -1.5428    4.0960 C   0  0  0  0  0  0  0  0  0  0  0  0
   -2.3359   -2.1177    4.3985 N   0  0  0  0  0  0  0  0  0  0  0  0
   -0.4644   -2.5313    3.1970 C   0  0  0  0  0  0  0  0  0  0  0  0
   -1.7546   -2.8800    3.4618 N   0  0  0  0  0  0  0  0  0  0  0  0
    0.9771   -0.4726   -0.8514 H   0  0  0  0  0  0  0  0  0  0  0  0
    0.8965   -0.4601    0.8367 H   0  0  0  0  0  0  0  0  0  0  0  0
    2.2739    0.3254    0.0100 H   0  0  0  0  0  0  0  0  0  0  0  0
    0.1871    0.9122   -2.1208 H   0  0  0  0  0  0  0  0  0  0  0  0
   -1.2412    0.4153   -1.1592 H   0  0  0  0  0  0  0  0  0  0  0  0
   -0.9862    2.0266   -1.8205 H   0  0  0  0  0  0  0  0  0  0  0  0
   -1.5439    5.1690    5.8462 H   0  0  0  0  0  0  0  0  0  0  0  0
   -1.7258    3.4799    5.9751 H   0  0  0  0  0  0  0  0  0  0  0  0
   -1.5960    1.8594    5.7404 H   0  0  0  0  0  0  0  0  0  0  0  0
    0.8710    5.1770   -1.8906 H   0  0  0  0  0  0  0  0  0  0  0  0
    0.1770    6.1104   -0.5550 H   0  0  0  0  0  0  0  0  0  0  0  0
    1.8068    5.4438   -0.4075 H   0  0  0  0  0  0  0  0  0  0  0  0
   -1.8335    3.0621   -0.3153 H   0  0  0  0  0  0  0  0  0  0  0  0
   -1.8659    4.7939   -0.3672 H   0  0  0  0  0  0  0  0  0  0  0  0
   -1.3132    3.9219   -1.7860 H   0  0  0  0  0  0  0  0  0  0  0  0
    1.1550    4.5354    1.6946 H   0  0  0  0  0  0  0  0  0  0  0  0
   -0.5401    5.0499    1.4931 H   0  0  0  0  0  0  0  0  0  0  0  0
    0.7632   -0.9593    4.1343 H   0  0  0  0  0  0  0  0  0  0  0  0
    0.0854   -2.9536    2.3698 H   0  0  0  0  0  0  0  0  0  0  0  0
   -2.3218   -3.5852    3.0052 H   0  0  0  0  0  0  0  0  0  0  0  0
  1 14  1  0  0  0  0
  1 25  1  0  0  0  0
  1 26  1  0  0  0  0
  1 27  1  0  0  0  0
  2 14  1  0  0  0  0
  2 28  1  0  0  0  0
  2 29  1  0  0  0  0
  2 30  1  0  0  0  0
  3  4  1  0  0  0  0
  3  5  2  0  0  0  0
  3 15  1  0  0  0  0
  4 31  1  0  0  0  0
  4 32  1  0  0  0  0
  6  7  1  0  0  0  0
  6 17  1  0  0  0  0
  6 33  1  0  0  0  0
  7  8  2  0  0  0  0
  7 20  1  0  0  0  0
  9 19  1  0  0  0  0
  9 34  1  0  0  0  0
  9 35  1  0  0  0  0
  9 36  1  0  0  0  0
 10 19  1  0  0  0  0
 10 37  1  0  0  0  0
 10 38  1  0  0  0  0
 10 39  1  0  0  0  0
 11 12  2  0  0  0  0
 11 13  1  0  0  0  0
 11 14  1  0  0  0  0
 12 15  1  0  0  0  0
 12 16  1  0  0  0  0
 13 17  1  0  0  0  0
 14 18  1  0  0  0  0
 15 17  2  0  0  0  0
 16 19  1  0  0  0  0
 16 40  1  0  0  0  0
 16 41  1  0  0  0  0
 18 19  1  0  0  0  0
 20 21  1  0  0  0  0
 20 22  2  0  0  0  0
 21 23  2  0  0  0  0
 21 42  1  0  0  0  0
 22 24  1  0  0  0  0
 23 24  1  0  0  0  0
 23 43  1  0  0  0  0
 24 44  1  0  0  0  0
M  END
>  <DRUGBANK_ID>
DB16835

>  <COMMON_NAME>
GLPG-1837

>  <CAS_NUMBER>
1654725-02-6

>  <UNII>
MM4S7BD3DF

$$$$
