
 OpenBabel10282417223D

 62 65  0  0  0  0  0  0  0  0999 V2000
    1.2297   -0.0560   -0.5479 C   0  0  0  0  0  0  0  0  0  0  0  0
    0.4674    1.1351   -1.1212 C   0  0  0  0  0  0  0  0  0  0  0  0
    0.9431    0.8791   -2.5153 C   0  0  0  0  0  0  0  0  0  0  0  0
   -1.1025    1.1328   -1.0632 C   0  0  0  0  0  0  0  0  0  0  0  0
   -1.8257    1.4031    0.2351 N   0  0  0  0  0  0  0  0  0  0  0  0
   -2.3623    2.7308    0.4854 C   0  0  0  0  0  0  0  0  0  0  0  0
   -3.4964    2.9508   -0.3087 C   0  0  0  0  0  0  0  0  0  0  0  0
   -4.3198    4.0197   -0.0324 C   0  0  0  0  0  0  0  0  0  0  0  0
   -4.0663    4.8601    1.0543 C   0  0  0  0  0  0  0  0  0  0  0  0
   -5.0852    5.9575    1.1207 C   0  0  0  0  0  0  0  0  0  0  0  0
   -6.1993    5.3833    0.2213 C   0  0  0  0  0  0  0  0  0  0  0  0
   -5.5177    4.4646   -0.8056 C   0  0  0  0  0  0  0  0  0  0  0  0
   -2.9479    4.6769    1.8565 C   0  0  0  0  0  0  0  0  0  0  0  0
   -2.0184    3.6691    1.5295 C   0  0  0  0  0  0  0  0  0  0  0  0
   -0.9504    3.6649    2.4248 O   0  0  0  0  0  0  0  0  0  0  0  0
   -0.0425    2.5808    2.3759 C   0  0  0  0  0  0  0  0  0  0  0  0
   -0.8212    1.3989    2.7347 C   0  0  0  0  0  0  0  0  0  0  0  0
   -2.7403    1.3949    2.5255 C   0  0  0  0  0  0  0  0  0  0  0  0
   -3.5827   -0.1645    2.7145 C   0  0  0  0  0  0  0  0  0  0  0  0
   -2.7357   -1.6273    3.0069 C   0  0  0  0  0  0  0  0  0  0  0  0
   -1.0876   -1.6850    3.1738 C   0  0  0  0  0  0  0  0  0  0  0  0
   -0.0668   -0.2653    3.1540 C   0  0  0  0  0  0  0  0  0  0  0  0
    1.2881   -0.7688    2.5116 C   0  0  0  0  0  0  0  0  0  0  0  0
   -3.5491   -2.8398    3.1283 C   0  0  0  0  0  0  0  0  0  0  0  0
   -2.9279   -4.0218    2.9731 O   0  0  0  0  0  0  0  0  0  0  0  0
   -4.7309   -2.7175    3.4008 O   0  0  0  0  0  0  0  0  0  0  0  0
   -1.6298   -0.0098    1.4645 S   0  0  0  0  0  0  0  0  0  0  0  0
   -2.0615   -1.2457    0.8013 O   0  0  0  0  0  0  0  0  0  0  0  0
   -0.2518    0.2467    1.1358 O   0  0  0  0  0  0  0  0  0  0  0  0
   -1.8996    0.4283    3.9210 C   0  0  0  0  0  0  0  0  0  0  0  0
   -1.7744    1.9169    4.3645 N   0  0  0  0  0  0  0  0  0  0  0  0
   -2.4934    2.5011    5.3101 C   0  0  0  0  0  0  0  0  0  0  0  0
   -3.0039    1.4508    5.9790 C   0  0  0  0  0  0  0  0  0  0  0  0
   -2.5931   -0.1945    5.4247 S   0  0  0  0  0  0  0  0  0  0  0  0
    0.6784   -1.0115   -0.5790 H   0  0  0  0  0  0  0  0  0  0  0  0
    1.2869    0.1978    0.4490 H   0  0  0  0  0  0  0  0  0  0  0  0
    2.3090   -0.0224   -0.4043 H   0  0  0  0  0  0  0  0  0  0  0  0
    0.8459    2.0806   -0.7039 H   0  0  0  0  0  0  0  0  0  0  0  0
    0.5934   -0.1250   -2.8012 H   0  0  0  0  0  0  0  0  0  0  0  0
    0.5760    1.6306   -3.1936 H   0  0  0  0  0  0  0  0  0  0  0  0
    2.0426    0.8595   -2.4963 H   0  0  0  0  0  0  0  0  0  0  0  0
   -1.4572    1.8786   -1.7779 H   0  0  0  0  0  0  0  0  0  0  0  0
   -1.4693    0.1531   -1.3669 H   0  0  0  0  0  0  0  0  0  0  0  0
   -3.7231    2.2510   -1.1086 H   0  0  0  0  0  0  0  0  0  0  0  0
   -4.6773    6.8886    0.7088 H   0  0  0  0  0  0  0  0  0  0  0  0
   -5.4326    6.1501    2.1392 H   0  0  0  0  0  0  0  0  0  0  0  0
   -6.8953    4.7955    0.8364 H   0  0  0  0  0  0  0  0  0  0  0  0
   -6.7914    6.1647   -0.2644 H   0  0  0  0  0  0  0  0  0  0  0  0
   -6.1535    3.6317   -1.1232 H   0  0  0  0  0  0  0  0  0  0  0  0
   -5.2050    5.0265   -1.6920 H   0  0  0  0  0  0  0  0  0  0  0  0
   -2.7858    5.2856    2.7423 H   0  0  0  0  0  0  0  0  0  0  0  0
    0.7691    2.5471    3.1161 H   0  0  0  0  0  0  0  0  0  0  0  0
    0.3489    2.4937    1.3749 H   0  0  0  0  0  0  0  0  0  0  0  0
   -3.4120    2.2220    2.7344 H   0  0  0  0  0  0  0  0  0  0  0  0
   -4.5693   -0.1716    3.1706 H   0  0  0  0  0  0  0  0  0  0  0  0
   -0.6698   -2.6106    2.7057 H   0  0  0  0  0  0  0  0  0  0  0  0
    1.8224   -1.4292    3.1719 H   0  0  0  0  0  0  0  0  0  0  0  0
    1.1111   -1.3836    1.5813 H   0  0  0  0  0  0  0  0  0  0  0  0
    1.8585    0.1162    2.2506 H   0  0  0  0  0  0  0  0  0  0  0  0
   -1.9915   -4.0368    2.7091 H   0  0  0  0  0  0  0  0  0  0  0  0
   -2.5068    3.6069    5.4085 H   0  0  0  0  0  0  0  0  0  0  0  0
   -3.5811    1.5228    6.8545 H   0  0  0  0  0  0  0  0  0  0  0  0
  1  2  1  0  0  0  0
  1 35  1  0  0  0  0
  1 36  1  0  0  0  0
  1 37  1  0  0  0  0
  2  3  1  0  0  0  0
  2  4  1  0  0  0  0
  2 38  1  0  0  0  0
  3 39  1  0  0  0  0
  3 40  1  0  0  0  0
  3 41  1  0  0  0  0
  4  5  1  0  0  0  0
  4 42  1  0  0  0  0
  4 43  1  0  0  0  0
  5  6  1  0  0  0  0
  5 27  1  0  0  0  0
  6  7  2  0  0  0  0
  6 14  1  0  0  0  0
  7  8  1  0  0  0  0
  7 44  1  0  0  0  0
  8  9  2  0  0  0  0
  8 12  1  0  0  0  0
  9 10  1  0  0  0  0
  9 13  1  0  0  0  0
 10 11  1  0  0  0  0
 10 45  1  0  0  0  0
 10 46  1  0  0  0  0
 11 12  1  0  0  0  0
 11 47  1  0  0  0  0
 11 48  1  0  0  0  0
 12 49  1  0  0  0  0
 12 50  1  0  0  0  0
 13 14  2  0  0  0  0
 13 51  1  0  0  0  0
 14 15  1  0  0  0  0
 15 16  1  0  0  0  0
 16 17  1  0  0  0  0
 16 52  1  0  0  0  0
 16 53  1  0  0  0  0
 17 18  2  0  0  0  0
 17 22  1  0  0  0  0
 18 19  1  0  0  0  0
 18 54  1  0  0  0  0
 19 20  2  0  0  0  0
 19 55  1  0  0  0  0
 20 21  1  0  0  0  0
 20 24  1  0  0  0  0
 21 22  2  0  0  0  0
 21 56  1  0  0  0  0
 22 23  1  0  0  0  0
 23 57  1  0  0  0  0
 23 58  1  0  0  0  0
 23 59  1  0  0  0  0
 24 25  1  0  0  0  0
 24 26  2  0  0  0  0
 25 60  1  0  0  0  0
 27 28  2  0  0  0  0
 27 29  2  0  0  0  0
 27 30  1  0  0  0  0
 30 31  2  0  0  0  0
 30 34  1  0  0  0  0
 31 32  1  0  0  0  0
 32 33  2  0  0  0  0
 32 61  1  0  0  0  0
 33 34  1  0  0  0  0
 33 62  1  0  0  0  0
M  END
>  <DRUGBANK_ID>
DB15325

>  <COMMON_NAME>
ONO-8539

>  <CAS_NUMBER>
459842-29-6

>  <UNII>
94W010PZ1Z

$$$$
