CT7
 OpenBabel10282417133D

 32 34  0  0  0  0  0  0  0  0999 V2000
    1.0439   -0.1540   -0.1297 O   0  0  0  0  0  0  0  0  0  0  0  0
    2.4835   -0.0395   -0.0410 S   0  0  0  0  0  0  0  0  0  0  0  0
    3.1003    0.9236    0.8585 O   0  0  0  0  0  0  0  0  0  0  0  0
    3.0899   -1.6525    0.4097 C   0  0  0  0  0  0  0  0  0  0  0  0
    3.8660   -1.8307    1.5594 C   0  0  0  0  0  0  0  0  0  0  0  0
    2.6213   -2.7578   -0.2906 C   0  0  0  0  0  0  0  0  0  0  0  0
    2.8767   -4.0361    0.2068 C   0  0  0  0  0  0  0  0  0  0  0  0
    4.1757   -3.1293    2.0064 C   0  0  0  0  0  0  0  0  0  0  0  0
    3.6887   -4.2581    1.3317 C   0  0  0  0  0  0  0  0  0  0  0  0
    4.0640   -5.5611    1.7264 N   0  0  0  0  0  0  0  0  0  0  0  0
    3.7156   -6.7471    1.0775 C   0  0  0  0  0  0  0  0  0  0  0  0
    3.1009   -7.8003    1.8077 N   0  0  0  0  0  0  0  0  0  0  0  0
    2.7255   -8.9913    1.1589 C   0  0  0  0  0  0  0  0  0  0  0  0
    2.9381   -9.2051   -0.1748 N   0  0  0  0  0  0  0  0  0  0  0  0
    2.1848   -9.0325    3.2939 C   0  0  0  0  0  0  0  0  0  0  0  0
    2.7657   -7.8411    3.1307 N   0  0  0  0  0  0  0  0  0  0  0  0
    3.9416   -6.9482   -0.2354 C   0  0  0  0  0  0  0  0  0  0  0  0
    3.5110   -8.2389   -0.8255 C   0  0  0  0  0  0  0  0  0  0  0  0
    3.7780   -8.5020   -2.5105 Cl  0  0  0  0  0  0  0  0  0  0  0  0
    2.1485   -9.7913    2.1167 C   0  0  0  0  0  0  0  0  0  0  0  0
    3.1033    0.2846   -1.6684 C   0  0  0  0  0  0  0  0  0  0  0  0
    4.2101   -0.9705    2.1312 H   0  0  0  0  0  0  0  0  0  0  0  0
    2.0170   -2.6536   -1.1872 H   0  0  0  0  0  0  0  0  0  0  0  0
    2.3805   -4.8673   -0.2846 H   0  0  0  0  0  0  0  0  0  0  0  0
    4.7670   -3.2397    2.9136 H   0  0  0  0  0  0  0  0  0  0  0  0
    4.4425   -5.6756    2.6646 H   0  0  0  0  0  0  0  0  0  0  0  0
    1.8111   -9.3106    4.2723 H   0  0  0  0  0  0  0  0  0  0  0  0
    4.4081   -6.2137   -0.8762 H   0  0  0  0  0  0  0  0  0  0  0  0
    1.7515  -10.7858    1.9691 H   0  0  0  0  0  0  0  0  0  0  0  0
    2.7196   -0.4646   -2.3632 H   0  0  0  0  0  0  0  0  0  0  0  0
    2.7388    1.2712   -1.9709 H   0  0  0  0  0  0  0  0  0  0  0  0
    4.1932    0.2866   -1.6518 H   0  0  0  0  0  0  0  0  0  0  0  0
  1  2  2  0  0  0  0
  2  3  2  0  0  0  0
  2  4  1  0  0  0  0
  2 21  1  0  0  0  0
  4  5  2  0  0  0  0
  4  6  1  0  0  0  0
  5  8  1  0  0  0  0
  5 22  1  0  0  0  0
  6  7  2  0  0  0  0
  6 23  1  0  0  0  0
  7  9  1  0  0  0  0
  7 24  1  0  0  0  0
  8  9  2  0  0  0  0
  8 25  1  0  0  0  0
  9 10  1  0  0  0  0
 10 11  1  0  0  0  0
 10 26  1  0  0  0  0
 11 12  1  0  0  0  0
 11 17  2  0  0  0  0
 12 13  1  0  0  0  0
 12 16  1  0  0  0  0
 13 14  1  0  0  0  0
 13 20  2  0  0  0  0
 14 18  2  0  0  0  0
 15 16  2  0  0  0  0
 15 20  1  0  0  0  0
 15 27  1  0  0  0  0
 17 18  1  0  0  0  0
 17 28  1  0  0  0  0
 18 19  1  0  0  0  0
 20 29  1  0  0  0  0
 21 30  1  0  0  0  0
 21 31  1  0  0  0  0
 21 32  1  0  0  0  0
M  END
>  <DRUGBANK_ID>
DB02963

>  <SECONDARY_ACCESSION_NUMBERS>
EXPT01045

>  <COMMON_NAME>
(5-Chloropyrazolo[1,5-a]Pyrimidin-7-Yl)-(4-Methanesulfonylphenyl)Amine

>  <UNII>
XNE9CK2X79

$$$$
