
 OpenBabel10282417203D

 89 92  0  0  0  0  0  0  0  0999 V2000
    0.9749   -0.0287    0.0430 C   0  0  0  0  0  0  0  0  0  0  0  0
    0.5757    1.4282   -0.2686 C   0  0  0  0  0  0  0  0  0  0  0  0
    1.1304    2.0381   -1.4914 O   0  0  0  0  0  0  0  0  0  0  0  0
    2.4685    1.9176   -1.7244 C   0  0  0  0  0  0  0  0  0  0  0  0
    3.2003    1.5539   -0.8106 O   0  0  0  0  0  0  0  0  0  0  0  0
    2.9643    2.1460   -3.1984 C   0  0  0  0  0  0  0  0  0  0  0  0
    2.3633    1.0969   -4.2319 C   0  0  0  0  0  0  0  0  0  0  0  0
    0.8815    1.0577   -4.4006 O   0  0  0  0  0  0  0  0  0  0  0  0
    0.1779    0.5367   -3.3862 C   0  0  0  0  0  0  0  0  0  0  0  0
    0.7512   -0.2314   -2.6290 O   0  0  0  0  0  0  0  0  0  0  0  0
   -1.3150    0.8624   -3.2760 C   0  0  0  0  0  0  0  0  0  0  0  0
   -1.8856    2.2748   -3.4570 C   0  0  0  0  0  0  0  0  0  0  0  0
   -3.2045    2.4969   -3.8636 C   0  0  0  0  0  0  0  0  0  0  0  0
   -3.6598    3.8236   -4.1498 C   0  0  0  0  0  0  0  0  0  0  0  0
   -2.7887    4.9140   -4.0419 C   0  0  0  0  0  0  0  0  0  0  0  0
   -1.8812    4.7396   -3.0699 C   0  0  0  0  0  0  0  0  0  0  0  0
   -1.2804    3.4355   -2.9656 C   0  0  0  0  0  0  0  0  0  0  0  0
   -1.6043    5.9396   -2.1404 C   0  0  0  0  0  0  0  0  0  0  0  0
   -0.7932    5.5587   -1.2761 O   0  0  0  0  0  0  0  0  0  0  0  0
   -2.1276    7.5808   -2.4955 N   0  0  0  0  0  0  0  0  0  0  0  0
   -3.5230    7.5713   -2.6645 C   0  0  0  0  0  0  0  0  0  0  0  0
   -1.2408    9.1808   -3.1487 C   0  0  0  0  0  0  0  0  0  0  0  0
   -2.8440    6.1661   -4.7360 N   0  0  0  0  0  0  0  0  0  0  0  0
   -1.8634    7.3381   -4.6769 C   0  0  0  0  0  0  0  0  0  0  0  0
   -2.2053    8.3904   -5.2369 O   0  0  0  0  0  0  0  0  0  0  0  0
   -0.3596    7.2481   -3.6052 C   0  0  0  0  0  0  0  0  0  0  0  0
    0.1950    6.3129   -4.0859 C   0  0  0  0  0  0  0  0  0  0  0  0
    1.1164    5.9306   -3.1265 C   0  0  0  0  0  0  0  0  0  0  0  0
    1.8833    6.7025   -2.2013 C   0  0  0  0  0  0  0  0  0  0  0  0
    1.3990    7.8316   -1.7536 C   0  0  0  0  0  0  0  0  0  0  0  0
    0.0862    7.8185   -1.9781 C   0  0  0  0  0  0  0  0  0  0  0  0
   -0.7822    8.7972   -0.8428 C   0  0  0  0  0  0  0  0  0  0  0  0
   -1.9774    8.3924   -0.1748 C   0  0  0  0  0  0  0  0  0  0  0  0
   -2.7935    9.3711    0.3807 C   0  0  0  0  0  0  0  0  0  0  0  0
   -2.4224   10.7335    0.3556 C   0  0  0  0  0  0  0  0  0  0  0  0
   -1.3192   11.2089   -0.3073 C   0  0  0  0  0  0  0  0  0  0  0  0
   -0.5517   10.2608   -0.9004 C   0  0  0  0  0  0  0  0  0  0  0  0
   -3.1357   11.7321    1.1677 C   0  0  0  0  0  0  0  0  0  0  0  0
   -2.2835   12.2852    2.0708 F   0  0  0  0  0  0  0  0  0  0  0  0
   -3.6302   12.7479    0.4181 F   0  0  0  0  0  0  0  0  0  0  0  0
   -4.1618   11.1898    1.8589 F   0  0  0  0  0  0  0  0  0  0  0  0
    2.7585    3.4978   -3.8621 C   0  0  0  0  0  0  0  0  0  0  0  0
    1.6829    3.5678   -4.7138 C   0  0  0  0  0  0  0  0  0  0  0  0
    1.4897    4.6685   -5.4914 C   0  0  0  0  0  0  0  0  0  0  0  0
    2.3560    5.8608   -5.3803 C   0  0  0  0  0  0  0  0  0  0  0  0
    3.4459    5.8142   -4.4977 C   0  0  0  0  0  0  0  0  0  0  0  0
    3.6525    4.6174   -3.7928 C   0  0  0  0  0  0  0  0  0  0  0  0
    4.5017    2.0085   -3.2165 C   0  0  0  0  0  0  0  0  0  0  0  0
    5.2003    1.7035   -2.2632 O   0  0  0  0  0  0  0  0  0  0  0  0
    5.0528    2.4380   -4.4031 O   0  0  0  0  0  0  0  0  0  0  0  0
    6.4797    2.5917   -4.3936 C   0  0  0  0  0  0  0  0  0  0  0  0
    7.0184    3.6043   -3.3817 C   0  0  0  0  0  0  0  0  0  0  0  0
    0.5573   -0.7695   -0.6428 H   0  0  0  0  0  0  0  0  0  0  0  0
    0.6009   -0.3375    1.0207 H   0  0  0  0  0  0  0  0  0  0  0  0
    2.0541   -0.1779    0.0255 H   0  0  0  0  0  0  0  0  0  0  0  0
   -0.5188    1.4436   -0.3788 H   0  0  0  0  0  0  0  0  0  0  0  0
    0.8157    2.0751    0.5777 H   0  0  0  0  0  0  0  0  0  0  0  0
    2.7061    1.4017   -5.2385 H   0  0  0  0  0  0  0  0  0  0  0  0
    2.7494    0.0957   -4.0792 H   0  0  0  0  0  0  0  0  0  0  0  0
   -1.7911    0.1680   -3.9754 H   0  0  0  0  0  0  0  0  0  0  0  0
   -1.6240    0.5594   -2.2631 H   0  0  0  0  0  0  0  0  0  0  0  0
   -3.8858    1.6508   -3.9753 H   0  0  0  0  0  0  0  0  0  0  0  0
   -4.7117    3.9618   -4.3862 H   0  0  0  0  0  0  0  0  0  0  0  0
   -0.3042    3.3469   -2.5119 H   0  0  0  0  0  0  0  0  0  0  0  0
   -3.9277    8.2325   -1.9353 H   0  0  0  0  0  0  0  0  0  0  0  0
   -3.7971    7.9682   -3.6345 H   0  0  0  0  0  0  0  0  0  0  0  0
   -3.8327    6.5396   -2.5318 H   0  0  0  0  0  0  0  0  0  0  0  0
   -0.2371    9.4884   -2.7078 H   0  0  0  0  0  0  0  0  0  0  0  0
   -0.3973    9.1664   -3.9647 H   0  0  0  0  0  0  0  0  0  0  0  0
   -1.8674   10.0192   -3.2257 H   0  0  0  0  0  0  0  0  0  0  0  0
   -3.8017    6.4078   -5.0062 H   0  0  0  0  0  0  0  0  0  0  0  0
   -0.3429    5.9342   -4.9772 H   0  0  0  0  0  0  0  0  0  0  0  0
    1.4211    4.9435   -3.0790 H   0  0  0  0  0  0  0  0  0  0  0  0
    2.8630    6.3736   -1.8928 H   0  0  0  0  0  0  0  0  0  0  0  0
    1.9431    8.6810   -1.4015 H   0  0  0  0  0  0  0  0  0  0  0  0
   -2.4462    7.3973   -0.2645 H   0  0  0  0  0  0  0  0  0  0  0  0
   -3.7168    9.0662    0.8711 H   0  0  0  0  0  0  0  0  0  0  0  0
   -1.0131   12.2560   -0.3812 H   0  0  0  0  0  0  0  0  0  0  0  0
    0.0197   10.7849   -1.6865 H   0  0  0  0  0  0  0  0  0  0  0  0
    0.7797    2.9822   -4.5271 H   0  0  0  0  0  0  0  0  0  0  0  0
    0.3744    4.5929   -5.4548 H   0  0  0  0  0  0  0  0  0  0  0  0
    1.9330    6.9093   -5.3753 H   0  0  0  0  0  0  0  0  0  0  0  0
    3.8200    6.7445   -4.0218 H   0  0  0  0  0  0  0  0  0  0  0  0
    4.4747    4.6079   -3.0880 H   0  0  0  0  0  0  0  0  0  0  0  0
    6.8992    1.6006   -4.2211 H   0  0  0  0  0  0  0  0  0  0  0  0
    6.7801    2.9161   -5.3959 H   0  0  0  0  0  0  0  0  0  0  0  0
    6.7161    3.3784   -2.3562 H   0  0  0  0  0  0  0  0  0  0  0  0
    8.1113    3.6128   -3.3963 H   0  0  0  0  0  0  0  0  0  0  0  0
    6.6604    4.6165   -3.5921 H   0  0  0  0  0  0  0  0  0  0  0  0
  1  2  1  0  0  0  0
  1 53  1  0  0  0  0
  1 54  1  0  0  0  0
  1 55  1  0  0  0  0
  2  3  1  0  0  0  0
  2 56  1  0  0  0  0
  2 57  1  0  0  0  0
  3  4  1  0  0  0  0
  4  5  2  0  0  0  0
  4  6  1  0  0  0  0
  6  7  1  0  0  0  0
  6 42  1  0  0  0  0
  6 48  1  0  0  0  0
  7  8  1  0  0  0  0
  7 58  1  0  0  0  0
  7 59  1  0  0  0  0
  8  9  1  0  0  0  0
  9 10  2  0  0  0  0
  9 11  1  0  0  0  0
 11 12  1  0  0  0  0
 11 60  1  0  0  0  0
 11 61  1  0  0  0  0
 12 13  2  0  0  0  0
 12 17  1  0  0  0  0
 13 14  1  0  0  0  0
 13 62  1  0  0  0  0
 14 15  2  0  0  0  0
 14 63  1  0  0  0  0
 15 16  1  0  0  0  0
 15 23  1  0  0  0  0
 16 17  2  0  0  0  0
 16 18  1  0  0  0  0
 17 64  1  0  0  0  0
 18 19  2  0  0  0  0
 18 20  1  0  0  0  0
 20 21  1  0  0  0  0
 20 22  1  0  0  0  0
 21 65  1  0  0  0  0
 21 66  1  0  0  0  0
 21 67  1  0  0  0  0
 22 68  1  0  0  0  0
 22 69  1  0  0  0  0
 22 70  1  0  0  0  0
 23 24  1  0  0  0  0
 23 71  1  0  0  0  0
 24 25  2  0  0  0  0
 24 26  1  0  0  0  0
 26 27  2  0  0  0  0
 26 31  1  0  0  0  0
 27 28  1  0  0  0  0
 27 72  1  0  0  0  0
 28 29  2  0  0  0  0
 28 73  1  0  0  0  0
 29 30  1  0  0  0  0
 29 74  1  0  0  0  0
 30 31  2  0  0  0  0
 30 75  1  0  0  0  0
 31 32  1  0  0  0  0
 32 33  2  0  0  0  0
 32 37  1  0  0  0  0
 33 34  1  0  0  0  0
 33 76  1  0  0  0  0
 34 35  2  0  0  0  0
 34 77  1  0  0  0  0
 35 36  1  0  0  0  0
 35 38  1  0  0  0  0
 36 37  2  0  0  0  0
 36 78  1  0  0  0  0
 37 79  1  0  0  0  0
 38 39  1  0  0  0  0
 38 40  1  0  0  0  0
 38 41  1  0  0  0  0
 42 43  2  0  0  0  0
 42 47  1  0  0  0  0
 43 44  1  0  0  0  0
 43 80  1  0  0  0  0
 44 45  2  0  0  0  0
 44 81  1  0  0  0  0
 45 46  1  0  0  0  0
 45 82  1  0  0  0  0
 46 47  2  0  0  0  0
 46 83  1  0  0  0  0
 47 84  1  0  0  0  0
 48 49  2  0  0  0  0
 48 50  1  0  0  0  0
 50 51  1  0  0  0  0
 51 52  1  0  0  0  0
 51 85  1  0  0  0  0
 51 86  1  0  0  0  0
 52 87  1  0  0  0  0
 52 88  1  0  0  0  0
 52 89  1  0  0  0  0
M  END
>  <DRUGBANK_ID>
DB12934

>  <COMMON_NAME>
Granotapide

>  <CAS_NUMBER>
594842-13-4

>  <UNII>
PSZ2YGB0DK

>  <SYNONYMS>
Granotapide

$$$$
