AI7
 OpenBabel10282417163D

 37 37  0  0  0  0  0  0  0  0999 V2000
    0.9586   -0.0932    0.3866 C   0  0  0  0  0  0  0  0  0  0  0  0
   -1.6184    0.2030   -0.0166 C   0  0  0  0  0  0  0  0  0  0  0  0
   -0.8121    1.3554    0.0443 C   0  0  0  0  0  0  0  0  0  0  0  0
    5.2483   -0.3197   -0.0304 C   0  0  0  0  0  0  0  0  0  0  0  0
    1.4837    2.4400   -0.1330 C   0  0  0  0  0  0  0  0  0  0  0  0
    3.0077   -2.2129   -1.3244 C   0  0  0  0  0  0  0  0  0  0  0  0
   -1.0884   -1.1058   -0.0293 C   0  0  0  0  0  0  0  0  0  0  0  0
    2.2593   -2.7650   -0.0844 C   0  0  0  0  0  0  0  0  0  0  0  0
    5.4588    1.8830   -1.2376 C   0  0  0  0  0  0  0  0  0  0  0  0
    5.7958    0.3998   -1.2374 C   0  0  0  0  0  0  0  0  0  0  0  0
    0.2647   -1.2750    0.1227 C   0  0  0  0  0  0  0  0  0  0  0  0
    3.7706   -0.2191   -0.0262 C   0  0  0  0  0  0  0  0  0  0  0  0
    3.0529   -0.6991   -1.3331 C   0  0  0  0  0  0  0  0  0  0  0  0
    0.5452    1.2316    0.1237 C   0  0  0  0  0  0  0  0  0  0  0  0
    2.6743    2.4325   -0.2292 O   0  0  0  0  0  0  0  0  0  0  0  0
    0.8216   -2.5266   -0.0124 O   0  0  0  0  0  0  0  0  0  0  0  0
    0.9033    3.6414   -0.3590 O   0  0  0  0  0  0  0  0  0  0  0  0
    1.8914   -0.2741    0.8287 H   0  0  0  0  0  0  0  0  0  0  0  0
   -2.6885    0.3470   -0.0856 H   0  0  0  0  0  0  0  0  0  0  0  0
   -1.2679    2.3314    0.0815 H   0  0  0  0  0  0  0  0  0  0  0  0
    5.6029    0.1192    0.9123 H   0  0  0  0  0  0  0  0  0  0  0  0
    5.4896   -1.3840   -0.0084 H   0  0  0  0  0  0  0  0  0  0  0  0
    4.0489   -2.5622   -1.3411 H   0  0  0  0  0  0  0  0  0  0  0  0
    2.5387   -2.5769   -2.2435 H   0  0  0  0  0  0  0  0  0  0  0  0
   -1.7388   -1.9715   -0.1094 H   0  0  0  0  0  0  0  0  0  0  0  0
    2.7310   -2.4844    0.8622 H   0  0  0  0  0  0  0  0  0  0  0  0
    2.4103   -3.8542   -0.1155 H   0  0  0  0  0  0  0  0  0  0  0  0
    5.6916    2.3524   -0.2753 H   0  0  0  0  0  0  0  0  0  0  0  0
    5.9766    2.4023   -2.0419 H   0  0  0  0  0  0  0  0  0  0  0  0
    4.4031    2.0342   -1.4569 H   0  0  0  0  0  0  0  0  0  0  0  0
    6.8668    0.2367   -1.2636 H   0  0  0  0  0  0  0  0  0  0  0  0
    5.3893   -0.0399   -2.1514 H   0  0  0  0  0  0  0  0  0  0  0  0
    3.5284    0.7886    0.2478 H   0  0  0  0  0  0  0  0  0  0  0  0
    3.5272   -0.7552    0.8962 H   0  0  0  0  0  0  0  0  0  0  0  0
    3.4880   -0.2739   -2.2390 H   0  0  0  0  0  0  0  0  0  0  0  0
    2.0264   -0.3703   -1.5115 H   0  0  0  0  0  0  0  0  0  0  0  0
   -0.0501    3.7259   -0.3101 H   0  0  0  0  0  0  0  0  0  0  0  0
  1 11  1  0  0  0  0
  1 18  1  0  0  0  0
  2  7  1  0  0  0  0
  2 19  1  0  0  0  0
  3  2  2  0  0  0  0
  3 14  1  0  0  0  0
  3 20  1  0  0  0  0
  4 12  1  0  0  0  0
  4 10  1  0  0  0  0
  4 21  1  0  0  0  0
  4 22  1  0  0  0  0
  5 14  1  0  0  0  0
  5 17  1  0  0  0  0
  6 13  1  0  0  0  0
  6 23  1  0  0  0  0
  6 24  1  0  0  0  0
  7 11  2  0  0  0  0
  7 25  1  0  0  0  0
  8  6  1  0  0  0  0
  8 26  1  0  0  0  0
  8 27  1  0  0  0  0
  9 10  1  0  0  0  0
  9 28  1  0  0  0  0
  9 29  1  0  0  0  0
  9 30  1  0  0  0  0
 10 31  1  0  0  0  0
 10 32  1  0  0  0  0
 11 16  1  0  0  0  0
 12 33  1  0  0  0  0
 12 34  1  0  0  0  0
 13 12  1  0  0  0  0
 13 35  1  0  0  0  0
 13 36  1  0  0  0  0
 14  1  2  0  0  0  0
 15  5  2  0  0  0  0
 16  8  1  0  0  0  0
 17 37  1  0  0  0  0
M  END
>  <DRUGBANK_ID>
DB07355

>  <COMMON_NAME>
3-(heptyloxy)benzoic acid

$$$$
