
 OpenBabel10282417243D

 47 49  0  0  0  0  0  0  0  0999 V2000
    2.1519   -0.0564    0.0093 C   0  0  0  0  0  0  0  0  0  0  0  0
    0.6859    0.1149   -0.0208 C   0  0  0  0  0  0  0  0  0  0  0  0
    0.0498    1.2571   -0.0541 N   0  0  0  0  0  0  0  0  0  0  0  0
   -1.2756    0.9201    0.0121 C   0  0  0  0  0  0  0  0  0  0  0  0
   -1.4343   -0.4927    0.0175 C   0  0  0  0  0  0  0  0  0  0  0  0
   -0.1175   -0.9853   -0.0057 O   0  0  0  0  0  0  0  0  0  0  0  0
   -2.4734   -1.5615    0.0347 C   0  0  0  0  0  0  0  0  0  0  0  0
   -2.1956   -2.7686    0.0188 O   0  0  0  0  0  0  0  0  0  0  0  0
   -3.8461   -1.3413    0.0356 N   0  0  0  0  0  0  0  0  0  0  0  0
   -4.5205   -0.0715    0.1141 C   0  0  3  0  0  0  0  0  0  0  0  0
   -5.0492    0.4735   -1.2623 C   0  0  0  0  0  0  0  0  0  0  0  0
   -6.3900   -0.0493   -1.5952 C   0  0  0  0  0  0  0  0  0  0  0  0
   -6.4700   -1.4248   -1.7837 C   0  0  0  0  0  0  0  0  0  0  0  0
   -7.6719   -2.0407   -1.5030 C   0  0  0  0  0  0  0  0  0  0  0  0
   -8.7978   -1.2670   -1.1895 C   0  0  0  0  0  0  0  0  0  0  0  0
   -8.7212    0.1288   -1.1137 C   0  0  0  0  0  0  0  0  0  0  0  0
   -7.5136    0.7557   -1.3553 C   0  0  0  0  0  0  0  0  0  0  0  0
   -5.1398    0.1812    1.5919 C   0  0  0  0  0  0  0  0  0  0  0  0
   -4.5509    0.3564    2.6547 O   0  0  0  0  0  0  0  0  0  0  0  0
   -6.5961   -0.0432    1.8474 C   0  0  0  0  0  0  0  0  0  0  0  0
   -7.0107   -1.1756    1.2377 N   0  0  0  0  0  0  0  0  0  0  0  0
   -7.2604    0.6393    2.5665 O   0  0  0  0  0  0  0  0  0  0  0  0
   -2.2418    2.0395    0.0632 C   0  0  0  0  0  0  0  0  0  0  0  0
   -2.6168    2.7323   -1.0901 C   0  0  0  0  0  0  0  0  0  0  0  0
   -3.8331    3.4539   -1.1502 C   0  0  0  0  0  0  0  0  0  0  0  0
   -4.7249    3.4503   -0.0773 C   0  0  0  0  0  0  0  0  0  0  0  0
   -4.3240    2.8263    1.0969 C   0  0  0  0  0  0  0  0  0  0  0  0
   -3.0320    2.2199    1.1979 C   0  0  0  0  0  0  0  0  0  0  0  0
   -2.7058    1.4321    2.2332 F   0  0  0  0  0  0  0  0  0  0  0  0
    2.4807   -0.5628    0.9203 H   0  0  0  0  0  0  0  0  0  0  0  0
    2.5158   -0.5960   -0.8679 H   0  0  0  0  0  0  0  0  0  0  0  0
    2.6150    0.9383    0.0022 H   0  0  0  0  0  0  0  0  0  0  0  0
   -4.3905   -2.1873    0.1491 H   0  0  0  0  0  0  0  0  0  0  0  0
   -3.6468    0.4934    0.1064 H   0  0  0  0  0  0  0  0  0  0  0  0
   -5.1778    1.5433   -1.2984 H   0  0  0  0  0  0  0  0  0  0  0  0
   -4.3409    0.2730   -2.0839 H   0  0  0  0  0  0  0  0  0  0  0  0
   -5.5524   -2.0073   -1.8741 H   0  0  0  0  0  0  0  0  0  0  0  0
   -7.6702   -3.1140   -1.3299 H   0  0  0  0  0  0  0  0  0  0  0  0
   -9.7112   -1.7656   -0.8831 H   0  0  0  0  0  0  0  0  0  0  0  0
   -9.5589    0.7112   -0.7353 H   0  0  0  0  0  0  0  0  0  0  0  0
   -7.4263    1.8347   -1.2127 H   0  0  0  0  0  0  0  0  0  0  0  0
   -8.0033   -1.1592    1.0832 H   0  0  0  0  0  0  0  0  0  0  0  0
   -6.4660   -1.4052    0.4290 H   0  0  0  0  0  0  0  0  0  0  0  0
   -2.0373    2.5943   -1.9960 H   0  0  0  0  0  0  0  0  0  0  0  0
   -4.1785    3.8387   -2.1076 H   0  0  0  0  0  0  0  0  0  0  0  0
   -5.7696    3.7517   -0.2092 H   0  0  0  0  0  0  0  0  0  0  0  0
   -5.1306    2.6191    1.8103 H   0  0  0  0  0  0  0  0  0  0  0  0
  1  2  1  0  0  0  0
  1 30  1  0  0  0  0
  1 31  1  0  0  0  0
  1 32  1  0  0  0  0
  2  3  2  0  0  0  0
  2  6  1  0  0  0  0
  3  4  1  0  0  0  0
  4  5  2  0  0  0  0
  4 23  1  0  0  0  0
  5  6  1  0  0  0  0
  5  7  1  0  0  0  0
  7  8  2  0  0  0  0
  7  9  1  0  0  0  0
  9 10  1  0  0  0  0
  9 33  1  0  0  0  0
 10 11  1  0  0  0  0
 10 18  1  0  0  0  0
 10 34  1  0  0  0  0
 11 12  1  0  0  0  0
 11 35  1  0  0  0  0
 11 36  1  0  0  0  0
 12 13  2  0  0  0  0
 12 17  1  0  0  0  0
 13 14  1  0  0  0  0
 13 37  1  0  0  0  0
 14 15  2  0  0  0  0
 14 38  1  0  0  0  0
 15 16  1  0  0  0  0
 15 39  1  0  0  0  0
 16 17  2  0  0  0  0
 16 40  1  0  0  0  0
 17 41  1  0  0  0  0
 18 19  2  0  0  0  0
 18 20  1  0  0  0  0
 20 21  1  0  0  0  0
 20 22  2  0  0  0  0
 21 42  1  0  0  0  0
 21 43  1  0  0  0  0
 23 24  2  0  0  0  0
 23 28  1  0  0  0  0
 24 25  1  0  0  0  0
 24 44  1  0  0  0  0
 25 26  2  0  0  0  0
 25 45  1  0  0  0  0
 26 27  1  0  0  0  0
 26 46  1  0  0  0  0
 27 28  2  0  0  0  0
 27 47  1  0  0  0  0
 28 29  1  0  0  0  0
M  END
>  <DRUGBANK_ID>
DB18301

>  <COMMON_NAME>
Dazcapistat

>  <CAS_NUMBER>
2221010-42-8

>  <UNII>
AX895U92WU

>  <SYNONYMS>
5-oxazolecarboxamide, n-(3-amino-2,3-dioxo-1-(phenylmethyl)propyl)-4-(2-fluorophenyl)-2-methyl-; N-(3-amino-2,3-dioxo-1-(phenylmethyl)propyl)-4-(2-fluorophenyl)-2-methyl-5-oxazolecarboxamide; N-(4-amino-3,4-dioxo-1-phenylbutan-2-yl)-4-(2-fluorophenyl)-2-methyloxazole-5-carboxamide

$$$$
