
 OpenBabel10282417213D

 62 65  0  0  0  0  0  0  0  0999 V2000
    2.3865    0.3469   -0.8755 C   0  0  0  0  0  0  0  0  0  0  0  0
    2.1878   -5.8906   -0.5786 C   0  0  0  0  0  0  0  0  0  0  0  0
    1.8902   -6.3939    0.7219 C   0  0  0  0  0  0  0  0  0  0  0  0
    2.4276   -4.5783   -0.7195 C   0  0  0  0  0  0  0  0  0  0  0  0
   -1.2337    1.5210   -0.2342 C   0  0  0  0  0  0  0  0  0  0  0  0
   -2.0056    0.4003   -0.5200 C   0  0  0  0  0  0  0  0  0  0  0  0
    4.1202   -1.0412    4.8414 C   0  0  0  0  0  0  0  0  0  0  0  0
    4.6823   -0.3771    3.7036 C   0  0  0  0  0  0  0  0  0  0  0  0
    0.1626    1.5347   -0.4523 C   0  0  0  0  0  0  0  0  0  0  0  0
    1.6884   -5.5856    1.8992 C   0  0  0  0  0  0  0  0  0  0  0  0
    2.5401   -3.8193    0.5084 C   0  0  0  0  0  0  0  0  0  0  0  0
   -1.3924   -0.7036   -1.0664 C   0  0  0  0  0  0  0  0  0  0  0  0
    2.8670   -1.7069    4.8216 C   0  0  0  0  0  0  0  0  0  0  0  0
    4.0009   -0.2640    2.5596 C   0  0  0  0  0  0  0  0  0  0  0  0
   -1.9973   -2.4000    1.5192 C   0  0  0  0  0  0  0  0  0  0  0  0
   -0.2646   -0.9871    2.3099 C   0  0  0  0  0  0  0  0  0  0  0  0
   -1.0314   -3.3849    0.8589 C   0  0  0  0  0  0  0  0  0  0  0  0
    0.7189   -1.7190    1.3368 C   0  0  0  0  0  0  0  0  0  0  0  0
   -1.6460   -2.2730    3.9602 C   0  0  0  0  0  0  0  0  0  0  0  0
   -0.9745   -3.6671    4.2259 C   0  0  0  0  0  0  0  0  0  0  0  0
    0.4972   -2.1543   -0.8646 C   0  0  0  0  0  0  0  0  0  0  0  0
    0.8423    0.3833   -0.8645 C   0  0  0  0  0  0  0  0  0  0  0  0
    2.0425   -4.2675    1.8981 C   0  0  0  0  0  0  0  0  0  0  0  0
    0.0034   -0.7565   -1.0789 C   0  0  0  0  0  0  0  0  0  0  0  0
    2.1799   -1.6833    3.6689 C   0  0  0  0  0  0  0  0  0  0  0  0
    2.6783   -0.6531    2.6828 C   0  0  0  0  0  0  0  0  0  0  0  0
    1.4025   -3.2719    3.2993 C   0  0  3  0  0  0  0  0  0  0  0  0
    1.8330    0.9401    2.3207 Cl  0  0  0  0  0  0  0  0  0  0  0  0
   -1.5208   -1.6415    2.6563 N   0  0  0  0  0  0  0  0  0  0  0  0
    0.1764   -2.6916    0.4404 N   0  0  0  0  0  0  0  0  0  0  0  0
    0.5180   -3.7929    4.4142 O   0  0  0  0  0  0  0  0  0  0  0  0
    2.8833   -0.2117   -0.0727 H   0  0  0  0  0  0  0  0  0  0  0  0
    2.7729   -0.1400   -1.7766 H   0  0  0  0  0  0  0  0  0  0  0  0
    2.8195    1.3506   -0.7741 H   0  0  0  0  0  0  0  0  0  0  0  0
    2.2895   -6.5521   -1.4495 H   0  0  0  0  0  0  0  0  0  0  0  0
    1.8589   -7.4608    0.8268 H   0  0  0  0  0  0  0  0  0  0  0  0
    2.5158   -4.1251   -1.7370 H   0  0  0  0  0  0  0  0  0  0  0  0
   -1.7199    2.3641    0.2436 H   0  0  0  0  0  0  0  0  0  0  0  0
   -3.0285    0.2999   -0.1565 H   0  0  0  0  0  0  0  0  0  0  0  0
    4.7088   -1.0845    5.7292 H   0  0  0  0  0  0  0  0  0  0  0  0
    5.6380    0.1518    3.7589 H   0  0  0  0  0  0  0  0  0  0  0  0
    0.7173    2.4178   -0.1460 H   0  0  0  0  0  0  0  0  0  0  0  0
    1.2714   -6.0184    2.8096 H   0  0  0  0  0  0  0  0  0  0  0  0
    2.8666   -2.8201    0.2439 H   0  0  0  0  0  0  0  0  0  0  0  0
   -1.9332   -1.6518   -1.1431 H   0  0  0  0  0  0  0  0  0  0  0  0
    2.4698   -2.2762    5.6640 H   0  0  0  0  0  0  0  0  0  0  0  0
    4.3245    0.3823    1.7276 H   0  0  0  0  0  0  0  0  0  0  0  0
   -3.0352   -2.7257    1.5693 H   0  0  0  0  0  0  0  0  0  0  0  0
   -2.0805   -1.6086    0.8174 H   0  0  0  0  0  0  0  0  0  0  0  0
   -0.5123   -0.1245    1.7114 H   0  0  0  0  0  0  0  0  0  0  0  0
    0.1188   -0.5456    3.2376 H   0  0  0  0  0  0  0  0  0  0  0  0
   -0.8373   -4.2184    1.5568 H   0  0  0  0  0  0  0  0  0  0  0  0
   -1.4704   -3.9069    0.0115 H   0  0  0  0  0  0  0  0  0  0  0  0
    1.5446   -2.2243    1.7541 H   0  0  0  0  0  0  0  0  0  0  0  0
    1.5455   -1.1767    0.8890 H   0  0  0  0  0  0  0  0  0  0  0  0
   -1.3894   -1.5550    4.7491 H   0  0  0  0  0  0  0  0  0  0  0  0
   -2.7415   -2.3971    4.0626 H   0  0  0  0  0  0  0  0  0  0  0  0
   -1.4561   -4.0587    5.1382 H   0  0  0  0  0  0  0  0  0  0  0  0
   -1.3133   -4.3725    3.4602 H   0  0  0  0  0  0  0  0  0  0  0  0
    0.3252   -2.8804   -1.6377 H   0  0  0  0  0  0  0  0  0  0  0  0
    1.5679   -1.9718   -0.8785 H   0  0  0  0  0  0  0  0  0  0  0  0
    0.4901   -3.0460    2.8095 H   0  0  0  0  0  0  0  0  0  0  0  0
  1 32  1  0  0  0  0
  1 33  1  0  0  0  0
  1 34  1  0  0  0  0
  2 35  1  0  0  0  0
  3  2  2  0  0  0  0
  3 36  1  0  0  0  0
  4  2  1  0  0  0  0
  4 37  1  0  0  0  0
  5 38  1  0  0  0  0
  6  5  2  0  0  0  0
  6 39  1  0  0  0  0
  7 40  1  0  0  0  0
  8  7  2  0  0  0  0
  8 41  1  0  0  0  0
  9  5  1  0  0  0  0
  9 42  1  0  0  0  0
 10  3  1  0  0  0  0
 10 43  1  0  0  0  0
 11  4  2  0  0  0  0
 11 44  1  0  0  0  0
 12  6  1  0  0  0  0
 12 45  1  0  0  0  0
 13  7  1  0  0  0  0
 13 46  1  0  0  0  0
 14  8  1  0  0  0  0
 14 47  1  0  0  0  0
 15 48  1  0  0  0  0
 15 49  1  0  0  0  0
 16 50  1  0  0  0  0
 16 51  1  0  0  0  0
 17 15  1  0  0  0  0
 17 52  1  0  0  0  0
 17 53  1  0  0  0  0
 18 16  1  0  0  0  0
 18 54  1  0  0  0  0
 18 55  1  0  0  0  0
 19 56  1  0  0  0  0
 19 57  1  0  0  0  0
 20 19  1  0  0  0  0
 20 58  1  0  0  0  0
 20 59  1  0  0  0  0
 21 60  1  0  0  0  0
 21 61  1  0  0  0  0
 22  1  1  0  0  0  0
 22  9  2  0  0  0  0
 23 10  2  0  0  0  0
 23 11  1  0  0  0  0
 24 12  2  0  0  0  0
 24 21  1  0  0  0  0
 24 22  1  0  0  0  0
 25 13  2  0  0  0  0
 26 14  2  0  0  0  0
 26 25  1  0  0  0  0
 27 23  1  0  0  0  0
 27 25  1  0  0  0  0
 27 62  1  0  0  0  0
 28 26  1  0  0  0  0
 29 15  1  0  0  0  0
 29 16  1  0  0  0  0
 29 19  1  0  0  0  0
 30 17  1  0  0  0  0
 30 18  1  0  0  0  0
 30 21  1  0  0  0  0
 31 20  1  0  0  0  0
 31 27  1  0  0  0  0
M  END
>  <DRUGBANK_ID>
DB13788

>  <COMMON_NAME>
Chlorbenzoxamine

>  <CAS_NUMBER>
522-18-9

>  <UNII>
N52918SLYN

>  <SYNONYMS>
Chlorbenzoxamine

$$$$
