
 OpenBabel10282417153D

226231  0  0  0  0  0  0  0  0999 V2000
    0.8513    0.0862    0.2138 C   0  0  0  0  0  0  0  0  0  0  0  0
    0.3018   -1.0074    0.3864 O   0  0  0  0  0  0  0  0  0  0  0  0
    0.4794    2.4505    0.4358 N   0  0  0  0  0  0  0  0  0  0  0  0
    0.1594    1.2845   -0.3992 C   0  0  0  0  0  0  0  0  0  0  0  0
   -0.2132    4.0805    5.5016 C   0  0  0  0  0  0  0  0  0  0  0  0
   -1.3302    5.1169    6.7168 O   0  0  0  0  0  0  0  0  0  0  0  0
    1.3732    1.1207    1.6131 N   0  0  0  0  0  0  0  0  0  0  0  0
    0.8250    2.3455    3.5652 C   0  0  1  0  0  0  0  0  0  0  0  0
    2.5191    0.7039    2.5207 C   0  0  0  0  0  0  0  0  0  0  0  0
    3.0819   -0.3625    3.6005 S   0  0  0  0  0  0  0  0  0  0  0  0
   -1.1786    7.8912   10.5713 C   0  0  0  0  0  0  0  0  0  0  0  0
   -0.5333    8.8332   10.7210 O   0  0  0  0  0  0  0  0  0  0  0  0
   -1.4540    5.4409    7.1827 N   0  0  0  0  0  0  0  0  0  0  0  0
   -1.2791    6.6535    9.1423 C   0  0  1  0  0  0  0  0  0  0  0  0
   -0.9875    4.7367   10.1227 C   0  0  0  0  0  0  0  0  0  0  0  0
   -0.7325    3.4104    9.3635 S   0  0  0  0  0  0  0  0  0  0  0  0
   -3.1421    5.7504   12.6569 C   0  0  0  0  0  0  0  0  0  0  0  0
   -4.1396    5.7209   13.3777 O   0  0  0  0  0  0  0  0  0  0  0  0
   -2.2085    7.8644   11.4329 N   0  0  0  0  0  0  0  0  0  0  0  0
   -3.1477    6.8064   11.5254 C   0  0  1  0  0  0  0  0  0  0  0  0
   -3.3051    6.1865   10.2994 C   0  0  0  0  0  0  0  0  0  0  0  0
   -4.2764    5.3019   10.0811 O   0  0  0  0  0  0  0  0  0  0  0  0
    0.4365    5.1986   12.8793 C   0  0  0  0  0  0  0  0  0  0  0  0
    1.3865    4.4424   12.8623 O   0  0  0  0  0  0  0  0  0  0  0  0
   -2.0313    4.8975   12.8834 N   0  0  0  0  0  0  0  0  0  0  0  0
   -0.7904    4.9082   12.1888 C   0  0  1  0  0  0  0  0  0  0  0  0
   -0.7242    6.0527   11.3215 C   0  0  0  0  0  0  0  0  0  0  0  0
    0.5913    6.2274   10.6053 C   0  0  0  0  0  0  0  0  0  0  0  0
    0.8949    5.6934    9.6375 O   0  0  0  0  0  0  0  0  0  0  0  0
    1.6884    6.2892   11.1350 O   0  0  0  0  0  0  0  0  0  0  0  0
   -1.5557    8.0353   13.5597 C   0  0  0  0  0  0  0  0  0  0  0  0
   -2.7897    7.7164   13.6648 O   0  0  0  0  0  0  0  0  0  0  0  0
    0.5695    6.2759   13.5836 N   0  0  0  0  0  0  0  0  0  0  0  0
   -0.3389    6.8462   14.4214 C   0  0  1  0  0  0  0  0  0  0  0  0
    0.2950    7.6581   15.4682 C   0  0  0  0  0  0  0  0  0  0  0  0
    1.8717    7.6031   15.0228 C   0  0  0  0  0  0  0  0  0  0  0  0
    1.8084    7.0568   13.6423 C   0  0  0  0  0  0  0  0  0  0  0  0
    0.9877    8.1298    9.7790 C   0  0  0  0  0  0  0  0  0  0  0  0
    1.2575    7.9056   10.9577 O   0  0  0  0  0  0  0  0  0  0  0  0
   -1.1146    9.1381   12.8037 N   0  0  0  0  0  0  0  0  0  0  0  0
    0.5196    9.1891   11.8921 C   0  0  1  0  0  0  0  0  0  0  0  0
    0.9105    8.9077   13.6257 C   0  0  0  0  0  0  0  0  0  0  0  0
    0.9211    9.5276   14.9607 C   0  0  0  0  0  0  0  0  0  0  0  0
   -1.1195    9.4818   15.5837 C   0  0  0  0  0  0  0  0  0  0  0  0
   -1.6800    8.0016   15.5909 N   0  0  0  0  0  0  0  0  0  0  0  0
   -1.9534    7.2426   16.6153 C   0  0  0  0  0  0  0  0  0  0  0  0
   -2.4303    6.0593   16.4742 N   0  0  0  0  0  0  0  0  0  0  0  0
   -1.8586    7.9440   17.7820 N   0  0  0  0  0  0  0  0  0  0  0  0
   -0.2917    2.0921    5.9580 C   0  0  0  0  0  0  0  0  0  0  0  0
   -1.7623    1.4079    4.8608 O   0  0  0  0  0  0  0  0  0  0  0  0
    1.1806    6.5095    8.1937 N   0  0  0  0  0  0  0  0  0  0  0  0
    0.7565    4.2594    6.6528 C   0  0  1  0  0  0  0  0  0  0  0  0
    1.6042    3.2693    4.4260 C   0  0  0  0  0  0  0  0  0  0  0  0
    2.8000    2.0745    2.7917 S   0  0  0  0  0  0  0  0  0  0  0  0
    2.3105    2.9461    7.0955 C   0  0  0  0  0  0  0  0  0  0  0  0
    2.4000    3.2683    8.2767 O   0  0  0  0  0  0  0  0  0  0  0  0
    0.2673    1.2980    6.6012 N   0  0  0  0  0  0  0  0  0  0  0  0
    1.5139    1.5397    6.8142 C   0  0  1  0  0  0  0  0  0  0  0  0
    1.9624    0.9221    5.7121 C   0  0  0  0  0  0  0  0  0  0  0  0
    1.3200   -0.3493    5.3085 C   0  0  0  0  0  0  0  0  0  0  0  0
    0.6355   -0.5861    4.2926 O   0  0  0  0  0  0  0  0  0  0  0  0
    1.6517   -1.2361    6.2617 N   0  0  0  0  0  0  0  0  0  0  0  0
   -0.2364    4.9917    3.9647 C   0  0  0  0  0  0  0  0  0  0  0  0
   -0.4259    5.1405    2.8109 O   0  0  0  0  0  0  0  0  0  0  0  0
    2.4494    4.4043    5.7568 N   0  0  0  0  0  0  0  0  0  0  0  0
    1.0054    4.4461    4.1372 C   0  0  1  0  0  0  0  0  0  0  0  0
    0.2561    2.0120    4.6660 C   0  0  0  0  0  0  0  0  0  0  0  0
   -1.6242    1.6205    6.2331 C   0  0  0  0  0  0  0  0  0  0  0  0
   -1.7355    2.6766    6.5166 C   0  0  0  0  0  0  0  0  0  0  0  0
   -1.9760    2.6184    8.2777 C   0  0  0  0  0  0  0  0  0  0  0  0
   -2.4991    1.6982    8.5006 C   0  0  0  0  0  0  0  0  0  0  0  0
   -3.2049    1.9151    9.4425 O   0  0  0  0  0  0  0  0  0  0  0  0
   -1.8598    0.8290    7.8896 C   0  0  0  0  0  0  0  0  0  0  0  0
   -1.4575    0.5167    6.7321 C   0  0  0  0  0  0  0  0  0  0  0  0
   -2.4794    5.2553    8.6531 C   0  0  0  0  0  0  0  0  0  0  0  0
   -2.7367    4.1618    9.7438 O   0  0  0  0  0  0  0  0  0  0  0  0
   -1.6409    4.4342    5.4360 N   0  0  0  0  0  0  0  0  0  0  0  0
   -1.2945    3.9029    7.4959 C   0  0  1  0  0  0  0  0  0  0  0  0
    0.1032    2.9910    7.5054 C   0  0  0  0  0  0  0  0  0  0  0  0
    1.0967    3.0061    5.7111 C   0  0  0  0  0  0  0  0  0  0  0  0
    2.8162    3.2205    5.0761 O   0  0  0  0  0  0  0  0  0  0  0  0
   -1.0184    2.6865    4.7295 O   0  0  0  0  0  0  0  0  0  0  0  0
    0.9814    7.5196    6.9764 C   0  0  0  0  0  0  0  0  0  0  0  0
    1.8679    8.2695    7.3233 O   0  0  0  0  0  0  0  0  0  0  0  0
   -0.6599    5.2871    8.6587 N   0  0  0  0  0  0  0  0  0  0  0  0
    0.7845    5.3033    7.8473 C   0  0  1  0  0  0  0  0  0  0  0  0
    0.7190    6.0013    6.6587 C   0  0  0  0  0  0  0  0  0  0  0  0
   -0.8869    5.7569    5.3432 C   0  0  0  0  0  0  0  0  0  0  0  0
   -1.5781    7.2428    5.0087 C   0  0  0  0  0  0  0  0  0  0  0  0
   -2.9358    7.3541    5.3421 N   0  0  0  0  0  0  0  0  0  0  0  0
   -3.9421    5.3503    5.6224 C   0  0  0  0  0  0  0  0  0  0  0  0
   -2.9287    4.7814    4.9476 N   0  0  0  0  0  0  0  0  0  0  0  0
   -3.2876    6.5950    6.8817 C   0  0  0  0  0  0  0  0  0  0  0  0
   -3.8835    5.7423    7.3150 O   0  0  0  0  0  0  0  0  0  0  0  0
   -0.2048    8.5349    6.6908 N   0  0  0  0  0  0  0  0  0  0  0  0
   -2.2525    7.8405    7.0223 C   0  0  1  0  0  0  0  0  0  0  0  0
   -2.9117    8.9948    6.7511 C   0  0  0  0  0  0  0  0  0  0  0  0
   -1.5034    9.9479    5.9708 C   0  0  0  0  0  0  0  0  0  0  0  0
   -0.2791    9.3127    5.5758 C   0  0  0  0  0  0  0  0  0  0  0  0
   -0.8726    7.1866    2.7290 C   0  0  0  0  0  0  0  0  0  0  0  0
   -1.2079    6.6050    1.7492 O   0  0  0  0  0  0  0  0  0  0  0  0
   -3.5824    6.3585    4.5902 N   0  0  0  0  0  0  0  0  0  0  0  0
   -2.3474    7.7851    3.5792 C   0  0  1  0  0  0  0  0  0  0  0  0
   -2.0830    8.8695    4.4535 C   0  0  0  0  0  0  0  0  0  0  0  0
   -3.2277    9.5522    4.7528 C   0  0  0  0  0  0  0  0  0  0  0  0
   -4.4919    9.2469    5.3442 C   0  0  0  0  0  0  0  0  0  0  0  0
   -4.7367    9.6185    6.5176 O   0  0  0  0  0  0  0  0  0  0  0  0
   -4.8707    7.9643    4.9563 O   0  0  0  0  0  0  0  0  0  0  0  0
    1.0185    5.1170    5.4527 C   0  0  0  0  0  0  0  0  0  0  0  0
    1.9843    4.8572    7.0333 O   0  0  0  0  0  0  0  0  0  0  0  0
    0.7912    6.7287    3.5853 N   0  0  0  0  0  0  0  0  0  0  0  0
    0.8160    6.5369    4.9937 C   0  0  1  0  0  0  0  0  0  0  0  0
   -0.7722    6.9905    6.4130 C   0  0  2  0  0  0  0  0  0  0  0  0
   -0.7596    7.0433    7.5857 C   0  0  0  0  0  0  0  0  0  0  0  0
   -1.0837    8.5894    8.3037 C   0  0  0  0  0  0  0  0  0  0  0  0
   -2.2600    6.1842    5.9680 C   0  0  0  0  0  0  0  0  0  0  0  0
   -1.8800    5.2196    3.6192 C   0  0  0  0  0  0  0  0  0  0  0  0
   -0.8243    6.3636    3.9818 O   0  0  0  0  0  0  0  0  0  0  0  0
   -0.0990    3.5941    4.4350 N   0  0  0  0  0  0  0  0  0  0  0  0
   -1.9942    3.8722    3.9951 C   0  0  1  0  0  0  0  0  0  0  0  0
   -3.3358    3.2698    5.6184 C   0  0  0  0  0  0  0  0  0  0  0  0
   -3.5587    3.8294    7.9829 S   0  0  0  0  0  0  0  0  0  0  0  0
   -2.8061    5.7575    2.8820 N   0  0  0  0  0  0  0  0  0  0  0  0
   -0.0129    3.2491    0.1897 H   0  0  0  0  0  0  0  0  0  0  0  0
    0.2736    2.1618    1.4156 H   0  0  0  0  0  0  0  0  0  0  0  0
    0.4221    1.5116   -1.4131 H   0  0  0  0  0  0  0  0  0  0  0  0
   -0.9041    1.0898   -0.3258 H   0  0  0  0  0  0  0  0  0  0  0  0
    2.4242    0.9280    0.4253 H   0  0  0  0  0  0  0  0  0  0  0  0
    1.1062    0.7231    2.8475 H   0  0  0  0  0  0  0  0  0  0  0  0
    3.6211   -0.7020    2.1892 H   0  0  0  0  0  0  0  0  0  0  0  0
    4.0295    0.2058    1.7102 H   0  0  0  0  0  0  0  0  0  0  0  0
   -2.3452    6.4643    8.0511 H   0  0  0  0  0  0  0  0  0  0  0  0
   -0.2588    7.2219    9.0970 H   0  0  0  0  0  0  0  0  0  0  0  0
   -1.7223    4.7301   10.7624 H   0  0  0  0  0  0  0  0  0  0  0  0
   -0.0649    4.7830   10.4224 H   0  0  0  0  0  0  0  0  0  0  0  0
   -1.9785    8.3182   12.2302 H   0  0  0  0  0  0  0  0  0  0  0  0
   -4.0089    7.3756   11.4806 H   0  0  0  0  0  0  0  0  0  0  0  0
   -3.0135    6.8125    9.4932 H   0  0  0  0  0  0  0  0  0  0  0  0
   -2.6149    5.5619   10.1139 H   0  0  0  0  0  0  0  0  0  0  0  0
   -4.1957    4.6214   10.7763 H   0  0  0  0  0  0  0  0  0  0  0  0
   -2.0454    4.2198   13.6390 H   0  0  0  0  0  0  0  0  0  0  0  0
   -0.6695    3.9337   11.6189 H   0  0  0  0  0  0  0  0  0  0  0  0
   -1.5432    6.1729   10.5701 H   0  0  0  0  0  0  0  0  0  0  0  0
   -1.1879    6.7152   11.6713 H   0  0  0  0  0  0  0  0  0  0  0  0
    2.3388    6.6857   10.5176 H   0  0  0  0  0  0  0  0  0  0  0  0
   -1.0399    6.2223   14.9518 H   0  0  0  0  0  0  0  0  0  0  0  0
   -0.0198    8.6086   15.3590 H   0  0  0  0  0  0  0  0  0  0  0  0
   -0.0023    7.7247   16.5184 H   0  0  0  0  0  0  0  0  0  0  0  0
    2.4697    8.7649   15.2768 H   0  0  0  0  0  0  0  0  0  0  0  0
    2.1530    7.1444   15.8474 H   0  0  0  0  0  0  0  0  0  0  0  0
    2.7404    6.9724   13.3332 H   0  0  0  0  0  0  0  0  0  0  0  0
    1.6437    8.0161   12.5837 H   0  0  0  0  0  0  0  0  0  0  0  0
   -1.8039    9.6337   12.2134 H   0  0  0  0  0  0  0  0  0  0  0  0
    0.4237   10.4023   12.9313 H   0  0  0  0  0  0  0  0  0  0  0  0
    0.4316    7.9581   13.4857 H   0  0  0  0  0  0  0  0  0  0  0  0
    2.2761    8.7400   13.5513 H   0  0  0  0  0  0  0  0  0  0  0  0
    1.3451    8.7014   16.1487 H   0  0  0  0  0  0  0  0  0  0  0  0
    1.4664   10.2431   15.2046 H   0  0  0  0  0  0  0  0  0  0  0  0
   -0.6815    9.5922   16.5164 H   0  0  0  0  0  0  0  0  0  0  0  0
   -1.0980    9.9274   14.7009 H   0  0  0  0  0  0  0  0  0  0  0  0
   -1.7228    7.3808   14.8084 H   0  0  0  0  0  0  0  0  0  0  0  0
   -2.4528    5.5818   15.5536 H   0  0  0  0  0  0  0  0  0  0  0  0
   -1.4114    8.8601   17.8802 H   0  0  0  0  0  0  0  0  0  0  0  0
   -2.2910    7.5531   18.6115 H   0  0  0  0  0  0  0  0  0  0  0  0
    1.1180    7.9605    8.8904 H   0  0  0  0  0  0  0  0  0  0  0  0
   -0.0749    2.8458    5.5670 H   0  0  0  0  0  0  0  0  0  0  0  0
    1.9919    2.3878    4.4503 H   0  0  0  0  0  0  0  0  0  0  0  0
    0.7633    3.5183    3.1890 H   0  0  0  0  0  0  0  0  0  0  0  0
   -0.8441    1.8816    7.4383 H   0  0  0  0  0  0  0  0  0  0  0  0
    1.3495    1.0208    7.6444 H   0  0  0  0  0  0  0  0  0  0  0  0
    1.8346    1.2005    4.7774 H   0  0  0  0  0  0  0  0  0  0  0  0
    2.8803    1.2762    5.5653 H   0  0  0  0  0  0  0  0  0  0  0  0
    2.1771   -0.9781    7.0931 H   0  0  0  0  0  0  0  0  0  0  0  0
    1.3777   -2.1971    6.1221 H   0  0  0  0  0  0  0  0  0  0  0  0
    2.3520    5.2330    6.3395 H   0  0  0  0  0  0  0  0  0  0  0  0
    1.7440    4.6429    3.6226 H   0  0  0  0  0  0  0  0  0  0  0  0
   -0.3772    2.3826    3.1105 H   0  0  0  0  0  0  0  0  0  0  0  0
    0.3818    1.0591    4.5910 H   0  0  0  0  0  0  0  0  0  0  0  0
   -1.5484    3.4418    6.2362 H   0  0  0  0  0  0  0  0  0  0  0  0
   -2.0546    3.9643    8.5592 H   0  0  0  0  0  0  0  0  0  0  0  0
   -3.5228    2.8065    9.6855 H   0  0  0  0  0  0  0  0  0  0  0  0
   -1.8632   -0.0237    8.2142 H   0  0  0  0  0  0  0  0  0  0  0  0
   -0.5673    0.0602    6.1855 H   0  0  0  0  0  0  0  0  0  0  0  0
   -2.3672    5.0566    5.5560 H   0  0  0  0  0  0  0  0  0  0  0  0
   -2.7418    2.9446    7.1681 H   0  0  0  0  0  0  0  0  0  0  0  0
    0.8286    3.2564    7.8310 H   0  0  0  0  0  0  0  0  0  0  0  0
    0.1649    2.1599    7.7742 H   0  0  0  0  0  0  0  0  0  0  0  0
   -0.6744    3.3338    3.6382 H   0  0  0  0  0  0  0  0  0  0  0  0
   -0.1739    5.8270    9.1877 H   0  0  0  0  0  0  0  0  0  0  0  0
    1.9531    5.4654    8.2274 H   0  0  0  0  0  0  0  0  0  0  0  0
    2.0545    5.9562    5.5667 H   0  0  0  0  0  0  0  0  0  0  0  0
    0.3152    4.6543    7.7940 H   0  0  0  0  0  0  0  0  0  0  0  0
   -0.1674    7.4176    5.2426 H   0  0  0  0  0  0  0  0  0  0  0  0
   -3.6051    7.3834    4.7146 H   0  0  0  0  0  0  0  0  0  0  0  0
   -4.3103    4.8159    4.6862 H   0  0  0  0  0  0  0  0  0  0  0  0
   -2.1222    7.5913    7.8607 H   0  0  0  0  0  0  0  0  0  0  0  0
   -3.5357    8.3373    6.2664 H   0  0  0  0  0  0  0  0  0  0  0  0
   -3.3317    9.4807    7.4491 H   0  0  0  0  0  0  0  0  0  0  0  0
   -1.9208   10.5395    4.7106 H   0  0  0  0  0  0  0  0  0  0  0  0
   -1.4638   10.6608    6.5591 H   0  0  0  0  0  0  0  0  0  0  0  0
    0.4229    9.4429    5.0495 H   0  0  0  0  0  0  0  0  0  0  0  0
   -0.5007    8.1758    4.3334 H   0  0  0  0  0  0  0  0  0  0  0  0
   -3.2013    5.3871    4.2419 H   0  0  0  0  0  0  0  0  0  0  0  0
   -3.2730    7.7746    3.4120 H   0  0  0  0  0  0  0  0  0  0  0  0
   -1.9325    8.5286    5.8192 H   0  0  0  0  0  0  0  0  0  0  0  0
   -0.9294    9.2691    4.0575 H   0  0  0  0  0  0  0  0  0  0  0  0
   -2.9106   10.5773    5.6548 H   0  0  0  0  0  0  0  0  0  0  0  0
   -3.0579    9.8104    3.8145 H   0  0  0  0  0  0  0  0  0  0  0  0
   -5.5754    7.5344    5.4638 H   0  0  0  0  0  0  0  0  0  0  0  0
    0.9666    5.8238    3.1745 H   0  0  0  0  0  0  0  0  0  0  0  0
    1.4086    7.0160    5.5620 H   0  0  0  0  0  0  0  0  0  0  0  0
   -0.9073    8.1378    5.6200 H   0  0  0  0  0  0  0  0  0  0  0  0
   -0.2790    5.5337    7.2771 H   0  0  0  0  0  0  0  0  0  0  0  0
   -0.0896    6.7780    7.8571 H   0  0  0  0  0  0  0  0  0  0  0  0
   -2.5481    8.6930    8.2861 H   0  0  0  0  0  0  0  0  0  0  0  0
   -1.3264    8.4321    9.1353 H   0  0  0  0  0  0  0  0  0  0  0  0
   -0.8655    9.2911    7.7335 H   0  0  0  0  0  0  0  0  0  0  0  0
   -2.7495    4.7834    6.6110 H   0  0  0  0  0  0  0  0  0  0  0  0
   -3.9762    6.7600    5.9278 H   0  0  0  0  0  0  0  0  0  0  0  0
   -2.2256    6.3220    4.3393 H   0  0  0  0  0  0  0  0  0  0  0  0
   -0.3768    3.2798    6.2565 H   0  0  0  0  0  0  0  0  0  0  0  0
   -2.0985    3.1566    3.5633 H   0  0  0  0  0  0  0  0  0  0  0  0
   -4.1831    3.5120    5.2571 H   0  0  0  0  0  0  0  0  0  0  0  0
   -3.2415    2.4050    5.9611 H   0  0  0  0  0  0  0  0  0  0  0  0
   -3.6571    5.4464    3.0883 H   0  0  0  0  0  0  0  0  0  0  0  0
   -2.7006    6.6864    2.7417 H   0  0  0  0  0  0  0  0  0  0  0  0
  1  2  2  0  0  0  0
  1  4  1  0  0  0  0
  1  7  1  0  0  0  0
  3  4  1  0  0  0  0
  3124  1  0  0  0  0
  3125  1  0  0  0  0
  4126  1  0  0  0  0
  4127  1  0  0  0  0
  5  6  2  0  0  0  0
  5  8  1  0  0  0  0
  5 13  1  0  0  0  0
  7128  1  0  0  0  0
  8  7  1  0  0  0  0
  8  9  1  0  0  0  0
  8129  1  1  0  0  0
  9 10  1  0  0  0  0
  9130  1  0  0  0  0
  9131  1  0  0  0  0
 10 54  1  0  0  0  0
 11 12  2  0  0  0  0
 11 14  1  0  0  0  0
 11 19  1  0  0  0  0
 13132  1  0  0  0  0
 14 13  1  0  0  0  0
 14 15  1  0  0  0  0
 14133  1  1  0  0  0
 15 16  1  0  0  0  0
 15134  1  0  0  0  0
 15135  1  0  0  0  0
 16122  1  0  0  0  0
 17 18  2  0  0  0  0
 17 20  1  0  0  0  0
 17 25  1  0  0  0  0
 19136  1  0  0  0  0
 20 19  1  0  0  0  0
 20137  1  1  0  0  0
 20 21  1  0  0  0  0
 21 22  1  0  0  0  0
 21138  1  0  0  0  0
 21139  1  0  0  0  0
 22140  1  0  0  0  0
 23 24  2  0  0  0  0
 23 26  1  0  0  0  0
 23 33  1  0  0  0  0
 25141  1  0  0  0  0
 26 25  1  0  0  0  0
 26142  1  6  0  0  0
 26 27  1  0  0  0  0
 27 28  1  0  0  0  0
 27143  1  0  0  0  0
 27144  1  0  0  0  0
 28 29  2  0  0  0  0
 28 30  1  0  0  0  0
 30145  1  0  0  0  0
 31 32  2  0  0  0  0
 31 40  1  0  0  0  0
 33 34  1  0  0  0  0
 33 37  1  0  0  0  0
 34 31  1  0  0  0  0
 34 35  1  0  0  0  0
 34146  1  1  0  0  0
 35 36  1  0  0  0  0
 35147  1  0  0  0  0
 35148  1  0  0  0  0
 36 37  1  0  0  0  0
 36149  1  0  0  0  0
 36150  1  0  0  0  0
 37151  1  0  0  0  0
 37152  1  0  0  0  0
 38 39  2  0  0  0  0
 38 41  1  0  0  0  0
 38 51  1  0  0  0  0
 40 41  1  0  0  0  0
 40153  1  0  0  0  0
 41154  1  6  0  0  0
 41 42  1  0  0  0  0
 42 43  1  0  0  0  0
 42155  1  0  0  0  0
 42156  1  0  0  0  0
 43 44  1  0  0  0  0
 43157  1  0  0  0  0
 43158  1  0  0  0  0
 44 45  1  0  0  0  0
 44159  1  0  0  0  0
 44160  1  0  0  0  0
 45 46  1  0  0  0  0
 45161  1  0  0  0  0
 46 47  2  0  0  0  0
 46 48  1  0  0  0  0
 47162  1  0  0  0  0
 48163  1  0  0  0  0
 48164  1  0  0  0  0
 49 50  2  0  0  0  0
 49 52  1  0  0  0  0
 49 57  1  0  0  0  0
 51 52  1  0  0  0  0
 51165  1  0  0  0  0
 52 53  1  0  0  0  0
 52166  1  6  0  0  0
 53 54  1  0  0  0  0
 53167  1  0  0  0  0
 53168  1  0  0  0  0
 55 56  2  0  0  0  0
 55 58  1  0  0  0  0
 55 65  1  0  0  0  0
 57 58  1  0  0  0  0
 57169  1  0  0  0  0
 58170  1  1  0  0  0
 58 59  1  0  0  0  0
 59 60  1  0  0  0  0
 59171  1  0  0  0  0
 59172  1  0  0  0  0
 60 61  2  0  0  0  0
 60 62  1  0  0  0  0
 62173  1  0  0  0  0
 62174  1  0  0  0  0
 63 64  2  0  0  0  0
 63 66  1  0  0  0  0
 63 77  1  0  0  0  0
 65 66  1  0  0  0  0
 65175  1  0  0  0  0
 66176  1  6  0  0  0
 66 67  1  0  0  0  0
 67 68  1  0  0  0  0
 67177  1  0  0  0  0
 67178  1  0  0  0  0
 68 69  2  0  0  0  0
 68 74  1  0  0  0  0
 69 70  1  0  0  0  0
 69179  1  0  0  0  0
 70 71  2  0  0  0  0
 70180  1  0  0  0  0
 71 72  1  0  0  0  0
 71 73  1  0  0  0  0
 72181  1  0  0  0  0
 73 74  2  0  0  0  0
 73182  1  0  0  0  0
 74183  1  0  0  0  0
 75 76  2  0  0  0  0
 75 78  1  0  0  0  0
 75 85  1  0  0  0  0
 77 78  1  0  0  0  0
 77184  1  0  0  0  0
 78185  1  1  0  0  0
 78 79  1  0  0  0  0
 79 80  1  0  0  0  0
 79186  1  0  0  0  0
 79187  1  0  0  0  0
 80 81  2  0  0  0  0
 80 82  1  0  0  0  0
 82188  1  0  0  0  0
 83 84  2  0  0  0  0
 83 86  1  0  0  0  0
 83 95  1  0  0  0  0
 85 86  1  0  0  0  0
 85189  1  0  0  0  0
 86190  1  1  0  0  0
 86 87  1  0  0  0  0
 87 88  1  0  0  0  0
 87191  1  0  0  0  0
 87192  1  0  0  0  0
 88 89  2  0  0  0  0
 88 92  1  0  0  0  0
 89 90  1  0  0  0  0
 89193  1  0  0  0  0
 90 91  1  0  0  0  0
 90194  1  0  0  0  0
 91 92  2  0  0  0  0
 91195  1  0  0  0  0
 93 94  2  0  0  0  0
 93102  1  0  0  0  0
 95 96  1  0  0  0  0
 95 99  1  0  0  0  0
 96 93  1  0  0  0  0
 96 97  1  0  0  0  0
 96196  1  1  0  0  0
 97 98  1  0  0  0  0
 97197  1  0  0  0  0
 97198  1  0  0  0  0
 98 99  1  0  0  0  0
 98199  1  0  0  0  0
 98200  1  0  0  0  0
 99201  1  0  0  0  0
 99202  1  0  0  0  0
100101  2  0  0  0  0
100103  1  0  0  0  0
100111  1  0  0  0  0
102203  1  0  0  0  0
103102  1  0  0  0  0
103204  1  6  0  0  0
103104  1  0  0  0  0
104105  1  0  0  0  0
104205  1  0  0  0  0
104206  1  0  0  0  0
105106  1  0  0  0  0
105207  1  0  0  0  0
105208  1  0  0  0  0
106107  2  0  0  0  0
106108  1  0  0  0  0
108209  1  0  0  0  0
109110  2  0  0  0  0
109112  1  0  0  0  0
109119  1  0  0  0  0
111210  1  0  0  0  0
112111  1  0  0  0  0
112211  1  1  0  0  0
112113  1  0  0  0  0
113212  1  6  0  0  0
113116  1  0  0  0  0
113114  1  0  0  0  0
114115  1  0  0  0  0
114213  1  0  0  0  0
114214  1  0  0  0  0
115215  1  0  0  0  0
115216  1  0  0  0  0
115217  1  0  0  0  0
116218  1  0  0  0  0
116219  1  0  0  0  0
116220  1  0  0  0  0
117118  2  0  0  0  0
119221  1  0  0  0  0
120119  1  0  0  0  0
120121  1  0  0  0  0
120222  1  6  0  0  0
120117  1  0  0  0  0
121122  1  0  0  0  0
121223  1  0  0  0  0
121224  1  0  0  0  0
123117  1  0  0  0  0
123225  1  0  0  0  0
123226  1  0  0  0  0
M  END
>  <DRUGBANK_ID>
DB05724

>  <COMMON_NAME>
alpha-Conotoxin VC 1.1

>  <CAS_NUMBER>
467428-30-4

>  <UNII>
5U5J1KR8NU

>  <SYNONYMS>
ACV-1; alpha-Conotoxin VC 1.1; alpha-Conotoxin VC1.1

$$$$
