
 OpenBabel10282417183D

 65 69  0  0  1  0  0  0  0  0999 V2000
    2.4788   -0.0731    0.0530 C   0  0  0  0  0  0  0  0  0  0  0  0
    1.0926   -0.1625   -0.3864 N   0  0  0  0  0  0  0  0  0  0  0  0
    0.3626   -1.3058    0.1886 C   0  0  0  0  0  0  0  0  0  0  0  0
   -1.0579   -1.5204   -0.4266 C   0  0  0  0  0  0  0  0  0  0  0  0
   -1.9345   -0.3279   -0.4987 N   0  0  0  0  0  0  0  0  0  0  0  0
   -1.0557    0.9770   -0.7299 C   0  0  0  0  0  0  0  0  0  0  0  0
    0.3392    1.0188    0.0012 C   0  0  0  0  0  0  0  0  0  0  0  0
   -3.2637   -0.4999    0.0635 C   0  0  0  0  0  0  0  0  0  0  0  0
   -3.4418   -1.2072    1.2860 C   0  0  0  0  0  0  0  0  0  0  0  0
   -4.6161   -1.1314    2.0762 C   0  0  0  0  0  0  0  0  0  0  0  0
   -5.6352   -0.2115    1.8661 C   0  0  0  0  0  0  0  0  0  0  0  0
   -5.5044    0.5147    0.6748 C   0  0  0  0  0  0  0  0  0  0  0  0
   -4.3935    0.2937   -0.2470 C   0  0  0  0  0  0  0  0  0  0  0  0
   -6.8378   -0.0177    2.8132 C   0  0  0  0  0  0  0  0  0  0  0  0
   -7.7768    0.6502    2.4378 O   0  0  0  0  0  0  0  0  0  0  0  0
   -6.9402   -0.6971    4.0445 N   0  0  0  0  0  0  0  0  0  0  0  0
   -5.9417   -1.2774    4.7882 C   0  0  0  0  0  0  0  0  0  0  0  0
   -4.6743   -0.7568    5.0066 C   0  0  0  0  0  0  0  0  0  0  0  0
   -3.9069   -1.7008    5.5910 C   0  0  0  0  0  0  0  0  0  0  0  0
   -4.7135   -2.7782    5.7301 N   0  0  0  0  0  0  0  0  0  0  0  0
   -6.0067   -2.4989    5.3453 N   0  0  0  0  0  0  0  0  0  0  0  0
   -2.4966   -1.2982    5.7435 C   0  0  0  0  0  0  0  0  0  0  0  0
   -2.5896    0.1487    5.3024 N   0  0  0  0  0  0  0  0  0  0  0  0
   -3.9369    0.4459    4.7074 C   0  0  0  0  0  0  0  0  0  0  0  0
   -1.4236    0.9560    5.3338 C   0  0  0  0  0  0  0  0  0  0  0  0
   -0.3508    0.4160    5.6600 O   0  0  0  0  0  0  0  0  0  0  0  0
   -1.3647    2.5694    4.8317 C   0  0  1  0  0  0  0  0  0  0  0  0
   -1.6268    2.7314    3.3626 C   0  0  0  0  0  0  0  0  0  0  0  0
   -1.6736    1.5576    2.7405 C   0  0  0  0  0  0  0  0  0  0  0  0
   -2.3804    1.5916    1.6128 C   0  0  0  0  0  0  0  0  0  0  0  0
   -2.9470    2.6506    0.9204 C   0  0  0  0  0  0  0  0  0  0  0  0
   -2.6545    3.8722    1.4054 C   0  0  0  0  0  0  0  0  0  0  0  0
   -1.9824    3.9136    2.6352 C   0  0  0  0  0  0  0  0  0  0  0  0
   -2.1808    3.5419    5.4620 O   0  0  0  0  0  0  0  0  0  0  0  0
   -3.5184    3.1023    5.4615 C   0  0  0  0  0  0  0  0  0  0  0  0
    2.9554    0.8240   -0.3651 H   0  0  0  0  0  0  0  0  0  0  0  0
    2.5898   -0.0366    1.1420 H   0  0  0  0  0  0  0  0  0  0  0  0
    3.0384   -0.9281   -0.3367 H   0  0  0  0  0  0  0  0  0  0  0  0
    0.9313   -2.2163   -0.0134 H   0  0  0  0  0  0  0  0  0  0  0  0
    0.2934   -1.2041    1.2836 H   0  0  0  0  0  0  0  0  0  0  0  0
   -0.9368   -1.8375   -1.4615 H   0  0  0  0  0  0  0  0  0  0  0  0
   -1.5281   -2.3450    0.1153 H   0  0  0  0  0  0  0  0  0  0  0  0
   -0.9323    1.1345   -1.8001 H   0  0  0  0  0  0  0  0  0  0  0  0
   -1.4508    1.9319   -0.4300 H   0  0  0  0  0  0  0  0  0  0  0  0
    0.2760    1.0731    1.1007 H   0  0  0  0  0  0  0  0  0  0  0  0
    0.8717    1.9459   -0.2676 H   0  0  0  0  0  0  0  0  0  0  0  0
   -2.5915   -1.6337    1.8269 H   0  0  0  0  0  0  0  0  0  0  0  0
   -4.6028   -1.7650    2.9439 H   0  0  0  0  0  0  0  0  0  0  0  0
   -6.2202    1.3133    0.4601 H   0  0  0  0  0  0  0  0  0  0  0  0
   -4.3747    0.8980   -1.1478 H   0  0  0  0  0  0  0  0  0  0  0  0
   -7.8888   -0.8585    4.3653 H   0  0  0  0  0  0  0  0  0  0  0  0
   -4.4911   -3.7235    6.0272 H   0  0  0  0  0  0  0  0  0  0  0  0
   -1.8341   -1.8425    5.0591 H   0  0  0  0  0  0  0  0  0  0  0  0
   -2.1280   -1.3291    6.7676 H   0  0  0  0  0  0  0  0  0  0  0  0
   -4.5647    1.1754    5.1987 H   0  0  0  0  0  0  0  0  0  0  0  0
   -3.8477    0.6761    3.6574 H   0  0  0  0  0  0  0  0  0  0  0  0
   -0.3137    2.8714    4.9360 H   0  0  0  0  0  0  0  0  0  0  0  0
   -1.3264    0.5822    3.0754 H   0  0  0  0  0  0  0  0  0  0  0  0
   -2.1861    0.6366    1.2448 H   0  0  0  0  0  0  0  0  0  0  0  0
   -3.3385    2.5220   -0.0893 H   0  0  0  0  0  0  0  0  0  0  0  0
   -2.9263    4.7267    0.7971 H   0  0  0  0  0  0  0  0  0  0  0  0
   -1.7631    4.8886    3.0389 H   0  0  0  0  0  0  0  0  0  0  0  0
   -3.8658    2.8645    4.4403 H   0  0  0  0  0  0  0  0  0  0  0  0
   -3.5150    2.2609    6.1506 H   0  0  0  0  0  0  0  0  0  0  0  0
   -4.2405    3.7970    5.8702 H   0  0  0  0  0  0  0  0  0  0  0  0
  1  2  1  0  0  0  0
  1 36  1  0  0  0  0
  1 37  1  0  0  0  0
  1 38  1  0  0  0  0
  2  3  1  0  0  0  0
  2  7  1  0  0  0  0
  3  4  1  0  0  0  0
  3 39  1  0  0  0  0
  3 40  1  0  0  0  0
  4  5  1  0  0  0  0
  4 41  1  0  0  0  0
  4 42  1  0  0  0  0
  5  6  1  0  0  0  0
  5  8  1  0  0  0  0
  6  7  1  0  0  0  0
  6 43  1  0  0  0  0
  6 44  1  0  0  0  0
  7 45  1  0  0  0  0
  7 46  1  0  0  0  0
  8  9  2  0  0  0  0
  8 13  1  0  0  0  0
  9 10  1  0  0  0  0
  9 47  1  0  0  0  0
 10 11  2  0  0  0  0
 10 48  1  0  0  0  0
 11 12  1  0  0  0  0
 11 14  1  0  0  0  0
 12 13  2  0  0  0  0
 12 49  1  0  0  0  0
 13 50  1  0  0  0  0
 14 15  2  0  0  0  0
 14 16  1  0  0  0  0
 16 17  1  0  0  0  0
 16 51  1  0  0  0  0
 17 18  1  0  0  0  0
 17 21  2  0  0  0  0
 18 19  2  0  0  0  0
 18 24  1  0  0  0  0
 19 20  1  0  0  0  0
 19 22  1  0  0  0  0
 20 21  1  0  0  0  0
 20 52  1  0  0  0  0
 22 23  1  0  0  0  0
 22 53  1  0  0  0  0
 22 54  1  0  0  0  0
 23 24  1  0  0  0  0
 23 25  1  0  0  0  0
 24 55  1  0  0  0  0
 24 56  1  0  0  0  0
 25 26  2  0  0  0  0
 25 27  1  0  0  0  0
 27 28  1  0  0  0  0
 27 34  1  0  0  0  0
 27 57  1  1  0  0  0
 28 29  2  0  0  0  0
 28 33  1  0  0  0  0
 29 30  1  0  0  0  0
 29 58  1  0  0  0  0
 30 31  2  0  0  0  0
 30 59  1  0  0  0  0
 31 32  1  0  0  0  0
 31 60  1  0  0  0  0
 32 33  2  0  0  0  0
 32 61  1  0  0  0  0
 33 62  1  0  0  0  0
 34 35  1  0  0  0  0
 35 63  1  0  0  0  0
 35 64  1  0  0  0  0
 35 65  1  0  0  0  0
M  END
>  <DRUGBANK_ID>
DB11778

>  <COMMON_NAME>
Danusertib

>  <CAS_NUMBER>
827318-97-8

>  <UNII>
M3X659D0FY

>  <SYNONYMS>
Danusertib

$$$$
