
 OpenBabel10282417223D

 36 36  0  0  0  0  0  0  0  0999 V2000
    0.9905    0.2622    0.0053 C   0  0  0  0  0  0  0  0  0  0  0  0
    0.2927    1.0198   -1.0821 C   0  0  0  0  0  0  0  0  0  0  0  0
    0.3273   -0.2370    1.0755 C   0  0  0  0  0  0  0  0  0  0  0  0
   -0.8271    1.5177   -0.9320 O   0  0  0  0  0  0  0  0  0  0  0  0
    1.0136   -0.6307    2.3261 C   0  0  0  0  0  0  0  0  0  0  0  0
    2.2192   -0.9681    4.8699 C   0  0  0  0  0  0  0  0  0  0  0  0
    0.8999    0.7747   -2.2897 O   0  0  0  0  0  0  0  0  0  0  0  0
    2.0763    0.1764    2.7499 C   0  0  0  0  0  0  0  0  0  0  0  0
    0.5423   -1.6108    3.2117 C   0  0  0  0  0  0  0  0  0  0  0  0
    1.1240   -1.7517    4.4895 C   0  0  0  0  0  0  0  0  0  0  0  0
    2.6776    0.0087    3.9951 C   0  0  0  0  0  0  0  0  0  0  0  0
    2.7681   -1.2326    6.0966 O   0  0  0  0  0  0  0  0  0  0  0  0
   -1.7194   -0.8340   -3.2163 O   0  0  0  0  0  0  0  0  0  0  0  0
    0.1126    0.9651   -3.5165 C   0  0  0  0  0  0  0  0  0  0  0  0
   -0.7115   -0.2574   -4.0589 C   0  0  0  0  0  0  0  0  0  0  0  0
   -1.1953   -1.3762   -2.0225 C   0  0  0  0  0  0  0  0  0  0  0  0
    3.9676   -0.5233    6.4108 C   0  0  0  0  0  0  0  0  0  0  0  0
   -0.1649   -2.4730   -2.1064 C   0  0  0  0  0  0  0  0  0  0  0  0
    2.0630    0.1567   -0.0954 H   0  0  0  0  0  0  0  0  0  0  0  0
   -0.7609   -0.2123    1.1377 H   0  0  0  0  0  0  0  0  0  0  0  0
    2.4347    0.9865    2.1214 H   0  0  0  0  0  0  0  0  0  0  0  0
   -0.2805   -2.2698    2.9405 H   0  0  0  0  0  0  0  0  0  0  0  0
    0.7109   -2.4679    5.1989 H   0  0  0  0  0  0  0  0  0  0  0  0
    3.4854    0.6835    4.2512 H   0  0  0  0  0  0  0  0  0  0  0  0
   -0.5238    1.8498   -3.4204 H   0  0  0  0  0  0  0  0  0  0  0  0
    0.8522    1.1870   -4.2986 H   0  0  0  0  0  0  0  0  0  0  0  0
   -1.2370    0.0588   -4.9702 H   0  0  0  0  0  0  0  0  0  0  0  0
   -0.0490   -1.0650   -4.3795 H   0  0  0  0  0  0  0  0  0  0  0  0
   -0.5720   -0.6257   -1.6749 H   0  0  0  0  0  0  0  0  0  0  0  0
   -1.9261   -1.4294   -1.2094 H   0  0  0  0  0  0  0  0  0  0  0  0
    4.7465   -0.6874    5.6557 H   0  0  0  0  0  0  0  0  0  0  0  0
    3.7624    0.5459    6.5322 H   0  0  0  0  0  0  0  0  0  0  0  0
    4.3526   -0.8983    7.3634 H   0  0  0  0  0  0  0  0  0  0  0  0
    0.6326   -2.2134   -2.8117 H   0  0  0  0  0  0  0  0  0  0  0  0
    0.3334   -2.5686   -1.1335 H   0  0  0  0  0  0  0  0  0  0  0  0
   -0.6135   -3.4142   -2.4022 H   0  0  0  0  0  0  0  0  0  0  0  0
  1 19  1  0  0  0  0
  2  1  1  0  0  0  0
  3  1  2  0  0  0  0
  3 20  1  0  0  0  0
  4  2  2  0  0  0  0
  5  3  1  0  0  0  0
  6 10  2  0  0  0  0
  7  2  1  0  0  0  0
  8  5  1  0  0  0  0
  8 21  1  0  0  0  0
  9  5  2  0  0  0  0
  9 22  1  0  0  0  0
 10  9  1  0  0  0  0
 10 23  1  0  0  0  0
 11  8  2  0  0  0  0
 11  6  1  0  0  0  0
 11 24  1  0  0  0  0
 12  6  1  0  0  0  0
 13 15  1  0  0  0  0
 14  7  1  0  0  0  0
 14 25  1  0  0  0  0
 14 26  1  0  0  0  0
 15 14  1  0  0  0  0
 15 27  1  0  0  0  0
 15 28  1  0  0  0  0
 16 13  1  0  0  0  0
 16 29  1  0  0  0  0
 16 30  1  0  0  0  0
 17 12  1  0  0  0  0
 17 31  1  0  0  0  0
 17 32  1  0  0  0  0
 17 33  1  0  0  0  0
 18 16  1  0  0  0  0
 18 34  1  0  0  0  0
 18 35  1  0  0  0  0
 18 36  1  0  0  0  0
M  END
>  <DRUGBANK_ID>
DB15467

>  <COMMON_NAME>
Cinoxate

>  <CAS_NUMBER>
104-28-9

>  <UNII>
5437O7N5BH

>  <SYNONYMS>
2-Ethoxyethyl-p-methoxycinnamate; Cinoxate; Cinoxato; Cinoxatum

$$$$
