TXS
 OpenBabel10282417173D

 42 44  0  0  0  0  0  0  0  0999 V2000
    0.9341    0.2152    5.3595 C   0  0  0  0  0  0  0  0  0  0  0  0
    1.8346   -0.4800    4.4472 C   0  0  0  0  0  0  0  0  0  0  0  0
    1.4799   -1.9209    4.5449 C   0  0  0  0  0  0  0  0  0  0  0  0
    0.0269   -1.9572    4.8988 C   0  0  0  0  0  0  0  0  0  0  0  0
   -0.3213   -0.5331    5.0690 N   0  0  0  0  0  0  0  0  0  0  0  0
   -0.9462   -0.0504    3.7624 C   0  0  0  0  0  0  0  0  0  0  0  0
   -0.2992   -0.1871    2.1992 C   0  0  2  0  0  0  0  0  0  0  0  0
    0.0040   -1.5783    1.7743 O   0  0  0  0  0  0  0  0  0  0  0  0
    0.9856    0.6154    1.7941 C   0  0  2  0  0  0  0  0  0  0  0  0
    0.8250    1.2437    0.5258 O   0  0  0  0  0  0  0  0  0  0  0  0
    2.1201   -0.4388    1.6014 C   0  0  0  0  0  0  0  0  0  0  0  0
    1.4090   -1.7509    1.2645 C   0  0  1  0  0  0  0  0  0  0  0  0
    2.0436   -3.1067    1.8110 N   0  0  0  0  0  0  0  0  0  0  0  0
    1.2453   -4.2587    1.7259 C   0  0  0  0  0  0  0  0  0  0  0  0
    1.4527   -5.3718    2.4500 C   0  0  0  0  0  0  0  0  0  0  0  0
    0.6831   -6.6477    2.3545 C   0  0  0  0  0  0  0  0  0  0  0  0
    2.5283   -5.3984    3.4730 C   0  0  0  0  0  0  0  0  0  0  0  0
    2.6996   -6.3118    4.2351 O   0  0  0  0  0  0  0  0  0  0  0  0
    3.3249   -4.2858    3.4507 N   0  0  0  0  0  0  0  0  0  0  0  0
    3.2092   -3.1734    2.6403 C   0  0  0  0  0  0  0  0  0  0  0  0
    4.0466   -2.2852    2.8140 O   0  0  0  0  0  0  0  0  0  0  0  0
   -1.1375    0.1816    1.5812 H   0  0  0  0  0  0  0  0  0  0  0  0
    1.1917    1.4312    2.5066 H   0  0  0  0  0  0  0  0  0  0  0  0
    1.3404   -1.8433    0.1762 H   0  0  0  0  0  0  0  0  0  0  0  0
    1.4245    0.0919    6.3263 H   0  0  0  0  0  0  0  0  0  0  0  0
    0.8716    1.2757    5.0847 H   0  0  0  0  0  0  0  0  0  0  0  0
    1.3443   -0.2260    3.5645 H   0  0  0  0  0  0  0  0  0  0  0  0
    2.8306   -0.0676    4.2761 H   0  0  0  0  0  0  0  0  0  0  0  0
    1.4087   -2.3594    3.5866 H   0  0  0  0  0  0  0  0  0  0  0  0
    2.1711   -2.4922    5.1504 H   0  0  0  0  0  0  0  0  0  0  0  0
   -0.5734   -2.4154    4.0908 H   0  0  0  0  0  0  0  0  0  0  0  0
   -0.0828   -2.6279    5.7502 H   0  0  0  0  0  0  0  0  0  0  0  0
   -1.9228   -0.5634    3.7443 H   0  0  0  0  0  0  0  0  0  0  0  0
   -1.2010    1.0048    3.9481 H   0  0  0  0  0  0  0  0  0  0  0  0
    0.7538    0.5286   -0.1262 H   0  0  0  0  0  0  0  0  0  0  0  0
    2.9564   -0.0966    0.9892 H   0  0  0  0  0  0  0  0  0  0  0  0
    2.6877   -0.6761    2.4776 H   0  0  0  0  0  0  0  0  0  0  0  0
    0.4113   -4.2031    1.0333 H   0  0  0  0  0  0  0  0  0  0  0  0
    1.3649   -7.4534    2.0581 H   0  0  0  0  0  0  0  0  0  0  0  0
    0.2308   -6.9254    3.3141 H   0  0  0  0  0  0  0  0  0  0  0  0
   -0.1101   -6.5815    1.6072 H   0  0  0  0  0  0  0  0  0  0  0  0
    4.0160   -4.2487    4.1860 H   0  0  0  0  0  0  0  0  0  0  0  0
  1  2  1  0  0  0  0
  1  5  1  0  0  0  0
  1 25  1  0  0  0  0
  1 26  1  0  0  0  0
  2  3  1  0  0  0  0
  2 27  1  0  0  0  0
  2 28  1  0  0  0  0
  3  4  1  0  0  0  0
  3 29  1  0  0  0  0
  3 30  1  0  0  0  0
  4  5  1  0  0  0  0
  4 31  1  0  0  0  0
  4 32  1  0  0  0  0
  5  6  1  0  0  0  0
  6 33  1  0  0  0  0
  6 34  1  0  0  0  0
  7  8  1  0  0  0  0
  7  9  1  0  0  0  0
  7 22  1  6  0  0  0
  7  6  1  0  0  0  0
  8 12  1  0  0  0  0
  9 10  1  0  0  0  0
  9 11  1  0  0  0  0
  9 23  1  1  0  0  0
 10 35  1  0  0  0  0
 11 12  1  0  0  0  0
 11 36  1  0  0  0  0
 11 37  1  0  0  0  0
 12 13  1  0  0  0  0
 12 24  1  6  0  0  0
 13 14  1  0  0  0  0
 13 20  1  0  0  0  0
 14 15  2  0  0  0  0
 14 38  1  0  0  0  0
 15 16  1  0  0  0  0
 15 17  1  0  0  0  0
 16 39  1  0  0  0  0
 16 40  1  0  0  0  0
 16 41  1  0  0  0  0
 17 18  2  0  0  0  0
 17 19  1  0  0  0  0
 19 20  1  0  0  0  0
 19 42  1  0  0  0  0
 20 21  2  0  0  0  0
M  END
>  <DRUGBANK_ID>
DB08661

>  <COMMON_NAME>
1-(2,5-dideoxy-5-pyrrolidin-1-yl-beta-L-erythro-pentofuranosyl)-5-methylpyrimidine-2,4(1H,3H)-dione

$$$$
