
 OpenBabel10282417223D

 50 52  0  0  1  0  0  0  0  0999 V2000
    0.5150    0.2474   -2.4313 C   0  0  0  0  0  0  0  0  0  0  0  0
    0.3901    0.7961   -1.0471 C   0  0  2  0  0  0  0  0  0  0  0  0
    1.1104   -0.0071   -0.0882 N   0  0  0  0  0  0  0  0  0  0  0  0
    2.4728   -0.1520    0.0433 C   0  0  0  0  0  0  0  0  0  0  0  0
    2.8666   -0.8661    0.9490 O   0  0  0  0  0  0  0  0  0  0  0  0
    3.4686    0.6414   -0.8457 C   0  0  0  0  0  0  0  0  0  0  0  0
    3.5745    0.2600   -2.2645 N   0  0  0  0  0  0  0  0  0  0  0  0
    3.2443    1.0657   -3.3500 C   0  0  0  0  0  0  0  0  0  0  0  0
    2.9145    0.3374   -4.4057 N   0  0  0  0  0  0  0  0  0  0  0  0
    3.1271   -0.9715   -4.0390 C   0  0  0  0  0  0  0  0  0  0  0  0
    3.6130   -1.0347   -2.7330 C   0  0  0  0  0  0  0  0  0  0  0  0
    3.9445   -2.2386   -2.1270 C   0  0  0  0  0  0  0  0  0  0  0  0
    4.4026   -2.2710   -0.8721 F   0  0  0  0  0  0  0  0  0  0  0  0
    3.8385   -3.3980   -2.8837 C   0  0  0  0  0  0  0  0  0  0  0  0
    4.2587   -4.5600   -2.3669 F   0  0  0  0  0  0  0  0  0  0  0  0
    3.3226   -3.3738   -4.1762 C   0  0  0  0  0  0  0  0  0  0  0  0
    2.9067   -2.1644   -4.7537 C   0  0  0  0  0  0  0  0  0  0  0  0
   -1.0739    0.8035   -0.8756 C   0  0  0  0  0  0  0  0  0  0  0  0
   -1.7215    2.0307   -0.8704 C   0  0  0  0  0  0  0  0  0  0  0  0
   -3.0922    2.0451   -0.9220 C   0  0  0  0  0  0  0  0  0  0  0  0
   -3.8211    0.8468   -0.8421 C   0  0  0  0  0  0  0  0  0  0  0  0
   -3.1406   -0.3772   -0.7898 C   0  0  0  0  0  0  0  0  0  0  0  0
   -1.7828   -0.3981   -0.9479 C   0  0  0  0  0  0  0  0  0  0  0  0
   -5.3379    0.8396   -0.8599 C   0  0  0  0  0  0  0  0  0  0  0  0
   -5.8196   -0.0227   -2.0419 C   0  0  0  0  0  0  0  0  0  0  0  0
   -5.8386    0.2527    0.4681 C   0  0  0  0  0  0  0  0  0  0  0  0
   -5.9071    2.2581   -1.0300 C   0  0  0  0  0  0  0  0  0  0  0  0
    0.4256   -0.8364   -2.5468 H   0  0  0  0  0  0  0  0  0  0  0  0
    1.5190    0.4278   -2.5490 H   0  0  0  0  0  0  0  0  0  0  0  0
    0.0457    0.8093   -3.2398 H   0  0  0  0  0  0  0  0  0  0  0  0
    0.8083    1.8082   -0.9734 H   0  0  0  0  0  0  0  0  0  0  0  0
    0.5685   -0.5659    0.5657 H   0  0  0  0  0  0  0  0  0  0  0  0
    3.2272    1.7068   -0.7852 H   0  0  0  0  0  0  0  0  0  0  0  0
    4.4725    0.4899   -0.4376 H   0  0  0  0  0  0  0  0  0  0  0  0
    2.9656    2.1106   -3.2355 H   0  0  0  0  0  0  0  0  0  0  0  0
    3.2691   -4.2997   -4.7409 H   0  0  0  0  0  0  0  0  0  0  0  0
    2.4606   -2.1459   -5.7443 H   0  0  0  0  0  0  0  0  0  0  0  0
   -1.1678    2.9654   -0.9085 H   0  0  0  0  0  0  0  0  0  0  0  0
   -3.5627    3.0163   -1.0263 H   0  0  0  0  0  0  0  0  0  0  0  0
   -3.6512   -1.3276   -0.6708 H   0  0  0  0  0  0  0  0  0  0  0  0
   -1.2867   -1.3395   -1.1812 H   0  0  0  0  0  0  0  0  0  0  0  0
   -5.4813   -1.0629   -1.9661 H   0  0  0  0  0  0  0  0  0  0  0  0
   -6.9115   -0.0409   -2.0886 H   0  0  0  0  0  0  0  0  0  0  0  0
   -5.4405    0.3679   -2.9947 H   0  0  0  0  0  0  0  0  0  0  0  0
   -5.4716    0.8389    1.3195 H   0  0  0  0  0  0  0  0  0  0  0  0
   -6.9310    0.2453    0.4991 H   0  0  0  0  0  0  0  0  0  0  0  0
   -5.4995   -0.7793    0.6184 H   0  0  0  0  0  0  0  0  0  0  0  0
   -5.5861    2.9136   -0.2101 H   0  0  0  0  0  0  0  0  0  0  0  0
   -5.5660    2.7071   -1.9728 H   0  0  0  0  0  0  0  0  0  0  0  0
   -6.9979    2.2549   -1.0412 H   0  0  0  0  0  0  0  0  0  0  0  0
  1 28  1  0  0  0  0
  1 29  1  0  0  0  0
  1 30  1  0  0  0  0
  2 18  1  0  0  0  0
  2 31  1  1  0  0  0
  2  3  1  0  0  0  0
  2  1  1  0  0  0  0
  3  4  1  0  0  0  0
  3 32  1  0  0  0  0
  4  5  2  0  0  0  0
  4  6  1  0  0  0  0
  6  7  1  0  0  0  0
  6 33  1  0  0  0  0
  6 34  1  0  0  0  0
  7  8  1  0  0  0  0
  7 11  1  0  0  0  0
  8  9  2  0  0  0  0
  8 35  1  0  0  0  0
  9 10  1  0  0  0  0
 10 11  2  0  0  0  0
 10 17  1  0  0  0  0
 11 12  1  0  0  0  0
 12 13  1  0  0  0  0
 12 14  2  0  0  0  0
 14 15  1  0  0  0  0
 14 16  1  0  0  0  0
 16 17  2  0  0  0  0
 16 36  1  0  0  0  0
 17 37  1  0  0  0  0
 18 19  2  0  0  0  0
 18 23  1  0  0  0  0
 19 20  1  0  0  0  0
 19 38  1  0  0  0  0
 20 21  2  0  0  0  0
 20 39  1  0  0  0  0
 21 22  1  0  0  0  0
 21 24  1  0  0  0  0
 22 23  2  0  0  0  0
 22 40  1  0  0  0  0
 23 41  1  0  0  0  0
 24 25  1  0  0  0  0
 24 26  1  0  0  0  0
 24 27  1  0  0  0  0
 25 42  1  0  0  0  0
 25 43  1  0  0  0  0
 25 44  1  0  0  0  0
 26 45  1  0  0  0  0
 26 46  1  0  0  0  0
 26 47  1  0  0  0  0
 27 48  1  0  0  0  0
 27 49  1  0  0  0  0
 27 50  1  0  0  0  0
M  END
>  <DRUGBANK_ID>
DB15333

>  <COMMON_NAME>
AZD-1386

>  <CAS_NUMBER>
942937-80-6

>  <UNII>
210323T9CP

$$$$
