656
 OpenBabel10282417103D

 48 51  0  0  0  0  0  0  0  0999 V2000
   -2.1887   -0.1192   -0.0225 Cl  0  0  0  0  0  0  0  0  0  0  0  0
    6.6609    4.9730   -1.7129 O   0  0  0  0  0  0  0  0  0  0  0  0
    3.4404    4.9662   -0.6881 N   0  0  0  0  0  0  0  0  0  0  0  0
    1.9272    2.5276   -0.1930 N   0  0  0  0  0  0  0  0  0  0  0  0
    6.6596    2.6899   -0.9329 N   0  0  0  0  0  0  0  0  0  0  0  0
    7.7496    3.3144   -2.6954 N   0  0  0  0  0  0  0  0  0  0  0  0
    7.0043    1.5205   -1.6041 N   0  0  0  0  0  0  0  0  0  0  0  0
    2.2583    4.9253    0.1776 C   0  0  0  0  0  0  0  0  0  0  0  0
    3.3141    3.9041   -1.7239 C   0  0  0  0  0  0  0  0  0  0  0  0
    2.0579    3.5557    0.8648 C   0  0  0  0  0  0  0  0  0  0  0  0
    2.9637    2.4888   -1.1853 C   0  0  0  0  0  0  0  0  0  0  0  0
    4.6715    5.0752    0.1261 C   0  0  0  0  0  0  0  0  0  0  0  0
    5.3418    3.8875    0.8819 C   0  0  0  0  0  0  0  0  0  0  0  0
    5.6258    2.6885    0.0149 C   0  0  0  0  0  0  0  0  0  0  0  0
    1.5057    1.2383    0.1143 C   0  0  0  0  0  0  0  0  0  0  0  0
    0.1308    1.1446    0.1130 C   0  0  0  0  0  0  0  0  0  0  0  0
    2.2900    0.0550    0.1086 C   0  0  0  0  0  0  0  0  0  0  0  0
    6.9564    3.7774   -1.7461 C   0  0  0  0  0  0  0  0  0  0  0  0
    7.7450    1.9744   -2.5628 C   0  0  0  0  0  0  0  0  0  0  0  0
   -0.4783   -0.0858    0.0531 C   0  0  0  0  0  0  0  0  0  0  0  0
    1.6715   -1.1938    0.0521 C   0  0  0  0  0  0  0  0  0  0  0  0
    0.2795   -1.2553    0.0163 C   0  0  0  0  0  0  0  0  0  0  0  0
    8.5580    4.0903   -3.4453 C   0  0  0  0  0  0  0  0  0  0  0  0
    8.6526    1.2529   -3.4472 C   0  0  0  0  0  0  0  0  0  0  0  0
    9.4745    3.4673   -4.1737 C   0  0  0  0  0  0  0  0  0  0  0  0
    9.5024    2.0098   -4.1692 C   0  0  0  0  0  0  0  0  0  0  0  0
    2.3245    5.7497    0.8947 H   0  0  0  0  0  0  0  0  0  0  0  0
    1.3794    5.1300   -0.4455 H   0  0  0  0  0  0  0  0  0  0  0  0
    2.5005    4.1839   -2.4119 H   0  0  0  0  0  0  0  0  0  0  0  0
    4.1948    3.8730   -2.3800 H   0  0  0  0  0  0  0  0  0  0  0  0
    2.8794    3.3425    1.5488 H   0  0  0  0  0  0  0  0  0  0  0  0
    1.1830    3.6062    1.5159 H   0  0  0  0  0  0  0  0  0  0  0  0
    3.6710    1.9937   -0.5573 H   0  0  0  0  0  0  0  0  0  0  0  0
    2.9203    1.7513   -1.9998 H   0  0  0  0  0  0  0  0  0  0  0  0
    5.3844    5.5682   -0.4999 H   0  0  0  0  0  0  0  0  0  0  0  0
    4.5537    5.8894    0.8490 H   0  0  0  0  0  0  0  0  0  0  0  0
    6.2708    4.1854    1.3674 H   0  0  0  0  0  0  0  0  0  0  0  0
    4.6933    3.5926    1.7075 H   0  0  0  0  0  0  0  0  0  0  0  0
    5.4502    1.7069    0.4835 H   0  0  0  0  0  0  0  0  0  0  0  0
    4.9525    2.8357   -0.7655 H   0  0  0  0  0  0  0  0  0  0  0  0
   -0.4239    2.0736    0.0226 H   0  0  0  0  0  0  0  0  0  0  0  0
    3.3819    0.0646    0.0721 H   0  0  0  0  0  0  0  0  0  0  0  0
    2.2642   -2.1063    0.0004 H   0  0  0  0  0  0  0  0  0  0  0  0
   -0.2181   -2.2150   -0.0507 H   0  0  0  0  0  0  0  0  0  0  0  0
    8.4453    5.1678   -3.3256 H   0  0  0  0  0  0  0  0  0  0  0  0
    8.6565    0.1763   -3.3840 H   0  0  0  0  0  0  0  0  0  0  0  0
   10.1848    4.0579   -4.7317 H   0  0  0  0  0  0  0  0  0  0  0  0
   10.2632    1.5456   -4.7739 H   0  0  0  0  0  0  0  0  0  0  0  0
  1 20  1  0  0  0  0
  2 18  2  0  0  0  0
  3  8  1  0  0  0  0
  3  9  1  0  0  0  0
  3 12  1  0  0  0  0
  4 10  1  0  0  0  0
  4 11  1  0  0  0  0
  4 15  1  0  0  0  0
  5  7  1  0  0  0  0
  5 14  1  0  0  0  0
  5 18  1  0  0  0  0
  6 18  1  0  0  0  0
  6 19  1  0  0  0  0
  6 23  1  0  0  0  0
  7 19  2  0  0  0  0
  8 10  1  0  0  0  0
  8 27  1  0  0  0  0
  8 28  1  0  0  0  0
  9 11  1  0  0  0  0
  9 29  1  0  0  0  0
  9 30  1  0  0  0  0
 10 31  1  0  0  0  0
 10 32  1  0  0  0  0
 11 33  1  0  0  0  0
 11 34  1  0  0  0  0
 12 13  1  0  0  0  0
 12 35  1  0  0  0  0
 12 36  1  0  0  0  0
 13 14  1  0  0  0  0
 13 37  1  0  0  0  0
 13 38  1  0  0  0  0
 14 39  1  0  0  0  0
 14 40  1  0  0  0  0
 15 16  2  0  0  0  0
 15 17  1  0  0  0  0
 16 20  1  0  0  0  0
 16 41  1  0  0  0  0
 17 21  2  0  0  0  0
 17 42  1  0  0  0  0
 19 24  1  0  0  0  0
 20 22  2  0  0  0  0
 21 22  1  0  0  0  0
 21 43  1  0  0  0  0
 22 44  1  0  0  0  0
 23 25  2  0  0  0  0
 23 45  1  0  0  0  0
 24 26  2  0  0  0  0
 24 46  1  0  0  0  0
 25 26  1  0  0  0  0
 25 47  1  0  0  0  0
 26 48  1  0  0  0  0
M  END
>  <DRUGBANK_ID>
DB00656

>  <SECONDARY_ACCESSION_NUMBERS>
APRD00533

>  <COMMON_NAME>
Trazodone

>  <CAS_NUMBER>
19794-93-5

>  <UNII>
YBK48BXK30

>  <SYNONYMS>
2-(3-[4-(3-chlorophenyl)-1-piperazinyl]propyl)[1,2,4]triazolo[4,3-a]pyridin-3(2H)-one; Trazodona; Trazodone; Trazodonum

$$$$
