
 OpenBabel10282417133D

169173  0  0  0  0  0  0  0  0999 V2000
  -14.0913   -2.2166   -4.1443 O   0  0  0  0  0  0  0  0  0  0  0  0
  -15.2415   -2.1772   -4.2405 C   0  0  0  0  0  0  0  0  0  0  0  0
  -15.8033   -0.3288   -3.1371 C   0  0  1  0  0  0  0  0  0  0  0  0
  -14.9086    0.7370   -3.5141 C   0  0  0  0  0  0  0  0  0  0  0  0
  -13.1654   -0.0857   -4.5237 C   0  0  0  0  0  0  0  0  0  0  0  0
  -17.3320    0.0151   -3.6464 C   0  0  0  0  0  0  0  0  0  0  0  0
  -16.2940   -3.1108   -4.2064 N   0  0  0  0  0  0  0  0  0  0  0  0
  -17.5170   -2.5609   -4.0091 C   0  0  1  0  0  0  0  0  0  0  0  0
  -18.7185   -3.9586   -3.9794 O   0  0  0  0  0  0  0  0  0  0  0  0
  -18.1912   -1.1623   -3.4011 C   0  0  1  0  0  0  0  0  0  0  0  0
  -18.7360   -1.2951   -2.1294 C   0  0  0  0  0  0  0  0  0  0  0  0
  -17.9447   -1.6737   -6.1886 C   0  0  1  0  0  0  0  0  0  0  0  0
  -17.7528   -1.8188   -7.5720 C   0  0  0  0  0  0  0  0  0  0  0  0
  -19.2913   -1.0355   -6.0700 C   0  0  1  0  0  0  0  0  0  0  0  0
  -19.1044   -0.2422   -7.6721 O   0  0  0  0  0  0  0  0  0  0  0  0
  -20.6740   -2.6048   -5.5648 C   0  0  1  0  0  0  0  0  0  0  0  0
  -20.5163   -2.3984   -7.7099 C   0  0  0  0  0  0  0  0  0  0  0  0
  -20.4171   -3.0969   -4.2449 C   0  0  2  0  0  0  0  0  0  0  0  0
  -21.6453   -2.4199   -4.6933 C   0  0  0  0  0  0  0  0  0  0  0  0
  -22.0461   -3.9997   -4.9576 C   0  0  2  0  0  0  0  0  0  0  0  0
  -22.6242   -4.3995   -3.8145 O   0  0  0  0  0  0  0  0  0  0  0  0
  -20.6694   -4.8716   -5.2759 C   0  0  1  0  0  0  0  0  0  0  0  0
  -20.9971   -6.2229   -5.4124 C   0  0  0  0  0  0  0  0  0  0  0  0
  -19.8953   -4.4319   -6.5162 C   0  0  0  0  0  0  0  0  0  0  0  0
  -19.3199   -3.0999   -6.3327 C   0  0  0  0  0  0  0  0  0  0  0  0
  -18.5150   -2.5495   -5.1371 C   0  0  0  0  0  0  0  0  0  0  0  0
  -16.8342   -1.3288   -5.1127 C   0  0  0  0  0  0  0  0  0  0  0  0
  -15.0248   -0.0089   -5.0085 C   0  0  0  0  0  0  0  0  0  0  0  0
  -13.5290    1.5359   -5.5526 C   0  0  0  0  0  0  0  0  0  0  0  0
  -14.6830   -0.3290   -5.8824 C   0  0  0  0  0  0  0  0  0  0  0  0
  -11.7034    3.5882   -5.7620 C   0  0  1  0  0  0  0  0  0  0  0  0
  -10.1527    5.5798   -6.7669 O   0  0  0  0  0  0  0  0  0  0  0  0
  -12.5059    2.2328   -3.7971 C   0  0  0  0  0  0  0  0  0  0  0  0
  -13.7912    2.4091   -3.6362 C   0  0  0  0  0  0  0  0  0  0  0  0
  -14.7150    2.8942   -4.3365 C   0  0  0  0  0  0  0  0  0  0  0  0
  -14.1467    3.2761   -5.4936 C   0  0  0  0  0  0  0  0  0  0  0  0
  -14.9048    4.0386   -6.0780 C   0  0  0  0  0  0  0  0  0  0  0  0
  -14.3378    4.7875   -7.1466 C   0  0  2  0  0  0  0  0  0  0  0  0
  -13.0243    4.3866   -7.5324 O   0  0  0  0  0  0  0  0  0  0  0  0
  -14.3080    6.2445   -6.7296 C   0  0  2  0  0  0  0  0  0  0  0  0
  -15.6970    6.6988   -6.3429 C   0  0  0  0  0  0  0  0  0  0  0  0
  -13.8239    7.0934   -7.8804 C   0  0  1  0  0  0  0  0  0  0  0  0
  -14.6679    6.9353   -9.0047 O   0  0  0  0  0  0  0  0  0  0  0  0
  -13.7569    8.5607   -7.4776 C   0  0  1  0  0  0  0  0  0  0  0  0
  -12.9271    8.7505   -6.2546 C   0  0  0  0  0  0  0  0  0  0  0  0
  -11.6351    8.3931   -6.4854 C   0  0  0  0  0  0  0  0  0  0  0  0
  -11.1342    9.6354   -7.4093 C   0  0  0  0  0  0  0  0  0  0  0  0
   -9.8579   10.2418   -7.2945 C   0  0  0  0  0  0  0  0  0  0  0  0
  -11.0940    9.7302   -8.6359 O   0  0  0  0  0  0  0  0  0  0  0  0
  -13.3507    9.4089   -8.6916 C   0  0  0  0  0  0  0  0  0  0  0  0
  -14.0029   10.3631   -9.0801 O   0  0  0  0  0  0  0  0  0  0  0  0
  -12.3838    8.9175   -9.5908 N   0  0  0  0  0  0  0  0  0  0  0  0
  -11.1909    7.7971   -8.8314 C   0  0  1  0  0  0  0  0  0  0  0  0
  -10.7381    6.9313   -9.7895 C   0  0  0  0  0  0  0  0  0  0  0  0
  -10.1207    7.5751  -10.8880 C   0  0  0  0  0  0  0  0  0  0  0  0
   -9.8686    5.9414   -9.1708 C   0  0  0  0  0  0  0  0  0  0  0  0
  -10.1482    8.1045   -7.8682 C   0  0  0  0  0  0  0  0  0  0  0  0
   -9.7294    7.9593   -6.4922 O   0  0  0  0  0  0  0  0  0  0  0  0
   -9.2864    8.7078   -9.1107 N   0  0  0  0  0  0  0  0  0  0  0  0
   -9.1966    9.6553  -10.5016 C   0  0  1  0  0  0  0  0  0  0  0  0
   -9.4843   11.0283  -10.7890 C   0  0  0  0  0  0  0  0  0  0  0  0
   -8.3557   11.7460  -10.2490 C   0  0  0  0  0  0  0  0  0  0  0  0
   -7.1777   11.3262  -10.6178 C   0  0  0  0  0  0  0  0  0  0  0  0
   -5.8446   12.1130  -10.1685 C   0  0  0  0  0  0  0  0  0  0  0  0
   -4.2169   11.1095   -9.7827 O   0  0  0  0  0  0  0  0  0  0  0  0
   -5.6180   13.2879   -9.9317 C   0  0  0  0  0  0  0  0  0  0  0  0
   -6.8336   13.7743   -9.9690 C   0  0  0  0  0  0  0  0  0  0  0  0
   -8.1137   13.0811  -10.1507 C   0  0  0  0  0  0  0  0  0  0  0  0
   -8.0519    8.9289  -11.4484 C   0  0  0  0  0  0  0  0  0  0  0  0
   -8.3560    7.9911  -12.1766 O   0  0  0  0  0  0  0  0  0  0  0  0
   -6.6362    8.9182  -11.4163 N   0  0  0  0  0  0  0  0  0  0  0  0
   -5.9183    9.0988   -9.9798 N   0  0  0  0  0  0  0  0  0  0  0  0
   -5.8666    9.5919  -12.4820 C   0  0  0  0  0  0  0  0  0  0  0  0
   -5.5305   10.9821  -12.4523 C   0  0  0  0  0  0  0  0  0  0  0  0
   -5.4908   10.4862  -10.6851 C   0  0  0  0  0  0  0  0  0  0  0  0
   -6.9203    9.2442   -8.9624 C   0  0  1  0  0  0  0  0  0  0  0  0
   -8.5697    7.4674   -7.7989 C   0  0  0  0  0  0  0  0  0  0  0  0
   -8.0392    9.1608   -8.6010 O   0  0  0  0  0  0  0  0  0  0  0  0
   -5.7914   10.6915   -8.8174 H   0  0  0  0  0  0  0  0  0  0  0  0
  -15.2480   -0.4557   -2.3815 H   0  0  0  0  0  0  0  0  0  0  0  0
  -15.5917    1.2547   -4.3550 H   0  0  0  0  0  0  0  0  0  0  0  0
  -14.9291    1.6484   -2.7215 H   0  0  0  0  0  0  0  0  0  0  0  0
  -13.3879   -0.5291   -5.2868 H   0  0  0  0  0  0  0  0  0  0  0  0
  -12.4609    0.5085   -5.0984 H   0  0  0  0  0  0  0  0  0  0  0  0
  -13.1138   -0.1377   -3.6633 H   0  0  0  0  0  0  0  0  0  0  0  0
  -17.4693    0.8972   -3.2027 H   0  0  0  0  0  0  0  0  0  0  0  0
  -17.5506    0.2328   -4.7457 H   0  0  0  0  0  0  0  0  0  0  0  0
  -16.0293   -3.9518   -3.9103 H   0  0  0  0  0  0  0  0  0  0  0  0
  -19.1047   -1.0941   -3.9812 H   0  0  0  0  0  0  0  0  0  0  0  0
  -17.9854   -0.9875   -1.4545 H   0  0  0  0  0  0  0  0  0  0  0  0
  -19.5820   -0.6347   -2.1515 H   0  0  0  0  0  0  0  0  0  0  0  0
  -19.0415   -2.3114   -1.9754 H   0  0  0  0  0  0  0  0  0  0  0  0
  -16.5370   -2.4696   -6.0774 H   0  0  0  0  0  0  0  0  0  0  0  0
  -18.7282   -1.7797   -7.6080 H   0  0  0  0  0  0  0  0  0  0  0  0
  -17.4550   -0.8707   -7.8112 H   0  0  0  0  0  0  0  0  0  0  0  0
  -17.6695   -2.7466   -7.9282 H   0  0  0  0  0  0  0  0  0  0  0  0
  -19.5765   -0.3165   -5.4990 H   0  0  0  0  0  0  0  0  0  0  0  0
  -19.0600   -1.1700   -8.6269 H   0  0  0  0  0  0  0  0  0  0  0  0
  -21.2198   -3.2263   -6.2020 H   0  0  0  0  0  0  0  0  0  0  0  0
  -20.2262   -1.3390   -7.7117 H   0  0  0  0  0  0  0  0  0  0  0  0
  -19.7999   -3.0320   -8.2225 H   0  0  0  0  0  0  0  0  0  0  0  0
  -21.3273   -1.9665   -8.0196 H   0  0  0  0  0  0  0  0  0  0  0  0
  -20.8202   -3.2699   -3.4083 H   0  0  0  0  0  0  0  0  0  0  0  0
  -22.1881   -2.0865   -3.9075 H   0  0  0  0  0  0  0  0  0  0  0  0
  -21.5517   -1.3972   -5.3165 H   0  0  0  0  0  0  0  0  0  0  0  0
  -22.6149   -4.0330   -5.8623 H   0  0  0  0  0  0  0  0  0  0  0  0
  -23.5260   -4.2158   -4.0802 H   0  0  0  0  0  0  0  0  0  0  0  0
  -20.0534   -4.7856   -4.4044 H   0  0  0  0  0  0  0  0  0  0  0  0
  -21.6448   -6.2971   -6.2627 H   0  0  0  0  0  0  0  0  0  0  0  0
  -20.0791   -6.7523   -5.5686 H   0  0  0  0  0  0  0  0  0  0  0  0
  -21.4857   -6.5403   -4.5153 H   0  0  0  0  0  0  0  0  0  0  0  0
  -18.9809   -4.8513   -6.6674 H   0  0  0  0  0  0  0  0  0  0  0  0
  -20.5877   -4.3737   -7.3546 H   0  0  0  0  0  0  0  0  0  0  0  0
  -18.9089   -2.9859   -7.1274 H   0  0  0  0  0  0  0  0  0  0  0  0
  -20.4320   -1.7515   -6.4820 H   0  0  0  0  0  0  0  0  0  0  0  0
  -19.1106   -2.4733   -4.1161 H   0  0  0  0  0  0  0  0  0  0  0  0
  -16.6563   -1.2264   -6.4759 H   0  0  0  0  0  0  0  0  0  0  0  0
  -16.0925   -1.1712   -4.0547 H   0  0  0  0  0  0  0  0  0  0  0  0
  -14.7284    0.5468   -6.2694 H   0  0  0  0  0  0  0  0  0  0  0  0
  -13.9444   -1.5000   -6.0283 H   0  0  0  0  0  0  0  0  0  0  0  0
  -15.4371   -0.9687   -6.4720 H   0  0  0  0  0  0  0  0  0  0  0  0
  -11.5387    2.3204   -4.7394 H   0  0  0  0  0  0  0  0  0  0  0  0
  -13.5727    1.1753   -2.7682 H   0  0  0  0  0  0  0  0  0  0  0  0
  -13.1060    1.0641   -2.5395 H   0  0  0  0  0  0  0  0  0  0  0  0
  -12.9071    1.4199   -3.8876 H   0  0  0  0  0  0  0  0  0  0  0  0
  -15.6198    2.5832   -3.8781 H   0  0  0  0  0  0  0  0  0  0  0  0
  -13.1777    2.8935   -5.9292 H   0  0  0  0  0  0  0  0  0  0  0  0
  -15.8359    4.1347   -5.5853 H   0  0  0  0  0  0  0  0  0  0  0  0
  -14.9957    4.6618   -7.9898 H   0  0  0  0  0  0  0  0  0  0  0  0
  -12.7455    3.5365   -7.1790 H   0  0  0  0  0  0  0  0  0  0  0  0
  -13.6397    6.3529   -5.8758 H   0  0  0  0  0  0  0  0  0  0  0  0
  -16.1258    7.2789   -7.1510 H   0  0  0  0  0  0  0  0  0  0  0  0
  -16.3074    5.8255   -6.2014 H   0  0  0  0  0  0  0  0  0  0  0  0
  -15.7230    7.2931   -5.4342 H   0  0  0  0  0  0  0  0  0  0  0  0
  -12.8692    6.7189   -8.1657 H   0  0  0  0  0  0  0  0  0  0  0  0
  -14.6769    6.0013   -9.2734 H   0  0  0  0  0  0  0  0  0  0  0  0
  -14.7492    8.8895   -7.1944 H   0  0  0  0  0  0  0  0  0  0  0  0
  -12.8216    9.7715   -5.9608 H   0  0  0  0  0  0  0  0  0  0  0  0
  -13.1978    8.1323   -5.4310 H   0  0  0  0  0  0  0  0  0  0  0  0
  -11.0855    8.5973   -5.6288 H   0  0  0  0  0  0  0  0  0  0  0  0
  -11.4935    7.2157   -6.6990 H   0  0  0  0  0  0  0  0  0  0  0  0
   -9.1269    9.9053   -7.8564 H   0  0  0  0  0  0  0  0  0  0  0  0
   -9.8942   11.1164   -7.8081 H   0  0  0  0  0  0  0  0  0  0  0  0
   -9.2484    9.8686   -6.5600 H   0  0  0  0  0  0  0  0  0  0  0  0
  -11.6814    9.7097   -9.9300 H   0  0  0  0  0  0  0  0  0  0  0  0
  -11.6855    7.5292   -8.0606 H   0  0  0  0  0  0  0  0  0  0  0  0
  -11.6714    6.6135  -10.0977 H   0  0  0  0  0  0  0  0  0  0  0  0
   -9.1443    7.8540  -10.5213 H   0  0  0  0  0  0  0  0  0  0  0  0
   -9.8074    6.9660  -11.6383 H   0  0  0  0  0  0  0  0  0  0  0  0
  -10.7228    8.3774  -11.3899 H   0  0  0  0  0  0  0  0  0  0  0  0
  -10.4010    5.4515   -8.4004 H   0  0  0  0  0  0  0  0  0  0  0  0
   -9.6208    5.2385   -9.8992 H   0  0  0  0  0  0  0  0  0  0  0  0
   -8.9499    6.3208   -8.8021 H   0  0  0  0  0  0  0  0  0  0  0  0
   -8.0072    8.6638   -8.0049 H   0  0  0  0  0  0  0  0  0  0  0  0
  -10.1562    9.3500  -10.5316 H   0  0  0  0  0  0  0  0  0  0  0  0
   -9.6063   11.1635  -11.8474 H   0  0  0  0  0  0  0  0  0  0  0  0
  -10.1811   11.4896  -10.1725 H   0  0  0  0  0  0  0  0  0  0  0  0
   -7.1096   10.2927  -10.6482 H   0  0  0  0  0  0  0  0  0  0  0  0
   -4.2290    9.9898  -10.3965 H   0  0  0  0  0  0  0  0  0  0  0  0
   -4.6532   13.5679   -9.8047 H   0  0  0  0  0  0  0  0  0  0  0  0
   -6.8148   14.8042   -9.7555 H   0  0  0  0  0  0  0  0  0  0  0  0
   -8.9644   13.6880  -10.1927 H   0  0  0  0  0  0  0  0  0  0  0  0
   -5.0042    8.9842   -9.7663 H   0  0  0  0  0  0  0  0  0  0  0  0
   -4.9701    9.0295  -12.3779 H   0  0  0  0  0  0  0  0  0  0  0  0
   -6.4061    9.4917  -13.3511 H   0  0  0  0  0  0  0  0  0  0  0  0
   -6.3105   11.6928  -12.4500 H   0  0  0  0  0  0  0  0  0  0  0  0
   -4.7856   11.2452  -13.2427 H   0  0  0  0  0  0  0  0  0  0  0  0
   -4.5684   12.0208  -11.1909 H   0  0  0  0  0  0  0  0  0  0  0  0
   -3.8640   10.7370  -11.3342 H   0  0  0  0  0  0  0  0  0  0  0  0
  2  7  1  0  0  0  0
  2  1  2  0  0  0  0
  3  2  1  0  0  0  0
  3 80  1  1  0  0  0
  3  4  1  0  0  0  0
  4  5  1  0  0  0  0
  4 81  1  0  0  0  0
  4 82  1  0  0  0  0
  5 83  1  0  0  0  0
  5 84  1  0  0  0  0
  5 85  1  0  0  0  0
  6  3  1  0  0  0  0
  6 86  1  0  0  0  0
  6 87  1  0  0  0  0
  7 88  1  0  0  0  0
  8  7  1  0  0  0  0
  8  9  1  1  0  0  0
  8 10  1  0  0  0  0
 10  6  1  0  0  0  0
 10 11  1  0  0  0  0
 10 89  1  6  0  0  0
 11 90  1  0  0  0  0
 11 91  1  0  0  0  0
 11 92  1  0  0  0  0
 12  8  1  0  0  0  0
 12 93  1  1  0  0  0
 12 13  1  0  0  0  0
 13 94  1  0  0  0  0
 13 95  1  0  0  0  0
 13 96  1  0  0  0  0
 14 12  1  0  0  0  0
 14 97  1  1  0  0  0
 14 15  1  0  0  0  0
 15 98  1  0  0  0  0
 16 14  1  0  0  0  0
 16 99  1  1  0  0  0
 16 17  1  0  0  0  0
 17100  1  0  0  0  0
 17101  1  0  0  0  0
 17102  1  0  0  0  0
 18  9  1  0  0  0  0
 18 16  1  0  0  0  0
 18103  1  6  0  0  0
 18 19  1  0  0  0  0
 19104  1  0  0  0  0
 19105  1  0  0  0  0
 20106  1  6  0  0  0
 20 21  1  0  0  0  0
 20 19  1  0  0  0  0
 21107  1  0  0  0  0
 22 20  1  0  0  0  0
 22 23  1  0  0  0  0
 22108  1  1  0  0  0
 23109  1  0  0  0  0
 23110  1  0  0  0  0
 23111  1  0  0  0  0
 24 22  1  0  0  0  0
 24112  1  0  0  0  0
 24113  1  0  0  0  0
 25 24  1  0  0  0  0
 25114  1  0  0  0  0
 25115  1  0  0  0  0
 26 25  1  0  0  0  0
 26116  1  0  0  0  0
 27 26  2  0  0  0  0
 27117  1  0  0  0  0
 28 27  1  0  0  0  0
 28118  1  0  0  0  0
 29 28  2  0  0  0  0
 29 30  1  0  0  0  0
 30119  1  0  0  0  0
 30120  1  0  0  0  0
 30121  1  0  0  0  0
 31 32  1  0  0  0  0
 31122  1  6  0  0  0
 31 29  1  0  0  0  0
 33 31  1  0  0  0  0
 33123  1  0  0  0  0
 33124  1  0  0  0  0
 34 33  1  0  0  0  0
 34125  1  0  0  0  0
 35 34  2  0  0  0  0
 35126  1  0  0  0  0
 36 35  1  0  0  0  0
 36127  1  0  0  0  0
 37 36  2  0  0  0  0
 37128  1  0  0  0  0
 38 37  1  0  0  0  0
 38129  1  6  0  0  0
 38 39  1  0  0  0  0
 39130  1  0  0  0  0
 40 38  1  0  0  0  0
 40131  1  1  0  0  0
 40 41  1  0  0  0  0
 41132  1  0  0  0  0
 41133  1  0  0  0  0
 41134  1  0  0  0  0
 42 40  1  0  0  0  0
 42 43  1  0  0  0  0
 42135  1  6  0  0  0
 43136  1  0  0  0  0
 44 42  1  0  0  0  0
 44 45  1  0  0  0  0
 44137  1  1  0  0  0
 45 46  1  0  0  0  0
 45138  1  0  0  0  0
 45139  1  0  0  0  0
 46 47  1  0  0  0  0
 46140  1  0  0  0  0
 46141  1  0  0  0  0
 47 48  1  0  0  0  0
 47 49  2  0  0  0  0
 48142  1  0  0  0  0
 48143  1  0  0  0  0
 48144  1  0  0  0  0
 50 44  1  0  0  0  0
 50 51  2  0  0  0  0
 50 52  1  0  0  0  0
 52145  1  0  0  0  0
 53 52  1  0  0  0  0
 53 54  1  0  0  0  0
 53146  1  1  0  0  0
 54 55  1  0  0  0  0
 54 56  1  0  0  0  0
 54147  1  0  0  0  0
 55148  1  0  0  0  0
 55149  1  0  0  0  0
 55150  1  0  0  0  0
 56151  1  0  0  0  0
 56152  1  0  0  0  0
 56153  1  0  0  0  0
 57 53  1  0  0  0  0
 57 58  2  0  0  0  0
 57 59  1  0  0  0  0
 59154  1  0  0  0  0
 60 59  1  0  0  0  0
 60 61  1  0  0  0  0
 60155  1  6  0  0  0
 61 62  1  0  0  0  0
 61156  1  0  0  0  0
 61157  1  0  0  0  0
 62 63  2  0  0  0  0
 62 68  1  0  0  0  0
 63 64  1  0  0  0  0
 63158  1  0  0  0  0
 64 65  1  0  0  0  0
 64 66  2  0  0  0  0
 65159  1  0  0  0  0
 66 67  1  0  0  0  0
 66160  1  0  0  0  0
 67 68  2  0  0  0  0
 67161  1  0  0  0  0
 68162  1  0  0  0  0
 69 60  1  0  0  0  0
 69 70  2  0  0  0  0
 69 71  1  0  0  0  0
 71 72  1  0  0  0  0
 72163  1  0  0  0  0
 73 71  1  0  0  0  0
 73164  1  0  0  0  0
 73165  1  0  0  0  0
 74 73  1  0  0  0  0
 74166  1  0  0  0  0
 74167  1  0  0  0  0
 75 74  1  0  0  0  0
 75168  1  0  0  0  0
 75169  1  0  0  0  0
 76 72  1  0  0  0  0
 76 75  1  0  0  0  0
 76 79  1  1  0  0  0
 77 32  1  0  0  0  0
 77 76  1  0  0  0  0
 77 78  2  0  0  0  0
M  END
>  <DRUGBANK_ID>
DB03393

>  <SECONDARY_ACCESSION_NUMBERS>
EXPT02889

>  <COMMON_NAME>
Sanglifehrin A

$$$$
