
 OpenBabel10282417193D

 56 60  0  0  0  0  0  0  0  0999 V2000
    0.9934   -0.0592   -0.1358 C   0  0  0  0  0  0  0  0  0  0  0  0
    0.5307   -1.3846    0.4642 C   0  0  0  0  0  0  0  0  0  0  0  0
    1.0167   -1.6313    1.8659 C   0  0  0  0  0  0  0  0  0  0  0  0
    1.0920   -2.8942    2.4112 C   0  0  0  0  0  0  0  0  0  0  0  0
    1.5239   -3.1573    3.6718 N   0  0  0  0  0  0  0  0  0  0  0  0
    1.8230   -2.1061    4.4487 C   0  0  0  0  0  0  0  0  0  0  0  0
    1.7433   -0.8411    4.0284 N   0  0  0  0  0  0  0  0  0  0  0  0
    1.3756   -0.6354    2.7451 C   0  0  0  0  0  0  0  0  0  0  0  0
    2.2267   -2.3125    5.7449 N   0  0  0  0  0  0  0  0  0  0  0  0
    3.3186   -3.1939    6.0646 C   0  0  0  0  0  0  0  0  0  0  0  0
    2.8070   -4.3519    6.9085 C   0  0  0  0  0  0  0  0  0  0  0  0
    1.9607   -3.8866    8.1115 C   0  0  0  0  0  0  0  0  0  0  0  0
    0.9350   -2.8041    7.7018 C   0  0  0  0  0  0  0  0  0  0  0  0
    1.5246   -1.6913    6.8391 C   0  0  0  0  0  0  0  0  0  0  0  0
    1.3088   -5.1168    8.7416 C   0  0  0  0  0  0  0  0  0  0  0  0
    1.9865   -6.1507    9.2103 N   0  0  0  0  0  0  0  0  0  0  0  0
    1.1171   -7.1334    9.7000 C   0  0  0  0  0  0  0  0  0  0  0  0
   -0.2230   -6.8379    9.5444 C   0  0  0  0  0  0  0  0  0  0  0  0
   -0.4076   -5.2843    8.8735 S   0  0  0  0  0  0  0  0  0  0  0  0
    1.6702   -8.2858   10.4840 C   0  0  0  0  0  0  0  0  0  0  0  0
    1.2167   -8.4129   11.8533 O   0  0  0  0  0  0  0  0  0  0  0  0
    1.4090   -7.3908   12.7427 C   0  0  0  0  0  0  0  0  0  0  0  0
    1.3478   -6.0316   12.4371 C   0  0  0  0  0  0  0  0  0  0  0  0
    1.3511   -5.0426   13.4133 C   0  0  0  0  0  0  0  0  0  0  0  0
    1.4901   -5.4217   14.7378 C   0  0  0  0  0  0  0  0  0  0  0  0
    1.5916   -6.7731   15.0832 C   0  0  0  0  0  0  0  0  0  0  0  0
    1.5416   -7.7542   14.0839 C   0  0  0  0  0  0  0  0  0  0  0  0
    1.5687   -4.4376   15.7276 N   0  0  0  0  0  0  0  0  0  0  0  0
    0.7959   -3.3203   15.8870 C   0  0  0  0  0  0  0  0  0  0  0  0
    1.2437   -2.6392   16.9163 N   0  0  0  0  0  0  0  0  0  0  0  0
    2.3251   -3.3443   17.3862 N   0  0  0  0  0  0  0  0  0  0  0  0
    2.5026   -4.4629   16.6966 N   0  0  0  0  0  0  0  0  0  0  0  0
    0.6103    0.7931    0.4356 H   0  0  0  0  0  0  0  0  0  0  0  0
    0.6338    0.0535   -1.1628 H   0  0  0  0  0  0  0  0  0  0  0  0
    2.0872    0.0008   -0.1464 H   0  0  0  0  0  0  0  0  0  0  0  0
   -0.5662   -1.4134    0.4576 H   0  0  0  0  0  0  0  0  0  0  0  0
    0.8773   -2.1925   -0.1929 H   0  0  0  0  0  0  0  0  0  0  0  0
    0.8028   -3.7731    1.8398 H   0  0  0  0  0  0  0  0  0  0  0  0
    1.3887    0.4103    2.4584 H   0  0  0  0  0  0  0  0  0  0  0  0
    4.0563   -2.6226    6.6447 H   0  0  0  0  0  0  0  0  0  0  0  0
    3.8428   -3.5635    5.1764 H   0  0  0  0  0  0  0  0  0  0  0  0
    3.6618   -4.9454    7.2591 H   0  0  0  0  0  0  0  0  0  0  0  0
    2.2003   -5.0123    6.2775 H   0  0  0  0  0  0  0  0  0  0  0  0
    2.6398   -3.4407    8.8563 H   0  0  0  0  0  0  0  0  0  0  0  0
    0.1367   -3.2700    7.1114 H   0  0  0  0  0  0  0  0  0  0  0  0
    0.4695   -2.3693    8.5955 H   0  0  0  0  0  0  0  0  0  0  0  0
    0.7117   -1.0323    6.5093 H   0  0  0  0  0  0  0  0  0  0  0  0
    2.2188   -1.0841    7.4309 H   0  0  0  0  0  0  0  0  0  0  0  0
   -1.0773   -7.4048    9.8824 H   0  0  0  0  0  0  0  0  0  0  0  0
    1.3412   -9.2037    9.9783 H   0  0  0  0  0  0  0  0  0  0  0  0
    2.7647   -8.2983   10.4760 H   0  0  0  0  0  0  0  0  0  0  0  0
    1.2736   -5.6560   11.4361 H   0  0  0  0  0  0  0  0  0  0  0  0
    1.3042   -4.0049   13.0917 H   0  0  0  0  0  0  0  0  0  0  0  0
    1.6416   -7.0719   16.1279 H   0  0  0  0  0  0  0  0  0  0  0  0
    1.6056   -8.8037   14.3625 H   0  0  0  0  0  0  0  0  0  0  0  0
   -0.0791   -3.1016   15.2939 H   0  0  0  0  0  0  0  0  0  0  0  0
  1  2  1  0  0  0  0
  1 33  1  0  0  0  0
  1 34  1  0  0  0  0
  1 35  1  0  0  0  0
  2  3  1  0  0  0  0
  2 36  1  0  0  0  0
  2 37  1  0  0  0  0
  3  4  2  0  0  0  0
  3  8  1  0  0  0  0
  4  5  1  0  0  0  0
  4 38  1  0  0  0  0
  5  6  2  0  0  0  0
  6  7  1  0  0  0  0
  6  9  1  0  0  0  0
  7  8  2  0  0  0  0
  8 39  1  0  0  0  0
  9 10  1  0  0  0  0
  9 14  1  0  0  0  0
 10 11  1  0  0  0  0
 10 40  1  0  0  0  0
 10 41  1  0  0  0  0
 11 12  1  0  0  0  0
 11 42  1  0  0  0  0
 11 43  1  0  0  0  0
 12 13  1  0  0  0  0
 12 15  1  0  0  0  0
 12 44  1  0  0  0  0
 13 14  1  0  0  0  0
 13 45  1  0  0  0  0
 13 46  1  0  0  0  0
 14 47  1  0  0  0  0
 14 48  1  0  0  0  0
 15 16  2  0  0  0  0
 15 19  1  0  0  0  0
 16 17  1  0  0  0  0
 17 18  2  0  0  0  0
 17 20  1  0  0  0  0
 18 19  1  0  0  0  0
 18 49  1  0  0  0  0
 20 21  1  0  0  0  0
 20 50  1  0  0  0  0
 20 51  1  0  0  0  0
 21 22  1  0  0  0  0
 22 23  2  0  0  0  0
 22 27  1  0  0  0  0
 23 24  1  0  0  0  0
 23 52  1  0  0  0  0
 24 25  2  0  0  0  0
 24 53  1  0  0  0  0
 25 26  1  0  0  0  0
 25 28  1  0  0  0  0
 26 27  2  0  0  0  0
 26 54  1  0  0  0  0
 27 55  1  0  0  0  0
 28 29  1  0  0  0  0
 28 32  1  0  0  0  0
 29 30  2  0  0  0  0
 29 56  1  0  0  0  0
 30 31  1  0  0  0  0
 31 32  2  0  0  0  0
M  END
>  <DRUGBANK_ID>
DB12345

>  <COMMON_NAME>
MBX-2982

>  <CAS_NUMBER>
1037792-44-1

>  <UNII>
B5TRY67L51

$$$$
