
 OpenBabel10282417153D

 75 75  0  0  1  0  0  0  0  0999 V2000
   -2.8917   -6.6498    0.0927 C   0  0  0  0  0  0  0  0  0  0  0  0
   -3.8829   -5.5745    0.6024 C   0  0  0  0  0  0  0  0  0  0  0  0
   -5.1613   -6.1571    1.2123 C   0  0  0  0  0  0  0  0  0  0  0  0
   -3.4117   -4.2654    1.2138 C   0  0  0  0  0  0  0  0  0  0  0  0
   -2.4069   -3.5452    0.3200 C   0  0  1  0  0  0  0  0  0  0  0  0
   -2.6544   -2.8938   -1.1264 C   0  0  0  0  0  0  0  0  0  0  0  0
   -2.3824   -1.6967   -1.3005 O   0  0  0  0  0  0  0  0  0  0  0  0
   -3.0249   -3.5882   -2.2764 N   0  0  0  0  0  0  0  0  0  0  0  0
   -3.8149   -4.8437   -2.4422 C   0  0  2  0  0  0  0  0  0  0  0  0
   -3.4892   -5.9293   -3.5817 C   0  0  0  0  0  0  0  0  0  0  0  0
   -2.3105   -6.0728   -3.9389 O   0  0  0  0  0  0  0  0  0  0  0  0
   -4.3641   -6.8778   -4.0685 N   0  0  0  0  0  0  0  0  0  0  0  0
   -5.8040   -7.0618   -4.0105 C   0  0  0  0  0  0  0  0  0  0  0  0
   -5.3444   -4.5601   -2.1390 C   0  0  0  0  0  0  0  0  0  0  0  0
   -6.0685   -5.8285   -1.5903 C   0  0  0  0  0  0  0  0  0  0  0  0
   -5.7157   -3.4723   -1.0602 C   0  0  0  0  0  0  0  0  0  0  0  0
   -5.8425   -3.9101   -3.4305 C   0  0  0  0  0  0  0  0  0  0  0  0
   -1.6160   -2.6528    1.2047 N   0  0  0  0  0  0  0  0  0  0  0  0
   -0.3892   -2.7942    1.8096 C   0  0  0  0  0  0  0  0  0  0  0  0
   -0.0493   -1.9090    2.6027 O   0  0  0  0  0  0  0  0  0  0  0  0
    0.4998   -4.0456    1.6236 C   0  0  2  0  0  0  0  0  0  0  0  0
    2.0200   -3.7575    1.7397 C   0  0  0  0  0  0  0  0  0  0  0  0
    3.0187   -4.6297    0.8743 C   0  0  0  0  0  0  0  0  0  0  0  0
    2.9891   -4.4542   -0.6301 N   0  0  0  0  0  0  0  0  0  0  0  0
    2.8809   -5.5512   -1.4682 C   0  0  0  0  0  0  0  0  0  0  0  0
    3.3525   -6.6636   -1.2616 O   0  0  0  0  0  0  0  0  0  0  0  0
    2.0294   -5.1660   -2.7059 C   0  0  0  0  0  0  0  0  0  0  0  0
    1.6768   -3.7904   -2.3609 N   0  0  0  0  0  0  0  0  0  0  0  0
    2.4764   -3.3488   -1.2829 C   0  0  0  0  0  0  0  0  0  0  0  0
    2.5128   -2.1796   -0.8631 O   0  0  0  0  0  0  0  0  0  0  0  0
    0.4501   -3.1379   -2.8629 C   0  0  0  0  0  0  0  0  0  0  0  0
    2.8624   -5.0818   -3.9698 C   0  0  0  0  0  0  0  0  0  0  0  0
    0.8874   -6.1757   -2.9214 C   0  0  0  0  0  0  0  0  0  0  0  0
    0.2537   -4.8199    0.0771 S   0  0  0  0  0  0  0  0  0  0  0  0
   -2.5322   -7.2766    0.8967 H   0  0  0  0  0  0  0  0  0  0  0  0
   -2.0174   -6.2511   -0.4329 H   0  0  0  0  0  0  0  0  0  0  0  0
   -3.3553   -7.2862   -0.6816 H   0  0  0  0  0  0  0  0  0  0  0  0
   -4.2063   -5.1056   -0.2810 H   0  0  0  0  0  0  0  0  0  0  0  0
   -5.0198   -6.4270    2.2438 H   0  0  0  0  0  0  0  0  0  0  0  0
   -5.9909   -5.4387    1.1203 H   0  0  0  0  0  0  0  0  0  0  0  0
   -5.5086   -7.0652    0.6936 H   0  0  0  0  0  0  0  0  0  0  0  0
   -4.2254   -3.5560    1.3904 H   0  0  0  0  0  0  0  0  0  0  0  0
   -2.9954   -4.5241    2.1879 H   0  0  0  0  0  0  0  0  0  0  0  0
   -1.8271   -4.3721    0.0306 H   0  0  0  0  0  0  0  0  0  0  0  0
   -3.0107   -2.9874   -3.0940 H   0  0  0  0  0  0  0  0  0  0  0  0
   -3.3013   -5.4093   -1.7009 H   0  0  0  0  0  0  0  0  0  0  0  0
   -3.8856   -7.5822   -4.6173 H   0  0  0  0  0  0  0  0  0  0  0  0
   -6.3440   -7.0670   -4.9489 H   0  0  0  0  0  0  0  0  0  0  0  0
   -6.0477   -7.9589   -3.4201 H   0  0  0  0  0  0  0  0  0  0  0  0
   -6.2411   -6.1785   -3.6049 H   0  0  0  0  0  0  0  0  0  0  0  0
   -5.3850   -6.2393   -0.9008 H   0  0  0  0  0  0  0  0  0  0  0  0
   -7.0942   -5.6688   -1.2659 H   0  0  0  0  0  0  0  0  0  0  0  0
   -6.1081   -6.8373   -1.9686 H   0  0  0  0  0  0  0  0  0  0  0  0
   -5.1931   -2.5244   -1.1875 H   0  0  0  0  0  0  0  0  0  0  0  0
   -6.7950   -3.2825   -1.0732 H   0  0  0  0  0  0  0  0  0  0  0  0
   -5.5692   -3.7683   -0.0293 H   0  0  0  0  0  0  0  0  0  0  0  0
   -5.3589   -2.9320   -3.5481 H   0  0  0  0  0  0  0  0  0  0  0  0
   -5.5603   -4.4625   -4.3274 H   0  0  0  0  0  0  0  0  0  0  0  0
   -6.9224   -3.7779   -3.4089 H   0  0  0  0  0  0  0  0  0  0  0  0
   -2.0723   -1.7795    1.4480 H   0  0  0  0  0  0  0  0  0  0  0  0
    0.1716   -4.8068    2.3297 H   0  0  0  0  0  0  0  0  0  0  0  0
    2.2360   -2.7009    1.5483 H   0  0  0  0  0  0  0  0  0  0  0  0
    2.2515   -3.9040    2.8045 H   0  0  0  0  0  0  0  0  0  0  0  0
    4.0405   -4.4709    1.2276 H   0  0  0  0  0  0  0  0  0  0  0  0
    2.7833   -5.6837    1.1058 H   0  0  0  0  0  0  0  0  0  0  0  0
   -0.2593   -2.9831   -2.0512 H   0  0  0  0  0  0  0  0  0  0  0  0
    0.6483   -2.1476   -3.2702 H   0  0  0  0  0  0  0  0  0  0  0  0
   -0.0725   -3.7595   -3.5958 H   0  0  0  0  0  0  0  0  0  0  0  0
    3.2769   -6.0541   -4.2401 H   0  0  0  0  0  0  0  0  0  0  0  0
    2.2361   -4.7197   -4.7954 H   0  0  0  0  0  0  0  0  0  0  0  0
    3.6842   -4.3696   -3.8461 H   0  0  0  0  0  0  0  0  0  0  0  0
    0.2635   -6.3564   -2.0445 H   0  0  0  0  0  0  0  0  0  0  0  0
    0.2207   -5.8673   -3.7302 H   0  0  0  0  0  0  0  0  0  0  0  0
    1.2895   -7.1578   -3.1958 H   0  0  0  0  0  0  0  0  0  0  0  0
    0.4541   -3.6150   -0.5105 H   0  0  0  0  0  0  0  0  0  0  0  0
  1  2  1  0  0  0  0
  1 35  1  0  0  0  0
  1 36  1  0  0  0  0
  1 37  1  0  0  0  0
  2  3  1  0  0  0  0
  2  4  1  0  0  0  0
  2 38  1  0  0  0  0
  3 39  1  0  0  0  0
  3 40  1  0  0  0  0
  3 41  1  0  0  0  0
  4  5  1  0  0  0  0
  4 42  1  0  0  0  0
  4 43  1  0  0  0  0
  5  6  1  0  0  0  0
  5 18  1  0  0  0  0
  5 44  1  6  0  0  0
  6  7  2  0  0  0  0
  6  8  1  0  0  0  0
  8 45  1  0  0  0  0
  9 14  1  0  0  0  0
  9 46  1  1  0  0  0
  9 10  1  0  0  0  0
  9  8  1  0  0  0  0
 10 11  2  0  0  0  0
 10 12  1  0  0  0  0
 12 13  1  0  0  0  0
 12 47  1  0  0  0  0
 13 48  1  0  0  0  0
 13 49  1  0  0  0  0
 13 50  1  0  0  0  0
 14 15  1  0  0  0  0
 14 16  1  0  0  0  0
 14 17  1  0  0  0  0
 15 51  1  0  0  0  0
 15 52  1  0  0  0  0
 15 53  1  0  0  0  0
 16 54  1  0  0  0  0
 16 55  1  0  0  0  0
 16 56  1  0  0  0  0
 17 57  1  0  0  0  0
 17 58  1  0  0  0  0
 17 59  1  0  0  0  0
 18 19  1  0  0  0  0
 18 60  1  0  0  0  0
 19 20  2  0  0  0  0
 21 34  1  0  0  0  0
 21 61  1  1  0  0  0
 21 22  1  0  0  0  0
 21 19  1  0  0  0  0
 22 23  1  0  0  0  0
 22 62  1  0  0  0  0
 22 63  1  0  0  0  0
 23 24  1  0  0  0  0
 23 64  1  0  0  0  0
 23 65  1  0  0  0  0
 24 25  1  0  0  0  0
 24 29  1  0  0  0  0
 25 26  2  0  0  0  0
 25 27  1  0  0  0  0
 27 28  1  0  0  0  0
 27 32  1  0  0  0  0
 27 33  1  0  0  0  0
 28 29  1  0  0  0  0
 28 31  1  0  0  0  0
 29 30  2  0  0  0  0
 31 66  1  0  0  0  0
 31 67  1  0  0  0  0
 31 68  1  0  0  0  0
 32 69  1  0  0  0  0
 32 70  1  0  0  0  0
 32 71  1  0  0  0  0
 33 72  1  0  0  0  0
 33 73  1  0  0  0  0
 33 74  1  0  0  0  0
 34 75  1  0  0  0  0
M  END
>  <DRUGBANK_ID>
DB06573

>  <COMMON_NAME>
Rebimastat

>  <CAS_NUMBER>
259188-38-0

>  <UNII>
1B47R6ZX4K

>  <SYNONYMS>
Rebimastat

$$$$
