XIH
 OpenBabel10282417173D

 52 55  0  0  0  0  0  0  0  0999 V2000
   -0.0831   -0.6952    0.0414 C   0  0  0  0  0  0  0  0  0  0  0  0
   -0.4195    0.6125    0.0067 C   0  0  0  0  0  0  0  0  0  0  0  0
   -2.4585   -0.5361    0.0643 C   0  0  0  0  0  0  0  0  0  0  0  0
   -4.8187   -1.6310    1.1717 C   0  0  0  0  0  0  0  0  0  0  0  0
   -5.6837   -2.1624   -1.6536 C   0  0  1  0  0  0  0  0  0  0  0  0
   -4.9636   -0.7766   -1.1399 C   0  0  0  0  0  0  0  0  0  0  0  0
   -0.9975   -2.8803    0.1258 C   0  0  0  0  0  0  0  0  0  0  0  0
   -1.6885   -4.8370    3.4155 C   0  0  0  0  0  0  0  0  0  0  0  0
   -3.0217   -4.5188    3.5811 C   0  0  0  0  0  0  0  0  0  0  0  0
   -3.6104   -3.8529    2.5535 C   0  0  0  0  0  0  0  0  0  0  0  0
   -3.2608   -3.4350   -0.0460 C   0  0  0  0  0  0  0  0  0  0  0  0
    2.0292    1.0887   -0.0064 C   0  0  0  0  0  0  0  0  0  0  0  0
    3.6024   -0.8486   -0.0026 C   0  0  0  0  0  0  0  0  0  0  0  0
    2.2601   -0.2680   -0.0093 N   0  0  0  0  0  0  0  0  0  0  0  0
    1.2665   -1.1972    0.0212 C   0  0  0  0  0  0  0  0  0  0  0  0
    1.6088   -2.3800    0.0455 O   0  0  0  0  0  0  0  0  0  0  0  0
   -1.8667    0.7191    0.0022 N   0  0  0  0  0  0  0  0  0  0  0  0
   -3.9948   -0.9175    0.0645 N   0  0  0  0  0  0  0  0  0  0  0  0
   -5.5772   -3.1176    0.7093 C   0  0  0  0  0  0  0  0  0  0  0  0
   -6.3478   -3.0250   -0.5600 C   0  0  0  0  0  0  0  0  0  0  0  0
   -6.7662   -2.0876   -2.6619 N   0  0  0  0  0  0  0  0  0  0  0  0
   -1.2517   -1.4303    0.1230 N   0  0  0  0  0  0  0  0  0  0  0  0
   -1.5214   -3.5690    1.3504 C   0  0  0  0  0  0  0  0  0  0  0  0
   -0.9268   -4.3135    2.3375 C   0  0  0  0  0  0  0  0  0  0  0  0
   -2.8793   -3.5785    1.3678 C   0  0  0  0  0  0  0  0  0  0  0  0
   -3.3096   -3.3097   -1.1599 N   0  0  0  0  0  0  0  0  0  0  0  0
    0.6671    1.5411   -0.0108 N   0  0  0  0  0  0  0  0  0  0  0  0
    0.5254    2.9817   -0.0036 C   0  0  0  0  0  0  0  0  0  0  0  0
    3.0001    1.8538    0.0034 O   0  0  0  0  0  0  0  0  0  0  0  0
   -4.9622   -2.7345   -2.2360 H   0  0  0  0  0  0  0  0  0  0  0  0
   -4.1919   -1.6398    2.0690 H   0  0  0  0  0  0  0  0  0  0  0  0
   -5.6796   -1.0384    1.5223 H   0  0  0  0  0  0  0  0  0  0  0  0
   -5.8188   -0.1588   -0.8168 H   0  0  0  0  0  0  0  0  0  0  0  0
   -4.4893   -0.2518   -1.9709 H   0  0  0  0  0  0  0  0  0  0  0  0
   -1.2590   -3.2150   -0.8834 H   0  0  0  0  0  0  0  0  0  0  0  0
   -0.0029   -3.2496    0.0165 H   0  0  0  0  0  0  0  0  0  0  0  0
   -1.2381   -5.5031    4.1373 H   0  0  0  0  0  0  0  0  0  0  0  0
   -3.6345   -4.8406    4.4259 H   0  0  0  0  0  0  0  0  0  0  0  0
   -4.6468   -3.5902    2.7483 H   0  0  0  0  0  0  0  0  0  0  0  0
    3.7065   -1.4986    0.8801 H   0  0  0  0  0  0  0  0  0  0  0  0
    3.7100   -1.5020   -0.8814 H   0  0  0  0  0  0  0  0  0  0  0  0
    4.4001   -0.1109    0.0003 H   0  0  0  0  0  0  0  0  0  0  0  0
   -5.0111   -4.0419    0.4846 H   0  0  0  0  0  0  0  0  0  0  0  0
   -6.1471   -3.6082    1.5126 H   0  0  0  0  0  0  0  0  0  0  0  0
   -7.3256   -2.6620   -0.2526 H   0  0  0  0  0  0  0  0  0  0  0  0
   -6.5029   -4.0575   -0.9453 H   0  0  0  0  0  0  0  0  0  0  0  0
   -6.9624   -3.0606   -2.9442 H   0  0  0  0  0  0  0  0  0  0  0  0
   -7.6195   -1.7927   -2.1949 H   0  0  0  0  0  0  0  0  0  0  0  0
    0.1200   -4.5714    2.2395 H   0  0  0  0  0  0  0  0  0  0  0  0
    0.0078    3.3041   -0.9065 H   0  0  0  0  0  0  0  0  0  0  0  0
    0.0096    3.2944    0.9043 H   0  0  0  0  0  0  0  0  0  0  0  0
    1.5024    3.4916   -0.0006 H   0  0  0  0  0  0  0  0  0  0  0  0
  1  2  2  0  0  0  0
  1 15  1  0  0  0  0
  1 22  1  0  0  0  0
  2 17  1  0  0  0  0
  2 27  1  0  0  0  0
  3 17  2  0  0  0  0
  3 18  1  0  0  0  0
  3 22  1  0  0  0  0
  4 18  1  0  0  0  0
  4 19  1  0  0  0  0
  4 31  1  0  0  0  0
  4 32  1  0  0  0  0
  5  6  1  0  0  0  0
  5 20  1  0  0  0  0
  5 21  1  0  0  0  0
  5 30  1  6  0  0  0
  6 18  1  0  0  0  0
  6 33  1  0  0  0  0
  6 34  1  0  0  0  0
  7 22  1  0  0  0  0
  7 23  1  0  0  0  0
  7 35  1  0  0  0  0
  7 36  1  0  0  0  0
  8  9  2  0  0  0  0
  8 24  1  0  0  0  0
  8 37  1  0  0  0  0
  9 10  1  0  0  0  0
  9 38  1  0  0  0  0
 10 25  2  0  0  0  0
 10 39  1  0  0  0  0
 11 25  1  0  0  0  0
 11 26  3  0  0  0  0
 12 14  1  0  0  0  0
 12 27  1  0  0  0  0
 12 29  2  0  0  0  0
 13 14  1  0  0  0  0
 13 40  1  0  0  0  0
 13 41  1  0  0  0  0
 13 42  1  0  0  0  0
 14 15  1  0  0  0  0
 15 16  2  0  0  0  0
 19 20  1  0  0  0  0
 19 43  1  0  0  0  0
 19 44  1  0  0  0  0
 20 45  1  0  0  0  0
 20 46  1  0  0  0  0
 21 47  1  0  0  0  0
 21 48  1  0  0  0  0
 23 24  2  0  0  0  0
 23 25  1  0  0  0  0
 24 49  1  0  0  0  0
 27 28  1  0  0  0  0
 28 50  1  0  0  0  0
 28 51  1  0  0  0  0
 28 52  1  0  0  0  0
M  END
>  <DRUGBANK_ID>
DB08743

>  <COMMON_NAME>
2-({8-[(3R)-3-AMINOPIPERIDIN-1-YL]-1,3-DIMETHYL-2,6-DIOXO-1,2,3,6-TETRAHYDRO-7H-PURIN-7-YL}METHYL)BENZONITRILE

$$$$
