BRV
 OpenBabel10282417163D

 20 20  0  0  0  0  0  0  0  0999 V2000
    0.9903   -0.0031    0.0649 C   0  0  0  0  0  0  0  0  0  0  0  0
   -2.7985   -2.1034    2.7530 C   0  0  0  0  0  0  0  0  0  0  0  0
   -0.1046    0.5580    3.6779 C   0  0  0  0  0  0  0  0  0  0  0  0
    0.6308    0.6270    2.4755 C   0  0  0  0  0  0  0  0  0  0  0  0
    0.2681   -0.1558    1.3679 C   0  0  0  0  0  0  0  0  0  0  0  0
   -0.8535   -1.0341    1.4697 C   0  0  0  0  0  0  0  0  0  0  0  0
    0.3464    1.2368    4.8243 N   0  0  0  0  0  0  0  0  0  0  0  0
   -1.2584   -2.1119   -0.0840 Br  0  0  0  0  0  0  0  0  0  0  0  0
    2.0934    1.8673    2.4053 Br  0  0  0  0  0  0  0  0  0  0  0  0
   -2.0778   -0.3221    5.5018 Br  0  0  0  0  0  0  0  0  0  0  0  0
   -1.6165   -1.1440    2.6819 C   0  0  0  0  0  0  0  0  0  0  0  0
   -1.2072   -0.3373    3.7760 C   0  0  0  0  0  0  0  0  0  0  0  0
   -3.4880   -2.2034    3.9028 O   0  0  0  0  0  0  0  0  0  0  0  0
   -3.1700   -2.8067    1.8264 O   0  0  0  0  0  0  0  0  0  0  0  0
    0.4102    0.2010   -0.9880 O   0  0  0  0  0  0  0  0  0  0  0  0
    2.3322   -0.1380    0.1191 O   0  0  0  0  0  0  0  0  0  0  0  0
   -0.2764    1.2891    5.6275 H   0  0  0  0  0  0  0  0  0  0  0  0
    1.0146    1.9957    4.7260 H   0  0  0  0  0  0  0  0  0  0  0  0
   -3.2131   -1.6480    4.6513 H   0  0  0  0  0  0  0  0  0  0  0  0
    2.7477   -0.1441    1.0009 H   0  0  0  0  0  0  0  0  0  0  0  0
  1  5  1  0  0  0  0
  1 15  2  0  0  0  0
  1 16  1  0  0  0  0
  2 11  1  0  0  0  0
  2 13  1  0  0  0  0
  2 14  2  0  0  0  0
  3  4  2  0  0  0  0
  3  7  1  0  0  0  0
  3 12  1  0  0  0  0
  4  5  1  0  0  0  0
  4  9  1  0  0  0  0
  5  6  2  0  0  0  0
  6  8  1  0  0  0  0
  6 11  1  0  0  0  0
  7 17  1  0  0  0  0
  7 18  1  0  0  0  0
 10 12  1  0  0  0  0
 11 12  2  0  0  0  0
 13 19  1  0  0  0  0
 16 20  1  0  0  0  0
M  END
>  <DRUGBANK_ID>
DB07491

>  <COMMON_NAME>
5-amino-2,4,6-tribromobenzene-1,3-dicarboxylic acid

>  <UNII>
T86LB7G8ZX

$$$$
