
 OpenBabel10282417153D

122125  0  0  0  0  0  0  0  0999 V2000
   -0.6089    3.0709   -5.6540 C   0  0  2  0  0  0  0  0  0  0  0  0
   -0.0113    1.2172   -5.3753 C   0  0  1  0  0  0  0  0  0  0  0  0
   -1.5094    3.6956   -3.8428 O   0  0  0  0  0  0  0  0  0  0  0  0
   -1.6276    4.3975   -4.7028 C   0  0  0  0  0  0  0  0  0  0  0  0
    1.5258    2.9513   -5.6818 C   0  0  0  0  0  0  0  0  0  0  0  0
    1.1595    0.3365   -4.8140 C   0  0  2  0  0  0  0  0  0  0  0  0
   -1.2479    0.5708   -4.4083 O   0  0  0  0  0  0  0  0  0  0  0  0
   -1.2653    5.0422   -2.4434 C   0  0  0  0  0  0  0  0  0  0  0  0
   -0.7625    5.6000   -3.7604 C   0  0  0  0  0  0  0  0  0  0  0  0
    0.5716   -0.6310   -3.7598 C   0  0  2  0  0  0  0  0  0  0  0  0
    2.4142    0.9259   -4.2795 C   0  0  0  0  0  0  0  0  0  0  0  0
   -2.1512    1.5132   -3.5376 C   0  0  1  0  0  0  0  0  0  0  0  0
   -0.3887    5.3684   -0.4412 C   0  0  1  0  0  0  0  0  0  0  0  0
    1.2674    5.5526   -4.0945 C   0  0  0  0  0  0  0  0  0  0  0  0
   -0.2814   -0.0230   -2.8221 O   0  0  0  0  0  0  0  0  0  0  0  0
    1.4894   -1.2995   -2.7748 C   0  0  2  0  0  0  0  0  0  0  0  0
   -1.6575    2.1631   -4.6430 C   0  0  1  0  0  0  0  0  0  0  0  0
   -2.0040    2.2970   -2.4127 O   0  0  0  0  0  0  0  0  0  0  0  0
    0.3137    4.0870    0.9658 C   0  0  0  0  0  0  0  0  0  0  0  0
    1.6012    6.0001   -0.9295 C   0  0  0  0  0  0  0  0  0  0  0  0
    0.2447    1.0393   -2.0256 C   0  0  1  0  0  0  0  0  0  0  0  0
    1.0366   -1.4624   -1.2691 C   0  0  0  0  0  0  0  0  0  0  0  0
    2.8629   -0.7605   -2.7496 C   0  0  0  0  0  0  0  0  0  0  0  0
    0.1161    3.5039   -4.3198 C   0  0  2  0  0  0  0  0  0  0  0  0
   -1.9839    1.1415   -6.0764 O   0  0  0  0  0  0  0  0  0  0  0  0
   -1.0292    3.1767   -2.0298 C   0  0  1  0  0  0  0  0  0  0  0  0
    1.4242    2.4182   -0.0190 C   0  0  1  0  0  0  0  0  0  0  0  0
   -0.3423    3.9070    2.0663 O   0  0  0  0  0  0  0  0  0  0  0  0
    0.8414    2.0050   -2.7818 C   0  0  0  0  0  0  0  0  0  0  0  0
   -0.5545    1.7747   -0.8361 O   0  0  0  0  0  0  0  0  0  0  0  0
    1.3785   -0.5484   -0.3150 O   0  0  0  0  0  0  0  0  0  0  0  0
    0.3434   -2.3971   -0.9058 O   0  0  0  0  0  0  0  0  0  0  0  0
    0.2253    4.0042   -2.9969 C   0  0  0  0  0  0  0  0  0  0  0  0
    0.4403    4.6709   -5.9663 N   0  0  0  0  0  0  0  0  0  0  0  0
   -2.0144    3.7342   -1.0014 C   0  0  0  0  0  0  0  0  0  0  0  0
    0.4046    0.5198    0.0460 C   0  0  2  0  0  0  0  0  0  0  0  0
    2.2744    1.6347   -0.9549 O   0  0  0  0  0  0  0  0  0  0  0  0
    2.7932    2.4043    1.4269 C   0  0  0  0  0  0  0  0  0  0  0  0
    1.9384    3.4273   -2.2863 C   0  0  2  0  0  0  0  0  0  0  0  0
   -0.3844    2.7293    0.0738 C   0  0  2  0  0  0  0  0  0  0  0  0
    0.3117    3.7271   -7.3681 C   0  0  0  0  0  0  0  0  0  0  0  0
   -0.7173    5.9389   -6.2343 C   0  0  0  0  0  0  0  0  0  0  0  0
   -1.4118    0.2334   -0.5589 C   0  0  0  0  0  0  0  0  0  0  0  0
    4.0127    1.5507   -1.0566 C   0  0  0  0  0  0  0  0  0  0  0  0
    0.6605    4.2927   -1.0415 C   0  0  2  0  0  0  0  0  0  0  0  0
    3.3160    4.2262   -3.0473 O   0  0  0  0  0  0  0  0  0  0  0  0
    3.0724    3.3780   -1.5474 C   0  0  0  0  0  0  0  0  0  0  0  0
    0.6244    2.0735    1.5581 C   0  0  0  0  0  0  0  0  0  0  0  0
   -1.0520    3.1478   -7.7499 C   0  0  0  0  0  0  0  0  0  0  0  0
    0.6420    4.6741   -8.3577 C   0  0  0  0  0  0  0  0  0  0  0  0
   -1.8825   -1.0093   -0.9926 C   0  0  0  0  0  0  0  0  0  0  0  0
   -0.2706    6.0770   -1.6636 O   0  0  0  0  0  0  0  0  0  0  0  0
    3.7461    4.0200   -4.3639 C   0  0  0  0  0  0  0  0  0  0  0  0
    0.0967    0.9506   -6.4591 H   0  0  0  0  0  0  0  0  0  0  0  0
   -2.6254    4.3200   -5.0856 H   0  0  0  0  0  0  0  0  0  0  0  0
   -0.8956    4.8936   -5.0500 H   0  0  0  0  0  0  0  0  0  0  0  0
    1.9204    2.7809   -4.4838 H   0  0  0  0  0  0  0  0  0  0  0  0
    2.2439    2.2518   -6.1713 H   0  0  0  0  0  0  0  0  0  0  0  0
    2.0409    3.8936   -6.0217 H   0  0  0  0  0  0  0  0  0  0  0  0
    1.6099   -0.1403   -5.6327 H   0  0  0  0  0  0  0  0  0  0  0  0
   -0.0578   -1.2562   -4.4029 H   0  0  0  0  0  0  0  0  0  0  0  0
    3.0122    1.2957   -3.4658 H   0  0  0  0  0  0  0  0  0  0  0  0
    2.9322    1.6202   -4.8061 H   0  0  0  0  0  0  0  0  0  0  0  0
    2.0760    1.0363   -3.3058 H   0  0  0  0  0  0  0  0  0  0  0  0
   -2.4004    0.6863   -2.9800 H   0  0  0  0  0  0  0  0  0  0  0  0
   -0.6201    6.3002    0.1238 H   0  0  0  0  0  0  0  0  0  0  0  0
    1.6772    4.5254   -4.0203 H   0  0  0  0  0  0  0  0  0  0  0  0
    1.9609    6.2739   -4.3629 H   0  0  0  0  0  0  0  0  0  0  0  0
    2.0439    5.4016   -3.1268 H   0  0  0  0  0  0  0  0  0  0  0  0
    1.5492   -2.2429   -3.2370 H   0  0  0  0  0  0  0  0  0  0  0  0
   -2.5389    2.6280   -5.1867 H   0  0  0  0  0  0  0  0  0  0  0  0
    1.6682    6.3135   -1.9619 H   0  0  0  0  0  0  0  0  0  0  0  0
    2.4886    6.5158   -0.5343 H   0  0  0  0  0  0  0  0  0  0  0  0
    2.4345    5.0473   -0.7645 H   0  0  0  0  0  0  0  0  0  0  0  0
    1.0555    0.5653   -1.7280 H   0  0  0  0  0  0  0  0  0  0  0  0
    3.5829   -1.1072   -2.0786 H   0  0  0  0  0  0  0  0  0  0  0  0
    3.3188   -0.5847   -3.7296 H   0  0  0  0  0  0  0  0  0  0  0  0
    2.7494    0.1429   -2.2040 H   0  0  0  0  0  0  0  0  0  0  0  0
    0.5730    2.6710   -4.4621 H   0  0  0  0  0  0  0  0  0  0  0  0
   -1.4757    0.3239   -5.8150 H   0  0  0  0  0  0  0  0  0  0  0  0
   -0.0218    2.9215   -1.6909 H   0  0  0  0  0  0  0  0  0  0  0  0
    0.7226    1.5555   -3.6574 H   0  0  0  0  0  0  0  0  0  0  0  0
   -0.1574    2.1353   -3.1767 H   0  0  0  0  0  0  0  0  0  0  0  0
    0.4677    5.2930   -2.7460 H   0  0  0  0  0  0  0  0  0  0  0  0
    0.9175    4.6567   -2.5351 H   0  0  0  0  0  0  0  0  0  0  0  0
   -2.3259    2.9607   -0.3389 H   0  0  0  0  0  0  0  0  0  0  0  0
   -1.0926    3.9643   -0.6955 H   0  0  0  0  0  0  0  0  0  0  0  0
   -2.0352    4.6320   -0.3836 H   0  0  0  0  0  0  0  0  0  0  0  0
   -0.1288    0.3016    0.9576 H   0  0  0  0  0  0  0  0  0  0  0  0
    3.6356    2.7316    0.9578 H   0  0  0  0  0  0  0  0  0  0  0  0
    2.5353    3.2723    2.2038 H   0  0  0  0  0  0  0  0  0  0  0  0
    2.6269    1.4698    1.9877 H   0  0  0  0  0  0  0  0  0  0  0  0
   -1.3485    3.4064    0.7498 H   0  0  0  0  0  0  0  0  0  0  0  0
    1.0234    2.8688   -7.4455 H   0  0  0  0  0  0  0  0  0  0  0  0
   -1.7264    5.4136   -6.3495 H   0  0  0  0  0  0  0  0  0  0  0  0
   -0.6581    6.5880   -5.3370 H   0  0  0  0  0  0  0  0  0  0  0  0
   -0.4326    6.5142   -7.0280 H   0  0  0  0  0  0  0  0  0  0  0  0
   -2.1737    1.0084   -0.3206 H   0  0  0  0  0  0  0  0  0  0  0  0
   -1.4794    0.5812   -1.5674 H   0  0  0  0  0  0  0  0  0  0  0  0
    4.3969    2.3194   -0.3968 H   0  0  0  0  0  0  0  0  0  0  0  0
    3.6281    0.6244   -0.7759 H   0  0  0  0  0  0  0  0  0  0  0  0
    4.4566    2.0228   -2.1341 H   0  0  0  0  0  0  0  0  0  0  0  0
    1.3412    4.7270    0.0130 H   0  0  0  0  0  0  0  0  0  0  0  0
    3.7988    4.1014   -1.3019 H   0  0  0  0  0  0  0  0  0  0  0  0
    2.9340    3.1970   -0.5494 H   0  0  0  0  0  0  0  0  0  0  0  0
    3.0761    2.5668   -2.3065 H   0  0  0  0  0  0  0  0  0  0  0  0
    1.3741    3.1085    1.4392 H   0  0  0  0  0  0  0  0  0  0  0  0
    0.6107    1.1804    2.0791 H   0  0  0  0  0  0  0  0  0  0  0  0
    1.5669    1.1690    0.9905 H   0  0  0  0  0  0  0  0  0  0  0  0
   -1.9069    3.6845   -7.3396 H   0  0  0  0  0  0  0  0  0  0  0  0
   -1.0089    2.2736   -8.3665 H   0  0  0  0  0  0  0  0  0  0  0  0
   -1.2380    2.3741   -7.0839 H   0  0  0  0  0  0  0  0  0  0  0  0
    1.5923    5.0909   -8.0564 H   0  0  0  0  0  0  0  0  0  0  0  0
    0.6110    4.0313   -9.2104 H   0  0  0  0  0  0  0  0  0  0  0  0
   -0.2110    5.3207   -8.3019 H   0  0  0  0  0  0  0  0  0  0  0  0
   -1.9794   -1.0349    0.0690 H   0  0  0  0  0  0  0  0  0  0  0  0
   -2.5794   -0.6630   -1.7561 H   0  0  0  0  0  0  0  0  0  0  0  0
   -1.0447   -1.2807   -1.5698 H   0  0  0  0  0  0  0  0  0  0  0  0
   -1.6313    5.8977   -1.3796 H   0  0  0  0  0  0  0  0  0  0  0  0
    3.8155    2.9663   -4.2491 H   0  0  0  0  0  0  0  0  0  0  0  0
    2.8501    3.8081   -4.7134 H   0  0  0  0  0  0  0  0  0  0  0  0
    3.3981    4.8389   -5.0454 H   0  0  0  0  0  0  0  0  0  0  0  0
  1  2  1  0  0  0  0
  1  3  1  0  0  0  0
  1  4  1  0  0  0  0
  1  5  1  1  0  0  0
  2  6  1  0  0  0  0
  2  7  1  0  0  0  0
  2 54  1  6  0  0  0
  3  8  1  0  0  0  0
  4  9  1  0  0  0  0
  4 55  1  0  0  0  0
  4 56  1  0  0  0  0
  5 57  1  0  0  0  0
  5 58  1  0  0  0  0
  5 59  1  0  0  0  0
  6 10  1  0  0  0  0
  6 60  1  6  0  0  0
  6 11  1  0  0  0  0
  8  9  2  0  0  0  0
  8 13  1  0  0  0  0
  9 14  1  0  0  0  0
 10 16  1  0  0  0  0
 10 61  1  6  0  0  0
 10 15  1  0  0  0  0
 11 62  1  0  0  0  0
 11 63  1  0  0  0  0
 11 64  1  0  0  0  0
 12  7  1  0  0  0  0
 12 17  1  0  0  0  0
 12 18  1  0  0  0  0
 12 65  1  1  0  0  0
 13 19  1  0  0  0  0
 13 66  1  1  0  0  0
 13 20  1  0  0  0  0
 14 67  1  0  0  0  0
 14 68  1  0  0  0  0
 14 69  1  0  0  0  0
 16 22  1  0  0  0  0
 16 23  1  0  0  0  0
 16 70  1  6  0  0  0
 17 24  1  0  0  0  0
 17 25  1  0  0  0  0
 17 71  1  6  0  0  0
 18 26  1  0  0  0  0
 19 27  1  0  0  0  0
 19 28  2  0  0  0  0
 20 72  1  0  0  0  0
 20 73  1  0  0  0  0
 20 74  1  0  0  0  0
 21 29  1  0  0  0  0
 21 30  1  0  0  0  0
 21 75  1  1  0  0  0
 21 15  1  0  0  0  0
 22 32  2  0  0  0  0
 22 31  1  0  0  0  0
 23 76  1  0  0  0  0
 23 77  1  0  0  0  0
 23 78  1  0  0  0  0
 24 33  1  0  0  0  0
 24 34  1  0  0  0  0
 24 79  1  6  0  0  0
 25 80  1  0  0  0  0
 26 35  1  0  0  0  0
 26 33  1  0  0  0  0
 26 81  1  1  0  0  0
 27 36  1  0  0  0  0
 27 38  1  0  0  0  0
 27 37  1  6  0  0  0
 29 39  1  0  0  0  0
 29 82  1  0  0  0  0
 29 83  1  0  0  0  0
 30 40  1  0  0  0  0
 31 36  1  0  0  0  0
 33 84  1  0  0  0  0
 33 85  1  0  0  0  0
 34 41  1  0  0  0  0
 34 42  1  0  0  0  0
 35 86  1  0  0  0  0
 35 87  1  0  0  0  0
 35 88  1  0  0  0  0
 36 43  1  0  0  0  0
 36 89  1  1  0  0  0
 37 44  1  0  0  0  0
 38 90  1  0  0  0  0
 38 91  1  0  0  0  0
 38 92  1  0  0  0  0
 39 45  1  0  0  0  0
 39 47  1  0  0  0  0
 39 46  1  6  0  0  0
 40 48  1  0  0  0  0
 40 45  1  0  0  0  0
 40 93  1  1  0  0  0
 41 49  1  0  0  0  0
 41 50  1  0  0  0  0
 41 94  1  0  0  0  0
 42 95  1  0  0  0  0
 42 96  1  0  0  0  0
 42 97  1  0  0  0  0
 43 51  1  0  0  0  0
 43 98  1  0  0  0  0
 43 99  1  0  0  0  0
 44100  1  0  0  0  0
 44101  1  0  0  0  0
 44102  1  0  0  0  0
 45103  1  1  0  0  0
 45 52  1  0  0  0  0
 46 53  1  0  0  0  0
 47104  1  0  0  0  0
 47105  1  0  0  0  0
 47106  1  0  0  0  0
 48107  1  0  0  0  0
 48108  1  0  0  0  0
 48109  1  0  0  0  0
 49110  1  0  0  0  0
 49111  1  0  0  0  0
 49112  1  0  0  0  0
 50113  1  0  0  0  0
 50114  1  0  0  0  0
 50115  1  0  0  0  0
 51116  1  0  0  0  0
 51117  1  0  0  0  0
 51118  1  0  0  0  0
 52119  1  0  0  0  0
 53120  1  0  0  0  0
 53121  1  0  0  0  0
 53122  1  0  0  0  0
M  END
>  <DRUGBANK_ID>
DB06587

>  <COMMON_NAME>
Mitemcinal

>  <CAS_NUMBER>
154738-42-8

>  <UNII>
6X5NRJ664L

>  <SYNONYMS>
Mitemcinal

$$$$
