
 OpenBabel10282417153D

 47 48  0  0  0  0  0  0  0  0999 V2000
    0.9011    0.0267   -0.1488 C   0  0  0  0  0  0  0  0  0  0  0  0
    0.5461   -1.3958   -0.5249 C   0  0  0  0  0  0  0  0  0  0  0  0
    0.8966   -2.4179    0.2993 C   0  0  0  0  0  0  0  0  0  0  0  0
    0.6596   -3.8824   -0.1440 C   0  0  3  0  0  0  0  0  0  0  0  0
    0.0419   -4.0321   -1.5446 C   0  0  0  0  0  0  0  0  0  0  0  0
   -0.1996   -2.9191   -2.2879 C   0  0  0  0  0  0  0  0  0  0  0  0
   -0.0413   -1.6427   -1.7707 N   0  0  0  0  0  0  0  0  0  0  0  0
   -0.5928   -3.1657   -3.7353 C   0  0  0  0  0  0  0  0  0  0  0  0
   -0.9190   -3.3702   -4.9360 N   0  0  0  0  0  0  0  0  0  0  0  0
   -0.0735   -5.4308   -2.1521 C   0  0  0  0  0  0  0  0  0  0  0  0
   -0.2303   -5.6579   -3.3428 O   0  0  0  0  0  0  0  0  0  0  0  0
    0.1848   -6.4273   -1.2621 O   0  0  0  0  0  0  0  0  0  0  0  0
    0.4484   -7.7057   -1.8770 C   0  0  0  0  0  0  0  0  0  0  0  0
    1.9675   -4.6862   -0.0860 C   0  0  0  0  0  0  0  0  0  0  0  0
    2.4117   -5.1863    1.1427 C   0  0  0  0  0  0  0  0  0  0  0  0
    3.6388   -5.8204    1.2571 C   0  0  0  0  0  0  0  0  0  0  0  0
    4.2499   -6.2904    0.1093 C   0  0  0  0  0  0  0  0  0  0  0  0
    3.6825   -6.0237   -1.1259 C   0  0  0  0  0  0  0  0  0  0  0  0
    2.6760   -5.0776   -1.2333 C   0  0  0  0  0  0  0  0  0  0  0  0
    4.2360   -6.1209    2.5598 N   0  3  0  0  0  0  0  0  0  0  0  0
    5.3542   -6.6491    2.5671 O   0  0  0  0  0  0  0  0  0  0  0  0
    3.6074   -5.8353    3.5820 O   0  5  0  0  0  0  0  0  0  0  0  0
    1.5958   -2.0773    1.5966 C   0  0  0  0  0  0  0  0  0  0  0  0
    2.0961   -0.9844    1.8762 O   0  0  0  0  0  0  0  0  0  0  0  0
    1.6625   -3.1084    2.4403 O   0  0  0  0  0  0  0  0  0  0  0  0
    2.5480   -3.0457    3.5861 C   0  0  0  0  0  0  0  0  0  0  0  0
    3.9939   -2.6129    3.2926 C   0  0  0  0  0  0  0  0  0  0  0  0
    1.8351   -2.3116    4.6823 C   0  0  0  0  0  0  0  0  0  0  0  0
    0.5103    0.2772    0.8474 H   0  0  0  0  0  0  0  0  0  0  0  0
    0.5360    0.7880   -0.8329 H   0  0  0  0  0  0  0  0  0  0  0  0
    1.9984    0.1120   -0.1354 H   0  0  0  0  0  0  0  0  0  0  0  0
   -0.0877   -4.3099    0.5425 H   0  0  0  0  0  0  0  0  0  0  0  0
   -0.4876   -0.8652   -2.2535 H   0  0  0  0  0  0  0  0  0  0  0  0
   -0.4837   -8.1119   -2.2747 H   0  0  0  0  0  0  0  0  0  0  0  0
    1.2051   -7.6452   -2.6739 H   0  0  0  0  0  0  0  0  0  0  0  0
    0.8379   -8.3873   -1.1143 H   0  0  0  0  0  0  0  0  0  0  0  0
    1.7723   -5.1004    2.0125 H   0  0  0  0  0  0  0  0  0  0  0  0
    5.1180   -6.9315    0.1767 H   0  0  0  0  0  0  0  0  0  0  0  0
    3.9916   -6.5826   -2.0024 H   0  0  0  0  0  0  0  0  0  0  0  0
    2.3542   -4.8162   -2.2414 H   0  0  0  0  0  0  0  0  0  0  0  0
    2.5810   -4.0556    3.9778 H   0  0  0  0  0  0  0  0  0  0  0  0
    4.0543   -1.6132    2.8608 H   0  0  0  0  0  0  0  0  0  0  0  0
    4.6031   -2.6103    4.2027 H   0  0  0  0  0  0  0  0  0  0  0  0
    4.4898   -3.2714    2.5686 H   0  0  0  0  0  0  0  0  0  0  0  0
    0.8905   -2.8402    4.8633 H   0  0  0  0  0  0  0  0  0  0  0  0
    2.4237   -2.3159    5.6006 H   0  0  0  0  0  0  0  0  0  0  0  0
    1.5933   -1.2976    4.3711 H   0  0  0  0  0  0  0  0  0  0  0  0
  1  2  1  0  0  0  0
  1 29  1  0  0  0  0
  1 30  1  0  0  0  0
  1 31  1  0  0  0  0
  2  3  2  0  0  0  0
  2  7  1  0  0  0  0
  3  4  1  0  0  0  0
  3 23  1  0  0  0  0
  4  5  1  0  0  0  0
  4 14  1  0  0  0  0
  4 32  1  0  0  0  0
  5  6  2  0  0  0  0
  5 10  1  0  0  0  0
  6  7  1  0  0  0  0
  6  8  1  0  0  0  0
  7 33  1  0  0  0  0
  8  9  3  0  0  0  0
 10 11  2  0  0  0  0
 10 12  1  0  0  0  0
 12 13  1  0  0  0  0
 13 34  1  0  0  0  0
 13 35  1  0  0  0  0
 13 36  1  0  0  0  0
 14 15  2  0  0  0  0
 14 19  1  0  0  0  0
 15 16  1  0  0  0  0
 15 37  1  0  0  0  0
 16 17  2  0  0  0  0
 16 20  1  0  0  0  0
 17 18  1  0  0  0  0
 17 38  1  0  0  0  0
 18 19  2  0  0  0  0
 18 39  1  0  0  0  0
 19 40  1  0  0  0  0
 20 21  2  0  0  0  0
 20 22  1  0  0  0  0
 23 24  2  0  0  0  0
 23 25  1  0  0  0  0
 25 26  1  0  0  0  0
 26 27  1  0  0  0  0
 26 28  1  0  0  0  0
 26 41  1  0  0  0  0
 27 42  1  0  0  0  0
 27 43  1  0  0  0  0
 27 44  1  0  0  0  0
 28 45  1  0  0  0  0
 28 46  1  0  0  0  0
 28 47  1  0  0  0  0
M  CHG  2  20   1  22  -1
M  END
>  <DRUGBANK_ID>
DB06712

>  <COMMON_NAME>
Nilvadipine

>  <CAS_NUMBER>
75530-68-6

>  <UNII>
0214FUT37J

>  <SYNONYMS>
Nilvadipine; Nilvadipino; Nilvadipinum

$$$$
