457
 OpenBabel10282417103D

 49 52  0  0  0  0  0  0  0  0999 V2000
    1.1244   -0.0402    0.2233 O   0  0  0  0  0  0  0  0  0  0  0  0
    4.0506   -1.7279   -0.3482 O   0  0  0  0  0  0  0  0  0  0  0  0
    5.2933   10.1106    3.8736 O   0  0  0  0  0  0  0  0  0  0  0  0
    6.6573    9.2622    6.2702 O   0  0  0  0  0  0  0  0  0  0  0  0
    3.6423    3.3430    2.2349 N   0  0  0  0  0  0  0  0  0  0  0  0
    3.1094    0.8080    0.9723 N   0  0  0  0  0  0  0  0  0  0  0  0
    4.2643    5.5764    2.7576 N   0  0  0  0  0  0  0  0  0  0  0  0
    4.7997    3.7945    4.1957 N   0  0  0  0  0  0  0  0  0  0  0  0
    6.0219    4.0952    6.1304 N   0  0  0  0  0  0  0  0  0  0  0  0
    2.4661    2.5804    2.6637 C   0  0  0  0  0  0  0  0  0  0  0  0
    3.9892    3.1716    0.8241 C   0  0  0  0  0  0  0  0  0  0  0  0
    2.6661    1.0776    2.3499 C   0  0  0  0  0  0  0  0  0  0  0  0
    4.2342    1.6458    0.5237 C   0  0  0  0  0  0  0  0  0  0  0  0
    4.2388    4.2633    3.0700 C   0  0  0  0  0  0  0  0  0  0  0  0
    2.3633   -0.0156    0.1283 C   0  0  0  0  0  0  0  0  0  0  0  0
    4.8361    6.4618    3.6269 C   0  0  0  0  0  0  0  0  0  0  0  0
    3.0559   -0.8942   -0.8113 C   0  0  0  0  0  0  0  0  0  0  0  0
    5.4666    6.0410    4.7957 C   0  0  0  0  0  0  0  0  0  0  0  0
    5.4274    4.6613    5.0164 C   0  0  0  0  0  0  0  0  0  0  0  0
    4.8271    7.8526    3.4077 C   0  0  0  0  0  0  0  0  0  0  0  0
    6.0892    6.9802    5.6766 C   0  0  0  0  0  0  0  0  0  0  0  0
    2.7788   -1.2339   -2.1282 C   0  0  0  0  0  0  0  0  0  0  0  0
    5.4264    8.8006    4.2825 C   0  0  0  0  0  0  0  0  0  0  0  0
    6.0762    8.3507    5.4365 C   0  0  0  0  0  0  0  0  0  0  0  0
    3.6388   -2.3050   -2.4835 C   0  0  0  0  0  0  0  0  0  0  0  0
    4.3699   -2.5884   -1.3554 C   0  0  0  0  0  0  0  0  0  0  0  0
    5.8740   11.1299    4.6894 C   0  0  0  0  0  0  0  0  0  0  0  0
    7.3263    8.8445    7.4495 C   0  0  0  0  0  0  0  0  0  0  0  0
    6.5441    4.6197    6.8094 H   0  0  0  0  0  0  0  0  0  0  0  0
    5.9775    3.0899    6.1978 H   0  0  0  0  0  0  0  0  0  0  0  0
    2.2405    2.7148    3.7274 H   0  0  0  0  0  0  0  0  0  0  0  0
    1.5941    2.9406    2.1003 H   0  0  0  0  0  0  0  0  0  0  0  0
    3.1462    3.5180    0.2106 H   0  0  0  0  0  0  0  0  0  0  0  0
    4.8729    3.7509    0.5407 H   0  0  0  0  0  0  0  0  0  0  0  0
    3.4713    0.6971    2.9899 H   0  0  0  0  0  0  0  0  0  0  0  0
    1.7637    0.5024    2.5839 H   0  0  0  0  0  0  0  0  0  0  0  0
    5.1124    1.3040    1.0818 H   0  0  0  0  0  0  0  0  0  0  0  0
    4.4119    1.4964   -0.5453 H   0  0  0  0  0  0  0  0  0  0  0  0
    4.3227    8.2230    2.5158 H   0  0  0  0  0  0  0  0  0  0  0  0
    6.5830    6.6149    6.5679 H   0  0  0  0  0  0  0  0  0  0  0  0
    2.0181   -0.7824   -2.7495 H   0  0  0  0  0  0  0  0  0  0  0  0
    3.6924   -2.8314   -3.4287 H   0  0  0  0  0  0  0  0  0  0  0  0
    5.1124   -3.3415   -1.1225 H   0  0  0  0  0  0  0  0  0  0  0  0
    5.4085   11.1566    5.6821 H   0  0  0  0  0  0  0  0  0  0  0  0
    6.9632   11.0170    4.7483 H   0  0  0  0  0  0  0  0  0  0  0  0
    5.6865   12.1052    4.2313 H   0  0  0  0  0  0  0  0  0  0  0  0
    6.6367    8.3513    8.1406 H   0  0  0  0  0  0  0  0  0  0  0  0
    8.1847    8.2098    7.2118 H   0  0  0  0  0  0  0  0  0  0  0  0
    7.7075    9.7428    7.9482 H   0  0  0  0  0  0  0  0  0  0  0  0
  1 15  2  0  0  0  0
  2 17  1  0  0  0  0
  2 26  1  0  0  0  0
  3 23  1  0  0  0  0
  3 27  1  0  0  0  0
  4 24  1  0  0  0  0
  4 28  1  0  0  0  0
  5 10  1  0  0  0  0
  5 11  1  0  0  0  0
  5 14  1  0  0  0  0
  6 12  1  0  0  0  0
  6 13  1  0  0  0  0
  6 15  1  0  0  0  0
  7 14  2  0  0  0  0
  7 16  1  0  0  0  0
  8 14  1  0  0  0  0
  8 19  2  0  0  0  0
  9 19  1  0  0  0  0
  9 29  1  0  0  0  0
  9 30  1  0  0  0  0
 10 12  1  0  0  0  0
 10 31  1  0  0  0  0
 10 32  1  0  0  0  0
 11 13  1  0  0  0  0
 11 33  1  0  0  0  0
 11 34  1  0  0  0  0
 12 35  1  0  0  0  0
 12 36  1  0  0  0  0
 13 37  1  0  0  0  0
 13 38  1  0  0  0  0
 15 17  1  0  0  0  0
 16 18  1  0  0  0  0
 16 20  2  0  0  0  0
 17 22  2  0  0  0  0
 18 19  1  0  0  0  0
 18 21  2  0  0  0  0
 20 23  1  0  0  0  0
 20 39  1  0  0  0  0
 21 24  1  0  0  0  0
 21 40  1  0  0  0  0
 22 25  1  0  0  0  0
 22 41  1  0  0  0  0
 23 24  2  0  0  0  0
 25 26  2  0  0  0  0
 25 42  1  0  0  0  0
 26 43  1  0  0  0  0
 27 44  1  0  0  0  0
 27 45  1  0  0  0  0
 27 46  1  0  0  0  0
 28 47  1  0  0  0  0
 28 48  1  0  0  0  0
 28 49  1  0  0  0  0
M  END
>  <DRUGBANK_ID>
DB00457

>  <SECONDARY_ACCESSION_NUMBERS>
APRD00020

>  <COMMON_NAME>
Prazosin

>  <CAS_NUMBER>
19216-56-9

>  <UNII>
XM03YJ541D

>  <SYNONYMS>
1-(4-Amino-6,7-dimethoxy-2-quinazolinyl)-4-(2-furanylcarbonyl)piperazine; 2-(4-(2-Furoyl)piperazin-1-yl)-4-amino-6,7-dimethoxyquinazoline; Prazosin; Prazosina; Prazosine; Prazosinum

$$$$
