
 OpenBabel10282417143D

 39 42  0  0  0  0  0  0  0  0999 V2000
    0.6801   -1.0159    0.0006 C   0  0  0  0  0  0  0  0  0  0  0  0
   -0.7383   -1.0306    0.0005 C   0  0  0  0  0  0  0  0  0  0  0  0
    1.3971    0.2016   -0.0001 C   0  0  0  0  0  0  0  0  0  0  0  0
    1.5006   -2.2754    0.0011 C   0  0  0  0  0  0  0  0  0  0  0  0
   -1.4473    0.2052   -0.0004 C   0  0  0  0  0  0  0  0  0  0  0  0
   -1.5200   -2.2057    0.0010 C   0  0  0  0  0  0  0  0  0  0  0  0
    0.6943    1.4241   -0.0001 C   0  0  0  0  0  0  0  0  0  0  0  0
    2.8611    0.2211   -0.0007 C   0  0  0  0  0  0  0  0  0  0  0  0
    2.8657   -2.1314    0.0003 N   0  0  0  0  0  0  0  0  0  0  0  0
    1.0377   -3.4123    0.0023 O   0  0  0  0  0  0  0  0  0  0  0  0
   -0.6972    1.4077   -0.0000 C   0  0  0  0  0  0  0  0  0  0  0  0
   -2.8599    0.2359   -0.0015 C   0  0  0  0  0  0  0  0  0  0  0  0
   -2.9056   -2.1630    0.0001 C   0  0  0  0  0  0  0  0  0  0  0  0
    1.1571    2.7235   -0.0002 N   0  0  0  0  0  0  0  0  0  0  0  0
    3.5258   -0.9382   -0.0004 C   0  0  0  0  0  0  0  0  0  0  0  0
   -1.0505    2.7406    0.0005 N   0  0  0  0  0  0  0  0  0  0  0  0
   -3.5817   -0.9565   -0.0011 C   0  0  0  0  0  0  0  0  0  0  0  0
   -3.5906   -3.3135    0.0004 F   0  0  0  0  0  0  0  0  0  0  0  0
    0.0942    3.5057   -0.0001 C   0  0  0  0  0  0  0  0  0  0  0  0
    0.0922    5.0250   -0.0009 C   0  0  0  0  0  0  0  0  0  0  0  0
   -0.6149    5.5713   -1.2528 C   0  0  0  0  0  0  0  0  0  0  0  0
   -0.6138    5.5728    1.2510 C   0  0  0  0  0  0  0  0  0  0  0  0
    1.5459    5.5365   -0.0019 C   0  0  0  0  0  0  0  0  0  0  0  0
   -1.0822   -3.1972    0.0019 H   0  0  0  0  0  0  0  0  0  0  0  0
    3.3801    1.1735   -0.0015 H   0  0  0  0  0  0  0  0  0  0  0  0
    3.3766   -3.0068    0.0004 H   0  0  0  0  0  0  0  0  0  0  0  0
   -3.4091    1.1719   -0.0029 H   0  0  0  0  0  0  0  0  0  0  0  0
    4.6090   -0.9944   -0.0006 H   0  0  0  0  0  0  0  0  0  0  0  0
   -1.9930    3.1023    0.0012 H   0  0  0  0  0  0  0  0  0  0  0  0
   -4.6657   -0.9611   -0.0019 H   0  0  0  0  0  0  0  0  0  0  0  0
   -1.6676    5.2686   -1.2882 H   0  0  0  0  0  0  0  0  0  0  0  0
   -0.5902    6.6681   -1.2709 H   0  0  0  0  0  0  0  0  0  0  0  0
   -0.1349    5.2133   -2.1704 H   0  0  0  0  0  0  0  0  0  0  0  0
   -0.1329    5.2159    2.1686 H   0  0  0  0  0  0  0  0  0  0  0  0
   -0.5890    6.6697    1.2677 H   0  0  0  0  0  0  0  0  0  0  0  0
   -1.6664    5.2701    1.2877 H   0  0  0  0  0  0  0  0  0  0  0  0
    2.0895    5.1830    0.8824 H   0  0  0  0  0  0  0  0  0  0  0  0
    2.0887    5.1819   -0.8863 H   0  0  0  0  0  0  0  0  0  0  0  0
    1.5867    6.6313   -0.0026 H   0  0  0  0  0  0  0  0  0  0  0  0
  1  2  2  0  0  0  0
  1  3  1  0  0  0  0
  1  4  1  0  0  0  0
  2  5  1  0  0  0  0
  2  6  1  0  0  0  0
  3  7  2  0  0  0  0
  3  8  1  0  0  0  0
  4  9  1  0  0  0  0
  4 10  2  0  0  0  0
  5 11  2  0  0  0  0
  5 12  1  0  0  0  0
  6 13  2  0  0  0  0
  6 24  1  0  0  0  0
  7 11  1  0  0  0  0
  7 14  1  0  0  0  0
  8 15  2  0  0  0  0
  8 25  1  0  0  0  0
  9 15  1  0  0  0  0
  9 26  1  0  0  0  0
 11 16  1  0  0  0  0
 12 17  2  0  0  0  0
 12 27  1  0  0  0  0
 13 17  1  0  0  0  0
 13 18  1  0  0  0  0
 14 19  2  0  0  0  0
 15 28  1  0  0  0  0
 16 19  1  0  0  0  0
 16 29  1  0  0  0  0
 17 30  1  0  0  0  0
 19 20  1  0  0  0  0
 20 21  1  0  0  0  0
 20 22  1  0  0  0  0
 20 23  1  0  0  0  0
 21 31  1  0  0  0  0
 21 32  1  0  0  0  0
 21 33  1  0  0  0  0
 22 34  1  0  0  0  0
 22 35  1  0  0  0  0
 22 36  1  0  0  0  0
 23 37  1  0  0  0  0
 23 38  1  0  0  0  0
 23 39  1  0  0  0  0
M  END
>  <DRUGBANK_ID>
DB04716

>  <COMMON_NAME>
2-tert-butyl-9-fluoro-1,6-dihydrobenzo[h]imidazo[4,5-f]isoquinolin-7-one

>  <CAS_NUMBER>
457081-03-7

>  <UNII>
LDX3F0CCST

>  <SYNONYMS>
CMP 6; Pyridone 6

$$$$
