884
 OpenBabel10282417113D

 28 28  0  0  0  0  0  0  0  0999 V2000
    0.9259    0.0670    0.0042 P   0  0  0  0  0  0  0  0  0  0  0  0
    3.3659    1.5496   -0.8784 P   0  0  0  0  0  0  0  0  0  0  0  0
    3.3214    0.1890    1.3408 O   0  0  0  0  0  0  0  0  0  0  0  0
    1.0353    0.7968    1.4867 O   0  0  0  0  0  0  0  0  0  0  0  0
    0.7382    1.4299   -0.8888 O   0  0  0  0  0  0  0  0  0  0  0  0
    2.6453    0.9949   -2.2460 O   0  0  0  0  0  0  0  0  0  0  0  0
    2.3946    2.5591   -0.0361 O   0  0  0  0  0  0  0  0  0  0  0  0
   -0.6224    0.0670    0.0042 O   0  0  0  0  0  0  0  0  0  0  0  0
    3.8820    2.8039   -1.6251 O   0  0  0  0  0  0  0  0  0  0  0  0
    1.7491   -3.6408    1.9665 N   0  0  0  0  0  0  0  0  0  0  0  0
    2.7559    0.0670    0.0042 C   0  0  0  0  0  0  0  0  0  0  0  0
    3.2653   -1.2438   -0.6055 C   0  0  0  0  0  0  0  0  0  0  0  0
    2.8503   -2.5083    0.1152 C   0  0  0  0  0  0  0  0  0  0  0  0
    3.2296   -3.7406   -0.4057 C   0  0  0  0  0  0  0  0  0  0  0  0
    2.1241   -2.5229    1.3058 C   0  0  0  0  0  0  0  0  0  0  0  0
    2.8993   -4.9122    0.2829 C   0  0  0  0  0  0  0  0  0  0  0  0
    2.1652   -4.8008    1.4517 C   0  0  0  0  0  0  0  0  0  0  0  0
    2.7754    0.8933    1.7649 H   0  0  0  0  0  0  0  0  0  0  0  0
    0.3493    0.4252    2.0815 H   0  0  0  0  0  0  0  0  0  0  0  0
    1.1924    1.4830   -1.7716 H   0  0  0  0  0  0  0  0  0  0  0  0
    3.3673    0.9410   -2.9231 H   0  0  0  0  0  0  0  0  0  0  0  0
    1.4485    2.3275    0.1383 H   0  0  0  0  0  0  0  0  0  0  0  0
    2.8997   -1.3296   -1.6370 H   0  0  0  0  0  0  0  0  0  0  0  0
    4.3609   -1.2151   -0.6493 H   0  0  0  0  0  0  0  0  0  0  0  0
    3.8021   -3.8112   -1.3273 H   0  0  0  0  0  0  0  0  0  0  0  0
    1.8035   -1.6321    1.8224 H   0  0  0  0  0  0  0  0  0  0  0  0
    3.2189   -5.8780   -0.0762 H   0  0  0  0  0  0  0  0  0  0  0  0
    1.8964   -5.6786    2.0369 H   0  0  0  0  0  0  0  0  0  0  0  0
  1  4  1  0  0  0  0
  1  5  1  0  0  0  0
  1  8  2  0  0  0  0
  1 11  1  0  0  0  0
  2  6  1  0  0  0  0
  2  7  1  0  0  0  0
  2  9  2  0  0  0  0
  2 11  1  0  0  0  0
  3 11  1  0  0  0  0
  3 18  1  0  0  0  0
  4 19  1  0  0  0  0
  5 20  1  0  0  0  0
  6 21  1  0  0  0  0
  7 22  1  0  0  0  0
 10 15  1  0  0  0  0
 10 17  2  0  0  0  0
 11 12  1  0  0  0  0
 12 13  1  0  0  0  0
 12 23  1  0  0  0  0
 12 24  1  0  0  0  0
 13 14  1  0  0  0  0
 13 15  2  0  0  0  0
 14 16  2  0  0  0  0
 14 25  1  0  0  0  0
 15 26  1  0  0  0  0
 16 17  1  0  0  0  0
 16 27  1  0  0  0  0
 17 28  1  0  0  0  0
M  END
>  <DRUGBANK_ID>
DB00884

>  <SECONDARY_ACCESSION_NUMBERS>
APRD00410; DB02782

>  <COMMON_NAME>
Risedronic acid

>  <CAS_NUMBER>
105462-24-6

>  <UNII>
KM2Z91756Z

>  <SYNONYMS>
Acide risédroniqe; Acido risedronico; Acidum risedronicum; Risedronate; Risedronic acid; Risedronsäure

$$$$
