251
 OpenBabel10282417163D

 42 44  0  0  0  0  0  0  0  0999 V2000
    1.3500   -0.1283    0.2385 C   0  0  0  0  0  0  0  0  0  0  0  0
    0.4470   -1.1658    0.5014 C   0  0  0  0  0  0  0  0  0  0  0  0
   -0.9523   -0.9680    0.3649 C   0  0  0  0  0  0  0  0  0  0  0  0
   -1.4144    0.3275    0.1618 C   0  0  0  0  0  0  0  0  0  0  0  0
   -0.5105    1.3902    0.0716 C   0  0  0  0  0  0  0  0  0  0  0  0
    0.8655    1.1571    0.0390 C   0  0  0  0  0  0  0  0  0  0  0  0
   -1.8784   -2.1263    0.2794 C   0  0  0  0  0  0  0  0  0  0  0  0
   -1.8950   -3.1819    1.1766 C   0  0  0  0  0  0  0  0  0  0  0  0
   -2.8866   -4.0916    0.7830 C   0  0  0  0  0  0  0  0  0  0  0  0
   -3.4341   -3.6499   -0.4047 C   0  0  0  0  0  0  0  0  0  0  0  0
   -2.7666   -2.4801   -0.7706 N   0  0  0  0  0  0  0  0  0  0  0  0
   -4.4729   -4.3266   -1.1788 C   0  0  0  0  0  0  0  0  0  0  0  0
   -4.1774   -4.9279   -2.4040 C   0  0  0  0  0  0  0  0  0  0  0  0
   -5.1642   -5.5295   -3.1753 C   0  0  0  0  0  0  0  0  0  0  0  0
   -6.4330   -5.6902   -2.6407 C   0  0  0  0  0  0  0  0  0  0  0  0
   -6.7117   -5.2128   -1.3593 C   0  0  0  0  0  0  0  0  0  0  0  0
   -5.7569   -4.4741   -0.6568 C   0  0  0  0  0  0  0  0  0  0  0  0
   -2.9997   -1.8025   -2.0723 C   0  0  0  0  0  0  0  0  0  0  0  0
   -2.6495   -2.6126   -3.3480 C   0  0  0  0  0  0  0  0  0  0  0  0
   -1.4200   -3.2548   -3.5184 N   0  0  0  0  0  0  0  0  0  0  0  0
   -3.4662   -2.7045   -4.2748 O   0  0  0  0  0  0  0  0  0  0  0  0
   -0.2212   -3.0476   -2.9164 C   0  0  0  0  0  0  0  0  0  0  0  0
    0.8398   -3.7697   -3.0696 N   0  0  0  0  0  0  0  0  0  0  0  0
   -0.0288   -2.0299   -2.1158 N   0  0  0  0  0  0  0  0  0  0  0  0
    2.4175   -0.3311    0.1507 H   0  0  0  0  0  0  0  0  0  0  0  0
    0.8638   -2.1673    0.6256 H   0  0  0  0  0  0  0  0  0  0  0  0
   -2.4770    0.5158    0.0454 H   0  0  0  0  0  0  0  0  0  0  0  0
   -0.8868    2.4055   -0.0010 H   0  0  0  0  0  0  0  0  0  0  0  0
    1.5560    1.9762   -0.1476 H   0  0  0  0  0  0  0  0  0  0  0  0
   -1.2534   -3.2682    2.0451 H   0  0  0  0  0  0  0  0  0  0  0  0
   -3.1623   -5.0061    1.2922 H   0  0  0  0  0  0  0  0  0  0  0  0
   -3.1675   -4.9302   -2.7901 H   0  0  0  0  0  0  0  0  0  0  0  0
   -4.9229   -5.8869   -4.1725 H   0  0  0  0  0  0  0  0  0  0  0  0
   -7.1962   -6.2047   -3.2156 H   0  0  0  0  0  0  0  0  0  0  0  0
   -7.6742   -5.4218   -0.9032 H   0  0  0  0  0  0  0  0  0  0  0  0
   -6.0098   -4.0405    0.3076 H   0  0  0  0  0  0  0  0  0  0  0  0
   -4.0731   -1.5623   -2.0933 H   0  0  0  0  0  0  0  0  0  0  0  0
   -2.4919   -0.8377   -2.1117 H   0  0  0  0  0  0  0  0  0  0  0  0
   -1.3991   -3.8711   -4.3175 H   0  0  0  0  0  0  0  0  0  0  0  0
    0.7645   -4.5134   -3.7422 H   0  0  0  0  0  0  0  0  0  0  0  0
   -0.8273   -1.5809   -1.7259 H   0  0  0  0  0  0  0  0  0  0  0  0
    0.5832   -2.3535   -1.3802 H   0  0  0  0  0  0  0  0  0  0  0  0
  1  2  1  0  0  0  0
  1 25  1  0  0  0  0
  2 26  1  0  0  0  0
  3  7  1  0  0  0  0
  3  2  2  0  0  0  0
  4  3  1  0  0  0  0
  4 27  1  0  0  0  0
  5  4  2  0  0  0  0
  5  6  1  0  0  0  0
  5 28  1  0  0  0  0
  6  1  2  0  0  0  0
  6 29  1  0  0  0  0
  7  8  2  0  0  0  0
  8 30  1  0  0  0  0
  9  8  1  0  0  0  0
  9 31  1  0  0  0  0
 10  9  2  0  0  0  0
 11 10  1  0  0  0  0
 11  7  1  0  0  0  0
 12 10  1  0  0  0  0
 13 12  1  0  0  0  0
 13 32  1  0  0  0  0
 14 13  2  0  0  0  0
 14 33  1  0  0  0  0
 15 16  2  0  0  0  0
 15 14  1  0  0  0  0
 15 34  1  0  0  0  0
 16 17  1  0  0  0  0
 16 35  1  0  0  0  0
 17 12  2  0  0  0  0
 17 36  1  0  0  0  0
 18 19  1  0  0  0  0
 18 11  1  0  0  0  0
 18 37  1  0  0  0  0
 18 38  1  0  0  0  0
 19 21  2  0  0  0  0
 20 22  1  0  0  0  0
 20 19  1  0  0  0  0
 20 39  1  0  0  0  0
 22 23  2  0  0  0  0
 23 40  1  0  0  0  0
 24 22  1  0  0  0  0
 24 41  1  0  0  0  0
 24 42  1  0  0  0  0
M  END
>  <DRUGBANK_ID>
DB06930

>  <COMMON_NAME>
N-[amino(imino)methyl]-2-(2,5-diphenyl-1H-pyrrol-1-yl)acetamide

$$$$
