
 OpenBabel10282417113D

 23 23  0  0  0  0  0  0  0  0999 V2000
   -0.3007    0.9219    0.0036 C   0  0  0  0  0  0  0  0  0  0  0  0
   -1.1718   -0.0607   -0.0009 N   0  0  0  0  0  0  0  0  0  0  0  0
   -0.4102   -1.2357   -0.0021 C   0  0  0  0  0  0  0  0  0  0  0  0
    0.9548   -0.9307    0.0057 C   0  0  0  0  0  0  0  0  0  0  0  0
    0.9831    0.4506   -0.0005 N   0  0  0  0  0  0  0  0  0  0  0  0
   -1.0139   -2.5741   -0.0101 C   0  0  0  0  0  0  0  0  0  0  0  0
   -0.4165   -3.6512   -0.0160 O   0  0  0  0  0  0  0  0  0  0  0  0
   -2.3726   -2.6371   -0.0139 N   0  0  0  0  0  0  0  0  0  0  0  0
    2.1232   -1.6446    0.0150 N   0  0  0  0  0  0  0  0  0  0  0  0
    1.9481   -2.8799    0.0348 N   0  0  0  0  0  0  0  0  0  0  0  0
    3.0316   -3.7000    0.0417 N   0  0  0  0  0  0  0  0  0  0  0  0
    4.3951   -3.2421    0.0484 C   0  0  0  0  0  0  0  0  0  0  0  0
    2.7627   -5.1345    0.0513 C   0  0  0  0  0  0  0  0  0  0  0  0
   -0.5336    1.9824    0.0087 H   0  0  0  0  0  0  0  0  0  0  0  0
    1.8156    1.0228   -0.0048 H   0  0  0  0  0  0  0  0  0  0  0  0
   -2.9540   -1.8132   -0.0149 H   0  0  0  0  0  0  0  0  0  0  0  0
   -2.7576   -3.5702   -0.0210 H   0  0  0  0  0  0  0  0  0  0  0  0
    4.8823   -3.6254    0.9492 H   0  0  0  0  0  0  0  0  0  0  0  0
    4.8955   -3.6390   -0.8392 H   0  0  0  0  0  0  0  0  0  0  0  0
    4.4573   -2.1539    0.0407 H   0  0  0  0  0  0  0  0  0  0  0  0
    2.1897   -5.4036    0.9445 H   0  0  0  0  0  0  0  0  0  0  0  0
    2.2024   -5.4172   -0.8458 H   0  0  0  0  0  0  0  0  0  0  0  0
    3.7035   -5.6960    0.0621 H   0  0  0  0  0  0  0  0  0  0  0  0
  1  2  2  0  0  0  0
  1  5  1  0  0  0  0
  1 14  1  0  0  0  0
  2  3  1  0  0  0  0
  3  4  2  0  0  0  0
  3  6  1  0  0  0  0
  4  5  1  0  0  0  0
  4  9  1  0  0  0  0
  5 15  1  0  0  0  0
  6  7  2  0  0  0  0
  6  8  1  0  0  0  0
  8 16  1  0  0  0  0
  8 17  1  0  0  0  0
  9 10  2  0  0  0  0
 10 11  1  0  0  0  0
 11 12  1  0  0  0  0
 11 13  1  0  0  0  0
 12 18  1  0  0  0  0
 12 19  1  0  0  0  0
 12 20  1  0  0  0  0
 13 21  1  0  0  0  0
 13 22  1  0  0  0  0
 13 23  1  0  0  0  0
M  END
>  <DRUGBANK_ID>
DB00851

>  <SECONDARY_ACCESSION_NUMBERS>
APRD00331

>  <COMMON_NAME>
Dacarbazine

>  <CAS_NUMBER>
4342-03-4

>  <UNII>
7GR28W0FJI

>  <SYNONYMS>
4-(3,3-dimethyl-1-triazeno)imidazole-5-carboxamide; 4-(5)-(3,3-dimethyl-1-triazeno)imidazole-5(4)-carboxamide; 4-(dimethyltriazeno)imidazole-5-carboxamide; 5-(3,3-dimethyl-1-triazeno)imidazole-4-carboxamide; 5-(3,3-dimethyltriazeno)imidazole-4-carboxamide; 5-(dimethyltriazeno)imidazole-4-carboxamide; Biocarbazine; Dacarbazin; Dacarbazina; Dacarbazine; Dacarbazinum; DIC; DTIC; ICDMT

$$$$
