
 OpenBabel10282417153D

 47 48  0  0  0  0  0  0  0  0999 V2000
    1.3451   -0.3855   -0.0231 C   0  0  0  0  0  0  0  0  0  0  0  0
    0.4514   -1.4272    0.0130 C   0  0  0  0  0  0  0  0  0  0  0  0
   -0.9090   -1.1417   -0.0185 C   0  0  0  0  0  0  0  0  0  0  0  0
   -1.3741    0.1902    0.0029 C   0  0  0  0  0  0  0  0  0  0  0  0
   -0.4863    1.2812    0.0566 C   0  0  0  0  0  0  0  0  0  0  0  0
    0.8667    0.9217   -0.0776 C   0  0  0  0  0  0  0  0  0  0  0  0
   -0.9946    2.7434    0.3350 C   0  0  0  0  0  0  0  0  0  0  0  0
   -0.0655    3.8224    0.4981 N   0  0  0  0  0  0  0  0  0  0  0  0
   -0.5290    5.1728    0.7997 N   0  0  0  0  0  0  0  0  0  0  0  0
    0.2969    6.2874    0.9296 C   0  0  0  0  0  0  0  0  0  0  0  0
   -0.3278    7.5996    1.3025 C   0  0  0  0  0  0  0  0  0  0  0  0
    0.2300    8.0353    2.6429 C   0  0  0  0  0  0  0  0  0  0  0  0
    0.9852    9.2106    2.6780 N   0  0  0  0  0  0  0  0  0  0  0  0
    1.6047    9.7470    3.8984 N   0  0  0  0  0  0  0  0  0  0  0  0
    2.3681   10.9377    3.8404 C   0  0  0  0  0  0  0  0  0  0  0  0
    3.0496   11.4416    5.1042 C   0  0  0  0  0  0  0  0  0  0  0  0
    4.4389   10.9971    7.0644 C   0  0  0  0  0  0  0  0  0  0  0  0
    3.7686   10.5542    5.9212 C   0  0  0  0  0  0  0  0  0  0  0  0
    3.0779   12.8085    5.4355 C   0  0  0  0  0  0  0  0  0  0  0  0
    3.8466   13.2640    6.5171 C   0  0  0  0  0  0  0  0  0  0  0  0
    4.4974   12.3559    7.3500 C   0  0  0  0  0  0  0  0  0  0  0  0
   -2.6651    3.0496    0.5364 S   0  0  0  0  0  0  0  0  0  0  0  0
    1.5234    6.3293    0.7601 O   0  0  0  0  0  0  0  0  0  0  0  0
   -0.0169    7.3193    3.6164 O   0  0  0  0  0  0  0  0  0  0  0  0
    2.5867   11.7860    2.3837 S   0  0  0  0  0  0  0  0  0  0  0  0
    1.3626    3.6656    0.3845 C   0  0  0  0  0  0  0  0  0  0  0  0
    1.3068    8.9812    5.1058 C   0  0  0  0  0  0  0  0  0  0  0  0
    2.4206   -0.5495   -0.0120 H   0  0  0  0  0  0  0  0  0  0  0  0
    0.8225   -2.4458    0.0345 H   0  0  0  0  0  0  0  0  0  0  0  0
   -1.6194   -1.9636   -0.0325 H   0  0  0  0  0  0  0  0  0  0  0  0
   -2.4525    0.3286   -0.0180 H   0  0  0  0  0  0  0  0  0  0  0  0
    1.6780    1.6003   -0.2435 H   0  0  0  0  0  0  0  0  0  0  0  0
   -1.5357    5.2257    0.9674 H   0  0  0  0  0  0  0  0  0  0  0  0
   -0.0746    8.3093    0.5080 H   0  0  0  0  0  0  0  0  0  0  0  0
   -1.4157    7.5277    1.3699 H   0  0  0  0  0  0  0  0  0  0  0  0
    1.2402    9.7164    1.8285 H   0  0  0  0  0  0  0  0  0  0  0  0
    4.9426   10.2795    7.7074 H   0  0  0  0  0  0  0  0  0  0  0  0
    3.8129    9.4948    5.6855 H   0  0  0  0  0  0  0  0  0  0  0  0
    2.5303   13.5428    4.8481 H   0  0  0  0  0  0  0  0  0  0  0  0
    3.9543   14.3312    6.7005 H   0  0  0  0  0  0  0  0  0  0  0  0
    5.0638   12.7063    8.2098 H   0  0  0  0  0  0  0  0  0  0  0  0
    1.6677    2.9292    1.1322 H   0  0  0  0  0  0  0  0  0  0  0  0
    1.5512    3.4033   -0.6601 H   0  0  0  0  0  0  0  0  0  0  0  0
    2.0277    4.4818    0.5798 H   0  0  0  0  0  0  0  0  0  0  0  0
    0.2264    8.9059    5.2303 H   0  0  0  0  0  0  0  0  0  0  0  0
    1.7993    8.0062    5.0217 H   0  0  0  0  0  0  0  0  0  0  0  0
    1.6551    9.4594    6.0158 H   0  0  0  0  0  0  0  0  0  0  0  0
  1  2  1  0  0  0  0
  1  6  2  0  0  0  0
  1 28  1  0  0  0  0
  2  3  2  0  0  0  0
  2 29  1  0  0  0  0
  3  4  1  0  0  0  0
  3 30  1  0  0  0  0
  4  5  2  0  0  0  0
  4 31  1  0  0  0  0
  5  6  1  0  0  0  0
  5  7  1  0  0  0  0
  6 32  1  0  0  0  0
  7  8  1  0  0  0  0
  7 22  2  0  0  0  0
  8  9  1  0  0  0  0
  8 26  1  0  0  0  0
  9 10  1  0  0  0  0
  9 33  1  0  0  0  0
 10 11  1  0  0  0  0
 10 23  2  0  0  0  0
 11 12  1  0  0  0  0
 11 34  1  0  0  0  0
 11 35  1  0  0  0  0
 12 13  1  0  0  0  0
 12 24  2  0  0  0  0
 13 14  1  0  0  0  0
 13 36  1  0  0  0  0
 14 15  1  0  0  0  0
 14 27  1  0  0  0  0
 15 16  1  0  0  0  0
 15 25  2  0  0  0  0
 16 19  2  0  0  0  0
 17 18  2  0  0  0  0
 17 21  1  0  0  0  0
 17 37  1  0  0  0  0
 18 16  1  0  0  0  0
 18 38  1  0  0  0  0
 19 20  1  0  0  0  0
 19 39  1  0  0  0  0
 20 21  2  0  0  0  0
 20 40  1  0  0  0  0
 21 41  1  0  0  0  0
 26 42  1  0  0  0  0
 26 43  1  0  0  0  0
 26 44  1  0  0  0  0
 27 45  1  0  0  0  0
 27 46  1  0  0  0  0
 27 47  1  0  0  0  0
M  END
>  <DRUGBANK_ID>
DB05719

>  <COMMON_NAME>
Elesclomol

>  <CAS_NUMBER>
488832-69-5

>  <UNII>
6UK191M53P

>  <SYNONYMS>
1-N'-Benzenecarbothioyl-3-(2-benzenecarbothioyl-2-methylhydrazinyl)-N'-methyl-oxopropanehydrazidide; Elesclomol; Ã‰lesclomol; Elesclomolum

$$$$
