HOP
 OpenBabel10282417163D

 55 57  0  0  0  0  0  0  0  0999 V2000
    1.4078   -0.2135    0.0162 C   0  0  0  0  0  0  0  0  0  0  0  0
    0.5438   -1.3040    0.0234 C   0  0  0  0  0  0  0  0  0  0  0  0
    0.9011    1.0862    0.0050 C   0  0  0  0  0  0  0  0  0  0  0  0
   -0.4734    1.3009    0.0364 C   0  0  0  0  0  0  0  0  0  0  0  0
   -1.3462    0.2119   -0.0171 C   0  0  0  0  0  0  0  0  0  0  0  0
   -0.8273   -1.0922    0.0000 C   0  0  0  0  0  0  0  0  0  0  0  0
   -2.8259    0.4408   -0.1834 C   0  0  2  0  0  0  0  0  0  0  0  0
   -3.6003   -0.1920    0.9747 C   0  0  0  0  0  0  0  0  0  0  0  0
   -5.0892   -0.0209    0.7750 C   0  0  1  0  0  0  0  0  0  0  0  0
   -5.5162   -0.6409   -0.5724 C   0  0  2  0  0  0  0  0  0  0  0  0
   -4.7542    0.0025   -1.7543 C   0  0  0  0  0  0  0  0  0  0  0  0
   -3.2606   -0.1072   -1.5553 C   0  0  0  0  0  0  0  0  0  0  0  0
   -6.9822   -0.4204   -0.7841 C   0  0  0  0  0  0  0  0  0  0  0  0
   -7.3854    0.8945   -0.8613 C   0  0  0  0  0  0  0  0  0  0  0  0
   -8.6393    1.1758   -1.3147 C   0  0  0  0  0  0  0  0  0  0  0  0
   -9.6299    0.2100   -1.4400 C   0  0  0  0  0  0  0  0  0  0  0  0
   -9.2268   -1.1246   -1.3568 C   0  0  0  0  0  0  0  0  0  0  0  0
   -7.9043   -1.4422   -1.0228 C   0  0  0  0  0  0  0  0  0  0  0  0
   -5.7704   -0.6358    1.8661 O   0  0  0  0  0  0  0  0  0  0  0  0
  -11.0788    0.5192   -1.6225 C   0  0  0  0  0  0  0  0  0  0  0  0
  -11.8833   -0.3909   -1.8194 O   0  0  0  0  0  0  0  0  0  0  0  0
  -11.5657    1.7965   -1.5120 N   0  0  0  0  0  0  0  0  0  0  0  0
  -10.9020    3.0410   -1.1998 C   0  0  0  0  0  0  0  0  0  0  0  0
  -10.9073    3.9832   -2.3906 C   0  0  0  0  0  0  0  0  0  0  0  0
  -12.3004    4.5654   -2.5753 C   0  0  0  0  0  0  0  0  0  0  0  0
  -12.7499    5.3618   -1.3643 C   0  0  0  0  0  0  0  0  0  0  0  0
  -12.8914    6.5607   -1.3156 O   0  0  0  0  0  0  0  0  0  0  0  0
  -12.9537    4.6026   -0.2664 O   0  0  0  0  0  0  0  0  0  0  0  0
   -3.0346    1.5217   -0.1757 H   0  0  0  0  0  0  0  0  0  0  0  0
   -5.3154    1.0518    0.8245 H   0  0  0  0  0  0  0  0  0  0  0  0
   -5.3174   -1.7191   -0.5636 H   0  0  0  0  0  0  0  0  0  0  0  0
    2.4804   -0.3781    0.0247 H   0  0  0  0  0  0  0  0  0  0  0  0
    0.9311   -2.3182    0.0235 H   0  0  0  0  0  0  0  0  0  0  0  0
    1.5771    1.9346   -0.0423 H   0  0  0  0  0  0  0  0  0  0  0  0
   -0.8584    2.3170    0.0824 H   0  0  0  0  0  0  0  0  0  0  0  0
   -1.4917   -1.9532   -0.0263 H   0  0  0  0  0  0  0  0  0  0  0  0
   -3.3051    0.2571    1.9311 H   0  0  0  0  0  0  0  0  0  0  0  0
   -3.3861   -1.2629    1.0705 H   0  0  0  0  0  0  0  0  0  0  0  0
   -4.9974    1.0677   -1.8766 H   0  0  0  0  0  0  0  0  0  0  0  0
   -5.0434   -0.4744   -2.7003 H   0  0  0  0  0  0  0  0  0  0  0  0
   -2.7454    0.4340   -2.3599 H   0  0  0  0  0  0  0  0  0  0  0  0
   -2.9889   -1.1628   -1.6643 H   0  0  0  0  0  0  0  0  0  0  0  0
   -6.7122    1.7291   -0.6805 H   0  0  0  0  0  0  0  0  0  0  0  0
   -8.6972    2.1972   -1.6307 H   0  0  0  0  0  0  0  0  0  0  0  0
   -9.9296   -1.9204   -1.5949 H   0  0  0  0  0  0  0  0  0  0  0  0
   -7.6057   -2.4833   -0.9524 H   0  0  0  0  0  0  0  0  0  0  0  0
   -5.7962   -1.5930    1.7015 H   0  0  0  0  0  0  0  0  0  0  0  0
  -12.5787    1.8267   -1.5852 H   0  0  0  0  0  0  0  0  0  0  0  0
  -11.3091    3.4205   -0.2746 H   0  0  0  0  0  0  0  0  0  0  0  0
   -9.9083    2.9494   -0.8269 H   0  0  0  0  0  0  0  0  0  0  0  0
  -10.1711    4.7813   -2.2341 H   0  0  0  0  0  0  0  0  0  0  0  0
  -10.5897    3.4558   -3.3055 H   0  0  0  0  0  0  0  0  0  0  0  0
  -12.2987    5.2324   -3.4431 H   0  0  0  0  0  0  0  0  0  0  0  0
  -13.0273    3.7739   -2.7835 H   0  0  0  0  0  0  0  0  0  0  0  0
  -13.0069    5.2027    0.5058 H   0  0  0  0  0  0  0  0  0  0  0  0
  1  2  1  0  0  0  0
  1  3  2  0  0  0  0
  1 32  1  0  0  0  0
  2  6  2  0  0  0  0
  2 33  1  0  0  0  0
  3  4  1  0  0  0  0
  3 34  1  0  0  0  0
  4  5  2  0  0  0  0
  4 35  1  0  0  0  0
  5  6  1  0  0  0  0
  6 36  1  0  0  0  0
  7  5  1  0  0  0  0
  7  8  1  0  0  0  0
  7 12  1  0  0  0  0
  7 29  1  1  0  0  0
  8  9  1  0  0  0  0
  8 37  1  0  0  0  0
  8 38  1  0  0  0  0
  9 10  1  0  0  0  0
  9 19  1  0  0  0  0
  9 30  1  6  0  0  0
 10 11  1  0  0  0  0
 10 31  1  1  0  0  0
 10 13  1  0  0  0  0
 11 12  1  0  0  0  0
 11 39  1  0  0  0  0
 11 40  1  0  0  0  0
 12 41  1  0  0  0  0
 12 42  1  0  0  0  0
 13 14  2  0  0  0  0
 13 18  1  0  0  0  0
 14 15  1  0  0  0  0
 14 43  1  0  0  0  0
 15 16  2  0  0  0  0
 15 44  1  0  0  0  0
 16 17  1  0  0  0  0
 16 20  1  0  0  0  0
 17 18  2  0  0  0  0
 17 45  1  0  0  0  0
 18 46  1  0  0  0  0
 19 47  1  0  0  0  0
 20 21  2  0  0  0  0
 20 22  1  0  0  0  0
 22 23  1  0  0  0  0
 22 48  1  0  0  0  0
 23 24  1  0  0  0  0
 23 49  1  0  0  0  0
 23 50  1  0  0  0  0
 24 25  1  0  0  0  0
 24 51  1  0  0  0  0
 24 52  1  0  0  0  0
 25 26  1  0  0  0  0
 25 53  1  0  0  0  0
 25 54  1  0  0  0  0
 26 27  2  0  0  0  0
 26 28  1  0  0  0  0
 28 55  1  0  0  0  0
M  END
>  <DRUGBANK_ID>
DB07909

>  <COMMON_NAME>
(1S,2S,5S)2-(4-GLUTARIDYLBENZYL)-5-PHENYL-1-CYCLOHEXANOL

$$$$
