
 OpenBabel10282417243D

 75 79  0  0  0  0  0  0  0  0999 V2000
    1.6316    0.1001    0.1624 O   0  0  0  0  0  0  0  0  0  0  0  0
    0.5839    1.1439   -0.8416 C   0  0  0  0  0  0  0  0  0  0  0  0
    1.8202    2.2573   -0.0683 C   0  0  0  0  0  0  0  0  0  0  0  0
    3.2818    2.2369   -0.0407 C   0  0  0  0  0  0  0  0  0  0  0  0
    3.8052    2.4219   -1.3988 C   0  0  0  0  0  0  0  0  0  0  0  0
    3.4934    3.8846   -1.5312 N   0  0  0  0  0  0  0  0  0  0  0  0
    4.2088    4.8542   -2.0621 C   0  0  0  0  0  0  0  0  0  0  0  0
    3.6056    5.8910   -2.3278 O   0  0  0  0  0  0  0  0  0  0  0  0
    5.3364    4.3287   -2.5815 O   0  0  0  0  0  0  0  0  0  0  0  0
    6.0049    5.0911   -3.5997 C   0  0  0  0  0  0  0  0  0  0  0  0
    5.6782    4.9409   -5.1852 C   0  0  0  0  0  0  0  0  0  0  0  0
    4.4106    5.4153   -5.8730 O   0  0  0  0  0  0  0  0  0  0  0  0
    3.2883    4.6566   -5.7216 C   0  0  0  0  0  0  0  0  0  0  0  0
    3.2123    4.0931   -4.5741 C   0  0  0  0  0  0  0  0  0  0  0  0
    2.0590    3.6445   -4.0198 C   0  0  0  0  0  0  0  0  0  0  0  0
    0.7626    3.4100   -4.4203 C   0  0  0  0  0  0  0  0  0  0  0  0
   -0.4748    2.6989   -3.7301 C   0  0  0  0  0  0  0  0  0  0  0  0
   -1.5074    2.3148   -4.4825 C   0  0  0  0  0  0  0  0  0  0  0  0
   -1.3282    2.7122   -5.7758 C   0  0  0  0  0  0  0  0  0  0  0  0
   -0.2888    3.4317   -6.3748 N   0  0  0  0  0  0  0  0  0  0  0  0
    0.8193    3.7895   -5.7242 C   0  0  0  0  0  0  0  0  0  0  0  0
    2.0588    4.4780   -6.3170 C   0  0  0  0  0  0  0  0  0  0  0  0
   -0.5702    1.9907   -2.3541 C   0  0  0  0  0  0  0  0  0  0  0  0
   -0.2353    2.9051   -0.7548 C   0  0  0  0  0  0  0  0  0  0  0  0
   -0.0367    4.3758   -0.2021 C   0  0  0  0  0  0  0  0  0  0  0  0
    0.4378    4.1949    1.2870 C   0  0  0  0  0  0  0  0  0  0  0  0
   -0.0806    2.6736    1.8858 C   0  0  0  0  0  0  0  0  0  0  0  0
   -0.2248    1.6858    0.6945 N   0  0  0  0  0  0  0  0  0  0  0  0
   -0.3101   -0.1853   -0.0538 N   0  0  0  0  0  0  0  0  0  0  0  0
   -0.4761   -0.0383   -1.8891 C   0  0  0  0  0  0  0  0  0  0  0  0
   -0.6408   -1.0043   -2.8727 C   0  0  0  0  0  0  0  0  0  0  0  0
    0.3922   -1.2701   -3.7552 C   0  0  0  0  0  0  0  0  0  0  0  0
    0.3703   -2.3329   -4.5115 C   0  0  0  0  0  0  0  0  0  0  0  0
   -0.7590   -3.0508   -4.2641 C   0  0  0  0  0  0  0  0  0  0  0  0
   -1.7597   -2.6989   -3.3168 C   0  0  0  0  0  0  0  0  0  0  0  0
   -1.7353   -1.6207   -2.5981 N   0  0  0  0  0  0  0  0  0  0  0  0
    1.1939    0.9656   -2.5577 P   0  0  0  0  0  0  0  0  0  0  0  0
    2.1377   -0.2859   -1.9323 O   0  0  0  0  0  0  0  0  0  0  0  0
    1.6043    2.4082   -2.1864 O   0  0  0  0  0  0  0  0  0  0  0  0
    1.7101    0.8146   -4.0097 O   0  0  0  0  0  0  0  0  0  0  0  0
   -1.2461    1.1439   -0.8416 P   0  0  0  0  0  0  0  0  0  0  0  0
   -1.8978    0.6227    0.9257 O   0  0  0  0  0  0  0  0  0  0  0  0
   -2.1707    2.8970   -0.8745 O   0  0  0  0  0  0  0  0  0  0  0  0
   -2.7944    1.1439   -0.8416 O   0  0  0  0  0  0  0  0  0  0  0  0
    2.4572    0.0216   -0.3463 H   0  0  0  0  0  0  0  0  0  0  0  0
    1.6836    3.2483   -0.4428 H   0  0  0  0  0  0  0  0  0  0  0  0
    1.6903    2.2934    0.9798 H   0  0  0  0  0  0  0  0  0  0  0  0
    3.4526    3.1950    0.4841 H   0  0  0  0  0  0  0  0  0  0  0  0
    3.5782    1.4209    0.5812 H   0  0  0  0  0  0  0  0  0  0  0  0
    4.8419    2.2169   -1.5455 H   0  0  0  0  0  0  0  0  0  0  0  0
    3.3690    1.6781   -2.0865 H   0  0  0  0  0  0  0  0  0  0  0  0
    2.5418    4.2464   -1.6397 H   0  0  0  0  0  0  0  0  0  0  0  0
    5.8936    6.1234   -3.2957 H   0  0  0  0  0  0  0  0  0  0  0  0
    7.0379    4.7539   -3.4464 H   0  0  0  0  0  0  0  0  0  0  0  0
    6.4435    5.5750   -5.6491 H   0  0  0  0  0  0  0  0  0  0  0  0
    5.8591    3.9123   -5.5208 H   0  0  0  0  0  0  0  0  0  0  0  0
    3.9496    4.4609   -3.9568 H   0  0  0  0  0  0  0  0  0  0  0  0
    2.4786    3.4079   -3.1251 H   0  0  0  0  0  0  0  0  0  0  0  0
   -2.3069    1.7010   -4.0722 H   0  0  0  0  0  0  0  0  0  0  0  0
   -2.1003    2.4522   -6.4721 H   0  0  0  0  0  0  0  0  0  0  0  0
    1.9828    4.8351   -7.3145 H   0  0  0  0  0  0  0  0  0  0  0  0
   -0.9198    5.0102   -0.2619 H   0  0  0  0  0  0  0  0  0  0  0  0
    0.7382    4.8979   -0.7905 H   0  0  0  0  0  0  0  0  0  0  0  0
    1.5479    4.3110    1.3466 H   0  0  0  0  0  0  0  0  0  0  0  0
    0.1335    5.0619    1.8967 H   0  0  0  0  0  0  0  0  0  0  0  0
    0.6791    2.3044    2.5855 H   0  0  0  0  0  0  0  0  0  0  0  0
   -1.0518    2.8955    2.3224 H   0  0  0  0  0  0  0  0  0  0  0  0
    1.4193   -0.9570   -3.7631 H   0  0  0  0  0  0  0  0  0  0  0  0
    1.2843   -2.4699   -5.0845 H   0  0  0  0  0  0  0  0  0  0  0  0
   -0.8792   -3.9132   -4.8574 H   0  0  0  0  0  0  0  0  0  0  0  0
   -2.6483   -3.2451   -3.0891 H   0  0  0  0  0  0  0  0  0  0  0  0
    1.6109   -1.1436   -1.7813 H   0  0  0  0  0  0  0  0  0  0  0  0
    0.9769    3.1861   -2.2309 H   0  0  0  0  0  0  0  0  0  0  0  0
   -1.5911   -0.3224    0.8325 H   0  0  0  0  0  0  0  0  0  0  0  0
   -1.9011    3.5552   -1.5634 H   0  0  0  0  0  0  0  0  0  0  0  0
  1  2  1  0  0  0  0
  1 45  1  0  0  0  0
  2  3  1  0  0  0  0
  2 37  1  0  0  0  0
  2 41  1  0  0  0  0
  3  4  1  0  0  0  0
  3 46  1  0  0  0  0
  3 47  1  0  0  0  0
  4  5  1  0  0  0  0
  4 48  1  0  0  0  0
  4 49  1  0  0  0  0
  5  6  1  0  0  0  0
  5 50  1  0  0  0  0
  5 51  1  0  0  0  0
  6  7  1  0  0  0  0
  6 52  1  0  0  0  0
  7  8  2  0  0  0  0
  7  9  1  0  0  0  0
  9 10  1  0  0  0  0
 10 11  1  0  0  0  0
 10 53  1  0  0  0  0
 10 54  1  0  0  0  0
 11 12  1  0  0  0  0
 11 55  1  0  0  0  0
 11 56  1  0  0  0  0
 12 13  1  0  0  0  0
 13 14  1  0  0  0  0
 13 22  2  0  0  0  0
 14 15  2  0  0  0  0
 14 57  1  0  0  0  0
 15 16  1  0  0  0  0
 15 58  1  0  0  0  0
 16 17  2  0  0  0  0
 16 21  1  0  0  0  0
 17 18  1  0  0  0  0
 17 23  1  0  0  0  0
 18 19  2  0  0  0  0
 18 59  1  0  0  0  0
 19 20  1  0  0  0  0
 19 60  1  0  0  0  0
 20 21  2  0  0  0  0
 21 22  1  0  0  0  0
 22 61  1  0  0  0  0
 23 24  2  0  0  0  0
 23 30  1  0  0  0  0
 24 25  1  0  0  0  0
 24 28  1  0  0  0  0
 25 26  1  0  0  0  0
 25 62  1  0  0  0  0
 25 63  1  0  0  0  0
 26 27  1  0  0  0  0
 26 64  1  0  0  0  0
 26 65  1  0  0  0  0
 27 28  1  0  0  0  0
 27 66  1  0  0  0  0
 27 67  1  0  0  0  0
 28 29  1  0  0  0  0
 29 30  2  0  0  0  0
 30 31  1  0  0  0  0
 31 32  2  0  0  0  0
 31 36  1  0  0  0  0
 32 33  1  0  0  0  0
 32 68  1  0  0  0  0
 33 34  2  0  0  0  0
 33 69  1  0  0  0  0
 34 35  1  0  0  0  0
 34 70  1  0  0  0  0
 35 36  2  0  0  0  0
 35 71  1  0  0  0  0
 37 38  1  0  0  0  0
 37 39  1  0  0  0  0
 37 40  2  0  0  0  0
 38 72  1  0  0  0  0
 39 73  1  0  0  0  0
 41 42  1  0  0  0  0
 41 43  1  0  0  0  0
 41 44  2  0  0  0  0
 42 74  1  0  0  0  0
 43 75  1  0  0  0  0
M  END
>  <DRUGBANK_ID>
DB18408

>  <COMMON_NAME>
BR-007

>  <CAS_NUMBER>
2409546-40-1

>  <UNII>
87VER89275

>  <SYNONYMS>
(1-hydroxy-4-(((2-((4-(2-(pyridin-2-yl)-5,6-dihydro-4H-pyrrolo[1,2-b]pyrazol-3-yl)quinolin-7-yl)oxy)ethoxy)carbonyl)amino)butane-1,1-diyl)bis(hydrogen phosphonate)

$$$$
