
 OpenBabel10282417233D

 50 53  0  0  1  0  0  0  0  0999 V2000
    0.8224   -0.0108   -0.1459 O   0  0  0  0  0  0  0  0  0  0  0  0
    0.2380   -1.0275   -0.8455 C   0  0  0  0  0  0  0  0  0  0  0  0
    0.6773   -2.3477   -0.7285 C   0  0  0  0  0  0  0  0  0  0  0  0
    0.0661   -3.3465   -1.4975 C   0  0  0  0  0  0  0  0  0  0  0  0
   -0.9521   -3.0102   -2.4024 C   0  0  0  0  0  0  0  0  0  0  0  0
   -1.5800   -4.0547   -3.2827 C   0  0  0  0  0  0  0  0  0  0  0  0
   -0.6682   -5.2732   -3.3809 C   0  0  2  0  0  0  0  0  0  0  0  0
   -1.3607   -6.3475   -4.0566 O   0  0  0  0  0  0  0  0  0  0  0  0
   -1.2875   -6.6466   -5.3781 C   0  0  0  0  0  0  0  0  0  0  0  0
   -2.0973   -7.4208   -5.8891 O   0  0  0  0  0  0  0  0  0  0  0  0
   -0.2311   -6.0523   -6.2405 C   0  0  0  0  0  0  0  0  0  0  0  0
    1.1181   -6.0479   -5.8610 C   0  0  0  0  0  0  0  0  0  0  0  0
    2.0945   -5.4747   -6.6686 C   0  0  0  0  0  0  0  0  0  0  0  0
    3.4010   -5.3864   -6.2776 O   0  0  0  0  0  0  0  0  0  0  0  0
    1.7417   -4.9853   -7.9152 C   0  0  0  0  0  0  0  0  0  0  0  0
    2.6788   -4.4424   -8.7506 O   0  0  0  0  0  0  0  0  0  0  0  0
    0.4173   -5.0624   -8.3371 C   0  0  0  0  0  0  0  0  0  0  0  0
    0.0667   -4.6189   -9.5789 O   0  0  0  0  0  0  0  0  0  0  0  0
   -0.5733   -5.5889   -7.5125 C   0  0  0  0  0  0  0  0  0  0  0  0
   -0.2909   -5.6622   -1.9380 C   0  0  2  0  0  0  0  0  0  0  0  0
    0.5424   -4.6307   -1.3501 O   0  0  0  0  0  0  0  0  0  0  0  0
    0.4471   -6.9947   -1.8077 C   0  0  0  0  0  0  0  0  0  0  0  0
    1.6385   -7.2862   -2.4975 C   0  0  0  0  0  0  0  0  0  0  0  0
    2.3121   -8.4909   -2.2904 C   0  0  0  0  0  0  0  0  0  0  0  0
    3.4590   -8.8117   -2.9638 O   0  0  0  0  0  0  0  0  0  0  0  0
    1.8497   -9.3840   -1.3337 C   0  0  0  0  0  0  0  0  0  0  0  0
    2.5560  -10.5101   -1.0230 O   0  0  0  0  0  0  0  0  0  0  0  0
    0.6782   -9.1244   -0.6414 C   0  0  0  0  0  0  0  0  0  0  0  0
   -0.0372   -7.9524   -0.9004 C   0  0  0  0  0  0  0  0  0  0  0  0
   -1.3950   -1.6839   -2.4698 C   0  0  0  0  0  0  0  0  0  0  0  0
   -2.4072   -1.3932   -3.3409 O   0  0  0  0  0  0  0  0  0  0  0  0
   -0.8134   -0.6900   -1.6910 C   0  0  0  0  0  0  0  0  0  0  0  0
    1.7640   -0.2204   -0.0244 H   0  0  0  0  0  0  0  0  0  0  0  0
    1.4708   -2.6073   -0.0335 H   0  0  0  0  0  0  0  0  0  0  0  0
   -1.7492   -3.6621   -4.2918 H   0  0  0  0  0  0  0  0  0  0  0  0
   -2.5607   -4.3265   -2.8718 H   0  0  0  0  0  0  0  0  0  0  0  0
    0.2345   -4.9676   -3.9059 H   0  0  0  0  0  0  0  0  0  0  0  0
    1.3894   -6.5167   -4.9375 H   0  0  0  0  0  0  0  0  0  0  0  0
    3.4897   -5.6904   -5.3584 H   0  0  0  0  0  0  0  0  0  0  0  0
    3.5253   -4.4953   -8.2614 H   0  0  0  0  0  0  0  0  0  0  0  0
    0.8996   -4.3055   -9.9841 H   0  0  0  0  0  0  0  0  0  0  0  0
   -1.5972   -5.6547   -7.8706 H   0  0  0  0  0  0  0  0  0  0  0  0
   -1.2052   -5.7371   -1.3302 H   0  0  0  0  0  0  0  0  0  0  0  0
    2.0708   -6.5419   -3.1475 H   0  0  0  0  0  0  0  0  0  0  0  0
    3.6288   -8.1465   -3.6495 H   0  0  0  0  0  0  0  0  0  0  0  0
    3.3481  -10.4884   -1.5930 H   0  0  0  0  0  0  0  0  0  0  0  0
    0.3352   -9.8183    0.1189 H   0  0  0  0  0  0  0  0  0  0  0  0
   -0.9595   -7.7762   -0.3502 H   0  0  0  0  0  0  0  0  0  0  0  0
   -2.6188   -0.4465   -3.2928 H   0  0  0  0  0  0  0  0  0  0  0  0
   -1.1456    0.3419   -1.7429 H   0  0  0  0  0  0  0  0  0  0  0  0
  1  2  1  0  0  0  0
  1 33  1  0  0  0  0
  2  3  2  0  0  0  0
  2 32  1  0  0  0  0
  3  4  1  0  0  0  0
  3 34  1  0  0  0  0
  4  5  2  0  0  0  0
  4 21  1  0  0  0  0
  5  6  1  0  0  0  0
  5 30  1  0  0  0  0
  6 35  1  0  0  0  0
  6 36  1  0  0  0  0
  7  6  1  0  0  0  0
  7 20  1  0  0  0  0
  7 37  1  6  0  0  0
  7  8  1  0  0  0  0
  8  9  1  0  0  0  0
  9 10  2  0  0  0  0
  9 11  1  0  0  0  0
 11 12  2  0  0  0  0
 11 19  1  0  0  0  0
 12 13  1  0  0  0  0
 12 38  1  0  0  0  0
 13 14  1  0  0  0  0
 13 15  2  0  0  0  0
 14 39  1  0  0  0  0
 15 16  1  0  0  0  0
 15 17  1  0  0  0  0
 16 40  1  0  0  0  0
 17 18  1  0  0  0  0
 17 19  2  0  0  0  0
 18 41  1  0  0  0  0
 19 42  1  0  0  0  0
 20 21  1  0  0  0  0
 20 43  1  1  0  0  0
 20 22  1  0  0  0  0
 22 23  2  0  0  0  0
 22 29  1  0  0  0  0
 23 24  1  0  0  0  0
 23 44  1  0  0  0  0
 24 25  1  0  0  0  0
 24 26  2  0  0  0  0
 25 45  1  0  0  0  0
 26 27  1  0  0  0  0
 26 28  1  0  0  0  0
 27 46  1  0  0  0  0
 28 29  2  0  0  0  0
 28 47  1  0  0  0  0
 29 48  1  0  0  0  0
 30 31  1  0  0  0  0
 30 32  2  0  0  0  0
 31 49  1  0  0  0  0
 32 50  1  0  0  0  0
M  END
>  <DRUGBANK_ID>
DB16120

>  <COMMON_NAME>
Epigallo Catechin Gallate

>  <CAS_NUMBER>
25615-05-8

>  <UNII>
78OW2GLG8Q

>  <SYNONYMS>
(+)-catechin 3-gallate; (+)-catechin gallate; Catechin Gallate; Catechin gallate, (+)-

$$$$
