
 OpenBabel10282417143D

 21 21  0  0  0  0  0  0  0  0999 V2000
    1.0635   -0.1868    0.0128 N   0  0  0  0  0  0  0  0  0  0  0  0
    0.2894   -0.8959   -0.8864 C   0  0  0  0  0  0  0  0  0  0  0  0
   -1.0662   -0.8846   -0.8712 C   0  0  0  0  0  0  0  0  0  0  0  0
   -1.8629   -0.0336    0.0388 C   0  0  0  0  0  0  0  0  0  0  0  0
   -1.5222    1.3224    0.1658 C   0  0  0  0  0  0  0  0  0  0  0  0
   -2.1485    2.1441    1.0962 C   0  0  0  0  0  0  0  0  0  0  0  0
   -3.2128    1.6504    1.8384 C   0  0  0  0  0  0  0  0  0  0  0  0
   -3.6446    0.3371    1.6436 C   0  0  0  0  0  0  0  0  0  0  0  0
   -2.9475   -0.5195    0.7781 C   0  0  0  0  0  0  0  0  0  0  0  0
    0.9245   -1.7449   -1.9715 C   0  0  0  0  0  0  0  0  0  0  0  0
    2.2752   -1.7122   -1.9717 O   0  0  0  0  0  0  0  0  0  0  0  0
    0.2993   -2.4027   -2.7947 O   0  0  0  0  0  0  0  0  0  0  0  0
    0.5711    0.3159    0.7469 H   0  0  0  0  0  0  0  0  0  0  0  0
    2.0601   -0.0832    0.0011 H   0  0  0  0  0  0  0  0  0  0  0  0
   -1.6464   -1.4776   -1.5789 H   0  0  0  0  0  0  0  0  0  0  0  0
   -0.7173    1.7383   -0.4365 H   0  0  0  0  0  0  0  0  0  0  0  0
   -1.8019    3.1646    1.2279 H   0  0  0  0  0  0  0  0  0  0  0  0
   -3.7084    2.2926    2.5615 H   0  0  0  0  0  0  0  0  0  0  0  0
   -4.5228   -0.0181    2.1784 H   0  0  0  0  0  0  0  0  0  0  0  0
   -3.2539   -1.5616    0.7126 H   0  0  0  0  0  0  0  0  0  0  0  0
    2.6519   -1.1629   -1.2697 H   0  0  0  0  0  0  0  0  0  0  0  0
  1  2  1  0  0  0  0
  1 13  1  0  0  0  0
  1 14  1  0  0  0  0
  2  3  2  0  0  0  0
  2 10  1  0  0  0  0
  3  4  1  0  0  0  0
  3 15  1  0  0  0  0
  4  5  2  0  0  0  0
  4  9  1  0  0  0  0
  5  6  1  0  0  0  0
  5 16  1  0  0  0  0
  6  7  2  0  0  0  0
  6 17  1  0  0  0  0
  7  8  1  0  0  0  0
  7 18  1  0  0  0  0
  8  9  2  0  0  0  0
  8 19  1  0  0  0  0
  9 20  1  0  0  0  0
 10 11  1  0  0  0  0
 10 12  2  0  0  0  0
 11 21  1  0  0  0  0
M  END
>  <DRUGBANK_ID>
DB04584

>  <COMMON_NAME>
Phenyldehydroalanine

>  <CAS_NUMBER>
7060-39-1

>  <SYNONYMS>
2,3-Didehydrophenylalanine; alpha-Aminocinnamate

$$$$
