
 OpenBabel10282417233D

 57 61  0  0  0  0  0  0  0  0999 V2000
    2.3452   -0.3826   -0.9245 C   0  0  0  0  0  0  0  0  0  0  0  0
    0.8768   -0.4623   -1.1434 N   0  0  0  0  0  0  0  0  0  0  0  0
    0.2788   -1.5409   -0.3098 C   0  0  0  0  0  0  0  0  0  0  0  0
   -1.2659   -1.4058   -0.2769 C   0  0  0  0  0  0  0  0  0  0  0  0
   -1.8467   -0.1377    0.2252 N   0  0  0  0  0  0  0  0  0  0  0  0
   -2.2370    0.0548    1.6703 C   0  0  0  0  0  0  0  0  0  0  0  0
   -1.2932    0.3314    2.8844 C   0  0  0  0  0  0  0  0  0  0  0  0
   -0.6908    1.5801    3.1949 C   0  0  0  0  0  0  0  0  0  0  0  0
    0.5258    1.6771    4.0216 C   0  0  0  0  0  0  0  0  0  0  0  0
    1.0287    0.5644    4.6979 C   0  0  0  0  0  0  0  0  0  0  0  0
    2.4186    0.4392    5.1137 N   0  0  0  0  0  0  0  0  0  0  0  0
    3.1672   -0.6553    5.6451 C   0  0  0  0  0  0  0  0  0  0  0  0
    4.3184   -0.5001    5.9818 O   0  0  0  0  0  0  0  0  0  0  0  0
    2.5066   -1.9735    5.7221 C   0  0  0  0  0  0  0  0  0  0  0  0
    2.0679   -2.4420    6.9080 N   0  0  0  0  0  0  0  0  0  0  0  0
    1.2402   -3.4421    6.5814 N   0  0  0  0  0  0  0  0  0  0  0  0
    1.1193   -3.6343    5.2217 C   0  0  0  0  0  0  0  0  0  0  0  0
    2.0002   -2.7463    4.6146 C   0  0  0  0  0  0  0  0  0  0  0  0
    2.0978   -2.4220    3.2687 N   0  0  0  0  0  0  0  0  0  0  0  0
    2.9210   -1.3486    2.7492 C   0  0  0  0  0  0  0  0  0  0  0  0
    2.5118   -0.1017    2.1781 C   0  0  0  0  0  0  0  0  0  0  0  0
    1.3475    0.4818    1.7425 C   0  0  0  0  0  0  0  0  0  0  0  0
    1.4979    1.8182    1.3716 C   0  0  0  0  0  0  0  0  0  0  0  0
    2.8192    1.9896    1.2869 N   0  0  0  0  0  0  0  0  0  0  0  0
    3.4215    0.9110    1.8823 C   0  0  0  0  0  0  0  0  0  0  0  0
    4.7235    0.8388    2.0835 N   0  0  0  0  0  0  0  0  0  0  0  0
    5.0373   -0.3542    2.6209 C   0  0  0  0  0  0  0  0  0  0  0  0
    4.2555   -1.4182    2.9464 N   0  0  0  0  0  0  0  0  0  0  0  0
    0.1429   -0.5017    4.6932 C   0  0  0  0  0  0  0  0  0  0  0  0
   -0.8592   -0.7067    3.7053 C   0  0  0  0  0  0  0  0  0  0  0  0
   -1.3837    0.9919   -0.6050 C   0  0  0  0  0  0  0  0  0  0  0  0
    0.1302    0.8183   -0.9377 C   0  0  0  0  0  0  0  0  0  0  0  0
    2.7842    0.6077   -1.1172 H   0  0  0  0  0  0  0  0  0  0  0  0
    2.6602   -0.6711    0.0681 H   0  0  0  0  0  0  0  0  0  0  0  0
    2.9083   -1.1306   -1.4848 H   0  0  0  0  0  0  0  0  0  0  0  0
    0.6124   -2.4990   -0.7191 H   0  0  0  0  0  0  0  0  0  0  0  0
    0.6137   -1.6309    0.7293 H   0  0  0  0  0  0  0  0  0  0  0  0
   -1.5474   -1.4919   -1.3375 H   0  0  0  0  0  0  0  0  0  0  0  0
   -1.7114   -2.2635    0.2259 H   0  0  0  0  0  0  0  0  0  0  0  0
   -2.9850    0.8544    1.7133 H   0  0  0  0  0  0  0  0  0  0  0  0
   -2.7939   -0.8552    1.9342 H   0  0  0  0  0  0  0  0  0  0  0  0
   -0.9234    2.4194    2.5400 H   0  0  0  0  0  0  0  0  0  0  0  0
    1.2011    2.5222    3.8343 H   0  0  0  0  0  0  0  0  0  0  0  0
    3.0856    1.1383    4.7857 H   0  0  0  0  0  0  0  0  0  0  0  0
    0.7143   -3.8756    7.3387 H   0  0  0  0  0  0  0  0  0  0  0  0
    0.3452   -4.3010    4.8640 H   0  0  0  0  0  0  0  0  0  0  0  0
    1.2991   -2.6463    2.6836 H   0  0  0  0  0  0  0  0  0  0  0  0
    0.4335   -0.0628    1.6918 H   0  0  0  0  0  0  0  0  0  0  0  0
    0.7682    2.5479    1.0099 H   0  0  0  0  0  0  0  0  0  0  0  0
    3.2463    2.7553    0.7891 H   0  0  0  0  0  0  0  0  0  0  0  0
    6.0838   -0.4624    2.8426 H   0  0  0  0  0  0  0  0  0  0  0  0
    0.3015   -1.3091    5.3690 H   0  0  0  0  0  0  0  0  0  0  0  0
   -1.1742   -1.7346    3.5280 H   0  0  0  0  0  0  0  0  0  0  0  0
   -1.9343    1.1256   -1.5427 H   0  0  0  0  0  0  0  0  0  0  0  0
   -1.5397    1.9261   -0.0364 H   0  0  0  0  0  0  0  0  0  0  0  0
    0.2782    0.9228    0.0772 H   0  0  0  0  0  0  0  0  0  0  0  0
    0.6241    1.7155   -1.3333 H   0  0  0  0  0  0  0  0  0  0  0  0
  1  2  1  0  0  0  0
  1 33  1  0  0  0  0
  1 34  1  0  0  0  0
  1 35  1  0  0  0  0
  2  3  1  0  0  0  0
  2 32  1  0  0  0  0
  3  4  1  0  0  0  0
  3 36  1  0  0  0  0
  3 37  1  0  0  0  0
  4  5  1  0  0  0  0
  4 38  1  0  0  0  0
  4 39  1  0  0  0  0
  5  6  1  0  0  0  0
  5 31  1  0  0  0  0
  6  7  1  0  0  0  0
  6 40  1  0  0  0  0
  6 41  1  0  0  0  0
  7  8  2  0  0  0  0
  7 30  1  0  0  0  0
  8  9  1  0  0  0  0
  8 42  1  0  0  0  0
  9 10  2  0  0  0  0
  9 43  1  0  0  0  0
 10 11  1  0  0  0  0
 10 29  1  0  0  0  0
 11 12  1  0  0  0  0
 11 44  1  0  0  0  0
 12 13  2  0  0  0  0
 12 14  1  0  0  0  0
 14 15  2  0  0  0  0
 14 18  1  0  0  0  0
 15 16  1  0  0  0  0
 16 17  1  0  0  0  0
 16 45  1  0  0  0  0
 17 18  2  0  0  0  0
 17 46  1  0  0  0  0
 18 19  1  0  0  0  0
 19 20  1  0  0  0  0
 19 47  1  0  0  0  0
 20 21  2  0  0  0  0
 20 28  1  0  0  0  0
 21 22  1  0  0  0  0
 21 25  1  0  0  0  0
 22 23  2  0  0  0  0
 22 48  1  0  0  0  0
 23 24  1  0  0  0  0
 23 49  1  0  0  0  0
 24 25  1  0  0  0  0
 24 50  1  0  0  0  0
 25 26  2  0  0  0  0
 26 27  1  0  0  0  0
 27 28  2  0  0  0  0
 27 51  1  0  0  0  0
 29 30  2  0  0  0  0
 29 52  1  0  0  0  0
 30 53  1  0  0  0  0
 31 32  1  0  0  0  0
 31 54  1  0  0  0  0
 31 55  1  0  0  0  0
 32 56  1  0  0  0  0
 32 57  1  0  0  0  0
M  END
>  <DRUGBANK_ID>
DB17383

>  <COMMON_NAME>
FN-1501

>  <CAS_NUMBER>
1429515-59-2

>  <UNII>
6MC966B505

>  <SYNONYMS>
4-((7h-pyrrolo (2,3-d)pyrimidin-4-yl)amino)-n-(4-((4-methylpiperazin-1-yl)methyl)phenyl)-1h-pyrazole-3-carboxamide

$$$$
