
 OpenBabel10282417233D

 64 67  0  0  0  0  0  0  0  0999 V2000
    1.1532    0.1478   -0.2585 O   0  0  0  0  0  0  0  0  0  0  0  0
    0.4228    1.3427    0.0078 C   0  0  0  0  0  0  0  0  0  0  0  0
    0.7234    2.0803    1.3666 C   0  0  0  0  0  0  0  0  0  0  0  0
    2.1364    2.4701    1.6834 N   0  0  0  0  0  0  0  0  0  0  0  0
    2.5397    3.8125    1.5344 C   0  0  0  0  0  0  0  0  0  0  0  0
    4.0242    4.0958    1.4723 C   0  0  0  0  0  0  0  0  0  0  0  0
    4.5008    5.3409    1.3392 C   0  0  0  0  0  0  0  0  0  0  0  0
    1.7511    4.7022    1.3028 O   0  0  0  0  0  0  0  0  0  0  0  0
    3.0211    1.4156    2.1781 C   0  0  0  0  0  0  0  0  0  0  0  0
    2.5020    0.1789   -0.5121 C   0  0  0  0  0  0  0  0  0  0  0  0
    3.1783   -1.0168   -0.2520 C   0  0  0  0  0  0  0  0  0  0  0  0
    4.5045   -1.0950   -0.0059 N   0  0  0  0  0  0  0  0  0  0  0  0
    5.1747    0.0454   -0.1474 C   0  0  0  0  0  0  0  0  0  0  0  0
    4.6595    1.2100   -0.5723 N   0  0  0  0  0  0  0  0  0  0  0  0
    3.3261    1.2627   -0.7640 C   0  0  0  0  0  0  0  0  0  0  0  0
    2.8426    2.5226   -1.1086 N   0  0  0  0  0  0  0  0  0  0  0  0
    2.4827   -2.2979   -0.2592 C   0  0  0  0  0  0  0  0  0  0  0  0
    1.6884   -2.6562   -1.3925 C   0  0  0  0  0  0  0  0  0  0  0  0
    1.4893   -1.7048   -2.5572 C   0  0  0  0  0  0  0  0  0  0  0  0
    1.1269   -3.9339   -1.4409 C   0  0  0  0  0  0  0  0  0  0  0  0
    0.2015   -4.2659   -2.4597 N   0  0  0  0  0  0  0  0  0  0  0  0
   -0.6215   -5.3662   -2.6291 C   0  0  0  0  0  0  0  0  0  0  0  0
   -1.2408   -5.5091   -3.6804 O   0  0  0  0  0  0  0  0  0  0  0  0
   -0.7411   -6.4170   -1.6001 C   0  0  0  0  0  0  0  0  0  0  0  0
   -0.9721   -6.1176   -0.2573 C   0  0  0  0  0  0  0  0  0  0  0  0
   -1.2344   -4.8610    0.1349 F   0  0  0  0  0  0  0  0  0  0  0  0
   -0.7116   -7.0722    0.7276 C   0  0  0  0  0  0  0  0  0  0  0  0
   -0.3982   -8.4003    0.3946 C   0  0  0  0  0  0  0  0  0  0  0  0
   -0.2898   -8.7023   -0.9775 C   0  0  0  0  0  0  0  0  0  0  0  0
   -0.4332   -7.7261   -1.9677 C   0  0  0  0  0  0  0  0  0  0  0  0
   -0.2757   -9.4308    1.4960 C   0  0  0  0  0  0  0  0  0  0  0  0
    0.9378  -10.3027    1.6874 C   0  0  0  0  0  0  0  0  0  0  0  0
   -0.3354  -10.9028    1.1618 C   0  0  0  0  0  0  0  0  0  0  0  0
    1.5270   -4.8421   -0.4662 C   0  0  0  0  0  0  0  0  0  0  0  0
    2.1407   -4.4558    0.7068 C   0  0  0  0  0  0  0  0  0  0  0  0
    2.6471   -3.1889    0.8197 C   0  0  0  0  0  0  0  0  0  0  0  0
    2.2476   -5.3395    1.7081 F   0  0  0  0  0  0  0  0  0  0  0  0
    0.4346    1.9797   -0.8819 H   0  0  0  0  0  0  0  0  0  0  0  0
   -0.6319    1.0291    0.0564 H   0  0  0  0  0  0  0  0  0  0  0  0
    0.1043    2.9859    1.3524 H   0  0  0  0  0  0  0  0  0  0  0  0
    0.3704    1.4608    2.1974 H   0  0  0  0  0  0  0  0  0  0  0  0
    4.7416    3.2926    1.3911 H   0  0  0  0  0  0  0  0  0  0  0  0
    5.5683    5.5126    1.2162 H   0  0  0  0  0  0  0  0  0  0  0  0
    3.8500    6.2088    1.3227 H   0  0  0  0  0  0  0  0  0  0  0  0
    2.7155    1.0049    3.1342 H   0  0  0  0  0  0  0  0  0  0  0  0
    2.9245    0.5578    1.5532 H   0  0  0  0  0  0  0  0  0  0  0  0
    4.0775    1.6741    2.1622 H   0  0  0  0  0  0  0  0  0  0  0  0
    6.2173    0.0383    0.1504 H   0  0  0  0  0  0  0  0  0  0  0  0
    3.5968    3.1818   -0.9393 H   0  0  0  0  0  0  0  0  0  0  0  0
    2.0821    2.7980   -0.5022 H   0  0  0  0  0  0  0  0  0  0  0  0
    1.7757   -2.1924   -3.4902 H   0  0  0  0  0  0  0  0  0  0  0  0
    0.4534   -1.3528   -2.5922 H   0  0  0  0  0  0  0  0  0  0  0  0
    2.1257   -0.8206   -2.5474 H   0  0  0  0  0  0  0  0  0  0  0  0
    0.0492   -3.5832   -3.1943 H   0  0  0  0  0  0  0  0  0  0  0  0
   -0.7010   -6.7510    1.7676 H   0  0  0  0  0  0  0  0  0  0  0  0
   -0.0690   -9.7157   -1.3010 H   0  0  0  0  0  0  0  0  0  0  0  0
   -0.2663   -7.9878   -3.0104 H   0  0  0  0  0  0  0  0  0  0  0  0
   -0.7671   -9.1442    2.4265 H   0  0  0  0  0  0  0  0  0  0  0  0
    1.7834  -10.1967    1.0192 H   0  0  0  0  0  0  0  0  0  0  0  0
    1.2201  -10.5537    2.7060 H   0  0  0  0  0  0  0  0  0  0  0  0
   -0.9327  -11.5367    1.8052 H   0  0  0  0  0  0  0  0  0  0  0  0
   -0.3640  -11.2225    0.1278 H   0  0  0  0  0  0  0  0  0  0  0  0
    1.3621   -5.8990   -0.5652 H   0  0  0  0  0  0  0  0  0  0  0  0
    3.2211   -2.9402    1.7077 H   0  0  0  0  0  0  0  0  0  0  0  0
  1  2  1  0  0  0  0
  1 10  1  0  0  0  0
  2  3  1  0  0  0  0
  2 38  1  0  0  0  0
  2 39  1  0  0  0  0
  3  4  1  0  0  0  0
  3 40  1  0  0  0  0
  3 41  1  0  0  0  0
  4  5  1  0  0  0  0
  4  9  1  0  0  0  0
  5  6  1  0  0  0  0
  5  8  2  0  0  0  0
  6  7  2  0  0  0  0
  6 42  1  0  0  0  0
  7 43  1  0  0  0  0
  7 44  1  0  0  0  0
  9 45  1  0  0  0  0
  9 46  1  0  0  0  0
  9 47  1  0  0  0  0
 10 11  1  0  0  0  0
 10 15  2  0  0  0  0
 11 12  2  0  0  0  0
 11 17  1  0  0  0  0
 12 13  1  0  0  0  0
 13 48  1  0  0  0  0
 14 13  2  0  0  0  0
 15 14  1  0  0  0  0
 15 16  1  0  0  0  0
 16 49  1  0  0  0  0
 16 50  1  0  0  0  0
 17 18  2  0  0  0  0
 17 36  1  0  0  0  0
 18 19  1  0  0  0  0
 18 20  1  0  0  0  0
 19 51  1  0  0  0  0
 19 52  1  0  0  0  0
 19 53  1  0  0  0  0
 20 21  1  0  0  0  0
 20 34  2  0  0  0  0
 21 22  1  0  0  0  0
 21 54  1  0  0  0  0
 22 23  2  0  0  0  0
 22 24  1  0  0  0  0
 24 25  2  0  0  0  0
 24 30  1  0  0  0  0
 25 26  1  0  0  0  0
 25 27  1  0  0  0  0
 27 28  2  0  0  0  0
 27 55  1  0  0  0  0
 28 31  1  0  0  0  0
 29 28  1  0  0  0  0
 29 56  1  0  0  0  0
 30 29  2  0  0  0  0
 30 57  1  0  0  0  0
 31 32  1  0  0  0  0
 31 33  1  0  0  0  0
 31 58  1  0  0  0  0
 32 33  1  0  0  0  0
 32 59  1  0  0  0  0
 32 60  1  0  0  0  0
 33 61  1  0  0  0  0
 33 62  1  0  0  0  0
 34 63  1  0  0  0  0
 35 34  1  0  0  0  0
 35 37  1  0  0  0  0
 36 35  2  0  0  0  0
 36 64  1  0  0  0  0
M  END
>  <DRUGBANK_ID>
DB16852

>  <COMMON_NAME>
Remibrutinib

>  <CAS_NUMBER>
1787294-07-8

>  <UNII>
I7MVZ8HDNU

>  <SYNONYMS>
Remibrutinib

$$$$
