
 OpenBabel10282417153D

 14 14  0  0  0  0  0  0  0  0999 V2000
   -1.8549    0.0007    0.0098 C   0  0  0  0  0  0  0  0  0  0  0  0
   -1.1525    1.2047    0.0074 C   0  0  0  0  0  0  0  0  0  0  0  0
   -1.1531   -1.2035    0.0046 C   0  0  0  0  0  0  0  0  0  0  0  0
    0.2431    1.2012   -0.0019 C   0  0  0  0  0  0  0  0  0  0  0  0
    0.2426   -1.2011    0.0007 C   0  0  0  0  0  0  0  0  0  0  0  0
    0.9610    0.0001    0.0213 C   0  0  0  0  0  0  0  0  0  0  0  0
    2.3402   -0.0002   -0.1364 N   0  0  0  0  0  0  0  0  0  0  0  0
   -2.9399    0.0010    0.0090 H   0  0  0  0  0  0  0  0  0  0  0  0
   -1.6934    2.1481    0.0033 H   0  0  0  0  0  0  0  0  0  0  0  0
   -1.6946   -2.1468   -0.0051 H   0  0  0  0  0  0  0  0  0  0  0  0
    0.7730    2.1502   -0.0256 H   0  0  0  0  0  0  0  0  0  0  0  0
    0.7720   -2.1503   -0.0172 H   0  0  0  0  0  0  0  0  0  0  0  0
    2.8413   -0.8591    0.0607 H   0  0  0  0  0  0  0  0  0  0  0  0
    2.8409    0.8593    0.0602 H   0  0  0  0  0  0  0  0  0  0  0  0
  1  8  1  0  0  0  0
  2  1  2  0  0  0  0
  2  9  1  0  0  0  0
  3  1  1  0  0  0  0
  3 10  1  0  0  0  0
  4  2  1  0  0  0  0
  4 11  1  0  0  0  0
  5  3  2  0  0  0  0
  5 12  1  0  0  0  0
  6  4  2  0  0  0  0
  6  5  1  0  0  0  0
  7  6  1  0  0  0  0
  7 13  1  0  0  0  0
  7 14  1  0  0  0  0
M  END
>  <DRUGBANK_ID>
DB06728

>  <COMMON_NAME>
Aniline

>  <CAS_NUMBER>
62-53-3

>  <UNII>
SIR7XX2F1K

>  <SYNONYMS>
Aminobenzene; Aminophen; Anilin; Anilina; Aniline; Aniline oil; Anilinum; Benzenamine; Benzeneamine; Fentanyl impurity F; Huile d'aniline; Kyanol; Phenylamine; Trimethoprim specified impurity K

$$$$
