605
 OpenBabel10282417163D

 44 46  0  0  0  0  0  0  0  0999 V2000
    4.8917    2.8338    4.6796 C   0  0  0  0  0  0  0  0  0  0  0  0
    4.3958    2.7860    3.3960 C   0  0  0  0  0  0  0  0  0  0  0  0
    4.0689    1.5937    2.7210 C   0  0  0  0  0  0  0  0  0  0  0  0
    4.3299    0.4007    3.4055 C   0  0  0  0  0  0  0  0  0  0  0  0
    4.8781    0.4501    4.6934 C   0  0  0  0  0  0  0  0  0  0  0  0
    5.1534    1.6553    5.3341 C   0  0  0  0  0  0  0  0  0  0  0  0
    3.4709    1.5701    1.3220 C   0  0  0  0  0  0  0  0  0  0  0  0
    2.3745    2.6522    1.1311 C   0  0  2  0  0  0  0  0  0  0  0  0
    1.4515    2.4823   -0.0473 C   0  0  0  0  0  0  0  0  0  0  0  0
    3.0071    3.9593    0.9260 N   0  0  0  0  0  0  0  0  0  0  0  0
    0.9333    1.2464   -0.4213 C   0  0  0  0  0  0  0  0  0  0  0  0
    0.0631    1.1757   -1.4989 C   0  0  0  0  0  0  0  0  0  0  0  0
   -0.3152    2.3361   -2.1876 C   0  0  0  0  0  0  0  0  0  0  0  0
    0.1280    3.5828   -1.7582 C   0  0  0  0  0  0  0  0  0  0  0  0
    1.0278    3.6453   -0.7289 C   0  0  0  0  0  0  0  0  0  0  0  0
   -1.1635    2.2765   -3.3573 C   0  0  0  0  0  0  0  0  0  0  0  0
   -2.4496    1.7479   -3.2627 C   0  0  0  0  0  0  0  0  0  0  0  0
   -3.2923    1.7872   -4.3620 C   0  0  0  0  0  0  0  0  0  0  0  0
   -2.8648    2.3978   -5.5435 C   0  0  0  0  0  0  0  0  0  0  0  0
   -1.5918    2.9771   -5.6333 C   0  0  0  0  0  0  0  0  0  0  0  0
   -0.7172    2.8418   -4.5617 C   0  0  0  0  0  0  0  0  0  0  0  0
    5.1522   -0.6911    5.3346 F   0  0  0  0  0  0  0  0  0  0  0  0
    4.2811    3.9949    2.8539 F   0  0  0  0  0  0  0  0  0  0  0  0
   -1.2733    3.8167   -6.8241 C   0  0  0  0  0  0  0  0  0  0  0  0
   -0.0584    4.4553   -6.8627 N   0  0  0  0  0  0  0  0  0  0  0  0
   -2.0837    3.9855   -7.7155 O   0  0  0  0  0  0  0  0  0  0  0  0
    1.7297    2.6670    2.0234 H   0  0  0  0  0  0  0  0  0  0  0  0
    5.0740    3.8138    5.1075 H   0  0  0  0  0  0  0  0  0  0  0  0
    4.1195   -0.5718    2.9654 H   0  0  0  0  0  0  0  0  0  0  0  0
    5.5812    1.6864    6.3266 H   0  0  0  0  0  0  0  0  0  0  0  0
    4.2643    1.7084    0.5748 H   0  0  0  0  0  0  0  0  0  0  0  0
    3.0769    0.5631    1.1209 H   0  0  0  0  0  0  0  0  0  0  0  0
    3.4799    4.2576    1.7667 H   0  0  0  0  0  0  0  0  0  0  0  0
    3.7217    3.8677    0.2095 H   0  0  0  0  0  0  0  0  0  0  0  0
    1.1943    0.3341    0.1042 H   0  0  0  0  0  0  0  0  0  0  0  0
   -0.3233    0.2078   -1.8041 H   0  0  0  0  0  0  0  0  0  0  0  0
   -0.2122    4.5118   -2.2086 H   0  0  0  0  0  0  0  0  0  0  0  0
    1.4077    4.6328   -0.4667 H   0  0  0  0  0  0  0  0  0  0  0  0
   -2.7944    1.3296   -2.3193 H   0  0  0  0  0  0  0  0  0  0  0  0
   -4.2957    1.3826   -4.2800 H   0  0  0  0  0  0  0  0  0  0  0  0
   -3.5436    2.4443   -6.3908 H   0  0  0  0  0  0  0  0  0  0  0  0
    0.3070    3.1999   -4.6117 H   0  0  0  0  0  0  0  0  0  0  0  0
    0.1000    5.0822   -7.6406 H   0  0  0  0  0  0  0  0  0  0  0  0
    0.6377    4.4319   -6.1369 H   0  0  0  0  0  0  0  0  0  0  0  0
  1  2  2  0  0  0  0
  1  6  1  0  0  0  0
  1 28  1  0  0  0  0
  2  3  1  0  0  0  0
  2 23  1  0  0  0  0
  3  4  2  0  0  0  0
  3  7  1  0  0  0  0
  4  5  1  0  0  0  0
  4 29  1  0  0  0  0
  5  6  2  0  0  0  0
  5 22  1  0  0  0  0
  6 30  1  0  0  0  0
  7 31  1  0  0  0  0
  7 32  1  0  0  0  0
  8 10  1  0  0  0  0
  8 27  1  1  0  0  0
  8  9  1  0  0  0  0
  8  7  1  0  0  0  0
  9 11  2  0  0  0  0
  9 15  1  0  0  0  0
 10 33  1  0  0  0  0
 10 34  1  0  0  0  0
 11 12  1  0  0  0  0
 11 35  1  0  0  0  0
 12 13  2  0  0  0  0
 12 36  1  0  0  0  0
 13 14  1  0  0  0  0
 13 16  1  0  0  0  0
 14 15  2  0  0  0  0
 14 37  1  0  0  0  0
 15 38  1  0  0  0  0
 16 17  2  0  0  0  0
 16 21  1  0  0  0  0
 17 18  1  0  0  0  0
 17 39  1  0  0  0  0
 18 19  2  0  0  0  0
 18 40  1  0  0  0  0
 19 20  1  0  0  0  0
 19 41  1  0  0  0  0
 20 21  2  0  0  0  0
 20 24  1  0  0  0  0
 21 42  1  0  0  0  0
 24 25  1  0  0  0  0
 24 26  2  0  0  0  0
 25 43  1  0  0  0  0
 25 44  1  0  0  0  0
M  END
>  <DRUGBANK_ID>
DB07181

>  <COMMON_NAME>
4'-[(1R)-1-amino-2-(2,5-difluorophenyl)ethyl]biphenyl-3-carboxamide

$$$$
