
 OpenBabel10282417203D

 16 16  0  0  0  0  0  0  0  0999 V2000
    0.0067   -2.1368   -0.0156 C   0  0  0  0  0  0  0  0  0  0  0  0
    1.2317   -1.4440   -0.0147 C   0  0  0  0  0  0  0  0  0  0  0  0
   -1.2062   -1.4424   -0.0105 C   0  0  0  0  0  0  0  0  0  0  0  0
   -1.2080   -0.0517   -0.0077 C   0  0  0  0  0  0  0  0  0  0  0  0
   -0.0091    0.6555   -0.0038 C   0  0  0  0  0  0  0  0  0  0  0  0
    1.2048   -0.0389   -0.0011 C   0  0  0  0  0  0  0  0  0  0  0  0
   -2.7025    0.8007   -0.0021 Cl  0  0  0  0  0  0  0  0  0  0  0  0
    2.5192   -2.2289    0.0068 C   0  0  0  0  0  0  0  0  0  0  0  0
    3.2885   -2.0133   -1.1666 O   0  0  0  0  0  0  0  0  0  0  0  0
    2.6536    0.9021    0.0381 Cl  0  0  0  0  0  0  0  0  0  0  0  0
   -0.0133   -3.2250   -0.0095 H   0  0  0  0  0  0  0  0  0  0  0  0
   -2.1441   -1.9939   -0.0047 H   0  0  0  0  0  0  0  0  0  0  0  0
   -0.0175    1.7416    0.0034 H   0  0  0  0  0  0  0  0  0  0  0  0
    3.1136   -1.9673    0.8882 H   0  0  0  0  0  0  0  0  0  0  0  0
    2.3197   -3.3044    0.0616 H   0  0  0  0  0  0  0  0  0  0  0  0
    2.6866   -2.0540   -1.9278 H   0  0  0  0  0  0  0  0  0  0  0  0
  1  3  2  0  0  0  0
  1 11  1  0  0  0  0
  2  1  1  0  0  0  0
  2  8  1  0  0  0  0
  3 12  1  0  0  0  0
  4  3  1  0  0  0  0
  4  5  2  0  0  0  0
  5  6  1  0  0  0  0
  5 13  1  0  0  0  0
  6  2  2  0  0  0  0
  6 10  1  0  0  0  0
  7  4  1  0  0  0  0
  8  9  1  0  0  0  0
  8 14  1  0  0  0  0
  8 15  1  0  0  0  0
  9 16  1  0  0  0  0
M  END
>  <DRUGBANK_ID>
DB13269

>  <COMMON_NAME>
Dichlorobenzyl alcohol

>  <CAS_NUMBER>
1777-82-8

>  <UNII>
1NKX3648J9

>  <SYNONYMS>
2,4-dichlorobenzenemethanol; 2,4-dichlorobenzyl alcohol; Alcohol diclorobenc√≠lico

$$$$
