
 OpenBabel10282417203D

 55 54  0  0  1  0  0  0  0  0999 V2000
    3.3626    6.3686   -7.6216 C   0  0  0  0  0  0  0  0  0  0  0  0
    3.8847    4.9601   -7.3865 C   0  0  0  0  0  0  0  0  0  0  0  0
    2.7351    3.9700   -7.1760 C   0  0  2  0  0  0  0  0  0  0  0  0
    2.3647    3.9414   -5.7286 C   0  0  0  0  0  0  0  0  0  0  0  0
    1.2574    4.4496   -5.1776 C   0  0  0  0  0  0  0  0  0  0  0  0
    1.0823    4.4044   -3.7505 C   0  0  0  0  0  0  0  0  0  0  0  0
    0.0515    4.9225   -3.0755 C   0  0  0  0  0  0  0  0  0  0  0  0
   -1.1138    5.6951   -3.6509 C   0  0  0  0  0  0  0  0  0  0  0  0
   -2.5420    5.3538   -3.1710 C   0  0  2  0  0  0  0  0  0  0  0  0
   -2.9039    5.9726   -1.8520 C   0  0  0  0  0  0  0  0  0  0  0  0
   -2.1121    5.9402   -0.7767 C   0  0  0  0  0  0  0  0  0  0  0  0
   -2.3728    6.5779    0.4768 C   0  0  0  0  0  0  0  0  0  0  0  0
   -1.4756    6.4685    1.4605 C   0  0  0  0  0  0  0  0  0  0  0  0
   -1.6324    7.0620    2.7595 C   0  0  0  0  0  0  0  0  0  0  0  0
   -0.7097    6.9555    3.7297 C   0  0  0  0  0  0  0  0  0  0  0  0
    0.5728    6.1762    3.5996 C   0  0  2  0  0  0  0  0  0  0  0  0
    0.3796    4.6775    3.9122 C   0  0  0  0  0  0  0  0  0  0  0  0
    0.7242    4.2834    5.3474 C   0  0  0  0  0  0  0  0  0  0  0  0
   -0.0973    5.0160    6.4122 C   0  0  0  0  0  0  0  0  0  0  0  0
   -1.5634    4.6744    6.3943 C   0  0  0  0  0  0  0  0  0  0  0  0
   -2.1984    4.2070    7.3299 O   0  0  0  0  0  0  0  0  0  0  0  0
   -2.1737    4.9999    5.2450 O   0  0  0  0  0  0  0  0  0  0  0  0
    1.6055    6.7952    4.3544 O   0  0  0  0  0  0  0  0  0  0  0  0
   -2.7952    3.9574   -3.1270 O   0  0  0  0  0  0  0  0  0  0  0  0
    3.1763    2.6601   -7.5167 O   0  0  0  0  0  0  0  0  0  0  0  0
    2.7624    6.4014   -8.5367 H   0  0  0  0  0  0  0  0  0  0  0  0
    4.1937    7.0705   -7.7330 H   0  0  0  0  0  0  0  0  0  0  0  0
    2.7371    6.7086   -6.7904 H   0  0  0  0  0  0  0  0  0  0  0  0
    4.5113    4.6498   -8.2299 H   0  0  0  0  0  0  0  0  0  0  0  0
    4.5470    4.9663   -6.5093 H   0  0  0  0  0  0  0  0  0  0  0  0
    1.8870    4.2061   -7.8297 H   0  0  0  0  0  0  0  0  0  0  0  0
    3.1058    3.4954   -5.0721 H   0  0  0  0  0  0  0  0  0  0  0  0
    0.5011    4.9221   -5.7955 H   0  0  0  0  0  0  0  0  0  0  0  0
    1.8768    3.9379   -3.1655 H   0  0  0  0  0  0  0  0  0  0  0  0
    0.1411    4.8130   -2.0018 H   0  0  0  0  0  0  0  0  0  0  0  0
   -0.9315    6.7592   -3.4531 H   0  0  0  0  0  0  0  0  0  0  0  0
   -1.1267    5.5875   -4.7377 H   0  0  0  0  0  0  0  0  0  0  0  0
   -3.2309    5.7646   -3.9203 H   0  0  0  0  0  0  0  0  0  0  0  0
   -3.8406    6.5213   -1.8195 H   0  0  0  0  0  0  0  0  0  0  0  0
   -1.1811    5.3959   -0.8073 H   0  0  0  0  0  0  0  0  0  0  0  0
   -3.2890    7.1402    0.6006 H   0  0  0  0  0  0  0  0  0  0  0  0
   -0.5725    5.8906    1.2735 H   0  0  0  0  0  0  0  0  0  0  0  0
   -2.5667    7.5806    2.9617 H   0  0  0  0  0  0  0  0  0  0  0  0
   -0.9556    7.3886    4.6960 H   0  0  0  0  0  0  0  0  0  0  0  0
    0.9370    6.2539    2.5742 H   0  0  0  0  0  0  0  0  0  0  0  0
   -0.6354    4.3423    3.6605 H   0  0  0  0  0  0  0  0  0  0  0  0
    1.0054    4.0911    3.2268 H   0  0  0  0  0  0  0  0  0  0  0  0
    0.5999    3.2002    5.4657 H   0  0  0  0  0  0  0  0  0  0  0  0
    1.7942    4.4795    5.5005 H   0  0  0  0  0  0  0  0  0  0  0  0
    0.3101    4.7618    7.3962 H   0  0  0  0  0  0  0  0  0  0  0  0
   -0.0216    6.1040    6.3496 H   0  0  0  0  0  0  0  0  0  0  0  0
   -3.1107    4.7279    5.2989 H   0  0  0  0  0  0  0  0  0  0  0  0
    1.4175    6.7195    5.2995 H   0  0  0  0  0  0  0  0  0  0  0  0
   -2.2109    3.5786   -2.4496 H   0  0  0  0  0  0  0  0  0  0  0  0
    3.8980    2.4276   -6.9098 H   0  0  0  0  0  0  0  0  0  0  0  0
  1  2  1  0  0  0  0
  1 26  1  0  0  0  0
  1 27  1  0  0  0  0
  1 28  1  0  0  0  0
  2 29  1  0  0  0  0
  2 30  1  0  0  0  0
  3 25  1  0  0  0  0
  3 31  1  6  0  0  0
  3  4  1  0  0  0  0
  3  2  1  0  0  0  0
  4  5  2  0  0  0  0
  4 32  1  0  0  0  0
  5  6  1  0  0  0  0
  5 33  1  0  0  0  0
  6  7  2  0  0  0  0
  6 34  1  0  0  0  0
  7  8  1  0  0  0  0
  7 35  1  0  0  0  0
  8 36  1  0  0  0  0
  8 37  1  0  0  0  0
  9 24  1  0  0  0  0
  9 38  1  6  0  0  0
  9 10  1  0  0  0  0
  9  8  1  0  0  0  0
 10 11  2  0  0  0  0
 10 39  1  0  0  0  0
 11 12  1  0  0  0  0
 11 40  1  0  0  0  0
 12 13  2  0  0  0  0
 12 41  1  0  0  0  0
 13 14  1  0  0  0  0
 13 42  1  0  0  0  0
 14 15  2  0  0  0  0
 14 43  1  0  0  0  0
 15 44  1  0  0  0  0
 16 23  1  0  0  0  0
 16 45  1  6  0  0  0
 16 17  1  0  0  0  0
 16 15  1  0  0  0  0
 17 18  1  0  0  0  0
 17 46  1  0  0  0  0
 17 47  1  0  0  0  0
 18 19  1  0  0  0  0
 18 48  1  0  0  0  0
 18 49  1  0  0  0  0
 19 20  1  0  0  0  0
 19 50  1  0  0  0  0
 19 51  1  0  0  0  0
 20 21  2  0  0  0  0
 20 22  1  0  0  0  0
 22 52  1  0  0  0  0
 23 53  1  0  0  0  0
 24 54  1  0  0  0  0
 25 55  1  0  0  0  0
M  END
>  <DRUGBANK_ID>
DB13105

>  <COMMON_NAME>
Resolvin E1

>  <CAS_NUMBER>
552830-51-0

>  <UNII>
GND3JH08JA

>  <SYNONYMS>
(5S,6Z,8E,10E,12R,14Z,16E,18R)-5,12,18-TRIHYDROXY-6,8,10,14,16-EICOSAPENTAENOIC ACID; 5S,12R,18R-TRIHYDROXY-6Z,8E,10E,14Z,16E-EICOSAPENTAENOIC ACID; 6,8,10,14,16-EICOSAPENTAENOIC ACID, 5,12,18-TRIHYDROXY-, (5S,6Z,8E,10E,12R,14Z,16E,18R)-; RVE1

$$$$
