
 OpenBabel10282417153D

 53 57  0  0  0  0  0  0  0  0999 V2000
    1.9461   -0.9470    0.1771 O   0  0  0  0  0  0  0  0  0  0  0  0
    1.6516    0.3724    0.0137 C   0  0  0  0  0  0  0  0  0  0  0  0
    0.7846   -1.7843    0.1237 C   0  0  2  0  0  0  0  0  0  0  0  0
    0.9427   -2.6846   -1.1901 C   0  0  2  0  0  0  0  0  0  0  0  0
    2.2062   -3.4874   -1.1808 N   0  0  0  0  0  0  0  0  0  0  0  0
    1.9143   -4.8839   -0.8155 C   0  0  0  0  0  0  0  0  0  0  0  0
    2.9173   -3.4673   -2.4647 C   0  0  0  0  0  0  0  0  0  0  0  0
    3.0766   -2.0413   -2.9876 C   0  0  0  0  0  0  0  0  0  0  0  0
    1.7076   -1.4886   -3.2842 C   0  0  0  0  0  0  0  0  0  0  0  0
    1.5107   -0.6119   -4.3540 C   0  0  0  0  0  0  0  0  0  0  0  0
    0.2327   -0.1517   -4.5613 C   0  0  0  0  0  0  0  0  0  0  0  0
   -0.1268    0.7218   -5.5404 O   0  0  0  0  0  0  0  0  0  0  0  0
   -1.5470    0.8008   -5.3207 C   0  0  0  0  0  0  0  0  0  0  0  0
   -1.9954    0.0299   -4.1879 O   0  0  0  0  0  0  0  0  0  0  0  0
   -0.8344   -0.5766   -3.7946 C   0  0  0  0  0  0  0  0  0  0  0  0
   -0.6958   -1.5122   -2.7694 C   0  0  0  0  0  0  0  0  0  0  0  0
   -1.8574   -1.9257   -2.1719 O   0  0  0  0  0  0  0  0  0  0  0  0
   -1.9384   -3.0522   -1.2988 C   0  0  0  0  0  0  0  0  0  0  0  0
    0.6227   -1.8994   -2.4542 C   0  0  0  0  0  0  0  0  0  0  0  0
    2.5227    1.1953   -0.0435 O   0  0  0  0  0  0  0  0  0  0  0  0
   -0.3225   -0.7660    0.2726 C   0  0  0  0  0  0  0  0  0  0  0  0
   -1.6799   -0.9305    0.5681 C   0  0  0  0  0  0  0  0  0  0  0  0
   -2.5902    0.0706    0.2572 C   0  0  0  0  0  0  0  0  0  0  0  0
   -2.1245    1.3537    0.0098 C   0  0  0  0  0  0  0  0  0  0  0  0
   -0.7219    1.5988   -0.0358 C   0  0  0  0  0  0  0  0  0  0  0  0
    0.1626    0.5054    0.0382 C   0  0  0  0  0  0  0  0  0  0  0  0
   -0.3804    2.9128   -0.1352 O   0  0  0  0  0  0  0  0  0  0  0  0
    0.9787    3.2616   -0.1031 C   0  0  0  0  0  0  0  0  0  0  0  0
   -3.1635    2.2519   -0.0865 O   0  0  0  0  0  0  0  0  0  0  0  0
   -2.8191    3.6266   -0.0667 C   0  0  0  0  0  0  0  0  0  0  0  0
    0.8152   -2.4237    1.0085 H   0  0  0  0  0  0  0  0  0  0  0  0
    0.2197   -3.4798   -1.2165 H   0  0  0  0  0  0  0  0  0  0  0  0
    1.4278   -4.9335    0.1655 H   0  0  0  0  0  0  0  0  0  0  0  0
    1.2479   -5.3681   -1.5443 H   0  0  0  0  0  0  0  0  0  0  0  0
    2.8331   -5.4728   -0.7564 H   0  0  0  0  0  0  0  0  0  0  0  0
    3.9103   -3.9075   -2.3239 H   0  0  0  0  0  0  0  0  0  0  0  0
    2.3897   -4.0771   -3.2137 H   0  0  0  0  0  0  0  0  0  0  0  0
    3.5821   -1.4063   -2.2517 H   0  0  0  0  0  0  0  0  0  0  0  0
    3.6859   -2.0674   -3.8979 H   0  0  0  0  0  0  0  0  0  0  0  0
    2.3257   -0.3032   -5.0006 H   0  0  0  0  0  0  0  0  0  0  0  0
   -1.8194    1.8541   -5.1816 H   0  0  0  0  0  0  0  0  0  0  0  0
   -2.0583    0.4254   -6.2148 H   0  0  0  0  0  0  0  0  0  0  0  0
   -1.6906   -3.9962   -1.7788 H   0  0  0  0  0  0  0  0  0  0  0  0
   -1.2999   -2.9854   -0.4206 H   0  0  0  0  0  0  0  0  0  0  0  0
   -2.9335   -3.0899   -0.8502 H   0  0  0  0  0  0  0  0  0  0  0  0
   -2.1018   -1.8621    0.9268 H   0  0  0  0  0  0  0  0  0  0  0  0
   -3.6592   -0.1487    0.2241 H   0  0  0  0  0  0  0  0  0  0  0  0
    1.4251    2.9325    0.8403 H   0  0  0  0  0  0  0  0  0  0  0  0
    1.4529    2.8795   -1.0097 H   0  0  0  0  0  0  0  0  0  0  0  0
    1.0646    4.3463   -0.1294 H   0  0  0  0  0  0  0  0  0  0  0  0
   -2.2620    3.8723    0.8449 H   0  0  0  0  0  0  0  0  0  0  0  0
   -2.2767    3.8826   -0.9813 H   0  0  0  0  0  0  0  0  0  0  0  0
   -3.7305    4.2275   -0.0534 H   0  0  0  0  0  0  0  0  0  0  0  0
  1  2  1  0  0  0  0
  1  3  1  0  0  0  0
  2 26  1  0  0  0  0
  2 20  2  0  0  0  0
  3  4  1  0  0  0  0
  3 31  1  1  0  0  0
  4  5  1  0  0  0  0
  4 19  1  0  0  0  0
  4 32  1  1  0  0  0
  5  6  1  0  0  0  0
  5  7  1  0  0  0  0
  6 33  1  0  0  0  0
  6 34  1  0  0  0  0
  6 35  1  0  0  0  0
  7  8  1  0  0  0  0
  7 36  1  0  0  0  0
  7 37  1  0  0  0  0
  8  9  1  0  0  0  0
  8 38  1  0  0  0  0
  8 39  1  0  0  0  0
  9 10  2  0  0  0  0
  9 19  1  0  0  0  0
 10 11  1  0  0  0  0
 10 40  1  0  0  0  0
 11 12  1  0  0  0  0
 11 15  2  0  0  0  0
 12 13  1  0  0  0  0
 13 14  1  0  0  0  0
 13 41  1  0  0  0  0
 13 42  1  0  0  0  0
 14 15  1  0  0  0  0
 15 16  1  0  0  0  0
 16 17  1  0  0  0  0
 16 19  2  0  0  0  0
 17 18  1  0  0  0  0
 18 43  1  0  0  0  0
 18 44  1  0  0  0  0
 18 45  1  0  0  0  0
 21  3  1  0  0  0  0
 21 22  1  0  0  0  0
 21 26  2  0  0  0  0
 22 23  2  0  0  0  0
 22 46  1  0  0  0  0
 23 24  1  0  0  0  0
 23 47  1  0  0  0  0
 24 25  2  0  0  0  0
 24 29  1  0  0  0  0
 25 26  1  0  0  0  0
 25 27  1  0  0  0  0
 27 28  1  0  0  0  0
 28 48  1  0  0  0  0
 28 49  1  0  0  0  0
 28 50  1  0  0  0  0
 29 30  1  0  0  0  0
 30 51  1  0  0  0  0
 30 52  1  0  0  0  0
 30 53  1  0  0  0  0
M  END
>  <DRUGBANK_ID>
DB06174

>  <COMMON_NAME>
Noscapine

>  <CAS_NUMBER>
128-62-1

>  <UNII>
8V32U4AOQU

>  <SYNONYMS>
(−)-narcotine; (−)-α-narcotine; alpha-Narcotine; Noscapina; Noscapine; Noscapinum

$$$$
