
 OpenBabel10282417233D

 45 49  0  0  1  0  0  0  0  0999 V2000
    3.6427    2.2775   -1.3081 C   0  0  0  0  0  0  0  0  0  0  0  0
    2.4452    2.7456   -1.8664 C   0  0  0  0  0  0  0  0  0  0  0  0
    2.4380    3.5571   -2.9917 C   0  0  0  0  0  0  0  0  0  0  0  0
    3.6800    3.9313   -3.5528 C   0  0  0  0  0  0  0  0  0  0  0  0
    4.8354    3.5167   -3.0343 N   0  0  0  0  0  0  0  0  0  0  0  0
    4.8185    2.7012   -1.9394 C   0  0  0  0  0  0  0  0  0  0  0  0
    6.1469    2.3355   -1.4588 C   0  0  0  0  0  0  0  0  0  0  0  0
    6.4395    1.0084   -1.4396 N   0  0  0  0  0  0  0  0  0  0  0  0
    7.6466    0.6532   -0.9650 C   0  0  0  0  0  0  0  0  0  0  0  0
    8.6061    1.5683   -0.5626 C   0  0  0  0  0  0  0  0  0  0  0  0
    8.2811    2.9241   -0.5731 C   0  0  0  0  0  0  0  0  0  0  0  0
    7.0277    3.3154   -1.0116 C   0  0  0  0  0  0  0  0  0  0  0  0
    3.6702    4.7714   -4.6439 C   0  0  0  0  0  0  0  0  0  0  0  0
    2.4832    5.3469   -5.0771 C   0  0  0  0  0  0  0  0  0  0  0  0
    1.2669    5.0236   -4.4848 C   0  0  0  0  0  0  0  0  0  0  0  0
    1.2382    4.0385   -3.5148 C   0  0  0  0  0  0  0  0  0  0  0  0
    2.5018    6.2252   -6.0846 F   0  0  0  0  0  0  0  0  0  0  0  0
    3.6900    1.3849   -0.0688 C   0  0  2  0  0  0  0  0  0  0  0  0
    2.3362    0.6515    0.1136 C   0  0  0  0  0  0  0  0  0  0  0  0
    4.0640    2.2265    1.0868 N   0  0  0  0  0  0  0  0  0  0  0  0
    4.9580    1.7461    2.0710 C   0  0  0  0  0  0  0  0  0  0  0  0
    6.3923    1.6745    1.9791 C   0  0  0  0  0  0  0  0  0  0  0  0
    7.0467    2.4365    2.9580 C   0  0  0  0  0  0  0  0  0  0  0  0
    6.6627    2.4633    4.2494 N   0  0  0  0  0  0  0  0  0  0  0  0
    5.4033    2.0160    4.3538 C   0  0  0  0  0  0  0  0  0  0  0  0
    4.5017    1.8337    3.3581 N   0  0  0  0  0  0  0  0  0  0  0  0
    8.3685    2.3167    2.5725 N   0  0  0  0  0  0  0  0  0  0  0  0
    8.3823    0.9310    2.5424 C   0  0  0  0  0  0  0  0  0  0  0  0
    7.2689    0.5362    1.9291 N   0  0  0  0  0  0  0  0  0  0  0  0
    1.4813    2.5156   -1.4142 H   0  0  0  0  0  0  0  0  0  0  0  0
    7.7935   -0.4137   -0.8146 H   0  0  0  0  0  0  0  0  0  0  0  0
    9.5214    1.2048   -0.1071 H   0  0  0  0  0  0  0  0  0  0  0  0
    8.9409    3.6706   -0.1408 H   0  0  0  0  0  0  0  0  0  0  0  0
    6.7185    4.3554   -0.9666 H   0  0  0  0  0  0  0  0  0  0  0  0
    4.6051    5.0204   -5.1413 H   0  0  0  0  0  0  0  0  0  0  0  0
    0.3607    5.5404   -4.7767 H   0  0  0  0  0  0  0  0  0  0  0  0
    0.2815    3.6756   -3.1389 H   0  0  0  0  0  0  0  0  0  0  0  0
    4.4262    0.5929   -0.2106 H   0  0  0  0  0  0  0  0  0  0  0  0
    2.5023   -0.3987    0.3684 H   0  0  0  0  0  0  0  0  0  0  0  0
    1.6941    1.1018    0.8767 H   0  0  0  0  0  0  0  0  0  0  0  0
    1.7484    0.5889   -0.8139 H   0  0  0  0  0  0  0  0  0  0  0  0
    3.2541    2.6242    1.5571 H   0  0  0  0  0  0  0  0  0  0  0  0
    5.0817    1.7814    5.3618 H   0  0  0  0  0  0  0  0  0  0  0  0
    8.6290    2.7613    1.7076 H   0  0  0  0  0  0  0  0  0  0  0  0
    9.0589    0.3928    3.1968 H   0  0  0  0  0  0  0  0  0  0  0  0
  1  6  1  0  0  0  0
  2  1  2  0  0  0  0
  2 30  1  0  0  0  0
  3  2  1  0  0  0  0
  3 16  1  0  0  0  0
  4  3  2  0  0  0  0
  4 13  1  0  0  0  0
  5  4  1  0  0  0  0
  6  5  2  0  0  0  0
  6  7  1  0  0  0  0
  7 12  1  0  0  0  0
  8  7  2  0  0  0  0
  9  8  1  0  0  0  0
  9 31  1  0  0  0  0
 10  9  2  0  0  0  0
 10 32  1  0  0  0  0
 11 10  1  0  0  0  0
 11 33  1  0  0  0  0
 12 11  2  0  0  0  0
 12 34  1  0  0  0  0
 13 14  2  0  0  0  0
 13 35  1  0  0  0  0
 14 15  1  0  0  0  0
 14 17  1  0  0  0  0
 15 16  2  0  0  0  0
 15 36  1  0  0  0  0
 16 37  1  0  0  0  0
 18 20  1  0  0  0  0
 18 38  1  6  0  0  0
 18 19  1  0  0  0  0
 18  1  1  0  0  0  0
 19 39  1  0  0  0  0
 19 40  1  0  0  0  0
 19 41  1  0  0  0  0
 20 21  1  0  0  0  0
 20 42  1  0  0  0  0
 21 26  1  0  0  0  0
 22 21  2  0  0  0  0
 22 29  1  0  0  0  0
 23 22  1  0  0  0  0
 23 27  1  0  0  0  0
 24 23  2  0  0  0  0
 25 24  1  0  0  0  0
 25 43  1  0  0  0  0
 26 25  2  0  0  0  0
 27 28  1  0  0  0  0
 27 44  1  0  0  0  0
 28 29  2  0  0  0  0
 28 45  1  0  0  0  0
M  END
>  <DRUGBANK_ID>
DB16879

>  <COMMON_NAME>
AMG-319

>  <CAS_NUMBER>
1608125-21-8

>  <UNII>
19DG7G1U5Q

>  <SYNONYMS>
AMG319

$$$$
