
 OpenBabel10282417123D

 49 51  0  0  0  0  0  0  0  0999 V2000
   -1.0142    1.4883    0.0102 C   0  0  0  0  0  0  0  0  0  0  0  0
   -2.1193    0.6410    0.0000 N   0  0  0  0  0  0  0  0  0  0  0  0
   -0.9591   -1.3895   -0.0125 N   0  0  0  0  0  0  0  0  0  0  0  0
    0.0978   -0.5325   -0.0089 C   0  0  0  0  0  0  0  0  0  0  0  0
    0.2112    0.8091    0.0114 C   0  0  0  0  0  0  0  0  0  0  0  0
    1.5041    1.3036   -0.0062 N   0  0  0  0  0  0  0  0  0  0  0  0
    2.2209    0.2327    0.0057 C   0  0  0  0  0  0  0  0  0  0  0  0
    1.3802   -0.7763   -0.1608 N   0  0  0  0  0  0  0  0  0  0  0  0
    1.7279   -2.0444   -0.1843 C   0  0  2  0  0  0  0  0  0  0  0  0
    2.6226   -2.0565    1.4100 O   0  0  0  0  0  0  0  0  0  0  0  0
    3.0293   -3.8355    1.7286 C   0  0  1  0  0  0  0  0  0  0  0  0
    3.0459   -4.0638   -0.5968 C   0  0  1  0  0  0  0  0  0  0  0  0
    3.0090   -5.2024   -1.4282 O   0  0  0  0  0  0  0  0  0  0  0  0
    2.2172   -2.7707   -1.4637 C   0  0  1  0  0  0  0  0  0  0  0  0
    1.7987   -3.3612   -2.6403 O   0  0  0  0  0  0  0  0  0  0  0  0
    5.1851   -1.1835    0.7032 O   0  0  0  0  0  0  0  0  0  0  0  0
    6.1888   -1.1526   -1.3667 O   0  0  0  0  0  0  0  0  0  0  0  0
    4.7256   -1.1117   -0.9631 P   0  0  3  0  0  0  0  0  0  0  0  0
    4.2661   -1.0398   -2.6294 O   0  0  0  0  0  0  0  0  0  0  0  0
    3.9697   -2.6613   -0.8215 O   0  0  0  0  0  0  0  0  0  0  0  0
    2.0751   -3.5949    0.6067 O   0  0  0  0  0  0  0  0  0  0  0  0
    4.1509   -3.2456    0.7967 P   0  0  3  0  0  0  0  0  0  0  0  0
    4.3322   -3.8299    2.4150 O   0  0  0  0  0  0  0  0  0  0  0  0
    3.1439   -6.0334    2.3728 O   0  0  0  0  0  0  0  0  0  0  0  0
    1.6489   -5.7152   -0.0951 O   0  0  0  0  0  0  0  0  0  0  0  0
    3.2669   -6.0147    0.7930 P   0  0  0  0  0  0  0  0  0  0  0  0
    2.0817   -7.1199    1.3986 O   0  0  0  0  0  0  0  0  0  0  0  0
    4.9588   -2.4009    1.9758 C   0  0  0  0  0  0  0  0  0  0  0  0
   -2.0906   -0.7486   -0.0004 C   0  0  0  0  0  0  0  0  0  0  0  0
   -3.2887   -1.3911    0.0018 N   0  0  0  0  0  0  0  0  0  0  0  0
   -1.0714    2.7045    0.0040 O   0  0  0  0  0  0  0  0  0  0  0  0
    4.4864   -4.8775    0.1699 N   0  0  0  0  0  0  0  0  0  0  0  0
   -2.9895    1.1297   -0.0062 H   0  0  0  0  0  0  0  0  0  0  0  0
    3.2871    0.1803    0.1137 H   0  0  0  0  0  0  0  0  0  0  0  0
    0.8375   -2.7102   -0.1505 H   0  0  0  0  0  0  0  0  0  0  0  0
    4.1970   -5.0131    1.7970 H   0  0  0  0  0  0  0  0  0  0  0  0
    4.3300   -4.0320   -1.3470 H   0  0  0  0  0  0  0  0  0  0  0  0
    2.6581   -5.1164   -0.5185 H   0  0  0  0  0  0  0  0  0  0  0  0
    2.7512   -1.9644   -1.9484 H   0  0  0  0  0  0  0  0  0  0  0  0
    1.4884   -4.1948   -2.2947 H   0  0  0  0  0  0  0  0  0  0  0  0
    3.7760   -0.2180   -2.8230 H   0  0  0  0  0  0  0  0  0  0  0  0
    5.1457   -4.0479    2.9664 H   0  0  0  0  0  0  0  0  0  0  0  0
    1.6327   -5.5242   -1.1458 H   0  0  0  0  0  0  0  0  0  0  0  0
    1.2375   -6.6356    1.4532 H   0  0  0  0  0  0  0  0  0  0  0  0
    5.7819   -2.3034    2.7170 H   0  0  0  0  0  0  0  0  0  0  0  0
    6.0044   -3.0504    1.0323 H   0  0  0  0  0  0  0  0  0  0  0  0
   -3.3189   -2.4057    0.0162 H   0  0  0  0  0  0  0  0  0  0  0  0
   -4.1828   -0.9223    0.0141 H   0  0  0  0  0  0  0  0  0  0  0  0
    4.7131   -5.3035   -0.7410 H   0  0  0  0  0  0  0  0  0  0  0  0
  1  2  1  0  0  0  0
  1  5  1  0  0  0  0
  2 29  1  0  0  0  0
  2 33  1  0  0  0  0
  3  4  1  0  0  0  0
  4  5  2  0  0  0  0
  4  8  1  0  0  0  0
  5  6  1  0  0  0  0
  6  7  2  0  0  0  0
  7  8  1  0  0  0  0
  7 34  1  0  0  0  0
  9  8  1  0  0  0  0
  9 10  1  0  0  0  0
  9 14  1  0  0  0  0
  9 35  1  1  0  0  0
 10 11  1  0  0  0  0
 11 12  1  0  0  0  0
 11 36  1  1  0  0  0
 11 28  1  0  0  0  0
 12 13  1  0  0  0  0
 12 14  1  0  0  0  0
 12 37  1  6  0  0  0
 13 38  1  0  0  0  0
 14 15  1  0  0  0  0
 14 39  1  6  0  0  0
 15 40  1  0  0  0  0
 16 18  1  0  0  0  0
 18 17  2  0  0  0  0
 18 20  1  0  0  0  0
 18 19  1  0  0  0  0
 19 41  1  0  0  0  0
 20 22  1  0  0  0  0
 22 21  2  0  0  0  0
 22 32  1  0  0  0  0
 22 23  1  0  0  0  0
 23 42  1  0  0  0  0
 25 43  1  0  0  0  0
 26 24  2  0  0  0  0
 26 25  1  0  0  0  0
 26 27  1  0  0  0  0
 27 44  1  0  0  0  0
 28 16  1  0  0  0  0
 28 45  1  0  0  0  0
 28 46  1  0  0  0  0
 29  3  2  0  0  0  0
 29 30  1  0  0  0  0
 30 47  1  0  0  0  0
 30 48  1  0  0  0  0
 31  1  2  0  0  0  0
 32 26  1  0  0  0  0
 32 49  1  0  0  0  0
M  END
>  <DRUGBANK_ID>
DB02082

>  <SECONDARY_ACCESSION_NUMBERS>
EXPT01658

>  <COMMON_NAME>
Phosphoaminophosphonic acid guanylate ester

>  <CAS_NUMBER>
34273-04-6

>  <UNII>
9L7GM5N7EG

>  <SYNONYMS>
5'-guanylylimidodiphosphate; GMP-PNP; Gpp(NH)p; Guanosine 5'-[beta,gamma-imido]triphosphate; Guanylyl imidodiphosphate

$$$$
