HSH
 OpenBabel10282417173D

 48 48  0  0  0  0  0  0  0  0999 V2000
   -8.3481    7.4383   -0.3784 C   0  0  0  0  0  0  0  0  0  0  0  0
   -8.3536    6.6910   -1.7022 C   0  0  0  0  0  0  0  0  0  0  0  0
   -7.1229    7.0504   -2.5368 C   0  0  0  0  0  0  0  0  0  0  0  0
   -5.8141    6.7063   -1.8149 C   0  0  0  0  0  0  0  0  0  0  0  0
   -5.7258    5.2160   -1.4836 C   0  0  0  0  0  0  0  0  0  0  0  0
   -5.7623    4.3731   -2.7534 C   0  0  0  0  0  0  0  0  0  0  0  0
   -4.6111    4.7390   -3.7010 C   0  0  0  0  0  0  0  0  0  0  0  0
   -3.2641    4.4051   -3.0614 C   0  0  0  0  0  0  0  0  0  0  0  0
   -3.1898    3.0240   -2.7114 O   0  0  0  0  0  0  0  0  0  0  0  0
   -3.3707    2.1867   -3.8504 C   0  0  2  0  0  0  0  0  0  0  0  0
   -4.7648    1.8995   -4.0388 O   0  0  0  0  0  0  0  0  0  0  0  0
   -5.0070    1.2136   -5.2774 C   0  0  2  0  0  0  0  0  0  0  0  0
   -6.5183    1.1446   -5.5277 C   0  0  0  0  0  0  0  0  0  0  0  0
   -7.0491    2.4618   -5.6798 O   0  0  0  0  0  0  0  0  0  0  0  0
   -4.3662   -0.1676   -5.1401 C   0  0  2  0  0  0  0  0  0  0  0  0
   -4.9452   -0.8739   -4.0281 O   0  0  0  0  0  0  0  0  0  0  0  0
   -2.8576    0.0014   -4.8827 C   0  0  2  0  0  0  0  0  0  0  0  0
   -2.2425   -1.2750   -4.7208 O   0  0  0  0  0  0  0  0  0  0  0  0
   -2.5829    0.8899   -3.6575 C   0  0  1  0  0  0  0  0  0  0  0  0
   -1.1817    1.1459   -3.5133 O   0  0  0  0  0  0  0  0  0  0  0  0
   -2.9752    2.7085   -4.7331 H   0  0  0  0  0  0  0  0  0  0  0  0
   -4.5535    1.7980   -6.0886 H   0  0  0  0  0  0  0  0  0  0  0  0
   -4.5361   -0.7745   -6.0340 H   0  0  0  0  0  0  0  0  0  0  0  0
   -2.3913    0.4625   -5.7631 H   0  0  0  0  0  0  0  0  0  0  0  0
   -2.8966    0.3888   -2.7320 H   0  0  0  0  0  0  0  0  0  0  0  0
   -7.4740    7.1859    0.2304 H   0  0  0  0  0  0  0  0  0  0  0  0
   -9.2302    7.1856    0.2119 H   0  0  0  0  0  0  0  0  0  0  0  0
   -8.3342    8.5174   -0.5583 H   0  0  0  0  0  0  0  0  0  0  0  0
   -8.4013    5.6113   -1.5168 H   0  0  0  0  0  0  0  0  0  0  0  0
   -9.2594    6.9350   -2.2656 H   0  0  0  0  0  0  0  0  0  0  0  0
   -7.1807    6.5354   -3.5040 H   0  0  0  0  0  0  0  0  0  0  0  0
   -7.1309    8.1183   -2.7774 H   0  0  0  0  0  0  0  0  0  0  0  0
   -4.9667    7.0229   -2.4315 H   0  0  0  0  0  0  0  0  0  0  0  0
   -5.7020    7.2884   -0.8970 H   0  0  0  0  0  0  0  0  0  0  0  0
   -4.8147    5.0145   -0.9112 H   0  0  0  0  0  0  0  0  0  0  0  0
   -6.5373    4.9014   -0.8195 H   0  0  0  0  0  0  0  0  0  0  0  0
   -5.7331    3.3213   -2.4536 H   0  0  0  0  0  0  0  0  0  0  0  0
   -6.7153    4.4871   -3.2800 H   0  0  0  0  0  0  0  0  0  0  0  0
   -4.7415    4.2036   -4.6463 H   0  0  0  0  0  0  0  0  0  0  0  0
   -4.6330    5.7904   -3.9972 H   0  0  0  0  0  0  0  0  0  0  0  0
   -2.4328    4.6585   -3.7270 H   0  0  0  0  0  0  0  0  0  0  0  0
   -3.1031    4.9861   -2.1474 H   0  0  0  0  0  0  0  0  0  0  0  0
   -6.7282    0.6015   -6.4545 H   0  0  0  0  0  0  0  0  0  0  0  0
   -7.0569    0.6660   -4.7046 H   0  0  0  0  0  0  0  0  0  0  0  0
   -6.9146    2.9061   -4.8202 H   0  0  0  0  0  0  0  0  0  0  0  0
   -5.0629   -0.2332   -3.2974 H   0  0  0  0  0  0  0  0  0  0  0  0
   -2.6767   -1.6921   -3.9509 H   0  0  0  0  0  0  0  0  0  0  0  0
   -0.8592    1.5797   -4.3311 H   0  0  0  0  0  0  0  0  0  0  0  0
  1  2  1  0  0  0  0
  1 26  1  0  0  0  0
  1 27  1  0  0  0  0
  1 28  1  0  0  0  0
  2  3  1  0  0  0  0
  2 29  1  0  0  0  0
  2 30  1  0  0  0  0
  3  4  1  0  0  0  0
  3 31  1  0  0  0  0
  3 32  1  0  0  0  0
  4  5  1  0  0  0  0
  4 33  1  0  0  0  0
  4 34  1  0  0  0  0
  5  6  1  0  0  0  0
  5 35  1  0  0  0  0
  5 36  1  0  0  0  0
  6  7  1  0  0  0  0
  6 37  1  0  0  0  0
  6 38  1  0  0  0  0
  7  8  1  0  0  0  0
  7 39  1  0  0  0  0
  7 40  1  0  0  0  0
  8  9  1  0  0  0  0
  8 41  1  0  0  0  0
  8 42  1  0  0  0  0
 10 11  1  0  0  0  0
 10 19  1  0  0  0  0
 10 21  1  6  0  0  0
 10  9  1  0  0  0  0
 11 12  1  0  0  0  0
 12 13  1  0  0  0  0
 12 15  1  0  0  0  0
 12 22  1  6  0  0  0
 13 14  1  0  0  0  0
 13 43  1  0  0  0  0
 13 44  1  0  0  0  0
 14 45  1  0  0  0  0
 15 16  1  0  0  0  0
 15 17  1  0  0  0  0
 15 23  1  6  0  0  0
 16 46  1  0  0  0  0
 17 18  1  0  0  0  0
 17 19  1  0  0  0  0
 17 24  1  6  0  0  0
 18 47  1  0  0  0  0
 19 20  1  0  0  0  0
 19 25  1  1  0  0  0
 20 48  1  0  0  0  0
M  END
>  <DRUGBANK_ID>
DB07924

>  <COMMON_NAME>
octyl beta-D-galactopyranoside

$$$$
