
 OpenBabel10282417193D

 45 47  0  0  1  0  0  0  0  0999 V2000
   -0.8748   -2.4000   -1.3234 C   0  0  0  0  0  0  0  0  0  0  0  0
   -1.6346   -1.3900   -0.4485 C   0  0  0  0  0  0  0  0  0  0  0  0
   -3.1181   -1.8016   -0.4695 C   0  0  0  0  0  0  0  0  0  0  0  0
   -1.0728   -1.2118    1.0211 C   0  0  2  0  0  0  0  0  0  0  0  0
    0.4618   -1.1243    1.0508 C   0  0  0  0  0  0  0  0  0  0  0  0
    1.2527   -2.2496    0.7212 C   0  0  0  0  0  0  0  0  0  0  0  0
    2.6353   -2.2138    0.6401 C   0  0  0  0  0  0  0  0  0  0  0  0
    3.2976   -1.0461    0.9552 C   0  0  0  0  0  0  0  0  0  0  0  0
    4.6884   -0.9766    0.8884 C   0  0  0  0  0  0  0  0  0  0  0  0
    5.3600    0.1948    1.2462 C   0  0  0  0  0  0  0  0  0  0  0  0
    4.6140    1.3133    1.6652 C   0  0  0  0  0  0  0  0  0  0  0  0
    3.2204    1.2398    1.7162 C   0  0  0  0  0  0  0  0  0  0  0  0
    2.5460    0.0824    1.3600 C   0  0  0  0  0  0  0  0  0  0  0  0
    1.1448    0.0394    1.3957 C   0  0  0  0  0  0  0  0  0  0  0  0
    5.2963    2.4373    2.0025 O   0  0  0  0  0  0  0  0  0  0  0  0
    4.6189    3.6000    2.4268 C   0  0  0  0  0  0  0  0  0  0  0  0
    3.7729    4.0219    1.4571 F   0  0  0  0  0  0  0  0  0  0  0  0
    3.8966    3.3335    3.5406 F   0  0  0  0  0  0  0  0  0  0  0  0
    6.7199    0.0791    1.1367 O   0  0  0  0  0  0  0  0  0  0  0  0
    7.5538    1.1715    1.4926 C   0  0  0  0  0  0  0  0  0  0  0  0
    7.3013    2.2399    0.6978 F   0  0  0  0  0  0  0  0  0  0  0  0
    7.3703    1.5100    2.7921 F   0  0  0  0  0  0  0  0  0  0  0  0
   -1.5302   -2.2931    1.9499 C   0  0  0  0  0  0  0  0  0  0  0  0
   -1.3573   -3.6611    1.9335 C   0  0  0  0  0  0  0  0  0  0  0  0
   -1.9453   -4.2240    3.0187 N   0  0  0  0  0  0  0  0  0  0  0  0
   -2.5029   -3.2528    3.7249 N   0  0  0  0  0  0  0  0  0  0  0  0
   -2.2438   -2.0944    3.0998 N   0  0  0  0  0  0  0  0  0  0  0  0
   -1.6212    0.0039    1.5672 O   0  0  0  0  0  0  0  0  0  0  0  0
   -0.8765   -3.3941   -0.8691 H   0  0  0  0  0  0  0  0  0  0  0  0
    0.1560   -2.0793   -1.4991 H   0  0  0  0  0  0  0  0  0  0  0  0
   -1.3194   -2.5082   -2.3150 H   0  0  0  0  0  0  0  0  0  0  0  0
   -1.5646   -0.4177   -0.9597 H   0  0  0  0  0  0  0  0  0  0  0  0
   -3.2749   -2.7558    0.0440 H   0  0  0  0  0  0  0  0  0  0  0  0
   -3.7571   -1.0512    0.0016 H   0  0  0  0  0  0  0  0  0  0  0  0
   -3.4666   -1.9430   -1.4977 H   0  0  0  0  0  0  0  0  0  0  0  0
    0.8044   -3.1983    0.4622 H   0  0  0  0  0  0  0  0  0  0  0  0
    3.1634   -3.1122    0.3262 H   0  0  0  0  0  0  0  0  0  0  0  0
    5.2569   -1.8472    0.5590 H   0  0  0  0  0  0  0  0  0  0  0  0
    2.6262    2.0902    2.0407 H   0  0  0  0  0  0  0  0  0  0  0  0
    0.5911    0.9292    1.6984 H   0  0  0  0  0  0  0  0  0  0  0  0
    5.3470    4.3840    2.6422 H   0  0  0  0  0  0  0  0  0  0  0  0
    8.6004    0.8961    1.3623 H   0  0  0  0  0  0  0  0  0  0  0  0
   -0.8410   -4.2628    1.2024 H   0  0  0  0  0  0  0  0  0  0  0  0
   -2.5922   -1.2315    3.5028 H   0  0  0  0  0  0  0  0  0  0  0  0
   -2.5445    0.0888    1.2798 H   0  0  0  0  0  0  0  0  0  0  0  0
  1  2  1  0  0  0  0
  1 29  1  0  0  0  0
  1 30  1  0  0  0  0
  1 31  1  0  0  0  0
  2  3  1  0  0  0  0
  2 32  1  0  0  0  0
  3 33  1  0  0  0  0
  3 34  1  0  0  0  0
  3 35  1  0  0  0  0
  4 23  1  0  0  0  0
  4 28  1  1  0  0  0
  4  5  1  0  0  0  0
  4  2  1  0  0  0  0
  5  6  2  0  0  0  0
  5 14  1  0  0  0  0
  6  7  1  0  0  0  0
  6 36  1  0  0  0  0
  7  8  2  0  0  0  0
  7 37  1  0  0  0  0
  8  9  1  0  0  0  0
  8 13  1  0  0  0  0
  9 10  2  0  0  0  0
  9 38  1  0  0  0  0
 10 11  1  0  0  0  0
 10 19  1  0  0  0  0
 11 12  2  0  0  0  0
 11 15  1  0  0  0  0
 12 13  1  0  0  0  0
 12 39  1  0  0  0  0
 13 14  2  0  0  0  0
 14 40  1  0  0  0  0
 15 16  1  0  0  0  0
 16 17  1  0  0  0  0
 16 18  1  0  0  0  0
 16 41  1  0  0  0  0
 19 20  1  0  0  0  0
 20 21  1  0  0  0  0
 20 22  1  0  0  0  0
 20 42  1  0  0  0  0
 23 24  2  0  0  0  0
 23 27  1  0  0  0  0
 24 25  1  0  0  0  0
 24 43  1  0  0  0  0
 25 26  2  0  0  0  0
 26 27  1  0  0  0  0
 27 44  1  0  0  0  0
 28 45  1  0  0  0  0
M  END
>  <DRUGBANK_ID>
DB12275

>  <COMMON_NAME>
Seviteronel

>  <CAS_NUMBER>
1610537-15-9

>  <UNII>
8S5OIN36X4

>  <SYNONYMS>
Seviteronel

$$$$
