397
 OpenBabel10282417163D

 27 29  0  0  0  0  0  0  0  0999 V2000
    2.0976   -0.6908    0.0004 C   0  0  0  0  0  0  0  0  0  0  0  0
    0.8675   -1.3810    0.0108 C   0  0  0  0  0  0  0  0  0  0  0  0
   -0.3003   -0.6045    0.0252 C   0  0  0  0  0  0  0  0  0  0  0  0
   -0.2786    0.7847    0.0113 C   0  0  0  0  0  0  0  0  0  0  0  0
    0.9568    1.4551   -0.0015 C   0  0  0  0  0  0  0  0  0  0  0  0
    2.1298    0.7019   -0.0008 C   0  0  0  0  0  0  0  0  0  0  0  0
   -1.6054   -1.0479    0.0559 O   0  0  0  0  0  0  0  0  0  0  0  0
   -2.4103    0.0659    0.0426 C   0  0  0  0  0  0  0  0  0  0  0  0
   -1.6273    1.2053    0.0107 C   0  0  0  0  0  0  0  0  0  0  0  0
   -3.8605   -0.0966    0.0084 C   0  0  0  0  0  0  0  0  0  0  0  0
   -4.5619   -0.7775    1.0129 C   0  0  0  0  0  0  0  0  0  0  0  0
   -5.9579   -0.9034    0.9451 C   0  0  0  0  0  0  0  0  0  0  0  0
   -6.6665   -0.2976   -0.0859 C   0  0  0  0  0  0  0  0  0  0  0  0
   -6.0033    0.4663   -1.0378 C   0  0  0  0  0  0  0  0  0  0  0  0
   -4.6054    0.5402   -1.0016 C   0  0  0  0  0  0  0  0  0  0  0  0
    3.3019    1.4034   -0.0002 O   0  0  0  0  0  0  0  0  0  0  0  0
   -8.0176   -0.4756   -0.1286 O   0  0  0  0  0  0  0  0  0  0  0  0
    3.0243   -1.2609   -0.0041 H   0  0  0  0  0  0  0  0  0  0  0  0
    0.8325   -2.4646    0.0105 H   0  0  0  0  0  0  0  0  0  0  0  0
    0.9989    2.5378   -0.0062 H   0  0  0  0  0  0  0  0  0  0  0  0
   -1.9949    2.2165   -0.0065 H   0  0  0  0  0  0  0  0  0  0  0  0
   -4.0348   -1.1911    1.8683 H   0  0  0  0  0  0  0  0  0  0  0  0
   -6.4954   -1.4698    1.7021 H   0  0  0  0  0  0  0  0  0  0  0  0
   -6.5483    1.0088   -1.8039 H   0  0  0  0  0  0  0  0  0  0  0  0
   -4.0932    1.1099   -1.7754 H   0  0  0  0  0  0  0  0  0  0  0  0
    4.0512    0.7865    0.0154 H   0  0  0  0  0  0  0  0  0  0  0  0
   -8.3598   -0.1060   -0.9597 H   0  0  0  0  0  0  0  0  0  0  0  0
  1  2  2  0  0  0  0
  1  6  1  0  0  0  0
  1 18  1  0  0  0  0
  2  3  1  0  0  0  0
  2 19  1  0  0  0  0
  3  4  2  0  0  0  0
  3  7  1  0  0  0  0
  4  5  1  0  0  0  0
  4  9  1  0  0  0  0
  5  6  2  0  0  0  0
  5 20  1  0  0  0  0
  6 16  1  0  0  0  0
  7  8  1  0  0  0  0
  8  9  2  0  0  0  0
  8 10  1  0  0  0  0
  9 21  1  0  0  0  0
 10 11  2  0  0  0  0
 10 15  1  0  0  0  0
 11 12  1  0  0  0  0
 11 22  1  0  0  0  0
 12 13  2  0  0  0  0
 12 23  1  0  0  0  0
 13 14  1  0  0  0  0
 13 17  1  0  0  0  0
 14 15  2  0  0  0  0
 14 24  1  0  0  0  0
 15 25  1  0  0  0  0
 16 26  1  0  0  0  0
 17 27  1  0  0  0  0
M  END
>  <DRUGBANK_ID>
DB07032

>  <COMMON_NAME>
2-(4-HYDROXY-PHENYL)BENZOFURAN-5-OL

$$$$
