
 OpenBabel10282417223D

 46 48  0  0  1  0  0  0  0  0999 V2000
    0.9387    0.1528   -0.0161 C   0  0  0  0  0  0  0  0  0  0  0  0
    0.4590    0.2185   -1.3907 N   0  0  0  0  0  0  0  0  0  0  0  0
    0.3179    1.4322   -2.0090 C   0  0  0  0  0  0  0  0  0  0  0  0
    0.5435    2.5138   -1.4716 O   0  0  0  0  0  0  0  0  0  0  0  0
   -0.1685    1.3985   -3.4025 C   0  0  0  0  0  0  0  0  0  0  0  0
   -0.4499    0.2452   -4.0352 C   0  0  0  0  0  0  0  0  0  0  0  0
   -0.9413    0.2700   -5.3496 N   0  0  0  0  0  0  0  0  0  0  0  0
   -0.2027    0.8419   -6.4885 C   0  0  0  0  0  0  0  0  0  0  0  0
   -1.0732    1.8747   -7.2057 C   0  0  0  0  0  0  0  0  0  0  0  0
   -2.4099    1.2678   -7.6367 C   0  0  0  0  0  0  0  0  0  0  0  0
   -3.1288    0.6876   -6.4193 C   0  0  1  0  0  0  0  0  0  0  0  0
   -4.4033    0.1085   -6.8500 N   0  0  0  0  0  0  0  0  0  0  0  0
   -2.2222   -0.3479   -5.7449 C   0  0  0  0  0  0  0  0  0  0  0  0
   -0.2974   -0.9374   -3.3168 N   0  0  0  0  0  0  0  0  0  0  0  0
   -0.5540   -2.2423   -3.9506 C   0  0  0  0  0  0  0  0  0  0  0  0
    0.6816   -3.0986   -4.1111 C   0  0  0  0  0  0  0  0  0  0  0  0
    1.3239   -3.5996   -2.9719 C   0  0  0  0  0  0  0  0  0  0  0  0
    2.6292   -4.0267   -3.0273 C   0  0  0  0  0  0  0  0  0  0  0  0
    3.2753   -4.3064   -1.8901 F   0  0  0  0  0  0  0  0  0  0  0  0
    3.2370   -4.1978   -4.2495 C   0  0  0  0  0  0  0  0  0  0  0  0
    2.4665   -4.0737   -5.4061 C   0  0  0  0  0  0  0  0  0  0  0  0
    1.2362   -3.4075   -5.3621 C   0  0  0  0  0  0  0  0  0  0  0  0
    0.6002   -3.0370   -6.5934 C   0  0  0  0  0  0  0  0  0  0  0  0
    0.0679   -2.7027   -7.5774 N   0  0  0  0  0  0  0  0  0  0  0  0
    0.0336   -0.9522   -1.9639 C   0  0  0  0  0  0  0  0  0  0  0  0
   -0.0662   -1.9643   -1.2694 O   0  0  0  0  0  0  0  0  0  0  0  0
    0.6014   -0.7548    0.4979 H   0  0  0  0  0  0  0  0  0  0  0  0
    0.5983    1.0143    0.5611 H   0  0  0  0  0  0  0  0  0  0  0  0
    2.0337    0.1320   -0.0329 H   0  0  0  0  0  0  0  0  0  0  0  0
   -0.3141    2.3668   -3.8641 H   0  0  0  0  0  0  0  0  0  0  0  0
    0.7414    1.2961   -6.1700 H   0  0  0  0  0  0  0  0  0  0  0  0
    0.0545    0.0401   -7.1910 H   0  0  0  0  0  0  0  0  0  0  0  0
   -1.2642    2.7171   -6.5304 H   0  0  0  0  0  0  0  0  0  0  0  0
   -0.5502    2.2663   -8.0842 H   0  0  0  0  0  0  0  0  0  0  0  0
   -3.0331    2.0322   -8.1128 H   0  0  0  0  0  0  0  0  0  0  0  0
   -2.2305    0.4807   -8.3832 H   0  0  0  0  0  0  0  0  0  0  0  0
   -3.3175    1.4926   -5.6979 H   0  0  0  0  0  0  0  0  0  0  0  0
   -5.1633    0.6079   -6.3908 H   0  0  0  0  0  0  0  0  0  0  0  0
   -4.4781   -0.8606   -6.5421 H   0  0  0  0  0  0  0  0  0  0  0  0
   -2.0411   -1.1714   -6.4497 H   0  0  0  0  0  0  0  0  0  0  0  0
   -2.7475   -0.7652   -4.8765 H   0  0  0  0  0  0  0  0  0  0  0  0
   -1.3288   -2.7735   -3.3910 H   0  0  0  0  0  0  0  0  0  0  0  0
   -0.9620   -2.1070   -4.9418 H   0  0  0  0  0  0  0  0  0  0  0  0
    0.8539   -3.6228   -2.0002 H   0  0  0  0  0  0  0  0  0  0  0  0
    4.2839   -4.4677   -4.2875 H   0  0  0  0  0  0  0  0  0  0  0  0
    2.8390   -4.4872   -6.3383 H   0  0  0  0  0  0  0  0  0  0  0  0
  1  2  1  0  0  0  0
  1 27  1  0  0  0  0
  1 28  1  0  0  0  0
  1 29  1  0  0  0  0
  2  3  1  0  0  0  0
  2 25  1  0  0  0  0
  3  4  2  0  0  0  0
  3  5  1  0  0  0  0
  5  6  2  0  0  0  0
  5 30  1  0  0  0  0
  6  7  1  0  0  0  0
  6 14  1  0  0  0  0
  7  8  1  0  0  0  0
  7 13  1  0  0  0  0
  8  9  1  0  0  0  0
  8 31  1  0  0  0  0
  8 32  1  0  0  0  0
  9 10  1  0  0  0  0
  9 33  1  0  0  0  0
  9 34  1  0  0  0  0
 10 35  1  0  0  0  0
 10 36  1  0  0  0  0
 11 10  1  0  0  0  0
 11 13  1  0  0  0  0
 11 37  1  1  0  0  0
 11 12  1  0  0  0  0
 12 38  1  0  0  0  0
 12 39  1  0  0  0  0
 13 40  1  0  0  0  0
 13 41  1  0  0  0  0
 14 15  1  0  0  0  0
 14 25  1  0  0  0  0
 15 16  1  0  0  0  0
 15 42  1  0  0  0  0
 15 43  1  0  0  0  0
 16 17  2  0  0  0  0
 16 22  1  0  0  0  0
 17 18  1  0  0  0  0
 17 44  1  0  0  0  0
 18 19  1  0  0  0  0
 18 20  2  0  0  0  0
 20 21  1  0  0  0  0
 20 45  1  0  0  0  0
 21 22  2  0  0  0  0
 21 46  1  0  0  0  0
 22 23  1  0  0  0  0
 23 24  3  0  0  0  0
 25 26  2  0  0  0  0
M  END
>  <DRUGBANK_ID>
DB15323

>  <COMMON_NAME>
Trelagliptin

>  <CAS_NUMBER>
865759-25-7

>  <UNII>
Q836OWG55H

>  <SYNONYMS>
Trelagliptin

$$$$
