
 OpenBabel10282417173D

 43 45  0  0  0  0  0  0  0  0999 V2000
   -2.0452    0.0720   -0.0163 Cl  0  0  0  0  0  0  0  0  0  0  0  0
    8.2628   -0.8505   -3.2533 O   0  0  0  0  0  0  0  0  0  0  0  0
    6.5187    3.7332    2.0933 N   0  0  0  0  0  0  0  0  0  0  0  0
    4.2864    3.8238    2.1620 N   0  0  0  0  0  0  0  0  0  0  0  0
    6.8134    2.5012    0.0304 N   0  0  0  0  0  0  0  0  0  0  0  0
    2.5681    2.4249   -0.1010 N   0  0  0  0  0  0  0  0  0  0  0  0
    4.7398    1.9051   -0.9940 N   0  0  0  0  0  0  0  0  0  0  0  0
    6.7312    1.2469   -1.9398 N   0  0  0  0  0  0  0  0  0  0  0  0
    7.9094    3.9519    2.4865 C   0  0  0  0  0  0  0  0  0  0  0  0
    6.0716    3.0872    0.9682 C   0  0  0  0  0  0  0  0  0  0  0  0
    4.6832    3.1527    1.0219 C   0  0  0  0  0  0  0  0  0  0  0  0
    8.2493    5.4439    2.5559 C   0  0  0  0  0  0  0  0  0  0  0  0
    8.2467    3.2849    3.8240 C   0  0  0  0  0  0  0  0  0  0  0  0
    5.4068    4.1456    2.7817 C   0  0  0  0  0  0  0  0  0  0  0  0
    3.9828    2.5069   -0.0236 C   0  0  0  0  0  0  0  0  0  0  0  0
    6.0869    1.9237   -0.9399 C   0  0  0  0  0  0  0  0  0  0  0  0
    1.8138    1.2240   -0.0104 C   0  0  0  0  0  0  0  0  0  0  0  0
    8.1770    1.2783   -2.0723 C   0  0  0  0  0  0  0  0  0  0  0  0
    8.7135   -0.1558   -2.0917 C   0  0  0  0  0  0  0  0  0  0  0  0
    0.4082    1.2429   -0.0281 C   0  0  0  0  0  0  0  0  0  0  0  0
    2.4416   -0.0319    0.0003 C   0  0  0  0  0  0  0  0  0  0  0  0
   -0.3209    0.0418   -0.0189 C   0  0  0  0  0  0  0  0  0  0  0  0
    1.7155   -1.2255    0.0023 C   0  0  0  0  0  0  0  0  0  0  0  0
    0.3276   -1.1911   -0.0120 C   0  0  0  0  0  0  0  0  0  0  0  0
    2.1091    3.2292    0.3124 H   0  0  0  0  0  0  0  0  0  0  0  0
    6.1402    1.0211   -2.7287 H   0  0  0  0  0  0  0  0  0  0  0  0
    7.2910   -0.8640   -3.1962 H   0  0  0  0  0  0  0  0  0  0  0  0
    8.5430    3.4966    1.7141 H   0  0  0  0  0  0  0  0  0  0  0  0
    7.6503    5.9541    3.3184 H   0  0  0  0  0  0  0  0  0  0  0  0
    9.3044    5.5932    2.8131 H   0  0  0  0  0  0  0  0  0  0  0  0
    8.0623    5.9374    1.5969 H   0  0  0  0  0  0  0  0  0  0  0  0
    8.0616    2.2067    3.7886 H   0  0  0  0  0  0  0  0  0  0  0  0
    9.3022    3.4372    4.0801 H   0  0  0  0  0  0  0  0  0  0  0  0
    7.6485    3.7024    4.6414 H   0  0  0  0  0  0  0  0  0  0  0  0
    5.4790    4.6741    3.7234 H   0  0  0  0  0  0  0  0  0  0  0  0
    8.4459    1.7917   -3.0021 H   0  0  0  0  0  0  0  0  0  0  0  0
    8.6699    1.8116   -1.2520 H   0  0  0  0  0  0  0  0  0  0  0  0
    9.8071   -0.1494   -2.1083 H   0  0  0  0  0  0  0  0  0  0  0  0
    8.3860   -0.7133   -1.2072 H   0  0  0  0  0  0  0  0  0  0  0  0
   -0.1354    2.1836   -0.0481 H   0  0  0  0  0  0  0  0  0  0  0  0
    3.5254   -0.1009    0.0145 H   0  0  0  0  0  0  0  0  0  0  0  0
    2.2447   -2.1743    0.0089 H   0  0  0  0  0  0  0  0  0  0  0  0
   -0.2344   -2.1214   -0.0198 H   0  0  0  0  0  0  0  0  0  0  0  0
  1 22  1  0  0  0  0
  2 19  1  0  0  0  0
  2 27  1  0  0  0  0
  3  9  1  0  0  0  0
  3 10  1  0  0  0  0
  3 14  1  0  0  0  0
  4 11  1  0  0  0  0
  4 14  2  0  0  0  0
  5 10  2  0  0  0  0
  5 16  1  0  0  0  0
  6 15  1  0  0  0  0
  6 17  1  0  0  0  0
  6 25  1  0  0  0  0
  7 15  1  0  0  0  0
  7 16  2  0  0  0  0
  8 16  1  0  0  0  0
  8 18  1  0  0  0  0
  8 26  1  0  0  0  0
  9 12  1  0  0  0  0
  9 13  1  0  0  0  0
  9 28  1  0  0  0  0
 10 11  1  0  0  0  0
 11 15  2  0  0  0  0
 12 29  1  0  0  0  0
 12 30  1  0  0  0  0
 12 31  1  0  0  0  0
 13 32  1  0  0  0  0
 13 33  1  0  0  0  0
 13 34  1  0  0  0  0
 14 35  1  0  0  0  0
 17 20  2  0  0  0  0
 17 21  1  0  0  0  0
 18 19  1  0  0  0  0
 18 36  1  0  0  0  0
 18 37  1  0  0  0  0
 19 38  1  0  0  0  0
 19 39  1  0  0  0  0
 20 22  1  0  0  0  0
 20 40  1  0  0  0  0
 21 23  2  0  0  0  0
 21 41  1  0  0  0  0
 22 24  2  0  0  0  0
 23 24  1  0  0  0  0
 23 42  1  0  0  0  0
 24 43  1  0  0  0  0
M  END
>  <DRUGBANK_ID>
DB08325

>  <COMMON_NAME>
2-({6-[(3-Chlorophenyl)amino]-9-isopropyl-9H-purin-2-yl}amino)ethanol

>  <CAS_NUMBER>
212779-48-1

>  <SYNONYMS>
2-(2-Hydroxyethylamino)-6-(3-chloroanilino)-9-isopropylpurine

$$$$
