
 OpenBabel10282417193D

 22 22  0  0  0  0  0  0  0  0999 V2000
   -1.0989    1.3162   -0.0064 C   0  0  0  0  0  0  0  0  0  0  0  0
    0.2912    1.2249    0.0114 C   0  0  0  0  0  0  0  0  0  0  0  0
    0.9121   -0.0203   -0.0215 C   0  0  0  0  0  0  0  0  0  0  0  0
    0.0362   -1.1367   -0.0031 C   0  0  0  0  0  0  0  0  0  0  0  0
   -1.3159   -1.0830   -0.0157 N   0  0  0  0  0  0  0  0  0  0  0  0
   -1.8495    0.1506   -0.0220 C   0  0  0  0  0  0  0  0  0  0  0  0
    0.6321   -2.4762    0.0017 C   0  0  0  0  0  0  0  0  0  0  0  0
    0.0922   -3.6390   -0.0111 N   0  0  0  0  0  0  0  0  0  0  0  0
    0.8972   -4.7655   -0.0146 N   0  0  0  0  0  0  0  0  0  0  0  0
    2.2370   -5.0026   -0.0207 C   0  0  0  0  0  0  0  0  0  0  0  0
    2.7883   -6.5810   -0.0301 S   0  0  0  0  0  0  0  0  0  0  0  0
    3.1883   -4.0539   -0.0281 N   0  0  0  0  0  0  0  0  0  0  0  0
    2.3078   -0.0533    0.1112 N   0  0  0  0  0  0  0  0  0  0  0  0
   -1.5852    2.2843   -0.0059 H   0  0  0  0  0  0  0  0  0  0  0  0
    0.8870    2.1331    0.0416 H   0  0  0  0  0  0  0  0  0  0  0  0
   -2.9344    0.1803   -0.0403 H   0  0  0  0  0  0  0  0  0  0  0  0
    1.6889   -2.3788    0.0106 H   0  0  0  0  0  0  0  0  0  0  0  0
    0.3396   -5.6187   -0.0181 H   0  0  0  0  0  0  0  0  0  0  0  0
    3.1140   -3.0621    0.0026 H   0  0  0  0  0  0  0  0  0  0  0  0
    4.1511   -4.3606   -0.0227 H   0  0  0  0  0  0  0  0  0  0  0  0
    2.8464   -0.8811   -0.0972 H   0  0  0  0  0  0  0  0  0  0  0  0
    2.8205    0.8085   -0.0464 H   0  0  0  0  0  0  0  0  0  0  0  0
  1  2  2  0  0  0  0
  1  6  1  0  0  0  0
  1 14  1  0  0  0  0
  2  3  1  0  0  0  0
  2 15  1  0  0  0  0
  3  4  2  0  0  0  0
  3 13  1  0  0  0  0
  4  5  1  0  0  0  0
  4  7  1  0  0  0  0
  5  6  2  0  0  0  0
  6 16  1  0  0  0  0
  7  8  2  0  0  0  0
  7 17  1  0  0  0  0
  8  9  1  0  0  0  0
  9 10  1  0  0  0  0
  9 18  1  0  0  0  0
 10 11  2  0  0  0  0
 10 12  1  0  0  0  0
 12 19  1  0  0  0  0
 12 20  1  0  0  0  0
 13 21  1  0  0  0  0
 13 22  1  0  0  0  0
M  END
>  <DRUGBANK_ID>
DB11940

>  <COMMON_NAME>
Triapine

>  <CAS_NUMBER>
143621-35-6

>  <UNII>
U4XIL4091C

>  <SYNONYMS>
3-Aminopyridine-2-carboxaldehyde thiosemicarbazone

$$$$
