
 OpenBabel10282417233D

 44 46  0  0  1  0  0  0  0  0999 V2000
    0.9743    0.0105    0.0186 N   0  0  0  0  0  0  0  0  0  0  0  0
    0.3079    1.0893   -0.4270 C   0  0  0  0  0  0  0  0  0  0  0  0
   -0.9203    1.1154   -0.4394 O   0  0  0  0  0  0  0  0  0  0  0  0
    1.0255    2.1415   -0.8658 N   0  0  0  0  0  0  0  0  0  0  0  0
    2.4621    2.3085   -0.9030 C   0  0  0  0  0  0  0  0  0  0  0  0
    2.9777    2.4829   -2.3478 C   0  0  2  0  0  0  0  0  0  0  0  0
    3.7662    1.2305   -2.7523 C   0  0  0  0  0  0  0  0  0  0  0  0
    5.1165    1.2187   -2.0407 C   0  0  0  0  0  0  0  0  0  0  0  0
    5.9633    2.4255   -2.4562 C   0  0  0  0  0  0  0  0  0  0  0  0
    5.2087    3.7374   -2.4157 C   0  0  0  0  0  0  0  0  0  0  0  0
    5.9093    4.9619   -2.4043 C   0  0  0  0  0  0  0  0  0  0  0  0
    5.2103    6.1806   -2.3627 C   0  0  0  0  0  0  0  0  0  0  0  0
    3.8177    6.1877   -2.3589 C   0  0  0  0  0  0  0  0  0  0  0  0
    3.1229    4.9837   -2.3875 C   0  0  0  0  0  0  0  0  0  0  0  0
    3.8026    3.7559   -2.4183 C   0  0  0  0  0  0  0  0  0  0  0  0
    6.1300    7.7108   -2.3079 S   0  0  0  0  0  0  0  0  0  0  0  0
    6.8625    7.7176   -1.0538 O   0  0  0  0  0  0  0  0  0  0  0  0
    6.8267    7.8016   -3.5768 O   0  0  0  0  0  0  0  0  0  0  0  0
    5.0117    9.1034   -2.2271 C   0  0  0  0  0  0  0  0  0  0  0  0
    4.1524    9.2295   -1.1306 C   0  0  0  0  0  0  0  0  0  0  0  0
    3.2628   10.2964   -1.0898 C   0  0  0  0  0  0  0  0  0  0  0  0
    2.4048   10.3971   -0.0667 F   0  0  0  0  0  0  0  0  0  0  0  0
    3.2364   11.2522   -2.1003 C   0  0  0  0  0  0  0  0  0  0  0  0
    4.1104   11.1368   -3.1818 C   0  0  0  0  0  0  0  0  0  0  0  0
    5.0013   10.0607   -3.2496 C   0  0  0  0  0  0  0  0  0  0  0  0
    0.4262   -0.7639    0.3627 H   0  0  0  0  0  0  0  0  0  0  0  0
    1.9745   -0.0677    0.0739 H   0  0  0  0  0  0  0  0  0  0  0  0
    0.4512    2.9173   -1.1721 H   0  0  0  0  0  0  0  0  0  0  0  0
    2.7020    3.1609   -0.2591 H   0  0  0  0  0  0  0  0  0  0  0  0
    2.9353    1.4495   -0.4309 H   0  0  0  0  0  0  0  0  0  0  0  0
    2.1419    2.5850   -3.0555 H   0  0  0  0  0  0  0  0  0  0  0  0
    3.9100    1.1965   -3.8394 H   0  0  0  0  0  0  0  0  0  0  0  0
    3.1888    0.3337   -2.4893 H   0  0  0  0  0  0  0  0  0  0  0  0
    4.9705    1.2473   -0.9540 H   0  0  0  0  0  0  0  0  0  0  0  0
    5.6424    0.2818   -2.2503 H   0  0  0  0  0  0  0  0  0  0  0  0
    6.8292    2.4801   -1.7865 H   0  0  0  0  0  0  0  0  0  0  0  0
    6.3334    2.2689   -3.4759 H   0  0  0  0  0  0  0  0  0  0  0  0
    6.9991    4.9668   -2.4192 H   0  0  0  0  0  0  0  0  0  0  0  0
    3.2354    7.1003   -2.3286 H   0  0  0  0  0  0  0  0  0  0  0  0
    2.0348    5.0047   -2.3602 H   0  0  0  0  0  0  0  0  0  0  0  0
    4.1446    8.5014   -0.3249 H   0  0  0  0  0  0  0  0  0  0  0  0
    2.5381   12.0820   -2.0361 H   0  0  0  0  0  0  0  0  0  0  0  0
    4.0966   11.8852   -3.9716 H   0  0  0  0  0  0  0  0  0  0  0  0
    5.6796    9.9829   -4.0975 H   0  0  0  0  0  0  0  0  0  0  0  0
  1  2  1  0  0  0  0
  1 26  1  0  0  0  0
  1 27  1  0  0  0  0
  2  3  2  0  0  0  0
  2  4  1  0  0  0  0
  4  5  1  0  0  0  0
  4 28  1  0  0  0  0
  5 29  1  0  0  0  0
  5 30  1  0  0  0  0
  6  5  1  0  0  0  0
  6  7  1  0  0  0  0
  6 15  1  0  0  0  0
  6 31  1  6  0  0  0
  7  8  1  0  0  0  0
  7 32  1  0  0  0  0
  7 33  1  0  0  0  0
  8  9  1  0  0  0  0
  8 34  1  0  0  0  0
  8 35  1  0  0  0  0
  9 10  1  0  0  0  0
  9 36  1  0  0  0  0
  9 37  1  0  0  0  0
 10 11  2  0  0  0  0
 10 15  1  0  0  0  0
 11 12  1  0  0  0  0
 11 38  1  0  0  0  0
 12 13  2  0  0  0  0
 12 16  1  0  0  0  0
 13 14  1  0  0  0  0
 13 39  1  0  0  0  0
 14 15  2  0  0  0  0
 14 40  1  0  0  0  0
 16 17  2  0  0  0  0
 16 18  2  0  0  0  0
 16 19  1  0  0  0  0
 19 20  2  0  0  0  0
 19 25  1  0  0  0  0
 20 21  1  0  0  0  0
 20 41  1  0  0  0  0
 21 22  1  0  0  0  0
 21 23  2  0  0  0  0
 23 24  1  0  0  0  0
 23 42  1  0  0  0  0
 24 25  2  0  0  0  0
 24 43  1  0  0  0  0
 25 44  1  0  0  0  0
M  END
>  <DRUGBANK_ID>
DB16214

>  <COMMON_NAME>
Landipirdine

>  <CAS_NUMBER>
1000308-25-7

>  <UNII>
J0NX985GDI

>  <SYNONYMS>
Landipirdine

$$$$
