
 OpenBabel10282417163D

177184  0  0  0  0  0  0  0  0999 V2000
  -19.0387   16.5964   15.4672 C   0  0  0  0  0  0  0  0  0  0  0  0
  -18.1547   17.4527   16.1210 C   0  0  0  0  0  0  0  0  0  0  0  0
  -20.1620   16.1052   16.1509 C   0  0  0  0  0  0  0  0  0  0  0  0
  -18.3264   17.8220   17.4549 C   0  0  0  0  0  0  0  0  0  0  0  0
  -20.3274   16.4310   17.4932 C   0  0  0  0  0  0  0  0  0  0  0  0
  -19.4188   17.2707   18.1335 C   0  0  0  0  0  0  0  0  0  0  0  0
  -18.5334   16.3772   14.1639 C   0  0  0  0  0  0  0  0  0  0  0  0
  -17.3391   17.0703   14.0762 C   0  0  0  0  0  0  0  0  0  0  0  0
  -17.1692   17.7855   15.2248 N   0  0  0  0  0  0  0  0  0  0  0  0
  -19.1899   15.5489   13.1053 C   0  0  0  0  0  0  0  0  0  0  0  0
  -21.3275   14.5429    8.2601 C   0  0  0  0  0  0  0  0  0  0  0  0
  -21.3594   13.8512    9.6778 C   0  0  1  0  0  0  0  0  0  0  0  0
  -22.1782   15.1875    7.6731 O   0  0  0  0  0  0  0  0  0  0  0  0
  -20.5044   14.3632   10.7650 N   0  0  0  0  0  0  0  0  0  0  0  0
  -21.2886   16.4130   10.2362 O   0  0  0  0  0  0  0  0  0  0  0  0
  -20.5520   15.7278   10.9460 C   0  0  0  0  0  0  0  0  0  0  0  0
  -19.5594   16.4231   11.9232 C   0  0  2  0  0  0  0  0  0  0  0  0
  -18.3659   17.1194   11.4005 N   0  0  0  0  0  0  0  0  0  0  0  0
  -17.9374   16.8577   10.1781 C   0  0  0  0  0  0  0  0  0  0  0  0
  -16.6419   17.4693    9.5902 C   0  0  2  0  0  0  0  0  0  0  0  0
  -18.6103   16.0308    9.5808 O   0  0  0  0  0  0  0  0  0  0  0  0
  -15.3882   16.4104    9.5596 C   0  0  0  0  0  0  0  0  0  0  0  0
  -16.2323   18.8595    9.8196 N   0  0  0  0  0  0  0  0  0  0  0  0
  -15.1726   15.1864    8.6738 C   0  0  0  0  0  0  0  0  0  0  0  0
  -14.1765   14.9521    7.8140 C   0  0  0  0  0  0  0  0  0  0  0  0
  -16.1763   14.3757    8.3336 C   0  0  0  0  0  0  0  0  0  0  0  0
  -14.3875   14.1938    6.6361 C   0  0  0  0  0  0  0  0  0  0  0  0
  -16.3220   13.7501    6.9500 C   0  0  0  0  0  0  0  0  0  0  0  0
  -15.5840   13.7114    6.0456 C   0  0  0  0  0  0  0  0  0  0  0  0
  -16.2845   13.1401    4.7483 O   0  0  0  0  0  0  0  0  0  0  0  0
  -16.5107   19.8958    8.8945 C   0  0  0  0  0  0  0  0  0  0  0  0
  -16.1365   21.2891    9.3239 C   0  0  1  0  0  0  0  0  0  0  0  0
  -15.1763   21.8840    8.3938 N   0  0  0  0  0  0  0  0  0  0  0  0
  -17.4690   22.0361    9.3453 C   0  0  0  0  0  0  0  0  0  0  0  0
  -17.0926   19.7950    7.8184 O   0  0  0  0  0  0  0  0  0  0  0  0
  -15.3917   23.0359    7.6697 C   0  0  0  0  0  0  0  0  0  0  0  0
  -14.2612   23.6251    6.8456 C   0  0  2  0  0  0  0  0  0  0  0  0
  -13.0386   22.7521    6.6166 C   0  0  0  0  0  0  0  0  0  0  0  0
  -12.1897   22.6899    7.8444 C   0  0  0  0  0  0  0  0  0  0  0  0
  -16.4290   23.6951    7.7412 O   0  0  0  0  0  0  0  0  0  0  0  0
  -11.5024   23.7376    8.4214 C   0  0  0  0  0  0  0  0  0  0  0  0
  -10.9948   23.3216    9.6160 N   0  0  0  0  0  0  0  0  0  0  0  0
  -11.9822   21.5575    8.6714 C   0  0  0  0  0  0  0  0  0  0  0  0
  -11.2366   21.9761    9.7711 C   0  0  0  0  0  0  0  0  0  0  0  0
  -11.9939   19.3131    9.5579 C   0  0  0  0  0  0  0  0  0  0  0  0
  -11.2117   19.7442   10.6242 C   0  0  0  0  0  0  0  0  0  0  0  0
  -12.3845   20.2114    8.5761 C   0  0  0  0  0  0  0  0  0  0  0  0
  -10.8346   21.0866   10.7683 C   0  0  0  0  0  0  0  0  0  0  0  0
  -13.9476   24.9341    7.4538 N   0  0  0  0  0  0  0  0  0  0  0  0
  -14.0267   26.0510    6.6729 C   0  0  0  0  0  0  0  0  0  0  0  0
  -13.6085   27.4137    7.3010 C   0  0  2  0  0  0  0  0  0  0  0  0
  -14.2867   25.8683    5.4885 O   0  0  0  0  0  0  0  0  0  0  0  0
  -13.9634   28.6798    6.4964 C   0  0  0  0  0  0  0  0  0  0  0  0
  -14.6902   28.4279    5.2311 C   0  0  0  0  0  0  0  0  0  0  0  0
  -15.9642   27.9020    5.2188 N   0  0  0  0  0  0  0  0  0  0  0  0
  -14.1755   28.4803    3.9560 C   0  0  0  0  0  0  0  0  0  0  0  0
  -16.1491   27.4909    3.9812 C   0  0  0  0  0  0  0  0  0  0  0  0
  -15.1129   27.8704    3.1728 N   0  0  0  0  0  0  0  0  0  0  0  0
  -12.1664   27.3556    7.5700 N   0  0  0  0  0  0  0  0  0  0  0  0
  -11.5196   27.3688    8.7587 C   0  0  0  0  0  0  0  0  0  0  0  0
  -10.2812   27.3647    8.7262 O   0  0  0  0  0  0  0  0  0  0  0  0
  -12.2194   27.5061   10.1285 C   0  0  2  0  0  0  0  0  0  0  0  0
  -13.5075   26.8669   10.6394 C   0  0  0  0  0  0  0  0  0  0  0  0
  -13.7756   27.6716   11.9241 C   0  0  0  0  0  0  0  0  0  0  0  0
  -13.2828   29.0427   11.5436 C   0  0  0  0  0  0  0  0  0  0  0  0
  -12.3570   28.8821   10.5347 N   0  0  0  0  0  0  0  0  0  0  0  0
  -13.6127   30.1007   12.0451 O   0  0  0  0  0  0  0  0  0  0  0  0
  -22.6975   13.4736   10.1239 C   0  0  0  0  0  0  0  0  0  0  0  0
  -23.4494   12.7598    8.9946 C   0  0  0  0  0  0  0  0  0  0  0  0
  -22.8688   11.4060    8.5607 C   0  0  0  0  0  0  0  0  0  0  0  0
  -24.8477   12.6043    9.5167 C   0  0  0  0  0  0  0  0  0  0  0  0
  -20.2085   14.2349    7.6097 N   0  0  0  0  0  0  0  0  0  0  0  0
  -19.2884   13.6206    8.4310 C   0  0  2  0  0  0  0  0  0  0  0  0
  -18.3530   13.8796    7.4217 C   0  0  0  0  0  0  0  0  0  0  0  0
  -17.8199   15.2270    6.4088 N   0  0  0  0  0  0  0  0  0  0  0  0
  -17.7445   12.7789    7.7228 O   0  0  0  0  0  0  0  0  0  0  0  0
  -19.2879   11.8609    8.5986 C   0  0  0  0  0  0  0  0  0  0  0  0
  -18.0446   11.2228    9.3958 C   0  0  0  0  0  0  0  0  0  0  0  0
  -17.7189   11.9961   10.6657 C   0  0  0  0  0  0  0  0  0  0  0  0
  -18.8690   12.0130   11.5669 N   0  0  0  0  0  0  0  0  0  0  0  0
  -18.8187   11.2942   12.7086 C   0  0  0  0  0  0  0  0  0  0  0  0
  -19.9775   11.2339   13.3796 N   0  0  0  0  0  0  0  0  0  0  0  0
  -17.7312   10.7546   13.1208 N   0  0  0  0  0  0  0  0  0  0  0  0
  -17.3504   16.3636    7.1177 C   0  0  0  0  0  0  0  0  0  0  0  0
  -17.2556   17.5217    6.2470 C   0  0  0  0  0  0  0  0  0  0  0  0
  -16.5580   15.3831    5.0180 C   0  0  1  0  0  0  0  0  0  0  0  0
  -16.3669   16.9707    5.1473 C   0  0  0  0  0  0  0  0  0  0  0  0
  -13.8126   15.4469    4.2419 O   0  0  0  0  0  0  0  0  0  0  0  0
  -14.8826   11.6761    5.9685 C   0  0  0  0  0  0  0  0  0  0  0  0
  -14.7657   14.6540    4.3984 C   0  0  0  0  0  0  0  0  0  0  0  0
  -14.2290   12.9126    4.6946 N   0  0  0  0  0  0  0  0  0  0  0  0
  -15.3061   10.4618    5.3151 C   0  0  0  0  0  0  0  0  0  0  0  0
  -15.3158    9.4040    6.1420 N   0  0  0  0  0  0  0  0  0  0  0  0
  -15.7790   10.4973    4.1884 O   0  0  0  0  0  0  0  0  0  0  0  0
  -18.4150   21.4058   10.1959 O   0  0  0  0  0  0  0  0  0  0  0  0
  -20.8666   15.4449   15.6556 H   0  0  0  0  0  0  0  0  0  0  0  0
  -17.6278   18.4798   17.9593 H   0  0  0  0  0  0  0  0  0  0  0  0
  -21.1674   16.0116   18.0383 H   0  0  0  0  0  0  0  0  0  0  0  0
  -19.5621   17.4979   19.1857 H   0  0  0  0  0  0  0  0  0  0  0  0
  -16.6137   17.1424   13.2785 H   0  0  0  0  0  0  0  0  0  0  0  0
  -16.3948   18.4077   15.4105 H   0  0  0  0  0  0  0  0  0  0  0  0
  -18.5095   14.7422   12.8109 H   0  0  0  0  0  0  0  0  0  0  0  0
  -20.1042   15.0738   13.4817 H   0  0  0  0  0  0  0  0  0  0  0  0
  -20.9990   12.8557    9.5165 H   0  0  0  0  0  0  0  0  0  0  0  0
  -19.6583   13.8676   11.0706 H   0  0  0  0  0  0  0  0  0  0  0  0
  -20.1771   17.2577   12.2665 H   0  0  0  0  0  0  0  0  0  0  0  0
  -17.9237   17.8482   11.9278 H   0  0  0  0  0  0  0  0  0  0  0  0
  -17.0746   17.7430    8.6585 H   0  0  0  0  0  0  0  0  0  0  0  0
  -14.5257   17.0166    9.2839 H   0  0  0  0  0  0  0  0  0  0  0  0
  -15.3096   15.9957   10.5635 H   0  0  0  0  0  0  0  0  0  0  0  0
  -15.8719   19.0772   10.7298 H   0  0  0  0  0  0  0  0  0  0  0  0
  -13.2599   15.5045    7.7872 H   0  0  0  0  0  0  0  0  0  0  0  0
  -17.0343   14.6066    8.9287 H   0  0  0  0  0  0  0  0  0  0  0  0
  -13.4395   14.1747    6.1598 H   0  0  0  0  0  0  0  0  0  0  0  0
  -17.3201   13.3349    6.1577 H   0  0  0  0  0  0  0  0  0  0  0  0
  -15.7059   12.5458    4.1903 H   0  0  0  0  0  0  0  0  0  0  0  0
  -15.6790   21.1952   10.3084 H   0  0  0  0  0  0  0  0  0  0  0  0
  -14.3466   21.3452    8.2319 H   0  0  0  0  0  0  0  0  0  0  0  0
  -17.2769   23.0395    9.7270 H   0  0  0  0  0  0  0  0  0  0  0  0
  -17.9051   22.1037    8.3336 H   0  0  0  0  0  0  0  0  0  0  0  0
  -14.7235   23.7686    5.8587 H   0  0  0  0  0  0  0  0  0  0  0  0
  -13.3776   21.7525    6.3154 H   0  0  0  0  0  0  0  0  0  0  0  0
  -12.4429   23.1369    5.7813 H   0  0  0  0  0  0  0  0  0  0  0  0
  -11.3830   24.7578    8.0876 H   0  0  0  0  0  0  0  0  0  0  0  0
  -10.4707   23.9061   10.2542 H   0  0  0  0  0  0  0  0  0  0  0  0
  -12.2772   18.2702    9.4584 H   0  0  0  0  0  0  0  0  0  0  0  0
  -10.8656   19.0135   11.3490 H   0  0  0  0  0  0  0  0  0  0  0  0
  -12.9804   19.8643    7.7351 H   0  0  0  0  0  0  0  0  0  0  0  0
  -10.2171   21.4072   11.6000 H   0  0  0  0  0  0  0  0  0  0  0  0
  -13.5859   24.9649    8.3947 H   0  0  0  0  0  0  0  0  0  0  0  0
  -14.0938   27.5363    8.2588 H   0  0  0  0  0  0  0  0  0  0  0  0
  -14.5665   29.3492    7.1216 H   0  0  0  0  0  0  0  0  0  0  0  0
  -13.0453   29.2394    6.2720 H   0  0  0  0  0  0  0  0  0  0  0  0
  -13.2150   28.8049    3.5867 H   0  0  0  0  0  0  0  0  0  0  0  0
  -16.9813   26.9005    3.6179 H   0  0  0  0  0  0  0  0  0  0  0  0
  -15.0404   27.6929    2.1821 H   0  0  0  0  0  0  0  0  0  0  0  0
  -11.5503   27.2644    6.7629 H   0  0  0  0  0  0  0  0  0  0  0  0
  -11.4686   27.0232   10.7662 H   0  0  0  0  0  0  0  0  0  0  0  0
  -13.3777   25.8031   10.8527 H   0  0  0  0  0  0  0  0  0  0  0  0
  -14.3899   26.9628   10.0049 H   0  0  0  0  0  0  0  0  0  0  0  0
  -13.1745   27.3095   12.7657 H   0  0  0  0  0  0  0  0  0  0  0  0
  -14.8322   27.6895   12.1978 H   0  0  0  0  0  0  0  0  0  0  0  0
  -11.8687   29.6799   10.1417 H   0  0  0  0  0  0  0  0  0  0  0  0
  -22.5658   12.7957   10.9785 H   0  0  0  0  0  0  0  0  0  0  0  0
  -23.1577   14.4019   10.4482 H   0  0  0  0  0  0  0  0  0  0  0  0
  -23.4924   13.3811    8.0959 H   0  0  0  0  0  0  0  0  0  0  0  0
  -22.7898   10.7195    9.4084 H   0  0  0  0  0  0  0  0  0  0  0  0
  -23.5004   10.9486    7.7933 H   0  0  0  0  0  0  0  0  0  0  0  0
  -21.8828   11.4927    8.0976 H   0  0  0  0  0  0  0  0  0  0  0  0
  -25.2313   13.5882    9.8061 H   0  0  0  0  0  0  0  0  0  0  0  0
  -25.4878   12.1808    8.7466 H   0  0  0  0  0  0  0  0  0  0  0  0
  -24.8373   11.9577   10.3980 H   0  0  0  0  0  0  0  0  0  0  0  0
  -19.9469   14.7765    6.7735 H   0  0  0  0  0  0  0  0  0  0  0  0
  -18.8857   14.0313    9.3463 H   0  0  0  0  0  0  0  0  0  0  0  0
  -20.1234   11.4420    9.1163 H   0  0  0  0  0  0  0  0  0  0  0  0
  -19.3076   11.4641    7.5630 H   0  0  0  0  0  0  0  0  0  0  0  0
  -18.3046   10.1762    9.5778 H   0  0  0  0  0  0  0  0  0  0  0  0
  -17.0904   11.1257    8.8375 H   0  0  0  0  0  0  0  0  0  0  0  0
  -16.8212   11.5572   11.1173 H   0  0  0  0  0  0  0  0  0  0  0  0
  -17.4192   13.0303   10.4738 H   0  0  0  0  0  0  0  0  0  0  0  0
  -19.7739   12.0120   11.1175 H   0  0  0  0  0  0  0  0  0  0  0  0
  -20.0142   10.7692   14.2754 H   0  0  0  0  0  0  0  0  0  0  0  0
  -20.8322   11.6727   13.0701 H   0  0  0  0  0  0  0  0  0  0  0  0
  -17.8712   10.2784   14.0060 H   0  0  0  0  0  0  0  0  0  0  0  0
  -16.2787   16.3712    7.3492 H   0  0  0  0  0  0  0  0  0  0  0  0
  -17.9089   16.4336    7.9754 H   0  0  0  0  0  0  0  0  0  0  0  0
  -18.2921   17.8185    6.1254 H   0  0  0  0  0  0  0  0  0  0  0  0
  -16.6479   18.2835    6.7223 H   0  0  0  0  0  0  0  0  0  0  0  0
  -17.2515   15.2130    4.2117 H   0  0  0  0  0  0  0  0  0  0  0  0
  -16.6198   17.5012    4.2426 H   0  0  0  0  0  0  0  0  0  0  0  0
  -15.3260   17.2195    5.4409 H   0  0  0  0  0  0  0  0  0  0  0  0
  -14.6300   11.8083    7.0756 H   0  0  0  0  0  0  0  0  0  0  0  0
  -16.0072   11.7397    6.2577 H   0  0  0  0  0  0  0  0  0  0  0  0
  -13.2471   12.8670    4.9585 H   0  0  0  0  0  0  0  0  0  0  0  0
  -15.5311    8.5464    5.6736 H   0  0  0  0  0  0  0  0  0  0  0  0
  -15.1406    9.4903    7.1396 H   0  0  0  0  0  0  0  0  0  0  0  0
  -18.7717   20.6588    9.6757 H   0  0  0  0  0  0  0  0  0  0  0  0
  2  1  1  0  0  0  0
  3  1  2  0  0  0  0
  3 96  1  0  0  0  0
  4  2  2  0  0  0  0
  4 97  1  0  0  0  0
  5  3  1  0  0  0  0
  5 98  1  0  0  0  0
  6  4  1  0  0  0  0
  6  5  2  0  0  0  0
  6 99  1  0  0  0  0
  7  1  1  0  0  0  0
  7 10  1  0  0  0  0
  8  7  2  0  0  0  0
  8100  1  0  0  0  0
  9  2  1  0  0  0  0
  9  8  1  0  0  0  0
  9101  1  0  0  0  0
 10102  1  0  0  0  0
 10103  1  0  0  0  0
 11 72  1  0  0  0  0
 12 68  1  0  0  0  0
 12104  1  6  0  0  0
 12 14  1  0  0  0  0
 12 11  1  0  0  0  0
 13 11  2  0  0  0  0
 14105  1  0  0  0  0
 16 14  1  0  0  0  0
 16 15  2  0  0  0  0
 17 10  1  0  0  0  0
 17106  1  1  0  0  0
 17 18  1  0  0  0  0
 17 16  1  0  0  0  0
 18 19  1  0  0  0  0
 18107  1  0  0  0  0
 19 21  2  0  0  0  0
 20 23  1  0  0  0  0
 20108  1  6  0  0  0
 20 22  1  0  0  0  0
 20 19  1  0  0  0  0
 22 24  1  0  0  0  0
 22109  1  0  0  0  0
 22110  1  0  0  0  0
 23 31  1  0  0  0  0
 23111  1  0  0  0  0
 25 24  1  0  0  0  0
 25112  1  0  0  0  0
 26 24  2  0  0  0  0
 26113  1  0  0  0  0
 27 25  2  0  0  0  0
 27114  1  0  0  0  0
 28 26  1  0  0  0  0
 28115  1  0  0  0  0
 29 27  1  0  0  0  0
 29 28  2  0  0  0  0
 29 30  1  0  0  0  0
 30116  1  0  0  0  0
 31 32  1  0  0  0  0
 31 35  2  0  0  0  0
 32 33  1  0  0  0  0
 32 34  1  0  0  0  0
 32117  1  1  0  0  0
 33 36  1  0  0  0  0
 33118  1  0  0  0  0
 34 95  1  0  0  0  0
 34119  1  0  0  0  0
 34120  1  0  0  0  0
 36 40  2  0  0  0  0
 37 49  1  0  0  0  0
 37121  1  6  0  0  0
 37 38  1  0  0  0  0
 37 36  1  0  0  0  0
 38 39  1  0  0  0  0
 38122  1  0  0  0  0
 38123  1  0  0  0  0
 39 41  2  0  0  0  0
 41124  1  0  0  0  0
 42 41  1  0  0  0  0
 42125  1  0  0  0  0
 43 39  1  0  0  0  0
 43 47  1  0  0  0  0
 44 42  1  0  0  0  0
 44 48  1  0  0  0  0
 44 43  2  0  0  0  0
 45126  1  0  0  0  0
 46 45  1  0  0  0  0
 46127  1  0  0  0  0
 47 45  2  0  0  0  0
 47128  1  0  0  0  0
 48 46  2  0  0  0  0
 48129  1  0  0  0  0
 49 50  1  0  0  0  0
 49130  1  0  0  0  0
 50 52  2  0  0  0  0
 51131  1  1  0  0  0
 51 53  1  0  0  0  0
 51 50  1  0  0  0  0
 53 54  1  0  0  0  0
 53132  1  0  0  0  0
 53133  1  0  0  0  0
 55 54  1  0  0  0  0
 56 54  2  0  0  0  0
 56134  1  0  0  0  0
 57 55  2  0  0  0  0
 57135  1  0  0  0  0
 58 56  1  0  0  0  0
 58 57  1  0  0  0  0
 58136  1  0  0  0  0
 59 51  1  0  0  0  0
 59 60  1  0  0  0  0
 59137  1  0  0  0  0
 60 61  2  0  0  0  0
 62 60  1  0  0  0  0
 62 63  1  0  0  0  0
 62138  1  1  0  0  0
 63139  1  0  0  0  0
 63140  1  0  0  0  0
 64 63  1  0  0  0  0
 64141  1  0  0  0  0
 64142  1  0  0  0  0
 65 64  1  0  0  0  0
 65 67  2  0  0  0  0
 66 62  1  0  0  0  0
 66 65  1  0  0  0  0
 66143  1  0  0  0  0
 68 69  1  0  0  0  0
 68144  1  0  0  0  0
 68145  1  0  0  0  0
 69 70  1  0  0  0  0
 69 71  1  0  0  0  0
 69146  1  0  0  0  0
 70147  1  0  0  0  0
 70148  1  0  0  0  0
 70149  1  0  0  0  0
 71150  1  0  0  0  0
 71151  1  0  0  0  0
 71152  1  0  0  0  0
 72153  1  0  0  0  0
 73 77  1  0  0  0  0
 73154  1  1  0  0  0
 73 74  1  0  0  0  0
 73 72  1  0  0  0  0
 74 75  1  0  0  0  0
 74 76  2  0  0  0  0
 75 84  1  0  0  0  0
 77 78  1  0  0  0  0
 77155  1  0  0  0  0
 77156  1  0  0  0  0
 78 79  1  0  0  0  0
 78157  1  0  0  0  0
 78158  1  0  0  0  0
 79 80  1  0  0  0  0
 79159  1  0  0  0  0
 79160  1  0  0  0  0
 80 81  1  0  0  0  0
 80161  1  0  0  0  0
 81 82  1  0  0  0  0
 81 83  2  0  0  0  0
 82162  1  0  0  0  0
 82163  1  0  0  0  0
 83164  1  0  0  0  0
 84165  1  0  0  0  0
 84166  1  0  0  0  0
 85 84  1  0  0  0  0
 85167  1  0  0  0  0
 85168  1  0  0  0  0
 86 75  1  0  0  0  0
 86169  1  6  0  0  0
 86 90  1  0  0  0  0
 87 85  1  0  0  0  0
 87 86  1  0  0  0  0
 87170  1  0  0  0  0
 87171  1  0  0  0  0
 89 92  1  0  0  0  0
 89172  1  0  0  0  0
 89173  1  0  0  0  0
 90 88  2  0  0  0  0
 91 89  1  0  0  0  0
 91 90  1  0  0  0  0
 91174  1  0  0  0  0
 92 93  1  0  0  0  0
 92 94  2  0  0  0  0
 93175  1  0  0  0  0
 93176  1  0  0  0  0
 95177  1  0  0  0  0
M  END
>  <DRUGBANK_ID>
DB06825

>  <COMMON_NAME>
Triptorelin

>  <CAS_NUMBER>
57773-63-4

>  <UNII>
9081Y98W2V

>  <SYNONYMS>
(6-D-Tryptophan)luteinizing hormone-releasing hormone; (D-Trp6)-GnRH; Luteinizing hormone-releasing factor (pig), 6-D-tryptophan; pGlu-His-Trp-Ser-Tyr-D-Trp-Leu-Arg-Pro-Gly-NH2	; Triptorelin; Triptorelina; Triptoreline; Triptorelinum

$$$$
