
 OpenBabel10282417163D

 35 37  0  0  0  0  0  0  0  0999 V2000
   -2.8679    1.0982    0.2504 C   0  0  0  0  0  0  0  0  0  0  0  0
   -3.6993    0.1275    0.8061 C   0  0  0  0  0  0  0  0  0  0  0  0
   -3.3415   -1.2234    0.7561 C   0  0  0  0  0  0  0  0  0  0  0  0
   -2.1689   -1.6155    0.1148 C   0  0  0  0  0  0  0  0  0  0  0  0
   -1.3648   -0.6554   -0.4943 C   0  0  0  0  0  0  0  0  0  0  0  0
   -1.7012    0.6925   -0.3888 C   0  0  0  0  0  0  0  0  0  0  0  0
    2.7026    1.1216    0.6375 C   0  0  0  0  0  0  0  0  0  0  0  0
    1.4934    0.7874   -0.0049 C   0  0  0  0  0  0  0  0  0  0  0  0
    1.3458   -0.5223   -0.5074 C   0  0  0  0  0  0  0  0  0  0  0  0
    2.3540   -1.4677   -0.3103 C   0  0  0  0  0  0  0  0  0  0  0  0
    3.5335   -1.1168    0.3139 C   0  0  0  0  0  0  0  0  0  0  0  0
    3.7354    0.1892    0.7682 C   0  0  0  0  0  0  0  0  0  0  0  0
    0.0046   -1.1647   -1.4781 S   0  0  0  0  0  0  0  0  0  0  0  0
   -0.7588    1.6985   -0.8935 C   0  0  0  0  0  0  0  0  0  0  0  0
    0.4739    1.9050   -0.0603 C   0  0  0  0  0  0  0  0  0  0  0  0
    5.0590    0.5753    1.3914 C   0  0  3  0  0  0  0  0  0  0  0  0
    5.2768   -0.2609    2.6525 C   0  0  0  0  0  0  0  0  0  0  0  0
    6.2112    0.3587    0.4077 C   0  0  0  0  0  0  0  0  0  0  0  0
    6.9063    1.4742    0.0894 O   0  0  0  0  0  0  0  0  0  0  0  0
    6.5161   -0.7285   -0.0670 O   0  0  0  0  0  0  0  0  0  0  0  0
   -1.0280    2.3560   -1.8958 O   0  0  0  0  0  0  0  0  0  0  0  0
   -3.1258    2.1520    0.3056 H   0  0  0  0  0  0  0  0  0  0  0  0
   -4.6319    0.4217    1.2791 H   0  0  0  0  0  0  0  0  0  0  0  0
   -3.9890   -1.9792    1.1928 H   0  0  0  0  0  0  0  0  0  0  0  0
   -1.8965   -2.6683    0.0731 H   0  0  0  0  0  0  0  0  0  0  0  0
    2.8383    2.1339    1.0193 H   0  0  0  0  0  0  0  0  0  0  0  0
    2.2428   -2.4886   -0.6713 H   0  0  0  0  0  0  0  0  0  0  0  0
    4.3090   -1.8748    0.4035 H   0  0  0  0  0  0  0  0  0  0  0  0
    0.9640    2.8148   -0.4320 H   0  0  0  0  0  0  0  0  0  0  0  0
    0.1426    2.1326    0.9642 H   0  0  0  0  0  0  0  0  0  0  0  0
    5.0284    1.6328    1.6838 H   0  0  0  0  0  0  0  0  0  0  0  0
    5.3334   -1.3318    2.4233 H   0  0  0  0  0  0  0  0  0  0  0  0
    6.2107    0.0137    3.1480 H   0  0  0  0  0  0  0  0  0  0  0  0
    4.4494   -0.1257    3.3597 H   0  0  0  0  0  0  0  0  0  0  0  0
    6.5968    2.3052    0.4916 H   0  0  0  0  0  0  0  0  0  0  0  0
  1  2  2  0  0  0  0
  1 22  1  0  0  0  0
  2  3  1  0  0  0  0
  2 23  1  0  0  0  0
  3  4  2  0  0  0  0
  3 24  1  0  0  0  0
  4  5  1  0  0  0  0
  4 25  1  0  0  0  0
  5  6  2  0  0  0  0
  5 13  1  0  0  0  0
  6  1  1  0  0  0  0
  6 14  1  0  0  0  0
  7  8  2  0  0  0  0
  7 26  1  0  0  0  0
  8  9  1  0  0  0  0
  9 10  2  0  0  0  0
  9 13  1  0  0  0  0
 10 11  1  0  0  0  0
 10 27  1  0  0  0  0
 11 12  2  0  0  0  0
 11 28  1  0  0  0  0
 12  7  1  0  0  0  0
 12 16  1  0  0  0  0
 14 15  1  0  0  0  0
 14 21  2  0  0  0  0
 15  8  1  0  0  0  0
 15 29  1  0  0  0  0
 15 30  1  0  0  0  0
 16 17  1  0  0  0  0
 16 18  1  0  0  0  0
 16 31  1  0  0  0  0
 17 32  1  0  0  0  0
 17 33  1  0  0  0  0
 17 34  1  0  0  0  0
 18 19  1  0  0  0  0
 18 20  2  0  0  0  0
 19 35  1  0  0  0  0
M  END
>  <DRUGBANK_ID>
DB06737

>  <COMMON_NAME>
Zaltoprofen

>  <CAS_NUMBER>
74711-43-6

>  <UNII>
H8635NG3PY

>  <SYNONYMS>
Zaltoprofen; Zaltoprofene; Zaltoprofeno; Zaltoprofenum

$$$$
