
 OpenBabel10282417123D

 13 13  0  0  0  0  0  0  0  0999 V2000
    2.1798    0.0138    0.0187 C   0  0  0  0  0  0  0  0  0  0  0  0
    0.7219   -0.0164   -0.0013 N   0  0  0  0  0  0  0  0  0  0  0  0
   -0.0656   -1.1608   -0.0050 C   0  0  0  0  0  0  0  0  0  0  0  0
   -1.3667   -0.7436    0.0060 C   0  0  0  0  0  0  0  0  0  0  0  0
   -1.3302    0.6311    0.0064 N   0  3  0  0  0  0  0  0  0  0  0  0
   -0.0680    1.0683   -0.0057 C   0  0  0  0  0  0  0  0  0  0  0  0
    2.5317   -0.4658    0.9360 H   0  0  0  0  0  0  0  0  0  0  0  0
    2.5631   -0.5208   -0.8543 H   0  0  0  0  0  0  0  0  0  0  0  0
    2.5299    1.0492   -0.0062 H   0  0  0  0  0  0  0  0  0  0  0  0
    0.4083   -2.1277   -0.0089 H   0  0  0  0  0  0  0  0  0  0  0  0
   -2.3193   -1.2431    0.0153 H   0  0  0  0  0  0  0  0  0  0  0  0
   -2.1445    1.2416    0.0160 H   0  0  0  0  0  0  0  0  0  0  0  0
    0.2525    2.1040   -0.0115 H   0  0  0  0  0  0  0  0  0  0  0  0
  1  2  1  0  0  0  0
  1  7  1  0  0  0  0
  1  8  1  0  0  0  0
  1  9  1  0  0  0  0
  2  3  1  0  0  0  0
  2  6  1  0  0  0  0
  3  4  2  0  0  0  0
  3 10  1  0  0  0  0
  4  5  1  0  0  0  0
  4 11  1  0  0  0  0
  5  6  2  0  0  0  0
  5 12  1  0  0  0  0
  6 13  1  0  0  0  0
M  CHG  1   5   1
M  END
>  <DRUGBANK_ID>
DB02671

>  <SECONDARY_ACCESSION_NUMBERS>
EXPT00077

>  <COMMON_NAME>
1-Methylimidazole

>  <CAS_NUMBER>
616-47-7

>  <UNII>
P4617QS63Y

$$$$
