
 OpenBabel10282417193D

 55 58  0  0  0  0  0  0  0  0999 V2000
   -1.3948   10.7474    7.8826 N   0  0  0  0  0  0  0  0  0  0  0  0
   -0.4525   11.5184    8.4457 C   0  0  0  0  0  0  0  0  0  0  0  0
    0.2750   11.2499    9.5370 N   0  0  0  0  0  0  0  0  0  0  0  0
   -0.0824   10.0772   10.0804 C   0  0  0  0  0  0  0  0  0  0  0  0
   -1.0637    9.2021    9.6391 C   0  0  0  0  0  0  0  0  0  0  0  0
   -1.7278    9.5605    8.4641 C   0  0  0  0  0  0  0  0  0  0  0  0
    0.5011    9.5326   11.1884 N   0  0  0  0  0  0  0  0  0  0  0  0
   -0.0974    8.3355   11.4868 C   0  0  0  0  0  0  0  0  0  0  0  0
   -1.0583    8.0940   10.5283 C   0  0  0  0  0  0  0  0  0  0  0  0
   -2.5710    8.7500    7.7534 N   0  0  0  0  0  0  0  0  0  0  0  0
   -2.0092    8.3973    6.4813 C   0  0  0  0  0  0  0  0  0  0  0  0
   -3.1218    8.5783    5.4901 C   0  0  0  0  0  0  0  0  0  0  0  0
   -4.3618    7.6730    5.8269 C   0  0  0  0  0  0  0  0  0  0  0  0
   -4.7926    7.9906    7.2627 C   0  0  0  0  0  0  0  0  0  0  0  0
   -3.6224    7.8790    8.2450 C   0  0  0  0  0  0  0  0  0  0  0  0
   -5.6063    7.9144    5.0426 N   0  0  0  0  0  0  0  0  0  0  0  0
   -3.9912    6.1668    5.5963 C   0  0  0  0  0  0  0  0  0  0  0  0
   -4.0356    5.3431    6.4956 O   0  0  0  0  0  0  0  0  0  0  0  0
   -3.6366    5.7201    4.3426 N   0  0  0  0  0  0  0  0  0  0  0  0
   -3.3662    6.4098    3.0633 C   0  0  2  0  0  0  0  0  0  0  0  0
   -1.8686    6.5120    2.7924 C   0  0  0  0  0  0  0  0  0  0  0  0
   -0.8937    6.2911    3.7794 C   0  0  0  0  0  0  0  0  0  0  0  0
    0.4638    6.4742    3.5035 C   0  0  0  0  0  0  0  0  0  0  0  0
    0.8656    6.8649    2.2307 C   0  0  0  0  0  0  0  0  0  0  0  0
   -0.0744    7.0482    1.2265 C   0  0  0  0  0  0  0  0  0  0  0  0
   -1.4237    6.8408    1.5011 C   0  0  0  0  0  0  0  0  0  0  0  0
    2.5312    7.1073    1.8899 Cl  0  0  0  0  0  0  0  0  0  0  0  0
   -4.1895    7.6954    2.8305 C   0  0  0  0  0  0  0  0  0  0  0  0
   -3.8911    8.6819    1.7449 C   0  0  0  0  0  0  0  0  0  0  0  0
   -4.4049    8.1740    0.5402 O   0  0  0  0  0  0  0  0  0  0  0  0
   -0.2579   12.4647    7.9508 H   0  0  0  0  0  0  0  0  0  0  0  0
    1.2582    9.9725   11.6900 H   0  0  0  0  0  0  0  0  0  0  0  0
    0.2159    7.7581   12.3447 H   0  0  0  0  0  0  0  0  0  0  0  0
   -1.6930    7.2201   10.4691 H   0  0  0  0  0  0  0  0  0  0  0  0
   -1.1589    9.0172    6.1604 H   0  0  0  0  0  0  0  0  0  0  0  0
   -1.6383    7.3661    6.4891 H   0  0  0  0  0  0  0  0  0  0  0  0
   -3.4325    9.6313    5.4434 H   0  0  0  0  0  0  0  0  0  0  0  0
   -2.5901    8.3715    4.5642 H   0  0  0  0  0  0  0  0  0  0  0  0
   -5.1589    9.0311    7.2769 H   0  0  0  0  0  0  0  0  0  0  0  0
   -5.6312    7.3554    7.5697 H   0  0  0  0  0  0  0  0  0  0  0  0
   -3.2778    6.8416    8.2977 H   0  0  0  0  0  0  0  0  0  0  0  0
   -3.9818    8.1755    9.2322 H   0  0  0  0  0  0  0  0  0  0  0  0
   -6.3678    7.2874    5.2929 H   0  0  0  0  0  0  0  0  0  0  0  0
   -5.9111    8.8824    5.0506 H   0  0  0  0  0  0  0  0  0  0  0  0
   -3.3777    4.7391    4.3706 H   0  0  0  0  0  0  0  0  0  0  0  0
   -3.7443    5.6894    2.3268 H   0  0  0  0  0  0  0  0  0  0  0  0
   -1.1680    5.9821    4.7847 H   0  0  0  0  0  0  0  0  0  0  0  0
    1.1973    6.3165    4.2895 H   0  0  0  0  0  0  0  0  0  0  0  0
    0.2229    7.3602    0.2294 H   0  0  0  0  0  0  0  0  0  0  0  0
   -2.1270    6.9863    0.6858 H   0  0  0  0  0  0  0  0  0  0  0  0
   -5.2450    7.4093    2.7947 H   0  0  0  0  0  0  0  0  0  0  0  0
   -4.0847    8.3924    3.6261 H   0  0  0  0  0  0  0  0  0  0  0  0
   -4.3895    9.6314    1.9937 H   0  0  0  0  0  0  0  0  0  0  0  0
   -2.8289    8.9280    1.6784 H   0  0  0  0  0  0  0  0  0  0  0  0
   -4.3217    7.2070    0.5868 H   0  0  0  0  0  0  0  0  0  0  0  0
  1  2  2  0  0  0  0
  1  6  1  0  0  0  0
  2  3  1  0  0  0  0
  2 31  1  0  0  0  0
  3  4  2  0  0  0  0
  4  5  1  0  0  0  0
  4  7  1  0  0  0  0
  5  6  2  0  0  0  0
  5  9  1  0  0  0  0
  6 10  1  0  0  0  0
  7  8  1  0  0  0  0
  7 32  1  0  0  0  0
  8  9  2  0  0  0  0
  8 33  1  0  0  0  0
  9 34  1  0  0  0  0
 10 11  1  0  0  0  0
 10 15  1  0  0  0  0
 11 12  1  0  0  0  0
 11 35  1  0  0  0  0
 11 36  1  0  0  0  0
 12 13  1  0  0  0  0
 12 37  1  0  0  0  0
 12 38  1  0  0  0  0
 13 14  1  0  0  0  0
 13 16  1  0  0  0  0
 13 17  1  0  0  0  0
 14 15  1  0  0  0  0
 14 39  1  0  0  0  0
 14 40  1  0  0  0  0
 15 41  1  0  0  0  0
 15 42  1  0  0  0  0
 16 43  1  0  0  0  0
 16 44  1  0  0  0  0
 17 18  2  0  0  0  0
 17 19  1  0  0  0  0
 19 45  1  0  0  0  0
 20 28  1  0  0  0  0
 20 46  1  6  0  0  0
 20 21  1  0  0  0  0
 20 19  1  0  0  0  0
 21 22  2  0  0  0  0
 21 26  1  0  0  0  0
 22 23  1  0  0  0  0
 22 47  1  0  0  0  0
 23 24  2  0  0  0  0
 23 48  1  0  0  0  0
 24 25  1  0  0  0  0
 24 27  1  0  0  0  0
 25 26  2  0  0  0  0
 25 49  1  0  0  0  0
 26 50  1  0  0  0  0
 28 29  1  0  0  0  0
 28 51  1  0  0  0  0
 28 52  1  0  0  0  0
 29 30  1  0  0  0  0
 29 53  1  0  0  0  0
 29 54  1  0  0  0  0
 30 55  1  0  0  0  0
M  END
>  <DRUGBANK_ID>
DB12218

>  <COMMON_NAME>
Capivasertib

>  <CAS_NUMBER>
1143532-39-1

>  <UNII>
WFR23M21IE

>  <SYNONYMS>
Capivasertib; Capivasertibum

$$$$
