
 OpenBabel10282417133D

 23 23  0  0  0  0  0  0  0  0999 V2000
    1.0226   -0.1717    0.0631 N   0  0  0  0  0  0  0  0  0  0  0  0
    0.5587    0.9074    0.9348 C   0  0  0  0  0  0  0  0  0  0  0  0
    1.0388    2.3056    0.5008 C   0  0  0  0  0  0  0  0  0  0  0  0
    0.6270    2.6617   -0.8768 N   0  0  0  0  0  0  0  0  0  0  0  0
    1.6759    2.3608   -1.8844 C   0  0  0  0  0  0  0  0  0  0  0  0
    2.9329    3.2378   -1.7520 C   0  0  0  0  0  0  0  0  0  0  0  0
    2.6050    4.6306   -1.8099 O   0  0  0  0  0  0  0  0  0  0  0  0
    1.6275    4.9697   -0.8167 C   0  0  0  0  0  0  0  0  0  0  0  0
    0.3559    4.1183   -0.9722 C   0  0  0  0  0  0  0  0  0  0  0  0
    0.6411    0.0206   -0.8634 H   0  0  0  0  0  0  0  0  0  0  0  0
    2.0359   -0.0972   -0.0411 H   0  0  0  0  0  0  0  0  0  0  0  0
   -0.5370    0.8908    0.9616 H   0  0  0  0  0  0  0  0  0  0  0  0
    0.9105    0.7144    1.9532 H   0  0  0  0  0  0  0  0  0  0  0  0
    0.6094    3.0144    1.2214 H   0  0  0  0  0  0  0  0  0  0  0  0
    2.1235    2.3676    0.6399 H   0  0  0  0  0  0  0  0  0  0  0  0
    1.2344    2.5287   -2.8764 H   0  0  0  0  0  0  0  0  0  0  0  0
    1.9640    1.3071   -1.8693 H   0  0  0  0  0  0  0  0  0  0  0  0
    3.4758    3.0355   -0.8223 H   0  0  0  0  0  0  0  0  0  0  0  0
    3.6221    3.0177   -2.5730 H   0  0  0  0  0  0  0  0  0  0  0  0
    1.3828    6.0286   -0.9396 H   0  0  0  0  0  0  0  0  0  0  0  0
    2.0700    4.8490    0.1792 H   0  0  0  0  0  0  0  0  0  0  0  0
   -0.0913    4.3164   -1.9556 H   0  0  0  0  0  0  0  0  0  0  0  0
   -0.3987    4.4141   -0.2333 H   0  0  0  0  0  0  0  0  0  0  0  0
  1  2  1  0  0  0  0
  1 10  1  0  0  0  0
  1 11  1  0  0  0  0
  2  3  1  0  0  0  0
  2 12  1  0  0  0  0
  2 13  1  0  0  0  0
  3  4  1  0  0  0  0
  3 14  1  0  0  0  0
  3 15  1  0  0  0  0
  4  5  1  0  0  0  0
  4  9  1  0  0  0  0
  5  6  1  0  0  0  0
  5 16  1  0  0  0  0
  5 17  1  0  0  0  0
  6  7  1  0  0  0  0
  6 18  1  0  0  0  0
  6 19  1  0  0  0  0
  7  8  1  0  0  0  0
  8  9  1  0  0  0  0
  8 20  1  0  0  0  0
  8 21  1  0  0  0  0
  9 22  1  0  0  0  0
  9 23  1  0  0  0  0
M  END
>  <DRUGBANK_ID>
DB03096

>  <SECONDARY_ACCESSION_NUMBERS>
EXPT01341

>  <COMMON_NAME>
2-Morpholinoethylamine

>  <CAS_NUMBER>
2038-03-1

>  <UNII>
T92F2H779P

>  <SYNONYMS>
2-Morpholinoethanamine; 4-Morpholineethanamine; beta-Aminoaethyl-morpholin; N-2-Aminoethylmorpholine; N-Aminoethylmorpholine

$$$$
