
 OpenBabel10282417143D

 29 31  0  0  0  0  0  0  0  0999 V2000
    0.2180   -1.1910   -0.0580 C   0  0  0  0  0  0  0  0  0  0  0  0
   -0.4870    0.0150   -0.0720 C   0  0  0  0  0  0  0  0  0  0  0  0
    0.2330    1.2040   -0.0470 C   0  0  0  0  0  0  0  0  0  0  0  0
    1.6060    1.1960    0.0140 C   0  0  0  0  0  0  0  0  0  0  0  0
    2.3470   -0.0150    0.0730 C   0  0  0  0  0  0  0  0  0  0  0  0
    1.5910   -1.2060    0.0220 C   0  0  0  0  0  0  0  0  0  0  0  0
   -1.9250    0.0100   -0.0200 C   0  0  0  0  0  0  0  0  0  0  0  0
   -3.0710   -0.0110    0.0770 N   0  0  0  0  0  0  0  0  0  0  0  0
    3.7631   -0.0264    0.1770 O   0  0  0  0  0  0  0  0  0  0  0  0
    4.4610   -1.2618    0.2330 C   0  0  0  0  0  0  0  0  0  0  0  0
    5.2366   -1.5503    1.3322 C   0  0  0  0  0  0  0  0  0  0  0  0
    5.9126   -2.7688    1.3635 C   0  0  0  0  0  0  0  0  0  0  0  0
    5.8190   -3.6845    0.3132 C   0  0  0  0  0  0  0  0  0  0  0  0
    5.0228   -3.3731   -0.7996 C   0  0  0  0  0  0  0  0  0  0  0  0
    4.3455   -2.1582   -0.8276 C   0  0  0  0  0  0  0  0  0  0  0  0
    6.7768   -3.3065    2.4738 C   0  0  0  0  0  0  0  0  0  0  0  0
    7.1951   -4.6253    2.0318 O   0  0  0  0  0  0  0  0  0  0  0  0
    6.6741   -4.9008    0.7742 B   0  0  0  0  0  0  0  0  0  0  0  0
    6.9486   -6.0907    0.2034 O   0  0  0  0  0  0  0  0  0  0  0  0
   -0.3176   -2.1158   -0.1102 H   0  0  0  0  0  0  0  0  0  0  0  0
   -0.2887    2.1378   -0.0756 H   0  0  0  0  0  0  0  0  0  0  0  0
    2.1317    2.1279    0.0172 H   0  0  0  0  0  0  0  0  0  0  0  0
    2.1003   -2.1467    0.0463 H   0  0  0  0  0  0  0  0  0  0  0  0
    5.3187   -0.8566    2.1427 H   0  0  0  0  0  0  0  0  0  0  0  0
    4.9378   -4.0604   -1.6152 H   0  0  0  0  0  0  0  0  0  0  0  0
    3.7321   -1.9105   -1.6686 H   0  0  0  0  0  0  0  0  0  0  0  0
    6.2502   -3.3470    3.4044 H   0  0  0  0  0  0  0  0  0  0  0  0
    7.6273   -2.6752    2.6257 H   0  0  0  0  0  0  0  0  0  0  0  0
    7.5432   -6.6211    0.8077 H   0  0  0  0  0  0  0  0  0  0  0  0
  1  2  2  0  0  0  0
  1  6  1  0  0  0  0
  1 20  1  0  0  0  0
  2  3  1  0  0  0  0
  2  7  1  0  0  0  0
  3  4  2  0  0  0  0
  3 21  1  0  0  0  0
  4  5  1  0  0  0  0
  4 22  1  0  0  0  0
  5  6  2  0  0  0  0
  5  9  1  0  0  0  0
  6 23  1  0  0  0  0
  7  8  3  0  0  0  0
  9 10  1  0  0  0  0
 10 11  2  0  0  0  0
 10 15  1  0  0  0  0
 11 12  1  0  0  0  0
 11 24  1  0  0  0  0
 12 16  1  0  0  0  0
 12 13  2  0  0  0  0
 13 14  1  0  0  0  0
 13 18  1  0  0  0  0
 14 15  2  0  0  0  0
 14 25  1  0  0  0  0
 15 26  1  0  0  0  0
 16 17  1  0  0  0  0
 16 27  1  0  0  0  0
 16 28  1  0  0  0  0
 17 18  1  0  0  0  0
 18 19  1  0  0  0  0
 19 29  1  0  0  0  0
M  END
>  <DRUGBANK_ID>
DB05219

>  <COMMON_NAME>
Crisaborole

>  <CAS_NUMBER>
906673-24-3

>  <UNII>
Q2R47HGR7P

>  <SYNONYMS>
Crisaborole

$$$$
