
 OpenBabel10282417193D

 54 57  0  0  0  0  0  0  0  0999 V2000
    2.3344    0.0402    0.7654 C   0  0  0  0  0  0  0  0  0  0  0  0
    0.9671   -0.0515    0.1018 C   0  0  0  0  0  0  0  0  0  0  0  0
    0.2019    1.1885    0.4866 C   0  0  0  0  0  0  0  0  0  0  0  0
   -1.1562    1.1676   -0.1400 C   0  0  0  0  0  0  0  0  0  0  0  0
   -1.9679    0.0338    0.2320 N   0  0  0  0  0  0  0  0  0  0  0  0
   -1.2882   -1.2498   -0.0421 C   0  0  0  0  0  0  0  0  0  0  0  0
    0.1426   -1.2718    0.5465 C   0  0  0  0  0  0  0  0  0  0  0  0
   -3.2550    0.0826    0.7339 C   0  0  0  0  0  0  0  0  0  0  0  0
   -3.8127   -0.9567    1.1318 O   0  0  0  0  0  0  0  0  0  0  0  0
   -3.9623    1.2492    0.9085 N   0  0  0  0  0  0  0  0  0  0  0  0
   -3.6196    2.5427    0.5951 C   0  0  0  0  0  0  0  0  0  0  0  0
   -3.4947    3.5444    1.4327 N   0  0  0  0  0  0  0  0  0  0  0  0
   -2.7963    4.5969    0.7984 C   0  0  0  0  0  0  0  0  0  0  0  0
   -2.3752    5.8244    1.3860 C   0  0  0  0  0  0  0  0  0  0  0  0
   -1.5976    6.6968    0.6100 C   0  0  0  0  0  0  0  0  0  0  0  0
   -1.1597    6.3369   -0.6673 C   0  0  0  0  0  0  0  0  0  0  0  0
   -1.5451    5.1392   -1.2916 C   0  0  0  0  0  0  0  0  0  0  0  0
   -2.4722    4.3521   -0.5490 C   0  0  0  0  0  0  0  0  0  0  0  0
   -3.4292    2.9703   -1.0528 S   0  0  0  0  0  0  0  0  0  0  0  0
   -1.0432    4.7869   -2.5294 N   0  0  0  0  0  0  0  0  0  0  0  0
    0.3864    4.8353   -2.8858 C   0  0  0  0  0  0  0  0  0  0  0  0
    0.6143    5.7917   -4.0690 C   0  0  0  0  0  0  0  0  0  0  0  0
   -0.2309    5.4608   -5.1847 O   0  0  0  0  0  0  0  0  0  0  0  0
   -1.6143    5.5249   -4.7962 C   0  0  0  0  0  0  0  0  0  0  0  0
   -1.9331    4.5320   -3.6660 C   0  0  0  0  0  0  0  0  0  0  0  0
   -2.7697    6.0952    2.6755 O   0  0  0  0  0  0  0  0  0  0  0  0
   -2.4744    7.3891    3.1946 C   0  0  0  0  0  0  0  0  0  0  0  0
    1.1531   -0.1017   -1.3141 O   0  0  0  0  0  0  0  0  0  0  0  0
    2.2427    0.1182    1.8536 H   0  0  0  0  0  0  0  0  0  0  0  0
    2.9541   -0.8212    0.5118 H   0  0  0  0  0  0  0  0  0  0  0  0
    2.8675    0.9334    0.4107 H   0  0  0  0  0  0  0  0  0  0  0  0
    0.0767    1.2409    1.5776 H   0  0  0  0  0  0  0  0  0  0  0  0
    0.7034    2.1089    0.1659 H   0  0  0  0  0  0  0  0  0  0  0  0
   -1.5387    2.0621    0.2918 H   0  0  0  0  0  0  0  0  0  0  0  0
   -1.1240    1.2231   -1.2338 H   0  0  0  0  0  0  0  0  0  0  0  0
   -1.8610   -2.1049    0.3327 H   0  0  0  0  0  0  0  0  0  0  0  0
   -1.2335   -1.3578   -1.1340 H   0  0  0  0  0  0  0  0  0  0  0  0
    0.6496   -2.1935    0.2418 H   0  0  0  0  0  0  0  0  0  0  0  0
    0.0653   -1.2741    1.6413 H   0  0  0  0  0  0  0  0  0  0  0  0
   -4.6360    1.1617    1.6563 H   0  0  0  0  0  0  0  0  0  0  0  0
   -1.3036    7.6749    0.9803 H   0  0  0  0  0  0  0  0  0  0  0  0
   -0.5481    7.0518   -1.2168 H   0  0  0  0  0  0  0  0  0  0  0  0
    0.6770    3.8240   -3.2030 H   0  0  0  0  0  0  0  0  0  0  0  0
    1.0316    5.1033   -2.0422 H   0  0  0  0  0  0  0  0  0  0  0  0
    0.4238    6.8301   -3.7765 H   0  0  0  0  0  0  0  0  0  0  0  0
    1.6520    5.7263   -4.4142 H   0  0  0  0  0  0  0  0  0  0  0  0
   -2.2197    5.2909   -5.6768 H   0  0  0  0  0  0  0  0  0  0  0  0
   -1.8455    6.5523   -4.4904 H   0  0  0  0  0  0  0  0  0  0  0  0
   -1.7495    3.5093   -4.0156 H   0  0  0  0  0  0  0  0  0  0  0  0
   -2.9891    4.6276   -3.4004 H   0  0  0  0  0  0  0  0  0  0  0  0
   -1.3932    7.5414    3.2825 H   0  0  0  0  0  0  0  0  0  0  0  0
   -2.9337    8.1782    2.5882 H   0  0  0  0  0  0  0  0  0  0  0  0
   -2.8995    7.4596    4.2008 H   0  0  0  0  0  0  0  0  0  0  0  0
    1.6224    0.7030   -1.5955 H   0  0  0  0  0  0  0  0  0  0  0  0
  1  2  1  0  0  0  0
  1 29  1  0  0  0  0
  1 30  1  0  0  0  0
  1 31  1  0  0  0  0
  2  3  1  0  0  0  0
  2  7  1  0  0  0  0
  2 28  1  0  0  0  0
  3  4  1  0  0  0  0
  3 32  1  0  0  0  0
  3 33  1  0  0  0  0
  4  5  1  0  0  0  0
  4 34  1  0  0  0  0
  4 35  1  0  0  0  0
  5  6  1  0  0  0  0
  5  8  1  0  0  0  0
  6  7  1  0  0  0  0
  6 36  1  0  0  0  0
  6 37  1  0  0  0  0
  7 38  1  0  0  0  0
  7 39  1  0  0  0  0
  8  9  2  0  0  0  0
  8 10  1  0  0  0  0
 10 11  1  0  0  0  0
 10 40  1  0  0  0  0
 11 12  2  0  0  0  0
 11 19  1  0  0  0  0
 12 13  1  0  0  0  0
 13 14  2  0  0  0  0
 13 18  1  0  0  0  0
 14 15  1  0  0  0  0
 14 26  1  0  0  0  0
 15 16  2  0  0  0  0
 15 41  1  0  0  0  0
 16 17  1  0  0  0  0
 16 42  1  0  0  0  0
 17 18  2  0  0  0  0
 17 20  1  0  0  0  0
 18 19  1  0  0  0  0
 20 21  1  0  0  0  0
 20 25  1  0  0  0  0
 21 22  1  0  0  0  0
 21 43  1  0  0  0  0
 21 44  1  0  0  0  0
 22 23  1  0  0  0  0
 22 45  1  0  0  0  0
 22 46  1  0  0  0  0
 23 24  1  0  0  0  0
 24 25  1  0  0  0  0
 24 47  1  0  0  0  0
 24 48  1  0  0  0  0
 25 49  1  0  0  0  0
 25 50  1  0  0  0  0
 26 27  1  0  0  0  0
 27 51  1  0  0  0  0
 27 52  1  0  0  0  0
 27 53  1  0  0  0  0
 28 54  1  0  0  0  0
M  END
>  <DRUGBANK_ID>
DB12203

>  <COMMON_NAME>
Tozadenant

>  <CAS_NUMBER>
870070-55-6

>  <UNII>
D9K857J81I

>  <SYNONYMS>
Tozadenant

$$$$
