1523
 OpenBabel10282417113D

 50 52  0  0  0  0  0  0  0  0999 V2000
   -2.8486    0.1369   -0.5861 Cl  0  0  0  0  0  0  0  0  0  0  0  0
    6.6243   -1.1231    7.2007 O   0  5  0  0  0  0  0  0  0  0  0  0
    6.0673   -3.2323    7.4340 O   0  0  0  0  0  0  0  0  0  0  0  0
    4.7735   -2.2179    1.4436 N   0  0  0  0  0  0  0  0  0  0  0  0
    2.7785   -1.2553   -0.5526 N   0  0  0  0  0  0  0  0  0  0  0  0
    5.3460   -0.1415    2.2737 N   0  0  0  0  0  0  0  0  0  0  0  0
    6.1271   -2.1778    6.7850 N   0  3  0  0  0  0  0  0  0  0  0  0
    3.9107   -3.1628    0.6944 C   0  0  0  0  0  0  0  0  0  0  0  0
    2.5133   -2.7975    0.4351 C   0  0  0  0  0  0  0  0  0  0  0  0
    5.0876   -0.7190    1.0594 C   0  0  0  0  0  0  0  0  0  0  0  0
    4.7715   -2.3167    2.8497 C   0  0  0  0  0  0  0  0  0  0  0  0
    5.2521   -1.0985    3.3057 C   0  0  0  0  0  0  0  0  0  0  0  0
    4.1360    0.2872   -0.3056 C   0  0  0  0  0  0  0  0  0  0  0  0
    1.0500   -0.3701   -1.2778 C   0  0  0  0  0  0  0  0  0  0  0  0
    2.9221   -0.3911    1.2603 C   0  0  0  0  0  0  0  0  0  0  0  0
    4.4891   -3.4252    3.6641 C   0  0  0  0  0  0  0  0  0  0  0  0
    5.6290   -1.0091    4.6566 C   0  0  0  0  0  0  0  0  0  0  0  0
    2.0932    0.4434   -0.1075 C   0  0  0  0  0  0  0  0  0  0  0  0
    0.0945    0.0490    0.6832 C   0  0  0  0  0  0  0  0  0  0  0  0
    2.1448   -0.0346    2.4599 C   0  0  0  0  0  0  0  0  0  0  0  0
    5.5660   -2.1836    5.4343 C   0  0  0  0  0  0  0  0  0  0  0  0
    4.9988   -3.3702    4.9512 C   0  0  0  0  0  0  0  0  0  0  0  0
    1.4594    1.7550   -0.3734 C   0  0  0  0  0  0  0  0  0  0  0  0
    1.0959   -1.3120    0.1225 C   0  0  0  0  0  0  0  0  0  0  0  0
   -0.1810    1.5693   -0.7425 C   0  0  0  0  0  0  0  0  0  0  0  0
   -0.5267   -1.5217   -0.4660 C   0  0  0  0  0  0  0  0  0  0  0  0
   -1.1403    0.0336   -0.9507 C   0  0  0  0  0  0  0  0  0  0  0  0
    4.3167   -3.1975   -0.2915 H   0  0  0  0  0  0  0  0  0  0  0  0
    3.7329   -4.1055    1.2164 H   0  0  0  0  0  0  0  0  0  0  0  0
    1.8644   -3.5426   -0.0955 H   0  0  0  0  0  0  0  0  0  0  0  0
    1.8960   -2.6359    1.4000 H   0  0  0  0  0  0  0  0  0  0  0  0
    4.5467   -0.3102   -1.1632 H   0  0  0  0  0  0  0  0  0  0  0  0
    4.6405    1.2670   -0.1849 H   0  0  0  0  0  0  0  0  0  0  0  0
    1.2017    0.4721   -2.0142 H   0  0  0  0  0  0  0  0  0  0  0  0
    0.6759   -1.1381   -2.0490 H   0  0  0  0  0  0  0  0  0  0  0  0
    3.2960   -1.2594    1.4389 H   0  0  0  0  0  0  0  0  0  0  0  0
    3.3957    0.7502    1.2558 H   0  0  0  0  0  0  0  0  0  0  0  0
    4.0730   -4.3499    3.2726 H   0  0  0  0  0  0  0  0  0  0  0  0
    6.0755   -0.0957    5.0317 H   0  0  0  0  0  0  0  0  0  0  0  0
    0.2238    0.9168    1.3104 H   0  0  0  0  0  0  0  0  0  0  0  0
   -1.0066    0.0142    0.9820 H   0  0  0  0  0  0  0  0  0  0  0  0
    0.0223   -0.9457    1.5093 H   0  0  0  0  0  0  0  0  0  0  0  0
    1.7954   -0.9793    2.8100 H   0  0  0  0  0  0  0  0  0  0  0  0
    2.7690    0.6165    3.0721 H   0  0  0  0  0  0  0  0  0  0  0  0
    1.4454    0.7316    2.2587 H   0  0  0  0  0  0  0  0  0  0  0  0
    4.9845   -4.2831    5.5430 H   0  0  0  0  0  0  0  0  0  0  0  0
    2.0469    2.6215   -0.0609 H   0  0  0  0  0  0  0  0  0  0  0  0
    1.3520   -2.1985   -0.8971 H   0  0  0  0  0  0  0  0  0  0  0  0
   -0.6697    2.3993   -0.1790 H   0  0  0  0  0  0  0  0  0  0  0  0
   -0.8782   -2.5140   -0.1752 H   0  0  0  0  0  0  0  0  0  0  0  0
  1 27  1  0  0  0  0
  2  7  1  0  0  0  0
  3  7  2  0  0  0  0
  4  8  1  0  0  0  0
  4 10  1  0  0  0  0
  4 11  1  0  0  0  0
  5  9  1  0  0  0  0
  5 14  1  0  0  0  0
  5 15  1  0  0  0  0
  6 10  2  0  0  0  0
  6 12  1  0  0  0  0
  7 21  1  0  0  0  0
  8  9  1  0  0  0  0
  8 28  1  0  0  0  0
  8 29  1  0  0  0  0
  9 30  1  0  0  0  0
  9 31  1  0  0  0  0
 10 13  1  0  0  0  0
 11 12  2  0  0  0  0
 11 16  1  0  0  0  0
 12 17  1  0  0  0  0
 13 18  1  0  0  0  0
 13 32  1  0  0  0  0
 13 33  1  0  0  0  0
 14 19  1  0  0  0  0
 14 34  1  0  0  0  0
 14 35  1  0  0  0  0
 15 20  1  0  0  0  0
 15 36  1  0  0  0  0
 15 37  1  0  0  0  0
 16 22  2  0  0  0  0
 16 38  1  0  0  0  0
 17 21  2  0  0  0  0
 17 39  1  0  0  0  0
 18 23  2  0  0  0  0
 18 24  1  0  0  0  0
 19 40  1  0  0  0  0
 19 41  1  0  0  0  0
 19 42  1  0  0  0  0
 20 43  1  0  0  0  0
 20 44  1  0  0  0  0
 20 45  1  0  0  0  0
 21 22  1  0  0  0  0
 22 46  1  0  0  0  0
 23 25  1  0  0  0  0
 23 47  1  0  0  0  0
 24 26  2  0  0  0  0
 24 48  1  0  0  0  0
 25 27  2  0  0  0  0
 25 49  1  0  0  0  0
 26 27  1  0  0  0  0
 26 50  1  0  0  0  0
M  CHG  2   2  -1   7   1
M  END
>  <DRUGBANK_ID>
DB01523

>  <COMMON_NAME>
Clonitazene

>  <CAS_NUMBER>
3861-76-5

>  <UNII>
S90R21A2V2

>  <SYNONYMS>
Clonitazene

$$$$
