
 OpenBabel10282417113D

 64 67  0  0  0  0  0  0  0  0999 V2000
    2.4759   -0.6771    0.4344 C   0  0  1  0  0  0  0  0  0  0  0  0
    1.0533   -1.3551    0.5852 C   0  0  2  0  0  0  0  0  0  0  0  0
    2.5714    0.5681   -0.4897 C   0  0  0  0  0  0  0  0  0  0  0  0
    3.5910   -1.5255   -0.2688 C   0  0  0  0  0  0  0  0  0  0  0  0
   -0.1178   -0.9366   -0.2630 C   0  0  1  0  0  0  0  0  0  0  0  0
    1.4243    1.4935   -0.3743 C   0  0  1  0  0  0  0  0  0  0  0  0
    0.0148    0.6513   -0.4972 C   0  0  2  0  0  0  0  0  0  0  0  0
   -1.5219   -1.4788   -0.6515 C   0  0  0  0  0  0  0  0  0  0  0  0
    1.8792    2.4584    0.5842 O   0  0  0  0  0  0  0  0  0  0  0  0
   -1.2433    1.5636   -0.1823 C   0  0  2  0  0  0  0  0  0  0  0  0
    0.0148    0.4817   -1.9175 F   0  0  0  0  0  0  0  0  0  0  0  0
   -2.6242   -0.6448    0.0864 C   0  0  0  0  0  0  0  0  0  0  0  0
   -2.5639    0.8248   -0.2482 C   0  0  0  0  0  0  0  0  0  0  0  0
   -1.2090    2.6441   -1.2371 C   0  0  0  0  0  0  0  0  0  0  0  0
   -1.2958    2.4868    1.0997 C   0  0  0  0  0  0  0  0  0  0  0  0
   -3.6663    1.5251   -0.5776 C   0  0  0  0  0  0  0  0  0  0  0  0
   -2.2508    3.4556   -1.4320 C   0  0  0  0  0  0  0  0  0  0  0  0
   -3.5691    2.9571   -0.9925 C   0  0  0  0  0  0  0  0  0  0  0  0
   -4.5602    3.6812   -1.0513 O   0  0  0  0  0  0  0  0  0  0  0  0
    1.1918   -2.4501    0.5341 H   0  0  0  0  0  0  0  0  0  0  0  0
   -0.6136   -1.3952    0.5966 H   0  0  0  0  0  0  0  0  0  0  0  0
    0.4171   -0.7677    1.9819 C   0  0  0  0  0  0  0  0  0  0  0  0
    1.4289    0.0403    2.6786 C   0  0  1  0  0  0  0  0  0  0  0  0
    2.7199   -0.5329    2.0178 C   0  0  2  0  0  0  0  0  0  0  0  0
    4.0658    0.0651    2.4093 C   0  0  0  0  0  0  0  0  0  0  0  0
    4.0495    1.3105    3.2444 C   0  0  0  0  0  0  0  0  0  0  0  0
    5.1272   -0.4598    2.0684 O   0  0  0  0  0  0  0  0  0  0  0  0
    0.9751    1.4802    2.6912 C   0  0  0  0  0  0  0  0  0  0  0  0
    5.0487    1.1447    4.6812 Cl  0  0  0  0  0  0  0  0  0  0  0  0
    2.8158   -1.9654    2.4635 O   0  0  0  0  0  0  0  0  0  0  0  0
    2.6401   -2.4452    3.7089 C   0  0  0  0  0  0  0  0  0  0  0  0
    2.5817   -1.4747    4.8476 C   0  0  0  0  0  0  0  0  0  0  0  0
    1.2302   -1.4842    5.5556 C   0  0  0  0  0  0  0  0  0  0  0  0
    2.5124   -3.6736    3.9046 O   0  0  0  0  0  0  0  0  0  0  0  0
    3.5248    1.0835   -0.2836 H   0  0  0  0  0  0  0  0  0  0  0  0
    2.6214    0.3331   -1.5627 H   0  0  0  0  0  0  0  0  0  0  0  0
    4.5682   -1.0382   -0.1250 H   0  0  0  0  0  0  0  0  0  0  0  0
    3.6724   -2.5539    0.0703 H   0  0  0  0  0  0  0  0  0  0  0  0
    3.4851   -1.5423   -1.3664 H   0  0  0  0  0  0  0  0  0  0  0  0
    1.3732    2.1802   -1.2201 H   0  0  0  0  0  0  0  0  0  0  0  0
   -1.6295   -1.4682   -1.7290 H   0  0  0  0  0  0  0  0  0  0  0  0
   -1.6626   -2.5414   -0.3446 H   0  0  0  0  0  0  0  0  0  0  0  0
    2.5998    2.0666    1.1105 H   0  0  0  0  0  0  0  0  0  0  0  0
   -3.5966   -1.0706   -0.1762 H   0  0  0  0  0  0  0  0  0  0  0  0
   -2.5493   -0.7609    1.1849 H   0  0  0  0  0  0  0  0  0  0  0  0
   -0.6572    2.3876   -2.1360 H   0  0  0  0  0  0  0  0  0  0  0  0
   -1.4601    1.9488    2.0337 H   0  0  0  0  0  0  0  0  0  0  0  0
   -0.4319    3.1674    1.1585 H   0  0  0  0  0  0  0  0  0  0  0  0
   -2.1369    3.1948    1.0991 H   0  0  0  0  0  0  0  0  0  0  0  0
   -4.6566    1.0992   -0.5386 H   0  0  0  0  0  0  0  0  0  0  0  0
   -2.0833    4.5276   -1.4638 H   0  0  0  0  0  0  0  0  0  0  0  0
   -0.3026   -1.3711    2.5621 H   0  0  0  0  0  0  0  0  0  0  0  0
   -0.3274   -0.0156    1.7058 H   0  0  0  0  0  0  0  0  0  0  0  0
    1.2291   -0.1742    3.6995 H   0  0  0  0  0  0  0  0  0  0  0  0
    4.2969    2.1752    2.6282 H   0  0  0  0  0  0  0  0  0  0  0  0
    3.0780    1.4535    3.6789 H   0  0  0  0  0  0  0  0  0  0  0  0
    1.6729    2.2786    2.9111 H   0  0  0  0  0  0  0  0  0  0  0  0
    0.6062    1.6153    1.7131 H   0  0  0  0  0  0  0  0  0  0  0  0
    0.0840    1.6808    3.2885 H   0  0  0  0  0  0  0  0  0  0  0  0
    3.4247   -1.6378    5.5121 H   0  0  0  0  0  0  0  0  0  0  0  0
    2.7819   -0.4689    4.5125 H   0  0  0  0  0  0  0  0  0  0  0  0
    1.1187   -2.3967    6.1346 H   0  0  0  0  0  0  0  0  0  0  0  0
    1.1537   -0.6069    6.2069 H   0  0  0  0  0  0  0  0  0  0  0  0
    0.3631   -1.4478    4.8791 H   0  0  0  0  0  0  0  0  0  0  0  0
  1  3  1  0  0  0  0
  1  4  1  1  0  0  0
  1  2  1  0  0  0  0
  2  5  1  0  0  0  0
  2 20  1  1  0  0  0
  3  6  1  0  0  0  0
  3 35  1  0  0  0  0
  3 36  1  0  0  0  0
  4 37  1  0  0  0  0
  4 38  1  0  0  0  0
  4 39  1  0  0  0  0
  5  7  1  0  0  0  0
  5  8  1  0  0  0  0
  5 21  1  1  0  0  0
  6  9  1  0  0  0  0
  6  7  1  0  0  0  0
  6 40  1  6  0  0  0
  7 10  1  0  0  0  0
  7 11  1  6  0  0  0
  8 12  1  0  0  0  0
  8 41  1  0  0  0  0
  8 42  1  0  0  0  0
  9 43  1  0  0  0  0
 10 13  1  0  0  0  0
 10 14  1  0  0  0  0
 10 15  1  1  0  0  0
 12 13  1  0  0  0  0
 12 44  1  0  0  0  0
 12 45  1  0  0  0  0
 13 16  2  0  0  0  0
 14 17  2  0  0  0  0
 14 46  1  0  0  0  0
 15 47  1  0  0  0  0
 15 48  1  0  0  0  0
 15 49  1  0  0  0  0
 16 18  1  0  0  0  0
 16 50  1  0  0  0  0
 17 18  1  0  0  0  0
 17 51  1  0  0  0  0
 18 19  2  0  0  0  0
 22  2  1  0  0  0  0
 22 52  1  0  0  0  0
 22 53  1  0  0  0  0
 23 22  1  0  0  0  0
 23 54  1  1  0  0  0
 23 28  1  0  0  0  0
 24  1  1  0  0  0  0
 24 23  1  0  0  0  0
 24 30  1  1  0  0  0
 24 25  1  0  0  0  0
 25 26  1  0  0  0  0
 25 27  2  0  0  0  0
 26 29  1  0  0  0  0
 26 55  1  0  0  0  0
 26 56  1  0  0  0  0
 28 57  1  0  0  0  0
 28 58  1  0  0  0  0
 28 59  1  0  0  0  0
 30 31  1  0  0  0  0
 31 32  1  0  0  0  0
 31 34  2  0  0  0  0
 32 33  1  0  0  0  0
 32 60  1  0  0  0  0
 32 61  1  0  0  0  0
 33 62  1  0  0  0  0
 33 63  1  0  0  0  0
 33 64  1  0  0  0  0
M  END
>  <DRUGBANK_ID>
DB01013

>  <SECONDARY_ACCESSION_NUMBERS>
APRD00876

>  <COMMON_NAME>
Clobetasol propionate

>  <CAS_NUMBER>
25122-46-7

>  <UNII>
779619577M

>  <SYNONYMS>
21-chloro-9-fluoro-11β,17-dihydroxy-16β-methylpregna-1,4-diene-3,20-dione 17-propionate; clobetasol 17-propanoate; clobetasol 17-propionate; Clobetasol propionate; Clobetasol propionate E

$$$$
