
 OpenBabel10282417133D

 28 28  0  0  0  0  0  0  0  0999 V2000
    1.3767    0.3406    0.9157 O   0  0  0  0  0  0  0  0  0  0  0  0
    0.7974    1.4208    0.1453 C   0  0  0  0  0  0  0  0  0  0  0  0
   -1.3605    0.1025   -0.2028 N   0  0  0  0  0  0  0  0  0  0  0  0
   -0.7308    1.3498    0.2922 C   0  0  0  0  0  0  0  0  0  0  0  0
   -0.6822   -1.0236    0.4645 C   0  0  0  0  0  0  0  0  0  0  0  0
    0.8656   -0.8690    0.3771 C   0  0  0  0  0  0  0  0  0  0  0  0
   -0.6842   -3.1065   -4.2520 O   0  0  0  0  0  0  0  0  0  0  0  0
    0.2516   -4.2020   -2.1515 O   0  0  0  0  0  0  0  0  0  0  0  0
    0.4210   -1.6445   -2.4032 C   0  0  0  0  0  0  0  0  0  0  0  0
   -0.2746   -0.2895   -2.5809 C   0  0  0  0  0  0  0  0  0  0  0  0
   -1.4949    0.0129   -1.6755 C   0  0  0  0  0  0  0  0  0  0  0  0
   -0.4024   -3.1173   -2.8291 S   0  0  0  0  0  0  0  0  0  0  0  0
   -1.7816   -2.8491   -2.0397 O   0  0  0  0  0  0  0  0  0  0  0  0
    1.1126    1.3975   -0.9052 H   0  0  0  0  0  0  0  0  0  0  0  0
    1.2154    2.3494    0.5275 H   0  0  0  0  0  0  0  0  0  0  0  0
   -0.9190    1.3781    1.3738 H   0  0  0  0  0  0  0  0  0  0  0  0
   -1.2188    2.2218   -0.1443 H   0  0  0  0  0  0  0  0  0  0  0  0
   -0.9724   -1.0593    1.5236 H   0  0  0  0  0  0  0  0  0  0  0  0
   -1.0603   -1.9737    0.0677 H   0  0  0  0  0  0  0  0  0  0  0  0
    1.3862   -1.7878    0.6707 H   0  0  0  0  0  0  0  0  0  0  0  0
    1.1985   -0.6969   -0.6297 H   0  0  0  0  0  0  0  0  0  0  0  0
    1.4696   -1.6011   -2.7205 H   0  0  0  0  0  0  0  0  0  0  0  0
    0.4918   -1.9873   -1.3876 H   0  0  0  0  0  0  0  0  0  0  0  0
   -0.5483   -0.1722   -3.6345 H   0  0  0  0  0  0  0  0  0  0  0  0
    0.4439    0.5235   -2.4425 H   0  0  0  0  0  0  0  0  0  0  0  0
   -2.2827   -0.7051   -1.9179 H   0  0  0  0  0  0  0  0  0  0  0  0
   -1.9447    0.9557   -2.0208 H   0  0  0  0  0  0  0  0  0  0  0  0
   -2.3770   -3.6203   -2.0853 H   0  0  0  0  0  0  0  0  0  0  0  0
  2  1  1  0  0  0  0
  2  4  1  0  0  0  0
  2 14  1  0  0  0  0
  2 15  1  0  0  0  0
  4  3  1  0  0  0  0
  4 16  1  0  0  0  0
  4 17  1  0  0  0  0
  5  3  1  0  0  0  0
  5 18  1  0  0  0  0
  5 19  1  0  0  0  0
  6  1  1  0  0  0  0
  6  5  1  0  0  0  0
  6 20  1  0  0  0  0
  6 21  1  0  0  0  0
  7 12  2  0  0  0  0
  8 12  2  0  0  0  0
  9 12  1  0  0  0  0
  9 22  1  0  0  0  0
  9 23  1  0  0  0  0
 10  9  1  0  0  0  0
 10 24  1  0  0  0  0
 10 25  1  0  0  0  0
 11  3  1  0  0  0  0
 11 10  1  0  0  0  0
 11 26  1  0  0  0  0
 11 27  1  0  0  0  0
 12 13  1  0  0  0  0
 13 28  1  0  0  0  0
M  END
>  <DRUGBANK_ID>
DB03434

>  <SECONDARY_ACCESSION_NUMBERS>
EXPT02224

>  <COMMON_NAME>
3-(N-morpholino)propanesulfonic acid

>  <CAS_NUMBER>
1132-61-2

>  <UNII>
273BP63NV3

>  <SYNONYMS>
3-morpholinopropanesulfonic acid; MOPS; Morpholinopropane sulfonic acid

$$$$
