
 OpenBabel10282417213D

 18 18  0  0  0  0  0  0  0  0999 V2000
    1.3802   -0.1780   -0.0051 C   0  0  0  0  0  0  0  0  0  0  0  0
    0.5182   -1.2837    0.0137 C   0  0  0  0  0  0  0  0  0  0  0  0
   -0.8628   -1.0997   -0.0057 C   0  0  0  0  0  0  0  0  0  0  0  0
   -1.3841    0.1867    0.0135 C   0  0  0  0  0  0  0  0  0  0  0  0
   -0.5252    1.2848    0.0353 C   0  0  0  0  0  0  0  0  0  0  0  0
    0.8672    1.1272   -0.0453 C   0  0  0  0  0  0  0  0  0  0  0  0
    1.7748    2.2797   -0.2439 C   0  0  0  0  0  0  0  0  0  0  0  0
    1.3389    3.5424   -0.3833 C   0  0  0  0  0  0  0  0  0  0  0  0
    2.2329    4.6813   -0.6504 C   0  0  0  0  0  0  0  0  0  0  0  0
    1.7794    5.8194   -0.7536 O   0  0  0  0  0  0  0  0  0  0  0  0
    2.4529   -0.3593   -0.0014 H   0  0  0  0  0  0  0  0  0  0  0  0
    0.9236   -2.2925    0.0220 H   0  0  0  0  0  0  0  0  0  0  0  0
   -1.5341   -1.9538   -0.0243 H   0  0  0  0  0  0  0  0  0  0  0  0
   -2.4584    0.3490   -0.0025 H   0  0  0  0  0  0  0  0  0  0  0  0
   -0.9833    2.2662    0.1002 H   0  0  0  0  0  0  0  0  0  0  0  0
    2.8340    2.0496   -0.3407 H   0  0  0  0  0  0  0  0  0  0  0  0
    0.2967    3.8279   -0.3310 H   0  0  0  0  0  0  0  0  0  0  0  0
    3.3047    4.4629   -0.7547 H   0  0  0  0  0  0  0  0  0  0  0  0
  1  2  1  0  0  0  0
  1  6  2  0  0  0  0
  1 11  1  0  0  0  0
  2  3  2  0  0  0  0
  2 12  1  0  0  0  0
  3  4  1  0  0  0  0
  3 13  1  0  0  0  0
  4  5  2  0  0  0  0
  4 14  1  0  0  0  0
  5  6  1  0  0  0  0
  5 15  1  0  0  0  0
  6  7  1  0  0  0  0
  7  8  2  0  0  0  0
  7 16  1  0  0  0  0
  8  9  1  0  0  0  0
  8 17  1  0  0  0  0
  9 10  2  0  0  0  0
  9 18  1  0  0  0  0
M  END
>  <DRUGBANK_ID>
DB14184

>  <COMMON_NAME>
Cinnamaldehyde

>  <CAS_NUMBER>
14371-10-9

>  <UNII>
SR60A3XG0F

>  <SYNONYMS>
(3E)-3-phenylprop-2-enal; (E)-3-Phenyl-2-propenal; (E)-3-Phenyl-propenal; (E)-3-Phenylpropenal; 3-phenylacrylaldehyde; Cinnamal; Cinnamaldehyde; trans-Cinnamaldehyde; trans-Cinnamic aldehyde; Zimtaldehyde

$$$$
