
 OpenBabel10282417213D

 63 64  0  0  0  0  0  0  0  0999 V2000
    1.0504    0.1615   -0.0727 C   0  0  0  0  0  0  0  0  0  0  0  0
   -0.3879    2.9009   -4.2509 C   0  0  0  0  0  0  0  0  0  0  0  0
   -2.5919   -5.4706    0.2278 C   0  0  0  0  0  0  0  0  0  0  0  0
    3.8682    3.6677   -1.8215 C   0  0  0  0  0  0  0  0  0  0  0  0
    4.3906    2.1487   -3.7429 C   0  0  0  0  0  0  0  0  0  0  0  0
   -1.6380   -3.6200   -4.5382 C   0  0  0  0  0  0  0  0  0  0  0  0
    2.9705    4.3791   -5.4927 C   0  0  0  0  0  0  0  0  0  0  0  0
    1.4706    4.1981   -5.3159 C   0  0  0  0  0  0  0  0  0  0  0  0
   -1.1163   -3.6966   -3.2593 C   0  0  0  0  0  0  0  0  0  0  0  0
   -3.0202   -3.6845   -4.7144 C   0  0  0  0  0  0  0  0  0  0  0  0
   -0.3309   -1.2200   -1.7409 C   0  0  0  0  0  0  0  0  0  0  0  0
    0.9095    0.7000   -2.4917 C   0  0  0  0  0  0  0  0  0  0  0  0
   -0.7622   -2.2460   -0.8075 C   0  0  0  0  0  0  0  0  0  0  0  0
    1.6101    1.8235   -2.2920 C   0  0  0  0  0  0  0  0  0  0  0  0
    3.6367    4.5264   -4.1349 C   0  0  0  0  0  0  0  0  0  0  0  0
   -1.3027   -4.0073    1.7115 C   0  0  0  0  0  0  0  0  0  0  0  0
   -3.3573   -3.7559   -2.3256 C   0  0  0  0  0  0  0  0  0  0  0  0
    0.4907   -0.1891   -1.4287 C   0  0  0  0  0  0  0  0  0  0  0  0
    1.0864    3.2327   -4.2229 C   0  0  0  0  0  0  0  0  0  0  0  0
   -1.7196   -4.2139    0.4284 C   0  0  0  0  0  0  0  0  0  0  0  0
   -1.9754   -3.7147   -2.1497 C   0  0  0  0  0  0  0  0  0  0  0  0
   -3.8834   -3.7190   -3.6082 C   0  0  0  0  0  0  0  0  0  0  0  0
   -1.4459   -3.4064   -0.8123 C   0  0  0  0  0  0  0  0  0  0  0  0
    1.9849    2.7683   -3.3225 C   0  0  0  0  0  0  0  0  0  0  0  0
   -0.4797   -3.0511    2.5215 C   0  0  0  0  0  0  0  0  0  0  0  0
   -5.3422   -3.5685   -3.7993 C   0  0  0  0  0  0  0  0  0  0  0  0
    3.4446    3.2657   -3.2559 C   0  0  0  0  0  0  0  0  0  0  0  0
   -0.2790   -3.1324    3.7062 O   0  0  0  0  0  0  0  0  0  0  0  0
    0.0622   -2.0513    1.8539 O   0  0  0  0  0  0  0  0  0  0  0  0
   -5.9015   -3.4300   -4.8698 O   0  0  0  0  0  0  0  0  0  0  0  0
   -6.0162   -3.5326   -2.6316 O   0  0  0  0  0  0  0  0  0  0  0  0
   -0.6816   -1.2986   -2.7646 H   0  0  0  0  0  0  0  0  0  0  0  0
    0.5830    0.4410   -3.4954 H   0  0  0  0  0  0  0  0  0  0  0  0
   -0.4084   -1.9602    0.1205 H   0  0  0  0  0  0  0  0  0  0  0  0
    1.9355    2.0840   -1.2916 H   0  0  0  0  0  0  0  0  0  0  0  0
   -1.6439   -4.7458    2.4414 H   0  0  0  0  0  0  0  0  0  0  0  0
    0.7587   -0.5340    0.6763 H   0  0  0  0  0  0  0  0  0  0  0  0
    0.6797    1.1271    0.2922 H   0  0  0  0  0  0  0  0  0  0  0  0
    2.1460    0.1506   -0.0530 H   0  0  0  0  0  0  0  0  0  0  0  0
   -0.9724    3.8155   -4.1226 H   0  0  0  0  0  0  0  0  0  0  0  0
   -0.6468    2.4368   -5.2078 H   0  0  0  0  0  0  0  0  0  0  0  0
   -0.7273    2.2277   -3.4640 H   0  0  0  0  0  0  0  0  0  0  0  0
   -2.0611   -6.3797    0.5316 H   0  0  0  0  0  0  0  0  0  0  0  0
   -3.5250   -5.3998    0.8033 H   0  0  0  0  0  0  0  0  0  0  0  0
   -2.8927   -5.6682   -0.8030 H   0  0  0  0  0  0  0  0  0  0  0  0
    3.8578    2.8196   -1.1283 H   0  0  0  0  0  0  0  0  0  0  0  0
    4.8910    4.0582   -1.8058 H   0  0  0  0  0  0  0  0  0  0  0  0
    3.2023    4.4404   -1.4189 H   0  0  0  0  0  0  0  0  0  0  0  0
    5.4326    2.4887   -3.7311 H   0  0  0  0  0  0  0  0  0  0  0  0
    4.3303    1.2607   -3.1034 H   0  0  0  0  0  0  0  0  0  0  0  0
    4.1565    1.8316   -4.7644 H   0  0  0  0  0  0  0  0  0  0  0  0
   -0.9662   -3.4432   -5.3740 H   0  0  0  0  0  0  0  0  0  0  0  0
    3.1605    5.2682   -6.1030 H   0  0  0  0  0  0  0  0  0  0  0  0
    3.3900    3.5267   -6.0391 H   0  0  0  0  0  0  0  0  0  0  0  0
    1.0488    3.8603   -6.2694 H   0  0  0  0  0  0  0  0  0  0  0  0
    1.0150    5.1674   -5.0804 H   0  0  0  0  0  0  0  0  0  0  0  0
   -0.0412   -3.5832   -3.1102 H   0  0  0  0  0  0  0  0  0  0  0  0
   -3.4220   -3.6770   -5.7221 H   0  0  0  0  0  0  0  0  0  0  0  0
    3.2016    5.4005   -3.6299 H   0  0  0  0  0  0  0  0  0  0  0  0
    4.7031    4.7428   -4.2677 H   0  0  0  0  0  0  0  0  0  0  0  0
   -4.0149   -3.7587   -1.4584 H   0  0  0  0  0  0  0  0  0  0  0  0
    0.5620   -1.4393    2.4184 H   0  0  0  0  0  0  0  0  0  0  0  0
   -6.9515   -3.3673   -2.8683 H   0  0  0  0  0  0  0  0  0  0  0  0
  1 37  1  0  0  0  0
  1 38  1  0  0  0  0
  1 39  1  0  0  0  0
  2 40  1  0  0  0  0
  2 41  1  0  0  0  0
  2 42  1  0  0  0  0
  3 43  1  0  0  0  0
  3 44  1  0  0  0  0
  3 45  1  0  0  0  0
  4 46  1  0  0  0  0
  4 47  1  0  0  0  0
  4 48  1  0  0  0  0
  5 49  1  0  0  0  0
  5 50  1  0  0  0  0
  5 51  1  0  0  0  0
  6 52  1  0  0  0  0
  7 53  1  0  0  0  0
  7 54  1  0  0  0  0
  8  7  1  0  0  0  0
  8 55  1  0  0  0  0
  8 56  1  0  0  0  0
  9  6  2  0  0  0  0
  9 57  1  0  0  0  0
 10  6  1  0  0  0  0
 10 58  1  0  0  0  0
 13 11  1  0  0  0  0
 14 12  2  0  0  0  0
 15  7  1  0  0  0  0
 15 59  1  0  0  0  0
 15 60  1  0  0  0  0
 17 61  1  0  0  0  0
 18  1  1  0  0  0  0
 18 11  2  0  0  0  0
 18 12  1  0  0  0  0
 19  2  1  0  0  0  0
 19  8  1  0  0  0  0
 20  3  1  0  0  0  0
 20 16  2  0  0  0  0
 21  9  1  0  0  0  0
 21 17  2  0  0  0  0
 22 10  2  0  0  0  0
 22 17  1  0  0  0  0
 23 13  2  0  0  0  0
 23 20  1  0  0  0  0
 23 21  1  0  0  0  0
 24 14  1  0  0  0  0
 24 19  2  0  0  0  0
 25 16  1  0  0  0  0
 26 22  1  0  0  0  0
 27  4  1  0  0  0  0
 27  5  1  0  0  0  0
 27 15  1  0  0  0  0
 27 24  1  0  0  0  0
 28 25  2  0  0  0  0
 29 25  1  0  0  0  0
 29 62  1  0  0  0  0
 30 26  2  0  0  0  0
 31 26  1  0  0  0  0
 31 63  1  0  0  0  0
 32 11  1  0  0  0  0
 33 12  1  0  0  0  0
 34 13  1  0  0  0  0
 35 14  1  0  0  0  0
 36 16  1  0  0  0  0
M  END
>  <DRUGBANK_ID>
DB14097

>  <COMMON_NAME>
13-cis-12-(3'-Carboxyphenyl)retinoic acid

>  <CAS_NUMBER>
141948-79-0

>  <UNII>
Y8U3B6ZM8D

$$$$
