
 OpenBabel10282417183D

 47 49  0  0  0  0  0  0  0  0999 V2000
   -1.2347   -0.0354   -0.0067 C   0  0  0  0  0  0  0  0  0  0  0  0
   -0.4313   -1.1568    0.0123 C   0  0  0  0  0  0  0  0  0  0  0  0
   -0.3444    1.0490   -0.0453 C   0  0  0  0  0  0  0  0  0  0  0  0
    0.9215    0.6400   -0.1452 N   0  0  0  0  0  0  0  0  0  0  0  0
    0.8775   -0.6967    0.0286 N   0  0  0  0  0  0  0  0  0  0  0  0
    2.0712   -1.4581   -0.0320 C   0  0  0  0  0  0  0  0  0  0  0  0
   -0.6677    2.5007    0.0034 C   0  0  0  0  0  0  0  0  0  0  0  0
   -0.1441    3.1890    1.2622 C   0  0  0  0  0  0  0  0  0  0  0  0
   -0.8060   -2.5542    0.0345 C   0  0  0  0  0  0  0  0  0  0  0  0
   -1.5620   -3.0608   -1.0258 C   0  0  0  0  0  0  0  0  0  0  0  0
   -0.3534   -3.4030    1.0503 C   0  0  0  0  0  0  0  0  0  0  0  0
   -0.6005   -4.7698    0.9667 C   0  0  0  0  0  0  0  0  0  0  0  0
   -1.3754   -5.2658   -0.0808 C   0  0  0  0  0  0  0  0  0  0  0  0
   -1.8522   -4.4194   -1.0809 C   0  0  0  0  0  0  0  0  0  0  0  0
    1.4493    5.7349    1.2291 C   0  0  0  0  0  0  0  0  0  0  0  0
   -1.7861   -6.9342   -0.1154 Cl  0  0  0  0  0  0  0  0  0  0  0  0
    1.3762    3.2131    1.3700 C   0  0  0  0  0  0  0  0  0  0  0  0
    2.0076    4.4053    1.1302 N   0  0  0  0  0  0  0  0  0  0  0  0
    2.0551    2.2213    1.6738 O   0  0  0  0  0  0  0  0  0  0  0  0
    3.4158    4.3843    1.2866 O   0  0  0  0  0  0  0  0  0  0  0  0
    2.2523   -2.3526   -1.0888 C   0  0  0  0  0  0  0  0  0  0  0  0
    3.4360   -3.0863   -1.1879 C   0  0  0  0  0  0  0  0  0  0  0  0
    4.4367   -2.9519   -0.2244 C   0  0  0  0  0  0  0  0  0  0  0  0
    4.2554   -2.0408    0.8250 C   0  0  0  0  0  0  0  0  0  0  0  0
    3.0666   -1.3029    0.9383 C   0  0  0  0  0  0  0  0  0  0  0  0
    5.6108   -3.6596   -0.2083 O   0  0  0  0  0  0  0  0  0  0  0  0
    5.7556   -4.6673   -1.2078 C   0  0  0  0  0  0  0  0  0  0  0  0
   -2.3152   -0.0118    0.0210 H   0  0  0  0  0  0  0  0  0  0  0  0
   -0.3007    2.9999   -0.9009 H   0  0  0  0  0  0  0  0  0  0  0  0
   -1.7622    2.6108   -0.0095 H   0  0  0  0  0  0  0  0  0  0  0  0
   -0.5466    4.2065    1.2696 H   0  0  0  0  0  0  0  0  0  0  0  0
   -0.5337    2.7080    2.1665 H   0  0  0  0  0  0  0  0  0  0  0  0
   -1.9040   -2.3991   -1.8191 H   0  0  0  0  0  0  0  0  0  0  0  0
    0.2085   -3.0087    1.8955 H   0  0  0  0  0  0  0  0  0  0  0  0
   -0.1830   -5.4364    1.7156 H   0  0  0  0  0  0  0  0  0  0  0  0
   -2.4371   -4.8069   -1.9091 H   0  0  0  0  0  0  0  0  0  0  0  0
    0.8029    5.8750    0.3599 H   0  0  0  0  0  0  0  0  0  0  0  0
    0.8419    5.8145    2.1365 H   0  0  0  0  0  0  0  0  0  0  0  0
    2.2384    6.4894    1.2384 H   0  0  0  0  0  0  0  0  0  0  0  0
    3.5944    3.4158    1.2855 H   0  0  0  0  0  0  0  0  0  0  0  0
    1.4977   -2.4594   -1.8624 H   0  0  0  0  0  0  0  0  0  0  0  0
    3.5503   -3.7434   -2.0422 H   0  0  0  0  0  0  0  0  0  0  0  0
    5.0479   -1.9006    1.5578 H   0  0  0  0  0  0  0  0  0  0  0  0
    2.9156   -0.6500    1.7966 H   0  0  0  0  0  0  0  0  0  0  0  0
    4.9432   -5.4024   -1.1609 H   0  0  0  0  0  0  0  0  0  0  0  0
    5.8195   -4.2175   -2.2043 H   0  0  0  0  0  0  0  0  0  0  0  0
    6.6919   -5.2037   -1.0252 H   0  0  0  0  0  0  0  0  0  0  0  0
  1  2  2  0  0  0  0
  1  3  1  0  0  0  0
  1 28  1  0  0  0  0
  2  5  1  0  0  0  0
  2  9  1  0  0  0  0
  3  4  2  0  0  0  0
  3  7  1  0  0  0  0
  4  5  1  0  0  0  0
  5  6  1  0  0  0  0
  6 21  1  0  0  0  0
  6 25  2  0  0  0  0
  7  8  1  0  0  0  0
  7 29  1  0  0  0  0
  7 30  1  0  0  0  0
  8 17  1  0  0  0  0
  8 31  1  0  0  0  0
  8 32  1  0  0  0  0
  9 10  1  0  0  0  0
  9 11  2  0  0  0  0
 10 14  2  0  0  0  0
 10 33  1  0  0  0  0
 11 12  1  0  0  0  0
 11 34  1  0  0  0  0
 12 13  2  0  0  0  0
 12 35  1  0  0  0  0
 13 14  1  0  0  0  0
 13 16  1  0  0  0  0
 14 36  1  0  0  0  0
 15 37  1  0  0  0  0
 15 38  1  0  0  0  0
 15 39  1  0  0  0  0
 17 18  1  0  0  0  0
 17 19  2  0  0  0  0
 18 20  1  0  0  0  0
 18 15  1  0  0  0  0
 20 40  1  0  0  0  0
 21 22  2  0  0  0  0
 21 41  1  0  0  0  0
 22 23  1  0  0  0  0
 22 42  1  0  0  0  0
 23 24  2  0  0  0  0
 23 26  1  0  0  0  0
 24 25  1  0  0  0  0
 24 43  1  0  0  0  0
 25 44  1  0  0  0  0
 26 27  1  0  0  0  0
 27 45  1  0  0  0  0
 27 46  1  0  0  0  0
 27 47  1  0  0  0  0
M  END
>  <DRUGBANK_ID>
DB11466

>  <COMMON_NAME>
Tepoxalin

>  <CAS_NUMBER>
103475-41-8

>  <UNII>
TZ4OX61974

>  <SYNONYMS>
5-(p-Chlorophenyl)-1-(p-methoxyphenyl)-N-methylpyrazole-3-propionohydroxamic acid; Tepoxalin; Tepoxalina; Tepoxaline; Tepoxaliume

$$$$
