
 OpenBabel10282417243D

 57 59  0  0  1  0  0  0  0  0999 V2000
   -4.5679   -2.9555   -5.0137 C   0  0  0  0  0  0  0  0  0  0  0  0
   -4.2366   -2.3841   -3.6787 C   0  0  0  0  0  0  0  0  0  0  0  0
   -3.7780   -3.1043   -2.5608 C   0  0  0  0  0  0  0  0  0  0  0  0
   -3.4157   -2.4861   -1.3343 C   0  0  0  0  0  0  0  0  0  0  0  0
   -3.4760   -1.1245   -1.2168 C   0  0  0  0  0  0  0  0  0  0  0  0
   -4.0080   -0.5031   -2.3314 C   0  0  0  0  0  0  0  0  0  0  0  0
   -4.4041   -1.0452   -3.5370 C   0  0  0  0  0  0  0  0  0  0  0  0
   -3.0761   -0.2597   -0.0276 C   0  0  2  0  0  0  0  0  0  0  0  0
   -1.5657   -0.1313    0.1103 C   0  0  0  0  0  0  0  0  0  0  0  0
   -1.1922    1.1422    0.8515 C   0  0  0  0  0  0  0  0  0  0  0  0
   -0.4883    0.9199    1.9857 O   0  0  0  0  0  0  0  0  0  0  0  0
   -1.4574    2.2522    0.4693 O   0  0  0  0  0  0  0  0  0  0  0  0
   -3.8406   -0.6073    1.1710 N   0  0  0  0  0  0  0  0  0  0  0  0
   -4.6512    0.0982    2.0049 C   0  0  0  0  0  0  0  0  0  0  0  0
   -5.0488   -0.4747    3.0217 O   0  0  0  0  0  0  0  0  0  0  0  0
   -5.0271    1.3850    1.7682 N   0  0  0  0  0  0  0  0  0  0  0  0
   -4.8122    2.2278    0.6892 C   0  0  0  0  0  0  0  0  0  0  0  0
   -5.1399    1.9352   -0.5903 C   0  0  0  0  0  0  0  0  0  0  0  0
   -5.8773    0.7907   -0.8557 O   0  0  0  0  0  0  0  0  0  0  0  0
   -4.5019    2.6541   -1.7338 C   0  0  0  0  0  0  0  0  0  0  0  0
   -4.3778    2.3219   -3.2259 C   0  0  0  0  0  0  0  0  0  0  0  0
   -3.7642    3.7201   -1.4219 C   0  0  0  0  0  0  0  0  0  0  0  0
   -3.7621    4.2564   -0.1584 N   0  0  0  0  0  0  0  0  0  0  0  0
   -3.4314    5.6624   -0.0558 C   0  0  0  0  0  0  0  0  0  0  0  0
   -4.4079    6.5520   -0.8227 C   0  0  0  0  0  0  0  0  0  0  0  0
   -5.5282    6.0403   -1.5246 C   0  0  0  0  0  0  0  0  0  0  0  0
   -6.3747    6.8504   -2.2691 C   0  0  0  0  0  0  0  0  0  0  0  0
   -6.1603    8.2163   -2.2757 C   0  0  0  0  0  0  0  0  0  0  0  0
   -5.0848    8.7562   -1.5662 C   0  0  0  0  0  0  0  0  0  0  0  0
   -4.2068    7.9329   -0.8557 C   0  0  0  0  0  0  0  0  0  0  0  0
   -2.8911    8.6753   -0.0184 Cl  0  0  0  0  0  0  0  0  0  0  0  0
   -4.2349    3.5829    0.9568 C   0  0  0  0  0  0  0  0  0  0  0  0
   -4.2256    4.0241    2.1091 O   0  0  0  0  0  0  0  0  0  0  0  0
   -5.6106   -2.7386   -5.2779 H   0  0  0  0  0  0  0  0  0  0  0  0
   -3.9257   -2.4949   -5.7769 H   0  0  0  0  0  0  0  0  0  0  0  0
   -4.4076   -4.0302   -5.0142 H   0  0  0  0  0  0  0  0  0  0  0  0
   -3.7045   -4.1802   -2.6332 H   0  0  0  0  0  0  0  0  0  0  0  0
   -3.1104   -3.0771   -0.4829 H   0  0  0  0  0  0  0  0  0  0  0  0
   -4.2254    0.5058   -2.1865 H   0  0  0  0  0  0  0  0  0  0  0  0
   -4.8482   -0.4387   -4.3255 H   0  0  0  0  0  0  0  0  0  0  0  0
   -3.3134    0.7589   -0.2503 H   0  0  0  0  0  0  0  0  0  0  0  0
   -1.1204   -1.0226    0.5470 H   0  0  0  0  0  0  0  0  0  0  0  0
   -1.1309    0.0053   -0.8911 H   0  0  0  0  0  0  0  0  0  0  0  0
   -0.3274   -0.0151    2.1945 H   0  0  0  0  0  0  0  0  0  0  0  0
   -3.7321   -1.5593    1.4997 H   0  0  0  0  0  0  0  0  0  0  0  0
   -5.3323    1.8590    2.6186 H   0  0  0  0  0  0  0  0  0  0  0  0
   -5.6772    0.1478   -0.1385 H   0  0  0  0  0  0  0  0  0  0  0  0
   -4.7758    3.1146   -3.8552 H   0  0  0  0  0  0  0  0  0  0  0  0
   -3.3102    2.1663   -3.4922 H   0  0  0  0  0  0  0  0  0  0  0  0
   -4.9218    1.4573   -3.5881 H   0  0  0  0  0  0  0  0  0  0  0  0
   -3.2729    4.2939   -2.2072 H   0  0  0  0  0  0  0  0  0  0  0  0
   -2.4143    5.7782   -0.4532 H   0  0  0  0  0  0  0  0  0  0  0  0
   -3.4339    5.9589    0.9955 H   0  0  0  0  0  0  0  0  0  0  0  0
   -5.7837    4.9856   -1.5229 H   0  0  0  0  0  0  0  0  0  0  0  0
   -7.1983    6.4020   -2.8202 H   0  0  0  0  0  0  0  0  0  0  0  0
   -6.8397    8.8614   -2.8223 H   0  0  0  0  0  0  0  0  0  0  0  0
   -4.9344    9.8308   -1.5676 H   0  0  0  0  0  0  0  0  0  0  0  0
  1  2  1  0  0  0  0
  1 34  1  0  0  0  0
  1 35  1  0  0  0  0
  1 36  1  0  0  0  0
  2  3  2  0  0  0  0
  2  7  1  0  0  0  0
  3  4  1  0  0  0  0
  3 37  1  0  0  0  0
  4  5  2  0  0  0  0
  4 38  1  0  0  0  0
  5  6  1  0  0  0  0
  6  7  2  0  0  0  0
  6 39  1  0  0  0  0
  7 40  1  0  0  0  0
  8 13  1  0  0  0  0
  8 41  1  6  0  0  0
  8  9  1  0  0  0  0
  8  5  1  0  0  0  0
  9 10  1  0  0  0  0
  9 42  1  0  0  0  0
  9 43  1  0  0  0  0
 10 11  1  0  0  0  0
 10 12  2  0  0  0  0
 11 44  1  0  0  0  0
 13 14  1  0  0  0  0
 13 45  1  0  0  0  0
 14 15  2  0  0  0  0
 14 16  1  0  0  0  0
 16 17  1  0  0  0  0
 16 46  1  0  0  0  0
 17 18  2  0  0  0  0
 17 32  1  0  0  0  0
 18 19  1  0  0  0  0
 18 20  1  0  0  0  0
 19 47  1  0  0  0  0
 20 21  1  0  0  0  0
 20 22  2  0  0  0  0
 21 48  1  0  0  0  0
 21 49  1  0  0  0  0
 21 50  1  0  0  0  0
 22 23  1  0  0  0  0
 22 51  1  0  0  0  0
 23 24  1  0  0  0  0
 23 32  1  0  0  0  0
 24 25  1  0  0  0  0
 24 52  1  0  0  0  0
 24 53  1  0  0  0  0
 25 26  2  0  0  0  0
 25 30  1  0  0  0  0
 26 27  1  0  0  0  0
 26 54  1  0  0  0  0
 27 28  2  0  0  0  0
 27 55  1  0  0  0  0
 28 29  1  0  0  0  0
 28 56  1  0  0  0  0
 29 30  2  0  0  0  0
 29 57  1  0  0  0  0
 30 31  1  0  0  0  0
 32 33  2  0  0  0  0
M  END
>  <DRUGBANK_ID>
DB18022

>  <COMMON_NAME>
AVA-4746

>  <CAS_NUMBER>
422268-99-3

>  <UNII>
7M2IM94F1S

>  <SYNONYMS>
(3s)-3-(((1-(2-chlorobenzyl)-4-hydroxy-5-methyl-2-oxo-1,2-dihydropyridin-3yl)amino)carbonyl)amino-3-(4-methylphenyl)propanoic acid; Benzenepropanoic acid, .beta.-((((1-((2-chlorophenyl)methyl)-1,2-dihydro-4-hydroxy-5-methyl-2-oxo-3-pyridinyl)amino)carbonyl)amino)-4-methyl-, (.beta.s)-

$$$$
