
 OpenBabel10282417213D

 75 78  0  0  0  0  0  0  0  0999 V2000
    0.8529    0.1165   -0.0389 C   0  0  0  0  0  0  0  0  0  0  0  0
    8.9833   -3.3236  -15.9899 C   0  0  0  0  0  0  0  0  0  0  0  0
   10.6231   -4.5030  -14.4853 C   0  0  0  0  0  0  0  0  0  0  0  0
    3.4518    4.5649  -15.6841 C   0  0  0  0  0  0  0  0  0  0  0  0
    5.7776    4.0931  -16.5196 C   0  0  0  0  0  0  0  0  0  0  0  0
    0.4098   -0.8744   -1.1018 C   0  0  0  0  0  0  0  0  0  0  0  0
    2.9099   -1.7692   -2.2111 C   0  0  0  0  0  0  0  0  0  0  0  0
    3.6506   -0.6537   -2.3754 C   0  0  0  0  0  0  0  0  0  0  0  0
    3.2865   -0.2302   -4.8130 C   0  0  0  0  0  0  0  0  0  0  0  0
    5.4998   -0.0186   -3.8823 C   0  0  0  0  0  0  0  0  0  0  0  0
    3.8122   -0.0775   -6.1007 C   0  0  0  0  0  0  0  0  0  0  0  0
    6.0297    0.0972   -5.1727 C   0  0  0  0  0  0  0  0  0  0  0  0
    8.8779   -0.1305  -11.0368 C   0  0  0  0  0  0  0  0  0  0  0  0
    7.4771   -2.0789  -10.9400 C   0  0  0  0  0  0  0  0  0  0  0  0
    6.3481    3.1388  -10.7538 C   0  0  0  0  0  0  0  0  0  0  0  0
    5.5855    1.2334  -11.9939 C   0  0  0  0  0  0  0  0  0  0  0  0
    9.5098   -0.6375  -12.1810 C   0  0  0  0  0  0  0  0  0  0  0  0
    8.0886   -2.5560  -12.0998 C   0  0  0  0  0  0  0  0  0  0  0  0
    6.1088    3.9571  -11.8719 C   0  0  0  0  0  0  0  0  0  0  0  0
    5.3172    2.0618  -13.0871 C   0  0  0  0  0  0  0  0  0  0  0  0
    2.3740   -2.2458   -0.8999 C   0  0  0  0  0  0  0  0  0  0  0  0
    9.4168   -3.5766  -14.5533 C   0  0  0  0  0  0  0  0  0  0  0  0
    4.7645    3.8430  -15.4098 C   0  0  0  0  0  0  0  0  0  0  0  0
    4.1372   -0.2706   -3.7023 C   0  0  0  0  0  0  0  0  0  0  0  0
    7.8296   -0.8335  -10.4355 C   0  0  0  0  0  0  0  0  0  0  0  0
    6.0569    1.7752  -10.8006 C   0  0  0  0  0  0  0  0  0  0  0  0
    5.1937    0.0500   -6.2939 C   0  0  0  0  0  0  0  0  0  0  0  0
    9.1186   -1.8596  -12.7432 C   0  0  0  0  0  0  0  0  0  0  0  0
    5.5719    3.4366  -13.0593 C   0  0  0  0  0  0  0  0  0  0  0  0
    6.9620   -0.1768   -9.4719 C   0  0  0  0  0  0  0  0  0  0  0  0
    6.1765    0.9527   -9.6113 C   0  0  0  0  0  0  0  0  0  0  0  0
    5.7382    0.2111   -7.6403 C   0  0  0  0  0  0  0  0  0  0  0  0
    9.7156   -2.3041  -13.9094 N   0  0  0  0  0  0  0  0  0  0  0  0
    5.3053    4.2774  -14.1268 N   0  0  0  0  0  0  0  0  0  0  0  0
    6.6643   -0.6416   -8.2089 N   0  0  0  0  0  0  0  0  0  0  0  0
    5.4263    1.1735   -8.4817 N   0  0  0  0  0  0  0  0  0  0  0  0
    0.9474   -2.1829   -0.8931 O   0  0  0  0  0  0  0  0  0  0  0  0
    2.6305   -2.3767   -3.0675 H   0  0  0  0  0  0  0  0  0  0  0  0
    3.9457   -0.0414   -1.5300 H   0  0  0  0  0  0  0  0  0  0  0  0
    0.5427   -0.2284    0.9517 H   0  0  0  0  0  0  0  0  0  0  0  0
    0.4311    1.1052   -0.2312 H   0  0  0  0  0  0  0  0  0  0  0  0
    1.9402    0.2290   -0.0078 H   0  0  0  0  0  0  0  0  0  0  0  0
    9.7881   -2.8768  -16.5814 H   0  0  0  0  0  0  0  0  0  0  0  0
    8.6846   -4.2639  -16.4648 H   0  0  0  0  0  0  0  0  0  0  0  0
    8.1239   -2.6444  -16.0189 H   0  0  0  0  0  0  0  0  0  0  0  0
   10.9286   -4.6715  -13.4467 H   0  0  0  0  0  0  0  0  0  0  0  0
   10.3718   -5.4766  -14.9208 H   0  0  0  0  0  0  0  0  0  0  0  0
   11.4803   -4.0955  -15.0297 H   0  0  0  0  0  0  0  0  0  0  0  0
    3.5960    5.6456  -15.7782 H   0  0  0  0  0  0  0  0  0  0  0  0
    3.0047    4.1953  -16.6134 H   0  0  0  0  0  0  0  0  0  0  0  0
    2.7359    4.3875  -14.8740 H   0  0  0  0  0  0  0  0  0  0  0  0
    6.7207    3.5763  -16.3107 H   0  0  0  0  0  0  0  0  0  0  0  0
    5.3926    3.7127  -17.4724 H   0  0  0  0  0  0  0  0  0  0  0  0
    5.9942    5.1591  -16.6401 H   0  0  0  0  0  0  0  0  0  0  0  0
   -0.6812   -0.9668   -1.0807 H   0  0  0  0  0  0  0  0  0  0  0  0
    0.6652   -0.5183   -2.1059 H   0  0  0  0  0  0  0  0  0  0  0  0
    2.2108   -0.3375   -4.6860 H   0  0  0  0  0  0  0  0  0  0  0  0
    6.1634    0.0582   -3.0247 H   0  0  0  0  0  0  0  0  0  0  0  0
    3.1375   -0.0788   -6.9545 H   0  0  0  0  0  0  0  0  0  0  0  0
    7.1011    0.2359   -5.2911 H   0  0  0  0  0  0  0  0  0  0  0  0
    9.1706    0.8449  -10.6540 H   0  0  0  0  0  0  0  0  0  0  0  0
    6.6704   -2.6597  -10.5023 H   0  0  0  0  0  0  0  0  0  0  0  0
    6.7571    3.5710   -9.8439 H   0  0  0  0  0  0  0  0  0  0  0  0
    5.3958    0.1683  -12.0927 H   0  0  0  0  0  0  0  0  0  0  0  0
   10.2846   -0.0351  -12.6501 H   0  0  0  0  0  0  0  0  0  0  0  0
    7.6875   -3.4770  -12.5024 H   0  0  0  0  0  0  0  0  0  0  0  0
    6.3313    5.0181  -11.7883 H   0  0  0  0  0  0  0  0  0  0  0  0
    4.8819    1.5804  -13.9532 H   0  0  0  0  0  0  0  0  0  0  0  0
    2.7835   -1.7001   -0.0448 H   0  0  0  0  0  0  0  0  0  0  0  0
    2.6583   -3.2935   -0.7520 H   0  0  0  0  0  0  0  0  0  0  0  0
    8.5929   -4.1070  -14.0754 H   0  0  0  0  0  0  0  0  0  0  0  0
    4.5386    2.7765  -15.4315 H   0  0  0  0  0  0  0  0  0  0  0  0
   10.4966   -1.7683  -14.2735 H   0  0  0  0  0  0  0  0  0  0  0  0
    5.5553    5.2557  -14.0323 H   0  0  0  0  0  0  0  0  0  0  0  0
    7.0432   -1.4670   -7.7745 H   0  0  0  0  0  0  0  0  0  0  0  0
  1 40  1  0  0  0  0
  1 41  1  0  0  0  0
  1 42  1  0  0  0  0
  2 43  1  0  0  0  0
  2 44  1  0  0  0  0
  2 45  1  0  0  0  0
  3 46  1  0  0  0  0
  3 47  1  0  0  0  0
  3 48  1  0  0  0  0
  4 49  1  0  0  0  0
  4 50  1  0  0  0  0
  4 51  1  0  0  0  0
  5 52  1  0  0  0  0
  5 53  1  0  0  0  0
  5 54  1  0  0  0  0
  6  1  1  0  0  0  0
  6 55  1  0  0  0  0
  6 56  1  0  0  0  0
  8  7  2  0  0  0  0
  9 57  1  0  0  0  0
 10 58  1  0  0  0  0
 11  9  1  0  0  0  0
 11 59  1  0  0  0  0
 12 10  2  0  0  0  0
 12 60  1  0  0  0  0
 13 61  1  0  0  0  0
 14 62  1  0  0  0  0
 15 63  1  0  0  0  0
 16 64  1  0  0  0  0
 17 13  1  0  0  0  0
 17 65  1  0  0  0  0
 18 14  2  0  0  0  0
 18 66  1  0  0  0  0
 19 15  1  0  0  0  0
 19 67  1  0  0  0  0
 20 16  2  0  0  0  0
 20 68  1  0  0  0  0
 21  7  1  0  0  0  0
 21 69  1  0  0  0  0
 21 70  1  0  0  0  0
 22  2  1  0  0  0  0
 22  3  1  0  0  0  0
 22 71  1  0  0  0  0
 23  4  1  0  0  0  0
 23  5  1  0  0  0  0
 23 72  1  0  0  0  0
 24  8  1  0  0  0  0
 24  9  2  0  0  0  0
 24 10  1  0  0  0  0
 25 13  2  0  0  0  0
 25 14  1  0  0  0  0
 26 15  2  0  0  0  0
 26 16  1  0  0  0  0
 27 11  2  0  0  0  0
 27 12  1  0  0  0  0
 28 17  2  0  0  0  0
 28 18  1  0  0  0  0
 29 19  2  0  0  0  0
 29 20  1  0  0  0  0
 30 25  1  0  0  0  0
 31 26  1  0  0  0  0
 31 30  2  0  0  0  0
 32 27  1  0  0  0  0
 33 22  1  0  0  0  0
 33 28  1  0  0  0  0
 33 73  1  0  0  0  0
 34 23  1  0  0  0  0
 34 29  1  0  0  0  0
 34 74  1  0  0  0  0
 35 30  1  0  0  0  0
 35 32  1  0  0  0  0
 35 75  1  0  0  0  0
 36 31  1  0  0  0  0
 36 32  2  0  0  0  0
 37  6  1  0  0  0  0
 37 21  1  0  0  0  0
 38  7  1  0  0  0  0
 39  8  1  0  0  0  0
M  END
>  <DRUGBANK_ID>
DB14069

>  <COMMON_NAME>
ONT-093

>  <CAS_NUMBER>
216227-54-2

>  <UNII>
PK2WD2XC83

$$$$
