
 OpenBabel10282417143D

247247  0  0  0  0  0  0  0  0999 V2000
    0.9756   -0.0645    0.2660 C   0  0  0  0  0  0  0  0  0  0  0  0
    0.9708   -2.5121    0.0307 C   0  0  0  0  0  0  0  0  0  0  0  0
   -1.0385   -1.2569   -0.3248 C   0  0  0  0  0  0  0  0  0  0  0  0
    0.9791    1.4340   -2.3004 C   0  0  0  0  0  0  0  0  0  0  0  0
    0.9135    0.0755   -4.3206 C   0  0  0  0  0  0  0  0  0  0  0  0
   -1.8493   -0.9607   -2.6622 C   0  0  0  0  0  0  0  0  0  0  0  0
   -1.8550    1.3954   -2.8036 C   0  0  0  0  0  0  0  0  0  0  0  0
   -3.1809   -0.9112   -2.1320 C   0  0  0  0  0  0  0  0  0  0  0  0
   -3.2611    1.4239   -2.7254 C   0  0  0  0  0  0  0  0  0  0  0  0
    0.9783   -0.7668  -40.6017 C   0  0  0  0  0  0  0  0  0  0  0  0
    1.1336   -1.9565  -39.6619 C   0  0  0  0  0  0  0  0  0  0  0  0
   -1.1147   -2.5443  -39.4824 C   0  0  0  0  0  0  0  0  0  0  0  0
   -1.4865   -1.0939  -38.6957 C   0  0  0  0  0  0  0  0  0  0  0  0
    0.7194   -0.1299  -37.7283 C   0  0  0  0  0  0  0  0  0  0  0  0
    0.9701   -1.7375  -37.1629 C   0  0  0  0  0  0  0  0  0  0  0  0
   -1.3876   -2.9093  -36.7207 C   0  0  0  0  0  0  0  0  0  0  0  0
   -1.9521   -1.4562  -36.2643 C   0  0  0  0  0  0  0  0  0  0  0  0
    0.1015   -0.4137  -35.1401 C   0  0  0  0  0  0  0  0  0  0  0  0
    0.5647   -1.7348  -34.5158 C   0  0  0  0  0  0  0  0  0  0  0  0
   -1.6211   -2.6156  -33.9894 C   0  0  0  0  0  0  0  0  0  0  0  0
   -2.2298   -1.2785  -33.5605 C   0  0  0  0  0  0  0  0  0  0  0  0
   -0.2255   -0.3261  -32.4924 C   0  0  0  0  0  0  0  0  0  0  0  0
    0.2722   -1.6646  -31.9159 C   0  0  0  0  0  0  0  0  0  0  0  0
   -1.9130   -2.5951  -31.3811 C   0  0  0  0  0  0  0  0  0  0  0  0
   -2.5639   -1.2440  -31.0047 C   0  0  0  0  0  0  0  0  0  0  0  0
   -0.5668   -0.2712  -29.9552 C   0  0  0  0  0  0  0  0  0  0  0  0
   -0.0278   -1.6152  -29.4006 C   0  0  0  0  0  0  0  0  0  0  0  0
   -2.2236   -2.5633  -28.8655 C   0  0  0  0  0  0  0  0  0  0  0  0
   -2.8865   -1.2040  -28.5124 C   0  0  0  0  0  0  0  0  0  0  0  0
   -0.8899   -0.2271  -27.4688 C   0  0  0  0  0  0  0  0  0  0  0  0
   -0.3384   -1.5742  -26.9227 C   0  0  0  0  0  0  0  0  0  0  0  0
   -2.5372   -2.5261  -26.3873 C   0  0  0  0  0  0  0  0  0  0  0  0
   -3.2039   -1.1641  -26.0416 C   0  0  0  0  0  0  0  0  0  0  0  0
   -1.2062   -0.1863  -25.0003 C   0  0  0  0  0  0  0  0  0  0  0  0
   -0.6520   -1.5347  -24.4568 C   0  0  0  0  0  0  0  0  0  0  0  0
   -2.8512   -2.4872  -23.9212 C   0  0  0  0  0  0  0  0  0  0  0  0
   -3.5190   -1.1245  -23.5776 C   0  0  0  0  0  0  0  0  0  0  0  0
   -1.5210   -0.1466  -22.5368 C   0  0  0  0  0  0  0  0  0  0  0  0
   -0.9661   -1.4951  -21.9939 C   0  0  0  0  0  0  0  0  0  0  0  0
   -3.1653   -2.4478  -21.4582 C   0  0  0  0  0  0  0  0  0  0  0  0
   -3.8337   -1.0852  -21.1151 C   0  0  0  0  0  0  0  0  0  0  0  0
   -1.8355   -0.1071  -20.0743 C   0  0  0  0  0  0  0  0  0  0  0  0
   -1.2804   -1.4555  -19.5314 C   0  0  0  0  0  0  0  0  0  0  0  0
   -3.4792   -2.4081  -18.9957 C   0  0  0  0  0  0  0  0  0  0  0  0
   -4.1484   -1.0461  -18.6523 C   0  0  0  0  0  0  0  0  0  0  0  0
   -2.1500   -0.0679  -17.6111 C   0  0  0  0  0  0  0  0  0  0  0  0
   -1.5950   -1.4154  -17.0667 C   0  0  0  0  0  0  0  0  0  0  0  0
   -3.7926   -2.3679  -16.5312 C   0  0  0  0  0  0  0  0  0  0  0  0
   -4.4635   -1.0079  -16.1860 C   0  0  0  0  0  0  0  0  0  0  0  0
   -2.4652   -0.0295  -15.1426 C   0  0  0  0  0  0  0  0  0  0  0  0
   -1.9109   -1.3726  -14.5920 C   0  0  0  0  0  0  0  0  0  0  0  0
   -4.1039   -2.3255  -14.0588 C   0  0  0  0  0  0  0  0  0  0  0  0
   -4.7801   -0.9727  -13.7074 C   0  0  0  0  0  0  0  0  0  0  0  0
   -2.7886    0.0057  -12.6521 C   0  0  0  0  0  0  0  0  0  0  0  0
   -2.2272   -1.3153  -12.0766 C   0  0  0  0  0  0  0  0  0  0  0  0
   -4.4152   -2.2803  -11.5642 C   0  0  0  0  0  0  0  0  0  0  0  0
   -5.1014   -0.9453  -11.1939 C   0  0  0  0  0  0  0  0  0  0  0  0
   -3.1554    0.0447  -10.0817 C   0  0  0  0  0  0  0  0  0  0  0  0
   -2.5294   -1.2316   -9.4866 C   0  0  0  0  0  0  0  0  0  0  0  0
   -4.7559   -2.2382   -9.0191 C   0  0  0  0  0  0  0  0  0  0  0  0
   -5.4613   -0.9383   -8.5823 C   0  0  0  0  0  0  0  0  0  0  0  0
   -3.4893    0.1160   -7.5620 C   0  0  0  0  0  0  0  0  0  0  0  0
   -2.6721   -1.1457   -6.9697 C   0  0  0  0  0  0  0  0  0  0  0  0
   -5.2299   -2.1954   -6.3024 C   0  0  0  0  0  0  0  0  0  0  0  0
   -6.1549   -0.7466   -5.9165 C   0  0  0  0  0  0  0  0  0  0  0  0
   -4.0156    0.1162   -5.1854 C   0  0  0  0  0  0  0  0  0  0  0  0
   -3.3280   -1.2584   -4.6824 C   0  0  0  0  0  0  0  0  0  0  0  0
   -5.2590   -2.3793   -3.8340 C   0  0  0  0  0  0  0  0  0  0  0  0
   -5.8734   -1.2141   -2.9326 C   0  0  0  0  0  0  0  0  0  0  0  0
    0.9165   -1.1215   -2.0795 C   0  0  0  0  0  0  0  0  0  0  0  0
   -1.1215    0.2025   -2.8648 C   0  0  0  0  0  0  0  0  0  0  0  0
   -3.9544    0.2586   -2.3425 C   0  0  0  0  0  0  0  0  0  0  0  0
    0.4600   -1.2202   -0.5714 C   0  0  0  0  0  0  0  0  0  0  0  0
    0.4010    0.1342   -2.8786 C   0  0  0  0  0  0  0  0  0  0  0  0
   -0.3068   -0.1720  -40.7579 O   0  0  0  0  0  0  0  0  0  0  0  0
    0.2455   -3.0366  -39.5493 O   0  0  0  0  0  0  0  0  0  0  0  0
   -0.6397    0.1014  -38.3651 O   0  0  0  0  0  0  0  0  0  0  0  0
    0.1241   -2.9631  -36.8515 O   0  0  0  0  0  0  0  0  0  0  0  0
   -1.2205   -0.2674  -35.7211 O   0  0  0  0  0  0  0  0  0  0  0  0
   -0.2337   -2.8291  -34.1357 O   0  0  0  0  0  0  0  0  0  0  0  0
   -1.5198   -0.1578  -33.0563 O   0  0  0  0  0  0  0  0  0  0  0  0
   -0.5255   -2.7801  -31.5860 O   0  0  0  0  0  0  0  0  0  0  0  0
   -1.8600   -0.1080  -30.5215 O   0  0  0  0  0  0  0  0  0  0  0  0
   -0.8320   -2.7391  -29.0821 O   0  0  0  0  0  0  0  0  0  0  0  0
   -2.1821   -0.0656  -28.0365 O   0  0  0  0  0  0  0  0  0  0  0  0
   -1.1445   -2.7001  -26.6063 O   0  0  0  0  0  0  0  0  0  0  0  0
   -2.4984   -0.0253  -25.5682 O   0  0  0  0  0  0  0  0  0  0  0  0
   -1.4584   -2.6609  -24.1409 O   0  0  0  0  0  0  0  0  0  0  0  0
   -2.8133    0.0144  -23.1049 O   0  0  0  0  0  0  0  0  0  0  0  0
   -1.7726   -2.6214  -21.6783 O   0  0  0  0  0  0  0  0  0  0  0  0
   -3.1277    0.0538  -20.6427 O   0  0  0  0  0  0  0  0  0  0  0  0
   -2.0867   -2.5819  -19.2160 O   0  0  0  0  0  0  0  0  0  0  0  0
   -3.4422    0.0930  -18.1801 O   0  0  0  0  0  0  0  0  0  0  0  0
   -2.4008   -2.5419  -16.7521 O   0  0  0  0  0  0  0  0  0  0  0  0
   -3.7569    0.1313  -15.7141 O   0  0  0  0  0  0  0  0  0  0  0  0
   -2.7144   -2.5001  -14.2810 O   0  0  0  0  0  0  0  0  0  0  0  0
   -4.0737    0.1660  -13.2341 O   0  0  0  0  0  0  0  0  0  0  0  0
   -3.0264   -2.4512  -11.7902 O   0  0  0  0  0  0  0  0  0  0  0  0
   -4.4115    0.1975  -10.7187 O   0  0  0  0  0  0  0  0  0  0  0  0
   -3.3468   -2.3802   -9.2520 O   0  0  0  0  0  0  0  0  0  0  0  0
   -4.7844    0.2755   -8.1764 O   0  0  0  0  0  0  0  0  0  0  0  0
   -3.6257   -2.3433   -6.6743 O   0  0  0  0  0  0  0  0  0  0  0  0
   -5.3452    0.4476   -5.6235 O   0  0  0  0  0  0  0  0  0  0  0  0
   -3.8837   -2.5451   -4.2427 O   0  0  0  0  0  0  0  0  0  0  0  0
   -5.2758    0.1316   -2.8225 O   0  0  0  0  0  0  0  0  0  0  0  0
    0.7054   -0.1846    1.3129 H   0  0  0  0  0  0  0  0  0  0  0  0
    0.4544    0.8565    0.0535 H   0  0  0  0  0  0  0  0  0  0  0  0
    2.0505    0.0655    0.1323 H   0  0  0  0  0  0  0  0  0  0  0  0
    0.6138   -2.5693    1.0648 H   0  0  0  0  0  0  0  0  0  0  0  0
    0.5853   -3.3824   -0.5112 H   0  0  0  0  0  0  0  0  0  0  0  0
    2.0594   -2.5258    0.0258 H   0  0  0  0  0  0  0  0  0  0  0  0
   -1.4552   -0.2957   -0.6304 H   0  0  0  0  0  0  0  0  0  0  0  0
   -1.4598   -2.1489   -0.8120 H   0  0  0  0  0  0  0  0  0  0  0  0
   -1.4033   -1.2984    0.6910 H   0  0  0  0  0  0  0  0  0  0  0  0
    2.0564    1.3638   -2.1335 H   0  0  0  0  0  0  0  0  0  0  0  0
    0.7604    2.3049   -2.9192 H   0  0  0  0  0  0  0  0  0  0  0  0
    0.4819    1.7274   -1.3887 H   0  0  0  0  0  0  0  0  0  0  0  0
    0.5574   -0.8099   -4.8533 H   0  0  0  0  0  0  0  0  0  0  0  0
    0.5752    0.9631   -4.8684 H   0  0  0  0  0  0  0  0  0  0  0  0
    2.0109    0.0746   -4.3350 H   0  0  0  0  0  0  0  0  0  0  0  0
   -1.4187   -1.9584   -2.8516 H   0  0  0  0  0  0  0  0  0  0  0  0
   -1.3470    2.3486   -2.7524 H   0  0  0  0  0  0  0  0  0  0  0  0
   -3.6392   -1.9072   -2.1616 H   0  0  0  0  0  0  0  0  0  0  0  0
   -3.7467    2.3004   -3.1636 H   0  0  0  0  0  0  0  0  0  0  0  0
    1.5774    0.0810  -40.2379 H   0  0  0  0  0  0  0  0  0  0  0  0
    1.2935   -1.1411  -41.5415 H   0  0  0  0  0  0  0  0  0  0  0  0
    0.5726   -1.4796  -38.9683 H   0  0  0  0  0  0  0  0  0  0  0  0
    2.1141   -2.0566  -39.1452 H   0  0  0  0  0  0  0  0  0  0  0  0
   -1.7043   -3.4233  -39.1697 H   0  0  0  0  0  0  0  0  0  0  0  0
   -1.4310   -2.4302  -40.4852 H   0  0  0  0  0  0  0  0  0  0  0  0
   -1.0907   -1.4586  -37.8526 H   0  0  0  0  0  0  0  0  0  0  0  0
   -2.5654   -1.0347  -38.4034 H   0  0  0  0  0  0  0  0  0  0  0  0
    1.0468    0.7863  -37.2077 H   0  0  0  0  0  0  0  0  0  0  0  0
    1.5633   -0.1096  -38.3877 H   0  0  0  0  0  0  0  0  0  0  0  0
    0.1427   -1.2580  -36.8003 H   0  0  0  0  0  0  0  0  0  0  0  0
    1.9175   -1.7672  -36.5706 H   0  0  0  0  0  0  0  0  0  0  0  0
   -1.7964   -3.8157  -36.2388 H   0  0  0  0  0  0  0  0  0  0  0  0
   -1.9330   -3.0627  -37.5982 H   0  0  0  0  0  0  0  0  0  0  0  0
   -1.2876   -2.0217  -35.7180 H   0  0  0  0  0  0  0  0  0  0  0  0
   -3.0214   -1.4186  -35.9390 H   0  0  0  0  0  0  0  0  0  0  0  0
    0.6818    0.5297  -35.0580 H   0  0  0  0  0  0  0  0  0  0  0  0
    0.9092   -0.8725  -35.5866 H   0  0  0  0  0  0  0  0  0  0  0  0
    0.0957   -0.9028  -34.1147 H   0  0  0  0  0  0  0  0  0  0  0  0
    1.5960   -1.7595  -34.0287 H   0  0  0  0  0  0  0  0  0  0  0  0
   -2.2459   -3.5151  -34.1357 H   0  0  0  0  0  0  0  0  0  0  0  0
   -2.0793   -1.9390  -34.5989 H   0  0  0  0  0  0  0  0  0  0  0  0
   -1.9238   -2.1369  -33.0545 H   0  0  0  0  0  0  0  0  0  0  0  0
   -3.3434   -1.2248  -33.3876 H   0  0  0  0  0  0  0  0  0  0  0  0
    0.4364    0.5639  -32.5758 H   0  0  0  0  0  0  0  0  0  0  0  0
    0.4348   -1.0536  -32.8698 H   0  0  0  0  0  0  0  0  0  0  0  0
   -0.1531   -0.7806  -31.5286 H   0  0  0  0  0  0  0  0  0  0  0  0
    1.3262   -1.7105  -31.4907 H   0  0  0  0  0  0  0  0  0  0  0  0
   -2.5490   -3.4755  -31.6385 H   0  0  0  0  0  0  0  0  0  0  0  0
   -2.3396   -1.7910  -31.9124 H   0  0  0  0  0  0  0  0  0  0  0  0
   -2.2796   -2.1342  -30.5018 H   0  0  0  0  0  0  0  0  0  0  0  0
   -3.6823   -1.1831  -30.8828 H   0  0  0  0  0  0  0  0  0  0  0  0
    0.1237    0.5991  -30.0958 H   0  0  0  0  0  0  0  0  0  0  0  0
   -0.0055   -1.0999  -30.3288 H   0  0  0  0  0  0  0  0  0  0  0  0
   -0.4216   -0.6998  -29.0098 H   0  0  0  0  0  0  0  0  0  0  0  0
    1.0298   -1.6686  -29.0109 H   0  0  0  0  0  0  0  0  0  0  0  0
   -2.8629   -3.4376  -29.1577 H   0  0  0  0  0  0  0  0  0  0  0  0
   -2.6446   -1.7291  -29.3901 H   0  0  0  0  0  0  0  0  0  0  0  0
   -2.6103   -2.1098  -28.0067 H   0  0  0  0  0  0  0  0  0  0  0  0
   -4.0056   -1.1417  -28.4092 H   0  0  0  0  0  0  0  0  0  0  0  0
   -0.1915    0.6385  -27.6260 H   0  0  0  0  0  0  0  0  0  0  0  0
   -0.3556   -1.0836  -27.8447 H   0  0  0  0  0  0  0  0  0  0  0  0
   -0.7280   -0.6493  -26.5295 H   0  0  0  0  0  0  0  0  0  0  0  0
    0.7199   -1.6288  -26.5442 H   0  0  0  0  0  0  0  0  0  0  0  0
   -3.1775   -3.3984  -26.6902 H   0  0  0  0  0  0  0  0  0  0  0  0
   -2.9532   -1.6808  -26.9122 H   0  0  0  0  0  0  0  0  0  0  0  0
   -2.9297   -2.0759  -25.5340 H   0  0  0  0  0  0  0  0  0  0  0  0
   -4.3228   -1.1017  -25.9446 H   0  0  0  0  0  0  0  0  0  0  0  0
   -0.5060    0.6782  -25.1620 H   0  0  0  0  0  0  0  0  0  0  0  0
   -0.6759   -1.0485  -25.3773 H   0  0  0  0  0  0  0  0  0  0  0  0
   -1.0409   -0.6070  -24.0627 H   0  0  0  0  0  0  0  0  0  0  0  0
    0.4066   -1.5894  -24.0811 H   0  0  0  0  0  0  0  0  0  0  0  0
   -3.4919   -3.3590  -24.2270 H   0  0  0  0  0  0  0  0  0  0  0  0
   -3.2657   -1.6388  -24.4464 H   0  0  0  0  0  0  0  0  0  0  0  0
   -3.2459   -2.0382  -23.0693 H   0  0  0  0  0  0  0  0  0  0  0  0
   -4.6378   -1.0621  -23.4821 H   0  0  0  0  0  0  0  0  0  0  0  0
   -0.8204    0.7176  -22.6997 H   0  0  0  0  0  0  0  0  0  0  0  0
   -0.9917   -1.0100  -22.9142 H   0  0  0  0  0  0  0  0  0  0  0  0
   -1.3546   -0.5668  -21.5996 H   0  0  0  0  0  0  0  0  0  0  0  0
    0.0926   -1.5500  -21.6190 H   0  0  0  0  0  0  0  0  0  0  0  0
   -3.8061   -3.3195  -21.7649 H   0  0  0  0  0  0  0  0  0  0  0  0
   -3.5788   -1.5984  -21.9835 H   0  0  0  0  0  0  0  0  0  0  0  0
   -3.5618   -1.9996  -20.6069 H   0  0  0  0  0  0  0  0  0  0  0  0
   -4.9523   -1.0226  -21.0202 H   0  0  0  0  0  0  0  0  0  0  0  0
   -1.1348    0.7570  -20.2377 H   0  0  0  0  0  0  0  0  0  0  0  0
   -1.3068   -0.9709  -20.4518 H   0  0  0  0  0  0  0  0  0  0  0  0
   -1.6683   -0.5271  -19.1370 H   0  0  0  0  0  0  0  0  0  0  0  0
   -0.2217   -1.5105  -19.1569 H   0  0  0  0  0  0  0  0  0  0  0  0
   -4.1203   -3.2799  -19.3030 H   0  0  0  0  0  0  0  0  0  0  0  0
   -3.8913   -1.5582  -19.5208 H   0  0  0  0  0  0  0  0  0  0  0  0
   -3.8791   -1.9612  -18.1444 H   0  0  0  0  0  0  0  0  0  0  0  0
   -5.2668   -0.9831  -18.5582 H   0  0  0  0  0  0  0  0  0  0  0  0
   -1.4493    0.7962  -17.7755 H   0  0  0  0  0  0  0  0  0  0  0  0
   -1.6224   -0.9312  -17.9882 H   0  0  0  0  0  0  0  0  0  0  0  0
   -1.9817   -0.4880  -16.6725 H   0  0  0  0  0  0  0  0  0  0  0  0
   -0.5361   -1.4709  -16.6942 H   0  0  0  0  0  0  0  0  0  0  0  0
   -4.4340   -3.2397  -16.8407 H   0  0  0  0  0  0  0  0  0  0  0  0
   -4.2015   -1.5177  -17.0555 H   0  0  0  0  0  0  0  0  0  0  0  0
   -4.2023   -1.9243  -15.6797 H   0  0  0  0  0  0  0  0  0  0  0  0
   -5.5813   -0.9436  -16.0953 H   0  0  0  0  0  0  0  0  0  0  0  0
   -1.7645    0.8342  -15.3115 H   0  0  0  0  0  0  0  0  0  0  0  0
   -1.9413   -0.8901  -15.5184 H   0  0  0  0  0  0  0  0  0  0  0  0
   -2.2908   -0.4498  -14.1974 H   0  0  0  0  0  0  0  0  0  0  0  0
   -0.8510   -1.4308  -14.2282 H   0  0  0  0  0  0  0  0  0  0  0  0
   -4.7459   -3.1974  -14.3763 H   0  0  0  0  0  0  0  0  0  0  0  0
   -4.5030   -1.4758  -14.5804 H   0  0  0  0  0  0  0  0  0  0  0  0
   -4.5471   -1.8922  -13.2058 H   0  0  0  0  0  0  0  0  0  0  0  0
   -5.8962   -0.9035  -13.6291 H   0  0  0  0  0  0  0  0  0  0  0  0
   -2.0841    0.8677  -12.8415 H   0  0  0  0  0  0  0  0  0  0  0  0
   -2.2816   -0.8494  -13.0270 H   0  0  0  0  0  0  0  0  0  0  0  0
   -2.5335   -0.3955  -11.6608 H   0  0  0  0  0  0  0  0  0  0  0  0
   -1.1643   -1.3905  -11.7503 H   0  0  0  0  0  0  0  0  0  0  0  0
   -5.0549   -3.1490  -11.9021 H   0  0  0  0  0  0  0  0  0  0  0  0
   -4.7848   -1.4309  -12.0793 H   0  0  0  0  0  0  0  0  0  0  0  0
   -4.8964   -1.8489  -10.6904 H   0  0  0  0  0  0  0  0  0  0  0  0
   -6.2127   -0.8666  -11.1540 H   0  0  0  0  0  0  0  0  0  0  0  0
   -2.4361    0.8793  -10.3520 H   0  0  0  0  0  0  0  0  0  0  0  0
   -2.7718   -0.8295  -10.4845 H   0  0  0  0  0  0  0  0  0  0  0  0
   -2.4334   -0.3825   -8.9112 H   0  0  0  0  0  0  0  0  0  0  0  0
   -1.4534   -1.3988   -9.3092 H   0  0  0  0  0  0  0  0  0  0  0  0
   -5.3781   -3.0977   -9.3955 H   0  0  0  0  0  0  0  0  0  0  0  0
   -5.1086   -1.3969   -9.5243 H   0  0  0  0  0  0  0  0  0  0  0  0
   -5.2513   -1.7784   -8.0270 H   0  0  0  0  0  0  0  0  0  0  0  0
   -6.5533   -0.8516   -8.6426 H   0  0  0  0  0  0  0  0  0  0  0  0
   -2.7892    0.9093   -7.8806 H   0  0  0  0  0  0  0  0  0  0  0  0
   -3.5826   -0.8009   -8.0048 H   0  0  0  0  0  0  0  0  0  0  0  0
   -2.2452   -0.4286   -6.2777 H   0  0  0  0  0  0  0  0  0  0  0  0
   -1.6399   -1.5251   -7.0162 H   0  0  0  0  0  0  0  0  0  0  0  0
   -5.7804   -2.9935   -6.8508 H   0  0  0  0  0  0  0  0  0  0  0  0
   -5.1891   -1.2988   -6.7846 H   0  0  0  0  0  0  0  0  0  0  0  0
   -6.7090   -0.8644   -5.0390 H   0  0  0  0  0  0  0  0  0  0  0  0
   -7.0030   -0.5891   -6.5898 H   0  0  0  0  0  0  0  0  0  0  0  0
   -3.2574    0.9167   -5.3703 H   0  0  0  0  0  0  0  0  0  0  0  0
   -4.0406   -0.5068   -5.9506 H   0  0  0  0  0  0  0  0  0  0  0  0
   -3.7407   -0.7845   -3.8794 H   0  0  0  0  0  0  0  0  0  0  0  0
   -2.2409   -1.2723   -4.7389 H   0  0  0  0  0  0  0  0  0  0  0  0
   -5.9519   -3.1124   -4.3073 H   0  0  0  0  0  0  0  0  0  0  0  0
   -5.3206   -1.6889   -4.5679 H   0  0  0  0  0  0  0  0  0  0  0  0
   -5.9646   -1.6203   -1.9574 H   0  0  0  0  0  0  0  0  0  0  0  0
   -6.9032   -1.0098   -3.3031 H   0  0  0  0  0  0  0  0  0  0  0  0
    2.0166   -1.1498   -2.1249 H   0  0  0  0  0  0  0  0  0  0  0  0
    0.6303   -2.0443   -2.6186 H   0  0  0  0  0  0  0  0  0  0  0  0
   -0.9749   -0.8411  -40.9249 H   0  0  0  0  0  0  0  0  0  0  0  0
  1106  1  0  0  0  0
  1107  1  0  0  0  0
  1108  1  0  0  0  0
  2109  1  0  0  0  0
  2110  1  0  0  0  0
  2111  1  0  0  0  0
  3112  1  0  0  0  0
  3113  1  0  0  0  0
  3114  1  0  0  0  0
  4115  1  0  0  0  0
  4116  1  0  0  0  0
  4117  1  0  0  0  0
  5118  1  0  0  0  0
  5119  1  0  0  0  0
  5120  1  0  0  0  0
  6121  1  0  0  0  0
  7122  1  0  0  0  0
  8  6  1  0  0  0  0
  8123  1  0  0  0  0
  9  7  2  0  0  0  0
  9124  1  0  0  0  0
 10125  1  0  0  0  0
 10126  1  0  0  0  0
 11 10  1  0  0  0  0
 11127  1  0  0  0  0
 11128  1  0  0  0  0
 12129  1  0  0  0  0
 12130  1  0  0  0  0
 13 12  1  0  0  0  0
 13131  1  0  0  0  0
 13132  1  0  0  0  0
 14133  1  0  0  0  0
 14134  1  0  0  0  0
 15 14  1  0  0  0  0
 15135  1  0  0  0  0
 15136  1  0  0  0  0
 16137  1  0  0  0  0
 16138  1  0  0  0  0
 17 16  1  0  0  0  0
 17139  1  0  0  0  0
 17140  1  0  0  0  0
 18141  1  0  0  0  0
 18142  1  0  0  0  0
 19 18  1  0  0  0  0
 19143  1  0  0  0  0
 19144  1  0  0  0  0
 20145  1  0  0  0  0
 20146  1  0  0  0  0
 21 20  1  0  0  0  0
 21147  1  0  0  0  0
 21148  1  0  0  0  0
 22149  1  0  0  0  0
 22150  1  0  0  0  0
 23 22  1  0  0  0  0
 23151  1  0  0  0  0
 23152  1  0  0  0  0
 24153  1  0  0  0  0
 24154  1  0  0  0  0
 25 24  1  0  0  0  0
 25155  1  0  0  0  0
 25156  1  0  0  0  0
 26157  1  0  0  0  0
 26158  1  0  0  0  0
 27 26  1  0  0  0  0
 27159  1  0  0  0  0
 27160  1  0  0  0  0
 28161  1  0  0  0  0
 28162  1  0  0  0  0
 29 28  1  0  0  0  0
 29163  1  0  0  0  0
 29164  1  0  0  0  0
 30165  1  0  0  0  0
 30166  1  0  0  0  0
 31 30  1  0  0  0  0
 31167  1  0  0  0  0
 31168  1  0  0  0  0
 32169  1  0  0  0  0
 32170  1  0  0  0  0
 33 32  1  0  0  0  0
 33171  1  0  0  0  0
 33172  1  0  0  0  0
 34173  1  0  0  0  0
 34174  1  0  0  0  0
 35 34  1  0  0  0  0
 35175  1  0  0  0  0
 35176  1  0  0  0  0
 36177  1  0  0  0  0
 36178  1  0  0  0  0
 37 36  1  0  0  0  0
 37179  1  0  0  0  0
 37180  1  0  0  0  0
 38181  1  0  0  0  0
 38182  1  0  0  0  0
 39 38  1  0  0  0  0
 39183  1  0  0  0  0
 39184  1  0  0  0  0
 40185  1  0  0  0  0
 40186  1  0  0  0  0
 41 40  1  0  0  0  0
 41187  1  0  0  0  0
 41188  1  0  0  0  0
 42189  1  0  0  0  0
 42190  1  0  0  0  0
 43 42  1  0  0  0  0
 43191  1  0  0  0  0
 43192  1  0  0  0  0
 44193  1  0  0  0  0
 44194  1  0  0  0  0
 45 44  1  0  0  0  0
 45195  1  0  0  0  0
 45196  1  0  0  0  0
 46197  1  0  0  0  0
 46198  1  0  0  0  0
 47 46  1  0  0  0  0
 47199  1  0  0  0  0
 47200  1  0  0  0  0
 48201  1  0  0  0  0
 48202  1  0  0  0  0
 49 48  1  0  0  0  0
 49203  1  0  0  0  0
 49204  1  0  0  0  0
 50205  1  0  0  0  0
 50206  1  0  0  0  0
 51 50  1  0  0  0  0
 51207  1  0  0  0  0
 51208  1  0  0  0  0
 52209  1  0  0  0  0
 52210  1  0  0  0  0
 53 52  1  0  0  0  0
 53211  1  0  0  0  0
 53212  1  0  0  0  0
 54213  1  0  0  0  0
 54214  1  0  0  0  0
 55 54  1  0  0  0  0
 55215  1  0  0  0  0
 55216  1  0  0  0  0
 56217  1  0  0  0  0
 56218  1  0  0  0  0
 57 56  1  0  0  0  0
 57219  1  0  0  0  0
 57220  1  0  0  0  0
 58221  1  0  0  0  0
 58222  1  0  0  0  0
 59 58  1  0  0  0  0
 59223  1  0  0  0  0
 59224  1  0  0  0  0
 60225  1  0  0  0  0
 60226  1  0  0  0  0
 61 60  1  0  0  0  0
 61227  1  0  0  0  0
 61228  1  0  0  0  0
 62229  1  0  0  0  0
 62230  1  0  0  0  0
 63 62  1  0  0  0  0
 63231  1  0  0  0  0
 63232  1  0  0  0  0
 64233  1  0  0  0  0
 64234  1  0  0  0  0
 65 64  1  0  0  0  0
 65235  1  0  0  0  0
 65236  1  0  0  0  0
 66237  1  0  0  0  0
 66238  1  0  0  0  0
 67 66  1  0  0  0  0
 67239  1  0  0  0  0
 67240  1  0  0  0  0
 68241  1  0  0  0  0
 68242  1  0  0  0  0
 69 68  1  0  0  0  0
 69243  1  0  0  0  0
 69244  1  0  0  0  0
 70245  1  0  0  0  0
 70246  1  0  0  0  0
 71  6  2  0  0  0  0
 71  7  1  0  0  0  0
 72  8  2  0  0  0  0
 72  9  1  0  0  0  0
 73  1  1  0  0  0  0
 73  2  1  0  0  0  0
 73  3  1  0  0  0  0
 73 70  1  0  0  0  0
 74  4  1  0  0  0  0
 74  5  1  0  0  0  0
 74 70  1  0  0  0  0
 74 71  1  0  0  0  0
 75 10  1  0  0  0  0
 75247  1  0  0  0  0
 76 11  1  0  0  0  0
 76 12  1  0  0  0  0
 77 13  1  0  0  0  0
 77 14  1  0  0  0  0
 78 15  1  0  0  0  0
 78 16  1  0  0  0  0
 79 17  1  0  0  0  0
 79 18  1  0  0  0  0
 80 19  1  0  0  0  0
 80 20  1  0  0  0  0
 81 21  1  0  0  0  0
 81 22  1  0  0  0  0
 82 23  1  0  0  0  0
 82 24  1  0  0  0  0
 83 25  1  0  0  0  0
 83 26  1  0  0  0  0
 84 27  1  0  0  0  0
 84 28  1  0  0  0  0
 85 29  1  0  0  0  0
 85 30  1  0  0  0  0
 86 31  1  0  0  0  0
 86 32  1  0  0  0  0
 87 33  1  0  0  0  0
 87 34  1  0  0  0  0
 88 35  1  0  0  0  0
 88 36  1  0  0  0  0
 89 37  1  0  0  0  0
 89 38  1  0  0  0  0
 90 39  1  0  0  0  0
 90 40  1  0  0  0  0
 91 41  1  0  0  0  0
 91 42  1  0  0  0  0
 92 43  1  0  0  0  0
 92 44  1  0  0  0  0
 93 45  1  0  0  0  0
 93 46  1  0  0  0  0
 94 47  1  0  0  0  0
 94 48  1  0  0  0  0
 95 49  1  0  0  0  0
 95 50  1  0  0  0  0
 96 51  1  0  0  0  0
 96 52  1  0  0  0  0
 97 53  1  0  0  0  0
 97 54  1  0  0  0  0
 98 55  1  0  0  0  0
 98 56  1  0  0  0  0
 99 57  1  0  0  0  0
 99 58  1  0  0  0  0
100 59  1  0  0  0  0
100 60  1  0  0  0  0
101 61  1  0  0  0  0
101 62  1  0  0  0  0
102 63  1  0  0  0  0
102 64  1  0  0  0  0
103 65  1  0  0  0  0
103 66  1  0  0  0  0
104 67  1  0  0  0  0
104 68  1  0  0  0  0
105 69  1  0  0  0  0
105 72  1  0  0  0  0
M  END
>  <DRUGBANK_ID>
DB04682

>  <COMMON_NAME>
Octylphenoxy polyethoxyethanol

>  <CAS_NUMBER>
9036-19-5

>  <UNII>
9T1C662FKS

$$$$
