
 OpenBabel10282417123D

 55 56  0  0  1  0  0  0  0  0999 V2000
    0.2096   -0.2560   -0.6034 C   0  0  0  0  0  0  0  0  0  0  0  0
    0.6076   -1.6477   -0.3657 O   0  0  0  0  0  0  0  0  0  0  0  0
    1.3014   -2.3867   -1.2862 C   0  0  0  0  0  0  0  0  0  0  0  0
    0.3532   -2.9974   -2.0532 C   0  0  0  0  0  0  0  0  0  0  0  0
    0.6541   -3.9188   -3.0249 C   0  0  0  0  0  0  0  0  0  0  0  0
   -0.4392   -4.7998   -3.5541 C   0  0  0  0  0  0  0  0  0  0  0  0
   -1.1132   -5.7091   -2.5300 C   0  0  0  0  0  0  0  0  0  0  0  0
   -1.0073   -7.0877   -2.6589 C   0  0  0  0  0  0  0  0  0  0  0  0
   -1.6844   -7.8920   -1.8313 N   0  3  0  0  0  0  0  0  0  0  0  0
   -2.3982   -7.3903   -0.8295 C   0  0  0  0  0  0  0  0  0  0  0  0
   -3.1634   -8.2177   -0.0621 N   0  0  0  0  0  0  0  0  0  0  0  0
   -2.4874   -6.0933   -0.5824 N   0  0  0  0  0  0  0  0  0  0  0  0
   -1.9126   -5.2698   -1.4689 C   0  0  0  0  0  0  0  0  0  0  0  0
   -2.3717   -3.9904   -1.3480 N   0  0  0  0  0  0  0  0  0  0  0  0
    1.9737   -3.9094   -3.4840 C   0  0  0  0  0  0  0  0  0  0  0  0
    2.9667   -3.2021   -2.7999 C   0  0  0  0  0  0  0  0  0  0  0  0
    4.1504   -2.9862   -3.4616 O   0  0  0  0  0  0  0  0  0  0  0  0
    5.0569   -1.9763   -2.9429 C   0  0  0  0  0  0  0  0  0  0  0  0
    4.4900   -0.5127   -2.7186 C   0  0  0  0  0  0  0  0  0  0  0  0
    3.1490   -0.1297   -1.8827 C   0  0  0  0  0  0  0  0  0  0  0  0
    3.0471   -0.2061   -0.1546 C   0  0  1  0  0  0  0  0  0  0  0  0
    4.1222    0.6832    0.3793 C   0  0  0  0  0  0  0  0  0  0  0  0
    3.7148    2.1130    0.0764 C   0  0  0  0  0  0  0  0  0  0  0  0
    2.4549    2.8057    0.6542 C   0  0  0  0  0  0  0  0  0  0  0  0
    2.6024    3.2524    1.8319 O   0  5  0  0  0  0  0  0  0  0  0  0
    1.5493    3.0565   -0.2096 O   0  0  0  0  0  0  0  0  0  0  0  0
    2.0814   -0.3625    1.2524 C   0  0  0  0  0  0  0  0  0  0  0  0
    1.9696   -1.5738    1.7162 O   0  5  0  0  0  0  0  0  0  0  0  0
    1.4991    0.6286    1.6826 O   0  0  0  0  0  0  0  0  0  0  0  0
    2.6510   -2.7882   -1.5101 C   0  0  0  0  0  0  0  0  0  0  0  0
    4.1134   -3.2442   -0.2320 Br  0  0  0  0  0  0  0  0  0  0  0  0
   -0.3102    0.0729    0.3086 H   0  0  0  0  0  0  0  0  0  0  0  0
   -0.4171    0.0126   -1.4564 H   0  0  0  0  0  0  0  0  0  0  0  0
    1.0694    0.3836   -0.7414 H   0  0  0  0  0  0  0  0  0  0  0  0
   -0.6280   -2.7659   -1.7031 H   0  0  0  0  0  0  0  0  0  0  0  0
   -1.2103   -4.1929   -4.0415 H   0  0  0  0  0  0  0  0  0  0  0  0
    0.0061   -5.4130   -4.3457 H   0  0  0  0  0  0  0  0  0  0  0  0
   -0.4477   -7.5759   -3.4488 H   0  0  0  0  0  0  0  0  0  0  0  0
   -1.6934   -8.8944   -1.9507 H   0  0  0  0  0  0  0  0  0  0  0  0
   -3.7003   -7.7250    0.6490 H   0  0  0  0  0  0  0  0  0  0  0  0
   -3.2642   -9.2103   -0.1508 H   0  0  0  0  0  0  0  0  0  0  0  0
   -2.4353   -3.6303   -0.3950 H   0  0  0  0  0  0  0  0  0  0  0  0
   -2.1995   -3.3132   -2.0714 H   0  0  0  0  0  0  0  0  0  0  0  0
    2.2595   -4.4816   -4.3546 H   0  0  0  0  0  0  0  0  0  0  0  0
    5.6435   -2.4096   -2.1290 H   0  0  0  0  0  0  0  0  0  0  0  0
    5.8810   -1.9057   -3.6853 H   0  0  0  0  0  0  0  0  0  0  0  0
    5.3048    0.1422   -2.3849 H   0  0  0  0  0  0  0  0  0  0  0  0
    4.2983   -0.1699   -3.7543 H   0  0  0  0  0  0  0  0  0  0  0  0
    2.8869    0.8974   -2.1656 H   0  0  0  0  0  0  0  0  0  0  0  0
    2.3217   -0.6073   -2.4219 H   0  0  0  0  0  0  0  0  0  0  0  0
    3.3351   -1.1934    0.0265 H   0  0  0  0  0  0  0  0  0  0  0  0
    4.3062    0.4848    1.4409 H   0  0  0  0  0  0  0  0  0  0  0  0
    5.0593    0.4309   -0.1328 H   0  0  0  0  0  0  0  0  0  0  0  0
    4.5550    2.7308    0.3774 H   0  0  0  0  0  0  0  0  0  0  0  0
    3.6489    2.2304   -1.0087 H   0  0  0  0  0  0  0  0  0  0  0  0
  1  2  1  0  0  0  0
  1 32  1  0  0  0  0
  1 33  1  0  0  0  0
  1 34  1  0  0  0  0
  2  3  1  0  0  0  0
  3  4  2  0  0  0  0
  3 30  1  0  0  0  0
  4  5  1  0  0  0  0
  4 35  1  0  0  0  0
  5  6  1  0  0  0  0
  5 15  2  0  0  0  0
  6  7  1  0  0  0  0
  6 36  1  0  0  0  0
  6 37  1  0  0  0  0
  7  8  2  0  0  0  0
  7 13  1  0  0  0  0
  8  9  1  0  0  0  0
  8 38  1  0  0  0  0
  9 10  2  0  0  0  0
  9 39  1  0  0  0  0
 10 11  1  0  0  0  0
 10 12  1  0  0  0  0
 11 40  1  0  0  0  0
 11 41  1  0  0  0  0
 12 13  2  0  0  0  0
 13 14  1  0  0  0  0
 14 42  1  0  0  0  0
 14 43  1  0  0  0  0
 15 16  1  0  0  0  0
 15 44  1  0  0  0  0
 16 17  1  0  0  0  0
 16 30  2  0  0  0  0
 17 18  1  0  0  0  0
 18 19  1  0  0  0  0
 18 45  1  0  0  0  0
 18 46  1  0  0  0  0
 19 20  1  0  0  0  0
 19 47  1  0  0  0  0
 19 48  1  0  0  0  0
 20 21  1  0  0  0  0
 20 49  1  0  0  0  0
 20 50  1  0  0  0  0
 21 22  1  0  0  0  0
 21 27  1  0  0  0  0
 21 51  1  1  0  0  0
 22 23  1  0  0  0  0
 22 52  1  0  0  0  0
 22 53  1  0  0  0  0
 23 24  1  0  0  0  0
 23 54  1  0  0  0  0
 23 55  1  0  0  0  0
 24 25  1  0  0  0  0
 24 26  2  0  0  0  0
 27 28  1  0  0  0  0
 27 29  2  0  0  0  0
 30 31  1  0  0  0  0
M  CHG  3   9   1  25  -1  28  -1
M  END
>  <DRUGBANK_ID>
DB02809

>  <SECONDARY_ACCESSION_NUMBERS>
EXPT00651

>  <COMMON_NAME>
Brodimoprim-4,6-Dicarboxylate

$$$$
