LJ2
 OpenBabel10282417173D

 27 28  0  0  0  0  0  0  0  0999 V2000
   -1.1781   -1.9522    0.0164 C   0  0  0  0  0  0  0  0  0  0  0  0
   -1.2059   -0.5504    0.0077 C   0  0  0  0  0  0  0  0  0  0  0  0
   -2.8837    0.3358   -0.0097 Br  0  0  0  0  0  0  0  0  0  0  0  0
   -0.0186    0.1856    0.0197 C   0  0  0  0  0  0  0  0  0  0  0  0
   -0.0257    1.5545    0.0494 O   0  0  0  0  0  0  0  0  0  0  0  0
    1.1985   -0.4890    0.0079 C   0  0  0  0  0  0  0  0  0  0  0  0
    2.8551    0.4358   -0.0075 Br  0  0  0  0  0  0  0  0  0  0  0  0
    1.2278   -1.8857    0.0170 C   0  0  0  0  0  0  0  0  0  0  0  0
    0.0457   -2.6403    0.0467 C   0  0  0  0  0  0  0  0  0  0  0  0
    0.0529   -4.1157    0.1206 C   0  0  0  0  0  0  0  0  0  0  0  0
    1.1618   -4.8765    0.2019 C   0  0  0  0  0  0  0  0  0  0  0  0
    1.1667   -6.3430    0.2426 C   0  0  0  0  0  0  0  0  0  0  0  0
    0.3505   -7.0936   -0.6098 C   0  0  0  0  0  0  0  0  0  0  0  0
    0.4482   -8.4849   -0.6390 C   0  0  0  0  0  0  0  0  0  0  0  0
    1.3835   -9.1363    0.1626 C   0  0  0  0  0  0  0  0  0  0  0  0
    2.2198   -8.3974    0.9971 C   0  0  0  0  0  0  0  0  0  0  0  0
    2.0961   -7.0073    1.0555 C   0  0  0  0  0  0  0  0  0  0  0  0
   -2.1160   -2.5046    0.0096 H   0  0  0  0  0  0  0  0  0  0  0  0
   -0.9512    1.8533    0.0906 H   0  0  0  0  0  0  0  0  0  0  0  0
    2.1971   -2.3737    0.0091 H   0  0  0  0  0  0  0  0  0  0  0  0
   -0.9226   -4.5976    0.1290 H   0  0  0  0  0  0  0  0  0  0  0  0
    2.1564   -4.4445    0.2184 H   0  0  0  0  0  0  0  0  0  0  0  0
   -0.3508   -6.5992   -1.2769 H   0  0  0  0  0  0  0  0  0  0  0  0
   -0.1921   -9.0559   -1.3055 H   0  0  0  0  0  0  0  0  0  0  0  0
    1.4642  -10.2195    0.1315 H   0  0  0  0  0  0  0  0  0  0  0  0
    2.9760   -8.9024    1.5929 H   0  0  0  0  0  0  0  0  0  0  0  0
    2.7355   -6.4493    1.7365 H   0  0  0  0  0  0  0  0  0  0  0  0
  1  2  2  0  0  0  0
  1  9  1  0  0  0  0
  1 18  1  0  0  0  0
  2  3  1  0  0  0  0
  2  4  1  0  0  0  0
  4  5  1  0  0  0  0
  4  6  2  0  0  0  0
  5 19  1  0  0  0  0
  6  7  1  0  0  0  0
  6  8  1  0  0  0  0
  8  9  2  0  0  0  0
  8 20  1  0  0  0  0
  9 10  1  0  0  0  0
 10 11  2  0  0  0  0
 10 21  1  0  0  0  0
 11 12  1  0  0  0  0
 11 22  1  0  0  0  0
 12 13  2  0  0  0  0
 12 17  1  0  0  0  0
 13 14  1  0  0  0  0
 13 23  1  0  0  0  0
 14 15  2  0  0  0  0
 14 24  1  0  0  0  0
 15 16  1  0  0  0  0
 15 25  1  0  0  0  0
 16 17  2  0  0  0  0
 16 26  1  0  0  0  0
 17 27  1  0  0  0  0
M  END
>  <DRUGBANK_ID>
DB08101

>  <COMMON_NAME>
2,6-dibromo-4-[(E)-2-phenylethenyl]phenol

$$$$
