
 OpenBabel10282417113D

 55 58  0  0  0  0  0  0  0  0999 V2000
   -4.2784    2.7786    3.1353 C   0  0  0  0  0  0  0  0  0  0  0  0
   -3.4803    3.3809    2.1671 C   0  0  0  0  0  0  0  0  0  0  0  0
   -3.0397    2.6454    1.0662 C   0  0  0  0  0  0  0  0  0  0  0  0
   -3.3851    1.2921    0.9161 C   0  0  0  0  0  0  0  0  0  0  0  0
   -4.1366    0.6817    1.9363 C   0  0  0  0  0  0  0  0  0  0  0  0
   -4.6205    1.4335    3.0129 C   0  0  0  0  0  0  0  0  0  0  0  0
    0.8603   -0.1650   -1.1380 C   0  0  2  0  0  0  0  0  0  0  0  0
    1.6967    0.0989   -2.4092 C   0  0  0  0  0  0  0  0  0  0  0  0
    2.2396   -1.1570   -2.3732 N   0  0  0  0  0  0  0  0  0  0  0  0
    1.3850   -1.6070   -1.2570 C   0  0  2  0  0  0  0  0  0  0  0  0
    2.2884   -1.9721   -3.5911 C   0  0  2  0  0  0  0  0  0  0  0  0
    1.6582   -3.3334   -3.2293 C   0  0  0  0  0  0  0  0  0  0  0  0
    0.3258   -2.8921   -2.0091 S   0  0  0  0  0  0  0  0  0  0  0  0
    0.9735   -4.0130   -4.4138 C   0  0  0  0  0  0  0  0  0  0  0  0
    2.6409   -4.3000   -2.5526 C   0  0  0  0  0  0  0  0  0  0  0  0
    3.7383   -2.0760   -4.0863 C   0  0  0  0  0  0  0  0  0  0  0  0
    3.8797   -2.2384   -5.4244 O   0  0  0  0  0  0  0  0  0  0  0  0
    4.7162   -2.0880   -3.3493 O   0  0  0  0  0  0  0  0  0  0  0  0
   -0.6079    0.0431   -1.2289 N   0  0  0  0  0  0  0  0  0  0  0  0
   -1.3450    0.2161   -0.0773 C   0  0  0  0  0  0  0  0  0  0  0  0
   -0.8173    0.0779    1.0276 O   0  0  0  0  0  0  0  0  0  0  0  0
   -2.8611    0.4835   -0.2688 C   0  0  2  0  0  0  0  0  0  0  0  0
   -3.1249    1.1617   -1.5506 N   0  0  0  0  0  0  0  0  0  0  0  0
   -3.9864    0.6996   -2.5203 C   0  0  0  0  0  0  0  0  0  0  0  0
   -4.5676   -0.3770   -2.4389 O   0  0  0  0  0  0  0  0  0  0  0  0
    1.7721    0.9585   -3.2514 O   0  0  0  0  0  0  0  0  0  0  0  0
    1.9589   -1.9560   -0.3934 H   0  0  0  0  0  0  0  0  0  0  0  0
   -3.3525   -0.4960   -0.2907 H   0  0  0  0  0  0  0  0  0  0  0  0
   -3.6519    2.8607   -5.3684 N   0  0  0  0  0  0  0  0  0  0  0  0
   -3.0956    2.1520   -4.3045 C   0  0  0  0  0  0  0  0  0  0  0  0
   -4.1541    1.5755   -3.5766 N   0  0  0  0  0  0  0  0  0  0  0  0
   -5.3389    1.6249   -4.4234 C   0  0  0  0  0  0  0  0  0  0  0  0
   -5.0839    2.8741   -5.2566 C   0  0  0  0  0  0  0  0  0  0  0  0
   -1.9033    2.0795   -4.0627 O   0  0  0  0  0  0  0  0  0  0  0  0
   -4.6122    3.3520    3.9962 H   0  0  0  0  0  0  0  0  0  0  0  0
   -3.1928    4.4237    2.2692 H   0  0  0  0  0  0  0  0  0  0  0  0
   -2.3874    3.1295    0.3446 H   0  0  0  0  0  0  0  0  0  0  0  0
   -4.3285   -0.3900    1.9211 H   0  0  0  0  0  0  0  0  0  0  0  0
   -5.2559    0.9683    3.7632 H   0  0  0  0  0  0  0  0  0  0  0  0
    1.2805    0.3723   -0.2767 H   0  0  0  0  0  0  0  0  0  0  0  0
    1.7014   -1.4574   -4.3651 H   0  0  0  0  0  0  0  0  0  0  0  0
    1.7036   -4.3038   -5.1755 H   0  0  0  0  0  0  0  0  0  0  0  0
    0.4480   -4.9244   -4.1007 H   0  0  0  0  0  0  0  0  0  0  0  0
    0.2392   -3.3543   -4.8918 H   0  0  0  0  0  0  0  0  0  0  0  0
    2.1420   -5.2068   -2.1944 H   0  0  0  0  0  0  0  0  0  0  0  0
    3.4152   -4.6218   -3.2591 H   0  0  0  0  0  0  0  0  0  0  0  0
    3.1531   -3.8389   -1.7002 H   0  0  0  0  0  0  0  0  0  0  0  0
    3.0754   -2.1869   -5.9730 H   0  0  0  0  0  0  0  0  0  0  0  0
   -1.0827    0.1113   -2.1259 H   0  0  0  0  0  0  0  0  0  0  0  0
   -2.7203    2.0783   -1.6907 H   0  0  0  0  0  0  0  0  0  0  0  0
   -3.0806    3.4025   -6.0055 H   0  0  0  0  0  0  0  0  0  0  0  0
   -6.2616    1.6598   -3.8390 H   0  0  0  0  0  0  0  0  0  0  0  0
   -5.3602    0.7407   -5.0746 H   0  0  0  0  0  0  0  0  0  0  0  0
   -5.3689    3.7809   -4.7082 H   0  0  0  0  0  0  0  0  0  0  0  0
   -5.5564    2.8807   -6.2414 H   0  0  0  0  0  0  0  0  0  0  0  0
  1  2  2  0  0  0  0
  1 35  1  0  0  0  0
  2  3  1  0  0  0  0
  2 36  1  0  0  0  0
  3 37  1  0  0  0  0
  4  5  1  0  0  0  0
  4  3  2  0  0  0  0
  5  6  2  0  0  0  0
  5 38  1  0  0  0  0
  6  1  1  0  0  0  0
  6 39  1  0  0  0  0
  7  8  1  0  0  0  0
  7 19  1  0  0  0  0
  7 40  1  1  0  0  0
  8  9  1  0  0  0  0
  8 26  2  0  0  0  0
  9 11  1  0  0  0  0
 10  9  1  0  0  0  0
 10  7  1  0  0  0  0
 10 13  1  0  0  0  0
 10 27  1  1  0  0  0
 11 12  1  0  0  0  0
 11 41  1  6  0  0  0
 11 16  1  0  0  0  0
 12 13  1  0  0  0  0
 12 14  1  0  0  0  0
 12 15  1  0  0  0  0
 14 42  1  0  0  0  0
 14 43  1  0  0  0  0
 14 44  1  0  0  0  0
 15 45  1  0  0  0  0
 15 46  1  0  0  0  0
 15 47  1  0  0  0  0
 16 17  1  0  0  0  0
 16 18  2  0  0  0  0
 17 48  1  0  0  0  0
 19 20  1  0  0  0  0
 19 49  1  0  0  0  0
 20 21  2  0  0  0  0
 22 23  1  0  0  0  0
 22 28  1  6  0  0  0
 22 20  1  0  0  0  0
 22  4  1  0  0  0  0
 23 24  1  0  0  0  0
 23 50  1  0  0  0  0
 24 31  1  0  0  0  0
 24 25  2  0  0  0  0
 29 30  1  0  0  0  0
 29 33  1  0  0  0  0
 29 51  1  0  0  0  0
 30 31  1  0  0  0  0
 30 34  2  0  0  0  0
 31 32  1  0  0  0  0
 32 33  1  0  0  0  0
 32 52  1  0  0  0  0
 32 53  1  0  0  0  0
 33 54  1  0  0  0  0
 33 55  1  0  0  0  0
M  END
>  <DRUGBANK_ID>
DB01061

>  <SECONDARY_ACCESSION_NUMBERS>
APRD00814

>  <COMMON_NAME>
Azlocillin

>  <CAS_NUMBER>
37091-66-0

>  <UNII>
HUM6H389W0

>  <SYNONYMS>
(2S,5R,6R)-3,3-dimethyl-7-oxo-6-{[(2R)-2-{[(2-oxoimidazolidin-1-yl)carbonyl]amino}-2-phenylacetyl]amino}-4-thia-1-azabicyclo[3.2.0]heptane-2-carboxylic acid; Azlocilina; Azlocillin; Azlocilline; Azlocillinum

$$$$
