LIY
 OpenBabel10282417173D

 62 65  0  0  0  0  0  0  0  0999 V2000
    0.1248    0.9313   -0.0202 N   0  0  0  0  0  0  0  0  0  0  0  0
    2.4049    0.8945   -0.3206 N   0  0  0  0  0  0  0  0  0  0  0  0
    1.1979   -1.2450   -0.2904 C   0  0  0  0  0  0  0  0  0  0  0  0
   -0.3066   -3.2595    0.0261 C   0  0  0  0  0  0  0  0  0  0  0  0
    2.7459   -3.0732   -1.2900 C   0  0  0  0  0  0  0  0  0  0  0  0
    3.8714   -3.8933   -1.0454 C   0  0  0  0  0  0  0  0  0  0  0  0
    4.4238   -2.8107    1.0828 C   0  0  0  0  0  0  0  0  0  0  0  0
    5.9583   -4.6102    0.2250 C   0  0  0  0  0  0  0  0  0  0  0  0
    6.6355   -2.9881    2.0538 C   0  0  2  0  0  0  0  0  0  0  0  0
    4.2850   -0.6300    3.7401 C   0  0  0  0  0  0  0  0  0  0  0  0
   -1.0957   -3.6481    1.2665 C   0  0  0  0  0  0  0  0  0  0  0  0
    7.3949   -1.9459    1.2416 C   0  0  0  0  0  0  0  0  0  0  0  0
    8.4048   -1.1831    1.8338 C   0  0  0  0  0  0  0  0  0  0  0  0
    8.6030    0.1548   -0.1864 C   0  0  0  0  0  0  0  0  0  0  0  0
    7.0328   -1.6267   -0.0797 C   0  0  0  0  0  0  0  0  0  0  0  0
    1.2273    0.1642   -0.1664 C   0  0  0  0  0  0  0  0  0  0  0  0
   -0.0798   -1.7710   -0.0988 C   0  0  0  0  0  0  0  0  0  0  0  0
   -1.2029   -1.0119   -0.0093 N   0  0  0  0  0  0  0  0  0  0  0  0
   -1.0558    0.3175    0.0031 C   0  0  0  0  0  0  0  0  0  0  0  0
   -2.1898    1.0743    0.0059 N   0  0  0  0  0  0  0  0  0  0  0  0
    2.4246   -2.1035   -0.3659 C   0  0  0  0  0  0  0  0  0  0  0  0
    3.2730   -2.1254    0.7363 C   0  0  0  0  0  0  0  0  0  0  0  0
    4.7099   -3.7727    0.1118 C   0  0  0  0  0  0  0  0  0  0  0  0
    6.6830   -4.4323    1.5550 C   0  0  0  0  0  0  0  0  0  0  0  0
    8.9794   -0.1203    1.1301 C   0  0  0  0  0  0  0  0  0  0  0  0
    7.6267   -0.6055   -0.7968 C   0  0  0  0  0  0  0  0  0  0  0  0
    5.2286   -2.5487    2.1974 N   0  0  0  0  0  0  0  0  0  0  0  0
    4.9264   -2.0042    3.5656 C   0  0  0  0  0  0  0  0  0  0  0  0
    2.9737   -0.4047    3.0570 C   0  0  0  0  0  0  0  0  0  0  0  0
    1.9091   -1.3552    3.3219 O   0  0  0  0  0  0  0  0  0  0  0  0
    2.0767   -2.7835    3.4213 C   0  0  0  0  0  0  0  0  0  0  0  0
    7.1096   -3.0295    3.0483 H   0  0  0  0  0  0  0  0  0  0  0  0
    2.2777    1.8635   -0.0355 H   0  0  0  0  0  0  0  0  0  0  0  0
    3.2613    0.4583   -0.0090 H   0  0  0  0  0  0  0  0  0  0  0  0
   -0.8164   -3.6007   -0.8793 H   0  0  0  0  0  0  0  0  0  0  0  0
    0.6355   -3.8063    0.0894 H   0  0  0  0  0  0  0  0  0  0  0  0
    2.0918   -3.2362   -2.1349 H   0  0  0  0  0  0  0  0  0  0  0  0
    4.1093   -4.6524   -1.7894 H   0  0  0  0  0  0  0  0  0  0  0  0
    6.6408   -4.3202   -0.5819 H   0  0  0  0  0  0  0  0  0  0  0  0
    5.7124   -5.6654    0.0785 H   0  0  0  0  0  0  0  0  0  0  0  0
    4.1071   -0.4247    4.8008 H   0  0  0  0  0  0  0  0  0  0  0  0
    4.9980    0.1285    3.3869 H   0  0  0  0  0  0  0  0  0  0  0  0
   -2.1044   -3.2274    1.2598 H   0  0  0  0  0  0  0  0  0  0  0  0
   -1.1762   -4.7385    1.3221 H   0  0  0  0  0  0  0  0  0  0  0  0
   -0.5970   -3.3020    2.1753 H   0  0  0  0  0  0  0  0  0  0  0  0
    8.7331   -1.3874    2.8505 H   0  0  0  0  0  0  0  0  0  0  0  0
    9.0593    0.9671   -0.7394 H   0  0  0  0  0  0  0  0  0  0  0  0
    6.2346   -2.1327   -0.5992 H   0  0  0  0  0  0  0  0  0  0  0  0
   -2.0964    2.0763    0.0618 H   0  0  0  0  0  0  0  0  0  0  0  0
   -3.0761    0.6033    0.0352 H   0  0  0  0  0  0  0  0  0  0  0  0
    2.7260   -1.6579    1.4988 H   0  0  0  0  0  0  0  0  0  0  0  0
    7.7218   -4.7718    1.4711 H   0  0  0  0  0  0  0  0  0  0  0  0
    6.2025   -5.0752    2.3078 H   0  0  0  0  0  0  0  0  0  0  0  0
    9.7135    0.5131    1.6169 H   0  0  0  0  0  0  0  0  0  0  0  0
    7.2851   -0.4107   -1.8090 H   0  0  0  0  0  0  0  0  0  0  0  0
    4.4451   -2.7752    4.1633 H   0  0  0  0  0  0  0  0  0  0  0  0
    5.8672   -1.8935    4.1286 H   0  0  0  0  0  0  0  0  0  0  0  0
    2.5341    0.5835    3.2186 H   0  0  0  0  0  0  0  0  0  0  0  0
    3.2830   -0.2141    2.0192 H   0  0  0  0  0  0  0  0  0  0  0  0
    2.4971   -3.3161    2.5628 H   0  0  0  0  0  0  0  0  0  0  0  0
    2.6279   -3.0669    4.3109 H   0  0  0  0  0  0  0  0  0  0  0  0
    1.0974   -3.2521    3.5253 H   0  0  0  0  0  0  0  0  0  0  0  0
  1 16  1  0  0  0  0
  1 19  2  0  0  0  0
  2 16  1  0  0  0  0
  2 33  1  0  0  0  0
  2 34  1  0  0  0  0
  3 21  1  0  0  0  0
  3 16  2  0  0  0  0
  3 17  1  0  0  0  0
  4 17  1  0  0  0  0
  4 11  1  0  0  0  0
  4 35  1  0  0  0  0
  4 36  1  0  0  0  0
  5  6  1  0  0  0  0
  5 21  2  0  0  0  0
  5 37  1  0  0  0  0
  6 23  2  0  0  0  0
  6 38  1  0  0  0  0
  7 23  1  0  0  0  0
  7 27  1  0  0  0  0
  7 22  2  0  0  0  0
  8 24  1  0  0  0  0
  8 23  1  0  0  0  0
  8 39  1  0  0  0  0
  8 40  1  0  0  0  0
  9 24  1  0  0  0  0
  9 27  1  0  0  0  0
  9 32  1  1  0  0  0
  9 12  1  0  0  0  0
 10 28  1  0  0  0  0
 10 29  1  0  0  0  0
 10 41  1  0  0  0  0
 10 42  1  0  0  0  0
 11 43  1  0  0  0  0
 11 44  1  0  0  0  0
 11 45  1  0  0  0  0
 12 15  2  0  0  0  0
 12 13  1  0  0  0  0
 13 25  2  0  0  0  0
 13 46  1  0  0  0  0
 14 26  2  0  0  0  0
 14 25  1  0  0  0  0
 14 47  1  0  0  0  0
 15 26  1  0  0  0  0
 15 48  1  0  0  0  0
 17 18  2  0  0  0  0
 18 19  1  0  0  0  0
 19 20  1  0  0  0  0
 20 49  1  0  0  0  0
 20 50  1  0  0  0  0
 21 22  1  0  0  0  0
 22 51  1  0  0  0  0
 24 52  1  0  0  0  0
 24 53  1  0  0  0  0
 25 54  1  0  0  0  0
 26 55  1  0  0  0  0
 27 28  1  0  0  0  0
 28 56  1  0  0  0  0
 28 57  1  0  0  0  0
 29 30  1  0  0  0  0
 29 58  1  0  0  0  0
 29 59  1  0  0  0  0
 30 31  1  0  0  0  0
 31 60  1  0  0  0  0
 31 61  1  0  0  0  0
 31 62  1  0  0  0  0
M  END
>  <DRUGBANK_ID>
DB08099

>  <COMMON_NAME>
6-ethyl-5-[(2S)-1-(3-methoxypropyl)-2-phenyl-1,2,3,4-tetrahydroquinolin-7-yl]pyrimidine-2,4-diamine

$$$$
