
 OpenBabel10282417203D

172179  0  0  0  0  0  0  0  0999 V2000
    5.7911   -4.6886    5.1670 C   0  0  0  0  0  0  0  0  0  0  0  0
    7.0010   -3.9874    5.1789 N   0  0  0  0  0  0  0  0  0  0  0  0
    7.4296   -2.8985    5.8312 C   0  0  0  0  0  0  0  0  0  0  0  0
    6.4642   -2.7763    6.7686 C   0  0  0  0  0  0  0  0  0  0  0  0
    5.2911   -3.3460    6.9071 C   0  0  0  0  0  0  0  0  0  0  0  0
    4.8152   -4.1771    5.8666 N   0  0  0  0  0  0  0  0  0  0  0  0
    5.6266   -5.8000    4.7193 O   0  0  0  0  0  0  0  0  0  0  0  0
    8.3190   -2.0713    5.7819 O   0  0  0  0  0  0  0  0  0  0  0  0
    4.2251   -2.5677    7.4819 C   0  0  0  0  0  0  0  0  0  0  0  0
    3.3624   -3.5686    7.1771 O   0  0  0  0  0  0  0  0  0  0  0  0
    3.9966   -0.7815    8.2054 N   0  0  0  0  0  0  0  0  0  0  0  0
    5.2382    0.8540    8.2636 C   0  0  1  0  0  0  0  0  0  0  0  0
    5.8057    1.1467    6.3319 C   0  0  0  0  0  0  0  0  0  0  0  0
    4.6263    2.3957    8.5236 C   0  0  2  0  0  0  0  0  0  0  0  0
    3.2164    3.0122    7.1963 C   0  0  1  0  0  0  0  0  0  0  0  0
    3.7698    3.0830    5.1609 C   0  0  0  0  0  0  0  0  0  0  0  0
    4.8718    1.9232    4.8319 C   0  0  2  0  0  0  0  0  0  0  0  0
    6.0254    2.7401    8.5920 O   0  0  0  0  0  0  0  0  0  0  0  0
    3.7594    1.2660    4.4314 C   0  0  0  0  0  0  0  0  0  0  0  0
    1.7213    2.1798    7.5837 O   0  0  0  0  0  0  0  0  0  0  0  0
    6.7976    2.7861    7.3278 C   0  0  2  0  0  0  0  0  0  0  0  0
    7.9633    3.4012    7.3606 O   0  0  0  0  0  0  0  0  0  0  0  0
    7.4952    4.5811    7.9368 C   0  0  2  0  0  0  0  0  0  0  0  0
    6.7367    5.5179    6.9713 C   0  0  2  0  0  0  0  0  0  0  0  0
    5.4861    4.9379    6.6181 C   0  0  2  0  0  0  0  0  0  0  0  0
    6.1607    3.6329    6.2300 C   0  0  2  0  0  0  0  0  0  0  0  0
    1.5698    0.4245    7.3755 C   0  0  2  0  0  0  0  0  0  0  0  0
    0.9931   -0.0885    6.2171 O   0  0  0  0  0  0  0  0  0  0  0  0
    0.9387   -1.6810    5.7560 C   0  0  1  0  0  0  0  0  0  0  0  0
    1.3931   -2.6325    6.6289 C   0  0  1  0  0  0  0  0  0  0  0  0
    2.4493   -1.9025    7.0554 C   0  0  1  0  0  0  0  0  0  0  0  0
    2.7094   -0.5679    6.8914 C   0  0  1  0  0  0  0  0  0  0  0  0
    4.5147   -0.1289    5.9762 O   0  0  0  0  0  0  0  0  0  0  0  0
    2.9462   -2.4933    8.8196 O   0  0  0  0  0  0  0  0  0  0  0  0
    0.9794   -2.7643    7.8697 O   0  0  0  0  0  0  0  0  0  0  0  0
    7.3963    5.7196    5.7306 O   0  0  0  0  0  0  0  0  0  0  0  0
    4.5766    5.4688    5.6459 O   0  0  0  0  0  0  0  0  0  0  0  0
    5.0907    3.0556    6.6625 O   0  0  0  0  0  0  0  0  0  0  0  0
   -0.4206   -2.2309    5.6677 C   0  0  0  0  0  0  0  0  0  0  0  0
   -2.3407   -1.3434    5.7357 O   0  0  0  0  0  0  0  0  0  0  0  0
    5.7740   -0.1449    4.5815 C   0  0  0  0  0  0  0  0  0  0  0  0
    5.2300   -0.8123    3.0877 C   0  0  0  0  0  0  0  0  0  0  0  0
    6.9881    0.2119    4.5931 O   0  0  0  0  0  0  0  0  0  0  0  0
    3.3359   -0.3747    2.8515 C   0  0  0  0  0  0  0  0  0  0  0  0
    6.0173   -1.8204    2.9949 C   0  0  0  0  0  0  0  0  0  0  0  0
    4.9244   -2.4033    2.4739 C   0  0  0  0  0  0  0  0  0  0  0  0
    3.2579   -2.1783    2.2659 C   0  0  0  0  0  0  0  0  0  0  0  0
    2.3835   -1.2148    2.6633 C   0  0  0  0  0  0  0  0  0  0  0  0
    4.4294   -1.8167    9.6126 C   0  0  1  0  0  0  0  0  0  0  0  0
    5.8257   -1.4425    8.6605 C   0  0  0  0  0  0  0  0  0  0  0  0
    3.4779   -0.4117   10.1970 C   0  0  0  0  0  0  0  0  0  0  0  0
    3.5710   -0.2535   11.4436 O   0  0  0  0  0  0  0  0  0  0  0  0
    2.6307    0.3457    9.7117 O   0  0  0  0  0  0  0  0  0  0  0  0
    5.3691   -0.6960    7.2113 C   0  0  0  0  0  0  0  0  0  0  0  0
    4.7945   -1.7108    5.5246 C   0  0  0  0  0  0  0  0  0  0  0  0
    3.7178   -1.1252    4.4572 C   0  0  0  0  0  0  0  0  0  0  0  0
    1.8622   -0.0414    4.6308 C   0  0  0  0  0  0  0  0  0  0  0  0
    2.5087    1.5459    5.8301 C   0  0  0  0  0  0  0  0  0  0  0  0
    3.8344    0.9199    7.1728 C   0  0  0  0  0  0  0  0  0  0  0  0
    3.2917    0.2703    5.1885 O   0  0  0  0  0  0  0  0  0  0  0  0
    2.8263    1.7656    2.8781 N   0  0  0  0  0  0  0  0  0  0  0  0
    3.5430    1.4944    1.6790 C   0  0  0  0  0  0  0  0  0  0  0  0
    3.6706    0.1384    0.8825 C   0  0  0  0  0  0  0  0  0  0  0  0
    2.4002   -0.5537    0.4124 N   0  0  0  0  0  0  0  0  0  0  0  0
    2.2577   -0.7408   -0.8903 C   0  0  0  0  0  0  0  0  0  0  0  0
    0.9962   -1.3082   -1.6057 C   0  0  0  0  0  0  0  0  0  0  0  0
    3.1683   -0.2380   -1.5321 O   0  0  0  0  0  0  0  0  0  0  0  0
   -0.0025   -0.3608   -1.8835 O   0  0  0  0  0  0  0  0  0  0  0  0
   -0.2838    0.5155   -0.7669 C   0  0  0  0  0  0  0  0  0  0  0  0
   -1.0426   -0.0532    0.4544 C   0  0  0  0  0  0  0  0  0  0  0  0
   -0.2868   -0.9429    1.3172 O   0  0  0  0  0  0  0  0  0  0  0  0
   -0.1133   -2.2280    0.7421 C   0  0  0  0  0  0  0  0  0  0  0  0
   -1.3227   -2.7225    0.0117 C   0  0  0  0  0  0  0  0  0  0  0  0
   -1.5577   -2.8645   -1.1925 O   0  0  0  0  0  0  0  0  0  0  0  0
   -2.2211   -2.8209    1.1089 N   0  0  0  0  0  0  0  0  0  0  0  0
   -1.8914   -2.3746    2.8433 C   0  0  0  0  0  0  0  0  0  0  0  0
   -1.5114   -1.0831    4.1816 C   0  0  0  0  0  0  0  0  0  0  0  0
   -1.1618   -2.1150    3.9064 C   0  0  0  0  0  0  0  0  0  0  0  0
   -1.8582   -3.5527    4.6355 C   0  0  0  0  0  0  0  0  0  0  0  0
   -2.1007   -4.6765    4.1566 C   0  0  0  0  0  0  0  0  0  0  0  0
   -1.9990   -4.2030    2.9554 C   0  0  0  0  0  0  0  0  0  0  0  0
   -0.6408   -0.8678    4.4275 C   0  0  0  0  0  0  0  0  0  0  0  0
   -0.8077   -0.5933    6.4458 C   0  0  0  0  0  0  0  0  0  0  0  0
   -0.8051    0.7191    6.9199 C   0  0  0  0  0  0  0  0  0  0  0  0
   -0.9897   -0.1730    6.1942 C   0  0  0  0  0  0  0  0  0  0  0  0
   -0.6257   -0.5308    8.6320 S   0  0  0  0  0  0  0  0  0  0  0  0
   -2.0073   -0.7616    9.0274 O   0  0  0  0  0  0  0  0  0  0  0  0
    0.5469   -1.3149    9.1314 O   0  0  0  0  0  0  0  0  0  0  0  0
   -0.2785   -0.0924   10.3142 O   0  0  0  0  0  0  0  0  0  0  0  0
   -1.3944   -2.7166    7.6140 S   0  0  0  0  0  0  0  0  0  0  0  0
   -2.7986   -2.7898    7.2995 O   0  0  0  0  0  0  0  0  0  0  0  0
   -0.5244   -3.8833    7.1511 O   0  0  0  0  0  0  0  0  0  0  0  0
   -1.1156   -2.6994    9.1242 O   0  0  0  0  0  0  0  0  0  0  0  0
   -2.6739   -5.8313    5.2688 S   0  0  0  0  0  0  0  0  0  0  0  0
   -4.0955   -5.8290    5.0470 O   0  0  0  0  0  0  0  0  0  0  0  0
   -1.8083   -6.9644    5.0966 O   0  0  0  0  0  0  0  0  0  0  0  0
   -2.4518   -5.3116    6.7975 O   0  0  0  0  0  0  0  0  0  0  0  0
    8.8202    5.0019    8.2756 C   0  0  0  0  0  0  0  0  0  0  0  0
    4.9203   -2.5119   10.1894 H   0  0  0  0  0  0  0  0  0  0  0  0
    7.8124   -4.4191    4.8938 H   0  0  0  0  0  0  0  0  0  0  0  0
    6.7497   -1.7548    6.8397 H   0  0  0  0  0  0  0  0  0  0  0  0
    3.7588   -4.3145    5.7587 H   0  0  0  0  0  0  0  0  0  0  0  0
    2.9782   -0.2317    8.6281 H   0  0  0  0  0  0  0  0  0  0  0  0
    5.5096    0.4124    9.1739 H   0  0  0  0  0  0  0  0  0  0  0  0
    6.6274    1.5820    5.8631 H   0  0  0  0  0  0  0  0  0  0  0  0
    6.4013    0.0882    6.1245 H   0  0  0  0  0  0  0  0  0  0  0  0
    4.0997    2.2007    9.4562 H   0  0  0  0  0  0  0  0  0  0  0  0
    3.0981    4.0040    7.5625 H   0  0  0  0  0  0  0  0  0  0  0  0
    4.6914    3.4952    4.7340 H   0  0  0  0  0  0  0  0  0  0  0  0
    3.0336    3.5084    4.5112 H   0  0  0  0  0  0  0  0  0  0  0  0
    5.4159    1.8124    3.8918 H   0  0  0  0  0  0  0  0  0  0  0  0
    7.2698    1.8138    7.2050 H   0  0  0  0  0  0  0  0  0  0  0  0
    6.8691    4.3872    8.8216 H   0  0  0  0  0  0  0  0  0  0  0  0
    6.4086    6.3836    7.4922 H   0  0  0  0  0  0  0  0  0  0  0  0
    4.8193    4.8256    7.5164 H   0  0  0  0  0  0  0  0  0  0  0  0
    6.4174    3.4206    5.1623 H   0  0  0  0  0  0  0  0  0  0  0  0
    2.0197    0.3622    6.5461 H   0  0  0  0  0  0  0  0  0  0  0  0
    1.3981   -2.0135    4.6799 H   0  0  0  0  0  0  0  0  0  0  0  0
    1.5552   -3.5030    6.0152 H   0  0  0  0  0  0  0  0  0  0  0  0
    2.8248   -2.1472    6.0736 H   0  0  0  0  0  0  0  0  0  0  0  0
    2.2738   -1.0307    7.9847 H   0  0  0  0  0  0  0  0  0  0  0  0
    1.2563   -2.0396    8.4624 H   0  0  0  0  0  0  0  0  0  0  0  0
    7.6298    4.8571    5.3219 H   0  0  0  0  0  0  0  0  0  0  0  0
    5.0449    5.5923    4.8040 H   0  0  0  0  0  0  0  0  0  0  0  0
    4.4319    3.6767    6.4145 H   0  0  0  0  0  0  0  0  0  0  0  0
   -0.0011   -2.9660    4.8859 H   0  0  0  0  0  0  0  0  0  0  0  0
   -1.1621   -2.6238    5.9880 H   0  0  0  0  0  0  0  0  0  0  0  0
   -2.3615    0.0177    5.4806 H   0  0  0  0  0  0  0  0  0  0  0  0
    2.6613    0.6460    3.6948 H   0  0  0  0  0  0  0  0  0  0  0  0
    6.6430   -2.1078    3.8311 H   0  0  0  0  0  0  0  0  0  0  0  0
    5.3120   -2.5707    1.5051 H   0  0  0  0  0  0  0  0  0  0  0  0
    2.9369   -2.5178    1.3406 H   0  0  0  0  0  0  0  0  0  0  0  0
    1.5880   -0.5577    2.3428 H   0  0  0  0  0  0  0  0  0  0  0  0
    6.6062   -0.7507    8.9937 H   0  0  0  0  0  0  0  0  0  0  0  0
    6.5690   -2.1911    8.5283 H   0  0  0  0  0  0  0  0  0  0  0  0
    4.0272   -1.0725   11.5676 H   0  0  0  0  0  0  0  0  0  0  0  0
    6.4230   -0.2167    7.4392 H   0  0  0  0  0  0  0  0  0  0  0  0
    5.6387   -2.0435    5.0793 H   0  0  0  0  0  0  0  0  0  0  0  0
    4.1511   -2.4785    5.4752 H   0  0  0  0  0  0  0  0  0  0  0  0
    3.4820   -2.1296    4.1187 H   0  0  0  0  0  0  0  0  0  0  0  0
    4.4203    0.1693    3.7312 H   0  0  0  0  0  0  0  0  0  0  0  0
    1.1737   -0.6315    4.3815 H   0  0  0  0  0  0  0  0  0  0  0  0
    1.2400    0.9674    4.3862 H   0  0  0  0  0  0  0  0  0  0  0  0
    1.9270    2.3636    5.7060 H   0  0  0  0  0  0  0  0  0  0  0  0
    3.6277    1.6988    6.0838 H   0  0  0  0  0  0  0  0  0  0  0  0
    3.5256    0.8423    8.1593 H   0  0  0  0  0  0  0  0  0  0  0  0
    3.2798    1.4219    8.0214 H   0  0  0  0  0  0  0  0  0  0  0  0
    1.7065    0.9940    2.8583 H   0  0  0  0  0  0  0  0  0  0  0  0
    2.6767    1.9876    1.3522 H   0  0  0  0  0  0  0  0  0  0  0  0
    4.3960    1.6774    2.2984 H   0  0  0  0  0  0  0  0  0  0  0  0
    4.3696    0.3268    0.1480 H   0  0  0  0  0  0  0  0  0  0  0  0
    4.3975   -0.5630    1.3148 H   0  0  0  0  0  0  0  0  0  0  0  0
    1.7681   -1.1322    0.9806 H   0  0  0  0  0  0  0  0  0  0  0  0
    1.2017   -2.3265   -1.9973 H   0  0  0  0  0  0  0  0  0  0  0  0
    0.2351   -1.8729   -1.1692 H   0  0  0  0  0  0  0  0  0  0  0  0
    0.6330    0.9943   -0.4170 H   0  0  0  0  0  0  0  0  0  0  0  0
   -0.9065    1.2814   -1.2205 H   0  0  0  0  0  0  0  0  0  0  0  0
   -1.3016    0.7676    1.1236 H   0  0  0  0  0  0  0  0  0  0  0  0
   -1.9800   -0.5093    0.1228 H   0  0  0  0  0  0  0  0  0  0  0  0
    0.6902   -1.8738    0.2323 H   0  0  0  0  0  0  0  0  0  0  0  0
    0.6191   -3.0191    0.9808 H   0  0  0  0  0  0  0  0  0  0  0  0
   -2.8535   -3.6286    0.7566 H   0  0  0  0  0  0  0  0  0  0  0  0
   -1.6058   -3.8629    5.6175 H   0  0  0  0  0  0  0  0  0  0  0  0
   -2.1374   -5.1224    2.2923 H   0  0  0  0  0  0  0  0  0  0  0  0
   -0.4519    0.2612    3.8397 H   0  0  0  0  0  0  0  0  0  0  0  0
   -0.3277    1.5125    6.2703 H   0  0  0  0  0  0  0  0  0  0  0  0
   -0.1820   -0.9946   10.9580 H   0  0  0  0  0  0  0  0  0  0  0  0
   -0.7142   -3.2210    9.7908 H   0  0  0  0  0  0  0  0  0  0  0  0
   -2.7935   -5.9042    7.4878 H   0  0  0  0  0  0  0  0  0  0  0  0
    8.6757    5.9417    8.7459 H   0  0  0  0  0  0  0  0  0  0  0  0
    9.2521    4.2370    8.9292 H   0  0  0  0  0  0  0  0  0  0  0  0
    9.3960    5.0382    7.3480 H   0  0  0  0  0  0  0  0  0  0  0  0
  1  2  1  0  0  0  0
  1  6  1  0  0  0  0
  1  7  2  0  0  0  0
  2  3  1  0  0  0  0
  2100  1  0  0  0  0
  3  4  1  0  0  0  0
  3  8  2  0  0  0  0
  4  5  2  0  0  0  0
  4101  1  0  0  0  0
  5  6  1  0  0  0  0
  5  9  1  0  0  0  0
  6102  1  0  0  0  0
  9 10  2  0  0  0  0
  9 11  1  0  0  0  0
 11103  1  0  0  0  0
 12 14  1  0  0  0  0
 12104  1  1  0  0  0
 12 11  1  0  0  0  0
 13 12  1  0  0  0  0
 13 17  1  0  0  0  0
 13105  1  0  0  0  0
 13106  1  0  0  0  0
 14 15  1  0  0  0  0
 14107  1  1  0  0  0
 14 18  1  0  0  0  0
 15 16  1  0  0  0  0
 15108  1  1  0  0  0
 15 20  1  0  0  0  0
 16 17  1  0  0  0  0
 16109  1  0  0  0  0
 16110  1  0  0  0  0
 17111  1  6  0  0  0
 17 19  1  0  0  0  0
 19 60  2  0  0  0  0
 19 61  1  0  0  0  0
 21112  1  6  0  0  0
 21 18  1  0  0  0  0
 22 21  1  0  0  0  0
 22 23  1  0  0  0  0
 23 24  1  0  0  0  0
 23 98  1  0  0  0  0
 23113  1  1  0  0  0
 24 25  1  0  0  0  0
 24 36  1  0  0  0  0
 24114  1  1  0  0  0
 25 26  1  0  0  0  0
 25 37  1  0  0  0  0
 25115  1  1  0  0  0
 26 21  1  0  0  0  0
 26 38  1  0  0  0  0
 26116  1  6  0  0  0
 27117  1  6  0  0  0
 27 20  1  0  0  0  0
 28 27  1  0  0  0  0
 28 29  1  0  0  0  0
 29 30  1  0  0  0  0
 29118  1  6  0  0  0
 29 39  1  0  0  0  0
 30 31  1  0  0  0  0
 30119  1  6  0  0  0
 30 35  1  0  0  0  0
 31 32  1  0  0  0  0
 31120  1  6  0  0  0
 31 34  1  0  0  0  0
 32 27  1  0  0  0  0
 32 33  1  0  0  0  0
 32121  1  1  0  0  0
 33 41  1  0  0  0  0
 34 49  1  0  0  0  0
 35122  1  0  0  0  0
 36123  1  0  0  0  0
 37124  1  0  0  0  0
 38125  1  0  0  0  0
 39 40  1  0  0  0  0
 39126  1  0  0  0  0
 39127  1  0  0  0  0
 40128  1  0  0  0  0
 41 42  1  0  0  0  0
 41 43  2  0  0  0  0
 42 45  1  0  0  0  0
 44 42  2  0  0  0  0
 44 48  1  0  0  0  0
 44129  1  0  0  0  0
 45 46  2  0  0  0  0
 45130  1  0  0  0  0
 46 47  1  0  0  0  0
 46131  1  0  0  0  0
 47 48  2  0  0  0  0
 47132  1  0  0  0  0
 48133  1  0  0  0  0
 49 50  1  0  0  0  0
 49 51  1  0  0  0  0
 49 99  1  1  0  0  0
 50 54  1  0  0  0  0
 50134  1  0  0  0  0
 50135  1  0  0  0  0
 51 52  1  0  0  0  0
 51 53  2  0  0  0  0
 52136  1  0  0  0  0
 54137  1  0  0  0  0
 55 54  1  0  0  0  0
 55 56  1  0  0  0  0
 55138  1  0  0  0  0
 55139  1  0  0  0  0
 56 57  1  0  0  0  0
 56140  1  0  0  0  0
 56141  1  0  0  0  0
 57 58  1  0  0  0  0
 57142  1  0  0  0  0
 57143  1  0  0  0  0
 58 59  1  0  0  0  0
 58144  1  0  0  0  0
 58145  1  0  0  0  0
 59 54  1  0  0  0  0
 59146  1  0  0  0  0
 59147  1  0  0  0  0
 61 62  1  0  0  0  0
 61148  1  0  0  0  0
 62 63  1  0  0  0  0
 62149  1  0  0  0  0
 62150  1  0  0  0  0
 63 64  1  0  0  0  0
 63151  1  0  0  0  0
 63152  1  0  0  0  0
 64 65  1  0  0  0  0
 64153  1  0  0  0  0
 65 66  1  0  0  0  0
 65 67  2  0  0  0  0
 66 68  1  0  0  0  0
 66154  1  0  0  0  0
 66155  1  0  0  0  0
 68 69  1  0  0  0  0
 69 70  1  0  0  0  0
 69156  1  0  0  0  0
 69157  1  0  0  0  0
 70 71  1  0  0  0  0
 70158  1  0  0  0  0
 70159  1  0  0  0  0
 71 72  1  0  0  0  0
 72 73  1  0  0  0  0
 72160  1  0  0  0  0
 72161  1  0  0  0  0
 73 74  2  0  0  0  0
 73 75  1  0  0  0  0
 75 76  1  0  0  0  0
 75162  1  0  0  0  0
 76 77  2  0  0  0  0
 76 81  1  0  0  0  0
 77 85  1  0  0  0  0
 77 78  1  0  0  0  0
 78 79  2  0  0  0  0
 78 82  1  0  0  0  0
 79 80  1  0  0  0  0
 79163  1  0  0  0  0
 80 81  2  0  0  0  0
 80 94  1  0  0  0  0
 81164  1  0  0  0  0
 82 83  2  0  0  0  0
 82165  1  0  0  0  0
 83 84  1  0  0  0  0
 83 90  1  0  0  0  0
 84 85  2  0  0  0  0
 84166  1  0  0  0  0
 85 86  1  0  0  0  0
 86 87  2  0  0  0  0
 86 88  2  0  0  0  0
 86 89  1  0  0  0  0
 89167  1  0  0  0  0
 90 91  2  0  0  0  0
 90 92  2  0  0  0  0
 90 93  1  0  0  0  0
 93168  1  0  0  0  0
 94 95  2  0  0  0  0
 94 96  2  0  0  0  0
 94 97  1  0  0  0  0
 97169  1  0  0  0  0
 98170  1  0  0  0  0
 98171  1  0  0  0  0
 98172  1  0  0  0  0
M  END
>  <DRUGBANK_ID>
DB12778

>  <SECONDARY_ACCESSION_NUMBERS>
DB12544

>  <COMMON_NAME>
Rivipansel

>  <CAS_NUMBER>
927881-99-0

>  <UNII>
4B115V09LB

>  <SYNONYMS>
GMI-1070

$$$$
