812
 OpenBabel10282417113D

 43 45  0  0  0  0  0  0  0  0999 V2000
    1.2348   -0.1911   -0.3508 O   0  0  0  0  0  0  0  0  0  0  0  0
    5.2277    1.2314    1.5450 O   0  0  0  0  0  0  0  0  0  0  0  0
    3.3243   -1.2634    0.0142 N   0  0  0  0  0  0  0  0  0  0  0  0
    4.4494   -0.8567    0.7744 N   0  0  0  0  0  0  0  0  0  0  0  0
    3.3000    1.0389    0.0616 C   0  0  0  0  0  0  0  0  0  0  0  0
    2.6480    2.3404    0.5195 C   0  0  0  0  0  0  0  0  0  0  0  0
    2.4344   -0.1826   -0.1027 C   0  0  0  0  0  0  0  0  0  0  0  0
    4.4335    0.5357    0.9236 C   0  0  0  0  0  0  0  0  0  0  0  0
    3.6108    3.5457    0.4360 C   0  0  0  0  0  0  0  0  0  0  0  0
    4.1634    3.7988   -0.9714 C   0  0  0  0  0  0  0  0  0  0  0  0
    3.1557   -2.5031   -0.6397 C   0  0  0  0  0  0  0  0  0  0  0  0
    5.3041   -1.6859    1.5409 C   0  0  0  0  0  0  0  0  0  0  0  0
    3.0512    4.1415   -1.9488 C   0  0  0  0  0  0  0  0  0  0  0  0
    3.1107   -3.6751    0.1134 C   0  0  0  0  0  0  0  0  0  0  0  0
    6.1223   -2.6158    0.8948 C   0  0  0  0  0  0  0  0  0  0  0  0
    2.9901   -2.5898   -2.0346 C   0  0  0  0  0  0  0  0  0  0  0  0
    5.4912   -1.4689    2.9171 C   0  0  0  0  0  0  0  0  0  0  0  0
    2.8963   -4.9118   -0.5010 C   0  0  0  0  0  0  0  0  0  0  0  0
    7.1294   -3.2876    1.5978 C   0  0  0  0  0  0  0  0  0  0  0  0
    2.7536   -3.8311   -2.6477 C   0  0  0  0  0  0  0  0  0  0  0  0
    6.5147   -2.1246    3.6138 C   0  0  0  0  0  0  0  0  0  0  0  0
    2.7244   -4.9935   -1.8807 C   0  0  0  0  0  0  0  0  0  0  0  0
    7.3272   -3.0429    2.9553 C   0  0  0  0  0  0  0  0  0  0  0  0
    3.6956    1.1853   -0.9522 H   0  0  0  0  0  0  0  0  0  0  0  0
    1.7625    2.5506   -0.0938 H   0  0  0  0  0  0  0  0  0  0  0  0
    2.2732    2.2478    1.5447 H   0  0  0  0  0  0  0  0  0  0  0  0
    3.0976    4.4488    0.7886 H   0  0  0  0  0  0  0  0  0  0  0  0
    4.4516    3.4071    1.1229 H   0  0  0  0  0  0  0  0  0  0  0  0
    4.8871    4.6212   -0.9381 H   0  0  0  0  0  0  0  0  0  0  0  0
    4.7241    2.9312   -1.3357 H   0  0  0  0  0  0  0  0  0  0  0  0
    2.5289    5.0462   -1.6230 H   0  0  0  0  0  0  0  0  0  0  0  0
    3.4546    4.3100   -2.9500 H   0  0  0  0  0  0  0  0  0  0  0  0
    2.3173    3.3340   -2.0269 H   0  0  0  0  0  0  0  0  0  0  0  0
    3.2063   -3.6289    1.1935 H   0  0  0  0  0  0  0  0  0  0  0  0
    6.0317   -2.7769   -0.1751 H   0  0  0  0  0  0  0  0  0  0  0  0
    3.0852   -1.7141   -2.6735 H   0  0  0  0  0  0  0  0  0  0  0  0
    4.8451   -0.7891    3.4690 H   0  0  0  0  0  0  0  0  0  0  0  0
    2.8431   -5.8101    0.1073 H   0  0  0  0  0  0  0  0  0  0  0  0
    7.7885   -3.9742    1.0731 H   0  0  0  0  0  0  0  0  0  0  0  0
    2.5847   -3.8975   -3.7215 H   0  0  0  0  0  0  0  0  0  0  0  0
    6.6975   -1.8982    4.6624 H   0  0  0  0  0  0  0  0  0  0  0  0
    2.5649   -5.9609   -2.3529 H   0  0  0  0  0  0  0  0  0  0  0  0
    8.1191   -3.5581    3.4951 H   0  0  0  0  0  0  0  0  0  0  0  0
  1  7  2  0  0  0  0
  2  8  2  0  0  0  0
  3  4  1  0  0  0  0
  3  7  1  0  0  0  0
  3 11  1  0  0  0  0
  4  8  1  0  0  0  0
  4 12  1  0  0  0  0
  5  6  1  0  0  0  0
  5  7  1  0  0  0  0
  5  8  1  0  0  0  0
  5 24  1  0  0  0  0
  6  9  1  0  0  0  0
  6 25  1  0  0  0  0
  6 26  1  0  0  0  0
  9 10  1  0  0  0  0
  9 27  1  0  0  0  0
  9 28  1  0  0  0  0
 10 13  1  0  0  0  0
 10 29  1  0  0  0  0
 10 30  1  0  0  0  0
 11 14  2  0  0  0  0
 11 16  1  0  0  0  0
 12 15  2  0  0  0  0
 12 17  1  0  0  0  0
 13 31  1  0  0  0  0
 13 32  1  0  0  0  0
 13 33  1  0  0  0  0
 14 18  1  0  0  0  0
 14 34  1  0  0  0  0
 15 19  1  0  0  0  0
 15 35  1  0  0  0  0
 16 20  2  0  0  0  0
 16 36  1  0  0  0  0
 17 21  2  0  0  0  0
 17 37  1  0  0  0  0
 18 22  2  0  0  0  0
 18 38  1  0  0  0  0
 19 23  2  0  0  0  0
 19 39  1  0  0  0  0
 20 22  1  0  0  0  0
 20 40  1  0  0  0  0
 21 23  1  0  0  0  0
 21 41  1  0  0  0  0
 22 42  1  0  0  0  0
 23 43  1  0  0  0  0
M  END
>  <DRUGBANK_ID>
DB00812

>  <SECONDARY_ACCESSION_NUMBERS>
APRD00409; DB08343

>  <COMMON_NAME>
Phenylbutazone

>  <CAS_NUMBER>
50-33-9

>  <UNII>
GN5P7K3T8S

>  <SYNONYMS>
3,5-Dioxo-1,2-diphenyl-4-n-butylpyrazolidine; 4-butyl-1,2-diphenyl-pyrazolidine-3,5-dione; 4-n-Butyl-1,2-diphenyl-3,5-pyrazolidinedione; Fenilbutazona; Phenbutazone; Phenylbutazon; Ph√©nylbutazone; Phenylbutazone; Phenylbutazonum

$$$$
