
 OpenBabel10282417143D

 29 30  0  0  0  0  0  0  0  0999 V2000
    0.9264    0.0561    0.1279 F   0  0  0  0  0  0  0  0  0  0  0  0
    2.7210    0.9545    0.9702 F   0  0  0  0  0  0  0  0  0  0  0  0
    2.7141   -1.1491    0.4209 F   0  0  0  0  0  0  0  0  0  0  0  0
    6.4272    0.3314   -3.2331 O   0  0  0  0  0  0  0  0  0  0  0  0
    7.3955    1.7779   -4.6374 O   0  0  0  0  0  0  0  0  0  0  0  0
    4.4145   -1.1237   -4.2588 N   0  0  0  0  0  0  0  0  0  0  0  0
    4.4633   -1.4674   -6.6013 N   0  0  0  0  0  0  0  0  0  0  0  0
    3.5911   -0.1991   -3.5418 C   0  0  0  0  0  0  0  0  0  0  0  0
    2.7276    0.4454   -1.3632 C   0  0  0  0  0  0  0  0  0  0  0  0
    3.1910   -0.5416   -2.2494 C   0  0  0  0  0  0  0  0  0  0  0  0
    4.9858   -0.8353   -5.5181 C   0  0  0  0  0  0  0  0  0  0  0  0
    3.4851    1.1483   -3.9397 C   0  0  0  0  0  0  0  0  0  0  0  0
    2.6931    1.7878   -1.7695 C   0  0  0  0  0  0  0  0  0  0  0  0
    5.9693    0.1594   -5.6290 C   0  0  0  0  0  0  0  0  0  0  0  0
    3.1105    2.1424   -3.0422 C   0  0  0  0  0  0  0  0  0  0  0  0
    2.2820    0.0799    0.0246 C   0  0  0  0  0  0  0  0  0  0  0  0
    6.3513    0.5624   -6.9149 C   0  0  0  0  0  0  0  0  0  0  0  0
    5.7870   -0.0395   -8.0337 C   0  0  0  0  0  0  0  0  0  0  0  0
    4.8633   -1.0487   -7.8294 C   0  0  0  0  0  0  0  0  0  0  0  0
    6.6372    0.8253   -4.4686 C   0  0  0  0  0  0  0  0  0  0  0  0
    5.7513   -0.3759   -3.1943 H   0  0  0  0  0  0  0  0  0  0  0  0
    4.0955   -2.0886   -4.2052 H   0  0  0  0  0  0  0  0  0  0  0  0
    3.3070   -1.5657   -1.8971 H   0  0  0  0  0  0  0  0  0  0  0  0
    3.7795    1.4712   -4.9348 H   0  0  0  0  0  0  0  0  0  0  0  0
    2.3528    2.5641   -1.0864 H   0  0  0  0  0  0  0  0  0  0  0  0
    3.1891    3.1892   -3.3278 H   0  0  0  0  0  0  0  0  0  0  0  0
    7.0853    1.3555   -7.0403 H   0  0  0  0  0  0  0  0  0  0  0  0
    6.0708    0.2696   -9.0349 H   0  0  0  0  0  0  0  0  0  0  0  0
    4.3995   -1.5496   -8.6778 H   0  0  0  0  0  0  0  0  0  0  0  0
  1 16  1  0  0  0  0
  2 16  1  0  0  0  0
  3 16  1  0  0  0  0
  4 20  1  0  0  0  0
  4 21  1  0  0  0  0
  5 20  2  0  0  0  0
  6  8  1  0  0  0  0
  6 11  1  0  0  0  0
  6 22  1  0  0  0  0
  7 11  1  0  0  0  0
  7 19  2  0  0  0  0
  8 10  1  0  0  0  0
  8 12  2  0  0  0  0
  9 10  2  0  0  0  0
  9 13  1  0  0  0  0
  9 16  1  0  0  0  0
 10 23  1  0  0  0  0
 11 14  2  0  0  0  0
 12 15  1  0  0  0  0
 12 24  1  0  0  0  0
 13 15  2  0  0  0  0
 13 25  1  0  0  0  0
 14 17  1  0  0  0  0
 14 20  1  0  0  0  0
 15 26  1  0  0  0  0
 17 18  2  0  0  0  0
 17 27  1  0  0  0  0
 18 19  1  0  0  0  0
 18 28  1  0  0  0  0
 19 29  1  0  0  0  0
M  END
>  <DRUGBANK_ID>
DB04552

>  <SECONDARY_ACCESSION_NUMBERS>
EXPT02331

>  <COMMON_NAME>
Niflumic acid

>  <CAS_NUMBER>
4394-00-7

>  <UNII>
4U5MP5IUD8

>  <SYNONYMS>
Acide niflumique; Acido niflumico; Acidum niflumicum; NFA; Niflumic acid

$$$$
