
 OpenBabel10282417213D

 68 71  0  0  0  0  0  0  0  0999 V2000
   -1.0058   -1.6931    1.9688 O   0  0  0  0  0  0  0  0  0  0  0  0
   -7.2378   -4.1280    1.6618 O   0  0  0  0  0  0  0  0  0  0  0  0
   -1.7653   -1.5556   -0.4454 O   0  0  0  0  0  0  0  0  0  0  0  0
   -0.5757   -1.7401    5.1492 C   0  0  1  0  0  0  0  0  0  0  0  0
   -2.0280   -2.1527    5.2427 C   0  0  1  0  0  0  0  0  0  0  0  0
    0.6358   -2.3848    5.1132 C   0  0  1  0  0  0  0  0  0  0  0  0
   -2.2540   -3.6677    5.1435 C   0  0  1  0  0  0  0  0  0  0  0  0
    0.4230   -1.6966    3.2112 C   0  0  2  0  0  0  0  0  0  0  0  0
   -3.5955   -4.0978    3.9882 C   0  0  2  0  0  0  0  0  0  0  0  0
    0.2040   -0.3448    4.9812 C   0  0  0  0  0  0  0  0  0  0  0  0
   -0.1927   -3.6229    6.3492 C   0  0  0  0  0  0  0  0  0  0  0  0
   -1.8393   -3.7939    6.5757 C   0  0  0  0  0  0  0  0  0  0  0  0
   -2.6383   -2.0693    3.9737 C   0  0  0  0  0  0  0  0  0  0  0  0
    0.1273   -0.2646    3.5578 C   0  0  0  0  0  0  0  0  0  0  0  0
   -4.8446   -3.3202    4.0504 C   0  0  0  0  0  0  0  0  0  0  0  0
    0.9459   -1.5378    6.8663 C   0  0  0  0  0  0  0  0  0  0  0  0
   -4.2493   -1.9455    4.0612 C   0  0  0  0  0  0  0  0  0  0  0  0
   -3.7150   -3.3685    2.1600 C   0  0  0  0  0  0  0  0  0  0  0  0
    1.2143   -1.7682    1.7249 C   0  0  0  0  0  0  0  0  0  0  0  0
   -5.7901   -4.1342    3.5240 C   0  0  0  0  0  0  0  0  0  0  0  0
   -5.2266   -2.8432    1.5349 C   0  0  0  0  0  0  0  0  0  0  0  0
   -6.1797   -3.7748    2.1494 C   0  0  0  0  0  0  0  0  0  0  0  0
   -1.6698   -0.9677    0.6513 C   0  0  0  0  0  0  0  0  0  0  0  0
    1.1302   -1.7364    0.4987 C   0  0  0  0  0  0  0  0  0  0  0  0
   -2.7795    0.3624    0.7231 C   0  0  0  0  0  0  0  0  0  0  0  0
   -3.7945    0.2052    1.8047 C   0  0  0  0  0  0  0  0  0  0  0  0
   -2.8746    0.2293    2.9082 C   0  0  0  0  0  0  0  0  0  0  0  0
   -1.9979    1.3722    3.1863 C   0  0  0  0  0  0  0  0  0  0  0  0
   -2.6283    2.0034    4.3591 C   0  0  0  0  0  0  0  0  0  0  0  0
   -2.9088    1.1217    5.6217 C   0  0  0  0  0  0  0  0  0  0  0  0
   -0.5637   -2.5525    4.3833 H   0  0  0  0  0  0  0  0  0  0  0  0
   -2.5176   -1.4934    5.9465 H   0  0  0  0  0  0  0  0  0  0  0  0
   -1.5099   -4.3123    4.6759 H   0  0  0  0  0  0  0  0  0  0  0  0
   -4.0499   -4.0363    5.0205 H   0  0  0  0  0  0  0  0  0  0  0  0
    1.3084   -0.2215    5.0628 H   0  0  0  0  0  0  0  0  0  0  0  0
   -0.2042    0.3905    5.6652 H   0  0  0  0  0  0  0  0  0  0  0  0
    0.4721   -4.4718    6.3685 H   0  0  0  0  0  0  0  0  0  0  0  0
   -0.0815   -3.4628    7.4434 H   0  0  0  0  0  0  0  0  0  0  0  0
   -2.0313   -4.6762    7.1808 H   0  0  0  0  0  0  0  0  0  0  0  0
   -2.3045   -2.9921    7.2372 H   0  0  0  0  0  0  0  0  0  0  0  0
   -2.1180   -2.8150    3.2975 H   0  0  0  0  0  0  0  0  0  0  0  0
   -2.0004   -1.3392    3.6928 H   0  0  0  0  0  0  0  0  0  0  0  0
    0.4985    0.5965    3.0256 H   0  0  0  0  0  0  0  0  0  0  0  0
   -0.8980   -0.1758    3.7634 H   0  0  0  0  0  0  0  0  0  0  0  0
    1.9608   -1.2862    7.1394 H   0  0  0  0  0  0  0  0  0  0  0  0
    0.1985   -0.7647    7.2330 H   0  0  0  0  0  0  0  0  0  0  0  0
    0.7352   -2.1457    7.7732 H   0  0  0  0  0  0  0  0  0  0  0  0
   -4.6053   -1.4265    3.2073 H   0  0  0  0  0  0  0  0  0  0  0  0
   -4.6231   -1.3260    4.8649 H   0  0  0  0  0  0  0  0  0  0  0  0
   -3.1999   -3.8669    1.3209 H   0  0  0  0  0  0  0  0  0  0  0  0
   -3.1589   -2.4338    1.9854 H   0  0  0  0  0  0  0  0  0  0  0  0
   -5.7020   -5.2134    3.7034 H   0  0  0  0  0  0  0  0  0  0  0  0
   -5.2653   -2.6311    0.4540 H   0  0  0  0  0  0  0  0  0  0  0  0
   -5.6715   -1.8960    1.9147 H   0  0  0  0  0  0  0  0  0  0  0  0
    0.7791   -1.7236   -0.5809 H   0  0  0  0  0  0  0  0  0  0  0  0
   -2.2467    1.3069    0.7545 H   0  0  0  0  0  0  0  0  0  0  0  0
   -3.4400    0.4520   -0.1483 H   0  0  0  0  0  0  0  0  0  0  0  0
   -4.6004    0.8039    2.2146 H   0  0  0  0  0  0  0  0  0  0  0  0
   -4.2134   -0.7555    1.5399 H   0  0  0  0  0  0  0  0  0  0  0  0
   -3.3085   -0.1055    3.8048 H   0  0  0  0  0  0  0  0  0  0  0  0
   -2.3150   -0.5342    2.4881 H   0  0  0  0  0  0  0  0  0  0  0  0
   -1.0823    1.4038    3.7479 H   0  0  0  0  0  0  0  0  0  0  0  0
   -1.3675    1.5074    2.3024 H   0  0  0  0  0  0  0  0  0  0  0  0
   -1.9240    2.7689    4.6697 H   0  0  0  0  0  0  0  0  0  0  0  0
   -3.5547    2.3637    3.9439 H   0  0  0  0  0  0  0  0  0  0  0  0
   -2.0335    0.7280    6.1484 H   0  0  0  0  0  0  0  0  0  0  0  0
   -3.4636    1.7391    6.3115 H   0  0  0  0  0  0  0  0  0  0  0  0
   -3.5633    0.2586    5.4949 H   0  0  0  0  0  0  0  0  0  0  0  0
  1 23  1  0  0  0  0
  2 22  2  0  0  0  0
  3 23  2  0  0  0  0
  4  5  1  0  0  0  0
  4  6  1  0  0  0  0
  4 10  1  0  0  0  0
  4 31  1  1  0  0  0
  5  7  1  0  0  0  0
  5 13  1  0  0  0  0
  5 32  1  6  0  0  0
  6  8  1  0  0  0  0
  6 11  1  0  0  0  0
  6 16  1  6  0  0  0
  7  9  1  0  0  0  0
  7 12  1  0  0  0  0
  7 33  1  1  0  0  0
  8 14  1  0  0  0  0
  8 19  1  6  0  0  0
  8  1  1  0  0  0  0
  9 15  1  0  0  0  0
  9 18  1  0  0  0  0
  9 34  1  6  0  0  0
 10 14  1  0  0  0  0
 10 35  1  0  0  0  0
 10 36  1  0  0  0  0
 11 12  1  0  0  0  0
 11 37  1  0  0  0  0
 11 38  1  0  0  0  0
 12 39  1  0  0  0  0
 12 40  1  0  0  0  0
 13 17  1  0  0  0  0
 13 41  1  0  0  0  0
 13 42  1  0  0  0  0
 14 43  1  0  0  0  0
 14 44  1  0  0  0  0
 15 17  1  0  0  0  0
 15 20  2  0  0  0  0
 16 45  1  0  0  0  0
 16 46  1  0  0  0  0
 16 47  1  0  0  0  0
 17 48  1  0  0  0  0
 17 49  1  0  0  0  0
 18 21  1  0  0  0  0
 18 50  1  0  0  0  0
 18 51  1  0  0  0  0
 19 24  3  0  0  0  0
 20 22  1  0  0  0  0
 20 52  1  0  0  0  0
 21 22  1  0  0  0  0
 21 53  1  0  0  0  0
 21 54  1  0  0  0  0
 23 25  1  0  0  0  0
 24 55  1  0  0  0  0
 25 26  1  0  0  0  0
 25 56  1  0  0  0  0
 25 57  1  0  0  0  0
 26 27  1  0  0  0  0
 26 58  1  0  0  0  0
 26 59  1  0  0  0  0
 27 28  1  0  0  0  0
 27 60  1  0  0  0  0
 27 61  1  0  0  0  0
 28 29  1  0  0  0  0
 28 62  1  0  0  0  0
 28 63  1  0  0  0  0
 29 30  1  0  0  0  0
 29 64  1  0  0  0  0
 29 65  1  0  0  0  0
 30 66  1  0  0  0  0
 30 67  1  0  0  0  0
 30 68  1  0  0  0  0
M  END
>  <DRUGBANK_ID>
DB14678

>  <COMMON_NAME>
Norethindrone enanthate

>  <CAS_NUMBER>
3836-23-5

>  <UNII>
HY3S2K0J0F

>  <SYNONYMS>
Norethisterone enanthate; Norethisterone oenanthate

$$$$
