
 OpenBabel10282417133D

 11 10  0  0  0  0  0  0  0  0999 V2000
    0.9338   -0.0526   -0.0535 C   0  0  0  0  0  0  0  0  0  0  0  0
    0.2805    0.0580    1.7911 Se  0  0  0  0  0  0  0  0  0  0  0  0
    0.9338   -1.4842    2.8092 C   0  0  0  0  0  0  0  0  0  0  0  0
    0.4272   -2.7659    2.1681 C   0  0  0  0  0  0  0  0  0  0  0  0
    1.3499   -3.7312    1.6854 O   0  5  0  0  0  0  0  0  0  0  0  0
   -0.8223   -2.9736    2.0643 O   0  0  0  0  0  0  0  0  0  0  0  0
    0.5772    0.7894   -0.6092 H   0  0  0  0  0  0  0  0  0  0  0  0
    0.5772   -0.9548   -0.5047 H   0  0  0  0  0  0  0  0  0  0  0  0
    2.0038   -0.0526   -0.0535 H   0  0  0  0  0  0  0  0  0  0  0  0
    2.0038   -1.4842    2.8092 H   0  0  0  0  0  0  0  0  0  0  0  0
    0.5772   -1.4238    3.8162 H   0  0  0  0  0  0  0  0  0  0  0  0
  1  2  1  0  0  0  0
  1  7  1  0  0  0  0
  1  8  1  0  0  0  0
  1  9  1  0  0  0  0
  2  3  1  0  0  0  0
  3  4  1  0  0  0  0
  3 10  1  0  0  0  0
  3 11  1  0  0  0  0
  4  5  1  0  0  0  0
  4  6  2  0  0  0  0
M  CHG  1   5  -1
M  END
>  <DRUGBANK_ID>
DB03098

>  <SECONDARY_ACCESSION_NUMBERS>
EXPT02237

>  <COMMON_NAME>
[Methylseleno]Acetate

$$$$
