KSM
 OpenBabel10282417173D

 52 56  0  0  0  0  0  0  0  0999 V2000
    2.4011   -0.0851    0.2838 Cl  0  0  0  0  0  0  0  0  0  0  0  0
    0.6860   -0.1940    0.0505 C   0  0  0  0  0  0  0  0  0  0  0  0
    0.2520   -1.5228   -0.0009 C   0  0  0  0  0  0  0  0  0  0  0  0
   -1.0970   -1.8264   -0.0180 C   0  0  0  0  0  0  0  0  0  0  0  0
   -2.0289   -0.7965   -0.0014 C   0  0  0  0  0  0  0  0  0  0  0  0
   -1.6238    0.5540   -0.0061 C   0  0  0  0  0  0  0  0  0  0  0  0
   -2.7041    1.6075   -0.0432 C   0  0  0  0  0  0  0  0  0  0  0  0
   -0.2387    0.8883    0.0229 C   0  0  0  0  0  0  0  0  0  0  0  0
    0.1105    2.2683   -0.0877 N   0  0  0  0  0  0  0  0  0  0  0  0
    1.4054    2.7308   -0.0481 C   0  0  0  0  0  0  0  0  0  0  0  0
    1.9367    3.4424    1.0876 C   0  0  0  0  0  0  0  0  0  0  0  0
    1.3967    3.8749    2.2747 C   0  0  0  0  0  0  0  0  0  0  0  0
    2.3482    4.4984    3.0427 N   0  0  0  0  0  0  0  0  0  0  0  0
    2.1860    2.5001   -1.0646 N   0  0  0  0  0  0  0  0  0  0  0  0
    3.5599    2.7943   -0.9838 C   0  0  0  0  0  0  0  0  0  0  0  0
    4.3711    2.3515   -2.0175 C   0  0  0  0  0  0  0  0  0  0  0  0
    5.7337    2.6469   -2.0145 C   0  0  0  0  0  0  0  0  0  0  0  0
    6.3326    3.3515   -0.9599 C   0  0  0  0  0  0  0  0  0  0  0  0
    5.5244    3.7200    0.1293 C   0  0  0  0  0  0  0  0  0  0  0  0
    4.1505    3.4476    0.1060 C   0  0  0  0  0  0  0  0  0  0  0  0
    3.2687    3.7806    1.1461 N   0  0  0  0  0  0  0  0  0  0  0  0
    3.4624    4.4225    2.3402 C   0  0  0  0  0  0  0  0  0  0  0  0
    7.6684    3.6813   -0.9919 N   0  0  0  0  0  0  0  0  0  0  0  0
    8.5965    3.2415    0.0467 C   0  0  0  0  0  0  0  0  0  0  0  0
    9.7624    2.4443   -0.5912 C   0  0  0  0  0  0  0  0  0  0  0  0
   10.4427    3.1310   -1.7160 N   0  0  0  0  0  0  0  0  0  0  0  0
    9.4580    3.5909   -2.7303 C   0  0  1  0  0  0  0  0  0  0  0  0
    8.9644    2.4305   -3.5962 C   0  0  0  0  0  0  0  0  0  0  0  0
    8.2761    4.3929   -2.1200 C   0  0  0  0  0  0  0  0  0  0  0  0
    9.9977    4.2692   -3.4042 H   0  0  0  0  0  0  0  0  0  0  0  0
    0.9833   -2.3283   -0.0080 H   0  0  0  0  0  0  0  0  0  0  0  0
   -1.4109   -2.8657   -0.0333 H   0  0  0  0  0  0  0  0  0  0  0  0
   -3.0852   -1.0582    0.0005 H   0  0  0  0  0  0  0  0  0  0  0  0
   -2.6416    2.2525    0.8396 H   0  0  0  0  0  0  0  0  0  0  0  0
   -2.6128    2.2128   -0.9502 H   0  0  0  0  0  0  0  0  0  0  0  0
   -3.7058    1.1624   -0.0452 H   0  0  0  0  0  0  0  0  0  0  0  0
   -0.5812    2.8915    0.3008 H   0  0  0  0  0  0  0  0  0  0  0  0
    0.3759    3.7731    2.6229 H   0  0  0  0  0  0  0  0  0  0  0  0
    3.9397    1.7647   -2.8246 H   0  0  0  0  0  0  0  0  0  0  0  0
    6.3230    2.2876   -2.8497 H   0  0  0  0  0  0  0  0  0  0  0  0
    5.9791    4.2531    0.9571 H   0  0  0  0  0  0  0  0  0  0  0  0
    4.4178    4.8171    2.6570 H   0  0  0  0  0  0  0  0  0  0  0  0
    8.9964    4.1300    0.5495 H   0  0  0  0  0  0  0  0  0  0  0  0
    8.1070    2.6223    0.8069 H   0  0  0  0  0  0  0  0  0  0  0  0
   10.5108    2.2378    0.1823 H   0  0  0  0  0  0  0  0  0  0  0  0
    9.3999    1.4686   -0.9352 H   0  0  0  0  0  0  0  0  0  0  0  0
   10.8957    3.9615   -1.3337 H   0  0  0  0  0  0  0  0  0  0  0  0
    8.2946    2.8035   -4.3799 H   0  0  0  0  0  0  0  0  0  0  0  0
    9.7972    1.9196   -4.0893 H   0  0  0  0  0  0  0  0  0  0  0  0
    8.4186    1.6824   -3.0155 H   0  0  0  0  0  0  0  0  0  0  0  0
    8.6784    5.3351   -1.7226 H   0  0  0  0  0  0  0  0  0  0  0  0
    7.5465    4.6726   -2.8888 H   0  0  0  0  0  0  0  0  0  0  0  0
  1  2  1  0  0  0  0
  2  3  2  0  0  0  0
  2  8  1  0  0  0  0
  3  4  1  0  0  0  0
  3 31  1  0  0  0  0
  4  5  2  0  0  0  0
  4 32  1  0  0  0  0
  5  6  1  0  0  0  0
  5 33  1  0  0  0  0
  6  7  1  0  0  0  0
  6  8  2  0  0  0  0
  7 34  1  0  0  0  0
  7 35  1  0  0  0  0
  7 36  1  0  0  0  0
  8  9  1  0  0  0  0
  9 10  1  0  0  0  0
  9 37  1  0  0  0  0
 10 11  1  0  0  0  0
 10 14  2  0  0  0  0
 11 12  2  0  0  0  0
 11 21  1  0  0  0  0
 12 13  1  0  0  0  0
 12 38  1  0  0  0  0
 13 22  2  0  0  0  0
 14 15  1  0  0  0  0
 15 16  2  0  0  0  0
 15 20  1  0  0  0  0
 16 17  1  0  0  0  0
 16 39  1  0  0  0  0
 17 18  2  0  0  0  0
 17 40  1  0  0  0  0
 18 19  1  0  0  0  0
 18 23  1  0  0  0  0
 19 20  2  0  0  0  0
 19 41  1  0  0  0  0
 20 21  1  0  0  0  0
 21 22  1  0  0  0  0
 22 42  1  0  0  0  0
 23 24  1  0  0  0  0
 23 29  1  0  0  0  0
 24 25  1  0  0  0  0
 24 43  1  0  0  0  0
 24 44  1  0  0  0  0
 25 26  1  0  0  0  0
 25 45  1  0  0  0  0
 25 46  1  0  0  0  0
 26 27  1  0  0  0  0
 26 47  1  0  0  0  0
 27 28  1  0  0  0  0
 27 29  1  0  0  0  0
 27 30  1  6  0  0  0
 28 48  1  0  0  0  0
 28 49  1  0  0  0  0
 28 50  1  0  0  0  0
 29 51  1  0  0  0  0
 29 52  1  0  0  0  0
M  END
>  <DRUGBANK_ID>
DB08057

>  <COMMON_NAME>
N-(2-chloro-6-methylphenyl)-8-[(3S)-3-methylpiperazin-1-yl]imidazo[1,5-a]quinoxalin-4-amine

$$$$
