
 OpenBabel10282417213D

 98103  0  0  0  0  0  0  0  0999 V2000
    0.9335    0.0340    0.0156 C   0  0  0  0  0  0  0  0  0  0  0  0
    0.4722    0.3169   -1.4053 C   0  0  0  0  0  0  0  0  0  0  0  0
    0.9625   -0.7765   -2.3551 C   0  0  0  0  0  0  0  0  0  0  0  0
    0.4201   -2.1561   -1.9649 C   0  0  0  0  0  0  0  0  0  0  0  0
   -1.0909   -2.2505   -2.0863 C   0  0  0  0  0  0  0  0  0  0  0  0
   -1.5668   -1.9934   -3.5197 C   0  0  0  0  0  0  0  0  0  0  0  0
   -1.2471   -3.1028   -4.5773 C   0  0  0  0  0  0  0  0  0  0  0  0
   -2.1143   -3.7447   -5.0868 O   0  0  0  0  0  0  0  0  0  0  0  0
    0.0895   -3.2086   -4.8934 O   0  0  0  0  0  0  0  0  0  0  0  0
    0.8964   -4.1041   -5.9727 C   0  0  2  0  0  0  0  0  0  0  0  0
    2.3800   -3.4737   -6.1128 C   0  0  2  0  0  0  0  0  0  0  0  0
    2.0393   -2.3648   -7.1739 C   0  0  1  0  0  0  0  0  0  0  0  0
    0.5587   -2.3529   -7.4464 C   0  0  0  0  0  0  0  0  0  0  0  0
    0.1616   -3.7925   -7.2434 C   0  0  0  0  0  0  0  0  0  0  0  0
    2.5049   -1.0770   -6.6277 C   0  0  2  0  0  0  0  0  0  0  0  0
    2.0155    0.1960   -7.3682 C   0  0  0  0  0  0  0  0  0  0  0  0
    2.4841    1.5094   -6.7446 C   0  0  0  0  0  0  0  0  0  0  0  0
    3.9405    1.4314   -6.7945 C   0  0  0  0  0  0  0  0  0  0  0  0
    4.3407    0.1620   -5.9359 C   0  0  2  0  0  0  0  0  0  0  0  0
    4.0091   -1.1729   -6.6052 C   0  0  1  0  0  0  0  0  0  0  0  0
    4.7039   -2.4996   -6.0482 C   0  0  0  0  0  0  0  0  0  0  0  0
    3.8972   -3.7683   -6.5318 C   0  0  0  0  0  0  0  0  0  0  0  0
    4.3181   -1.2042   -7.6549 H   0  0  0  0  0  0  0  0  0  0  0  0
    3.9073    0.1570   -4.4440 C   0  0  0  0  0  0  0  0  0  0  0  0
    5.7578    0.1955   -5.9815 C   0  0  0  0  0  0  0  0  0  0  0  0
    6.2089    0.5592   -7.2899 C   0  0  0  0  0  0  0  0  0  0  0  0
    6.1453    1.9161   -7.7304 C   0  0  0  0  0  0  0  0  0  0  0  0
    7.2113    2.5527   -8.1724 N   0  0  0  0  0  0  0  0  0  0  0  0
    8.6727    2.0211   -8.1919 N   0  0  0  0  0  0  0  0  0  0  0  0
    9.4494    0.9410   -7.6314 C   0  0  0  0  0  0  0  0  0  0  0  0
   10.6866    1.0044   -7.6642 O   0  0  0  0  0  0  0  0  0  0  0  0
    8.7581   -0.3283   -6.9320 C   0  0  0  0  0  0  0  0  0  0  0  0
    8.2492    0.4516   -5.3436 C   0  0  0  0  0  0  0  0  0  0  0  0
    7.6380   -0.2273   -4.2053 C   0  0  0  0  0  0  0  0  0  0  0  0
    6.7916    0.4803   -3.2402 C   0  0  0  0  0  0  0  0  0  0  0  0
    6.5605    1.8659   -3.3209 C   0  0  0  0  0  0  0  0  0  0  0  0
    7.2425    2.5791   -4.2972 C   0  0  0  0  0  0  0  0  0  0  0  0
    8.0867    1.9010   -5.2445 C   0  0  0  0  0  0  0  0  0  0  0  0
    7.8766   -0.9827   -8.4064 C   0  0  0  0  0  0  0  0  0  0  0  0
    7.5831   -2.3446   -8.5026 C   0  0  0  0  0  0  0  0  0  0  0  0
    6.6108   -2.8410   -9.4294 C   0  0  0  0  0  0  0  0  0  0  0  0
    5.7776   -2.0159  -10.1915 C   0  0  0  0  0  0  0  0  0  0  0  0
    6.0318   -0.6712  -10.1692 C   0  0  0  0  0  0  0  0  0  0  0  0
    7.2117   -0.2119   -9.4981 C   0  0  0  0  0  0  0  0  0  0  0  0
    9.2737   -1.5238   -6.3963 O   0  0  0  0  0  0  0  0  0  0  0  0
    4.6968    2.2408   -7.6167 C   0  0  0  0  0  0  0  0  0  0  0  0
    2.1029   -1.0352   -5.6180 H   0  0  0  0  0  0  0  0  0  0  0  0
    2.5226   -2.5518   -8.1546 H   0  0  0  0  0  0  0  0  0  0  0  0
    2.6434   -3.3413   -4.6046 C   0  0  0  0  0  0  0  0  0  0  0  0
    9.3034    2.7201   -8.5815 H   0  0  0  0  0  0  0  0  0  0  0  0
    0.5431   -0.9173    0.3896 H   0  0  0  0  0  0  0  0  0  0  0  0
    0.5840    0.8081    0.6995 H   0  0  0  0  0  0  0  0  0  0  0  0
    2.0263   -0.0131    0.0514 H   0  0  0  0  0  0  0  0  0  0  0  0
   -0.6205    0.3963   -1.4325 H   0  0  0  0  0  0  0  0  0  0  0  0
    0.8528    1.2897   -1.7341 H   0  0  0  0  0  0  0  0  0  0  0  0
    0.6843   -0.5142   -3.3827 H   0  0  0  0  0  0  0  0  0  0  0  0
    2.0568   -0.8051   -2.3461 H   0  0  0  0  0  0  0  0  0  0  0  0
    0.8455   -2.9366   -2.5745 H   0  0  0  0  0  0  0  0  0  0  0  0
    0.7521   -2.4380   -0.9631 H   0  0  0  0  0  0  0  0  0  0  0  0
   -1.4290   -3.2336   -1.7441 H   0  0  0  0  0  0  0  0  0  0  0  0
   -1.5517   -1.5319   -1.3927 H   0  0  0  0  0  0  0  0  0  0  0  0
   -2.6630   -1.9195   -3.4623 H   0  0  0  0  0  0  0  0  0  0  0  0
   -1.2698   -1.0005   -3.8786 H   0  0  0  0  0  0  0  0  0  0  0  0
    0.9079   -5.1287   -5.5957 H   0  0  0  0  0  0  0  0  0  0  0  0
    0.3167   -1.9767   -8.4415 H   0  0  0  0  0  0  0  0  0  0  0  0
    0.0819   -1.6856   -6.7182 H   0  0  0  0  0  0  0  0  0  0  0  0
    0.4868   -4.4465   -8.0512 H   0  0  0  0  0  0  0  0  0  0  0  0
   -0.9192   -3.8430   -7.1311 H   0  0  0  0  0  0  0  0  0  0  0  0
    0.9322    0.2316   -7.3590 H   0  0  0  0  0  0  0  0  0  0  0  0
    2.3713    0.1449   -8.4062 H   0  0  0  0  0  0  0  0  0  0  0  0
    2.1870    1.6128   -5.6956 H   0  0  0  0  0  0  0  0  0  0  0  0
    2.1436    2.3928   -7.2776 H   0  0  0  0  0  0  0  0  0  0  0  0
    4.8306   -2.4739   -4.9582 H   0  0  0  0  0  0  0  0  0  0  0  0
    5.7644   -2.6079   -6.3211 H   0  0  0  0  0  0  0  0  0  0  0  0
    4.3569   -4.6504   -6.0649 H   0  0  0  0  0  0  0  0  0  0  0  0
    4.1304   -3.8363   -7.6065 H   0  0  0  0  0  0  0  0  0  0  0  0
    4.3369   -0.6905   -3.8950 H   0  0  0  0  0  0  0  0  0  0  0  0
    4.1812    1.0737   -3.9296 H   0  0  0  0  0  0  0  0  0  0  0  0
    2.8345    0.0890   -4.3022 H   0  0  0  0  0  0  0  0  0  0  0  0
    5.9636    1.0128   -5.3540 H   0  0  0  0  0  0  0  0  0  0  0  0
    6.2133   -0.7650   -5.7725 H   0  0  0  0  0  0  0  0  0  0  0  0
    7.2177    0.5907   -7.2243 H   0  0  0  0  0  0  0  0  0  0  0  0
    5.7878   -0.1615   -7.9480 H   0  0  0  0  0  0  0  0  0  0  0  0
    7.4410   -1.3038   -4.2145 H   0  0  0  0  0  0  0  0  0  0  0  0
    6.0763   -0.0881   -2.6281 H   0  0  0  0  0  0  0  0  0  0  0  0
    5.7085    2.3350   -2.8119 H   0  0  0  0  0  0  0  0  0  0  0  0
    6.9546    3.6201   -4.4831 H   0  0  0  0  0  0  0  0  0  0  0  0
    8.3579    2.5709   -6.0491 H   0  0  0  0  0  0  0  0  0  0  0  0
    8.0821   -3.0598   -7.8646 H   0  0  0  0  0  0  0  0  0  0  0  0
    6.4565   -3.9121   -9.5094 H   0  0  0  0  0  0  0  0  0  0  0  0
    4.9553   -2.4039  -10.7913 H   0  0  0  0  0  0  0  0  0  0  0  0
    5.2545    0.0270  -10.5212 H   0  0  0  0  0  0  0  0  0  0  0  0
    7.3107    0.8589   -9.6568 H   0  0  0  0  0  0  0  0  0  0  0  0
    8.4945   -1.9546   -5.9917 H   0  0  0  0  0  0  0  0  0  0  0  0
    4.2967    2.9312   -8.3423 H   0  0  0  0  0  0  0  0  0  0  0  0
    3.2415   -2.5242   -4.2446 H   0  0  0  0  0  0  0  0  0  0  0  0
    1.7848   -3.1207   -4.0379 H   0  0  0  0  0  0  0  0  0  0  0  0
    3.0038   -4.3100   -4.2342 H   0  0  0  0  0  0  0  0  0  0  0  0
  1  2  1  0  0  0  0
  1 51  1  0  0  0  0
  1 52  1  0  0  0  0
  1 53  1  0  0  0  0
  2  3  1  0  0  0  0
  2 54  1  0  0  0  0
  2 55  1  0  0  0  0
  3  4  1  0  0  0  0
  3 56  1  0  0  0  0
  3 57  1  0  0  0  0
  4  5  1  0  0  0  0
  4 58  1  0  0  0  0
  4 59  1  0  0  0  0
  5  6  1  0  0  0  0
  5 60  1  0  0  0  0
  5 61  1  0  0  0  0
  6  7  1  0  0  0  0
  6 62  1  0  0  0  0
  6 63  1  0  0  0  0
  7  8  2  0  0  0  0
  7  9  1  0  0  0  0
 10  9  1  0  0  0  0
 10 11  1  0  0  0  0
 10 14  1  0  0  0  0
 10 64  1  1  0  0  0
 11 12  1  0  0  0  0
 11 22  1  0  0  0  0
 11 49  1  1  0  0  0
 12 13  1  0  0  0  0
 12 15  1  0  0  0  0
 12 48  1  6  0  0  0
 13 14  1  0  0  0  0
 13 65  1  0  0  0  0
 13 66  1  0  0  0  0
 14 67  1  0  0  0  0
 14 68  1  0  0  0  0
 15 16  1  0  0  0  0
 15 20  1  0  0  0  0
 15 47  1  1  0  0  0
 16 17  1  0  0  0  0
 16 69  1  0  0  0  0
 16 70  1  0  0  0  0
 17 18  1  0  0  0  0
 17 71  1  0  0  0  0
 17 72  1  0  0  0  0
 18 19  1  0  0  0  0
 18 46  2  0  0  0  0
 19 20  1  0  0  0  0
 19 24  1  1  0  0  0
 19 25  1  0  0  0  0
 20 21  1  0  0  0  0
 20 23  1  6  0  0  0
 21 22  1  0  0  0  0
 21 73  1  0  0  0  0
 21 74  1  0  0  0  0
 22 75  1  0  0  0  0
 22 76  1  0  0  0  0
 24 77  1  0  0  0  0
 24 78  1  0  0  0  0
 24 79  1  0  0  0  0
 25 26  1  0  0  0  0
 25 80  1  0  0  0  0
 25 81  1  0  0  0  0
 26 27  1  0  0  0  0
 26 82  1  0  0  0  0
 26 83  1  0  0  0  0
 27 28  2  3  0  0  0
 27 46  1  0  0  0  0
 28 29  1  0  0  0  0
 29 30  1  0  0  0  0
 29 50  1  0  0  0  0
 30 31  2  0  0  0  0
 30 32  1  0  0  0  0
 32 33  1  0  0  0  0
 32 39  1  0  0  0  0
 32 45  1  0  0  0  0
 33 34  1  0  0  0  0
 33 38  2  0  0  0  0
 34 35  2  0  0  0  0
 34 84  1  0  0  0  0
 35 36  1  0  0  0  0
 35 85  1  0  0  0  0
 36 37  2  0  0  0  0
 36 86  1  0  0  0  0
 37 38  1  0  0  0  0
 37 87  1  0  0  0  0
 38 88  1  0  0  0  0
 39 40  1  0  0  0  0
 39 44  2  0  0  0  0
 40 41  2  0  0  0  0
 40 89  1  0  0  0  0
 41 42  1  0  0  0  0
 41 90  1  0  0  0  0
 42 43  2  0  0  0  0
 42 91  1  0  0  0  0
 43 44  1  0  0  0  0
 43 92  1  0  0  0  0
 44 93  1  0  0  0  0
 45 94  1  0  0  0  0
 46 95  1  0  0  0  0
 49 96  1  0  0  0  0
 49 97  1  0  0  0  0
 49 98  1  0  0  0  0
M  END
>  <DRUGBANK_ID>
DB13947

>  <SECONDARY_ACCESSION_NUMBERS>
DBSALT002571

>  <COMMON_NAME>
Testosterone enantate benzilic acid hydrazone

>  <CAS_NUMBER>
18625-33-7

>  <UNII>
X8Z8A2G2Y4

>  <SYNONYMS>
Testosterone 17-enanthate 3-benzilic acid hydrazone; Testosterone enanthate benzilic acid hydrazone

$$$$
