
 OpenBabel10282417193D

 43 45  0  0  1  0  0  0  0  0999 V2000
   -1.1804   -0.0041   -0.8305 C   0  0  0  0  0  0  0  0  0  0  0  0
    0.1337    0.8274   -0.7924 C   0  0  0  0  0  0  0  0  0  0  0  0
    0.6938    0.5912    0.6334 C   0  0  2  0  0  0  0  0  0  0  0  0
    0.3398   -0.8320    0.8615 N   0  0  0  0  0  0  0  0  0  0  0  0
   -1.3143   -1.3567    0.9365 C   0  0  0  0  0  0  0  0  0  0  0  0
   -1.2431   -1.5390   -0.5210 C   0  0  2  0  0  0  0  0  0  0  0  0
   -0.0784   -2.5412   -0.4432 N   0  0  0  0  0  0  0  0  0  0  0  0
    0.9386   -1.6024   -0.2985 C   0  0  0  0  0  0  0  0  0  0  0  0
    1.7202   -1.3241   -1.1850 O   0  0  0  0  0  0  0  0  0  0  0  0
    0.0387   -3.1279    1.0712 O   0  0  0  0  0  0  0  0  0  0  0  0
    1.5610   -3.1838    1.7890 S   0  0  0  0  0  0  0  0  0  0  0  0
    2.2766   -4.1835    0.9822 O   0  0  0  0  0  0  0  0  0  0  0  0
    2.1922   -1.9367    2.0960 O   0  0  0  0  0  0  0  0  0  0  0  0
    1.3233   -3.8660    3.2253 O   0  0  0  0  0  0  0  0  0  0  0  0
    0.2022    1.1013    2.0094 C   0  0  0  0  0  0  0  0  0  0  0  0
    0.9136    0.9544    3.0152 O   0  0  0  0  0  0  0  0  0  0  0  0
   -1.1242    1.4235    2.2126 N   0  0  0  0  0  0  0  0  0  0  0  0
   -2.2465    1.7518    1.2395 C   0  0  0  0  0  0  0  0  0  0  0  0
   -1.8899    2.4863   -0.1400 C   0  0  0  0  0  0  0  0  0  0  0  0
   -0.8955    3.5783    0.1746 C   0  0  0  0  0  0  0  0  0  0  0  0
   -1.8074    4.5565    0.7162 N   0  0  0  0  0  0  0  0  0  0  0  0
   -2.4380    4.0207    1.9496 C   0  0  0  0  0  0  0  0  0  0  0  0
   -3.2318    2.7270    1.7944 C   0  0  0  0  0  0  0  0  0  0  0  0
   -1.3791    0.3752    0.1429 H   0  0  0  0  0  0  0  0  0  0  0  0
   -2.2060    0.3230   -1.0833 H   0  0  0  0  0  0  0  0  0  0  0  0
    0.7024    0.4804   -1.6486 H   0  0  0  0  0  0  0  0  0  0  0  0
    0.1844    1.8895   -1.0318 H   0  0  0  0  0  0  0  0  0  0  0  0
    1.7535    0.9051    0.5816 H   0  0  0  0  0  0  0  0  0  0  0  0
   -1.7678   -2.3508    1.1228 H   0  0  0  0  0  0  0  0  0  0  0  0
   -1.9476   -0.7450    1.5756 H   0  0  0  0  0  0  0  0  0  0  0  0
   -1.8721   -1.8237   -1.3660 H   0  0  0  0  0  0  0  0  0  0  0  0
    2.2234   -4.0693    3.5596 H   0  0  0  0  0  0  0  0  0  0  0  0
   -1.3546    1.1135    3.1628 H   0  0  0  0  0  0  0  0  0  0  0  0
   -2.8612    0.8457    1.1571 H   0  0  0  0  0  0  0  0  0  0  0  0
   -1.5963    2.0289   -1.0763 H   0  0  0  0  0  0  0  0  0  0  0  0
   -2.8197    2.8205   -0.6244 H   0  0  0  0  0  0  0  0  0  0  0  0
   -0.1074    3.2761    0.8784 H   0  0  0  0  0  0  0  0  0  0  0  0
   -0.3399    3.9247   -0.7082 H   0  0  0  0  0  0  0  0  0  0  0  0
   -2.5280    4.6594   -0.0039 H   0  0  0  0  0  0  0  0  0  0  0  0
   -1.6377    3.8268    2.6731 H   0  0  0  0  0  0  0  0  0  0  0  0
   -3.1014    4.7783    2.3364 H   0  0  0  0  0  0  0  0  0  0  0  0
   -4.0412    2.7934    1.0479 H   0  0  0  0  0  0  0  0  0  0  0  0
   -3.6899    2.3559    2.7148 H   0  0  0  0  0  0  0  0  0  0  0  0
  1  2  1  0  0  0  0
  1  6  1  0  0  0  0
  1 24  1  0  0  0  0
  1 25  1  0  0  0  0
  2  3  1  0  0  0  0
  2 26  1  0  0  0  0
  2 27  1  0  0  0  0
  3  4  1  0  0  0  0
  3 28  1  6  0  0  0
  3 15  1  0  0  0  0
  4  5  1  0  0  0  0
  4  8  1  0  0  0  0
  5 29  1  0  0  0  0
  5 30  1  0  0  0  0
  6  5  1  0  0  0  0
  6  7  1  0  0  0  0
  6 31  1  6  0  0  0
  7  8  1  0  0  0  0
  7 10  1  0  0  0  0
  8  9  2  0  0  0  0
 10 11  1  0  0  0  0
 11 12  2  0  0  0  0
 11 13  2  0  0  0  0
 11 14  1  0  0  0  0
 14 32  1  0  0  0  0
 15 16  2  0  0  0  0
 15 17  1  0  0  0  0
 17 18  1  0  0  0  0
 17 33  1  0  0  0  0
 18 19  1  0  0  0  0
 18 23  1  0  0  0  0
 18 34  1  0  0  0  0
 19 20  1  0  0  0  0
 19 35  1  0  0  0  0
 19 36  1  0  0  0  0
 20 21  1  0  0  0  0
 20 37  1  0  0  0  0
 20 38  1  0  0  0  0
 21 22  1  0  0  0  0
 21 39  1  0  0  0  0
 22 23  1  0  0  0  0
 22 40  1  0  0  0  0
 22 41  1  0  0  0  0
 23 42  1  0  0  0  0
 23 43  1  0  0  0  0
M  END
>  <DRUGBANK_ID>
DB12377

>  <COMMON_NAME>
Relebactam

>  <CAS_NUMBER>
1174018-99-5

>  <UNII>
1OQF7TT3PF

>  <SYNONYMS>
Relebactam; Relebactam anhydrous

$$$$
