
 OpenBabel10282417233D

386388  0  0  1  0  0  0  0  0999 V2000
    1.7083    0.7413   -6.7431 C   0  0  0  0  0  0  0  0  0  0  0  0
    0.4578    0.6523   -5.8588 C   0  0  0  0  0  0  0  0  0  0  0  0
    0.7421    0.5884   -4.3472 C   0  0  2  0  0  0  0  0  0  0  0  0
    2.1969    0.8504   -4.0896 C   0  0  0  0  0  0  0  0  0  0  0  0
    0.3512   -0.8362   -3.8659 C   0  0  2  0  0  0  0  0  0  0  0  0
    0.7761   -1.1822   -2.5599 N   0  0  0  0  0  0  0  0  0  0  0  0
    2.0928   -1.5492   -2.5576 C   0  0  0  0  0  0  0  0  0  0  0  0
    2.7772   -0.8304   -1.7983 O   0  0  0  0  0  0  0  0  0  0  0  0
    2.5487   -3.2468   -3.3610 C   0  0  0  0  0  0  0  0  0  0  0  0
    1.5988   -4.0528   -4.0748 N   0  0  0  0  0  0  0  0  0  0  0  0
    0.9702   -1.8474   -4.8932 C   0  0  0  0  0  0  0  0  0  0  0  0
    0.1783   -2.6376   -5.4364 O   0  0  0  0  0  0  0  0  0  0  0  0
    2.4743   -1.8629   -5.1384 N   0  0  0  0  0  0  0  0  0  0  0  0
    3.9544   -1.4391   -4.1719 C   0  0  0  0  0  0  0  0  0  0  0  0
    4.7048   -2.3074   -2.7429 C   0  0  0  0  0  0  0  0  0  0  0  0
    5.9358   -2.4530   -2.7559 O   0  0  0  0  0  0  0  0  0  0  0  0
    3.9617   -2.8914   -1.5623 N   0  0  0  0  0  0  0  0  0  0  0  0
    2.3063   -3.2462   -1.0327 C   0  0  1  0  0  0  0  0  0  0  0  0
    1.6176   -4.7246   -1.4433 C   0  0  0  0  0  0  0  0  0  0  0  0
    1.8313   -5.6980   -0.3978 C   0  0  0  0  0  0  0  0  0  0  0  0
    1.0507   -4.9549    0.6453 C   0  0  0  0  0  0  0  0  0  0  0  0
   -0.3530   -4.6831    0.9158 C   0  0  0  0  0  0  0  0  0  0  0  0
   -0.7445   -6.0374    1.0465 N   0  0  0  0  0  0  0  0  0  0  0  0
    1.9851   -2.2986    0.1851 C   0  0  0  0  0  0  0  0  0  0  0  0
    0.9867   -1.5766    0.2959 O   0  0  0  0  0  0  0  0  0  0  0  0
    2.7446   -2.6402    1.2729 N   0  0  0  0  0  0  0  0  0  0  0  0
    3.5756   -3.9812    1.4033 C   0  0  1  0  0  0  0  0  0  0  0  0
    5.0217   -3.7090    1.6723 C   0  0  0  0  0  0  0  0  0  0  0  0
    5.2542   -3.2231    3.0708 C   0  0  0  0  0  0  0  0  0  0  0  0
    5.6179   -4.1580    4.0763 C   0  0  0  0  0  0  0  0  0  0  0  0
    5.7272   -3.7370    5.4342 C   0  0  0  0  0  0  0  0  0  0  0  0
    5.3634   -2.3777    5.7837 C   0  0  0  0  0  0  0  0  0  0  0  0
    4.9327   -1.4622    4.7706 C   0  0  0  0  0  0  0  0  0  0  0  0
    4.8684   -1.8977    3.4310 C   0  0  0  0  0  0  0  0  0  0  0  0
    3.0902   -5.4689    2.1717 C   0  0  0  0  0  0  0  0  0  0  0  0
    3.3042   -6.5986    1.7294 O   0  0  0  0  0  0  0  0  0  0  0  0
    2.1143   -5.3334    3.1719 N   0  0  0  0  0  0  0  0  0  0  0  0
    2.0217   -4.0752    3.7645 C   0  0  1  0  0  0  0  0  0  0  0  0
    0.9673   -3.0665    4.2162 C   0  0  0  0  0  0  0  0  0  0  0  0
    0.3420   -3.5096    5.5014 C   0  0  0  0  0  0  0  0  0  0  0  0
    1.3285   -3.1402    6.6657 C   0  0  0  0  0  0  0  0  0  0  0  0
   -0.9870   -2.9525    5.8527 C   0  0  0  0  0  0  0  0  0  0  0  0
    2.9201   -4.3743    4.8733 C   0  0  0  0  0  0  0  0  0  0  0  0
    3.4547   -3.4648    5.1362 O   0  0  0  0  0  0  0  0  0  0  0  0
    2.8815   -5.4434    5.7392 N   0  0  0  0  0  0  0  0  0  0  0  0
    1.6244   -6.0332    6.1022 C   0  0  1  0  0  0  0  0  0  0  0  0
    1.7642   -7.5453    5.8154 C   0  0  0  0  0  0  0  0  0  0  0  0
    2.3846   -8.2341    7.0016 C   0  0  0  0  0  0  0  0  0  0  0  0
    1.3388   -7.9610    8.0604 C   0  0  0  0  0  0  0  0  0  0  0  0
   -0.0936   -8.1971    8.2482 C   0  0  0  0  0  0  0  0  0  0  0  0
    0.0907   -9.5849    8.4762 N   0  0  0  0  0  0  0  0  0  0  0  0
    0.8095   -5.4017    7.5938 C   0  0  0  0  0  0  0  0  0  0  0  0
   -0.4045   -5.2287    7.7188 O   0  0  0  0  0  0  0  0  0  0  0  0
    1.6436   -5.2492    8.7672 N   0  0  0  0  0  0  0  0  0  0  0  0
    2.9735   -6.0067    9.0632 C   0  0  1  0  0  0  0  0  0  0  0  0
    4.1169   -5.0816    9.5539 C   0  0  0  0  0  0  0  0  0  0  0  0
    3.9168   -4.7357   11.0096 C   0  0  0  0  0  0  0  0  0  0  0  0
    4.0161   -6.0776   11.6862 C   0  0  0  0  0  0  0  0  0  0  0  0
    4.9973   -7.1736   11.7516 C   0  0  0  0  0  0  0  0  0  0  0  0
    5.8530   -6.4727   12.6510 N   0  0  0  0  0  0  0  0  0  0  0  0
    2.8186   -7.6135    9.9293 C   0  0  0  0  0  0  0  0  0  0  0  0
    3.4389   -8.6408    9.6493 O   0  0  0  0  0  0  0  0  0  0  0  0
    1.7544   -7.5643   10.9861 N   0  0  0  0  0  0  0  0  0  0  0  0
    1.2243   -6.2432   11.7706 C   0  0  1  0  0  0  0  0  0  0  0  0
   -0.2532   -6.0678   11.9242 C   0  0  0  0  0  0  0  0  0  0  0  0
    1.8647   -5.7958   13.1935 C   0  0  0  0  0  0  0  0  0  0  0  0
    2.3634   -4.7061   13.4782 O   0  0  0  0  0  0  0  0  0  0  0  0
    2.1843   -6.8841   13.9494 N   0  0  0  0  0  0  0  0  0  0  0  0
    1.3933   -8.0534   13.8502 C   0  0  1  0  0  0  0  0  0  0  0  0
    2.1555   -9.4129   13.5760 C   0  0  0  0  0  0  0  0  0  0  0  0
    2.7828   -9.9963   14.7999 C   0  0  0  0  0  0  0  0  0  0  0  0
    1.5101  -10.2033   15.6134 C   0  0  0  0  0  0  0  0  0  0  0  0
    0.4953  -11.2359   15.7593 C   0  0  0  0  0  0  0  0  0  0  0  0
    1.2940  -12.3571   16.0347 N   0  0  0  0  0  0  0  0  0  0  0  0
    0.3651   -7.7021   14.9908 C   0  0  0  0  0  0  0  0  0  0  0  0
   -0.8496   -7.8279   14.8086 O   0  0  0  0  0  0  0  0  0  0  0  0
    0.8444   -7.5081   16.2795 N   0  0  0  0  0  0  0  0  0  0  0  0
    2.2438   -7.7258   16.7808 C   0  0  1  0  0  0  0  0  0  0  0  0
    2.8391   -6.4690   17.4031 C   0  0  0  0  0  0  0  0  0  0  0  0
    2.1290   -6.1838   18.7205 C   0  0  0  0  0  0  0  0  0  0  0  0
    2.5492   -7.2335   19.6466 C   0  0  0  0  0  0  0  0  0  0  0  0
    3.8433   -7.5713   20.0931 C   0  0  0  0  0  0  0  0  0  0  0  0
    4.4650   -6.5705   20.8299 N   0  0  0  0  0  0  0  0  0  0  0  0
    2.6220   -9.1179   17.5946 C   0  0  0  0  0  0  0  0  0  0  0  0
    3.6632   -9.7263   17.3388 O   0  0  0  0  0  0  0  0  0  0  0  0
    1.6116   -9.6227   18.5129 N   0  0  0  0  0  0  0  0  0  0  0  0
    0.4672   -8.8858   19.4202 C   0  0  1  0  0  0  0  0  0  0  0  0
   -0.8543   -9.5524   19.3302 C   0  0  0  0  0  0  0  0  0  0  0  0
   -0.8614  -10.8410   20.0847 C   0  0  0  0  0  0  0  0  0  0  0  0
   -1.9053  -10.9850   20.9712 C   0  0  0  0  0  0  0  0  0  0  0  0
   -1.8906  -12.0415   21.8695 C   0  0  0  0  0  0  0  0  0  0  0  0
   -0.8021  -12.9127   21.9632 C   0  0  0  0  0  0  0  0  0  0  0  0
    0.2184  -12.8301   21.0506 C   0  0  0  0  0  0  0  0  0  0  0  0
    0.1517  -11.8282   20.0956 C   0  0  0  0  0  0  0  0  0  0  0  0
    0.6532   -8.1469   21.1025 C   0  0  0  0  0  0  0  0  0  0  0  0
    0.5541   -6.9192   21.2729 O   0  0  0  0  0  0  0  0  0  0  0  0
    1.4000   -8.8463   22.0707 N   0  0  0  0  0  0  0  0  0  0  0  0
    1.5495  -10.2490   21.9970 C   0  0  0  0  0  0  0  0  0  0  0  0
    2.6786  -11.2865   22.1793 C   0  0  0  0  0  0  0  0  0  0  0  0
    2.5985  -12.1712   23.0340 O   0  0  0  0  0  0  0  0  0  0  0  0
    3.6990  -11.4460   21.3072 N   0  0  0  0  0  0  0  0  0  0  0  0
    4.0302  -10.7418   20.1170 C   0  0  1  0  0  0  0  0  0  0  0  0
    5.1896   -9.7523   20.4758 C   0  0  0  0  0  0  0  0  0  0  0  0
    6.5923   -9.9492   20.1122 C   0  0  0  0  0  0  0  0  0  0  0  0
    6.4122  -10.1062   18.5634 C   0  0  0  0  0  0  0  0  0  0  0  0
    6.5199   -9.1504   17.4537 C   0  0  0  0  0  0  0  0  0  0  0  0
    7.7176   -8.4350   17.7071 N   0  0  0  0  0  0  0  0  0  0  0  0
    3.9772  -11.8061   18.9312 C   0  0  0  0  0  0  0  0  0  0  0  0
    2.9307  -12.0681   18.3347 O   0  0  0  0  0  0  0  0  0  0  0  0
    5.1097  -12.4725   18.5528 N   0  0  0  0  0  0  0  0  0  0  0  0
    6.3104  -12.6577   19.4182 C   0  0  1  0  0  0  0  0  0  0  0  0
    6.3116  -14.0388   19.9161 C   0  0  0  0  0  0  0  0  0  0  0  0
    7.8884  -12.2078   19.0764 C   0  0  0  0  0  0  0  0  0  0  0  0
    8.6287  -11.5643   19.8254 O   0  0  0  0  0  0  0  0  0  0  0  0
    8.2657  -12.3178   17.7602 N   0  0  0  0  0  0  0  0  0  0  0  0
    7.5964  -13.1762   16.8186 C   0  0  1  0  0  0  0  0  0  0  0  0
    7.0937  -12.5182   15.4824 C   0  0  0  0  0  0  0  0  0  0  0  0
    8.0721  -11.7704   14.5582 C   0  0  0  0  0  0  0  0  0  0  0  0
    8.4997  -10.4558   14.5438 C   0  0  0  0  0  0  0  0  0  0  0  0
    9.7337  -10.0043   13.9281 C   0  0  0  0  0  0  0  0  0  0  0  0
   10.6304  -10.8379   13.3313 C   0  0  0  0  0  0  0  0  0  0  0  0
   10.2148  -12.1123   13.3984 C   0  0  0  0  0  0  0  0  0  0  0  0
    8.8843  -12.5527   13.8062 C   0  0  0  0  0  0  0  0  0  0  0  0
    8.4103  -14.4814   16.9399 C   0  0  0  0  0  0  0  0  0  0  0  0
    7.9210  -15.5268   17.3679 O   0  0  0  0  0  0  0  0  0  0  0  0
    9.7480  -14.4709   16.7211 N   0  0  0  0  0  0  0  0  0  0  0  0
   10.3938  -13.4940   15.9042 C   0  0  1  0  0  0  0  0  0  0  0  0
   11.4371  -12.5348   16.7076 C   0  0  0  0  0  0  0  0  0  0  0  0
   12.7021  -13.2561   16.9087 C   0  0  0  0  0  0  0  0  0  0  0  0
   11.9211  -11.1817   16.1110 C   0  0  0  0  0  0  0  0  0  0  0  0
   10.5491  -14.4139   14.4007 C   0  0  0  0  0  0  0  0  0  0  0  0
    9.8078  -14.8685   13.5243 O   0  0  0  0  0  0  0  0  0  0  0  0
   11.8060  -14.5372   14.0204 N   0  0  0  0  0  0  0  0  0  0  0  0
   12.5079  -15.2982   14.9422 C   0  0  1  0  0  0  0  0  0  0  0  0
   12.0131  -16.7739   14.9917 C   0  0  0  0  0  0  0  0  0  0  0  0
   12.5056  -17.4915   13.7844 C   0  0  0  0  0  0  0  0  0  0  0  0
   13.9920  -17.3378   13.9990 C   0  0  0  0  0  0  0  0  0  0  0  0
   14.9131  -17.8653   14.9919 C   0  0  0  0  0  0  0  0  0  0  0  0
   14.7752  -19.2211   14.6029 N   0  0  0  0  0  0  0  0  0  0  0  0
   13.9666  -14.6348   14.6918 C   0  0  0  0  0  0  0  0  0  0  0  0
   14.7715  -14.4416   15.6106 O   0  0  0  0  0  0  0  0  0  0  0  0
   14.4683  -14.5687   13.3897 N   0  0  0  0  0  0  0  0  0  0  0  0
   13.9710  -15.3068   12.1148 C   0  0  1  0  0  0  0  0  0  0  0  0
   13.7100  -14.3302   10.9972 C   0  0  1  0  0  0  0  0  0  0  0  0
   15.0572  -13.9122   10.5462 C   0  0  0  0  0  0  0  0  0  0  0  0
   12.9849  -15.1143    9.8921 C   0  0  0  0  0  0  0  0  0  0  0  0
   11.5654  -15.4471   10.3040 C   0  0  0  0  0  0  0  0  0  0  0  0
   14.5338  -16.8144   11.4866 C   0  0  0  0  0  0  0  0  0  0  0  0
   13.7991  -17.7608   11.1805 O   0  0  0  0  0  0  0  0  0  0  0  0
   15.8727  -17.0720   11.6597 N   0  0  0  0  0  0  0  0  0  0  0  0
   16.8156  -16.0067   11.7197 C   0  0  1  0  0  0  0  0  0  0  0  0
   17.7951  -15.8914   12.9159 C   0  0  0  0  0  0  0  0  0  0  0  0
   18.9842  -16.7762   12.7109 C   0  0  0  0  0  0  0  0  0  0  0  0
   19.6868  -16.0009   11.5560 C   0  0  0  0  0  0  0  0  0  0  0  0
   19.9458  -17.0173   13.8284 C   0  0  0  0  0  0  0  0  0  0  0  0
   17.2644  -15.8784   10.1975 C   0  0  0  0  0  0  0  0  0  0  0  0
   17.3806  -14.8086    9.5878 O   0  0  0  0  0  0  0  0  0  0  0  0
   17.7925  -16.9705    9.5713 N   0  0  0  0  0  0  0  0  0  0  0  0
   18.3642  -18.1411   10.2792 C   0  0  1  0  0  0  0  0  0  0  0  0
   17.6026  -19.4163    9.8511 C   0  0  0  0  0  0  0  0  0  0  0  0
   18.1629  -19.8617    8.5442 C   0  0  0  0  0  0  0  0  0  0  0  0
   19.6060  -20.2320    8.8698 C   0  0  0  0  0  0  0  0  0  0  0  0
   20.2609  -21.1776    9.7681 C   0  0  0  0  0  0  0  0  0  0  0  0
   19.9216  -22.2776    8.9321 N   0  0  0  0  0  0  0  0  0  0  0  0
   20.1644  -18.2308   10.5298 C   0  0  0  0  0  0  0  0  0  0  0  0
   20.7163  -18.7303   11.5126 O   0  0  0  0  0  0  0  0  0  0  0  0
   20.9536  -17.8883    9.3635 N   0  0  0  0  0  0  0  0  0  0  0  0
   20.4516  -17.8950    7.8393 C   0  0  1  0  0  0  0  0  0  0  0  0
   20.9216  -16.6053    7.2249 C   0  0  0  0  0  0  0  0  0  0  0  0
   22.4389  -16.6588    7.1733 C   0  0  0  0  0  0  0  0  0  0  0  0
   22.9386  -17.9085    6.4517 C   0  0  0  0  0  0  0  0  0  0  0  0
   22.2461  -18.1246    5.0801 C   0  0  0  0  0  0  0  0  0  0  0  0
   22.5995  -17.0075    4.2305 N   0  0  0  0  0  0  0  0  0  0  0  0
   20.5819  -19.3524    6.7570 C   0  0  0  0  0  0  0  0  0  0  0  0
   19.5419  -20.0051    6.1660 N   0  0  0  0  0  0  0  0  0  0  0  0
   21.5630  -20.1209    6.7414 O   0  0  0  0  0  0  0  0  0  0  0  0
    2.3043    1.6176   -6.4735 H   0  0  0  0  0  0  0  0  0  0  0  0
    1.4592    0.8379   -7.7936 H   0  0  0  0  0  0  0  0  0  0  0  0
    2.3569   -0.1387   -6.6629 H   0  0  0  0  0  0  0  0  0  0  0  0
   -0.1778    1.5167   -6.0147 H   0  0  0  0  0  0  0  0  0  0  0  0
   -0.1275   -0.2162   -6.1929 H   0  0  0  0  0  0  0  0  0  0  0  0
    0.2177    1.3391   -3.7565 H   0  0  0  0  0  0  0  0  0  0  0  0
    2.5208    1.0831   -3.0813 H   0  0  0  0  0  0  0  0  0  0  0  0
    2.3575   -0.1704   -4.1356 H   0  0  0  0  0  0  0  0  0  0  0  0
    2.9829    1.0250   -4.8261 H   0  0  0  0  0  0  0  0  0  0  0  0
   -0.7376   -0.9650   -3.7822 H   0  0  0  0  0  0  0  0  0  0  0  0
    0.5484   -0.5303   -1.7920 H   0  0  0  0  0  0  0  0  0  0  0  0
    3.3835   -3.2588   -4.0458 H   0  0  0  0  0  0  0  0  0  0  0  0
    3.1138   -3.9941   -2.8105 H   0  0  0  0  0  0  0  0  0  0  0  0
    2.1112   -4.8426   -4.4527 H   0  0  0  0  0  0  0  0  0  0  0  0
    0.7837   -4.3279   -3.5546 H   0  0  0  0  0  0  0  0  0  0  0  0
    2.6080   -2.7494   -5.6407 H   0  0  0  0  0  0  0  0  0  0  0  0
    4.6666   -1.1142   -4.9373 H   0  0  0  0  0  0  0  0  0  0  0  0
    3.8526   -0.5240   -3.6104 H   0  0  0  0  0  0  0  0  0  0  0  0
    4.6155   -3.4397   -1.0286 H   0  0  0  0  0  0  0  0  0  0  0  0
    1.4219   -2.9054   -1.5723 H   0  0  0  0  0  0  0  0  0  0  0  0
    0.5182   -4.6134   -1.5996 H   0  0  0  0  0  0  0  0  0  0  0  0
    1.9835   -5.2571   -2.3115 H   0  0  0  0  0  0  0  0  0  0  0  0
    1.5232   -6.7079   -0.6398 H   0  0  0  0  0  0  0  0  0  0  0  0
    2.9339   -5.7409   -0.4326 H   0  0  0  0  0  0  0  0  0  0  0  0
    1.4020   -4.8778    1.5865 H   0  0  0  0  0  0  0  0  0  0  0  0
    1.2735   -3.9753    0.4840 H   0  0  0  0  0  0  0  0  0  0  0  0
   -0.3746   -4.1202    1.8674 H   0  0  0  0  0  0  0  0  0  0  0  0
   -0.7498   -4.0141    0.1476 H   0  0  0  0  0  0  0  0  0  0  0  0
   -1.7433   -6.0779    1.0700 H   0  0  0  0  0  0  0  0  0  0  0  0
   -0.3980   -6.5432    0.2299 H   0  0  0  0  0  0  0  0  0  0  0  0
    2.2891   -2.1716    2.0532 H   0  0  0  0  0  0  0  0  0  0  0  0
    3.6348   -4.2995    0.3780 H   0  0  0  0  0  0  0  0  0  0  0  0
    5.5439   -4.6499    1.4629 H   0  0  0  0  0  0  0  0  0  0  0  0
    5.3798   -2.9707    0.9469 H   0  0  0  0  0  0  0  0  0  0  0  0
    5.4294   -5.2286    3.8650 H   0  0  0  0  0  0  0  0  0  0  0  0
    5.6120   -4.5227    6.2006 H   0  0  0  0  0  0  0  0  0  0  0  0
    4.9071   -2.2164    6.7827 H   0  0  0  0  0  0  0  0  0  0  0  0
    4.3888   -0.5482    5.0390 H   0  0  0  0  0  0  0  0  0  0  0  0
    4.3033   -1.2827    2.7184 H   0  0  0  0  0  0  0  0  0  0  0  0
    1.5924   -6.1495    3.4657 H   0  0  0  0  0  0  0  0  0  0  0  0
    2.6364   -3.4227    3.2010 H   0  0  0  0  0  0  0  0  0  0  0  0
    1.4798   -2.1208    4.4863 H   0  0  0  0  0  0  0  0  0  0  0  0
    0.2863   -2.7758    3.4222 H   0  0  0  0  0  0  0  0  0  0  0  0
    0.0152   -4.5105    5.2200 H   0  0  0  0  0  0  0  0  0  0  0  0
    1.2826   -2.1896    7.1570 H   0  0  0  0  0  0  0  0  0  0  0  0
    1.8118   -3.8397    7.3053 H   0  0  0  0  0  0  0  0  0  0  0  0
    2.2860   -2.9847    6.2990 H   0  0  0  0  0  0  0  0  0  0  0  0
   -1.5624   -2.7605    4.9526 H   0  0  0  0  0  0  0  0  0  0  0  0
   -1.5411   -3.6914    6.4418 H   0  0  0  0  0  0  0  0  0  0  0  0
   -0.8154   -2.0699    6.4555 H   0  0  0  0  0  0  0  0  0  0  0  0
    3.5523   -5.2103    6.4572 H   0  0  0  0  0  0  0  0  0  0  0  0
    0.9473   -5.8300    5.3015 H   0  0  0  0  0  0  0  0  0  0  0  0
    0.7513   -7.9236    5.6671 H   0  0  0  0  0  0  0  0  0  0  0  0
    2.3486   -7.7131    4.9095 H   0  0  0  0  0  0  0  0  0  0  0  0
    2.6462   -9.2751    6.9133 H   0  0  0  0  0  0  0  0  0  0  0  0
    3.3725   -7.7479    7.1400 H   0  0  0  0  0  0  0  0  0  0  0  0
    1.3640   -7.4737    8.9798 H   0  0  0  0  0  0  0  0  0  0  0  0
    1.4441   -7.0127    7.7617 H   0  0  0  0  0  0  0  0  0  0  0  0
   -0.4342   -7.6752    9.1743 H   0  0  0  0  0  0  0  0  0  0  0  0
   -0.6774   -7.7843    7.4300 H   0  0  0  0  0  0  0  0  0  0  0  0
   -0.7919  -10.0465    8.4221 H   0  0  0  0  0  0  0  0  0  0  0  0
    0.7271   -9.9437    7.7626 H   0  0  0  0  0  0  0  0  0  0  0  0
    1.0435   -4.9421    9.5273 H   0  0  0  0  0  0  0  0  0  0  0  0
    3.3665   -6.2215    8.0846 H   0  0  0  0  0  0  0  0  0  0  0  0
    5.0554   -5.6425    9.4608 H   0  0  0  0  0  0  0  0  0  0  0  0
    4.1835   -4.1919    8.9281 H   0  0  0  0  0  0  0  0  0  0  0  0
    4.5540   -4.0016   11.4715 H   0  0  0  0  0  0  0  0  0  0  0  0
    2.9130   -4.2700   11.0338 H   0  0  0  0  0  0  0  0  0  0  0  0
    3.5045   -6.3869   12.5310 H   0  0  0  0  0  0  0  0  0  0  0  0
    3.2870   -6.3936   11.0800 H   0  0  0  0  0  0  0  0  0  0  0  0
    4.5303   -8.0580   12.2349 H   0  0  0  0  0  0  0  0  0  0  0  0
    5.3498   -7.4955   10.7749 H   0  0  0  0  0  0  0  0  0  0  0  0
    6.7448   -6.9223   12.6719 H   0  0  0  0  0  0  0  0  0  0  0  0
    5.9540   -5.5226   12.2873 H   0  0  0  0  0  0  0  0  0  0  0  0
    1.6159   -8.4989   11.3660 H   0  0  0  0  0  0  0  0  0  0  0  0
    1.4877   -5.4445   11.1179 H   0  0  0  0  0  0  0  0  0  0  0  0
   -0.6866   -6.8003   12.5926 H   0  0  0  0  0  0  0  0  0  0  0  0
   -0.4053   -5.0783   12.3769 H   0  0  0  0  0  0  0  0  0  0  0  0
   -0.7444   -6.1095   10.9591 H   0  0  0  0  0  0  0  0  0  0  0  0
    2.9753   -6.7418   14.5702 H   0  0  0  0  0  0  0  0  0  0  0  0
    0.7457   -8.0463   12.9912 H   0  0  0  0  0  0  0  0  0  0  0  0
    1.4106  -10.1609   13.2664 H   0  0  0  0  0  0  0  0  0  0  0  0
    2.8894   -9.3713   12.7738 H   0  0  0  0  0  0  0  0  0  0  0  0
    3.4016  -10.8884   14.7011 H   0  0  0  0  0  0  0  0  0  0  0  0
    3.5474   -9.2476   15.0776 H   0  0  0  0  0  0  0  0  0  0  0  0
    1.3904   -9.8248   16.5546 H   0  0  0  0  0  0  0  0  0  0  0  0
    0.8543   -9.4988   15.2396 H   0  0  0  0  0  0  0  0  0  0  0  0
   -0.1070  -10.9514   16.6477 H   0  0  0  0  0  0  0  0  0  0  0  0
   -0.1597  -11.1486   14.8934 H   0  0  0  0  0  0  0  0  0  0  0  0
    0.7702  -13.2077   16.0357 H   0  0  0  0  0  0  0  0  0  0  0  0
    2.1420  -12.3841   15.4809 H   0  0  0  0  0  0  0  0  0  0  0  0
    0.0789   -7.6997   16.9110 H   0  0  0  0  0  0  0  0  0  0  0  0
    2.8708   -7.8287   15.9184 H   0  0  0  0  0  0  0  0  0  0  0  0
    3.9117   -6.6773   17.5455 H   0  0  0  0  0  0  0  0  0  0  0  0
    2.7502   -5.6313   16.7231 H   0  0  0  0  0  0  0  0  0  0  0  0
    2.3823   -5.2674   19.2159 H   0  0  0  0  0  0  0  0  0  0  0  0
    1.0471   -6.2171   18.5550 H   0  0  0  0  0  0  0  0  0  0  0  0
    2.0985   -8.0559   20.0799 H   0  0  0  0  0  0  0  0  0  0  0  0
    2.5209   -7.8926   18.8739 H   0  0  0  0  0  0  0  0  0  0  0  0
    3.6355   -8.3848   20.7984 H   0  0  0  0  0  0  0  0  0  0  0  0
    4.3108   -7.8619   19.1418 H   0  0  0  0  0  0  0  0  0  0  0  0
    5.4131   -6.9015   20.9552 H   0  0  0  0  0  0  0  0  0  0  0  0
    4.4203   -5.7661   20.2250 H   0  0  0  0  0  0  0  0  0  0  0  0
    1.7145  -10.6440   18.5268 H   0  0  0  0  0  0  0  0  0  0  0  0
    0.3021   -8.0044   18.8046 H   0  0  0  0  0  0  0  0  0  0  0  0
   -1.5269   -8.8012   19.7827 H   0  0  0  0  0  0  0  0  0  0  0  0
   -1.1715   -9.6731   18.2939 H   0  0  0  0  0  0  0  0  0  0  0  0
   -2.6872  -10.2293   21.0032 H   0  0  0  0  0  0  0  0  0  0  0  0
   -2.7352  -12.1601   22.5292 H   0  0  0  0  0  0  0  0  0  0  0  0
   -0.7130  -13.6213   22.7758 H   0  0  0  0  0  0  0  0  0  0  0  0
    1.1408  -13.4049   21.1615 H   0  0  0  0  0  0  0  0  0  0  0  0
    1.1036  -11.7406   19.6058 H   0  0  0  0  0  0  0  0  0  0  0  0
    1.9200   -8.3278   22.7739 H   0  0  0  0  0  0  0  0  0  0  0  0
    0.6599  -10.6297   22.5010 H   0  0  0  0  0  0  0  0  0  0  0  0
    1.4346  -10.3066   20.9424 H   0  0  0  0  0  0  0  0  0  0  0  0
    4.2608  -12.2625   21.4769 H   0  0  0  0  0  0  0  0  0  0  0  0
    3.1778  -10.1217   19.9070 H   0  0  0  0  0  0  0  0  0  0  0  0
    5.2367   -8.9244   19.8141 H   0  0  0  0  0  0  0  0  0  0  0  0
    5.0944   -9.3492   21.4853 H   0  0  0  0  0  0  0  0  0  0  0  0
    7.2300   -9.1141   20.4119 H   0  0  0  0  0  0  0  0  0  0  0  0
    6.8216  -10.7154   20.8619 H   0  0  0  0  0  0  0  0  0  0  0  0
    6.9040  -10.8921   18.0938 H   0  0  0  0  0  0  0  0  0  0  0  0
    5.4046  -10.3757   18.3802 H   0  0  0  0  0  0  0  0  0  0  0  0
    6.5626   -9.7749   16.5480 H   0  0  0  0  0  0  0  0  0  0  0  0
    5.6207   -8.5516   17.3651 H   0  0  0  0  0  0  0  0  0  0  0  0
    7.7344   -7.6538   17.0706 H   0  0  0  0  0  0  0  0  0  0  0  0
    7.6404   -8.0718   18.6561 H   0  0  0  0  0  0  0  0  0  0  0  0
    5.1188  -12.5314   17.5355 H   0  0  0  0  0  0  0  0  0  0  0  0
    6.0054  -12.1414   20.3089 H   0  0  0  0  0  0  0  0  0  0  0  0
    6.5887  -14.6849   19.0995 H   0  0  0  0  0  0  0  0  0  0  0  0
    7.0346  -14.0565   20.7285 H   0  0  0  0  0  0  0  0  0  0  0  0
    5.3044  -14.2757   20.2634 H   0  0  0  0  0  0  0  0  0  0  0  0
    9.0007  -11.6723   17.4742 H   0  0  0  0  0  0  0  0  0  0  0  0
    6.6734  -13.5138   17.2689 H   0  0  0  0  0  0  0  0  0  0  0  0
    6.6374  -13.3703   14.9444 H   0  0  0  0  0  0  0  0  0  0  0  0
    6.2479  -11.8521   15.6804 H   0  0  0  0  0  0  0  0  0  0  0  0
    7.9325   -9.7190   15.0740 H   0  0  0  0  0  0  0  0  0  0  0  0
   10.0880   -8.9993   14.0880 H   0  0  0  0  0  0  0  0  0  0  0  0
   11.6871  -10.6520   13.1029 H   0  0  0  0  0  0  0  0  0  0  0  0
   11.1495  -12.6561   13.5420 H   0  0  0  0  0  0  0  0  0  0  0  0
    8.5643  -13.5779   14.0124 H   0  0  0  0  0  0  0  0  0  0  0  0
   10.1501  -15.3950   16.7711 H   0  0  0  0  0  0  0  0  0  0  0  0
    9.6803  -12.7143   15.7979 H   0  0  0  0  0  0  0  0  0  0  0  0
   11.0378  -12.3059   17.7012 H   0  0  0  0  0  0  0  0  0  0  0  0
   12.9755  -13.2554   15.8676 H   0  0  0  0  0  0  0  0  0  0  0  0
   13.5483  -12.7798   17.3856 H   0  0  0  0  0  0  0  0  0  0  0  0
   12.5234  -14.2195   17.3836 H   0  0  0  0  0  0  0  0  0  0  0  0
   11.1474  -10.4168   16.0993 H   0  0  0  0  0  0  0  0  0  0  0  0
   12.7497  -10.7575   16.7033 H   0  0  0  0  0  0  0  0  0  0  0  0
   12.3764  -11.3027   15.1230 H   0  0  0  0  0  0  0  0  0  0  0  0
   11.8632  -14.5810   13.0104 H   0  0  0  0  0  0  0  0  0  0  0  0
   12.1155  -15.0486   15.8977 H   0  0  0  0  0  0  0  0  0  0  0  0
   12.4014  -17.2422   15.9010 H   0  0  0  0  0  0  0  0  0  0  0  0
   10.9199  -16.8423   15.0460 H   0  0  0  0  0  0  0  0  0  0  0  0
   12.1625  -18.5045   13.6105 H   0  0  0  0  0  0  0  0  0  0  0  0
   12.0332  -16.9651   12.9450 H   0  0  0  0  0  0  0  0  0  0  0  0
   14.6700  -17.1790   13.2498 H   0  0  0  0  0  0  0  0  0  0  0  0
   14.0773  -16.3870   14.3320 H   0  0  0  0  0  0  0  0  0  0  0  0
   15.9045  -17.4363   14.7530 H   0  0  0  0  0  0  0  0  0  0  0  0
   14.6222  -17.4815   15.9720 H   0  0  0  0  0  0  0  0  0  0  0  0
   15.1449  -19.7998   15.3279 H   0  0  0  0  0  0  0  0  0  0  0  0
   13.7810  -19.4260   14.4801 H   0  0  0  0  0  0  0  0  0  0  0  0
   15.4638  -14.4265   13.5204 H   0  0  0  0  0  0  0  0  0  0  0  0
   12.9955  -15.6021   12.3888 H   0  0  0  0  0  0  0  0  0  0  0  0
   13.1564  -13.4555   11.3477 H   0  0  0  0  0  0  0  0  0  0  0  0
   15.3906  -14.8748   10.2040 H   0  0  0  0  0  0  0  0  0  0  0  0
   15.1673  -13.2858    9.6787 H   0  0  0  0  0  0  0  0  0  0  0  0
   15.6763  -13.5170   11.3656 H   0  0  0  0  0  0  0  0  0  0  0  0
   13.0304  -14.5529    8.9636 H   0  0  0  0  0  0  0  0  0  0  0  0
   13.4874  -16.0588    9.6454 H   0  0  0  0  0  0  0  0  0  0  0  0
   11.0628  -14.5361   10.6306 H   0  0  0  0  0  0  0  0  0  0  0  0
   11.0361  -15.9136    9.4760 H   0  0  0  0  0  0  0  0  0  0  0  0
   11.5120  -16.1667   11.1251 H   0  0  0  0  0  0  0  0  0  0  0  0
   16.1087  -18.0600   11.6305 H   0  0  0  0  0  0  0  0  0  0  0  0
   16.2434  -15.1574   11.9860 H   0  0  0  0  0  0  0  0  0  0  0  0
   18.1825  -14.8597   12.9267 H   0  0  0  0  0  0  0  0  0  0  0  0
   17.3168  -16.0241   13.8854 H   0  0  0  0  0  0  0  0  0  0  0  0
   18.5253  -17.7753   12.6934 H   0  0  0  0  0  0  0  0  0  0  0  0
   20.3803  -15.2187   11.7904 H   0  0  0  0  0  0  0  0  0  0  0  0
   19.9749  -16.3667   10.5945 H   0  0  0  0  0  0  0  0  0  0  0  0
   18.9378  -15.4125   11.0985 H   0  0  0  0  0  0  0  0  0  0  0  0
   19.4255  -17.0993   14.7811 H   0  0  0  0  0  0  0  0  0  0  0  0
   20.4602  -17.9763   13.6766 H   0  0  0  0  0  0  0  0  0  0  0  0
   20.6822  -16.2246   13.8094 H   0  0  0  0  0  0  0  0  0  0  0  0
   18.2113  -16.6130    8.7227 H   0  0  0  0  0  0  0  0  0  0  0  0
   17.9347  -18.1221   11.2433 H   0  0  0  0  0  0  0  0  0  0  0  0
   17.7673  -20.2101   10.5842 H   0  0  0  0  0  0  0  0  0  0  0  0
   16.5302  -19.2296    9.7608 H   0  0  0  0  0  0  0  0  0  0  0  0
   17.6039  -20.6425    8.0575 H   0  0  0  0  0  0  0  0  0  0  0  0
   18.0328  -18.9674    7.8986 H   0  0  0  0  0  0  0  0  0  0  0  0
   20.5334  -19.9184    8.4734 H   0  0  0  0  0  0  0  0  0  0  0  0
   19.6212  -19.3624    9.3494 H   0  0  0  0  0  0  0  0  0  0  0  0
   21.3562  -20.9614    9.7828 H   0  0  0  0  0  0  0  0  0  0  0  0
   19.8935  -21.0723   10.7850 H   0  0  0  0  0  0  0  0  0  0  0  0
   20.1420  -23.1248    9.4122 H   0  0  0  0  0  0  0  0  0  0  0  0
   18.9284  -22.2306    8.7192 H   0  0  0  0  0  0  0  0  0  0  0  0
   21.9482  -18.0568    9.5383 H   0  0  0  0  0  0  0  0  0  0  0  0
   19.3977  -17.7160    7.9270 H   0  0  0  0  0  0  0  0  0  0  0  0
   20.4276  -16.4951    6.2543 H   0  0  0  0  0  0  0  0  0  0  0  0
   20.5839  -15.7498    7.8298 H   0  0  0  0  0  0  0  0  0  0  0  0
   22.8323  -15.7551    6.7197 H   0  0  0  0  0  0  0  0  0  0  0  0
   22.8278  -16.6920    8.1983 H   0  0  0  0  0  0  0  0  0  0  0  0
   24.0176  -17.9294    6.3244 H   0  0  0  0  0  0  0  0  0  0  0  0
   22.8324  -18.7071    7.1917 H   0  0  0  0  0  0  0  0  0  0  0  0
   22.4866  -19.1001    4.6411 H   0  0  0  0  0  0  0  0  0  0  0  0
   21.1478  -18.0928    5.0982 H   0  0  0  0  0  0  0  0  0  0  0  0
   22.0604  -17.0737    3.3720 H   0  0  0  0  0  0  0  0  0  0  0  0
   22.2801  -16.1580    4.6945 H   0  0  0  0  0  0  0  0  0  0  0  0
   19.7868  -21.0038    6.2665 H   0  0  0  0  0  0  0  0  0  0  0  0
   18.5725  -19.8798    6.3875 H   0  0  0  0  0  0  0  0  0  0  0  0
  1  2  1  0  0  0  0
  1177  1  0  0  0  0
  1178  1  0  0  0  0
  1179  1  0  0  0  0
  2180  1  0  0  0  0
  2181  1  0  0  0  0
  3182  1  1  0  0  0
  3  4  1  0  0  0  0
  3  2  1  0  0  0  0
  4183  1  0  0  0  0
  4184  1  0  0  0  0
  4185  1  0  0  0  0
  5 11  1  0  0  0  0
  5186  1  6  0  0  0
  5  6  1  0  0  0  0
  5  3  1  0  0  0  0
  6  7  1  0  0  0  0
  6187  1  0  0  0  0
  7  8  2  0  0  0  0
  7  9  1  0  0  0  0
  9 10  1  0  0  0  0
  9188  1  0  0  0  0
  9189  1  0  0  0  0
 10190  1  0  0  0  0
 10191  1  0  0  0  0
 11 12  2  0  0  0  0
 11 13  1  0  0  0  0
 13 14  1  0  0  0  0
 13192  1  0  0  0  0
 14 15  1  0  0  0  0
 14193  1  0  0  0  0
 14194  1  0  0  0  0
 15 16  2  0  0  0  0
 15 17  1  0  0  0  0
 17195  1  0  0  0  0
 18 17  1  0  0  0  0
 18 19  1  0  0  0  0
 18 24  1  0  0  0  0
 18196  1  6  0  0  0
 19 20  1  0  0  0  0
 19197  1  0  0  0  0
 19198  1  0  0  0  0
 20 21  1  0  0  0  0
 20199  1  0  0  0  0
 20200  1  0  0  0  0
 21 22  1  0  0  0  0
 21201  1  0  0  0  0
 21202  1  0  0  0  0
 22 23  1  0  0  0  0
 22203  1  0  0  0  0
 22204  1  0  0  0  0
 23205  1  0  0  0  0
 23206  1  0  0  0  0
 24 25  2  0  0  0  0
 24 26  1  0  0  0  0
 26207  1  0  0  0  0
 27 26  1  0  0  0  0
 27 28  1  0  0  0  0
 27 35  1  0  0  0  0
 27208  1  6  0  0  0
 28 29  1  0  0  0  0
 28209  1  0  0  0  0
 28210  1  0  0  0  0
 29 30  2  0  0  0  0
 29 34  1  0  0  0  0
 30 31  1  0  0  0  0
 30211  1  0  0  0  0
 31 32  2  0  0  0  0
 31212  1  0  0  0  0
 32 33  1  0  0  0  0
 32213  1  0  0  0  0
 33 34  2  0  0  0  0
 33214  1  0  0  0  0
 34215  1  0  0  0  0
 35 36  2  0  0  0  0
 35 37  1  0  0  0  0
 37216  1  0  0  0  0
 38 37  1  0  0  0  0
 38 39  1  0  0  0  0
 38 43  1  0  0  0  0
 38217  1  6  0  0  0
 39 40  1  0  0  0  0
 39218  1  0  0  0  0
 39219  1  0  0  0  0
 40 41  1  0  0  0  0
 40 42  1  0  0  0  0
 40220  1  0  0  0  0
 41221  1  0  0  0  0
 41222  1  0  0  0  0
 41223  1  0  0  0  0
 42224  1  0  0  0  0
 42225  1  0  0  0  0
 42226  1  0  0  0  0
 43 44  2  0  0  0  0
 43 45  1  0  0  0  0
 45227  1  0  0  0  0
 46 45  1  0  0  0  0
 46 47  1  0  0  0  0
 46 52  1  0  0  0  0
 46228  1  6  0  0  0
 47 48  1  0  0  0  0
 47229  1  0  0  0  0
 47230  1  0  0  0  0
 48 49  1  0  0  0  0
 48231  1  0  0  0  0
 48232  1  0  0  0  0
 49 50  1  0  0  0  0
 49233  1  0  0  0  0
 49234  1  0  0  0  0
 50 51  1  0  0  0  0
 50235  1  0  0  0  0
 50236  1  0  0  0  0
 51237  1  0  0  0  0
 51238  1  0  0  0  0
 52 53  2  0  0  0  0
 52 54  1  0  0  0  0
 54239  1  0  0  0  0
 55 54  1  0  0  0  0
 55 56  1  0  0  0  0
 55 61  1  0  0  0  0
 55240  1  6  0  0  0
 56 57  1  0  0  0  0
 56241  1  0  0  0  0
 56242  1  0  0  0  0
 57 58  1  0  0  0  0
 57243  1  0  0  0  0
 57244  1  0  0  0  0
 58 59  1  0  0  0  0
 58245  1  0  0  0  0
 58246  1  0  0  0  0
 59 60  1  0  0  0  0
 59247  1  0  0  0  0
 59248  1  0  0  0  0
 60249  1  0  0  0  0
 60250  1  0  0  0  0
 61 62  2  0  0  0  0
 61 63  1  0  0  0  0
 63251  1  0  0  0  0
 64 63  1  0  0  0  0
 64 65  1  0  0  0  0
 64 66  1  0  0  0  0
 64252  1  6  0  0  0
 65253  1  0  0  0  0
 65254  1  0  0  0  0
 65255  1  0  0  0  0
 66 67  2  0  0  0  0
 66 68  1  0  0  0  0
 68256  1  0  0  0  0
 69 68  1  0  0  0  0
 69 70  1  0  0  0  0
 69 75  1  0  0  0  0
 69257  1  6  0  0  0
 70 71  1  0  0  0  0
 70258  1  0  0  0  0
 70259  1  0  0  0  0
 71 72  1  0  0  0  0
 71260  1  0  0  0  0
 71261  1  0  0  0  0
 72 73  1  0  0  0  0
 72262  1  0  0  0  0
 72263  1  0  0  0  0
 73 74  1  0  0  0  0
 73264  1  0  0  0  0
 73265  1  0  0  0  0
 74266  1  0  0  0  0
 74267  1  0  0  0  0
 75 76  2  0  0  0  0
 75 77  1  0  0  0  0
 77268  1  0  0  0  0
 78 77  1  0  0  0  0
 78 79  1  0  0  0  0
 78 84  1  0  0  0  0
 78269  1  6  0  0  0
 79 80  1  0  0  0  0
 79270  1  0  0  0  0
 79271  1  0  0  0  0
 80 81  1  0  0  0  0
 80272  1  0  0  0  0
 80273  1  0  0  0  0
 81 82  1  0  0  0  0
 81274  1  0  0  0  0
 81275  1  0  0  0  0
 82 83  1  0  0  0  0
 82276  1  0  0  0  0
 82277  1  0  0  0  0
 83278  1  0  0  0  0
 83279  1  0  0  0  0
 84 85  2  0  0  0  0
 84 86  1  0  0  0  0
 86280  1  0  0  0  0
 87 86  1  0  0  0  0
 87 88  1  0  0  0  0
 87 95  1  0  0  0  0
 87281  1  6  0  0  0
 88 89  1  0  0  0  0
 88282  1  0  0  0  0
 88283  1  0  0  0  0
 89 90  2  0  0  0  0
 89 94  1  0  0  0  0
 90 91  1  0  0  0  0
 90284  1  0  0  0  0
 91 92  2  0  0  0  0
 91285  1  0  0  0  0
 92 93  1  0  0  0  0
 92286  1  0  0  0  0
 93 94  2  0  0  0  0
 93287  1  0  0  0  0
 94288  1  0  0  0  0
 95 96  2  0  0  0  0
 95 97  1  0  0  0  0
 97 98  1  0  0  0  0
 97289  1  0  0  0  0
 98 99  1  0  0  0  0
 98290  1  0  0  0  0
 98291  1  0  0  0  0
 99100  2  0  0  0  0
 99101  1  0  0  0  0
101292  1  0  0  0  0
102101  1  0  0  0  0
102103  1  0  0  0  0
102108  1  0  0  0  0
102293  1  6  0  0  0
103104  1  0  0  0  0
103294  1  0  0  0  0
103295  1  0  0  0  0
104105  1  0  0  0  0
104296  1  0  0  0  0
104297  1  0  0  0  0
105106  1  0  0  0  0
105298  1  0  0  0  0
105299  1  0  0  0  0
106107  1  0  0  0  0
106300  1  0  0  0  0
106301  1  0  0  0  0
107302  1  0  0  0  0
107303  1  0  0  0  0
108109  2  0  0  0  0
108110  1  0  0  0  0
110304  1  0  0  0  0
111110  1  0  0  0  0
111112  1  0  0  0  0
111113  1  0  0  0  0
111305  1  1  0  0  0
112306  1  0  0  0  0
112307  1  0  0  0  0
112308  1  0  0  0  0
113114  2  0  0  0  0
113115  1  0  0  0  0
115309  1  0  0  0  0
116115  1  0  0  0  0
116117  1  0  0  0  0
116124  1  0  0  0  0
116310  1  1  0  0  0
117118  1  0  0  0  0
117311  1  0  0  0  0
117312  1  0  0  0  0
118119  2  0  0  0  0
118123  1  0  0  0  0
119120  1  0  0  0  0
119313  1  0  0  0  0
120121  2  0  0  0  0
120314  1  0  0  0  0
121122  1  0  0  0  0
121315  1  0  0  0  0
122123  2  0  0  0  0
122316  1  0  0  0  0
123317  1  0  0  0  0
124125  2  0  0  0  0
124126  1  0  0  0  0
126318  1  0  0  0  0
127126  1  0  0  0  0
127128  1  0  0  0  0
127131  1  0  0  0  0
127319  1  6  0  0  0
128129  1  0  0  0  0
128130  1  0  0  0  0
128320  1  0  0  0  0
129321  1  0  0  0  0
129322  1  0  0  0  0
129323  1  0  0  0  0
130324  1  0  0  0  0
130325  1  0  0  0  0
130326  1  0  0  0  0
131132  2  0  0  0  0
131133  1  0  0  0  0
133327  1  0  0  0  0
134133  1  0  0  0  0
134135  1  0  0  0  0
134140  1  0  0  0  0
134328  1  1  0  0  0
135136  1  0  0  0  0
135329  1  0  0  0  0
135330  1  0  0  0  0
136137  1  0  0  0  0
136331  1  0  0  0  0
136332  1  0  0  0  0
137138  1  0  0  0  0
137333  1  0  0  0  0
137334  1  0  0  0  0
138139  1  0  0  0  0
138335  1  0  0  0  0
138336  1  0  0  0  0
139337  1  0  0  0  0
139338  1  0  0  0  0
140141  2  0  0  0  0
140142  1  0  0  0  0
142339  1  0  0  0  0
143142  1  0  0  0  0
143144  1  0  0  0  0
143148  1  0  0  0  0
143340  1  1  0  0  0
144145  1  0  0  0  0
144146  1  0  0  0  0
144341  1  1  0  0  0
145342  1  0  0  0  0
145343  1  0  0  0  0
145344  1  0  0  0  0
146147  1  0  0  0  0
146345  1  0  0  0  0
146346  1  0  0  0  0
147347  1  0  0  0  0
147348  1  0  0  0  0
147349  1  0  0  0  0
148149  2  0  0  0  0
148150  1  0  0  0  0
150350  1  0  0  0  0
151150  1  0  0  0  0
151152  1  0  0  0  0
151156  1  0  0  0  0
151351  1  1  0  0  0
152153  1  0  0  0  0
152352  1  0  0  0  0
152353  1  0  0  0  0
153154  1  0  0  0  0
153155  1  0  0  0  0
153354  1  0  0  0  0
154355  1  0  0  0  0
154356  1  0  0  0  0
154357  1  0  0  0  0
155358  1  0  0  0  0
155359  1  0  0  0  0
155360  1  0  0  0  0
156157  2  0  0  0  0
156158  1  0  0  0  0
158361  1  0  0  0  0
159158  1  0  0  0  0
159160  1  0  0  0  0
159165  1  0  0  0  0
159362  1  1  0  0  0
160161  1  0  0  0  0
160363  1  0  0  0  0
160364  1  0  0  0  0
161162  1  0  0  0  0
161365  1  0  0  0  0
161366  1  0  0  0  0
162163  1  0  0  0  0
162367  1  0  0  0  0
162368  1  0  0  0  0
163164  1  0  0  0  0
163369  1  0  0  0  0
163370  1  0  0  0  0
164371  1  0  0  0  0
164372  1  0  0  0  0
165166  2  0  0  0  0
165167  1  0  0  0  0
167373  1  0  0  0  0
168167  1  0  0  0  0
168169  1  0  0  0  0
168174  1  0  0  0  0
168374  1  1  0  0  0
169170  1  0  0  0  0
169375  1  0  0  0  0
169376  1  0  0  0  0
170171  1  0  0  0  0
170377  1  0  0  0  0
170378  1  0  0  0  0
171172  1  0  0  0  0
171379  1  0  0  0  0
171380  1  0  0  0  0
172173  1  0  0  0  0
172381  1  0  0  0  0
172382  1  0  0  0  0
173383  1  0  0  0  0
173384  1  0  0  0  0
174175  1  0  0  0  0
174176  2  0  0  0  0
175385  1  0  0  0  0
175386  1  0  0  0  0
M  END
>  <DRUGBANK_ID>
DB16293

>  <COMMON_NAME>
Pexiganan

>  <CAS_NUMBER>
147664-63-9

>  <UNII>
TVF29Q70Q1

>  <SYNONYMS>
Pexiganan

$$$$
