RIN
 OpenBabel10282417173D

 39 39  0  0  0  0  0  0  0  0999 V2000
    0.8722    2.0629    1.0440 N   0  0  0  0  0  0  0  0  0  0  0  0
    0.7003    1.2843   -0.1987 C   0  0  1  0  0  0  0  0  0  0  0  0
   -0.7679    0.9438   -0.5740 C   0  0  0  0  0  0  0  0  0  0  0  0
   -1.6081    0.3231    0.5564 C   0  0  0  0  0  0  0  0  0  0  0  0
   -2.8120    1.1682    1.0162 C   0  0  0  0  0  0  0  0  0  0  0  0
   -2.5933    2.6630    0.8367 C   0  0  0  0  0  0  0  0  0  0  0  0
   -3.2854    3.5523    1.8451 C   0  0  0  0  0  0  0  0  0  0  0  0
   -3.0048    5.0259    1.5090 C   0  0  0  0  0  0  0  0  0  0  0  0
   -1.5215    5.4151    1.7127 C   0  0  0  0  0  0  0  0  0  0  0  0
   -0.7986    5.7196    0.3855 C   0  0  0  0  0  0  0  0  0  0  0  0
    0.6499    5.1891    0.3136 C   0  0  0  0  0  0  0  0  0  0  0  0
    0.9241    4.5024   -1.0534 C   0  0  0  0  0  0  0  0  0  0  0  0
    1.8336    3.3578   -1.0280 N   0  0  0  0  0  0  0  0  0  0  0  0
    1.3047    2.1129   -1.3723 C   0  0  0  0  0  0  0  0  0  0  0  0
    1.2347    1.7303   -2.5496 O   0  0  0  0  0  0  0  0  0  0  0  0
    1.2641    0.3566   -0.0794 H   0  0  0  0  0  0  0  0  0  0  0  0
    0.5770    1.5511    1.8695 H   0  0  0  0  0  0  0  0  0  0  0  0
    0.2311    2.8444    0.9738 H   0  0  0  0  0  0  0  0  0  0  0  0
   -1.2528    1.8268   -1.0057 H   0  0  0  0  0  0  0  0  0  0  0  0
   -0.7588    0.2366   -1.4140 H   0  0  0  0  0  0  0  0  0  0  0  0
   -1.9881   -0.6542    0.2305 H   0  0  0  0  0  0  0  0  0  0  0  0
   -0.9777    0.1057    1.4258 H   0  0  0  0  0  0  0  0  0  0  0  0
   -3.6997    0.8761    0.4417 H   0  0  0  0  0  0  0  0  0  0  0  0
   -3.0276    0.9279    2.0640 H   0  0  0  0  0  0  0  0  0  0  0  0
   -1.5425    2.8750    0.9485 H   0  0  0  0  0  0  0  0  0  0  0  0
   -2.8720    2.9583   -0.1822 H   0  0  0  0  0  0  0  0  0  0  0  0
   -4.3604    3.3533    1.8378 H   0  0  0  0  0  0  0  0  0  0  0  0
   -2.9072    3.3248    2.8495 H   0  0  0  0  0  0  0  0  0  0  0  0
   -3.3264    5.2257    0.4787 H   0  0  0  0  0  0  0  0  0  0  0  0
   -3.6334    5.6460    2.1548 H   0  0  0  0  0  0  0  0  0  0  0  0
   -1.4807    6.3105    2.3446 H   0  0  0  0  0  0  0  0  0  0  0  0
   -1.0025    4.6331    2.2781 H   0  0  0  0  0  0  0  0  0  0  0  0
   -1.3827    5.3159   -0.4471 H   0  0  0  0  0  0  0  0  0  0  0  0
   -0.7821    6.8065    0.2370 H   0  0  0  0  0  0  0  0  0  0  0  0
    1.3514    6.0211    0.4505 H   0  0  0  0  0  0  0  0  0  0  0  0
    0.8640    4.5499    1.1708 H   0  0  0  0  0  0  0  0  0  0  0  0
   -0.0147    4.1512   -1.4945 H   0  0  0  0  0  0  0  0  0  0  0  0
    1.3574    5.2425   -1.7311 H   0  0  0  0  0  0  0  0  0  0  0  0
    2.3875    3.3010   -0.1807 H   0  0  0  0  0  0  0  0  0  0  0  0
  1 17  1  0  0  0  0
  1 18  1  0  0  0  0
  2  3  1  0  0  0  0
  2 14  1  0  0  0  0
  2 16  1  1  0  0  0
  2  1  1  0  0  0  0
  3  4  1  0  0  0  0
  3 19  1  0  0  0  0
  3 20  1  0  0  0  0
  4  5  1  0  0  0  0
  4 21  1  0  0  0  0
  4 22  1  0  0  0  0
  5  6  1  0  0  0  0
  5 23  1  0  0  0  0
  5 24  1  0  0  0  0
  6  7  1  0  0  0  0
  6 25  1  0  0  0  0
  6 26  1  0  0  0  0
  7  8  1  0  0  0  0
  7 27  1  0  0  0  0
  7 28  1  0  0  0  0
  8  9  1  0  0  0  0
  8 29  1  0  0  0  0
  8 30  1  0  0  0  0
  9 10  1  0  0  0  0
  9 31  1  0  0  0  0
  9 32  1  0  0  0  0
 10 11  1  0  0  0  0
 10 33  1  0  0  0  0
 10 34  1  0  0  0  0
 11 12  1  0  0  0  0
 11 35  1  0  0  0  0
 11 36  1  0  0  0  0
 12 13  1  0  0  0  0
 12 37  1  0  0  0  0
 12 38  1  0  0  0  0
 13 14  1  0  0  0  0
 13 39  1  0  0  0  0
 14 15  2  0  0  0  0
M  END
>  <DRUGBANK_ID>
DB08476

>  <COMMON_NAME>
3-AMINO-AZACYCLOTRIDECAN-2-ONE

$$$$
