
 OpenBabel10282417223D

 65 69  0  0  0  0  0  0  0  0999 V2000
    2.4436    0.0005    0.0571 C   0  0  0  0  0  0  0  0  0  0  0  0
    1.0305   -0.0078   -0.2986 N   0  0  0  0  0  0  0  0  0  0  0  0
    0.3561   -1.2122    0.2490 C   0  0  0  0  0  0  0  0  0  0  0  0
   -1.1317   -1.2675   -0.1630 C   0  0  0  0  0  0  0  0  0  0  0  0
   -1.7784   -0.0418    0.3033 N   0  0  0  0  0  0  0  0  0  0  0  0
   -1.1563    1.2132   -0.1626 C   0  0  0  0  0  0  0  0  0  0  0  0
    0.3410    1.1927    0.2339 C   0  0  0  0  0  0  0  0  0  0  0  0
   -3.0509   -0.0459    0.8346 C   0  0  0  0  0  0  0  0  0  0  0  0
   -3.3412   -0.6536    2.1096 C   0  0  0  0  0  0  0  0  0  0  0  0
   -4.6061   -0.5325    2.7858 C   0  0  0  0  0  0  0  0  0  0  0  0
   -4.7675   -1.2976    4.0571 N   0  0  0  0  0  0  0  0  0  0  0  0
   -5.7931   -1.4363    5.0922 C   0  0  0  0  0  0  0  0  0  0  0  0
   -6.8113   -2.2913    4.8892 N   0  0  0  0  0  0  0  0  0  0  0  0
   -8.0434   -1.9740    5.3838 C   0  0  0  0  0  0  0  0  0  0  0  0
   -8.2624   -1.0110    6.3202 C   0  0  0  0  0  0  0  0  0  0  0  0
   -9.6027   -0.7001    6.9335 C   0  0  0  0  0  0  0  0  0  0  0  0
   -9.4403   -0.6866    8.4575 C   0  0  0  0  0  0  0  0  0  0  0  0
   -8.3002    0.2090    8.8203 C   0  0  0  0  0  0  0  0  0  0  0  0
   -7.2026    0.3574    7.9911 C   0  0  0  0  0  0  0  0  0  0  0  0
   -6.3295    1.1527    8.6832 N   0  0  0  0  0  0  0  0  0  0  0  0
   -5.0287    1.6267    8.2228 C   0  0  0  0  0  0  0  0  0  0  0  0
   -3.8758    0.5974    8.2060 C   0  0  0  0  0  0  0  0  0  0  0  0
   -3.9359   -0.5511    7.3861 O   0  0  0  0  0  0  0  0  0  0  0  0
   -6.8539    1.5803    9.8942 N   0  0  0  0  0  0  0  0  0  0  0  0
   -8.0649    0.9672    9.9845 C   0  0  0  0  0  0  0  0  0  0  0  0
   -9.0214    1.0334   11.1117 C   0  0  0  0  0  0  0  0  0  0  0  0
   -8.7361    1.7969   12.1912 N   0  0  0  0  0  0  0  0  0  0  0  0
  -10.1023    0.4070   11.1144 O   0  0  0  0  0  0  0  0  0  0  0  0
   -7.1056   -0.3800    6.7294 C   0  0  0  0  0  0  0  0  0  0  0  0
   -5.9003   -0.5437    6.1134 N   0  0  0  0  0  0  0  0  0  0  0  0
   -5.5571    0.2403    2.0119 C   0  0  0  0  0  0  0  0  0  0  0  0
   -6.8890    0.5956    2.1525 O   0  0  0  0  0  0  0  0  0  0  0  0
   -7.3754   -0.0534    3.2365 C   0  0  0  0  0  0  0  0  0  0  0  0
   -7.1790   -1.3510    2.9755 F   0  0  0  0  0  0  0  0  0  0  0  0
   -6.7434    0.5272    4.2600 F   0  0  0  0  0  0  0  0  0  0  0  0
   -8.6917    0.1295    3.4276 F   0  0  0  0  0  0  0  0  0  0  0  0
   -5.2588    0.8228    0.7706 C   0  0  0  0  0  0  0  0  0  0  0  0
   -4.0511    0.6396    0.1615 C   0  0  0  0  0  0  0  0  0  0  0  0
    2.9390    0.8806   -0.3674 H   0  0  0  0  0  0  0  0  0  0  0  0
    2.6000    0.0009    1.1409 H   0  0  0  0  0  0  0  0  0  0  0  0
    2.9449   -0.8764   -0.3670 H   0  0  0  0  0  0  0  0  0  0  0  0
    0.8552   -2.1192   -0.1058 H   0  0  0  0  0  0  0  0  0  0  0  0
    0.4136   -1.2042    1.3466 H   0  0  0  0  0  0  0  0  0  0  0  0
   -1.2035   -1.3455   -1.2578 H   0  0  0  0  0  0  0  0  0  0  0  0
   -1.6024   -2.1599    0.2608 H   0  0  0  0  0  0  0  0  0  0  0  0
   -1.2510    1.3302   -1.2515 H   0  0  0  0  0  0  0  0  0  0  0  0
   -1.6247    2.0881    0.3064 H   0  0  0  0  0  0  0  0  0  0  0  0
    0.4105    1.2061    1.3312 H   0  0  0  0  0  0  0  0  0  0  0  0
    0.8236    2.1045   -0.1355 H   0  0  0  0  0  0  0  0  0  0  0  0
   -2.5176   -1.1993    2.5717 H   0  0  0  0  0  0  0  0  0  0  0  0
   -3.8729   -1.3913    4.5386 H   0  0  0  0  0  0  0  0  0  0  0  0
   -8.8849   -2.4301    4.8666 H   0  0  0  0  0  0  0  0  0  0  0  0
   -9.9664    0.2812    6.5892 H   0  0  0  0  0  0  0  0  0  0  0  0
  -10.3545   -1.4426    6.6493 H   0  0  0  0  0  0  0  0  0  0  0  0
  -10.3814   -0.3920    8.9230 H   0  0  0  0  0  0  0  0  0  0  0  0
   -9.1905   -1.6997    8.8006 H   0  0  0  0  0  0  0  0  0  0  0  0
   -5.1835    2.1113    7.2502 H   0  0  0  0  0  0  0  0  0  0  0  0
   -4.7183    2.4168    8.9208 H   0  0  0  0  0  0  0  0  0  0  0  0
   -2.9733    1.1060    7.8593 H   0  0  0  0  0  0  0  0  0  0  0  0
   -3.7210    0.2083    9.2088 H   0  0  0  0  0  0  0  0  0  0  0  0
   -4.8821   -0.7710    7.2790 H   0  0  0  0  0  0  0  0  0  0  0  0
   -9.4240    1.8195   12.9331 H   0  0  0  0  0  0  0  0  0  0  0  0
   -7.8769    2.3237   12.2548 H   0  0  0  0  0  0  0  0  0  0  0  0
   -6.0281    1.4150    0.2748 H   0  0  0  0  0  0  0  0  0  0  0  0
   -3.9196    1.0404   -0.8383 H   0  0  0  0  0  0  0  0  0  0  0  0
  1  2  1  0  0  0  0
  1 39  1  0  0  0  0
  1 40  1  0  0  0  0
  1 41  1  0  0  0  0
  2  3  1  0  0  0  0
  2  7  1  0  0  0  0
  3  4  1  0  0  0  0
  3 42  1  0  0  0  0
  3 43  1  0  0  0  0
  4  5  1  0  0  0  0
  4 44  1  0  0  0  0
  4 45  1  0  0  0  0
  5  6  1  0  0  0  0
  5  8  1  0  0  0  0
  6  7  1  0  0  0  0
  6 46  1  0  0  0  0
  6 47  1  0  0  0  0
  7 48  1  0  0  0  0
  7 49  1  0  0  0  0
  8  9  2  0  0  0  0
  8 38  1  0  0  0  0
  9 10  1  0  0  0  0
  9 50  1  0  0  0  0
 10 11  1  0  0  0  0
 10 31  2  0  0  0  0
 11 12  1  0  0  0  0
 11 51  1  0  0  0  0
 12 13  2  0  0  0  0
 12 30  1  0  0  0  0
 13 14  1  0  0  0  0
 14 15  2  0  0  0  0
 14 52  1  0  0  0  0
 15 16  1  0  0  0  0
 15 29  1  0  0  0  0
 16 17  1  0  0  0  0
 16 53  1  0  0  0  0
 16 54  1  0  0  0  0
 17 18  1  0  0  0  0
 17 55  1  0  0  0  0
 17 56  1  0  0  0  0
 18 19  2  0  0  0  0
 18 25  1  0  0  0  0
 19 20  1  0  0  0  0
 19 29  1  0  0  0  0
 20 21  1  0  0  0  0
 20 24  1  0  0  0  0
 21 22  1  0  0  0  0
 21 57  1  0  0  0  0
 21 58  1  0  0  0  0
 22 23  1  0  0  0  0
 22 59  1  0  0  0  0
 22 60  1  0  0  0  0
 23 61  1  0  0  0  0
 24 25  2  0  0  0  0
 25 26  1  0  0  0  0
 26 27  1  0  0  0  0
 26 28  2  0  0  0  0
 27 62  1  0  0  0  0
 27 63  1  0  0  0  0
 29 30  2  0  0  0  0
 31 32  1  0  0  0  0
 31 37  1  0  0  0  0
 32 33  1  0  0  0  0
 33 34  1  0  0  0  0
 33 35  1  0  0  0  0
 33 36  1  0  0  0  0
 37 38  2  0  0  0  0
 37 64  1  0  0  0  0
 38 65  1  0  0  0  0
M  END
>  <DRUGBANK_ID>
DB15110

>  <COMMON_NAME>
Onvansertib

>  <CAS_NUMBER>
1034616-18-6

>  <UNII>
67RM91WDHQ

>  <SYNONYMS>
1-(2-Hydroxyethyl)-8-((5-(4-methylpiperazin-1-yl)-2-(trifluoromethoxy)phenyl)amino)-4,5-dihydro-1H-pyrazolo[4,3-h]quinazoline-3-carboxamide; Onvansertib

$$$$
