
 OpenBabel10282417203D

 39 40  0  0  0  0  0  0  0  0999 V2000
    1.1022    0.0706   -0.0445 C   0  0  0  0  0  0  0  0  0  0  0  0
    0.6214   -0.2508   -1.4499 C   0  0  0  0  0  0  0  0  0  0  0  0
   -2.1039   -3.4502   -5.2104 C   0  0  0  0  0  0  0  0  0  0  0  0
   -2.1014   -2.1489   -4.7196 C   0  0  0  0  0  0  0  0  0  0  0  0
   -2.0230   -4.5203   -4.3267 C   0  0  0  0  0  0  0  0  0  0  0  0
    0.5560   -5.8543   -0.0670 C   0  0  0  0  0  0  0  0  0  0  0  0
    1.9098   -5.4505    0.4716 C   0  0  0  0  0  0  0  0  0  0  0  0
    1.0547   -1.6508   -1.9053 C   0  0  0  0  0  0  0  0  0  0  0  0
   -1.8802   -1.9115   -3.3651 C   0  0  0  0  0  0  0  0  0  0  0  0
   -1.9837   -4.2685   -2.9653 C   0  0  0  0  0  0  0  0  0  0  0  0
    0.6600   -5.3420   -1.4774 C   0  0  0  0  0  0  0  0  0  0  0  0
    2.3036   -4.2052   -0.3298 C   0  0  0  0  0  0  0  0  0  0  0  0
   -1.1260   -2.8239   -1.1148 C   0  0  0  0  0  0  0  0  0  0  0  0
   -1.7236   -2.9897   -2.4871 C   0  0  0  0  0  0  0  0  0  0  0  0
    0.4406   -2.8147   -1.0650 C   0  0  3  0  0  0  0  0  0  0  0  0
    1.2646   -4.0194   -1.3704 N   0  0  0  0  0  0  0  0  0  0  0  0
    0.7054   -0.6331    0.6920 H   0  0  0  0  0  0  0  0  0  0  0  0
    0.7647    1.0667    0.2524 H   0  0  0  0  0  0  0  0  0  0  0  0
    2.1944    0.0398    0.0044 H   0  0  0  0  0  0  0  0  0  0  0  0
   -0.4644   -0.1389   -1.4809 H   0  0  0  0  0  0  0  0  0  0  0  0
    1.0216    0.4947   -2.1476 H   0  0  0  0  0  0  0  0  0  0  0  0
   -2.1896   -3.6410   -6.2735 H   0  0  0  0  0  0  0  0  0  0  0  0
   -2.2144   -1.3097   -5.4014 H   0  0  0  0  0  0  0  0  0  0  0  0
   -1.9685   -5.5416   -4.6861 H   0  0  0  0  0  0  0  0  0  0  0  0
   -0.2569   -5.3595    0.4772 H   0  0  0  0  0  0  0  0  0  0  0  0
    0.3839   -6.9342   -0.0256 H   0  0  0  0  0  0  0  0  0  0  0  0
    1.8685   -5.2665    1.5473 H   0  0  0  0  0  0  0  0  0  0  0  0
    2.6303   -6.2524    0.2753 H   0  0  0  0  0  0  0  0  0  0  0  0
    0.8094   -1.7789   -2.9681 H   0  0  0  0  0  0  0  0  0  0  0  0
    2.1525   -1.6879   -1.8653 H   0  0  0  0  0  0  0  0  0  0  0  0
   -1.7834   -0.8894   -3.0182 H   0  0  0  0  0  0  0  0  0  0  0  0
   -2.0559   -5.1035   -2.2725 H   0  0  0  0  0  0  0  0  0  0  0  0
    1.3334   -5.9887   -2.0573 H   0  0  0  0  0  0  0  0  0  0  0  0
   -0.2670   -5.4263   -2.0006 H   0  0  0  0  0  0  0  0  0  0  0  0
    2.4220   -3.3474    0.3412 H   0  0  0  0  0  0  0  0  0  0  0  0
    3.2733   -4.3488   -0.8168 H   0  0  0  0  0  0  0  0  0  0  0  0
   -1.5011   -3.5992   -0.4359 H   0  0  0  0  0  0  0  0  0  0  0  0
   -1.4992   -1.8884   -0.6752 H   0  0  0  0  0  0  0  0  0  0  0  0
    0.6188   -2.5785   -0.0121 H   0  0  0  0  0  0  0  0  0  0  0  0
  1 17  1  0  0  0  0
  1 18  1  0  0  0  0
  1 19  1  0  0  0  0
  2  1  1  0  0  0  0
  2 20  1  0  0  0  0
  2 21  1  0  0  0  0
  3 22  1  0  0  0  0
  4  3  2  0  0  0  0
  4 23  1  0  0  0  0
  5  3  1  0  0  0  0
  5 24  1  0  0  0  0
  6 25  1  0  0  0  0
  6 26  1  0  0  0  0
  7  6  1  0  0  0  0
  7 27  1  0  0  0  0
  7 28  1  0  0  0  0
  8  2  1  0  0  0  0
  8 29  1  0  0  0  0
  8 30  1  0  0  0  0
  9  4  1  0  0  0  0
  9 31  1  0  0  0  0
 10  5  2  0  0  0  0
 10 32  1  0  0  0  0
 11  6  1  0  0  0  0
 11 33  1  0  0  0  0
 11 34  1  0  0  0  0
 12  7  1  0  0  0  0
 12 35  1  0  0  0  0
 12 36  1  0  0  0  0
 13 37  1  0  0  0  0
 13 38  1  0  0  0  0
 14  9  2  0  0  0  0
 14 10  1  0  0  0  0
 14 13  1  0  0  0  0
 15  8  1  0  0  0  0
 15 13  1  0  0  0  0
 15 39  1  0  0  0  0
 16 11  1  0  0  0  0
 16 12  1  0  0  0  0
 16 15  1  0  0  0  0
M  END
>  <DRUGBANK_ID>
DB13438

>  <COMMON_NAME>
Prolintane

>  <CAS_NUMBER>
493-92-5

>  <UNII>
EM4YZW677H

>  <SYNONYMS>
Prolintane

$$$$
