
 OpenBabel10282417103D

 48 51  0  0  0  0  0  0  0  0999 V2000
   -0.2466    0.5382    1.1590 C   0  0  1  0  0  0  0  0  0  0  0  0
    1.0637   -1.2593    0.0267 C   0  0  2  0  0  0  0  0  0  0  0  0
    0.3535   -0.8780   -1.2689 C   0  0  0  0  0  0  0  0  0  0  0  0
   -0.2646    0.5033   -1.1552 C   0  0  1  0  0  0  0  0  0  0  0  0
   -1.1596    0.5971    0.0065 N   0  0  0  0  0  0  0  0  0  0  0  0
    0.3882   -0.8315    1.3204 C   0  0  0  0  0  0  0  0  0  0  0  0
    0.8179    1.5237   -0.7940 C   0  0  0  0  0  0  0  0  0  0  0  0
    0.8256    1.5523    0.7418 C   0  0  0  0  0  0  0  0  0  0  0  0
    3.3872   -1.9818   -0.0516 C   0  0  0  0  0  0  0  0  0  0  0  0
    2.4388   -0.8944   -0.0142 O   0  0  0  0  0  0  0  0  0  0  0  0
   -0.7673    0.7581   -2.0930 H   0  0  0  0  0  0  0  0  0  0  0  0
   -0.7361    0.8226    2.0949 H   0  0  0  0  0  0  0  0  0  0  0  0
    3.3820   -2.7798    1.2557 C   0  0  0  0  0  0  0  0  0  0  0  0
    3.3153   -2.8198   -1.3274 C   0  0  0  0  0  0  0  0  0  0  0  0
    4.4931   -2.7740    2.1033 C   0  0  0  0  0  0  0  0  0  0  0  0
    4.4124   -3.3660    3.3697 C   0  0  0  0  0  0  0  0  0  0  0  0
    3.2034   -3.8828    3.8389 C   0  0  0  0  0  0  0  0  0  0  0  0
    2.1032   -3.9068    3.0102 C   0  0  0  0  0  0  0  0  0  0  0  0
    2.2453   -3.4792    1.7018 C   0  0  0  0  0  0  0  0  0  0  0  0
    4.4591   -3.0309   -2.0947 C   0  0  0  0  0  0  0  0  0  0  0  0
    4.4055   -3.8591   -3.2268 C   0  0  0  0  0  0  0  0  0  0  0  0
    3.2065   -4.4662   -3.6121 C   0  0  0  0  0  0  0  0  0  0  0  0
    2.0685   -4.2622   -2.8806 C   0  0  0  0  0  0  0  0  0  0  0  0
    2.1332   -3.4558   -1.7565 C   0  0  0  0  0  0  0  0  0  0  0  0
   -2.2589   -0.3593    0.0143 C   0  0  0  0  0  0  0  0  0  0  0  0
    0.9595   -2.3118    0.0788 H   0  0  0  0  0  0  0  0  0  0  0  0
   -0.4236   -1.6250   -1.4794 H   0  0  0  0  0  0  0  0  0  0  0  0
    1.0416   -0.9110   -2.1221 H   0  0  0  0  0  0  0  0  0  0  0  0
   -0.3769   -1.5784    1.5764 H   0  0  0  0  0  0  0  0  0  0  0  0
    1.1018   -0.8357    2.1533 H   0  0  0  0  0  0  0  0  0  0  0  0
    1.7996    1.2554   -1.2048 H   0  0  0  0  0  0  0  0  0  0  0  0
    0.5629    2.5116   -1.1842 H   0  0  0  0  0  0  0  0  0  0  0  0
    0.5645    2.5530    1.0930 H   0  0  0  0  0  0  0  0  0  0  0  0
    1.8155    1.3092    1.1485 H   0  0  0  0  0  0  0  0  0  0  0  0
    4.3462   -1.4372   -0.0857 H   0  0  0  0  0  0  0  0  0  0  0  0
    5.4285   -2.3134    1.7918 H   0  0  0  0  0  0  0  0  0  0  0  0
    5.2883   -3.3996    4.0084 H   0  0  0  0  0  0  0  0  0  0  0  0
    3.1191   -4.2948    4.8381 H   0  0  0  0  0  0  0  0  0  0  0  0
    1.1329   -4.2612    3.3469 H   0  0  0  0  0  0  0  0  0  0  0  0
    1.3981   -3.6911    1.0684 H   0  0  0  0  0  0  0  0  0  0  0  0
    5.4092   -2.5737   -1.8200 H   0  0  0  0  0  0  0  0  0  0  0  0
    5.3030   -4.0440   -3.8011 H   0  0  0  0  0  0  0  0  0  0  0  0
    3.1587   -5.1110   -4.4847 H   0  0  0  0  0  0  0  0  0  0  0  0
    1.1131   -4.7191   -3.1272 H   0  0  0  0  0  0  0  0  0  0  0  0
    1.1865   -3.3809   -1.2638 H   0  0  0  0  0  0  0  0  0  0  0  0
   -1.9599   -1.4135    0.0421 H   0  0  0  0  0  0  0  0  0  0  0  0
   -2.9056   -0.1838    0.8791 H   0  0  0  0  0  0  0  0  0  0  0  0
   -2.8735   -0.2241   -0.8822 H   0  0  0  0  0  0  0  0  0  0  0  0
  1 12  1  1  0  0  0
  1  6  1  0  0  0  0
  1  8  1  0  0  0  0
  2  3  1  0  0  0  0
  2 26  1  1  0  0  0
  2 10  1  0  0  0  0
  3  4  1  0  0  0  0
  3 27  1  0  0  0  0
  3 28  1  0  0  0  0
  4  5  1  0  0  0  0
  4  7  1  0  0  0  0
  4 11  1  6  0  0  0
  5  1  1  0  0  0  0
  5 25  1  0  0  0  0
  6  2  1  0  0  0  0
  6 29  1  0  0  0  0
  6 30  1  0  0  0  0
  7  8  1  0  0  0  0
  7 31  1  0  0  0  0
  7 32  1  0  0  0  0
  8 33  1  0  0  0  0
  8 34  1  0  0  0  0
  9 13  1  0  0  0  0
  9 14  1  0  0  0  0
  9 35  1  0  0  0  0
 10  9  1  0  0  0  0
 13 15  2  0  0  0  0
 14 20  2  0  0  0  0
 15 16  1  0  0  0  0
 15 36  1  0  0  0  0
 16 17  2  0  0  0  0
 16 37  1  0  0  0  0
 17 18  1  0  0  0  0
 17 38  1  0  0  0  0
 18 19  2  0  0  0  0
 18 39  1  0  0  0  0
 19 13  1  0  0  0  0
 19 40  1  0  0  0  0
 20 21  1  0  0  0  0
 20 41  1  0  0  0  0
 21 22  2  0  0  0  0
 21 42  1  0  0  0  0
 22 23  1  0  0  0  0
 22 43  1  0  0  0  0
 23 24  2  0  0  0  0
 23 44  1  0  0  0  0
 24 14  1  0  0  0  0
 24 45  1  0  0  0  0
 25 46  1  0  0  0  0
 25 47  1  0  0  0  0
 25 48  1  0  0  0  0
M  END
>  <DRUGBANK_ID>
DB00245

>  <SECONDARY_ACCESSION_NUMBERS>
APRD00748

>  <COMMON_NAME>
Benzatropine

>  <CAS_NUMBER>
86-13-5

>  <UNII>
1NHL2J4X8K

>  <SYNONYMS>
3-alpha-(diphenylmethoxy)tropane; 3endo-benzhydryloxytropane; 3α-(diphenylmethoxy)-1αH,5αH-tropane; 3α-(diphenylmethoxy)tropane; 3α-benzhydryloxy-8-methyl-8-azabicyclo[3.2.1]octane; Benzatropina; Benzatropine; Benzatropinum; benzhydryl 8-methyl-8-azabicyclo[3.2.1]oct-3-yl ether; Benztropine; Tropine benzohydryl ether

$$$$
