
 OpenBabel10282417233D

 82 86  0  0  0  0  0  0  0  0999 V2000
    1.0142   -0.1332   -0.0497 C   0  0  0  0  0  0  0  0  0  0  0  0
    0.4175   -1.0606    1.0040 C   0  0  3  0  0  0  0  0  0  0  0  0
    0.8946   -0.6937    2.2940 O   0  0  0  0  0  0  0  0  0  0  0  0
   -1.0685   -1.0818    1.0346 C   0  0  0  0  0  0  0  0  0  0  0  0
   -1.9051   -2.1343    0.9977 C   0  0  0  0  0  0  0  0  0  0  0  0
   -1.4843   -3.5736    0.9584 C   0  0  0  0  0  0  0  0  0  0  0  0
   -3.2819   -1.6577    1.0043 C   0  0  0  0  0  0  0  0  0  0  0  0
   -4.3647   -2.4313    1.0098 C   0  0  0  0  0  0  0  0  0  0  0  0
   -5.7330   -2.0589    1.0013 C   0  0  0  0  0  0  0  0  0  0  0  0
   -6.8542   -2.8816    1.0026 C   0  0  0  0  0  0  0  0  0  0  0  0
   -6.8658   -4.3795    1.0006 C   0  0  3  0  0  0  0  0  0  0  0  0
   -6.2002   -4.9488   -0.2466 C   0  0  0  0  0  0  0  0  0  0  0  0
   -6.2539   -4.9285    2.1679 O   0  0  0  0  0  0  0  0  0  0  0  0
   -7.9981   -2.0390    0.9512 C   0  0  0  0  0  0  0  0  0  0  0  0
   -9.4302   -2.4416    0.9237 C   0  0  0  0  0  0  0  0  0  0  0  0
   -7.5452   -0.7342    0.9177 C   0  0  0  0  0  0  0  0  0  0  0  0
   -6.1695   -0.7519    0.9541 N   0  0  0  0  0  0  0  0  0  0  0  0
   -8.3236    0.4429    0.8515 C   0  0  0  0  0  0  0  0  0  0  0  0
   -7.9047    1.7061    0.8930 C   0  0  0  0  0  0  0  0  0  0  0  0
   -6.6034    2.1027    1.0131 N   0  0  0  0  0  0  0  0  0  0  0  0
   -6.6484    3.4016    1.0216 C   0  0  0  0  0  0  0  0  0  0  0  0
   -5.4678    4.2479    1.2875 C   0  0  0  0  0  0  0  0  0  0  0  0
   -4.2022    3.8196    1.1546 C   0  0  0  0  0  0  0  0  0  0  0  0
   -3.7115    2.5570    0.9702 N   0  0  0  0  0  0  0  0  0  0  0  0
   -2.3511    2.4914    1.1018 C   0  0  0  0  0  0  0  0  0  0  0  0
   -1.5505    1.4256    1.1816 C   0  0  0  0  0  0  0  0  0  0  0  0
   -2.0296    0.0426    1.0749 C   0  0  0  0  0  0  0  0  0  0  0  0
   -3.2839   -0.2949    1.0305 N   0  0  0  0  0  0  0  0  0  0  0  0
   -1.9048    3.8831    1.1805 C   0  0  0  0  0  0  0  0  0  0  0  0
   -0.4732    4.3089    1.2148 C   0  0  0  0  0  0  0  0  0  0  0  0
   -3.0062    4.6761    1.1693 C   0  0  0  0  0  0  0  0  0  0  0  0
   -3.0527    6.1716    1.1084 C   0  0  0  0  0  0  0  0  0  0  0  0
   -3.5922    6.7793   -0.2011 C   0  0  0  0  0  0  0  0  0  0  0  0
   -4.9919    6.4165   -0.6521 C   0  0  0  0  0  0  0  0  0  0  0  0
   -5.9443    7.3374   -0.3759 O   0  0  0  0  0  0  0  0  0  0  0  0
   -5.2829    5.3842   -1.2287 O   0  0  0  0  0  0  0  0  0  0  0  0
   -8.0138    3.9860    0.8393 C   0  0  0  0  0  0  0  0  0  0  0  0
   -8.4417    5.4129    0.7314 C   0  0  0  0  0  0  0  0  0  0  0  0
   -9.0718    5.8307   -0.6137 C   0  0  0  0  0  0  0  0  0  0  0  0
  -10.2187    5.0033   -1.1261 C   0  0  0  0  0  0  0  0  0  0  0  0
  -11.4568    5.4687   -0.8621 O   0  0  0  0  0  0  0  0  0  0  0  0
  -10.0594    3.9537   -1.7503 O   0  0  0  0  0  0  0  0  0  0  0  0
   -8.7704    2.8738    0.8756 C   0  0  0  0  0  0  0  0  0  0  0  0
  -10.2717    2.7773    0.9862 C   0  0  0  0  0  0  0  0  0  0  0  0
    0.8167    0.9209    0.1424 H   0  0  0  0  0  0  0  0  0  0  0  0
    0.6366   -0.3689   -1.0478 H   0  0  0  0  0  0  0  0  0  0  0  0
    2.1058   -0.2013   -0.0426 H   0  0  0  0  0  0  0  0  0  0  0  0
    0.7954   -2.0703    0.7977 H   0  0  0  0  0  0  0  0  0  0  0  0
    1.8615   -0.7965    2.2877 H   0  0  0  0  0  0  0  0  0  0  0  0
   -0.8869   -3.7784    0.0632 H   0  0  0  0  0  0  0  0  0  0  0  0
   -0.8829   -3.8241    1.8396 H   0  0  0  0  0  0  0  0  0  0  0  0
   -2.3159   -4.2825    0.9415 H   0  0  0  0  0  0  0  0  0  0  0  0
   -4.1794   -3.4920    1.0202 H   0  0  0  0  0  0  0  0  0  0  0  0
   -7.8943   -4.7432    1.0162 H   0  0  0  0  0  0  0  0  0  0  0  0
   -5.1434   -4.6815   -0.3213 H   0  0  0  0  0  0  0  0  0  0  0  0
   -6.2287   -6.0400   -0.2224 H   0  0  0  0  0  0  0  0  0  0  0  0
   -6.6907   -4.5845   -1.1546 H   0  0  0  0  0  0  0  0  0  0  0  0
   -5.4189   -4.4548    2.3013 H   0  0  0  0  0  0  0  0  0  0  0  0
   -9.9520   -2.0270    1.7924 H   0  0  0  0  0  0  0  0  0  0  0  0
   -9.9116   -2.0667    0.0140 H   0  0  0  0  0  0  0  0  0  0  0  0
   -9.5595   -3.5228    0.9434 H   0  0  0  0  0  0  0  0  0  0  0  0
   -5.5748    0.0708    0.9365 H   0  0  0  0  0  0  0  0  0  0  0  0
   -9.3871    0.2632    0.7779 H   0  0  0  0  0  0  0  0  0  0  0  0
   -5.6732    5.2802    1.5138 H   0  0  0  0  0  0  0  0  0  0  0  0
   -4.3032    1.7331    1.0179 H   0  0  0  0  0  0  0  0  0  0  0  0
   -0.5045    1.5587    1.3790 H   0  0  0  0  0  0  0  0  0  0  0  0
   -0.2233    4.9190    0.3414 H   0  0  0  0  0  0  0  0  0  0  0  0
   -0.2786    4.8877    2.1227 H   0  0  0  0  0  0  0  0  0  0  0  0
    0.2360    3.4760    1.2230 H   0  0  0  0  0  0  0  0  0  0  0  0
   -3.5928    6.5521    1.9823 H   0  0  0  0  0  0  0  0  0  0  0  0
   -2.0260    6.5519    1.2182 H   0  0  0  0  0  0  0  0  0  0  0  0
   -3.5281    7.8706   -0.1325 H   0  0  0  0  0  0  0  0  0  0  0  0
   -2.9389    6.4895   -1.0313 H   0  0  0  0  0  0  0  0  0  0  0  0
   -5.6250    8.2068   -0.0793 H   0  0  0  0  0  0  0  0  0  0  0  0
   -9.1129    5.6562    1.5639 H   0  0  0  0  0  0  0  0  0  0  0  0
   -7.5790    6.0661    0.8870 H   0  0  0  0  0  0  0  0  0  0  0  0
   -9.3832    6.8816   -0.5792 H   0  0  0  0  0  0  0  0  0  0  0  0
   -8.3131    5.7688   -1.4018 H   0  0  0  0  0  0  0  0  0  0  0  0
  -11.5137    6.3988   -0.5803 H   0  0  0  0  0  0  0  0  0  0  0  0
  -10.6141    3.3141    1.8742 H   0  0  0  0  0  0  0  0  0  0  0  0
  -10.8508    3.1610    0.1539 H   0  0  0  0  0  0  0  0  0  0  0  0
  -10.6340    1.7527    1.0575 H   0  0  0  0  0  0  0  0  0  0  0  0
  1  2  1  0  0  0  0
  1 45  1  0  0  0  0
  1 46  1  0  0  0  0
  1 47  1  0  0  0  0
  2  3  1  0  0  0  0
  2  4  1  0  0  0  0
  2 48  1  0  0  0  0
  3 49  1  0  0  0  0
  4  5  2  0  0  0  0
  4 27  1  0  0  0  0
  5  6  1  0  0  0  0
  5  7  1  0  0  0  0
  6 50  1  0  0  0  0
  6 51  1  0  0  0  0
  6 52  1  0  0  0  0
  7  8  2  0  0  0  0
  7 28  1  0  0  0  0
  8  9  1  0  0  0  0
  8 53  1  0  0  0  0
  9 10  2  0  0  0  0
  9 17  1  0  0  0  0
 10 11  1  0  0  0  0
 10 14  1  0  0  0  0
 11 12  1  0  0  0  0
 11 13  1  0  0  0  0
 11 54  1  0  0  0  0
 12 55  1  0  0  0  0
 12 56  1  0  0  0  0
 12 57  1  0  0  0  0
 13 58  1  0  0  0  0
 14 15  1  0  0  0  0
 14 16  2  0  0  0  0
 15 59  1  0  0  0  0
 15 60  1  0  0  0  0
 15 61  1  0  0  0  0
 16 17  1  0  0  0  0
 16 18  1  0  0  0  0
 17 62  1  0  0  0  0
 18 19  2  0  0  0  0
 18 63  1  0  0  0  0
 19 20  1  0  0  0  0
 19 43  1  0  0  0  0
 20 21  2  0  0  0  0
 21 22  1  0  0  0  0
 21 37  1  0  0  0  0
 22 23  2  0  0  0  0
 22 64  1  0  0  0  0
 23 24  1  0  0  0  0
 23 31  1  0  0  0  0
 24 25  1  0  0  0  0
 24 65  1  0  0  0  0
 25 26  2  0  0  0  0
 25 29  1  0  0  0  0
 26 27  1  0  0  0  0
 26 66  1  0  0  0  0
 27 28  2  0  0  0  0
 29 30  1  0  0  0  0
 29 31  2  0  0  0  0
 30 67  1  0  0  0  0
 30 68  1  0  0  0  0
 30 69  1  0  0  0  0
 31 32  1  0  0  0  0
 32 33  1  0  0  0  0
 32 70  1  0  0  0  0
 32 71  1  0  0  0  0
 33 34  1  0  0  0  0
 33 72  1  0  0  0  0
 33 73  1  0  0  0  0
 34 35  1  0  0  0  0
 34 36  2  0  0  0  0
 35 74  1  0  0  0  0
 37 38  1  0  0  0  0
 37 43  2  0  0  0  0
 38 39  1  0  0  0  0
 38 75  1  0  0  0  0
 38 76  1  0  0  0  0
 39 40  1  0  0  0  0
 39 77  1  0  0  0  0
 39 78  1  0  0  0  0
 40 41  1  0  0  0  0
 40 42  2  0  0  0  0
 41 79  1  0  0  0  0
 43 44  1  0  0  0  0
 44 80  1  0  0  0  0
 44 81  1  0  0  0  0
 44 82  1  0  0  0  0
M  END
>  <DRUGBANK_ID>
DB16183

>  <COMMON_NAME>
Hemoporfin

>  <CAS_NUMBER>
14459-29-1

>  <UNII>
HBT6M5H379

>  <SYNONYMS>
Haematoporphyrin; Hematoporphyrin; Hematoporphyrin ix; Hemoporfin; Photodyn

$$$$
