
 OpenBabel10282417123D

 20 19  0  0  0  0  0  0  0  0999 V2000
    0.8522    2.2326    1.4039 C   0  0  0  0  0  0  0  0  0  0  0  0
    0.3950    1.4599    0.2110 C   0  0  0  0  0  0  0  0  0  0  0  0
   -0.9536    3.3186   -0.8377 C   0  0  0  0  0  0  0  0  0  0  0  0
   -0.3882    4.1257   -2.0077 C   0  0  0  0  0  0  0  0  0  0  0  0
   -0.4467    1.8837   -0.7465 C   0  0  0  0  0  0  0  0  0  0  0  0
   -0.8902    3.6666   -3.3465 C   0  0  0  0  0  0  0  0  0  0  0  0
   -0.9488    0.9783   -1.6687 N   0  0  0  0  0  0  0  0  0  0  0  0
   -1.7037    4.2510   -4.0489 O   0  0  0  0  0  0  0  0  0  0  0  0
   -0.3925    2.4766   -3.7351 O   0  0  0  0  0  0  0  0  0  0  0  0
    0.7345    0.4251    0.1815 H   0  0  0  0  0  0  0  0  0  0  0  0
    0.4690    3.2514    1.4537 H   0  0  0  0  0  0  0  0  0  0  0  0
    1.9415    2.2913    1.4337 H   0  0  0  0  0  0  0  0  0  0  0  0
    0.4917    1.7235    2.3028 H   0  0  0  0  0  0  0  0  0  0  0  0
   -2.0490    3.3125   -0.8537 H   0  0  0  0  0  0  0  0  0  0  0  0
   -0.6950    3.8856    0.0597 H   0  0  0  0  0  0  0  0  0  0  0  0
   -0.7084    5.1696   -1.8875 H   0  0  0  0  0  0  0  0  0  0  0  0
    0.7078    4.1438   -2.0056 H   0  0  0  0  0  0  0  0  0  0  0  0
   -0.3026    0.2230   -1.8862 H   0  0  0  0  0  0  0  0  0  0  0  0
   -1.2345    1.4274   -2.5353 H   0  0  0  0  0  0  0  0  0  0  0  0
   -0.8781    2.2199   -4.5465 H   0  0  0  0  0  0  0  0  0  0  0  0
  1 11  1  0  0  0  0
  1 12  1  0  0  0  0
  1 13  1  0  0  0  0
  2  1  1  0  0  0  0
  3 14  1  0  0  0  0
  3 15  1  0  0  0  0
  4  3  1  0  0  0  0
  4 16  1  0  0  0  0
  4 17  1  0  0  0  0
  5  2  2  0  0  0  0
  5  3  1  0  0  0  0
  6  4  1  0  0  0  0
  7  5  1  0  0  0  0
  7 18  1  0  0  0  0
  7 19  1  0  0  0  0
  8  6  2  0  0  0  0
  9  6  1  0  0  0  0
  9 20  1  0  0  0  0
 10  2  1  0  0  0  0
M  END
>  <DRUGBANK_ID>
DB01699

>  <SECONDARY_ACCESSION_NUMBERS>
EXPT01579

>  <COMMON_NAME>
(4e)-4-Aminohex-4-Enoic Acid

$$$$
