
 OpenBabel10282417163D

 49 50  0  0  0  0  0  0  0  0999 V2000
   -2.4033   -0.7071    0.1308 C   0  0  0  0  0  0  0  0  0  0  0  0
   -2.4551    0.6790    0.2320 C   0  0  0  0  0  0  0  0  0  0  0  0
   -1.2436    1.3853    0.0711 C   0  0  0  0  0  0  0  0  0  0  0  0
   -1.2226   -1.4034   -0.0668 C   0  0  0  0  0  0  0  0  0  0  0  0
   -0.0338   -0.7121   -0.1707 C   0  0  0  0  0  0  0  0  0  0  0  0
   -0.0260    0.6887   -0.1311 C   0  0  0  0  0  0  0  0  0  0  0  0
    1.3136    1.3587   -0.3697 C   0  0  0  0  0  0  0  0  0  0  0  0
    2.4316    0.6778    0.3082 N   0  0  0  0  0  0  0  0  0  0  0  0
    2.3538   -0.7826    0.5289 C   0  0  1  0  0  0  0  0  0  0  0  0
    1.2634   -1.4412   -0.3400 C   0  0  0  0  0  0  0  0  0  0  0  0
    3.6625   -1.4709    0.1107 C   0  0  0  0  0  0  0  0  0  0  0  0
    4.3057   -2.1834    1.1059 N   0  0  0  0  0  0  0  0  0  0  0  0
    5.6048   -2.7648    0.8663 C   0  0  0  0  0  0  0  0  0  0  0  0
    4.1104   -1.3688   -1.0304 O   0  0  0  0  0  0  0  0  0  0  0  0
   -3.6786    1.3863    0.4675 N   0  0  0  0  0  0  0  0  0  0  0  0
   -5.2076    0.7421    0.7197 S   0  0  0  0  0  0  0  0  0  0  0  0
   -5.5943    1.0307    2.0809 O   0  0  0  0  0  0  0  0  0  0  0  0
   -6.0455    1.1688   -0.3766 O   0  0  0  0  0  0  0  0  0  0  0  0
   -5.1444   -0.8562    0.6193 O   0  0  0  0  0  0  0  0  0  0  0  0
    3.4919    1.4539    0.7490 C   0  0  0  0  0  0  0  0  0  0  0  0
    3.5404    2.6624    0.5185 O   0  0  0  0  0  0  0  0  0  0  0  0
    4.4631    0.7736    1.4393 O   0  0  0  0  0  0  0  0  0  0  0  0
    5.6569    1.4889    1.8886 C   0  0  0  0  0  0  0  0  0  0  0  0
    6.4378    2.0856    0.7094 C   0  0  0  0  0  0  0  0  0  0  0  0
    5.2706    2.5575    2.9142 C   0  0  0  0  0  0  0  0  0  0  0  0
    6.6036    0.4965    2.5985 C   0  0  0  0  0  0  0  0  0  0  0  0
   -3.2626   -1.3436    0.2044 H   0  0  0  0  0  0  0  0  0  0  0  0
   -1.2277    2.4738    0.1087 H   0  0  0  0  0  0  0  0  0  0  0  0
   -1.2632   -2.4869   -0.1194 H   0  0  0  0  0  0  0  0  0  0  0  0
    1.2685    2.4112   -0.0731 H   0  0  0  0  0  0  0  0  0  0  0  0
    1.5323    1.3304   -1.4463 H   0  0  0  0  0  0  0  0  0  0  0  0
    2.1305   -0.9375    1.5927 H   0  0  0  0  0  0  0  0  0  0  0  0
    1.5252   -1.4170   -1.4067 H   0  0  0  0  0  0  0  0  0  0  0  0
    1.1485   -2.4974   -0.0654 H   0  0  0  0  0  0  0  0  0  0  0  0
    3.9690   -2.1376    2.0605 H   0  0  0  0  0  0  0  0  0  0  0  0
    6.3295   -2.3131    1.5459 H   0  0  0  0  0  0  0  0  0  0  0  0
    5.5468   -3.8338    1.0748 H   0  0  0  0  0  0  0  0  0  0  0  0
    5.9345   -2.6044   -0.1628 H   0  0  0  0  0  0  0  0  0  0  0  0
   -3.6557    2.4004    0.5542 H   0  0  0  0  0  0  0  0  0  0  0  0
   -6.0345   -1.2375    0.7365 H   0  0  0  0  0  0  0  0  0  0  0  0
    5.8468    2.8047    0.1397 H   0  0  0  0  0  0  0  0  0  0  0  0
    7.3363    2.6079    1.0566 H   0  0  0  0  0  0  0  0  0  0  0  0
    6.7434    1.3023    0.0061 H   0  0  0  0  0  0  0  0  0  0  0  0
    4.7423    2.1019    3.7592 H   0  0  0  0  0  0  0  0  0  0  0  0
    6.1525    3.0838    3.2917 H   0  0  0  0  0  0  0  0  0  0  0  0
    4.5984    3.3068    2.4926 H   0  0  0  0  0  0  0  0  0  0  0  0
    6.1149   -0.0036    3.4414 H   0  0  0  0  0  0  0  0  0  0  0  0
    6.9532   -0.2833    1.9166 H   0  0  0  0  0  0  0  0  0  0  0  0
    7.4971    1.0079    2.9817 H   0  0  0  0  0  0  0  0  0  0  0  0
  1  2  2  0  0  0  0
  1 27  1  0  0  0  0
  2 15  1  0  0  0  0
  2  3  1  0  0  0  0
  3  6  2  0  0  0  0
  3 28  1  0  0  0  0
  4  1  1  0  0  0  0
  4 29  1  0  0  0  0
  5  6  1  0  0  0  0
  5 10  1  0  0  0  0
  5  4  2  0  0  0  0
  6  7  1  0  0  0  0
  7  8  1  0  0  0  0
  7 30  1  0  0  0  0
  7 31  1  0  0  0  0
  8  9  1  0  0  0  0
  8 20  1  0  0  0  0
  9 10  1  0  0  0  0
  9 11  1  0  0  0  0
  9 32  1  1  0  0  0
 10 33  1  0  0  0  0
 10 34  1  0  0  0  0
 11 12  1  0  0  0  0
 11 14  2  0  0  0  0
 12 13  1  0  0  0  0
 12 35  1  0  0  0  0
 13 36  1  0  0  0  0
 13 37  1  0  0  0  0
 13 38  1  0  0  0  0
 15 16  1  0  0  0  0
 15 39  1  0  0  0  0
 16 17  2  0  0  0  0
 16 18  2  0  0  0  0
 16 19  1  0  0  0  0
 19 40  1  0  0  0  0
 20 21  2  0  0  0  0
 20 22  1  0  0  0  0
 22 23  1  0  0  0  0
 23 24  1  0  0  0  0
 23 25  1  0  0  0  0
 23 26  1  0  0  0  0
 24 41  1  0  0  0  0
 24 42  1  0  0  0  0
 24 43  1  0  0  0  0
 25 44  1  0  0  0  0
 25 45  1  0  0  0  0
 25 46  1  0  0  0  0
 26 47  1  0  0  0  0
 26 48  1  0  0  0  0
 26 49  1  0  0  0  0
M  END
>  <DRUGBANK_ID>
DB06887

>  <COMMON_NAME>
[(3S)-3-(Methylcarbamoyl)-2-{[(2-methyl-2-propanyl)oxy]carbonyl}-1,2,3,4-tetrahydro-7-isoquinolinyl]sulfamic acid

$$$$
