
 OpenBabel10282417213D

 49 51  0  0  0  0  0  0  0  0999 V2000
    0.7976   -0.4915    0.1362 C   0  0  0  0  0  0  0  0  0  0  0  0
    0.3839   -0.6638    1.5789 C   0  0  0  0  0  0  0  0  0  0  0  0
    0.9817    0.1168    2.7358 C   0  0  0  0  0  0  0  0  0  0  0  0
   -1.0762   -0.3682    1.5213 C   0  0  0  0  0  0  0  0  0  0  0  0
   -1.7224    0.8321    1.4013 C   0  0  0  0  0  0  0  0  0  0  0  0
   -3.1511    0.7524    1.4789 N   0  0  0  0  0  0  0  0  0  0  0  0
   -4.0518    1.9036    1.4330 C   0  0  0  0  0  0  0  0  0  0  0  0
   -4.8466    2.0144    0.1499 C   0  0  0  0  0  0  0  0  0  0  0  0
   -5.9806    1.0816   -0.2227 C   0  0  0  0  0  0  0  0  0  0  0  0
   -4.6860    1.0315   -0.9898 C   0  0  0  0  0  0  0  0  0  0  0  0
   -3.8275   -0.4668    1.6456 C   0  0  0  0  0  0  0  0  0  0  0  0
   -5.0119   -0.6068    1.9510 O   0  0  0  0  0  0  0  0  0  0  0  0
   -3.1321   -1.5967    1.4159 N   0  0  0  0  0  0  0  0  0  0  0  0
   -1.8054   -1.6638    1.4651 C   0  0  0  0  0  0  0  0  0  0  0  0
   -1.2404   -2.7640    1.4436 O   0  0  0  0  0  0  0  0  0  0  0  0
   -0.9959    2.3048    1.2551 C   0  0  0  0  0  0  0  0  0  0  0  0
   -1.6272    3.3554    1.3862 O   0  0  0  0  0  0  0  0  0  0  0  0
    0.4957    2.5880    1.1258 C   0  0  0  0  0  0  0  0  0  0  0  0
    1.2975    2.2730    0.0203 C   0  0  0  0  0  0  0  0  0  0  0  0
    2.6824    2.0413    0.1905 C   0  0  0  0  0  0  0  0  0  0  0  0
    3.4697    1.2087   -0.7975 C   0  0  0  0  0  0  0  0  0  0  0  0
    3.2980    2.4543    1.3710 C   0  0  0  0  0  0  0  0  0  0  0  0
    2.5445    3.0745    2.3726 C   0  0  0  0  0  0  0  0  0  0  0  0
    3.2174    3.5713    3.6142 C   0  0  0  0  0  0  0  0  0  0  0  0
    1.1431    3.1334    2.2506 C   0  0  0  0  0  0  0  0  0  0  0  0
    0.2527    0.3377   -0.3031 H   0  0  0  0  0  0  0  0  0  0  0  0
    0.4874   -1.2833   -0.5511 H   0  0  0  0  0  0  0  0  0  0  0  0
    1.8702   -0.4037    0.0745 H   0  0  0  0  0  0  0  0  0  0  0  0
    0.6589   -1.6970    1.8156 H   0  0  0  0  0  0  0  0  0  0  0  0
    0.4714    1.0546    2.8993 H   0  0  0  0  0  0  0  0  0  0  0  0
    0.7805   -0.3624    3.6982 H   0  0  0  0  0  0  0  0  0  0  0  0
    2.0538    0.2722    2.6307 H   0  0  0  0  0  0  0  0  0  0  0  0
   -4.7165    1.8660    2.3050 H   0  0  0  0  0  0  0  0  0  0  0  0
   -3.5397    2.8449    1.5473 H   0  0  0  0  0  0  0  0  0  0  0  0
   -5.0331    3.0590   -0.0791 H   0  0  0  0  0  0  0  0  0  0  0  0
   -6.2696    0.2726    0.4326 H   0  0  0  0  0  0  0  0  0  0  0  0
   -6.8532    1.4991   -0.7124 H   0  0  0  0  0  0  0  0  0  0  0  0
   -4.6895    1.3987   -2.0075 H   0  0  0  0  0  0  0  0  0  0  0  0
   -4.0102    0.1945   -0.8639 H   0  0  0  0  0  0  0  0  0  0  0  0
   -3.6358   -2.4697    1.4596 H   0  0  0  0  0  0  0  0  0  0  0  0
    0.8475    2.0094   -0.9337 H   0  0  0  0  0  0  0  0  0  0  0  0
    4.1851    1.8203   -1.3424 H   0  0  0  0  0  0  0  0  0  0  0  0
    4.0082    0.3995   -0.2767 H   0  0  0  0  0  0  0  0  0  0  0  0
    2.8135    0.7084   -1.5208 H   0  0  0  0  0  0  0  0  0  0  0  0
    4.3588    2.2596    1.5258 H   0  0  0  0  0  0  0  0  0  0  0  0
    2.9681    4.6264    3.7502 H   0  0  0  0  0  0  0  0  0  0  0  0
    2.9043    2.9985    4.4930 H   0  0  0  0  0  0  0  0  0  0  0  0
    4.3061    3.4912    3.5263 H   0  0  0  0  0  0  0  0  0  0  0  0
    0.5487    3.4573    3.1053 H   0  0  0  0  0  0  0  0  0  0  0  0
  1  2  1  0  0  0  0
  1 26  1  0  0  0  0
  1 27  1  0  0  0  0
  1 28  1  0  0  0  0
  2  3  1  0  0  0  0
  2  4  1  0  0  0  0
  2 29  1  0  0  0  0
  3 30  1  0  0  0  0
  3 31  1  0  0  0  0
  3 32  1  0  0  0  0
  4  5  2  0  0  0  0
  4 14  1  0  0  0  0
  5  6  1  0  0  0  0
  5 16  1  0  0  0  0
  6  7  1  0  0  0  0
  6 11  1  0  0  0  0
  7  8  1  0  0  0  0
  7 33  1  0  0  0  0
  7 34  1  0  0  0  0
  8  9  1  0  0  0  0
  8 10  1  0  0  0  0
  8 35  1  0  0  0  0
  9 10  1  0  0  0  0
  9 36  1  0  0  0  0
  9 37  1  0  0  0  0
 10 38  1  0  0  0  0
 10 39  1  0  0  0  0
 11 12  2  0  0  0  0
 11 13  1  0  0  0  0
 13 14  1  0  0  0  0
 13 40  1  0  0  0  0
 14 15  2  0  0  0  0
 16 17  2  0  0  0  0
 16 18  1  0  0  0  0
 18 19  2  0  0  0  0
 18 25  1  0  0  0  0
 19 20  1  0  0  0  0
 19 41  1  0  0  0  0
 20 21  1  0  0  0  0
 20 22  2  0  0  0  0
 21 42  1  0  0  0  0
 21 43  1  0  0  0  0
 21 44  1  0  0  0  0
 22 23  1  0  0  0  0
 22 45  1  0  0  0  0
 23 24  1  0  0  0  0
 23 25  2  0  0  0  0
 24 46  1  0  0  0  0
 24 47  1  0  0  0  0
 24 48  1  0  0  0  0
 25 49  1  0  0  0  0
M  END
>  <DRUGBANK_ID>
DB14888

>  <COMMON_NAME>
IQP-0528

>  <CAS_NUMBER>
301297-45-0

>  <UNII>
1Y42TZL33O

$$$$
