
 OpenBabel10282417143D

 72 78  0  0  0  0  0  0  0  0999 V2000
    3.0530    1.8267   -0.2817 N   0  0  0  0  0  0  0  0  0  0  0  0
   -1.1937   -2.1487   -0.4893 N   0  0  0  0  0  0  0  0  0  0  0  0
    3.7286    0.6555    0.0439 C   0  0  0  0  0  0  0  0  0  0  0  0
    1.7016    1.7770    0.0096 C   0  0  0  0  0  0  0  0  0  0  0  0
   -1.9428   -3.4049   -0.0808 C   0  0  1  0  0  0  0  0  0  0  0  0
    0.2745   -1.8053   -0.4954 C   0  0  0  0  0  0  0  0  0  0  0  0
    1.4111    0.3533   -0.0088 C   0  0  0  0  0  0  0  0  0  0  0  0
    2.6369   -0.2994    0.0904 C   0  0  0  0  0  0  0  0  0  0  0  0
    1.6429   -2.3625   -0.6439 C   0  0  0  0  0  0  0  0  0  0  0  0
    0.2223   -0.4453   -0.1466 C   0  0  0  0  0  0  0  0  0  0  0  0
   -1.9571   -0.8463   -0.2491 C   0  0  0  0  0  0  0  0  0  0  0  0
    2.6588   -1.6983   -0.0011 C   0  0  0  0  0  0  0  0  0  0  0  0
   -2.7377   -4.5473   -0.8735 C   0  0  1  0  0  0  0  0  0  0  0  0
    2.5158   -3.2954   -1.3510 N   0  0  0  0  0  0  0  0  0  0  0  0
   -1.0220    0.1884   -0.1070 C   0  0  0  0  0  0  0  0  0  0  0  0
   -1.3134   -3.9912    1.0711 O   0  0  0  0  0  0  0  0  0  0  0  0
   -3.7742   -5.2126    0.1510 C   0  0  2  0  0  0  0  0  0  0  0  0
    3.8474   -3.3582   -0.7486 C   0  0  0  0  0  0  0  0  0  0  0  0
    3.8262   -2.3842    0.2457 C   0  0  0  0  0  0  0  0  0  0  0  0
   -3.0918   -5.6830    1.4433 C   0  0  1  0  0  0  0  0  0  0  0  0
   -2.2520   -4.5389    2.0266 C   0  0  1  0  0  0  0  0  0  0  0  0
    3.7229    2.9813   -0.8617 N   0  0  0  0  0  0  0  0  0  0  0  0
   -3.3726   -0.4762   -0.1174 C   0  0  0  0  0  0  0  0  0  0  0  0
    5.0746   -4.0995   -0.9369 C   0  0  0  0  0  0  0  0  0  0  0  0
   -1.5077    1.5218    0.0276 C   0  0  0  0  0  0  0  0  0  0  0  0
    1.0664    2.7779    0.3131 O   0  0  0  0  0  0  0  0  0  0  0  0
    4.9267    0.5888    0.1940 O   0  0  0  0  0  0  0  0  0  0  0  0
    4.8355   -2.3072    1.2193 C   0  0  0  0  0  0  0  0  0  0  0  0
    3.6918    4.2052   -0.0181 C   0  0  0  0  0  0  0  0  0  0  0  0
   -3.4906   -4.0489   -1.9838 O   0  0  0  0  0  0  0  0  0  0  0  0
   -4.5082   -6.2967   -0.4380 O   0  0  0  0  0  0  0  0  0  0  0  0
   -3.7741    0.8904   -0.0119 C   0  0  0  0  0  0  0  0  0  0  0  0
    5.9964   -4.1032    0.1491 C   0  0  0  0  0  0  0  0  0  0  0  0
   -4.0346   -6.1699    2.4108 O   0  0  0  0  0  0  0  0  0  0  0  0
   -2.8443    1.8904    0.0399 C   0  0  0  0  0  0  0  0  0  0  0  0
    5.8382   -3.2643    1.2395 C   0  0  0  0  0  0  0  0  0  0  0  0
   -1.4604   -5.0754    3.2252 C   0  0  0  0  0  0  0  0  0  0  0  0
    7.0819   -4.9384    0.2469 O   0  0  0  0  0  0  0  0  0  0  0  0
   -5.1009    1.2457   -0.0045 O   0  0  0  0  0  0  0  0  0  0  0  0
   -0.6358   -4.0489    3.7638 O   0  0  0  0  0  0  0  0  0  0  0  0
    5.7539    3.6342    1.1361 O   0  0  0  0  0  0  0  0  0  0  0  0
    3.7996    5.7182   -1.9711 O   0  0  0  0  0  0  0  0  0  0  0  0
    4.3763    3.9520    1.3296 C   0  0  0  0  0  0  0  0  0  0  0  0
    4.4024    5.3951   -0.7205 C   0  0  0  0  0  0  0  0  0  0  0  0
   -2.8519   -2.9020    0.2460 H   0  0  0  0  0  0  0  0  0  0  0  0
   -2.0972   -5.3599   -1.2423 H   0  0  0  0  0  0  0  0  0  0  0  0
    2.3479   -3.7175   -2.2568 H   0  0  0  0  0  0  0  0  0  0  0  0
   -4.5569   -4.4884    0.4178 H   0  0  0  0  0  0  0  0  0  0  0  0
   -2.4575   -6.5438    1.2025 H   0  0  0  0  0  0  0  0  0  0  0  0
   -2.9015   -3.7238    2.3769 H   0  0  0  0  0  0  0  0  0  0  0  0
    4.6946    2.7159   -1.0423 H   0  0  0  0  0  0  0  0  0  0  0  0
   -4.1813   -1.2024   -0.1346 H   0  0  0  0  0  0  0  0  0  0  0  0
    5.3041   -4.6805   -1.8268 H   0  0  0  0  0  0  0  0  0  0  0  0
   -0.8484    2.3685    0.0688 H   0  0  0  0  0  0  0  0  0  0  0  0
    4.7424   -1.5945    2.0309 H   0  0  0  0  0  0  0  0  0  0  0  0
    2.6513    4.5119    0.1272 H   0  0  0  0  0  0  0  0  0  0  0  0
   -4.2260   -3.5052   -1.6453 H   0  0  0  0  0  0  0  0  0  0  0  0
   -3.8917   -7.0102   -0.6748 H   0  0  0  0  0  0  0  0  0  0  0  0
   -4.6664   -5.4703    2.6545 H   0  0  0  0  0  0  0  0  0  0  0  0
   -3.0967    2.9495    0.0764 H   0  0  0  0  0  0  0  0  0  0  0  0
    6.4934   -3.3363    2.1047 H   0  0  0  0  0  0  0  0  0  0  0  0
   -2.1268   -5.4304    4.0180 H   0  0  0  0  0  0  0  0  0  0  0  0
   -0.8112   -5.9045    2.9240 H   0  0  0  0  0  0  0  0  0  0  0  0
    7.1441   -5.5424   -0.5063 H   0  0  0  0  0  0  0  0  0  0  0  0
   -5.1748    2.2232    0.0046 H   0  0  0  0  0  0  0  0  0  0  0  0
   -0.0656   -3.7532    3.0282 H   0  0  0  0  0  0  0  0  0  0  0  0
    5.8017    2.7737    0.6781 H   0  0  0  0  0  0  0  0  0  0  0  0
    3.8240    4.9077   -2.5086 H   0  0  0  0  0  0  0  0  0  0  0  0
    4.3177    4.8432    1.9617 H   0  0  0  0  0  0  0  0  0  0  0  0
    3.9002    3.1308    1.8737 H   0  0  0  0  0  0  0  0  0  0  0  0
    4.3351    6.2916   -0.0918 H   0  0  0  0  0  0  0  0  0  0  0  0
    5.4651    5.1998   -0.8990 H   0  0  0  0  0  0  0  0  0  0  0  0
  2  6  1  0  0  0  0
  3  1  1  0  0  0  0
  4  1  1  0  0  0  0
  5  2  1  0  0  0  0
  5 45  1  1  0  0  0
  6 10  1  0  0  0  0
  6  9  2  0  0  0  0
  7  4  1  0  0  0  0
  7  8  1  0  0  0  0
  8  3  1  0  0  0  0
  9 12  1  0  0  0  0
 10  7  2  0  0  0  0
 11 15  2  0  0  0  0
 11  2  1  0  0  0  0
 12  8  2  0  0  0  0
 13  5  1  0  0  0  0
 13 30  1  0  0  0  0
 13 46  1  6  0  0  0
 14  9  1  0  0  0  0
 14 18  1  0  0  0  0
 14 47  1  0  0  0  0
 15 10  1  0  0  0  0
 16  5  1  0  0  0  0
 17 13  1  0  0  0  0
 17 31  1  0  0  0  0
 17 20  1  0  0  0  0
 17 48  1  1  0  0  0
 18 19  2  0  0  0  0
 19 12  1  0  0  0  0
 20 21  1  0  0  0  0
 20 34  1  0  0  0  0
 20 49  1  6  0  0  0
 21 16  1  0  0  0  0
 21 37  1  0  0  0  0
 21 50  1  1  0  0  0
 22  1  1  0  0  0  0
 22 51  1  0  0  0  0
 23 11  1  0  0  0  0
 23 52  1  0  0  0  0
 24 18  1  0  0  0  0
 24 33  2  0  0  0  0
 24 53  1  0  0  0  0
 25 15  1  0  0  0  0
 25 54  1  0  0  0  0
 26  4  2  0  0  0  0
 27  3  2  0  0  0  0
 28 19  1  0  0  0  0
 28 55  1  0  0  0  0
 29 22  1  0  0  0  0
 29 56  1  0  0  0  0
 30 57  1  0  0  0  0
 31 58  1  0  0  0  0
 32 35  1  0  0  0  0
 32 23  2  0  0  0  0
 33 36  1  0  0  0  0
 34 59  1  0  0  0  0
 35 25  2  0  0  0  0
 35 60  1  0  0  0  0
 36 28  2  0  0  0  0
 36 61  1  0  0  0  0
 37 62  1  0  0  0  0
 37 63  1  0  0  0  0
 38 33  1  0  0  0  0
 38 64  1  0  0  0  0
 39 32  1  0  0  0  0
 39 65  1  0  0  0  0
 40 37  1  0  0  0  0
 40 66  1  0  0  0  0
 41 43  1  0  0  0  0
 41 67  1  0  0  0  0
 42 44  1  0  0  0  0
 42 68  1  0  0  0  0
 43 29  1  0  0  0  0
 43 69  1  0  0  0  0
 43 70  1  0  0  0  0
 44 29  1  0  0  0  0
 44 71  1  0  0  0  0
 44 72  1  0  0  0  0
M  END
>  <DRUGBANK_ID>
DB04882

>  <COMMON_NAME>
Edotecarin

>  <CAS_NUMBER>
174402-32-5

>  <UNII>
1V8X590XDP

>  <SYNONYMS>
E'dotecarine; Edotecarin; Edotecarina; Edotecarinum

$$$$
