
 OpenBabel10282417143D

 89 94  0  0  1  0  0  0  0  0999 V2000
    1.2163    0.2000   -0.1806 S   0  0  0  0  0  0  0  0  0  0  0  0
   -5.4425   -5.4566    2.1031 S   0  0  0  0  0  0  0  0  0  0  0  0
    6.8230   -3.9725    3.2097 O   0  0  0  0  0  0  0  0  0  0  0  0
    5.2590   -5.7506    3.3845 O   0  0  0  0  0  0  0  0  0  0  0  0
    4.6334   -1.5292    4.7185 O   0  0  0  0  0  0  0  0  0  0  0  0
   -0.5880   -2.0065    2.5897 O   0  0  0  0  0  0  0  0  0  0  0  0
    2.8509   -0.8811    5.9056 O   0  0  0  0  0  0  0  0  0  0  0  0
    1.1918    1.0221    1.0129 O   0  0  0  0  0  0  0  0  0  0  0  0
    0.7080    0.6930   -1.4386 O   0  0  0  0  0  0  0  0  0  0  0  0
    5.7949    2.3249   -0.0960 O   0  0  0  0  0  0  0  0  0  0  0  0
    7.0048    0.2356   -0.1040 O   0  0  0  0  0  0  0  0  0  0  0  0
   -5.2419   -1.4998    5.1428 O   0  0  0  0  0  0  0  0  0  0  0  0
    2.5400   -1.8612    3.8791 N   0  0  0  0  0  0  0  0  0  0  0  0
    0.4738   -1.3477    0.1222 N   0  0  0  0  0  0  0  0  0  0  0  0
   -5.3646   -2.9274    2.5627 N   0  0  0  0  0  0  0  0  0  0  0  0
    4.5248   -3.5151    3.1403 C   0  0  2  0  0  0  0  0  0  0  0  0
    5.5819   -4.5075    2.7613 C   0  0  1  0  0  0  0  0  0  0  0  0
    5.2616   -2.2821    3.6637 C   0  0  2  0  0  0  0  0  0  0  0  0
    3.7012   -4.2287    4.2031 C   0  0  0  0  0  0  0  0  0  0  0  0
    6.5298   -2.9469    4.1687 C   0  0  0  0  0  0  0  0  0  0  0  0
    4.0020   -5.6683    4.0395 C   0  0  0  0  0  0  0  0  0  0  0  0
    1.1476   -2.1630    3.8940 C   0  0  2  0  0  0  0  0  0  0  0  0
    3.2937   -1.3700    4.9022 C   0  0  0  0  0  0  0  0  0  0  0  0
    0.7343   -1.6678    2.5710 C   0  0  1  0  0  0  0  0  0  0  0  0
    1.0483   -2.2528    1.2173 C   0  0  0  0  0  0  0  0  0  0  0  0
    0.3925   -1.4503    5.0252 C   0  0  0  0  0  0  0  0  0  0  0  0
   -1.1242   -1.4416   -0.1077 C   0  0  0  0  0  0  0  0  0  0  0  0
   -2.0539   -0.6160    0.8830 C   0  0  0  0  0  0  0  0  0  0  0  0
   -1.1034   -1.4866    5.0430 C   0  0  0  0  0  0  0  0  0  0  0  0
    2.9523    0.0489   -0.3215 C   0  0  0  0  0  0  0  0  0  0  0  0
   -1.5446    0.7578    1.1658 C   0  0  0  0  0  0  0  0  0  0  0  0
   -3.5272   -0.6832    0.9323 C   0  0  0  0  0  0  0  0  0  0  0  0
   -1.7594   -2.7142    5.0775 C   0  0  0  0  0  0  0  0  0  0  0  0
   -1.8360   -0.2952    5.0124 C   0  0  0  0  0  0  0  0  0  0  0  0
    3.6238    1.2798   -0.2103 C   0  0  0  0  0  0  0  0  0  0  0  0
    3.6366   -1.1648   -0.2941 C   0  0  0  0  0  0  0  0  0  0  0  0
   -3.1374   -2.7497    5.1491 C   0  0  0  0  0  0  0  0  0  0  0  0
   -3.2179   -0.3360    5.1411 C   0  0  0  0  0  0  0  0  0  0  0  0
    4.9823    1.2444   -0.1429 C   0  0  0  0  0  0  0  0  0  0  0  0
   -3.8763   -1.5660    5.1663 C   0  0  0  0  0  0  0  0  0  0  0  0
    5.0193   -1.1678   -0.1605 C   0  0  0  0  0  0  0  0  0  0  0  0
    5.6615    0.0518   -0.1263 C   0  0  0  0  0  0  0  0  0  0  0  0
    7.0781    1.6772   -0.0376 C   0  0  0  0  0  0  0  0  0  0  0  0
   -5.9443   -2.7457    5.0276 C   0  0  0  0  0  0  0  0  0  0  0  0
   -5.7148   -3.5409    3.7624 C   0  0  0  0  0  0  0  0  0  0  0  0
   -5.7920   -4.9198    3.6861 C   0  0  0  0  0  0  0  0  0  0  0  0
   -5.2089   -3.8284    1.6123 C   0  0  0  0  0  0  0  0  0  0  0  0
   -4.8815   -3.5466    0.1828 C   0  0  0  0  0  0  0  0  0  0  0  0
    3.9836   -3.2834    2.2133 H   0  0  0  0  0  0  0  0  0  0  0  0
    5.6043   -4.6505    1.6740 H   0  0  0  0  0  0  0  0  0  0  0  0
   -0.7105   -1.2161    2.0774 H   0  0  0  0  0  0  0  0  0  0  0  0
    2.9631   -2.1606    3.0400 H   0  0  0  0  0  0  0  0  0  0  0  0
    5.5129   -1.5691    2.8694 H   0  0  0  0  0  0  0  0  0  0  0  0
    2.6250   -4.1355    4.1091 H   0  0  0  0  0  0  0  0  0  0  0  0
    3.9521   -3.8919    5.2158 H   0  0  0  0  0  0  0  0  0  0  0  0
    6.3789   -3.4155    5.1488 H   0  0  0  0  0  0  0  0  0  0  0  0
    7.3701   -2.2542    4.2516 H   0  0  0  0  0  0  0  0  0  0  0  0
    4.0215   -6.1501    5.0198 H   0  0  0  0  0  0  0  0  0  0  0  0
    3.2172   -6.1312    3.4301 H   0  0  0  0  0  0  0  0  0  0  0  0
    0.9226   -3.2393    3.9008 H   0  0  0  0  0  0  0  0  0  0  0  0
    0.9149   -0.5841    2.5807 H   0  0  0  0  0  0  0  0  0  0  0  0
    0.5888   -3.2464    1.0944 H   0  0  0  0  0  0  0  0  0  0  0  0
    2.1070   -2.4224    1.1371 H   0  0  0  0  0  0  0  0  0  0  0  0
    0.7091   -1.9125    5.9633 H   0  0  0  0  0  0  0  0  0  0  0  0
    0.6951   -0.3976    5.0186 H   0  0  0  0  0  0  0  0  0  0  0  0
   -1.3224   -1.1321   -1.1395 H   0  0  0  0  0  0  0  0  0  0  0  0
   -1.3797   -2.5132   -0.0607 H   0  0  0  0  0  0  0  0  0  0  0  0
   -2.1175   -1.1276    1.8340 H   0  0  0  0  0  0  0  0  0  0  0  0
   -1.5221    1.3834    0.2754 H   0  0  0  0  0  0  0  0  0  0  0  0
   -1.9322    1.2623    2.0479 H   0  0  0  0  0  0  0  0  0  0  0  0
   -0.5692    0.5658    1.5327 H   0  0  0  0  0  0  0  0  0  0  0  0
   -3.7191   -1.7294    1.1375 H   0  0  0  0  0  0  0  0  0  0  0  0
   -3.8679   -0.1803    1.8544 H   0  0  0  0  0  0  0  0  0  0  0  0
   -3.9971   -0.2821    0.0534 H   0  0  0  0  0  0  0  0  0  0  0  0
   -1.2076   -3.6446    4.9836 H   0  0  0  0  0  0  0  0  0  0  0  0
   -1.3331    0.6589    4.8656 H   0  0  0  0  0  0  0  0  0  0  0  0
    3.0869    2.2258   -0.1448 H   0  0  0  0  0  0  0  0  0  0  0  0
    3.1216   -2.1098   -0.3774 H   0  0  0  0  0  0  0  0  0  0  0  0
   -3.5909   -3.7301    5.1654 H   0  0  0  0  0  0  0  0  0  0  0  0
   -3.7766    0.5925    5.2093 H   0  0  0  0  0  0  0  0  0  0  0  0
    5.5695   -2.0989   -0.1134 H   0  0  0  0  0  0  0  0  0  0  0  0
    7.6900    2.0437   -0.8682 H   0  0  0  0  0  0  0  0  0  0  0  0
    7.5492    1.9436    0.9123 H   0  0  0  0  0  0  0  0  0  0  0  0
   -5.7305   -3.3543    5.9179 H   0  0  0  0  0  0  0  0  0  0  0  0
   -7.0114   -2.5080    5.0731 H   0  0  0  0  0  0  0  0  0  0  0  0
   -6.0278   -5.6153    4.4777 H   0  0  0  0  0  0  0  0  0  0  0  0
   -3.9199   -3.9920   -0.0987 H   0  0  0  0  0  0  0  0  0  0  0  0
   -5.6715   -3.8940   -0.4798 H   0  0  0  0  0  0  0  0  0  0  0  0
   -4.8343   -2.4832   -0.0375 H   0  0  0  0  0  0  0  0  0  0  0  0
  1  8  2  0  0  0  0
  1  9  2  0  0  0  0
  1 14  1  0  0  0  0
  1 30  1  0  0  0  0
  2 46  1  0  0  0  0
  2 47  1  0  0  0  0
  3 17  1  0  0  0  0
  3 20  1  0  0  0  0
  4 17  1  0  0  0  0
  4 21  1  0  0  0  0
  5 23  1  0  0  0  0
  6 51  1  0  0  0  0
  7 23  2  0  0  0  0
 10 39  1  0  0  0  0
 10 43  1  0  0  0  0
 11 42  1  0  0  0  0
 11 43  1  0  0  0  0
 12 40  1  0  0  0  0
 12 44  1  0  0  0  0
 13 23  1  0  0  0  0
 13 52  1  0  0  0  0
 14 25  1  0  0  0  0
 14 27  1  0  0  0  0
 15 45  1  0  0  0  0
 15 47  2  0  0  0  0
 16 17  1  0  0  0  0
 16 18  1  0  0  0  0
 16 19  1  0  0  0  0
 16 49  1  6  0  0  0
 17 50  1  6  0  0  0
 18  5  1  0  0  0  0
 18 20  1  0  0  0  0
 18 53  1  6  0  0  0
 19 21  1  0  0  0  0
 19 54  1  0  0  0  0
 19 55  1  0  0  0  0
 20 56  1  0  0  0  0
 20 57  1  0  0  0  0
 21 58  1  0  0  0  0
 21 59  1  0  0  0  0
 22 13  1  0  0  0  0
 22 24  1  0  0  0  0
 22 26  1  0  0  0  0
 22 60  1  1  0  0  0
 24  6  1  0  0  0  0
 24 25  1  0  0  0  0
 24 61  1  6  0  0  0
 25 62  1  0  0  0  0
 25 63  1  0  0  0  0
 26 29  1  0  0  0  0
 26 64  1  0  0  0  0
 26 65  1  0  0  0  0
 27 28  1  0  0  0  0
 27 66  1  0  0  0  0
 27 67  1  0  0  0  0
 28 31  1  0  0  0  0
 28 32  1  0  0  0  0
 28 68  1  0  0  0  0
 29 33  2  0  0  0  0
 29 34  1  0  0  0  0
 30 35  2  0  0  0  0
 30 36  1  0  0  0  0
 31 69  1  0  0  0  0
 31 70  1  0  0  0  0
 31 71  1  0  0  0  0
 32 72  1  0  0  0  0
 32 73  1  0  0  0  0
 32 74  1  0  0  0  0
 33 37  1  0  0  0  0
 33 75  1  0  0  0  0
 34 38  2  0  0  0  0
 34 76  1  0  0  0  0
 35 39  1  0  0  0  0
 35 77  1  0  0  0  0
 36 41  2  0  0  0  0
 36 78  1  0  0  0  0
 37 40  2  0  0  0  0
 37 79  1  0  0  0  0
 38 40  1  0  0  0  0
 38 80  1  0  0  0  0
 39 42  2  0  0  0  0
 41 42  1  0  0  0  0
 41 81  1  0  0  0  0
 43 82  1  0  0  0  0
 43 83  1  0  0  0  0
 44 45  1  0  0  0  0
 44 84  1  0  0  0  0
 44 85  1  0  0  0  0
 45 46  2  0  0  0  0
 46 86  1  0  0  0  0
 47 48  1  0  0  0  0
 48 87  1  0  0  0  0
 48 88  1  0  0  0  0
 48 89  1  0  0  0  0
M  END
>  <DRUGBANK_ID>
DB04887

>  <COMMON_NAME>
Brecanavir

>  <CAS_NUMBER>
313682-08-5

>  <UNII>
E367I8C7FI

>  <SYNONYMS>
Brecanavir

$$$$
