
 OpenBabel10282417233D

 92 99  0  0  1  0  0  0  0  0999 V2000
   -0.4037   -3.4401    1.1518 C   0  0  0  0  0  0  0  0  0  0  0  0
    0.8772   -3.5863    0.4720 C   0  0  0  0  0  0  0  0  0  0  0  0
    1.6566   -2.5532    1.0280 C   0  0  1  0  0  0  0  0  0  0  0  0
    1.0359   -1.5970    0.0648 O   0  0  0  0  0  0  0  0  0  0  0  0
    0.7692   -1.8064   -1.4066 C   0  0  0  0  0  0  0  0  0  0  0  0
    0.3972   -0.8269   -2.0591 O   0  0  0  0  0  0  0  0  0  0  0  0
    0.8952   -3.4059   -2.2369 C   0  0  3  0  0  0  0  0  0  0  0  0
    2.3082   -3.9784   -2.1626 C   0  0  0  0  0  0  0  0  0  0  0  0
   -0.1094   -4.5293   -2.0625 O   0  0  0  0  0  0  0  0  0  0  0  0
    0.0859   -5.2570   -0.7902 N   0  0  0  0  0  0  0  0  0  0  0  0
   -0.8823   -5.7834   -0.0750 C   0  0  0  0  0  0  0  0  0  0  0  0
   -1.8559   -6.6181   -0.6822 C   0  0  0  0  0  0  0  0  0  0  0  0
   -2.3942   -7.4307    0.3380 C   0  0  0  0  0  0  0  0  0  0  0  0
   -2.0374   -6.9738    1.7180 C   0  0  0  0  0  0  0  0  0  0  0  0
   -1.1183   -5.9692    1.6199 C   0  0  0  0  0  0  0  0  0  0  0  0
   -0.8836   -5.2005    2.9104 C   0  0  0  0  0  0  0  0  0  0  0  0
   -1.1837   -5.4974    4.2063 C   0  0  0  0  0  0  0  0  0  0  0  0
   -2.0005   -6.5595    4.2882 C   0  0  0  0  0  0  0  0  0  0  0  0
   -2.4707   -7.2140    3.0689 C   0  0  0  0  0  0  0  0  0  0  0  0
   -3.6047   -8.0536    3.3495 N   0  3  0  0  0  0  0  0  0  0  0  0
   -4.5439   -8.0047    2.5486 O   0  5  0  0  0  0  0  0  0  0  0  0
   -3.5817   -8.6767    4.4166 O   0  0  0  0  0  0  0  0  0  0  0  0
   -0.7535   -4.6048    5.3285 N   0  3  0  0  0  0  0  0  0  0  0  0
   -0.1240   -3.5641    5.0579 O   0  5  0  0  0  0  0  0  0  0  0  0
   -1.0772   -4.9394    6.4709 O   0  0  0  0  0  0  0  0  0  0  0  0
   -3.0153   -8.5383   -0.1850 C   0  0  0  0  0  0  0  0  0  0  0  0
   -3.1585   -8.7289   -1.5891 C   0  0  0  0  0  0  0  0  0  0  0  0
   -2.5903   -7.8524   -2.5203 C   0  0  0  0  0  0  0  0  0  0  0  0
   -1.8975   -6.7730   -2.0678 C   0  0  0  0  0  0  0  0  0  0  0  0
   -2.6308   -8.1262   -3.9528 N   0  3  0  0  0  0  0  0  0  0  0  0
   -3.2624   -9.1260   -4.3072 O   0  5  0  0  0  0  0  0  0  0  0  0
   -2.0322   -7.3530   -4.7141 O   0  0  0  0  0  0  0  0  0  0  0  0
   -3.3616   -9.6627    0.6484 N   0  3  0  0  0  0  0  0  0  0  0  0
   -2.6081   -9.9124    1.5990 O   0  5  0  0  0  0  0  0  0  0  0  0
   -4.3493  -10.3196    0.3109 O   0  0  0  0  0  0  0  0  0  0  0  0
    2.0390   -3.5140    2.6341 C   0  0  0  0  0  0  0  0  0  0  0  0
    2.0138   -4.7322    2.8176 O   0  0  0  0  0  0  0  0  0  0  0  0
    2.5564   -2.7543    3.6608 O   0  0  0  0  0  0  0  0  0  0  0  0
    2.7041   -1.5018    3.0977 C   0  0  0  0  0  0  0  0  0  0  0  0
    3.6075   -1.7088    1.9101 C   0  0  0  0  0  0  0  0  0  0  0  0
    3.0130   -2.1478    0.8090 C   0  0  0  0  0  0  0  0  0  0  0  0
    3.6019   -2.1895   -0.4548 C   0  0  0  0  0  0  0  0  0  0  0  0
    4.8669   -2.6226   -0.4934 C   0  0  0  0  0  0  0  0  0  0  0  0
    5.5503   -2.5351    0.6941 N   0  0  0  0  0  0  0  0  0  0  0  0
    6.9576   -2.6023    0.3954 C   0  0  0  0  0  0  0  0  0  0  0  0
    6.9663   -2.8946   -1.0683 C   0  0  0  0  0  0  0  0  0  0  0  0
    5.7144   -2.9365   -1.6174 C   0  0  0  0  0  0  0  0  0  0  0  0
    5.4233   -3.2394   -2.9049 N   0  0  0  0  0  0  0  0  0  0  0  0
    6.4858   -3.4649   -3.7299 C   0  0  0  0  0  0  0  0  0  0  0  0
    6.3191   -3.8013   -5.0808 C   0  0  0  0  0  0  0  0  0  0  0  0
    7.4079   -3.9917   -5.9473 C   0  0  0  0  0  0  0  0  0  0  0  0
    8.7001   -3.8483   -5.4690 C   0  0  0  0  0  0  0  0  0  0  0  0
    9.7236   -4.0486   -6.3542 O   0  0  0  0  0  0  0  0  0  0  0  0
    8.9326   -3.5368   -4.1247 C   0  0  0  0  0  0  0  0  0  0  0  0
   10.3533   -3.4710   -3.6024 C   0  0  0  0  0  0  0  0  0  0  0  0
   11.0521   -4.7577   -3.7566 N   0  0  0  0  0  0  0  0  0  0  0  0
   12.4102   -4.6262   -3.2237 C   0  0  0  0  0  0  0  0  0  0  0  0
   10.3498   -5.8228   -3.0170 C   0  0  0  0  0  0  0  0  0  0  0  0
    7.8268   -3.3565   -3.2572 C   0  0  0  0  0  0  0  0  0  0  0  0
    8.0259   -3.0770   -1.8950 C   0  0  0  0  0  0  0  0  0  0  0  0
    5.0583   -2.0315    1.9104 C   0  0  0  0  0  0  0  0  0  0  0  0
    5.7042   -1.8964    2.9211 O   0  0  0  0  0  0  0  0  0  0  0  0
    0.1173   -4.1670    1.7069 H   0  0  0  0  0  0  0  0  0  0  0  0
   -1.3119   -3.8156    0.6827 H   0  0  0  0  0  0  0  0  0  0  0  0
   -0.6831   -2.5584    1.7070 H   0  0  0  0  0  0  0  0  0  0  0  0
    1.4332   -4.5418    0.4570 H   0  0  0  0  0  0  0  0  0  0  0  0
    0.3432   -3.3640   -0.3938 H   0  0  0  0  0  0  0  0  0  0  0  0
    0.8104   -3.1186   -3.3019 H   0  0  0  0  0  0  0  0  0  0  0  0
    2.5639   -4.1100   -1.1204 H   0  0  0  0  0  0  0  0  0  0  0  0
    2.5311   -4.9639   -2.5640 H   0  0  0  0  0  0  0  0  0  0  0  0
    2.9855   -3.2684   -2.6393 H   0  0  0  0  0  0  0  0  0  0  0  0
   -0.5510   -4.1706    3.0554 H   0  0  0  0  0  0  0  0  0  0  0  0
   -2.3521   -6.8385    5.2741 H   0  0  0  0  0  0  0  0  0  0  0  0
   -3.6762   -9.6104   -1.9473 H   0  0  0  0  0  0  0  0  0  0  0  0
   -1.3470   -6.1374   -2.7563 H   0  0  0  0  0  0  0  0  0  0  0  0
    2.9943   -0.6893    3.7494 H   0  0  0  0  0  0  0  0  0  0  0  0
    1.6446   -1.2596    2.8695 H   0  0  0  0  0  0  0  0  0  0  0  0
    3.0678   -1.8837   -1.3154 H   0  0  0  0  0  0  0  0  0  0  0  0
    7.3786   -1.6156    0.5981 H   0  0  0  0  0  0  0  0  0  0  0  0
    7.4017   -3.3974    0.9886 H   0  0  0  0  0  0  0  0  0  0  0  0
    5.3159   -3.9146   -5.4884 H   0  0  0  0  0  0  0  0  0  0  0  0
    7.2513   -4.2553   -6.9913 H   0  0  0  0  0  0  0  0  0  0  0  0
   10.5576   -4.1253   -5.8486 H   0  0  0  0  0  0  0  0  0  0  0  0
   10.8662   -2.6716   -4.1514 H   0  0  0  0  0  0  0  0  0  0  0  0
   10.4245   -3.1636   -2.5596 H   0  0  0  0  0  0  0  0  0  0  0  0
   12.4088   -4.3757   -2.1556 H   0  0  0  0  0  0  0  0  0  0  0  0
   12.9631   -5.5600   -3.3606 H   0  0  0  0  0  0  0  0  0  0  0  0
   12.9553   -3.8426   -3.7601 H   0  0  0  0  0  0  0  0  0  0  0  0
   10.2781   -5.6008   -1.9452 H   0  0  0  0  0  0  0  0  0  0  0  0
    9.3337   -5.9809   -3.3960 H   0  0  0  0  0  0  0  0  0  0  0  0
   10.8643   -6.7800   -3.1442 H   0  0  0  0  0  0  0  0  0  0  0  0
    8.9891   -2.9839   -1.4234 H   0  0  0  0  0  0  0  0  0  0  0  0
  1  2  1  0  0  0  0
  1 63  1  0  0  0  0
  1 64  1  0  0  0  0
  1 65  1  0  0  0  0
  2 66  1  0  0  0  0
  2 67  1  0  0  0  0
  3 36  1  0  0  0  0
  3 41  1  0  0  0  0
  3  4  1  1  0  0  0
  3  2  1  0  0  0  0
  4  5  1  0  0  0  0
  5  6  2  0  0  0  0
  5  7  1  0  0  0  0
  7  8  1  0  0  0  0
  7  9  1  0  0  0  0
  7 68  1  0  0  0  0
  8 69  1  0  0  0  0
  8 70  1  0  0  0  0
  8 71  1  0  0  0  0
  9 10  1  0  0  0  0
 10 11  2  0  0  0  0
 11 12  1  0  0  0  0
 11 15  1  0  0  0  0
 12 13  2  0  0  0  0
 12 29  1  0  0  0  0
 13 14  1  0  0  0  0
 13 26  1  0  0  0  0
 14 15  2  0  0  0  0
 14 19  1  0  0  0  0
 15 16  1  0  0  0  0
 16 17  2  0  0  0  0
 16 72  1  0  0  0  0
 17 18  1  0  0  0  0
 17 23  1  0  0  0  0
 18 19  2  0  0  0  0
 18 73  1  0  0  0  0
 19 20  1  0  0  0  0
 20 21  1  0  0  0  0
 20 22  2  0  0  0  0
 23 24  1  0  0  0  0
 23 25  2  0  0  0  0
 26 27  2  0  0  0  0
 26 33  1  0  0  0  0
 27 28  1  0  0  0  0
 27 74  1  0  0  0  0
 28 29  2  0  0  0  0
 28 30  1  0  0  0  0
 29 75  1  0  0  0  0
 30 31  1  0  0  0  0
 30 32  2  0  0  0  0
 33 34  1  0  0  0  0
 33 35  2  0  0  0  0
 36 37  2  0  0  0  0
 36 38  1  0  0  0  0
 38 39  1  0  0  0  0
 39 40  1  0  0  0  0
 39 76  1  0  0  0  0
 39 77  1  0  0  0  0
 40 41  2  0  0  0  0
 40 61  1  0  0  0  0
 41 42  1  0  0  0  0
 42 43  2  0  0  0  0
 42 78  1  0  0  0  0
 43 44  1  0  0  0  0
 43 47  1  0  0  0  0
 44 45  1  0  0  0  0
 44 61  1  0  0  0  0
 45 46  1  0  0  0  0
 45 79  1  0  0  0  0
 45 80  1  0  0  0  0
 46 47  2  0  0  0  0
 46 60  1  0  0  0  0
 47 48  1  0  0  0  0
 48 49  2  0  0  0  0
 49 50  1  0  0  0  0
 49 59  1  0  0  0  0
 50 51  2  0  0  0  0
 50 81  1  0  0  0  0
 51 52  1  0  0  0  0
 51 82  1  0  0  0  0
 52 53  1  0  0  0  0
 52 54  2  0  0  0  0
 53 83  1  0  0  0  0
 54 55  1  0  0  0  0
 54 59  1  0  0  0  0
 55 56  1  0  0  0  0
 55 84  1  0  0  0  0
 55 85  1  0  0  0  0
 56 57  1  0  0  0  0
 56 58  1  0  0  0  0
 57 86  1  0  0  0  0
 57 87  1  0  0  0  0
 57 88  1  0  0  0  0
 58 89  1  0  0  0  0
 58 90  1  0  0  0  0
 58 91  1  0  0  0  0
 59 60  2  0  0  0  0
 60 92  1  0  0  0  0
 61 62  2  0  0  0  0
M  CHG  8  20   1  21  -1  23   1  24  -1  30   1  31  -1  33   1  34  -1
M  END
>  <DRUGBANK_ID>
DB17385

>  <COMMON_NAME>
Lipotecan

>  <CAS_NUMBER>
1432468-79-5

>  <UNII>
D47234N30N

>  <SYNONYMS>
Lipothecan free base; Propanoic acid, 2-(((2,4,5,7-tetranitro-9h-fluoren-9-ylidene)amino)oxy)-, (4s)-10-((dimethylamino)methyl)-4-ethyl-3,4,12,14-tetrahydro-9-hydroxy-3,14-dioxo-1h-pyrano(3',4':6,7)indolizino(1,2-b)quinolin-4-yl ester

$$$$
