M2C
 OpenBabel10282417123D

 31 31  0  0  0  0  0  0  0  0999 V2000
    1.3903    2.4584   -1.6550 O   0  0  0  0  0  0  0  0  0  0  0  0
    0.5823    2.8926   -0.5690 C   0  0  0  0  0  0  0  0  0  0  0  0
   -0.7654    2.4987   -0.8093 O   0  0  0  0  0  0  0  0  0  0  0  0
    1.0341    2.3065    0.8254 C   0  0  2  0  0  0  0  0  0  0  0  0
    0.4412    0.9001    1.0883 C   0  0  0  0  0  0  0  0  0  0  0  0
    0.4424   -0.1091   -0.0651 C   0  0  0  0  0  0  0  0  0  0  0  0
    1.9201   -1.1654   -0.2740 S   0  0  0  0  0  0  0  0  0  0  0  0
    3.2926   -0.0031   -0.4876 C   0  0  0  0  0  0  0  0  0  0  0  0
    0.6463    3.1250    2.0163 N   0  0  0  0  0  0  0  0  0  0  0  0
    0.6784    4.4152   -0.5728 C   0  0  0  0  0  0  0  0  0  0  0  0
    1.9019    5.0272   -0.8490 C   0  0  0  0  0  0  0  0  0  0  0  0
    1.9764    6.4130   -0.8194 C   0  0  0  0  0  0  0  0  0  0  0  0
    0.8358    7.1393   -0.5128 C   0  0  0  0  0  0  0  0  0  0  0  0
   -0.3375    6.4587   -0.2324 C   0  0  0  0  0  0  0  0  0  0  0  0
   -0.4430    5.1110   -0.2372 N   0  0  0  0  0  0  0  0  0  0  0  0
    2.1267    2.2612    0.8467 H   0  0  0  0  0  0  0  0  0  0  0  0
    1.4438    1.4976   -1.6192 H   0  0  0  0  0  0  0  0  0  0  0  0
   -1.2994    3.1763   -0.3529 H   0  0  0  0  0  0  0  0  0  0  0  0
    0.8950    0.4566    1.9837 H   0  0  0  0  0  0  0  0  0  0  0  0
   -0.6184    1.0479    1.3521 H   0  0  0  0  0  0  0  0  0  0  0  0
   -0.3747   -0.8117    0.1382 H   0  0  0  0  0  0  0  0  0  0  0  0
    0.1557    0.3111   -1.0294 H   0  0  0  0  0  0  0  0  0  0  0  0
    3.2002    0.6071   -1.3879 H   0  0  0  0  0  0  0  0  0  0  0  0
    3.4261    0.6236    0.3941 H   0  0  0  0  0  0  0  0  0  0  0  0
    4.2071   -0.5916   -0.6083 H   0  0  0  0  0  0  0  0  0  0  0  0
    0.9775    4.0863    1.8890 H   0  0  0  0  0  0  0  0  0  0  0  0
   -0.3718    3.2308    2.0248 H   0  0  0  0  0  0  0  0  0  0  0  0
    2.7769    4.4342   -1.0935 H   0  0  0  0  0  0  0  0  0  0  0  0
    2.9159    6.9067   -1.0437 H   0  0  0  0  0  0  0  0  0  0  0  0
    0.8606    8.2244   -0.4960 H   0  0  0  0  0  0  0  0  0  0  0  0
   -1.2514    6.9912    0.0097 H   0  0  0  0  0  0  0  0  0  0  0  0
  1  2  1  0  0  0  0
  1 17  1  0  0  0  0
  2  3  1  0  0  0  0
  2 10  1  0  0  0  0
  3 18  1  0  0  0  0
  4  9  1  0  0  0  0
  4 16  1  6  0  0  0
  4  5  1  0  0  0  0
  4  2  1  0  0  0  0
  5  6  1  0  0  0  0
  5 19  1  0  0  0  0
  5 20  1  0  0  0  0
  6  7  1  0  0  0  0
  6 21  1  0  0  0  0
  6 22  1  0  0  0  0
  7  8  1  0  0  0  0
  8 23  1  0  0  0  0
  8 24  1  0  0  0  0
  8 25  1  0  0  0  0
  9 26  1  0  0  0  0
  9 27  1  0  0  0  0
 10 11  2  0  0  0  0
 10 15  1  0  0  0  0
 11 12  1  0  0  0  0
 11 28  1  0  0  0  0
 12 13  2  0  0  0  0
 12 29  1  0  0  0  0
 13 14  1  0  0  0  0
 13 30  1  0  0  0  0
 14 15  2  0  0  0  0
 14 31  1  0  0  0  0
M  END
>  <DRUGBANK_ID>
DB01882

>  <SECONDARY_ACCESSION_NUMBERS>
EXPT02085

>  <COMMON_NAME>
(2s)-2-Amino-4-(Methylsulfanyl)-1-Pyridin-2-Ylbutane-1,1-Diol

$$$$
