
 OpenBabel10282417113D

 26 26  0  0  0  0  0  0  0  0999 V2000
    0.9717    2.0933    1.3166 N   0  0  0  0  0  0  0  0  0  0  0  0
    0.7828    0.0221   -0.1952 C   0  0  0  0  0  0  0  0  0  0  0  0
   -0.0242    0.4424   -1.4126 C   0  0  0  0  0  0  0  0  0  0  0  0
    0.4074    0.7205    1.1467 C   0  0  2  0  0  0  0  0  0  0  0  0
    0.7208    3.0892    0.2762 C   0  0  0  0  0  0  0  0  0  0  0  0
   -1.0410    1.4086   -1.3149 C   0  0  0  0  0  0  0  0  0  0  0  0
    0.2504   -0.0431   -2.6794 C   0  0  0  0  0  0  0  0  0  0  0  0
   -1.0716    0.4745    1.5569 C   0  0  0  0  0  0  0  0  0  0  0  0
   -1.7538    1.9102   -2.3865 C   0  0  0  0  0  0  0  0  0  0  0  0
   -0.4530    0.4690   -3.7868 C   0  0  0  0  0  0  0  0  0  0  0  0
   -1.4607    1.4326   -3.6282 C   0  0  0  0  0  0  0  0  0  0  0  0
    1.9885    1.9897    1.3477 H   0  0  0  0  0  0  0  0  0  0  0  0
    1.8522    0.2040   -0.3889 H   0  0  0  0  0  0  0  0  0  0  0  0
    0.6930   -1.0659   -0.0584 H   0  0  0  0  0  0  0  0  0  0  0  0
    0.9524    0.1608    1.9217 H   0  0  0  0  0  0  0  0  0  0  0  0
    1.3064    3.9972    0.4464 H   0  0  0  0  0  0  0  0  0  0  0  0
    1.0292    2.7472   -0.7172 H   0  0  0  0  0  0  0  0  0  0  0  0
   -0.3184    3.4276    0.2834 H   0  0  0  0  0  0  0  0  0  0  0  0
   -1.2828    1.8967   -0.3944 H   0  0  0  0  0  0  0  0  0  0  0  0
    1.0216   -0.7964   -2.8356 H   0  0  0  0  0  0  0  0  0  0  0  0
   -1.2475   -0.6043    1.6418 H   0  0  0  0  0  0  0  0  0  0  0  0
   -1.3109    0.9573    2.5051 H   0  0  0  0  0  0  0  0  0  0  0  0
   -1.8601    0.7934    0.8764 H   0  0  0  0  0  0  0  0  0  0  0  0
   -2.4881    2.6886   -2.1890 H   0  0  0  0  0  0  0  0  0  0  0  0
   -0.2040    0.1338   -4.7833 H   0  0  0  0  0  0  0  0  0  0  0  0
   -2.0113    1.8237   -4.4786 H   0  0  0  0  0  0  0  0  0  0  0  0
  1 12  1  0  0  0  0
  2 13  1  0  0  0  0
  2 14  1  0  0  0  0
  3  2  1  0  0  0  0
  4 15  1  1  0  0  0
  4  1  1  0  0  0  0
  4  2  1  0  0  0  0
  5  1  1  0  0  0  0
  5 16  1  0  0  0  0
  5 17  1  0  0  0  0
  5 18  1  0  0  0  0
  6  3  1  0  0  0  0
  6 19  1  0  0  0  0
  7  3  2  0  0  0  0
  7 20  1  0  0  0  0
  8  4  1  0  0  0  0
  8 21  1  0  0  0  0
  8 22  1  0  0  0  0
  8 23  1  0  0  0  0
  9  6  2  0  0  0  0
  9 24  1  0  0  0  0
 10  7  1  0  0  0  0
 10 25  1  0  0  0  0
 11  9  1  0  0  0  0
 11 10  2  0  0  0  0
 11 26  1  0  0  0  0
M  END
>  <DRUGBANK_ID>
DB01577

>  <COMMON_NAME>
Metamfetamine

>  <CAS_NUMBER>
537-46-2

>  <UNII>
44RAL3456C

>  <SYNONYMS>
(+)-(S)-N-α-dimethylphenethylamine; (S)-N,α-dimethylbenzeneethanamine; (αS)-N,α-dimethylbenzeneethanamine; d-1-phenyl-2-methylaminopropane; d-deoxyephedrine; d-desoxyephedrine; d-N-methylamphetamine; d-phenylisopropylmethylamine; Dextromethamphetamine; Métamfétamine; Metamfetamine; Metamfetaminum; Metanfetamina; Methamphetamine; Methamphetaminum; methyl-β-phenylisopropylamine

$$$$
