
 OpenBabel10282417133D

 37 39  0  0  1  0  0  0  0  0999 V2000
    0.7725    0.0033    0.1771 C   0  0  0  0  0  0  0  0  0  0  0  0
    2.7948    7.1757   -0.3380 C   0  0  0  0  0  0  0  0  0  0  0  0
    0.2436    1.2600    0.9820 C   0  0  2  0  0  0  0  0  0  0  0  0
    4.3896    5.2381    0.5507 C   0  0  0  0  0  0  0  0  0  0  0  0
   -0.5637    2.3224    0.2209 C   0  0  2  0  0  0  0  0  0  0  0  0
    0.3517    3.5661    0.1238 C   0  0  2  0  0  0  0  0  0  0  0  0
    4.9523    6.4396    0.0841 C   0  0  0  0  0  0  0  0  0  0  0  0
    2.9979    5.1585    0.5619 C   0  0  0  0  0  0  0  0  0  0  0  0
    1.3088    3.4425    1.3193 C   0  0  2  0  0  0  0  0  0  0  0  0
    3.9076    3.3150    1.3572 C   0  0  0  0  0  0  0  0  0  0  0  0
    4.2625    1.5993    2.0428 Br  0  0  0  0  0  0  0  0  0  0  0  0
    6.3093    6.7013    0.1004 N   0  0  0  0  0  0  0  0  0  0  0  0
    4.1267    7.4028   -0.3750 N   0  0  0  0  0  0  0  0  0  0  0  0
    2.1491    6.0987    0.1537 N   0  0  0  0  0  0  0  0  0  0  0  0
    4.9332    4.0879    1.0519 N   0  0  0  0  0  0  0  0  0  0  0  0
    2.6902    3.9237    1.0927 N   0  0  0  0  0  0  0  0  0  0  0  0
   -1.7480    2.6558    0.9392 O   0  0  0  0  0  0  0  0  0  0  0  0
   -0.3705    4.7522   -0.1284 O   0  0  0  0  0  0  0  0  0  0  0  0
    2.4450    1.4824   -0.9364 O   0  0  0  0  0  0  0  0  0  0  0  0
    1.8560    0.5681   -2.9893 O   0  0  0  0  0  0  0  0  0  0  0  0
    1.6519    2.9059   -2.5239 O   0  0  0  0  0  0  0  0  0  0  0  0
    0.5591    0.0916   -1.2461 O   0  0  0  0  0  0  0  0  0  0  0  0
    1.3526    2.0013    1.5802 O   0  0  0  0  0  0  0  0  0  0  0  0
    1.1357    1.5767   -1.9204 P   0  0  0  0  0  0  0  0  0  0  0  0
   -0.3254    0.8447    1.8217 H   0  0  0  0  0  0  0  0  0  0  0  0
   -0.9360    1.9681   -0.7444 H   0  0  0  0  0  0  0  0  0  0  0  0
    1.0209    3.5531   -0.7091 H   0  0  0  0  0  0  0  0  0  0  0  0
    0.9276    3.9861    2.1877 H   0  0  0  0  0  0  0  0  0  0  0  0
    0.3114   -0.9298    0.5165 H   0  0  0  0  0  0  0  0  0  0  0  0
    1.8457   -0.1794    0.3559 H   0  0  0  0  0  0  0  0  0  0  0  0
    2.1665    7.9603   -0.7414 H   0  0  0  0  0  0  0  0  0  0  0  0
    6.9517    5.9775    0.3798 H   0  0  0  0  0  0  0  0  0  0  0  0
    6.6248    7.5761   -0.2885 H   0  0  0  0  0  0  0  0  0  0  0  0
   -1.5041    3.0885    1.7704 H   0  0  0  0  0  0  0  0  0  0  0  0
   -1.0786    4.8789    0.5144 H   0  0  0  0  0  0  0  0  0  0  0  0
    2.3360    1.8171   -0.0324 H   0  0  0  0  0  0  0  0  0  0  0  0
    2.3971   -0.0476   -2.4541 H   0  0  0  0  0  0  0  0  0  0  0  0
  1 29  1  0  0  0  0
  1 30  1  0  0  0  0
  2 31  1  0  0  0  0
  3  1  1  0  0  0  0
  3 25  1  1  0  0  0
  5  3  1  0  0  0  0
  5 17  1  0  0  0  0
  5 26  1  6  0  0  0
  6  5  1  0  0  0  0
  6 18  1  0  0  0  0
  6 27  1  6  0  0  0
  7  4  2  0  0  0  0
  8  4  1  0  0  0  0
  9  6  1  0  0  0  0
  9 28  1  1  0  0  0
  9 16  1  0  0  0  0
 11 10  1  0  0  0  0
 12  7  1  0  0  0  0
 12 32  1  0  0  0  0
 12 33  1  0  0  0  0
 13  2  2  0  0  0  0
 13  7  1  0  0  0  0
 14  2  1  0  0  0  0
 14  8  2  0  0  0  0
 15  4  1  0  0  0  0
 15 10  2  0  0  0  0
 16  8  1  0  0  0  0
 16 10  1  0  0  0  0
 17 34  1  0  0  0  0
 18 35  1  0  0  0  0
 19 36  1  0  0  0  0
 20 37  1  0  0  0  0
 22  1  1  0  0  0  0
 23  3  1  0  0  0  0
 23  9  1  0  0  0  0
 24 19  1  0  0  0  0
 24 20  1  0  0  0  0
 24 21  2  0  0  0  0
 24 22  1  0  0  0  0
M  END
>  <DRUGBANK_ID>
DB03349

>  <SECONDARY_ACCESSION_NUMBERS>
EXPT00332

>  <COMMON_NAME>
8-Bromo-Adenosine-5'-Monophosphate

$$$$
