SX3
 OpenBabel10282417173D

 37 38  0  0  0  0  0  0  0  0999 V2000
    1.9406   -0.0407    0.0491 Br  0  0  0  0  0  0  0  0  0  0  0  0
    0.0504   -0.0204   -0.0111 C   0  0  0  0  0  0  0  0  0  0  0  0
   -0.6225    1.1988   -0.0307 C   0  0  0  0  0  0  0  0  0  0  0  0
   -0.6577   -1.2111   -0.0201 C   0  0  0  0  0  0  0  0  0  0  0  0
   -2.0528   -1.1746   -0.0383 C   0  0  0  0  0  0  0  0  0  0  0  0
   -2.7564    0.0433   -0.0876 C   0  0  0  0  0  0  0  0  0  0  0  0
   -4.1400   -0.0038    0.1509 N   0  0  0  0  0  0  0  0  0  0  0  0
   -2.0250    1.2582   -0.0933 C   0  0  0  0  0  0  0  0  0  0  0  0
   -2.7465    2.5883   -0.0692 C   0  0  0  0  0  0  0  0  0  0  0  0
   -3.9773    2.6260   -0.0446 O   0  0  0  0  0  0  0  0  0  0  0  0
   -1.9899    3.7472    0.0924 N   0  0  0  0  0  0  0  0  0  0  0  0
   -2.5103    4.7736    0.9802 C   0  0  0  0  0  0  0  0  0  0  0  0
   -1.3386    5.3348    1.7911 C   0  0  2  0  0  0  0  0  0  0  0  0
   -1.8161    6.4017    2.7671 C   0  0  0  0  0  0  0  0  0  0  0  0
   -0.2404    5.8803    0.8574 C   0  0  0  0  0  0  0  0  0  0  0  0
   -1.0557    4.2552   -0.9135 C   0  0  0  0  0  0  0  0  0  0  0  0
    0.1770    4.8495   -0.2107 C   0  0  1  0  0  0  0  0  0  0  0  0
    1.1525    5.4592   -1.2124 C   0  0  0  0  0  0  0  0  0  0  0  0
   -0.9056    4.5096    2.3745 H   0  0  0  0  0  0  0  0  0  0  0  0
    0.7074    4.0446    0.3115 H   0  0  0  0  0  0  0  0  0  0  0  0
   -0.0306    2.0975    0.0414 H   0  0  0  0  0  0  0  0  0  0  0  0
   -0.1417   -2.1662    0.0227 H   0  0  0  0  0  0  0  0  0  0  0  0
   -2.5988   -2.1136    0.0180 H   0  0  0  0  0  0  0  0  0  0  0  0
   -4.6184    0.8786   -0.0671 H   0  0  0  0  0  0  0  0  0  0  0  0
   -4.6430   -0.8347   -0.1319 H   0  0  0  0  0  0  0  0  0  0  0  0
   -3.0034    5.5478    0.3790 H   0  0  0  0  0  0  0  0  0  0  0  0
   -3.2629    4.3425    1.6505 H   0  0  0  0  0  0  0  0  0  0  0  0
   -0.9889    6.7444    3.3968 H   0  0  0  0  0  0  0  0  0  0  0  0
   -2.2271    7.2676    2.2385 H   0  0  0  0  0  0  0  0  0  0  0  0
   -2.5959    6.0029    3.4248 H   0  0  0  0  0  0  0  0  0  0  0  0
    0.6380    6.1571    1.4544 H   0  0  0  0  0  0  0  0  0  0  0  0
   -0.5944    6.7957    0.3675 H   0  0  0  0  0  0  0  0  0  0  0  0
   -1.5786    5.0339   -1.4863 H   0  0  0  0  0  0  0  0  0  0  0  0
   -0.7900    3.4738   -1.6324 H   0  0  0  0  0  0  0  0  0  0  0  0
    2.0542    5.8146   -0.7018 H   0  0  0  0  0  0  0  0  0  0  0  0
    1.4618    4.7169   -1.9558 H   0  0  0  0  0  0  0  0  0  0  0  0
    0.7059    6.3071   -1.7414 H   0  0  0  0  0  0  0  0  0  0  0  0
  1  2  1  0  0  0  0
  2  4  2  0  0  0  0
  2  3  1  0  0  0  0
  3  8  2  0  0  0  0
  3 21  1  0  0  0  0
  4  5  1  0  0  0  0
  4 22  1  0  0  0  0
  5  6  2  0  0  0  0
  5 23  1  0  0  0  0
  6  7  1  0  0  0  0
  7 24  1  0  0  0  0
  7 25  1  0  0  0  0
  8  6  1  0  0  0  0
  8  9  1  0  0  0  0
  9 11  1  0  0  0  0
  9 10  2  0  0  0  0
 11 16  1  0  0  0  0
 12 11  1  0  0  0  0
 12 26  1  0  0  0  0
 12 27  1  0  0  0  0
 13 12  1  0  0  0  0
 13 15  1  0  0  0  0
 13 19  1  1  0  0  0
 13 14  1  0  0  0  0
 14 28  1  0  0  0  0
 14 29  1  0  0  0  0
 14 30  1  0  0  0  0
 15 17  1  0  0  0  0
 15 31  1  0  0  0  0
 15 32  1  0  0  0  0
 16 33  1  0  0  0  0
 16 34  1  0  0  0  0
 17 16  1  0  0  0  0
 17 18  1  0  0  0  0
 17 20  1  1  0  0  0
 18 35  1  0  0  0  0
 18 36  1  0  0  0  0
 18 37  1  0  0  0  0
M  END
>  <DRUGBANK_ID>
DB08579

>  <COMMON_NAME>
4-bromo-2-{[(3R,5S)-3,5-dimethylpiperidin-1-yl]carbonyl}aniline

$$$$
