IS2
 OpenBabel10282417133D

 27 27  0  0  0  0  0  0  0  0999 V2000
    1.4644   -0.3717    0.0289 C   0  0  0  0  0  0  0  0  0  0  0  0
    0.4928   -1.3772    0.0246 C   0  0  0  0  0  0  0  0  0  0  0  0
   -0.8882   -1.0890   -0.1111 C   0  0  0  0  0  0  0  0  0  0  0  0
   -1.3098    0.2204   -0.3472 C   0  0  0  0  0  0  0  0  0  0  0  0
   -0.2615    1.1370   -0.5026 C   0  0  0  0  0  0  0  0  0  0  0  0
    1.0535    0.9213   -0.1890 C   0  0  0  0  0  0  0  0  0  0  0  0
   -2.7302    0.5396   -0.3573 N   0  0  0  0  0  0  0  0  0  0  0  0
   -3.3264    1.8426   -0.2505 C   0  0  0  0  0  0  0  0  0  0  0  0
   -4.5316    2.0499   -0.3578 O   0  0  0  0  0  0  0  0  0  0  0  0
   -2.1726    3.2544   -0.0943 P   0  0  0  0  0  0  0  0  0  0  0  0
   -1.5856    2.4146    1.1750 O   0  0  0  0  0  0  0  0  0  0  0  0
   -1.8974    2.9631   -1.6848 O   0  0  0  0  0  0  0  0  0  0  0  0
   -1.1963    4.4489    0.0377 O   0  0  0  0  0  0  0  0  0  0  0  0
    2.9365   -0.5802    0.1878 C   0  0  0  0  0  0  0  0  0  0  0  0
    3.6893    0.0077   -1.0081 C   0  0  0  0  0  0  0  0  0  0  0  0
    0.8080   -2.4138    0.1331 H   0  0  0  0  0  0  0  0  0  0  0  0
   -1.6037   -1.8956   -0.0193 H   0  0  0  0  0  0  0  0  0  0  0  0
   -0.3335    2.1695   -0.7937 H   0  0  0  0  0  0  0  0  0  0  0  0
    1.7336    1.7696   -0.1862 H   0  0  0  0  0  0  0  0  0  0  0  0
   -3.3827   -0.2282   -0.3002 H   0  0  0  0  0  0  0  0  0  0  0  0
   -0.6571    2.5177    1.4292 H   0  0  0  0  0  0  0  0  0  0  0  0
   -2.7526    3.0582   -2.1685 H   0  0  0  0  0  0  0  0  0  0  0  0
    3.2628   -0.0841    1.1116 H   0  0  0  0  0  0  0  0  0  0  0  0
    3.1518   -1.6461    0.2841 H   0  0  0  0  0  0  0  0  0  0  0  0
    3.5554    1.0943   -1.0951 H   0  0  0  0  0  0  0  0  0  0  0  0
    4.7605   -0.1722   -0.9149 H   0  0  0  0  0  0  0  0  0  0  0  0
    3.3271   -0.4311   -1.9444 H   0  0  0  0  0  0  0  0  0  0  0  0
  1  2  1  0  0  0  0
  1  6  2  0  0  0  0
  1 14  1  0  0  0  0
  2  3  2  0  0  0  0
  2 16  1  0  0  0  0
  3  4  1  0  0  0  0
  3 17  1  0  0  0  0
  4  5  2  0  0  0  0
  4  7  1  0  0  0  0
  5  6  1  0  0  0  0
  5 18  1  0  0  0  0
  6 19  1  0  0  0  0
  7  8  1  0  0  0  0
  7 20  1  0  0  0  0
  8  9  2  0  0  0  0
  8 10  1  0  0  0  0
 10 11  1  0  0  0  0
 10 12  1  0  0  0  0
 10 13  2  0  0  0  0
 11 21  1  0  0  0  0
 12 22  1  0  0  0  0
 14 15  1  0  0  0  0
 14 23  1  0  0  0  0
 14 24  1  0  0  0  0
 15 25  1  0  0  0  0
 15 26  1  0  0  0  0
 15 27  1  0  0  0  0
M  END
>  <DRUGBANK_ID>
DB03628

>  <SECONDARY_ACCESSION_NUMBERS>
EXPT01930

>  <COMMON_NAME>
ISO24

>  <UNII>
MM7HGA3EJM

$$$$
