2ED
 OpenBabel10282417163D

 63 62  0  0  0  0  0  0  0  0999 V2000
    5.8259    3.6984    2.2966 O   0  0  0  0  0  0  0  0  0  0  0  0
    5.9325    4.3583   -1.5138 O   0  0  0  0  0  0  0  0  0  0  0  0
    2.1830    2.5576   -0.7340 O   0  0  0  0  0  0  0  0  0  0  0  0
    4.1049    3.8777    0.0459 C   0  0  2  0  0  0  0  0  0  0  0  0
    2.5835    3.6111    0.1362 C   0  0  1  0  0  0  0  0  0  0  0  0
    1.7995    4.8178   -0.2719 C   0  0  0  0  0  0  0  0  0  0  0  0
    1.0089    5.4811    0.5711 C   0  0  0  0  0  0  0  0  0  0  0  0
    0.2126    6.6707    0.1474 C   0  0  0  0  0  0  0  0  0  0  0  0
   -1.2744    6.3548    0.2790 C   0  0  0  0  0  0  0  0  0  0  0  0
    5.3620    4.7999    1.9970 C   0  0  0  0  0  0  0  0  0  0  0  0
    5.6873    6.0315    2.7978 C   0  0  0  0  0  0  0  0  0  0  0  0
    4.5355    4.9993    0.9175 N   0  0  0  0  0  0  0  0  0  0  0  0
    4.5300    4.1311   -1.4123 C   0  0  0  0  0  0  0  0  0  0  0  0
    4.6192    2.9697    0.3811 H   0  0  0  0  0  0  0  0  0  0  0  0
    2.3284    3.3049    1.1590 H   0  0  0  0  0  0  0  0  0  0  0  0
   -1.6449    6.0108    1.7273 C   0  0  0  0  0  0  0  0  0  0  0  0
   -1.2854    7.1682    2.6658 C   0  0  0  0  0  0  0  0  0  0  0  0
   -2.0576    8.4283    2.2654 C   0  0  0  0  0  0  0  0  0  0  0  0
   -3.5630    8.1624    2.3556 C   0  0  0  0  0  0  0  0  0  0  0  0
   -3.9341    7.7725    3.7902 C   0  0  0  0  0  0  0  0  0  0  0  0
   -3.5688    8.9114    4.7469 C   0  0  0  0  0  0  0  0  0  0  0  0
   -4.3305   10.1812    4.3558 C   0  0  0  0  0  0  0  0  0  0  0  0
   -5.8413    9.9337    4.4316 C   0  0  0  0  0  0  0  0  0  0  0  0
   -6.2586    9.5609    5.8586 C   0  0  0  0  0  0  0  0  0  0  0  0
   -5.8931   10.6664    6.8500 C   0  0  0  0  0  0  0  0  0  0  0  0
   -6.5971   11.9620    6.4808 C   0  0  0  0  0  0  0  0  0  0  0  0
    6.1461    5.0298   -0.8429 H   0  0  0  0  0  0  0  0  0  0  0  0
    1.2129    2.4933   -0.6750 H   0  0  0  0  0  0  0  0  0  0  0  0
    1.8920    5.1725   -1.2948 H   0  0  0  0  0  0  0  0  0  0  0  0
    0.9098    5.1239    1.5954 H   0  0  0  0  0  0  0  0  0  0  0  0
    0.5097    7.5263    0.7633 H   0  0  0  0  0  0  0  0  0  0  0  0
    0.4355    6.9651   -0.8824 H   0  0  0  0  0  0  0  0  0  0  0  0
   -1.8530    7.2136   -0.0811 H   0  0  0  0  0  0  0  0  0  0  0  0
   -1.5551    5.5255   -0.3786 H   0  0  0  0  0  0  0  0  0  0  0  0
    6.1689    6.7842    2.1679 H   0  0  0  0  0  0  0  0  0  0  0  0
    4.7844    6.4434    3.2557 H   0  0  0  0  0  0  0  0  0  0  0  0
    6.3850    5.7582    3.5973 H   0  0  0  0  0  0  0  0  0  0  0  0
    4.1036    5.9073    0.7790 H   0  0  0  0  0  0  0  0  0  0  0  0
    4.2755    3.2747   -2.0443 H   0  0  0  0  0  0  0  0  0  0  0  0
    4.0387    5.0166   -1.8262 H   0  0  0  0  0  0  0  0  0  0  0  0
   -2.7088    5.7585    1.7802 H   0  0  0  0  0  0  0  0  0  0  0  0
   -1.1494    5.0971    2.0659 H   0  0  0  0  0  0  0  0  0  0  0  0
   -1.4861    6.8756    3.7010 H   0  0  0  0  0  0  0  0  0  0  0  0
   -0.2129    7.3795    2.6713 H   0  0  0  0  0  0  0  0  0  0  0  0
   -1.7489    9.2660    2.8982 H   0  0  0  0  0  0  0  0  0  0  0  0
   -1.8011    8.7669    1.2579 H   0  0  0  0  0  0  0  0  0  0  0  0
   -4.1145    9.0408    2.0091 H   0  0  0  0  0  0  0  0  0  0  0  0
   -3.8864    7.3794    1.6645 H   0  0  0  0  0  0  0  0  0  0  0  0
   -4.9952    7.5148    3.8403 H   0  0  0  0  0  0  0  0  0  0  0  0
   -3.4413    6.8498    4.1094 H   0  0  0  0  0  0  0  0  0  0  0  0
   -3.7737    8.6093    5.7774 H   0  0  0  0  0  0  0  0  0  0  0  0
   -2.4932    9.1139    4.7534 H   0  0  0  0  0  0  0  0  0  0  0  0
   -4.0160   11.0115    4.9933 H   0  0  0  0  0  0  0  0  0  0  0  0
   -4.0647   10.5233    3.3504 H   0  0  0  0  0  0  0  0  0  0  0  0
   -6.3779   10.8150    4.0722 H   0  0  0  0  0  0  0  0  0  0  0  0
   -6.1571    9.1451    3.7405 H   0  0  0  0  0  0  0  0  0  0  0  0
   -7.3342    9.3629    5.8864 H   0  0  0  0  0  0  0  0  0  0  0  0
   -5.7874    8.6209    6.1715 H   0  0  0  0  0  0  0  0  0  0  0  0
   -6.1681   10.3584    7.8623 H   0  0  0  0  0  0  0  0  0  0  0  0
   -4.8093   10.8310    6.8795 H   0  0  0  0  0  0  0  0  0  0  0  0
   -7.6802   11.8086    6.4860 H   0  0  0  0  0  0  0  0  0  0  0  0
   -6.3397   12.7564    7.1816 H   0  0  0  0  0  0  0  0  0  0  0  0
   -6.3129   12.3165    5.4846 H   0  0  0  0  0  0  0  0  0  0  0  0
  1 10  2  0  0  0  0
  2 13  1  0  0  0  0
  2 27  1  0  0  0  0
  3 28  1  0  0  0  0
  4 12  1  0  0  0  0
  4 13  1  0  0  0  0
  4 14  1  1  0  0  0
  5  6  1  0  0  0  0
  5 15  1  1  0  0  0
  5  4  1  0  0  0  0
  5  3  1  0  0  0  0
  6  7  2  0  0  0  0
  6 29  1  0  0  0  0
  7  8  1  0  0  0  0
  7 30  1  0  0  0  0
  8  9  1  0  0  0  0
  8 31  1  0  0  0  0
  8 32  1  0  0  0  0
  9 16  1  0  0  0  0
  9 33  1  0  0  0  0
  9 34  1  0  0  0  0
 10 11  1  0  0  0  0
 10 12  1  0  0  0  0
 11 35  1  0  0  0  0
 11 36  1  0  0  0  0
 11 37  1  0  0  0  0
 12 38  1  0  0  0  0
 13 39  1  0  0  0  0
 13 40  1  0  0  0  0
 16 17  1  0  0  0  0
 16 41  1  0  0  0  0
 16 42  1  0  0  0  0
 17 18  1  0  0  0  0
 17 43  1  0  0  0  0
 17 44  1  0  0  0  0
 18 19  1  0  0  0  0
 18 45  1  0  0  0  0
 18 46  1  0  0  0  0
 19 20  1  0  0  0  0
 19 47  1  0  0  0  0
 19 48  1  0  0  0  0
 20 21  1  0  0  0  0
 20 49  1  0  0  0  0
 20 50  1  0  0  0  0
 21 22  1  0  0  0  0
 21 51  1  0  0  0  0
 21 52  1  0  0  0  0
 22 23  1  0  0  0  0
 22 53  1  0  0  0  0
 22 54  1  0  0  0  0
 23 24  1  0  0  0  0
 23 55  1  0  0  0  0
 23 56  1  0  0  0  0
 24 25  1  0  0  0  0
 24 57  1  0  0  0  0
 24 58  1  0  0  0  0
 25 26  1  0  0  0  0
 25 59  1  0  0  0  0
 25 60  1  0  0  0  0
 26 61  1  0  0  0  0
 26 62  1  0  0  0  0
 26 63  1  0  0  0  0
M  END
>  <DRUGBANK_ID>
DB06960

>  <COMMON_NAME>
N-[(1R,2R,3E)-2-hydroxy-1-(hydroxymethyl)heptadec-3-en-1-yl]acetamide

$$$$
