
 OpenBabel10282417233D

 59 63  0  0  0  0  0  0  0  0999 V2000
    0.9113    0.1485    0.0900 Cl  0  0  0  0  0  0  0  0  0  0  0  0
    2.6188    0.1374   -0.0034 C   0  0  0  0  0  0  0  0  0  0  0  0
    3.2179   -1.0837   -0.0356 C   0  0  0  0  0  0  0  0  0  0  0  0
    4.5940   -1.1697   -0.0469 C   0  0  0  0  0  0  0  0  0  0  0  0
    4.8920   -2.4783    0.3329 N   0  0  0  0  0  0  0  0  0  0  0  0
    4.9812   -3.5775   -0.6521 C   0  0  0  0  0  0  0  0  0  0  0  0
    5.1533   -4.8845    0.1553 C   0  0  0  0  0  0  0  0  0  0  0  0
    6.1633   -4.8461    1.2218 N   0  0  0  0  0  0  0  0  0  0  0  0
    7.4185   -4.7803    0.5521 C   0  0  0  0  0  0  0  0  0  0  0  0
    7.9226   -3.4670   -0.3350 C   0  0  0  0  0  0  0  0  0  0  0  0
    8.5478   -2.3197    0.5012 C   0  0  0  0  0  0  0  0  0  0  0  0
    9.7152   -2.8291    1.2570 C   0  0  0  0  0  0  0  0  0  0  0  0
   10.3137   -3.9087    0.4895 N   0  0  0  0  0  0  0  0  0  0  0  0
    9.6534   -5.1465    0.0994 C   0  0  0  0  0  0  0  0  0  0  0  0
    9.1762   -5.5249   -0.9829 O   0  0  0  0  0  0  0  0  0  0  0  0
   10.3738   -6.1702    0.6106 C   0  0  0  0  0  0  0  0  0  0  0  0
   11.5939   -5.7195    0.0967 C   0  0  0  0  0  0  0  0  0  0  0  0
   12.6179   -6.2643    0.7388 C   0  0  0  0  0  0  0  0  0  0  0  0
   12.3538   -7.5209    1.3246 C   0  0  0  0  0  0  0  0  0  0  0  0
   11.0488   -8.0622    1.5660 C   0  0  0  0  0  0  0  0  0  0  0  0
    9.9649   -7.2784    1.3274 C   0  0  0  0  0  0  0  0  0  0  0  0
   11.5214   -3.9979   -0.6319 S   0  0  0  0  0  0  0  0  0  0  0  0
   10.8901   -3.9660   -1.9686 O   0  0  0  0  0  0  0  0  0  0  0  0
   12.7036   -3.2976   -0.3432 O   0  0  0  0  0  0  0  0  0  0  0  0
    6.1174   -3.6901    2.1038 C   0  0  0  0  0  0  0  0  0  0  0  0
    5.8889   -2.4122    1.3372 C   0  0  0  0  0  0  0  0  0  0  0  0
    5.4201    0.0216   -0.0575 C   0  0  0  0  0  0  0  0  0  0  0  0
    6.8038   -0.0278   -0.0249 O   0  0  0  0  0  0  0  0  0  0  0  0
    7.4511    1.2148   -0.3815 C   0  0  0  0  0  0  0  0  0  0  0  0
    6.8289    2.3537    0.3952 C   0  0  0  0  0  0  0  0  0  0  0  0
    5.4394    2.4699    0.0559 O   0  0  0  0  0  0  0  0  0  0  0  0
    4.7856    1.2603   -0.0117 C   0  0  0  0  0  0  0  0  0  0  0  0
    3.3866    1.3027   -0.0045 C   0  0  0  0  0  0  0  0  0  0  0  0
    2.6678   -2.0159    0.0990 H   0  0  0  0  0  0  0  0  0  0  0  0
    4.1163   -3.6658   -1.3055 H   0  0  0  0  0  0  0  0  0  0  0  0
    5.7493   -3.4289   -1.4049 H   0  0  0  0  0  0  0  0  0  0  0  0
    4.2166   -5.1067    0.6562 H   0  0  0  0  0  0  0  0  0  0  0  0
    5.3738   -5.7353   -0.5117 H   0  0  0  0  0  0  0  0  0  0  0  0
    8.0815   -4.9385    1.4171 H   0  0  0  0  0  0  0  0  0  0  0  0
    7.4319   -5.7279   -0.0094 H   0  0  0  0  0  0  0  0  0  0  0  0
    8.7674   -3.5461   -1.0182 H   0  0  0  0  0  0  0  0  0  0  0  0
    7.3653   -3.3540   -1.2509 H   0  0  0  0  0  0  0  0  0  0  0  0
    8.7136   -1.4506   -0.1373 H   0  0  0  0  0  0  0  0  0  0  0  0
    8.0124   -1.9257    1.3646 H   0  0  0  0  0  0  0  0  0  0  0  0
   10.2153   -1.9676    1.7222 H   0  0  0  0  0  0  0  0  0  0  0  0
    9.3082   -3.3178    2.1636 H   0  0  0  0  0  0  0  0  0  0  0  0
   13.5247   -5.6934    0.7671 H   0  0  0  0  0  0  0  0  0  0  0  0
   13.2107   -8.1159    1.5819 H   0  0  0  0  0  0  0  0  0  0  0  0
   10.9128   -9.0672    1.9524 H   0  0  0  0  0  0  0  0  0  0  0  0
    8.9374   -7.5355    1.6083 H   0  0  0  0  0  0  0  0  0  0  0  0
    5.3508   -3.8312    2.8573 H   0  0  0  0  0  0  0  0  0  0  0  0
    7.0624   -3.6303    2.6797 H   0  0  0  0  0  0  0  0  0  0  0  0
    6.6010   -2.2162    0.5930 H   0  0  0  0  0  0  0  0  0  0  0  0
    5.9656   -1.5419    1.9968 H   0  0  0  0  0  0  0  0  0  0  0  0
    7.3578    1.3626   -1.4638 H   0  0  0  0  0  0  0  0  0  0  0  0
    8.5273    1.1530   -0.1561 H   0  0  0  0  0  0  0  0  0  0  0  0
    6.9236    2.1974    1.4774 H   0  0  0  0  0  0  0  0  0  0  0  0
    7.3287    3.3042    0.1599 H   0  0  0  0  0  0  0  0  0  0  0  0
    2.8794    2.2557    0.0186 H   0  0  0  0  0  0  0  0  0  0  0  0
  1  2  1  0  0  0  0
  2  3  2  0  0  0  0
  2 33  1  0  0  0  0
  3  4  1  0  0  0  0
  3 34  1  0  0  0  0
  4  5  1  0  0  0  0
  4 27  2  0  0  0  0
  5  6  1  0  0  0  0
  5 26  1  0  0  0  0
  6  7  1  0  0  0  0
  6 35  1  0  0  0  0
  6 36  1  0  0  0  0
  7  8  1  0  0  0  0
  7 37  1  0  0  0  0
  7 38  1  0  0  0  0
  8  9  1  0  0  0  0
  8 25  1  0  0  0  0
  9 10  1  0  0  0  0
  9 39  1  0  0  0  0
  9 40  1  0  0  0  0
 10 11  1  0  0  0  0
 10 41  1  0  0  0  0
 10 42  1  0  0  0  0
 11 12  1  0  0  0  0
 11 43  1  0  0  0  0
 11 44  1  0  0  0  0
 12 13  1  0  0  0  0
 12 45  1  0  0  0  0
 12 46  1  0  0  0  0
 13 14  1  0  0  0  0
 13 22  1  0  0  0  0
 14 15  2  0  0  0  0
 14 16  1  0  0  0  0
 16 17  2  0  0  0  0
 16 21  1  0  0  0  0
 17 18  1  0  0  0  0
 17 22  1  0  0  0  0
 18 19  2  0  0  0  0
 18 47  1  0  0  0  0
 19 20  1  0  0  0  0
 19 48  1  0  0  0  0
 20 21  2  0  0  0  0
 20 49  1  0  0  0  0
 21 50  1  0  0  0  0
 22 23  2  0  0  0  0
 22 24  2  0  0  0  0
 25 26  1  0  0  0  0
 25 51  1  0  0  0  0
 25 52  1  0  0  0  0
 26 53  1  0  0  0  0
 26 54  1  0  0  0  0
 27 28  1  0  0  0  0
 27 32  1  0  0  0  0
 28 29  1  0  0  0  0
 29 30  1  0  0  0  0
 29 55  1  0  0  0  0
 29 56  1  0  0  0  0
 30 31  1  0  0  0  0
 30 57  1  0  0  0  0
 30 58  1  0  0  0  0
 31 32  1  0  0  0  0
 32 33  2  0  0  0  0
 33 59  1  0  0  0  0
M  END
>  <DRUGBANK_ID>
DB16040

>  <COMMON_NAME>
DU125530

>  <CAS_NUMBER>
161611-99-0

>  <UNII>
ZB05V621UD

$$$$
