VX2
 OpenBabel10282417173D

 44 47  0  0  0  0  0  0  0  0999 V2000
    0.9815    0.0495    0.1586 C   0  0  0  0  0  0  0  0  0  0  0  0
    3.4556    6.1746   -0.8123 N   0  0  0  0  0  0  0  0  0  0  0  0
   -0.8509    1.7197    0.6455 C   0  0  0  0  0  0  0  0  0  0  0  0
   -1.3010    3.0377    0.7274 C   0  0  0  0  0  0  0  0  0  0  0  0
   -0.3949    4.0993    0.6115 C   0  0  0  0  0  0  0  0  0  0  0  0
    3.1533    6.7506    0.3313 C   0  0  0  0  0  0  0  0  0  0  0  0
    3.6131    7.9161    0.9760 C   0  0  0  0  0  0  0  0  0  0  0  0
    2.0973    7.3285    2.7929 C   0  0  0  0  0  0  0  0  0  0  0  0
    0.5819    6.7966    4.7127 C   0  0  0  0  0  0  0  0  0  0  0  0
    0.5121    1.4527    0.4530 C   0  0  0  0  0  0  0  0  0  0  0  0
    1.4188    2.5259    0.4102 C   0  0  0  0  0  0  0  0  0  0  0  0
    3.1208    8.2333    2.1859 C   0  0  0  0  0  0  0  0  0  0  0  0
    0.0918    4.4447    5.5479 C   0  0  0  0  0  0  0  0  0  0  0  0
    2.7007    5.0227   -0.9103 N   0  0  0  0  0  0  0  0  0  0  0  0
    0.5357   -0.8663    1.0614 F   0  0  0  0  0  0  0  0  0  0  0  0
    0.5459   -0.3850   -1.0583 F   0  0  0  0  0  0  0  0  0  0  0  0
    2.3373   -0.0785    0.1325 F   0  0  0  0  0  0  0  0  0  0  0  0
    0.9745    3.8540    0.4409 C   0  0  0  0  0  0  0  0  0  0  0  0
    1.9279    4.9300    0.1614 C   0  0  0  0  0  0  0  0  0  0  0  0
    1.5827    7.6217    4.0361 N   0  0  0  0  0  0  0  0  0  0  0  0
    1.1471    5.3956    5.0028 C   0  0  0  0  0  0  0  0  0  0  0  0
   -1.1289    4.3922    4.6361 C   0  0  0  0  0  0  0  0  0  0  0  0
   -1.7392    5.7766    4.4457 C   0  0  0  0  0  0  0  0  0  0  0  0
   -0.7225    6.7664    3.8976 C   0  0  0  0  0  0  0  0  0  0  0  0
    1.6622    6.2591    2.1872 N   0  0  0  0  0  0  0  0  0  0  0  0
    2.1988    6.0047    0.9791 N   0  0  0  0  0  0  0  0  0  0  0  0
   -1.5686    0.9011    0.6992 H   0  0  0  0  0  0  0  0  0  0  0  0
   -2.3647    3.2391    0.8381 H   0  0  0  0  0  0  0  0  0  0  0  0
   -0.7745    5.1186    0.6263 H   0  0  0  0  0  0  0  0  0  0  0  0
    4.3568    8.5315    0.4877 H   0  0  0  0  0  0  0  0  0  0  0  0
    0.3573    7.2686    5.6791 H   0  0  0  0  0  0  0  0  0  0  0  0
    2.4853    2.3252    0.3061 H   0  0  0  0  0  0  0  0  0  0  0  0
    3.4342    9.1108    2.7320 H   0  0  0  0  0  0  0  0  0  0  0  0
    0.5251    3.4420    5.6375 H   0  0  0  0  0  0  0  0  0  0  0  0
   -0.2069    4.7630    6.5522 H   0  0  0  0  0  0  0  0  0  0  0  0
    1.8968    8.4455    4.5343 H   0  0  0  0  0  0  0  0  0  0  0  0
    1.5569    4.9323    4.1004 H   0  0  0  0  0  0  0  0  0  0  0  0
    1.9907    5.4693    5.6995 H   0  0  0  0  0  0  0  0  0  0  0  0
   -0.8395    3.9786    3.6624 H   0  0  0  0  0  0  0  0  0  0  0  0
   -1.8777    3.7150    5.0594 H   0  0  0  0  0  0  0  0  0  0  0  0
   -2.5838    5.7113    3.7501 H   0  0  0  0  0  0  0  0  0  0  0  0
   -2.1300    6.1448    5.4001 H   0  0  0  0  0  0  0  0  0  0  0  0
   -1.1558    7.7727    3.8504 H   0  0  0  0  0  0  0  0  0  0  0  0
   -0.5390    6.4853    2.8573 H   0  0  0  0  0  0  0  0  0  0  0  0
  1 15  1  0  0  0  0
  1 10  1  0  0  0  0
  2 14  1  0  0  0  0
  3  4  1  0  0  0  0
  3 27  1  0  0  0  0
  4 28  1  0  0  0  0
  5  4  2  0  0  0  0
  5 29  1  0  0  0  0
  6  2  2  0  0  0  0
  7  6  1  0  0  0  0
  7 30  1  0  0  0  0
  8 12  1  0  0  0  0
  8 25  2  0  0  0  0
  9 21  1  0  0  0  0
  9 20  1  0  0  0  0
  9 31  1  0  0  0  0
 10  3  2  0  0  0  0
 11 10  1  0  0  0  0
 11 18  2  0  0  0  0
 11 32  1  0  0  0  0
 12  7  2  0  0  0  0
 12 33  1  0  0  0  0
 13 21  1  0  0  0  0
 13 34  1  0  0  0  0
 13 35  1  0  0  0  0
 16  1  1  0  0  0  0
 17  1  1  0  0  0  0
 18  5  1  0  0  0  0
 19 14  2  0  0  0  0
 19 18  1  0  0  0  0
 20  8  1  0  0  0  0
 20 36  1  0  0  0  0
 21 37  1  0  0  0  0
 21 38  1  0  0  0  0
 22 13  1  0  0  0  0
 22 39  1  0  0  0  0
 22 40  1  0  0  0  0
 23 22  1  0  0  0  0
 23 24  1  0  0  0  0
 23 41  1  0  0  0  0
 23 42  1  0  0  0  0
 24  9  1  0  0  0  0
 24 43  1  0  0  0  0
 24 44  1  0  0  0  0
 25 26  1  0  0  0  0
 26  6  1  0  0  0  0
 26 19  1  0  0  0  0
M  END
>  <DRUGBANK_ID>
DB08708

>  <COMMON_NAME>
N-cyclohexyl-3-[3-(trifluoromethyl)phenyl][1,2,4]triazolo[4,3-b]pyridazin-6-amine

$$$$
