
 OpenBabel10282417133D

 27 28  0  0  1  0  0  0  0  0999 V2000
    1.1956   -0.5427   -2.4656 N   0  0  0  0  0  0  0  0  0  0  0  0
    0.4972    0.3047   -1.4451 C   0  0  2  0  0  0  0  0  0  0  0  0
    0.9480   -0.1152   -0.0438 C   0  0  0  0  0  0  0  0  0  0  0  0
    0.4170   -1.4449    0.4391 C   0  0  0  0  0  0  0  0  0  0  0  0
    0.4036   -1.8238    1.7691 C   0  0  0  0  0  0  0  0  0  0  0  0
   -0.2604   -3.0181    1.8690 N   0  0  0  0  0  0  0  0  0  0  0  0
   -0.6004   -3.4930    0.6230 C   0  0  0  0  0  0  0  0  0  0  0  0
   -1.2711   -4.6650    0.2279 C   0  0  0  0  0  0  0  0  0  0  0  0
   -1.4932   -4.9011   -1.1399 C   0  0  0  0  0  0  0  0  0  0  0  0
   -1.1367   -3.9703   -2.0855 C   0  0  0  0  0  0  0  0  0  0  0  0
   -0.5644   -2.7889   -1.6569 C   0  0  0  0  0  0  0  0  0  0  0  0
   -0.2040   -2.5325   -0.3020 C   0  0  0  0  0  0  0  0  0  0  0  0
   -1.0843    0.3642   -1.4988 C   0  0  0  0  0  0  0  0  0  0  0  0
   -1.5859    1.5458   -1.9370 O   0  0  0  0  0  0  0  0  0  0  0  0
   -1.8776   -0.4705   -1.1237 O   0  0  0  0  0  0  0  0  0  0  0  0
    1.2068   -1.5058   -2.1038 H   0  0  0  0  0  0  0  0  0  0  0  0
    2.2030   -0.3731   -2.4211 H   0  0  0  0  0  0  0  0  0  0  0  0
    0.8589    1.3148   -1.6571 H   0  0  0  0  0  0  0  0  0  0  0  0
    2.0479   -0.1427   -0.0046 H   0  0  0  0  0  0  0  0  0  0  0  0
    0.6470    0.6738    0.6591 H   0  0  0  0  0  0  0  0  0  0  0  0
    0.7634   -1.3134    2.6549 H   0  0  0  0  0  0  0  0  0  0  0  0
   -0.4823   -3.4806    2.7382 H   0  0  0  0  0  0  0  0  0  0  0  0
   -1.6276   -5.3799    0.9578 H   0  0  0  0  0  0  0  0  0  0  0  0
   -1.9943   -5.8015   -1.4765 H   0  0  0  0  0  0  0  0  0  0  0  0
   -1.3402   -4.0926   -3.1460 H   0  0  0  0  0  0  0  0  0  0  0  0
   -0.5137   -2.0430   -2.4423 H   0  0  0  0  0  0  0  0  0  0  0  0
   -0.9340    2.2080   -2.2032 H   0  0  0  0  0  0  0  0  0  0  0  0
  1 16  1  0  0  0  0
  1 17  1  0  0  0  0
  2 13  1  0  0  0  0
  2 18  1  6  0  0  0
  2  3  1  0  0  0  0
  2  1  1  0  0  0  0
  3  4  1  0  0  0  0
  3 19  1  0  0  0  0
  3 20  1  0  0  0  0
  4  5  2  0  0  0  0
  4 12  1  0  0  0  0
  5  6  1  0  0  0  0
  5 21  1  0  0  0  0
  6  7  1  0  0  0  0
  6 22  1  0  0  0  0
  7  8  2  0  0  0  0
  7 12  1  0  0  0  0
  8  9  1  0  0  0  0
  8 23  1  0  0  0  0
  9 10  2  0  0  0  0
  9 24  1  0  0  0  0
 10 11  1  0  0  0  0
 10 25  1  0  0  0  0
 11 12  2  0  0  0  0
 11 26  1  0  0  0  0
 13 14  1  0  0  0  0
 13 15  2  0  0  0  0
 14 27  1  0  0  0  0
M  END
>  <DRUGBANK_ID>
DB03225

>  <SECONDARY_ACCESSION_NUMBERS>
EXPT01290

>  <COMMON_NAME>
D-Tryptophan

>  <CAS_NUMBER>
153-94-6

>  <UNII>
7NS97N9H1G

>  <SYNONYMS>
(2R)-2-amino-3-(1H-indol-3-yl)propanoic acid; (R)-tryptophan; DTR

$$$$
