
 OpenBabel10282417203D

 22 23  0  0  0  0  0  0  0  0999 V2000
   -1.1251   -0.2445   -0.0397 C   0  0  0  0  0  0  0  0  0  0  0  0
   -0.1771   -1.2249   -0.0808 C   0  0  0  0  0  0  0  0  0  0  0  0
    1.0191   -0.5511   -0.0220 N   0  3  0  0  0  0  0  0  0  0  0  0
    0.8960    0.7598    0.0831 N   0  0  0  0  0  0  0  0  0  0  0  0
   -0.5028    0.9792    0.0300 O   0  0  0  0  0  0  0  0  0  0  0  0
    2.2626   -1.2254    0.0996 N   0  0  0  0  0  0  0  0  0  0  0  0
    3.2194   -0.8303    1.1110 C   0  0  0  0  0  0  0  0  0  0  0  0
    4.5511   -0.3800    0.5141 C   0  0  0  0  0  0  0  0  0  0  0  0
    5.0418   -1.3569   -0.4114 O   0  0  0  0  0  0  0  0  0  0  0  0
    4.1216   -1.5397   -1.4945 C   0  0  0  0  0  0  0  0  0  0  0  0
    2.7669   -2.0552   -0.9801 C   0  0  0  0  0  0  0  0  0  0  0  0
   -2.4444   -0.4671   -0.0348 N   0  5  0  0  0  0  0  0  0  0  0  0
   -0.3002   -2.2964   -0.0801 H   0  0  0  0  0  0  0  0  0  0  0  0
    3.4049   -1.7322    1.7091 H   0  0  0  0  0  0  0  0  0  0  0  0
    2.8252   -0.0779    1.8001 H   0  0  0  0  0  0  0  0  0  0  0  0
    4.4625    0.5874    0.0085 H   0  0  0  0  0  0  0  0  0  0  0  0
    5.2968   -0.2780    1.3100 H   0  0  0  0  0  0  0  0  0  0  0  0
    4.5679   -2.2683   -2.1803 H   0  0  0  0  0  0  0  0  0  0  0  0
    4.0174   -0.5932   -2.0377 H   0  0  0  0  0  0  0  0  0  0  0  0
    2.9176   -3.0600   -0.5675 H   0  0  0  0  0  0  0  0  0  0  0  0
    2.0641   -2.1478   -1.8144 H   0  0  0  0  0  0  0  0  0  0  0  0
   -2.9157    0.4442   -0.0013 H   0  0  0  0  0  0  0  0  0  0  0  0
  1  2  2  0  0  0  0
  1 12  1  0  0  0  0
  2  3  1  0  0  0  0
  2 13  1  0  0  0  0
  3  6  1  0  0  0  0
  3  4  2  0  0  0  0
  4  5  1  0  0  0  0
  5  1  1  0  0  0  0
  6  7  1  0  0  0  0
  6 11  1  0  0  0  0
  7  8  1  0  0  0  0
  7 14  1  0  0  0  0
  7 15  1  0  0  0  0
  8  9  1  0  0  0  0
  8 16  1  0  0  0  0
  8 17  1  0  0  0  0
  9 10  1  0  0  0  0
 10 11  1  0  0  0  0
 10 18  1  0  0  0  0
 10 19  1  0  0  0  0
 11 20  1  0  0  0  0
 11 21  1  0  0  0  0
 12 22  1  0  0  0  0
M  CHG  2   3   1  12  -1
M  END
>  <DRUGBANK_ID>
DB13400

>  <COMMON_NAME>
Linsidomine

>  <CAS_NUMBER>
33876-97-0

>  <UNII>
5O5U71P6VQ

>  <SYNONYMS>
Linsidomina; Linsidomine; Linsidominum

$$$$
