3261
 OpenBabel10282417113D

 32 35  0  0  0  0  0  0  0  0999 V2000
    1.0369   -0.0830    0.0422 Cl  0  0  0  0  0  0  0  0  0  0  0  0
    6.9551   -0.0601    0.1675 N   0  0  0  0  0  0  0  0  0  0  0  0
    6.5848   -3.0734    0.0423 N   0  0  0  0  0  0  0  0  0  0  0  0
    9.0208   -0.6239    0.6566 N   0  0  0  0  0  0  0  0  0  0  0  0
    9.0342    0.6544    0.1536 N   0  0  0  0  0  0  0  0  0  0  0  0
    5.5494   -0.0873    0.0843 C   0  0  0  0  0  0  0  0  0  0  0  0
    4.8579   -1.2863   -0.1540 C   0  0  0  0  0  0  0  0  0  0  0  0
    5.5434   -2.5755   -0.5205 C   0  0  0  0  0  0  0  0  0  0  0  0
    7.7751   -1.0557    0.6390 C   0  0  0  0  0  0  0  0  0  0  0  0
    7.2492   -2.3515    1.1261 C   0  0  0  0  0  0  0  0  0  0  0  0
    4.9375   -3.3326   -1.6515 C   0  0  0  0  0  0  0  0  0  0  0  0
    4.8396    1.1112    0.2806 C   0  0  0  0  0  0  0  0  0  0  0  0
    3.4515   -1.2679   -0.1667 C   0  0  0  0  0  0  0  0  0  0  0  0
    7.7960    0.9761   -0.1373 C   0  0  0  0  0  0  0  0  0  0  0  0
    3.4439    1.1080    0.2741 C   0  0  0  0  0  0  0  0  0  0  0  0
    2.7564   -0.0802    0.0523 C   0  0  0  0  0  0  0  0  0  0  0  0
    4.8126   -2.7147   -2.8997 C   0  0  0  0  0  0  0  0  0  0  0  0
    4.3676   -4.5840   -1.4120 C   0  0  0  0  0  0  0  0  0  0  0  0
    3.9836   -3.2847   -3.8634 C   0  0  0  0  0  0  0  0  0  0  0  0
    3.6045   -5.1862   -2.4125 C   0  0  0  0  0  0  0  0  0  0  0  0
    3.3666   -4.5108   -3.6120 C   0  0  0  0  0  0  0  0  0  0  0  0
    6.5758   -2.2171    1.9822 H   0  0  0  0  0  0  0  0  0  0  0  0
    8.0831   -2.9627    1.4886 H   0  0  0  0  0  0  0  0  0  0  0  0
    5.3472    2.0489    0.5001 H   0  0  0  0  0  0  0  0  0  0  0  0
    2.8846   -2.1776   -0.3559 H   0  0  0  0  0  0  0  0  0  0  0  0
    7.4752    1.9004   -0.5952 H   0  0  0  0  0  0  0  0  0  0  0  0
    2.8997    2.0319    0.4582 H   0  0  0  0  0  0  0  0  0  0  0  0
    5.3332   -1.7855   -3.1148 H   0  0  0  0  0  0  0  0  0  0  0  0
    4.4827   -5.0667   -0.4454 H   0  0  0  0  0  0  0  0  0  0  0  0
    3.8075   -2.7689   -4.8040 H   0  0  0  0  0  0  0  0  0  0  0  0
    3.1717   -6.1700   -2.2493 H   0  0  0  0  0  0  0  0  0  0  0  0
    2.7029   -4.9446   -4.3565 H   0  0  0  0  0  0  0  0  0  0  0  0
  1 16  1  0  0  0  0
  2  6  1  0  0  0  0
  2  9  1  0  0  0  0
  2 14  1  0  0  0  0
  3  8  2  0  0  0  0
  3 10  1  0  0  0  0
  4  5  1  0  0  0  0
  4  9  2  0  0  0  0
  5 14  2  0  0  0  0
  6  7  2  0  0  0  0
  6 12  1  0  0  0  0
  7  8  1  0  0  0  0
  7 13  1  0  0  0  0
  8 11  1  0  0  0  0
  9 10  1  0  0  0  0
 10 22  1  0  0  0  0
 10 23  1  0  0  0  0
 11 17  2  0  0  0  0
 11 18  1  0  0  0  0
 12 15  2  0  0  0  0
 12 24  1  0  0  0  0
 13 16  2  0  0  0  0
 13 25  1  0  0  0  0
 14 26  1  0  0  0  0
 15 16  1  0  0  0  0
 15 27  1  0  0  0  0
 17 19  1  0  0  0  0
 17 28  1  0  0  0  0
 18 20  2  0  0  0  0
 18 29  1  0  0  0  0
 19 21  2  0  0  0  0
 19 30  1  0  0  0  0
 20 21  1  0  0  0  0
 20 31  1  0  0  0  0
 21 32  1  0  0  0  0
M  END
>  <DRUGBANK_ID>
DB01215

>  <SECONDARY_ACCESSION_NUMBERS>
APRD00955

>  <COMMON_NAME>
Estazolam

>  <CAS_NUMBER>
29975-16-4

>  <UNII>
36S3EQV54C

>  <SYNONYMS>
8-chloro-6-phenyl-4H-s-triazolo(4,3-a)(1,4)benzodiazepine; Estazolam; Estazolamum

$$$$
