
 OpenBabel10282417203D

 44 47  0  0  1  0  0  0  0  0999 V2000
    2.5469   -0.0189   -0.0092 C   0  0  0  0  0  0  0  0  0  0  0  0
    1.0493    0.0278    0.0118 C   0  0  0  0  0  0  0  0  0  0  0  0
    0.4154    1.2679    0.0158 C   0  0  0  0  0  0  0  0  0  0  0  0
   -0.9561    1.3138   -0.0202 C   0  0  0  0  0  0  0  0  0  0  0  0
   -1.6814    0.1248   -0.0793 C   0  0  0  0  0  0  0  0  0  0  0  0
   -1.1204   -1.1606   -0.0083 C   0  0  0  0  0  0  0  0  0  0  0  0
    0.2875   -1.1701    0.0144 C   0  0  0  0  0  0  0  0  0  0  0  0
   -1.9504   -2.3770   -0.0196 N   0  0  0  0  0  0  0  0  0  0  0  0
   -1.2829   -3.6907   -0.0078 C   0  0  0  0  0  0  0  0  0  0  0  0
   -3.3886   -2.3826    0.0752 C   0  0  0  0  0  0  0  0  0  0  0  0
   -4.3788   -1.1726    0.7317 S   0  0  0  0  0  0  0  0  0  0  0  0
   -4.0186   -3.5813   -0.4054 O   0  0  0  0  0  0  0  0  0  0  0  0
   -5.4155   -3.8411   -0.1515 C   0  0  0  0  0  0  0  0  0  0  0  0
   -6.4622   -3.0603   -0.6711 C   0  0  0  0  0  0  0  0  0  0  0  0
   -7.7223   -2.9415    0.0503 C   0  0  0  0  0  0  0  0  0  0  0  0
   -7.8524   -3.6083    1.2877 C   0  0  0  0  0  0  0  0  0  0  0  0
   -6.8439   -4.4641    1.5977 C   0  0  0  0  0  0  0  0  0  0  0  0
   -5.6429   -4.6911    0.8841 C   0  0  0  0  0  0  0  0  0  0  0  0
   -7.0775   -5.0795    2.8728 C   0  0  2  0  0  0  0  0  0  0  0  0
   -6.7051   -3.9704    3.9205 C   0  0  0  0  0  0  0  0  0  0  0  0
   -8.0346   -3.1982    4.1432 C   0  0  0  0  0  0  0  0  0  0  0  0
   -8.7703   -3.4626    2.7356 C   0  0  1  0  0  0  0  0  0  0  0  0
   -8.5358   -4.9319    3.2648 C   0  0  0  0  0  0  0  0  0  0  0  0
    2.9190   -0.5479    0.8716 H   0  0  0  0  0  0  0  0  0  0  0  0
    2.8923   -0.5150   -0.9206 H   0  0  0  0  0  0  0  0  0  0  0  0
    2.9684    0.9927    0.0012 H   0  0  0  0  0  0  0  0  0  0  0  0
    0.9749    2.1982    0.0218 H   0  0  0  0  0  0  0  0  0  0  0  0
   -1.4918    2.2587   -0.0277 H   0  0  0  0  0  0  0  0  0  0  0  0
   -2.7317    0.3093   -0.2132 H   0  0  0  0  0  0  0  0  0  0  0  0
    0.8674   -2.0858    0.0184 H   0  0  0  0  0  0  0  0  0  0  0  0
   -1.5880   -4.2436    0.8896 H   0  0  0  0  0  0  0  0  0  0  0  0
   -1.5736   -4.2685   -0.8891 H   0  0  0  0  0  0  0  0  0  0  0  0
   -0.1931   -3.6585    0.0093 H   0  0  0  0  0  0  0  0  0  0  0  0
   -6.2451   -2.4216   -1.5284 H   0  0  0  0  0  0  0  0  0  0  0  0
   -8.4452   -2.2574   -0.3865 H   0  0  0  0  0  0  0  0  0  0  0  0
   -4.9256   -5.3590    1.3122 H   0  0  0  0  0  0  0  0  0  0  0  0
   -7.4583   -6.0423    2.4756 H   0  0  0  0  0  0  0  0  0  0  0  0
   -6.1635   -3.4639    4.7369 H   0  0  0  0  0  0  0  0  0  0  0  0
   -6.2904   -4.7790    4.5310 H   0  0  0  0  0  0  0  0  0  0  0  0
   -7.9738   -2.1336    4.4221 H   0  0  0  0  0  0  0  0  0  0  0  0
   -8.6066   -3.5916    5.0135 H   0  0  0  0  0  0  0  0  0  0  0  0
   -8.4355   -2.4204    2.6092 H   0  0  0  0  0  0  0  0  0  0  0  0
   -9.3413   -5.6589    3.1037 H   0  0  0  0  0  0  0  0  0  0  0  0
   -8.3903   -5.2874    4.3444 H   0  0  0  0  0  0  0  0  0  0  0  0
  1  2  1  0  0  0  0
  1 24  1  0  0  0  0
  1 25  1  0  0  0  0
  1 26  1  0  0  0  0
  2  3  2  0  0  0  0
  2  7  1  0  0  0  0
  3  4  1  0  0  0  0
  3 27  1  0  0  0  0
  4  5  2  0  0  0  0
  4 28  1  0  0  0  0
  5  6  1  0  0  0  0
  5 29  1  0  0  0  0
  6  7  2  0  0  0  0
  6  8  1  0  0  0  0
  7 30  1  0  0  0  0
  8  9  1  0  0  0  0
  8 10  1  0  0  0  0
  9 31  1  0  0  0  0
  9 32  1  0  0  0  0
  9 33  1  0  0  0  0
 10 11  2  0  0  0  0
 10 12  1  0  0  0  0
 12 13  1  0  0  0  0
 13 14  2  0  0  0  0
 13 18  1  0  0  0  0
 14 15  1  0  0  0  0
 14 34  1  0  0  0  0
 15 16  2  0  0  0  0
 15 35  1  0  0  0  0
 16 17  1  0  0  0  0
 16 22  1  0  0  0  0
 17 18  2  0  0  0  0
 17 19  1  0  0  0  0
 18 36  1  0  0  0  0
 19 20  1  0  0  0  0
 19 23  1  0  0  0  0
 19 37  1  6  0  0  0
 20 21  1  0  0  0  0
 20 38  1  0  0  0  0
 20 39  1  0  0  0  0
 21 22  1  0  0  0  0
 21 40  1  0  0  0  0
 21 41  1  0  0  0  0
 22 23  1  0  0  0  0
 22 42  1  1  0  0  0
 23 43  1  0  0  0  0
 23 44  1  0  0  0  0
M  END
>  <DRUGBANK_ID>
DB13360

>  <COMMON_NAME>
Tolciclate

>  <CAS_NUMBER>
50838-36-3

>  <UNII>
T3TZ02X2AZ

>  <SYNONYMS>
Tolciclate

$$$$
