IDZ
 OpenBabel10282417173D

 28 31  0  0  0  0  0  0  0  0999 V2000
    0.9967    1.4067    0.0165 C   0  0  0  0  0  0  0  0  0  0  0  0
    2.2044    0.7006    0.0141 C   0  0  0  0  0  0  0  0  0  0  0  0
    2.2269   -0.6943    0.0223 C   0  0  0  0  0  0  0  0  0  0  0  0
    1.0362   -1.4301    0.0387 C   0  0  0  0  0  0  0  0  0  0  0  0
   -0.1908   -0.7388    0.0418 C   0  0  0  0  0  0  0  0  0  0  0  0
   -1.5683   -1.0879   -0.0121 C   0  0  0  0  0  0  0  0  0  0  0  0
   -2.0965   -2.4836   -0.0235 C   0  0  0  0  0  0  0  0  0  0  0  0
   -1.7642   -3.4249    0.9168 N   0  0  0  0  0  0  0  0  0  0  0  0
   -2.3963   -4.5983    0.6011 C   0  0  0  0  0  0  0  0  0  0  0  0
   -2.4373   -5.8482    1.2219 C   0  0  0  0  0  0  0  0  0  0  0  0
   -3.1978   -6.8380    0.5880 C   0  0  0  0  0  0  0  0  0  0  0  0
   -3.8695   -6.5828   -0.6107 C   0  0  0  0  0  0  0  0  0  0  0  0
   -3.8133   -5.3177   -1.2093 C   0  0  0  0  0  0  0  0  0  0  0  0
   -3.0789   -4.3057   -0.5752 C   0  0  0  0  0  0  0  0  0  0  0  0
   -1.4988    1.0203   -0.0143 N   0  0  0  0  0  0  0  0  0  0  0  0
   -0.1803    0.6518    0.0204 C   0  0  0  0  0  0  0  0  0  0  0  0
   -2.9155   -2.9891   -0.9260 N   0  0  0  0  0  0  0  0  0  0  0  0
   -2.3594   -0.0091   -0.0684 N   0  0  0  0  0  0  0  0  0  0  0  0
    0.9826    2.4915   -0.0074 H   0  0  0  0  0  0  0  0  0  0  0  0
    3.1436    1.2499   -0.0086 H   0  0  0  0  0  0  0  0  0  0  0  0
    3.1797   -1.2184   -0.0021 H   0  0  0  0  0  0  0  0  0  0  0  0
    1.0666   -2.5153    0.0039 H   0  0  0  0  0  0  0  0  0  0  0  0
   -1.2140   -3.2471    1.7452 H   0  0  0  0  0  0  0  0  0  0  0  0
   -1.9160   -6.0486    2.1516 H   0  0  0  0  0  0  0  0  0  0  0  0
   -3.2677   -7.8269    1.0372 H   0  0  0  0  0  0  0  0  0  0  0  0
   -4.4522   -7.3704   -1.0823 H   0  0  0  0  0  0  0  0  0  0  0  0
   -4.3318   -5.1106   -2.1387 H   0  0  0  0  0  0  0  0  0  0  0  0
   -1.8763    1.9607   -0.0224 H   0  0  0  0  0  0  0  0  0  0  0  0
  1  2  2  0  0  0  0
  1 16  1  0  0  0  0
  1 19  1  0  0  0  0
  2  3  1  0  0  0  0
  2 20  1  0  0  0  0
  3  4  2  0  0  0  0
  3 21  1  0  0  0  0
  4  5  1  0  0  0  0
  4 22  1  0  0  0  0
  5  6  1  0  0  0  0
  5 16  2  0  0  0  0
  6  7  1  0  0  0  0
  6 18  2  0  0  0  0
  7  8  1  0  0  0  0
  7 17  2  0  0  0  0
  8  9  1  0  0  0  0
  8 23  1  0  0  0  0
  9 10  2  0  0  0  0
  9 14  1  0  0  0  0
 10 11  1  0  0  0  0
 10 24  1  0  0  0  0
 11 12  2  0  0  0  0
 11 25  1  0  0  0  0
 12 13  1  0  0  0  0
 12 26  1  0  0  0  0
 13 14  2  0  0  0  0
 13 27  1  0  0  0  0
 14 17  1  0  0  0  0
 15 16  1  0  0  0  0
 15 18  1  0  0  0  0
 15 28  1  0  0  0  0
M  END
>  <DRUGBANK_ID>
DB07959

>  <COMMON_NAME>
3-(1H-BENZIMIDAZOL-2-YL)-1H-INDAZOLE

$$$$
