
 OpenBabel10282417243D

 51 53  0  0  0  0  0  0  0  0999 V2000
    1.0465    0.0461   -0.2659 O   0  0  0  0  0  0  0  0  0  0  0  0
    2.2599   -0.0178    0.0099 C   0  0  0  0  0  0  0  0  0  0  0  0
    3.1229   -0.0720   -1.0595 N   0  0  0  0  0  0  0  0  0  0  0  0
    4.4959   -0.0416   -1.2253 N   0  0  0  0  0  0  0  0  0  0  0  0
    5.3047   -0.1399   -0.2481 C   0  0  0  0  0  0  0  0  0  0  0  0
    6.7637   -0.1214   -0.2633 C   0  0  0  0  0  0  0  0  0  0  0  0
    7.4336    0.7610   -1.0750 C   0  0  0  0  0  0  0  0  0  0  0  0
    8.8294    0.8421   -0.9888 C   0  0  0  0  0  0  0  0  0  0  0  0
    9.2826    1.7742   -1.8914 O   0  0  0  0  0  0  0  0  0  0  0  0
   10.6746    1.9363   -2.0444 C   0  0  0  0  0  0  0  0  0  0  0  0
    9.5497    0.0308   -0.0569 C   0  0  0  0  0  0  0  0  0  0  0  0
   11.4824    0.1147    0.0269 Br  0  0  0  0  0  0  0  0  0  0  0  0
    8.8319   -0.8350    0.8098 C   0  0  0  0  0  0  0  0  0  0  0  0
    9.2841   -1.6874    1.7943 O   0  0  0  0  0  0  0  0  0  0  0  0
   10.6820   -1.8282    1.9856 C   0  0  0  0  0  0  0  0  0  0  0  0
    7.4343   -0.8805    0.7042 C   0  0  0  0  0  0  0  0  0  0  0  0
    2.7032   -0.0165    1.4853 C   0  0  3  0  0  0  0  0  0  0  0  0
    2.5329    1.2970    2.2253 C   0  0  0  0  0  0  0  0  0  0  0  0
    2.5484    1.2789    3.6341 C   0  0  0  0  0  0  0  0  0  0  0  0
    2.5310    2.4539    4.3651 C   0  0  0  0  0  0  0  0  0  0  0  0
    2.5343    3.6564    3.6675 C   0  0  0  0  0  0  0  0  0  0  0  0
    2.3255    4.8578    4.3544 N   0  0  0  0  0  0  0  0  0  0  0  0
    2.9994    5.1959    5.4739 N   0  0  0  0  0  0  0  0  0  0  0  0
    2.5834    6.4416    5.7241 C   0  0  0  0  0  0  0  0  0  0  0  0
    1.5491    6.8511    4.8644 C   0  0  0  0  0  0  0  0  0  0  0  0
    1.3981    5.8047    3.9937 C   0  0  0  0  0  0  0  0  0  0  0  0
    2.6194    3.7005    2.2703 C   0  0  0  0  0  0  0  0  0  0  0  0
    2.6010    2.5205    1.5456 C   0  0  0  0  0  0  0  0  0  0  0  0
    2.3882   -1.1988    2.2127 O   0  0  0  0  0  0  0  0  0  0  0  0
    1.0101   -1.3181    2.4875 C   0  0  0  0  0  0  0  0  0  0  0  0
    2.6125   -0.0742   -1.9416 H   0  0  0  0  0  0  0  0  0  0  0  0
    5.0539   -0.2588    0.7871 H   0  0  0  0  0  0  0  0  0  0  0  0
    6.8700    1.4143   -1.7385 H   0  0  0  0  0  0  0  0  0  0  0  0
   11.0917    2.3570   -1.1235 H   0  0  0  0  0  0  0  0  0  0  0  0
   11.1223    0.9903   -2.3695 H   0  0  0  0  0  0  0  0  0  0  0  0
   10.8998    2.6575   -2.8255 H   0  0  0  0  0  0  0  0  0  0  0  0
   11.1442   -2.2161    1.0701 H   0  0  0  0  0  0  0  0  0  0  0  0
   11.0980   -0.8810    2.3468 H   0  0  0  0  0  0  0  0  0  0  0  0
   10.9196   -2.5569    2.7599 H   0  0  0  0  0  0  0  0  0  0  0  0
    6.8635   -1.5124    1.3909 H   0  0  0  0  0  0  0  0  0  0  0  0
    3.7512   -0.0474    1.5884 H   0  0  0  0  0  0  0  0  0  0  0  0
    2.5671    0.3282    4.1646 H   0  0  0  0  0  0  0  0  0  0  0  0
    2.4522    2.4099    5.4474 H   0  0  0  0  0  0  0  0  0  0  0  0
    3.0326    6.9940    6.5386 H   0  0  0  0  0  0  0  0  0  0  0  0
    0.9818    7.7689    4.8734 H   0  0  0  0  0  0  0  0  0  0  0  0
    0.7034    5.6191    3.1860 H   0  0  0  0  0  0  0  0  0  0  0  0
    2.7403    4.6478    1.7493 H   0  0  0  0  0  0  0  0  0  0  0  0
    2.6636    2.5735    0.4599 H   0  0  0  0  0  0  0  0  0  0  0  0
    0.6465   -0.4432    3.0285 H   0  0  0  0  0  0  0  0  0  0  0  0
    0.4491   -1.4500    1.5649 H   0  0  0  0  0  0  0  0  0  0  0  0
    0.8826   -2.1940    3.1229 H   0  0  0  0  0  0  0  0  0  0  0  0
  1  2  2  0  0  0  0
  2  3  1  0  0  0  0
  2 17  1  0  0  0  0
  3  4  1  0  0  0  0
  3 31  1  0  0  0  0
  4  5  2  0  0  0  0
  5  6  1  0  0  0  0
  5 32  1  0  0  0  0
  6  7  2  0  0  0  0
  6 16  1  0  0  0  0
  7  8  1  0  0  0  0
  7 33  1  0  0  0  0
  8  9  1  0  0  0  0
  8 11  2  0  0  0  0
  9 10  1  0  0  0  0
 10 34  1  0  0  0  0
 10 35  1  0  0  0  0
 10 36  1  0  0  0  0
 11 12  1  0  0  0  0
 11 13  1  0  0  0  0
 13 14  1  0  0  0  0
 13 16  2  0  0  0  0
 14 15  1  0  0  0  0
 15 37  1  0  0  0  0
 15 38  1  0  0  0  0
 15 39  1  0  0  0  0
 16 40  1  0  0  0  0
 17 18  1  0  0  0  0
 17 29  1  0  0  0  0
 17 41  1  0  0  0  0
 18 19  2  0  0  0  0
 18 28  1  0  0  0  0
 19 20  1  0  0  0  0
 19 42  1  0  0  0  0
 20 21  2  0  0  0  0
 20 43  1  0  0  0  0
 21 22  1  0  0  0  0
 21 27  1  0  0  0  0
 22 23  1  0  0  0  0
 22 26  1  0  0  0  0
 23 24  2  0  0  0  0
 24 25  1  0  0  0  0
 24 44  1  0  0  0  0
 25 26  2  0  0  0  0
 25 45  1  0  0  0  0
 26 46  1  0  0  0  0
 27 28  2  0  0  0  0
 27 47  1  0  0  0  0
 28 48  1  0  0  0  0
 29 30  1  0  0  0  0
 30 49  1  0  0  0  0
 30 50  1  0  0  0  0
 30 51  1  0  0  0  0
M  END
>  <DRUGBANK_ID>
DB17874

>  <COMMON_NAME>
OMS-824

>  <CAS_NUMBER>
1207549-69-6

$$$$
