HTF
 OpenBabel10282417173D

 37 37  0  0  0  0  0  0  0  0999 V2000
    1.2180    0.4361    0.1731 C   0  0  0  0  0  0  0  0  0  0  0  0
    0.7984    0.8311   -1.2393 C   0  0  0  0  0  0  0  0  0  0  0  0
    1.2887   -0.0837   -2.3446 C   0  0  0  0  0  0  0  0  0  0  0  0
    0.6180   -1.3622   -2.1211 C   0  0  0  0  0  0  0  0  0  0  0  0
   -1.0742   -1.0887   -2.2321 C   0  0  0  0  0  0  0  0  0  0  0  0
   -1.6033   -1.4492   -3.6144 C   0  0  0  0  0  0  0  0  0  0  0  0
   -1.0718   -2.7628   -4.3125 C   0  0  0  0  0  0  0  0  0  0  0  0
   -1.4958   -4.2739   -3.8961 C   0  0  0  0  0  0  0  0  0  0  0  0
   -2.3085   -4.8511   -4.6347 O   0  0  0  0  0  0  0  0  0  0  0  0
   -1.0338   -5.0393   -2.7970 N   0  0  0  0  0  0  0  0  0  0  0  0
   -0.3120   -4.6621   -1.5070 C   0  0  2  0  0  0  0  0  0  0  0  0
   -0.6484   -4.9569   -0.0319 C   0  0  0  0  0  0  0  0  0  0  0  0
   -0.7572   -6.1059    0.4554 O   0  0  0  0  0  0  0  0  0  0  0  0
   -0.8832   -3.8627    0.7710 O   0  0  0  0  0  0  0  0  0  0  0  0
   -0.6067   -2.7436   -0.0063 C   0  0  0  0  0  0  0  0  0  0  0  0
   -0.8762   -3.3565   -1.3468 C   0  0  0  0  0  0  0  0  0  0  0  0
    0.7738   -4.6016   -1.7093 H   0  0  0  0  0  0  0  0  0  0  0  0
    0.7623   -0.4739    0.5774 H   0  0  0  0  0  0  0  0  0  0  0  0
    0.8876    1.2204    0.8551 H   0  0  0  0  0  0  0  0  0  0  0  0
    2.2972    0.2969    0.2203 H   0  0  0  0  0  0  0  0  0  0  0  0
   -0.2816    0.9052   -1.2012 H   0  0  0  0  0  0  0  0  0  0  0  0
    1.1013    1.8335   -1.5013 H   0  0  0  0  0  0  0  0  0  0  0  0
    0.9666    0.1740   -3.3540 H   0  0  0  0  0  0  0  0  0  0  0  0
    2.3754   -0.2302   -2.3416 H   0  0  0  0  0  0  0  0  0  0  0  0
    1.0291   -2.0779   -2.8564 H   0  0  0  0  0  0  0  0  0  0  0  0
    1.0930   -1.7833   -1.2195 H   0  0  0  0  0  0  0  0  0  0  0  0
   -1.8060   -1.6089   -1.6016 H   0  0  0  0  0  0  0  0  0  0  0  0
   -1.4535   -0.1660   -1.7947 H   0  0  0  0  0  0  0  0  0  0  0  0
   -2.6999   -1.4959   -3.5572 H   0  0  0  0  0  0  0  0  0  0  0  0
   -1.3480   -0.5609   -4.2002 H   0  0  0  0  0  0  0  0  0  0  0  0
   -1.4363   -2.6410   -5.3483 H   0  0  0  0  0  0  0  0  0  0  0  0
    0.0136   -2.7287   -4.4378 H   0  0  0  0  0  0  0  0  0  0  0  0
   -1.6092   -5.8634   -2.6750 H   0  0  0  0  0  0  0  0  0  0  0  0
    0.4067   -2.4416    0.2528 H   0  0  0  0  0  0  0  0  0  0  0  0
   -1.2209   -1.8503    0.2280 H   0  0  0  0  0  0  0  0  0  0  0  0
   -0.3962   -2.9934   -2.2175 H   0  0  0  0  0  0  0  0  0  0  0  0
   -1.9539   -3.3998   -1.5718 H   0  0  0  0  0  0  0  0  0  0  0  0
  1  2  1  0  0  0  0
  1 18  1  0  0  0  0
  1 19  1  0  0  0  0
  1 20  1  0  0  0  0
  2  3  1  0  0  0  0
  2 21  1  0  0  0  0
  2 22  1  0  0  0  0
  3  4  1  0  0  0  0
  3 23  1  0  0  0  0
  3 24  1  0  0  0  0
  4  5  1  0  0  0  0
  4 25  1  0  0  0  0
  4 26  1  0  0  0  0
  5  6  1  0  0  0  0
  5 27  1  0  0  0  0
  5 28  1  0  0  0  0
  6  7  1  0  0  0  0
  6 29  1  0  0  0  0
  6 30  1  0  0  0  0
  7  8  1  0  0  0  0
  7 31  1  0  0  0  0
  7 32  1  0  0  0  0
  8  9  2  0  0  0  0
  8 10  1  0  0  0  0
 10 33  1  0  0  0  0
 11 10  1  0  0  0  0
 11 12  1  0  0  0  0
 11 16  1  0  0  0  0
 11 17  1  6  0  0  0
 12 13  2  0  0  0  0
 12 14  1  0  0  0  0
 14 15  1  0  0  0  0
 15 16  1  0  0  0  0
 15 34  1  0  0  0  0
 15 35  1  0  0  0  0
 16 36  1  0  0  0  0
 16 37  1  0  0  0  0
M  END
>  <DRUGBANK_ID>
DB07928

>  <COMMON_NAME>
N-(2-OXOTETRAHYDROFURAN-3-YL)OCTANAMIDE

$$$$
