STB
 OpenBabel10282417133D

 39 39  0  0  0  0  0  0  0  0999 V2000
    1.2845   -0.2155   -0.0171 C   0  0  0  0  0  0  0  0  0  0  0  0
    0.3120   -1.2003   -0.1903 C   0  0  0  0  0  0  0  0  0  0  0  0
   -1.0441   -0.9759   -0.0651 C   0  0  0  0  0  0  0  0  0  0  0  0
   -1.4838    0.3247   -0.0028 C   0  0  0  0  0  0  0  0  0  0  0  0
   -0.5551    1.3751    0.0447 C   0  0  0  0  0  0  0  0  0  0  0  0
    0.8289    1.1044    0.0317 C   0  0  0  0  0  0  0  0  0  0  0  0
    2.7486   -0.5111    0.1377 C   0  0  0  0  0  0  0  0  0  0  0  0
    3.5674    0.4071    0.1701 O   0  0  0  0  0  0  0  0  0  0  0  0
    3.2182   -1.7897    0.3206 N   0  0  0  0  0  0  0  0  0  0  0  0
    2.5354   -3.0633    0.3785 C   0  0  0  0  0  0  0  0  0  0  0  0
    2.8070   -3.8815   -0.8822 C   0  0  0  0  0  0  0  0  0  0  0  0
    4.1979   -4.5081   -0.7850 C   0  0  0  0  0  0  0  0  0  0  0  0
    4.3551   -5.3222    0.5021 C   0  0  0  0  0  0  0  0  0  0  0  0
    3.3438   -6.3727    0.5914 N   0  0  0  0  0  0  0  0  0  0  0  0
    3.4011   -7.1065    1.8425 C   0  0  0  0  0  0  0  0  0  0  0  0
    2.8455   -6.1295    3.2623 S   0  0  0  0  0  0  0  0  0  0  0  0
   -3.2091    0.6400   -0.1967 S   0  0  0  0  0  0  0  0  0  0  0  0
   -3.7036    1.1997    1.0450 O   0  0  0  0  0  0  0  0  0  0  0  0
   -3.3987    1.2641   -1.4763 O   0  0  0  0  0  0  0  0  0  0  0  0
   -3.9209   -0.8960   -0.3082 N   0  0  0  0  0  0  0  0  0  0  0  0
    0.5253   -2.1896   -0.5463 H   0  0  0  0  0  0  0  0  0  0  0  0
   -1.7040   -1.8343   -0.1178 H   0  0  0  0  0  0  0  0  0  0  0  0
   -0.8994    2.4047    0.0874 H   0  0  0  0  0  0  0  0  0  0  0  0
    1.5436    1.9277    0.0129 H   0  0  0  0  0  0  0  0  0  0  0  0
    4.2274   -1.8115    0.4380 H   0  0  0  0  0  0  0  0  0  0  0  0
    2.8121   -3.5312    1.3173 H   0  0  0  0  0  0  0  0  0  0  0  0
    1.4812   -3.0069    0.5718 H   0  0  0  0  0  0  0  0  0  0  0  0
    2.0436   -4.6615   -0.9911 H   0  0  0  0  0  0  0  0  0  0  0  0
    2.7267   -3.2735   -1.7941 H   0  0  0  0  0  0  0  0  0  0  0  0
    4.4020   -5.1308   -1.6618 H   0  0  0  0  0  0  0  0  0  0  0  0
    4.9451   -3.7041   -0.7839 H   0  0  0  0  0  0  0  0  0  0  0  0
    5.3641   -5.7316    0.5664 H   0  0  0  0  0  0  0  0  0  0  0  0
    4.2903   -4.6385    1.3494 H   0  0  0  0  0  0  0  0  0  0  0  0
    2.3965   -6.0161    0.4859 H   0  0  0  0  0  0  0  0  0  0  0  0
    2.7176   -7.9567    1.7619 H   0  0  0  0  0  0  0  0  0  0  0  0
    4.4052   -7.5065    2.0033 H   0  0  0  0  0  0  0  0  0  0  0  0
    3.8075   -5.1945    3.2185 H   0  0  0  0  0  0  0  0  0  0  0  0
   -3.8493   -1.4181    0.5643 H   0  0  0  0  0  0  0  0  0  0  0  0
   -4.8998   -0.7806   -0.5817 H   0  0  0  0  0  0  0  0  0  0  0  0
  1  2  2  0  0  0  0
  1  6  1  0  0  0  0
  1  7  1  0  0  0  0
  2  3  1  0  0  0  0
  2 21  1  0  0  0  0
  3  4  2  0  0  0  0
  3 22  1  0  0  0  0
  4  5  1  0  0  0  0
  4 17  1  0  0  0  0
  5  6  2  0  0  0  0
  5 23  1  0  0  0  0
  6 24  1  0  0  0  0
  7  8  2  0  0  0  0
  7  9  1  0  0  0  0
  9 10  1  0  0  0  0
  9 25  1  0  0  0  0
 10 11  1  0  0  0  0
 10 26  1  0  0  0  0
 10 27  1  0  0  0  0
 11 12  1  0  0  0  0
 11 28  1  0  0  0  0
 11 29  1  0  0  0  0
 12 13  1  0  0  0  0
 12 30  1  0  0  0  0
 12 31  1  0  0  0  0
 13 14  1  0  0  0  0
 13 32  1  0  0  0  0
 13 33  1  0  0  0  0
 14 15  1  0  0  0  0
 14 34  1  0  0  0  0
 15 16  1  0  0  0  0
 15 35  1  0  0  0  0
 15 36  1  0  0  0  0
 16 37  1  0  0  0  0
 17 18  2  0  0  0  0
 17 19  2  0  0  0  0
 17 20  1  0  0  0  0
 20 38  1  0  0  0  0
 20 39  1  0  0  0  0
M  END
>  <DRUGBANK_ID>
DB04002

>  <SECONDARY_ACCESSION_NUMBERS>
EXPT02964

>  <COMMON_NAME>
4-Sulfonamide-[4-(Thiomethylaminobutane)]Benzamide

$$$$
