
 OpenBabel10282417203D

 57 57  0  0  0  0  0  0  0  0999 V2000
    1.3255   -0.0209   -0.0165 C   0  0  0  0  0  0  0  0  0  0  0  0
    1.2008    1.1384   -0.9892 C   0  0  0  0  0  0  0  0  0  0  0  0
    1.0314    0.7361   -2.4236 N   0  0  0  0  0  0  0  0  0  0  0  0
    0.0317    0.4763   -3.3410 C   0  0  0  0  0  0  0  0  0  0  0  0
    0.4061    0.1649   -4.4820 O   0  0  0  0  0  0  0  0  0  0  0  0
   -1.4895    0.5306   -3.1392 C   0  0  0  0  0  0  0  0  0  0  0  0
   -2.2298    0.8278   -2.0384 C   0  0  0  0  0  0  0  0  0  0  0  0
   -1.6591    1.1648   -0.7602 C   0  0  0  0  0  0  0  0  0  0  0  0
   -3.6033    0.8897   -1.7747 C   0  0  0  0  0  0  0  0  0  0  0  0
   -4.4669    0.6304   -2.7456 C   0  0  0  0  0  0  0  0  0  0  0  0
   -5.8267    0.7061   -2.4601 C   0  0  0  0  0  0  0  0  0  0  0  0
   -6.7085    0.4540   -3.4241 C   0  0  0  0  0  0  0  0  0  0  0  0
   -6.3360    0.0770   -4.8450 C   0  0  0  0  0  0  0  0  0  0  0  0
   -8.1036    0.5363   -3.1267 C   0  0  0  0  0  0  0  0  0  0  0  0
   -8.7191    0.8400   -1.9704 C   0  0  0  0  0  0  0  0  0  0  0  0
  -10.1794    0.9037   -1.6933 C   0  0  0  0  0  0  0  0  0  0  0  0
  -11.1486    0.6466   -2.6854 C   0  0  0  0  0  0  0  0  0  0  0  0
  -12.5082    0.7006   -2.3523 C   0  0  0  0  0  0  0  0  0  0  0  0
  -12.9674    1.0170   -1.0646 C   0  0  0  0  0  0  0  0  0  0  0  0
  -12.0304    1.2899   -0.0530 C   0  0  0  0  0  0  0  0  0  0  0  0
  -10.6295    1.2300   -0.3714 C   0  0  0  0  0  0  0  0  0  0  0  0
   -9.6166    1.5219    0.7312 C   0  0  0  0  0  0  0  0  0  0  0  0
  -12.3645    1.6480    1.3738 C   0  0  0  0  0  0  0  0  0  0  0  0
  -14.3389    1.0053   -1.0150 O   0  0  0  0  0  0  0  0  0  0  0  0
  -14.9772    1.3081    0.2080 C   0  0  0  0  0  0  0  0  0  0  0  0
  -10.8208    0.3079   -4.1135 C   0  0  0  0  0  0  0  0  0  0  0  0
    0.7563   -0.8964   -0.3596 H   0  0  0  0  0  0  0  0  0  0  0  0
    0.8461    0.2544    0.9394 H   0  0  0  0  0  0  0  0  0  0  0  0
    2.3592   -0.2787    0.1859 H   0  0  0  0  0  0  0  0  0  0  0  0
    0.3820    1.5978   -0.4757 H   0  0  0  0  0  0  0  0  0  0  0  0
    1.6997    2.1078   -0.9248 H   0  0  0  0  0  0  0  0  0  0  0  0
    1.9249    0.6051   -2.8882 H   0  0  0  0  0  0  0  0  0  0  0  0
   -1.9932    0.2740   -4.0734 H   0  0  0  0  0  0  0  0  0  0  0  0
   -1.6468    2.2123   -0.4478 H   0  0  0  0  0  0  0  0  0  0  0  0
   -1.6579    0.4224    0.0360 H   0  0  0  0  0  0  0  0  0  0  0  0
   -0.7666    0.9928   -1.2332 H   0  0  0  0  0  0  0  0  0  0  0  0
   -3.9589    1.1506   -0.7792 H   0  0  0  0  0  0  0  0  0  0  0  0
   -4.0757    0.3782   -3.7071 H   0  0  0  0  0  0  0  0  0  0  0  0
   -6.1171    0.9741   -1.4490 H   0  0  0  0  0  0  0  0  0  0  0  0
   -6.7193   -0.9167   -5.0906 H   0  0  0  0  0  0  0  0  0  0  0  0
   -6.7187    0.8189   -5.5505 H   0  0  0  0  0  0  0  0  0  0  0  0
   -5.2658    0.0222   -5.0504 H   0  0  0  0  0  0  0  0  0  0  0  0
   -8.6121    0.2995   -4.0337 H   0  0  0  0  0  0  0  0  0  0  0  0
   -8.0979    1.0646   -1.1112 H   0  0  0  0  0  0  0  0  0  0  0  0
  -13.2371    0.4861   -3.1340 H   0  0  0  0  0  0  0  0  0  0  0  0
   -8.9851    0.6466    0.9102 H   0  0  0  0  0  0  0  0  0  0  0  0
   -9.0126    2.3965    0.4719 H   0  0  0  0  0  0  0  0  0  0  0  0
  -10.0575    1.7574    1.7014 H   0  0  0  0  0  0  0  0  0  0  0  0
  -11.9576    0.8858    2.0451 H   0  0  0  0  0  0  0  0  0  0  0  0
  -11.9877    2.6514    1.5943 H   0  0  0  0  0  0  0  0  0  0  0  0
  -13.3928    1.7079    1.6810 H   0  0  0  0  0  0  0  0  0  0  0  0
  -14.7206    0.5496    0.9576 H   0  0  0  0  0  0  0  0  0  0  0  0
  -14.7480    2.3402    0.5007 H   0  0  0  0  0  0  0  0  0  0  0  0
  -16.0618    1.2658    0.1063 H   0  0  0  0  0  0  0  0  0  0  0  0
  -10.2645    1.1402   -4.5659 H   0  0  0  0  0  0  0  0  0  0  0  0
  -10.2664   -0.6394   -4.1435 H   0  0  0  0  0  0  0  0  0  0  0  0
  -11.6882    0.1552   -4.7539 H   0  0  0  0  0  0  0  0  0  0  0  0
  1  2  1  0  0  0  0
  1 27  1  0  0  0  0
  1 28  1  0  0  0  0
  1 29  1  0  0  0  0
  2  3  1  0  0  0  0
  2 30  1  0  0  0  0
  2 31  1  0  0  0  0
  3  4  1  0  0  0  0
  3 32  1  0  0  0  0
  4  5  2  0  0  0  0
  4  6  1  0  0  0  0
  6  7  2  0  0  0  0
  6 33  1  0  0  0  0
  7  8  1  0  0  0  0
  7  9  1  0  0  0  0
  8 34  1  0  0  0  0
  8 35  1  0  0  0  0
  8 36  1  0  0  0  0
  9 10  2  0  0  0  0
  9 37  1  0  0  0  0
 10 11  1  0  0  0  0
 10 38  1  0  0  0  0
 11 12  2  0  0  0  0
 11 39  1  0  0  0  0
 12 13  1  0  0  0  0
 12 14  1  0  0  0  0
 13 40  1  0  0  0  0
 13 41  1  0  0  0  0
 13 42  1  0  0  0  0
 14 15  2  0  0  0  0
 14 43  1  0  0  0  0
 15 16  1  0  0  0  0
 15 44  1  0  0  0  0
 16 17  2  0  0  0  0
 16 21  1  0  0  0  0
 17 18  1  0  0  0  0
 17 26  1  0  0  0  0
 18 19  2  0  0  0  0
 18 45  1  0  0  0  0
 19 20  1  0  0  0  0
 19 24  1  0  0  0  0
 20 21  2  0  0  0  0
 20 23  1  0  0  0  0
 21 22  1  0  0  0  0
 22 46  1  0  0  0  0
 22 47  1  0  0  0  0
 22 48  1  0  0  0  0
 23 49  1  0  0  0  0
 23 50  1  0  0  0  0
 23 51  1  0  0  0  0
 24 25  1  0  0  0  0
 25 52  1  0  0  0  0
 25 53  1  0  0  0  0
 25 54  1  0  0  0  0
 26 55  1  0  0  0  0
 26 56  1  0  0  0  0
 26 57  1  0  0  0  0
M  END
>  <DRUGBANK_ID>
DB13368

>  <COMMON_NAME>
Motretinide

>  <CAS_NUMBER>
56281-36-8

>  <UNII>
W786807KL1

>  <SYNONYMS>
Motretinide

$$$$
