
 OpenBabel10282417113D

 67 71  0  0  0  0  0  0  0  0999 V2000
    1.6169    1.3949   -1.8220 C   0  0  0  0  0  0  0  0  0  0  0  0
    1.7259    2.8143   -3.1442 C   0  0  0  0  0  0  0  0  0  0  0  0
    0.2262    4.9157   -5.2183 C   0  0  0  0  0  0  0  0  0  0  0  0
   -0.3979    3.9524   -4.1496 C   0  0  0  0  0  0  0  0  0  0  0  0
    0.3644    3.2858   -3.0495 C   0  0  0  0  0  0  0  0  0  0  0  0
   -0.1265    3.3255   -1.8003 C   0  0  0  0  0  0  0  0  0  0  0  0
    0.7367    1.6681   -0.3383 C   0  0  0  0  0  0  0  0  0  0  0  0
    0.8684    3.0378   -0.7263 C   0  0  0  0  0  0  0  0  0  0  0  0
    1.7896    5.0312   -5.3109 C   0  0  2  0  0  0  0  0  0  0  0  0
    2.4314    3.8463   -4.0136 C   0  0  0  0  0  0  0  0  0  0  0  0
    4.3999    7.3354   -6.9646 C   0  0  0  0  0  0  0  0  0  0  0  0
    3.5458    8.3114   -5.6701 C   0  0  1  0  0  0  0  0  0  0  0  0
    4.1190    5.8264   -4.3179 C   0  0  0  0  0  0  0  0  0  0  0  0
    4.9391    8.4263   -6.0190 C   0  0  0  0  0  0  0  0  0  0  0  0
    3.9208    4.2435   -4.1483 C   0  0  2  0  0  0  0  0  0  0  0  0
    1.9567    3.5848   -0.5416 O   0  0  0  0  0  0  0  0  0  0  0  0
    1.7919    4.3583   -6.1644 H   0  0  0  0  0  0  0  0  0  0  0  0
    3.7044    6.4683   -5.6165 C   0  0  2  0  0  0  0  0  0  0  0  0
    3.8432    5.3565   -7.1616 C   0  0  0  0  0  0  0  0  0  0  0  0
    2.6024    6.4811   -6.4055 C   0  0  2  0  0  0  0  0  0  0  0  0
    1.7827    7.2061   -6.4044 H   0  0  0  0  0  0  0  0  0  0  0  0
    4.5476    3.4765   -5.3168 C   0  0  0  0  0  0  0  0  0  0  0  0
    3.1908    8.9677   -4.4951 O   0  0  0  0  0  0  0  0  0  0  0  0
    4.2005    2.1960   -7.3828 C   0  0  0  0  0  0  0  0  0  0  0  0
    5.5140    2.3685   -7.7940 C   0  0  0  0  0  0  0  0  0  0  0  0
    6.3456    3.0968   -6.9111 C   0  0  0  0  0  0  0  0  0  0  0  0
    5.8733    3.6729   -5.7104 C   0  0  0  0  0  0  0  0  0  0  0  0
    3.7424    2.7014   -6.1769 C   0  0  0  0  0  0  0  0  0  0  0  0
    5.9412    1.8762   -9.0135 N   0  0  0  0  0  0  0  0  0  0  0  0
    5.0606    1.1570   -9.9289 C   0  0  0  0  0  0  0  0  0  0  0  0
    7.3396    1.9844   -9.3878 C   0  0  0  0  0  0  0  0  0  0  0  0
    2.7666    9.0162   -6.9462 C   0  0  0  0  0  0  0  0  0  0  0  0
    2.2490    9.3197   -8.0531 C   0  0  0  0  0  0  0  0  0  0  0  0
    1.6059    9.6307   -9.3387 C   0  0  0  0  0  0  0  0  0  0  0  0
    1.0299    0.4881   -2.1475 H   0  0  0  0  0  0  0  0  0  0  0  0
    2.5402    0.9590   -1.3913 H   0  0  0  0  0  0  0  0  0  0  0  0
   -0.2592    5.8933   -5.1569 H   0  0  0  0  0  0  0  0  0  0  0  0
   -0.1487    4.5019   -6.1744 H   0  0  0  0  0  0  0  0  0  0  0  0
   -1.0944    4.6036   -3.6087 H   0  0  0  0  0  0  0  0  0  0  0  0
   -1.0143    3.1910   -4.6424 H   0  0  0  0  0  0  0  0  0  0  0  0
   -1.1667    3.0440   -1.6806 H   0  0  0  0  0  0  0  0  0  0  0  0
   -0.3427    1.4028   -0.2493 H   0  0  0  0  0  0  0  0  0  0  0  0
    1.1657    1.6338    0.6884 H   0  0  0  0  0  0  0  0  0  0  0  0
    4.7401    7.6341   -7.9948 H   0  0  0  0  0  0  0  0  0  0  0  0
    5.3150    6.6641   -6.8830 H   0  0  0  0  0  0  0  0  0  0  0  0
    5.1974    6.0393   -4.2790 H   0  0  0  0  0  0  0  0  0  0  0  0
    3.6930    6.4115   -3.4898 H   0  0  0  0  0  0  0  0  0  0  0  0
    5.2979    9.3691   -6.4461 H   0  0  0  0  0  0  0  0  0  0  0  0
    5.6697    8.0571   -5.2841 H   0  0  0  0  0  0  0  0  0  0  0  0
    4.4573    3.9959   -3.2335 H   0  0  0  0  0  0  0  0  0  0  0  0
    3.1466    4.5464   -7.2199 H   0  0  0  0  0  0  0  0  0  0  0  0
    3.5204    5.8745   -8.1254 H   0  0  0  0  0  0  0  0  0  0  0  0
    4.8529    5.0473   -7.3863 H   0  0  0  0  0  0  0  0  0  0  0  0
    2.4060    9.4872   -4.7484 H   0  0  0  0  0  0  0  0  0  0  0  0
    3.4364    1.7249   -7.9861 H   0  0  0  0  0  0  0  0  0  0  0  0
    7.3853    3.2833   -7.1598 H   0  0  0  0  0  0  0  0  0  0  0  0
    6.5138    4.3730   -5.1765 H   0  0  0  0  0  0  0  0  0  0  0  0
    2.6578    2.6671   -6.0914 H   0  0  0  0  0  0  0  0  0  0  0  0
    5.0715    1.6367  -10.9117 H   0  0  0  0  0  0  0  0  0  0  0  0
    5.3846    0.1171  -10.0242 H   0  0  0  0  0  0  0  0  0  0  0  0
    4.0078    1.1191   -9.6452 H   0  0  0  0  0  0  0  0  0  0  0  0
    7.6243    3.0348   -9.5130 H   0  0  0  0  0  0  0  0  0  0  0  0
    7.9821    1.5222   -8.6301 H   0  0  0  0  0  0  0  0  0  0  0  0
    7.5352    1.4748  -10.3360 H   0  0  0  0  0  0  0  0  0  0  0  0
    2.3136    9.8328  -10.1565 H   0  0  0  0  0  0  0  0  0  0  0  0
    0.9299    8.8414   -9.7041 H   0  0  0  0  0  0  0  0  0  0  0  0
    0.9969   10.5312   -9.2127 H   0  0  0  0  0  0  0  0  0  0  0  0
  1  7  1  0  0  0  0
  1 35  1  0  0  0  0
  1 36  1  0  0  0  0
  2  1  1  0  0  0  0
  2  5  1  0  0  0  0
  3  4  1  0  0  0  0
  3 37  1  0  0  0  0
  3 38  1  0  0  0  0
  4  5  1  0  0  0  0
  4 39  1  0  0  0  0
  4 40  1  0  0  0  0
  5  6  2  0  0  0  0
  6  8  1  0  0  0  0
  6 41  1  0  0  0  0
  7  8  1  0  0  0  0
  7 42  1  0  0  0  0
  7 43  1  0  0  0  0
  8 16  2  0  0  0  0
  9  3  1  0  0  0  0
  9 20  1  0  0  0  0
  9 17  1  6  0  0  0
 10  9  1  0  0  0  0
 10  2  2  0  0  0  0
 10 15  1  0  0  0  0
 11 44  1  0  0  0  0
 11 45  1  0  0  0  0
 12 14  1  0  0  0  0
 12 32  1  6  0  0  0
 12 23  1  0  0  0  0
 13 15  1  0  0  0  0
 13 46  1  0  0  0  0
 13 47  1  0  0  0  0
 14 11  1  0  0  0  0
 14 48  1  0  0  0  0
 14 49  1  0  0  0  0
 15 22  1  0  0  0  0
 15 50  1  1  0  0  0
 18 12  1  0  0  0  0
 18 13  1  0  0  0  0
 18 19  1  6  0  0  0
 19 51  1  0  0  0  0
 19 52  1  0  0  0  0
 19 53  1  0  0  0  0
 20 11  1  0  0  0  0
 20 18  1  0  0  0  0
 20 21  1  1  0  0  0
 22 28  1  0  0  0  0
 23 54  1  0  0  0  0
 24 25  1  0  0  0  0
 24 28  2  0  0  0  0
 24 55  1  0  0  0  0
 25 26  2  0  0  0  0
 25 29  1  0  0  0  0
 26 27  1  0  0  0  0
 26 56  1  0  0  0  0
 27 22  2  0  0  0  0
 27 57  1  0  0  0  0
 28 58  1  0  0  0  0
 29 30  1  0  0  0  0
 29 31  1  0  0  0  0
 30 59  1  0  0  0  0
 30 60  1  0  0  0  0
 30 61  1  0  0  0  0
 31 62  1  0  0  0  0
 31 63  1  0  0  0  0
 31 64  1  0  0  0  0
 32 33  3  0  0  0  0
 33 34  1  0  0  0  0
 34 65  1  0  0  0  0
 34 66  1  0  0  0  0
 34 67  1  0  0  0  0
M  END
>  <DRUGBANK_ID>
DB00834

>  <SECONDARY_ACCESSION_NUMBERS>
APRD00432

>  <COMMON_NAME>
Mifepristone

>  <CAS_NUMBER>
84371-65-3

>  <UNII>
320T6RNW1F

>  <SYNONYMS>
Mifepriston; Mifepristona; Mif√©pristone; Mifepristone; Mifepristonum

$$$$
