
 OpenBabel10282417193D

 38 40  0  0  0  0  0  0  0  0999 V2000
   -2.2700   -0.0180    0.0345 C   0  0  0  0  0  0  0  0  0  0  0  0
   -1.6735    1.1769    0.0075 N   0  0  0  0  0  0  0  0  0  0  0  0
   -0.3157    1.2350   -0.0014 C   0  0  0  0  0  0  0  0  0  0  0  0
    0.4410    0.0728    0.0063 C   0  0  0  0  0  0  0  0  0  0  0  0
   -0.2612   -1.1077    0.0062 C   0  0  0  0  0  0  0  0  0  0  0  0
   -1.6071   -1.1755    0.0251 N   0  0  0  0  0  0  0  0  0  0  0  0
    2.1594    0.0562    0.0050 Cl  0  0  0  0  0  0  0  0  0  0  0  0
    0.3297    2.5038    0.0741 N   0  0  0  0  0  0  0  0  0  0  0  0
   -0.3287    3.6821   -0.0017 C   0  0  0  0  0  0  0  0  0  0  0  0
   -0.1461    4.6254   -0.9305 N   0  0  0  0  0  0  0  0  0  0  0  0
   -1.0478    5.5757   -0.6085 N   0  0  0  0  0  0  0  0  0  0  0  0
   -1.7085    5.3296    0.5638 C   0  0  0  0  0  0  0  0  0  0  0  0
   -1.2587    4.0980    0.9749 C   0  0  0  0  0  0  0  0  0  0  0  0
   -2.6841    6.2621    1.1643 C   0  0  0  0  0  0  0  0  0  0  0  0
   -3.6347   -0.0147    0.1788 N   0  0  0  0  0  0  0  0  0  0  0  0
   -4.4000   -1.2458    0.0525 C   0  0  1  0  0  0  0  0  0  0  0  0
   -5.2938   -1.3497    1.2864 C   0  0  0  0  0  0  0  0  0  0  0  0
   -5.2646   -1.2903   -1.2080 C   0  0  0  0  0  0  0  0  0  0  0  0
   -5.7009   -0.1206   -1.7379 N   0  0  0  0  0  0  0  0  0  0  0  0
   -6.4715   -0.2147   -2.8449 C   0  0  0  0  0  0  0  0  0  0  0  0
   -6.8344   -1.4092   -3.4162 C   0  0  0  0  0  0  0  0  0  0  0  0
   -6.3720   -2.5409   -2.7952 C   0  0  0  0  0  0  0  0  0  0  0  0
   -5.5929   -2.5136   -1.6923 N   0  0  0  0  0  0  0  0  0  0  0  0
   -7.5939   -1.4668   -4.5151 F   0  0  0  0  0  0  0  0  0  0  0  0
    0.2373   -2.0715    0.0081 H   0  0  0  0  0  0  0  0  0  0  0  0
    1.2197    2.4764   -0.4117 H   0  0  0  0  0  0  0  0  0  0  0  0
   -1.1454    6.3792   -1.2214 H   0  0  0  0  0  0  0  0  0  0  0  0
   -1.5442    3.5567    1.8641 H   0  0  0  0  0  0  0  0  0  0  0  0
   -2.2132    7.2237    1.3903 H   0  0  0  0  0  0  0  0  0  0  0  0
   -3.5281    6.4339    0.4898 H   0  0  0  0  0  0  0  0  0  0  0  0
   -3.0795    5.8542    2.1012 H   0  0  0  0  0  0  0  0  0  0  0  0
   -4.0754    0.8490   -0.1041 H   0  0  0  0  0  0  0  0  0  0  0  0
   -3.7591   -2.1353    0.0327 H   0  0  0  0  0  0  0  0  0  0  0  0
   -6.0130   -0.5236    1.3297 H   0  0  0  0  0  0  0  0  0  0  0  0
   -5.8564   -2.2888    1.2898 H   0  0  0  0  0  0  0  0  0  0  0  0
   -4.6889   -1.3116    2.1995 H   0  0  0  0  0  0  0  0  0  0  0  0
   -6.7954    0.7269   -3.2745 H   0  0  0  0  0  0  0  0  0  0  0  0
   -6.6171   -3.5266   -3.1766 H   0  0  0  0  0  0  0  0  0  0  0  0
  1  2  1  0  0  0  0
  1  6  2  0  0  0  0
  1 15  1  0  0  0  0
  2  3  2  0  0  0  0
  3  4  1  0  0  0  0
  3  8  1  0  0  0  0
  4  5  2  0  0  0  0
  4  7  1  0  0  0  0
  5  6  1  0  0  0  0
  5 25  1  0  0  0  0
  8  9  1  0  0  0  0
  8 26  1  0  0  0  0
  9 13  1  0  0  0  0
 10  9  2  0  0  0  0
 11 10  1  0  0  0  0
 11 12  1  0  0  0  0
 11 27  1  0  0  0  0
 12 14  1  0  0  0  0
 13 12  2  0  0  0  0
 13 28  1  0  0  0  0
 14 29  1  0  0  0  0
 14 30  1  0  0  0  0
 14 31  1  0  0  0  0
 15 16  1  0  0  0  0
 15 32  1  0  0  0  0
 16 17  1  0  0  0  0
 16 18  1  0  0  0  0
 16 33  1  6  0  0  0
 17 34  1  0  0  0  0
 17 35  1  0  0  0  0
 17 36  1  0  0  0  0
 18 19  1  0  0  0  0
 18 23  2  0  0  0  0
 19 20  2  0  0  0  0
 20 21  1  0  0  0  0
 20 37  1  0  0  0  0
 21 22  2  0  0  0  0
 21 24  1  0  0  0  0
 22 23  1  0  0  0  0
 22 38  1  0  0  0  0
M  END
>  <DRUGBANK_ID>
DB12588

>  <COMMON_NAME>
AZD-1480

>  <CAS_NUMBER>
935666-88-9

>  <UNII>
KL2Z2TLF01

$$$$
