327
 OpenBabel10282417113D

 42 46  0  0  1  0  0  0  0  0999 V2000
    1.2097    1.0563   -0.1731 O   0  0  0  0  0  0  0  0  0  0  0  0
    3.1971   -1.5804   -0.8223 O   0  0  0  0  0  0  0  0  0  0  0  0
   -0.6324    3.4857   -1.6765 O   0  0  0  0  0  0  0  0  0  0  0  0
    5.3102    2.0034    3.0295 N   0  0  0  0  0  0  0  0  0  0  0  0
    3.3371    2.2105    1.5334 C   0  0  1  0  0  0  0  0  0  0  0  0
    3.8628    0.9591    1.9389 C   0  0  2  0  0  0  0  0  0  0  0  0
    4.7351    2.0142    1.3270 C   0  0  1  0  0  0  0  0  0  0  0  0
    2.7497    0.8249    0.2243 C   0  0  2  0  0  0  0  0  0  0  0  0
    4.9057    3.6035    2.3241 C   0  0  0  0  0  0  0  0  0  0  0  0
    2.2375    2.7846    0.5382 C   0  0  0  0  0  0  0  0  0  0  0  0
    4.7061   -0.2456    1.6842 C   0  0  0  0  0  0  0  0  0  0  0  0
    3.9985    3.8008    0.6379 C   0  0  0  0  0  0  0  0  0  0  0  0
    6.1798    3.0810    2.9164 C   0  0  0  0  0  0  0  0  0  0  0  0
    2.7094    3.9503    0.1818 C   0  0  0  0  0  0  0  0  0  0  0  0
    3.8322   -1.4125    1.4143 C   0  0  0  0  0  0  0  0  0  0  0  0
    2.8024   -0.9260    0.4264 C   0  0  2  0  0  0  0  0  0  0  0  0
    1.2011    2.4133   -0.2339 C   0  0  0  0  0  0  0  0  0  0  0  0
    4.1903    2.4741    4.1225 C   0  0  0  0  0  0  0  0  0  0  0  0
    2.1090    5.1001   -0.0994 C   0  0  0  0  0  0  0  0  0  0  0  0
    0.4957    3.5145   -0.8905 C   0  0  0  0  0  0  0  0  0  0  0  0
    0.9606    4.8731   -0.7361 C   0  0  0  0  0  0  0  0  0  0  0  0
    3.0639    0.8141    2.6805 H   0  0  0  0  0  0  0  0  0  0  0  0
    5.6119    1.8710    0.7016 H   0  0  0  0  0  0  0  0  0  0  0  0
    3.1763    0.8291   -0.8144 H   0  0  0  0  0  0  0  0  0  0  0  0
    4.0660   -1.2293   -1.0832 H   0  0  0  0  0  0  0  0  0  0  0  0
   -0.8512    4.4178   -1.9183 H   0  0  0  0  0  0  0  0  0  0  0  0
    5.0484    4.5827    2.8562 H   0  0  0  0  0  0  0  0  0  0  0  0
    5.1607    4.5583    1.6993 H   0  0  0  0  0  0  0  0  0  0  0  0
    5.2800   -0.4256    2.5909 H   0  0  0  0  0  0  0  0  0  0  0  0
    5.3798   -0.1136    0.8307 H   0  0  0  0  0  0  0  0  0  0  0  0
    3.4090    4.3184    1.7089 H   0  0  0  0  0  0  0  0  0  0  0  0
    4.7414    4.3225    0.0948 H   0  0  0  0  0  0  0  0  0  0  0  0
    6.4864    3.5361    3.8801 H   0  0  0  0  0  0  0  0  0  0  0  0
    7.0279    3.1064    2.2213 H   0  0  0  0  0  0  0  0  0  0  0  0
    3.3437   -1.7478    2.3332 H   0  0  0  0  0  0  0  0  0  0  0  0
    4.4578   -2.2335    1.0383 H   0  0  0  0  0  0  0  0  0  0  0  0
    1.8361   -1.4098    0.6568 H   0  0  0  0  0  0  0  0  0  0  0  0
    3.6557    3.4340    3.9096 H   0  0  0  0  0  0  0  0  0  0  0  0
    3.3986    1.7466    4.2057 H   0  0  0  0  0  0  0  0  0  0  0  0
    4.6623    2.6177    5.0895 H   0  0  0  0  0  0  0  0  0  0  0  0
    2.6572    5.9863    0.1835 H   0  0  0  0  0  0  0  0  0  0  0  0
    0.5355    5.7868   -1.1208 H   0  0  0  0  0  0  0  0  0  0  0  0
  1 17  1  0  0  0  0
  2 25  1  0  0  0  0
  3 20  1  0  0  0  0
  3 26  1  0  0  0  0
  4  7  1  0  0  0  0
  4 13  1  0  0  0  0
  4 18  1  0  0  0  0
  5  6  1  0  0  0  0
  5  8  1  0  0  0  0
  5  9  1  0  0  0  0
  5 10  1  6  0  0  0
  6  7  1  0  0  0  0
  6 11  1  0  0  0  0
  6 22  1  1  0  0  0
  7 12  1  0  0  0  0
  7 23  1  6  0  0  0
  8 16  1  0  0  0  0
  8 24  1  1  0  0  0
  8  1  1  0  0  0  0
  9 13  1  0  0  0  0
  9 27  1  0  0  0  0
  9 28  1  0  0  0  0
 10 14  2  0  0  0  0
 10 17  1  0  0  0  0
 11 15  1  0  0  0  0
 11 29  1  0  0  0  0
 11 30  1  0  0  0  0
 12 14  1  0  0  0  0
 12 31  1  0  0  0  0
 12 32  1  0  0  0  0
 13 33  1  0  0  0  0
 13 34  1  0  0  0  0
 14 19  1  0  0  0  0
 15 16  1  0  0  0  0
 15 35  1  0  0  0  0
 15 36  1  0  0  0  0
 16  2  1  0  0  0  0
 16 37  1  1  0  0  0
 17 20  2  0  0  0  0
 18 38  1  0  0  0  0
 18 39  1  0  0  0  0
 18 40  1  0  0  0  0
 19 21  2  0  0  0  0
 19 41  1  0  0  0  0
 20 21  1  0  0  0  0
 21 42  1  0  0  0  0
M  END
>  <DRUGBANK_ID>
DB01565

>  <COMMON_NAME>
Dihydromorphine

>  <CAS_NUMBER>
509-60-4

>  <UNII>
C3S5FRP6JW

>  <SYNONYMS>
Dihydromorphine

$$$$
