
 OpenBabel10282417133D

 26 26  0  0  0  0  0  0  0  0999 V2000
    1.0210    0.0891   -0.0402 O   0  0  0  0  0  0  0  0  0  0  0  0
    0.4444   -0.3694   -1.6055 P   0  0  0  0  0  0  0  0  0  0  0  0
   -0.2997    1.0827   -1.5261 O   0  0  0  0  0  0  0  0  0  0  0  0
    1.8520   -0.1052   -2.1477 O   0  0  0  0  0  0  0  0  0  0  0  0
   -0.1656   -0.8545   -3.2613 C   0  0  0  0  0  0  0  0  0  0  0  0
    0.1056   -2.3012   -3.6477 N   0  0  0  0  0  0  0  0  0  0  0  0
   -0.9631   -3.1789   -3.8745 C   0  0  0  0  0  0  0  0  0  0  0  0
   -1.9568   -2.9046   -4.8087 C   0  0  0  0  0  0  0  0  0  0  0  0
   -3.1109   -3.6905   -4.8933 C   0  0  0  0  0  0  0  0  0  0  0  0
   -3.1869   -4.8341   -4.1134 C   0  0  0  0  0  0  0  0  0  0  0  0
   -4.5482   -5.8708   -4.2294 Cl  0  0  0  0  0  0  0  0  0  0  0  0
   -2.1302   -5.0960   -3.2663 C   0  0  0  0  0  0  0  0  0  0  0  0
   -1.0381   -4.2808   -3.1032 N   0  0  0  0  0  0  0  0  0  0  0  0
   -1.9552   -0.4918   -3.3824 P   0  0  0  0  0  0  0  0  0  0  0  0
   -2.1056   -1.1359   -1.8763 O   0  0  0  0  0  0  0  0  0  0  0  0
   -1.7273    1.1111   -3.1755 O   0  0  0  0  0  0  0  0  0  0  0  0
   -3.4694   -0.1849   -3.4849 O   0  0  0  0  0  0  0  0  0  0  0  0
    1.9215    0.4389   -0.2150 H   0  0  0  0  0  0  0  0  0  0  0  0
   -1.1226    0.9748   -0.9764 H   0  0  0  0  0  0  0  0  0  0  0  0
    0.3212   -0.2401   -4.0284 H   0  0  0  0  0  0  0  0  0  0  0  0
    0.8042   -2.7416   -3.0568 H   0  0  0  0  0  0  0  0  0  0  0  0
   -1.8852   -2.0437   -5.4739 H   0  0  0  0  0  0  0  0  0  0  0  0
   -3.9196   -3.4080   -5.5567 H   0  0  0  0  0  0  0  0  0  0  0  0
   -2.1276   -6.0001   -2.6543 H   0  0  0  0  0  0  0  0  0  0  0  0
   -2.6794   -1.9365   -1.9581 H   0  0  0  0  0  0  0  0  0  0  0  0
   -0.9044    1.4766   -2.7730 H   0  0  0  0  0  0  0  0  0  0  0  0
  1  2  1  0  0  0  0
  1 18  1  0  0  0  0
  2  3  1  0  0  0  0
  2  4  2  0  0  0  0
  2  5  1  0  0  0  0
  3 19  1  0  0  0  0
  5  6  1  0  0  0  0
  5 14  1  0  0  0  0
  5 20  1  0  0  0  0
  6  7  1  0  0  0  0
  6 21  1  0  0  0  0
  7  8  2  0  0  0  0
  7 13  1  0  0  0  0
  8  9  1  0  0  0  0
  8 22  1  0  0  0  0
  9 10  2  0  0  0  0
  9 23  1  0  0  0  0
 10 11  1  0  0  0  0
 10 12  1  0  0  0  0
 12 13  2  0  0  0  0
 12 24  1  0  0  0  0
 14 15  1  0  0  0  0
 14 16  1  0  0  0  0
 14 17  2  0  0  0  0
 15 25  1  0  0  0  0
 16 26  1  0  0  0  0
M  END
>  <DRUGBANK_ID>
DB03649

>  <SECONDARY_ACCESSION_NUMBERS>
EXPT00850

>  <COMMON_NAME>
[{(5-Chloro-2-Pyridinyl)Amino} Methylene]-1,1-Bisphosphonate

>  <UNII>
UIQ69AB4DJ

$$$$
