
 OpenBabel10282417203D

 46 48  0  0  1  0  0  0  0  0999 V2000
    1.5039   -6.6904    2.2775 C   0  0  0  0  0  0  0  0  0  0  0  0
    2.9245   -8.8644    1.8650 C   0  0  0  0  0  0  0  0  0  0  0  0
    2.6264    0.2663   -3.0639 C   0  0  0  0  0  0  0  0  0  0  0  0
    1.3668    0.1041   -3.6476 C   0  0  0  0  0  0  0  0  0  0  0  0
    0.6487   -9.6299    4.1178 C   0  0  0  0  0  0  0  0  0  0  0  0
    2.9602   -0.3898   -1.8735 C   0  0  0  0  0  0  0  0  0  0  0  0
    0.3942   -0.7220   -3.0751 C   0  0  0  0  0  0  0  0  0  0  0  0
    2.4823   -5.5359    5.6759 C   0  0  0  0  0  0  0  0  0  0  0  0
    2.4733   -4.2002    5.2652 C   0  0  0  0  0  0  0  0  0  0  0  0
    0.3511   -8.8977    2.8641 C   0  0  0  0  0  0  0  0  0  0  0  0
    1.9820   -9.1401    4.7108 C   0  0  0  0  0  0  0  0  0  0  0  0
    1.4633   -4.2508    1.6574 C   0  0  0  0  0  0  0  0  0  0  0  0
    1.8224   -5.9440    3.4747 C   0  0  0  0  0  0  0  0  0  0  0  0
    1.9896   -1.2007   -1.2775 C   0  0  0  0  0  0  0  0  0  0  0  0
    0.7594   -1.3587   -1.8910 C   0  0  0  0  0  0  0  0  0  0  0  0
    1.8120   -4.6168    3.1123 C   0  0  0  0  0  0  0  0  0  0  0  0
    2.1263   -6.5039    4.7510 C   0  0  0  0  0  0  0  0  0  0  0  0
    0.8274   -2.3596    0.0623 C   0  0  0  0  0  0  0  0  0  0  0  0
    2.1877   -3.7250    4.0273 N   0  0  0  0  0  0  0  0  0  0  0  0
    2.0205   -1.8748   -0.0838 N   0  0  0  0  0  0  0  0  0  0  0  0
    0.0423   -2.1972   -1.0640 N   0  0  0  0  0  0  0  0  0  0  0  0
    0.4658   -2.0080    2.5948 O   0  0  0  0  0  0  0  0  0  0  0  0
    1.4209   -9.1213    1.7946 O   0  0  0  0  0  0  0  0  0  0  0  0
    2.0841   -7.7892    5.2636 O   0  0  0  0  0  0  0  0  0  0  0  0
    0.1749   -3.0137    1.5236 S   0  0  2  0  0  0  0  0  0  0  0  0
    0.4510   -6.6669    1.9782 H   0  0  0  0  0  0  0  0  0  0  0  0
    2.1800   -6.5974    1.4268 H   0  0  0  0  0  0  0  0  0  0  0  0
    1.7745   -7.5322    2.8179 H   0  0  0  0  0  0  0  0  0  0  0  0
    3.3491   -8.0725    2.5359 H   0  0  0  0  0  0  0  0  0  0  0  0
    3.4718   -9.7557    2.1526 H   0  0  0  0  0  0  0  0  0  0  0  0
    3.2700   -8.5051    0.8812 H   0  0  0  0  0  0  0  0  0  0  0  0
    3.3560    0.9228   -3.5315 H   0  0  0  0  0  0  0  0  0  0  0  0
    1.1299    0.6343   -4.5668 H   0  0  0  0  0  0  0  0  0  0  0  0
    0.6619  -10.6772    3.8138 H   0  0  0  0  0  0  0  0  0  0  0  0
   -0.1534   -9.4808    4.8540 H   0  0  0  0  0  0  0  0  0  0  0  0
    3.9271   -0.2516   -1.4015 H   0  0  0  0  0  0  0  0  0  0  0  0
   -0.5872   -0.8385   -3.5128 H   0  0  0  0  0  0  0  0  0  0  0  0
    2.7558   -5.7958    6.6902 H   0  0  0  0  0  0  0  0  0  0  0  0
    2.6893   -3.4030    5.9697 H   0  0  0  0  0  0  0  0  0  0  0  0
   -0.6318   -9.0281    2.3885 H   0  0  0  0  0  0  0  0  0  0  0  0
    0.1234   -7.9000    3.3071 H   0  0  0  0  0  0  0  0  0  0  0  0
    2.8268   -9.3601    4.0686 H   0  0  0  0  0  0  0  0  0  0  0  0
    2.1667   -9.8419    5.5369 H   0  0  0  0  0  0  0  0  0  0  0  0
    2.3832   -4.1272    1.0748 H   0  0  0  0  0  0  0  0  0  0  0  0
    0.9476   -5.0358    1.0687 H   0  0  0  0  0  0  0  0  0  0  0  0
   -0.9037   -2.4487   -1.1521 H   0  0  0  0  0  0  0  0  0  0  0  0
  1 26  1  0  0  0  0
  1 27  1  0  0  0  0
  1 28  1  0  0  0  0
  2 29  1  0  0  0  0
  2 30  1  0  0  0  0
  2 31  1  0  0  0  0
  3 32  1  0  0  0  0
  4  3  2  0  0  0  0
  4 33  1  0  0  0  0
  5 34  1  0  0  0  0
  5 35  1  0  0  0  0
  6  3  1  0  0  0  0
  6 36  1  0  0  0  0
  7  4  1  0  0  0  0
  7 37  1  0  0  0  0
  8 38  1  0  0  0  0
  9  8  1  0  0  0  0
  9 39  1  0  0  0  0
 10  5  1  0  0  0  0
 10 40  1  0  0  0  0
 10 41  1  0  0  0  0
 11  5  1  0  0  0  0
 11 42  1  0  0  0  0
 11 43  1  0  0  0  0
 12 44  1  0  0  0  0
 12 45  1  0  0  0  0
 13  1  1  0  0  0  0
 14  6  2  0  0  0  0
 15  7  2  0  0  0  0
 15 14  1  0  0  0  0
 16 12  1  0  0  0  0
 16 13  2  0  0  0  0
 17  8  2  0  0  0  0
 17 13  1  0  0  0  0
 19  9  2  0  0  0  0
 19 16  1  0  0  0  0
 20 14  1  0  0  0  0
 20 18  2  0  0  0  0
 21 15  1  0  0  0  0
 21 18  1  0  0  0  0
 21 46  1  0  0  0  0
 23  2  1  0  0  0  0
 23 10  1  0  0  0  0
 24 11  1  0  0  0  0
 24 17  1  0  0  0  0
 25 22  2  1  0  0  0
 25 18  1  0  0  0  0
 25 12  1  0  0  0  0
M  END
>  <DRUGBANK_ID>
DB13762

>  <COMMON_NAME>
Dexrabeprazole

>  <CAS_NUMBER>
177795-60-7

>  <UNII>
65JK8810RM

>  <SYNONYMS>
Rabeprazole, (r)-

$$$$
