
 OpenBabel10282417133D

 22 21  0  0  1  0  0  0  0  0999 V2000
    1.0472   -0.1284   -0.8050 C   0  0  0  0  0  0  0  0  0  0  0  0
   -0.2449    0.6008   -0.5829 C   0  0  0  0  0  0  0  0  0  0  0  0
   -0.2249    1.7939   -0.2680 O   0  0  0  0  0  0  0  0  0  0  0  0
   -1.5499   -0.1590   -0.6959 C   0  0  0  0  0  0  0  0  0  0  0  0
   -1.8011   -0.9617   -2.3100 S   0  0  0  0  0  0  0  0  0  0  0  0
   -1.6435    0.4012   -3.5385 C   0  0  0  0  0  0  0  0  0  0  0  0
   -2.3521    1.7588   -3.3777 C   0  0  2  0  0  0  0  0  0  0  0  0
   -1.8077    2.6004   -2.3097 N   0  0  0  0  0  0  0  0  0  0  0  0
   -3.8738    1.6490   -3.2027 C   0  0  0  0  0  0  0  0  0  0  0  0
   -4.5929    2.3921   -4.0768 O   0  0  0  0  0  0  0  0  0  0  0  0
   -4.4180    1.0119   -2.3068 O   0  0  0  0  0  0  0  0  0  0  0  0
    1.8720    0.5900   -0.7525 H   0  0  0  0  0  0  0  0  0  0  0  0
    1.0652   -0.5841   -1.7958 H   0  0  0  0  0  0  0  0  0  0  0  0
    1.1755   -0.8784   -0.0238 H   0  0  0  0  0  0  0  0  0  0  0  0
   -1.5506   -0.9260    0.0851 H   0  0  0  0  0  0  0  0  0  0  0  0
   -2.3988    0.4927   -0.4714 H   0  0  0  0  0  0  0  0  0  0  0  0
   -0.5689    0.5787   -3.6668 H   0  0  0  0  0  0  0  0  0  0  0  0
   -1.9768   -0.0375   -4.4893 H   0  0  0  0  0  0  0  0  0  0  0  0
   -2.1556    2.3181   -4.3010 H   0  0  0  0  0  0  0  0  0  0  0  0
   -0.7980    2.4580   -2.2065 H   0  0  0  0  0  0  0  0  0  0  0  0
   -2.1671    2.2734   -1.4068 H   0  0  0  0  0  0  0  0  0  0  0  0
   -4.0601    2.9726   -4.6526 H   0  0  0  0  0  0  0  0  0  0  0  0
  1  2  1  0  0  0  0
  1 12  1  0  0  0  0
  1 13  1  0  0  0  0
  1 14  1  0  0  0  0
  2  3  2  0  0  0  0
  2  4  1  0  0  0  0
  4  5  1  0  0  0  0
  4 15  1  0  0  0  0
  4 16  1  0  0  0  0
  5  6  1  0  0  0  0
  6 17  1  0  0  0  0
  6 18  1  0  0  0  0
  7  9  1  0  0  0  0
  7 19  1  6  0  0  0
  7  8  1  0  0  0  0
  7  6  1  0  0  0  0
  8 20  1  0  0  0  0
  8 21  1  0  0  0  0
  9 10  1  0  0  0  0
  9 11  2  0  0  0  0
 10 22  1  0  0  0  0
M  END
>  <DRUGBANK_ID>
DB03858

>  <SECONDARY_ACCESSION_NUMBERS>
EXPT01030

>  <COMMON_NAME>
S-Acetonylcysteine

$$$$
