
 OpenBabel10282417233D

 56 56  0  0  0  0  0  0  0  0999 V2000
    1.0161    0.0981   -0.0563 C   0  0  0  0  0  0  0  0  0  0  0  0
    0.6056    0.3976   -1.4899 C   0  0  0  0  0  0  0  0  0  0  0  0
    1.0648   -0.7106   -2.4358 C   0  0  0  0  0  0  0  0  0  0  0  0
    0.3391   -1.9947   -2.0826 C   0  0  0  0  0  0  0  0  0  0  0  0
   -1.1846   -1.6890   -2.3112 C   0  0  0  0  0  0  0  0  0  0  0  0
   -1.5800   -1.7109   -3.7443 C   0  0  0  0  0  0  0  0  0  0  0  0
   -1.0786   -3.0431   -4.3369 C   0  0  0  0  0  0  0  0  0  0  0  0
   -1.5821   -4.2495   -3.6695 O   0  0  0  0  0  0  0  0  0  0  0  0
   -1.0663   -4.7392   -2.4829 C   0  0  0  0  0  0  0  0  0  0  0  0
   -1.2897   -4.1414   -1.2167 C   0  0  0  0  0  0  0  0  0  0  0  0
   -0.9514   -4.6126    0.0281 C   0  0  0  0  0  0  0  0  0  0  0  0
   -0.4244   -5.8223    0.1036 C   0  0  0  0  0  0  0  0  0  0  0  0
   -0.5417   -6.3925    1.4914 C   0  0  0  0  0  0  0  0  0  0  0  0
   -1.7681   -7.3087    1.7312 C   0  0  0  0  0  0  0  0  0  0  0  0
   -1.8864   -8.5108    0.7605 C   0  0  0  0  0  0  0  0  0  0  0  0
   -0.5538   -9.1715    0.7833 N   0  0  0  0  0  0  0  0  0  0  0  0
   -2.9074   -9.5543    1.2505 C   0  0  0  0  0  0  0  0  0  0  0  0
   -4.2423   -9.0475    1.2614 O   0  0  0  0  0  0  0  0  0  0  0  0
   -2.4498   -8.0699   -0.6372 C   0  0  0  0  0  0  0  0  0  0  0  0
   -3.7833   -7.5788   -0.7102 O   0  0  0  0  0  0  0  0  0  0  0  0
   -0.0701   -6.4773   -1.1173 C   0  0  0  0  0  0  0  0  0  0  0  0
   -0.4761   -5.9769   -2.4182 C   0  0  0  0  0  0  0  0  0  0  0  0
   -0.3890   -6.9337   -3.5893 C   0  0  0  0  0  0  0  0  0  0  0  0
    0.7812   -7.6376   -3.5443 F   0  0  0  0  0  0  0  0  0  0  0  0
   -1.3648   -7.8925   -3.5888 F   0  0  0  0  0  0  0  0  0  0  0  0
   -0.4241   -6.3685   -4.8258 F   0  0  0  0  0  0  0  0  0  0  0  0
    0.6045   -0.8445    0.3237 H   0  0  0  0  0  0  0  0  0  0  0  0
    0.6539    0.8810    0.6105 H   0  0  0  0  0  0  0  0  0  0  0  0
    2.1049    0.0358    0.0060 H   0  0  0  0  0  0  0  0  0  0  0  0
   -0.4776    0.5405   -1.5199 H   0  0  0  0  0  0  0  0  0  0  0  0
    1.0037    1.3517   -1.8292 H   0  0  0  0  0  0  0  0  0  0  0  0
    0.8239   -0.4579   -3.4743 H   0  0  0  0  0  0  0  0  0  0  0  0
    2.1511   -0.8397   -2.3961 H   0  0  0  0  0  0  0  0  0  0  0  0
    0.7778   -2.8104   -2.6745 H   0  0  0  0  0  0  0  0  0  0  0  0
    0.5934   -2.3085   -1.0610 H   0  0  0  0  0  0  0  0  0  0  0  0
   -2.0033   -2.3520   -2.1043 H   0  0  0  0  0  0  0  0  0  0  0  0
   -1.5401   -0.9359   -1.6119 H   0  0  0  0  0  0  0  0  0  0  0  0
   -2.6814   -1.7098   -3.7792 H   0  0  0  0  0  0  0  0  0  0  0  0
   -1.2352   -0.8018   -4.2300 H   0  0  0  0  0  0  0  0  0  0  0  0
   -1.4490   -3.0585   -5.3681 H   0  0  0  0  0  0  0  0  0  0  0  0
    0.0118   -3.0763   -4.4379 H   0  0  0  0  0  0  0  0  0  0  0  0
   -1.7239   -3.2282   -0.9059 H   0  0  0  0  0  0  0  0  0  0  0  0
   -1.2519   -3.9974    0.8853 H   0  0  0  0  0  0  0  0  0  0  0  0
    0.4113   -6.8397    1.7524 H   0  0  0  0  0  0  0  0  0  0  0  0
   -0.6643   -5.5571    2.2055 H   0  0  0  0  0  0  0  0  0  0  0  0
   -1.6796   -7.6672    2.7673 H   0  0  0  0  0  0  0  0  0  0  0  0
   -2.6954   -6.7173    1.7069 H   0  0  0  0  0  0  0  0  0  0  0  0
   -0.4631   -9.8930    0.0745 H   0  0  0  0  0  0  0  0  0  0  0  0
    0.2144   -8.5202    0.6283 H   0  0  0  0  0  0  0  0  0  0  0  0
   -2.8898  -10.3988    0.5493 H   0  0  0  0  0  0  0  0  0  0  0  0
   -2.6739   -9.9260    2.2490 H   0  0  0  0  0  0  0  0  0  0  0  0
   -4.2228   -8.1940    1.7333 H   0  0  0  0  0  0  0  0  0  0  0  0
   -1.9943   -7.1779   -0.9521 H   0  0  0  0  0  0  0  0  0  0  0  0
   -2.2491   -8.8151   -1.4126 H   0  0  0  0  0  0  0  0  0  0  0  0
   -4.3734   -8.2550   -0.3371 H   0  0  0  0  0  0  0  0  0  0  0  0
    0.2355   -7.5136   -1.0980 H   0  0  0  0  0  0  0  0  0  0  0  0
  1  2  1  0  0  0  0
  1 27  1  0  0  0  0
  1 28  1  0  0  0  0
  1 29  1  0  0  0  0
  2  3  1  0  0  0  0
  2 30  1  0  0  0  0
  2 31  1  0  0  0  0
  3  4  1  0  0  0  0
  3 32  1  0  0  0  0
  3 33  1  0  0  0  0
  4  5  1  0  0  0  0
  4 34  1  0  0  0  0
  4 35  1  0  0  0  0
  5  6  1  0  0  0  0
  5 36  1  0  0  0  0
  5 37  1  0  0  0  0
  6  7  1  0  0  0  0
  6 38  1  0  0  0  0
  6 39  1  0  0  0  0
  7  8  1  0  0  0  0
  7 40  1  0  0  0  0
  7 41  1  0  0  0  0
  8  9  1  0  0  0  0
  9 10  2  0  0  0  0
  9 22  1  0  0  0  0
 10 11  1  0  0  0  0
 10 42  1  0  0  0  0
 11 12  2  0  0  0  0
 11 43  1  0  0  0  0
 12 13  1  0  0  0  0
 12 21  1  0  0  0  0
 13 14  1  0  0  0  0
 13 44  1  0  0  0  0
 13 45  1  0  0  0  0
 14 15  1  0  0  0  0
 14 46  1  0  0  0  0
 14 47  1  0  0  0  0
 15 16  1  0  0  0  0
 15 17  1  0  0  0  0
 15 19  1  0  0  0  0
 16 48  1  0  0  0  0
 16 49  1  0  0  0  0
 17 18  1  0  0  0  0
 17 50  1  0  0  0  0
 17 51  1  0  0  0  0
 18 52  1  0  0  0  0
 19 20  1  0  0  0  0
 19 53  1  0  0  0  0
 19 54  1  0  0  0  0
 20 55  1  0  0  0  0
 21 22  2  0  0  0  0
 21 56  1  0  0  0  0
 22 23  1  0  0  0  0
 23 24  1  0  0  0  0
 23 25  1  0  0  0  0
 23 26  1  0  0  0  0
M  END
>  <DRUGBANK_ID>
DB17074

>  <COMMON_NAME>
Amiselimod

>  <CAS_NUMBER>
942399-20-4

>  <UNII>
358M5150LY

>  <SYNONYMS>
1,3-propanediol, 2-amino-2-(2-(4-(heptyloxy)-3-(trifluoromethyl)phenyl)ethyl)-; 2-amino-2-(2-(4-heptyloxy-3-trifluoromethylphenyl)ethyl)propane-1,3-diol; Amiselimod

$$$$
