CIN
 OpenBabel10282417123D

 22 22  0  0  0  0  0  0  0  0999 V2000
    1.3853   -0.2107    0.0374 C   0  0  0  0  0  0  0  0  0  0  0  0
    0.4974   -1.2983    0.0176 C   0  0  0  0  0  0  0  0  0  0  0  0
   -0.8935   -1.1009   -0.0244 C   0  0  0  0  0  0  0  0  0  0  0  0
   -1.4211    0.1940   -0.0374 C   0  0  0  0  0  0  0  0  0  0  0  0
   -0.5469    1.2815    0.0128 C   0  0  0  0  0  0  0  0  0  0  0  0
    0.8377    1.0794   -0.0041 C   0  0  0  0  0  0  0  0  0  0  0  0
    2.8383   -0.4606    0.1591 C   0  0  0  0  0  0  0  0  0  0  0  0
    3.7775    0.4982    0.2316 C   0  0  0  0  0  0  0  0  0  0  0  0
    5.2173    0.2631    0.4044 C   0  0  0  0  0  0  0  0  0  0  0  0
   -2.8737    0.4700   -0.1677 C   0  0  0  0  0  0  0  0  0  0  0  0
    6.0488    1.1541    0.4610 O   0  0  0  0  0  0  0  0  0  0  0  0
    5.5554   -1.0296    0.5022 O   0  0  0  0  0  0  0  0  0  0  0  0
   -3.3835    1.5782   -0.2176 O   0  0  0  0  0  0  0  0  0  0  0  0
   -3.6154   -0.6447   -0.2859 O   0  0  0  0  0  0  0  0  0  0  0  0
    0.8756   -2.3192    0.0302 H   0  0  0  0  0  0  0  0  0  0  0  0
   -1.5538   -1.9648   -0.0423 H   0  0  0  0  0  0  0  0  0  0  0  0
   -0.9335    2.2977    0.0608 H   0  0  0  0  0  0  0  0  0  0  0  0
    1.4677    1.9626   -0.0506 H   0  0  0  0  0  0  0  0  0  0  0  0
    3.1380   -1.5050    0.2363 H   0  0  0  0  0  0  0  0  0  0  0  0
    3.5381    1.5524    0.1794 H   0  0  0  0  0  0  0  0  0  0  0  0
    6.5295   -1.0168    0.6093 H   0  0  0  0  0  0  0  0  0  0  0  0
   -4.5309   -0.3175   -0.4177 H   0  0  0  0  0  0  0  0  0  0  0  0
  1  2  2  0  0  0  0
  1  6  1  0  0  0  0
  1  7  1  0  0  0  0
  2  3  1  0  0  0  0
  2 15  1  0  0  0  0
  3  4  2  0  0  0  0
  3 16  1  0  0  0  0
  4  5  1  0  0  0  0
  4 10  1  0  0  0  0
  5  6  2  0  0  0  0
  5 17  1  0  0  0  0
  6 18  1  0  0  0  0
  7  8  2  0  0  0  0
  7 19  1  0  0  0  0
  8  9  1  0  0  0  0
  8 20  1  0  0  0  0
  9 11  2  0  0  0  0
  9 12  1  0  0  0  0
 10 13  2  0  0  0  0
 10 14  1  0  0  0  0
 12 21  1  0  0  0  0
 14 22  1  0  0  0  0
M  END
>  <DRUGBANK_ID>
DB02126

>  <SECONDARY_ACCESSION_NUMBERS>
EXPT00919

>  <COMMON_NAME>
4-Carboxycinnamic Acid

$$$$
