
 OpenBabel10282417163D

 32 32  0  0  0  0  0  0  0  0999 V2000
   -4.3064    5.1493    2.5271 N   0  0  0  0  0  0  0  0  0  0  0  0
   -3.7780    7.2426    1.4946 N   0  0  0  0  0  0  0  0  0  0  0  0
   -3.6330    5.2673    0.3065 N   0  0  0  0  0  0  0  0  0  0  0  0
   -3.5439    6.5853    0.3832 C   0  0  0  0  0  0  0  0  0  0  0  0
   -4.0517    4.5840    1.3676 C   0  0  0  0  0  0  0  0  0  0  0  0
   -4.2748    3.2315    1.2559 N   0  0  0  0  0  0  0  0  0  0  0  0
   -2.2937    2.3731    0.0365 C   0  0  0  0  0  0  0  0  0  0  0  0
   -1.7516    1.2003   -0.7788 C   0  0  0  0  0  0  0  0  0  0  0  0
   -4.4092    3.0342   -1.2111 C   0  0  0  0  0  0  0  0  0  0  0  0
   -4.1327    6.4666    2.5083 C   0  0  0  0  0  0  0  0  0  0  0  0
   -4.3628    7.2840    3.9918 Cl  0  0  0  0  0  0  0  0  0  0  0  0
   -3.1932    7.2483   -0.7653 N   0  0  0  0  0  0  0  0  0  0  0  0
   -3.0687    8.6861   -0.8189 C   0  0  0  0  0  0  0  0  0  0  0  0
   -1.6589    9.0737   -1.2317 C   0  0  0  0  0  0  0  0  0  0  0  0
   -3.8456    2.4361    0.0945 C   0  0  2  0  0  0  0  0  0  0  0  0
   -4.3984    1.0500    0.1988 C   0  0  0  0  0  0  0  0  0  0  0  0
   -4.7814   -0.0530    0.2203 N   0  0  0  0  0  0  0  0  0  0  0  0
   -4.4751    2.7599    2.1304 H   0  0  0  0  0  0  0  0  0  0  0  0
   -1.9040    3.3014   -0.4020 H   0  0  0  0  0  0  0  0  0  0  0  0
   -1.8698    2.3174    1.0480 H   0  0  0  0  0  0  0  0  0  0  0  0
   -2.1446    1.2157   -1.7996 H   0  0  0  0  0  0  0  0  0  0  0  0
   -0.6607    1.2326   -0.8271 H   0  0  0  0  0  0  0  0  0  0  0  0
   -2.0208    0.2438   -0.3192 H   0  0  0  0  0  0  0  0  0  0  0  0
   -4.1183    2.4528   -2.0888 H   0  0  0  0  0  0  0  0  0  0  0  0
   -5.5021    3.0957   -1.1683 H   0  0  0  0  0  0  0  0  0  0  0  0
   -4.0421    4.0387   -1.4215 H   0  0  0  0  0  0  0  0  0  0  0  0
   -3.0746    6.6893   -1.5978 H   0  0  0  0  0  0  0  0  0  0  0  0
   -3.7842    9.0926   -1.5427 H   0  0  0  0  0  0  0  0  0  0  0  0
   -3.2909    9.1595    0.1424 H   0  0  0  0  0  0  0  0  0  0  0  0
   -1.4275    8.7209   -2.2422 H   0  0  0  0  0  0  0  0  0  0  0  0
   -1.5491   10.1629   -1.2188 H   0  0  0  0  0  0  0  0  0  0  0  0
   -0.9186    8.6483   -0.5462 H   0  0  0  0  0  0  0  0  0  0  0  0
  1  5  1  0  0  0  0
  1 10  2  0  0  0  0
  2 10  1  0  0  0  0
  3  4  1  0  0  0  0
  4  2  2  0  0  0  0
  4 12  1  0  0  0  0
  5  3  2  0  0  0  0
  5  6  1  0  0  0  0
  6 18  1  0  0  0  0
  7  8  1  0  0  0  0
  7 19  1  0  0  0  0
  7 20  1  0  0  0  0
  8 21  1  0  0  0  0
  8 22  1  0  0  0  0
  8 23  1  0  0  0  0
  9 24  1  0  0  0  0
  9 25  1  0  0  0  0
  9 26  1  0  0  0  0
 10 11  1  0  0  0  0
 12 13  1  0  0  0  0
 12 27  1  0  0  0  0
 13 14  1  0  0  0  0
 13 28  1  0  0  0  0
 13 29  1  0  0  0  0
 14 30  1  0  0  0  0
 14 31  1  0  0  0  0
 14 32  1  0  0  0  0
 15  9  1  0  0  0  0
 15 16  1  1  0  0  0
 15  7  1  0  0  0  0
 15  6  1  0  0  0  0
 16 17  3  0  0  0  0
M  END
>  <DRUGBANK_ID>
DB07551

>  <COMMON_NAME>
(2S)-2-{[4-chloro-6-(ethylamino)-1,3,5-triazin-2-yl]amino}-2-methylbutanenitrile

$$$$
