11U
 OpenBabel10282417163D

 59 61  0  0  0  0  0  0  0  0999 V2000
   -1.0460    0.5114    0.1085 N   0  0  0  0  0  0  0  0  0  0  0  0
   -2.2118    1.0921    0.5273 C   0  0  0  0  0  0  0  0  0  0  0  0
   -2.2605    2.2862    0.8450 O   0  0  0  0  0  0  0  0  0  0  0  0
   -3.4441    0.2065    0.6663 C   0  0  0  0  0  0  0  0  0  0  0  0
   -0.8435   -0.8831   -0.2279 C   0  0  0  0  0  0  0  0  0  0  0  0
    0.5839   -1.1172    0.2191 C   0  0  0  0  0  0  0  0  0  0  0  0
    1.2826    0.1945   -0.1411 C   0  0  0  0  0  0  0  0  0  0  0  0
    0.1949    1.2765   -0.0127 C   0  0  1  0  0  0  0  0  0  0  0  0
    0.1604    2.1304   -1.2996 C   0  0  0  0  0  0  0  0  0  0  0  0
    0.5058    3.4582   -1.1603 N   0  0  0  0  0  0  0  0  0  0  0  0
    0.4678    4.3591   -2.2931 C   0  0  0  0  0  0  0  0  0  0  0  0
   -0.5421    5.4675   -2.1340 C   0  0  0  0  0  0  0  0  0  0  0  0
   -0.1494    6.8063   -2.2377 C   0  0  0  0  0  0  0  0  0  0  0  0
   -1.0984    7.8339   -2.1981 C   0  0  0  0  0  0  0  0  0  0  0  0
   -2.4637    7.5459   -2.0646 C   0  0  0  0  0  0  0  0  0  0  0  0
   -3.4623    8.6607   -1.9302 C   0  0  0  0  0  0  0  0  0  0  0  0
   -4.7348    8.4731   -1.7559 N   0  0  0  0  0  0  0  0  0  0  0  0
   -3.0817    9.9649   -1.9626 N   0  0  0  0  0  0  0  0  0  0  0  0
   -2.8581    6.2029   -2.0127 C   0  0  0  0  0  0  0  0  0  0  0  0
   -1.9046    5.1779   -1.9991 C   0  0  0  0  0  0  0  0  0  0  0  0
   -0.1264    1.6400   -2.3973 O   0  0  0  0  0  0  0  0  0  0  0  0
   -3.8828   -0.3751   -0.6216 N   0  0  0  0  0  0  0  0  0  0  0  0
   -5.0941   -1.2107   -0.4884 C   0  0  0  0  0  0  0  0  0  0  0  0
   -6.0674   -0.6872    0.5819 C   0  0  0  0  0  0  0  0  0  0  0  0
   -7.2885   -1.5645    0.7642 C   0  0  0  0  0  0  0  0  0  0  0  0
   -6.8709   -2.9953    1.0767 C   0  0  0  0  0  0  0  0  0  0  0  0
   -5.9622   -3.5525   -0.0150 C   0  0  0  0  0  0  0  0  0  0  0  0
   -4.7198   -2.6802   -0.2231 C   0  0  0  0  0  0  0  0  0  0  0  0
    0.3325    1.9013    0.8771 H   0  0  0  0  0  0  0  0  0  0  0  0
   -3.2421   -0.5738    1.4087 H   0  0  0  0  0  0  0  0  0  0  0  0
   -4.2188    0.8710    1.0638 H   0  0  0  0  0  0  0  0  0  0  0  0
   -0.9446   -0.9846   -1.3141 H   0  0  0  0  0  0  0  0  0  0  0  0
   -1.5477   -1.5555    0.2656 H   0  0  0  0  0  0  0  0  0  0  0  0
    0.6112   -1.2657    1.3061 H   0  0  0  0  0  0  0  0  0  0  0  0
    1.0354   -1.9910   -0.2574 H   0  0  0  0  0  0  0  0  0  0  0  0
    2.1337    0.3888    0.5185 H   0  0  0  0  0  0  0  0  0  0  0  0
    1.6709    0.1289   -1.1640 H   0  0  0  0  0  0  0  0  0  0  0  0
    0.6316    3.8586   -0.2391 H   0  0  0  0  0  0  0  0  0  0  0  0
    1.4751    4.7746   -2.4050 H   0  0  0  0  0  0  0  0  0  0  0  0
    0.2389    3.8222   -3.2206 H   0  0  0  0  0  0  0  0  0  0  0  0
    0.9004    7.0654   -2.3578 H   0  0  0  0  0  0  0  0  0  0  0  0
   -0.7388    8.8527   -2.2873 H   0  0  0  0  0  0  0  0  0  0  0  0
   -4.9868    7.4863   -1.7306 H   0  0  0  0  0  0  0  0  0  0  0  0
   -2.1264   10.2797   -1.9422 H   0  0  0  0  0  0  0  0  0  0  0  0
   -3.8002   10.6411   -1.7338 H   0  0  0  0  0  0  0  0  0  0  0  0
   -3.9019    5.9104   -1.9901 H   0  0  0  0  0  0  0  0  0  0  0  0
   -2.2370    4.1454   -1.8955 H   0  0  0  0  0  0  0  0  0  0  0  0
   -4.0831    0.4016   -1.2554 H   0  0  0  0  0  0  0  0  0  0  0  0
   -5.6063   -1.1869   -1.4612 H   0  0  0  0  0  0  0  0  0  0  0  0
   -5.5731   -0.6641    1.5612 H   0  0  0  0  0  0  0  0  0  0  0  0
   -6.3736    0.3369    0.3396 H   0  0  0  0  0  0  0  0  0  0  0  0
   -7.8854   -1.1644    1.5916 H   0  0  0  0  0  0  0  0  0  0  0  0
   -7.9070   -1.5314   -0.1383 H   0  0  0  0  0  0  0  0  0  0  0  0
   -6.3419   -3.0245    2.0385 H   0  0  0  0  0  0  0  0  0  0  0  0
   -7.7635   -3.6197    1.1824 H   0  0  0  0  0  0  0  0  0  0  0  0
   -5.6570   -4.5715    0.2479 H   0  0  0  0  0  0  0  0  0  0  0  0
   -6.5259   -3.6182   -0.9537 H   0  0  0  0  0  0  0  0  0  0  0  0
   -4.1394   -3.0826   -1.0638 H   0  0  0  0  0  0  0  0  0  0  0  0
   -4.0817   -2.7552    0.6658 H   0  0  0  0  0  0  0  0  0  0  0  0
  1  2  1  0  0  0  0
  1  5  1  0  0  0  0
  1  8  1  0  0  0  0
  2  3  2  0  0  0  0
  2  4  1  0  0  0  0
  4 22  1  0  0  0  0
  4 30  1  0  0  0  0
  4 31  1  0  0  0  0
  5  6  1  0  0  0  0
  5 32  1  0  0  0  0
  5 33  1  0  0  0  0
  6  7  1  0  0  0  0
  6 34  1  0  0  0  0
  6 35  1  0  0  0  0
  7  8  1  0  0  0  0
  7 36  1  0  0  0  0
  7 37  1  0  0  0  0
  8 29  1  1  0  0  0
  8  9  1  0  0  0  0
  9 10  1  0  0  0  0
  9 21  2  0  0  0  0
 10 11  1  0  0  0  0
 10 38  1  0  0  0  0
 11 12  1  0  0  0  0
 11 39  1  0  0  0  0
 11 40  1  0  0  0  0
 12 13  2  0  0  0  0
 12 20  1  0  0  0  0
 13 14  1  0  0  0  0
 13 41  1  0  0  0  0
 14 15  2  0  0  0  0
 14 42  1  0  0  0  0
 15 16  1  0  0  0  0
 15 19  1  0  0  0  0
 16 17  2  0  0  0  0
 16 18  1  0  0  0  0
 17 43  1  0  0  0  0
 18 44  1  0  0  0  0
 18 45  1  0  0  0  0
 19 20  2  0  0  0  0
 19 46  1  0  0  0  0
 20 47  1  0  0  0  0
 22 23  1  0  0  0  0
 22 48  1  0  0  0  0
 23 24  1  0  0  0  0
 23 28  1  0  0  0  0
 23 49  1  0  0  0  0
 24 25  1  0  0  0  0
 24 50  1  0  0  0  0
 24 51  1  0  0  0  0
 25 26  1  0  0  0  0
 25 52  1  0  0  0  0
 25 53  1  0  0  0  0
 26 27  1  0  0  0  0
 26 54  1  0  0  0  0
 26 55  1  0  0  0  0
 27 28  1  0  0  0  0
 27 56  1  0  0  0  0
 27 57  1  0  0  0  0
 28 58  1  0  0  0  0
 28 59  1  0  0  0  0
M  END
>  <DRUGBANK_ID>
DB06850

>  <COMMON_NAME>
(S)-N-(4-carbamimidoylbenzyl)-1-(2-(cyclohexylamino)ethanoyl)pyrrolidine-2-carboxamide

$$$$
