
 OpenBabel10282417203D

 68 70  0  0  0  0  0  0  0  0999 V2000
    0.8592    0.9994    1.4449 C   0  0  2  0  0  0  0  0  0  0  0  0
   -1.0005    0.8388    1.9060 C   0  0  0  0  0  0  0  0  0  0  0  0
   -2.3095   -0.3590    1.0513 C   0  0  0  0  0  0  0  0  0  0  0  0
   -1.3422   -2.0146    0.8050 C   0  0  2  0  0  0  0  0  0  0  0  0
    0.4804   -2.0499    0.4817 C   0  0  2  0  0  0  0  0  0  0  0  0
    1.3360   -0.7653    1.4046 O   0  0  0  0  0  0  0  0  0  0  0  0
    0.5164   -2.1139   -1.1302 O   0  0  0  0  0  0  0  0  0  0  0  0
   -0.2945   -0.8975   -1.9738 C   0  0  1  0  0  0  0  0  0  0  0  0
   -1.6564   -0.8854   -1.6248 C   0  0  1  0  0  0  0  0  0  0  0  0
   -0.9102   -0.0708   -0.3850 C   0  0  2  0  0  0  0  0  0  0  0  0
   -1.7643    1.6401   -0.0484 C   0  0  1  0  0  0  0  0  0  0  0  0
   -0.5314    2.0900   -0.2214 C   0  0  0  0  0  0  0  0  0  0  0  0
   -0.2361    1.1883   -1.6977 C   0  0  2  0  0  0  0  0  0  0  0  0
    0.6850   -0.2493   -0.4595 O   0  0  0  0  0  0  0  0  0  0  0  0
    1.8439    2.6350    1.1088 C   0  0  0  0  0  0  0  0  0  0  0  0
   -2.0261   -3.0469    0.0211 N   0  0  0  0  0  0  0  0  0  0  0  0
   -1.3092    2.0820   -2.4477 N   0  0  0  0  0  0  0  0  0  0  0  0
   -2.7930    2.4329   -0.7184 N   0  0  0  0  0  0  0  0  0  0  0  0
   -2.5180   -0.1495   -2.4853 O   0  0  0  0  0  0  0  0  0  0  0  0
    3.3397    3.0055    0.3345 N   0  0  0  0  0  0  0  0  0  0  0  0
    1.8921   -0.0732   -1.2385 C   0  0  1  0  0  0  0  0  0  0  0  0
    1.8099   -0.2107   -2.7522 O   0  0  0  0  0  0  0  0  0  0  0  0
    0.6438    0.4991   -3.6541 C   0  0  1  0  0  0  0  0  0  0  0  0
    0.7618    2.0901   -3.6467 C   0  0  2  0  0  0  0  0  0  0  0  0
    1.3908    2.8975   -1.9356 C   0  0  1  0  0  0  0  0  0  0  0  0
    2.3210    1.3762   -0.8678 C   0  0  1  0  0  0  0  0  0  0  0  0
    0.1187   -0.4629   -4.7140 C   0  0  0  0  0  0  0  0  0  0  0  0
    1.2787   -1.2190   -4.9317 O   0  0  0  0  0  0  0  0  0  0  0  0
   -0.6614    2.3470   -4.4233 O   0  0  0  0  0  0  0  0  0  0  0  0
    0.4402    4.3415   -1.3485 N   0  0  0  0  0  0  0  0  0  0  0  0
    2.9816    0.9496    0.7700 O   0  0  0  0  0  0  0  0  0  0  0  0
    0.8722    1.0612    0.4409 H   0  0  0  0  0  0  0  0  0  0  0  0
   -0.9073    0.4459    2.8839 H   0  0  0  0  0  0  0  0  0  0  0  0
   -1.2032    1.9793    2.0612 H   0  0  0  0  0  0  0  0  0  0  0  0
   -2.6627   -0.0098   -0.1423 H   0  0  0  0  0  0  0  0  0  0  0  0
   -3.4604   -0.1569    0.8875 H   0  0  0  0  0  0  0  0  0  0  0  0
   -1.2330   -2.2026    1.8400 H   0  0  0  0  0  0  0  0  0  0  0  0
    1.1671   -2.9609    0.6177 H   0  0  0  0  0  0  0  0  0  0  0  0
    0.1176   -1.3590   -2.8410 H   0  0  0  0  0  0  0  0  0  0  0  0
   -1.7925   -1.9113   -1.9435 H   0  0  0  0  0  0  0  0  0  0  0  0
   -0.6435   -0.3937    0.5763 H   0  0  0  0  0  0  0  0  0  0  0  0
   -2.3328    1.8495    0.8976 H   0  0  0  0  0  0  0  0  0  0  0  0
   -0.1488    2.3821    0.7976 H   0  0  0  0  0  0  0  0  0  0  0  0
    0.1008    2.9565   -0.1316 H   0  0  0  0  0  0  0  0  0  0  0  0
    0.7570    1.2296   -1.9431 H   0  0  0  0  0  0  0  0  0  0  0  0
    1.5857    3.4765    0.3603 H   0  0  0  0  0  0  0  0  0  0  0  0
    1.8686    3.2523    2.0059 H   0  0  0  0  0  0  0  0  0  0  0  0
   -2.9497   -2.6835   -0.1949 H   0  0  0  0  0  0  0  0  0  0  0  0
   -1.5627   -3.2195   -0.8949 H   0  0  0  0  0  0  0  0  0  0  0  0
   -0.8822    3.0168   -2.7854 H   0  0  0  0  0  0  0  0  0  0  0  0
   -1.8730    2.6389   -1.7816 H   0  0  0  0  0  0  0  0  0  0  0  0
   -2.7321    3.3770   -0.3132 H   0  0  0  0  0  0  0  0  0  0  0  0
   -3.6657    1.9944   -0.4575 H   0  0  0  0  0  0  0  0  0  0  0  0
   -2.4976    0.8150   -2.2751 H   0  0  0  0  0  0  0  0  0  0  0  0
    3.8067    3.8557    0.5343 H   0  0  0  0  0  0  0  0  0  0  0  0
    3.9201    2.1500    0.5013 H   0  0  0  0  0  0  0  0  0  0  0  0
    2.5831   -0.8539   -0.7531 H   0  0  0  0  0  0  0  0  0  0  0  0
   -0.4262    0.3916   -3.3385 H   0  0  0  0  0  0  0  0  0  0  0  0
    1.4949    2.3157   -4.3724 H   0  0  0  0  0  0  0  0  0  0  0  0
    0.3869    2.8477   -1.6929 H   0  0  0  0  0  0  0  0  0  0  0  0
    3.2897    1.4057   -1.3162 H   0  0  0  0  0  0  0  0  0  0  0  0
   -0.7551   -1.1339   -4.3879 H   0  0  0  0  0  0  0  0  0  0  0  0
   -0.2642    0.1647   -5.4969 H   0  0  0  0  0  0  0  0  0  0  0  0
    1.9253   -0.8354   -4.2811 H   0  0  0  0  0  0  0  0  0  0  0  0
   -1.4409    1.9415   -3.8631 H   0  0  0  0  0  0  0  0  0  0  0  0
    0.1887    4.4250   -0.3095 H   0  0  0  0  0  0  0  0  0  0  0  0
    0.9839    5.1624   -1.4451 H   0  0  0  0  0  0  0  0  0  0  0  0
    2.5784    1.1217    1.7187 H   0  0  0  0  0  0  0  0  0  0  0  0
  1 15  1  0  0  0  0
  1  2  1  0  0  0  0
  1 32  1  6  0  0  0
  2  3  1  0  0  0  0
  2 33  1  0  0  0  0
  2 34  1  0  0  0  0
  3  4  1  0  0  0  0
  3 35  1  0  0  0  0
  3 36  1  0  0  0  0
  4 16  1  0  0  0  0
  4  5  1  0  0  0  0
  4 37  1  1  0  0  0
  5  7  1  0  0  0  0
  5  6  1  0  0  0  0
  5 38  1  1  0  0  0
  6  1  1  0  0  0  0
  8  7  1  0  0  0  0
  8  9  1  0  0  0  0
  8 39  1  6  0  0  0
  9 19  1  0  0  0  0
  9 10  1  0  0  0  0
  9 40  1  1  0  0  0
 10 14  1  0  0  0  0
 10 11  1  0  0  0  0
 10 41  1  1  0  0  0
 11 12  1  0  0  0  0
 11 42  1  1  0  0  0
 11 18  1  0  0  0  0
 12 13  1  0  0  0  0
 12 43  1  0  0  0  0
 12 44  1  0  0  0  0
 13  8  1  0  0  0  0
 13 45  1  6  0  0  0
 13 17  1  0  0  0  0
 15 20  1  0  0  0  0
 15 46  1  0  0  0  0
 15 47  1  0  0  0  0
 16 48  1  0  0  0  0
 16 49  1  0  0  0  0
 17 50  1  0  0  0  0
 17 51  1  0  0  0  0
 18 52  1  0  0  0  0
 18 53  1  0  0  0  0
 19 54  1  0  0  0  0
 20 55  1  0  0  0  0
 20 56  1  0  0  0  0
 21 14  1  0  0  0  0
 21 22  1  0  0  0  0
 21 57  1  1  0  0  0
 22 23  1  0  0  0  0
 23 24  1  0  0  0  0
 23 58  1  1  0  0  0
 23 27  1  0  0  0  0
 24 29  1  0  0  0  0
 24 25  1  0  0  0  0
 24 59  1  6  0  0  0
 25 26  1  0  0  0  0
 25 60  1  1  0  0  0
 25 30  1  0  0  0  0
 26 21  1  0  0  0  0
 26 31  1  0  0  0  0
 26 61  1  6  0  0  0
 27 28  1  0  0  0  0
 27 62  1  0  0  0  0
 27 63  1  0  0  0  0
 28 64  1  0  0  0  0
 29 65  1  0  0  0  0
 30 66  1  0  0  0  0
 30 67  1  0  0  0  0
 31 68  1  0  0  0  0
M  END
>  <DRUGBANK_ID>
DB13270

>  <COMMON_NAME>
Dibekacin

>  <CAS_NUMBER>
34493-98-6

>  <UNII>
45ZFO9E525

>  <SYNONYMS>
Dibekacin; Dibekacina; Dibekacine; Dibekacinum

$$$$
