
 OpenBabel10282417223D

 53 58  0  0  0  0  0  0  0  0999 V2000
   -3.5069    0.9349   -0.3760 C   0  0  0  0  0  0  0  0  0  0  0  0
   -2.3076    1.5530   -0.3568 C   0  0  0  0  0  0  0  0  0  0  0  0
   -1.0807    1.0038   -0.0287 N   0  0  0  0  0  0  0  0  0  0  0  0
   -1.1719   -0.4368    0.2480 C   0  0  0  0  0  0  0  0  0  0  0  0
   -2.3205   -1.1922    0.2115 C   0  0  0  0  0  0  0  0  0  0  0  0
   -3.5758   -0.4940   -0.1007 C   0  0  0  0  0  0  0  0  0  0  0  0
   -4.6595   -1.1319   -0.1511 O   0  0  0  0  0  0  0  0  0  0  0  0
   -2.4317   -2.5689    0.3963 O   0  0  0  0  0  0  0  0  0  0  0  0
    0.0574   -1.2287    0.4657 C   0  0  0  0  0  0  0  0  0  0  0  0
    1.1798   -0.5235    0.1106 N   0  0  0  0  0  0  0  0  0  0  0  0
    1.3760    0.8521    0.5576 C   0  0  2  0  0  0  0  0  0  0  0  0
    0.4268    1.7988   -0.0979 N   0  0  0  0  0  0  0  0  0  0  0  0
    0.7208    3.5423   -0.3480 C   0  0  2  0  0  0  0  0  0  0  0  0
    1.6269    4.9839    0.3396 C   0  0  0  0  0  0  0  0  0  0  0  0
    2.4897    4.7022    1.3226 C   0  0  0  0  0  0  0  0  0  0  0  0
    1.9244    4.3401    2.9395 S   0  0  0  0  0  0  0  0  0  0  0  0
    0.4667    3.4250    2.4427 C   0  0  0  0  0  0  0  0  0  0  0  0
   -0.5814    4.1197    1.5831 C   0  0  0  0  0  0  0  0  0  0  0  0
   -0.5498    4.0933    0.1528 C   0  0  0  0  0  0  0  0  0  0  0  0
   -1.5507    4.6186   -0.6615 C   0  0  0  0  0  0  0  0  0  0  0  0
   -2.6622    5.1180   -0.0100 C   0  0  0  0  0  0  0  0  0  0  0  0
   -2.5775    5.3896    1.3599 C   0  0  0  0  0  0  0  0  0  0  0  0
   -1.5266    4.9267    2.1424 C   0  0  0  0  0  0  0  0  0  0  0  0
   -1.3781    5.3059    3.4148 F   0  0  0  0  0  0  0  0  0  0  0  0
   -3.5184    6.1526    1.9217 F   0  0  0  0  0  0  0  0  0  0  0  0
    3.7319    4.5878    0.7579 C   0  0  0  0  0  0  0  0  0  0  0  0
    4.1680    5.4971   -0.2151 C   0  0  0  0  0  0  0  0  0  0  0  0
    3.3691    6.5808   -0.4324 C   0  0  0  0  0  0  0  0  0  0  0  0
    1.9962    6.2843   -0.2639 C   0  0  0  0  0  0  0  0  0  0  0  0
    2.8232    1.2877    0.5319 C   0  0  0  0  0  0  0  0  0  0  0  0
    3.7759    0.6585   -0.2925 O   0  0  0  0  0  0  0  0  0  0  0  0
    3.5513   -0.6594   -0.7342 C   0  0  0  0  0  0  0  0  0  0  0  0
    2.2150   -1.3119   -0.4921 C   0  0  0  0  0  0  0  0  0  0  0  0
    1.0699    0.7909    1.6180 H   0  0  0  0  0  0  0  0  0  0  0  0
    0.0960   -2.4189    0.7650 O   0  0  0  0  0  0  0  0  0  0  0  0
   -4.4406    1.4292   -0.6063 H   0  0  0  0  0  0  0  0  0  0  0  0
   -2.3127    2.5723   -0.6174 H   0  0  0  0  0  0  0  0  0  0  0  0
   -3.3812   -2.8085    0.3006 H   0  0  0  0  0  0  0  0  0  0  0  0
    1.1657    3.5658   -1.3488 H   0  0  0  0  0  0  0  0  0  0  0  0
    0.0237    2.7733    3.1975 H   0  0  0  0  0  0  0  0  0  0  0  0
    1.0180    2.7139    1.8599 H   0  0  0  0  0  0  0  0  0  0  0  0
   -1.5165    4.5180   -1.7474 H   0  0  0  0  0  0  0  0  0  0  0  0
   -3.5796    5.3234   -0.5495 H   0  0  0  0  0  0  0  0  0  0  0  0
    4.2282    3.6373    0.8449 H   0  0  0  0  0  0  0  0  0  0  0  0
    5.0711    5.3467   -0.7895 H   0  0  0  0  0  0  0  0  0  0  0  0
    3.8287    7.5517   -0.6687 H   0  0  0  0  0  0  0  0  0  0  0  0
    1.5134    7.2514    0.0439 H   0  0  0  0  0  0  0  0  0  0  0  0
    3.2032    1.3523    1.5580 H   0  0  0  0  0  0  0  0  0  0  0  0
    2.8097    2.2909    0.1392 H   0  0  0  0  0  0  0  0  0  0  0  0
    3.7207   -0.6428   -1.8153 H   0  0  0  0  0  0  0  0  0  0  0  0
    4.3391   -1.2961   -0.3197 H   0  0  0  0  0  0  0  0  0  0  0  0
    1.7974   -1.6257   -1.4607 H   0  0  0  0  0  0  0  0  0  0  0  0
    2.3540   -2.2584    0.0507 H   0  0  0  0  0  0  0  0  0  0  0  0
  1  6  1  0  0  0  0
  1 36  1  0  0  0  0
  2  1  2  0  0  0  0
  2 37  1  0  0  0  0
  3  2  1  0  0  0  0
  3 12  1  0  0  0  0
  4  3  1  0  0  0  0
  4  9  1  0  0  0  0
  5  4  2  0  0  0  0
  5  8  1  0  0  0  0
  6  5  1  0  0  0  0
  6  7  2  0  0  0  0
  8 38  1  0  0  0  0
  9 10  1  0  0  0  0
  9 35  2  0  0  0  0
 10 11  1  0  0  0  0
 10 33  1  0  0  0  0
 11 12  1  0  0  0  0
 11 30  1  0  0  0  0
 11 34  1  1  0  0  0
 13 12  1  0  0  0  0
 13 19  1  0  0  0  0
 13 39  1  6  0  0  0
 14 13  1  0  0  0  0
 14 15  2  0  0  0  0
 14 29  1  0  0  0  0
 15 16  1  0  0  0  0
 15 26  1  0  0  0  0
 16 17  1  0  0  0  0
 17 18  1  0  0  0  0
 17 40  1  0  0  0  0
 17 41  1  0  0  0  0
 18 23  1  0  0  0  0
 19 18  2  0  0  0  0
 19 20  1  0  0  0  0
 20 21  2  0  0  0  0
 20 42  1  0  0  0  0
 21 22  1  0  0  0  0
 21 43  1  0  0  0  0
 22 23  2  0  0  0  0
 22 25  1  0  0  0  0
 23 24  1  0  0  0  0
 26 27  2  0  0  0  0
 26 44  1  0  0  0  0
 27 28  1  0  0  0  0
 27 45  1  0  0  0  0
 28 29  2  0  0  0  0
 28 46  1  0  0  0  0
 29 47  1  0  0  0  0
 30 48  1  0  0  0  0
 30 49  1  0  0  0  0
 31 30  1  0  0  0  0
 32 31  1  0  0  0  0
 32 50  1  0  0  0  0
 32 51  1  0  0  0  0
 33 32  1  0  0  0  0
 33 52  1  0  0  0  0
 33 53  1  0  0  0  0
M  END
>  <DRUGBANK_ID>
DB15675

>  <COMMON_NAME>
Baloxavir

>  <CAS_NUMBER>
1985605-59-1

>  <UNII>
4G86Y4JT3F

>  <SYNONYMS>
Baloxavir

$$$$
