
 OpenBabel10282417173D

 35 36  0  0  0  0  0  0  0  0999 V2000
    0.9051    0.1318    0.1978 O   0  0  0  0  0  0  0  0  0  0  0  0
    2.1229    0.0404    0.1270 C   0  0  0  0  0  0  0  0  0  0  0  0
    2.8840    1.1169   -0.2007 O   0  0  0  0  0  0  0  0  0  0  0  0
    2.9123   -1.2516    0.4341 C   0  0  1  0  0  0  0  0  0  0  0  0
    2.5919   -1.7411    1.8133 N   0  0  0  0  0  0  0  0  0  0  0  0
    2.6125   -2.2844   -0.6483 C   0  0  0  0  0  0  0  0  0  0  0  0
    3.0255   -1.9081   -2.0253 C   0  0  0  0  0  0  0  0  0  0  0  0
    3.8165   -2.5268   -2.7244 O   0  0  0  0  0  0  0  0  0  0  0  0
    2.4048   -0.8162   -2.4873 O   0  0  0  0  0  0  0  0  0  0  0  0
   -2.0795   -0.4798    3.6859 C   0  0  0  0  0  0  0  0  0  0  0  0
   -3.2892   -1.1679    3.7323 C   0  0  0  0  0  0  0  0  0  0  0  0
   -0.8712   -1.1749    3.6703 C   0  0  0  0  0  0  0  0  0  0  0  0
   -3.3288   -2.5675    3.7659 C   0  0  0  0  0  0  0  0  0  0  0  0
    1.6167   -3.2652    3.5263 C   0  0  0  0  0  0  0  0  0  0  0  0
   -0.4706   -4.7948    3.6165 C   0  0  0  0  0  0  0  0  0  0  0  0
    0.1521   -3.5600    3.6318 C   0  0  0  0  0  0  0  0  0  0  0  0
   -0.8822   -2.5808    3.6851 C   0  0  0  0  0  0  0  0  0  0  0  0
   -2.1053   -3.2486    3.7292 C   0  0  0  0  0  0  0  0  0  0  0  0
    1.9836   -2.9620    2.0846 C   0  0  0  0  0  0  0  0  0  0  0  0
   -1.8250   -4.5962    3.7079 N   0  0  0  0  0  0  0  0  0  0  0  0
    1.7687   -3.8216    1.2312 O   0  0  0  0  0  0  0  0  0  0  0  0
    3.8486    0.9926   -0.2639 H   0  0  0  0  0  0  0  0  0  0  0  0
    3.9834   -1.0111    0.4461 H   0  0  0  0  0  0  0  0  0  0  0  0
    2.6748   -1.0707    2.5694 H   0  0  0  0  0  0  0  0  0  0  0  0
    3.1635   -3.2057   -0.4211 H   0  0  0  0  0  0  0  0  0  0  0  0
    1.5402   -2.5153   -0.6830 H   0  0  0  0  0  0  0  0  0  0  0  0
    2.6638   -0.7295   -3.4275 H   0  0  0  0  0  0  0  0  0  0  0  0
   -2.0661    0.6057    3.6466 H   0  0  0  0  0  0  0  0  0  0  0  0
   -4.2186   -0.6038    3.7306 H   0  0  0  0  0  0  0  0  0  0  0  0
    0.0671   -0.6341    3.6192 H   0  0  0  0  0  0  0  0  0  0  0  0
   -4.2771   -3.0940    3.7981 H   0  0  0  0  0  0  0  0  0  0  0  0
    2.1960   -4.1496    3.8180 H   0  0  0  0  0  0  0  0  0  0  0  0
    1.9033   -2.4507    4.1976 H   0  0  0  0  0  0  0  0  0  0  0  0
   -0.0670   -5.7948    3.5188 H   0  0  0  0  0  0  0  0  0  0  0  0
   -2.5209   -5.3296    3.7184 H   0  0  0  0  0  0  0  0  0  0  0  0
  2  1  2  0  0  0  0
  3  2  1  0  0  0  0
  3 22  1  0  0  0  0
  4  2  1  0  0  0  0
  4  5  1  0  0  0  0
  4 23  1  6  0  0  0
  5 24  1  0  0  0  0
  6  4  1  0  0  0  0
  6 25  1  0  0  0  0
  6 26  1  0  0  0  0
  7  6  1  0  0  0  0
  8  7  2  0  0  0  0
  9  7  1  0  0  0  0
  9 27  1  0  0  0  0
 10 11  2  0  0  0  0
 10 12  1  0  0  0  0
 10 28  1  0  0  0  0
 11 13  1  0  0  0  0
 11 29  1  0  0  0  0
 12 17  2  0  0  0  0
 12 30  1  0  0  0  0
 13 18  2  0  0  0  0
 13 31  1  0  0  0  0
 14 16  1  0  0  0  0
 14 19  1  0  0  0  0
 14 32  1  0  0  0  0
 14 33  1  0  0  0  0
 15 16  2  0  0  0  0
 15 20  1  0  0  0  0
 15 34  1  0  0  0  0
 16 17  1  0  0  0  0
 17 18  1  0  0  0  0
 18 20  1  0  0  0  0
 19  5  1  0  0  0  0
 19 21  2  0  0  0  0
 20 35  1  0  0  0  0
M  END
>  <DRUGBANK_ID>
DB07951

>  <COMMON_NAME>
N-(indole-3-acetyl)-L-aspartic acid

>  <CAS_NUMBER>
2456-73-7

>  <UNII>
5V1L30W0M7

>  <SYNONYMS>
IAASP; N-(indol-3-ylacetyl)-L-aspartic acid; N-(indol-3-ylacetyl)aspartic acid; N-(indole-3-acetyl)aspartic acid

$$$$
