
 OpenBabel10282417133D

 23 23  0  0  1  0  0  0  0  0999 V2000
    2.7365   -0.3894   -0.3245 O   0  0  0  0  0  0  0  0  0  0  0  0
    1.4484   -0.4278    0.2683 C   0  0  2  0  0  0  0  0  0  0  0  0
    0.8260   -1.6108   -0.1928 O   0  0  0  0  0  0  0  0  0  0  0  0
   -0.5131   -1.7781    0.2521 C   0  0  1  0  0  0  0  0  0  0  0  0
   -1.4046   -0.6494   -0.2518 C   0  0  1  0  0  0  0  0  0  0  0  0
   -2.7092   -0.8029    0.3382 O   0  0  0  0  0  0  0  0  0  0  0  0
   -0.8230    0.7209    0.1134 C   0  0  2  0  0  0  0  0  0  0  0  0
   -1.5361    1.7440   -0.5971 O   0  0  0  0  0  0  0  0  0  0  0  0
    0.6847    0.8494   -0.1346 C   0  0  1  0  0  0  0  0  0  0  0  0
    1.1804    1.9852    0.6025 O   0  0  0  0  0  0  0  0  0  0  0  0
   -1.1221   -3.0834   -0.2799 C   0  0  0  0  0  0  0  0  0  0  0  0
   -2.1327   -3.5601    0.4902 O   0  0  0  0  0  0  0  0  0  0  0  0
   -0.7628   -3.6629   -1.2983 O   0  0  0  0  0  0  0  0  0  0  0  0
    3.1378   -1.2512   -0.1255 H   0  0  0  0  0  0  0  0  0  0  0  0
    1.5925   -0.4644    1.3548 H   0  0  0  0  0  0  0  0  0  0  0  0
   -0.5169   -1.8361    1.3488 H   0  0  0  0  0  0  0  0  0  0  0  0
   -1.5292   -0.7127   -1.3410 H   0  0  0  0  0  0  0  0  0  0  0  0
   -2.6989   -0.4599    1.2485 H   0  0  0  0  0  0  0  0  0  0  0  0
   -1.0309    0.9256    1.1699 H   0  0  0  0  0  0  0  0  0  0  0  0
   -1.3485    1.6441   -1.5495 H   0  0  0  0  0  0  0  0  0  0  0  0
    0.8730    1.0791   -1.1899 H   0  0  0  0  0  0  0  0  0  0  0  0
    0.9919    1.8564    1.5475 H   0  0  0  0  0  0  0  0  0  0  0  0
   -2.4266   -2.9385    1.1844 H   0  0  0  0  0  0  0  0  0  0  0  0
  1 14  1  0  0  0  0
  2  1  1  0  0  0  0
  2  3  1  0  0  0  0
  2  9  1  0  0  0  0
  2 15  1  1  0  0  0
  3  4  1  0  0  0  0
  4  5  1  0  0  0  0
  4 16  1  1  0  0  0
  4 11  1  0  0  0  0
  5  6  1  0  0  0  0
  5  7  1  0  0  0  0
  5 17  1  6  0  0  0
  6 18  1  0  0  0  0
  7  8  1  0  0  0  0
  7  9  1  0  0  0  0
  7 19  1  1  0  0  0
  8 20  1  0  0  0  0
  9 10  1  0  0  0  0
  9 21  1  6  0  0  0
 10 22  1  0  0  0  0
 11 12  1  0  0  0  0
 11 13  2  0  0  0  0
 12 23  1  0  0  0  0
M  END
>  <DRUGBANK_ID>
DB03156

>  <SECONDARY_ACCESSION_NUMBERS>
EXPT01175

>  <COMMON_NAME>
beta-D-glucuronic acid

>  <CAS_NUMBER>
23018-83-9

>  <UNII>
00A9JB14O6

>  <SYNONYMS>
beta-D-Glucopyranuronic acid; GlcAb; GlcAβ; β-D-glucopyranuronic acid

$$$$
