
 OpenBabel10282417213D

 53 56  0  0  0  0  0  0  0  0999 V2000
    1.0773   -0.0339    0.1079 O   0  0  0  0  0  0  0  0  0  0  0  0
    2.3049    0.0160    0.1223 C   0  0  0  0  0  0  0  0  0  0  0  0
    3.0161    0.1245   -1.0535 N   0  0  0  0  0  0  0  0  0  0  0  0
    4.3604   -0.2144   -1.2973 C   0  0  0  0  0  0  0  0  0  0  0  0
    5.0871   -1.1523   -0.5462 C   0  0  0  0  0  0  0  0  0  0  0  0
    6.4767   -1.3657   -0.7227 C   0  0  0  0  0  0  0  0  0  0  0  0
    7.1751   -0.7186   -1.7620 C   0  0  0  0  0  0  0  0  0  0  0  0
    6.3134    0.0642   -2.6722 C   0  0  0  0  0  0  0  0  0  0  0  0
    5.0027    0.4604   -2.3107 C   0  0  0  0  0  0  0  0  0  0  0  0
    8.8979   -0.4771   -1.4963 C   0  0  0  0  0  0  0  0  0  0  0  0
    9.5150   -1.8199   -1.7183 C   0  0  0  0  0  0  0  0  0  0  0  0
   10.7403   -1.8572   -0.8043 C   0  0  0  0  0  0  0  0  0  0  0  0
   10.7957   -0.5981    0.0602 C   0  0  0  0  0  0  0  0  0  0  0  0
    9.3683   -0.0872    0.0123 C   0  0  0  0  0  0  0  0  0  0  0  0
    9.8013    0.4117   -2.4714 C   0  0  0  0  0  0  0  0  0  0  0  0
   10.4661    1.0762   -3.1168 N   0  0  0  0  0  0  0  0  0  0  0  0
    3.0417    0.0048    1.4119 C   0  0  0  0  0  0  0  0  0  0  0  0
    2.6698   -0.9808    2.3450 C   0  0  0  0  0  0  0  0  0  0  0  0
    3.4092   -1.1203    3.5101 C   0  0  0  0  0  0  0  0  0  0  0  0
    4.4928   -0.2804    3.6848 C   0  0  0  0  0  0  0  0  0  0  0  0
    4.8602    0.6878    2.8097 N   0  0  0  0  0  0  0  0  0  0  0  0
    4.1347    0.8654    1.6818 C   0  0  0  0  0  0  0  0  0  0  0  0
    4.4896    1.9190    0.8441 N   0  0  0  0  0  0  0  0  0  0  0  0
    5.5886    2.8567    1.1221 C   0  0  0  0  0  0  0  0  0  0  0  0
    6.6291    2.9594    0.0420 C   0  0  0  0  0  0  0  0  0  0  0  0
    7.1418    1.8116   -0.3961 C   0  0  0  0  0  0  0  0  0  0  0  0
    7.7988    1.9612   -1.5967 C   0  0  0  0  0  0  0  0  0  0  0  0
    8.2847    2.9783   -2.2652 N   0  0  0  0  0  0  0  0  0  0  0  0
    8.0967    4.0706   -1.6134 C   0  0  0  0  0  0  0  0  0  0  0  0
    7.2024    4.1166   -0.5343 C   0  0  0  0  0  0  0  0  0  0  0  0
    2.4510    0.3443   -1.8696 H   0  0  0  0  0  0  0  0  0  0  0  0
    4.6034   -1.6669    0.2764 H   0  0  0  0  0  0  0  0  0  0  0  0
    6.9943   -1.9122    0.0639 H   0  0  0  0  0  0  0  0  0  0  0  0
    6.6932    0.7145   -3.4739 H   0  0  0  0  0  0  0  0  0  0  0  0
    4.6017    1.4287   -2.6593 H   0  0  0  0  0  0  0  0  0  0  0  0
    8.8076   -2.6141   -1.4957 H   0  0  0  0  0  0  0  0  0  0  0  0
    9.7712   -1.8919   -2.7827 H   0  0  0  0  0  0  0  0  0  0  0  0
   10.6362   -2.7310   -0.1631 H   0  0  0  0  0  0  0  0  0  0  0  0
   11.6466   -1.9361   -1.4063 H   0  0  0  0  0  0  0  0  0  0  0  0
   11.1623   -0.7830    1.0770 H   0  0  0  0  0  0  0  0  0  0  0  0
   11.4707    0.1604   -0.3655 H   0  0  0  0  0  0  0  0  0  0  0  0
    9.4186    0.9872    0.2666 H   0  0  0  0  0  0  0  0  0  0  0  0
    8.7710   -0.5517    0.8077 H   0  0  0  0  0  0  0  0  0  0  0  0
    1.8305   -1.6476    2.1516 H   0  0  0  0  0  0  0  0  0  0  0  0
    3.1564   -1.8632    4.2595 H   0  0  0  0  0  0  0  0  0  0  0  0
    5.1165   -0.3536    4.5719 H   0  0  0  0  0  0  0  0  0  0  0  0
    4.0678    1.9359   -0.0758 H   0  0  0  0  0  0  0  0  0  0  0  0
    5.1533    3.8471    1.1815 H   0  0  0  0  0  0  0  0  0  0  0  0
    6.1132    2.5940    2.0428 H   0  0  0  0  0  0  0  0  0  0  0  0
    6.8756    0.8793    0.0940 H   0  0  0  0  0  0  0  0  0  0  0  0
    7.9647    1.1872   -2.2736 H   0  0  0  0  0  0  0  0  0  0  0  0
    8.6852    4.8497   -2.0606 H   0  0  0  0  0  0  0  0  0  0  0  0
    6.9595    5.0873   -0.1668 H   0  0  0  0  0  0  0  0  0  0  0  0
  1  2  2  0  0  0  0
  2  3  1  0  0  0  0
  2 17  1  0  0  0  0
  3  4  1  0  0  0  0
  3 31  1  0  0  0  0
  4  5  2  0  0  0  0
  4  9  1  0  0  0  0
  5  6  1  0  0  0  0
  5 32  1  0  0  0  0
  6  7  2  0  0  0  0
  6 33  1  0  0  0  0
  7  8  1  0  0  0  0
  7 10  1  0  0  0  0
  8  9  2  0  0  0  0
  8 34  1  0  0  0  0
  9 35  1  0  0  0  0
 10 11  1  0  0  0  0
 10 14  1  0  0  0  0
 10 15  1  0  0  0  0
 11 12  1  0  0  0  0
 11 36  1  0  0  0  0
 11 37  1  0  0  0  0
 12 13  1  0  0  0  0
 12 38  1  0  0  0  0
 12 39  1  0  0  0  0
 13 14  1  0  0  0  0
 13 40  1  0  0  0  0
 13 41  1  0  0  0  0
 14 42  1  0  0  0  0
 14 43  1  0  0  0  0
 15 16  3  0  0  0  0
 17 18  2  0  0  0  0
 17 22  1  0  0  0  0
 18 19  1  0  0  0  0
 18 44  1  0  0  0  0
 19 20  2  0  0  0  0
 19 45  1  0  0  0  0
 20 21  1  0  0  0  0
 20 46  1  0  0  0  0
 21 22  2  0  0  0  0
 22 23  1  0  0  0  0
 23 24  1  0  0  0  0
 23 47  1  0  0  0  0
 24 25  1  0  0  0  0
 24 48  1  0  0  0  0
 24 49  1  0  0  0  0
 25 26  2  0  0  0  0
 25 30  1  0  0  0  0
 26 27  1  0  0  0  0
 26 50  1  0  0  0  0
 27 28  2  0  0  0  0
 27 51  1  0  0  0  0
 28 29  1  0  0  0  0
 29 30  2  0  0  0  0
 29 52  1  0  0  0  0
 30 53  1  0  0  0  0
M  END
>  <DRUGBANK_ID>
DB14765

>  <COMMON_NAME>
Rivoceranib

>  <CAS_NUMBER>
811803-05-1

>  <UNII>
5S371K6132

>  <SYNONYMS>
Apatinib; Rivoceranib; YN968D1 free base

$$$$
