
 OpenBabel10282417103D

171176  0  0  1  0  0  0  0  0999 V2000
  -13.1774   -7.4084   -2.5087 N   0  0  0  0  0  0  0  0  0  0  0  0
  -13.5518   -6.6618   -3.7007 C   0  0  2  0  0  0  0  0  0  0  0  0
  -12.3227   -6.1970   -4.6770 C   0  0  0  0  0  0  0  0  0  0  0  0
  -11.3032   -6.8973   -4.7450 O   0  0  0  0  0  0  0  0  0  0  0  0
  -12.3564   -5.0978   -5.5261 N   0  0  0  0  0  0  0  0  0  0  0  0
  -13.3692   -4.0416   -5.7658 C   0  0  2  0  0  0  0  0  0  0  0  0
  -12.8296   -2.7632   -6.2648 C   0  0  0  0  0  0  0  0  0  0  0  0
  -13.7236   -2.0740   -6.9874 N   0  0  0  0  0  0  0  0  0  0  0  0
  -13.0827   -0.9147   -7.5454 C   0  0  2  0  0  0  0  0  0  0  0  0
  -12.4928    0.0456   -6.4258 C   0  0  0  0  0  0  0  0  0  0  0  0
  -13.2569    0.3189   -5.2749 N   0  0  0  0  0  0  0  0  0  0  0  0
  -12.8972    1.4486   -4.3336 C   0  0  2  0  0  0  0  0  0  0  0  0
  -11.5518    1.2127   -3.8482 C   0  0  0  0  0  0  0  0  0  0  0  0
  -10.4610    2.0141   -3.7681 N   0  0  0  0  0  0  0  0  0  0  0  0
   -9.3611    1.2258   -3.2144 C   0  0  2  0  0  0  0  0  0  0  0  0
   -9.6453   -0.4031   -3.6964 C   0  0  0  0  0  0  0  0  0  0  0  0
   -9.4087   -1.5114   -2.8507 N   0  0  0  0  0  0  0  0  0  0  0  0
   -9.2713   -3.0170   -3.0244 C   0  0  1  0  0  0  0  0  0  0  0  0
   -7.9719   -3.8746   -2.7985 C   0  0  0  0  0  0  0  0  0  0  0  0
   -7.7736   -4.5304   -1.7715 O   0  0  0  0  0  0  0  0  0  0  0  0
   -6.9313   -3.6180   -3.7769 N   0  0  0  0  0  0  0  0  0  0  0  0
   -6.7750   -2.1916   -4.8653 C   0  0  2  0  0  0  0  0  0  0  0  0
   -5.9643   -0.2925   -4.5239 C   0  0  0  0  0  0  0  0  0  0  0  0
   -5.4805    0.7269   -5.1431 N   0  0  0  0  0  0  0  0  0  0  0  0
   -4.9576    1.7912   -4.0857 C   0  0  2  0  0  0  0  0  0  0  0  0
   -3.7562    1.3901   -2.7757 C   0  0  0  0  0  0  0  0  0  0  0  0
   -3.4608    0.0553   -2.1766 N   0  0  0  0  0  0  0  0  0  0  0  0
   -3.2976   -1.2379   -2.8187 C   0  0  1  0  0  0  0  0  0  0  0  0
   -3.9222   -2.3943   -1.9874 C   0  0  0  0  0  0  0  0  0  0  0  0
   -3.5160   -1.9587   -0.6710 C   0  0  0  0  0  0  0  0  0  0  0  0
   -3.1543   -0.3568   -0.7827 C   0  0  0  0  0  0  0  0  0  0  0  0
   -3.7569   -1.4613   -4.0957 C   0  0  0  0  0  0  0  0  0  0  0  0
   -3.3472   -1.0346   -5.2201 O   0  0  0  0  0  0  0  0  0  0  0  0
   -4.9636   -2.0275   -3.9242 N   0  0  0  0  0  0  0  0  0  0  0  0
   -6.4046   -1.5787   -2.7164 C   0  0  0  0  0  0  0  0  0  0  0  0
   -7.4267   -0.4341   -2.9948 C   0  0  0  0  0  0  0  0  0  0  0  0
   -3.3421    2.4205   -2.2049 O   0  0  0  0  0  0  0  0  0  0  0  0
   -6.2770    2.4992   -3.5510 C   0  0  0  0  0  0  0  0  0  0  0  0
   -6.2613    3.7666   -2.7543 C   0  0  0  0  0  0  0  0  0  0  0  0
   -5.7484    4.7118   -3.7364 C   0  0  0  0  0  0  0  0  0  0  0  0
   -6.7265    4.8373   -4.7888 N   0  0  0  0  0  0  0  0  0  0  0  0
   -7.4163    5.9426   -5.0643 C   0  0  0  0  0  0  0  0  0  0  0  0
   -8.2827    6.0217   -6.0060 N   0  0  0  0  0  0  0  0  0  0  0  0
   -7.1372    6.9901   -4.2874 N   0  0  0  0  0  0  0  0  0  0  0  0
   -5.5005    0.0060   -3.3748 O   0  0  0  0  0  0  0  0  0  0  0  0
   -7.9315   -2.1611   -5.6387 C   0  0  0  0  0  0  0  0  0  0  0  0
   -7.7291   -1.0226   -6.5595 C   0  0  0  0  0  0  0  0  0  0  0  0
   -6.5205   -1.3220   -7.4173 C   0  0  0  0  0  0  0  0  0  0  0  0
   -8.9715   -0.9136   -7.3531 C   0  0  0  0  0  0  0  0  0  0  0  0
  -10.3255   -3.4317   -2.0386 C   0  0  0  0  0  0  0  0  0  0  0  0
  -11.5182   -2.5228   -2.2524 C   0  0  0  0  0  0  0  0  0  0  0  0
  -11.7489   -2.6000   -3.6991 C   0  0  0  0  0  0  0  0  0  0  0  0
  -12.6599   -2.9280   -1.4322 C   0  0  0  0  0  0  0  0  0  0  0  0
   -9.8983   -0.5114   -4.8865 O   0  0  0  0  0  0  0  0  0  0  0  0
   -8.9970    1.5274   -1.6346 C   0  0  0  0  0  0  0  0  0  0  0  0
   -7.8567    0.8874   -0.6706 C   0  0  0  0  0  0  0  0  0  0  0  0
   -7.8990   -0.4513   -0.1386 C   0  0  0  0  0  0  0  0  0  0  0  0
   -6.7829   -1.1898    0.3305 C   0  0  0  0  0  0  0  0  0  0  0  0
   -5.6398   -0.4826    0.5591 C   0  0  0  0  0  0  0  0  0  0  0  0
   -5.5454    0.7734   -0.0587 C   0  0  0  0  0  0  0  0  0  0  0  0
   -6.5954    1.4151   -0.6478 C   0  0  0  0  0  0  0  0  0  0  0  0
   -4.6326   -0.9404    1.3793 O   0  0  0  0  0  0  0  0  0  0  0  0
  -11.5654    0.1748   -3.1763 O   0  0  0  0  0  0  0  0  0  0  0  0
  -13.5750    1.3403   -2.9342 C   0  0  0  0  0  0  0  0  0  0  0  0
  -13.1246    2.3887   -2.0603 O   0  0  0  0  0  0  0  0  0  0  0  0
  -11.4677    0.6894   -6.6635 O   0  0  0  0  0  0  0  0  0  0  0  0
  -14.1525   -0.3023   -8.3953 C   0  0  0  0  0  0  0  0  0  0  0  0
  -13.7158    0.9195   -9.0873 C   0  0  0  0  0  0  0  0  0  0  0  0
  -13.6532    1.0939  -10.4460 C   0  0  0  0  0  0  0  0  0  0  0  0
  -13.1524    2.3493  -10.6792 N   0  0  0  0  0  0  0  0  0  0  0  0
  -12.7792    2.9584   -9.5068 C   0  0  0  0  0  0  0  0  0  0  0  0
  -13.2220    2.1243   -8.5101 C   0  0  0  0  0  0  0  0  0  0  0  0
  -13.0670    2.6074   -7.2119 C   0  0  0  0  0  0  0  0  0  0  0  0
  -12.2314    3.6464   -6.8503 C   0  0  0  0  0  0  0  0  0  0  0  0
  -11.8211    4.4716   -7.8552 C   0  0  0  0  0  0  0  0  0  0  0  0
  -12.1480    4.1781   -9.1942 C   0  0  0  0  0  0  0  0  0  0  0  0
  -11.7217   -2.3051   -6.0847 O   0  0  0  0  0  0  0  0  0  0  0  0
  -14.2118   -3.7618   -4.6039 C   0  0  0  0  0  0  0  0  0  0  0  0
  -15.2690   -2.8340   -4.2813 C   0  0  0  0  0  0  0  0  0  0  0  0
  -15.2013   -1.7524   -3.4373 C   0  0  0  0  0  0  0  0  0  0  0  0
  -16.4407   -1.2223   -3.4538 N   0  0  0  0  0  0  0  0  0  0  0  0
  -17.2211   -2.0931   -4.1483 C   0  0  0  0  0  0  0  0  0  0  0  0
  -16.5555   -3.1419   -4.5623 N   0  0  0  0  0  0  0  0  0  0  0  0
  -14.2043   -5.5735   -2.9325 C   0  0  0  0  0  0  0  0  0  0  0  0
  -14.7025   -5.8520   -1.5844 C   0  0  0  0  0  0  0  0  0  0  0  0
  -13.6883   -6.8887   -1.3001 C   0  0  0  0  0  0  0  0  0  0  0  0
  -13.3675   -7.2022   -0.1695 O   0  0  0  0  0  0  0  0  0  0  0  0
  -12.4067   -8.0593   -2.5054 H   0  0  0  0  0  0  0  0  0  0  0  0
  -14.2583   -7.2030   -4.3302 H   0  0  0  0  0  0  0  0  0  0  0  0
  -11.4775   -4.9249   -6.0186 H   0  0  0  0  0  0  0  0  0  0  0  0
  -14.0375   -4.4221   -6.5278 H   0  0  0  0  0  0  0  0  0  0  0  0
  -14.2422   -2.7058   -7.5936 H   0  0  0  0  0  0  0  0  0  0  0  0
  -12.2195   -1.2574   -8.1513 H   0  0  0  0  0  0  0  0  0  0  0  0
  -13.8300   -0.4370   -4.9378 H   0  0  0  0  0  0  0  0  0  0  0  0
  -13.0248    2.4530   -4.7000 H   0  0  0  0  0  0  0  0  0  0  0  0
  -10.2550    2.8375   -4.3420 H   0  0  0  0  0  0  0  0  0  0  0  0
   -8.5883    1.5661   -3.9215 H   0  0  0  0  0  0  0  0  0  0  0  0
   -9.3965   -1.2897   -1.8763 H   0  0  0  0  0  0  0  0  0  0  0  0
   -9.4990   -3.3095   -4.0459 H   0  0  0  0  0  0  0  0  0  0  0  0
   -6.0355   -3.8983   -3.3424 H   0  0  0  0  0  0  0  0  0  0  0  0
   -6.0779   -2.7820   -5.4756 H   0  0  0  0  0  0  0  0  0  0  0  0
   -4.7267    0.3897   -5.7123 H   0  0  0  0  0  0  0  0  0  0  0  0
   -4.4603    2.4780   -4.7455 H   0  0  0  0  0  0  0  0  0  0  0  0
   -2.2593   -1.5051   -2.8547 H   0  0  0  0  0  0  0  0  0  0  0  0
   -4.9891   -2.6396   -1.8906 H   0  0  0  0  0  0  0  0  0  0  0  0
   -3.7213   -3.4138   -2.3196 H   0  0  0  0  0  0  0  0  0  0  0  0
   -4.4080   -2.3971   -0.1853 H   0  0  0  0  0  0  0  0  0  0  0  0
   -2.6678   -2.5446   -0.3903 H   0  0  0  0  0  0  0  0  0  0  0  0
   -3.4870    0.2461    0.0443 H   0  0  0  0  0  0  0  0  0  0  0  0
   -2.1312   -0.1272   -0.5064 H   0  0  0  0  0  0  0  0  0  0  0  0
   -5.0063   -1.7892   -4.9491 H   0  0  0  0  0  0  0  0  0  0  0  0
   -7.2609   -2.1485   -2.7597 H   0  0  0  0  0  0  0  0  0  0  0  0
   -6.1458   -1.5042   -1.7162 H   0  0  0  0  0  0  0  0  0  0  0  0
   -7.8021   -0.3194   -4.0189 H   0  0  0  0  0  0  0  0  0  0  0  0
   -8.1097   -0.3548   -2.2307 H   0  0  0  0  0  0  0  0  0  0  0  0
   -7.1821    0.5589   -2.9029 H   0  0  0  0  0  0  0  0  0  0  0  0
   -6.9717    2.5175   -4.3926 H   0  0  0  0  0  0  0  0  0  0  0  0
   -6.9072    2.0263   -2.8640 H   0  0  0  0  0  0  0  0  0  0  0  0
   -7.2764    3.9934   -2.3625 H   0  0  0  0  0  0  0  0  0  0  0  0
   -5.6073    3.7660   -1.8767 H   0  0  0  0  0  0  0  0  0  0  0  0
   -5.5307    5.5859   -3.1441 H   0  0  0  0  0  0  0  0  0  0  0  0
   -4.8039    4.3322   -4.1141 H   0  0  0  0  0  0  0  0  0  0  0  0
   -6.9632    4.0137   -5.3354 H   0  0  0  0  0  0  0  0  0  0  0  0
   -8.3640    5.1286   -6.4968 H   0  0  0  0  0  0  0  0  0  0  0  0
   -6.4728    6.9821   -3.5355 H   0  0  0  0  0  0  0  0  0  0  0  0
   -7.5376    7.8742   -4.5308 H   0  0  0  0  0  0  0  0  0  0  0  0
   -8.1415   -3.1734   -6.0009 H   0  0  0  0  0  0  0  0  0  0  0  0
   -8.6457   -1.9760   -4.9063 H   0  0  0  0  0  0  0  0  0  0  0  0
   -7.5758   -0.0698   -6.0371 H   0  0  0  0  0  0  0  0  0  0  0  0
   -6.6788   -2.3064   -7.8582 H   0  0  0  0  0  0  0  0  0  0  0  0
   -6.4157   -0.5264   -8.1410 H   0  0  0  0  0  0  0  0  0  0  0  0
   -5.5629   -1.3823   -6.8865 H   0  0  0  0  0  0  0  0  0  0  0  0
   -9.8484   -0.6957   -6.7815 H   0  0  0  0  0  0  0  0  0  0  0  0
   -8.8734   -0.0819   -8.0315 H   0  0  0  0  0  0  0  0  0  0  0  0
   -9.2026   -1.8910   -7.7598 H   0  0  0  0  0  0  0  0  0  0  0  0
  -10.5551   -4.4744   -2.2537 H   0  0  0  0  0  0  0  0  0  0  0  0
  -10.0005   -3.2757   -1.0111 H   0  0  0  0  0  0  0  0  0  0  0  0
  -11.3855   -1.4772   -1.9963 H   0  0  0  0  0  0  0  0  0  0  0  0
  -11.7384   -3.6418   -3.9909 H   0  0  0  0  0  0  0  0  0  0  0  0
  -12.5950   -1.9877   -3.9503 H   0  0  0  0  0  0  0  0  0  0  0  0
  -10.9447   -2.2351   -4.3077 H   0  0  0  0  0  0  0  0  0  0  0  0
  -12.4682   -2.7030   -0.3967 H   0  0  0  0  0  0  0  0  0  0  0  0
  -13.5566   -2.4240   -1.7417 H   0  0  0  0  0  0  0  0  0  0  0  0
  -12.7526   -3.9827   -1.5381 H   0  0  0  0  0  0  0  0  0  0  0  0
   -8.8548    2.6174   -1.5627 H   0  0  0  0  0  0  0  0  0  0  0  0
   -9.8970    1.1981   -1.1418 H   0  0  0  0  0  0  0  0  0  0  0  0
   -8.7717   -1.0590   -0.2792 H   0  0  0  0  0  0  0  0  0  0  0  0
   -6.7852   -2.2905    0.2959 H   0  0  0  0  0  0  0  0  0  0  0  0
   -4.6571    1.3430   -0.3533 H   0  0  0  0  0  0  0  0  0  0  0  0
   -6.2114    2.2186   -1.2211 H   0  0  0  0  0  0  0  0  0  0  0  0
   -4.3296   -1.8701    1.3316 H   0  0  0  0  0  0  0  0  0  0  0  0
  -14.6464    1.3689   -3.0460 H   0  0  0  0  0  0  0  0  0  0  0  0
  -13.3623    0.4004   -2.3946 H   0  0  0  0  0  0  0  0  0  0  0  0
  -12.1621    2.2552   -1.9090 H   0  0  0  0  0  0  0  0  0  0  0  0
  -14.4530   -1.0757   -9.1251 H   0  0  0  0  0  0  0  0  0  0  0  0
  -15.0272   -0.1208   -7.7643 H   0  0  0  0  0  0  0  0  0  0  0  0
  -13.9382    0.4215  -11.2439 H   0  0  0  0  0  0  0  0  0  0  0  0
  -13.0483    2.7656  -11.5872 H   0  0  0  0  0  0  0  0  0  0  0  0
  -13.5337    2.0275   -6.4637 H   0  0  0  0  0  0  0  0  0  0  0  0
  -11.9462    3.8081   -5.8150 H   0  0  0  0  0  0  0  0  0  0  0  0
  -11.2818    5.3692   -7.5739 H   0  0  0  0  0  0  0  0  0  0  0  0
  -11.8829    4.8820   -9.9644 H   0  0  0  0  0  0  0  0  0  0  0  0
  -14.7061   -4.7057   -4.7519 H   0  0  0  0  0  0  0  0  0  0  0  0
  -13.6095   -3.6351   -3.7285 H   0  0  0  0  0  0  0  0  0  0  0  0
  -14.3964   -1.2746   -2.9100 H   0  0  0  0  0  0  0  0  0  0  0  0
  -16.6754   -0.3079   -3.0993 H   0  0  0  0  0  0  0  0  0  0  0  0
  -18.2516   -1.8967   -4.3702 H   0  0  0  0  0  0  0  0  0  0  0  0
  -15.1450   -5.2011   -3.3074 H   0  0  0  0  0  0  0  0  0  0  0  0
  -13.3336   -4.9600   -2.7995 H   0  0  0  0  0  0  0  0  0  0  0  0
  -15.7421   -6.1706   -1.6778 H   0  0  0  0  0  0  0  0  0  0  0  0
  -14.6571   -4.9054   -1.0223 H   0  0  0  0  0  0  0  0  0  0  0  0
  1  2  1  0  0  0  0
  1 88  1  0  0  0  0
  2 84  1  0  0  0  0
  2 89  1  6  0  0  0
  2  3  1  0  0  0  0
  3  4  2  0  0  0  0
  3  5  1  0  0  0  0
  5 90  1  0  0  0  0
  6 78  1  0  0  0  0
  6 91  1  6  0  0  0
  6  7  1  0  0  0  0
  6  5  1  0  0  0  0
  7  8  1  0  0  0  0
  7 77  2  0  0  0  0
  8 92  1  0  0  0  0
  9 67  1  0  0  0  0
  9 93  1  6  0  0  0
  9 10  1  0  0  0  0
  9  8  1  0  0  0  0
 10 11  1  0  0  0  0
 10 66  2  0  0  0  0
 11 94  1  0  0  0  0
 12 64  1  0  0  0  0
 12 95  1  6  0  0  0
 12 13  1  0  0  0  0
 12 11  1  0  0  0  0
 13 14  1  0  0  0  0
 13 63  2  0  0  0  0
 14 96  1  0  0  0  0
 15 55  1  0  0  0  0
 15 97  1  6  0  0  0
 15 16  1  0  0  0  0
 15 14  1  0  0  0  0
 16 17  1  0  0  0  0
 16 54  2  0  0  0  0
 17 18  1  0  0  0  0
 17 98  1  0  0  0  0
 18 19  1  0  0  0  0
 18 50  1  0  0  0  0
 18 99  1  6  0  0  0
 19 20  2  0  0  0  0
 19 21  1  0  0  0  0
 21100  1  0  0  0  0
 22 46  1  0  0  0  0
 22101  1  6  0  0  0
 22 23  1  0  0  0  0
 22 21  1  0  0  0  0
 23 24  1  0  0  0  0
 23 45  2  0  0  0  0
 24102  1  0  0  0  0
 25 38  1  0  0  0  0
 25103  1  6  0  0  0
 25 26  1  0  0  0  0
 25 24  1  0  0  0  0
 26 27  1  0  0  0  0
 26 37  2  0  0  0  0
 27 28  1  0  0  0  0
 28 29  1  0  0  0  0
 28104  1  6  0  0  0
 28 32  1  0  0  0  0
 29 30  1  0  0  0  0
 29105  1  0  0  0  0
 29106  1  0  0  0  0
 30 31  1  0  0  0  0
 30107  1  0  0  0  0
 30108  1  0  0  0  0
 31 27  1  0  0  0  0
 31109  1  0  0  0  0
 31110  1  0  0  0  0
 32 33  2  0  0  0  0
 32 34  1  0  0  0  0
 34 35  1  0  0  0  0
 34111  1  0  0  0  0
 35 36  1  0  0  0  0
 35112  1  0  0  0  0
 35113  1  0  0  0  0
 36114  1  0  0  0  0
 36115  1  0  0  0  0
 36116  1  0  0  0  0
 38 39  1  0  0  0  0
 38117  1  0  0  0  0
 38118  1  0  0  0  0
 39 40  1  0  0  0  0
 39119  1  0  0  0  0
 39120  1  0  0  0  0
 40 41  1  0  0  0  0
 40121  1  0  0  0  0
 40122  1  0  0  0  0
 41 42  1  0  0  0  0
 41123  1  0  0  0  0
 42 43  2  0  0  0  0
 42 44  1  0  0  0  0
 43124  1  0  0  0  0
 44125  1  0  0  0  0
 44126  1  0  0  0  0
 46 47  1  0  0  0  0
 46127  1  0  0  0  0
 46128  1  0  0  0  0
 47 48  1  0  0  0  0
 47 49  1  0  0  0  0
 47129  1  0  0  0  0
 48130  1  0  0  0  0
 48131  1  0  0  0  0
 48132  1  0  0  0  0
 49133  1  0  0  0  0
 49134  1  0  0  0  0
 49135  1  0  0  0  0
 50 51  1  0  0  0  0
 50136  1  0  0  0  0
 50137  1  0  0  0  0
 51 52  1  0  0  0  0
 51 53  1  0  0  0  0
 51138  1  0  0  0  0
 52139  1  0  0  0  0
 52140  1  0  0  0  0
 52141  1  0  0  0  0
 53142  1  0  0  0  0
 53143  1  0  0  0  0
 53144  1  0  0  0  0
 55 56  1  0  0  0  0
 55145  1  0  0  0  0
 55146  1  0  0  0  0
 56 57  2  0  0  0  0
 57 58  1  0  0  0  0
 57147  1  0  0  0  0
 58 59  2  0  0  0  0
 58148  1  0  0  0  0
 59 60  1  0  0  0  0
 59 62  1  0  0  0  0
 60 61  2  0  0  0  0
 60149  1  0  0  0  0
 61 56  1  0  0  0  0
 61150  1  0  0  0  0
 62151  1  0  0  0  0
 64 65  1  0  0  0  0
 64152  1  0  0  0  0
 64153  1  0  0  0  0
 65154  1  0  0  0  0
 67 68  1  0  0  0  0
 67155  1  0  0  0  0
 67156  1  0  0  0  0
 68 72  1  0  0  0  0
 69 68  2  0  0  0  0
 69157  1  0  0  0  0
 70 69  1  0  0  0  0
 70158  1  0  0  0  0
 71 70  1  0  0  0  0
 72 71  2  0  0  0  0
 72 73  1  0  0  0  0
 73 74  2  0  0  0  0
 73159  1  0  0  0  0
 74 75  1  0  0  0  0
 74160  1  0  0  0  0
 75 76  2  0  0  0  0
 75161  1  0  0  0  0
 76 71  1  0  0  0  0
 76162  1  0  0  0  0
 78 79  1  0  0  0  0
 78163  1  0  0  0  0
 78164  1  0  0  0  0
 79 80  2  0  0  0  0
 80 81  1  0  0  0  0
 80165  1  0  0  0  0
 81 82  1  0  0  0  0
 81166  1  0  0  0  0
 82 83  2  0  0  0  0
 82167  1  0  0  0  0
 83 79  1  0  0  0  0
 84 85  1  0  0  0  0
 84168  1  0  0  0  0
 84169  1  0  0  0  0
 85 86  1  0  0  0  0
 85170  1  0  0  0  0
 85171  1  0  0  0  0
 86  1  1  0  0  0  0
 86 87  2  0  0  0  0
M  END
>  <DRUGBANK_ID>
DB00007

>  <SECONDARY_ACCESSION_NUMBERS>
BTD00009; BIOD00009

>  <COMMON_NAME>
Leuprolide

>  <CAS_NUMBER>
53714-56-0

>  <UNII>
EFY6W0M8TG

>  <SYNONYMS>
Leuprorelin; Leuprorelina; Leuproreline; Leuprorelinum

$$$$
