
 OpenBabel10282417103D

 26 25  0  0  0  0  0  0  0  0999 V2000
    0.9018    0.0174   -0.0857 O   0  0  0  0  0  0  0  0  0  0  0  0
    2.1252   -0.0027   -0.0117 C   0  0  0  0  0  0  0  0  0  0  0  0
    2.8925    0.5574   -0.9786 O   0  0  0  0  0  0  0  0  0  0  0  0
    2.9220   -0.7031    1.1088 C   0  0  1  0  0  0  0  0  0  0  0  0
    2.5946   -0.1260    2.4178 N   0  0  0  0  0  0  0  0  0  0  0  0
    2.5866   -2.2028    1.1120 C   0  0  0  0  0  0  0  0  0  0  0  0
    2.9936   -2.8922   -0.1936 C   0  0  0  0  0  0  0  0  0  0  0  0
    4.4853   -2.7755   -0.4914 C   0  0  0  0  0  0  0  0  0  0  0  0
    5.2681   -3.4970    0.4866 N   0  0  0  0  0  0  0  0  0  0  0  0
    6.1252   -4.5142    0.2684 C   0  0  0  0  0  0  0  0  0  0  0  0
    6.7678   -5.1196    1.2030 N   0  0  0  0  0  0  0  0  0  0  0  0
    6.3349   -4.8936   -0.9949 N   0  0  0  0  0  0  0  0  0  0  0  0
    3.8580    0.5224   -0.8534 H   0  0  0  0  0  0  0  0  0  0  0  0
    3.9937   -0.5436    0.9604 H   0  0  0  0  0  0  0  0  0  0  0  0
    3.1187   -0.5905    3.1567 H   0  0  0  0  0  0  0  0  0  0  0  0
    2.8387    0.8623    2.4417 H   0  0  0  0  0  0  0  0  0  0  0  0
    3.0787   -2.7041    1.9553 H   0  0  0  0  0  0  0  0  0  0  0  0
    1.5085   -2.3504    1.2607 H   0  0  0  0  0  0  0  0  0  0  0  0
    2.6978   -3.9481   -0.1585 H   0  0  0  0  0  0  0  0  0  0  0  0
    2.4356   -2.4482   -1.0274 H   0  0  0  0  0  0  0  0  0  0  0  0
    4.6425   -3.1258   -1.5119 H   0  0  0  0  0  0  0  0  0  0  0  0
    4.8149   -1.7334   -0.5056 H   0  0  0  0  0  0  0  0  0  0  0  0
    5.1497   -3.2175    1.4525 H   0  0  0  0  0  0  0  0  0  0  0  0
    6.5342   -4.7277    2.1141 H   0  0  0  0  0  0  0  0  0  0  0  0
    5.8240   -4.5524   -1.7870 H   0  0  0  0  0  0  0  0  0  0  0  0
    6.9349   -5.6933   -1.1331 H   0  0  0  0  0  0  0  0  0  0  0  0
  2  1  2  0  0  0  0
  3  2  1  0  0  0  0
  3 13  1  0  0  0  0
  4  2  1  0  0  0  0
  4  5  1  0  0  0  0
  4 14  1  6  0  0  0
  5 15  1  0  0  0  0
  5 16  1  0  0  0  0
  6  4  1  0  0  0  0
  6 17  1  0  0  0  0
  6 18  1  0  0  0  0
  7  6  1  0  0  0  0
  7  8  1  0  0  0  0
  7 19  1  0  0  0  0
  7 20  1  0  0  0  0
  8 21  1  0  0  0  0
  8 22  1  0  0  0  0
  9  8  1  0  0  0  0
  9 23  1  0  0  0  0
 10  9  1  0  0  0  0
 11 10  2  0  0  0  0
 11 24  1  0  0  0  0
 12 10  1  0  0  0  0
 12 25  1  0  0  0  0
 12 26  1  0  0  0  0
M  END
>  <DRUGBANK_ID>
DB00125

>  <SECONDARY_ACCESSION_NUMBERS>
NUTR00014

>  <COMMON_NAME>
Arginine

>  <CAS_NUMBER>
74-79-3

>  <UNII>
94ZLA3W45F

>  <SYNONYMS>
(2S)-2-amino-5-(carbamimidamido)pentanoic acid; (2S)-2-amino-5-guanidinopentanoic acid; (S)-2-amino-5-guanidinopentanoic acid; (S)-2-Amino-5-guanidinovaleric acid; Arg; Arginina; Arginine; L-(+)-Arginine; L-Arg; L-Arginin; L-arginine; R

$$$$
