
 OpenBabel10282417153D

 26 27  0  0  0  0  0  0  0  0999 V2000
    1.0267   -0.0383    0.1124 C   0  0  0  0  0  0  0  0  0  0  0  0
   -0.4075    1.0445    1.9115 C   0  0  0  0  0  0  0  0  0  0  0  0
    1.1072    5.2615   -0.3397 C   0  0  0  0  0  0  0  0  0  0  0  0
    1.8131    5.6424    1.9411 C   0  0  0  0  0  0  0  0  0  0  0  0
    1.3467    6.6111   -0.6335 C   0  0  0  0  0  0  0  0  0  0  0  0
    2.1813    6.9441    1.6092 C   0  0  0  0  0  0  0  0  0  0  0  0
   -0.7372    2.0977    2.6705 C   0  0  0  0  0  0  0  0  0  0  0  0
    1.1829    2.3647    0.6782 C   0  0  0  0  0  0  0  0  0  0  0  0
    0.6076    1.1708    0.8889 C   0  0  0  0  0  0  0  0  0  0  0  0
    1.2651    4.7947    0.9749 C   0  0  0  0  0  0  0  0  0  0  0  0
    1.8823    7.4407    0.3479 C   0  0  0  0  0  0  0  0  0  0  0  0
   -0.1856    3.4455    2.3708 C   0  0  0  0  0  0  0  0  0  0  0  0
    0.7886    3.5060    1.3594 N   0  0  0  0  0  0  0  0  0  0  0  0
    2.1194    8.7650    0.1259 O   0  0  0  0  0  0  0  0  0  0  0  0
   -0.6578    4.4054    2.9899 O   0  0  0  0  0  0  0  0  0  0  0  0
    0.6462    0.0290   -0.9127 H   0  0  0  0  0  0  0  0  0  0  0  0
    0.6552   -0.9699    0.5504 H   0  0  0  0  0  0  0  0  0  0  0  0
    2.1192   -0.1068    0.0705 H   0  0  0  0  0  0  0  0  0  0  0  0
   -0.8697    0.0794    2.0941 H   0  0  0  0  0  0  0  0  0  0  0  0
    0.7132    4.6127   -1.1177 H   0  0  0  0  0  0  0  0  0  0  0  0
    1.9529    5.2893    2.9587 H   0  0  0  0  0  0  0  0  0  0  0  0
    1.0939    6.9978   -1.6162 H   0  0  0  0  0  0  0  0  0  0  0  0
    2.6621    7.5762    2.3485 H   0  0  0  0  0  0  0  0  0  0  0  0
   -1.4406    2.0400    3.4915 H   0  0  0  0  0  0  0  0  0  0  0  0
    2.0029    2.4797   -0.0255 H   0  0  0  0  0  0  0  0  0  0  0  0
    1.7226    9.0217   -0.7219 H   0  0  0  0  0  0  0  0  0  0  0  0
  1 16  1  0  0  0  0
  1 17  1  0  0  0  0
  1 18  1  0  0  0  0
  2 19  1  0  0  0  0
  3 20  1  0  0  0  0
  4 21  1  0  0  0  0
  5  3  1  0  0  0  0
  5 22  1  0  0  0  0
  6  4  2  0  0  0  0
  6 23  1  0  0  0  0
  7  2  2  0  0  0  0
  7 24  1  0  0  0  0
  8 25  1  0  0  0  0
  9  1  1  0  0  0  0
  9  2  1  0  0  0  0
  9  8  2  0  0  0  0
 10  3  2  0  0  0  0
 10  4  1  0  0  0  0
 11  5  2  0  0  0  0
 11  6  1  0  0  0  0
 12  7  1  0  0  0  0
 13  8  1  0  0  0  0
 13 10  1  0  0  0  0
 13 12  1  0  0  0  0
 14 11  1  0  0  0  0
 14 26  1  0  0  0  0
 15 12  2  0  0  0  0
M  END
>  <DRUGBANK_ID>
DB06299

>  <COMMON_NAME>
Hydronidone

>  <CAS_NUMBER>
851518-71-3

>  <UNII>
RXQ128313W

>  <SYNONYMS>
N-(4-Hydroxyphenyl)-5-methyl-2-pyridone

$$$$
