
 OpenBabel10282417123D

156164  0  0  0  0  0  0  0  0999 V2000
   43.2013   16.0469  -25.2092 Cl  0  0  0  0  0  0  0  0  0  0  0  0
   39.1622   23.0151  -24.0888 Cl  0  0  0  0  0  0  0  0  0  0  0  0
   45.3814   22.1400  -27.3631 O   0  0  0  0  0  0  0  0  0  0  0  0
   43.3441   20.1014  -25.7880 O   0  0  0  0  0  0  0  0  0  0  0  0
   41.4114   23.6952  -29.1535 O   0  0  0  0  0  0  0  0  0  0  0  0
   42.8749   22.9742  -31.6749 O   0  0  0  0  0  0  0  0  0  0  0  0
   40.0508   24.7916  -25.3230 O   0  0  0  0  0  0  0  0  0  0  0  0
   40.5275   18.8984  -23.2787 O   0  0  0  0  0  0  0  0  0  0  0  0
   41.1476   19.1016  -20.7356 O   0  0  0  0  0  0  0  0  0  0  0  0
   42.4236   21.4504  -26.2499 O   0  0  0  0  0  0  0  0  0  0  0  0
   40.6550   19.9907  -27.7755 O   0  0  0  0  0  0  0  0  0  0  0  0
   44.8727   19.7517  -21.2043 O   0  0  0  0  0  0  0  0  0  0  0  0
   44.9775   18.8660  -28.6182 O   0  0  0  0  0  0  0  0  0  0  0  0
   47.0278   20.9611  -28.4088 O   0  0  0  0  0  0  0  0  0  0  0  0
   45.1968   24.9234  -31.4563 O   0  0  0  0  0  0  0  0  0  0  0  0
   41.2590   23.0960  -21.9646 O   0  0  0  0  0  0  0  0  0  0  0  0
   39.9660   23.0346  -19.7062 O   0  0  0  0  0  0  0  0  0  0  0  0
   43.1358   21.1246  -30.6209 O   0  0  0  0  0  0  0  0  0  0  0  0
   43.8493   23.3641  -27.2973 O   0  0  0  0  0  0  0  0  0  0  0  0
   47.0357   24.3843  -28.7812 O   0  0  0  0  0  0  0  0  0  0  0  0
   46.6307   22.2672  -23.8513 O   0  0  0  0  0  0  0  0  0  0  0  0
   45.1181   26.3700  -29.0288 O   0  0  0  0  0  0  0  0  0  0  0  0
   44.2679   19.6796  -30.2558 N   0  0  0  0  0  0  0  0  0  0  0  0
   40.4861   21.0981  -22.7968 N   0  0  0  0  0  0  0  0  0  0  0  0
   41.4368   24.0594  -27.0088 N   0  0  0  0  0  0  0  0  0  0  0  0
   44.9581   20.6564  -22.4927 N   0  0  0  0  0  0  0  0  0  0  0  0
   42.3696   20.0085  -26.8376 N   0  0  0  0  0  0  0  0  0  0  0  0
   45.0534   22.4688  -30.2996 N   0  0  0  0  0  0  0  0  0  0  0  0
   45.8797   23.3836  -25.6004 N   0  0  0  0  0  0  0  0  0  0  0  0
   48.3686   22.1326  -26.6371 N   0  0  0  0  0  0  0  0  0  0  0  0
   43.8088   25.3244  -27.4395 N   0  0  0  0  0  0  0  0  0  0  0  0
   42.9015   19.9465  -29.7892 C   0  0  2  0  0  0  0  0  0  0  0  0
   42.5543   22.2949  -29.9187 C   0  0  0  0  0  0  0  0  0  0  0  0
   43.1722   19.7940  -28.3572 C   0  0  0  0  0  0  0  0  0  0  0  0
   44.7580   22.8406  -28.9577 C   0  0  2  0  0  0  0  0  0  0  0  0
   43.6995   21.4212  -27.2015 C   0  0  1  0  0  0  0  0  0  0  0  0
   41.1840   20.5446  -30.1980 C   0  0  0  0  0  0  0  0  0  0  0  0
   46.3956   21.5486  -30.1923 C   0  0  0  0  0  0  0  0  0  0  0  0
   41.9517   21.0942  -24.8069 C   0  0  1  0  0  0  0  0  0  0  0  0
   40.8071   21.9231  -24.6409 C   0  0  1  0  0  0  0  0  0  0  0  0
   41.1470   19.9310  -25.2214 C   0  0  0  0  0  0  0  0  0  0  0  0
   40.6826   23.8606  -25.6746 C   0  0  0  0  0  0  0  0  0  0  0  0
   41.6725   18.4145  -25.3571 C   0  0  0  0  0  0  0  0  0  0  0  0
   41.4605   20.0263  -24.0976 C   0  0  0  0  0  0  0  0  0  0  0  0
   41.4713   20.0094  -22.4923 C   0  0  0  0  0  0  0  0  0  0  0  0
   43.6118   20.7717  -23.1313 C   0  0  1  0  0  0  0  0  0  0  0  0
   41.1141   22.4790  -27.7287 C   0  0  1  0  0  0  0  0  0  0  0  0
   42.1904   17.4633  -23.8565 C   0  0  0  0  0  0  0  0  0  0  0  0
   42.1733   18.3935  -23.1292 C   0  0  0  0  0  0  0  0  0  0  0  0
   41.8126   17.7097  -22.0435 C   0  0  0  0  0  0  0  0  0  0  0  0
   44.2506   20.5756  -24.2871 C   0  0  0  0  0  0  0  0  0  0  0  0
   42.5496   22.6290  -28.1938 C   0  0  0  0  0  0  0  0  0  0  0  0
   44.2311   21.3843  -28.6095 C   0  0  0  0  0  0  0  0  0  0  0  0
   44.7533   20.2596  -26.7476 C   0  0  0  0  0  0  0  0  0  0  0  0
   44.2538   21.2809  -25.1685 C   0  0  0  0  0  0  0  0  0  0  0  0
   40.8426   21.0384  -27.0071 C   0  0  0  0  0  0  0  0  0  0  0  0
   44.3154   18.7049  -25.0030 C   0  0  0  0  0  0  0  0  0  0  0  0
   44.3111   19.4436  -22.5919 C   0  0  0  0  0  0  0  0  0  0  0  0
   42.9355   19.5981  -24.4487 C   0  0  1  0  0  0  0  0  0  0  0  0
   43.1542   24.1791  -29.2807 C   0  0  0  0  0  0  0  0  0  0  0  0
   44.4456   19.0778  -27.2286 C   0  0  0  0  0  0  0  0  0  0  0  0
   45.9761   21.7800  -28.7740 C   0  0  0  0  0  0  0  0  0  0  0  0
   41.1706   20.6256  -19.4912 C   0  0  0  0  0  0  0  0  0  0  0  0
   43.0564   19.7466  -22.0161 C   0  0  0  0  0  0  0  0  0  0  0  0
   43.8751   18.2707  -26.2986 C   0  0  0  0  0  0  0  0  0  0  0  0
   45.0119   24.3968  -30.2422 C   0  0  0  0  0  0  0  0  0  0  0  0
   42.4205   19.8781  -20.2142 C   0  0  0  0  0  0  0  0  0  0  0  0
   46.3427   23.4000  -30.1729 C   0  0  0  0  0  0  0  0  0  0  0  0
   40.8398   22.0096  -19.9910 C   0  0  0  0  0  0  0  0  0  0  0  0
   42.5986   21.1912  -21.1657 C   0  0  0  0  0  0  0  0  0  0  0  0
   41.6182   22.2408  -21.0279 C   0  0  0  0  0  0  0  0  0  0  0  0
   43.8069   22.8905  -30.1501 C   0  0  2  0  0  0  0  0  0  0  0  0
   42.5834   21.1805  -28.9177 C   0  0  0  0  0  0  0  0  0  0  0  0
   45.4434   23.7825  -26.8178 C   0  0  2  0  0  0  0  0  0  0  0  0
   47.4234   21.3943  -25.9104 C   0  0  2  0  0  0  0  0  0  0  0  0
   46.9014   20.2358  -26.5942 C   0  0  0  0  0  0  0  0  0  0  0  0
   46.3399   19.1511  -25.9020 C   0  0  0  0  0  0  0  0  0  0  0  0
   44.3573   23.1668  -26.2672 C   0  0  1  0  0  0  0  0  0  0  0  0
   46.1568   23.4920  -28.6122 C   0  0  0  0  0  0  0  0  0  0  0  0
   43.3923   25.2090  -30.3995 C   0  0  0  0  0  0  0  0  0  0  0  0
   46.6161   22.3702  -25.0894 C   0  0  0  0  0  0  0  0  0  0  0  0
   43.4165   23.6487  -25.3949 C   0  0  0  0  0  0  0  0  0  0  0  0
   45.9957   19.8381  -24.6852 C   0  0  0  0  0  0  0  0  0  0  0  0
   45.6500   17.7294  -26.8556 C   0  0  0  0  0  0  0  0  0  0  0  0
   42.0541   23.2656  -22.9380 C   0  0  0  0  0  0  0  0  0  0  0  0
   42.2959   23.1510  -25.4643 C   0  0  0  0  0  0  0  0  0  0  0  0
   44.0160   23.3190  -24.2036 C   0  0  0  0  0  0  0  0  0  0  0  0
   41.4394   23.5033  -23.9923 C   0  0  0  0  0  0  0  0  0  0  0  0
   43.3463   23.4196  -23.1132 C   0  0  0  0  0  0  0  0  0  0  0  0
   44.1086   25.7948  -28.7166 C   0  0  0  0  0  0  0  0  0  0  0  0
   47.7898   23.1856  -27.2170 C   0  0  0  0  0  0  0  0  0  0  0  0
   44.6895   19.9362  -29.3209 H   0  0  0  0  0  0  0  0  0  0  0  0
   44.5126   20.6731  -30.5108 H   0  0  0  0  0  0  0  0  0  0  0  0
   40.2379   21.8277  -25.4544 H   0  0  0  0  0  0  0  0  0  0  0  0
   40.6097   20.7591  -21.5471 H   0  0  0  0  0  0  0  0  0  0  0  0
   41.6990   24.9814  -27.4383 H   0  0  0  0  0  0  0  0  0  0  0  0
   43.6417   21.6930  -23.2081 H   0  0  0  0  0  0  0  0  0  0  0  0
   45.9205   20.6912  -22.8348 H   0  0  0  0  0  0  0  0  0  0  0  0
   43.6774   18.9893  -23.1727 H   0  0  0  0  0  0  0  0  0  0  0  0
   41.8227   20.6311  -28.1654 H   0  0  0  0  0  0  0  0  0  0  0  0
   45.4058   22.4800  -31.1826 H   0  0  0  0  0  0  0  0  0  0  0  0
   45.1702   23.9329  -25.1756 H   0  0  0  0  0  0  0  0  0  0  0  0
   48.6617   21.6207  -27.4547 H   0  0  0  0  0  0  0  0  0  0  0  0
   43.3338   24.4003  -27.2261 H   0  0  0  0  0  0  0  0  0  0  0  0
   44.4506   25.4750  -26.6646 H   0  0  0  0  0  0  0  0  0  0  0  0
   42.0783   23.9867  -28.1048 H   0  0  0  0  0  0  0  0  0  0  0  0
   43.6276   23.6980  -31.5193 H   0  0  0  0  0  0  0  0  0  0  0  0
   43.2665   20.3075  -26.7248 H   0  0  0  0  0  0  0  0  0  0  0  0
   44.2399   18.7068  -29.3380 H   0  0  0  0  0  0  0  0  0  0  0  0
   47.6973   21.0170  -29.0201 H   0  0  0  0  0  0  0  0  0  0  0  0
   44.9551   25.6972  -30.8979 H   0  0  0  0  0  0  0  0  0  0  0  0
   40.4570   23.8002  -19.3298 H   0  0  0  0  0  0  0  0  0  0  0  0
   44.4912   22.6752  -27.5726 H   0  0  0  0  0  0  0  0  0  0  0  0
   42.7071   21.2256  -27.5681 H   0  0  0  0  0  0  0  0  0  0  0  0
   42.4468   19.0567  -28.1917 H   0  0  0  0  0  0  0  0  0  0  0  0
   44.8162   24.1395  -28.6086 H   0  0  0  0  0  0  0  0  0  0  0  0
   44.9624   20.5428  -27.9815 H   0  0  0  0  0  0  0  0  0  0  0  0
   41.5184   20.0444  -30.9954 H   0  0  0  0  0  0  0  0  0  0  0  0
   40.5702   20.5505  -29.3570 H   0  0  0  0  0  0  0  0  0  0  0  0
   41.0289   21.7490  -30.4383 H   0  0  0  0  0  0  0  0  0  0  0  0
   46.0095   21.1353  -30.9571 H   0  0  0  0  0  0  0  0  0  0  0  0
   47.2615   22.1874  -29.5352 H   0  0  0  0  0  0  0  0  0  0  0  0
   46.0285   20.3563  -29.5270 H   0  0  0  0  0  0  0  0  0  0  0  0
   42.6421   21.8929  -24.4448 H   0  0  0  0  0  0  0  0  0  0  0  0
   42.1571   18.4795  -26.4492 H   0  0  0  0  0  0  0  0  0  0  0  0
   42.1012   21.1154  -23.2902 H   0  0  0  0  0  0  0  0  0  0  0  0
   40.3687   22.6693  -28.3572 H   0  0  0  0  0  0  0  0  0  0  0  0
   42.2497   18.2947  -21.7637 H   0  0  0  0  0  0  0  0  0  0  0  0
   43.6582   21.9679  -25.4838 H   0  0  0  0  0  0  0  0  0  0  0  0
   44.2678   18.0009  -24.2010 H   0  0  0  0  0  0  0  0  0  0  0  0
   42.4465   23.9665  -30.2962 H   0  0  0  0  0  0  0  0  0  0  0  0
   43.6795   17.3118  -26.7210 H   0  0  0  0  0  0  0  0  0  0  0  0
   42.2039   19.2247  -18.8847 H   0  0  0  0  0  0  0  0  0  0  0  0
   47.1542   23.2068  -30.6116 H   0  0  0  0  0  0  0  0  0  0  0  0
   43.0238   21.5481  -21.9198 H   0  0  0  0  0  0  0  0  0  0  0  0
   43.5971   23.1193  -28.7384 H   0  0  0  0  0  0  0  0  0  0  0  0
   45.6337   24.7120  -26.8494 H   0  0  0  0  0  0  0  0  0  0  0  0
   47.9674   20.7988  -25.2657 H   0  0  0  0  0  0  0  0  0  0  0  0
   46.2088   20.8069  -27.0504 H   0  0  0  0  0  0  0  0  0  0  0  0
   47.2310   19.6768  -27.4010 H   0  0  0  0  0  0  0  0  0  0  0  0
   46.6945   18.6165  -25.1648 H   0  0  0  0  0  0  0  0  0  0  0  0
   44.8412   21.8504  -26.2423 H   0  0  0  0  0  0  0  0  0  0  0  0
   43.4307   25.1606  -31.3473 H   0  0  0  0  0  0  0  0  0  0  0  0
   42.1174   25.3407  -29.8402 H   0  0  0  0  0  0  0  0  0  0  0  0
   45.5515   20.4494  -25.3530 H   0  0  0  0  0  0  0  0  0  0  0  0
   45.2749   19.4269  -23.9691 H   0  0  0  0  0  0  0  0  0  0  0  0
   45.8752   20.8277  -24.3475 H   0  0  0  0  0  0  0  0  0  0  0  0
   45.9158   17.6763  -27.7990 H   0  0  0  0  0  0  0  0  0  0  0  0
   45.2011   17.2552  -25.9919 H   0  0  0  0  0  0  0  0  0  0  0  0
   44.3442   17.6326  -27.8617 H   0  0  0  0  0  0  0  0  0  0  0  0
   41.5177   22.6052  -26.2084 H   0  0  0  0  0  0  0  0  0  0  0  0
   44.9170   22.5926  -24.1958 H   0  0  0  0  0  0  0  0  0  0  0  0
   43.9850   23.2732  -22.3400 H   0  0  0  0  0  0  0  0  0  0  0  0
   48.2902   23.7170  -27.9617 H   0  0  0  0  0  0  0  0  0  0  0  0
   47.2350   22.4841  -27.7086 H   0  0  0  0  0  0  0  0  0  0  0  0
   47.1243   23.8532  -26.7933 H   0  0  0  0  0  0  0  0  0  0  0  0
  1 48  1  0  0  0  0
  2 88  1  0  0  0  0
  3 35  1  0  0  0  0
  3 36  1  0  0  0  0
  5 33  1  0  0  0  0
  5106  1  0  0  0  0
  6 33  1  0  0  0  0
  6107  1  0  0  0  0
  7 42  2  0  0  0  0
  8 45  2  0  0  0  0
  9 50  1  0  0  0  0
  9 63  1  0  0  0  0
 10 56  1  0  0  0  0
 10108  1  0  0  0  0
 11 56  2  0  0  0  0
 12 58  2  0  0  0  0
 13109  1  0  0  0  0
 13 61  1  0  0  0  0
 14110  1  0  0  0  0
 14 62  1  0  0  0  0
 15111  1  0  0  0  0
 15 66  1  0  0  0  0
 16 71  1  0  0  0  0
 16 85  1  0  0  0  0
 17112  1  0  0  0  0
 17 69  1  0  0  0  0
 18 73  2  0  0  0  0
 19113  1  0  0  0  0
 20 79  2  0  0  0  0
 21 81  2  0  0  0  0
 22 90  2  0  0  0  0
 23 92  1  0  0  0  0
 23 93  1  0  0  0  0
 24 40  1  0  0  0  0
 24 45  1  0  0  0  0
 24 95  1  0  0  0  0
 25 42  1  0  0  0  0
 25 47  1  0  0  0  0
 25 96  1  0  0  0  0
 26 46  1  0  0  0  0
 26 58  1  0  0  0  0
 26 98  1  0  0  0  0
 27 59  1  0  0  0  0
 27 73  1  0  0  0  0
 27100  1  0  0  0  0
 28 72  1  0  0  0  0
 28 79  1  0  0  0  0
 28101  1  0  0  0  0
 29 81  1  0  0  0  0
 29102  1  0  0  0  0
 30 91  1  0  0  0  0
 30103  1  0  0  0  0
 31 90  1  0  0  0  0
 31104  1  0  0  0  0
 31105  1  0  0  0  0
 32 33  1  0  0  0  0
 32 34  1  0  0  0  0
 32 37  1  6  0  0  0
 32 23  1  0  0  0  0
 33 35  1  0  0  0  0
 34 36  1  0  0  0  0
 34114  1  0  0  0  0
 34115  1  0  0  0  0
 35116  1  6  0  0  0
 35 38  1  0  0  0  0
 36  4  1  0  0  0  0
 36117  1  1  0  0  0
 37118  1  0  0  0  0
 37119  1  0  0  0  0
 37120  1  0  0  0  0
 38121  1  0  0  0  0
 38122  1  0  0  0  0
 38123  1  0  0  0  0
 39 40  1  0  0  0  0
 39 41  1  0  0  0  0
 39124  1  1  0  0  0
 39  4  1  0  0  0  0
 40 42  1  0  0  0  0
 40 94  1  1  0  0  0
 41 43  2  0  0  0  0
 41 44  1  0  0  0  0
 43 48  1  0  0  0  0
 43125  1  0  0  0  0
 44 49  2  0  0  0  0
 44126  1  0  0  0  0
 45 46  1  0  0  0  0
 46 51  1  0  0  0  0
 46 97  1  1  0  0  0
 47 52  1  0  0  0  0
 47127  1  6  0  0  0
 47 56  1  0  0  0  0
 48 50  2  0  0  0  0
 49 50  1  0  0  0  0
 49128  1  0  0  0  0
 51 55  2  0  0  0  0
 51 57  1  0  0  0  0
 52 53  2  0  0  0  0
 52 60  1  0  0  0  0
 53 54  1  0  0  0  0
 53 62  1  0  0  0  0
 54 55  1  0  0  0  0
 54 61  2  0  0  0  0
 55129  1  0  0  0  0
 57 65  2  0  0  0  0
 57130  1  0  0  0  0
 58 59  1  0  0  0  0
 59 64  1  0  0  0  0
 59 99  1  6  0  0  0
 60 66  2  0  0  0  0
 60131  1  0  0  0  0
 61 65  1  0  0  0  0
 62 68  2  0  0  0  0
 63 67  2  0  0  0  0
 63 69  1  0  0  0  0
 64 67  1  0  0  0  0
 64 70  2  0  0  0  0
 65132  1  0  0  0  0
 66 68  1  0  0  0  0
 67133  1  0  0  0  0
 68134  1  0  0  0  0
 69 71  2  0  0  0  0
 70 71  1  0  0  0  0
 70135  1  0  0  0  0
 72 73  1  0  0  0  0
 72 80  1  0  0  0  0
 72136  1  1  0  0  0
 74 78  1  0  0  0  0
 74 79  1  0  0  0  0
 74137  1  1  0  0  0
 74 29  1  0  0  0  0
 75 81  1  0  0  0  0
 75138  1  1  0  0  0
 75 76  1  0  0  0  0
 75 30  1  0  0  0  0
 76 77  1  0  0  0  0
 76139  1  0  0  0  0
 76140  1  0  0  0  0
 77 83  1  0  0  0  0
 77 84  1  0  0  0  0
 77141  1  0  0  0  0
 78 82  1  0  0  0  0
 78 19  1  0  0  0  0
 78142  1  1  0  0  0
 80 90  1  0  0  0  0
 80143  1  0  0  0  0
 80144  1  0  0  0  0
 82 86  2  0  0  0  0
 82 87  1  0  0  0  0
 83145  1  0  0  0  0
 83146  1  0  0  0  0
 83147  1  0  0  0  0
 84148  1  0  0  0  0
 84149  1  0  0  0  0
 84150  1  0  0  0  0
 85 88  2  0  0  0  0
 85 89  1  0  0  0  0
 86 88  1  0  0  0  0
 86151  1  0  0  0  0
 87 89  2  0  0  0  0
 87152  1  0  0  0  0
 89153  1  0  0  0  0
 91154  1  0  0  0  0
 91155  1  0  0  0  0
 91156  1  0  0  0  0
M  END
>  <DRUGBANK_ID>
DB02792

>  <SECONDARY_ACCESSION_NUMBERS>
EXPT01122

>  <COMMON_NAME>
Deglucobalhimycin

$$$$
