
 OpenBabel10282417143D

 20 20  0  0  1  0  0  0  0  0999 V2000
    0.9056   -0.0450    0.0945 C   0  0  0  0  0  0  0  0  0  0  0  0
    0.2388    2.9036   -0.1411 C   0  0  0  0  0  0  0  0  0  0  0  0
    1.4057    3.0480   -1.1091 C   0  0  1  0  0  0  0  0  0  0  0  0
    0.4154    0.8104   -1.0799 C   0  0  1  0  0  0  0  0  0  0  0  0
    1.5251    1.6624   -1.7916 C   0  0  0  0  0  0  0  0  0  0  0  0
    1.1538    4.0987   -2.0538 O   0  0  0  0  0  0  0  0  0  0  0  0
   -0.2790   -0.0532   -1.9788 O   0  0  0  0  0  0  0  0  0  0  0  0
    1.2452    1.7226   -3.1957 O   0  0  0  0  0  0  0  0  0  0  0  0
    2.8356    1.1436   -1.6723 O   0  0  0  0  0  0  0  0  0  0  0  0
   -0.5316    1.7888   -0.6077 O   0  0  0  0  0  0  0  0  0  0  0  0
    2.3111    3.3304   -0.5610 H   0  0  0  0  0  0  0  0  0  0  0  0
    0.5347   -1.0728    0.0116 H   0  0  0  0  0  0  0  0  0  0  0  0
    0.5706    0.3457    1.0598 H   0  0  0  0  0  0  0  0  0  0  0  0
    1.9959   -0.1206    0.1354 H   0  0  0  0  0  0  0  0  0  0  0  0
    0.5929    2.6758    0.8708 H   0  0  0  0  0  0  0  0  0  0  0  0
   -0.4032    3.7876   -0.0939 H   0  0  0  0  0  0  0  0  0  0  0  0
    0.2461    4.0058   -2.3915 H   0  0  0  0  0  0  0  0  0  0  0  0
   -0.1467    0.3119   -2.8737 H   0  0  0  0  0  0  0  0  0  0  0  0
    0.4467    2.2584   -3.3132 H   0  0  0  0  0  0  0  0  0  0  0  0
    3.4187    1.8071   -2.0811 H   0  0  0  0  0  0  0  0  0  0  0  0
  1 12  1  0  0  0  0
  1 13  1  0  0  0  0
  1 14  1  0  0  0  0
  2 15  1  0  0  0  0
  2 16  1  0  0  0  0
  3  2  1  0  0  0  0
  3  6  1  0  0  0  0
  3 11  1  1  0  0  0
  4  1  1  0  0  0  0
  4  7  1  6  0  0  0
  5  3  1  0  0  0  0
  5  4  1  0  0  0  0
  6 17  1  0  0  0  0
  7 18  1  0  0  0  0
  8  5  1  0  0  0  0
  8 19  1  0  0  0  0
  9  5  1  0  0  0  0
  9 20  1  0  0  0  0
 10  2  1  0  0  0  0
 10  4  1  0  0  0  0
M  END
>  <DRUGBANK_ID>
DB04346

>  <SECONDARY_ACCESSION_NUMBERS>
EXPT02502

>  <COMMON_NAME>
(2r,4s)-2-Methyl-2,3,3,4-Tetrahydroxytetrahydrofuran

$$$$
