
 OpenBabel10282417193D

 28 30  0  0  1  0  0  0  0  0999 V2000
   -1.9813   -0.9241    0.0061 C   0  0  0  0  0  0  0  0  0  0  0  0
   -0.6552   -1.2685    0.2933 C   0  0  0  0  0  0  0  0  0  0  0  0
    0.2576   -0.1898    0.2762 C   0  0  0  0  0  0  0  0  0  0  0  0
    0.0828    0.9703   -0.4292 C   0  0  0  0  0  0  0  0  0  0  0  0
   -1.2634    1.3590   -0.5375 C   0  0  0  0  0  0  0  0  0  0  0  0
   -2.2945    0.3974   -0.2408 C   0  0  0  0  0  0  0  0  0  0  0  0
   -3.7118    0.9194   -0.0794 C   0  0  0  0  0  0  0  0  0  0  0  0
   -3.8711    1.6524    1.0603 F   0  0  0  0  0  0  0  0  0  0  0  0
   -4.0860    1.7296   -1.1011 F   0  0  0  0  0  0  0  0  0  0  0  0
   -4.6572   -0.0643   -0.0102 F   0  0  0  0  0  0  0  0  0  0  0  0
    1.4185    1.8440   -0.3359 C   0  0  2  0  0  0  0  0  0  0  0  0
    2.2827    0.7537    0.3232 C   0  0  0  0  0  0  0  0  0  0  0  0
    1.2111    0.2696    1.3755 C   0  0  1  0  0  0  0  0  0  0  0  0
    0.4071    1.6088    2.2312 C   0  0  0  0  0  0  0  0  0  0  0  0
    0.3161    2.8519    1.4167 N   0  0  0  0  0  0  0  0  0  0  0  0
    1.5704    2.9148    0.7762 C   0  0  0  0  0  0  0  0  0  0  0  0
   -2.7564   -1.7012    0.0875 H   0  0  0  0  0  0  0  0  0  0  0  0
   -0.3721   -2.2754    0.5073 H   0  0  0  0  0  0  0  0  0  0  0  0
   -1.5138    2.3951   -0.5982 H   0  0  0  0  0  0  0  0  0  0  0  0
    1.7094    2.2138   -1.3211 H   0  0  0  0  0  0  0  0  0  0  0  0
    2.6077    0.0060   -0.4178 H   0  0  0  0  0  0  0  0  0  0  0  0
    3.2179    1.1242    0.7689 H   0  0  0  0  0  0  0  0  0  0  0  0
    1.5748   -0.4922    2.0618 H   0  0  0  0  0  0  0  0  0  0  0  0
    0.9990    1.8886    3.1106 H   0  0  0  0  0  0  0  0  0  0  0  0
   -0.6033    1.3517    2.5720 H   0  0  0  0  0  0  0  0  0  0  0  0
   -0.0895    3.7323    1.7450 H   0  0  0  0  0  0  0  0  0  0  0  0
    2.0740    3.8608    0.5434 H   0  0  0  0  0  0  0  0  0  0  0  0
    2.2915    2.5976    1.5596 H   0  0  0  0  0  0  0  0  0  0  0  0
  1  2  2  0  0  0  0
  1  6  1  0  0  0  0
  1 17  1  0  0  0  0
  2  3  1  0  0  0  0
  2 18  1  0  0  0  0
  3  4  2  0  0  0  0
  3 13  1  0  0  0  0
  4  5  1  0  0  0  0
  4 11  1  0  0  0  0
  5  6  2  0  0  0  0
  5 19  1  0  0  0  0
  6  7  1  0  0  0  0
  7  8  1  0  0  0  0
  7  9  1  0  0  0  0
  7 10  1  0  0  0  0
 11 12  1  0  0  0  0
 11 16  1  0  0  0  0
 11 20  1  6  0  0  0
 12 21  1  0  0  0  0
 12 22  1  0  0  0  0
 13 12  1  0  0  0  0
 13 14  1  0  0  0  0
 13 23  1  1  0  0  0
 14 15  1  0  0  0  0
 14 24  1  0  0  0  0
 14 25  1  0  0  0  0
 15 16  1  0  0  0  0
 15 26  1  0  0  0  0
 16 27  1  0  0  0  0
 16 28  1  0  0  0  0
M  END
>  <DRUGBANK_ID>
DB12244

>  <COMMON_NAME>
CP-601927

>  <CAS_NUMBER>
357425-02-6

>  <UNII>
VI5LR1EU47

$$$$
