DCQ
 OpenBabel10282417163D

 53 53  0  0  0  0  0  0  0  0999 V2000
    2.8787   -0.2759    0.0320 O   0  0  0  0  0  0  0  0  0  0  0  0
    1.6713    0.0062    0.0271 C   0  0  0  0  0  0  0  0  0  0  0  0
    1.2261    1.3996   -0.0717 C   0  0  0  0  0  0  0  0  0  0  0  0
    2.1590    2.4173   -0.1514 O   0  0  0  0  0  0  0  0  0  0  0  0
    3.5469    2.1304   -0.1800 C   0  0  0  0  0  0  0  0  0  0  0  0
   -0.0952    1.6864   -0.0609 C   0  0  0  0  0  0  0  0  0  0  0  0
   -0.6434    2.9644   -0.0888 O   0  0  0  0  0  0  0  0  0  0  0  0
    0.2474    4.0738   -0.1145 C   0  0  0  0  0  0  0  0  0  0  0  0
   -1.1055    0.5805   -0.0142 C   0  0  0  0  0  0  0  0  0  0  0  0
   -2.3116    0.8436    0.0365 O   0  0  0  0  0  0  0  0  0  0  0  0
    0.6945   -1.0880    0.1194 C   0  0  0  0  0  0  0  0  0  0  0  0
    1.4673   -2.3706    0.3469 C   0  0  0  0  0  0  0  0  0  0  0  0
   -0.6391   -0.8465    0.0032 C   0  0  0  0  0  0  0  0  0  0  0  0
   -1.7930   -1.8587   -0.0662 C   0  0  0  0  0  0  0  0  0  0  0  0
   -1.8117   -2.7241   -1.3443 C   0  0  0  0  0  0  0  0  0  0  0  0
   -0.5409   -3.5315   -1.4679 C   0  0  0  0  0  0  0  0  0  0  0  0
   -0.3527   -4.4035   -0.1911 C   0  0  0  0  0  0  0  0  0  0  0  0
   -1.3504   -5.5301   -0.1517 C   0  0  0  0  0  0  0  0  0  0  0  0
   -1.1077   -6.3921   -1.3785 C   0  0  0  0  0  0  0  0  0  0  0  0
    0.3142   -6.9811   -1.3562 C   0  0  0  0  0  0  0  0  0  0  0  0
    0.5118   -7.8729   -0.1256 C   0  0  0  0  0  0  0  0  0  0  0  0
   -0.5500   -8.9716   -0.0800 C   0  0  0  0  0  0  0  0  0  0  0  0
   -0.4696   -9.8307   -1.3322 C   0  0  0  0  0  0  0  0  0  0  0  0
    3.8667    1.6551    0.7531 H   0  0  0  0  0  0  0  0  0  0  0  0
    3.8061    1.5411   -1.0659 H   0  0  0  0  0  0  0  0  0  0  0  0
    4.0699    3.0840   -0.2540 H   0  0  0  0  0  0  0  0  0  0  0  0
    0.8789    4.0866    0.7827 H   0  0  0  0  0  0  0  0  0  0  0  0
    0.8403    4.0644   -1.0368 H   0  0  0  0  0  0  0  0  0  0  0  0
   -0.3279    4.9994   -0.1140 H   0  0  0  0  0  0  0  0  0  0  0  0
    1.1148   -2.8638    1.2491 H   0  0  0  0  0  0  0  0  0  0  0  0
    1.5251   -3.0118   -0.5248 H   0  0  0  0  0  0  0  0  0  0  0  0
    2.5428   -2.2757    0.4970 H   0  0  0  0  0  0  0  0  0  0  0  0
   -1.7920   -2.4637    0.8460 H   0  0  0  0  0  0  0  0  0  0  0  0
   -2.7800   -1.3828   -0.0262 H   0  0  0  0  0  0  0  0  0  0  0  0
   -2.6723   -3.4022   -1.3475 H   0  0  0  0  0  0  0  0  0  0  0  0
   -1.9167   -2.0911   -2.2315 H   0  0  0  0  0  0  0  0  0  0  0  0
   -0.4753   -4.1219   -2.3820 H   0  0  0  0  0  0  0  0  0  0  0  0
    0.2270   -2.7966   -1.7066 H   0  0  0  0  0  0  0  0  0  0  0  0
    0.6667   -4.7963   -0.1042 H   0  0  0  0  0  0  0  0  0  0  0  0
   -0.4946   -3.8720    0.7497 H   0  0  0  0  0  0  0  0  0  0  0  0
   -1.2337   -6.0834    0.7874 H   0  0  0  0  0  0  0  0  0  0  0  0
   -2.3684   -5.1354   -0.1166 H   0  0  0  0  0  0  0  0  0  0  0  0
   -1.8851   -7.1522   -1.4373 H   0  0  0  0  0  0  0  0  0  0  0  0
   -1.2485   -5.8270   -2.3009 H   0  0  0  0  0  0  0  0  0  0  0  0
    0.4893   -7.5284   -2.2847 H   0  0  0  0  0  0  0  0  0  0  0  0
    1.0960   -6.2123   -1.3752 H   0  0  0  0  0  0  0  0  0  0  0  0
    1.5154   -8.3092   -0.1426 H   0  0  0  0  0  0  0  0  0  0  0  0
    0.4709   -7.2824    0.7990 H   0  0  0  0  0  0  0  0  0  0  0  0
   -0.4146   -9.5822    0.8156 H   0  0  0  0  0  0  0  0  0  0  0  0
   -1.5562   -8.5449    0.0105 H   0  0  0  0  0  0  0  0  0  0  0  0
    0.5218  -10.2872   -1.4026 H   0  0  0  0  0  0  0  0  0  0  0  0
   -1.2312  -10.6098   -1.3170 H   0  0  0  0  0  0  0  0  0  0  0  0
   -0.6350   -9.2499   -2.2461 H   0  0  0  0  0  0  0  0  0  0  0  0
  1  2  2  0  0  0  0
  2  3  1  0  0  0  0
  2 11  1  0  0  0  0
  3  4  1  0  0  0  0
  3  6  2  0  0  0  0
  4  5  1  0  0  0  0
  5 24  1  0  0  0  0
  5 25  1  0  0  0  0
  5 26  1  0  0  0  0
  6  7  1  0  0  0  0
  6  9  1  0  0  0  0
  7  8  1  0  0  0  0
  8 27  1  0  0  0  0
  8 28  1  0  0  0  0
  8 29  1  0  0  0  0
  9 10  2  0  0  0  0
  9 13  1  0  0  0  0
 11 12  1  0  0  0  0
 11 13  2  0  0  0  0
 12 30  1  0  0  0  0
 12 31  1  0  0  0  0
 12 32  1  0  0  0  0
 13 14  1  0  0  0  0
 14 15  1  0  0  0  0
 14 33  1  0  0  0  0
 14 34  1  0  0  0  0
 15 16  1  0  0  0  0
 15 35  1  0  0  0  0
 15 36  1  0  0  0  0
 16 17  1  0  0  0  0
 16 37  1  0  0  0  0
 16 38  1  0  0  0  0
 17 18  1  0  0  0  0
 17 39  1  0  0  0  0
 17 40  1  0  0  0  0
 18 19  1  0  0  0  0
 18 41  1  0  0  0  0
 18 42  1  0  0  0  0
 19 20  1  0  0  0  0
 19 43  1  0  0  0  0
 19 44  1  0  0  0  0
 20 21  1  0  0  0  0
 20 45  1  0  0  0  0
 20 46  1  0  0  0  0
 21 22  1  0  0  0  0
 21 47  1  0  0  0  0
 21 48  1  0  0  0  0
 22 23  1  0  0  0  0
 22 49  1  0  0  0  0
 22 50  1  0  0  0  0
 23 51  1  0  0  0  0
 23 52  1  0  0  0  0
 23 53  1  0  0  0  0
M  END
>  <DRUGBANK_ID>
DB07640

>  <COMMON_NAME>
2-decyl-5,6-dimethoxy-3-methylcyclohexa-2,5-diene-1,4-dione

>  <UNII>
DP8EJ59CQN

$$$$
