
 OpenBabel10282417183D

 41 42  0  0  0  0  0  0  0  0999 V2000
    0.9774   -0.7245   -0.0683 C   0  0  0  0  0  0  0  0  0  0  0  0
    1.3657   -2.3505    0.0156 C   0  0  0  0  0  0  0  0  0  0  0  0
    1.5860    0.4848   -0.0359 C   0  0  0  0  0  0  0  0  0  0  0  0
   -0.3334   -0.4252   -0.0430 C   0  0  0  0  0  0  0  0  0  0  0  0
    0.4007   -3.4668    0.0227 O   0  0  0  0  0  0  0  0  0  0  0  0
    2.5941   -2.6486    0.0920 O   0  0  0  0  0  0  0  0  0  0  0  0
    0.8284    1.7693   -0.0004 C   0  0  0  0  0  0  0  0  0  0  0  0
    2.9394    0.4740   -0.0377 O   0  0  0  0  0  0  0  0  0  0  0  0
   -1.1531    0.7192    0.2427 C   0  0  0  0  0  0  0  0  0  0  0  0
   -1.1870   -3.7962   -0.0208 C   0  0  3  0  0  0  0  0  0  0  0  0
   -0.5602    1.8935    0.1258 C   0  0  0  0  0  0  0  0  0  0  0  0
   -1.8147   -3.5358   -1.4536 C   0  0  0  0  0  0  0  0  0  0  0  0
   -2.0516   -3.2606    1.2053 C   0  0  0  0  0  0  0  0  0  0  0  0
   -1.6242   -2.0986   -1.8676 C   0  0  0  0  0  0  0  0  0  0  0  0
   -1.9915   -1.7687    1.2468 C   0  0  3  0  0  0  0  0  0  0  0  0
   -2.4929   -1.4289   -0.5440 C   0  0  0  0  0  0  0  0  0  0  0  0
   -0.1017   -1.9646   -2.3696 C   0  0  0  0  0  0  0  0  0  0  0  0
   -2.1880   -1.4227   -3.1273 C   0  0  0  0  0  0  0  0  0  0  0  0
   -0.5040   -1.6528    2.1296 C   0  0  0  0  0  0  0  0  0  0  0  0
   -0.6768   -1.4056   -0.1530 H   0  0  0  0  0  0  0  0  0  0  0  0
    1.3449    2.7106   -0.0443 H   0  0  0  0  0  0  0  0  0  0  0  0
    3.1803   -0.4799   -0.0157 H   0  0  0  0  0  0  0  0  0  0  0  0
   -2.2302    0.6879    0.4742 H   0  0  0  0  0  0  0  0  0  0  0  0
   -1.2533   -4.8850    0.1175 H   0  0  0  0  0  0  0  0  0  0  0  0
   -1.2090    2.7677    0.1366 H   0  0  0  0  0  0  0  0  0  0  0  0
   -1.3771   -4.2088   -2.1909 H   0  0  0  0  0  0  0  0  0  0  0  0
   -2.8956   -3.7244   -1.4182 H   0  0  0  0  0  0  0  0  0  0  0  0
   -3.1136   -3.5131    1.1596 H   0  0  0  0  0  0  0  0  0  0  0  0
   -1.6692   -3.6601    2.1548 H   0  0  0  0  0  0  0  0  0  0  0  0
   -2.6575   -1.1828    1.8916 H   0  0  0  0  0  0  0  0  0  0  0  0
   -2.5462   -0.3958   -0.9019 H   0  0  0  0  0  0  0  0  0  0  0  0
   -3.5673   -1.6474   -0.5917 H   0  0  0  0  0  0  0  0  0  0  0  0
    0.1257   -2.4776   -3.3146 H   0  0  0  0  0  0  0  0  0  0  0  0
    0.2721   -0.9363   -2.4897 H   0  0  0  0  0  0  0  0  0  0  0  0
    0.5934   -2.5277   -1.8012 H   0  0  0  0  0  0  0  0  0  0  0  0
   -3.2653   -1.3354   -3.1325 H   0  0  0  0  0  0  0  0  0  0  0  0
   -1.7828   -0.3880   -3.1707 H   0  0  0  0  0  0  0  0  0  0  0  0
   -1.8271   -1.9014   -4.0470 H   0  0  0  0  0  0  0  0  0  0  0  0
    0.0163   -0.6874    2.2268 H   0  0  0  0  0  0  0  0  0  0  0  0
   -0.1322   -2.3109    2.9395 H   0  0  0  0  0  0  0  0  0  0  0  0
    0.0883   -2.2401    1.4967 H   0  0  0  0  0  0  0  0  0  0  0  0
  1  2  1  0  0  0  0
  1  3  2  0  0  0  0
  1  4  1  0  0  0  0
  2  5  1  0  0  0  0
  2  6  2  0  0  0  0
  3  7  1  0  0  0  0
  3  8  1  0  0  0  0
  4  9  2  0  0  0  0
  4 20  1  0  0  0  0
  5 10  1  0  0  0  0
  7 11  2  0  0  0  0
  7 21  1  0  0  0  0
  8 22  1  0  0  0  0
  9 11  1  0  0  0  0
  9 23  1  0  0  0  0
 10 12  1  0  0  0  0
 10 13  1  0  0  0  0
 10 24  1  0  0  0  0
 11 25  1  0  0  0  0
 12 14  1  0  0  0  0
 12 26  1  0  0  0  0
 12 27  1  0  0  0  0
 13 15  1  0  0  0  0
 13 28  1  0  0  0  0
 13 29  1  0  0  0  0
 14 16  1  0  0  0  0
 14 17  1  0  0  0  0
 14 18  1  0  0  0  0
 15 19  1  0  0  0  0
 15 16  1  0  0  0  0
 15 30  1  0  0  0  0
 16 31  1  0  0  0  0
 16 32  1  0  0  0  0
 17 33  1  0  0  0  0
 17 34  1  0  0  0  0
 17 35  1  0  0  0  0
 18 36  1  0  0  0  0
 18 37  1  0  0  0  0
 18 38  1  0  0  0  0
 19 39  1  0  0  0  0
 19 40  1  0  0  0  0
 19 41  1  0  0  0  0
M  END
>  <DRUGBANK_ID>
DB11064

>  <COMMON_NAME>
Homosalate

>  <CAS_NUMBER>
118-56-9

>  <UNII>
V06SV4M95S

>  <SYNONYMS>
3,3,5-Trimethylcyclohexyl 2-hydroxybenzoate; Homosalate; Homosalato; Homosalatum

$$$$
