
 OpenBabel10282417203D

 37 38  0  0  0  0  0  0  0  0999 V2000
    1.1891   -0.0927   -0.0517 O   0  0  0  0  0  0  0  0  0  0  0  0
    0.6706   -1.4156    0.0964 C   0  0  0  0  0  0  0  0  0  0  0  0
    2.6076   -0.0162    0.0708 C   0  0  0  0  0  0  0  0  0  0  0  0
    0.9859   -3.6330   -0.9096 C   0  0  0  0  0  0  0  0  0  0  0  0
    1.1180   -4.4612   -2.0232 C   0  0  0  0  0  0  0  0  0  0  0  0
    1.4100   -3.8865   -3.2545 C   0  0  0  0  0  0  0  0  0  0  0  0
    1.5845   -2.5132   -3.3542 C   0  0  0  0  0  0  0  0  0  0  0  0
    1.2861   -1.7323   -2.2617 C   0  0  0  0  0  0  0  0  0  0  0  0
    1.0232   -2.2828   -1.0531 N   0  3  0  0  0  0  0  0  0  0  0  0
    1.4534   -4.6839   -4.4946 C   0  0  0  0  0  0  0  0  0  0  0  0
    1.7213   -4.1059   -5.6154 N   0  0  0  0  0  0  0  0  0  0  0  0
    1.6558   -5.0472   -6.6445 O   0  0  0  0  0  0  0  0  0  0  0  0
    4.1615    1.6155   -0.9131 C   0  0  0  0  0  0  0  0  0  0  0  0
    4.5175    2.9156   -1.2599 C   0  0  0  0  0  0  0  0  0  0  0  0
    3.7757    3.9690   -0.7429 C   0  0  0  0  0  0  0  0  0  0  0  0
    2.7138    3.7093    0.1187 C   0  0  0  0  0  0  0  0  0  0  0  0
    2.3420    2.3989    0.3558 C   0  0  0  0  0  0  0  0  0  0  0  0
    3.0527    1.3739   -0.1673 N   0  3  0  0  0  0  0  0  0  0  0  0
    4.0646    5.3665   -1.1218 C   0  0  0  0  0  0  0  0  0  0  0  0
    3.3519    6.3231   -0.6336 N   0  0  0  0  0  0  0  0  0  0  0  0
    3.7928    7.5407   -1.1571 O   0  0  0  0  0  0  0  0  0  0  0  0
    1.0173   -1.8661    1.0317 H   0  0  0  0  0  0  0  0  0  0  0  0
   -0.4254   -1.3629    0.1016 H   0  0  0  0  0  0  0  0  0  0  0  0
    2.9470   -0.3275    1.0599 H   0  0  0  0  0  0  0  0  0  0  0  0
    3.0713   -0.6328   -0.7050 H   0  0  0  0  0  0  0  0  0  0  0  0
    0.8178   -4.0374    0.0869 H   0  0  0  0  0  0  0  0  0  0  0  0
    0.9766   -5.5362   -1.9221 H   0  0  0  0  0  0  0  0  0  0  0  0
    1.8814   -2.0472   -4.2915 H   0  0  0  0  0  0  0  0  0  0  0  0
    1.2750   -0.6498   -2.3566 H   0  0  0  0  0  0  0  0  0  0  0  0
    1.2190   -5.7637   -4.4306 H   0  0  0  0  0  0  0  0  0  0  0  0
    1.8619   -4.5226   -7.4429 H   0  0  0  0  0  0  0  0  0  0  0  0
    4.7504    0.7629   -1.2441 H   0  0  0  0  0  0  0  0  0  0  0  0
    5.3642    3.0914   -1.9221 H   0  0  0  0  0  0  0  0  0  0  0  0
    2.1580    4.5223    0.5819 H   0  0  0  0  0  0  0  0  0  0  0  0
    1.4606    2.1661    0.9480 H   0  0  0  0  0  0  0  0  0  0  0  0
    4.8838    5.5557   -1.8431 H   0  0  0  0  0  0  0  0  0  0  0  0
    3.2116    8.1935   -0.7195 H   0  0  0  0  0  0  0  0  0  0  0  0
  1  2  1  0  0  0  0
  1  3  1  0  0  0  0
  2  9  1  0  0  0  0
  2 22  1  0  0  0  0
  2 23  1  0  0  0  0
  3 18  1  0  0  0  0
  3 24  1  0  0  0  0
  3 25  1  0  0  0  0
  4  5  2  0  0  0  0
  4  9  1  0  0  0  0
  4 26  1  0  0  0  0
  5  6  1  0  0  0  0
  5 27  1  0  0  0  0
  6  7  2  0  0  0  0
  6 10  1  0  0  0  0
  7  8  1  0  0  0  0
  7 28  1  0  0  0  0
  8  9  2  0  0  0  0
  8 29  1  0  0  0  0
 10 11  2  0  0  0  0
 10 30  1  0  0  0  0
 11 12  1  0  0  0  0
 12 31  1  0  0  0  0
 13 14  2  0  0  0  0
 13 18  1  0  0  0  0
 13 32  1  0  0  0  0
 14 15  1  0  0  0  0
 14 33  1  0  0  0  0
 15 16  2  0  0  0  0
 15 19  1  0  0  0  0
 16 17  1  0  0  0  0
 16 34  1  0  0  0  0
 17 18  2  0  0  0  0
 17 35  1  0  0  0  0
 19 20  2  0  0  0  0
 19 36  1  0  0  0  0
 20 21  1  0  0  0  0
 21 37  1  0  0  0  0
M  CHG  2   9   1  18   1
M  END
>  <DRUGBANK_ID>
DB13750

>  <COMMON_NAME>
Obidoxime

>  <CAS_NUMBER>
7683-36-5

>  <UNII>
N6KNE1QA9O

$$$$
