GFA
 OpenBabel10282417163D

 42 44  0  0  0  0  0  0  0  0999 V2000
    0.9905    0.1251    0.0977 O   0  0  0  0  0  0  0  0  0  0  0  0
   -1.8922    0.6242    5.2122 Cl  0  0  0  0  0  0  0  0  0  0  0  0
    3.5804    0.4006   -1.9772 O   0  0  0  0  0  0  0  0  0  0  0  0
    1.9813    2.4847    0.6486 O   0  0  0  0  0  0  0  0  0  0  0  0
    2.4987   -1.5656   -2.0515 N   0  0  0  0  0  0  0  0  0  0  0  0
   -0.7050   -0.5860    1.6119 C   0  0  0  0  0  0  0  0  0  0  0  0
    0.7224    1.2356    2.2290 C   0  0  0  0  0  0  0  0  0  0  0  0
    0.0003    1.3423    3.4327 C   0  0  0  0  0  0  0  0  0  0  0  0
    2.2869    3.1972    2.7857 C   0  0  0  0  0  0  0  0  0  0  0  0
    1.6777    2.2882    1.8295 C   0  0  0  0  0  0  0  0  0  0  0  0
    0.4060    0.2261    1.3304 C   0  0  0  0  0  0  0  0  0  0  0  0
    2.7475    2.7688    4.0310 C   0  0  0  0  0  0  0  0  0  0  0  0
   -1.0357    0.4621    3.7322 C   0  0  0  0  0  0  0  0  0  0  0  0
    0.4989   -2.3950   -0.9537 C   0  0  0  0  0  0  0  0  0  0  0  0
    2.3890   -0.1950    0.0572 C   0  0  0  0  0  0  0  0  0  0  0  0
    1.7476   -2.6191   -1.5191 C   0  0  0  0  0  0  0  0  0  0  0  0
    3.2130    5.3801    3.1140 C   0  0  0  0  0  0  0  0  0  0  0  0
    2.8342   -0.3973   -1.4010 C   0  0  0  0  0  0  0  0  0  0  0  0
   -1.4082   -0.5003    2.8149 C   0  0  0  0  0  0  0  0  0  0  0  0
   -0.1868   -3.4041   -0.2839 C   0  0  0  0  0  0  0  0  0  0  0  0
    2.2244   -3.9199   -1.5841 C   0  0  0  0  0  0  0  0  0  0  0  0
    2.4895    4.5016    2.3331 C   0  0  0  0  0  0  0  0  0  0  0  0
    1.5226   -4.9444   -0.9367 C   0  0  0  0  0  0  0  0  0  0  0  0
    3.6427    4.9783    4.3788 C   0  0  0  0  0  0  0  0  0  0  0  0
    0.3533   -4.6731   -0.2292 C   0  0  0  0  0  0  0  0  0  0  0  0
    3.4039    3.6811    4.8429 C   0  0  0  0  0  0  0  0  0  0  0  0
    3.0560   -1.7251   -2.8812 H   0  0  0  0  0  0  0  0  0  0  0  0
   -1.0903   -1.2750    0.8780 H   0  0  0  0  0  0  0  0  0  0  0  0
    0.1981    2.1457    4.1326 H   0  0  0  0  0  0  0  0  0  0  0  0
    2.6197    1.7422    4.3642 H   0  0  0  0  0  0  0  0  0  0  0  0
    0.0293   -1.4237   -1.0590 H   0  0  0  0  0  0  0  0  0  0  0  0
    3.0418    0.5877    0.4545 H   0  0  0  0  0  0  0  0  0  0  0  0
    2.6184   -1.0918    0.6450 H   0  0  0  0  0  0  0  0  0  0  0  0
    3.4595    6.3601    2.7191 H   0  0  0  0  0  0  0  0  0  0  0  0
   -2.2566   -1.1551    3.0025 H   0  0  0  0  0  0  0  0  0  0  0  0
   -1.1482   -3.2077    0.1791 H   0  0  0  0  0  0  0  0  0  0  0  0
    3.1609   -4.1434   -2.0842 H   0  0  0  0  0  0  0  0  0  0  0  0
    2.1183    4.8017    1.3530 H   0  0  0  0  0  0  0  0  0  0  0  0
    1.8875   -5.9647   -0.9807 H   0  0  0  0  0  0  0  0  0  0  0  0
    4.1853    5.6815    5.0011 H   0  0  0  0  0  0  0  0  0  0  0  0
   -0.1632   -5.4474    0.3290 H   0  0  0  0  0  0  0  0  0  0  0  0
    3.7625    3.3719    5.8201 H   0  0  0  0  0  0  0  0  0  0  0  0
  1 11  1  0  0  0  0
  1 15  1  0  0  0  0
  2 13  1  0  0  0  0
  3 18  2  0  0  0  0
  4 10  2  0  0  0  0
  5 16  1  0  0  0  0
  5 18  1  0  0  0  0
  5 27  1  0  0  0  0
  6 11  2  0  0  0  0
  6 19  1  0  0  0  0
  6 28  1  0  0  0  0
  7  8  2  0  0  0  0
  7 10  1  0  0  0  0
  7 11  1  0  0  0  0
  8 13  1  0  0  0  0
  8 29  1  0  0  0  0
  9 10  1  0  0  0  0
  9 12  2  0  0  0  0
  9 22  1  0  0  0  0
 12 26  1  0  0  0  0
 12 30  1  0  0  0  0
 13 19  2  0  0  0  0
 14 16  2  0  0  0  0
 14 20  1  0  0  0  0
 14 31  1  0  0  0  0
 15 18  1  0  0  0  0
 15 32  1  0  0  0  0
 15 33  1  0  0  0  0
 16 21  1  0  0  0  0
 17 22  2  0  0  0  0
 17 24  1  0  0  0  0
 17 34  1  0  0  0  0
 19 35  1  0  0  0  0
 20 25  2  0  0  0  0
 20 36  1  0  0  0  0
 21 23  2  0  0  0  0
 21 37  1  0  0  0  0
 22 38  1  0  0  0  0
 23 25  1  0  0  0  0
 23 39  1  0  0  0  0
 24 26  2  0  0  0  0
 24 40  1  0  0  0  0
 25 41  1  0  0  0  0
 26 42  1  0  0  0  0
M  END
>  <DRUGBANK_ID>
DB07826

>  <COMMON_NAME>
2-[4-chloro-2-(phenylcarbonyl)phenoxy]-N-phenylacetamide

$$$$
