
 OpenBabel10282417203D

 32 32  0  0  0  0  0  0  0  0999 V2000
    1.0757   -0.0489   -0.0255 C   0  0  0  0  0  0  0  0  0  0  0  0
    0.6712    0.3997   -1.4278 C   0  0  0  0  0  0  0  0  0  0  0  0
    1.1482   -0.5038   -2.4715 O   0  0  0  0  0  0  0  0  0  0  0  0
    2.5083   -0.4982   -2.6523 C   0  0  0  0  0  0  0  0  0  0  0  0
    3.2391    0.1946   -1.9779 O   0  0  0  0  0  0  0  0  0  0  0  0
    3.0318   -1.4189   -3.7539 C   0  0  0  0  0  0  0  0  0  0  0  0
    2.1888   -2.1995   -4.4759 C   0  0  0  0  0  0  0  0  0  0  0  0
    2.5351   -3.0746   -5.5620 C   0  0  0  0  0  0  0  0  0  0  0  0
    2.1733   -2.8952   -6.8231 N   0  0  0  0  0  0  0  0  0  0  0  0
    2.9032   -3.7727   -7.5824 C   0  0  0  0  0  0  0  0  0  0  0  0
    3.6888   -4.5496   -6.7721 C   0  0  0  0  0  0  0  0  0  0  0  0
    3.3620   -4.2141   -5.4639 N   0  0  0  0  0  0  0  0  0  0  0  0
    4.0233   -4.7202   -4.2646 C   0  0  0  0  0  0  0  0  0  0  0  0
    4.7293   -5.4372   -7.1853 N   0  3  0  0  0  0  0  0  0  0  0  0
    4.8391   -5.6310   -8.4018 O   0  0  0  0  0  0  0  0  0  0  0  0
    5.4627   -5.9137   -6.3150 O   0  5  0  0  0  0  0  0  0  0  0  0
    4.5463   -1.3802   -3.9358 C   0  0  0  0  0  0  0  0  0  0  0  0
    5.2819   -0.9753   -3.0357 O   0  0  0  0  0  0  0  0  0  0  0  0
    5.2198   -1.9058   -5.1728 C   0  0  0  0  0  0  0  0  0  0  0  0
    0.7240   -1.0663    0.1650 H   0  0  0  0  0  0  0  0  0  0  0  0
    0.6674    0.6186    0.7413 H   0  0  0  0  0  0  0  0  0  0  0  0
    2.1611   -0.0596    0.1052 H   0  0  0  0  0  0  0  0  0  0  0  0
   -0.4247    0.4164   -1.4818 H   0  0  0  0  0  0  0  0  0  0  0  0
    1.0057    1.4282   -1.6227 H   0  0  0  0  0  0  0  0  0  0  0  0
    1.1124   -2.0696   -4.3486 H   0  0  0  0  0  0  0  0  0  0  0  0
    2.8721   -3.7506   -8.6677 H   0  0  0  0  0  0  0  0  0  0  0  0
    3.8140   -5.7801   -4.1456 H   0  0  0  0  0  0  0  0  0  0  0  0
    5.1127   -4.6070   -4.3469 H   0  0  0  0  0  0  0  0  0  0  0  0
    3.7065   -4.1471   -3.3934 H   0  0  0  0  0  0  0  0  0  0  0  0
    5.0926   -2.9564   -5.1893 H   0  0  0  0  0  0  0  0  0  0  0  0
    4.8417   -1.5038   -6.1096 H   0  0  0  0  0  0  0  0  0  0  0  0
    6.3077   -1.8773   -5.0941 H   0  0  0  0  0  0  0  0  0  0  0  0
  1  2  1  0  0  0  0
  1 20  1  0  0  0  0
  1 21  1  0  0  0  0
  1 22  1  0  0  0  0
  2  3  1  0  0  0  0
  2 23  1  0  0  0  0
  2 24  1  0  0  0  0
  3  4  1  0  0  0  0
  4  5  2  0  0  0  0
  4  6  1  0  0  0  0
  6  7  2  0  0  0  0
  6 17  1  0  0  0  0
  7  8  1  0  0  0  0
  7 25  1  0  0  0  0
  8  9  2  0  0  0  0
  8 12  1  0  0  0  0
  9 10  1  0  0  0  0
 10 11  2  0  0  0  0
 10 26  1  0  0  0  0
 11 12  1  0  0  0  0
 11 14  1  0  0  0  0
 12 13  1  0  0  0  0
 13 27  1  0  0  0  0
 13 28  1  0  0  0  0
 13 29  1  0  0  0  0
 14 15  2  0  0  0  0
 14 16  1  0  0  0  0
 17 18  2  0  0  0  0
 17 19  1  0  0  0  0
 19 30  1  0  0  0  0
 19 31  1  0  0  0  0
 19 32  1  0  0  0  0
M  CHG  2  14   1  16  -1
M  END
>  <DRUGBANK_ID>
DB13319

>  <COMMON_NAME>
Propenidazole

>  <CAS_NUMBER>
76448-31-2

>  <UNII>
F0O89MB7QE

>  <SYNONYMS>
Propenidazole

$$$$
