
 OpenBabel10282417213D

179180  0  0  0  0  0  0  0  0999 V2000
    0.2812   -1.5745    0.7549 C   0  0  0  0  0  0  0  0  0  0  0  0
    1.0372   -3.8886    1.0753 N   0  0  0  0  0  0  0  0  0  0  0  0
    2.1416   -6.3798    1.5550 C   0  0  2  0  0  0  0  0  0  0  0  0
    2.8395   -9.2916    1.7161 C   0  0  0  0  0  0  0  0  0  0  0  0
    3.2649  -12.0033    1.6823 N   0  0  0  0  0  0  0  0  0  0  0  0
    3.6104  -14.5613    2.1502 C   0  0  1  0  0  0  0  0  0  0  0  0
    2.4998  -16.5864    2.7602 C   0  0  0  0  0  0  0  0  0  0  0  0
    1.2872  -15.8951    2.8363 N   0  0  0  0  0  0  0  0  0  0  0  0
   -0.0887  -16.2019    3.1628 C   0  0  1  0  0  0  0  0  0  0  0  0
   -0.7568  -15.5542    4.3353 C   0  0  0  0  0  0  0  0  0  0  0  0
    2.0394   -3.6703    2.0740 C   0  0  3  0  0  0  0  0  0  0  0  0
    3.6454  -10.9893    1.6128 O   0  0  0  0  0  0  0  0  0  0  0  0
    4.6419  -16.4614    3.3406 C   0  0  0  0  0  0  0  0  0  0  0  0
    6.2020  -16.4415    3.2354 C   0  0  0  0  0  0  0  0  0  0  0  0
    4.4731  -16.2579    4.9944 C   0  0  0  0  0  0  0  0  0  0  0  0
    2.3150  -17.5871    3.8123 O   0  0  0  0  0  0  0  0  0  0  0  0
   -0.9833  -15.7296    2.0334 C   0  0  0  0  0  0  0  0  0  0  0  0
    0.2193  -15.4862    5.4597 C   0  0  0  0  0  0  0  0  0  0  0  0
    1.4290  -14.6768    5.0570 C   0  0  0  0  0  0  0  0  0  0  0  0
    1.0525  -13.2910    4.7094 C   0  0  0  0  0  0  0  0  0  0  0  0
    0.3901  -12.6170    5.7910 N   0  0  0  0  0  0  0  0  0  0  0  0
   -1.9542  -14.7098    2.2273 N   0  0  0  0  0  0  0  0  0  0  0  0
   -2.7943  -14.2162    1.1966 C   0  0  2  0  0  0  0  0  0  0  0  0
   -1.3909  -16.6822    1.3721 O   0  0  0  0  0  0  0  0  0  0  0  0
    0.2341    0.9234    0.6391 C   0  0  1  0  0  0  0  0  0  0  0  0
   -0.9517   -0.2416    0.4572 O   0  0  0  0  0  0  0  0  0  0  0  0
    0.2058    2.6754   -0.5937 N   0  0  0  0  0  0  0  0  0  0  0  0
   -0.2112    2.7340    1.7702 C   0  0  3  0  0  0  0  0  0  0  0  0
   -0.2393    2.0512    3.0634 C   0  0  0  0  0  0  0  0  0  0  0  0
    0.7573    4.0540    1.9586 C   0  0  0  0  0  0  0  0  0  0  0  0
    0.3755    5.2361    1.9353 O   0  0  0  0  0  0  0  0  0  0  0  0
    2.0884    3.7870    2.1873 O   0  0  0  0  0  0  0  0  0  0  0  0
   -0.1777    4.1673   -0.6007 C   0  0  0  0  0  0  0  0  0  0  0  0
   -0.1691    5.0112   -1.8636 C   0  0  0  0  0  0  0  0  0  0  0  0
   -0.5297    6.3161   -1.8607 C   0  0  0  0  0  0  0  0  0  0  0  0
    0.4731   12.4464   -2.2703 C   0  0  0  0  0  0  0  0  0  0  0  0
   -0.5385    7.1482   -3.0946 C   0  0  0  0  0  0  0  0  0  0  0  0
   -0.9017    8.4416   -3.0745 C   0  0  0  0  0  0  0  0  0  0  0  0
   -1.3041    9.1067   -1.7832 C   0  0  0  0  0  0  0  0  0  0  0  0
   -0.3886   10.2605   -1.4697 C   0  0  0  0  0  0  0  0  0  0  0  0
   -0.4648   11.3008   -2.5718 C   0  0  3  0  0  0  0  0  0  0  0  0
   -1.8824   11.8070   -2.6923 C   0  0  0  0  0  0  0  0  0  0  0  0
    1.6245   -1.5502    3.2081 C   0  0  0  0  0  0  0  0  0  0  0  0
    2.8740   -1.5316    2.0840 N   0  0  0  0  0  0  0  0  0  0  0  0
    3.8856   -1.4534    3.1163 C   0  0  0  0  0  0  0  0  0  0  0  0
    5.3584   -1.3960    3.1980 C   0  0  1  0  0  0  0  0  0  0  0  0
    3.4884   -2.5936    3.0061 O   0  0  0  0  0  0  0  0  0  0  0  0
    5.6640   -2.5470    2.4307 N   0  0  0  0  0  0  0  0  0  0  0  0
    5.3196   -4.0052    2.4662 C   0  0  0  0  0  0  0  0  0  0  0  0
    6.0522   -5.1586    1.7526 C   0  0  1  0  0  0  0  0  0  0  0  0
    4.1787   -4.0589    2.0406 O   0  0  0  0  0  0  0  0  0  0  0  0
    5.1557   -5.7602    0.7060 N   0  0  0  0  0  0  0  0  0  0  0  0
    7.4711   -4.7720    1.7479 C   0  0  0  0  0  0  0  0  0  0  0  0
    7.3160   -3.5242    1.6986 C   0  0  0  0  0  0  0  0  0  0  0  0
    8.1284   -4.8797    3.0797 C   0  0  0  0  0  0  0  0  0  0  0  0
    7.1794   -1.7639    1.5297 C   0  0  0  0  0  0  0  0  0  0  0  0
    7.3731   -0.5717    2.0131 C   0  0  1  0  0  0  0  0  0  0  0  0
    5.9679   -0.2524    2.3780 C   0  0  0  0  0  0  0  0  0  0  0  0
    8.8188   -0.3026    2.1491 C   0  0  0  0  0  0  0  0  0  0  0  0
    4.6638   -7.0826    0.8446 C   0  0  0  0  0  0  0  0  0  0  0  0
    3.7529   -7.7026   -0.2253 C   0  0  2  0  0  0  0  0  0  0  0  0
    4.2538   -7.3420    1.9932 O   0  0  0  0  0  0  0  0  0  0  0  0
    2.4781   -8.2213    0.3759 N   0  0  0  0  0  0  0  0  0  0  0  0
    4.3128   -8.5562   -1.3178 C   0  0  3  0  0  0  0  0  0  0  0  0
    4.5412   -7.7049   -2.5429 C   0  0  0  0  0  0  0  0  0  0  0  0
    5.5891   -9.2960   -0.9201 C   0  0  0  0  0  0  0  0  0  0  0  0
    5.6320  -10.5196   -0.9157 O   0  0  0  0  0  0  0  0  0  0  0  0
    6.6994   -8.5179   -0.5930 O   0  0  0  0  0  0  0  0  0  0  0  0
    2.0002   -9.5773    0.1814 C   0  0  0  0  0  0  0  0  0  0  0  0
    0.9470  -10.1850    1.1018 C   0  0  0  0  0  0  0  0  0  0  0  0
    3.0683  -10.1742   -0.0130 O   0  0  0  0  0  0  0  0  0  0  0  0
    1.3328  -11.2188    2.0381 N   0  0  0  0  0  0  0  0  0  0  0  0
    0.8205  -12.5056    1.8273 C   0  0  0  0  0  0  0  0  0  0  0  0
    0.1704  -12.7668    2.7934 O   0  0  0  0  0  0  0  0  0  0  0  0
   -0.1248  -12.8844    0.7203 C   0  0  2  0  0  0  0  0  0  0  0  0
    0.1695  -12.4719   -0.6614 C   0  0  0  0  0  0  0  0  0  0  0  0
   -1.3861  -12.1049    0.9689 N   0  0  0  0  0  0  0  0  0  0  0  0
   -2.6439  -12.6828    1.0498 C   0  0  0  0  0  0  0  0  0  0  0  0
   -3.4131  -12.1740    0.1879 O   0  0  0  0  0  0  0  0  0  0  0  0
    1.4454  -13.0854   -1.1906 C   0  0  0  0  0  0  0  0  0  0  0  0
    1.3685  -13.9213   -2.2936 O   0  0  0  0  0  0  0  0  0  0  0  0
    2.5140  -12.8462   -0.6531 O   0  0  0  0  0  0  0  0  0  0  0  0
   -3.5120  -15.4473    0.6247 C   0  0  3  0  0  0  0  0  0  0  0  0
   -4.6849  -14.7349   -0.0346 C   0  0  0  0  0  0  0  0  0  0  0  0
   -4.9774  -15.0300   -1.3450 O   0  0  0  0  0  0  0  0  0  0  0  0
   -5.2649  -13.8444    0.5994 O   0  0  0  0  0  0  0  0  0  0  0  0
   -2.9415  -16.3931   -0.2912 O   0  0  0  0  0  0  0  0  0  0  0  0
   -0.6063    4.7324    0.3813 O   0  0  0  0  0  0  0  0  0  0  0  0
    1.8901   11.9482   -2.1584 C   0  0  0  0  0  0  0  0  0  0  0  0
    0.0371   -2.6102    0.7290 H   0  0  0  0  0  0  0  0  0  0  0  0
    2.2633   -4.8352    0.8855 H   0  0  0  0  0  0  0  0  0  0  0  0
    3.5818  -13.7380    1.1965 H   0  0  0  0  0  0  0  0  0  0  0  0
    3.7177  -15.2517    2.9907 H   0  0  0  0  0  0  0  0  0  0  0  0
    1.5792  -14.8939    2.8551 H   0  0  0  0  0  0  0  0  0  0  0  0
   -0.2935  -17.1280    3.7003 H   0  0  0  0  0  0  0  0  0  0  0  0
   -1.0654  -14.5670    4.0759 H   0  0  0  0  0  0  0  0  0  0  0  0
   -1.6503  -16.1194    4.6287 H   0  0  0  0  0  0  0  0  0  0  0  0
    1.3877   -1.9799    2.0025 H   0  0  0  0  0  0  0  0  0  0  0  0
    4.8116  -17.9555    3.7648 H   0  0  0  0  0  0  0  0  0  0  0  0
    6.2138  -15.3777    3.1257 H   0  0  0  0  0  0  0  0  0  0  0  0
    6.9369  -16.7275    3.9932 H   0  0  0  0  0  0  0  0  0  0  0  0
    6.4670  -16.9152    2.3045 H   0  0  0  0  0  0  0  0  0  0  0  0
    3.5036  -16.6011    5.3316 H   0  0  0  0  0  0  0  0  0  0  0  0
    5.2069  -16.5453    5.7539 H   0  0  0  0  0  0  0  0  0  0  0  0
    4.4665  -15.1933    4.9045 H   0  0  0  0  0  0  0  0  0  0  0  0
   -0.2439  -15.0106    6.3079 H   0  0  0  0  0  0  0  0  0  0  0  0
    0.5195  -16.4856    5.7385 H   0  0  0  0  0  0  0  0  0  0  0  0
    2.1482  -14.6426    5.8331 H   0  0  0  0  0  0  0  0  0  0  0  0
    1.9379  -15.1442    4.2695 H   0  0  0  0  0  0  0  0  0  0  0  0
    1.8771  -12.7242    4.3108 H   0  0  0  0  0  0  0  0  0  0  0  0
    0.2998  -13.4884    4.0610 H   0  0  0  0  0  0  0  0  0  0  0  0
    0.0964  -11.6851    5.5098 H   0  0  0  0  0  0  0  0  0  0  0  0
   -0.4334  -13.1479    6.0716 H   0  0  0  0  0  0  0  0  0  0  0  0
   -2.2248  -14.4382    3.1854 H   0  0  0  0  0  0  0  0  0  0  0  0
   -3.1311  -13.8319    0.2422 H   0  0  0  0  0  0  0  0  0  0  0  0
    1.2290    1.5754    0.8109 H   0  0  0  0  0  0  0  0  0  0  0  0
    0.4921    2.3590   -1.5026 H   0  0  0  0  0  0  0  0  0  0  0  0
   -1.2264    3.2152    1.5914 H   0  0  0  0  0  0  0  0  0  0  0  0
    0.7572    1.6781    3.2553 H   0  0  0  0  0  0  0  0  0  0  0  0
   -0.5543    2.6676    3.8859 H   0  0  0  0  0  0  0  0  0  0  0  0
   -0.9170    1.2154    2.9572 H   0  0  0  0  0  0  0  0  0  0  0  0
    2.7030    4.5681    2.2851 H   0  0  0  0  0  0  0  0  0  0  0  0
    0.1191    4.5591   -2.7916 H   0  0  0  0  0  0  0  0  0  0  0  0
   -0.8245    6.7684   -0.9090 H   0  0  0  0  0  0  0  0  0  0  0  0
    0.4102   13.1854   -3.0604 H   0  0  0  0  0  0  0  0  0  0  0  0
    0.1778   12.9138   -1.3365 H   0  0  0  0  0  0  0  0  0  0  0  0
   -0.2444    6.6945   -4.0411 H   0  0  0  0  0  0  0  0  0  0  0  0
   -0.9002    9.0336   -3.9898 H   0  0  0  0  0  0  0  0  0  0  0  0
   -2.3263    9.4575   -1.8469 H   0  0  0  0  0  0  0  0  0  0  0  0
   -1.2618    8.3974   -0.9736 H   0  0  0  0  0  0  0  0  0  0  0  0
   -0.6714   10.7192   -0.5269 H   0  0  0  0  0  0  0  0  0  0  0  0
    0.6274    9.8944   -1.3790 H   0  0  0  0  0  0  0  0  0  0  0  0
   -0.1692   10.8433   -3.5119 H   0  0  0  0  0  0  0  0  0  0  0  0
   -2.1864   12.2638   -1.7587 H   0  0  0  0  0  0  0  0  0  0  0  0
   -1.9516   12.5366   -3.4839 H   0  0  0  0  0  0  0  0  0  0  0  0
   -2.5566   10.9911   -2.9161 H   0  0  0  0  0  0  0  0  0  0  0  0
    2.2721   -0.2124    4.1185 H   0  0  0  0  0  0  0  0  0  0  0  0
    0.6663   -0.3008    3.9400 H   0  0  0  0  0  0  0  0  0  0  0  0
    1.5056   -1.6845    4.2144 H   0  0  0  0  0  0  0  0  0  0  0  0
    3.4873   -0.0945    1.7186 H   0  0  0  0  0  0  0  0  0  0  0  0
    5.7033   -1.3942    4.2091 H   0  0  0  0  0  0  0  0  0  0  0  0
    6.8928   -5.7853    1.9096 H   0  0  0  0  0  0  0  0  0  0  0  0
    4.7120   -5.1224    0.0277 H   0  0  0  0  0  0  0  0  0  0  0  0
    8.0464   -5.0176    0.9116 H   0  0  0  0  0  0  0  0  0  0  0  0
    7.1132   -2.9318    2.5862 H   0  0  0  0  0  0  0  0  0  0  0  0
    8.6720   -2.6866    1.9037 H   0  0  0  0  0  0  0  0  0  0  0  0
    6.8058   -3.3645    0.3864 H   0  0  0  0  0  0  0  0  0  0  0  0
    8.1787   -5.9409    3.2236 H   0  0  0  0  0  0  0  0  0  0  0  0
    9.1099   -4.4514    3.0751 H   0  0  0  0  0  0  0  0  0  0  0  0
    7.5344   -4.4353    3.8722 H   0  0  0  0  0  0  0  0  0  0  0  0
    8.0499   -2.5972    0.8330 H   0  0  0  0  0  0  0  0  0  0  0  0
    6.8568   -2.0535    0.7032 H   0  0  0  0  0  0  0  0  0  0  0  0
    7.5199    0.2536    1.4519 H   0  0  0  0  0  0  0  0  0  0  0  0
    6.2690    0.7835    2.4164 H   0  0  0  0  0  0  0  0  0  0  0  0
    5.0014   -0.0732    1.9435 H   0  0  0  0  0  0  0  0  0  0  0  0
    9.3997   -1.1986    2.0689 H   0  0  0  0  0  0  0  0  0  0  0  0
    9.1414    0.3513    1.3202 H   0  0  0  0  0  0  0  0  0  0  0  0
    9.0218    0.1808    3.0745 H   0  0  0  0  0  0  0  0  0  0  0  0
    3.3976   -6.8673   -0.7985 H   0  0  0  0  0  0  0  0  0  0  0  0
    1.9161   -7.7591    1.0287 H   0  0  0  0  0  0  0  0  0  0  0  0
    3.5382   -9.2866   -1.5726 H   0  0  0  0  0  0  0  0  0  0  0  0
    5.2994   -6.9639   -2.3240 H   0  0  0  0  0  0  0  0  0  0  0  0
    4.8705   -8.3176   -3.3668 H   0  0  0  0  0  0  0  0  0  0  0  0
    3.6274   -7.1923   -2.8300 H   0  0  0  0  0  0  0  0  0  0  0  0
    7.5428   -8.9931   -0.3333 H   0  0  0  0  0  0  0  0  0  0  0  0
    0.0633  -10.6830    1.0499 H   0  0  0  0  0  0  0  0  0  0  0  0
    0.6368   -9.1523    1.0056 H   0  0  0  0  0  0  0  0  0  0  0  0
    2.0194  -11.0491    2.7943 H   0  0  0  0  0  0  0  0  0  0  0  0
   -0.0976  -13.9138    0.3953 H   0  0  0  0  0  0  0  0  0  0  0  0
   -0.6855  -12.7916   -1.2511 H   0  0  0  0  0  0  0  0  0  0  0  0
    0.2206  -11.3972   -0.6997 H   0  0  0  0  0  0  0  0  0  0  0  0
   -1.3160  -11.0752    0.9022 H   0  0  0  0  0  0  0  0  0  0  0  0
    0.5152  -14.1263   -2.7436 H   0  0  0  0  0  0  0  0  0  0  0  0
   -3.8469  -15.9816    1.5100 H   0  0  0  0  0  0  0  0  0  0  0  0
   -4.4964  -15.7324   -1.8445 H   0  0  0  0  0  0  0  0  0  0  0  0
   -2.5941  -15.9397   -1.0710 H   0  0  0  0  0  0  0  0  0  0  0  0
    2.1908   11.4836   -3.0889 H   0  0  0  0  0  0  0  0  0  0  0  0
    2.5589   12.7651   -1.9369 H   0  0  0  0  0  0  0  0  0  0  0  0
    1.9648   11.2169   -1.3640 H   0  0  0  0  0  0  0  0  0  0  0  0
  1  2  1  0  0  0  0
  1 25  1  0  0  0  0
  1 26  2  0  0  0  0
  2 90  1  0  0  0  0
  3  4  1  0  0  0  0
  3 11  1  0  0  0  0
  3 91  1  6  0  0  0
  3  2  1  0  0  0  0
  4  5  1  0  0  0  0
  4 12  2  0  0  0  0
  5  6  1  0  0  0  0
  5 92  1  0  0  0  0
  6  7  1  0  0  0  0
  6 13  1  0  0  0  0
  6 93  1  1  0  0  0
  7  8  1  0  0  0  0
  7 16  2  0  0  0  0
  8  9  1  0  0  0  0
  8 94  1  0  0  0  0
  9 17  1  0  0  0  0
  9 95  1  1  0  0  0
  9 10  1  0  0  0  0
 10 18  1  0  0  0  0
 10 96  1  0  0  0  0
 10 97  1  0  0  0  0
 11 44  1  0  0  0  0
 11 43  1  0  0  0  0
 11 98  1  0  0  0  0
 13 14  1  0  0  0  0
 13 15  1  0  0  0  0
 13 99  1  0  0  0  0
 14100  1  0  0  0  0
 14101  1  0  0  0  0
 14102  1  0  0  0  0
 15103  1  0  0  0  0
 15104  1  0  0  0  0
 15105  1  0  0  0  0
 17 22  1  0  0  0  0
 17 24  2  0  0  0  0
 18 19  1  0  0  0  0
 18106  1  0  0  0  0
 18107  1  0  0  0  0
 19 20  1  0  0  0  0
 19108  1  0  0  0  0
 19109  1  0  0  0  0
 20 21  1  0  0  0  0
 20110  1  0  0  0  0
 20111  1  0  0  0  0
 21112  1  0  0  0  0
 21113  1  0  0  0  0
 22114  1  0  0  0  0
 23 22  1  0  0  0  0
 23 83  1  0  0  0  0
 23115  1  6  0  0  0
 25 27  1  0  0  0  0
 25 28  1  0  0  0  0
 25116  1  1  0  0  0
 27 33  1  0  0  0  0
 27117  1  0  0  0  0
 28 29  1  0  0  0  0
 28 30  1  0  0  0  0
 28118  1  0  0  0  0
 29119  1  0  0  0  0
 29120  1  0  0  0  0
 29121  1  0  0  0  0
 30 31  2  0  0  0  0
 30 32  1  0  0  0  0
 32122  1  0  0  0  0
 33 34  1  0  0  0  0
 33 88  2  0  0  0  0
 34 35  2  0  0  0  0
 34123  1  0  0  0  0
 35 37  1  0  0  0  0
 35124  1  0  0  0  0
 36 89  1  0  0  0  0
 36125  1  0  0  0  0
 36126  1  0  0  0  0
 37 38  2  0  0  0  0
 37127  1  0  0  0  0
 38 39  1  0  0  0  0
 38128  1  0  0  0  0
 39 40  1  0  0  0  0
 39129  1  0  0  0  0
 39130  1  0  0  0  0
 40 41  1  0  0  0  0
 40131  1  0  0  0  0
 40132  1  0  0  0  0
 41 42  1  0  0  0  0
 41 36  1  0  0  0  0
 41133  1  0  0  0  0
 42134  1  0  0  0  0
 42135  1  0  0  0  0
 42136  1  0  0  0  0
 43137  1  0  0  0  0
 43138  1  0  0  0  0
 43139  1  0  0  0  0
 44 45  1  0  0  0  0
 44140  1  0  0  0  0
 45 46  1  0  0  0  0
 45 47  2  0  0  0  0
 46 48  1  0  0  0  0
 46 58  1  0  0  0  0
 46141  1  1  0  0  0
 48 49  1  0  0  0  0
 49 50  1  0  0  0  0
 49 51  2  0  0  0  0
 50 52  1  0  0  0  0
 50142  1  1  0  0  0
 50 53  1  0  0  0  0
 52 60  1  0  0  0  0
 52143  1  0  0  0  0
 53 54  1  0  0  0  0
 53 55  1  0  0  0  0
 53144  1  0  0  0  0
 54145  1  0  0  0  0
 54146  1  0  0  0  0
 54147  1  0  0  0  0
 55148  1  0  0  0  0
 55149  1  0  0  0  0
 55150  1  0  0  0  0
 56 57  1  0  0  0  0
 56 48  1  0  0  0  0
 56151  1  0  0  0  0
 56152  1  0  0  0  0
 57 58  1  0  0  0  0
 57 59  1  0  0  0  0
 57153  1  6  0  0  0
 58154  1  0  0  0  0
 58155  1  0  0  0  0
 59156  1  0  0  0  0
 59157  1  0  0  0  0
 59158  1  0  0  0  0
 60 61  1  0  0  0  0
 60 62  2  0  0  0  0
 61 63  1  0  0  0  0
 61 64  1  0  0  0  0
 61159  1  6  0  0  0
 63 69  1  0  0  0  0
 63160  1  0  0  0  0
 64 65  1  0  0  0  0
 64 66  1  0  0  0  0
 64161  1  0  0  0  0
 65162  1  0  0  0  0
 65163  1  0  0  0  0
 65164  1  0  0  0  0
 66 67  2  0  0  0  0
 66 68  1  0  0  0  0
 68165  1  0  0  0  0
 69 70  1  0  0  0  0
 69 71  2  0  0  0  0
 70 72  1  0  0  0  0
 70166  1  0  0  0  0
 70167  1  0  0  0  0
 72 73  1  0  0  0  0
 72168  1  0  0  0  0
 73 75  1  0  0  0  0
 73 74  2  0  0  0  0
 75 77  1  0  0  0  0
 75169  1  1  0  0  0
 75 76  1  0  0  0  0
 76 80  1  0  0  0  0
 76170  1  0  0  0  0
 76171  1  0  0  0  0
 77 78  1  0  0  0  0
 77172  1  0  0  0  0
 78 23  1  0  0  0  0
 78 79  2  0  0  0  0
 80 81  1  0  0  0  0
 80 82  2  0  0  0  0
 81173  1  0  0  0  0
 83 84  1  0  0  0  0
 83 87  1  0  0  0  0
 83174  1  0  0  0  0
 84 85  1  0  0  0  0
 84 86  2  0  0  0  0
 85175  1  0  0  0  0
 87176  1  0  0  0  0
 89177  1  0  0  0  0
 89178  1  0  0  0  0
 89179  1  0  0  0  0
M  END
>  <DRUGBANK_ID>
DB14052

>  <COMMON_NAME>
Malacidin B

$$$$
