1518
 OpenBabel10282417113D

 56 58  0  0  0  0  0  0  0  0999 V2000
    0.8920   -0.1268    0.0538 O   0  0  0  0  0  0  0  0  0  0  0  0
    0.4635    2.1401    0.1107 O   0  0  0  0  0  0  0  0  0  0  0  0
    0.8758   -0.0989   -5.2456 O   0  0  0  0  0  0  0  0  0  0  0  0
   -2.1114    0.8269   -3.4275 N   0  0  0  0  0  0  0  0  0  0  0  0
   -1.4823    0.8959   -0.4463 C   0  0  0  0  0  0  0  0  0  0  0  0
   -2.0731   -0.3545   -1.1056 C   0  0  0  0  0  0  0  0  0  0  0  0
   -2.0257    2.1490   -1.2701 C   0  0  0  0  0  0  0  0  0  0  0  0
   -1.7337   -0.3203   -2.5756 C   0  0  0  0  0  0  0  0  0  0  0  0
   -1.7552    2.0596   -2.7526 C   0  0  0  0  0  0  0  0  0  0  0  0
   -1.9755    0.9550    0.9777 C   0  0  0  0  0  0  0  0  0  0  0  0
    0.0998    1.0407   -0.1493 C   0  0  0  0  0  0  0  0  0  0  0  0
   -1.6343    0.8231   -4.8960 C   0  0  0  0  0  0  0  0  0  0  0  0
   -1.5412   -0.0630    1.8436 C   0  0  0  0  0  0  0  0  0  0  0  0
   -2.5999    2.0996    1.4721 C   0  0  0  0  0  0  0  0  0  0  0  0
   -0.1555    0.8300   -5.6194 C   0  0  0  0  0  0  0  0  0  0  0  0
   -1.7652    0.0530    3.1916 C   0  0  0  0  0  0  0  0  0  0  0  0
   -2.8040    2.2208    2.8238 C   0  0  0  0  0  0  0  0  0  0  0  0
   -2.4268    1.1805    3.6703 C   0  0  0  0  0  0  0  0  0  0  0  0
    2.3789   -0.1018    0.4262 C   0  0  0  0  0  0  0  0  0  0  0  0
    1.0372    0.0034   -3.8565 C   0  0  0  0  0  0  0  0  0  0  0  0
    2.9253   -1.3405    1.0955 C   0  0  0  0  0  0  0  0  0  0  0  0
    1.5155    1.3629   -3.2714 C   0  0  0  0  0  0  0  0  0  0  0  0
    1.0934    2.6712   -3.5507 C   0  0  0  0  0  0  0  0  0  0  0  0
    2.2279    1.3232   -2.1062 C   0  0  0  0  0  0  0  0  0  0  0  0
    1.2541    3.7863   -2.6948 C   0  0  0  0  0  0  0  0  0  0  0  0
    2.5066    2.4496   -1.2615 C   0  0  0  0  0  0  0  0  0  0  0  0
    1.9884    3.6963   -1.5471 C   0  0  0  0  0  0  0  0  0  0  0  0
   -1.5886   -1.2504   -0.6895 H   0  0  0  0  0  0  0  0  0  0  0  0
   -3.1510   -0.4528   -0.9551 H   0  0  0  0  0  0  0  0  0  0  0  0
   -3.1060    2.2962   -1.1484 H   0  0  0  0  0  0  0  0  0  0  0  0
   -1.5369    3.0773   -0.9317 H   0  0  0  0  0  0  0  0  0  0  0  0
   -0.6860   -0.2763   -2.3233 H   0  0  0  0  0  0  0  0  0  0  0  0
   -1.9432   -1.2709   -3.0650 H   0  0  0  0  0  0  0  0  0  0  0  0
   -2.0617    2.9696   -3.2880 H   0  0  0  0  0  0  0  0  0  0  0  0
   -0.7044    2.0411   -2.7218 H   0  0  0  0  0  0  0  0  0  0  0  0
   -2.1557   -0.0219   -5.3521 H   0  0  0  0  0  0  0  0  0  0  0  0
   -2.1050    1.7205   -5.3330 H   0  0  0  0  0  0  0  0  0  0  0  0
   -0.9519   -0.9035    1.4743 H   0  0  0  0  0  0  0  0  0  0  0  0
   -2.8800    2.9349    0.8366 H   0  0  0  0  0  0  0  0  0  0  0  0
   -0.2806    0.7172   -6.6958 H   0  0  0  0  0  0  0  0  0  0  0  0
    0.3251    1.7959   -5.5926 H   0  0  0  0  0  0  0  0  0  0  0  0
   -1.4012   -0.7264    3.8498 H   0  0  0  0  0  0  0  0  0  0  0  0
   -3.2400    3.1395    3.1969 H   0  0  0  0  0  0  0  0  0  0  0  0
   -2.6512    1.2555    4.7235 H   0  0  0  0  0  0  0  0  0  0  0  0
    3.0221   -0.1892   -0.4554 H   0  0  0  0  0  0  0  0  0  0  0  0
    2.6988    0.7967    0.9589 H   0  0  0  0  0  0  0  0  0  0  0  0
    0.0259   -0.2015   -3.6851 H   0  0  0  0  0  0  0  0  0  0  0  0
    1.3907   -0.9147   -3.3348 H   0  0  0  0  0  0  0  0  0  0  0  0
    2.5968   -2.2331    0.5604 H   0  0  0  0  0  0  0  0  0  0  0  0
    4.0313   -1.3242    1.0505 H   0  0  0  0  0  0  0  0  0  0  0  0
    2.6233   -1.3609    2.1356 H   0  0  0  0  0  0  0  0  0  0  0  0
    0.3155    2.8854   -4.2638 H   0  0  0  0  0  0  0  0  0  0  0  0
    2.2431    0.3016   -1.7851 H   0  0  0  0  0  0  0  0  0  0  0  0
    0.6056    4.6444   -2.8436 H   0  0  0  0  0  0  0  0  0  0  0  0
    2.7522    2.3404   -0.2015 H   0  0  0  0  0  0  0  0  0  0  0  0
    1.9144    4.4647   -0.7756 H   0  0  0  0  0  0  0  0  0  0  0  0
  1 11  1  0  0  0  0
  1 19  1  0  0  0  0
  2 11  2  0  0  0  0
  3 15  1  0  0  0  0
  3 20  1  0  0  0  0
  4  8  1  0  0  0  0
  4  9  1  0  0  0  0
  4 12  1  0  0  0  0
  5  6  1  0  0  0  0
  5  7  1  0  0  0  0
  5 10  1  0  0  0  0
  5 11  1  0  0  0  0
  6  8  1  0  0  0  0
  6 28  1  0  0  0  0
  6 29  1  0  0  0  0
  7  9  1  0  0  0  0
  7 30  1  0  0  0  0
  7 31  1  0  0  0  0
  8 32  1  0  0  0  0
  8 33  1  0  0  0  0
  9 34  1  0  0  0  0
  9 35  1  0  0  0  0
 10 13  2  0  0  0  0
 10 14  1  0  0  0  0
 12 15  1  0  0  0  0
 12 36  1  0  0  0  0
 12 37  1  0  0  0  0
 13 16  1  0  0  0  0
 13 38  1  0  0  0  0
 14 17  2  0  0  0  0
 14 39  1  0  0  0  0
 15 40  1  0  0  0  0
 15 41  1  0  0  0  0
 16 18  2  0  0  0  0
 16 42  1  0  0  0  0
 17 18  1  0  0  0  0
 17 43  1  0  0  0  0
 18 44  1  0  0  0  0
 19 21  1  0  0  0  0
 19 45  1  0  0  0  0
 19 46  1  0  0  0  0
 20 22  1  0  0  0  0
 20 47  1  0  0  0  0
 20 48  1  0  0  0  0
 21 49  1  0  0  0  0
 21 50  1  0  0  0  0
 21 51  1  0  0  0  0
 22 23  2  0  0  0  0
 22 24  1  0  0  0  0
 23 25  1  0  0  0  0
 23 52  1  0  0  0  0
 24 26  2  0  0  0  0
 24 53  1  0  0  0  0
 25 27  2  0  0  0  0
 25 54  1  0  0  0  0
 26 27  1  0  0  0  0
 26 55  1  0  0  0  0
 27 56  1  0  0  0  0
M  END
>  <DRUGBANK_ID>
DB01518

>  <COMMON_NAME>
Benzethidine

>  <CAS_NUMBER>
3691-78-9

>  <UNII>
X0I74BAR02

>  <SYNONYMS>
Benzethidine

$$$$
