
 OpenBabel10282417243D

 81 85  0  0  1  0  0  0  0  0999 V2000
    0.9040   -0.0425   -0.0753 C   0  0  0  0  0  0  0  0  0  0  0  0
    0.3948   -0.9569    1.0190 C   0  0  0  0  0  0  0  0  0  0  0  0
    0.8812   -0.4781    2.3629 C   0  0  0  0  0  0  0  0  0  0  0  0
    0.4608    0.9453    2.6896 C   0  0  1  0  0  0  0  0  0  0  0  0
   -1.0507    1.0558    2.8039 N   0  0  0  0  0  0  0  0  0  0  0  0
   -1.9341    1.2876    3.8262 C   0  0  0  0  0  0  0  0  0  0  0  0
   -3.1499    1.2905    3.6484 O   0  0  0  0  0  0  0  0  0  0  0  0
   -1.5306    1.7088    5.0329 N   0  0  0  0  0  0  0  0  0  0  0  0
   -0.7052    2.7768    5.3353 C   0  0  1  0  0  0  0  0  0  0  0  0
   -0.5713    4.0691    4.6319 O   0  0  0  0  0  0  0  0  0  0  0  0
   -0.9762    5.3306    5.0092 C   0  0  0  0  0  0  0  0  0  0  0  0
   -0.8158    6.0290    6.2541 C   0  0  0  0  0  0  0  0  0  0  0  0
   -1.9338    6.6673    6.7901 C   0  0  0  0  0  0  0  0  0  0  0  0
   -2.8721    7.0387    5.8776 C   0  0  0  0  0  0  0  0  0  0  0  0
   -2.6833    6.7589    4.5173 C   0  0  0  0  0  0  0  0  0  0  0  0
   -1.8443    5.7711    4.0797 C   0  0  0  0  0  0  0  0  0  0  0  0
   -3.9749    7.8717    6.3264 C   0  0  0  0  0  0  0  0  0  0  0  0
   -5.1138    7.5718    5.9946 O   0  0  0  0  0  0  0  0  0  0  0  0
   -3.6339    8.9964    7.0775 N   0  0  0  0  0  0  0  0  0  0  0  0
   -2.5883    9.8432    6.5170 C   0  0  0  0  0  0  0  0  0  0  0  0
   -2.2071   10.9945    7.4485 C   0  0  0  0  0  0  0  0  0  0  0  0
   -3.3525   11.8077    7.9027 N   0  0  0  0  0  0  0  0  0  0  0  0
   -3.8609   12.5963    6.7809 C   0  0  0  0  0  0  0  0  0  0  0  0
   -4.4308   10.9326    8.4139 C   0  0  0  0  0  0  0  0  0  0  0  0
   -4.7855    9.7667    7.4891 C   0  0  0  0  0  0  0  0  0  0  0  0
   -0.5858    2.2990    6.8689 C   0  0  0  0  0  0  0  0  0  0  0  0
    0.9561    1.8425    7.7053 C   0  0  0  0  0  0  0  0  0  0  0  0
    3.0346    2.4308    7.5383 C   0  0  0  0  0  0  0  0  0  0  0  0
   -1.1696    3.1813    7.9698 C   0  0  0  0  0  0  0  0  0  0  0  0
   -2.0721    4.0322    7.3227 C   0  0  0  0  0  0  0  0  0  0  0  0
   -1.5606    1.2472    6.3393 C   0  0  0  0  0  0  0  0  0  0  0  0
   -2.1871    0.4219    6.9512 O   0  0  0  0  0  0  0  0  0  0  0  0
    1.4479    1.4004    3.8776 C   0  0  0  0  0  0  0  0  0  0  0  0
    1.5951    2.9789    3.9374 C   0  0  0  0  0  0  0  0  0  0  0  0
    1.7230    3.7217    5.1458 C   0  0  0  0  0  0  0  0  0  0  0  0
    1.4939    2.8198    6.0876 C   0  0  0  0  0  0  0  0  0  0  0  0
    0.9225    3.6238    7.4804 O   0  0  0  0  0  0  0  0  0  0  0  0
    1.7623    3.1238    8.5956 C   0  0  0  0  0  0  0  0  0  0  0  0
    2.1999    1.1452    8.2047 O   0  0  0  0  0  0  0  0  0  0  0  0
    1.6387    0.9778    6.3321 C   0  0  0  0  0  0  0  0  0  0  0  0
    1.7493    0.3796    5.0617 C   0  0  0  0  0  0  0  0  0  0  0  0
    0.5381    0.9804    0.0463 H   0  0  0  0  0  0  0  0  0  0  0  0
    0.5503   -0.3860   -1.0437 H   0  0  0  0  0  0  0  0  0  0  0  0
    1.9985   -0.0108   -0.0641 H   0  0  0  0  0  0  0  0  0  0  0  0
   -0.6979   -0.9845    1.0186 H   0  0  0  0  0  0  0  0  0  0  0  0
    0.7579   -1.9776    0.8634 H   0  0  0  0  0  0  0  0  0  0  0  0
    0.5128   -1.1634    3.1324 H   0  0  0  0  0  0  0  0  0  0  0  0
    1.9793   -0.5098    2.3768 H   0  0  0  0  0  0  0  0  0  0  0  0
    0.6994    1.6198    1.8535 H   0  0  0  0  0  0  0  0  0  0  0  0
   -1.5739    0.7546    1.9707 H   0  0  0  0  0  0  0  0  0  0  0  0
    0.0841    2.2115    4.9818 H   0  0  0  0  0  0  0  0  0  0  0  0
   -0.1262    5.6715    7.0139 H   0  0  0  0  0  0  0  0  0  0  0  0
   -2.1526    6.7063    7.8733 H   0  0  0  0  0  0  0  0  0  0  0  0
   -3.1438    7.3811    3.7837 H   0  0  0  0  0  0  0  0  0  0  0  0
   -1.8116    5.3200    3.0926 H   0  0  0  0  0  0  0  0  0  0  0  0
   -1.6988    9.2746    6.2427 H   0  0  0  0  0  0  0  0  0  0  0  0
   -3.0130   10.2353    5.5844 H   0  0  0  0  0  0  0  0  0  0  0  0
   -1.6936   10.5840    8.3245 H   0  0  0  0  0  0  0  0  0  0  0  0
   -1.4931   11.6414    6.9254 H   0  0  0  0  0  0  0  0  0  0  0  0
   -4.2386   11.9756    5.9631 H   0  0  0  0  0  0  0  0  0  0  0  0
   -4.6755   13.2408    7.1181 H   0  0  0  0  0  0  0  0  0  0  0  0
   -3.0672   13.2309    6.3788 H   0  0  0  0  0  0  0  0  0  0  0  0
   -4.1336   10.5371    9.3915 H   0  0  0  0  0  0  0  0  0  0  0  0
   -5.3358   11.5312    8.5698 H   0  0  0  0  0  0  0  0  0  0  0  0
   -5.2174   10.1486    6.5579 H   0  0  0  0  0  0  0  0  0  0  0  0
   -5.5248    9.1125    7.9577 H   0  0  0  0  0  0  0  0  0  0  0  0
    0.5319    1.3351    8.6802 H   0  0  0  0  0  0  0  0  0  0  0  0
    2.3775    1.9805    7.0798 H   0  0  0  0  0  0  0  0  0  0  0  0
    3.4845    2.8899    8.5796 H   0  0  0  0  0  0  0  0  0  0  0  0
    3.8734    1.8686    8.1704 H   0  0  0  0  0  0  0  0  0  0  0  0
    3.4407    3.2179    6.7955 H   0  0  0  0  0  0  0  0  0  0  0  0
   -1.1617    2.8355    8.9768 H   0  0  0  0  0  0  0  0  0  0  0  0
   -0.5787    4.1184    8.1976 H   0  0  0  0  0  0  0  0  0  0  0  0
   -2.8571    3.6971    6.7018 H   0  0  0  0  0  0  0  0  0  0  0  0
   -2.0834    4.8517    8.0203 H   0  0  0  0  0  0  0  0  0  0  0  0
   -1.3216    4.1908    6.5884 H   0  0  0  0  0  0  0  0  0  0  0  0
    0.9751    3.5034    3.1605 H   0  0  0  0  0  0  0  0  0  0  0  0
    1.3910    4.6965    5.5169 H   0  0  0  0  0  0  0  0  0  0  0  0
    1.6877    4.3299    7.7832 H   0  0  0  0  0  0  0  0  0  0  0  0
    2.3082    3.9803    9.1586 H   0  0  0  0  0  0  0  0  0  0  0  0
    1.5582   -0.6613    4.8364 H   0  0  0  0  0  0  0  0  0  0  0  0
  1  2  1  0  0  0  0
  1 42  1  0  0  0  0
  1 43  1  0  0  0  0
  1 44  1  0  0  0  0
  2  3  1  0  0  0  0
  2 45  1  0  0  0  0
  2 46  1  0  0  0  0
  3 47  1  0  0  0  0
  3 48  1  0  0  0  0
  4  3  1  0  0  0  0
  4  5  1  0  0  0  0
  4 33  1  0  0  0  0
  4 49  1  6  0  0  0
  5  6  1  0  0  0  0
  5 50  1  0  0  0  0
  6  7  2  0  0  0  0
  6  8  1  0  0  0  0
  8 31  1  0  0  0  0
  9  8  1  0  0  0  0
  9 10  1  0  0  0  0
  9 26  1  0  0  0  0
  9 51  1  6  0  0  0
 10 11  1  0  0  0  0
 11 12  2  0  0  0  0
 11 16  1  0  0  0  0
 12 13  1  0  0  0  0
 12 52  1  0  0  0  0
 13 14  2  0  0  0  0
 13 53  1  0  0  0  0
 14 15  1  0  0  0  0
 14 17  1  0  0  0  0
 15 16  2  0  0  0  0
 15 54  1  0  0  0  0
 16 55  1  0  0  0  0
 17 18  2  0  0  0  0
 17 19  1  0  0  0  0
 19 20  1  0  0  0  0
 19 25  1  0  0  0  0
 20 21  1  0  0  0  0
 20 56  1  0  0  0  0
 20 57  1  0  0  0  0
 21 22  1  0  0  0  0
 21 58  1  0  0  0  0
 21 59  1  0  0  0  0
 22 23  1  0  0  0  0
 22 24  1  0  0  0  0
 23 60  1  0  0  0  0
 23 61  1  0  0  0  0
 23 62  1  0  0  0  0
 24 25  1  0  0  0  0
 24 63  1  0  0  0  0
 24 64  1  0  0  0  0
 25 65  1  0  0  0  0
 25 66  1  0  0  0  0
 26 27  1  0  0  0  0
 26 29  1  0  0  0  0
 26 31  1  0  0  0  0
 27 28  1  0  0  0  0
 27 67  1  0  0  0  0
 27 68  1  0  0  0  0
 28 69  1  0  0  0  0
 28 70  1  0  0  0  0
 28 71  1  0  0  0  0
 29 30  1  0  0  0  0
 29 72  1  0  0  0  0
 29 73  1  0  0  0  0
 30 74  1  0  0  0  0
 30 75  1  0  0  0  0
 30 76  1  0  0  0  0
 31 32  2  0  0  0  0
 33 34  2  0  0  0  0
 33 41  1  0  0  0  0
 34 35  1  0  0  0  0
 34 77  1  0  0  0  0
 35 36  2  0  0  0  0
 35 78  1  0  0  0  0
 36 37  1  0  0  0  0
 36 40  1  0  0  0  0
 37 38  1  0  0  0  0
 38 39  1  0  0  0  0
 38 79  1  0  0  0  0
 38 80  1  0  0  0  0
 39 40  1  0  0  0  0
 40 41  2  0  0  0  0
 41 81  1  0  0  0  0
M  END
>  <DRUGBANK_ID>
DB18488

>  <COMMON_NAME>
DMP-777

>  <CAS_NUMBER>
157341-41-8

>  <UNII>
3Q0469283P

>  <SYNONYMS>
1-AZETIDINECARBOXAMIDE, N-((1R)-1-(1,3-BENZODIOXOL-5-YL)BUTYL)-3,3-DIETHYL-2-(4-((4-METHYL-1-PIPERAZINYL)CARBONYL)PHENOXY)-4-OXO-, (2S)-

$$$$
