1181
 OpenBabel10282417113D

 29 29  0  0  1  0  0  0  0  0999 V2000
    0.8620    0.1697    0.0013 Cl  0  0  0  0  0  0  0  0  0  0  0  0
    6.5114   -4.3784    2.4231 Cl  0  0  0  0  0  0  0  0  0  0  0  0
    3.3877   -3.9516   -0.1300 P   0  0  3  0  0  0  0  0  0  0  0  0
    2.9237   -4.8882   -1.3659 O   0  0  0  0  0  0  0  0  0  0  0  0
    2.8656   -4.4418    1.1702 O   0  0  0  0  0  0  0  0  0  0  0  0
    2.9434   -2.4276   -0.6048 N   0  0  0  0  0  0  0  0  0  0  0  0
    5.0261   -3.9578   -0.2936 N   0  0  0  0  0  0  0  0  0  0  0  0
    3.4940   -2.0796   -1.9192 C   0  0  0  0  0  0  0  0  0  0  0  0
    3.1861   -3.1315   -2.9968 C   0  0  0  0  0  0  0  0  0  0  0  0
    3.5287   -4.5640   -2.6035 C   0  0  0  0  0  0  0  0  0  0  0  0
    3.0721   -1.3665    0.4189 C   0  0  0  0  0  0  0  0  0  0  0  0
    5.8669   -2.9158    0.2627 C   0  0  0  0  0  0  0  0  0  0  0  0
    2.6212    0.0484    0.0753 C   0  0  0  0  0  0  0  0  0  0  0  0
    5.7541   -2.9093    1.7780 C   0  0  0  0  0  0  0  0  0  0  0  0
    5.4054   -4.8692   -0.0618 H   0  0  0  0  0  0  0  0  0  0  0  0
    4.5813   -1.9828   -1.8727 H   0  0  0  0  0  0  0  0  0  0  0  0
    3.1261   -1.1181   -2.2769 H   0  0  0  0  0  0  0  0  0  0  0  0
    3.7581   -2.8754   -3.8946 H   0  0  0  0  0  0  0  0  0  0  0  0
    2.1206   -3.0749   -3.2377 H   0  0  0  0  0  0  0  0  0  0  0  0
    4.6130   -4.7052   -2.5237 H   0  0  0  0  0  0  0  0  0  0  0  0
    3.1942   -5.2774   -3.3605 H   0  0  0  0  0  0  0  0  0  0  0  0
    4.1112   -1.2248    0.7002 H   0  0  0  0  0  0  0  0  0  0  0  0
    2.5919   -1.6916    1.3528 H   0  0  0  0  0  0  0  0  0  0  0  0
    6.8939   -3.0547   -0.0850 H   0  0  0  0  0  0  0  0  0  0  0  0
    5.6248   -1.9323   -0.1498 H   0  0  0  0  0  0  0  0  0  0  0  0
    3.0534    0.3939   -0.8669 H   0  0  0  0  0  0  0  0  0  0  0  0
    2.9861    0.7383    0.8461 H   0  0  0  0  0  0  0  0  0  0  0  0
    6.2376   -2.0246    2.1969 H   0  0  0  0  0  0  0  0  0  0  0  0
    4.7103   -2.8962    2.1101 H   0  0  0  0  0  0  0  0  0  0  0  0
  1 13  1  0  0  0  0
  2 14  1  0  0  0  0
  3  4  1  0  0  0  0
  3  5  2  0  0  0  0
  3  6  1  0  0  0  0
  3  7  1  0  0  0  0
  4 10  1  0  0  0  0
  6  8  1  0  0  0  0
  6 11  1  0  0  0  0
  7 12  1  0  0  0  0
  7 15  1  0  0  0  0
  8  9  1  0  0  0  0
  8 16  1  0  0  0  0
  8 17  1  0  0  0  0
  9 10  1  0  0  0  0
  9 18  1  0  0  0  0
  9 19  1  0  0  0  0
 10 20  1  0  0  0  0
 10 21  1  0  0  0  0
 11 13  1  0  0  0  0
 11 22  1  0  0  0  0
 11 23  1  0  0  0  0
 12 14  1  0  0  0  0
 12 24  1  0  0  0  0
 12 25  1  0  0  0  0
 13 26  1  0  0  0  0
 13 27  1  0  0  0  0
 14 28  1  0  0  0  0
 14 29  1  0  0  0  0
M  END
>  <DRUGBANK_ID>
DB01181

>  <SECONDARY_ACCESSION_NUMBERS>
APRD00007

>  <COMMON_NAME>
Ifosfamide

>  <CAS_NUMBER>
3778-73-2

>  <UNII>
UM20QQM95Y

>  <SYNONYMS>
3-(2-chloroethyl)-2-((2-chloroethyl)amino)tetrahydro-2H-1,3,2-oxazaphosphorine 2-oxide; Ifosfamida; Ifosfamide; Ifosfamidum; Iphosphamide; Isofosfamide; Isophosphamide; Isosfamide

$$$$
