JI3
 OpenBabel10282417173D

 54 56  0  0  0  0  0  0  0  0999 V2000
    1.6125    0.7641   -0.6953 C   0  0  0  0  0  0  0  0  0  0  0  0
    0.2041    0.7631   -0.6276 C   0  0  0  0  0  0  0  0  0  0  0  0
   -0.4700   -0.3704   -0.2209 C   0  0  0  0  0  0  0  0  0  0  0  0
   -2.1720   -0.3160    0.0145 Cl  0  0  0  0  0  0  0  0  0  0  0  0
    0.2500   -1.5341   -0.0036 C   0  0  0  0  0  0  0  0  0  0  0  0
    1.6527   -1.5126   -0.0097 C   0  0  0  0  0  0  0  0  0  0  0  0
    2.3645   -0.3395   -0.2598 C   0  0  0  0  0  0  0  0  0  0  0  0
    3.1652    5.6945    0.2413 C   0  0  0  0  0  0  0  0  0  0  0  0
    3.0746    7.0789    0.0771 N   0  0  0  0  0  0  0  0  0  0  0  0
    2.0591    5.0065    0.6473 C   0  0  0  0  0  0  0  0  0  0  0  0
    2.1710    3.6548    0.9281 C   0  0  0  0  0  0  0  0  0  0  0  0
    3.3930    3.0512    0.6778 C   0  0  0  0  0  0  0  0  0  0  0  0
    4.4273    3.7714    0.1092 C   0  0  0  0  0  0  0  0  0  0  0  0
    4.3211    5.1060   -0.1007 N   0  0  0  0  0  0  0  0  0  0  0  0
    6.3353    5.1956    2.4854 N   0  0  0  0  0  0  0  0  0  0  0  0
    5.5788    4.0181    2.9594 C   0  0  0  0  0  0  0  0  0  0  0  0
    6.3826    2.8200    2.4214 C   0  0  2  0  0  0  0  0  0  0  0  0
    6.7943    3.3185    1.0204 C   0  0  2  0  0  0  0  0  0  0  0  0
    7.0372    4.8092    1.2467 C   0  0  0  0  0  0  0  0  0  0  0  0
    5.7776    3.1499   -0.1422 C   0  0  0  0  0  0  0  0  0  0  0  0
    0.9546    2.9212    1.3527 C   0  0  0  0  0  0  0  0  0  0  0  0
    5.8239    1.4624    2.4990 N   0  0  0  0  0  0  0  0  0  0  0  0
    6.4717    0.5289    1.5618 C   0  0  0  0  0  0  0  0  0  0  0  0
    5.7994   -0.8460    1.3982 C   0  0  0  0  0  0  0  0  0  0  0  0
    4.3324   -0.8257    1.2234 N   0  0  0  0  0  0  0  0  0  0  0  0
    3.8816   -0.3284   -0.0933 C   0  0  0  0  0  0  0  0  0  0  0  0
    7.2776    2.7902    3.0619 H   0  0  0  0  0  0  0  0  0  0  0  0
    7.7394    2.8274    0.7462 H   0  0  0  0  0  0  0  0  0  0  0  0
    2.0918    1.6881   -1.0101 H   0  0  0  0  0  0  0  0  0  0  0  0
   -0.3656    1.6713   -0.8177 H   0  0  0  0  0  0  0  0  0  0  0  0
   -0.2711   -2.4647    0.1835 H   0  0  0  0  0  0  0  0  0  0  0  0
    2.2069   -2.4238    0.1928 H   0  0  0  0  0  0  0  0  0  0  0  0
    2.3340    7.5125    0.6092 H   0  0  0  0  0  0  0  0  0  0  0  0
    3.9933    7.4921    0.1516 H   0  0  0  0  0  0  0  0  0  0  0  0
    1.1019    5.4939    0.7907 H   0  0  0  0  0  0  0  0  0  0  0  0
    3.5120    2.0128    0.9517 H   0  0  0  0  0  0  0  0  0  0  0  0
    7.0356    5.4350    3.1829 H   0  0  0  0  0  0  0  0  0  0  0  0
    4.5589    4.0642    2.5831 H   0  0  0  0  0  0  0  0  0  0  0  0
    5.4697    4.0326    4.0467 H   0  0  0  0  0  0  0  0  0  0  0  0
    8.1094    5.0081    1.3412 H   0  0  0  0  0  0  0  0  0  0  0  0
    6.7072    5.4059    0.3903 H   0  0  0  0  0  0  0  0  0  0  0  0
    6.2324    3.5574   -1.0536 H   0  0  0  0  0  0  0  0  0  0  0  0
    5.6051    2.1185   -0.4371 H   0  0  0  0  0  0  0  0  0  0  0  0
    0.4564    3.3376    2.2258 H   0  0  0  0  0  0  0  0  0  0  0  0
    0.2617    3.0253    0.5150 H   0  0  0  0  0  0  0  0  0  0  0  0
    1.1655    1.8700    1.5672 H   0  0  0  0  0  0  0  0  0  0  0  0
    4.8169    1.4745    2.3997 H   0  0  0  0  0  0  0  0  0  0  0  0
    7.5371    0.4290    1.8006 H   0  0  0  0  0  0  0  0  0  0  0  0
    6.4729    0.9030    0.5485 H   0  0  0  0  0  0  0  0  0  0  0  0
    6.0530   -1.4456    2.2793 H   0  0  0  0  0  0  0  0  0  0  0  0
    6.2594   -1.3507    0.5383 H   0  0  0  0  0  0  0  0  0  0  0  0
    3.9247   -0.2839    1.9828 H   0  0  0  0  0  0  0  0  0  0  0  0
    4.3215   -0.9161   -0.9023 H   0  0  0  0  0  0  0  0  0  0  0  0
    4.2503    0.6785   -0.2439 H   0  0  0  0  0  0  0  0  0  0  0  0
  1  7  2  0  0  0  0
  1  2  1  0  0  0  0
  1 29  1  0  0  0  0
  2  3  2  0  0  0  0
  2 30  1  0  0  0  0
  3  5  1  0  0  0  0
  3  4  1  0  0  0  0
  5  6  2  0  0  0  0
  5 31  1  0  0  0  0
  6  7  1  0  0  0  0
  6 32  1  0  0  0  0
  7 26  1  0  0  0  0
  8 14  1  0  0  0  0
  8  9  1  0  0  0  0
  8 10  2  0  0  0  0
  9 33  1  0  0  0  0
  9 34  1  0  0  0  0
 10 11  1  0  0  0  0
 10 35  1  0  0  0  0
 11 12  2  0  0  0  0
 11 21  1  0  0  0  0
 12 13  1  0  0  0  0
 12 36  1  0  0  0  0
 13 20  1  0  0  0  0
 13 14  2  0  0  0  0
 15 16  1  0  0  0  0
 15 19  1  0  0  0  0
 15 37  1  0  0  0  0
 16 17  1  0  0  0  0
 16 38  1  0  0  0  0
 16 39  1  0  0  0  0
 17 22  1  0  0  0  0
 17 18  1  0  0  0  0
 17 27  1  1  0  0  0
 18 19  1  0  0  0  0
 18 28  1  6  0  0  0
 18 20  1  0  0  0  0
 19 40  1  0  0  0  0
 19 41  1  0  0  0  0
 20 42  1  0  0  0  0
 20 43  1  0  0  0  0
 21 44  1  0  0  0  0
 21 45  1  0  0  0  0
 21 46  1  0  0  0  0
 22 23  1  0  0  0  0
 22 47  1  0  0  0  0
 23 24  1  0  0  0  0
 23 48  1  0  0  0  0
 23 49  1  0  0  0  0
 24 25  1  0  0  0  0
 24 50  1  0  0  0  0
 24 51  1  0  0  0  0
 25 26  1  0  0  0  0
 25 52  1  0  0  0  0
 26 53  1  0  0  0  0
 26 54  1  0  0  0  0
M  END
>  <DRUGBANK_ID>
DB08018

>  <COMMON_NAME>
N-{(3S,4S)-4-[(6-AMINO-4-METHYLPYRIDIN-2-YL)METHYL]PYRROLIDIN-3-YL}-N'-(4-CHLOROBENZYL)ETHANE-1,2-DIAMINE

$$$$
