
 OpenBabel10282417213D

 86 87  0  0  0  0  0  0  0  0999 V2000
   -0.0098   -0.6595   -0.0447 C   0  0  0  0  0  0  0  0  0  0  0  0
    0.0585    0.7454   -0.0262 C   0  0  0  0  0  0  0  0  0  0  0  0
    1.3255    1.3954    0.0414 C   0  0  0  0  0  0  0  0  0  0  0  0
    1.3233    2.8996    0.1447 C   0  0  0  0  0  0  0  0  0  0  0  0
    2.5083    0.6035    0.0206 C   0  0  0  0  0  0  0  0  0  0  0  0
    2.4021   -0.8064   -0.0455 C   0  0  0  0  0  0  0  0  0  0  0  0
    1.1439   -1.4349   -0.0771 C   0  0  0  0  0  0  0  0  0  0  0  0
    1.0861   -2.9419   -0.1404 C   0  0  0  0  0  0  0  0  0  0  0  0
    3.5811   -1.7161   -0.0799 C   0  0  0  0  0  0  0  0  0  0  0  0
    3.8090    1.2896    0.0551 O   0  0  0  0  0  0  0  0  0  0  0  0
    5.1386    0.7851    0.0267 C   0  0  0  0  0  0  0  0  0  0  0  0
    5.5286   -0.3555   -0.0210 O   0  0  0  0  0  0  0  0  0  0  0  0
    6.2147    1.8040    0.0614 C   0  0  0  0  0  0  0  0  0  0  0  0
   -1.2328    1.5399   -0.0223 C   0  0  0  0  0  0  0  0  0  0  0  0
   -2.4068    0.6717   -0.4577 C   0  0  0  0  0  0  0  0  0  0  0  0
   -2.3626   -0.6407    0.3215 C   0  0  3  0  0  0  0  0  0  0  0  0
   -1.1801   -1.3662   -0.0262 O   0  0  0  0  0  0  0  0  0  0  0  0
   -2.3483   -0.3804    1.8551 C   0  0  0  0  0  0  0  0  0  0  0  0
   -3.5192    0.4823    2.3391 C   0  0  0  0  0  0  0  0  0  0  0  0
   -4.8682   -0.2074    2.1733 C   0  0  0  0  0  0  0  0  0  0  0  0
   -4.8407   -1.5999    2.8260 C   0  0  3  0  0  0  0  0  0  0  0  0
   -4.7326   -1.3579    4.3418 C   0  0  0  0  0  0  0  0  0  0  0  0
   -5.8834   -0.4881    4.8621 C   0  0  0  0  0  0  0  0  0  0  0  0
   -7.2325   -1.1653    4.6378 C   0  0  0  0  0  0  0  0  0  0  0  0
   -7.2196   -2.5662    5.2720 C   0  0  3  0  0  0  0  0  0  0  0  0
   -7.1148   -2.3401    6.7885 C   0  0  0  0  0  0  0  0  0  0  0  0
   -8.2516   -1.4582    7.3252 C   0  0  0  0  0  0  0  0  0  0  0  0
   -9.6214   -2.1146    7.1709 C   0  0  0  0  0  0  0  0  0  0  0  0
   -9.6122   -3.5238    7.7777 C   0  0  0  0  0  0  0  0  0  0  0  0
   -9.4431   -3.3613    9.2801 C   0  0  0  0  0  0  0  0  0  0  0  0
  -10.8592   -4.3047    7.4086 C   0  0  0  0  0  0  0  0  0  0  0  0
   -8.3373   -3.4590    4.7337 C   0  0  0  0  0  0  0  0  0  0  0  0
   -5.9514   -2.5058    2.2875 C   0  0  0  0  0  0  0  0  0  0  0  0
   -3.5055   -1.5523   -0.1597 C   0  0  0  0  0  0  0  0  0  0  0  0
    0.8125    3.3360   -0.7226 H   0  0  0  0  0  0  0  0  0  0  0  0
    0.7842    3.2134    1.0492 H   0  0  0  0  0  0  0  0  0  0  0  0
    2.3238    3.3282    0.1861 H   0  0  0  0  0  0  0  0  0  0  0  0
    1.5943   -3.2814   -1.0523 H   0  0  0  0  0  0  0  0  0  0  0  0
    1.5906   -3.3612    0.7395 H   0  0  0  0  0  0  0  0  0  0  0  0
    0.0801   -3.3557   -0.1623 H   0  0  0  0  0  0  0  0  0  0  0  0
    4.1102   -1.5116   -1.0147 H   0  0  0  0  0  0  0  0  0  0  0  0
    4.1084   -1.5896    0.8698 H   0  0  0  0  0  0  0  0  0  0  0  0
    3.4159   -2.7885   -0.1239 H   0  0  0  0  0  0  0  0  0  0  0  0
    6.2103    2.4188   -0.8336 H   0  0  0  0  0  0  0  0  0  0  0  0
    6.2252    2.3373    1.0070 H   0  0  0  0  0  0  0  0  0  0  0  0
    7.1440    1.2079    0.0270 H   0  0  0  0  0  0  0  0  0  0  0  0
   -1.1861    2.3993   -0.6930 H   0  0  0  0  0  0  0  0  0  0  0  0
   -1.3963    1.9343    0.9896 H   0  0  0  0  0  0  0  0  0  0  0  0
   -2.3271    0.4651   -1.5310 H   0  0  0  0  0  0  0  0  0  0  0  0
   -3.3535    1.2024   -0.3057 H   0  0  0  0  0  0  0  0  0  0  0  0
   -2.2464   -1.3250    2.4019 H   0  0  0  0  0  0  0  0  0  0  0  0
   -1.4238    0.1221    2.1679 H   0  0  0  0  0  0  0  0  0  0  0  0
   -3.3479    0.7511    3.3881 H   0  0  0  0  0  0  0  0  0  0  0  0
   -3.5477    1.4472    1.8271 H   0  0  0  0  0  0  0  0  0  0  0  0
   -5.6482    0.4358    2.5797 H   0  0  0  0  0  0  0  0  0  0  0  0
   -5.2126   -0.2245    1.1493 H   0  0  0  0  0  0  0  0  0  0  0  0
   -3.9492   -2.1748    2.5684 H   0  0  0  0  0  0  0  0  0  0  0  0
   -4.6193   -2.3036    4.8795 H   0  0  0  0  0  0  0  0  0  0  0  0
   -3.7879   -0.8536    4.5811 H   0  0  0  0  0  0  0  0  0  0  0  0
   -5.7092   -0.2489    5.9133 H   0  0  0  0  0  0  0  0  0  0  0  0
   -5.9033    0.5050    4.4095 H   0  0  0  0  0  0  0  0  0  0  0  0
   -8.0269   -0.5275    5.0208 H   0  0  0  0  0  0  0  0  0  0  0  0
   -7.5379   -1.1706    3.6014 H   0  0  0  0  0  0  0  0  0  0  0  0
   -6.3298   -3.1429    5.0060 H   0  0  0  0  0  0  0  0  0  0  0  0
   -7.0095   -3.2909    7.3160 H   0  0  0  0  0  0  0  0  0  0  0  0
   -6.1630   -1.8471    7.0276 H   0  0  0  0  0  0  0  0  0  0  0  0
   -8.0488   -1.2095    8.3677 H   0  0  0  0  0  0  0  0  0  0  0  0
   -8.2740   -0.4720    6.8543 H   0  0  0  0  0  0  0  0  0  0  0  0
  -10.3799   -1.4890    7.6496 H   0  0  0  0  0  0  0  0  0  0  0  0
   -9.9522   -2.1102    6.1344 H   0  0  0  0  0  0  0  0  0  0  0  0
   -8.7797   -4.1347    7.4160 H   0  0  0  0  0  0  0  0  0  0  0  0
  -10.2466   -2.7310    9.6709 H   0  0  0  0  0  0  0  0  0  0  0  0
   -9.4424   -4.3232    9.7894 H   0  0  0  0  0  0  0  0  0  0  0  0
   -8.4910   -2.8738    9.5181 H   0  0  0  0  0  0  0  0  0  0  0  0
  -10.8947   -4.4918    6.3283 H   0  0  0  0  0  0  0  0  0  0  0  0
  -10.8537   -5.2780    7.9093 H   0  0  0  0  0  0  0  0  0  0  0  0
  -11.7577   -3.7579    7.6967 H   0  0  0  0  0  0  0  0  0  0  0  0
   -8.1538   -3.7537    3.6966 H   0  0  0  0  0  0  0  0  0  0  0  0
   -8.4161   -4.3817    5.3141 H   0  0  0  0  0  0  0  0  0  0  0  0
   -9.2990   -2.9614    4.6818 H   0  0  0  0  0  0  0  0  0  0  0  0
   -5.7636   -2.8064    1.2545 H   0  0  0  0  0  0  0  0  0  0  0  0
   -6.0308   -3.4222    2.8767 H   0  0  0  0  0  0  0  0  0  0  0  0
   -6.9178   -2.0206    2.2093 H   0  0  0  0  0  0  0  0  0  0  0  0
   -3.3736   -1.8806   -1.1927 H   0  0  0  0  0  0  0  0  0  0  0  0
   -3.5776   -2.4595    0.4486 H   0  0  0  0  0  0  0  0  0  0  0  0
   -4.4699   -1.0585   -0.1874 H   0  0  0  0  0  0  0  0  0  0  0  0
  2  1  2  0  0  0  0
  3  2  1  0  0  0  0
  4  3  1  0  0  0  0
  4 35  1  0  0  0  0
  4 36  1  0  0  0  0
  4 37  1  0  0  0  0
  5  3  2  0  0  0  0
  5  6  1  0  0  0  0
  6  7  2  0  0  0  0
  7  1  1  0  0  0  0
  8  7  1  0  0  0  0
  8 38  1  0  0  0  0
  8 39  1  0  0  0  0
  8 40  1  0  0  0  0
  9  6  1  0  0  0  0
  9 41  1  0  0  0  0
  9 42  1  0  0  0  0
  9 43  1  0  0  0  0
 10  5  1  0  0  0  0
 10 11  1  0  0  0  0
 11 12  2  0  0  0  0
 11 13  1  0  0  0  0
 13 44  1  0  0  0  0
 13 45  1  0  0  0  0
 13 46  1  0  0  0  0
 14  2  1  0  0  0  0
 14 15  1  0  0  0  0
 14 47  1  0  0  0  0
 14 48  1  0  0  0  0
 15 16  1  0  0  0  0
 15 49  1  0  0  0  0
 15 50  1  0  0  0  0
 16 17  1  0  0  0  0
 16 18  1  0  0  0  0
 16 34  1  0  0  0  0
 17  1  1  0  0  0  0
 18 51  1  0  0  0  0
 18 52  1  0  0  0  0
 19 18  1  0  0  0  0
 19 53  1  0  0  0  0
 19 54  1  0  0  0  0
 20 19  1  0  0  0  0
 20 55  1  0  0  0  0
 20 56  1  0  0  0  0
 21 20  1  0  0  0  0
 21 33  1  0  0  0  0
 21 57  1  0  0  0  0
 22 21  1  0  0  0  0
 22 58  1  0  0  0  0
 22 59  1  0  0  0  0
 23 22  1  0  0  0  0
 23 60  1  0  0  0  0
 23 61  1  0  0  0  0
 24 23  1  0  0  0  0
 24 62  1  0  0  0  0
 24 63  1  0  0  0  0
 25 24  1  0  0  0  0
 25 32  1  0  0  0  0
 25 64  1  0  0  0  0
 26 25  1  0  0  0  0
 26 65  1  0  0  0  0
 26 66  1  0  0  0  0
 27 26  1  0  0  0  0
 27 67  1  0  0  0  0
 27 68  1  0  0  0  0
 28 27  1  0  0  0  0
 28 69  1  0  0  0  0
 28 70  1  0  0  0  0
 29 28  1  0  0  0  0
 29 71  1  0  0  0  0
 30 29  1  0  0  0  0
 30 72  1  0  0  0  0
 30 73  1  0  0  0  0
 30 74  1  0  0  0  0
 31 29  1  0  0  0  0
 31 75  1  0  0  0  0
 31 76  1  0  0  0  0
 31 77  1  0  0  0  0
 32 78  1  0  0  0  0
 32 79  1  0  0  0  0
 32 80  1  0  0  0  0
 33 81  1  0  0  0  0
 33 82  1  0  0  0  0
 33 83  1  0  0  0  0
 34 84  1  0  0  0  0
 34 85  1  0  0  0  0
 34 86  1  0  0  0  0
M  END
>  <DRUGBANK_ID>
DB14477

>  <COMMON_NAME>
DL-alpha tocopheryl acetate

>  <CAS_NUMBER>
52225-20-4

>  <UNII>
WR1WPI7EW8

>  <SYNONYMS>
all-rac-alfa-tocopheryl acetate; all-rac-alpha-tocopheryl acetate; DL-alpha-tocopheryl acetate

$$$$
