CK9
 OpenBabel10282417143D

 53 55  0  0  0  0  0  0  0  0999 V2000
   -2.3409   11.0747   10.0274 O   0  0  0  0  0  0  0  0  0  0  0  0
   -2.2302   12.2930    9.4169 C   0  0  0  0  0  0  0  0  0  0  0  0
   -2.3000   13.4602   10.1837 C   0  0  0  0  0  0  0  0  0  0  0  0
   -2.1754   14.7038    9.5656 C   0  0  0  0  0  0  0  0  0  0  0  0
   -1.9805   14.7762    8.1880 C   0  0  0  0  0  0  0  0  0  0  0  0
   -1.9071   13.6044    7.4263 C   0  0  0  0  0  0  0  0  0  0  0  0
   -2.0347   12.3398    8.0292 C   0  0  0  0  0  0  0  0  0  0  0  0
   -1.8922   11.0732    7.2023 C   0  0  0  0  0  0  0  0  0  0  0  0
   -2.9489   10.9456    6.2088 N   0  0  0  0  0  0  0  0  0  0  0  0
   -2.5657   11.0093    4.8706 C   0  0  0  0  0  0  0  0  0  0  0  0
   -3.2157   11.8385    3.9383 C   0  0  0  0  0  0  0  0  0  0  0  0
   -4.2136   12.7889    4.0682 N   0  0  0  0  0  0  0  0  0  0  0  0
   -4.3940   13.2530    2.8502 C   0  0  0  0  0  0  0  0  0  0  0  0
   -2.8105   11.7365    2.6259 C   0  0  0  0  0  0  0  0  0  0  0  0
   -3.5721   12.6416    1.9372 N   0  0  0  0  0  0  0  0  0  0  0  0
   -3.5428   12.9160    0.5068 C   0  0  0  0  0  0  0  0  0  0  0  0
   -2.1879   13.4615    0.0564 C   0  0  0  0  0  0  0  0  0  0  0  0
   -3.9464   11.6926   -0.3159 C   0  0  0  0  0  0  0  0  0  0  0  0
   -1.8746   10.9041    2.1317 N   0  0  0  0  0  0  0  0  0  0  0  0
   -1.3140   10.1431    3.0768 C   0  0  0  0  0  0  0  0  0  0  0  0
   -1.5795   10.1903    4.3970 N   0  0  0  0  0  0  0  0  0  0  0  0
   -0.3972    9.1808    2.7048 N   0  0  0  0  0  0  0  0  0  0  0  0
    0.1703    9.1063    1.3660 C   0  0  2  0  0  0  0  0  0  0  0  0
    0.8230    7.6876    1.2196 C   0  0  0  0  0  0  0  0  0  0  0  0
    2.0842    7.7854    0.4002 C   0  0  0  0  0  0  0  0  0  0  0  0
    1.1279   10.3347    1.1002 C   0  0  0  0  0  0  0  0  0  0  0  0
    1.5865   10.4830   -0.2527 O   0  0  0  0  0  0  0  0  0  0  0  0
   -0.6335    9.1408    0.6171 H   0  0  0  0  0  0  0  0  0  0  0  0
   -2.5193   11.2041   10.9726 H   0  0  0  0  0  0  0  0  0  0  0  0
   -2.4428   13.4202   11.2596 H   0  0  0  0  0  0  0  0  0  0  0  0
   -2.2274   15.6156   10.1561 H   0  0  0  0  0  0  0  0  0  0  0  0
   -1.8810   15.7456    7.7049 H   0  0  0  0  0  0  0  0  0  0  0  0
   -1.7408   13.6833    6.3538 H   0  0  0  0  0  0  0  0  0  0  0  0
   -0.8826   11.0620    6.7713 H   0  0  0  0  0  0  0  0  0  0  0  0
   -1.9526   10.1902    7.8459 H   0  0  0  0  0  0  0  0  0  0  0  0
   -3.7862   11.4854    6.4070 H   0  0  0  0  0  0  0  0  0  0  0  0
   -5.1026   14.0254    2.5725 H   0  0  0  0  0  0  0  0  0  0  0  0
   -4.2920   13.6990    0.3253 H   0  0  0  0  0  0  0  0  0  0  0  0
   -1.3851   12.7371    0.2240 H   0  0  0  0  0  0  0  0  0  0  0  0
   -2.2002   13.7009   -1.0124 H   0  0  0  0  0  0  0  0  0  0  0  0
   -1.9332   14.3749    0.6046 H   0  0  0  0  0  0  0  0  0  0  0  0
   -4.9454   11.3442   -0.0323 H   0  0  0  0  0  0  0  0  0  0  0  0
   -3.9616   11.9295   -1.3851 H   0  0  0  0  0  0  0  0  0  0  0  0
   -3.2499   10.8609   -0.1709 H   0  0  0  0  0  0  0  0  0  0  0  0
    0.0631    8.7596    3.4972 H   0  0  0  0  0  0  0  0  0  0  0  0
    1.0538    7.2308    2.1924 H   0  0  0  0  0  0  0  0  0  0  0  0
    0.1261    6.9877    0.7317 H   0  0  0  0  0  0  0  0  0  0  0  0
    2.7505    8.4888    0.9069 H   0  0  0  0  0  0  0  0  0  0  0  0
    2.6699    6.8795    0.2648 H   0  0  0  0  0  0  0  0  0  0  0  0
    1.7874    8.1324   -0.5937 H   0  0  0  0  0  0  0  0  0  0  0  0
    0.6071   11.2716    1.3029 H   0  0  0  0  0  0  0  0  0  0  0  0
    1.9904   10.3176    1.7788 H   0  0  0  0  0  0  0  0  0  0  0  0
    2.4160    9.9900   -0.3810 H   0  0  0  0  0  0  0  0  0  0  0  0
  1  2  1  0  0  0  0
  1 29  1  0  0  0  0
  2  3  2  0  0  0  0
  2  7  1  0  0  0  0
  3  4  1  0  0  0  0
  3 30  1  0  0  0  0
  4  5  2  0  0  0  0
  4 31  1  0  0  0  0
  5  6  1  0  0  0  0
  5 32  1  0  0  0  0
  6  7  2  0  0  0  0
  6 33  1  0  0  0  0
  7  8  1  0  0  0  0
  8  9  1  0  0  0  0
  8 34  1  0  0  0  0
  8 35  1  0  0  0  0
  9 10  1  0  0  0  0
  9 36  1  0  0  0  0
 10 11  1  0  0  0  0
 10 21  2  0  0  0  0
 11 12  1  0  0  0  0
 11 14  2  0  0  0  0
 12 13  2  0  0  0  0
 13 15  1  0  0  0  0
 13 37  1  0  0  0  0
 14 15  1  0  0  0  0
 14 19  1  0  0  0  0
 15 16  1  0  0  0  0
 16 17  1  0  0  0  0
 16 18  1  0  0  0  0
 16 38  1  0  0  0  0
 17 39  1  0  0  0  0
 17 40  1  0  0  0  0
 17 41  1  0  0  0  0
 18 42  1  0  0  0  0
 18 43  1  0  0  0  0
 18 44  1  0  0  0  0
 19 20  2  0  0  0  0
 20 21  1  0  0  0  0
 20 22  1  0  0  0  0
 22 45  1  0  0  0  0
 23 26  1  0  0  0  0
 23 28  1  6  0  0  0
 23 24  1  0  0  0  0
 23 22  1  0  0  0  0
 24 25  1  0  0  0  0
 24 46  1  0  0  0  0
 24 47  1  0  0  0  0
 25 48  1  0  0  0  0
 25 49  1  0  0  0  0
 25 50  1  0  0  0  0
 26 27  1  0  0  0  0
 26 51  1  0  0  0  0
 26 52  1  0  0  0  0
 27 53  1  0  0  0  0
M  END
>  <DRUGBANK_ID>
DB04662

>  <COMMON_NAME>
OLOMOUCINE II

$$$$
