
 OpenBabel10282417203D

 30 30  0  0  0  0  0  0  0  0999 V2000
    0.9212    0.0200   -0.0954 C   0  0  0  0  0  0  0  0  0  0  0  0
    0.5680   -1.4084   -0.5274 C   0  0  0  0  0  0  0  0  0  0  0  0
    1.3081   -2.3261    0.4637 C   0  0  0  0  0  0  0  0  0  0  0  0
   -0.8847   -1.4922   -0.7200 N   0  0  0  0  0  0  0  0  0  0  0  0
   -1.5040   -2.8027   -0.9181 C   0  0  0  0  0  0  0  0  0  0  0  0
   -1.2906   -3.9232    0.1374 C   0  0  3  0  0  0  0  0  0  0  0  0
   -1.7069   -3.5822    1.5695 C   0  0  0  0  0  0  0  0  0  0  0  0
   -1.5850   -2.2889    2.1284 C   0  0  0  0  0  0  0  0  0  0  0  0
   -1.9922   -1.9850    3.4256 C   0  0  0  0  0  0  0  0  0  0  0  0
   -2.4811   -2.9842    4.2343 C   0  0  0  0  0  0  0  0  0  0  0  0
   -2.5227   -4.3012    3.7516 C   0  0  0  0  0  0  0  0  0  0  0  0
   -2.1319   -4.5869    2.4329 C   0  0  0  0  0  0  0  0  0  0  0  0
   -3.0351   -5.6183    4.7358 Cl  0  0  0  0  0  0  0  0  0  0  0  0
   -2.9941   -2.5418    5.8195 Cl  0  0  0  0  0  0  0  0  0  0  0  0
   -1.9144   -5.1290   -0.3365 O   0  0  0  0  0  0  0  0  0  0  0  0
    0.5427    0.2416    0.9111 H   0  0  0  0  0  0  0  0  0  0  0  0
    0.5280    0.7689   -0.7868 H   0  0  0  0  0  0  0  0  0  0  0  0
    2.0108    0.1339   -0.0640 H   0  0  0  0  0  0  0  0  0  0  0  0
    1.0058   -1.5866   -1.5131 H   0  0  0  0  0  0  0  0  0  0  0  0
    0.9170   -2.2730    1.4831 H   0  0  0  0  0  0  0  0  0  0  0  0
    1.3484   -3.3616    0.1349 H   0  0  0  0  0  0  0  0  0  0  0  0
    2.3610   -2.0391    0.5384 H   0  0  0  0  0  0  0  0  0  0  0  0
   -1.4327   -0.9050   -0.0966 H   0  0  0  0  0  0  0  0  0  0  0  0
   -2.5908   -2.6451   -1.0089 H   0  0  0  0  0  0  0  0  0  0  0  0
   -1.2119   -3.1699   -1.9097 H   0  0  0  0  0  0  0  0  0  0  0  0
   -0.2511   -4.2196    0.1552 H   0  0  0  0  0  0  0  0  0  0  0  0
   -1.1186   -1.4663    1.6211 H   0  0  0  0  0  0  0  0  0  0  0  0
   -1.8934   -0.9555    3.7762 H   0  0  0  0  0  0  0  0  0  0  0  0
   -2.1452   -5.6217    2.0842 H   0  0  0  0  0  0  0  0  0  0  0  0
   -2.8751   -5.0190   -0.2877 H   0  0  0  0  0  0  0  0  0  0  0  0
  1  2  1  0  0  0  0
  1 16  1  0  0  0  0
  1 17  1  0  0  0  0
  1 18  1  0  0  0  0
  2  3  1  0  0  0  0
  2  4  1  0  0  0  0
  2 19  1  0  0  0  0
  3 20  1  0  0  0  0
  3 21  1  0  0  0  0
  3 22  1  0  0  0  0
  4  5  1  0  0  0  0
  4 23  1  0  0  0  0
  5  6  1  0  0  0  0
  5 24  1  0  0  0  0
  5 25  1  0  0  0  0
  6  7  1  0  0  0  0
  6 15  1  0  0  0  0
  6 26  1  0  0  0  0
  7  8  2  0  0  0  0
  7 12  1  0  0  0  0
  8  9  1  0  0  0  0
  8 27  1  0  0  0  0
  9 10  2  0  0  0  0
  9 28  1  0  0  0  0
 10 11  1  0  0  0  0
 10 14  1  0  0  0  0
 11 12  2  0  0  0  0
 11 13  1  0  0  0  0
 12 29  1  0  0  0  0
 15 30  1  0  0  0  0
M  END
>  <DRUGBANK_ID>
DB12803

>  <COMMON_NAME>
Dichloroisoproterenol

>  <CAS_NUMBER>
59-61-0

>  <UNII>
U7NOE2K4M2

>  <SYNONYMS>
DCI

$$$$
