AM3
 OpenBabel10282417163D

 50 51  0  0  0  0  0  0  0  0999 V2000
    0.9159   -0.0109    0.0228 O   0  0  0  0  0  0  0  0  0  0  0  0
    0.4513   -0.2621   -1.3122 C   0  0  1  0  0  0  0  0  0  0  0  0
    1.3512    0.4243   -2.3138 C   0  0  1  0  0  0  0  0  0  0  0  0
    1.5840    1.8774   -1.9526 C   0  0  0  0  0  0  0  0  0  0  0  0
    2.9904    2.0589   -2.1633 O   0  0  0  0  0  0  0  0  0  0  0  0
    0.4705   -1.7536   -1.6281 C   0  0  2  0  0  0  0  0  0  0  0  0
   -0.4003   -2.4365   -0.7104 O   0  0  0  0  0  0  0  0  0  0  0  0
    1.8799   -2.3688   -1.5850 C   0  0  1  0  0  0  0  0  0  0  0  0
    1.8981   -3.5155   -2.4555 O   0  0  0  0  0  0  0  0  0  0  0  0
    3.0528   -1.4433   -1.9557 C   0  0  2  0  0  0  0  0  0  0  0  0
    3.8780   -1.4143   -0.7904 O   0  0  0  0  0  0  0  0  0  0  0  0
    2.7009   -0.0903   -2.2347 N   0  0  0  0  0  0  0  0  0  0  0  0
    3.6143    0.8846   -2.3737 C   0  0  0  0  0  0  0  0  0  0  0  0
    4.8710    0.7307   -2.6122 N   0  0  0  0  0  0  0  0  0  0  0  0
    5.7912    1.8427   -2.8320 C   0  0  0  0  0  0  0  0  0  0  0  0
    5.5541    2.4899   -4.2033 C   0  0  0  0  0  0  0  0  0  0  0  0
    4.1644    3.1078   -4.2950 C   0  0  0  0  0  0  0  0  0  0  0  0
    3.9665    4.1326   -3.1491 C   0  0  0  0  0  0  0  0  0  0  0  0
    4.8492    5.3423   -3.3414 C   0  0  0  0  0  0  0  0  0  0  0  0
    4.4716    6.0244   -4.6460 C   0  0  0  0  0  0  0  0  0  0  0  0
    2.9968    6.4397   -4.6504 C   0  0  0  0  0  0  0  0  0  0  0  0
    2.7225    7.4157   -3.5181 C   0  0  0  0  0  0  0  0  0  0  0  0
   -0.5682    0.1349   -1.3762 H   0  0  0  0  0  0  0  0  0  0  0  0
    0.9752    0.3352   -3.3439 H   0  0  0  0  0  0  0  0  0  0  0  0
    0.0286   -1.9195   -2.6175 H   0  0  0  0  0  0  0  0  0  0  0  0
    2.0591   -2.7553   -0.5746 H   0  0  0  0  0  0  0  0  0  0  0  0
    3.6361   -1.8538   -2.7901 H   0  0  0  0  0  0  0  0  0  0  0  0
    1.8925   -0.0276    0.0105 H   0  0  0  0  0  0  0  0  0  0  0  0
    1.4122    2.1285   -0.9041 H   0  0  0  0  0  0  0  0  0  0  0  0
    0.9870    2.5645   -2.5645 H   0  0  0  0  0  0  0  0  0  0  0  0
   -0.0394   -3.3169   -0.5163 H   0  0  0  0  0  0  0  0  0  0  0  0
    1.1112   -4.0513   -2.2690 H   0  0  0  0  0  0  0  0  0  0  0  0
    4.1888   -0.4963   -0.7163 H   0  0  0  0  0  0  0  0  0  0  0  0
    5.7849    2.5596   -2.0036 H   0  0  0  0  0  0  0  0  0  0  0  0
    6.8164    1.4513   -2.8330 H   0  0  0  0  0  0  0  0  0  0  0  0
    6.3113    3.2607   -4.3924 H   0  0  0  0  0  0  0  0  0  0  0  0
    5.6782    1.7500   -5.0007 H   0  0  0  0  0  0  0  0  0  0  0  0
    3.9853    3.5473   -5.2771 H   0  0  0  0  0  0  0  0  0  0  0  0
    3.4157    2.3107   -4.3083 H   0  0  0  0  0  0  0  0  0  0  0  0
    2.9051    4.3878   -3.0534 H   0  0  0  0  0  0  0  0  0  0  0  0
    4.2263    3.7662   -2.1515 H   0  0  0  0  0  0  0  0  0  0  0  0
    4.7434    6.0053   -2.4768 H   0  0  0  0  0  0  0  0  0  0  0  0
    5.9036    5.0505   -3.3330 H   0  0  0  0  0  0  0  0  0  0  0  0
    5.1244    6.8836   -4.8010 H   0  0  0  0  0  0  0  0  0  0  0  0
    4.6642    5.3611   -5.4957 H   0  0  0  0  0  0  0  0  0  0  0  0
    2.7522    6.8879   -5.6155 H   0  0  0  0  0  0  0  0  0  0  0  0
    2.3240    5.5766   -4.5591 H   0  0  0  0  0  0  0  0  0  0  0  0
    3.3776    8.2852   -3.6198 H   0  0  0  0  0  0  0  0  0  0  0  0
    1.6817    7.7400   -3.5285 H   0  0  0  0  0  0  0  0  0  0  0  0
    2.9043    6.9708   -2.5335 H   0  0  0  0  0  0  0  0  0  0  0  0
  1 28  1  0  0  0  0
  2  1  1  0  0  0  0
  2  3  1  0  0  0  0
  2  6  1  0  0  0  0
  2 23  1  6  0  0  0
  3  4  1  0  0  0  0
  3 12  1  0  0  0  0
  3 24  1  6  0  0  0
  4  5  1  0  0  0  0
  4 29  1  0  0  0  0
  4 30  1  0  0  0  0
  5 13  1  0  0  0  0
  6  8  1  0  0  0  0
  6 25  1  6  0  0  0
  6  7  1  0  0  0  0
  7 31  1  0  0  0  0
  8 10  1  0  0  0  0
  8 26  1  1  0  0  0
  8  9  1  0  0  0  0
  9 32  1  0  0  0  0
 10 12  1  0  0  0  0
 10 11  1  0  0  0  0
 10 27  1  6  0  0  0
 11 33  1  0  0  0  0
 12 13  1  0  0  0  0
 13 14  2  0  0  0  0
 14 15  1  0  0  0  0
 15 16  1  0  0  0  0
 15 34  1  0  0  0  0
 15 35  1  0  0  0  0
 16 17  1  0  0  0  0
 16 36  1  0  0  0  0
 16 37  1  0  0  0  0
 17 18  1  0  0  0  0
 17 38  1  0  0  0  0
 17 39  1  0  0  0  0
 18 19  1  0  0  0  0
 18 40  1  0  0  0  0
 18 41  1  0  0  0  0
 19 20  1  0  0  0  0
 19 42  1  0  0  0  0
 19 43  1  0  0  0  0
 20 21  1  0  0  0  0
 20 44  1  0  0  0  0
 20 45  1  0  0  0  0
 21 22  1  0  0  0  0
 21 46  1  0  0  0  0
 21 47  1  0  0  0  0
 22 48  1  0  0  0  0
 22 49  1  0  0  0  0
 22 50  1  0  0  0  0
M  END
>  <DRUGBANK_ID>
DB07367

>  <COMMON_NAME>
(3Z,5S,6R,7S,8S,8aR)-3-(octylimino)hexahydro[1,3]oxazolo[3,4-a]pyridine-5,6,7,8-tetrol

$$$$
