
 OpenBabel10282417133D

 37 38  0  0  0  0  0  0  0  0999 V2000
   -0.3281   -0.2598   -0.1730 P   0  0  0  0  0  0  0  0  0  0  0  0
   -1.4831    1.9493   -1.5323 O   0  0  0  0  0  0  0  0  0  0  0  0
    0.6679    0.8758    0.4659 O   0  0  0  0  0  0  0  0  0  0  0  0
   -5.2637    2.5477   -1.3130 O   0  0  0  0  0  0  0  0  0  0  0  0
    0.4775   -1.6589    0.0032 O   0  0  0  0  0  0  0  0  0  0  0  0
    0.6058   -0.0208   -1.6095 O   0  0  0  0  0  0  0  0  0  0  0  0
   -5.2262    3.9615    2.9874 O   0  0  0  0  0  0  0  0  0  0  0  0
   -1.1638   -0.4738    1.1128 O   0  0  0  0  0  0  0  0  0  0  0  0
   -3.2188    3.1636   -0.4090 N   0  0  0  0  0  0  0  0  0  0  0  0
    0.7563    4.6090   -2.2217 N   0  0  0  0  0  0  0  0  0  0  0  0
   -5.1494    3.0145    0.9044 N   0  0  0  0  0  0  0  0  0  0  0  0
   -0.3401    4.0724   -1.4153 C   0  0  2  0  0  0  0  0  0  0  0  0
   -0.2268    2.5656   -1.1213 C   0  0  1  0  0  0  0  0  0  0  0  0
   -1.6848    4.2214   -2.1194 C   0  0  0  0  0  0  0  0  0  0  0  0
   -2.4783    2.9955   -1.6797 C   0  0  1  0  0  0  0  0  0  0  0  0
    0.0521    2.1579    0.3565 C   0  0  0  0  0  0  0  0  0  0  0  0
   -2.5974    3.6793    0.7004 C   0  0  0  0  0  0  0  0  0  0  0  0
   -4.5789    2.8712   -0.3477 C   0  0  0  0  0  0  0  0  0  0  0  0
   -3.1622    3.9307    1.8742 C   0  0  0  0  0  0  0  0  0  0  0  0
   -4.5877    3.6331    1.9888 C   0  0  0  0  0  0  0  0  0  0  0  0
   -2.3828    4.5336    2.9926 C   0  0  0  0  0  0  0  0  0  0  0  0
    1.4366    3.8769   -2.4374 H   0  0  0  0  0  0  0  0  0  0  0  0
    1.2834    5.2836   -1.6639 H   0  0  0  0  0  0  0  0  0  0  0  0
   -6.1378    2.8307    0.9675 H   0  0  0  0  0  0  0  0  0  0  0  0
    0.0411   -2.1206    0.7460 H   0  0  0  0  0  0  0  0  0  0  0  0
   -0.0079    0.1499   -2.3480 H   0  0  0  0  0  0  0  0  0  0  0  0
   -0.3188    4.6626   -0.4986 H   0  0  0  0  0  0  0  0  0  0  0  0
    0.5638    2.1575   -1.7527 H   0  0  0  0  0  0  0  0  0  0  0  0
   -2.1951    5.1606   -1.8809 H   0  0  0  0  0  0  0  0  0  0  0  0
   -1.5469    4.1896   -3.2084 H   0  0  0  0  0  0  0  0  0  0  0  0
   -3.1734    2.6915   -2.4729 H   0  0  0  0  0  0  0  0  0  0  0  0
   -0.8833    2.0197    0.9022 H   0  0  0  0  0  0  0  0  0  0  0  0
    0.6540    2.8948    0.8869 H   0  0  0  0  0  0  0  0  0  0  0  0
   -1.5617    3.9191    0.6458 H   0  0  0  0  0  0  0  0  0  0  0  0
   -2.7397    5.5478    3.1855 H   0  0  0  0  0  0  0  0  0  0  0  0
   -2.4595    3.9308    3.8997 H   0  0  0  0  0  0  0  0  0  0  0  0
   -1.3132    4.6110    2.7472 H   0  0  0  0  0  0  0  0  0  0  0  0
  1  3  1  0  0  0  0
  1  5  1  0  0  0  0
  1  6  1  0  0  0  0
  1  8  2  0  0  0  0
  2 13  1  0  0  0  0
  2 15  1  0  0  0  0
  3 16  1  0  0  0  0
  4 18  2  0  0  0  0
  5 25  1  0  0  0  0
  6 26  1  0  0  0  0
  7 20  2  0  0  0  0
  9 17  1  0  0  0  0
  9 18  1  0  0  0  0
 10 22  1  0  0  0  0
 10 23  1  0  0  0  0
 11 18  1  0  0  0  0
 11 20  1  0  0  0  0
 11 24  1  0  0  0  0
 12 13  1  0  0  0  0
 12 14  1  0  0  0  0
 12 27  1  1  0  0  0
 12 10  1  0  0  0  0
 13 28  1  6  0  0  0
 13 16  1  0  0  0  0
 14 15  1  0  0  0  0
 14 29  1  0  0  0  0
 14 30  1  0  0  0  0
 15 31  1  6  0  0  0
 15  9  1  0  0  0  0
 16 32  1  0  0  0  0
 16 33  1  0  0  0  0
 17 19  2  0  0  0  0
 17 34  1  0  0  0  0
 19 20  1  0  0  0  0
 19 21  1  0  0  0  0
 21 35  1  0  0  0  0
 21 36  1  0  0  0  0
 21 37  1  0  0  0  0
M  END
>  <DRUGBANK_ID>
DB03233

>  <SECONDARY_ACCESSION_NUMBERS>
EXPT02401

>  <COMMON_NAME>
3'-deoxy-3'-aminothymidine monophosphate

>  <CAS_NUMBER>
42214-32-4

$$$$
