TL6
 OpenBabel10282417173D

 25 25  0  0  0  0  0  0  0  0999 V2000
    0.9497    0.1446   -0.0358 O   0  0  0  0  0  0  0  0  0  0  0  0
    2.1657    0.0453   -0.0111 C   0  0  0  0  0  0  0  0  0  0  0  0
    3.0177   -1.4787   -0.0371 S   0  0  0  0  0  0  0  0  0  0  0  0
    4.5259   -0.7156    0.6854 C   0  0  1  0  0  0  0  0  0  0  0  0
    5.7689   -1.2726   -0.0146 C   0  0  0  0  0  0  0  0  0  0  0  0
    4.3362    0.7639    0.4018 C   0  0  0  0  0  0  0  0  0  0  0  0
    5.4286    1.5913    0.5673 O   0  0  0  0  0  0  0  0  0  0  0  0
    3.1097    1.1796    0.0502 C   0  0  0  0  0  0  0  0  0  0  0  0
    2.6634    2.5686   -0.2069 C   0  0  0  0  0  0  0  0  0  0  0  0
    4.5147   -1.0420    2.1692 C   0  0  0  0  0  0  0  0  0  0  0  0
    3.9206   -0.3023    3.1213 C   0  0  0  0  0  0  0  0  0  0  0  0
    3.9391   -0.6281    4.5213 C   0  0  0  0  0  0  0  0  0  0  0  0
    3.3227    0.1384    5.4280 C   0  0  0  0  0  0  0  0  0  0  0  0
    5.6137   -2.2856   -0.4031 H   0  0  0  0  0  0  0  0  0  0  0  0
    6.0835   -0.6439   -0.8561 H   0  0  0  0  0  0  0  0  0  0  0  0
    6.6176   -1.3249    0.6778 H   0  0  0  0  0  0  0  0  0  0  0  0
    5.1807    2.5149    0.3879 H   0  0  0  0  0  0  0  0  0  0  0  0
    2.8341    3.1956    0.6744 H   0  0  0  0  0  0  0  0  0  0  0  0
    3.2244    2.9884   -1.0476 H   0  0  0  0  0  0  0  0  0  0  0  0
    1.5999    2.6206   -0.4552 H   0  0  0  0  0  0  0  0  0  0  0  0
    5.0293   -1.9580    2.4540 H   0  0  0  0  0  0  0  0  0  0  0  0
    3.3748    0.5998    2.8536 H   0  0  0  0  0  0  0  0  0  0  0  0
    4.4763   -1.5179    4.8383 H   0  0  0  0  0  0  0  0  0  0  0  0
    3.3535   -0.1176    6.4809 H   0  0  0  0  0  0  0  0  0  0  0  0
    2.7748    1.0334    5.1470 H   0  0  0  0  0  0  0  0  0  0  0  0
  1  2  2  0  0  0  0
  2  3  1  0  0  0  0
  2  8  1  0  0  0  0
  3  4  1  0  0  0  0
  4  6  1  0  0  0  0
  4 10  1  1  0  0  0
  4  5  1  0  0  0  0
  5 14  1  0  0  0  0
  5 15  1  0  0  0  0
  5 16  1  0  0  0  0
  6  7  1  0  0  0  0
  6  8  2  0  0  0  0
  7 17  1  0  0  0  0
  8  9  1  0  0  0  0
  9 18  1  0  0  0  0
  9 19  1  0  0  0  0
  9 20  1  0  0  0  0
 10 11  2  0  0  0  0
 10 21  1  0  0  0  0
 11 12  1  0  0  0  0
 11 22  1  0  0  0  0
 12 13  2  0  0  0  0
 12 23  1  0  0  0  0
 13 24  1  0  0  0  0
 13 25  1  0  0  0  0
M  END
>  <DRUGBANK_ID>
DB08628

>  <COMMON_NAME>
(5R)-5-[(1E)-BUTA-1,3-DIENYL]-4-HYDROXY-3,5-DIMETHYLTHIOPHEN-2(5H)-ONE

$$$$
