
 OpenBabel10282417173D

 51 55  0  0  0  0  0  0  0  0999 V2000
   -1.1021   -1.3566   -0.0046 N   0  0  0  0  0  0  0  0  0  0  0  0
   -2.2366   -0.6447    0.0238 C   0  0  0  0  0  0  0  0  0  0  0  0
   -2.3571    0.6851   -0.0484 N   0  0  0  0  0  0  0  0  0  0  0  0
   -1.2336    1.3892   -0.2800 C   0  0  0  0  0  0  0  0  0  0  0  0
    0.0679    0.6889   -0.4086 C   0  0  0  0  0  0  0  0  0  0  0  0
    1.4198    1.1788   -0.6195 C   0  0  0  0  0  0  0  0  0  0  0  0
    2.6324    0.5433   -0.2516 C   0  0  0  0  0  0  0  0  0  0  0  0
    2.5576   -0.8247   -0.0677 C   0  0  0  0  0  0  0  0  0  0  0  0
    1.2538   -1.3953   -0.0682 C   0  0  0  0  0  0  0  0  0  0  0  0
    0.0408   -0.6818   -0.1620 C   0  0  0  0  0  0  0  0  0  0  0  0
   -1.4323    2.7693   -0.2599 N   0  0  0  0  0  0  0  0  0  0  0  0
   -0.7718    3.8092   -1.0446 C   0  0  0  0  0  0  0  0  0  0  0  0
   -0.7256    5.0506   -0.0836 C   0  0  1  0  0  0  0  0  0  0  0  0
   -2.0689    4.9442    0.6239 C   0  0  0  0  0  0  0  0  0  0  0  0
   -2.3219    3.4166    0.7495 C   0  0  0  0  0  0  0  0  0  0  0  0
    0.3496    5.2792    0.8907 O   0  0  0  0  0  0  0  0  0  0  0  0
    0.5662    4.5419    3.1516 N   0  0  0  0  0  0  0  0  0  0  0  0
    0.5767    4.3102    1.8496 C   0  0  0  0  0  0  0  0  0  0  0  0
    0.7994    3.0399    1.4377 C   0  0  0  0  0  0  0  0  0  0  0  0
    0.9015    1.9062    2.1538 N   0  0  0  0  0  0  0  0  0  0  0  0
    0.8186    2.0899    3.4245 C   0  0  0  0  0  0  0  0  0  0  0  0
    0.8627    0.9592    4.2232 C   0  0  0  0  0  0  0  0  0  0  0  0
    0.8004    1.1048    5.5882 C   0  0  0  0  0  0  0  0  0  0  0  0
    0.6878    2.3897    6.1260 C   0  0  0  0  0  0  0  0  0  0  0  0
    0.6306    3.5230    5.2996 C   0  0  0  0  0  0  0  0  0  0  0  0
    0.6792    3.4206    3.9454 C   0  0  0  0  0  0  0  0  0  0  0  0
    3.4990   -1.8104    0.0928 O   0  0  0  0  0  0  0  0  0  0  0  0
    4.8570   -1.4555    0.0478 C   0  0  0  0  0  0  0  0  0  0  0  0
    3.5708    1.5333   -0.1023 O   0  0  0  0  0  0  0  0  0  0  0  0
    4.9521    1.3309    0.0402 C   0  0  0  0  0  0  0  0  0  0  0  0
   -3.1588   -1.2115    0.1067 H   0  0  0  0  0  0  0  0  0  0  0  0
    1.5911    2.2052   -0.9241 H   0  0  0  0  0  0  0  0  0  0  0  0
    1.1833   -2.4777    0.0511 H   0  0  0  0  0  0  0  0  0  0  0  0
   -1.4348    4.0245   -1.8951 H   0  0  0  0  0  0  0  0  0  0  0  0
    0.1944    3.5420   -1.4630 H   0  0  0  0  0  0  0  0  0  0  0  0
   -0.6963    5.9438   -0.7214 H   0  0  0  0  0  0  0  0  0  0  0  0
   -2.0629    5.4630    1.5900 H   0  0  0  0  0  0  0  0  0  0  0  0
   -2.8518    5.4015    0.0073 H   0  0  0  0  0  0  0  0  0  0  0  0
   -2.0769    3.1052    1.7730 H   0  0  0  0  0  0  0  0  0  0  0  0
   -3.3831    3.2138    0.5735 H   0  0  0  0  0  0  0  0  0  0  0  0
    0.7681    2.9540    0.4058 H   0  0  0  0  0  0  0  0  0  0  0  0
    0.9376   -0.0285    3.7604 H   0  0  0  0  0  0  0  0  0  0  0  0
    0.8387    0.2284    6.2295 H   0  0  0  0  0  0  0  0  0  0  0  0
    0.6335    2.5199    7.1975 H   0  0  0  0  0  0  0  0  0  0  0  0
    0.5311    4.5191    5.7207 H   0  0  0  0  0  0  0  0  0  0  0  0
    5.0610   -0.9505   -0.8941 H   0  0  0  0  0  0  0  0  0  0  0  0
    5.0831   -0.9376    0.9757 H   0  0  0  0  0  0  0  0  0  0  0  0
    5.5470   -2.3017    0.0491 H   0  0  0  0  0  0  0  0  0  0  0  0
    5.1724    0.8667    0.9992 H   0  0  0  0  0  0  0  0  0  0  0  0
    5.3074    0.8489   -0.8651 H   0  0  0  0  0  0  0  0  0  0  0  0
    5.5280    2.2610    0.0692 H   0  0  0  0  0  0  0  0  0  0  0  0
  1  2  1  0  0  0  0
  1 10  2  0  0  0  0
  2  3  2  0  0  0  0
  2 31  1  0  0  0  0
  3  4  1  0  0  0  0
  4  5  2  0  0  0  0
  4 11  1  0  0  0  0
  5  6  1  0  0  0  0
  5 10  1  0  0  0  0
  6  7  2  0  0  0  0
  6 32  1  0  0  0  0
  7  8  1  0  0  0  0
  7 29  1  0  0  0  0
  8  9  2  0  0  0  0
  8 27  1  0  0  0  0
  9 10  1  0  0  0  0
  9 33  1  0  0  0  0
 11 12  1  0  0  0  0
 11 15  1  0  0  0  0
 12 13  1  0  0  0  0
 12 34  1  0  0  0  0
 12 35  1  0  0  0  0
 13 14  1  0  0  0  0
 13 16  1  0  0  0  0
 13 36  1  6  0  0  0
 14 15  1  0  0  0  0
 14 37  1  0  0  0  0
 14 38  1  0  0  0  0
 15 39  1  0  0  0  0
 15 40  1  0  0  0  0
 16 18  1  0  0  0  0
 17 18  2  0  0  0  0
 17 26  1  0  0  0  0
 18 19  1  0  0  0  0
 19 20  2  0  0  0  0
 19 41  1  0  0  0  0
 20 21  1  0  0  0  0
 21 22  2  0  0  0  0
 21 26  1  0  0  0  0
 22 23  1  0  0  0  0
 22 42  1  0  0  0  0
 23 24  2  0  0  0  0
 23 43  1  0  0  0  0
 24 25  1  0  0  0  0
 24 44  1  0  0  0  0
 25 26  2  0  0  0  0
 25 45  1  0  0  0  0
 27 28  1  0  0  0  0
 28 46  1  0  0  0  0
 28 47  1  0  0  0  0
 28 48  1  0  0  0  0
 29 30  1  0  0  0  0
 30 49  1  0  0  0  0
 30 50  1  0  0  0  0
 30 51  1  0  0  0  0
M  END
>  <DRUGBANK_ID>
DB08391

>  <COMMON_NAME>
PQ-10

>  <CAS_NUMBER>
927691-21-2

>  <UNII>
63643I762J

$$$$
