
 OpenBabel10282417103D

 50 50  0  0  0  0  0  0  0  0999 V2000
    0.6969    1.1286    0.0046 C   0  0  0  0  0  0  0  0  0  0  0  0
    1.6841    0.0865    0.0020 C   0  0  0  0  0  0  0  0  0  0  0  0
    1.2619   -1.2490   -0.0080 C   0  0  0  0  0  0  0  0  0  0  0  0
   -0.1224   -1.5213   -0.0104 C   0  0  0  0  0  0  0  0  0  0  0  0
   -1.1083   -0.5040   -0.0016 C   0  0  0  0  0  0  0  0  0  0  0  0
   -0.7079    0.8584   -0.0014 C   0  0  0  0  0  0  0  0  0  0  0  0
    1.2137    2.5508    0.0102 C   0  0  0  0  0  0  0  0  0  0  0  0
    3.1102    0.5818    0.0095 C   0  0  0  0  0  0  0  0  0  0  0  0
    3.4342   -2.2663   -0.0086 C   0  0  0  0  0  0  0  0  0  0  0  0
   -2.5639   -0.9263    0.0102 C   0  0  0  0  0  0  0  0  0  0  0  0
   -1.7626    1.9343   -0.0139 C   0  0  0  0  0  0  0  0  0  0  0  0
   -1.6039    3.2711   -0.0344 C   0  0  0  0  0  0  0  0  0  0  0  0
   -2.1664    5.6258   -0.0800 C   0  0  0  0  0  0  0  0  0  0  0  0
   -3.0576    6.7605   -0.1034 C   0  0  0  0  0  0  0  0  0  0  0  0
   -2.7625    8.0715   -0.1248 C   0  0  0  0  0  0  0  0  0  0  0  0
   -3.4916   10.4234   -0.1670 C   0  0  0  0  0  0  0  0  0  0  0  0
    2.0229   -2.3932   -0.0152 O   0  0  0  0  0  0  0  0  0  0  0  0
   -3.9834   12.7611   -0.2083 O   0  0  0  0  0  0  0  0  0  0  0  0
   -4.3858   11.6047   -0.1900 C   0  0  0  0  0  0  0  0  0  0  0  0
   -5.6935   11.3347   -0.1897 O   0  0  0  0  0  0  0  0  0  0  0  0
   -2.5892    4.3367   -0.0580 C   0  0  0  0  0  0  0  0  0  0  0  0
   -4.0173    3.8814   -0.0568 C   0  0  0  0  0  0  0  0  0  0  0  0
   -3.8175    9.1127   -0.1459 C   0  0  0  0  0  0  0  0  0  0  0  0
   -5.2413    8.5951   -0.1417 C   0  0  0  0  0  0  0  0  0  0  0  0
   -0.4388   -2.5667   -0.0198 H   0  0  0  0  0  0  0  0  0  0  0  0
    0.9116    3.0373   -0.9224 H   0  0  0  0  0  0  0  0  0  0  0  0
    0.8844    3.0429    0.9305 H   0  0  0  0  0  0  0  0  0  0  0  0
    2.2893    2.6998    0.0249 H   0  0  0  0  0  0  0  0  0  0  0  0
    3.2804    1.1765   -0.8953 H   0  0  0  0  0  0  0  0  0  0  0  0
    3.2753    1.1622    0.9246 H   0  0  0  0  0  0  0  0  0  0  0  0
    3.9371   -0.1041    0.0060 H   0  0  0  0  0  0  0  0  0  0  0  0
    3.7709   -1.7675   -0.9263 H   0  0  0  0  0  0  0  0  0  0  0  0
    3.7636   -1.7785    0.9178 H   0  0  0  0  0  0  0  0  0  0  0  0
    3.9168   -3.2445   -0.0125 H   0  0  0  0  0  0  0  0  0  0  0  0
   -3.0646   -0.5500    0.9099 H   0  0  0  0  0  0  0  0  0  0  0  0
   -3.0821   -0.5486   -0.8784 H   0  0  0  0  0  0  0  0  0  0  0  0
   -2.6860   -2.0156    0.0112 H   0  0  0  0  0  0  0  0  0  0  0  0
   -2.7828    1.5616   -0.0125 H   0  0  0  0  0  0  0  0  0  0  0  0
   -0.6354    3.7225   -0.0375 H   0  0  0  0  0  0  0  0  0  0  0  0
   -1.1005    5.8617   -0.0805 H   0  0  0  0  0  0  0  0  0  0  0  0
   -4.1001    6.4873   -0.1023 H   0  0  0  0  0  0  0  0  0  0  0  0
   -1.7193    8.3847   -0.1264 H   0  0  0  0  0  0  0  0  0  0  0  0
   -2.4439   10.7187   -0.1686 H   0  0  0  0  0  0  0  0  0  0  0  0
   -6.1918   12.1736   -0.2056 H   0  0  0  0  0  0  0  0  0  0  0  0
   -4.2110    3.2688   -0.9429 H   0  0  0  0  0  0  0  0  0  0  0  0
   -4.2188    3.2989    0.8474 H   0  0  0  0  0  0  0  0  0  0  0  0
   -4.7451    4.6888   -0.0736 H   0  0  0  0  0  0  0  0  0  0  0  0
   -5.4240    7.9841   -1.0321 H   0  0  0  0  0  0  0  0  0  0  0  0
   -5.4298    8.0147    0.7677 H   0  0  0  0  0  0  0  0  0  0  0  0
   -6.0313    9.3325   -0.1568 H   0  0  0  0  0  0  0  0  0  0  0  0
  1  2  1  0  0  0  0
  1  6  2  0  0  0  0
  1  7  1  0  0  0  0
  2  3  2  0  0  0  0
  2  8  1  0  0  0  0
  3  4  1  0  0  0  0
  3 17  1  0  0  0  0
  4  5  2  0  0  0  0
  4 25  1  0  0  0  0
  5  6  1  0  0  0  0
  5 10  1  0  0  0  0
  6 11  1  0  0  0  0
  7 26  1  0  0  0  0
  7 27  1  0  0  0  0
  7 28  1  0  0  0  0
  8 29  1  0  0  0  0
  8 30  1  0  0  0  0
  8 31  1  0  0  0  0
  9 32  1  0  0  0  0
  9 33  1  0  0  0  0
  9 34  1  0  0  0  0
 10 35  1  0  0  0  0
 10 36  1  0  0  0  0
 10 37  1  0  0  0  0
 11 12  2  0  0  0  0
 11 38  1  0  0  0  0
 12 21  1  0  0  0  0
 12 39  1  0  0  0  0
 13 14  1  0  0  0  0
 13 40  1  0  0  0  0
 14 15  2  0  0  0  0
 14 41  1  0  0  0  0
 15 23  1  0  0  0  0
 15 42  1  0  0  0  0
 16 19  1  0  0  0  0
 16 43  1  0  0  0  0
 17  9  1  0  0  0  0
 19 18  2  0  0  0  0
 19 20  1  0  0  0  0
 20 44  1  0  0  0  0
 21 13  2  0  0  0  0
 21 22  1  0  0  0  0
 22 45  1  0  0  0  0
 22 46  1  0  0  0  0
 22 47  1  0  0  0  0
 23 16  2  0  0  0  0
 23 24  1  0  0  0  0
 24 48  1  0  0  0  0
 24 49  1  0  0  0  0
 24 50  1  0  0  0  0
M  END
>  <DRUGBANK_ID>
DB00459

>  <SECONDARY_ACCESSION_NUMBERS>
APRD00778

>  <COMMON_NAME>
Acitretin

>  <CAS_NUMBER>
55079-83-9

>  <UNII>
LCH760E9T7

>  <SYNONYMS>
(all-E)-9-(4-Methoxy-2,3,6-trimethylphenyl)-3,7-dimethyl-2,4,6,8-nonatetraenoic acid; Acitretin; Acitretina; Acitretine; Acitretinum; all-trans-3,7-Dimethyl-9-(4-methoxy-2,3,6-trimethylphenyl)-2,4,6,8-nonatetraenoic acid; Etretin

$$$$
