
 OpenBabel10282417123D

 84 87  0  0  0  0  0  0  0  0999 V2000
   10.8647   -2.7373    5.1016 C   0  0  0  0  0  0  0  0  0  0  0  0
   10.8221   -4.1151    5.3208 C   0  0  0  0  0  0  0  0  0  0  0  0
   11.0572   -4.9937    4.2709 C   0  0  0  0  0  0  0  0  0  0  0  0
   11.3113   -4.4993    2.9915 C   0  0  0  0  0  0  0  0  0  0  0  0
   11.3337   -3.1265    2.7558 C   0  0  0  0  0  0  0  0  0  0  0  0
   11.1534   -2.2475    3.8164 C   0  0  0  0  0  0  0  0  0  0  0  0
   10.5342   -1.8177    6.1749 C   0  0  0  0  0  0  0  0  0  0  0  0
    9.9101    0.0763    8.1627 C   0  0  0  0  0  0  0  0  0  0  0  0
   10.9414   -0.8424    8.3703 C   0  0  0  0  0  0  0  0  0  0  0  0
   11.2476   -1.7816    7.3809 C   0  0  0  0  0  0  0  0  0  0  0  0
    9.4780   -0.9394    5.9888 C   0  0  0  0  0  0  0  0  0  0  0  0
    9.2104    0.0128    6.9476 C   0  0  0  0  0  0  0  0  0  0  0  0
    9.5058    1.0669    9.2363 C   0  0  0  0  0  0  0  0  0  0  0  0
   10.0498    4.5188   10.1246 C   0  0  0  0  0  0  0  0  0  0  0  0
   10.6535    3.2952    9.4317 C   0  0  0  0  0  0  0  0  0  0  0  0
    8.7371    2.9321    7.8472 C   0  0  0  0  0  0  0  0  0  0  0  0
    8.6204    5.3096    8.1541 C   0  0  0  0  0  0  0  0  0  0  0  0
    9.6999    5.6441    9.1628 C   0  0  0  0  0  0  0  0  0  0  0  0
    9.6426    2.4542    8.7889 N   0  0  0  0  0  0  0  0  0  0  0  0
    7.6680    2.3653    7.6000 O   0  0  0  0  0  0  0  0  0  0  0  0
    9.0524    4.2585    7.1446 C   0  0  2  0  0  0  0  0  0  0  0  0
    8.2843    4.3110    5.8819 N   0  0  0  0  0  0  0  0  0  0  0  0
    7.9448    5.4733    5.2118 C   0  0  0  0  0  0  0  0  0  0  0  0
    8.2605    6.5992    5.5943 O   0  0  0  0  0  0  0  0  0  0  0  0
    7.1673    5.3054    3.8957 C   0  0  1  0  0  0  0  0  0  0  0  0
    6.8972    6.6523    3.3076 N   0  0  0  0  0  0  0  0  0  0  0  0
    5.6262    7.1819    3.2262 C   0  0  0  0  0  0  0  0  0  0  0  0
    5.5252    8.5972    2.6890 C   0  0  0  0  0  0  0  0  0  0  0  0
    4.6162    6.5261    3.4612 O   0  0  0  0  0  0  0  0  0  0  0  0
    8.0236    4.4457    2.9350 C   0  0  0  0  0  0  0  0  0  0  0  0
    7.1344    3.5507    2.1061 C   0  0  0  0  0  0  0  0  0  0  0  0
    5.8603    1.5721    1.6997 C   0  0  0  0  0  0  0  0  0  0  0  0
    6.8532    2.2379    2.4242 C   0  0  0  0  0  0  0  0  0  0  0  0
    6.4359    4.1516    1.0611 C   0  0  0  0  0  0  0  0  0  0  0  0
    5.3075    3.6015    0.4448 C   0  0  0  0  0  0  0  0  0  0  0  0
    4.3392    4.4481   -0.3810 C   0  0  0  0  0  0  0  0  0  0  0  0
    5.0808    2.2267    0.6956 C   0  0  0  0  0  0  0  0  0  0  0  0
    2.6237    1.7574    0.0810 C   0  0  0  0  0  0  0  0  0  0  0  0
    2.1064    1.8597    1.1908 O   0  0  0  0  0  0  0  0  0  0  0  0
    4.5626    1.3080   -1.6246 C   0  0  0  0  0  0  0  0  0  0  0  0
    4.8388    0.3020   -2.2644 O   0  0  0  0  0  0  0  0  0  0  0  0
    4.6759    2.4970   -2.2592 O   0  0  0  0  0  0  0  0  0  0  0  0
    1.8782    1.9287   -1.0458 O   0  0  0  0  0  0  0  0  0  0  0  0
    3.3046    3.9330   -0.8189 O   0  0  0  0  0  0  0  0  0  0  0  0
    4.1020    1.3545   -0.1350 C   0  0  0  0  0  0  0  0  0  0  0  0
    4.1868    0.0479    0.3229 F   0  0  0  0  0  0  0  0  0  0  0  0
    4.4962    5.7450   -0.7037 O   0  0  0  0  0  0  0  0  0  0  0  0
    5.5451    6.5567   -0.2266 C   0  0  0  0  0  0  0  0  0  0  0  0
   10.5823   -4.4983    6.3100 H   0  0  0  0  0  0  0  0  0  0  0  0
   11.0184   -6.0628    4.4523 H   0  0  0  0  0  0  0  0  0  0  0  0
   11.4919   -5.1889    2.1733 H   0  0  0  0  0  0  0  0  0  0  0  0
   11.4806   -2.7412    1.7511 H   0  0  0  0  0  0  0  0  0  0  0  0
   11.2256   -1.1745    3.6422 H   0  0  0  0  0  0  0  0  0  0  0  0
   11.5191   -0.8400    9.2909 H   0  0  0  0  0  0  0  0  0  0  0  0
   12.0525   -2.4928    7.5471 H   0  0  0  0  0  0  0  0  0  0  0  0
    8.8463   -0.9818    5.1033 H   0  0  0  0  0  0  0  0  0  0  0  0
    8.4190    0.6923    6.6813 H   0  0  0  0  0  0  0  0  0  0  0  0
    8.4645    0.8779    9.5228 H   0  0  0  0  0  0  0  0  0  0  0  0
   10.1050    0.9055   10.1420 H   0  0  0  0  0  0  0  0  0  0  0  0
   10.7860    4.9233   10.8297 H   0  0  0  0  0  0  0  0  0  0  0  0
    9.1659    4.2386   10.7111 H   0  0  0  0  0  0  0  0  0  0  0  0
   11.3927    3.5905    8.6814 H   0  0  0  0  0  0  0  0  0  0  0  0
   11.1838    2.7081   10.1916 H   0  0  0  0  0  0  0  0  0  0  0  0
    8.3796    6.2533    7.6800 H   0  0  0  0  0  0  0  0  0  0  0  0
    7.6971    4.9901    8.6544 H   0  0  0  0  0  0  0  0  0  0  0  0
   10.6015    5.9706    8.6303 H   0  0  0  0  0  0  0  0  0  0  0  0
    9.3426    6.5039    9.7389 H   0  0  0  0  0  0  0  0  0  0  0  0
   10.1132    4.2945    6.8659 H   0  0  0  0  0  0  0  0  0  0  0  0
    8.0207    3.4061    5.4996 H   0  0  0  0  0  0  0  0  0  0  0  0
    6.2079    4.8308    4.1406 H   0  0  0  0  0  0  0  0  0  0  0  0
    7.6731    7.3058    3.3368 H   0  0  0  0  0  0  0  0  0  0  0  0
    4.9896    8.5807    1.7328 H   0  0  0  0  0  0  0  0  0  0  0  0
    4.9507    9.2157    3.3837 H   0  0  0  0  0  0  0  0  0  0  0  0
    6.5009    9.0581    2.5185 H   0  0  0  0  0  0  0  0  0  0  0  0
    8.6071    5.1054    2.2772 H   0  0  0  0  0  0  0  0  0  0  0  0
    8.7612    3.8267    3.4520 H   0  0  0  0  0  0  0  0  0  0  0  0
    5.6717    0.5269    1.9527 H   0  0  0  0  0  0  0  0  0  0  0  0
    7.3978    1.7287    3.2159 H   0  0  0  0  0  0  0  0  0  0  0  0
    6.8475    5.1094    0.8154 H   0  0  0  0  0  0  0  0  0  0  0  0
    4.9423    2.3401   -3.1891 H   0  0  0  0  0  0  0  0  0  0  0  0
    2.3846    2.4774   -1.6903 H   0  0  0  0  0  0  0  0  0  0  0  0
    5.5391    6.5149    0.8575 H   0  0  0  0  0  0  0  0  0  0  0  0
    6.4761    6.2238   -0.6900 H   0  0  0  0  0  0  0  0  0  0  0  0
    5.3779    7.5911   -0.5111 H   0  0  0  0  0  0  0  0  0  0  0  0
  1  2  2  0  0  0  0
  1  6  1  0  0  0  0
  1  7  1  0  0  0  0
  2  3  1  0  0  0  0
  2 49  1  0  0  0  0
  3  4  2  0  0  0  0
  3 50  1  0  0  0  0
  4  5  1  0  0  0  0
  4 51  1  0  0  0  0
  5  6  2  0  0  0  0
  5 52  1  0  0  0  0
  6 53  1  0  0  0  0
  7 10  1  0  0  0  0
  7 11  2  0  0  0  0
  8  9  1  0  0  0  0
  8 12  2  0  0  0  0
  8 13  1  0  0  0  0
  9 10  2  0  0  0  0
  9 54  1  0  0  0  0
 10 55  1  0  0  0  0
 11 12  1  0  0  0  0
 11 56  1  0  0  0  0
 12 57  1  0  0  0  0
 13 19  1  0  0  0  0
 13 58  1  0  0  0  0
 13 59  1  0  0  0  0
 14 15  1  0  0  0  0
 14 18  1  0  0  0  0
 14 60  1  0  0  0  0
 14 61  1  0  0  0  0
 15 19  1  0  0  0  0
 15 62  1  0  0  0  0
 15 63  1  0  0  0  0
 16 19  1  0  0  0  0
 16 21  1  0  0  0  0
 16 20  2  0  0  0  0
 17 21  1  0  0  0  0
 17 18  1  0  0  0  0
 17 64  1  0  0  0  0
 17 65  1  0  0  0  0
 18 66  1  0  0  0  0
 18 67  1  0  0  0  0
 21 68  1  6  0  0  0
 21 22  1  0  0  0  0
 22 23  1  0  0  0  0
 22 69  1  0  0  0  0
 23 24  2  0  0  0  0
 25 26  1  0  0  0  0
 25 70  1  1  0  0  0
 25 30  1  0  0  0  0
 25 23  1  0  0  0  0
 26 27  1  0  0  0  0
 26 71  1  0  0  0  0
 27 28  1  0  0  0  0
 27 29  2  0  0  0  0
 28 72  1  0  0  0  0
 28 73  1  0  0  0  0
 28 74  1  0  0  0  0
 30 31  1  0  0  0  0
 30 75  1  0  0  0  0
 30 76  1  0  0  0  0
 31 33  1  0  0  0  0
 31 34  2  0  0  0  0
 32 37  1  0  0  0  0
 32 33  2  0  0  0  0
 32 77  1  0  0  0  0
 33 78  1  0  0  0  0
 34 35  1  0  0  0  0
 34 79  1  0  0  0  0
 35 37  2  0  0  0  0
 35 36  1  0  0  0  0
 36 47  1  0  0  0  0
 36 44  2  0  0  0  0
 37 45  1  0  0  0  0
 38 45  1  0  0  0  0
 38 43  1  0  0  0  0
 38 39  2  0  0  0  0
 40 45  1  0  0  0  0
 40 41  2  0  0  0  0
 40 42  1  0  0  0  0
 42 80  1  0  0  0  0
 43 81  1  0  0  0  0
 45 46  1  0  0  0  0
 47 48  1  0  0  0  0
 48 82  1  0  0  0  0
 48 83  1  0  0  0  0
 48 84  1  0  0  0  0
M  END
>  <DRUGBANK_ID>
DB02432

>  <SECONDARY_ACCESSION_NUMBERS>
EXPT00339

>  <COMMON_NAME>
RU90395

$$$$
