
 OpenBabel10282417183D

 59 62  0  0  0  0  0  0  0  0999 V2000
   -4.7374   -2.8431    3.8864 C   0  0  2  0  0  0  0  0  0  0  0  0
   -4.3810   -4.6645    3.4007 C   0  0  1  0  0  0  0  0  0  0  0  0
   -5.6882   -2.6965    6.5261 C   0  0  1  0  0  0  0  0  0  0  0  0
   -5.1789   -3.3777    5.2431 C   0  0  2  0  0  0  0  0  0  0  0  0
   -4.5155   -1.9901    7.3788 C   0  0  1  0  0  0  0  0  0  0  0  0
   -6.1908   -2.0619    9.3598 C   0  0  0  0  0  0  0  0  0  0  0  0
   -3.7172   -1.6000    4.6831 C   0  0  0  0  0  0  0  0  0  0  0  0
   -4.7159   -2.1326    9.2491 C   0  0  2  0  0  0  0  0  0  0  0  0
   -4.4005   -0.7537    6.0660 C   0  0  2  0  0  0  0  0  0  0  0  0
   -6.5280   -1.4813   10.5216 C   0  0  0  0  0  0  0  0  0  0  0  0
   -3.2029   -4.6237    4.3255 C   0  0  0  0  0  0  0  0  0  0  0  0
   -5.5712   -5.7336    4.0830 O   0  0  0  0  0  0  0  0  0  0  0  0
   -3.8259   -4.1605    5.6195 C   0  0  0  0  0  0  0  0  0  0  0  0
   -6.4275   -3.6920    7.3794 C   0  0  0  0  0  0  0  0  0  0  0  0
   -4.2955   -6.1596    2.5187 C   0  0  0  0  0  0  0  0  0  0  0  0
   -4.4854   -3.1347   10.8884 C   0  0  0  0  0  0  0  0  0  0  0  0
   -5.6322   -6.8810    4.8888 C   0  0  0  0  0  0  0  0  0  0  0  0
   -7.0392   -3.0257    8.5842 C   0  0  0  0  0  0  0  0  0  0  0  0
   -6.8131   -2.6331   11.4911 C   0  0  0  0  0  0  0  0  0  0  0  0
   -6.3103   -7.8822    4.6619 O   0  0  0  0  0  0  0  0  0  0  0  0
   -3.3001   -6.9043    2.6876 O   0  0  0  0  0  0  0  0  0  0  0  0
   -7.7076   -3.3755   11.4558 O   0  0  0  0  0  0  0  0  0  0  0  0
   -5.4778   -1.7600    2.9701 C   0  0  0  0  0  0  0  0  0  0  0  0
   -5.5210   -2.7361   12.2492 C   0  0  0  0  0  0  0  0  0  0  0  0
   -3.7885    0.6820    5.9488 C   0  0  0  0  0  0  0  0  0  0  0  0
   -5.1421   -6.6524    6.2467 C   0  0  0  0  0  0  0  0  0  0  0  0
   -5.5082   -6.9116    1.8151 C   0  0  0  0  0  0  0  0  0  0  0  0
   -6.0488   -3.9593    4.9211 H   0  0  0  0  0  0  0  0  0  0  0  0
   -6.4834   -1.9976    6.1863 H   0  0  0  0  0  0  0  0  0  0  0  0
   -3.5313   -2.4273    7.2885 H   0  0  0  0  0  0  0  0  0  0  0  0
   -4.2653   -1.1754    9.5161 H   0  0  0  0  0  0  0  0  0  0  0  0
   -3.3905   -0.9042    3.8908 H   0  0  0  0  0  0  0  0  0  0  0  0
   -2.7178   -1.8633    5.0503 H   0  0  0  0  0  0  0  0  0  0  0  0
   -5.4500   -0.4644    5.8580 H   0  0  0  0  0  0  0  0  0  0  0  0
   -5.6809   -0.8803   10.9439 H   0  0  0  0  0  0  0  0  0  0  0  0
   -2.3711   -5.3115    4.1613 H   0  0  0  0  0  0  0  0  0  0  0  0
   -2.6264   -3.7348    4.0244 H   0  0  0  0  0  0  0  0  0  0  0  0
   -2.9774   -3.6444    6.0628 H   0  0  0  0  0  0  0  0  0  0  0  0
   -4.0521   -4.7166    6.5055 H   0  0  0  0  0  0  0  0  0  0  0  0
   -5.7439   -4.4634    7.7196 H   0  0  0  0  0  0  0  0  0  0  0  0
   -7.2277   -4.1864    6.8009 H   0  0  0  0  0  0  0  0  0  0  0  0
   -3.5139   -3.1141   11.4246 H   0  0  0  0  0  0  0  0  0  0  0  0
   -4.7227   -4.2212   10.7939 H   0  0  0  0  0  0  0  0  0  0  0  0
   -7.3908   -3.8563    9.1947 H   0  0  0  0  0  0  0  0  0  0  0  0
   -7.8750   -2.4301    8.2182 H   0  0  0  0  0  0  0  0  0  0  0  0
   -5.7926   -2.0406    1.9642 H   0  0  0  0  0  0  0  0  0  0  0  0
   -6.2671   -1.2118    3.5052 H   0  0  0  0  0  0  0  0  0  0  0  0
   -4.8100   -0.8946    2.7134 H   0  0  0  0  0  0  0  0  0  0  0  0
   -5.3481   -3.2097   13.2368 H   0  0  0  0  0  0  0  0  0  0  0  0
   -5.5577   -1.7171   12.6787 H   0  0  0  0  0  0  0  0  0  0  0  0
   -3.9505    1.3622    6.7873 H   0  0  0  0  0  0  0  0  0  0  0  0
   -2.7406    0.6978    5.6312 H   0  0  0  0  0  0  0  0  0  0  0  0
   -4.2935    1.1969    5.0930 H   0  0  0  0  0  0  0  0  0  0  0  0
   -4.0674   -6.7866    6.3525 H   0  0  0  0  0  0  0  0  0  0  0  0
   -5.4890   -5.6473    6.3207 H   0  0  0  0  0  0  0  0  0  0  0  0
   -5.7183   -7.1128    7.0494 H   0  0  0  0  0  0  0  0  0  0  0  0
   -6.3407   -7.2021    2.4685 H   0  0  0  0  0  0  0  0  0  0  0  0
   -5.8899   -6.3346    0.9865 H   0  0  0  0  0  0  0  0  0  0  0  0
   -5.1982   -7.9076    1.4201 H   0  0  0  0  0  0  0  0  0  0  0  0
  1 23  1  1  0  0  0
  2  1  1  0  0  0  0
  2 15  1  6  0  0  0
  2 12  1  0  0  0  0
  3  4  1  0  0  0  0
  3  5  1  0  0  0  0
  3 29  1  1  0  0  0
  4  1  1  0  0  0  0
  4 28  1  6  0  0  0
  5  9  1  0  0  0  0
  5 30  1  1  0  0  0
  6  8  1  0  0  0  0
  7  1  1  0  0  0  0
  7 32  1  0  0  0  0
  7 33  1  0  0  0  0
  8  5  1  0  0  0  0
  8 31  1  6  0  0  0
  9  7  1  0  0  0  0
  9 25  1  0  0  0  0
  9 34  1  6  0  0  0
 10  6  2  0  0  0  0
 10 19  1  0  0  0  0
 10 35  1  0  0  0  0
 11  2  1  0  0  0  0
 11 13  1  0  0  0  0
 11 36  1  0  0  0  0
 11 37  1  0  0  0  0
 13  4  1  0  0  0  0
 13 38  1  0  0  0  0
 13 39  1  0  0  0  0
 14  3  1  0  0  0  0
 14 40  1  0  0  0  0
 14 41  1  0  0  0  0
 16  8  1  0  0  0  0
 16 42  1  0  0  0  0
 16 43  1  0  0  0  0
 17 12  1  0  0  0  0
 18 14  1  0  0  0  0
 18  6  1  0  0  0  0
 18 44  1  0  0  0  0
 18 45  1  0  0  0  0
 19 24  1  0  0  0  0
 20 17  2  0  0  0  0
 21 15  2  0  0  0  0
 22 19  2  0  0  0  0
 23 46  1  0  0  0  0
 23 47  1  0  0  0  0
 23 48  1  0  0  0  0
 24 16  1  0  0  0  0
 24 49  1  0  0  0  0
 24 50  1  0  0  0  0
 25 51  1  0  0  0  0
 25 52  1  0  0  0  0
 25 53  1  0  0  0  0
 26 17  1  0  0  0  0
 26 54  1  0  0  0  0
 26 55  1  0  0  0  0
 26 56  1  0  0  0  0
 27 15  1  0  0  0  0
 27 57  1  0  0  0  0
 27 58  1  0  0  0  0
 27 59  1  0  0  0  0
M  END
>  <DRUGBANK_ID>
DB11440

>  <COMMON_NAME>
Norgestomet

>  <CAS_NUMBER>
25092-41-5

>  <UNII>
3L33UD42X4

>  <SYNONYMS>
Norgestomet

$$$$
