230
 OpenBabel10282417163D

 56 59  0  0  0  0  0  0  0  0999 V2000
   -2.5007   -1.9165   -2.9866 N   0  0  0  0  0  0  0  0  0  0  0  0
   -5.8240   -4.7351    0.6777 N   0  0  0  0  0  0  0  0  0  0  0  0
   -3.4619   -2.7375   -2.3414 C   0  0  0  0  0  0  0  0  0  0  0  0
   -3.7200   -4.0778   -2.4865 C   0  0  0  0  0  0  0  0  0  0  0  0
   -4.4392   -4.8036   -1.4730 C   0  0  0  0  0  0  0  0  0  0  0  0
   -1.6418   -0.9631   -2.4229 C   0  0  0  0  0  0  0  0  0  0  0  0
    0.2464   -8.0585    1.4648 C   0  0  0  0  0  0  0  0  0  0  0  0
    0.3915   -5.6501    1.2910 C   0  0  0  0  0  0  0  0  0  0  0  0
   -1.0137   -8.0138    0.8772 C   0  0  0  0  0  0  0  0  0  0  0  0
   -7.0233   -4.0561    1.0717 C   0  0  0  0  0  0  0  0  0  0  0  0
   -7.5648   -5.9864    2.4747 C   0  0  0  0  0  0  0  0  0  0  0  0
   -1.6444    0.3589   -0.1251 C   0  0  0  0  0  0  0  0  0  0  0  0
   -1.1664   -0.9197   -0.8877 C   0  0  1  0  0  0  0  0  0  0  0  0
   -2.6813   -1.5251    0.8380 C   0  0  0  0  0  0  0  0  0  0  0  0
   -5.3572    0.4706   -0.3432 C   0  0  0  0  0  0  0  0  0  0  0  0
   -5.0887   -4.1537   -0.4142 C   0  0  0  0  0  0  0  0  0  0  0  0
   -5.0347   -2.7945   -0.4646 C   0  0  0  0  0  0  0  0  0  0  0  0
   -4.2597   -2.1451   -1.4286 C   0  0  0  0  0  0  0  0  0  0  0  0
   -3.2911   -4.7151   -3.5800 F   0  0  0  0  0  0  0  0  0  0  0  0
   -1.1671   -0.1146   -3.1974 O   0  0  0  0  0  0  0  0  0  0  0  0
    0.9490   -6.8782    1.6739 C   0  0  0  0  0  0  0  0  0  0  0  0
   -0.9241   -5.5659    0.8284 C   0  0  0  0  0  0  0  0  0  0  0  0
   -1.6245   -6.7680    0.6261 C   0  0  0  0  0  0  0  0  0  0  0  0
    0.9272   -9.5629    1.9514 Cl  0  0  0  0  0  0  0  0  0  0  0  0
   -1.5357   -4.2792    0.6695 N   0  0  0  0  0  0  0  0  0  0  0  0
   -5.4646   -5.9240    1.2895 C   0  0  0  0  0  0  0  0  0  0  0  0
   -7.8659   -4.7511    2.0818 C   0  0  0  0  0  0  0  0  0  0  0  0
   -6.3025   -6.5736    2.1133 C   0  0  0  0  0  0  0  0  0  0  0  0
   -7.4582   -3.0152    0.6334 O   0  0  0  0  0  0  0  0  0  0  0  0
   -3.0168   -0.0044    0.4708 C   0  0  2  0  0  0  0  0  0  0  0  0
   -1.5518   -1.9882    0.0300 N   0  0  0  0  0  0  0  0  0  0  0  0
   -3.9376    0.5143   -0.5206 O   0  0  0  0  0  0  0  0  0  0  0  0
   -0.9146   -3.2267   -0.0017 C   0  0  0  0  0  0  0  0  0  0  0  0
    0.1318   -3.3813   -0.6404 O   0  0  0  0  0  0  0  0  0  0  0  0
   -0.0672   -0.8960   -0.9441 H   0  0  0  0  0  0  0  0  0  0  0  0
   -3.2835    0.5278    1.3836 H   0  0  0  0  0  0  0  0  0  0  0  0
   -2.6736   -1.7301   -3.9730 H   0  0  0  0  0  0  0  0  0  0  0  0
   -4.5064   -5.8761   -1.5698 H   0  0  0  0  0  0  0  0  0  0  0  0
    0.9837   -4.7481    1.4087 H   0  0  0  0  0  0  0  0  0  0  0  0
   -1.5182   -8.9435    0.6172 H   0  0  0  0  0  0  0  0  0  0  0  0
   -8.2385   -6.5375    3.1222 H   0  0  0  0  0  0  0  0  0  0  0  0
   -0.9760    0.5403    0.7255 H   0  0  0  0  0  0  0  0  0  0  0  0
   -1.6585    1.2508   -0.7593 H   0  0  0  0  0  0  0  0  0  0  0  0
   -2.5631   -1.6962    1.9113 H   0  0  0  0  0  0  0  0  0  0  0  0
   -3.3786   -2.2826    0.6298 H   0  0  0  0  0  0  0  0  0  0  0  0
   -5.7389   -0.5063   -0.0833 H   0  0  0  0  0  0  0  0  0  0  0  0
   -5.6831    1.1618    0.4233 H   0  0  0  0  0  0  0  0  0  0  0  0
   -5.8489    0.7022   -1.3039 H   0  0  0  0  0  0  0  0  0  0  0  0
   -5.3479   -2.2438    0.4303 H   0  0  0  0  0  0  0  0  0  0  0  0
   -4.0668   -1.1152   -1.3905 H   0  0  0  0  0  0  0  0  0  0  0  0
    1.9311   -6.8968    2.1380 H   0  0  0  0  0  0  0  0  0  0  0  0
   -2.6237   -6.7821    0.2089 H   0  0  0  0  0  0  0  0  0  0  0  0
   -2.5416   -4.2482    0.7240 H   0  0  0  0  0  0  0  0  0  0  0  0
   -4.4703   -6.3057    1.1128 H   0  0  0  0  0  0  0  0  0  0  0  0
   -8.7593   -4.2191    2.3852 H   0  0  0  0  0  0  0  0  0  0  0  0
   -6.0392   -7.5267    2.5571 H   0  0  0  0  0  0  0  0  0  0  0  0
  1  3  1  0  0  0  0
  1  6  1  0  0  0  0
  1 37  1  0  0  0  0
  2 10  1  0  0  0  0
  2 26  1  0  0  0  0
  2 16  1  0  0  0  0
  3 18  2  0  0  0  0
  3  4  1  0  0  0  0
  4  5  2  0  0  0  0
  4 19  1  0  0  0  0
  5 16  1  0  0  0  0
  5 38  1  0  0  0  0
  6 20  2  0  0  0  0
  7 21  1  0  0  0  0
  7 24  1  0  0  0  0
  7  9  2  0  0  0  0
  8 21  2  0  0  0  0
  8 22  1  0  0  0  0
  8 39  1  0  0  0  0
  9 23  1  0  0  0  0
  9 40  1  0  0  0  0
 10 27  1  0  0  0  0
 10 29  2  0  0  0  0
 11 27  2  0  0  0  0
 11 28  1  0  0  0  0
 11 41  1  0  0  0  0
 12 13  1  0  0  0  0
 12 30  1  0  0  0  0
 12 42  1  0  0  0  0
 12 43  1  0  0  0  0
 13 31  1  0  0  0  0
 13 35  1  6  0  0  0
 13  6  1  0  0  0  0
 14 31  1  0  0  0  0
 14 30  1  0  0  0  0
 14 44  1  0  0  0  0
 14 45  1  0  0  0  0
 15 32  1  0  0  0  0
 15 46  1  0  0  0  0
 15 47  1  0  0  0  0
 15 48  1  0  0  0  0
 16 17  2  0  0  0  0
 17 18  1  0  0  0  0
 17 49  1  0  0  0  0
 18 50  1  0  0  0  0
 21 51  1  0  0  0  0
 22 25  1  0  0  0  0
 22 23  2  0  0  0  0
 23 52  1  0  0  0  0
 25 33  1  0  0  0  0
 25 53  1  0  0  0  0
 26 28  2  0  0  0  0
 26 54  1  0  0  0  0
 27 55  1  0  0  0  0
 28 56  1  0  0  0  0
 30 36  1  1  0  0  0
 30 32  1  0  0  0  0
 31 33  1  0  0  0  0
 33 34  2  0  0  0  0
M  END
>  <DRUGBANK_ID>
DB06920

>  <COMMON_NAME>
Eribaxaban

>  <CAS_NUMBER>
536748-46-6

>  <UNII>
5FCH6YDY7Z

>  <SYNONYMS>
eribaxab√°n; Eribaxaban

$$$$
