
 OpenBabel10282417153D

101102  0  0  1  0  0  0  0  0999 V2000
   -1.1194    1.4642   -3.9726 C   0  0  0  0  0  0  0  0  0  0  0  0
   -1.5538    0.0625   -4.1777 C   0  0  0  0  0  0  0  0  0  0  0  0
   -1.0559   -0.2964   -5.5361 C   0  0  0  0  0  0  0  0  0  0  0  0
   -0.9668   -0.8775   -3.1567 C   0  0  0  0  0  0  0  0  0  0  0  0
   -1.4697   -0.8169   -1.7342 C   0  0  2  0  0  0  0  0  0  0  0  0
   -1.1378   -2.1764   -1.1395 C   0  0  0  0  0  0  0  0  0  0  0  0
   -0.0630   -2.6977   -1.3032 O   0  0  0  0  0  0  0  0  0  0  0  0
   -2.1035   -2.7367   -0.3244 N   0  0  0  0  0  0  0  0  0  0  0  0
   -2.8306   -0.5033   -1.4747 N   0  0  0  0  0  0  0  0  0  0  0  0
   -3.0919    0.8383   -1.5264 C   0  0  0  0  0  0  0  0  0  0  0  0
   -3.9954    1.1308   -2.3088 O   0  0  0  0  0  0  0  0  0  0  0  0
   -2.0470    1.9717   -0.6451 C   0  0  1  0  0  0  0  0  0  0  0  0
   -1.4971    1.8751    0.7977 C   0  0  0  0  0  0  0  0  0  0  0  0
   -0.4893    0.8416    0.9162 C   0  0  0  0  0  0  0  0  0  0  0  0
    0.7474    1.1768    0.3818 C   0  0  0  0  0  0  0  0  0  0  0  0
    1.6634    0.1833    0.1785 C   0  0  0  0  0  0  0  0  0  0  0  0
    1.3560   -1.1063    0.5893 C   0  0  0  0  0  0  0  0  0  0  0  0
    0.1462   -1.4131    1.2193 C   0  0  0  0  0  0  0  0  0  0  0  0
   -0.8339   -0.4455    1.3050 C   0  0  0  0  0  0  0  0  0  0  0  0
   -1.4971    2.9739   -1.5188 N   0  0  0  0  0  0  0  0  0  0  0  0
   -2.3172    3.7163   -2.3764 C   0  0  0  0  0  0  0  0  0  0  0  0
   -1.9047    3.8446   -3.5325 O   0  0  0  0  0  0  0  0  0  0  0  0
   -3.6315    4.5270   -1.9313 C   0  0  1  0  0  0  0  0  0  0  0  0
   -5.1329    4.0373   -2.0502 C   0  0  0  0  0  0  0  0  0  0  0  0
   -5.6404    2.9977   -1.0274 C   0  0  0  0  0  0  0  0  0  0  0  0
   -6.7560    2.2370   -0.9184 C   0  0  0  0  0  0  0  0  0  0  0  0
   -6.7258    0.9958   -0.1718 C   0  0  0  0  0  0  0  0  0  0  0  0
   -5.6215    0.5126    0.5161 C   0  0  0  0  0  0  0  0  0  0  0  0
   -4.6055    1.3740    0.6013 C   0  0  0  0  0  0  0  0  0  0  0  0
   -4.7248    2.5662   -0.1266 C   0  0  0  0  0  0  0  0  0  0  0  0
   -3.3643    5.1367   -0.6467 N   0  0  0  0  0  0  0  0  0  0  0  0
   -2.7895    6.3398   -0.4758 C   0  0  0  0  0  0  0  0  0  0  0  0
   -2.1256    6.4057    0.5343 O   0  0  0  0  0  0  0  0  0  0  0  0
   -2.9519    7.4448   -1.6015 C   0  0  1  0  0  0  0  0  0  0  0  0
   -1.7422    7.5422   -2.5407 C   0  0  0  0  0  0  0  0  0  0  0  0
   -1.6174    6.3118   -3.3346 C   0  0  0  0  0  0  0  0  0  0  0  0
   -1.7689    8.6538   -3.5483 C   0  0  0  0  0  0  0  0  0  0  0  0
   -4.3068    7.7235   -2.0695 N   0  0  0  0  0  0  0  0  0  0  0  0
   -5.0845    8.8436   -1.8365 C   0  0  0  0  0  0  0  0  0  0  0  0
   -6.2219    8.8120   -2.3228 O   0  0  0  0  0  0  0  0  0  0  0  0
   -4.5922   10.1340   -1.0239 C   0  0  1  0  0  0  0  0  0  0  0  0
   -4.3093    9.9229    0.4961 C   0  0  0  0  0  0  0  0  0  0  0  0
   -3.1455    8.9990    0.8636 C   0  0  0  0  0  0  0  0  0  0  0  0
   -1.7048    9.3356    0.3288 C   0  0  0  0  0  0  0  0  0  0  0  0
   -2.9807    8.5997    2.3097 C   0  0  0  0  0  0  0  0  0  0  0  0
   -3.5404   10.8305   -1.7861 N   0  0  0  0  0  0  0  0  0  0  0  0
   -2.9002   11.9296   -1.0783 C   0  0  0  0  0  0  0  0  0  0  0  0
   -0.0874    1.6255   -3.6441 H   0  0  0  0  0  0  0  0  0  0  0  0
   -1.7944    1.7218   -3.1986 H   0  0  0  0  0  0  0  0  0  0  0  0
   -1.3529    2.1206   -4.8136 H   0  0  0  0  0  0  0  0  0  0  0  0
   -2.6485    0.0196   -4.1502 H   0  0  0  0  0  0  0  0  0  0  0  0
    0.0340   -0.1924   -5.5523 H   0  0  0  0  0  0  0  0  0  0  0  0
   -1.3490   -1.3193   -5.7519 H   0  0  0  0  0  0  0  0  0  0  0  0
   -1.4971    0.3896   -6.2628 H   0  0  0  0  0  0  0  0  0  0  0  0
   -1.1158   -1.8946   -3.5184 H   0  0  0  0  0  0  0  0  0  0  0  0
    0.1199   -0.7072   -3.0926 H   0  0  0  0  0  0  0  0  0  0  0  0
   -0.9023   -0.0104   -1.2954 H   0  0  0  0  0  0  0  0  0  0  0  0
   -2.9748   -2.2675   -0.1297 H   0  0  0  0  0  0  0  0  0  0  0  0
   -1.7313   -3.3323    0.4020 H   0  0  0  0  0  0  0  0  0  0  0  0
   -3.5115   -1.0999   -1.9482 H   0  0  0  0  0  0  0  0  0  0  0  0
   -2.5772    2.7112   -0.1405 H   0  0  0  0  0  0  0  0  0  0  0  0
   -1.0548    2.8481    1.0719 H   0  0  0  0  0  0  0  0  0  0  0  0
   -2.2378    1.7546    1.6023 H   0  0  0  0  0  0  0  0  0  0  0  0
    0.9007    2.1771   -0.0180 H   0  0  0  0  0  0  0  0  0  0  0  0
    2.5592    0.3968   -0.3863 H   0  0  0  0  0  0  0  0  0  0  0  0
    1.9728   -1.9284    0.2406 H   0  0  0  0  0  0  0  0  0  0  0  0
   -0.0928   -2.4641    1.3555 H   0  0  0  0  0  0  0  0  0  0  0  0
   -1.8877   -0.7174    1.4222 H   0  0  0  0  0  0  0  0  0  0  0  0
   -0.6399    2.6534   -1.9487 H   0  0  0  0  0  0  0  0  0  0  0  0
   -3.6528    5.3472   -2.6342 H   0  0  0  0  0  0  0  0  0  0  0  0
   -5.7330    4.9465   -1.9155 H   0  0  0  0  0  0  0  0  0  0  0  0
   -5.2311    3.7154   -3.0958 H   0  0  0  0  0  0  0  0  0  0  0  0
   -7.6339    2.5341   -1.4598 H   0  0  0  0  0  0  0  0  0  0  0  0
   -7.5704    0.3338   -0.2047 H   0  0  0  0  0  0  0  0  0  0  0  0
   -5.4478   -0.4981    0.8745 H   0  0  0  0  0  0  0  0  0  0  0  0
   -3.6662    0.9046    0.8681 H   0  0  0  0  0  0  0  0  0  0  0  0
   -3.9187    3.0807   -0.4937 H   0  0  0  0  0  0  0  0  0  0  0  0
   -3.0788    4.5738    0.1479 H   0  0  0  0  0  0  0  0  0  0  0  0
   -2.8242    8.3640   -1.1362 H   0  0  0  0  0  0  0  0  0  0  0  0
   -0.8327    7.6007   -1.9213 H   0  0  0  0  0  0  0  0  0  0  0  0
   -2.5495    6.1440   -3.8879 H   0  0  0  0  0  0  0  0  0  0  0  0
   -0.8006    6.2387   -4.0433 H   0  0  0  0  0  0  0  0  0  0  0  0
   -1.3700    5.6211   -2.5424 H   0  0  0  0  0  0  0  0  0  0  0  0
   -1.4764    9.5969   -3.0990 H   0  0  0  0  0  0  0  0  0  0  0  0
   -1.0375    8.4526   -4.3340 H   0  0  0  0  0  0  0  0  0  0  0  0
   -2.7604    8.7152   -4.0034 H   0  0  0  0  0  0  0  0  0  0  0  0
   -4.8358    6.9947   -2.5294 H   0  0  0  0  0  0  0  0  0  0  0  0
   -5.4556   10.8131   -1.0730 H   0  0  0  0  0  0  0  0  0  0  0  0
   -4.1710   10.8733    1.0149 H   0  0  0  0  0  0  0  0  0  0  0  0
   -5.2294    9.4925    0.9171 H   0  0  0  0  0  0  0  0  0  0  0  0
   -3.5989    8.0870    0.4973 H   0  0  0  0  0  0  0  0  0  0  0  0
   -1.2653   10.1726    0.8595 H   0  0  0  0  0  0  0  0  0  0  0  0
   -1.0313    8.4727    0.4151 H   0  0  0  0  0  0  0  0  0  0  0  0
   -1.5989    9.6122   -0.7238 H   0  0  0  0  0  0  0  0  0  0  0  0
   -3.8904    8.1154    2.6730 H   0  0  0  0  0  0  0  0  0  0  0  0
   -2.1767    7.8555    2.3991 H   0  0  0  0  0  0  0  0  0  0  0  0
   -2.7068    9.4634    2.9030 H   0  0  0  0  0  0  0  0  0  0  0  0
   -2.8445   10.1541   -2.0475 H   0  0  0  0  0  0  0  0  0  0  0  0
   -2.6018   11.6973   -0.0542 H   0  0  0  0  0  0  0  0  0  0  0  0
   -1.9701   12.2021   -1.5878 H   0  0  0  0  0  0  0  0  0  0  0  0
   -3.5610   12.7942   -1.0477 H   0  0  0  0  0  0  0  0  0  0  0  0
  1  2  1  0  0  0  0
  1 48  1  0  0  0  0
  1 49  1  0  0  0  0
  1 50  1  0  0  0  0
  2  3  1  0  0  0  0
  2  4  1  0  0  0  0
  2 51  1  0  0  0  0
  3 52  1  0  0  0  0
  3 53  1  0  0  0  0
  3 54  1  0  0  0  0
  4 55  1  0  0  0  0
  4 56  1  0  0  0  0
  5  9  1  0  0  0  0
  5 57  1  1  0  0  0
  5  6  1  0  0  0  0
  5  4  1  0  0  0  0
  6  7  2  0  0  0  0
  6  8  1  0  0  0  0
  8 58  1  0  0  0  0
  8 59  1  0  0  0  0
  9 10  1  0  0  0  0
  9 60  1  0  0  0  0
 10 11  2  0  0  0  0
 10 12  1  0  0  0  0
 12 13  1  0  0  0  0
 12 20  1  0  0  0  0
 12 61  1  1  0  0  0
 13 14  1  0  0  0  0
 13 62  1  0  0  0  0
 13 63  1  0  0  0  0
 14 15  2  0  0  0  0
 14 19  1  0  0  0  0
 15 16  1  0  0  0  0
 15 64  1  0  0  0  0
 16 17  2  0  0  0  0
 16 65  1  0  0  0  0
 17 18  1  0  0  0  0
 17 66  1  0  0  0  0
 18 19  2  0  0  0  0
 18 67  1  0  0  0  0
 19 68  1  0  0  0  0
 20 21  1  0  0  0  0
 20 69  1  0  0  0  0
 21 22  2  0  0  0  0
 21 23  1  0  0  0  0
 23 24  1  0  0  0  0
 23 31  1  0  0  0  0
 23 70  1  6  0  0  0
 24 25  1  0  0  0  0
 24 71  1  0  0  0  0
 24 72  1  0  0  0  0
 25 26  2  0  0  0  0
 25 30  1  0  0  0  0
 26 27  1  0  0  0  0
 26 73  1  0  0  0  0
 27 28  2  0  0  0  0
 27 74  1  0  0  0  0
 28 29  1  0  0  0  0
 28 75  1  0  0  0  0
 29 30  2  0  0  0  0
 29 76  1  0  0  0  0
 30 77  1  0  0  0  0
 31 32  1  0  0  0  0
 31 78  1  0  0  0  0
 32 33  2  0  0  0  0
 32 34  1  0  0  0  0
 34 35  1  0  0  0  0
 34 38  1  0  0  0  0
 34 79  1  1  0  0  0
 35 36  1  0  0  0  0
 35 37  1  0  0  0  0
 35 80  1  0  0  0  0
 36 81  1  0  0  0  0
 36 82  1  0  0  0  0
 36 83  1  0  0  0  0
 37 84  1  0  0  0  0
 37 85  1  0  0  0  0
 37 86  1  0  0  0  0
 38 39  1  0  0  0  0
 38 87  1  0  0  0  0
 39 40  2  0  0  0  0
 39 41  1  0  0  0  0
 41 42  1  0  0  0  0
 41 46  1  0  0  0  0
 41 88  1  6  0  0  0
 42 43  1  0  0  0  0
 42 89  1  0  0  0  0
 42 90  1  0  0  0  0
 43 44  1  0  0  0  0
 43 45  1  0  0  0  0
 43 91  1  0  0  0  0
 44 92  1  0  0  0  0
 44 93  1  0  0  0  0
 44 94  1  0  0  0  0
 45 95  1  0  0  0  0
 45 96  1  0  0  0  0
 45 97  1  0  0  0  0
 46 47  1  0  0  0  0
 46 98  1  0  0  0  0
 47 99  1  0  0  0  0
 47100  1  0  0  0  0
 47101  1  0  0  0  0
M  END
>  <DRUGBANK_ID>
DB05832

>  <COMMON_NAME>
PPI-1019

>  <CAS_NUMBER>
290828-45-4

>  <UNII>
2F25P9Y22O

$$$$
