
 OpenBabel10282417223D

107113  0  0  1  0  0  0  0  0999 V2000
    0.9212    0.1061   -0.0056 C   0  0  0  0  0  0  0  0  0  0  0  0
    0.4360    1.4221    0.2748 O   0  0  0  0  0  0  0  0  0  0  0  0
    0.7906    1.9062    1.4760 C   0  0  0  0  0  0  0  0  0  0  0  0
    1.4924    1.2965    2.3127 O   0  0  0  0  0  0  0  0  0  0  0  0
    0.2992    3.1267    1.7756 N   0  0  0  0  0  0  0  0  0  0  0  0
   -0.4629    4.0409    0.9187 C   0  0  1  0  0  0  0  0  0  0  0  0
   -1.8952    4.2823    1.5023 C   0  0  0  0  0  0  0  0  0  0  0  0
   -1.8853    5.0679    2.7996 C   0  0  0  0  0  0  0  0  0  0  0  0
   -2.7864    5.0418    0.5150 C   0  0  0  0  0  0  0  0  0  0  0  0
    0.2499    5.4109    0.5566 C   0  0  0  0  0  0  0  0  0  0  0  0
    0.2612    5.7720   -0.6272 O   0  0  0  0  0  0  0  0  0  0  0  0
    0.5563    6.3087    1.5739 N   0  0  0  0  0  0  0  0  0  0  0  0
    1.1293    6.0299    2.8757 C   0  0  0  0  0  0  0  0  0  0  0  0
    0.4257    6.9825    3.8267 C   0  0  0  0  0  0  0  0  0  0  0  0
    0.2429    8.2312    2.9773 C   0  0  0  0  0  0  0  0  0  0  0  0
    0.1952    7.7366    1.5028 C   0  0  1  0  0  0  0  0  0  0  0  0
    1.1687    8.5233    0.6923 C   0  0  0  0  0  0  0  0  0  0  0  0
    2.4702    8.5890    0.8965 N   0  0  0  0  0  0  0  0  0  0  0  0
    2.9468    9.4417   -0.0523 C   0  0  0  0  0  0  0  0  0  0  0  0
    1.9254    9.9702   -0.8078 C   0  0  0  0  0  0  0  0  0  0  0  0
    0.7897    9.3645   -0.3283 N   0  0  0  0  0  0  0  0  0  0  0  0
    1.9732   10.8101   -1.9799 C   0  0  0  0  0  0  0  0  0  0  0  0
    2.7388   10.3715   -3.0699 C   0  0  0  0  0  0  0  0  0  0  0  0
    2.8051   11.1058   -4.2399 C   0  0  0  0  0  0  0  0  0  0  0  0
    2.0760   12.2723   -4.3529 C   0  0  0  0  0  0  0  0  0  0  0  0
    1.2841   12.7163   -3.2525 C   0  0  0  0  0  0  0  0  0  0  0  0
    1.2820   12.0170   -2.0462 C   0  0  0  0  0  0  0  0  0  0  0  0
    2.2593   13.0956   -5.5362 C   0  0  0  0  0  0  0  0  0  0  0  0
    1.6425   12.9357   -6.7428 C   0  0  0  0  0  0  0  0  0  0  0  0
    1.4749   14.0900   -7.5874 C   0  0  0  0  0  0  0  0  0  0  0  0
    1.7016   15.4629   -7.1364 C   0  0  0  0  0  0  0  0  0  0  0  0
    1.8439   16.7593   -8.3186 C   0  0  0  0  0  0  0  0  0  0  0  0
    0.9989   17.2418   -9.3411 C   0  0  0  0  0  0  0  0  0  0  0  0
    1.6211   18.0862  -10.3230 N   0  0  0  0  0  0  0  0  0  0  0  0
    2.9182   17.9848  -10.1327 C   0  0  0  0  0  0  0  0  0  0  0  0
    3.0572   17.4375   -8.8579 N   0  0  0  0  0  0  0  0  0  0  0  0
    4.1456   18.2831  -11.0711 C   0  0  2  0  0  0  0  0  0  0  0  0
    4.1010   19.7984  -11.2394 C   0  0  0  0  0  0  0  0  0  0  0  0
    4.9029   20.1396  -12.4710 C   0  0  0  0  0  0  0  0  0  0  0  0
    4.7819   18.8984  -13.3486 C   0  0  0  0  0  0  0  0  0  0  0  0
    4.1964   17.8264  -12.4975 N   0  0  0  0  0  0  0  0  0  0  0  0
    3.9897   16.5790  -13.0848 C   0  0  0  0  0  0  0  0  0  0  0  0
    4.0688   16.4562  -14.3186 O   0  0  0  0  0  0  0  0  0  0  0  0
    3.5524   15.3154  -12.2539 C   0  0  1  0  0  0  0  0  0  0  0  0
    4.6399   14.8981  -11.2724 N   0  0  0  0  0  0  0  0  0  0  0  0
    4.9195   14.9150   -9.9397 C   0  0  0  0  0  0  0  0  0  0  0  0
    6.0834   14.6402   -9.5412 O   0  0  0  0  0  0  0  0  0  0  0  0
    3.9949   15.2704   -9.0525 O   0  0  0  0  0  0  0  0  0  0  0  0
    4.4500   15.5025   -7.6821 C   0  0  0  0  0  0  0  0  0  0  0  0
    2.1544   15.5012  -11.7062 C   0  0  0  0  0  0  0  0  0  0  0  0
    1.0836   16.1836  -12.5670 C   0  0  0  0  0  0  0  0  0  0  0  0
    1.5689   14.3750  -10.9019 C   0  0  0  0  0  0  0  0  0  0  0  0
    2.2602   15.3826   -5.7914 C   0  0  0  0  0  0  0  0  0  0  0  0
    2.9626   14.2413   -5.4744 C   0  0  0  0  0  0  0  0  0  0  0  0
    4.0634   14.4684   -4.6847 O   0  0  0  0  0  0  0  0  0  0  0  0
    3.3264   15.2335   -3.7765 C   0  0  0  0  0  0  0  0  0  0  0  0
    2.4299   16.1176   -4.6108 O   0  0  0  0  0  0  0  0  0  0  0  0
    0.5554   -0.1855   -0.9934 H   0  0  0  0  0  0  0  0  0  0  0  0
    0.5418   -0.6160    0.7264 H   0  0  0  0  0  0  0  0  0  0  0  0
    2.0160    0.0942   -0.0251 H   0  0  0  0  0  0  0  0  0  0  0  0
    0.5268    3.3897    2.7165 H   0  0  0  0  0  0  0  0  0  0  0  0
   -0.6084    3.5222   -0.0384 H   0  0  0  0  0  0  0  0  0  0  0  0
   -2.3625    3.3143    1.7231 H   0  0  0  0  0  0  0  0  0  0  0  0
   -1.5926    6.0861    2.5637 H   0  0  0  0  0  0  0  0  0  0  0  0
   -2.8642    5.1851    3.2659 H   0  0  0  0  0  0  0  0  0  0  0  0
   -1.2115    4.6168    3.5333 H   0  0  0  0  0  0  0  0  0  0  0  0
   -2.9490    4.4572   -0.3925 H   0  0  0  0  0  0  0  0  0  0  0  0
   -3.7608    5.2628    0.9654 H   0  0  0  0  0  0  0  0  0  0  0  0
   -2.3449    6.0033    0.2303 H   0  0  0  0  0  0  0  0  0  0  0  0
    2.1943    6.2733    2.8141 H   0  0  0  0  0  0  0  0  0  0  0  0
    1.0486    5.0041    3.1947 H   0  0  0  0  0  0  0  0  0  0  0  0
   -0.5521    6.6219    4.1551 H   0  0  0  0  0  0  0  0  0  0  0  0
    0.9857    7.1393    4.7496 H   0  0  0  0  0  0  0  0  0  0  0  0
   -0.6664    8.7764    3.2551 H   0  0  0  0  0  0  0  0  0  0  0  0
    1.0904    8.8978    3.1698 H   0  0  0  0  0  0  0  0  0  0  0  0
   -0.8200    7.8283    1.0936 H   0  0  0  0  0  0  0  0  0  0  0  0
    4.0052    9.6298   -0.1648 H   0  0  0  0  0  0  0  0  0  0  0  0
   -0.1448    9.4785   -0.6999 H   0  0  0  0  0  0  0  0  0  0  0  0
    3.3010    9.4448   -3.0151 H   0  0  0  0  0  0  0  0  0  0  0  0
    3.4375   10.7903   -5.0621 H   0  0  0  0  0  0  0  0  0  0  0  0
    0.7315   13.6594   -3.3018 H   0  0  0  0  0  0  0  0  0  0  0  0
    0.7778   12.4264   -1.1711 H   0  0  0  0  0  0  0  0  0  0  0  0
    1.3888   11.9170   -7.0338 H   0  0  0  0  0  0  0  0  0  0  0  0
    1.2342   13.7813   -8.5915 H   0  0  0  0  0  0  0  0  0  0  0  0
   -0.0061   16.9225   -9.5725 H   0  0  0  0  0  0  0  0  0  0  0  0
    3.9932   17.1252   -8.7299 H   0  0  0  0  0  0  0  0  0  0  0  0
    5.1203   17.9751  -10.6516 H   0  0  0  0  0  0  0  0  0  0  0  0
    3.0617   20.0886  -11.4319 H   0  0  0  0  0  0  0  0  0  0  0  0
    4.4403   20.3084  -10.3360 H   0  0  0  0  0  0  0  0  0  0  0  0
    4.4941   21.0360  -12.9536 H   0  0  0  0  0  0  0  0  0  0  0  0
    5.9436   20.3562  -12.2056 H   0  0  0  0  0  0  0  0  0  0  0  0
    4.1541   19.0787  -14.2301 H   0  0  0  0  0  0  0  0  0  0  0  0
    5.7814   18.6197  -13.7198 H   0  0  0  0  0  0  0  0  0  0  0  0
    3.4897   14.4788  -12.9683 H   0  0  0  0  0  0  0  0  0  0  0  0
    5.4812   14.6349  -11.7631 H   0  0  0  0  0  0  0  0  0  0  0  0
    4.4856   14.5648   -7.1642 H   0  0  0  0  0  0  0  0  0  0  0  0
    5.2778   16.1980   -7.5701 H   0  0  0  0  0  0  0  0  0  0  0  0
    3.7535   16.1626   -7.1572 H   0  0  0  0  0  0  0  0  0  0  0  0
    2.4122   16.1775  -10.9542 H   0  0  0  0  0  0  0  0  0  0  0  0
    0.6315   15.4798  -13.2648 H   0  0  0  0  0  0  0  0  0  0  0  0
    0.2674   16.5688  -11.9393 H   0  0  0  0  0  0  0  0  0  0  0  0
    1.4568   17.0543  -13.1157 H   0  0  0  0  0  0  0  0  0  0  0  0
    2.3294   13.9975  -10.2213 H   0  0  0  0  0  0  0  0  0  0  0  0
    0.7317   14.7570  -10.3025 H   0  0  0  0  0  0  0  0  0  0  0  0
    1.2050   13.5467  -11.4968 H   0  0  0  0  0  0  0  0  0  0  0  0
    2.9063   14.4163   -3.1635 H   0  0  0  0  0  0  0  0  0  0  0  0
    3.8988   15.7546   -2.9970 H   0  0  0  0  0  0  0  0  0  0  0  0
  1  2  1  0  0  0  0
  1 58  1  0  0  0  0
  1 59  1  0  0  0  0
  1 60  1  0  0  0  0
  2  3  1  0  0  0  0
  3  4  2  0  0  0  0
  3  5  1  0  0  0  0
  5 61  1  0  0  0  0
  6  5  1  0  0  0  0
  6  7  1  0  0  0  0
  6 10  1  0  0  0  0
  6 62  1  6  0  0  0
  7  8  1  0  0  0  0
  7  9  1  0  0  0  0
  7 63  1  0  0  0  0
  8 64  1  0  0  0  0
  8 65  1  0  0  0  0
  8 66  1  0  0  0  0
  9 67  1  0  0  0  0
  9 68  1  0  0  0  0
  9 69  1  0  0  0  0
 10 11  2  0  0  0  0
 10 12  1  0  0  0  0
 12 13  1  0  0  0  0
 13 14  1  0  0  0  0
 13 70  1  0  0  0  0
 13 71  1  0  0  0  0
 14 15  1  0  0  0  0
 14 72  1  0  0  0  0
 14 73  1  0  0  0  0
 15 74  1  0  0  0  0
 15 75  1  0  0  0  0
 16 15  1  0  0  0  0
 16 12  1  0  0  0  0
 16 76  1  6  0  0  0
 16 17  1  0  0  0  0
 17 18  2  0  0  0  0
 17 21  1  0  0  0  0
 18 19  1  0  0  0  0
 19 20  2  0  0  0  0
 19 77  1  0  0  0  0
 20 21  1  0  0  0  0
 20 22  1  0  0  0  0
 21 78  1  0  0  0  0
 22 23  2  0  0  0  0
 22 27  1  0  0  0  0
 23 24  1  0  0  0  0
 23 79  1  0  0  0  0
 24 25  2  0  0  0  0
 24 80  1  0  0  0  0
 25 26  1  0  0  0  0
 25 28  1  0  0  0  0
 26 27  2  0  0  0  0
 26 81  1  0  0  0  0
 27 82  1  0  0  0  0
 28 29  2  0  0  0  0
 28 54  1  0  0  0  0
 29 30  1  0  0  0  0
 29 83  1  0  0  0  0
 30 31  2  0  0  0  0
 30 84  1  0  0  0  0
 31 32  1  0  0  0  0
 31 53  1  0  0  0  0
 32 33  2  0  0  0  0
 32 36  1  0  0  0  0
 33 34  1  0  0  0  0
 33 85  1  0  0  0  0
 34 35  2  0  0  0  0
 35 36  1  0  0  0  0
 36 86  1  0  0  0  0
 37 35  1  0  0  0  0
 37 38  1  0  0  0  0
 37 41  1  0  0  0  0
 37 87  1  1  0  0  0
 38 39  1  0  0  0  0
 38 88  1  0  0  0  0
 38 89  1  0  0  0  0
 39 40  1  0  0  0  0
 39 90  1  0  0  0  0
 39 91  1  0  0  0  0
 40 41  1  0  0  0  0
 40 92  1  0  0  0  0
 40 93  1  0  0  0  0
 41 42  1  0  0  0  0
 42 43  2  0  0  0  0
 44 42  1  0  0  0  0
 44 45  1  0  0  0  0
 44 50  1  0  0  0  0
 44 94  1  6  0  0  0
 45 46  1  0  0  0  0
 45 95  1  0  0  0  0
 46 47  2  0  0  0  0
 46 48  1  0  0  0  0
 48 49  1  0  0  0  0
 49 96  1  0  0  0  0
 49 97  1  0  0  0  0
 49 98  1  0  0  0  0
 50 51  1  0  0  0  0
 50 52  1  0  0  0  0
 50 99  1  0  0  0  0
 51100  1  0  0  0  0
 51101  1  0  0  0  0
 51102  1  0  0  0  0
 52103  1  0  0  0  0
 52104  1  0  0  0  0
 52105  1  0  0  0  0
 53 54  2  0  0  0  0
 53 57  1  0  0  0  0
 54 55  1  0  0  0  0
 55 56  1  0  0  0  0
 56 57  1  0  0  0  0
 56106  1  0  0  0  0
 56107  1  0  0  0  0
M  END
>  <DRUGBANK_ID>
DB15315

>  <COMMON_NAME>
Coblopasvir

>  <CAS_NUMBER>
1312608-46-0

>  <UNII>
67XWL3R65W

>  <SYNONYMS>
Coblopasvir

$$$$
