MUV
 OpenBabel10282417173D

 64 66  0  0  0  0  0  0  0  0999 V2000
    1.7424    1.2510   -0.6455 O   0  0  0  0  0  0  0  0  0  0  0  0
    2.7713    0.6511   -0.3605 C   0  0  0  0  0  0  0  0  0  0  0  0
    3.2245    0.5028    0.9260 N   0  0  0  0  0  0  0  0  0  0  0  0
    4.6189    0.4511    1.2733 C   0  0  0  0  0  0  0  0  0  0  0  0
    3.4027   -0.0291   -1.4986 C   0  0  0  0  0  0  0  0  0  0  0  0
    2.6553   -1.2632   -1.8494 C   0  0  0  0  0  0  0  0  0  0  0  0
    1.1291   -1.5625   -1.8167 C   0  0  0  0  0  0  0  0  0  0  0  0
    0.6303   -2.1158   -2.8125 O   0  0  0  0  0  0  0  0  0  0  0  0
    0.3126   -1.5351   -0.7097 N   0  0  0  0  0  0  0  0  0  0  0  0
    0.5142   -1.1166    0.7051 C   0  0  1  0  0  0  0  0  0  0  0  0
   -0.1035    0.2529    1.0151 C   0  0  0  0  0  0  0  0  0  0  0  0
   -1.5764    0.2624    0.9068 C   0  0  0  0  0  0  0  0  0  0  0  0
   -2.3050   -0.9194    0.8020 C   0  0  0  0  0  0  0  0  0  0  0  0
   -3.6565   -0.9198    0.9631 C   0  0  0  0  0  0  0  0  0  0  0  0
   -4.2931    0.2990    1.1043 C   0  0  0  0  0  0  0  0  0  0  0  0
   -3.5815    1.5053    1.0720 C   0  0  0  0  0  0  0  0  0  0  0  0
   -2.2121    1.4958    0.9324 C   0  0  0  0  0  0  0  0  0  0  0  0
    0.2652   -2.1184    1.9141 C   0  0  2  0  0  0  0  0  0  0  0  0
    0.8243   -1.5519    3.1155 O   0  0  0  0  0  0  0  0  0  0  0  0
    0.7557   -3.5597    1.7360 C   0  0  0  0  0  0  0  0  0  0  0  0
    2.2591   -3.7360    1.7545 N   0  0  0  0  0  0  0  0  0  0  0  0
    2.9723   -3.1732    0.6022 C   0  0  0  0  0  0  0  0  0  0  0  0
    2.4451   -3.7712   -0.7029 C   0  0  0  0  0  0  0  0  0  0  0  0
    2.6172   -5.0934   -1.4141 C   0  0  0  0  0  0  0  0  0  0  0  0
    3.3662   -3.9448   -1.9236 C   0  0  0  0  0  0  0  0  0  0  0  0
    2.7502   -5.3492    1.6760 S   0  0  0  0  0  0  0  0  0  0  0  0
    1.8347   -6.0314    0.7471 O   0  0  0  0  0  0  0  0  0  0  0  0
    4.1696   -5.3973    1.5529 O   0  0  0  0  0  0  0  0  0  0  0  0
    2.3785   -6.2731    3.0502 C   0  0  0  0  0  0  0  0  0  0  0  0
    1.7357   -5.8311    4.1544 O   0  0  0  0  0  0  0  0  0  0  0  0
    1.4950   -6.9397    4.8888 C   0  0  0  0  0  0  0  0  0  0  0  0
    1.9720   -8.0681    4.2624 C   0  0  0  0  0  0  0  0  0  0  0  0
    2.5140   -7.6423    3.0598 C   0  0  0  0  0  0  0  0  0  0  0  0
    1.5544   -0.9506    0.7830 H   0  0  0  0  0  0  0  0  0  0  0  0
   -0.7926   -2.2194    2.1692 H   0  0  0  0  0  0  0  0  0  0  0  0
    2.6114    0.8791    1.6475 H   0  0  0  0  0  0  0  0  0  0  0  0
    4.9277    1.4809    1.4643 H   0  0  0  0  0  0  0  0  0  0  0  0
    4.7659   -0.1603    2.1668 H   0  0  0  0  0  0  0  0  0  0  0  0
    5.2081    0.0491    0.4560 H   0  0  0  0  0  0  0  0  0  0  0  0
    3.3320    0.6292   -2.3544 H   0  0  0  0  0  0  0  0  0  0  0  0
    4.4485   -0.2878   -1.3181 H   0  0  0  0  0  0  0  0  0  0  0  0
    3.0253   -1.5990   -2.8260 H   0  0  0  0  0  0  0  0  0  0  0  0
    3.1703   -1.8921   -1.1618 H   0  0  0  0  0  0  0  0  0  0  0  0
   -0.6343   -1.7672   -1.0050 H   0  0  0  0  0  0  0  0  0  0  0  0
    0.2506    0.6064    1.9935 H   0  0  0  0  0  0  0  0  0  0  0  0
    0.1442    1.0564    0.3417 H   0  0  0  0  0  0  0  0  0  0  0  0
   -1.8523   -1.8837    0.6217 H   0  0  0  0  0  0  0  0  0  0  0  0
   -4.1587   -1.8785    0.9927 H   0  0  0  0  0  0  0  0  0  0  0  0
   -5.3653    0.3030    1.2184 H   0  0  0  0  0  0  0  0  0  0  0  0
   -4.0869    2.4545    1.1883 H   0  0  0  0  0  0  0  0  0  0  0  0
   -1.6365    2.4198    0.8522 H   0  0  0  0  0  0  0  0  0  0  0  0
    1.7879   -1.6615    3.0525 H   0  0  0  0  0  0  0  0  0  0  0  0
    0.3531   -4.1379    2.5781 H   0  0  0  0  0  0  0  0  0  0  0  0
    0.2917   -3.9757    0.8383 H   0  0  0  0  0  0  0  0  0  0  0  0
    2.8532   -2.1034    0.7028 H   0  0  0  0  0  0  0  0  0  0  0  0
    4.0634   -3.2118    0.7010 H   0  0  0  0  0  0  0  0  0  0  0  0
    1.3980   -3.5343   -0.7759 H   0  0  0  0  0  0  0  0  0  0  0  0
    3.2205   -5.9047   -1.0586 H   0  0  0  0  0  0  0  0  0  0  0  0
    1.6865   -5.3818   -1.9065 H   0  0  0  0  0  0  0  0  0  0  0  0
    3.0721   -3.6642   -2.9284 H   0  0  0  0  0  0  0  0  0  0  0  0
    4.4250   -3.8411   -1.7210 H   0  0  0  0  0  0  0  0  0  0  0  0
    0.9784   -6.7550    5.8139 H   0  0  0  0  0  0  0  0  0  0  0  0
    1.9211   -9.0865    4.5970 H   0  0  0  0  0  0  0  0  0  0  0  0
    2.9163   -8.1864    2.2087 H   0  0  0  0  0  0  0  0  0  0  0  0
  1  2  2  0  0  0  0
  2  3  1  0  0  0  0
  2  5  1  0  0  0  0
  3  4  1  0  0  0  0
  3 36  1  0  0  0  0
  4 37  1  0  0  0  0
  4 38  1  0  0  0  0
  4 39  1  0  0  0  0
  5  6  1  0  0  0  0
  5 40  1  0  0  0  0
  5 41  1  0  0  0  0
  6  7  1  0  0  0  0
  6 42  1  0  0  0  0
  6 43  1  0  0  0  0
  7  8  2  0  0  0  0
  7  9  1  0  0  0  0
  9 44  1  0  0  0  0
 10  9  1  0  0  0  0
 10 11  1  0  0  0  0
 10 18  1  0  0  0  0
 10 34  1  1  0  0  0
 11 12  1  0  0  0  0
 11 45  1  0  0  0  0
 11 46  1  0  0  0  0
 12 13  2  0  0  0  0
 12 17  1  0  0  0  0
 13 14  1  0  0  0  0
 13 47  1  0  0  0  0
 14 15  2  0  0  0  0
 14 48  1  0  0  0  0
 15 16  1  0  0  0  0
 15 49  1  0  0  0  0
 16 17  2  0  0  0  0
 16 50  1  0  0  0  0
 17 51  1  0  0  0  0
 18 20  1  0  0  0  0
 18 19  1  0  0  0  0
 18 35  1  1  0  0  0
 19 52  1  0  0  0  0
 20 21  1  0  0  0  0
 20 53  1  0  0  0  0
 20 54  1  0  0  0  0
 21 26  1  0  0  0  0
 21 22  1  0  0  0  0
 22 23  1  0  0  0  0
 22 55  1  0  0  0  0
 22 56  1  0  0  0  0
 23 24  1  0  0  0  0
 23 25  1  0  0  0  0
 23 57  1  0  0  0  0
 24 25  1  0  0  0  0
 24 58  1  0  0  0  0
 24 59  1  0  0  0  0
 25 60  1  0  0  0  0
 25 61  1  0  0  0  0
 26 27  2  0  0  0  0
 26 28  2  0  0  0  0
 26 29  1  0  0  0  0
 29 30  1  0  0  0  0
 29 33  2  0  0  0  0
 30 31  1  0  0  0  0
 31 32  2  0  0  0  0
 31 62  1  0  0  0  0
 32 33  1  0  0  0  0
 32 63  1  0  0  0  0
 33 64  1  0  0  0  0
M  END
>  <DRUGBANK_ID>
DB08223

>  <COMMON_NAME>
N-{(1S,2R)-1-BENZYL-3-[(CYCLOPROPYLMETHYL)(2-FURYLSULFONYL)AMINO]-2-HYDROXYPROPYL}-N'-METHYLSUCCINAMIDE

$$$$
