
 OpenBabel10282417113D

 68 73  0  0  0  0  0  0  0  0999 V2000
    0.1189    3.8725   -7.7284 C   0  0  0  0  0  0  0  0  0  0  0  0
   -0.9894    7.6662   -3.6268 C   0  0  0  0  0  0  0  0  0  0  0  0
   -0.9420    2.0193   -5.5183 C   0  0  0  0  0  0  0  0  0  0  0  0
    5.1704    3.2642   -7.9221 C   0  0  0  0  0  0  0  0  0  0  0  0
   -1.2080    2.4662   -1.7866 C   0  0  0  0  0  0  0  0  0  0  0  0
    0.9611    2.4324   -7.6819 C   0  0  0  0  0  0  0  0  0  0  0  0
    3.9724    7.6364   -6.3307 C   0  0  0  0  0  0  0  0  0  0  0  0
    2.7810    8.4479   -6.2238 C   0  0  0  0  0  0  0  0  0  0  0  0
    1.4067    1.5871   -6.3337 C   0  0  0  0  0  0  0  0  0  0  0  0
    3.0142    3.8246   -2.8837 C   0  0  0  0  0  0  0  0  0  0  0  0
    1.6953    3.6828   -3.1032 C   0  0  0  0  0  0  0  0  0  0  0  0
    2.0721    4.3882   -6.0948 C   0  0  0  0  0  0  0  0  0  0  0  0
    2.9756    4.5248   -7.2803 C   0  0  0  0  0  0  0  0  0  0  0  0
    5.0859    5.3138   -5.9926 C   0  0  0  0  0  0  0  0  0  0  0  0
    2.7934    1.9206   -3.8733 C   0  0  0  0  0  0  0  0  0  0  0  0
   -0.6487    8.9355   -4.3337 C   0  0  0  0  0  0  0  0  0  0  0  0
    4.1805    6.4910   -5.5247 C   0  0  0  0  0  0  0  0  0  0  0  0
    1.6954    8.0672   -5.4199 C   0  0  0  0  0  0  0  0  0  0  0  0
    0.9666    1.9218   -3.7116 C   0  0  2  0  0  0  0  0  0  0  0  0
    4.5901    3.7492   -5.5513 C   0  0  2  0  0  0  0  0  0  0  0  0
    3.0374    6.1452   -4.8149 C   0  0  0  0  0  0  0  0  0  0  0  0
    1.8115    6.8490   -4.8284 C   0  0  0  0  0  0  0  0  0  0  0  0
    1.1146    5.1484   -3.6607 C   0  0  2  0  0  0  0  0  0  0  0  0
    0.4214    1.4689   -5.1312 C   0  0  1  0  0  0  0  0  0  0  0  0
    3.4596    3.5371   -4.2729 C   0  0  1  0  0  0  0  0  0  0  0  0
    2.5787    4.7634   -4.7210 C   0  0  2  0  0  0  0  0  0  0  0  0
    0.3187    3.5593   -3.1487 C   0  0  1  0  0  0  0  0  0  0  0  0
    4.0711    3.5087   -6.9694 N   0  0  0  0  0  0  0  0  0  0  0  0
   -1.3187    9.9500   -4.1840 O   0  0  0  0  0  0  0  0  0  0  0  0
    0.3075    0.0517   -4.9490 O   0  0  0  0  0  0  0  0  0  0  0  0
   -0.2181    3.5042   -1.8421 O   0  0  0  0  0  0  0  0  0  0  0  0
    0.5259    8.9050   -5.2154 O   0  0  0  0  0  0  0  0  0  0  0  0
    0.6601    5.9855   -4.6888 O   0  0  0  0  0  0  0  0  0  0  0  0
    0.7972    1.2092   -2.9009 H   0  0  0  0  0  0  0  0  0  0  0  0
    5.2204    2.8494   -5.4548 H   0  0  0  0  0  0  0  0  0  0  0  0
    1.3749    5.7348   -2.7131 H   0  0  0  0  0  0  0  0  0  0  0  0
   -0.6757    3.9517   -6.9821 H   0  0  0  0  0  0  0  0  0  0  0  0
   -0.2610    4.1056   -8.7152 H   0  0  0  0  0  0  0  0  0  0  0  0
    0.6403    4.8345   -7.5420 H   0  0  0  0  0  0  0  0  0  0  0  0
   -0.7813    7.4790   -2.5698 H   0  0  0  0  0  0  0  0  0  0  0  0
   -1.6788    6.9633   -4.1096 H   0  0  0  0  0  0  0  0  0  0  0  0
   -0.0655    7.3063   -3.8657 H   0  0  0  0  0  0  0  0  0  0  0  0
   -1.7607    1.4273   -5.1287 H   0  0  0  0  0  0  0  0  0  0  0  0
   -1.1117    3.0721   -5.2615 H   0  0  0  0  0  0  0  0  0  0  0  0
   -1.0605    1.9424   -6.6025 H   0  0  0  0  0  0  0  0  0  0  0  0
    4.7518    2.7071   -8.7540 H   0  0  0  0  0  0  0  0  0  0  0  0
    5.7054    4.1346   -8.3277 H   0  0  0  0  0  0  0  0  0  0  0  0
    5.9728    2.6425   -7.4779 H   0  0  0  0  0  0  0  0  0  0  0  0
   -1.9291    2.5678   -2.6060 H   0  0  0  0  0  0  0  0  0  0  0  0
   -0.7544    1.4742   -1.8474 H   0  0  0  0  0  0  0  0  0  0  0  0
   -1.7238    2.4999   -0.8263 H   0  0  0  0  0  0  0  0  0  0  0  0
    0.3623    1.7130   -8.2328 H   0  0  0  0  0  0  0  0  0  0  0  0
    1.8733    2.5679   -8.2848 H   0  0  0  0  0  0  0  0  0  0  0  0
    4.6143    7.7840   -7.2066 H   0  0  0  0  0  0  0  0  0  0  0  0
    2.7077    9.3359   -6.8413 H   0  0  0  0  0  0  0  0  0  0  0  0
    1.9322    0.6549   -6.6041 H   0  0  0  0  0  0  0  0  0  0  0  0
    2.3288    1.9196   -5.8981 H   0  0  0  0  0  0  0  0  0  0  0  0
    3.5268    4.2611   -2.0687 H   0  0  0  0  0  0  0  0  0  0  0  0
    1.3564    3.4872   -4.2388 H   0  0  0  0  0  0  0  0  0  0  0  0
    2.2807    3.3939   -6.1752 H   0  0  0  0  0  0  0  0  0  0  0  0
    1.0478    4.0840   -5.9584 H   0  0  0  0  0  0  0  0  0  0  0  0
    3.0170    5.5485   -6.9872 H   0  0  0  0  0  0  0  0  0  0  0  0
    2.9469    5.0247   -8.2631 H   0  0  0  0  0  0  0  0  0  0  0  0
    4.8760    5.4519   -7.0943 H   0  0  0  0  0  0  0  0  0  0  0  0
    6.1421    5.4602   -6.2292 H   0  0  0  0  0  0  0  0  0  0  0  0
    3.1191    1.6879   -2.8237 H   0  0  0  0  0  0  0  0  0  0  0  0
    3.1458    1.0513   -4.4146 H   0  0  0  0  0  0  0  0  0  0  0  0
    1.1935   -0.2436   -4.6619 H   0  0  0  0  0  0  0  0  0  0  0  0
  1 37  1  0  0  0  0
  1 38  1  0  0  0  0
  1 39  1  0  0  0  0
  2 40  1  0  0  0  0
  2 41  1  0  0  0  0
  2 42  1  0  0  0  0
  3 43  1  0  0  0  0
  3 44  1  0  0  0  0
  3 45  1  0  0  0  0
  4 46  1  0  0  0  0
  4 47  1  0  0  0  0
  4 48  1  0  0  0  0
  5 49  1  0  0  0  0
  5 50  1  0  0  0  0
  5 51  1  0  0  0  0
  6  1  1  0  0  0  0
  6 52  1  0  0  0  0
  6 53  1  0  0  0  0
  7 54  1  0  0  0  0
  8  7  2  0  0  0  0
  8 55  1  0  0  0  0
  9  6  1  0  0  0  0
  9 56  1  0  0  0  0
  9 57  1  0  0  0  0
 10 58  1  0  0  0  0
 11 10  2  0  0  0  0
 11 59  1  0  0  0  0
 12 60  1  0  0  0  0
 12 61  1  0  0  0  0
 13 12  1  0  0  0  0
 13 62  1  0  0  0  0
 13 63  1  0  0  0  0
 14 64  1  0  0  0  0
 14 65  1  0  0  0  0
 15 66  1  0  0  0  0
 15 67  1  0  0  0  0
 16  2  1  0  0  0  0
 17  7  1  0  0  0  0
 17 14  1  0  0  0  0
 18  8  1  0  0  0  0
 19 15  1  0  0  0  0
 19 34  1  1  0  0  0
 19 24  1  0  0  0  0
 20 14  1  0  0  0  0
 20 35  1  6  0  0  0
 21 17  2  0  0  0  0
 22 18  2  0  0  0  0
 22 21  1  0  0  0  0
 23 36  1  1  0  0  0
 24 30  1  1  0  0  0
 24  9  1  0  0  0  0
 24  3  1  0  0  0  0
 25 10  1  6  0  0  0
 25 15  1  0  0  0  0
 25 20  1  0  0  0  0
 26 12  1  0  0  0  0
 26 21  1  1  0  0  0
 26 23  1  0  0  0  0
 26 25  1  0  0  0  0
 27 11  1  0  0  0  0
 27 19  1  0  0  0  0
 27 23  1  0  0  0  0
 27 31  1  6  0  0  0
 28  4  1  0  0  0  0
 28 13  1  0  0  0  0
 28 20  1  0  0  0  0
 29 16  2  0  0  0  0
 30 68  1  0  0  0  0
 31  5  1  0  0  0  0
 32 16  1  0  0  0  0
 32 18  1  0  0  0  0
 33 22  1  0  0  0  0
 33 23  1  0  0  0  0
M  END
>  <DRUGBANK_ID>
DB01469

>  <COMMON_NAME>
Acetorphine

>  <CAS_NUMBER>
25333-77-1

>  <UNII>
2OGQ81529L

>  <SYNONYMS>
7alpha-etorphine 3-acetate; Acetorfina; Acetorphine; Acetylpropylorvinol

$$$$
