33A
 OpenBabel10282417163D

 44 47  0  0  0  0  0  0  0  0999 V2000
   -0.3747   -0.0023   -0.0004 C   0  0  0  0  0  0  0  0  0  0  0  0
    0.3251   -1.2094   -0.0070 C   0  0  0  0  0  0  0  0  0  0  0  0
    1.7196   -1.2044    0.0098 C   0  0  0  0  0  0  0  0  0  0  0  0
    2.4065    0.0090    0.0270 C   0  0  0  0  0  0  0  0  0  0  0  0
    1.6986    1.2199    0.0235 C   0  0  0  0  0  0  0  0  0  0  0  0
    0.3035    1.2130    0.0109 C   0  0  0  0  0  0  0  0  0  0  0  0
    2.4118    2.4714   -0.0382 C   0  0  0  0  0  0  0  0  0  0  0  0
   -2.0948   -0.0113   -0.0126 Cl  0  0  0  0  0  0  0  0  0  0  0  0
    2.3604    3.4631    0.9161 C   0  0  0  0  0  0  0  0  0  0  0  0
    3.2208    4.4358    0.4930 N   0  0  0  0  0  0  0  0  0  0  0  0
    3.8380    4.1413   -0.6632 N   0  0  0  0  0  0  0  0  0  0  0  0
    3.2885    2.9728   -1.0208 C   0  0  0  0  0  0  0  0  0  0  0  0
    3.6229    2.2853   -2.2598 C   0  0  0  0  0  0  0  0  0  0  0  0
    2.8278    1.7758   -3.2504 C   0  0  0  0  0  0  0  0  0  0  0  0
    3.6571    1.2680   -4.2227 N   0  0  0  0  0  0  0  0  0  0  0  0
    4.9948    1.3912   -3.8530 C   0  0  0  0  0  0  0  0  0  0  0  0
    4.9488    1.9937   -2.6059 C   0  0  0  0  0  0  0  0  0  0  0  0
    6.0671    0.9332   -4.7350 C   0  0  0  0  0  0  0  0  0  0  0  0
    5.8222    0.4011   -5.8146 O   0  0  0  0  0  0  0  0  0  0  0  0
    7.3979    1.0834   -4.4074 N   0  0  0  0  0  0  0  0  0  0  0  0
    8.0077    1.5709   -3.1962 C   0  0  0  0  0  0  0  0  0  0  0  0
    8.5931    0.5156   -2.3018 C   0  0  0  0  0  0  0  0  0  0  0  0
    9.2748    0.9274   -1.1441 C   0  0  0  0  0  0  0  0  0  0  0  0
    9.6968   -0.0076   -0.2012 C   0  0  0  0  0  0  0  0  0  0  0  0
    9.4137   -1.3584   -0.3903 C   0  0  0  0  0  0  0  0  0  0  0  0
    8.6994   -1.7728   -1.5118 C   0  0  0  0  0  0  0  0  0  0  0  0
    8.3212   -0.8463   -2.4798 C   0  0  0  0  0  0  0  0  0  0  0  0
   -0.2097   -2.1547   -0.0288 H   0  0  0  0  0  0  0  0  0  0  0  0
    2.2714   -2.1410    0.0026 H   0  0  0  0  0  0  0  0  0  0  0  0
    3.4957    0.0044    0.0294 H   0  0  0  0  0  0  0  0  0  0  0  0
   -0.2467    2.1494   -0.0161 H   0  0  0  0  0  0  0  0  0  0  0  0
    1.8117    3.5594    1.8412 H   0  0  0  0  0  0  0  0  0  0  0  0
    3.4365    5.3211    0.9404 H   0  0  0  0  0  0  0  0  0  0  0  0
    1.7526    1.7597   -3.3561 H   0  0  0  0  0  0  0  0  0  0  0  0
    3.3512    0.8691   -5.1020 H   0  0  0  0  0  0  0  0  0  0  0  0
    5.7259    2.2636   -1.9170 H   0  0  0  0  0  0  0  0  0  0  0  0
    8.0258    0.6926   -5.0981 H   0  0  0  0  0  0  0  0  0  0  0  0
    8.7032    2.3774   -3.4401 H   0  0  0  0  0  0  0  0  0  0  0  0
    7.2733    2.0357   -2.5823 H   0  0  0  0  0  0  0  0  0  0  0  0
    9.4441    1.9865   -0.9537 H   0  0  0  0  0  0  0  0  0  0  0  0
   10.2195    0.3203    0.6933 H   0  0  0  0  0  0  0  0  0  0  0  0
    9.7404   -2.0907    0.3418 H   0  0  0  0  0  0  0  0  0  0  0  0
    8.4142   -2.8147   -1.6272 H   0  0  0  0  0  0  0  0  0  0  0  0
    7.7754   -1.1959   -3.3527 H   0  0  0  0  0  0  0  0  0  0  0  0
  1  8  1  0  0  0  0
  1  6  2  0  0  0  0
  1  2  1  0  0  0  0
  2  3  2  0  0  0  0
  2 28  1  0  0  0  0
  3  4  1  0  0  0  0
  3 29  1  0  0  0  0
  4  5  2  0  0  0  0
  4 30  1  0  0  0  0
  5  6  1  0  0  0  0
  5  7  1  0  0  0  0
  6 31  1  0  0  0  0
  7 12  1  0  0  0  0
  7  9  2  0  0  0  0
  9 10  1  0  0  0  0
  9 32  1  0  0  0  0
 10 11  1  0  0  0  0
 10 33  1  0  0  0  0
 11 12  2  0  0  0  0
 12 13  1  0  0  0  0
 13 14  2  0  0  0  0
 13 17  1  0  0  0  0
 14 15  1  0  0  0  0
 14 34  1  0  0  0  0
 15 16  1  0  0  0  0
 15 35  1  0  0  0  0
 16 18  1  0  0  0  0
 16 17  2  0  0  0  0
 17 36  1  0  0  0  0
 18 19  2  0  0  0  0
 18 20  1  0  0  0  0
 20 21  1  0  0  0  0
 20 37  1  0  0  0  0
 21 22  1  0  0  0  0
 21 38  1  0  0  0  0
 21 39  1  0  0  0  0
 22 23  2  0  0  0  0
 22 27  1  0  0  0  0
 23 24  1  0  0  0  0
 23 40  1  0  0  0  0
 24 25  2  0  0  0  0
 24 41  1  0  0  0  0
 25 26  1  0  0  0  0
 25 42  1  0  0  0  0
 26 27  2  0  0  0  0
 26 43  1  0  0  0  0
 27 44  1  0  0  0  0
M  END
>  <DRUGBANK_ID>
DB07010

>  <COMMON_NAME>
N-BENZYL-4-[4-(3-CHLOROPHENYL)-1H-PYRAZOL-3-YL]-1H-PYRROLE-2-CARBOXAMIDE

$$$$
