
 OpenBabel10282417213D

 28 27  0  0  0  0  0  0  0  0999 V2000
    1.0288   -0.1777   -0.1161 C   0  0  0  0  0  0  0  0  0  0  0  0
   -1.2381    0.1061    5.3227 C   0  0  0  0  0  0  0  0  0  0  0  0
    0.5923   -1.1094    1.0076 C   0  0  0  0  0  0  0  0  0  0  0  0
   -1.6056   -0.1658    3.8714 C   0  0  0  0  0  0  0  0  0  0  0  0
    1.0753   -0.6196    2.3786 C   0  0  0  0  0  0  0  0  0  0  0  0
   -1.5290    2.2456    3.0590 C   0  0  0  0  0  0  0  0  0  0  0  0
   -1.0139    0.8184    2.8369 C   0  0  3  0  0  0  0  0  0  0  0  0
    0.5301    0.7742    2.7323 C   0  0  3  0  0  0  0  0  0  0  0  0
   -1.1135    3.0988    1.9969 O   0  0  0  0  0  0  0  0  0  0  0  0
    1.1460    1.2962    3.9044 O   0  0  0  0  0  0  0  0  0  0  0  0
    0.6088    0.8268   -0.0047 H   0  0  0  0  0  0  0  0  0  0  0  0
    0.6898   -0.5535   -1.0842 H   0  0  0  0  0  0  0  0  0  0  0  0
    2.1194   -0.0898   -0.1345 H   0  0  0  0  0  0  0  0  0  0  0  0
   -1.4729    1.1333    5.6116 H   0  0  0  0  0  0  0  0  0  0  0  0
   -1.7925   -0.5648    5.9843 H   0  0  0  0  0  0  0  0  0  0  0  0
   -0.1809   -0.0786    5.5186 H   0  0  0  0  0  0  0  0  0  0  0  0
   -0.4988   -1.2111    0.9937 H   0  0  0  0  0  0  0  0  0  0  0  0
    0.9897   -2.1126    0.8206 H   0  0  0  0  0  0  0  0  0  0  0  0
   -2.6987   -0.1492    3.7831 H   0  0  0  0  0  0  0  0  0  0  0  0
   -1.3150   -1.1932    3.6215 H   0  0  0  0  0  0  0  0  0  0  0  0
    0.8000   -1.3481    3.1509 H   0  0  0  0  0  0  0  0  0  0  0  0
    2.1719   -0.5979    2.3982 H   0  0  0  0  0  0  0  0  0  0  0  0
   -2.6240    2.2484    3.0633 H   0  0  0  0  0  0  0  0  0  0  0  0
   -1.1842    2.6758    4.0026 H   0  0  0  0  0  0  0  0  0  0  0  0
   -1.4089    0.5184    1.8570 H   0  0  0  0  0  0  0  0  0  0  0  0
    0.8536    1.4618    1.9478 H   0  0  0  0  0  0  0  0  0  0  0  0
   -0.1620    3.2627    2.1261 H   0  0  0  0  0  0  0  0  0  0  0  0
    1.3618    0.5575    4.5009 H   0  0  0  0  0  0  0  0  0  0  0  0
  1 11  1  0  0  0  0
  1 12  1  0  0  0  0
  1 13  1  0  0  0  0
  2 14  1  0  0  0  0
  2 15  1  0  0  0  0
  2 16  1  0  0  0  0
  3  1  1  0  0  0  0
  3 17  1  0  0  0  0
  3 18  1  0  0  0  0
  4  2  1  0  0  0  0
  4 19  1  0  0  0  0
  4 20  1  0  0  0  0
  5  3  1  0  0  0  0
  5 21  1  0  0  0  0
  5 22  1  0  0  0  0
  6 23  1  0  0  0  0
  6 24  1  0  0  0  0
  7  4  1  0  0  0  0
  7  6  1  0  0  0  0
  7 25  1  0  0  0  0
  8  5  1  0  0  0  0
  8  7  1  0  0  0  0
  8 26  1  0  0  0  0
  9  6  1  0  0  0  0
  9 27  1  0  0  0  0
 10  8  1  0  0  0  0
 10 28  1  0  0  0  0
M  END
>  <DRUGBANK_ID>
DB13826

>  <COMMON_NAME>
Etohexadiol

>  <CAS_NUMBER>
94-96-2

>  <UNII>
M9JGK7U88V

>  <SYNONYMS>
Ethohexadiol

$$$$
