
 OpenBabel10282417153D

 60 63  0  0  1  0  0  0  0  0999 V2000
   -0.0930   -1.4312    0.0052 C   0  0  0  0  0  0  0  0  0  0  0  0
    1.1193   -0.7854    0.0230 C   0  0  0  0  0  0  0  0  0  0  0  0
    1.2506    0.5538    0.0466 N   0  0  0  0  0  0  0  0  0  0  0  0
    0.1077    1.2733    0.0289 C   0  0  0  0  0  0  0  0  0  0  0  0
   -1.1298    0.7314    0.0067 N   0  0  0  0  0  0  0  0  0  0  0  0
   -1.1983   -0.6150   -0.0052 C   0  0  0  0  0  0  0  0  0  0  0  0
    0.2274    2.7868    0.0573 C   0  0  0  0  0  0  0  0  0  0  0  0
    0.9710    3.2799    1.2208 N   0  0  0  0  0  0  0  0  0  0  0  0
    2.1328    4.0142    1.1003 C   0  0  0  0  0  0  0  0  0  0  0  0
    2.8346    4.4027    2.3471 C   0  0  0  0  0  0  0  0  0  0  0  0
    2.5929    4.3781    0.0176 O   0  0  0  0  0  0  0  0  0  0  0  0
    3.1354    3.5353    3.3834 C   0  0  0  0  0  0  0  0  0  0  0  0
    3.7967    3.9683    4.4961 N   0  0  0  0  0  0  0  0  0  0  0  0
    4.1145    5.2761    4.6231 C   0  0  0  0  0  0  0  0  0  0  0  0
    3.8733    6.1616    3.6457 N   0  0  0  0  0  0  0  0  0  0  0  0
    3.2862    5.6937    2.5108 C   0  0  0  0  0  0  0  0  0  0  0  0
    4.6501    5.6953    5.8126 N   0  0  0  0  0  0  0  0  0  0  0  0
    2.6702    2.2273    3.3427 N   0  0  0  0  0  0  0  0  0  0  0  0
    2.9397    1.2768    4.4006 C   0  0  0  0  0  0  0  0  0  0  0  0
    1.6170    0.7106    4.8557 C   0  0  0  0  0  0  0  0  0  0  0  0
    4.1531    6.8338    6.5606 C   0  0  0  0  0  0  0  0  0  0  0  0
    5.9854    5.2982    6.2768 C   0  0  1  0  0  0  0  0  0  0  0  0
    6.3959    6.4203    7.2626 C   0  0  0  0  0  0  0  0  0  0  0  0
    5.4189    7.5574    7.0034 C   0  0  0  0  0  0  0  0  0  0  0  0
    0.5852    1.5925    5.1974 C   0  0  0  0  0  0  0  0  0  0  0  0
   -0.6590    1.1434    5.6420 C   0  0  0  0  0  0  0  0  0  0  0  0
   -0.9008   -0.2339    5.7578 C   0  0  0  0  0  0  0  0  0  0  0  0
    0.1460   -1.1226    5.4312 C   0  0  0  0  0  0  0  0  0  0  0  0
    1.3929   -0.6582    4.9888 C   0  0  0  0  0  0  0  0  0  0  0  0
   -2.0415   -0.8836    6.1579 O   0  0  0  0  0  0  0  0  0  0  0  0
   -3.1724   -0.0942    6.4986 C   0  0  0  0  0  0  0  0  0  0  0  0
   -1.7514    2.4360    6.0079 Cl  0  0  0  0  0  0  0  0  0  0  0  0
    5.9077    3.9483    7.0102 C   0  0  0  0  0  0  0  0  0  0  0  0
    6.2455    2.8790    6.1299 O   0  0  0  0  0  0  0  0  0  0  0  0
   -0.1706   -2.5092   -0.0005 H   0  0  0  0  0  0  0  0  0  0  0  0
    2.0523   -1.3410    0.0197 H   0  0  0  0  0  0  0  0  0  0  0  0
   -2.2015   -1.0329   -0.0250 H   0  0  0  0  0  0  0  0  0  0  0  0
    0.6994    3.1157   -0.8743 H   0  0  0  0  0  0  0  0  0  0  0  0
   -0.7737    3.2310    0.1015 H   0  0  0  0  0  0  0  0  0  0  0  0
    0.6160    3.0265    2.1369 H   0  0  0  0  0  0  0  0  0  0  0  0
    3.1680    6.4262    1.7149 H   0  0  0  0  0  0  0  0  0  0  0  0
    2.4247    1.8302    2.4388 H   0  0  0  0  0  0  0  0  0  0  0  0
    3.5849    0.4809    4.0128 H   0  0  0  0  0  0  0  0  0  0  0  0
    3.4423    1.7125    5.2704 H   0  0  0  0  0  0  0  0  0  0  0  0
    3.6355    6.4488    7.4506 H   0  0  0  0  0  0  0  0  0  0  0  0
    3.4644    7.4908    6.0245 H   0  0  0  0  0  0  0  0  0  0  0  0
    6.7003    5.2662    5.4443 H   0  0  0  0  0  0  0  0  0  0  0  0
    7.4343    6.7386    7.1091 H   0  0  0  0  0  0  0  0  0  0  0  0
    6.3178    6.0962    8.3079 H   0  0  0  0  0  0  0  0  0  0  0  0
    5.7909    8.2028    6.2008 H   0  0  0  0  0  0  0  0  0  0  0  0
    5.2653    8.1752    7.8954 H   0  0  0  0  0  0  0  0  0  0  0  0
    0.7589    2.6645    5.1136 H   0  0  0  0  0  0  0  0  0  0  0  0
   -0.0047   -2.1981    5.5262 H   0  0  0  0  0  0  0  0  0  0  0  0
    2.1821   -1.3700    4.7546 H   0  0  0  0  0  0  0  0  0  0  0  0
   -2.9584    0.5236    7.3765 H   0  0  0  0  0  0  0  0  0  0  0  0
   -3.5105    0.4912    5.6372 H   0  0  0  0  0  0  0  0  0  0  0  0
   -4.0019   -0.7503    6.7742 H   0  0  0  0  0  0  0  0  0  0  0  0
    6.5980    3.9069    7.8588 H   0  0  0  0  0  0  0  0  0  0  0  0
    4.8969    3.7638    7.3931 H   0  0  0  0  0  0  0  0  0  0  0  0
    5.6502    2.9830    5.3614 H   0  0  0  0  0  0  0  0  0  0  0  0
  1  2  2  0  0  0  0
  1  6  1  0  0  0  0
  1 35  1  0  0  0  0
  2  3  1  0  0  0  0
  2 36  1  0  0  0  0
  3  4  2  0  0  0  0
  4  5  1  0  0  0  0
  4  7  1  0  0  0  0
  5  6  2  0  0  0  0
  6 37  1  0  0  0  0
  7  8  1  0  0  0  0
  7 38  1  0  0  0  0
  7 39  1  0  0  0  0
  8  9  1  0  0  0  0
  8 40  1  0  0  0  0
  9 10  1  0  0  0  0
  9 11  2  0  0  0  0
 10 12  2  0  0  0  0
 10 16  1  0  0  0  0
 12 13  1  0  0  0  0
 12 18  1  0  0  0  0
 13 14  2  0  0  0  0
 14 15  1  0  0  0  0
 14 17  1  0  0  0  0
 15 16  2  0  0  0  0
 16 41  1  0  0  0  0
 17 21  1  0  0  0  0
 17 22  1  0  0  0  0
 18 19  1  0  0  0  0
 18 42  1  0  0  0  0
 19 20  1  0  0  0  0
 19 43  1  0  0  0  0
 19 44  1  0  0  0  0
 20 25  2  0  0  0  0
 20 29  1  0  0  0  0
 21 24  1  0  0  0  0
 21 45  1  0  0  0  0
 21 46  1  0  0  0  0
 22 23  1  0  0  0  0
 22 47  1  6  0  0  0
 22 33  1  0  0  0  0
 23 24  1  0  0  0  0
 23 48  1  0  0  0  0
 23 49  1  0  0  0  0
 24 50  1  0  0  0  0
 24 51  1  0  0  0  0
 25 26  1  0  0  0  0
 25 52  1  0  0  0  0
 26 27  2  0  0  0  0
 26 32  1  0  0  0  0
 27 28  1  0  0  0  0
 27 30  1  0  0  0  0
 28 29  2  0  0  0  0
 28 53  1  0  0  0  0
 29 54  1  0  0  0  0
 30 31  1  0  0  0  0
 31 55  1  0  0  0  0
 31 56  1  0  0  0  0
 31 57  1  0  0  0  0
 33 34  1  0  0  0  0
 33 58  1  0  0  0  0
 33 59  1  0  0  0  0
 34 60  1  0  0  0  0
M  END
>  <DRUGBANK_ID>
DB06237

>  <COMMON_NAME>
Avanafil

>  <CAS_NUMBER>
330784-47-9

>  <UNII>
DR5S136IVO

>  <SYNONYMS>
(S)-4-(3-Chloro-4-methoxybenzylamino)-2-(2-hydroxymethylpyrrolidin-1-yl)-N-pyrimidin-2-ylmethyl-5-pyrimidinecarboxamide; Avanafil; Avanafilo

$$$$
