
 OpenBabel10282417123D

 53 54  0  0  1  0  0  0  0  0999 V2000
   -2.8778    1.1566   -2.0702 O   0  0  0  0  0  0  0  0  0  0  0  0
   -1.4284    1.1430   -1.9964 C   0  0  0  0  0  0  0  0  0  0  0  0
   -0.8881    0.6891   -3.3320 C   0  0  1  0  0  0  0  0  0  0  0  0
   -1.4242    1.7120   -4.1718 O   0  0  0  0  0  0  0  0  0  0  0  0
    0.5964    0.4768   -3.6088 C   0  0  2  0  0  0  0  0  0  0  0  0
    1.2524    0.6904   -2.3532 O   0  0  0  0  0  0  0  0  0  0  0  0
    1.0971    1.3980   -4.7684 C   0  0  1  0  0  0  0  0  0  0  0  0
    2.5396    1.3258   -4.7889 O   0  0  0  0  0  0  0  0  0  0  0  0
    0.6483    1.0982   -6.2632 C   0  0  0  0  0  0  0  0  0  0  0  0
   -0.7435    1.0122   -6.6222 N   0  0  0  0  0  0  0  0  0  0  0  0
   -1.4579   -0.0604   -6.1417 C   0  0  0  0  0  0  0  0  0  0  0  0
   -0.8706   -0.9882   -5.5757 O   0  0  0  0  0  0  0  0  0  0  0  0
   -2.8106    0.2812   -6.2535 N   0  0  0  0  0  0  0  0  0  0  0  0
   -3.8555   -0.2264   -5.4689 C   0  0  0  0  0  0  0  0  0  0  0  0
   -3.8589   -1.7117   -5.6285 C   0  0  0  0  0  0  0  0  0  0  0  0
   -2.8391   -2.5356   -4.7629 C   0  0  0  0  0  0  0  0  0  0  0  0
   -2.6697   -2.2352   -3.2628 C   0  0  0  0  0  0  0  0  0  0  0  0
   -3.7950   -2.6722   -2.5400 O   0  0  0  0  0  0  0  0  0  0  0  0
   -5.2698   -2.0203   -3.1668 P   0  0  0  0  0  0  0  0  0  0  0  0
   -4.5760   -0.6043   -3.1636 O   0  0  0  0  0  0  0  0  0  0  0  0
   -5.2312   -3.2547   -4.1950 O   0  0  0  0  0  0  0  0  0  0  0  0
   -6.5898   -1.4370   -3.7279 O   0  0  0  0  0  0  0  0  0  0  0  0
   -2.8917    1.4702   -6.8855 C   0  0  0  0  0  0  0  0  0  0  0  0
   -1.6617    1.8913   -7.1342 C   0  0  0  0  0  0  0  0  0  0  0  0
   -1.4494    2.9846   -7.8782 N   0  0  0  0  0  0  0  0  0  0  0  0
   -2.4967    3.6149   -8.5045 C   0  0  0  0  0  0  0  0  0  0  0  0
   -2.2994    4.4645   -9.3694 O   0  0  0  0  0  0  0  0  0  0  0  0
   -3.7684    3.2350   -8.1459 N   0  0  0  0  0  0  0  0  0  0  0  0
   -4.0925    2.2139   -7.2922 C   0  0  0  0  0  0  0  0  0  0  0  0
   -5.2325    1.9583   -6.9664 O   0  0  0  0  0  0  0  0  0  0  0  0
   -3.0979    1.6827   -2.8643 H   0  0  0  0  0  0  0  0  0  0  0  0
   -1.1260    2.1818   -1.8456 H   0  0  0  0  0  0  0  0  0  0  0  0
   -1.1388    0.5033   -1.1681 H   0  0  0  0  0  0  0  0  0  0  0  0
   -1.3131   -0.2666   -3.5626 H   0  0  0  0  0  0  0  0  0  0  0  0
   -2.2630    1.3612   -4.4982 H   0  0  0  0  0  0  0  0  0  0  0  0
    0.8242   -0.5710   -3.8710 H   0  0  0  0  0  0  0  0  0  0  0  0
    2.1439    1.0129   -2.5192 H   0  0  0  0  0  0  0  0  0  0  0  0
    0.8351    2.4285   -4.5086 H   0  0  0  0  0  0  0  0  0  0  0  0
    2.8860    1.7443   -3.9869 H   0  0  0  0  0  0  0  0  0  0  0  0
    1.1174    1.8177   -6.9316 H   0  0  0  0  0  0  0  0  0  0  0  0
    1.0805    0.1163   -6.5097 H   0  0  0  0  0  0  0  0  0  0  0  0
   -3.6126    0.2051   -4.5106 H   0  0  0  0  0  0  0  0  0  0  0  0
   -4.8577    0.1794   -5.6707 H   0  0  0  0  0  0  0  0  0  0  0  0
   -4.9116   -1.9494   -5.5347 H   0  0  0  0  0  0  0  0  0  0  0  0
   -3.7261   -1.9716   -6.6764 H   0  0  0  0  0  0  0  0  0  0  0  0
   -3.0306   -3.6008   -4.8807 H   0  0  0  0  0  0  0  0  0  0  0  0
   -1.8835   -2.5271   -5.2433 H   0  0  0  0  0  0  0  0  0  0  0  0
   -1.7697   -2.6856   -2.8359 H   0  0  0  0  0  0  0  0  0  0  0  0
   -2.6073   -1.1981   -2.9887 H   0  0  0  0  0  0  0  0  0  0  0  0
   -4.6753   -0.0941   -2.3315 H   0  0  0  0  0  0  0  0  0  0  0  0
   -4.5758   -3.9424   -4.0089 H   0  0  0  0  0  0  0  0  0  0  0  0
   -0.5090    3.1951   -8.1622 H   0  0  0  0  0  0  0  0  0  0  0  0
   -4.5522    3.6915   -8.5837 H   0  0  0  0  0  0  0  0  0  0  0  0
  1  2  1  0  0  0  0
  1 31  1  0  0  0  0
  2  3  1  0  0  0  0
  2 32  1  0  0  0  0
  2 33  1  0  0  0  0
  3  4  1  0  0  0  0
  3 34  1  6  0  0  0
  4 35  1  0  0  0  0
  5  7  1  0  0  0  0
  5 36  1  6  0  0  0
  5  6  1  0  0  0  0
  5  3  1  0  0  0  0
  6 37  1  0  0  0  0
  7  8  1  0  0  0  0
  7  9  1  0  0  0  0
  7 38  1  1  0  0  0
  8 39  1  0  0  0  0
  9 10  1  0  0  0  0
  9 40  1  0  0  0  0
  9 41  1  0  0  0  0
 10 11  1  0  0  0  0
 10 24  1  0  0  0  0
 11 12  2  0  0  0  0
 11 13  1  0  0  0  0
 13 14  1  0  0  0  0
 13 23  1  0  0  0  0
 14 15  1  0  0  0  0
 14 42  1  0  0  0  0
 14 43  1  0  0  0  0
 15 16  1  0  0  0  0
 15 44  1  0  0  0  0
 15 45  1  0  0  0  0
 16 17  1  0  0  0  0
 16 46  1  0  0  0  0
 16 47  1  0  0  0  0
 17 18  1  0  0  0  0
 17 48  1  0  0  0  0
 17 49  1  0  0  0  0
 18 19  1  0  0  0  0
 19 20  1  0  0  0  0
 19 21  1  0  0  0  0
 19 22  2  0  0  0  0
 20 50  1  0  0  0  0
 21 51  1  0  0  0  0
 23 24  2  0  0  0  0
 23 29  1  0  0  0  0
 24 25  1  0  0  0  0
 25 26  1  0  0  0  0
 25 52  1  0  0  0  0
 26 27  2  0  0  0  0
 26 28  1  0  0  0  0
 28 29  1  0  0  0  0
 28 53  1  0  0  0  0
 29 30  2  0  0  0  0
M  END
>  <DRUGBANK_ID>
DB02711

>  <SECONDARY_ACCESSION_NUMBERS>
EXPT03117

>  <COMMON_NAME>
4-{2,6,8-Trioxo-9-[(2S,3R,4R)-2,3,4,5-Tetrahydroxypentyl]-1,2,3,6,8,9-Hexahydro-7h-Purin-7-Yl}Butyl Dihydrogen Phosphate

$$$$
