
 OpenBabel10282417103D

 56 59  0  0  0  0  0  0  0  0999 V2000
    0.3076   -5.7269    0.8604 C   0  0  2  0  0  0  0  0  0  0  0  0
    4.6211   -6.3246    0.7724 C   0  0  1  0  0  0  0  0  0  0  0  0
    1.8428   -5.7512    0.7894 C   0  0  2  0  0  0  0  0  0  0  0  0
   -0.3749   -5.2579   -0.4639 C   0  0  0  0  0  0  0  0  0  0  0  0
    3.9719   -5.4855   -0.4036 C   0  0  2  0  0  0  0  0  0  0  0  0
    2.6619   -4.6775    0.0900 C   0  0  2  0  0  0  0  0  0  0  0  0
    5.7610   -7.0310    0.0057 C   0  0  2  0  0  0  0  0  0  0  0  0
    2.4740   -6.6062    2.0025 C   0  0  2  0  0  0  0  0  0  0  0  0
    0.1586   -7.2579    0.7146 C   0  0  0  0  0  0  0  0  0  0  0  0
    3.6172   -7.3640    1.3448 C   0  0  0  0  0  0  0  0  0  0  0  0
    5.1191   -7.6160   -1.3075 C   0  0  2  0  0  0  0  0  0  0  0  0
    3.9357   -6.5800   -1.5740 C   0  0  0  0  0  0  0  0  0  0  0  0
    1.8346   -4.1086   -1.1280 C   0  0  0  0  0  0  0  0  0  0  0  0
    0.3196   -3.9195   -0.8657 C   0  0  2  0  0  0  0  0  0  0  0  0
   -1.0715   -6.2657   -1.1443 C   0  0  0  0  0  0  0  0  0  0  0  0
    7.1232   -7.3833    0.6498 C   0  0  0  0  0  0  0  0  0  0  0  0
   -0.9908   -7.8413    0.9436 C   0  0  0  0  0  0  0  0  0  0  0  0
   -1.6251   -7.6141   -0.3938 C   0  0  0  0  0  0  0  0  0  0  0  0
    2.0039   -6.5954   -0.3294 F   0  0  0  0  0  0  0  0  0  0  0  0
    7.7083   -6.5577    1.3784 O   0  0  0  0  0  0  0  0  0  0  0  0
   -2.3504   -8.4305   -0.8347 O   0  0  0  0  0  0  0  0  0  0  0  0
    6.5009   -5.8146   -0.5851 O   0  0  0  0  0  0  0  0  0  0  0  0
   -0.1494   -5.0619    2.1951 C   0  0  0  0  0  0  0  0  0  0  0  0
    5.0679   -5.3297    1.8618 C   0  0  0  0  0  0  0  0  0  0  0  0
    1.6195   -7.5703    2.6514 O   0  0  0  0  0  0  0  0  0  0  0  0
    0.2290   -3.0445    0.1918 F   0  0  0  0  0  0  0  0  0  0  0  0
    7.8845   -8.5856    0.2032 C   0  0  0  0  0  0  0  0  0  0  0  0
    7.1720   -9.9873    0.9872 Cl  0  0  0  0  0  0  0  0  0  0  0  0
    4.7496   -9.0727   -1.7995 C   0  0  0  0  0  0  0  0  0  0  0  0
    4.6270   -4.6881   -0.7936 H   0  0  0  0  0  0  0  0  0  0  0  0
    2.9745   -3.8440    0.7444 H   0  0  0  0  0  0  0  0  0  0  0  0
    2.8031   -6.0471    2.8768 H   0  0  0  0  0  0  0  0  0  0  0  0
    0.6083   -7.6231   -0.2440 H   0  0  0  0  0  0  0  0  0  0  0  0
    4.0631   -8.1103    2.0036 H   0  0  0  0  0  0  0  0  0  0  0  0
    3.1712   -8.0002    0.5589 H   0  0  0  0  0  0  0  0  0  0  0  0
    6.0059   -7.5426   -1.9120 H   0  0  0  0  0  0  0  0  0  0  0  0
    3.2002   -7.3825   -1.6458 H   0  0  0  0  0  0  0  0  0  0  0  0
    3.2737   -6.1453   -2.3366 H   0  0  0  0  0  0  0  0  0  0  0  0
    2.3277   -3.2007   -1.5107 H   0  0  0  0  0  0  0  0  0  0  0  0
    1.8457   -4.8095   -1.9585 H   0  0  0  0  0  0  0  0  0  0  0  0
   -0.1586   -3.3930   -1.7028 H   0  0  0  0  0  0  0  0  0  0  0  0
   -0.7613   -6.6179   -2.1446 H   0  0  0  0  0  0  0  0  0  0  0  0
   -1.5554   -7.6099    1.8200 H   0  0  0  0  0  0  0  0  0  0  0  0
    6.8661   -5.3266    0.1892 H   0  0  0  0  0  0  0  0  0  0  0  0
   -0.4725   -4.0144    2.1393 H   0  0  0  0  0  0  0  0  0  0  0  0
   -0.9460   -5.6276    2.6844 H   0  0  0  0  0  0  0  0  0  0  0  0
    0.6736   -5.0250    2.9227 H   0  0  0  0  0  0  0  0  0  0  0  0
    5.8455   -5.7550    2.4902 H   0  0  0  0  0  0  0  0  0  0  0  0
    5.4139   -4.3924    1.4189 H   0  0  0  0  0  0  0  0  0  0  0  0
    4.2780   -5.0138    2.5430 H   0  0  0  0  0  0  0  0  0  0  0  0
    0.9391   -7.0955    3.1651 H   0  0  0  0  0  0  0  0  0  0  0  0
    7.8917   -8.6725   -0.8856 H   0  0  0  0  0  0  0  0  0  0  0  0
    8.9275   -8.4764    0.5320 H   0  0  0  0  0  0  0  0  0  0  0  0
    4.3931   -9.8442   -1.1069 H   0  0  0  0  0  0  0  0  0  0  0  0
    4.0161   -9.0217   -2.6282 H   0  0  0  0  0  0  0  0  0  0  0  0
    5.6234   -9.4925   -2.3230 H   0  0  0  0  0  0  0  0  0  0  0  0
  1 23  1  6  0  0  0
  2 10  1  0  0  0  0
  2  5  1  0  0  0  0
  2 24  1  6  0  0  0
  3  1  1  0  0  0  0
  3 19  1  1  0  0  0
  4  1  1  0  0  0  0
  5  6  1  0  0  0  0
  5 30  1  6  0  0  0
  6  3  1  0  0  0  0
  6 13  1  0  0  0  0
  6 31  1  6  0  0  0
  7  2  1  0  0  0  0
  7 11  1  0  0  0  0
  7 16  1  1  0  0  0
  7 22  1  0  0  0  0
  8  3  1  0  0  0  0
  8 32  1  1  0  0  0
  8 25  1  0  0  0  0
  9  1  1  0  0  0  0
  9 33  1  0  0  0  0
 10  8  1  0  0  0  0
 10 34  1  0  0  0  0
 10 35  1  0  0  0  0
 11 12  1  0  0  0  0
 11 36  1  6  0  0  0
 11 29  1  0  0  0  0
 12  5  1  0  0  0  0
 12 37  1  0  0  0  0
 12 38  1  0  0  0  0
 13 14  1  0  0  0  0
 13 39  1  0  0  0  0
 13 40  1  0  0  0  0
 14  4  1  0  0  0  0
 14 26  1  0  0  0  0
 14 41  1  6  0  0  0
 15  4  2  0  0  0  0
 15 18  1  0  0  0  0
 15 42  1  0  0  0  0
 17  9  2  0  0  0  0
 17 43  1  0  0  0  0
 18 17  1  0  0  0  0
 20 16  2  0  0  0  0
 21 18  2  0  0  0  0
 22 44  1  0  0  0  0
 23 45  1  0  0  0  0
 23 46  1  0  0  0  0
 23 47  1  0  0  0  0
 24 48  1  0  0  0  0
 24 49  1  0  0  0  0
 24 50  1  0  0  0  0
 25 51  1  0  0  0  0
 27 16  1  0  0  0  0
 27 52  1  0  0  0  0
 27 53  1  0  0  0  0
 28 27  1  0  0  0  0
 29 54  1  0  0  0  0
 29 55  1  0  0  0  0
 29 56  1  0  0  0  0
M  END
>  <DRUGBANK_ID>
DB00596

>  <SECONDARY_ACCESSION_NUMBERS>
APRD01010

>  <COMMON_NAME>
Ulobetasol

>  <CAS_NUMBER>
98651-66-2

>  <UNII>
9P6159HM7T

>  <SYNONYMS>
21-chloro diflorasone; Halobetasol; Ulobetasol; Ulob√©tasol; Ulobetasolum

$$$$
