1447
 OpenBabel10282417113D

 25 26  0  0  1  0  0  0  0  0999 V2000
   -0.3099    1.1053    0.1559 O   0  0  0  0  0  0  0  0  0  0  0  0
    1.0721   -0.7026   -0.1493 N   0  0  0  0  0  0  0  0  0  0  0  0
    1.9591    1.4353   -0.1703 N   0  0  0  0  0  0  0  0  0  0  0  0
   -1.2120   -0.0049   -0.0478 C   0  0  3  0  0  0  0  0  0  0  0  0
   -0.2758   -1.2229    0.1198 C   0  0  3  0  0  0  0  0  0  0  0  0
   -2.5613    0.0548    0.6936 C   0  0  0  0  0  0  0  0  0  0  0  0
   -0.2101   -1.8903    1.4872 C   0  0  0  0  0  0  0  0  0  0  0  0
    0.9319    0.5837   -0.0598 C   0  0  0  0  0  0  0  0  0  0  0  0
   -3.4434    1.1283    0.5049 C   0  0  0  0  0  0  0  0  0  0  0  0
   -3.0698   -0.9932    1.4846 C   0  0  0  0  0  0  0  0  0  0  0  0
   -4.7268    1.1311    1.0966 C   0  0  0  0  0  0  0  0  0  0  0  0
   -4.3523   -1.0284    2.0274 C   0  0  0  0  0  0  0  0  0  0  0  0
   -5.1794    0.0549    1.8594 C   0  0  0  0  0  0  0  0  0  0  0  0
    2.8810    1.0386   -0.3121 H   0  0  0  0  0  0  0  0  0  0  0  0
    1.8571    2.4389   -0.1625 H   0  0  0  0  0  0  0  0  0  0  0  0
   -1.4809    0.0442   -1.1165 H   0  0  0  0  0  0  0  0  0  0  0  0
   -0.5232   -1.9789   -0.6327 H   0  0  0  0  0  0  0  0  0  0  0  0
   -0.9709   -2.6690    1.5469 H   0  0  0  0  0  0  0  0  0  0  0  0
    0.7137   -2.4428    1.6585 H   0  0  0  0  0  0  0  0  0  0  0  0
   -0.3323   -1.1599    2.2968 H   0  0  0  0  0  0  0  0  0  0  0  0
   -3.1544    1.9760   -0.1131 H   0  0  0  0  0  0  0  0  0  0  0  0
   -2.5165   -1.8647    1.7602 H   0  0  0  0  0  0  0  0  0  0  0  0
   -5.3908    1.9786    0.9543 H   0  0  0  0  0  0  0  0  0  0  0  0
   -4.6658   -1.9109    2.5814 H   0  0  0  0  0  0  0  0  0  0  0  0
   -6.1566    0.0526    2.3317 H   0  0  0  0  0  0  0  0  0  0  0  0
  1  4  1  0  0  0  0
  1  8  1  0  0  0  0
  2  5  1  0  0  0  0
  2  8  2  0  0  0  0
  3  8  1  0  0  0  0
  3 14  1  0  0  0  0
  3 15  1  0  0  0  0
  4  5  1  0  0  0  0
  4  6  1  0  0  0  0
  4 16  1  0  0  0  0
  5  7  1  0  0  0  0
  5 17  1  0  0  0  0
  6  9  2  0  0  0  0
  6 10  1  0  0  0  0
  7 18  1  0  0  0  0
  7 19  1  0  0  0  0
  7 20  1  0  0  0  0
  9 11  1  0  0  0  0
  9 21  1  0  0  0  0
 10 12  2  0  0  0  0
 10 22  1  0  0  0  0
 11 13  2  0  0  0  0
 11 23  1  0  0  0  0
 12 13  1  0  0  0  0
 12 24  1  0  0  0  0
 13 25  1  0  0  0  0
M  END
>  <DRUGBANK_ID>
DB01447

>  <COMMON_NAME>
4-Methylaminorex

>  <CAS_NUMBER>
3568-94-3

>  <UNII>
7PK6VC94OU

$$$$
