420
 OpenBabel10282417103D

 40 42  0  0  0  0  0  0  0  0999 V2000
    0.0419    1.7787    0.4159 S   0  0  0  0  0  0  0  0  0  0  0  0
    0.0304   -1.2670    0.6308 N   0  0  0  0  0  0  0  0  0  0  0  0
   -3.0400   -2.6541    2.7144 N   0  0  0  0  0  0  0  0  0  0  0  0
    0.1124   -2.0329    1.9229 C   0  0  0  0  0  0  0  0  0  0  0  0
   -0.7278   -1.5817    3.1323 C   0  0  0  0  0  0  0  0  0  0  0  0
   -2.2403   -1.4251    2.9598 C   0  0  0  0  0  0  0  0  0  0  0  0
    1.2854   -0.7122    0.2962 C   0  0  0  0  0  0  0  0  0  0  0  0
   -1.1294   -0.7128    0.0580 C   0  0  0  0  0  0  0  0  0  0  0  0
    1.4084    0.6716    0.0649 C   0  0  0  0  0  0  0  0  0  0  0  0
   -1.3080    0.6861   -0.0165 C   0  0  0  0  0  0  0  0  0  0  0  0
    2.3695   -1.5671    0.0503 C   0  0  0  0  0  0  0  0  0  0  0  0
   -2.1130   -1.4806   -0.5845 C   0  0  0  0  0  0  0  0  0  0  0  0
    2.5928    1.1685   -0.4590 C   0  0  0  0  0  0  0  0  0  0  0  0
   -2.5181    1.2290   -0.4684 C   0  0  0  0  0  0  0  0  0  0  0  0
   -4.3670   -2.2414    2.2426 C   0  0  0  0  0  0  0  0  0  0  0  0
   -2.4482   -3.5397    1.7242 C   0  0  0  0  0  0  0  0  0  0  0  0
    3.5462   -1.0638   -0.4755 C   0  0  0  0  0  0  0  0  0  0  0  0
   -3.3669   -0.9658   -0.9074 C   0  0  0  0  0  0  0  0  0  0  0  0
    3.6521    0.3031   -0.7449 C   0  0  0  0  0  0  0  0  0  0  0  0
   -3.5806    0.4077   -0.8329 C   0  0  0  0  0  0  0  0  0  0  0  0
   -0.0003   -3.0989    1.7122 H   0  0  0  0  0  0  0  0  0  0  0  0
    1.1442   -2.0084    2.3135 H   0  0  0  0  0  0  0  0  0  0  0  0
   -0.5635   -2.2969    3.9538 H   0  0  0  0  0  0  0  0  0  0  0  0
   -0.3187   -0.6312    3.5029 H   0  0  0  0  0  0  0  0  0  0  0  0
   -2.6337   -0.9599    3.8747 H   0  0  0  0  0  0  0  0  0  0  0  0
   -2.4139   -0.6684    2.1922 H   0  0  0  0  0  0  0  0  0  0  0  0
    2.2631   -2.6404    0.2090 H   0  0  0  0  0  0  0  0  0  0  0  0
   -1.9421   -2.5388   -0.7934 H   0  0  0  0  0  0  0  0  0  0  0  0
    2.6833    2.2286   -0.6822 H   0  0  0  0  0  0  0  0  0  0  0  0
   -2.6456    2.3097   -0.5302 H   0  0  0  0  0  0  0  0  0  0  0  0
   -4.3130   -1.5126    1.4311 H   0  0  0  0  0  0  0  0  0  0  0  0
   -4.9381   -3.0984    1.8706 H   0  0  0  0  0  0  0  0  0  0  0  0
   -4.9387   -1.7888    3.0550 H   0  0  0  0  0  0  0  0  0  0  0  0
   -1.9281   -2.9409    1.0190 H   0  0  0  0  0  0  0  0  0  0  0  0
   -1.6922   -4.2152    2.1280 H   0  0  0  0  0  0  0  0  0  0  0  0
   -3.1514   -4.1244    1.1242 H   0  0  0  0  0  0  0  0  0  0  0  0
    4.3635   -1.7389   -0.7102 H   0  0  0  0  0  0  0  0  0  0  0  0
   -4.1827   -1.6353   -1.1661 H   0  0  0  0  0  0  0  0  0  0  0  0
    4.5582    0.6922   -1.1933 H   0  0  0  0  0  0  0  0  0  0  0  0
   -4.5486    0.8196   -1.0897 H   0  0  0  0  0  0  0  0  0  0  0  0
  1  9  1  0  0  0  0
  1 10  1  0  0  0  0
  2  4  1  0  0  0  0
  2  7  1  0  0  0  0
  2  8  1  0  0  0  0
  3  6  1  0  0  0  0
  3 15  1  0  0  0  0
  3 16  1  0  0  0  0
  4  5  1  0  0  0  0
  4 21  1  0  0  0  0
  4 22  1  0  0  0  0
  5  6  1  0  0  0  0
  5 23  1  0  0  0  0
  5 24  1  0  0  0  0
  6 25  1  0  0  0  0
  6 26  1  0  0  0  0
  7  9  1  0  0  0  0
  7 11  2  0  0  0  0
  8 10  1  0  0  0  0
  8 12  2  0  0  0  0
  9 13  2  0  0  0  0
 10 14  2  0  0  0  0
 11 17  1  0  0  0  0
 11 27  1  0  0  0  0
 12 18  1  0  0  0  0
 12 28  1  0  0  0  0
 13 19  1  0  0  0  0
 13 29  1  0  0  0  0
 14 20  1  0  0  0  0
 14 30  1  0  0  0  0
 15 31  1  0  0  0  0
 15 32  1  0  0  0  0
 15 33  1  0  0  0  0
 16 34  1  0  0  0  0
 16 35  1  0  0  0  0
 16 36  1  0  0  0  0
 17 19  2  0  0  0  0
 17 37  1  0  0  0  0
 18 20  2  0  0  0  0
 18 38  1  0  0  0  0
 19 39  1  0  0  0  0
 20 40  1  0  0  0  0
M  END
>  <DRUGBANK_ID>
DB00420

>  <SECONDARY_ACCESSION_NUMBERS>
APRD00358

>  <COMMON_NAME>
Promazine

>  <CAS_NUMBER>
58-40-2

>  <UNII>
O9M39HTM5W

>  <SYNONYMS>
10-(3-(Dimethylamino)propyl)phenothiazine; N-(3-Dimethylaminopropyl)phenothiazine; N-Dimethylamino-1-methylethyl thiodiphenylamine; N,N-dimethyl-3-(10H-phenothiazin-10-yl)-propan-1-amine; Promazin; Promazina; Promazine; Promazinum

$$$$
