
 OpenBabel10282417163D

 44 47  0  0  0  0  0  0  0  0999 V2000
    0.9082    0.0882    0.0792 C   0  0  0  0  0  0  0  0  0  0  0  0
    0.2720   -0.9486   -0.7401 N   0  0  0  0  0  0  0  0  0  0  0  0
   -0.2593   -2.0381    0.0983 C   0  0  0  0  0  0  0  0  0  0  0  0
    0.8284   -2.7899    0.8820 C   0  0  0  0  0  0  0  0  0  0  0  0
    1.8030   -3.4972   -0.0880 C   0  0  0  0  0  0  0  0  0  0  0  0
    2.1650   -4.8410   -0.1337 C   0  0  0  0  0  0  0  0  0  0  0  0
    3.2739   -5.2591   -1.0938 C   0  0  0  0  0  0  0  0  0  0  0  0
    4.1652   -4.2683   -1.5624 C   0  0  0  0  0  0  0  0  0  0  0  0
    4.9460   -4.3332   -2.7049 C   0  0  0  0  0  0  0  0  0  0  0  0
    5.2482   -5.5829   -3.1507 C   0  0  0  0  0  0  0  0  0  0  0  0
    4.6122   -6.6748   -2.5441 C   0  0  0  0  0  0  0  0  0  0  0  0
    3.5716   -6.5367   -1.5627 C   0  0  0  0  0  0  0  0  0  0  0  0
    2.8648   -7.7952   -1.1120 C   0  0  0  0  0  0  0  0  0  0  0  0
    2.5311   -7.9610    0.3851 C   0  0  0  0  0  0  0  0  0  0  0  0
    1.5150   -7.0879    0.9539 N   0  0  0  0  0  0  0  0  0  0  0  0
    1.3705   -5.7173    0.7277 C   0  0  0  0  0  0  0  0  0  0  0  0
    0.3230   -5.3111    1.4185 N   0  0  0  0  0  0  0  0  0  0  0  0
   -0.1532   -6.3010    2.1761 C   0  0  0  0  0  0  0  0  0  0  0  0
    0.5209   -7.4625    1.8928 C   0  0  0  0  0  0  0  0  0  0  0  0
    0.1511   -8.7177    2.4926 C   0  0  0  0  0  0  0  0  0  0  0  0
    0.6995   -9.8086    2.2924 O   0  0  0  0  0  0  0  0  0  0  0  0
    2.3061   -2.3419   -0.9787 C   0  0  0  0  0  0  0  0  0  0  0  0
    1.2206   -1.5388   -1.6749 C   0  0  0  0  0  0  0  0  0  0  0  0
    0.6015    0.0203    1.1281 H   0  0  0  0  0  0  0  0  0  0  0  0
    0.6040    1.0689   -0.2890 H   0  0  0  0  0  0  0  0  0  0  0  0
    2.0046    0.0687    0.0722 H   0  0  0  0  0  0  0  0  0  0  0  0
   -0.9961   -1.6193    0.7898 H   0  0  0  0  0  0  0  0  0  0  0  0
   -0.8095   -2.7490   -0.5352 H   0  0  0  0  0  0  0  0  0  0  0  0
    1.4263   -2.1061    1.4995 H   0  0  0  0  0  0  0  0  0  0  0  0
    0.3074   -3.3569    1.6409 H   0  0  0  0  0  0  0  0  0  0  0  0
    4.2872   -3.3465   -1.0101 H   0  0  0  0  0  0  0  0  0  0  0  0
    5.3768   -3.4260   -3.1232 H   0  0  0  0  0  0  0  0  0  0  0  0
    6.0343   -5.6973   -3.8905 H   0  0  0  0  0  0  0  0  0  0  0  0
    4.9586   -7.6597   -2.8460 H   0  0  0  0  0  0  0  0  0  0  0  0
    3.5361   -8.6303   -1.3678 H   0  0  0  0  0  0  0  0  0  0  0  0
    1.9702   -7.9360   -1.7293 H   0  0  0  0  0  0  0  0  0  0  0  0
    3.4338   -7.8553    0.9983 H   0  0  0  0  0  0  0  0  0  0  0  0
    2.1824   -8.9933    0.5164 H   0  0  0  0  0  0  0  0  0  0  0  0
   -0.9799   -6.1048    2.8501 H   0  0  0  0  0  0  0  0  0  0  0  0
   -0.7179   -8.6718    3.1824 H   0  0  0  0  0  0  0  0  0  0  0  0
    2.9631   -1.7154   -0.3566 H   0  0  0  0  0  0  0  0  0  0  0  0
    2.8542   -2.6100   -1.8683 H   0  0  0  0  0  0  0  0  0  0  0  0
    0.7130   -2.2189   -2.3743 H   0  0  0  0  0  0  0  0  0  0  0  0
    1.7054   -0.7777   -2.3007 H   0  0  0  0  0  0  0  0  0  0  0  0
  1  2  1  0  0  0  0
  1 24  1  0  0  0  0
  1 25  1  0  0  0  0
  1 26  1  0  0  0  0
  2  3  1  0  0  0  0
  2 23  1  0  0  0  0
  3  4  1  0  0  0  0
  3 27  1  0  0  0  0
  3 28  1  0  0  0  0
  4  5  1  0  0  0  0
  4 29  1  0  0  0  0
  4 30  1  0  0  0  0
  5  6  2  0  0  0  0
  5 22  1  0  0  0  0
  6  7  1  0  0  0  0
  6 16  1  0  0  0  0
  7  8  2  0  0  0  0
  7 12  1  0  0  0  0
  8  9  1  0  0  0  0
  8 31  1  0  0  0  0
  9 10  2  0  0  0  0
  9 32  1  0  0  0  0
 10 11  1  0  0  0  0
 10 33  1  0  0  0  0
 11 12  2  0  0  0  0
 11 34  1  0  0  0  0
 12 13  1  0  0  0  0
 13 14  1  0  0  0  0
 13 35  1  0  0  0  0
 13 36  1  0  0  0  0
 14 15  1  0  0  0  0
 14 37  1  0  0  0  0
 14 38  1  0  0  0  0
 15 16  1  0  0  0  0
 15 19  1  0  0  0  0
 16 17  2  0  0  0  0
 17 18  1  0  0  0  0
 18 19  2  0  0  0  0
 18 39  1  0  0  0  0
 19 20  1  0  0  0  0
 20 21  2  0  0  0  0
 20 40  1  0  0  0  0
 22 23  1  0  0  0  0
 22 41  1  0  0  0  0
 22 42  1  0  0  0  0
 23 43  1  0  0  0  0
 23 44  1  0  0  0  0
M  END
>  <DRUGBANK_ID>
DB06766

>  <COMMON_NAME>
Alcaftadine

>  <CAS_NUMBER>
147084-10-4

>  <UNII>
7Z8O94ECSX

>  <SYNONYMS>
Alcaftadina; Alcaftadine; Alcaftadinum

$$$$
