
 OpenBabel10282417123D

 78 81  0  0  0  0  0  0  0  0999 V2000
   -5.4763    0.0087   -9.7917 C   0  0  0  0  0  0  0  0  0  0  0  0
   -4.2619   -0.3887   -9.0122 C   0  0  0  0  0  0  0  0  0  0  0  0
   -3.2593    0.5431   -8.7419 C   0  0  0  0  0  0  0  0  0  0  0  0
   -2.0720    0.1304   -8.1496 C   0  0  0  0  0  0  0  0  0  0  0  0
   -1.8862   -1.2047   -7.8197 C   0  0  0  0  0  0  0  0  0  0  0  0
   -2.9408   -2.0857   -7.9348 C   0  0  0  0  0  0  0  0  0  0  0  0
   -4.0992   -1.7200   -8.6022 C   0  0  0  0  0  0  0  0  0  0  0  0
   -5.1805   -2.7205   -8.8207 C   0  0  0  0  0  0  0  0  0  0  0  0
   -4.7370   -4.1108   -8.8846 N   0  0  0  0  0  0  0  0  0  0  0  0
   -5.0692   -5.2811   -8.2429 C   0  0  0  0  0  0  0  0  0  0  0  0
   -4.4104   -6.2691   -8.6002 O   0  0  0  0  0  0  0  0  0  0  0  0
   -6.0534   -5.4228   -6.9956 C   0  0  1  0  0  0  0  0  0  0  0  0
   -5.2249   -5.3281   -5.8165 N   0  0  0  0  0  0  0  0  0  0  0  0
   -4.8456   -3.9980   -5.6650 C   0  0  0  0  0  0  0  0  0  0  0  0
   -6.2692   -2.9832   -5.9853 S   0  0  0  0  0  0  0  0  0  0  0  0
   -7.1293   -4.3262   -6.8438 C   0  0  0  0  0  0  0  0  0  0  0  0
   -8.2026   -4.5392   -5.7790 C   0  0  0  0  0  0  0  0  0  0  0  0
   -7.8024   -4.0277   -8.1798 C   0  0  0  0  0  0  0  0  0  0  0  0
   -4.8623   -6.2933   -4.9125 C   0  0  0  0  0  0  0  0  0  0  0  0
   -5.2270   -7.4665   -5.0236 O   0  0  0  0  0  0  0  0  0  0  0  0
   -3.8621   -5.9155   -3.7851 C   0  0  1  0  0  0  0  0  0  0  0  0
   -2.6717   -5.4888   -4.5303 O   0  0  0  0  0  0  0  0  0  0  0  0
   -4.1626   -4.8877   -2.5766 C   0  0  2  0  0  0  0  0  0  0  0  0
   -4.0764   -5.4378   -1.1448 C   0  0  0  0  0  0  0  0  0  0  0  0
   -2.8295   -6.2503   -0.8777 C   0  0  0  0  0  0  0  0  0  0  0  0
   -1.8292   -6.4383   -1.8420 C   0  0  0  0  0  0  0  0  0  0  0  0
   -0.8584   -7.4131   -1.7728 C   0  0  0  0  0  0  0  0  0  0  0  0
   -0.6807   -8.0349   -0.5641 C   0  0  0  0  0  0  0  0  0  0  0  0
   -1.5306   -7.7206    0.5042 C   0  0  0  0  0  0  0  0  0  0  0  0
   -2.6289   -6.8658    0.3436 C   0  0  0  0  0  0  0  0  0  0  0  0
   -5.3653   -4.0770   -2.7069 N   0  0  0  0  0  0  0  0  0  0  0  0
   -5.4981   -2.7193   -2.9375 C   0  0  0  0  0  0  0  0  0  0  0  0
   -6.6567   -2.2922   -2.7266 O   0  0  0  0  0  0  0  0  0  0  0  0
   -4.3949   -1.8575   -3.6160 C   0  0  0  0  0  0  0  0  0  0  0  0
   -3.1465   -2.4179   -3.9875 C   0  0  0  0  0  0  0  0  0  0  0  0
   -2.1943   -1.8219   -4.7755 C   0  0  0  0  0  0  0  0  0  0  0  0
   -2.3985   -0.5189   -5.1183 C   0  0  0  0  0  0  0  0  0  0  0  0
   -3.6774    0.0020   -4.9992 C   0  0  0  0  0  0  0  0  0  0  0  0
   -4.0099    1.1410   -5.6850 O   0  0  0  0  0  0  0  0  0  0  0  0
   -4.6828   -0.6329   -4.2459 C   0  0  0  0  0  0  0  0  0  0  0  0
   -6.0062    0.0696   -4.2367 C   0  0  0  0  0  0  0  0  0  0  0  0
   -5.5456   -0.6665  -10.6505 H   0  0  0  0  0  0  0  0  0  0  0  0
   -6.3919   -0.0628   -9.1942 H   0  0  0  0  0  0  0  0  0  0  0  0
   -5.3765    1.0184  -10.1904 H   0  0  0  0  0  0  0  0  0  0  0  0
   -3.3992    1.5922   -8.9840 H   0  0  0  0  0  0  0  0  0  0  0  0
   -1.3375    0.8604   -7.8221 H   0  0  0  0  0  0  0  0  0  0  0  0
   -0.9964   -1.5346   -7.2909 H   0  0  0  0  0  0  0  0  0  0  0  0
   -2.8520   -3.0534   -7.4638 H   0  0  0  0  0  0  0  0  0  0  0  0
   -5.8815   -2.5352   -8.0554 H   0  0  0  0  0  0  0  0  0  0  0  0
   -5.7836   -2.5092   -9.7017 H   0  0  0  0  0  0  0  0  0  0  0  0
   -4.0830   -4.2656   -9.6413 H   0  0  0  0  0  0  0  0  0  0  0  0
   -6.5058   -6.4162   -7.0237 H   0  0  0  0  0  0  0  0  0  0  0  0
   -3.9091   -3.8423   -6.1761 H   0  0  0  0  0  0  0  0  0  0  0  0
   -4.6568   -3.9126   -4.6534 H   0  0  0  0  0  0  0  0  0  0  0  0
   -8.7799   -5.4322   -5.9936 H   0  0  0  0  0  0  0  0  0  0  0  0
   -7.8071   -4.6314   -4.7559 H   0  0  0  0  0  0  0  0  0  0  0  0
   -8.8853   -3.6725   -5.7731 H   0  0  0  0  0  0  0  0  0  0  0  0
   -7.1360   -3.9340   -9.0325 H   0  0  0  0  0  0  0  0  0  0  0  0
   -8.4147   -4.8809   -8.4699 H   0  0  0  0  0  0  0  0  0  0  0  0
   -8.3903   -3.1079   -8.1493 H   0  0  0  0  0  0  0  0  0  0  0  0
   -3.6274   -6.8829   -3.3384 H   0  0  0  0  0  0  0  0  0  0  0  0
   -2.1787   -6.2908   -4.7930 H   0  0  0  0  0  0  0  0  0  0  0  0
   -3.3460   -4.1798   -2.4670 H   0  0  0  0  0  0  0  0  0  0  0  0
   -4.9915   -5.9984   -0.9295 H   0  0  0  0  0  0  0  0  0  0  0  0
   -4.0738   -4.5739   -0.4560 H   0  0  0  0  0  0  0  0  0  0  0  0
   -1.7652   -5.8251   -2.7179 H   0  0  0  0  0  0  0  0  0  0  0  0
   -0.2444   -7.6161   -2.6460 H   0  0  0  0  0  0  0  0  0  0  0  0
    0.1515   -8.7187   -0.4500 H   0  0  0  0  0  0  0  0  0  0  0  0
   -1.3386   -8.1602    1.4749 H   0  0  0  0  0  0  0  0  0  0  0  0
   -3.3014   -6.6657    1.1740 H   0  0  0  0  0  0  0  0  0  0  0  0
   -6.2545   -4.5688   -2.7230 H   0  0  0  0  0  0  0  0  0  0  0  0
   -2.8955   -3.4517   -3.9142 H   0  0  0  0  0  0  0  0  0  0  0  0
   -1.4132   -2.4507   -5.2111 H   0  0  0  0  0  0  0  0  0  0  0  0
   -1.6101    0.0036   -5.6356 H   0  0  0  0  0  0  0  0  0  0  0  0
   -3.3470    1.2971   -6.3752 H   0  0  0  0  0  0  0  0  0  0  0  0
   -5.8301    1.0460   -3.7833 H   0  0  0  0  0  0  0  0  0  0  0  0
   -6.4093    0.2046   -5.2504 H   0  0  0  0  0  0  0  0  0  0  0  0
   -6.7789   -0.4159   -3.6588 H   0  0  0  0  0  0  0  0  0  0  0  0
  1  2  1  0  0  0  0
  1 42  1  0  0  0  0
  1 43  1  0  0  0  0
  1 44  1  0  0  0  0
  2  3  2  0  0  0  0
  2  7  1  0  0  0  0
  3  4  1  0  0  0  0
  3 45  1  0  0  0  0
  4  5  2  0  0  0  0
  4 46  1  0  0  0  0
  5  6  1  0  0  0  0
  5 47  1  0  0  0  0
  6  7  2  0  0  0  0
  6 48  1  0  0  0  0
  7  8  1  0  0  0  0
  8  9  1  0  0  0  0
  8 49  1  0  0  0  0
  8 50  1  0  0  0  0
  9 10  1  0  0  0  0
  9 51  1  0  0  0  0
 10 11  2  0  0  0  0
 12 10  1  0  0  0  0
 12 13  1  0  0  0  0
 12 16  1  0  0  0  0
 12 52  1  6  0  0  0
 13 14  1  0  0  0  0
 13 19  1  0  0  0  0
 14 15  1  0  0  0  0
 14 53  1  0  0  0  0
 14 54  1  0  0  0  0
 15 16  1  0  0  0  0
 16 17  1  0  0  0  0
 16 18  1  0  0  0  0
 17 55  1  0  0  0  0
 17 56  1  0  0  0  0
 17 57  1  0  0  0  0
 18 58  1  0  0  0  0
 18 59  1  0  0  0  0
 18 60  1  0  0  0  0
 19 20  2  0  0  0  0
 21 19  1  0  0  0  0
 21 22  1  0  0  0  0
 21 61  1  1  0  0  0
 22 62  1  0  0  0  0
 23 31  1  0  0  0  0
 23 63  1  6  0  0  0
 23 24  1  0  0  0  0
 23 21  1  0  0  0  0
 24 25  1  0  0  0  0
 24 64  1  0  0  0  0
 24 65  1  0  0  0  0
 25 26  2  0  0  0  0
 25 30  1  0  0  0  0
 26 27  1  0  0  0  0
 26 66  1  0  0  0  0
 27 28  2  0  0  0  0
 27 67  1  0  0  0  0
 28 29  1  0  0  0  0
 28 68  1  0  0  0  0
 29 30  2  0  0  0  0
 29 69  1  0  0  0  0
 30 70  1  0  0  0  0
 31 32  1  0  0  0  0
 31 71  1  0  0  0  0
 32 33  2  0  0  0  0
 32 34  1  0  0  0  0
 34 35  2  0  0  0  0
 34 40  1  0  0  0  0
 35 36  1  0  0  0  0
 35 72  1  0  0  0  0
 36 37  2  0  0  0  0
 36 73  1  0  0  0  0
 37 38  1  0  0  0  0
 37 74  1  0  0  0  0
 38 39  1  0  0  0  0
 38 40  2  0  0  0  0
 39 75  1  0  0  0  0
 40 41  1  0  0  0  0
 41 76  1  0  0  0  0
 41 77  1  0  0  0  0
 41 78  1  0  0  0  0
M  END
>  <DRUGBANK_ID>
DB02668

>  <SECONDARY_ACCESSION_NUMBERS>
EXPT01956

>  <COMMON_NAME>
JE-2147

>  <CAS_NUMBER>
186538-00-1

$$$$
