
 OpenBabel10282417233D

 65 69  0  0  1  0  0  0  0  0999 V2000
    1.1195   -0.1251    0.2758 C   0  0  0  0  0  0  0  0  0  0  0  0
    0.7156   -0.4962   -1.1018 C   0  0  0  0  0  0  0  0  0  0  0  0
    0.2744    0.4597   -1.9750 C   0  0  0  0  0  0  0  0  0  0  0  0
   -0.2523    0.0794   -3.3350 C   0  0  1  0  0  0  0  0  0  0  0  0
   -0.0755   -1.3135   -3.7625 O   0  0  0  0  0  0  0  0  0  0  0  0
    0.3603   -2.2477   -2.8516 C   0  0  0  0  0  0  0  0  0  0  0  0
    0.7406   -1.8921   -1.5539 C   0  0  0  0  0  0  0  0  0  0  0  0
    1.1615   -2.9147   -0.6805 C   0  0  0  0  0  0  0  0  0  0  0  0
    1.2176   -4.2507   -1.0769 C   0  0  0  0  0  0  0  0  0  0  0  0
    0.8429   -4.5887   -2.3660 C   0  0  0  0  0  0  0  0  0  0  0  0
    0.8999   -5.8886   -2.7818 O   0  0  0  0  0  0  0  0  0  0  0  0
    0.4080   -3.6007   -3.2575 C   0  0  0  0  0  0  0  0  0  0  0  0
   -1.7328    0.4579   -3.2591 C   0  0  0  0  0  0  0  0  0  0  0  0
   -2.2120    1.7280   -3.6367 C   0  0  0  0  0  0  0  0  0  0  0  0
   -3.5272    2.1047   -3.3106 C   0  0  0  0  0  0  0  0  0  0  0  0
   -4.4628    1.1348   -2.9181 C   0  0  0  0  0  0  0  0  0  0  0  0
   -5.7433    1.4765   -3.3320 O   0  0  0  0  0  0  0  0  0  0  0  0
   -6.6753    0.5424   -3.9576 C   0  0  0  0  0  0  0  0  0  0  0  0
   -6.5867    0.2205   -5.5826 C   0  0  0  0  0  0  0  0  0  0  0  0
   -5.3964   -0.4928   -6.1842 N   0  0  0  0  0  0  0  0  0  0  0  0
   -4.7831    0.0227   -7.4252 C   0  0  0  0  0  0  0  0  0  0  0  0
   -3.3620   -0.6238   -7.6969 C   0  0  0  0  0  0  0  0  0  0  0  0
   -2.3766   -0.4100   -6.5725 C   0  0  0  0  0  0  0  0  0  0  0  0
   -3.0821   -1.0603   -5.4408 C   0  0  0  0  0  0  0  0  0  0  0  0
   -4.3576   -0.3101   -5.2255 C   0  0  0  0  0  0  0  0  0  0  0  0
   -3.9865   -0.1332   -2.5202 C   0  0  0  0  0  0  0  0  0  0  0  0
   -2.6215   -0.4413   -2.6319 C   0  0  0  0  0  0  0  0  0  0  0  0
    0.1615    1.8852   -1.5569 C   0  0  0  0  0  0  0  0  0  0  0  0
   -1.0629    2.5466   -1.3482 C   0  0  0  0  0  0  0  0  0  0  0  0
   -1.1543    3.9305   -1.4210 C   0  0  0  0  0  0  0  0  0  0  0  0
   -0.0044    4.6488   -1.2213 C   0  0  0  0  0  0  0  0  0  0  0  0
   -0.1124    6.0006   -1.1645 O   0  0  0  0  0  0  0  0  0  0  0  0
    1.2055    3.9869   -1.0373 C   0  0  0  0  0  0  0  0  0  0  0  0
    1.3062    2.6281   -1.3301 C   0  0  0  0  0  0  0  0  0  0  0  0
    0.7035   -0.8071    1.0187 H   0  0  0  0  0  0  0  0  0  0  0  0
    0.7527    0.8585    0.5779 H   0  0  0  0  0  0  0  0  0  0  0  0
    2.2111   -0.1071    0.3172 H   0  0  0  0  0  0  0  0  0  0  0  0
    0.2648    0.6567   -4.1191 H   0  0  0  0  0  0  0  0  0  0  0  0
    1.4623   -2.6828    0.3340 H   0  0  0  0  0  0  0  0  0  0  0  0
    1.5606   -4.9935   -0.3624 H   0  0  0  0  0  0  0  0  0  0  0  0
    1.2436   -6.4401   -2.0565 H   0  0  0  0  0  0  0  0  0  0  0  0
    0.1111   -3.9021   -4.2601 H   0  0  0  0  0  0  0  0  0  0  0  0
   -1.5253    2.4794   -4.0314 H   0  0  0  0  0  0  0  0  0  0  0  0
   -3.8458    3.1299   -3.4721 H   0  0  0  0  0  0  0  0  0  0  0  0
   -6.7520   -0.3711   -3.3568 H   0  0  0  0  0  0  0  0  0  0  0  0
   -7.6519    1.0385   -3.8343 H   0  0  0  0  0  0  0  0  0  0  0  0
   -7.4375   -0.4562   -5.7674 H   0  0  0  0  0  0  0  0  0  0  0  0
   -6.7889    1.1439   -6.1311 H   0  0  0  0  0  0  0  0  0  0  0  0
   -4.6488    1.1096   -7.3459 H   0  0  0  0  0  0  0  0  0  0  0  0
   -5.4321   -0.2071   -8.2666 H   0  0  0  0  0  0  0  0  0  0  0  0
   -2.9087   -0.2500   -8.6096 H   0  0  0  0  0  0  0  0  0  0  0  0
   -3.4773   -1.7145   -7.7683 H   0  0  0  0  0  0  0  0  0  0  0  0
   -1.3996   -0.8931   -6.6808 H   0  0  0  0  0  0  0  0  0  0  0  0
   -2.1715    0.6544   -6.3651 H   0  0  0  0  0  0  0  0  0  0  0  0
   -3.2912   -2.1268   -5.4898 H   0  0  0  0  0  0  0  0  0  0  0  0
   -2.3521   -1.0267   -4.6761 H   0  0  0  0  0  0  0  0  0  0  0  0
   -4.8281   -0.7468   -4.3760 H   0  0  0  0  0  0  0  0  0  0  0  0
   -4.1807    0.7760   -5.2062 H   0  0  0  0  0  0  0  0  0  0  0  0
   -4.6234   -1.0195   -2.4709 H   0  0  0  0  0  0  0  0  0  0  0  0
   -2.2991   -1.4868   -2.5566 H   0  0  0  0  0  0  0  0  0  0  0  0
   -1.9948    1.9951   -1.2688 H   0  0  0  0  0  0  0  0  0  0  0  0
   -2.1062    4.4235   -1.6097 H   0  0  0  0  0  0  0  0  0  0  0  0
    0.7620    6.3599   -0.9512 H   0  0  0  0  0  0  0  0  0  0  0  0
    2.0834    4.5068   -0.6826 H   0  0  0  0  0  0  0  0  0  0  0  0
    2.2663    2.1233   -1.3219 H   0  0  0  0  0  0  0  0  0  0  0  0
  1  2  1  0  0  0  0
  1 35  1  0  0  0  0
  1 36  1  0  0  0  0
  1 37  1  0  0  0  0
  2  3  2  0  0  0  0
  2  7  1  0  0  0  0
  3 28  1  0  0  0  0
  4  3  1  0  0  0  0
  4  5  1  0  0  0  0
  4 38  1  6  0  0  0
  4 13  1  0  0  0  0
  5  6  1  0  0  0  0
  6  7  2  0  0  0  0
  6 12  1  0  0  0  0
  7  8  1  0  0  0  0
  8  9  2  0  0  0  0
  8 39  1  0  0  0  0
  9 10  1  0  0  0  0
  9 40  1  0  0  0  0
 10 11  1  0  0  0  0
 10 12  2  0  0  0  0
 11 41  1  0  0  0  0
 12 42  1  0  0  0  0
 13 14  2  0  0  0  0
 13 27  1  0  0  0  0
 14 15  1  0  0  0  0
 14 43  1  0  0  0  0
 15 16  2  0  0  0  0
 15 44  1  0  0  0  0
 16 17  1  0  0  0  0
 16 26  1  0  0  0  0
 17 18  1  0  0  0  0
 18 19  1  0  0  0  0
 18 45  1  0  0  0  0
 18 46  1  0  0  0  0
 19 20  1  0  0  0  0
 19 47  1  0  0  0  0
 19 48  1  0  0  0  0
 20 21  1  0  0  0  0
 20 25  1  0  0  0  0
 21 22  1  0  0  0  0
 21 49  1  0  0  0  0
 21 50  1  0  0  0  0
 22 23  1  0  0  0  0
 22 51  1  0  0  0  0
 22 52  1  0  0  0  0
 23 24  1  0  0  0  0
 23 53  1  0  0  0  0
 23 54  1  0  0  0  0
 24 25  1  0  0  0  0
 24 55  1  0  0  0  0
 24 56  1  0  0  0  0
 25 57  1  0  0  0  0
 25 58  1  0  0  0  0
 26 27  2  0  0  0  0
 26 59  1  0  0  0  0
 27 60  1  0  0  0  0
 28 29  2  0  0  0  0
 28 34  1  0  0  0  0
 29 30  1  0  0  0  0
 29 61  1  0  0  0  0
 30 31  2  0  0  0  0
 30 62  1  0  0  0  0
 31 32  1  0  0  0  0
 31 33  1  0  0  0  0
 32 63  1  0  0  0  0
 33 34  2  0  0  0  0
 33 64  1  0  0  0  0
 34 65  1  0  0  0  0
M  END
>  <DRUGBANK_ID>
DB16080

>  <COMMON_NAME>
Acolbifene

>  <CAS_NUMBER>
182167-02-8

>  <UNII>
815LJ9X0D1

>  <SYNONYMS>
Acolbifene

$$$$
