
 OpenBabel10282417223D

 64 66  0  0  1  0  0  0  0  0999 V2000
   -1.1263   -2.2716    0.5795 C   0  0  0  0  0  0  0  0  0  0  0  0
   -1.5826   -2.8370   -0.7545 C   0  0  0  0  0  0  0  0  0  0  0  0
   -1.0197   -2.0480   -1.9439 C   0  0  0  0  0  0  0  0  0  0  0  0
    0.5286   -2.0439   -2.0199 C   0  0  2  0  0  0  0  0  0  0  0  0
    0.9092   -0.6902   -2.4545 O   0  0  0  0  0  0  0  0  0  0  0  0
    1.3252   -0.4358   -3.7309 C   0  0  0  0  0  0  0  0  0  0  0  0
    0.9844   -1.2185   -4.8174 C   0  0  0  0  0  0  0  0  0  0  0  0
    1.8376   -1.2373   -5.9233 C   0  0  0  0  0  0  0  0  0  0  0  0
    1.8318   -2.4566   -6.7583 C   0  0  0  0  0  0  0  0  0  0  0  0
    2.9222   -0.3421   -6.0416 C   0  0  0  0  0  0  0  0  0  0  0  0
    3.8046   -0.4242   -7.1712 N   0  0  0  0  0  0  0  0  0  0  0  0
    3.4326   -0.7237   -8.4608 C   0  0  0  0  0  0  0  0  0  0  0  0
    4.5256   -0.5562   -9.2746 C   0  0  0  0  0  0  0  0  0  0  0  0
    5.5621   -0.2617   -8.3759 C   0  0  0  0  0  0  0  0  0  0  0  0
    5.1536   -0.2521   -7.1019 N   0  0  0  0  0  0  0  0  0  0  0  0
    4.5663   -0.5988  -10.7464 C   0  0  0  0  0  0  0  0  0  0  0  0
    4.9123    0.6023  -11.2640 F   0  0  0  0  0  0  0  0  0  0  0  0
    5.4635   -1.5120  -11.1864 F   0  0  0  0  0  0  0  0  0  0  0  0
    3.3614   -0.9326  -11.2741 F   0  0  0  0  0  0  0  0  0  0  0  0
    3.0861    0.6292   -5.0572 C   0  0  0  0  0  0  0  0  0  0  0  0
    3.9764    1.8019   -5.3134 C   0  0  0  0  0  0  0  0  0  0  0  0
    2.2915    0.5648   -3.8927 C   0  0  0  0  0  0  0  0  0  0  0  0
    1.1482   -3.2803   -2.7021 C   0  0  0  0  0  0  0  0  0  0  0  0
    2.4012   -3.1974   -3.2967 C   0  0  0  0  0  0  0  0  0  0  0  0
    2.7927   -4.1279   -4.2717 C   0  0  0  0  0  0  0  0  0  0  0  0
    2.0172   -5.2466   -4.6064 C   0  0  0  0  0  0  0  0  0  0  0  0
    0.9477   -5.4923   -3.7411 C   0  0  0  0  0  0  0  0  0  0  0  0
    0.4942   -4.5099   -2.8403 C   0  0  0  0  0  0  0  0  0  0  0  0
    2.1733   -6.1931   -5.8061 C   0  0  0  0  0  0  0  0  0  0  0  0
    1.5379   -7.2501   -5.7958 O   0  0  0  0  0  0  0  0  0  0  0  0
    2.9313   -5.9371   -6.9478 N   0  0  0  0  0  0  0  0  0  0  0  0
    3.5615   -4.7180   -7.3398 C   0  0  0  0  0  0  0  0  0  0  0  0
    5.0569   -4.5550   -7.3100 C   0  0  0  0  0  0  0  0  0  0  0  0
    5.5629   -5.2930   -8.4873 C   0  0  0  0  0  0  0  0  0  0  0  0
    6.2756   -4.5667   -9.3610 O   0  0  0  0  0  0  0  0  0  0  0  0
    5.2804   -6.4796   -8.6923 O   0  0  0  0  0  0  0  0  0  0  0  0
   -0.0393   -2.2967    0.6885 H   0  0  0  0  0  0  0  0  0  0  0  0
   -1.5310   -2.8689    1.3993 H   0  0  0  0  0  0  0  0  0  0  0  0
   -1.4559   -1.2355    0.6881 H   0  0  0  0  0  0  0  0  0  0  0  0
   -1.2945   -3.8879   -0.7875 H   0  0  0  0  0  0  0  0  0  0  0  0
   -2.6779   -2.8255   -0.8034 H   0  0  0  0  0  0  0  0  0  0  0  0
   -1.4432   -2.4394   -2.8791 H   0  0  0  0  0  0  0  0  0  0  0  0
   -1.3956   -1.0177   -1.8714 H   0  0  0  0  0  0  0  0  0  0  0  0
    0.9443   -2.0905   -1.0113 H   0  0  0  0  0  0  0  0  0  0  0  0
    0.2394   -2.0048   -4.7218 H   0  0  0  0  0  0  0  0  0  0  0  0
    1.5304   -2.3900   -7.7934 H   0  0  0  0  0  0  0  0  0  0  0  0
    2.9044   -2.6154   -6.7553 H   0  0  0  0  0  0  0  0  0  0  0  0
    1.3259   -3.3155   -6.3180 H   0  0  0  0  0  0  0  0  0  0  0  0
    2.4061   -0.9134   -8.7261 H   0  0  0  0  0  0  0  0  0  0  0  0
    6.5976   -0.0351   -8.6077 H   0  0  0  0  0  0  0  0  0  0  0  0
    5.0298    1.5190   -5.3658 H   0  0  0  0  0  0  0  0  0  0  0  0
    3.6638    2.2417   -6.2689 H   0  0  0  0  0  0  0  0  0  0  0  0
    3.8566    2.5630   -4.5432 H   0  0  0  0  0  0  0  0  0  0  0  0
    2.4426    1.2864   -3.0934 H   0  0  0  0  0  0  0  0  0  0  0  0
    3.0048   -2.2946   -3.1984 H   0  0  0  0  0  0  0  0  0  0  0  0
    3.6785   -3.8119   -4.8019 H   0  0  0  0  0  0  0  0  0  0  0  0
    0.4138   -6.4397   -3.7826 H   0  0  0  0  0  0  0  0  0  0  0  0
   -0.4233   -4.7324   -2.3119 H   0  0  0  0  0  0  0  0  0  0  0  0
    2.9065   -6.6699   -7.6534 H   0  0  0  0  0  0  0  0  0  0  0  0
    3.0947   -4.2752   -8.2318 H   0  0  0  0  0  0  0  0  0  0  0  0
    3.3033   -4.1598   -6.5000 H   0  0  0  0  0  0  0  0  0  0  0  0
    5.3054   -3.4828   -7.3648 H   0  0  0  0  0  0  0  0  0  0  0  0
    5.4764   -4.9264   -6.3708 H   0  0  0  0  0  0  0  0  0  0  0  0
    6.4296   -3.6320   -9.1241 H   0  0  0  0  0  0  0  0  0  0  0  0
  1  2  1  0  0  0  0
  1 37  1  0  0  0  0
  1 38  1  0  0  0  0
  1 39  1  0  0  0  0
  2  3  1  0  0  0  0
  2 40  1  0  0  0  0
  2 41  1  0  0  0  0
  3 42  1  0  0  0  0
  3 43  1  0  0  0  0
  4 23  1  0  0  0  0
  4 44  1  1  0  0  0
  4  5  1  0  0  0  0
  4  3  1  0  0  0  0
  5  6  1  0  0  0  0
  6  7  2  0  0  0  0
  6 22  1  0  0  0  0
  7  8  1  0  0  0  0
  7 45  1  0  0  0  0
  8  9  1  0  0  0  0
  8 10  2  0  0  0  0
  9 46  1  0  0  0  0
  9 47  1  0  0  0  0
  9 48  1  0  0  0  0
 10 11  1  0  0  0  0
 10 20  1  0  0  0  0
 11 12  1  0  0  0  0
 11 15  1  0  0  0  0
 12 13  2  0  0  0  0
 12 49  1  0  0  0  0
 13 14  1  0  0  0  0
 13 16  1  0  0  0  0
 14 15  2  0  0  0  0
 14 50  1  0  0  0  0
 16 17  1  0  0  0  0
 16 18  1  0  0  0  0
 16 19  1  0  0  0  0
 20 21  1  0  0  0  0
 20 22  2  0  0  0  0
 21 51  1  0  0  0  0
 21 52  1  0  0  0  0
 21 53  1  0  0  0  0
 22 54  1  0  0  0  0
 23 24  2  0  0  0  0
 23 28  1  0  0  0  0
 24 25  1  0  0  0  0
 24 55  1  0  0  0  0
 25 26  2  0  0  0  0
 25 56  1  0  0  0  0
 26 27  1  0  0  0  0
 26 29  1  0  0  0  0
 27 28  2  0  0  0  0
 27 57  1  0  0  0  0
 28 58  1  0  0  0  0
 29 30  2  0  0  0  0
 29 31  1  0  0  0  0
 31 32  1  0  0  0  0
 31 59  1  0  0  0  0
 32 33  1  0  0  0  0
 32 60  1  0  0  0  0
 32 61  1  0  0  0  0
 33 34  1  0  0  0  0
 33 62  1  0  0  0  0
 33 63  1  0  0  0  0
 34 35  1  0  0  0  0
 34 36  2  0  0  0  0
 35 64  1  0  0  0  0
M  END
>  <DRUGBANK_ID>
DB15065

>  <COMMON_NAME>
PF-06291874

>  <CAS_NUMBER>
1393124-08-7

>  <UNII>
CGY4I8F278

$$$$
