
 OpenBabel10282417123D

 93 95  0  0  1  0  0  0  0  0999 V2000
    7.9924    2.3210    7.9880 C   0  0  0  0  0  0  0  0  0  0  0  0
    8.6710    2.8509    9.1815 C   0  0  0  0  0  0  0  0  0  0  0  0
    8.4102    2.2451   10.7979 S   0  0  0  0  0  0  0  0  0  0  0  0
    6.8486    1.3457   10.9203 C   0  0  0  0  0  0  0  0  0  0  0  0
    5.5154    2.1575   10.7803 C   0  0  0  0  0  0  0  0  0  0  0  0
    5.2540    2.9725    9.5922 N   0  0  0  0  0  0  0  0  0  0  0  0
    4.2335    2.6571    8.6918 C   0  0  0  0  0  0  0  0  0  0  0  0
    4.3826    3.3004    7.3320 C   0  0  0  0  0  0  0  0  0  0  0  0
    4.5430    2.2175    6.2910 C   0  0  0  0  0  0  0  0  0  0  0  0
    3.4092    1.3742    6.1984 N   0  0  0  0  0  0  0  0  0  0  0  0
    2.4721    1.6489    5.2770 C   0  0  0  0  0  0  0  0  0  0  0  0
    1.3183    0.6049    5.1810 C   0  0  1  0  0  0  0  0  0  0  0  0
    0.1387    1.3852    4.5726 C   0  0  0  0  0  0  0  0  0  0  0  0
    0.3145    1.9822    3.1238 C   0  0  0  0  0  0  0  0  0  0  0  0
    0.4634    1.0191    2.0703 O   0  0  0  0  0  0  0  0  0  0  0  0
    9.4957    3.7837    9.0445 O   0  0  0  0  0  0  0  0  0  0  0  0
    3.4008    1.7786    8.9019 O   0  0  0  0  0  0  0  0  0  0  0  0
    2.5650    2.6693    4.5846 O   0  0  0  0  0  0  0  0  0  0  0  0
    1.4582   -0.6953    4.6525 O   0  0  0  0  0  0  0  0  0  0  0  0
   -1.0892    0.4725    4.5519 C   0  0  0  0  0  0  0  0  0  0  0  0
   -0.0628    2.5078    5.6192 C   0  0  0  0  0  0  0  0  0  0  0  0
    1.8501    0.0129    2.3102 P   0  0  3  0  0  0  0  0  0  0  0  0
    0.9437   -1.2261    2.2428 O   0  0  0  0  0  0  0  0  0  0  0  0
    2.2330    0.3331    0.7497 O   0  0  0  0  0  0  0  0  0  0  0  0
    7.3629    3.7393    2.0827 C   0  0  2  0  0  0  0  0  0  0  0  0
    5.8387    3.8549    2.0577 C   0  0  1  0  0  0  0  0  0  0  0  0
    5.4889    2.4863    2.5926 C   0  0  2  0  0  0  0  0  0  0  0  0
    6.4761    1.5335    2.1966 O   0  0  0  0  0  0  0  0  0  0  0  0
    7.6053    2.2684    1.6945 C   0  0  1  0  0  0  0  0  0  0  0  0
    4.1256    2.0119    2.1964 C   0  0  0  0  0  0  0  0  0  0  0  0
    7.8724    3.9555    3.4106 O   0  0  0  0  0  0  0  0  0  0  0  0
    5.2602    4.9067    2.8573 O   0  0  0  0  0  0  0  0  0  0  0  0
    5.8494    4.8858    4.4837 P   0  0  0  0  0  0  0  0  0  0  0  0
    5.5044    6.4907    4.4741 O   0  0  0  0  0  0  0  0  0  0  0  0
    4.2885    4.5658    4.8262 O   0  0  0  0  0  0  0  0  0  0  0  0
    6.3767    4.8671    5.9394 O   0  0  0  0  0  0  0  0  0  0  0  0
    8.2846    2.0192   -1.7916 C   0  0  0  0  0  0  0  0  0  0  0  0
    8.5902    2.5583   -0.5576 C   0  0  0  0  0  0  0  0  0  0  0  0
    7.6761    2.0103    0.2853 N   0  0  0  0  0  0  0  0  0  0  0  0
    6.8713    1.1761   -0.4418 C   0  0  0  0  0  0  0  0  0  0  0  0
    7.2035    1.1675   -1.7114 N   0  0  0  0  0  0  0  0  0  0  0  0
    9.0890    2.4186   -2.8623 C   0  0  0  0  0  0  0  0  0  0  0  0
   10.0896    3.2980   -2.6245 N   0  0  0  0  0  0  0  0  0  0  0  0
   10.2656    3.7499   -1.3621 C   0  0  0  0  0  0  0  0  0  0  0  0
    9.5595    3.4340   -0.2569 N   0  0  0  0  0  0  0  0  0  0  0  0
    8.8830    1.9483   -4.1364 N   0  0  0  0  0  0  0  0  0  0  0  0
    3.6150    1.1566    3.2139 O   0  0  0  0  0  0  0  0  0  0  0  0
    4.3317   -0.2158    3.6407 P   0  0  3  0  0  0  0  0  0  0  0  0
    3.6537   -1.0723    4.8187 O   0  0  0  0  0  0  0  0  0  0  0  0
    5.3116    0.4800    4.6169 O   0  0  0  0  0  0  0  0  0  0  0  0
    3.2368   -0.9933    2.5500 O   0  0  0  0  0  0  0  0  0  0  0  0
    6.9495    1.2874    7.9811 C   0  0  0  0  0  0  0  0  0  0  0  0
    8.0746    3.0496    6.8551 C   0  0  0  0  0  0  0  0  0  0  0  0
    6.9268    0.4050   10.3608 H   0  0  0  0  0  0  0  0  0  0  0  0
    6.8265    0.9117   11.9268 H   0  0  0  0  0  0  0  0  0  0  0  0
    4.6968    1.4344   10.8561 H   0  0  0  0  0  0  0  0  0  0  0  0
    5.4473    2.8391   11.6283 H   0  0  0  0  0  0  0  0  0  0  0  0
    5.9295    3.6827    9.3181 H   0  0  0  0  0  0  0  0  0  0  0  0
    3.5538    3.9569    7.0666 H   0  0  0  0  0  0  0  0  0  0  0  0
    5.2817    3.8998    7.3644 H   0  0  0  0  0  0  0  0  0  0  0  0
    4.7817    2.6207    5.3261 H   0  0  0  0  0  0  0  0  0  0  0  0
    5.3800    1.5531    6.3751 H   0  0  0  0  0  0  0  0  0  0  0  0
    3.3763    0.5351    6.7640 H   0  0  0  0  0  0  0  0  0  0  0  0
    1.1394    0.3597    6.2299 H   0  0  0  0  0  0  0  0  0  0  0  0
   -0.5843    2.5621    2.8874 H   0  0  0  0  0  0  0  0  0  0  0  0
    1.1288    2.6974    3.0011 H   0  0  0  0  0  0  0  0  0  0  0  0
    0.7126   -1.0076    4.0985 H   0  0  0  0  0  0  0  0  0  0  0  0
   -1.1769   -0.0715    5.4974 H   0  0  0  0  0  0  0  0  0  0  0  0
   -1.9880    1.0662    4.3908 H   0  0  0  0  0  0  0  0  0  0  0  0
   -1.0491   -0.2708    3.7481 H   0  0  0  0  0  0  0  0  0  0  0  0
   -0.0976    2.0603    6.6226 H   0  0  0  0  0  0  0  0  0  0  0  0
    0.7655    3.2239    5.6600 H   0  0  0  0  0  0  0  0  0  0  0  0
   -0.9541    3.0909    5.4362 H   0  0  0  0  0  0  0  0  0  0  0  0
    1.4045    0.2364    0.2358 H   0  0  0  0  0  0  0  0  0  0  0  0
    7.8298    4.4824    1.4366 H   0  0  0  0  0  0  0  0  0  0  0  0
    5.4741    3.9664    1.0293 H   0  0  0  0  0  0  0  0  0  0  0  0
    5.5809    2.5134    3.6621 H   0  0  0  0  0  0  0  0  0  0  0  0
    8.5011    1.8527    2.1707 H   0  0  0  0  0  0  0  0  0  0  0  0
    4.1446    1.5026    1.2304 H   0  0  0  0  0  0  0  0  0  0  0  0
    3.4261    2.8501    2.1224 H   0  0  0  0  0  0  0  0  0  0  0  0
    7.7582    3.1439    3.9465 H   0  0  0  0  0  0  0  0  0  0  0  0
    6.2683    7.0749    4.4046 H   0  0  0  0  0  0  0  0  0  0  0  0
    3.8354    3.8597    4.3154 H   0  0  0  0  0  0  0  0  0  0  0  0
    6.0617    0.6019   -0.0068 H   0  0  0  0  0  0  0  0  0  0  0  0
   11.0775    4.4577   -1.2197 H   0  0  0  0  0  0  0  0  0  0  0  0
    8.1549    1.2621   -4.2843 H   0  0  0  0  0  0  0  0  0  0  0  0
    9.5131    2.2324   -4.8665 H   0  0  0  0  0  0  0  0  0  0  0  0
    3.0938   -1.8002    4.4807 H   0  0  0  0  0  0  0  0  0  0  0  0
    6.1635    1.9612    7.7651 H   0  0  0  0  0  0  0  0  0  0  0  0
    6.9473    0.5142    7.2199 H   0  0  0  0  0  0  0  0  0  0  0  0
    6.4529    0.8895    8.8299 H   0  0  0  0  0  0  0  0  0  0  0  0
    8.6158    3.9884    6.7632 H   0  0  0  0  0  0  0  0  0  0  0  0
    7.3965    2.8169    6.0386 H   0  0  0  0  0  0  0  0  0  0  0  0
  1  2  1  0  0  0  0
  1 52  1  0  0  0  0
  1 53  2  0  0  0  0
  2  3  1  0  0  0  0
  2 16  2  0  0  0  0
  3  4  1  0  0  0  0
  4  5  1  0  0  0  0
  4 54  1  0  0  0  0
  4 55  1  0  0  0  0
  5  6  1  0  0  0  0
  5 56  1  0  0  0  0
  5 57  1  0  0  0  0
  6  7  1  0  0  0  0
  6 58  1  0  0  0  0
  7  8  1  0  0  0  0
  7 17  2  0  0  0  0
  8  9  1  0  0  0  0
  8 59  1  0  0  0  0
  8 60  1  0  0  0  0
  9 10  1  0  0  0  0
  9 61  1  0  0  0  0
  9 62  1  0  0  0  0
 10 11  1  0  0  0  0
 10 63  1  0  0  0  0
 11 12  1  0  0  0  0
 11 18  2  0  0  0  0
 12 13  1  0  0  0  0
 12 19  1  0  0  0  0
 12 64  1  1  0  0  0
 13 14  1  0  0  0  0
 13 20  1  0  0  0  0
 13 21  1  0  0  0  0
 14 15  1  0  0  0  0
 14 65  1  0  0  0  0
 14 66  1  0  0  0  0
 15 22  1  0  0  0  0
 19 67  1  0  0  0  0
 20 68  1  0  0  0  0
 20 69  1  0  0  0  0
 20 70  1  0  0  0  0
 21 71  1  0  0  0  0
 21 72  1  0  0  0  0
 21 73  1  0  0  0  0
 22 23  2  0  0  0  0
 22 24  1  0  0  0  0
 22 51  1  0  0  0  0
 24 74  1  0  0  0  0
 25 26  1  0  0  0  0
 25 29  1  0  0  0  0
 25 31  1  0  0  0  0
 25 75  1  6  0  0  0
 26 27  1  0  0  0  0
 26 32  1  0  0  0  0
 26 76  1  6  0  0  0
 27 28  1  0  0  0  0
 27 77  1  1  0  0  0
 27 30  1  0  0  0  0
 28 29  1  0  0  0  0
 29 39  1  0  0  0  0
 29 78  1  1  0  0  0
 30 47  1  0  0  0  0
 30 79  1  0  0  0  0
 30 80  1  0  0  0  0
 31 81  1  0  0  0  0
 32 33  1  0  0  0  0
 33 34  1  0  0  0  0
 33 35  1  0  0  0  0
 33 36  2  0  0  0  0
 34 82  1  0  0  0  0
 35 83  1  0  0  0  0
 37 38  2  0  0  0  0
 37 41  1  0  0  0  0
 37 42  1  0  0  0  0
 38 39  1  0  0  0  0
 38 45  1  0  0  0  0
 39 40  1  0  0  0  0
 40 41  2  0  0  0  0
 40 84  1  0  0  0  0
 42 43  2  0  0  0  0
 42 46  1  0  0  0  0
 43 44  1  0  0  0  0
 44 45  2  0  0  0  0
 44 85  1  0  0  0  0
 46 86  1  0  0  0  0
 46 87  1  0  0  0  0
 47 48  1  0  0  0  0
 48 49  1  0  0  0  0
 48 50  2  0  0  0  0
 48 51  1  0  0  0  0
 49 88  1  0  0  0  0
 52 89  1  0  0  0  0
 52 90  1  0  0  0  0
 52 91  1  0  0  0  0
 53 92  1  0  0  0  0
 53 93  1  0  0  0  0
M  END
>  <DRUGBANK_ID>
DB01675

>  <SECONDARY_ACCESSION_NUMBERS>
EXPT00129

>  <COMMON_NAME>
Methacrylyl-Coenzyme A

>  <CAS_NUMBER>
6008-91-9

>  <UNII>
FZ43RKZ3NL

$$$$
