
 OpenBabel10282417193D

 69 70  0  0  1  0  0  0  0  0999 V2000
   -0.9361   -2.4288   -1.7442 C   0  0  0  0  0  0  0  0  0  0  0  0
   -1.5059   -0.9232   -0.8233 C   0  0  0  0  0  0  0  0  0  0  0  0
   -3.7382   -0.3460   -0.7705 C   0  0  0  0  0  0  0  0  0  0  0  0
   -0.9736   -1.2394    0.6349 C   0  0  2  0  0  0  0  0  0  0  0  0
    0.6258   -1.3575    0.4865 C   0  0  0  0  0  0  0  0  0  0  0  0
    1.3815   -0.1712   -0.2509 C   0  0  0  0  0  0  0  0  0  0  0  0
    1.1941    1.2259    0.3206 C   0  0  0  0  0  0  0  0  0  0  0  0
    1.6485    1.4662    1.7133 N   0  0  0  0  0  0  0  0  0  0  0  0
    1.1241    2.6924    2.3321 C   0  0  0  0  0  0  0  0  0  0  0  0
    1.1288    0.4208    2.5129 C   0  0  0  0  0  0  0  0  0  0  0  0
   -0.2854    0.2536    2.0015 C   0  0  0  0  0  0  0  0  0  0  0  0
   -1.8239    0.3947    0.5069 C   0  0  0  0  0  0  0  0  0  0  0  0
   -2.9015   -1.1986    0.6329 C   0  0  0  0  0  0  0  0  0  0  0  0
   -2.9922   -2.0045   -1.0472 C   0  0  0  0  0  0  0  0  0  0  0  0
   -2.6444   -0.5504   -2.3012 C   0  0  0  0  0  0  0  0  0  0  0  0
   -2.4862    1.1372   -1.6551 C   0  0  0  0  0  0  0  0  0  0  0  0
   -2.2135    1.4717   -0.3374 C   0  0  0  0  0  0  0  0  0  0  0  0
   -3.3284    2.3554   -1.8592 C   0  0  0  0  0  0  0  0  0  0  0  0
   -3.3956    3.4335   -1.2702 O   0  0  0  0  0  0  0  0  0  0  0  0
   -4.1017    1.9033   -2.8165 O   0  0  0  0  0  0  0  0  0  0  0  0
   -4.7632    3.0161   -3.3121 C   0  0  0  0  0  0  0  0  0  0  0  0
   -1.4802   -2.5475    1.2203 C   0  0  0  0  0  0  0  0  0  0  0  0
   -1.9006   -3.6326    1.7058 N   0  0  0  0  0  0  0  0  0  0  0  0
   -2.0250   -0.0928    2.1800 C   0  0  0  0  0  0  0  0  0  0  0  0
   -2.7177   -0.3325    3.2869 C   0  0  0  0  0  0  0  0  0  0  0  0
   -2.7180    0.8987    3.9162 C   0  0  0  0  0  0  0  0  0  0  0  0
   -2.4339    2.4075    3.3948 C   0  0  0  0  0  0  0  0  0  0  0  0
   -2.0199    2.9018    2.2361 C   0  0  0  0  0  0  0  0  0  0  0  0
   -1.6847    1.7398    1.8503 C   0  0  0  0  0  0  0  0  0  0  0  0
   -1.3843    3.8877    1.5853 O   0  0  0  0  0  0  0  0  0  0  0  0
   -1.0126    4.8473    2.5160 C   0  0  0  0  0  0  0  0  0  0  0  0
   -2.2158    3.3956    4.2785 O   0  0  0  0  0  0  0  0  0  0  0  0
   -2.7403    3.0371    5.4875 C   0  0  0  0  0  0  0  0  0  0  0  0
   -1.3092   -3.3716   -1.2882 H   0  0  0  0  0  0  0  0  0  0  0  0
    0.1380   -2.5875   -1.7337 H   0  0  0  0  0  0  0  0  0  0  0  0
   -1.3670   -2.3728   -2.7540 H   0  0  0  0  0  0  0  0  0  0  0  0
   -0.8071   -0.1925   -1.3362 H   0  0  0  0  0  0  0  0  0  0  0  0
   -4.5051   -1.2877   -0.3168 H   0  0  0  0  0  0  0  0  0  0  0  0
   -4.1378    0.3347   -0.0485 H   0  0  0  0  0  0  0  0  0  0  0  0
   -4.3448   -0.7547   -1.7330 H   0  0  0  0  0  0  0  0  0  0  0  0
    1.0437   -1.6437    1.4325 H   0  0  0  0  0  0  0  0  0  0  0  0
    0.9063   -2.2827    0.0001 H   0  0  0  0  0  0  0  0  0  0  0  0
    2.4417   -0.2986   -0.2698 H   0  0  0  0  0  0  0  0  0  0  0  0
    1.0278   -0.1606   -1.2883 H   0  0  0  0  0  0  0  0  0  0  0  0
    1.1629    2.1059   -0.3278 H   0  0  0  0  0  0  0  0  0  0  0  0
    0.1718    1.0274    0.2604 H   0  0  0  0  0  0  0  0  0  0  0  0
    0.1055    2.6329    2.6239 H   0  0  0  0  0  0  0  0  0  0  0  0
    1.3722    2.8414    3.3881 H   0  0  0  0  0  0  0  0  0  0  0  0
    1.1593    3.5555    1.6736 H   0  0  0  0  0  0  0  0  0  0  0  0
    1.5182   -0.5779    2.5785 H   0  0  0  0  0  0  0  0  0  0  0  0
    1.1215    0.5815    3.6328 H   0  0  0  0  0  0  0  0  0  0  0  0
   -0.4731   -0.6569    2.8965 H   0  0  0  0  0  0  0  0  0  0  0  0
   -0.5233    0.9089    2.9648 H   0  0  0  0  0  0  0  0  0  0  0  0
   -2.9201   -1.6793    1.7425 H   0  0  0  0  0  0  0  0  0  0  0  0
   -3.1670   -3.0180   -1.1844 H   0  0  0  0  0  0  0  0  0  0  0  0
   -2.8434   -0.4609   -3.2995 H   0  0  0  0  0  0  0  0  0  0  0  0
   -2.3220    2.5003    0.0217 H   0  0  0  0  0  0  0  0  0  0  0  0
   -5.4763    3.3935   -2.5743 H   0  0  0  0  0  0  0  0  0  0  0  0
   -4.0221    3.7805   -3.5775 H   0  0  0  0  0  0  0  0  0  0  0  0
   -5.2555    2.6442   -4.1925 H   0  0  0  0  0  0  0  0  0  0  0  0
   -2.6914   -1.3069    3.7083 H   0  0  0  0  0  0  0  0  0  0  0  0
   -2.4093    0.7096    4.9442 H   0  0  0  0  0  0  0  0  0  0  0  0
   -0.8675    2.0782    0.8735 H   0  0  0  0  0  0  0  0  0  0  0  0
   -1.9795    5.1453    2.8797 H   0  0  0  0  0  0  0  0  0  0  0  0
   -0.3687    4.4555    3.3203 H   0  0  0  0  0  0  0  0  0  0  0  0
   -0.4740    5.6284    2.0022 H   0  0  0  0  0  0  0  0  0  0  0  0
   -3.6824    2.4932    5.3602 H   0  0  0  0  0  0  0  0  0  0  0  0
   -1.9639    2.4598    5.9877 H   0  0  0  0  0  0  0  0  0  0  0  0
   -2.9102    3.9993    5.9228 H   0  0  0  0  0  0  0  0  0  0  0  0
  1  2  1  0  0  0  0
  1 34  1  0  0  0  0
  1 35  1  0  0  0  0
  1 36  1  0  0  0  0
  2  3  1  0  0  0  0
  2 37  1  0  0  0  0
  3 38  1  0  0  0  0
  3 39  1  0  0  0  0
  3 40  1  0  0  0  0
  4 22  1  1  0  0  0
  4 24  1  0  0  0  0
  4  5  1  0  0  0  0
  4  2  1  0  0  0  0
  5  6  1  0  0  0  0
  5 41  1  0  0  0  0
  5 42  1  0  0  0  0
  6  7  1  0  0  0  0
  6 43  1  0  0  0  0
  6 44  1  0  0  0  0
  7  8  1  0  0  0  0
  7 45  1  0  0  0  0
  7 46  1  0  0  0  0
  8  9  1  0  0  0  0
  8 10  1  0  0  0  0
  9 47  1  0  0  0  0
  9 48  1  0  0  0  0
  9 49  1  0  0  0  0
 10 11  1  0  0  0  0
 10 50  1  0  0  0  0
 10 51  1  0  0  0  0
 11 12  1  0  0  0  0
 11 52  1  0  0  0  0
 11 53  1  0  0  0  0
 12 13  2  0  0  0  0
 12 17  1  0  0  0  0
 13 14  1  0  0  0  0
 13 54  1  0  0  0  0
 14 15  2  0  0  0  0
 14 55  1  0  0  0  0
 15 16  1  0  0  0  0
 15 56  1  0  0  0  0
 16 17  2  0  0  0  0
 16 18  1  0  0  0  0
 17 57  1  0  0  0  0
 18 19  2  0  0  0  0
 18 20  1  0  0  0  0
 20 21  1  0  0  0  0
 21 58  1  0  0  0  0
 21 59  1  0  0  0  0
 21 60  1  0  0  0  0
 22 23  3  0  0  0  0
 24 25  2  0  0  0  0
 24 29  1  0  0  0  0
 25 26  1  0  0  0  0
 25 61  1  0  0  0  0
 26 27  2  0  0  0  0
 26 62  1  0  0  0  0
 27 28  1  0  0  0  0
 27 32  1  0  0  0  0
 28 29  2  0  0  0  0
 28 30  1  0  0  0  0
 29 63  1  0  0  0  0
 30 31  1  0  0  0  0
 31 64  1  0  0  0  0
 31 65  1  0  0  0  0
 31 66  1  0  0  0  0
 32 33  1  0  0  0  0
 33 67  1  0  0  0  0
 33 68  1  0  0  0  0
 33 69  1  0  0  0  0
M  END
>  <DRUGBANK_ID>
DB12605

>  <COMMON_NAME>
Etripamil

>  <CAS_NUMBER>
1593673-23-4

>  <UNII>
S82A18Y42P

>  <SYNONYMS>
Etripamil

$$$$
