
 OpenBabel10282417193D

 39 42  0  0  0  0  0  0  0  0999 V2000
   -0.3407   -0.7489    0.0650 C   0  0  0  0  0  0  0  0  0  0  0  0
   -0.0612    0.5700    0.0250 C   0  0  0  0  0  0  0  0  0  0  0  0
    0.3008   -1.8671    0.3582 C   0  0  0  0  0  0  0  0  0  0  0  0
   -1.4942   -1.2391   -0.1537 C   0  0  0  0  0  0  0  0  0  0  0  0
    1.2818    0.7130    0.0600 N   0  0  0  0  0  0  0  0  0  0  0  0
   -1.0376    1.4628   -0.0440 N   0  0  0  0  0  0  0  0  0  0  0  0
    1.6458   -0.9304    0.1135 C   0  0  0  0  0  0  0  0  0  0  0  0
   -1.1120   -3.4955    0.5274 C   0  0  0  0  0  0  0  0  0  0  0  0
   -1.1719   -2.6654   -0.6118 N   0  0  0  0  0  0  0  0  0  0  0  0
   -2.5593   -0.4807   -0.0347 N   0  0  0  0  0  0  0  0  0  0  0  0
    1.9583    2.1920   -0.0391 C   0  0  2  0  0  0  0  0  0  0  0  0
   -2.2495    0.8282   -0.0065 C   0  0  0  0  0  0  0  0  0  0  0  0
   -2.2059   -3.0658   -0.0285 N   0  0  0  0  0  0  0  0  0  0  0  0
   -2.2170   -4.6902    0.1774 N   0  0  0  0  0  0  0  0  0  0  0  0
    0.5565   -3.8088   -0.2538 C   0  0  0  0  0  0  0  0  0  0  0  0
    1.5979    3.1100    1.1023 O   0  0  0  0  0  0  0  0  0  0  0  0
    1.5544    3.0844   -1.2855 C   0  0  1  0  0  0  0  0  0  0  0  0
    1.2656    4.4901    0.6521 C   0  0  1  0  0  0  0  0  0  0  0  0
    1.5715    4.5717   -0.8365 C   0  0  1  0  0  0  0  0  0  0  0  0
    2.4047    2.9003   -2.4169 O   0  0  0  0  0  0  0  0  0  0  0  0
   -0.2110    4.8273    0.9467 C   0  0  0  0  0  0  0  0  0  0  0  0
    2.8468    5.1883   -1.0822 O   0  0  0  0  0  0  0  0  0  0  0  0
   -1.1185    3.9746    0.2859 O   0  0  0  0  0  0  0  0  0  0  0  0
    2.7516   -0.9221   -0.0066 H   0  0  0  0  0  0  0  0  0  0  0  0
    3.0562    2.1154    0.0114 H   0  0  0  0  0  0  0  0  0  0  0  0
   -3.1236    1.4404   -0.0025 H   0  0  0  0  0  0  0  0  0  0  0  0
   -3.2116   -4.3770    0.0009 H   0  0  0  0  0  0  0  0  0  0  0  0
   -2.2982   -5.7111    0.0274 H   0  0  0  0  0  0  0  0  0  0  0  0
    0.4947   -4.4026    0.8568 H   0  0  0  0  0  0  0  0  0  0  0  0
    0.4822   -4.4770   -1.0325 H   0  0  0  0  0  0  0  0  0  0  0  0
    1.5766   -3.3795   -0.0736 H   0  0  0  0  0  0  0  0  0  0  0  0
    0.5410    2.8468   -1.6024 H   0  0  0  0  0  0  0  0  0  0  0  0
    1.8637    5.2335    1.2154 H   0  0  0  0  0  0  0  0  0  0  0  0
    0.8499    5.2205   -1.3654 H   0  0  0  0  0  0  0  0  0  0  0  0
    3.2682    3.3088   -2.2257 H   0  0  0  0  0  0  0  0  0  0  0  0
   -0.4107    4.7470    2.0194 H   0  0  0  0  0  0  0  0  0  0  0  0
   -0.4740    5.8432    0.6290 H   0  0  0  0  0  0  0  0  0  0  0  0
    3.5328    4.6938   -0.6107 H   0  0  0  0  0  0  0  0  0  0  0  0
   -0.9048    3.9054   -0.6570 H   0  0  0  0  0  0  0  0  0  0  0  0
  1  2  2  0  0  0  0
  1  3  1  0  0  0  0
  1  4  1  0  0  0  0
  2  5  1  0  0  0  0
  2  6  1  0  0  0  0
  3  7  2  0  0  0  0
  3  8  1  0  0  0  0
  4  9  1  0  0  0  0
  4 10  2  0  0  0  0
  5  7  1  0  0  0  0
  6 12  2  0  0  0  0
  7 24  1  0  0  0  0
  8 13  2  0  0  0  0
  8 14  1  0  0  0  0
  9 15  1  0  0  0  0
  9 13  1  0  0  0  0
 10 12  1  0  0  0  0
 11  5  1  0  0  0  0
 11 16  1  0  0  0  0
 11 17  1  0  0  0  0
 11 25  1  6  0  0  0
 12 26  1  0  0  0  0
 14 27  1  0  0  0  0
 14 28  1  0  0  0  0
 15 29  1  0  0  0  0
 15 30  1  0  0  0  0
 15 31  1  0  0  0  0
 16 18  1  0  0  0  0
 17 19  1  0  0  0  0
 17 20  1  0  0  0  0
 17 32  1  6  0  0  0
 18 19  1  0  0  0  0
 18 33  1  1  0  0  0
 18 21  1  0  0  0  0
 19 22  1  0  0  0  0
 19 34  1  6  0  0  0
 20 35  1  0  0  0  0
 21 23  1  0  0  0  0
 21 36  1  0  0  0  0
 21 37  1  0  0  0  0
 22 38  1  0  0  0  0
 23 39  1  0  0  0  0
M  END
>  <DRUGBANK_ID>
DB12405

>  <COMMON_NAME>
Triciribine

>  <CAS_NUMBER>
35943-35-2

>  <UNII>
2421HMY9N6

>  <SYNONYMS>
Pentaazacentopthylene; TCN; Triciribina; Triciribine; Triciribinum

$$$$
