
 OpenBabel10282417203D

 89 93  0  0  1  0  0  0  0  0999 V2000
    1.2000   -3.3856    0.3339 C   0  0  0  0  0  0  0  0  0  0  0  0
   -4.0184   -2.6385   -3.5431 C   0  0  0  0  0  0  0  0  0  0  0  0
    1.6038   -5.3737   -3.9658 C   0  0  0  0  0  0  0  0  0  0  0  0
    2.9313   -6.0262   -4.2795 C   0  0  0  0  0  0  0  0  0  0  0  0
    1.1803   -4.3100   -5.0260 C   0  0  0  0  0  0  0  0  0  0  0  0
    4.0614   -4.0039   -5.2262 C   0  0  0  0  0  0  0  0  0  0  0  0
    4.9281   -4.9265   -3.2191 C   0  0  0  0  0  0  0  0  0  0  0  0
    1.6074   -0.5666   -0.9520 C   0  0  0  0  0  0  0  0  0  0  0  0
    4.9636   -2.9718   -5.1453 C   0  0  0  0  0  0  0  0  0  0  0  0
    6.0048   -4.0396   -3.3197 C   0  0  0  0  0  0  0  0  0  0  0  0
    0.2385   -0.2915   -1.6112 C   0  0  0  0  0  0  0  0  0  0  0  0
    0.7927   -1.5238    3.2859 C   0  0  0  0  0  0  0  0  0  0  0  0
   -0.9189   -2.1745   -3.6736 C   0  0  0  0  0  0  0  0  0  0  0  0
    0.2212   -2.2370    2.3022 C   0  0  0  0  0  0  0  0  0  0  0  0
   -0.7891   -3.6321   -3.0789 C   0  0  0  0  0  0  0  0  0  0  0  0
    9.6793   -2.7169   -4.3182 C   0  0  0  0  0  0  0  0  0  0  0  0
    7.4437   -2.0617   -7.1686 C   0  0  0  0  0  0  0  0  0  0  0  0
    8.3572   -2.2465   -3.7026 C   0  0  0  0  0  0  0  0  0  0  0  0
    7.1738   -1.3943   -5.7935 C   0  0  0  0  0  0  0  0  0  0  0  0
    1.5245    0.0671    1.4218 C   0  0  0  0  0  0  0  0  0  0  0  0
   -3.1648   -3.1676   -1.0958 C   0  0  0  0  0  0  0  0  0  0  0  0
   -1.6112   -4.1199   -6.0683 C   0  0  0  0  0  0  0  0  0  0  0  0
    4.0060   -4.9849   -4.2478 C   0  0  0  0  0  0  0  0  0  0  0  0
    1.2770   -0.8480    0.4741 C   0  0  0  0  0  0  0  0  0  0  0  0
    6.0843   -3.0737   -4.3357 C   0  0  0  0  0  0  0  0  0  0  0  0
    0.5897   -0.1831    2.5247 C   0  0  0  0  0  0  0  0  0  0  0  0
   -0.6495   -1.5518   -1.4789 C   0  0  1  0  0  0  0  0  0  0  0  0
   -1.8030   -1.6975   -2.5712 C   0  0  1  0  0  0  0  0  0  0  0  0
   -1.9193   -3.2987   -0.1178 C   0  0  1  0  0  0  0  0  0  0  0  0
   -2.0675   -4.8190   -4.7693 C   0  0  0  0  0  0  0  0  0  0  0  0
    0.8032   -4.8539   -6.3643 C   0  0  0  0  0  0  0  0  0  0  0  0
   -0.9909   -2.0142   -0.0570 C   0  0  2  0  0  0  0  0  0  0  0  0
    0.3951   -2.1142    0.7673 C   0  0  2  0  0  0  0  0  0  0  0  0
   -2.8354   -2.9387   -2.6072 C   0  0  2  0  0  0  0  0  0  0  0  0
   -2.1357   -4.1782   -3.2941 C   0  0  2  0  0  0  0  0  0  0  0  0
   10.4332   -1.5395   -5.4253 Cl  0  0  0  0  0  0  0  0  0  0  0  0
    6.1906   -3.0884   -7.9200 Cl  0  0  0  0  0  0  0  0  0  0  0  0
    7.2048   -2.3034   -4.6183 N   0  0  0  0  0  0  0  0  0  0  0  0
   -0.3623    0.5514    2.7434 O   0  0  0  0  0  0  0  0  0  0  0  0
   -2.4130   -3.5822    1.1892 O   0  0  0  0  0  0  0  0  0  0  0  0
   -2.2365   -6.0534   -4.8457 O   0  0  0  0  0  0  0  0  0  0  0  0
    1.6450   -5.3563   -7.0989 O   0  0  0  0  0  0  0  0  0  0  0  0
   -2.3622   -5.3464   -2.4828 O   0  0  0  0  0  0  0  0  0  0  0  0
   -0.4941   -4.7510   -6.7614 O   0  0  0  0  0  0  0  0  0  0  0  0
    0.1704   -2.2153   -1.7691 H   0  0  0  0  0  0  0  0  0  0  0  0
   -2.3285   -0.7419   -2.6994 H   0  0  0  0  0  0  0  0  0  0  0  0
   -1.3550   -4.1973   -0.3927 H   0  0  0  0  0  0  0  0  0  0  0  0
   -1.5844   -1.2174    0.4000 H   0  0  0  0  0  0  0  0  0  0  0  0
    2.2451   -3.3542    0.6681 H   0  0  0  0  0  0  0  0  0  0  0  0
    1.2510   -3.5220   -0.7502 H   0  0  0  0  0  0  0  0  0  0  0  0
    0.7493   -4.3041    0.7265 H   0  0  0  0  0  0  0  0  0  0  0  0
   -4.3116   -3.5254   -4.1226 H   0  0  0  0  0  0  0  0  0  0  0  0
   -4.9000   -2.2948   -3.0073 H   0  0  0  0  0  0  0  0  0  0  0  0
   -3.7420   -1.8852   -4.2936 H   0  0  0  0  0  0  0  0  0  0  0  0
    1.7163   -4.9142   -2.9641 H   0  0  0  0  0  0  0  0  0  0  0  0
    0.8363   -6.1535   -3.8575 H   0  0  0  0  0  0  0  0  0  0  0  0
    3.1415   -6.8092   -3.5405 H   0  0  0  0  0  0  0  0  0  0  0  0
    2.8914   -6.5170   -5.2531 H   0  0  0  0  0  0  0  0  0  0  0  0
    1.8446   -3.4485   -5.0170 H   0  0  0  0  0  0  0  0  0  0  0  0
    0.3259   -3.7172   -4.8202 H   0  0  0  0  0  0  0  0  0  0  0  0
    3.3930   -3.9790   -6.0802 H   0  0  0  0  0  0  0  0  0  0  0  0
    4.8623   -5.6120   -2.3796 H   0  0  0  0  0  0  0  0  0  0  0  0
    2.2726    0.2889   -1.1282 H   0  0  0  0  0  0  0  0  0  0  0  0
    2.1289   -1.4460   -1.3628 H   0  0  0  0  0  0  0  0  0  0  0  0
    4.8203   -2.1755   -5.8650 H   0  0  0  0  0  0  0  0  0  0  0  0
    6.7880   -4.1832   -2.5883 H   0  0  0  0  0  0  0  0  0  0  0  0
    0.4611   -0.0262   -2.6493 H   0  0  0  0  0  0  0  0  0  0  0  0
   -0.2855    0.5617   -1.1799 H   0  0  0  0  0  0  0  0  0  0  0  0
    1.3450   -0.8352    3.9149 H   0  0  0  0  0  0  0  0  0  0  0  0
   -1.4276   -2.1406   -4.6342 H   0  0  0  0  0  0  0  0  0  0  0  0
   -0.1342   -1.4216   -3.8187 H   0  0  0  0  0  0  0  0  0  0  0  0
   -0.2890   -3.1326    2.6461 H   0  0  0  0  0  0  0  0  0  0  0  0
   -0.0844   -4.3625   -3.3190 H   0  0  0  0  0  0  0  0  0  0  0  0
   -0.5829   -3.7327   -2.0210 H   0  0  0  0  0  0  0  0  0  0  0  0
   10.4107   -2.8645   -3.5189 H   0  0  0  0  0  0  0  0  0  0  0  0
    9.5559   -3.6633   -4.8530 H   0  0  0  0  0  0  0  0  0  0  0  0
    7.5918   -1.2672   -7.9027 H   0  0  0  0  0  0  0  0  0  0  0  0
    8.3363   -2.6843   -7.1310 H   0  0  0  0  0  0  0  0  0  0  0  0
    8.4383   -1.2394   -3.2798 H   0  0  0  0  0  0  0  0  0  0  0  0
    8.2090   -2.8925   -2.8336 H   0  0  0  0  0  0  0  0  0  0  0  0
    6.2647   -0.7797   -5.8018 H   0  0  0  0  0  0  0  0  0  0  0  0
    7.9523   -0.6390   -5.6554 H   0  0  0  0  0  0  0  0  0  0  0  0
    2.0205    1.0223    1.3178 H   0  0  0  0  0  0  0  0  0  0  0  0
   -3.8055   -4.0538   -0.9909 H   0  0  0  0  0  0  0  0  0  0  0  0
   -3.7712   -2.3271   -0.7421 H   0  0  0  0  0  0  0  0  0  0  0  0
   -2.4695   -4.2308   -6.7436 H   0  0  0  0  0  0  0  0  0  0  0  0
   -1.4508   -3.0520   -6.0976 H   0  0  0  0  0  0  0  0  0  0  0  0
   -1.9231   -4.3616    1.5090 H   0  0  0  0  0  0  0  0  0  0  0  0
   -2.6936   -6.0468   -3.0942 H   0  0  0  0  0  0  0  0  0  0  0  0
  1 49  1  0  0  0  0
  1 50  1  0  0  0  0
  1 51  1  0  0  0  0
  2 52  1  0  0  0  0
  2 53  1  0  0  0  0
  2 54  1  0  0  0  0
  3 55  1  0  0  0  0
  3 56  1  0  0  0  0
  4  3  1  0  0  0  0
  4 57  1  0  0  0  0
  4 58  1  0  0  0  0
  5  3  1  0  0  0  0
  5 59  1  0  0  0  0
  5 60  1  0  0  0  0
  6 61  1  0  0  0  0
  7 62  1  0  0  0  0
  8 63  1  0  0  0  0
  8 64  1  0  0  0  0
  9  6  1  0  0  0  0
  9 65  1  0  0  0  0
 10  7  2  0  0  0  0
 10 66  1  0  0  0  0
 11  8  1  0  0  0  0
 11 67  1  0  0  0  0
 11 68  1  0  0  0  0
 12 69  1  0  0  0  0
 13 70  1  0  0  0  0
 13 71  1  0  0  0  0
 14 12  2  0  0  0  0
 14 72  1  0  0  0  0
 15 13  1  0  0  0  0
 15 73  1  0  0  0  0
 15 74  1  0  0  0  0
 16 75  1  0  0  0  0
 16 76  1  0  0  0  0
 17 77  1  0  0  0  0
 17 78  1  0  0  0  0
 18 16  1  0  0  0  0
 18 79  1  0  0  0  0
 18 80  1  0  0  0  0
 19 17  1  0  0  0  0
 19 81  1  0  0  0  0
 19 82  1  0  0  0  0
 20 83  1  0  0  0  0
 21 84  1  0  0  0  0
 21 85  1  0  0  0  0
 22 86  1  0  0  0  0
 22 87  1  0  0  0  0
 23  4  1  0  0  0  0
 23  6  2  0  0  0  0
 23  7  1  0  0  0  0
 24  8  1  0  0  0  0
 24 20  2  0  0  0  0
 25  9  2  0  0  0  0
 25 10  1  0  0  0  0
 26 12  1  0  0  0  0
 26 20  1  0  0  0  0
 27 11  1  0  0  0  0
 27 45  1  1  0  0  0
 28 13  1  0  0  0  0
 28 27  1  0  0  0  0
 28 46  1  1  0  0  0
 29 21  1  0  0  0  0
 29 47  1  6  0  0  0
 29 40  1  0  0  0  0
 30 22  1  0  0  0  0
 31  5  1  0  0  0  0
 32 27  1  0  0  0  0
 32 29  1  0  0  0  0
 32 48  1  6  0  0  0
 33 14  1  0  0  0  0
 33 24  1  0  0  0  0
 33 32  1  0  0  0  0
 33  1  1  1  0  0  0
 34 21  1  0  0  0  0
 34 28  1  0  0  0  0
 34  2  1  6  0  0  0
 35 15  1  0  0  0  0
 35 34  1  0  0  0  0
 35 30  1  6  0  0  0
 35 43  1  0  0  0  0
 36 16  1  0  0  0  0
 37 17  1  0  0  0  0
 38 18  1  0  0  0  0
 38 19  1  0  0  0  0
 38 25  1  0  0  0  0
 39 26  2  0  0  0  0
 40 88  1  0  0  0  0
 41 30  2  0  0  0  0
 42 31  2  0  0  0  0
 43 89  1  0  0  0  0
 44 22  1  0  0  0  0
 44 31  1  0  0  0  0
M  END
>  <DRUGBANK_ID>
DB12832

>  <COMMON_NAME>
Prednimustine

>  <CAS_NUMBER>
29069-24-7

>  <UNII>
9403SIO2S8

>  <SYNONYMS>
Prednimustine

$$$$
