
 OpenBabel10282417133D

 22 21  0  0  0  0  0  0  0  0999 V2000
    2.1753   -1.9738   -0.0378 O   0  0  0  0  0  0  0  0  0  0  0  0
    3.3407   -1.9932   -0.8495 C   0  0  0  0  0  0  0  0  0  0  0  0
    3.0163   -1.6118   -2.2873 C   0  0  0  0  0  0  0  0  0  0  0  0
    2.4914   -0.1653   -2.4815 C   0  0  2  0  0  0  0  0  0  0  0  0
    0.9412   -0.1377   -2.5332 C   0  0  0  0  0  0  0  0  0  0  0  0
    0.3910    0.6533   -3.6939 C   0  0  0  0  0  0  0  0  0  0  0  0
   -0.3327   -0.0734   -4.5747 O   0  0  0  0  0  0  0  0  0  0  0  0
    3.0775    0.2908   -3.7084 O   0  0  0  0  0  0  0  0  0  0  0  0
    3.0181    0.8069   -1.4064 C   0  0  0  0  0  0  0  0  0  0  0  0
    0.5867    1.8503   -3.8588 O   0  0  0  0  0  0  0  0  0  0  0  0
    1.8127   -1.0746   -0.0039 H   0  0  0  0  0  0  0  0  0  0  0  0
    4.1154   -1.3416   -0.4289 H   0  0  0  0  0  0  0  0  0  0  0  0
    3.7377   -3.0108   -0.8174 H   0  0  0  0  0  0  0  0  0  0  0  0
    3.9129   -1.7666   -2.9022 H   0  0  0  0  0  0  0  0  0  0  0  0
    2.2800   -2.3263   -2.6803 H   0  0  0  0  0  0  0  0  0  0  0  0
    0.5256   -1.1526   -2.5652 H   0  0  0  0  0  0  0  0  0  0  0  0
    0.5216    0.2905   -1.6142 H   0  0  0  0  0  0  0  0  0  0  0  0
   -0.4898   -1.0093   -4.3484 H   0  0  0  0  0  0  0  0  0  0  0  0
    2.6819   -0.1635   -4.4704 H   0  0  0  0  0  0  0  0  0  0  0  0
    2.6774    1.8299   -1.5890 H   0  0  0  0  0  0  0  0  0  0  0  0
    2.7008    0.5577   -0.3904 H   0  0  0  0  0  0  0  0  0  0  0  0
    4.1142    0.8275   -1.4114 H   0  0  0  0  0  0  0  0  0  0  0  0
  1  2  1  0  0  0  0
  1 11  1  0  0  0  0
  2  3  1  0  0  0  0
  2 12  1  0  0  0  0
  2 13  1  0  0  0  0
  3 14  1  0  0  0  0
  3 15  1  0  0  0  0
  4  8  1  6  0  0  0
  4  9  1  0  0  0  0
  4  5  1  0  0  0  0
  4  3  1  0  0  0  0
  5  6  1  0  0  0  0
  5 16  1  0  0  0  0
  5 17  1  0  0  0  0
  6  7  1  0  0  0  0
  6 10  2  0  0  0  0
  7 18  1  0  0  0  0
  8 19  1  0  0  0  0
  9 20  1  0  0  0  0
  9 21  1  0  0  0  0
  9 22  1  0  0  0  0
M  END
>  <DRUGBANK_ID>
DB03518

>  <SECONDARY_ACCESSION_NUMBERS>
EXPT02156

>  <COMMON_NAME>
Mevalonic acid

>  <CAS_NUMBER>
150-97-0

>  <UNII>
S5UOB36OCZ

>  <SYNONYMS>
(R)-3,5-dihydroxy-3-methylvaleric acid; (R)-mevalonate; (R)-mevalonic acid; 3,5-Dihydroxy-3-methylvaleric acid

$$$$
