
 OpenBabel10282417173D

 56 57  0  0  1  0  0  0  0  0999 V2000
    0.9363   -0.0636    0.0422 C   0  0  0  0  0  0  0  0  0  0  0  0
    0.4792    0.2456    1.4588 C   0  0  0  0  0  0  0  0  0  0  0  0
    0.9713    1.6255    1.8990 C   0  0  0  0  0  0  0  0  0  0  0  0
    0.4265    2.7449    1.0021 C   0  0  0  0  0  0  0  0  0  0  0  0
   -1.1096    2.7939    1.0090 C   0  0  0  0  0  0  0  0  0  0  0  0
   -1.6817    3.0145    2.4105 C   0  0  0  0  0  0  0  0  0  0  0  0
   -1.2164   10.0733    6.0312 C   0  0  0  0  0  0  0  0  0  0  0  0
   -2.3243   11.0745    6.0006 C   0  0  0  0  0  0  0  0  0  0  0  0
   -1.2046    4.3172    2.9505 C   0  0  0  0  0  0  0  0  0  0  0  0
   -1.3834    8.7691    5.8096 C   0  0  0  0  0  0  0  0  0  0  0  0
   -2.4369   11.7080    7.3751 C   0  0  0  0  0  0  0  0  0  0  0  0
   -2.0195    5.3294    3.2546 C   0  0  0  0  0  0  0  0  0  0  0  0
   -2.6551    8.1785    5.2843 C   0  0  0  0  0  0  0  0  0  0  0  0
   -1.1829   12.4822    7.7680 C   0  0  0  0  0  0  0  0  0  0  0  0
   -1.5718    7.9284    1.6322 C   0  0  0  0  0  0  0  0  0  0  0  0
   -1.4423    6.6491    3.6678 C   0  0  2  0  0  0  0  0  0  0  0  0
   -2.5295    7.7311    3.8283 C   0  0  2  0  0  0  0  0  0  0  0  0
   -0.5581    7.2859    2.5657 C   0  0  2  0  0  0  0  0  0  0  0  0
   -2.0743    8.7905    2.7770 C   0  0  1  0  0  0  0  0  0  0  0  0
   -0.9047   13.6359    6.8406 C   0  0  0  0  0  0  0  0  0  0  0  0
    0.0977    8.4949    3.1241 N   0  0  0  0  0  0  0  0  0  0  0  0
   -0.7845    9.3986    3.1840 N   0  0  0  0  0  0  0  0  0  0  0  0
   -0.9603   14.8212    7.1444 O   0  0  0  0  0  0  0  0  0  0  0  0
   -0.5826   13.2681    5.5885 O   0  0  0  0  0  0  0  0  0  0  0  0
   -0.1969   10.4257    6.1942 H   0  0  0  0  0  0  0  0  0  0  0  0
   -0.1297    4.4590    3.0587 H   0  0  0  0  0  0  0  0  0  0  0  0
   -0.4885    8.1480    5.8354 H   0  0  0  0  0  0  0  0  0  0  0  0
   -3.0951    5.1980    3.1753 H   0  0  0  0  0  0  0  0  0  0  0  0
   -0.8922    6.4765    4.5988 H   0  0  0  0  0  0  0  0  0  0  0  0
   -3.5183    7.3593    3.5232 H   0  0  0  0  0  0  0  0  0  0  0  0
    0.1734    6.6223    2.1045 H   0  0  0  0  0  0  0  0  0  0  0  0
   -2.8293    9.5376    2.5234 H   0  0  0  0  0  0  0  0  0  0  0  0
    0.5458    0.6595   -0.6807 H   0  0  0  0  0  0  0  0  0  0  0  0
    0.5847   -1.0473   -0.2724 H   0  0  0  0  0  0  0  0  0  0  0  0
    2.0288   -0.0380   -0.0117 H   0  0  0  0  0  0  0  0  0  0  0  0
   -0.6136    0.1816    1.5167 H   0  0  0  0  0  0  0  0  0  0  0  0
    0.8577   -0.5155    2.1485 H   0  0  0  0  0  0  0  0  0  0  0  0
    0.6869    1.7960    2.9443 H   0  0  0  0  0  0  0  0  0  0  0  0
    2.0665    1.6519    1.8901 H   0  0  0  0  0  0  0  0  0  0  0  0
    0.8499    3.7038    1.3196 H   0  0  0  0  0  0  0  0  0  0  0  0
    0.7810    2.6264   -0.0267 H   0  0  0  0  0  0  0  0  0  0  0  0
   -1.4491    3.5849    0.3290 H   0  0  0  0  0  0  0  0  0  0  0  0
   -1.5251    1.8650    0.6030 H   0  0  0  0  0  0  0  0  0  0  0  0
   -2.7746    2.9818    2.3678 H   0  0  0  0  0  0  0  0  0  0  0  0
   -1.3804    2.2217    3.1014 H   0  0  0  0  0  0  0  0  0  0  0  0
   -2.1674   11.7888    5.1920 H   0  0  0  0  0  0  0  0  0  0  0  0
   -3.2991   10.6516    5.7672 H   0  0  0  0  0  0  0  0  0  0  0  0
   -3.3167   12.3591    7.3912 H   0  0  0  0  0  0  0  0  0  0  0  0
   -2.6232   10.9133    8.1140 H   0  0  0  0  0  0  0  0  0  0  0  0
   -3.5006    8.8640    5.3226 H   0  0  0  0  0  0  0  0  0  0  0  0
   -2.9372    7.3448    5.9343 H   0  0  0  0  0  0  0  0  0  0  0  0
   -1.3214   12.8734    8.7800 H   0  0  0  0  0  0  0  0  0  0  0  0
   -0.2960   11.8410    7.8176 H   0  0  0  0  0  0  0  0  0  0  0  0
   -1.0917    8.5120    0.8398 H   0  0  0  0  0  0  0  0  0  0  0  0
   -2.3132    7.2447    1.2150 H   0  0  0  0  0  0  0  0  0  0  0  0
   -0.5695   14.0784    5.0402 H   0  0  0  0  0  0  0  0  0  0  0  0
  1 33  1  0  0  0  0
  1 34  1  0  0  0  0
  1 35  1  0  0  0  0
  2  1  1  0  0  0  0
  2 36  1  0  0  0  0
  2 37  1  0  0  0  0
  3  2  1  0  0  0  0
  3 38  1  0  0  0  0
  3 39  1  0  0  0  0
  4  3  1  0  0  0  0
  4 40  1  0  0  0  0
  4 41  1  0  0  0  0
  5  4  1  0  0  0  0
  5 42  1  0  0  0  0
  5 43  1  0  0  0  0
  6  5  1  0  0  0  0
  6 44  1  0  0  0  0
  6 45  1  0  0  0  0
  8  7  1  0  0  0  0
  8 46  1  0  0  0  0
  8 47  1  0  0  0  0
  9  6  1  0  0  0  0
 10  7  2  0  0  0  0
 11  8  1  0  0  0  0
 11 48  1  0  0  0  0
 11 49  1  0  0  0  0
 12  9  2  0  0  0  0
 13 10  1  0  0  0  0
 13 50  1  0  0  0  0
 13 51  1  0  0  0  0
 14 11  1  0  0  0  0
 14 52  1  0  0  0  0
 14 53  1  0  0  0  0
 15 54  1  0  0  0  0
 15 55  1  0  0  0  0
 16 12  1  0  0  0  0
 16 29  1  1  0  0  0
 17 16  1  0  0  0  0
 17 30  1  6  0  0  0
 17 13  1  0  0  0  0
 18 15  1  0  0  0  0
 18 16  1  0  0  0  0
 18 31  1  6  0  0  0
 19 15  1  0  0  0  0
 19 17  1  0  0  0  0
 19 32  1  6  0  0  0
 20 14  1  0  0  0  0
 21 18  1  0  0  0  0
 22 19  1  0  0  0  0
 22 21  2  0  0  0  0
 23 20  2  0  0  0  0
 24 20  1  0  0  0  0
 24 56  1  0  0  0  0
 25  7  1  0  0  0  0
 26  9  1  0  0  0  0
 27 10  1  0  0  0  0
 28 12  1  0  0  0  0
M  END
>  <DRUGBANK_ID>
DB08675

>  <COMMON_NAME>
(5Z)-7-{(1R,4S,5R,6R)-6-[(1E)-1-Octen-1-yl]-2,3-diazabicyclo[2.2.1]hept-2-en-5-yl}-5-heptenoic acid

$$$$
