405
 OpenBabel10282417103D

 38 39  0  0  1  0  0  0  0  0999 V2000
    7.1692    3.1580   -4.7264 Br  0  0  0  0  0  0  0  0  0  0  0  0
    3.1130   -1.8979    1.8447 N   0  0  0  0  0  0  0  0  0  0  0  0
    6.0568    1.8281    1.3121 N   0  0  0  0  0  0  0  0  0  0  0  0
    4.5419    0.2618    0.0773 C   0  0  1  0  0  0  0  0  0  0  0  0
    3.0264   -0.0337    0.0665 C   0  0  0  0  0  0  0  0  0  0  0  0
    2.6379   -1.4617    0.5254 C   0  0  0  0  0  0  0  0  0  0  0  0
    5.1309    0.8786   -1.1900 C   0  0  0  0  0  0  0  0  0  0  0  0
    5.0034    0.9878    1.3829 C   0  0  0  0  0  0  0  0  0  0  0  0
    6.5316    0.8155   -1.3717 C   0  0  0  0  0  0  0  0  0  0  0  0
    4.3569    1.5241   -2.1538 C   0  0  0  0  0  0  0  0  0  0  0  0
    4.4736    0.6673    2.6423 C   0  0  0  0  0  0  0  0  0  0  0  0
    2.3662   -3.0494    2.3392 C   0  0  0  0  0  0  0  0  0  0  0  0
    4.5356   -2.2539    1.9356 C   0  0  0  0  0  0  0  0  0  0  0  0
    7.1471    1.4925   -2.4180 C   0  0  0  0  0  0  0  0  0  0  0  0
    4.9681    2.1651   -3.2264 C   0  0  0  0  0  0  0  0  0  0  0  0
    5.1515    1.0142    3.8093 C   0  0  0  0  0  0  0  0  0  0  0  0
    6.3568    2.1748   -3.3353 C   0  0  0  0  0  0  0  0  0  0  0  0
    6.6047    2.2897    2.4630 C   0  0  0  0  0  0  0  0  0  0  0  0
    6.2212    1.8676    3.7227 C   0  0  0  0  0  0  0  0  0  0  0  0
    5.0234   -0.7209    0.0131 H   0  0  0  0  0  0  0  0  0  0  0  0
    2.4929    0.7240    0.6552 H   0  0  0  0  0  0  0  0  0  0  0  0
    2.6066    0.0396   -0.9424 H   0  0  0  0  0  0  0  0  0  0  0  0
    1.5358   -1.4461    0.5350 H   0  0  0  0  0  0  0  0  0  0  0  0
    2.9183   -2.1864   -0.2475 H   0  0  0  0  0  0  0  0  0  0  0  0
    7.1549    0.2994   -0.6392 H   0  0  0  0  0  0  0  0  0  0  0  0
    3.2768    1.5722   -2.0789 H   0  0  0  0  0  0  0  0  0  0  0  0
    3.5857    0.0731    2.7660 H   0  0  0  0  0  0  0  0  0  0  0  0
    2.6105   -3.9470    1.7625 H   0  0  0  0  0  0  0  0  0  0  0  0
    2.6369   -3.2214    3.3875 H   0  0  0  0  0  0  0  0  0  0  0  0
    1.2859   -2.8861    2.3142 H   0  0  0  0  0  0  0  0  0  0  0  0
    4.7977   -3.1029    1.3045 H   0  0  0  0  0  0  0  0  0  0  0  0
    5.2396   -1.4701    1.6850 H   0  0  0  0  0  0  0  0  0  0  0  0
    4.7896   -2.4468    2.9831 H   0  0  0  0  0  0  0  0  0  0  0  0
    8.2310    1.5103   -2.4773 H   0  0  0  0  0  0  0  0  0  0  0  0
    4.3441    2.6851   -3.9456 H   0  0  0  0  0  0  0  0  0  0  0  0
    4.8244    0.5994    4.7611 H   0  0  0  0  0  0  0  0  0  0  0  0
    7.3924    3.0180    2.3312 H   0  0  0  0  0  0  0  0  0  0  0  0
    6.7310    2.2175    4.6133 H   0  0  0  0  0  0  0  0  0  0  0  0
  1 17  1  0  0  0  0
  2  6  1  0  0  0  0
  2 12  1  0  0  0  0
  2 13  1  0  0  0  0
  3  8  1  0  0  0  0
  3 18  2  0  0  0  0
  4  8  1  0  0  0  0
  4 20  1  1  0  0  0
  4  7  1  0  0  0  0
  4  5  1  0  0  0  0
  5  6  1  0  0  0  0
  5 21  1  0  0  0  0
  5 22  1  0  0  0  0
  6 23  1  0  0  0  0
  6 24  1  0  0  0  0
  7  9  2  0  0  0  0
  7 10  1  0  0  0  0
  8 11  2  0  0  0  0
  9 14  1  0  0  0  0
  9 25  1  0  0  0  0
 10 15  2  0  0  0  0
 10 26  1  0  0  0  0
 11 16  1  0  0  0  0
 11 27  1  0  0  0  0
 12 28  1  0  0  0  0
 12 29  1  0  0  0  0
 12 30  1  0  0  0  0
 13 31  1  0  0  0  0
 13 32  1  0  0  0  0
 13 33  1  0  0  0  0
 14 17  2  0  0  0  0
 14 34  1  0  0  0  0
 15 17  1  0  0  0  0
 15 35  1  0  0  0  0
 16 19  2  0  0  0  0
 16 36  1  0  0  0  0
 18 19  1  0  0  0  0
 18 37  1  0  0  0  0
 19 38  1  0  0  0  0
M  END
>  <DRUGBANK_ID>
DB00405

>  <SECONDARY_ACCESSION_NUMBERS>
APRD00770

>  <COMMON_NAME>
Dexbrompheniramine

>  <CAS_NUMBER>
132-21-8

>  <UNII>
75T64B71RP

>  <SYNONYMS>
(+)-brompheniraminum; (R)-3-(4-Bromophenyl)-3-(2-pyridyl)propyldimethylamine; (S)-(+)-brompheniramine; (S)-brompheniramine; 3-(4-bromophenyl)- N,N-dimethyl- 3-pyridin-2-yl-propan-1-amine; d-brompheniramine; Desbrofeniramina; Dexbromfeniramina; Dexbrompheniramin; Dexbromph√©niramine; Dexbrompheniramine; Dexbrompheniraminum

$$$$
