
 OpenBabel10282417193D

 34 34  0  0  0  0  0  0  0  0999 V2000
    1.2294   -0.2196   -0.0187 C   0  0  0  0  0  0  0  0  0  0  0  0
    1.0142   -1.0738    1.2517 C   0  0  0  0  0  0  0  0  0  0  0  0
    1.3958   -0.3169    2.4807 C   0  0  0  0  0  0  0  0  0  0  0  0
    0.7231    1.0167    2.3010 C   0  0  0  0  0  0  0  0  0  0  0  0
   -0.6972    0.8297    2.1255 O   0  0  0  0  0  0  0  0  0  0  0  0
   -1.5171    0.5810    1.1479 C   0  0  0  0  0  0  0  0  0  0  0  0
   -1.7999   -0.6271    0.3114 C   0  0  0  0  0  0  0  0  0  0  0  0
   -1.4279   -1.7762    0.0996 O   0  0  0  0  0  0  0  0  0  0  0  0
   -2.9905    0.0074   -0.1704 C   0  0  0  0  0  0  0  0  0  0  0  0
   -3.8475   -0.4313   -0.9282 O   0  0  0  0  0  0  0  0  0  0  0  0
   -2.7469    1.1249    0.7633 C   0  0  0  0  0  0  0  0  0  0  0  0
   -3.5655    2.0844    1.0434 O   0  0  0  0  0  0  0  0  0  0  0  0
   -3.3587    3.1256    1.9818 C   0  0  0  0  0  0  0  0  0  0  0  0
   -3.4995    2.7113    3.4593 C   0  0  0  0  0  0  0  0  0  0  0  0
   -2.4165    1.7702    3.8614 C   0  0  0  0  0  0  0  0  0  0  0  0
   -1.1139    2.5450    3.7413 C   0  0  0  0  0  0  0  0  0  0  0  0
    0.7732    0.7834   -0.0220 H   0  0  0  0  0  0  0  0  0  0  0  0
    0.7988   -0.6818   -0.9031 H   0  0  0  0  0  0  0  0  0  0  0  0
    2.2967   -0.0374   -0.1408 H   0  0  0  0  0  0  0  0  0  0  0  0
   -0.0152   -1.2898    1.5050 H   0  0  0  0  0  0  0  0  0  0  0  0
    1.4140   -2.0765    1.1605 H   0  0  0  0  0  0  0  0  0  0  0  0
    0.9562   -0.8017    3.3699 H   0  0  0  0  0  0  0  0  0  0  0  0
    2.4728   -0.2459    2.6367 H   0  0  0  0  0  0  0  0  0  0  0  0
    1.0087    1.5208    3.2352 H   0  0  0  0  0  0  0  0  0  0  0  0
    1.1185    1.7372    1.5805 H   0  0  0  0  0  0  0  0  0  0  0  0
   -2.4390    3.6704    1.7447 H   0  0  0  0  0  0  0  0  0  0  0  0
   -4.1535    3.8649    1.8173 H   0  0  0  0  0  0  0  0  0  0  0  0
   -3.4023    3.5813    4.1167 H   0  0  0  0  0  0  0  0  0  0  0  0
   -4.4594    2.2258    3.6449 H   0  0  0  0  0  0  0  0  0  0  0  0
   -2.4621    1.3460    4.8631 H   0  0  0  0  0  0  0  0  0  0  0  0
   -2.5484    0.8630    3.2615 H   0  0  0  0  0  0  0  0  0  0  0  0
   -0.9872    3.4622    4.3013 H   0  0  0  0  0  0  0  0  0  0  0  0
   -0.4040    1.8594    4.1803 H   0  0  0  0  0  0  0  0  0  0  0  0
   -0.8708    2.8444    2.7035 H   0  0  0  0  0  0  0  0  0  0  0  0
  1  2  1  0  0  0  0
  1 17  1  0  0  0  0
  1 18  1  0  0  0  0
  1 19  1  0  0  0  0
  2  3  1  0  0  0  0
  2 20  1  0  0  0  0
  2 21  1  0  0  0  0
  3  4  1  0  0  0  0
  3 22  1  0  0  0  0
  3 23  1  0  0  0  0
  4  5  1  0  0  0  0
  4 24  1  0  0  0  0
  4 25  1  0  0  0  0
  5  6  1  0  0  0  0
  6  7  1  0  0  0  0
  6 11  2  0  0  0  0
  7  8  2  0  0  0  0
  7  9  1  0  0  0  0
  9 10  2  0  0  0  0
  9 11  1  0  0  0  0
 11 12  1  0  0  0  0
 12 13  1  0  0  0  0
 13 14  1  0  0  0  0
 13 26  1  0  0  0  0
 13 27  1  0  0  0  0
 14 15  1  0  0  0  0
 14 28  1  0  0  0  0
 14 29  1  0  0  0  0
 15 16  1  0  0  0  0
 15 30  1  0  0  0  0
 15 31  1  0  0  0  0
 16 32  1  0  0  0  0
 16 33  1  0  0  0  0
 16 34  1  0  0  0  0
M  END
>  <DRUGBANK_ID>
DB12223

>  <COMMON_NAME>
Squaric acid dibutyl ester

>  <CAS_NUMBER>
2892-62-8

>  <UNII>
4RTO57VG65

>  <SYNONYMS>
Squaric acid dibutyl ester; Squaric acid dibutylester

$$$$
