
 OpenBabel10282417233D

 29 28  0  0  1  0  0  0  0  0999 V2000
   -2.7611   -0.0649   -1.9660 C   0  0  0  0  0  0  0  0  0  0  0  0
   -1.3867   -0.0003   -1.4882 N   0  0  0  0  0  0  0  0  0  0  0  0
   -0.9335   -1.2148   -0.7942 C   0  0  2  0  0  0  0  0  0  0  0  0
    0.6005   -1.1920   -0.7273 C   0  0  0  0  0  0  0  0  0  0  0  0
   -1.4052   -2.5165   -1.4719 C   0  0  0  0  0  0  0  0  0  0  0  0
   -0.8867   -3.7848   -0.8053 C   0  0  0  0  0  0  0  0  0  0  0  0
   -1.4051   -3.9030    0.5990 C   0  0  0  0  0  0  0  0  0  0  0  0
   -2.2181   -4.8875    1.0296 C   0  0  0  0  0  0  0  0  0  0  0  0
   -2.7285   -4.9135    2.4383 C   0  0  0  0  0  0  0  0  0  0  0  0
   -2.6401   -5.9974    0.1156 C   0  0  0  0  0  0  0  0  0  0  0  0
   -3.4658   -0.2758   -1.1546 H   0  0  0  0  0  0  0  0  0  0  0  0
   -2.8793   -0.8185   -2.7520 H   0  0  0  0  0  0  0  0  0  0  0  0
   -3.0369    0.8938   -2.4117 H   0  0  0  0  0  0  0  0  0  0  0  0
   -0.7664    0.2052   -2.2681 H   0  0  0  0  0  0  0  0  0  0  0  0
   -1.3226   -1.1640    0.2302 H   0  0  0  0  0  0  0  0  0  0  0  0
    1.0348   -1.4877   -1.6902 H   0  0  0  0  0  0  0  0  0  0  0  0
    0.9871   -0.2025   -0.4682 H   0  0  0  0  0  0  0  0  0  0  0  0
    0.9724   -1.8875    0.0338 H   0  0  0  0  0  0  0  0  0  0  0  0
   -2.5022   -2.5712   -1.4772 H   0  0  0  0  0  0  0  0  0  0  0  0
   -1.0846   -2.5179   -2.5220 H   0  0  0  0  0  0  0  0  0  0  0  0
   -1.1978   -4.6258   -1.4323 H   0  0  0  0  0  0  0  0  0  0  0  0
    0.2063   -3.8193   -0.7951 H   0  0  0  0  0  0  0  0  0  0  0  0
   -1.1140   -3.1230    1.2990 H   0  0  0  0  0  0  0  0  0  0  0  0
   -3.8231   -4.9033    2.4468 H   0  0  0  0  0  0  0  0  0  0  0  0
   -2.3770   -5.8151    2.9485 H   0  0  0  0  0  0  0  0  0  0  0  0
   -2.3873   -4.0482    3.0181 H   0  0  0  0  0  0  0  0  0  0  0  0
   -3.2057   -5.5983   -0.7343 H   0  0  0  0  0  0  0  0  0  0  0  0
   -1.7571   -6.5249   -0.2637 H   0  0  0  0  0  0  0  0  0  0  0  0
   -3.2697   -6.7296    0.6250 H   0  0  0  0  0  0  0  0  0  0  0  0
  1  2  1  0  0  0  0
  1 11  1  0  0  0  0
  1 12  1  0  0  0  0
  1 13  1  0  0  0  0
  2 14  1  0  0  0  0
  3  5  1  0  0  0  0
  3 15  1  1  0  0  0
  3  4  1  0  0  0  0
  3  2  1  0  0  0  0
  4 16  1  0  0  0  0
  4 17  1  0  0  0  0
  4 18  1  0  0  0  0
  5  6  1  0  0  0  0
  5 19  1  0  0  0  0
  5 20  1  0  0  0  0
  6  7  1  0  0  0  0
  6 21  1  0  0  0  0
  6 22  1  0  0  0  0
  7  8  2  0  0  0  0
  7 23  1  0  0  0  0
  8  9  1  0  0  0  0
  8 10  1  0  0  0  0
  9 24  1  0  0  0  0
  9 25  1  0  0  0  0
  9 26  1  0  0  0  0
 10 27  1  0  0  0  0
 10 28  1  0  0  0  0
 10 29  1  0  0  0  0
M  END
>  <DRUGBANK_ID>
DB16136

>  <COMMON_NAME>
Dexisometheptene mucate

>  <CAS_NUMBER>
1620401-56-0

>  <UNII>
GOO8ZCK7RT

>  <SYNONYMS>
(R)-isometheptene; Dexisometheptene; Isometheptene, (r)-

$$$$
