
 OpenBabel10282417123D

 44 47  0  0  0  0  0  0  0  0999 V2000
    2.1715    0.7528   -0.0398 C   0  0  0  0  0  0  0  0  0  0  0  0
   -5.5626    2.1086    5.2960 C   0  0  0  0  0  0  0  0  0  0  0  0
    0.9381    1.4243   -0.0143 C   0  0  0  0  0  0  0  0  0  0  0  0
   -5.5801    0.9557    4.4929 C   0  0  0  0  0  0  0  0  0  0  0  0
    1.0383   -1.4099   -0.0122 C   0  0  0  0  0  0  0  0  0  0  0  0
   -4.4137    3.3702    3.5751 C   0  0  0  0  0  0  0  0  0  0  0  0
   -3.7753   -0.0396    0.0125 C   0  0  0  0  0  0  0  0  0  0  0  0
    2.2404   -0.6538   -0.0357 C   0  0  0  0  0  0  0  0  0  0  0  0
   -4.9820    3.3240    4.8711 C   0  0  0  0  0  0  0  0  0  0  0  0
   -0.2455    0.6803   -0.0148 C   0  0  0  0  0  0  0  0  0  0  0  0
   -5.0142    1.0163    3.2189 C   0  0  0  0  0  0  0  0  0  0  0  0
   -0.1751   -0.7047   -0.0145 C   0  0  0  0  0  0  0  0  0  0  0  0
   -4.4630    2.2131    2.7872 C   0  0  0  0  0  0  0  0  0  0  0  0
   -2.2798    0.0168   -0.0300 C   0  0  0  0  0  0  0  0  0  0  0  0
   -4.2677    0.6126    1.2575 C   0  0  0  0  0  0  0  0  0  0  0  0
    3.5931   -1.3381   -0.0406 C   0  0  0  0  0  0  0  0  0  0  0  0
   -4.9722    4.5233    5.7609 C   0  0  0  0  0  0  0  0  0  0  0  0
    3.6820   -2.6268   -0.0089 N   0  3  0  0  0  0  0  0  0  0  0  0
    4.8058   -0.5654   -0.0561 N   0  3  0  0  0  0  0  0  0  0  0  0
   -4.4207    5.6531    5.3627 N   0  3  0  0  0  0  0  0  0  0  0  0
   -5.5056    4.4854    6.9664 N   0  0  0  0  0  0  0  0  0  0  0  0
   -1.5386    1.1097   -0.0215 N   0  0  0  0  0  0  0  0  0  0  0  0
   -4.8788    0.0371    2.2712 N   0  0  0  0  0  0  0  0  0  0  0  0
   -1.4922   -1.1093   -0.0210 N   0  0  0  0  0  0  0  0  0  0  0  0
   -4.0323    1.9433    1.5144 N   0  0  0  0  0  0  0  0  0  0  0  0
    3.0415    1.4025   -0.0672 H   0  0  0  0  0  0  0  0  0  0  0  0
   -6.0300    2.0020    6.2705 H   0  0  0  0  0  0  0  0  0  0  0  0
    0.8824    2.5104   -0.0108 H   0  0  0  0  0  0  0  0  0  0  0  0
   -6.0246    0.0301    4.8461 H   0  0  0  0  0  0  0  0  0  0  0  0
    0.9811   -2.4919   -0.0001 H   0  0  0  0  0  0  0  0  0  0  0  0
   -3.9484    4.2549    3.1591 H   0  0  0  0  0  0  0  0  0  0  0  0
   -4.1821    0.4709   -0.8675 H   0  0  0  0  0  0  0  0  0  0  0  0
   -4.1260   -1.0776   -0.0217 H   0  0  0  0  0  0  0  0  0  0  0  0
    4.5481   -3.1674    0.0032 H   0  0  0  0  0  0  0  0  0  0  0  0
    2.8607   -3.2364    0.0221 H   0  0  0  0  0  0  0  0  0  0  0  0
    5.0054   -0.2340   -1.0184 H   0  0  0  0  0  0  0  0  0  0  0  0
    4.7094    0.3184    0.4676 H   0  0  0  0  0  0  0  0  0  0  0  0
    5.6625   -1.0381    0.2625 H   0  0  0  0  0  0  0  0  0  0  0  0
   -4.4070    6.4820    5.9421 H   0  0  0  0  0  0  0  0  0  0  0  0
   -4.0022    5.7521    4.4489 H   0  0  0  0  0  0  0  0  0  0  0  0
   -5.9536    3.6566    7.3350 H   0  0  0  0  0  0  0  0  0  0  0  0
   -5.5175    5.2877    7.5826 H   0  0  0  0  0  0  0  0  0  0  0  0
   -1.8439   -2.0592   -0.0179 H   0  0  0  0  0  0  0  0  0  0  0  0
   -3.5388    2.5690    0.8903 H   0  0  0  0  0  0  0  0  0  0  0  0
  1 26  1  0  0  0  0
  2 27  1  0  0  0  0
  3  1  2  0  0  0  0
  3 28  1  0  0  0  0
  4  2  2  0  0  0  0
  4 29  1  0  0  0  0
  5 30  1  0  0  0  0
  6 31  1  0  0  0  0
  7 32  1  0  0  0  0
  7 33  1  0  0  0  0
  8  1  1  0  0  0  0
  8  5  2  0  0  0  0
  9  2  1  0  0  0  0
  9  6  2  0  0  0  0
 10  3  1  0  0  0  0
 11  4  1  0  0  0  0
 12  5  1  0  0  0  0
 12 10  2  0  0  0  0
 13  6  1  0  0  0  0
 13 11  2  0  0  0  0
 14  7  1  0  0  0  0
 15  7  1  0  0  0  0
 16  8  1  0  0  0  0
 17  9  1  0  0  0  0
 18 16  2  0  0  0  0
 18 34  1  0  0  0  0
 18 35  1  0  0  0  0
 19 16  1  0  0  0  0
 19 36  1  0  0  0  0
 19 37  1  0  0  0  0
 19 38  1  0  0  0  0
 20 17  2  0  0  0  0
 20 39  1  0  0  0  0
 20 40  1  0  0  0  0
 21 17  1  0  0  0  0
 21 41  1  0  0  0  0
 21 42  1  0  0  0  0
 22 10  1  0  0  0  0
 22 14  2  0  0  0  0
 23 11  1  0  0  0  0
 23 15  2  0  0  0  0
 24 12  1  0  0  0  0
 24 14  1  0  0  0  0
 24 43  1  0  0  0  0
 25 13  1  0  0  0  0
 25 15  1  0  0  0  0
 25 44  1  0  0  0  0
M  CHG  3  18   1  19   1  20   1
M  END
>  <DRUGBANK_ID>
DB01705

>  <SECONDARY_ACCESSION_NUMBERS>
EXPT00620

>  <COMMON_NAME>
Bis(5-Amidino-Benzimidazolyl)Methane

$$$$
