
 OpenBabel10282417123D

 55 59  0  0  1  0  0  0  0  0999 V2000
    1.3321   -0.1892    0.0285 C   0  0  0  0  0  0  0  0  0  0  0  0
    0.3889   -1.2096    0.0395 C   0  0  0  0  0  0  0  0  0  0  0  0
    0.8934    1.1327    0.0344 C   0  0  0  0  0  0  0  0  0  0  0  0
   -0.9938   -0.8898    0.0478 C   0  0  0  0  0  0  0  0  0  0  0  0
   -0.4727    1.4504    0.1025 C   0  0  0  0  0  0  0  0  0  0  0  0
   -1.3878    7.8634    4.1542 C   0  0  0  0  0  0  0  0  0  0  0  0
   -0.2007    5.8373    3.6635 C   0  0  0  0  0  0  0  0  0  0  0  0
   -7.5256    1.6057    3.2942 C   0  0  0  0  0  0  0  0  0  0  0  0
   -6.2323   -0.3041    4.0470 C   0  0  0  0  0  0  0  0  0  0  0  0
   -0.4074    8.5773    3.4713 C   0  0  0  0  0  0  0  0  0  0  0  0
    0.6825    6.5165    2.8507 C   0  0  0  0  0  0  0  0  0  0  0  0
   -8.5779    1.2171    4.1248 C   0  0  0  0  0  0  0  0  0  0  0  0
   -7.2687   -0.6688    4.8980 C   0  0  0  0  0  0  0  0  0  0  0  0
   -2.9162    0.9258   -0.1578 C   0  0  0  0  0  0  0  0  0  0  0  0
   -2.6009    5.6674    4.4055 C   0  0  0  0  0  0  0  0  0  0  0  0
   -4.4221    2.2403    3.4120 C   0  0  0  0  0  0  0  0  0  0  0  0
   -1.4565    0.4666    0.0922 C   0  0  0  0  0  0  0  0  0  0  0  0
   -1.3679    6.4738    4.0967 C   0  0  0  0  0  0  0  0  0  0  0  0
   -6.3432    0.8542    3.2722 C   0  0  0  0  0  0  0  0  0  0  0  0
    0.5726    7.8881    2.7587 C   0  0  0  0  0  0  0  0  0  0  0  0
   -8.4333    0.0890    4.9289 C   0  0  0  0  0  0  0  0  0  0  0  0
   -3.8125    1.7416    0.8634 C   0  0  0  0  0  0  0  0  0  0  0  0
   -5.1321    1.3684    2.6562 C   0  0  0  0  0  0  0  0  0  0  0  0
   -3.6224    3.2090    1.6436 C   0  0  0  0  0  0  0  0  0  0  0  0
   -2.6417    3.9249    3.1205 C   0  0  0  0  0  0  0  0  0  0  0  0
   -3.6837    5.0322    3.3174 C   0  0  2  0  0  0  0  0  0  0  0  0
   -4.6705    0.9317    1.4564 N   0  0  0  0  0  0  0  0  0  0  0  0
   -3.9719    4.5323    1.6480 N   0  0  0  0  0  0  0  0  0  0  0  0
   -3.2848    2.7802    2.8617 N   0  0  0  0  0  0  0  0  0  0  0  0
    1.4689    8.5283    1.9615 O   0  0  0  0  0  0  0  0  0  0  0  0
   -9.4231   -0.3188    5.7724 O   0  0  0  0  0  0  0  0  0  0  0  0
   -1.5722    4.1013    2.5349 O   0  0  0  0  0  0  0  0  0  0  0  0
   -5.2969    5.7226    5.0289 O   0  0  0  0  0  0  0  0  0  0  0  0
   -4.8002    4.6476    4.1839 O   0  0  0  0  0  0  0  0  0  0  0  0
    2.3987   -0.4108    0.0077 H   0  0  0  0  0  0  0  0  0  0  0  0
    0.7403   -2.2442    0.0106 H   0  0  0  0  0  0  0  0  0  0  0  0
    1.6171    1.9395   -0.0373 H   0  0  0  0  0  0  0  0  0  0  0  0
   -1.6771   -1.7394   -0.0138 H   0  0  0  0  0  0  0  0  0  0  0  0
   -0.7706    2.4924    0.1106 H   0  0  0  0  0  0  0  0  0  0  0  0
   -2.1805    8.3869    4.6835 H   0  0  0  0  0  0  0  0  0  0  0  0
   -0.0591    4.7639    3.7799 H   0  0  0  0  0  0  0  0  0  0  0  0
   -7.6170    2.5069    2.6905 H   0  0  0  0  0  0  0  0  0  0  0  0
   -5.3194   -0.8950    4.0147 H   0  0  0  0  0  0  0  0  0  0  0  0
   -0.4700    9.6578    3.4434 H   0  0  0  0  0  0  0  0  0  0  0  0
    1.3980    5.9585    2.2554 H   0  0  0  0  0  0  0  0  0  0  0  0
   -9.4834    1.8142    4.1499 H   0  0  0  0  0  0  0  0  0  0  0  0
   -7.1585   -1.5334    5.5441 H   0  0  0  0  0  0  0  0  0  0  0  0
   -2.9949    1.3336   -1.1682 H   0  0  0  0  0  0  0  0  0  0  0  0
   -3.4386   -0.0506   -0.2363 H   0  0  0  0  0  0  0  0  0  0  0  0
   -3.1275    6.2420    5.1893 H   0  0  0  0  0  0  0  0  0  0  0  0
   -2.2629    4.8346    5.0697 H   0  0  0  0  0  0  0  0  0  0  0  0
   -4.9355    2.6712    4.2540 H   0  0  0  0  0  0  0  0  0  0  0  0
    1.3537    9.4808    2.0937 H   0  0  0  0  0  0  0  0  0  0  0  0
  -10.2127    0.2243    5.6173 H   0  0  0  0  0  0  0  0  0  0  0  0
   -5.9421    5.1706    5.5247 H   0  0  0  0  0  0  0  0  0  0  0  0
  1 35  1  0  0  0  0
  2  1  2  0  0  0  0
  2 36  1  0  0  0  0
  3  1  1  0  0  0  0
  3 37  1  0  0  0  0
  4  2  1  0  0  0  0
  4 38  1  0  0  0  0
  5  3  2  0  0  0  0
  5 39  1  0  0  0  0
  6 40  1  0  0  0  0
  7 41  1  0  0  0  0
  8 42  1  0  0  0  0
  9 43  1  0  0  0  0
 10  6  1  0  0  0  0
 10 44  1  0  0  0  0
 11  7  2  0  0  0  0
 11 45  1  0  0  0  0
 12  8  1  0  0  0  0
 12 46  1  0  0  0  0
 13  9  2  0  0  0  0
 13 47  1  0  0  0  0
 14 48  1  0  0  0  0
 14 49  1  0  0  0  0
 15 50  1  0  0  0  0
 15 51  1  0  0  0  0
 16 52  1  0  0  0  0
 17  4  2  0  0  0  0
 17  5  1  0  0  0  0
 17 14  1  0  0  0  0
 18  6  2  0  0  0  0
 18  7  1  0  0  0  0
 18 15  1  0  0  0  0
 19  8  2  0  0  0  0
 19  9  1  0  0  0  0
 20 10  2  0  0  0  0
 20 11  1  0  0  0  0
 21 12  2  0  0  0  0
 21 13  1  0  0  0  0
 22 14  1  0  0  0  0
 23 16  2  0  0  0  0
 23 19  1  0  0  0  0
 24 22  1  0  0  0  0
 26 15  1  0  0  0  0
 26 25  1  0  0  0  0
 26 34  1  1  0  0  0
 27 22  2  0  0  0  0
 27 23  1  0  0  0  0
 28 24  2  0  0  0  0
 28 26  1  0  0  0  0
 29 16  1  0  0  0  0
 29 24  1  0  0  0  0
 29 25  1  0  0  0  0
 30 20  1  0  0  0  0
 30 53  1  0  0  0  0
 31 21  1  0  0  0  0
 31 54  1  0  0  0  0
 32 25  2  0  0  0  0
 33 55  1  0  0  0  0
 34 33  1  0  0  0  0
M  END
>  <DRUGBANK_ID>
DB02241

>  <SECONDARY_ACCESSION_NUMBERS>
EXPT01085

>  <COMMON_NAME>
8-Benzyl-2-Hydroperoxy-2-(4-Hydroxy-Benzyl)-6-(4-Hydroxy-Phenyl)-2h-Imidazo[1,2-a]Pyrazin-3-One

$$$$
