
 OpenBabel10282417213D

 64 66  0  0  0  0  0  0  0  0999 V2000
   -1.0994    0.5249    0.3340 N   0  0  0  0  0  0  0  0  0  0  0  0
   -2.2729    1.0658    0.7812 C   0  0  0  0  0  0  0  0  0  0  0  0
   -0.9561   -0.8837   -0.0744 C   0  0  1  0  0  0  0  0  0  0  0  0
   -2.4451    2.5300    0.9950 C   0  0  0  0  0  0  0  0  0  0  0  0
    0.1470    1.2470    0.0876 C   0  0  0  0  0  0  0  0  0  0  0  0
   -3.6799    3.3648   -0.0668 P   0  0  3  0  0  0  0  0  0  0  0  0
    0.5182   -1.1424    0.2653 C   0  0  0  0  0  0  0  0  0  0  0  0
    1.2314    0.1683   -0.1427 C   0  0  1  0  0  0  0  0  0  0  0  0
   -1.9256   -1.9608    0.3999 C   0  0  0  0  0  0  0  0  0  0  0  0
   -3.2602    0.3811    1.0753 O   0  0  0  0  0  0  0  0  0  0  0  0
   -2.6112    3.4778   -1.1626 O   0  0  0  0  0  0  0  0  0  0  0  0
   -1.6431   -3.0112    0.9711 O   0  0  0  0  0  0  0  0  0  0  0  0
    1.7913    0.1251   -1.5933 C   0  0  0  0  0  0  0  0  0  0  0  0
   -4.5713    2.0007   -0.3187 O   0  0  0  0  0  0  0  0  0  0  0  0
   -3.1853   -1.7174   -0.0287 O   0  0  0  0  0  0  0  0  0  0  0  0
   -4.9146    4.1996   -1.1286 C   0  0  0  0  0  0  0  0  0  0  0  0
   -4.5429    7.5036   -2.4858 C   0  0  0  0  0  0  0  0  0  0  0  0
    2.4553    1.4578   -1.9849 C   0  0  0  0  0  0  0  0  0  0  0  0
    0.7122   -0.2696   -2.6092 C   0  0  0  0  0  0  0  0  0  0  0  0
   -3.5693    6.8179   -1.5577 C   0  0  0  0  0  0  0  0  0  0  0  0
   -5.5638    6.7968   -3.1462 C   0  0  0  0  0  0  0  0  0  0  0  0
   -4.5058    8.8901   -2.6124 C   0  0  0  0  0  0  0  0  0  0  0  0
   -5.3875    5.4452   -0.3849 C   0  0  0  0  0  0  0  0  0  0  0  0
   -4.2353    6.4381   -0.2226 C   0  0  0  0  0  0  0  0  0  0  0  0
    1.1517   -0.2201   -4.0521 C   0  0  0  0  0  0  0  0  0  0  0  0
    2.8970    1.4702   -3.4462 C   0  0  0  0  0  0  0  0  0  0  0  0
   -5.5170    9.5528   -3.3062 C   0  0  0  0  0  0  0  0  0  0  0  0
   -6.5740    7.4541   -3.8359 C   0  0  0  0  0  0  0  0  0  0  0  0
   -6.5427    8.8367   -3.9249 C   0  0  0  0  0  0  0  0  0  0  0  0
    1.7422    1.1356   -4.3848 C   0  0  0  0  0  0  0  0  0  0  0  0
    2.0827    0.3506    0.5288 H   0  0  0  0  0  0  0  0  0  0  0  0
   -1.1081   -0.9138   -1.1542 H   0  0  0  0  0  0  0  0  0  0  0  0
   -2.7770    2.6497    2.0344 H   0  0  0  0  0  0  0  0  0  0  0  0
   -1.4966    3.0713    0.9381 H   0  0  0  0  0  0  0  0  0  0  0  0
    0.3850    1.8672    0.9558 H   0  0  0  0  0  0  0  0  0  0  0  0
    0.0052    1.9090   -0.7721 H   0  0  0  0  0  0  0  0  0  0  0  0
    0.6242   -1.2886    1.3491 H   0  0  0  0  0  0  0  0  0  0  0  0
    0.9401   -2.0288   -0.2194 H   0  0  0  0  0  0  0  0  0  0  0  0
    2.5726   -0.6500   -1.6252 H   0  0  0  0  0  0  0  0  0  0  0  0
   -4.2954    1.1308    0.0529 H   0  0  0  0  0  0  0  0  0  0  0  0
   -3.7744   -1.8469    0.7430 H   0  0  0  0  0  0  0  0  0  0  0  0
   -4.5006    4.3756   -2.1213 H   0  0  0  0  0  0  0  0  0  0  0  0
   -5.7972    3.5691   -1.2961 H   0  0  0  0  0  0  0  0  0  0  0  0
    1.7638    2.2940   -1.8406 H   0  0  0  0  0  0  0  0  0  0  0  0
    3.3168    1.6536   -1.3349 H   0  0  0  0  0  0  0  0  0  0  0  0
    0.3891   -1.2977   -2.4211 H   0  0  0  0  0  0  0  0  0  0  0  0
   -0.1498    0.3994   -2.5030 H   0  0  0  0  0  0  0  0  0  0  0  0
   -2.7163    7.4726   -1.3418 H   0  0  0  0  0  0  0  0  0  0  0  0
   -3.1309    5.9507   -2.0610 H   0  0  0  0  0  0  0  0  0  0  0  0
   -5.6376    5.7170   -3.0949 H   0  0  0  0  0  0  0  0  0  0  0  0
   -3.6990    9.4580   -2.1568 H   0  0  0  0  0  0  0  0  0  0  0  0
   -6.2385    5.9023   -0.8970 H   0  0  0  0  0  0  0  0  0  0  0  0
   -5.7751    5.1623    0.6014 H   0  0  0  0  0  0  0  0  0  0  0  0
   -4.6064    7.3325    0.2913 H   0  0  0  0  0  0  0  0  0  0  0  0
   -3.4778    6.0021    0.4415 H   0  0  0  0  0  0  0  0  0  0  0  0
    0.2809   -0.4225   -4.6864 H   0  0  0  0  0  0  0  0  0  0  0  0
    1.8816   -1.0159   -4.2332 H   0  0  0  0  0  0  0  0  0  0  0  0
    3.2919    2.4602   -3.6961 H   0  0  0  0  0  0  0  0  0  0  0  0
    3.7078    0.7464   -3.5879 H   0  0  0  0  0  0  0  0  0  0  0  0
   -5.5153   10.6367   -3.3461 H   0  0  0  0  0  0  0  0  0  0  0  0
   -7.3851    6.8797   -4.2756 H   0  0  0  0  0  0  0  0  0  0  0  0
   -7.3150    9.3551   -4.4826 H   0  0  0  0  0  0  0  0  0  0  0  0
    0.9628    1.9042   -4.2999 H   0  0  0  0  0  0  0  0  0  0  0  0
    2.0859    1.1324   -5.4228 H   0  0  0  0  0  0  0  0  0  0  0  0
  2  1  1  0  0  0  0
  3  1  1  0  0  0  0
  3 32  1  6  0  0  0
  3  9  1  0  0  0  0
  4  2  1  0  0  0  0
  4 33  1  0  0  0  0
  4 34  1  0  0  0  0
  5  1  1  0  0  0  0
  5 35  1  0  0  0  0
  5 36  1  0  0  0  0
  6  4  1  0  0  0  0
  7  3  1  0  0  0  0
  7 37  1  0  0  0  0
  7 38  1  0  0  0  0
  8  5  1  0  0  0  0
  8  7  1  0  0  0  0
  8 31  1  1  0  0  0
  8 13  1  0  0  0  0
 10  2  2  0  0  0  0
 11  6  2  0  0  0  0
 12  9  2  0  0  0  0
 13 39  1  0  0  0  0
 14  6  1  0  0  0  0
 14 40  1  0  0  0  0
 15  9  1  0  0  0  0
 15 41  1  0  0  0  0
 16  6  1  0  0  0  0
 16 42  1  0  0  0  0
 16 43  1  0  0  0  0
 17 20  1  0  0  0  0
 18 13  1  0  0  0  0
 18 44  1  0  0  0  0
 18 45  1  0  0  0  0
 19 13  1  0  0  0  0
 19 46  1  0  0  0  0
 19 47  1  0  0  0  0
 20 24  1  0  0  0  0
 20 48  1  0  0  0  0
 20 49  1  0  0  0  0
 21 17  1  0  0  0  0
 21 50  1  0  0  0  0
 22 17  2  0  0  0  0
 22 51  1  0  0  0  0
 23 16  1  0  0  0  0
 23 52  1  0  0  0  0
 23 53  1  0  0  0  0
 24 23  1  0  0  0  0
 24 54  1  0  0  0  0
 24 55  1  0  0  0  0
 25 19  1  0  0  0  0
 25 56  1  0  0  0  0
 25 57  1  0  0  0  0
 26 18  1  0  0  0  0
 26 58  1  0  0  0  0
 26 59  1  0  0  0  0
 27 22  1  0  0  0  0
 27 60  1  0  0  0  0
 28 21  2  0  0  0  0
 28 61  1  0  0  0  0
 29 28  1  0  0  0  0
 29 27  2  0  0  0  0
 29 62  1  0  0  0  0
 30 25  1  0  0  0  0
 30 26  1  0  0  0  0
 30 63  1  0  0  0  0
 30 64  1  0  0  0  0
M  END
>  <DRUGBANK_ID>
DB14207

>  <COMMON_NAME>
Fosinoprilat

>  <CAS_NUMBER>
95399-71-6

>  <UNII>
S312EY6ZT8

>  <SYNONYMS>
Fosinopril diacid; Fosinoprilat; Fosinoprilatum; Fosinoprilic acid

$$$$
