
 OpenBabel10282417213D

 30 31  0  0  1  0  0  0  0  0999 V2000
   -0.9221    7.6750    2.7983 C   0  0  0  0  0  0  0  0  0  0  0  0
   -1.8541    6.6763    2.1890 C   0  0  0  0  0  0  0  0  0  0  0  0
   -1.9465    5.3703    2.5018 C   0  0  0  0  0  0  0  0  0  0  0  0
   -2.7138    4.4834    1.7427 N   0  0  0  0  0  0  0  0  0  0  0  0
   -2.5465    3.0182    1.8807 C   0  0  1  0  0  0  0  0  0  0  0  0
   -2.6804    2.4210    3.2850 C   0  0  0  0  0  0  0  0  0  0  0  0
   -4.0675    1.7990    3.3348 C   0  0  2  0  0  0  0  0  0  0  0  0
   -3.9400    0.4512    3.4875 F   0  0  0  0  0  0  0  0  0  0  0  0
   -4.6834    2.0884    1.9876 C   0  0  1  0  0  0  0  0  0  0  0  0
   -5.6763    3.2752    2.0464 C   0  0  0  0  0  0  0  0  0  0  0  0
   -5.2362    4.4273    2.7695 O   0  0  0  0  0  0  0  0  0  0  0  0
   -3.5488    2.3178    1.1349 O   0  0  0  0  0  0  0  0  0  0  0  0
   -3.4755    4.9804    0.6713 C   0  0  0  0  0  0  0  0  0  0  0  0
   -3.9925    4.3390   -0.2391 O   0  0  0  0  0  0  0  0  0  0  0  0
   -3.6677    6.3294    0.6652 N   0  0  0  0  0  0  0  0  0  0  0  0
   -2.7348    7.1940    1.1173 C   0  0  0  0  0  0  0  0  0  0  0  0
   -2.6241    8.3322    0.6634 O   0  0  0  0  0  0  0  0  0  0  0  0
    0.0058    7.7101    2.2150 H   0  0  0  0  0  0  0  0  0  0  0  0
   -0.6753    7.4369    3.8354 H   0  0  0  0  0  0  0  0  0  0  0  0
   -1.3496    8.6846    2.7878 H   0  0  0  0  0  0  0  0  0  0  0  0
   -1.3602    4.9575    3.3180 H   0  0  0  0  0  0  0  0  0  0  0  0
   -1.5633    2.7840    1.4527 H   0  0  0  0  0  0  0  0  0  0  0  0
   -1.9370    1.6236    3.4175 H   0  0  0  0  0  0  0  0  0  0  0  0
   -2.5333    3.1457    4.0869 H   0  0  0  0  0  0  0  0  0  0  0  0
   -4.6739    2.1531    4.1711 H   0  0  0  0  0  0  0  0  0  0  0  0
   -5.2159    1.2244    1.5747 H   0  0  0  0  0  0  0  0  0  0  0  0
   -5.9408    3.6066    1.0379 H   0  0  0  0  0  0  0  0  0  0  0  0
   -6.5982    2.9549    2.5352 H   0  0  0  0  0  0  0  0  0  0  0  0
   -4.8208    4.1751    3.6064 H   0  0  0  0  0  0  0  0  0  0  0  0
   -4.2454    6.6507   -0.0943 H   0  0  0  0  0  0  0  0  0  0  0  0
  1  2  1  0  0  0  0
  1 18  1  0  0  0  0
  1 19  1  0  0  0  0
  1 20  1  0  0  0  0
  2  3  2  0  0  0  0
  2 16  1  0  0  0  0
  3  4  1  0  0  0  0
  3 21  1  0  0  0  0
  4 13  1  0  0  0  0
  5  6  1  0  0  0  0
  5 12  1  0  0  0  0
  5 22  1  6  0  0  0
  5  4  1  0  0  0  0
  6 23  1  0  0  0  0
  6 24  1  0  0  0  0
  7  6  1  0  0  0  0
  7  8  1  0  0  0  0
  7  9  1  0  0  0  0
  7 25  1  1  0  0  0
  9 12  1  0  0  0  0
  9 26  1  6  0  0  0
  9 10  1  0  0  0  0
 10 11  1  0  0  0  0
 10 27  1  0  0  0  0
 10 28  1  0  0  0  0
 11 29  1  0  0  0  0
 13 14  2  0  0  0  0
 13 15  1  0  0  0  0
 15 16  1  0  0  0  0
 15 30  1  0  0  0  0
 16 17  2  0  0  0  0
M  ISO  1   8  18
M  END
>  <DRUGBANK_ID>
DB14930

>  <COMMON_NAME>
Alovudine F-18

>  <CAS_NUMBER>
287114-80-1

>  <UNII>
2X1K91UT6N

>  <SYNONYMS>
18F-FLT; FLUOROTHYMIDINE F-18

$$$$
