
 OpenBabel10282417133D

 27 27  0  0  1  0  0  0  0  0999 V2000
    0.5246    1.4061   -0.3495 C   0  0  2  0  0  0  0  0  0  0  0  0
    1.3956    0.2188   -0.0892 C   0  0  1  0  0  0  0  0  0  0  0  0
   -0.8479    1.1991    0.2963 C   0  0  2  0  0  0  0  0  0  0  0  0
    0.7845   -1.1598   -0.2928 C   0  0  2  0  0  0  0  0  0  0  0  0
   -0.8177    1.4243    1.8342 C   0  0  0  0  0  0  0  0  0  0  0  0
   -0.6824   -1.2275    0.2009 C   0  0  1  0  0  0  0  0  0  0  0  0
    0.5041    1.5467   -1.7734 O   0  0  0  0  0  0  0  0  0  0  0  0
    2.5999    0.3093   -0.8970 O   0  0  0  0  0  0  0  0  0  0  0  0
   -1.4511    2.2590    2.4580 O   0  0  0  0  0  0  0  0  0  0  0  0
   -0.0215    0.5497    2.4885 O   0  0  0  0  0  0  0  0  0  0  0  0
   -0.7897   -1.5407    1.5711 O   0  0  0  0  0  0  0  0  0  0  0  0
    3.7319   -0.7072    0.9346 O   0  0  0  0  0  0  0  0  0  0  0  0
    1.9973   -1.3385    2.5676 O   0  0  0  0  0  0  0  0  0  0  0  0
    3.6004   -3.0316    1.6033 O   0  0  0  0  0  0  0  0  0  0  0  0
   -1.4249   -0.0453   -0.1203 O   0  0  0  0  0  0  0  0  0  0  0  0
    1.6863   -2.1647    0.2246 O   0  0  0  0  0  0  0  0  0  0  0  0
    2.7416   -1.8723    1.4566 S   0  0  0  0  0  0  0  0  0  0  0  0
    1.0250    2.2952    0.0530 H   0  0  0  0  0  0  0  0  0  0  0  0
    1.6836    0.3511    0.9480 H   0  0  0  0  0  0  0  0  0  0  0  0
   -1.4911    1.9924   -0.1023 H   0  0  0  0  0  0  0  0  0  0  0  0
    0.7370   -1.3528   -1.3761 H   0  0  0  0  0  0  0  0  0  0  0  0
   -1.2090   -2.0500   -0.3004 H   0  0  0  0  0  0  0  0  0  0  0  0
    1.4503    1.6329   -2.0172 H   0  0  0  0  0  0  0  0  0  0  0  0
    2.4212   -0.1026   -1.7673 H   0  0  0  0  0  0  0  0  0  0  0  0
   -0.2369    0.5610    3.4503 H   0  0  0  0  0  0  0  0  0  0  0  0
   -0.0759   -1.0500    2.0265 H   0  0  0  0  0  0  0  0  0  0  0  0
    3.6122   -0.5205   -0.0269 H   0  0  0  0  0  0  0  0  0  0  0  0
  1 18  1  1  0  0  0
  1  7  1  0  0  0  0
  2  1  1  0  0  0  0
  2  8  1  0  0  0  0
  2 19  1  1  0  0  0
  3  1  1  0  0  0  0
  3  5  1  0  0  0  0
  3 20  1  6  0  0  0
  4  2  1  0  0  0  0
  4 21  1  6  0  0  0
  4 16  1  0  0  0  0
  6  4  1  0  0  0  0
  6 22  1  6  0  0  0
  6 11  1  0  0  0  0
  7 23  1  0  0  0  0
  8 24  1  0  0  0  0
  9  5  2  0  0  0  0
 10  5  1  0  0  0  0
 10 25  1  0  0  0  0
 11 26  1  0  0  0  0
 12 27  1  0  0  0  0
 15  3  1  0  0  0  0
 15  6  1  0  0  0  0
 17 12  1  0  0  0  0
 17 13  2  0  0  0  0
 17 14  2  0  0  0  0
 17 16  1  0  0  0  0
M  END
>  <DRUGBANK_ID>
DB03935

>  <SECONDARY_ACCESSION_NUMBERS>
EXPT01845

>  <COMMON_NAME>
1,4-Dideoxy-O2-Sulfo-Glucuronic Acid

$$$$
