
 OpenBabel10282417173D

 39 41  0  0  0  0  0  0  0  0999 V2000
    0.3852   -2.5530   -0.4278 C   0  0  0  0  0  0  0  0  0  0  0  0
   -0.8788   -2.0925   -0.5703 C   0  0  0  0  0  0  0  0  0  0  0  0
    1.4372   -1.6659   -0.3135 C   0  0  0  0  0  0  0  0  0  0  0  0
    1.1648   -1.4120    2.9878 C   0  0  0  0  0  0  0  0  0  0  0  0
    1.0620   -0.0074    2.9406 C   0  0  0  0  0  0  0  0  0  0  0  0
   -2.9608    1.8955   -0.8334 C   0  0  0  0  0  0  0  0  0  0  0  0
   -2.5766    1.6553    0.4574 C   0  0  0  0  0  0  0  0  0  0  0  0
   -1.2018   -1.5724    2.6882 C   0  0  0  0  0  0  0  0  0  0  0  0
   -1.5632    2.9919    2.2479 C   0  0  0  0  0  0  0  0  0  0  0  0
    0.0836    1.8517   -0.1572 C   0  0  0  0  0  0  0  0  0  0  0  0
   -2.9953    3.7159    0.2177 C   0  0  0  0  0  0  0  0  0  0  0  0
    0.0316   -2.1860    2.7793 C   0  0  0  0  0  0  0  0  0  0  0  0
   -0.1947    0.6379    2.7828 C   0  0  0  0  0  0  0  0  0  0  0  0
   -0.0425    0.2903   -0.3945 C   0  0  0  0  0  0  0  0  0  0  0  0
   -1.1496   -0.7246   -0.5168 C   0  0  0  0  0  0  0  0  0  0  0  0
    1.2544   -0.2825   -0.3479 C   0  0  0  0  0  0  0  0  0  0  0  0
   -1.3154   -0.1972    2.8886 C   0  0  0  0  0  0  0  0  0  0  0  0
   -0.2317    2.1213    2.3272 C   0  0  3  0  0  0  0  0  0  0  0  0
    0.1254   -3.8985    2.6411 Cl  0  0  0  0  0  0  0  0  0  0  0  0
   -2.9746   -0.8877   -0.3521 Cl  0  0  0  0  0  0  0  0  0  0  0  0
    2.7455    0.6149   -0.1570 Cl  0  0  0  0  0  0  0  0  0  0  0  0
   -2.9006    0.3183    3.3465 Cl  0  0  0  0  0  0  0  0  0  0  0  0
   -3.3098    3.1865   -0.9480 N   0  0  0  0  0  0  0  0  0  0  0  0
   -2.4313    2.8486    1.0903 N   0  0  0  0  0  0  0  0  0  0  0  0
    0.5918    2.2822    1.1439 O   0  0  0  0  0  0  0  0  0  0  0  0
    0.5062   -3.6159   -0.2719 H   0  0  0  0  0  0  0  0  0  0  0  0
   -1.6923   -2.8255   -0.5330 H   0  0  0  0  0  0  0  0  0  0  0  0
    2.4133   -2.0672   -0.0875 H   0  0  0  0  0  0  0  0  0  0  0  0
    2.1337   -1.8954    3.0894 H   0  0  0  0  0  0  0  0  0  0  0  0
    1.9885    0.5699    2.9678 H   0  0  0  0  0  0  0  0  0  0  0  0
   -2.9172    1.2087   -1.6887 H   0  0  0  0  0  0  0  0  0  0  0  0
   -2.1281    0.8279    0.9387 H   0  0  0  0  0  0  0  0  0  0  0  0
   -2.0874   -2.1452    2.4218 H   0  0  0  0  0  0  0  0  0  0  0  0
   -2.1617    2.7943    3.1382 H   0  0  0  0  0  0  0  0  0  0  0  0
   -1.2962    4.0531    2.2613 H   0  0  0  0  0  0  0  0  0  0  0  0
    0.8512    2.2262   -0.8630 H   0  0  0  0  0  0  0  0  0  0  0  0
   -0.6726    2.5510   -0.4912 H   0  0  0  0  0  0  0  0  0  0  0  0
   -3.1220    4.7682    0.4265 H   0  0  0  0  0  0  0  0  0  0  0  0
    0.3512    2.6215    3.1217 H   0  0  0  0  0  0  0  0  0  0  0  0
  1 26  1  0  0  0  0
  2  1  2  0  0  0  0
  2 27  1  0  0  0  0
  3  1  1  0  0  0  0
  3 28  1  0  0  0  0
  4 29  1  0  0  0  0
  5  4  2  0  0  0  0
  5 30  1  0  0  0  0
  6 31  1  0  0  0  0
  7  6  2  0  0  0  0
  7 32  1  0  0  0  0
  8 33  1  0  0  0  0
  9 34  1  0  0  0  0
  9 35  1  0  0  0  0
 10 36  1  0  0  0  0
 10 37  1  0  0  0  0
 11 38  1  0  0  0  0
 12  4  1  0  0  0  0
 12  8  2  0  0  0  0
 13  5  1  0  0  0  0
 14 10  1  0  0  0  0
 15  2  1  0  0  0  0
 15 14  2  0  0  0  0
 16  3  2  0  0  0  0
 16 14  1  0  0  0  0
 17  8  1  0  0  0  0
 17 13  2  0  0  0  0
 18  9  1  0  0  0  0
 18 13  1  0  0  0  0
 18 39  1  0  0  0  0
 19 12  1  0  0  0  0
 20 15  1  0  0  0  0
 21 16  1  0  0  0  0
 22 17  1  0  0  0  0
 23  6  1  0  0  0  0
 23 11  2  0  0  0  0
 24  7  1  0  0  0  0
 24  9  1  0  0  0  0
 24 11  1  0  0  0  0
 25 10  1  0  0  0  0
 25 18  1  0  0  0  0
M  END
>  <DRUGBANK_ID>
DB08943

>  <COMMON_NAME>
Isoconazole

>  <CAS_NUMBER>
27523-40-6

>  <UNII>
GRI7WFR424

>  <SYNONYMS>
Isoconazol; Isoconazole; Isoconazolum

$$$$
