
 OpenBabel10282417213D

  9  8  0  0  0  0  0  0  0  0999 V2000
    1.0331   -0.0088   -0.0528 C   0  0  0  0  0  0  0  0  0  0  0  0
   -0.9370    1.0603   -0.4946 O   0  0  0  0  0  0  0  0  0  0  0  0
    0.3921   -0.9731    0.3456 O   0  0  0  0  0  0  0  0  0  0  0  0
    0.5214    1.1677   -0.5390 O   0  0  0  0  0  0  0  0  0  0  0  0
    2.5325    0.0402   -0.0731 C   0  0  0  0  0  0  0  0  0  0  0  0
   -1.1256    1.9416   -0.8588 H   0  0  0  0  0  0  0  0  0  0  0  0
    2.9249   -0.9040    0.3171 H   0  0  0  0  0  0  0  0  0  0  0  0
    2.8931    0.1643   -1.0973 H   0  0  0  0  0  0  0  0  0  0  0  0
    2.8931    0.8510    0.5647 H   0  0  0  0  0  0  0  0  0  0  0  0
  1  3  2  0  0  0  0
  1  4  1  0  0  0  0
  1  5  1  0  0  0  0
  2  4  1  0  0  0  0
  2  6  1  0  0  0  0
  5  7  1  0  0  0  0
  5  8  1  0  0  0  0
  5  9  1  0  0  0  0
M  END
>  <DRUGBANK_ID>
DB14556

>  <COMMON_NAME>
Peracetic acid

>  <CAS_NUMBER>
79-21-0

>  <UNII>
I6KPI2E1HD

>  <SYNONYMS>
Acide peracetique; Acido peroxiacetico; Ethaneperoxic acid; Ethaneperoxoic acid; PAA; Peroxoacetic acid; Peroxyacetic acid

$$$$
