
 OpenBabel10282417183D

104110  0  0  0  0  0  0  0  0999 V2000
   -0.6757    0.8372    0.1528 C   0  0  1  0  0  0  0  0  0  0  0  0
   -0.7358    0.5887    1.6937 C   0  0  0  0  0  0  0  0  0  0  0  0
   -2.0692    0.4884    2.2333 N   0  0  0  0  0  0  0  0  0  0  0  0
    0.2826    0.6097    2.3625 O   0  0  0  0  0  0  0  0  0  0  0  0
    0.3851    1.8819   -0.3234 C   0  0  0  0  0  0  0  0  0  0  0  0
    0.5050    0.5023   -0.8005 C   0  0  1  0  0  0  0  0  0  0  0  0
   -2.5063    0.1122    3.8221 S   0  0  0  0  0  0  0  0  0  0  0  0
   -3.4003    1.5611    4.4773 C   0  0  0  0  0  0  0  0  0  0  0  0
   -3.4488   -0.9828    3.7384 O   0  0  0  0  0  0  0  0  0  0  0  0
   -1.3201    0.0277    4.6390 O   0  0  0  0  0  0  0  0  0  0  0  0
   -4.6279    1.4348    5.3500 C   0  0  0  0  0  0  0  0  0  0  0  0
   -4.7704    1.8476    3.9090 C   0  0  0  0  0  0  0  0  0  0  0  0
    1.5485   -0.5155   -0.6993 C   0  0  0  0  0  0  0  0  0  0  0  0
    1.7722   -1.3542   -1.7374 C   0  0  0  0  0  0  0  0  0  0  0  0
    3.0001   -6.9447   -1.7701 C   0  0  1  0  0  0  0  0  0  0  0  0
    2.4947   -5.5499   -1.9612 C   0  0  0  0  0  0  0  0  0  0  0  0
    2.9002   -4.9601   -3.3614 C   0  0  0  0  0  0  0  0  0  0  0  0
    2.1804   -5.5420   -4.5705 C   0  0  0  0  0  0  0  0  0  0  0  0
    0.7784   -5.1838   -4.4422 C   0  0  0  0  0  0  0  0  0  0  0  0
    0.3016   -3.8455   -4.1307 C   0  0  0  0  0  0  0  0  0  0  0  0
    0.1371   -3.0341   -5.2956 C   0  0  0  0  0  0  0  0  0  0  0  0
   -1.0579   -2.5221   -5.8128 C   0  0  0  0  0  0  0  0  0  0  0  0
   -1.0207   -2.0600   -7.0586 N   0  0  0  0  0  0  0  0  0  0  0  0
    0.1572   -2.2110   -7.7183 C   0  0  0  0  0  0  0  0  0  0  0  0
    1.3148   -2.7516   -7.1307 C   0  0  0  0  0  0  0  0  0  0  0  0
    1.3364   -3.0373   -5.8801 N   0  0  0  0  0  0  0  0  0  0  0  0
    0.3015   -1.8053   -9.0093 C   0  0  0  0  0  0  0  0  0  0  0  0
    1.4442   -2.1576   -9.7320 C   0  0  0  0  0  0  0  0  0  0  0  0
    2.4649   -2.9118   -9.1503 C   0  0  0  0  0  0  0  0  0  0  0  0
    2.4609   -3.0793   -7.7941 C   0  0  0  0  0  0  0  0  0  0  0  0
    2.8386   -8.1216   -2.7273 C   0  0  1  0  0  0  0  0  0  0  0  0
    2.5808   -8.3048   -1.2516 C   0  0  0  0  0  0  0  0  0  0  0  0
    1.6877   -8.5953   -3.4879 O   0  0  0  0  0  0  0  0  0  0  0  0
    0.4439   -8.0016   -3.5850 C   0  0  0  0  0  0  0  0  0  0  0  0
    0.2021   -7.0203   -2.6101 N   0  0  0  0  0  0  0  0  0  0  0  0
   -0.2959   -8.3407   -4.5004 O   0  0  0  0  0  0  0  0  0  0  0  0
   -0.9697   -5.7094   -2.3696 C   0  0  2  0  0  0  0  0  0  0  0  0
   -2.3193   -2.5115   -5.2578 O   0  0  0  0  0  0  0  0  0  0  0  0
   -0.7919   -3.9410   -1.3400 C   0  0  0  0  0  0  0  0  0  0  0  0
   -0.3062   -3.9856   -0.2896 O   0  0  0  0  0  0  0  0  0  0  0  0
    1.4725   -1.6836  -11.0088 O   0  0  0  0  0  0  0  0  0  0  0  0
    2.6644   -1.9733  -11.7236 C   0  0  0  0  0  0  0  0  0  0  0  0
   -1.8679   -2.7538   -2.9972 C   0  0  0  0  0  0  0  0  0  0  0  0
   -1.5980   -2.4320   -1.7487 N   0  0  0  0  0  0  0  0  0  0  0  0
   -1.7193   -0.7074   -2.1385 C   0  0  1  0  0  0  0  0  0  0  0  0
   -2.0230   -0.5794   -3.7308 C   0  0  0  0  0  0  0  0  0  0  0  0
   -2.5732   -1.9314   -3.9704 C   0  0  1  0  0  0  0  0  0  0  0  0
   -2.6510    0.2146   -1.3489 C   0  0  0  0  0  0  0  0  0  0  0  0
   -2.0348    0.9947   -0.3963 N   0  0  0  0  0  0  0  0  0  0  0  0
   -3.8566    0.3305   -1.5472 O   0  0  0  0  0  0  0  0  0  0  0  0
   -2.3859   -6.2723   -2.4447 C   0  0  0  0  0  0  0  0  0  0  0  0
   -2.2436   -5.8505   -3.9569 C   0  0  0  0  0  0  0  0  0  0  0  0
   -3.8689   -6.3618   -2.5062 C   0  0  0  0  0  0  0  0  0  0  0  0
   -2.1849   -6.1404   -0.7310 C   0  0  0  0  0  0  0  0  0  0  0  0
   -2.8434    0.2987    1.6026 H   0  0  0  0  0  0  0  0  0  0  0  0
    0.0821    2.5905   -1.1049 H   0  0  0  0  0  0  0  0  0  0  0  0
    1.2097    2.2658    0.2562 H   0  0  0  0  0  0  0  0  0  0  0  0
    0.4532    0.6355   -1.8689 H   0  0  0  0  0  0  0  0  0  0  0  0
   -2.7319    2.3586    4.7533 H   0  0  0  0  0  0  0  0  0  0  0  0
   -5.0901    0.5007    5.6476 H   0  0  0  0  0  0  0  0  0  0  0  0
   -4.7687    2.2114    6.1039 H   0  0  0  0  0  0  0  0  0  0  0  0
   -5.0270    2.8839    3.7087 H   0  0  0  0  0  0  0  0  0  0  0  0
   -5.3040    1.1492    3.2727 H   0  0  0  0  0  0  0  0  0  0  0  0
    2.2245   -0.5659    0.1479 H   0  0  0  0  0  0  0  0  0  0  0  0
    2.5497   -2.1085   -1.7624 H   0  0  0  0  0  0  0  0  0  0  0  0
    1.1645   -1.3055   -2.6422 H   0  0  0  0  0  0  0  0  0  0  0  0
    3.9694   -6.7493   -1.3223 H   0  0  0  0  0  0  0  0  0  0  0  0
    3.0506   -4.9149   -1.2552 H   0  0  0  0  0  0  0  0  0  0  0  0
    1.4795   -5.3496   -1.6029 H   0  0  0  0  0  0  0  0  0  0  0  0
    3.9579   -5.1043   -3.5432 H   0  0  0  0  0  0  0  0  0  0  0  0
    2.7373   -3.8759   -3.3327 H   0  0  0  0  0  0  0  0  0  0  0  0
    2.2239   -6.6235   -4.5672 H   0  0  0  0  0  0  0  0  0  0  0  0
    2.4627   -5.2275   -5.5635 H   0  0  0  0  0  0  0  0  0  0  0  0
    0.6772   -5.4798   -3.4510 H   0  0  0  0  0  0  0  0  0  0  0  0
    0.1574   -5.7145   -5.1517 H   0  0  0  0  0  0  0  0  0  0  0  0
    0.8265   -3.3658   -3.3002 H   0  0  0  0  0  0  0  0  0  0  0  0
   -0.6756   -4.1068   -3.8309 H   0  0  0  0  0  0  0  0  0  0  0  0
   -0.4949   -1.2191   -9.4467 H   0  0  0  0  0  0  0  0  0  0  0  0
    3.2865   -3.3420   -9.7076 H   0  0  0  0  0  0  0  0  0  0  0  0
    3.3130   -3.4981   -7.2630 H   0  0  0  0  0  0  0  0  0  0  0  0
    3.8024   -8.3817   -3.1663 H   0  0  0  0  0  0  0  0  0  0  0  0
    3.3378   -8.8470   -0.6949 H   0  0  0  0  0  0  0  0  0  0  0  0
    1.5997   -8.6792   -0.9899 H   0  0  0  0  0  0  0  0  0  0  0  0
    0.4812   -7.4392   -1.7341 H   0  0  0  0  0  0  0  0  0  0  0  0
   -1.0622   -6.7127   -1.9471 H   0  0  0  0  0  0  0  0  0  0  0  0
    3.5574   -1.6061  -11.2011 H   0  0  0  0  0  0  0  0  0  0  0  0
    2.7340   -3.0500  -11.9088 H   0  0  0  0  0  0  0  0  0  0  0  0
    2.6014   -1.4602  -12.6822 H   0  0  0  0  0  0  0  0  0  0  0  0
   -0.8531   -2.4960   -3.2518 H   0  0  0  0  0  0  0  0  0  0  0  0
   -2.3944   -3.6459   -2.8048 H   0  0  0  0  0  0  0  0  0  0  0  0
   -0.8847   -0.0750   -2.3316 H   0  0  0  0  0  0  0  0  0  0  0  0
   -2.7012    0.2132   -4.0816 H   0  0  0  0  0  0  0  0  0  0  0  0
   -1.0874   -0.4028   -4.3051 H   0  0  0  0  0  0  0  0  0  0  0  0
   -3.6248   -1.9453   -3.6902 H   0  0  0  0  0  0  0  0  0  0  0  0
   -2.6679    1.5824    0.1390 H   0  0  0  0  0  0  0  0  0  0  0  0
   -2.8350   -6.3222   -4.7468 H   0  0  0  0  0  0  0  0  0  0  0  0
   -2.4161   -4.8006   -4.1451 H   0  0  0  0  0  0  0  0  0  0  0  0
   -1.3221   -6.2308   -4.3553 H   0  0  0  0  0  0  0  0  0  0  0  0
   -4.2169   -7.0802   -1.7622 H   0  0  0  0  0  0  0  0  0  0  0  0
   -4.3473   -5.3930   -2.4196 H   0  0  0  0  0  0  0  0  0  0  0  0
   -4.1779   -6.8510   -3.4454 H   0  0  0  0  0  0  0  0  0  0  0  0
   -2.5140   -7.0563   -0.2462 H   0  0  0  0  0  0  0  0  0  0  0  0
   -1.0959   -6.2077   -0.3712 H   0  0  0  0  0  0  0  0  0  0  0  0
   -2.5751   -5.2105   -0.3522 H   0  0  0  0  0  0  0  0  0  0  0  0
  1  2  1  1  0  0  0
  1  5  1  0  0  0  0
  1  6  1  0  0  0  0
  1 49  1  0  0  0  0
  2  3  1  0  0  0  0
  2  4  2  0  0  0  0
  3  7  1  0  0  0  0
  3 55  1  0  0  0  0
  5  6  1  0  0  0  0
  5 56  1  0  0  0  0
  5 57  1  0  0  0  0
  6 13  1  0  0  0  0
  6 58  1  6  0  0  0
  7  8  1  0  0  0  0
  7  9  2  0  0  0  0
  7 10  2  0  0  0  0
  8 11  1  0  0  0  0
  8 12  1  0  0  0  0
  8 59  1  0  0  0  0
 11 60  1  0  0  0  0
 11 61  1  0  0  0  0
 12 11  1  0  0  0  0
 12 62  1  0  0  0  0
 12 63  1  0  0  0  0
 13 14  2  0  0  0  0
 13 64  1  0  0  0  0
 14 65  1  0  0  0  0
 14 66  1  0  0  0  0
 15 16  1  0  0  0  0
 15 31  1  0  0  0  0
 15 32  1  0  0  0  0
 15 67  1  6  0  0  0
 16 17  1  0  0  0  0
 16 68  1  0  0  0  0
 16 69  1  0  0  0  0
 17 18  1  0  0  0  0
 17 70  1  0  0  0  0
 17 71  1  0  0  0  0
 18 19  1  0  0  0  0
 18 72  1  0  0  0  0
 18 73  1  0  0  0  0
 19 20  1  0  0  0  0
 19 74  1  0  0  0  0
 19 75  1  0  0  0  0
 20 21  1  0  0  0  0
 20 76  1  0  0  0  0
 20 77  1  0  0  0  0
 21 22  2  0  0  0  0
 21 26  1  0  0  0  0
 22 23  1  0  0  0  0
 22 38  1  0  0  0  0
 23 24  2  0  0  0  0
 24 25  1  0  0  0  0
 24 27  1  0  0  0  0
 25 26  2  0  0  0  0
 25 30  1  0  0  0  0
 27 28  2  0  0  0  0
 27 78  1  0  0  0  0
 28 29  1  0  0  0  0
 28 41  1  0  0  0  0
 29 30  2  0  0  0  0
 29 79  1  0  0  0  0
 30 80  1  0  0  0  0
 31 33  1  0  0  0  0
 31 81  1  6  0  0  0
 32 31  1  0  0  0  0
 32 82  1  0  0  0  0
 32 83  1  0  0  0  0
 33 34  1  0  0  0  0
 34 35  1  0  0  0  0
 34 36  2  0  0  0  0
 35 37  1  0  0  0  0
 35 84  1  0  0  0  0
 37 39  1  0  0  0  0
 37 51  1  0  0  0  0
 37 85  1  6  0  0  0
 39 40  2  0  0  0  0
 39 44  1  0  0  0  0
 41 42  1  0  0  0  0
 42 86  1  0  0  0  0
 42 87  1  0  0  0  0
 42 88  1  0  0  0  0
 43 44  1  0  0  0  0
 43 47  1  0  0  0  0
 43 89  1  0  0  0  0
 43 90  1  0  0  0  0
 44 45  1  0  0  0  0
 45 46  1  0  0  0  0
 45 91  1  1  0  0  0
 45 48  1  0  0  0  0
 46 47  1  0  0  0  0
 46 92  1  0  0  0  0
 46 93  1  0  0  0  0
 47 38  1  0  0  0  0
 47 94  1  1  0  0  0
 48 49  1  0  0  0  0
 48 50  2  0  0  0  0
 49 95  1  0  0  0  0
 51 52  1  0  0  0  0
 51 53  1  0  0  0  0
 51 54  1  0  0  0  0
 52 96  1  0  0  0  0
 52 97  1  0  0  0  0
 52 98  1  0  0  0  0
 53 99  1  0  0  0  0
 53100  1  0  0  0  0
 53101  1  0  0  0  0
 54102  1  0  0  0  0
 54103  1  0  0  0  0
 54104  1  0  0  0  0
M  END
>  <DRUGBANK_ID>
DB11575

>  <COMMON_NAME>
Grazoprevir

>  <CAS_NUMBER>
1350514-68-9

>  <UNII>
8YE81R1X1J

>  <SYNONYMS>
Grazoprevir; Grazoprevir anhydrous

$$$$
