
 OpenBabel10282417193D

 63 66  0  0  0  0  0  0  0  0999 V2000
    1.0918    0.3248    0.1358 O   0  0  0  0  0  0  0  0  0  0  0  0
    2.3179    0.3570    0.1886 C   0  0  0  0  0  0  0  0  0  0  0  0
    3.0000   -0.2188    1.2221 N   0  0  0  0  0  0  0  0  0  0  0  0
    3.0760    1.0102   -0.8977 C   0  0  0  0  0  0  0  0  0  0  0  0
    2.6346    2.2940   -1.1496 C   0  0  0  0  0  0  0  0  0  0  0  0
    3.1289    3.0923   -2.1115 N   0  0  0  0  0  0  0  0  0  0  0  0
    4.0938    2.6202   -2.9061 C   0  0  0  0  0  0  0  0  0  0  0  0
    4.6244    1.3015   -2.7773 C   0  0  0  0  0  0  0  0  0  0  0  0
    5.6413    0.9205   -3.7046 C   0  0  0  0  0  0  0  0  0  0  0  0
    6.0946    1.8013   -4.6967 C   0  0  0  0  0  0  0  0  0  0  0  0
    7.3872    1.2724   -5.8052 S   0  0  0  0  0  0  0  0  0  0  0  0
    8.5599    1.0197   -5.0003 O   0  0  0  0  0  0  0  0  0  0  0  0
    7.8069    2.6140   -6.8944 C   0  0  0  0  0  0  0  0  0  0  0  0
    8.3451    3.7903   -6.3357 C   0  0  0  0  0  0  0  0  0  0  0  0
    8.6463    4.8904   -7.1516 C   0  0  0  0  0  0  0  0  0  0  0  0
    9.1925    6.1383   -6.4925 C   0  0  0  0  0  0  0  0  0  0  0  0
    9.5756    7.2746   -7.2212 N   0  0  0  0  0  0  0  0  0  0  0  0
    9.4815    7.4502   -8.6534 C   0  0  0  0  0  0  0  0  0  0  0  0
   10.1320    8.4190   -6.5203 C   0  0  0  0  0  0  0  0  0  0  0  0
    9.2944    6.1096   -5.2628 O   0  0  0  0  0  0  0  0  0  0  0  0
    8.4238    4.7245   -8.5223 C   0  0  0  0  0  0  0  0  0  0  0  0
    7.9649    3.5377   -9.0863 C   0  0  0  0  0  0  0  0  0  0  0  0
    7.6060    2.4867   -8.2688 C   0  0  0  0  0  0  0  0  0  0  0  0
    6.8031    0.2187   -6.6251 O   0  0  0  0  0  0  0  0  0  0  0  0
    5.5554    3.0760   -4.7939 C   0  0  0  0  0  0  0  0  0  0  0  0
    4.5708    3.4877   -3.8935 C   0  0  0  0  0  0  0  0  0  0  0  0
    4.0345    4.8959   -4.0089 C   0  0  0  0  0  0  0  0  0  0  0  0
    4.0855    0.4618   -1.7267 C   0  0  0  0  0  0  0  0  0  0  0  0
    4.6241   -0.8466   -1.5207 N   0  0  0  0  0  0  0  0  0  0  0  0
    4.0620   -1.9349   -0.8193 C   0  0  0  0  0  0  0  0  0  0  0  0
    2.7061   -2.2588   -0.9534 C   0  0  0  0  0  0  0  0  0  0  0  0
    4.8342   -2.6212    0.1237 C   0  0  0  0  0  0  0  0  0  0  0  0
    4.2439   -3.5907    0.9380 C   0  0  0  0  0  0  0  0  0  0  0  0
    2.8686   -3.8352    0.8539 C   0  0  0  0  0  0  0  0  0  0  0  0
    2.0880   -3.1622   -0.0883 C   0  0  0  0  0  0  0  0  0  0  0  0
    0.7395   -3.4028   -0.0504 O   0  0  0  0  0  0  0  0  0  0  0  0
   -0.0581   -2.6553   -0.9719 C   0  0  0  0  0  0  0  0  0  0  0  0
    3.9857   -0.4108    1.0990 H   0  0  0  0  0  0  0  0  0  0  0  0
    2.4879   -0.9868    1.6504 H   0  0  0  0  0  0  0  0  0  0  0  0
    1.8384    2.7353   -0.5534 H   0  0  0  0  0  0  0  0  0  0  0  0
    6.0925   -0.0680   -3.6725 H   0  0  0  0  0  0  0  0  0  0  0  0
    8.4916    3.8503   -5.2560 H   0  0  0  0  0  0  0  0  0  0  0  0
   10.0956    6.6844   -9.1366 H   0  0  0  0  0  0  0  0  0  0  0  0
    8.4244    7.4012   -8.9336 H   0  0  0  0  0  0  0  0  0  0  0  0
    9.8594    8.4198   -8.9801 H   0  0  0  0  0  0  0  0  0  0  0  0
   11.1332    8.6094   -6.9217 H   0  0  0  0  0  0  0  0  0  0  0  0
    9.4954    9.2864   -6.7237 H   0  0  0  0  0  0  0  0  0  0  0  0
   10.2024    8.2698   -5.4424 H   0  0  0  0  0  0  0  0  0  0  0  0
    8.5760    5.4871   -9.2584 H   0  0  0  0  0  0  0  0  0  0  0  0
    7.8951    3.4738  -10.1697 H   0  0  0  0  0  0  0  0  0  0  0  0
    7.1758    1.5960   -8.7183 H   0  0  0  0  0  0  0  0  0  0  0  0
    5.8780    3.7828   -5.5505 H   0  0  0  0  0  0  0  0  0  0  0  0
    2.9624    4.8801   -4.2274 H   0  0  0  0  0  0  0  0  0  0  0  0
    4.2144    5.4513   -3.0824 H   0  0  0  0  0  0  0  0  0  0  0  0
    4.5248    5.4508   -4.8175 H   0  0  0  0  0  0  0  0  0  0  0  0
    5.3046   -1.1681   -2.2005 H   0  0  0  0  0  0  0  0  0  0  0  0
    2.1145   -1.6709   -1.6470 H   0  0  0  0  0  0  0  0  0  0  0  0
    5.8628   -2.3194    0.3136 H   0  0  0  0  0  0  0  0  0  0  0  0
    4.8470   -4.1248    1.6685 H   0  0  0  0  0  0  0  0  0  0  0  0
    2.4026   -4.5317    1.5478 H   0  0  0  0  0  0  0  0  0  0  0  0
   -0.1050   -1.5993   -0.6928 H   0  0  0  0  0  0  0  0  0  0  0  0
    0.3042   -2.7685   -1.9996 H   0  0  0  0  0  0  0  0  0  0  0  0
   -1.0791   -3.0437   -0.9449 H   0  0  0  0  0  0  0  0  0  0  0  0
  2  1  2  0  0  0  0
  2  3  1  0  0  0  0
  2  4  1  0  0  0  0
  3 38  1  0  0  0  0
  3 39  1  0  0  0  0
  4  5  1  0  0  0  0
  5  6  2  0  0  0  0
  5 40  1  0  0  0  0
  7  6  1  0  0  0  0
  7  8  1  0  0  0  0
  7 26  2  0  0  0  0
  8 28  1  0  0  0  0
  9  8  2  0  0  0  0
  9 41  1  0  0  0  0
 10  9  1  0  0  0  0
 10 11  1  0  0  0  0
 12 11  2  0  0  0  0
 13 11  1  0  0  0  0
 13 14  2  0  0  0  0
 13 23  1  0  0  0  0
 14 42  1  0  0  0  0
 15 14  1  0  0  0  0
 15 16  1  0  0  0  0
 16 17  1  0  0  0  0
 16 20  2  0  0  0  0
 18 17  1  0  0  0  0
 18 43  1  0  0  0  0
 18 44  1  0  0  0  0
 18 45  1  0  0  0  0
 19 17  1  0  0  0  0
 19 46  1  0  0  0  0
 19 47  1  0  0  0  0
 19 48  1  0  0  0  0
 21 15  2  0  0  0  0
 21 49  1  0  0  0  0
 22 21  1  0  0  0  0
 22 50  1  0  0  0  0
 23 22  2  0  0  0  0
 23 51  1  0  0  0  0
 24 11  2  0  0  0  0
 25 10  2  0  0  0  0
 25 52  1  0  0  0  0
 26 25  1  0  0  0  0
 26 27  1  0  0  0  0
 27 53  1  0  0  0  0
 27 54  1  0  0  0  0
 27 55  1  0  0  0  0
 28  4  2  0  0  0  0
 28 29  1  0  0  0  0
 29 56  1  0  0  0  0
 30 29  1  0  0  0  0
 31 30  2  0  0  0  0
 31 57  1  0  0  0  0
 32 30  1  0  0  0  0
 32 58  1  0  0  0  0
 33 32  2  0  0  0  0
 33 59  1  0  0  0  0
 34 33  1  0  0  0  0
 34 60  1  0  0  0  0
 35 31  1  0  0  0  0
 35 34  2  0  0  0  0
 35 36  1  0  0  0  0
 37 36  1  0  0  0  0
 37 61  1  0  0  0  0
 37 62  1  0  0  0  0
 37 63  1  0  0  0  0
M  END
>  <DRUGBANK_ID>
DB12137

>  <COMMON_NAME>
GSK-256066

>  <CAS_NUMBER>
801312-28-7

>  <UNII>
2D6GK059SR

$$$$
