1116
 OpenBabel10282417113D

 51 55  0  0  1  0  0  0  0  0999 V2000
   -0.3833    1.4677    0.8067 S   0  3  3  0  0  0  0  0  0  0  0  0
    2.5260   -2.4985    1.2528 O   0  0  0  0  0  0  0  0  0  0  0  0
    0.7895   -2.2135   -0.2722 N   0  0  0  0  0  0  0  0  0  0  0  0
    2.5570   -0.7430   -0.2635 N   0  0  0  0  0  0  0  0  0  0  0  0
    0.3165   -1.0350    0.3384 C   0  0  3  0  0  0  0  0  0  0  0  0
   -1.0659   -0.5108    0.2032 C   0  0  3  0  0  0  0  0  0  0  0  0
    1.4612    0.0278    0.1731 C   0  0  3  0  0  0  0  0  0  0  0  0
    0.8868    1.2367   -0.5135 C   0  0  0  0  0  0  0  0  0  0  0  0
   -2.0690   -0.0230   -0.8100 C   0  0  0  0  0  0  0  0  0  0  0  0
   -1.7480    2.1757   -0.0859 C   0  0  0  0  0  0  0  0  0  0  0  0
   -2.6944    1.0293    0.1362 C   0  0  0  0  0  0  0  0  0  0  0  0
    2.1302   -2.0324    0.1475 C   0  0  0  0  0  0  0  0  0  0  0  0
    0.4825   -2.4457   -1.6785 C   0  0  0  0  0  0  0  0  0  0  0  0
    3.2184   -0.5479   -1.5381 C   0  0  0  0  0  0  0  0  0  0  0  0
   -0.1066   -3.8133   -1.8752 C   0  0  0  0  0  0  0  0  0  0  0  0
    4.4593   -1.4010   -1.5325 C   0  0  0  0  0  0  0  0  0  0  0  0
   -1.3715   -4.1323   -1.3640 C   0  0  0  0  0  0  0  0  0  0  0  0
    0.6107   -4.7815   -2.5895 C   0  0  0  0  0  0  0  0  0  0  0  0
    4.3546   -2.7787   -1.2454 C   0  0  0  0  0  0  0  0  0  0  0  0
    5.7244   -0.8568   -1.7137 C   0  0  0  0  0  0  0  0  0  0  0  0
   -1.9089   -5.4018   -1.5663 C   0  0  0  0  0  0  0  0  0  0  0  0
    0.0499   -6.0318   -2.8325 C   0  0  0  0  0  0  0  0  0  0  0  0
    5.4571   -3.5717   -1.0180 C   0  0  0  0  0  0  0  0  0  0  0  0
    6.8373   -1.6949   -1.6336 C   0  0  0  0  0  0  0  0  0  0  0  0
   -1.1988   -6.3492   -2.3019 C   0  0  0  0  0  0  0  0  0  0  0  0
    6.7059   -3.0336   -1.2469 C   0  0  0  0  0  0  0  0  0  0  0  0
    0.3036   -1.3293    1.4083 H   0  0  0  0  0  0  0  0  0  0  0  0
   -1.6759   -1.0555    0.9382 H   0  0  0  0  0  0  0  0  0  0  0  0
    1.8233    0.3715    1.1601 H   0  0  0  0  0  0  0  0  0  0  0  0
    0.5027    1.0019   -1.5122 H   0  0  0  0  0  0  0  0  0  0  0  0
    1.5471    2.1052   -0.5725 H   0  0  0  0  0  0  0  0  0  0  0  0
   -1.5569    0.3510   -1.7084 H   0  0  0  0  0  0  0  0  0  0  0  0
   -2.8594   -0.6843   -1.1710 H   0  0  0  0  0  0  0  0  0  0  0  0
   -2.0372    3.1146    0.3763 H   0  0  0  0  0  0  0  0  0  0  0  0
   -1.5118    2.3378   -1.1431 H   0  0  0  0  0  0  0  0  0  0  0  0
   -3.7560    1.2233    0.0985 H   0  0  0  0  0  0  0  0  0  0  0  0
   -2.6059    0.6806    1.2008 H   0  0  0  0  0  0  0  0  0  0  0  0
   -0.2224   -1.7010   -2.0668 H   0  0  0  0  0  0  0  0  0  0  0  0
    1.3775   -2.3680   -2.2955 H   0  0  0  0  0  0  0  0  0  0  0  0
    2.5798   -0.8287   -2.3774 H   0  0  0  0  0  0  0  0  0  0  0  0
    3.4513    0.5179   -1.6672 H   0  0  0  0  0  0  0  0  0  0  0  0
   -1.9364   -3.4007   -0.7922 H   0  0  0  0  0  0  0  0  0  0  0  0
    1.6117   -4.5667   -2.9577 H   0  0  0  0  0  0  0  0  0  0  0  0
    3.4006   -3.2713   -1.1008 H   0  0  0  0  0  0  0  0  0  0  0  0
    5.8557    0.2060   -1.9016 H   0  0  0  0  0  0  0  0  0  0  0  0
   -2.8819   -5.6512   -1.1519 H   0  0  0  0  0  0  0  0  0  0  0  0
    0.5899   -6.7578   -3.4332 H   0  0  0  0  0  0  0  0  0  0  0  0
    5.3078   -4.5902   -0.6726 H   0  0  0  0  0  0  0  0  0  0  0  0
    7.8221   -1.3015   -1.8582 H   0  0  0  0  0  0  0  0  0  0  0  0
   -1.6143   -7.3410   -2.4545 H   0  0  0  0  0  0  0  0  0  0  0  0
    7.5762   -3.6659   -1.1239 H   0  0  0  0  0  0  0  0  0  0  0  0
  1  6  1  0  0  0  0
  1  8  1  0  0  0  0
  1 10  1  0  0  0  0
  2 12  2  0  0  0  0
  3  5  1  0  0  0  0
  3 12  1  0  0  0  0
  3 13  1  0  0  0  0
  4  7  1  0  0  0  0
  4 12  1  0  0  0  0
  4 14  1  0  0  0  0
  5  6  1  0  0  0  0
  5  7  1  0  0  0  0
  5 27  1  0  0  0  0
  6  9  1  0  0  0  0
  6 28  1  0  0  0  0
  7  8  1  0  0  0  0
  7 29  1  0  0  0  0
  8 30  1  0  0  0  0
  8 31  1  0  0  0  0
  9 11  1  0  0  0  0
  9 32  1  0  0  0  0
  9 33  1  0  0  0  0
 10 11  1  0  0  0  0
 10 34  1  0  0  0  0
 10 35  1  0  0  0  0
 11 36  1  0  0  0  0
 11 37  1  0  0  0  0
 13 15  1  0  0  0  0
 13 38  1  0  0  0  0
 13 39  1  0  0  0  0
 14 16  1  0  0  0  0
 14 40  1  0  0  0  0
 14 41  1  0  0  0  0
 15 17  2  0  0  0  0
 15 18  1  0  0  0  0
 16 19  2  0  0  0  0
 16 20  1  0  0  0  0
 17 21  1  0  0  0  0
 17 42  1  0  0  0  0
 18 22  2  0  0  0  0
 18 43  1  0  0  0  0
 19 23  1  0  0  0  0
 19 44  1  0  0  0  0
 20 24  2  0  0  0  0
 20 45  1  0  0  0  0
 21 25  2  0  0  0  0
 21 46  1  0  0  0  0
 22 25  1  0  0  0  0
 22 47  1  0  0  0  0
 23 26  2  0  0  0  0
 23 48  1  0  0  0  0
 24 26  1  0  0  0  0
 24 49  1  0  0  0  0
 25 50  1  0  0  0  0
 26 51  1  0  0  0  0
M  CHG  1   1   1
M  END
>  <DRUGBANK_ID>
DB01116

>  <SECONDARY_ACCESSION_NUMBERS>
APRD00044

>  <COMMON_NAME>
Trimethaphan

>  <CAS_NUMBER>
7187-66-8

>  <UNII>
6G8X656T45

>  <SYNONYMS>
Thimethaphan; Trimetaphan; Trimetaphanum

$$$$
