TR1
 OpenBabel10282417173D

 63 64  0  0  0  0  0  0  0  0999 V2000
    0.7374    2.1974   -0.8025 N   0  0  0  0  0  0  0  0  0  0  0  0
    0.2039    1.2678    0.2444 C   0  0  2  0  0  0  0  0  0  0  0  0
    1.0637   -0.0801    0.1944 C   0  0  0  0  0  0  0  0  0  0  0  0
    2.1275   -0.0902    0.8397 O   0  0  0  0  0  0  0  0  0  0  0  0
    2.0873    4.3711   -7.3050 C   0  0  0  0  0  0  0  0  0  0  0  0
    2.9389    5.4507   -7.2250 C   0  0  0  0  0  0  0  0  0  0  0  0
    1.6060    3.8521   -8.5224 C   0  0  0  0  0  0  0  0  0  0  0  0
    3.2563    6.1043   -8.3789 C   0  0  0  0  0  0  0  0  0  0  0  0
    1.9906    4.4711   -9.6871 C   0  0  0  0  0  0  0  0  0  0  0  0
    2.7752    5.6232   -9.6005 C   0  0  0  0  0  0  0  0  0  0  0  0
    0.8113    2.7177   -3.5968 C   0  0  0  0  0  0  0  0  0  0  0  0
    0.7356    4.0504   -3.7364 C   0  0  0  0  0  0  0  0  0  0  0  0
    1.4570    1.9618   -4.9011 C   0  0  0  0  0  0  0  0  0  0  0  0
    1.2185    4.5361   -4.9544 C   0  0  0  0  0  0  0  0  0  0  0  0
    1.9877    2.4448   -6.0455 C   0  0  0  0  0  0  0  0  0  0  0  0
    1.7777    3.7660   -6.0641 C   0  0  0  0  0  0  0  0  0  0  0  0
    0.0425    2.1483   -2.0832 C   0  0  0  0  0  0  0  0  0  0  0  0
   -1.3121    1.2628    0.2736 C   0  0  0  0  0  0  0  0  0  0  0  0
   -1.9358    0.4958    1.7732 S   0  0  0  0  0  0  0  0  0  0  0  0
    0.9225   -1.1646   -0.6226 N   0  0  0  0  0  0  0  0  0  0  0  0
   -0.0573   -1.7060   -1.5983 C   0  0  0  0  0  0  0  0  0  0  0  0
    0.4264   -1.9878   -3.0956 C   0  0  0  0  0  0  0  0  0  0  0  0
    0.1044   -3.0163   -3.6983 O   0  0  0  0  0  0  0  0  0  0  0  0
    1.0912   -1.0321   -3.8333 N   0  0  0  0  0  0  0  0  0  0  0  0
    1.0341    0.3315   -3.4015 C   0  0  1  0  0  0  0  0  0  0  0  0
    2.7251    1.1713   -2.8852 C   0  0  0  0  0  0  0  0  0  0  0  0
    3.7573    1.4575   -4.0171 C   0  0  0  0  0  0  0  0  0  0  0  0
    3.0354    2.6598   -2.0314 C   0  0  0  0  0  0  0  0  0  0  0  0
   -0.6364    0.9715   -4.2034 C   0  0  0  0  0  0  0  0  0  0  0  0
   -1.7020    1.2711   -3.5600 O   0  0  0  0  0  0  0  0  0  0  0  0
   -0.6928    1.4660   -5.5341 O   0  0  0  0  0  0  0  0  0  0  0  0
   -1.2330    2.8655   -5.8420 C   0  0  0  0  0  0  0  0  0  0  0  0
    0.5534    1.7634    1.1664 H   0  0  0  0  0  0  0  0  0  0  0  0
    0.9197    0.0898   -2.3731 H   0  0  0  0  0  0  0  0  0  0  0  0
    1.6331    1.7453   -0.9104 H   0  0  0  0  0  0  0  0  0  0  0  0
    3.3190    5.7522   -6.2508 H   0  0  0  0  0  0  0  0  0  0  0  0
    0.9483    2.9793   -8.5557 H   0  0  0  0  0  0  0  0  0  0  0  0
    3.8829    6.9799   -8.3009 H   0  0  0  0  0  0  0  0  0  0  0  0
    1.6775    4.0670  -10.6439 H   0  0  0  0  0  0  0  0  0  0  0  0
    3.0216    6.1635  -10.5029 H   0  0  0  0  0  0  0  0  0  0  0  0
    0.2078    4.6137   -2.9866 H   0  0  0  0  0  0  0  0  0  0  0  0
    1.5659    0.8758   -5.1357 H   0  0  0  0  0  0  0  0  0  0  0  0
    1.0484    5.5851   -5.1352 H   0  0  0  0  0  0  0  0  0  0  0  0
    2.5019    1.8290   -6.7948 H   0  0  0  0  0  0  0  0  0  0  0  0
   -0.2737    1.1072   -2.0626 H   0  0  0  0  0  0  0  0  0  0  0  0
   -0.9695    2.5414   -1.9888 H   0  0  0  0  0  0  0  0  0  0  0  0
   -1.6704    2.3014    0.2081 H   0  0  0  0  0  0  0  0  0  0  0  0
   -1.7381    0.7216   -0.5708 H   0  0  0  0  0  0  0  0  0  0  0  0
   -1.3036   -0.6639    1.5580 H   0  0  0  0  0  0  0  0  0  0  0  0
    1.7606   -1.7372   -0.5546 H   0  0  0  0  0  0  0  0  0  0  0  0
   -0.3408   -2.6901   -1.2116 H   0  0  0  0  0  0  0  0  0  0  0  0
   -0.9486   -1.0768   -1.6067 H   0  0  0  0  0  0  0  0  0  0  0  0
    1.0037   -1.1939   -4.8346 H   0  0  0  0  0  0  0  0  0  0  0  0
    3.1793    0.4130   -2.2397 H   0  0  0  0  0  0  0  0  0  0  0  0
    3.5306    2.4581   -4.4065 H   0  0  0  0  0  0  0  0  0  0  0  0
    4.7862    1.6880   -3.7346 H   0  0  0  0  0  0  0  0  0  0  0  0
    3.7372    0.6863   -4.7795 H   0  0  0  0  0  0  0  0  0  0  0  0
    2.9904    2.6730   -0.9340 H   0  0  0  0  0  0  0  0  0  0  0  0
    4.0588    3.0140   -2.1955 H   0  0  0  0  0  0  0  0  0  0  0  0
    2.4570    3.5329   -2.3345 H   0  0  0  0  0  0  0  0  0  0  0  0
   -2.2999    2.8902   -6.0427 H   0  0  0  0  0  0  0  0  0  0  0  0
   -1.0914    3.6325   -5.0668 H   0  0  0  0  0  0  0  0  0  0  0  0
   -0.7062    3.2598   -6.7279 H   0  0  0  0  0  0  0  0  0  0  0  0
  1 17  1  0  0  0  0
  1 35  1  0  0  0  0
  2 18  1  0  0  0  0
  2 33  1  1  0  0  0
  2  3  1  0  0  0  0
  2  1  1  0  0  0  0
  3  4  2  0  0  0  0
  3 20  1  0  0  0  0
  5  6  2  0  0  0  0
  5  7  1  0  0  0  0
  5 16  1  0  0  0  0
  6  8  1  0  0  0  0
  6 36  1  0  0  0  0
  7  9  2  0  0  0  0
  7 37  1  0  0  0  0
  8 10  2  0  0  0  0
  8 38  1  0  0  0  0
  9 10  1  0  0  0  0
  9 39  1  0  0  0  0
 10 40  1  0  0  0  0
 11 12  2  0  0  0  0
 11 13  1  0  0  0  0
 11 17  1  0  0  0  0
 12 14  1  0  0  0  0
 12 41  1  0  0  0  0
 13 15  2  0  0  0  0
 13 42  1  0  0  0  0
 14 16  2  0  0  0  0
 14 43  1  0  0  0  0
 15 16  1  0  0  0  0
 15 44  1  0  0  0  0
 17 45  1  0  0  0  0
 17 46  1  0  0  0  0
 18 19  1  0  0  0  0
 18 47  1  0  0  0  0
 18 48  1  0  0  0  0
 19 49  1  0  0  0  0
 20 21  1  0  0  0  0
 20 50  1  0  0  0  0
 21 22  1  0  0  0  0
 21 51  1  0  0  0  0
 21 52  1  0  0  0  0
 22 23  2  0  0  0  0
 22 24  1  0  0  0  0
 24 53  1  0  0  0  0
 25 24  1  0  0  0  0
 25 26  1  0  0  0  0
 25 29  1  0  0  0  0
 25 34  1  1  0  0  0
 26 27  1  0  0  0  0
 26 28  1  0  0  0  0
 26 54  1  0  0  0  0
 27 55  1  0  0  0  0
 27 56  1  0  0  0  0
 27 57  1  0  0  0  0
 28 58  1  0  0  0  0
 28 59  1  0  0  0  0
 28 60  1  0  0  0  0
 29 30  2  0  0  0  0
 29 31  1  0  0  0  0
 31 32  1  0  0  0  0
 32 61  1  0  0  0  0
 32 62  1  0  0  0  0
 32 63  1  0  0  0  0
M  END
>  <DRUGBANK_ID>
DB08643

>  <COMMON_NAME>
2-(2-{2-[(BIPHENYL-4-YLMETHYL)-AMINO]-3-MERCAPTO-PENTANOYLAMINO}-ACETYLAMINO)-3-METHYL-BUTYRIC ACID METHYL ESTER

$$$$
