
 OpenBabel10282417213D

 37 38  0  0  0  0  0  0  0  0999 V2000
    0.9337   -0.0218    0.0256 C   0  0  0  0  0  0  0  0  0  0  0  0
    0.2933   -0.9424    0.7622 C   0  0  0  0  0  0  0  0  0  0  0  0
    0.9621   -1.8826    1.6594 C   0  0  0  0  0  0  0  0  0  0  0  0
    0.1880    0.9408   -0.7911 C   0  0  0  0  0  0  0  0  0  0  0  0
    0.4153   -3.1543    1.8424 C   0  0  0  0  0  0  0  0  0  0  0  0
    0.9199   -4.0063    2.8297 C   0  0  0  0  0  0  0  0  0  0  0  0
    2.0303   -3.6313    3.5972 C   0  0  0  0  0  0  0  0  0  0  0  0
    2.5803   -2.3569    3.4007 C   0  0  0  0  0  0  0  0  0  0  0  0
    2.0474   -1.4900    2.4447 C   0  0  0  0  0  0  0  0  0  0  0  0
    0.5041    1.1968   -2.1280 C   0  0  0  0  0  0  0  0  0  0  0  0
   -0.2469    2.1007   -2.8827 C   0  0  0  0  0  0  0  0  0  0  0  0
   -1.3304    2.7833   -2.3109 C   0  0  0  0  0  0  0  0  0  0  0  0
   -1.6668    2.5076   -0.9816 C   0  0  0  0  0  0  0  0  0  0  0  0
   -0.8870    1.6348   -0.2194 C   0  0  0  0  0  0  0  0  0  0  0  0
    1.5469    0.5955   -2.7802 O   0  0  0  0  0  0  0  0  0  0  0  0
   -2.0688    3.8289   -3.0929 C   0  0  0  0  0  0  0  0  0  0  0  0
   -3.0433    4.5402   -2.6068 N   0  0  0  0  0  0  0  0  0  0  0  0
   -1.7465    4.1195   -4.3770 N   0  0  0  0  0  0  0  0  0  0  0  0
    2.6537   -4.5703    4.5863 C   0  0  0  0  0  0  0  0  0  0  0  0
    2.2275   -5.7818    4.7961 N   0  0  0  0  0  0  0  0  0  0  0  0
    3.7312   -4.2138    5.3274 N   0  0  0  0  0  0  0  0  0  0  0  0
    2.0169    0.0422    0.0076 H   0  0  0  0  0  0  0  0  0  0  0  0
   -0.7941   -1.0062    0.7571 H   0  0  0  0  0  0  0  0  0  0  0  0
   -0.4131   -3.4946    1.2235 H   0  0  0  0  0  0  0  0  0  0  0  0
    0.4085   -4.9507    2.9797 H   0  0  0  0  0  0  0  0  0  0  0  0
    3.4137   -1.9955    3.9909 H   0  0  0  0  0  0  0  0  0  0  0  0
    2.4789   -0.4972    2.3405 H   0  0  0  0  0  0  0  0  0  0  0  0
    0.0386    2.2480   -3.9174 H   0  0  0  0  0  0  0  0  0  0  0  0
   -2.5290    2.9534   -0.4987 H   0  0  0  0  0  0  0  0  0  0  0  0
   -1.1320    1.5059    0.8338 H   0  0  0  0  0  0  0  0  0  0  0  0
    1.9940   -0.0154   -2.1720 H   0  0  0  0  0  0  0  0  0  0  0  0
   -3.2669    4.3078   -1.6426 H   0  0  0  0  0  0  0  0  0  0  0  0
   -0.9221    3.7795   -4.8468 H   0  0  0  0  0  0  0  0  0  0  0  0
   -2.2058    4.9305   -4.7737 H   0  0  0  0  0  0  0  0  0  0  0  0
    1.4193   -6.0216    4.2283 H   0  0  0  0  0  0  0  0  0  0  0  0
    4.2727   -3.3763    5.1831 H   0  0  0  0  0  0  0  0  0  0  0  0
    4.1606   -4.9549    5.8681 H   0  0  0  0  0  0  0  0  0  0  0  0
  1  4  1  0  0  0  0
  1  2  2  0  0  0  0
  1 22  1  0  0  0  0
  2  3  1  0  0  0  0
  2 23  1  0  0  0  0
  3  5  2  0  0  0  0
  4 10  2  0  0  0  0
  5  6  1  0  0  0  0
  5 24  1  0  0  0  0
  6  7  2  0  0  0  0
  6 25  1  0  0  0  0
  7  8  1  0  0  0  0
  7 19  1  0  0  0  0
  8  9  2  0  0  0  0
  8 26  1  0  0  0  0
  9  3  1  0  0  0  0
  9 27  1  0  0  0  0
 10 11  1  0  0  0  0
 10 15  1  0  0  0  0
 11 12  2  0  0  0  0
 11 28  1  0  0  0  0
 12 16  1  0  0  0  0
 12 13  1  0  0  0  0
 13 14  2  0  0  0  0
 13 29  1  0  0  0  0
 14  4  1  0  0  0  0
 14 30  1  0  0  0  0
 15 31  1  0  0  0  0
 16 17  2  0  0  0  0
 16 18  1  0  0  0  0
 17 32  1  0  0  0  0
 18 33  1  0  0  0  0
 18 34  1  0  0  0  0
 19 20  2  0  0  0  0
 19 21  1  0  0  0  0
 20 35  1  0  0  0  0
 21 36  1  0  0  0  0
 21 37  1  0  0  0  0
M  END
>  <DRUGBANK_ID>
DB14753

>  <COMMON_NAME>
Hydroxystilbamidine

>  <CAS_NUMBER>
495-99-8

>  <UNII>
39J262E49W

>  <SYNONYMS>
2-Hydroxy-4,4'-diguanylstilbene; 2-Hydroxy-4,4'-stilbenedicarboxamidine; Hidroxiestilbamidina; Hydroxystilbamidine; Hydroxystilbamidinum; Idrossistilbamidina; Oxistilbamidinum

$$$$
