
 OpenBabel10282417143D

 48 49  0  0  1  0  0  0  0  0999 V2000
   -6.4635   -0.9056   -5.4629 C   0  0  0  0  0  0  0  0  0  0  0  0
   -5.8386    0.0880   -4.6673 O   0  0  0  0  0  0  0  0  0  0  0  0
   -4.5316    0.4681   -5.0835 C   0  0  2  0  0  0  0  0  0  0  0  0
   -4.4842    1.4136   -6.1783 O   0  0  0  0  0  0  0  0  0  0  0  0
   -3.1577    1.9973   -6.1991 C   0  0  2  0  0  0  0  0  0  0  0  0
   -2.9962    3.2319   -7.0991 C   0  0  0  0  0  0  0  0  0  0  0  0
   -3.6977    4.3418   -6.5322 O   0  0  0  0  0  0  0  0  0  0  0  0
   -2.0464    0.9355   -6.4723 C   0  0  1  0  0  0  0  0  0  0  0  0
   -0.6788    1.4036   -6.3653 O   0  0  0  0  0  0  0  0  0  0  0  0
   -0.0796    1.6233   -5.0608 C   0  0  2  0  0  0  0  0  0  0  0  0
   -0.0879    0.4402   -4.2801 O   0  0  0  0  0  0  0  0  0  0  0  0
    0.2429    0.5579   -2.8921 C   0  0  2  0  0  0  0  0  0  0  0  0
    0.0242   -0.8249   -2.2557 C   0  0  0  0  0  0  0  0  0  0  0  0
    0.7594   -1.8217   -2.9586 O   0  0  0  0  0  0  0  0  0  0  0  0
   -0.6207    1.6084   -2.1734 C   0  0  2  0  0  0  0  0  0  0  0  0
   -2.0136    1.2189   -2.1301 O   0  0  0  0  0  0  0  0  0  0  0  0
   -0.4848    2.9614   -2.8759 C   0  0  2  0  0  0  0  0  0  0  0  0
   -1.4507    3.8763   -2.3239 O   0  0  0  0  0  0  0  0  0  0  0  0
   -0.7567    2.7992   -4.3566 C   0  0  1  0  0  0  0  0  0  0  0  0
   -0.6640    4.0113   -5.0786 O   0  0  0  0  0  0  0  0  0  0  0  0
   -2.2507   -0.3802   -5.7077 C   0  0  2  0  0  0  0  0  0  0  0  0
   -1.5585   -1.4539   -6.3642 O   0  0  0  0  0  0  0  0  0  0  0  0
   -3.6876   -0.7500   -5.4759 C   0  0  1  0  0  0  0  0  0  0  0  0
   -3.7432   -1.7983   -4.4954 O   0  0  0  0  0  0  0  0  0  0  0  0
   -5.7974   -1.6740   -5.8587 H   0  0  0  0  0  0  0  0  0  0  0  0
   -6.9658   -0.4162   -6.2937 H   0  0  0  0  0  0  0  0  0  0  0  0
   -7.1708   -1.4522   -4.8371 H   0  0  0  0  0  0  0  0  0  0  0  0
   -4.1243    0.9565   -4.1842 H   0  0  0  0  0  0  0  0  0  0  0  0
   -3.1395    2.4225   -5.2128 H   0  0  0  0  0  0  0  0  0  0  0  0
   -1.9439    3.5312   -7.1601 H   0  0  0  0  0  0  0  0  0  0  0  0
   -3.3683    3.0745   -8.1109 H   0  0  0  0  0  0  0  0  0  0  0  0
   -4.5974    4.0390   -6.3201 H   0  0  0  0  0  0  0  0  0  0  0  0
   -2.1584    0.6767   -7.5366 H   0  0  0  0  0  0  0  0  0  0  0  0
    0.9661    1.8727   -5.2710 H   0  0  0  0  0  0  0  0  0  0  0  0
    1.3023    0.8266   -2.8446 H   0  0  0  0  0  0  0  0  0  0  0  0
    0.3554   -0.8180   -1.2137 H   0  0  0  0  0  0  0  0  0  0  0  0
   -1.0289   -1.1296   -2.2806 H   0  0  0  0  0  0  0  0  0  0  0  0
    0.3983   -1.8362   -3.8684 H   0  0  0  0  0  0  0  0  0  0  0  0
   -0.3152    1.7115   -1.1306 H   0  0  0  0  0  0  0  0  0  0  0  0
   -2.2826    0.8896   -2.9925 H   0  0  0  0  0  0  0  0  0  0  0  0
    0.5007    3.4038   -2.7249 H   0  0  0  0  0  0  0  0  0  0  0  0
   -2.3438    3.5199   -2.5073 H   0  0  0  0  0  0  0  0  0  0  0  0
   -1.7967    2.5627   -4.3106 H   0  0  0  0  0  0  0  0  0  0  0  0
    0.2791    4.1936   -5.2863 H   0  0  0  0  0  0  0  0  0  0  0  0
   -1.8494   -0.3548   -4.7083 H   0  0  0  0  0  0  0  0  0  0  0  0
   -2.1127   -1.7684   -7.1010 H   0  0  0  0  0  0  0  0  0  0  0  0
   -4.0439   -1.1483   -6.4275 H   0  0  0  0  0  0  0  0  0  0  0  0
   -3.6753   -1.4120   -3.6040 H   0  0  0  0  0  0  0  0  0  0  0  0
  1  2  1  0  0  0  0
  1 25  1  0  0  0  0
  1 26  1  0  0  0  0
  1 27  1  0  0  0  0
  3  4  1  0  0  0  0
  3 23  1  0  0  0  0
  3 28  1  1  0  0  0
  3  2  1  0  0  0  0
  4  5  1  0  0  0  0
  5  6  1  0  0  0  0
  5  8  1  0  0  0  0
  5 29  1  1  0  0  0
  6  7  1  0  0  0  0
  6 30  1  0  0  0  0
  6 31  1  0  0  0  0
  7 32  1  0  0  0  0
  8 21  1  0  0  0  0
  8 33  1  6  0  0  0
  8  9  1  0  0  0  0
 10 11  1  0  0  0  0
 10 19  1  0  0  0  0
 10 34  1  6  0  0  0
 10  9  1  0  0  0  0
 11 12  1  0  0  0  0
 12 13  1  0  0  0  0
 12 15  1  0  0  0  0
 12 35  1  1  0  0  0
 13 14  1  0  0  0  0
 13 36  1  0  0  0  0
 13 37  1  0  0  0  0
 14 38  1  0  0  0  0
 15 16  1  0  0  0  0
 15 17  1  0  0  0  0
 15 39  1  1  0  0  0
 16 40  1  0  0  0  0
 17 18  1  0  0  0  0
 17 19  1  0  0  0  0
 17 41  1  1  0  0  0
 18 42  1  0  0  0  0
 19 20  1  0  0  0  0
 19 43  1  6  0  0  0
 20 44  1  0  0  0  0
 21 22  1  0  0  0  0
 21 23  1  0  0  0  0
 21 45  1  1  0  0  0
 22 46  1  0  0  0  0
 23 24  1  0  0  0  0
 23 47  1  6  0  0  0
 24 48  1  0  0  0  0
M  END
>  <DRUGBANK_ID>
DB04681

>  <COMMON_NAME>
BETA-METHYLLACTOSIDE

>  <UNII>
868YEO5270

$$$$
