
 OpenBabel10282417223D

 45 48  0  0  0  0  0  0  0  0999 V2000
    1.8747    0.3890   -0.7870 C   0  0  0  0  0  0  0  0  0  0  0  0
    0.5185    0.0091   -0.4079 C   0  0  0  0  0  0  0  0  0  0  0  0
   -0.1469   -1.1752   -0.1135 C   0  0  0  0  0  0  0  0  0  0  0  0
   -1.5194   -0.7277    0.0088 C   0  0  0  0  0  0  0  0  0  0  0  0
   -1.5138    0.6477   -0.0006 C   0  0  0  0  0  0  0  0  0  0  0  0
   -0.2660    1.0963   -0.2150 O   0  0  0  0  0  0  0  0  0  0  0  0
    0.3046   -2.5963   -0.0247 C   0  0  0  0  0  0  0  0  0  0  0  0
   -0.5354   -3.4841   -0.0260 O   0  0  0  0  0  0  0  0  0  0  0  0
    1.6453   -3.0047    0.0027 N   0  0  0  0  0  0  0  0  0  0  0  0
    2.8024   -2.3012    0.2933 C   0  0  0  0  0  0  0  0  0  0  0  0
    3.9096   -2.3937   -0.4726 N   0  0  0  0  0  0  0  0  0  0  0  0
    4.6313   -1.2496   -0.1756 N   0  0  0  0  0  0  0  0  0  0  0  0
    5.7598   -0.8051   -1.0616 C   0  0  0  0  0  0  0  0  0  0  0  0
    5.6165    0.5276   -1.8191 C   0  0  0  0  0  0  0  0  0  0  0  0
    5.4354    1.7347   -1.1452 C   0  0  0  0  0  0  0  0  0  0  0  0
    5.0342    2.9108   -1.7627 C   0  0  0  0  0  0  0  0  0  0  0  0
    5.1143    3.0118   -3.1390 C   0  0  0  0  0  0  0  0  0  0  0  0
    5.6180    1.9118   -3.8452 C   0  0  0  0  0  0  0  0  0  0  0  0
    5.7991    0.6626   -3.2047 C   0  0  0  0  0  0  0  0  0  0  0  0
    4.6725    4.2937   -3.7876 C   0  0  0  0  0  0  0  0  0  0  0  0
    3.3440    4.5286   -3.5916 F   0  0  0  0  0  0  0  0  0  0  0  0
    5.3163    5.3841   -3.2844 F   0  0  0  0  0  0  0  0  0  0  0  0
    4.8677    4.3227   -5.1317 F   0  0  0  0  0  0  0  0  0  0  0  0
    4.1306   -0.6189    0.9646 C   0  0  0  0  0  0  0  0  0  0  0  0
    4.4549    0.5751    1.6322 C   0  0  0  0  0  0  0  0  0  0  0  0
    3.4850    1.2104    2.4152 C   0  0  0  0  0  0  0  0  0  0  0  0
    2.3034    0.5645    2.7302 C   0  0  0  0  0  0  0  0  0  0  0  0
    2.0601   -0.7224    2.2417 C   0  0  0  0  0  0  0  0  0  0  0  0
    2.9400   -1.2849    1.2810 C   0  0  0  0  0  0  0  0  0  0  0  0
    2.0128    1.0953   -1.5949 H   0  0  0  0  0  0  0  0  0  0  0  0
    2.3090    0.8820    0.0772 H   0  0  0  0  0  0  0  0  0  0  0  0
    2.3907   -0.4975   -1.1178 H   0  0  0  0  0  0  0  0  0  0  0  0
   -2.4063   -1.3371    0.1074 H   0  0  0  0  0  0  0  0  0  0  0  0
   -2.2584    1.4255    0.0869 H   0  0  0  0  0  0  0  0  0  0  0  0
    1.7784   -3.9812   -0.2282 H   0  0  0  0  0  0  0  0  0  0  0  0
    6.6346   -0.7556   -0.4070 H   0  0  0  0  0  0  0  0  0  0  0  0
    5.9229   -1.6142   -1.7866 H   0  0  0  0  0  0  0  0  0  0  0  0
    5.6702    1.8388   -0.1084 H   0  0  0  0  0  0  0  0  0  0  0  0
    4.7040    3.7501   -1.1510 H   0  0  0  0  0  0  0  0  0  0  0  0
    5.8494    2.0201   -4.9046 H   0  0  0  0  0  0  0  0  0  0  0  0
    6.1099   -0.1835   -3.8161 H   0  0  0  0  0  0  0  0  0  0  0  0
    5.3660    1.1142    1.4532 H   0  0  0  0  0  0  0  0  0  0  0  0
    3.6330    2.2481    2.7111 H   0  0  0  0  0  0  0  0  0  0  0  0
    1.5225    1.0946    3.2703 H   0  0  0  0  0  0  0  0  0  0  0  0
    1.0794   -1.1600    2.4061 H   0  0  0  0  0  0  0  0  0  0  0  0
  1  2  1  0  0  0  0
  1 30  1  0  0  0  0
  1 31  1  0  0  0  0
  1 32  1  0  0  0  0
  2  3  2  0  0  0  0
  2  6  1  0  0  0  0
  3  4  1  0  0  0  0
  3  7  1  0  0  0  0
  4  5  2  0  0  0  0
  4 33  1  0  0  0  0
  5  6  1  0  0  0  0
  5 34  1  0  0  0  0
  7  8  2  0  0  0  0
  7  9  1  0  0  0  0
  9 10  1  0  0  0  0
  9 35  1  0  0  0  0
 10 11  2  0  0  0  0
 10 29  1  0  0  0  0
 11 12  1  0  0  0  0
 12 13  1  0  0  0  0
 12 24  1  0  0  0  0
 13 14  1  0  0  0  0
 13 36  1  0  0  0  0
 13 37  1  0  0  0  0
 14 15  2  0  0  0  0
 14 19  1  0  0  0  0
 15 16  1  0  0  0  0
 15 38  1  0  0  0  0
 16 17  2  0  0  0  0
 16 39  1  0  0  0  0
 17 18  1  0  0  0  0
 17 20  1  0  0  0  0
 18 19  2  0  0  0  0
 18 40  1  0  0  0  0
 19 41  1  0  0  0  0
 20 21  1  0  0  0  0
 20 22  1  0  0  0  0
 20 23  1  0  0  0  0
 24 25  2  0  0  0  0
 24 29  1  0  0  0  0
 25 26  1  0  0  0  0
 25 42  1  0  0  0  0
 26 27  2  0  0  0  0
 26 43  1  0  0  0  0
 27 28  1  0  0  0  0
 27 44  1  0  0  0  0
 28 29  2  0  0  0  0
 28 45  1  0  0  0  0
M  END
>  <DRUGBANK_ID>
DB14995

>  <COMMON_NAME>
NP-G2-044

>  <CAS_NUMBER>
1807454-59-6

>  <UNII>
1ER2O3UZ4W

$$$$
