
 OpenBabel10282417123D

 47 50  0  0  0  0  0  0  0  0999 V2000
    1.6560   -1.3780    0.0140 O   0  0  0  0  0  0  0  0  0  0  0  0
    0.4590   -0.7190   -0.0030 C   0  0  0  0  0  0  0  0  0  0  0  0
   -0.7580   -1.3800   -0.0090 C   0  0  0  0  0  0  0  0  0  0  0  0
   -1.9730   -0.6740   -0.0160 C   0  0  0  0  0  0  0  0  0  0  0  0
   -1.9230    0.7240    0.0050 C   0  0  0  0  0  0  0  0  0  0  0  0
   -0.7050    1.3790    0.0220 C   0  0  0  0  0  0  0  0  0  0  0  0
    0.4880    0.6780    0.0120 C   0  0  0  0  0  0  0  0  0  0  0  0
    1.6560    1.3730   -0.0220 O   0  0  0  0  0  0  0  0  0  0  0  0
   -3.5787    1.7541    0.0103 As  0  3  0  0  0  0  0  0  0  0  0  0
   -3.6546    2.8543    1.6185 C   0  0  0  0  0  0  0  0  0  0  0  0
   -2.6895    3.7472    1.8042 C   0  0  0  0  0  0  0  0  0  0  0  0
   -2.7771    4.6714    2.8171 C   0  0  0  0  0  0  0  0  0  0  0  0
   -3.8101    4.6378    3.7123 C   0  0  0  0  0  0  0  0  0  0  0  0
   -4.7854    3.7864    3.4519 C   0  0  0  0  0  0  0  0  0  0  0  0
   -4.6957    2.7231    2.5227 C   0  0  0  0  0  0  0  0  0  0  0  0
   -3.6355    2.9014   -1.5654 C   0  0  0  0  0  0  0  0  0  0  0  0
   -3.5964    2.3796   -2.7858 C   0  0  0  0  0  0  0  0  0  0  0  0
   -3.7792    3.1736   -3.8922 C   0  0  0  0  0  0  0  0  0  0  0  0
   -3.9140    4.5288   -3.7706 C   0  0  0  0  0  0  0  0  0  0  0  0
   -4.0226    5.0004   -2.5418 C   0  0  0  0  0  0  0  0  0  0  0  0
   -3.7054    4.2711   -1.3715 C   0  0  0  0  0  0  0  0  0  0  0  0
   -5.1017    0.5366   -0.0168 C   0  0  0  0  0  0  0  0  0  0  0  0
   -5.2603   -0.3389    0.9689 C   0  0  0  0  0  0  0  0  0  0  0  0
   -6.4023   -1.0983    1.0527 C   0  0  0  0  0  0  0  0  0  0  0  0
   -7.3595   -1.0389    0.0782 C   0  0  0  0  0  0  0  0  0  0  0  0
   -7.2024   -0.1060   -0.8433 C   0  0  0  0  0  0  0  0  0  0  0  0
   -5.9996    0.6041   -1.0694 C   0  0  0  0  0  0  0  0  0  0  0  0
    1.6766   -2.3777    0.0041 H   0  0  0  0  0  0  0  0  0  0  0  0
   -0.7734   -2.4499   -0.0083 H   0  0  0  0  0  0  0  0  0  0  0  0
   -2.9096   -1.1909   -0.0368 H   0  0  0  0  0  0  0  0  0  0  0  0
   -0.6848    2.4486    0.0433 H   0  0  0  0  0  0  0  0  0  0  0  0
    2.5285    0.8844   -0.0297 H   0  0  0  0  0  0  0  0  0  0  0  0
   -1.8358    3.7471    1.1590 H   0  0  0  0  0  0  0  0  0  0  0  0
   -2.0261    5.4282    2.9068 H   0  0  0  0  0  0  0  0  0  0  0  0
   -3.8273    5.2674    4.5772 H   0  0  0  0  0  0  0  0  0  0  0  0
   -5.7077    3.9091    3.9804 H   0  0  0  0  0  0  0  0  0  0  0  0
   -5.3709    1.8930    2.5187 H   0  0  0  0  0  0  0  0  0  0  0  0
   -3.4209    1.3313   -2.9088 H   0  0  0  0  0  0  0  0  0  0  0  0
   -3.8165    2.7250   -4.8628 H   0  0  0  0  0  0  0  0  0  0  0  0
   -3.9307    5.1726   -4.6250 H   0  0  0  0  0  0  0  0  0  0  0  0
   -4.3750    6.0037   -2.4230 H   0  0  0  0  0  0  0  0  0  0  0  0
   -3.5349    4.7356   -0.4228 H   0  0  0  0  0  0  0  0  0  0  0  0
   -4.4919   -0.4540    1.7045 H   0  0  0  0  0  0  0  0  0  0  0  0
   -6.5446   -1.7456    1.8928 H   0  0  0  0  0  0  0  0  0  0  0  0
   -8.1911   -1.7120    0.0630 H   0  0  0  0  0  0  0  0  0  0  0  0
   -8.0431    0.1292   -1.4619 H   0  0  0  0  0  0  0  0  0  0  0  0
   -5.8016    1.1441   -1.9716 H   0  0  0  0  0  0  0  0  0  0  0  0
  1  2  1  0  0  0  0
  1 28  1  0  0  0  0
  2  3  2  0  0  0  0
  2  7  1  0  0  0  0
  3  4  1  0  0  0  0
  3 29  1  0  0  0  0
  4  5  2  0  0  0  0
  4 30  1  0  0  0  0
  5  6  1  0  0  0  0
  5  9  1  0  0  0  0
  6  7  2  0  0  0  0
  6 31  1  0  0  0  0
  7  8  1  0  0  0  0
  8 32  1  0  0  0  0
  9 10  1  0  0  0  0
  9 16  1  0  0  0  0
  9 22  1  0  0  0  0
 10 11  2  0  0  0  0
 10 15  1  0  0  0  0
 11 12  1  0  0  0  0
 11 33  1  0  0  0  0
 12 13  2  0  0  0  0
 12 34  1  0  0  0  0
 13 14  1  0  0  0  0
 13 35  1  0  0  0  0
 14 15  2  0  0  0  0
 14 36  1  0  0  0  0
 15 37  1  0  0  0  0
 16 17  2  0  0  0  0
 16 21  1  0  0  0  0
 17 18  1  0  0  0  0
 17 38  1  0  0  0  0
 18 19  2  0  0  0  0
 18 39  1  0  0  0  0
 19 20  1  0  0  0  0
 19 40  1  0  0  0  0
 20 21  2  0  0  0  0
 20 41  1  0  0  0  0
 21 42  1  0  0  0  0
 22 23  2  0  0  0  0
 22 27  1  0  0  0  0
 23 24  1  0  0  0  0
 23 43  1  0  0  0  0
 24 25  2  0  0  0  0
 24 44  1  0  0  0  0
 25 26  1  0  0  0  0
 25 45  1  0  0  0  0
 26 27  2  0  0  0  0
 26 46  1  0  0  0  0
 27 47  1  0  0  0  0
M  CHG  1   9   1
M  END
>  <DRUGBANK_ID>
DB02086

>  <SECONDARY_ACCESSION_NUMBERS>
EXPT03130

>  <COMMON_NAME>
(3,4-Dihydroxy-Phenyl)-Triphenyl-Arsonium

$$$$
