
 OpenBabel10282417193D

 63 66  0  0  0  0  0  0  0  0999 V2000
   -0.0313   -1.1312    1.6404 O   0  0  0  0  0  0  0  0  0  0  0  0
    1.3309   -0.0809   -1.6747 O   0  0  0  0  0  0  0  0  0  0  0  0
    0.8381    1.2929    0.0267 O   0  0  0  0  0  0  0  0  0  0  0  0
    1.3049  -11.0008    0.3014 O   0  0  0  0  0  0  0  0  0  0  0  0
   -0.1201   -0.4300    3.7860 O   0  0  0  0  0  0  0  0  0  0  0  0
    1.0080   -2.6524   -0.2409 C   0  0  1  0  0  0  0  0  0  0  0  0
   -0.1956   -3.5546   -0.4323 C   0  0  2  0  0  0  0  0  0  0  0  0
    0.2279   -4.8793   -1.0420 C   0  0  1  0  0  0  0  0  0  0  0  0
    1.2587   -5.5824   -0.1044 C   0  0  1  0  0  0  0  0  0  0  0  0
    0.2525   -1.3249    0.1626 C   0  0  1  0  0  0  0  0  0  0  0  0
    1.9543   -3.2597    0.7968 C   0  0  0  0  0  0  0  0  0  0  0  0
    1.7223   -6.9510   -0.7191 C   0  0  2  0  0  0  0  0  0  0  0  0
   -1.2083   -2.6961   -1.1995 C   0  0  0  0  0  0  0  0  0  0  0  0
    2.4208   -4.6579    0.3525 C   0  0  0  0  0  0  0  0  0  0  0  0
   -1.0520   -1.2885   -0.6303 C   0  0  0  0  0  0  0  0  0  0  0  0
   -1.0027   -5.7510   -1.2442 C   0  0  0  0  0  0  0  0  0  0  0  0
    1.8517   -2.5060   -1.5916 C   0  0  0  0  0  0  0  0  0  0  0  0
    0.4649   -7.7907   -0.9774 C   0  0  0  0  0  0  0  0  0  0  0  0
   -0.6495   -7.1335   -1.7524 C   0  0  0  0  0  0  0  0  0  0  0  0
    2.6563   -7.6805    0.2845 C   0  0  0  0  0  0  0  0  0  0  0  0
    2.4790   -6.7538   -2.0528 C   0  0  0  0  0  0  0  0  0  0  0  0
    1.1767   -0.3668   -0.4534 C   0  0  0  0  0  0  0  0  0  0  0  0
    2.8142   -9.1623   -0.0300 C   0  0  0  0  0  0  0  0  0  0  0  0
    0.3210   -9.0660   -0.5793 C   0  0  0  0  0  0  0  0  0  0  0  0
    1.4636   -9.8293   -0.0304 C   0  0  0  0  0  0  0  0  0  0  0  0
    1.9352    0.3035    0.4889 C   0  0  0  0  0  0  0  0  0  0  0  0
    0.0601   -0.1093    2.6033 C   0  0  0  0  0  0  0  0  0  0  0  0
    0.3790    1.4861    2.2680 C   0  0  0  0  0  0  0  0  0  0  0  0
    1.9391    2.2545    1.9031 C   0  0  0  0  0  0  0  0  0  0  0  0
    0.7126   -5.8122    0.8246 H   0  0  0  0  0  0  0  0  0  0  0  0
   -0.6367   -3.7613    0.5525 H   0  0  0  0  0  0  0  0  0  0  0  0
    0.6748   -4.7029   -2.0270 H   0  0  0  0  0  0  0  0  0  0  0  0
    1.1073    2.1970   -0.2037 H   0  0  0  0  0  0  0  0  0  0  0  0
    1.4594   -3.3384    1.7695 H   0  0  0  0  0  0  0  0  0  0  0  0
    2.8347   -2.6188    0.9413 H   0  0  0  0  0  0  0  0  0  0  0  0
   -1.0089   -2.6851   -2.2780 H   0  0  0  0  0  0  0  0  0  0  0  0
   -2.2313   -3.0473   -1.0492 H   0  0  0  0  0  0  0  0  0  0  0  0
    2.9500   -5.1125    1.1972 H   0  0  0  0  0  0  0  0  0  0  0  0
    3.1685   -4.5544   -0.4405 H   0  0  0  0  0  0  0  0  0  0  0  0
   -0.9961   -0.5710   -1.4593 H   0  0  0  0  0  0  0  0  0  0  0  0
   -1.9043   -0.9841   -0.0169 H   0  0  0  0  0  0  0  0  0  0  0  0
   -1.6753   -5.2738   -1.9665 H   0  0  0  0  0  0  0  0  0  0  0  0
   -1.5482   -5.8293   -0.2969 H   0  0  0  0  0  0  0  0  0  0  0  0
    1.2346   -2.1054   -2.4073 H   0  0  0  0  0  0  0  0  0  0  0  0
    2.7211   -1.8425   -1.4389 H   0  0  0  0  0  0  0  0  0  0  0  0
    2.3019   -3.4115   -1.9835 H   0  0  0  0  0  0  0  0  0  0  0  0
   -0.3422   -7.0629   -2.8026 H   0  0  0  0  0  0  0  0  0  0  0  0
   -1.5594   -7.7428   -1.7331 H   0  0  0  0  0  0  0  0  0  0  0  0
    2.2479   -7.5876    1.3005 H   0  0  0  0  0  0  0  0  0  0  0  0
    3.6481   -7.2127    0.2986 H   0  0  0  0  0  0  0  0  0  0  0  0
    1.8679   -6.2639   -2.8162 H   0  0  0  0  0  0  0  0  0  0  0  0
    3.3798   -6.1470   -1.9201 H   0  0  0  0  0  0  0  0  0  0  0  0
    2.7922   -7.7101   -2.4829 H   0  0  0  0  0  0  0  0  0  0  0  0
    3.4404   -9.6348    0.7327 H   0  0  0  0  0  0  0  0  0  0  0  0
    3.2836   -9.3251   -1.0057 H   0  0  0  0  0  0  0  0  0  0  0  0
   -0.5944   -9.6278   -0.7254 H   0  0  0  0  0  0  0  0  0  0  0  0
    1.8660   -0.0615    1.5279 H   0  0  0  0  0  0  0  0  0  0  0  0
    2.9741    0.3993    0.2098 H   0  0  0  0  0  0  0  0  0  0  0  0
   -0.4334    1.7163    1.5524 H   0  0  0  0  0  0  0  0  0  0  0  0
    0.0506    2.0580    3.1409 H   0  0  0  0  0  0  0  0  0  0  0  0
    2.4776    2.0983    0.9389 H   0  0  0  0  0  0  0  0  0  0  0  0
    1.9019    3.3215    1.6418 H   0  0  0  0  0  0  0  0  0  0  0  0
    2.7484    1.8547    2.5190 H   0  0  0  0  0  0  0  0  0  0  0  0
  1 27  1  0  0  0  0
  2 22  2  0  0  0  0
  3 26  1  0  0  0  0
  3 33  1  0  0  0  0
  4 25  2  0  0  0  0
  5 27  2  0  0  0  0
  6  7  1  0  0  0  0
  6 10  1  0  0  0  0
  6 11  1  0  0  0  0
  6 17  1  6  0  0  0
  7  8  1  0  0  0  0
  7 13  1  0  0  0  0
  7 31  1  1  0  0  0
  8  9  1  0  0  0  0
  8 16  1  0  0  0  0
  8 32  1  6  0  0  0
  9 12  1  0  0  0  0
  9 14  1  0  0  0  0
  9 30  1  1  0  0  0
 10 15  1  0  0  0  0
 10 22  1  6  0  0  0
 10  1  1  0  0  0  0
 11 14  1  0  0  0  0
 11 34  1  0  0  0  0
 11 35  1  0  0  0  0
 12 18  1  0  0  0  0
 12 20  1  0  0  0  0
 12 21  1  6  0  0  0
 13 15  1  0  0  0  0
 13 36  1  0  0  0  0
 13 37  1  0  0  0  0
 14 38  1  0  0  0  0
 14 39  1  0  0  0  0
 15 40  1  0  0  0  0
 15 41  1  0  0  0  0
 16 19  1  0  0  0  0
 16 42  1  0  0  0  0
 16 43  1  0  0  0  0
 17 44  1  0  0  0  0
 17 45  1  0  0  0  0
 17 46  1  0  0  0  0
 18 19  1  0  0  0  0
 18 24  2  0  0  0  0
 19 47  1  0  0  0  0
 19 48  1  0  0  0  0
 20 23  1  0  0  0  0
 20 49  1  0  0  0  0
 20 50  1  0  0  0  0
 21 51  1  0  0  0  0
 21 52  1  0  0  0  0
 21 53  1  0  0  0  0
 22 26  1  0  0  0  0
 23 25  1  0  0  0  0
 23 54  1  0  0  0  0
 23 55  1  0  0  0  0
 24 25  1  0  0  0  0
 24 56  1  0  0  0  0
 26 57  1  0  0  0  0
 26 58  1  0  0  0  0
 27 28  1  0  0  0  0
 28 29  1  0  0  0  0
 28 59  1  0  0  0  0
 28 60  1  0  0  0  0
 29 61  1  0  0  0  0
 29 62  1  0  0  0  0
 29 63  1  0  0  0  0
M  END
>  <DRUGBANK_ID>
DB12499

>  <COMMON_NAME>
Clascoterone

>  <CAS_NUMBER>
19608-29-8

>  <UNII>
XN7MM8XG2M

>  <SYNONYMS>
11-deoxycortisol 17α-propionate; Clascoterone; Cortexolone 17alpha-propionate; Cortexolone 17α-propionate

$$$$
