DD3
 OpenBabel10282417163D

 37 39  0  0  0  0  0  0  0  0999 V2000
    2.1866   -3.2954    1.3427 C   0  0  0  0  0  0  0  0  0  0  0  0
    1.7686   -1.1015    0.0426 C   0  0  0  0  0  0  0  0  0  0  0  0
    2.4213   -2.4860    0.0694 C   0  0  2  0  0  0  0  0  0  0  0  0
    1.7384   -4.8203    3.6836 C   0  0  0  0  0  0  0  0  0  0  0  0
    2.1563   -5.4420    2.5214 C   0  0  0  0  0  0  0  0  0  0  0  0
    2.3844   -4.6856    1.3771 C   0  0  0  0  0  0  0  0  0  0  0  0
    1.2794   -7.2351   -2.2794 N   0  0  0  0  0  0  0  0  0  0  0  0
    0.8365   -3.6240   -1.4071 C   0  0  0  0  0  0  0  0  0  0  0  0
   -1.5340   -3.1891   -1.6300 C   0  0  0  0  0  0  0  0  0  0  0  0
   -1.6845   -4.4055   -2.2637 C   0  0  0  0  0  0  0  0  0  0  0  0
    0.6382   -4.9414   -1.8988 C   0  0  0  0  0  0  0  0  0  0  0  0
    1.5872   -5.9776   -1.9497 C   0  0  0  0  0  0  0  0  0  0  0  0
    1.7897   -2.6843    2.5367 C   0  0  0  0  0  0  0  0  0  0  0  0
   -0.2648   -2.7810   -1.2700 C   0  0  0  0  0  0  0  0  0  0  0  0
    2.4046   -7.1439    2.4729 Cl  0  0  0  0  0  0  0  0  0  0  0  0
    1.5543   -3.4393    3.6891 C   0  0  0  0  0  0  0  0  0  0  0  0
    2.1265   -3.2348   -1.1303 O   0  0  0  0  0  0  0  0  0  0  0  0
   -0.6448   -5.3198   -2.3332 C   0  0  0  0  0  0  0  0  0  0  0  0
   -0.9303   -6.5393   -2.7695 N   0  0  0  0  0  0  0  0  0  0  0  0
    2.9464   -5.7404   -1.7480 N   0  0  0  0  0  0  0  0  0  0  0  0
    0.0283   -7.4619   -2.6865 C   0  0  0  0  0  0  0  0  0  0  0  0
   -0.3010   -8.7337   -3.0358 N   0  0  0  0  0  0  0  0  0  0  0  0
    3.5065   -2.3096    0.0158 H   0  0  0  0  0  0  0  0  0  0  0  0
    2.3346   -0.3389    0.5780 H   0  0  0  0  0  0  0  0  0  0  0  0
    1.6207   -0.7563   -0.9875 H   0  0  0  0  0  0  0  0  0  0  0  0
    0.7976   -1.1426    0.5501 H   0  0  0  0  0  0  0  0  0  0  0  0
    1.5630   -5.4021    4.5815 H   0  0  0  0  0  0  0  0  0  0  0  0
    2.7076   -5.2291    0.5094 H   0  0  0  0  0  0  0  0  0  0  0  0
   -2.3793   -2.5348   -1.4383 H   0  0  0  0  0  0  0  0  0  0  0  0
   -2.6541   -4.6516   -2.6897 H   0  0  0  0  0  0  0  0  0  0  0  0
    1.6428   -1.6087    2.5925 H   0  0  0  0  0  0  0  0  0  0  0  0
   -0.2184   -1.7609   -0.9387 H   0  0  0  0  0  0  0  0  0  0  0  0
    1.2230   -2.9404    4.5945 H   0  0  0  0  0  0  0  0  0  0  0  0
    3.1690   -4.8563   -1.3076 H   0  0  0  0  0  0  0  0  0  0  0  0
    3.4568   -6.5648   -1.4548 H   0  0  0  0  0  0  0  0  0  0  0  0
   -1.2093   -8.8850   -3.4405 H   0  0  0  0  0  0  0  0  0  0  0  0
    0.4387   -9.4134   -3.0476 H   0  0  0  0  0  0  0  0  0  0  0  0
  1  6  2  0  0  0  0
  1 13  1  0  0  0  0
  2 24  1  0  0  0  0
  2 25  1  0  0  0  0
  2 26  1  0  0  0  0
  3 17  1  0  0  0  0
  3 23  1  6  0  0  0
  3  2  1  0  0  0  0
  3  1  1  0  0  0  0
  4  5  2  0  0  0  0
  4 16  1  0  0  0  0
  4 27  1  0  0  0  0
  5  6  1  0  0  0  0
  5 15  1  0  0  0  0
  6 28  1  0  0  0  0
  7 12  2  0  0  0  0
  7 21  1  0  0  0  0
  8 11  2  0  0  0  0
  8 14  1  0  0  0  0
  8 17  1  0  0  0  0
  9 10  1  0  0  0  0
  9 14  2  0  0  0  0
  9 29  1  0  0  0  0
 10 18  2  0  0  0  0
 10 30  1  0  0  0  0
 11 12  1  0  0  0  0
 11 18  1  0  0  0  0
 12 20  1  0  0  0  0
 13 16  2  0  0  0  0
 13 31  1  0  0  0  0
 14 32  1  0  0  0  0
 16 33  1  0  0  0  0
 18 19  1  0  0  0  0
 19 21  2  0  0  0  0
 20 34  1  0  0  0  0
 20 35  1  0  0  0  0
 21 22  1  0  0  0  0
 22 36  1  0  0  0  0
 22 37  1  0  0  0  0
M  END
>  <DRUGBANK_ID>
DB07644

>  <COMMON_NAME>
5-[(1S)-1-(3-chlorophenyl)ethoxy]quinazoline-2,4-diamine

$$$$
