
 OpenBabel10282417203D

 42 42  0  0  1  0  0  0  0  0999 V2000
    0.8817    0.1553    0.0332 C   0  0  0  0  0  0  0  0  0  0  0  0
   -0.4711   -1.1647    1.8022 C   0  0  0  0  0  0  0  0  0  0  0  0
    7.5049   -7.8017   -0.8394 C   0  0  0  0  0  0  0  0  0  0  0  0
    1.6588   -5.3423   -1.7166 C   0  0  0  0  0  0  0  0  0  0  0  0
    1.5293   -2.4078   -1.2624 C   0  0  0  0  0  0  0  0  0  0  0  0
    0.6256   -2.2926   -0.0815 C   0  0  0  0  0  0  0  0  0  0  0  0
    6.3135   -5.6266   -0.8678 C   0  0  0  0  0  0  0  0  0  0  0  0
    4.9999   -7.7395   -0.6187 C   0  0  0  0  0  0  0  0  0  0  0  0
    5.0910   -4.7779   -0.8456 C   0  0  0  0  0  0  0  0  0  0  0  0
    3.7552   -6.9216   -0.8741 C   0  0  0  0  0  0  0  0  0  0  0  0
    2.7690   -3.2296   -0.9362 C   0  0  0  0  0  0  0  0  0  0  0  0
    0.3572   -1.1394    0.5589 C   0  0  0  0  0  0  0  0  0  0  0  0
    6.2744   -6.9648   -0.7766 C   0  0  0  0  0  0  0  0  0  0  0  0
    3.8356   -5.4945   -0.3184 C   0  0  2  0  0  0  0  0  0  0  0  0
    2.5130   -4.7171   -0.5955 C   0  0  2  0  0  0  0  0  0  0  0  0
    1.7685   -4.8028    0.6286 O   0  0  0  0  0  0  0  0  0  0  0  0
    3.9623   -5.5852    0.7735 H   0  0  0  0  0  0  0  0  0  0  0  0
    0.5298    1.0085    0.6127 H   0  0  0  0  0  0  0  0  0  0  0  0
    0.5400    0.2926   -1.0003 H   0  0  0  0  0  0  0  0  0  0  0  0
    1.9778    0.1594    0.0434 H   0  0  0  0  0  0  0  0  0  0  0  0
   -1.4378   -1.6416    1.6080 H   0  0  0  0  0  0  0  0  0  0  0  0
    0.0388   -1.7248    2.5952 H   0  0  0  0  0  0  0  0  0  0  0  0
   -0.6611   -0.1552    2.1738 H   0  0  0  0  0  0  0  0  0  0  0  0
    7.5958   -8.3785    0.0847 H   0  0  0  0  0  0  0  0  0  0  0  0
    7.4323   -8.4925   -1.6854 H   0  0  0  0  0  0  0  0  0  0  0  0
    8.4061   -7.1969   -0.9670 H   0  0  0  0  0  0  0  0  0  0  0  0
    2.2092   -5.3374   -2.6638 H   0  0  0  0  0  0  0  0  0  0  0  0
    1.3493   -6.3634   -1.4766 H   0  0  0  0  0  0  0  0  0  0  0  0
    0.7114   -4.8224   -1.8696 H   0  0  0  0  0  0  0  0  0  0  0  0
    0.9798   -2.8228   -2.1107 H   0  0  0  0  0  0  0  0  0  0  0  0
    1.8840   -1.4359   -1.6175 H   0  0  0  0  0  0  0  0  0  0  0  0
    0.2052   -3.2104    0.3184 H   0  0  0  0  0  0  0  0  0  0  0  0
    7.2558   -5.0988   -0.9902 H   0  0  0  0  0  0  0  0  0  0  0  0
    4.9843   -8.5786   -1.3245 H   0  0  0  0  0  0  0  0  0  0  0  0
    4.9566   -8.1561    0.3927 H   0  0  0  0  0  0  0  0  0  0  0  0
    5.2912   -3.8962   -0.2223 H   0  0  0  0  0  0  0  0  0  0  0  0
    4.9420   -4.4380   -1.8751 H   0  0  0  0  0  0  0  0  0  0  0  0
    2.8967   -7.4514   -0.4433 H   0  0  0  0  0  0  0  0  0  0  0  0
    3.6106   -6.8839   -1.9609 H   0  0  0  0  0  0  0  0  0  0  0  0
    3.3940   -3.1558   -1.8337 H   0  0  0  0  0  0  0  0  0  0  0  0
    3.3159   -2.7414   -0.1174 H   0  0  0  0  0  0  0  0  0  0  0  0
    1.5109   -5.7268    0.7796 H   0  0  0  0  0  0  0  0  0  0  0  0
  1 18  1  0  0  0  0
  1 19  1  0  0  0  0
  1 20  1  0  0  0  0
  2 21  1  0  0  0  0
  2 22  1  0  0  0  0
  2 23  1  0  0  0  0
  3 24  1  0  0  0  0
  3 25  1  0  0  0  0
  3 26  1  0  0  0  0
  4 27  1  0  0  0  0
  4 28  1  0  0  0  0
  4 29  1  0  0  0  0
  5 30  1  0  0  0  0
  5 31  1  0  0  0  0
  6  5  1  0  0  0  0
  6 32  1  0  0  0  0
  7 33  1  0  0  0  0
  8 34  1  0  0  0  0
  8 35  1  0  0  0  0
  9  7  1  0  0  0  0
  9 36  1  0  0  0  0
  9 37  1  0  0  0  0
 10  8  1  0  0  0  0
 10 38  1  0  0  0  0
 10 39  1  0  0  0  0
 11  5  1  0  0  0  0
 11 40  1  0  0  0  0
 11 41  1  0  0  0  0
 12  1  1  0  0  0  0
 12  2  1  0  0  0  0
 12  6  2  0  0  0  0
 13  3  1  0  0  0  0
 13  7  2  0  0  0  0
 13  8  1  0  0  0  0
 14  9  1  0  0  0  0
 14 10  1  0  0  0  0
 14 15  1  0  0  0  0
 14 17  1  1  0  0  0
 15  4  1  0  0  0  0
 15 11  1  0  0  0  0
 15 16  1  1  0  0  0
 16 42  1  0  0  0  0
M  END
>  <DRUGBANK_ID>
DB13153

>  <COMMON_NAME>
Levomenol

>  <CAS_NUMBER>
23089-26-1

>  <UNII>
24WE03BX2T

>  <SYNONYMS>
(-)-alpha-Bisabolol; alpha-(-)-bisabolol; alpha-bisabolol; Bisabolol; Kamillosan; Levomenol; α-(−)-bisabolol

$$$$
