
 OpenBabel10282417133D

 42 42  0  0  0  0  0  0  0  0999 V2000
    9.9834    2.9644    5.9248 Cl  0  0  0  0  0  0  0  0  0  0  0  0
    5.0116   -0.0109   -0.5183 O   0  0  0  0  0  0  0  0  0  0  0  0
    4.1935    1.1939    1.4512 O   0  0  0  0  0  0  0  0  0  0  0  0
    6.5786    1.2333    0.8947 O   0  0  0  0  0  0  0  0  0  0  0  0
    8.9748   -2.3028    1.3028 O   0  0  0  0  0  0  0  0  0  0  0  0
    7.0570    1.9242   -3.2076 O   0  0  0  0  0  0  0  0  0  0  0  0
    4.8689    1.4939   -2.5270 O   0  0  0  0  0  0  0  0  0  0  0  0
    6.6806   -1.6898    1.2323 N   0  0  0  0  0  0  0  0  0  0  0  0
    6.0700    1.3629    0.1461 N   0  0  0  0  0  0  0  0  0  0  0  0
    5.5636   -0.9091    1.7835 C   0  0  1  0  0  0  0  0  0  0  0  0
    5.8895   -0.4955    3.2094 C   0  0  0  0  0  0  0  0  0  0  0  0
    6.9354    0.3592    3.9064 C   0  0  0  0  0  0  0  0  0  0  0  0
    6.0906   -0.7650   -1.0508 C   0  0  0  0  0  0  0  0  0  0  0  0
    6.5919    0.6699   -1.0406 C   0  0  1  0  0  0  0  0  0  0  0  0
    6.6345    0.9659    5.1207 C   0  0  0  0  0  0  0  0  0  0  0  0
    8.1830    0.5289    3.3278 C   0  0  0  0  0  0  0  0  0  0  0  0
    7.9969   -1.7373    1.8850 C   0  0  0  0  0  0  0  0  0  0  0  0
    7.5828    1.7664    5.7491 C   0  0  0  0  0  0  0  0  0  0  0  0
    9.1475    1.3209    3.9495 C   0  0  0  0  0  0  0  0  0  0  0  0
    8.1883   -1.1102    3.2564 C   0  0  0  0  0  0  0  0  0  0  0  0
    8.8128    1.9493    5.1397 C   0  0  0  0  0  0  0  0  0  0  0  0
    6.1134    1.3827   -2.2950 C   0  0  0  0  0  0  0  0  0  0  0  0
    5.3332    0.3972    0.8888 B   0  5  0  0  0  0  0  0  0  0  0  0
    3.3632    0.6365    1.4473 H   0  0  0  0  0  0  0  0  0  0  0  0
    6.4346    2.0498    0.3355 H   0  0  0  0  0  0  0  0  0  0  0  0
    8.0363    1.8367   -3.0250 H   0  0  0  0  0  0  0  0  0  0  0  0
    6.5521   -2.1106    0.3121 H   0  0  0  0  0  0  0  0  0  0  0  0
    5.4045    2.1041   -0.0735 H   0  0  0  0  0  0  0  0  0  0  0  0
    6.9099    1.7708    0.5566 H   0  0  0  0  0  0  0  0  0  0  0  0
    4.6753   -1.5055    1.7793 H   0  0  0  0  0  0  0  0  0  0  0  0
    6.2615   -1.4923    3.0956 H   0  0  0  0  0  0  0  0  0  0  0  0
    4.9949   -0.5136    3.7962 H   0  0  0  0  0  0  0  0  0  0  0  0
    6.2447   -1.6386   -0.4524 H   0  0  0  0  0  0  0  0  0  0  0  0
    5.8612   -1.0561   -2.0545 H   0  0  0  0  0  0  0  0  0  0  0  0
    7.6616    0.6738   -1.0143 H   0  0  0  0  0  0  0  0  0  0  0  0
    5.6752    0.8174    5.5709 H   0  0  0  0  0  0  0  0  0  0  0  0
    8.4076    0.0491    2.3981 H   0  0  0  0  0  0  0  0  0  0  0  0
    7.3656    2.2327    6.6873 H   0  0  0  0  0  0  0  0  0  0  0  0
   10.1201    1.4407    3.5197 H   0  0  0  0  0  0  0  0  0  0  0  0
    7.9626   -0.0655    3.2055 H   0  0  0  0  0  0  0  0  0  0  0  0
    7.5341   -1.5826    3.9590 H   0  0  0  0  0  0  0  0  0  0  0  0
    9.2029   -1.2410    3.5699 H   0  0  0  0  0  0  0  0  0  0  0  0
  1 21  1  0  0  0  0
  2 13  1  0  0  0  0
  2 23  1  0  0  0  0
  3 23  1  0  0  0  0
  3 24  1  0  0  0  0
  4 23  1  0  0  0  0
  4 25  1  0  0  0  0
  5 17  2  0  0  0  0
  6 22  1  0  0  0  0
  6 26  1  0  0  0  0
  7 22  2  0  0  0  0
  8 17  1  0  0  0  0
  8 27  1  0  0  0  0
  9 28  1  0  0  0  0
  9 29  1  0  0  0  0
 10 23  1  0  0  0  0
 10 30  1  6  0  0  0
 10 11  1  0  0  0  0
 10  8  1  0  0  0  0
 11 12  1  0  0  0  0
 11 31  1  0  0  0  0
 11 32  1  0  0  0  0
 12 15  2  0  0  0  0
 12 16  1  0  0  0  0
 13 33  1  0  0  0  0
 13 34  1  0  0  0  0
 14 22  1  0  0  0  0
 14 35  1  1  0  0  0
 14 13  1  0  0  0  0
 14  9  1  0  0  0  0
 15 18  1  0  0  0  0
 15 36  1  0  0  0  0
 16 19  2  0  0  0  0
 16 37  1  0  0  0  0
 17 20  1  0  0  0  0
 18 21  2  0  0  0  0
 18 38  1  0  0  0  0
 19 21  1  0  0  0  0
 19 39  1  0  0  0  0
 20 40  1  0  0  0  0
 20 41  1  0  0  0  0
 20 42  1  0  0  0  0
M  CHG  1  23  -1
M  END
>  <DRUGBANK_ID>
DB03607

>  <SECONDARY_ACCESSION_NUMBERS>
EXPT00936

>  <COMMON_NAME>
[(1R)-1-acetamido-2-(4-chlorophenyl)ethyl]-[(2S)-2-amino-3-hydroxy-3-oxo-propoxy]-dihydroxy-boron

$$$$
