
 OpenBabel10282417103D

 43 43  0  0  0  0  0  0  0  0999 V2000
    1.4753  -10.0821   -1.4165 C   0  0  0  0  0  0  0  0  0  0  0  0
    0.9354   -8.9802   -0.5439 C   0  0  0  0  0  0  0  0  0  0  0  0
   -0.5965   -5.5571    1.6425 C   0  0  0  0  0  0  0  0  0  0  0  0
   -1.3445   -5.7293    2.7084 N   0  0  0  0  0  0  0  0  0  0  0  0
   -0.2504   -6.7952    0.8409 C   0  0  0  0  0  0  0  0  0  0  0  0
    1.0936   -7.6912   -1.0021 C   0  0  0  0  0  0  0  0  0  0  0  0
    0.1386   -9.1774    0.6003 C   0  0  0  0  0  0  0  0  0  0  0  0
    1.0101  -11.3135   -1.0893 F   0  0  0  0  0  0  0  0  0  0  0  0
    2.8335  -10.1591   -1.4150 F   0  0  0  0  0  0  0  0  0  0  0  0
    1.1245   -9.8858   -2.7235 F   0  0  0  0  0  0  0  0  0  0  0  0
   -0.4424   -8.0895    1.2919 C   0  0  0  0  0  0  0  0  0  0  0  0
    0.3486   -6.6857   -0.4025 C   0  0  0  0  0  0  0  0  0  0  0  0
   -1.6663   -4.5268    3.3489 O   0  0  0  0  0  0  0  0  0  0  0  0
   -3.6549   -6.7964    3.5012 N   0  0  0  0  0  0  0  0  0  0  0  0
   -2.5031   -4.8059    4.4799 C   0  0  0  0  0  0  0  0  0  0  0  0
    2.3046   -2.9302   -1.5431 O   0  0  0  0  0  0  0  0  0  0  0  0
   -0.0388   -4.1753    1.2685 C   0  0  0  0  0  0  0  0  0  0  0  0
   -3.8368   -5.4550    4.0695 C   0  0  0  0  0  0  0  0  0  0  0  0
    1.9059   -4.2321   -1.1537 C   0  0  0  0  0  0  0  0  0  0  0  0
    1.5587   -1.9518   -0.8341 C   0  0  0  0  0  0  0  0  0  0  0  0
    1.4831   -4.0689    1.4524 C   0  0  0  0  0  0  0  0  0  0  0  0
    2.3240   -4.6324    0.2913 C   0  0  0  0  0  0  0  0  0  0  0  0
    1.7281   -7.4696   -1.8631 H   0  0  0  0  0  0  0  0  0  0  0  0
   -0.0432  -10.1855    0.9614 H   0  0  0  0  0  0  0  0  0  0  0  0
   -1.0776   -8.2668    2.1576 H   0  0  0  0  0  0  0  0  0  0  0  0
    0.2412   -5.7786   -0.9347 H   0  0  0  0  0  0  0  0  0  0  0  0
   -4.4984   -7.1070    3.0307 H   0  0  0  0  0  0  0  0  0  0  0  0
   -2.9352   -6.6780    2.7725 H   0  0  0  0  0  0  0  0  0  0  0  0
   -1.9501   -5.4185    5.1997 H   0  0  0  0  0  0  0  0  0  0  0  0
   -2.7132   -3.8427    4.9612 H   0  0  0  0  0  0  0  0  0  0  0  0
   -0.3975   -3.9084    0.2727 H   0  0  0  0  0  0  0  0  0  0  0  0
   -0.4700   -3.3911    1.9038 H   0  0  0  0  0  0  0  0  0  0  0  0
   -4.4886   -5.5403    4.9418 H   0  0  0  0  0  0  0  0  0  0  0  0
   -4.3284   -4.8232    3.3212 H   0  0  0  0  0  0  0  0  0  0  0  0
    2.3229   -4.9600   -1.8633 H   0  0  0  0  0  0  0  0  0  0  0  0
    0.8330   -4.2286   -1.3507 H   0  0  0  0  0  0  0  0  0  0  0  0
    0.4849   -2.1814   -0.7992 H   0  0  0  0  0  0  0  0  0  0  0  0
    1.9693   -1.8847    0.1660 H   0  0  0  0  0  0  0  0  0  0  0  0
    1.6956   -0.9793   -1.2951 H   0  0  0  0  0  0  0  0  0  0  0  0
    1.7623   -3.0297    1.6435 H   0  0  0  0  0  0  0  0  0  0  0  0
    1.7715   -4.5700    2.3857 H   0  0  0  0  0  0  0  0  0  0  0  0
    3.3810   -4.3914    0.4295 H   0  0  0  0  0  0  0  0  0  0  0  0
    2.3083   -5.7164    0.4331 H   0  0  0  0  0  0  0  0  0  0  0  0
  2  1  1  0  0  0  0
  3  5  1  0  0  0  0
  4  3  2  0  0  0  0
  5 11  1  0  0  0  0
  6  2  2  0  0  0  0
  6 23  1  0  0  0  0
  7  2  1  0  0  0  0
  7 24  1  0  0  0  0
  8  1  1  0  0  0  0
  9  1  1  0  0  0  0
 10  1  1  0  0  0  0
 11  7  2  0  0  0  0
 11 25  1  0  0  0  0
 12  6  1  0  0  0  0
 12  5  2  0  0  0  0
 12 26  1  0  0  0  0
 13  4  1  0  0  0  0
 14 18  1  0  0  0  0
 14 27  1  0  0  0  0
 14 28  1  0  0  0  0
 15 13  1  0  0  0  0
 15 29  1  0  0  0  0
 15 30  1  0  0  0  0
 16 19  1  0  0  0  0
 17  3  1  0  0  0  0
 17 31  1  0  0  0  0
 17 32  1  0  0  0  0
 18 15  1  0  0  0  0
 18 33  1  0  0  0  0
 18 34  1  0  0  0  0
 19 22  1  0  0  0  0
 19 35  1  0  0  0  0
 19 36  1  0  0  0  0
 20 16  1  0  0  0  0
 20 37  1  0  0  0  0
 20 38  1  0  0  0  0
 20 39  1  0  0  0  0
 21 17  1  0  0  0  0
 21 40  1  0  0  0  0
 21 41  1  0  0  0  0
 22 21  1  0  0  0  0
 22 42  1  0  0  0  0
 22 43  1  0  0  0  0
M  END
>  <DRUGBANK_ID>
DB00176

>  <SECONDARY_ACCESSION_NUMBERS>
APRD00425

>  <COMMON_NAME>
Fluvoxamine

>  <CAS_NUMBER>
54739-18-3

>  <UNII>
O4L1XPO44W

>  <SYNONYMS>
Fluvoxamina; Fluvoxamine; Fluvoxaminum

$$$$
