MOB
 OpenBabel10282417173D

 36 37  0  0  0  0  0  0  0  0999 V2000
    1.4985   -0.3000   -0.0170 C   0  0  0  0  0  0  0  0  0  0  0  0
    0.5775   -1.3876   -0.0546 C   0  0  0  0  0  0  0  0  0  0  0  0
   -0.8162   -1.1157   -0.0288 C   0  0  0  0  0  0  0  0  0  0  0  0
   -1.3227    0.1830    0.0011 C   0  0  0  0  0  0  0  0  0  0  0  0
   -0.4413    1.2501    0.0323 C   0  0  0  0  0  0  0  0  0  0  0  0
    0.9419    1.0092   -0.0057 C   0  0  0  0  0  0  0  0  0  0  0  0
    4.7112   -1.7299    0.4094 C   0  0  0  0  0  0  0  0  0  0  0  0
    5.4226   -1.0394    1.3705 C   0  0  0  0  0  0  0  0  0  0  0  0
    6.7383   -1.3712    1.6670 C   0  0  0  0  0  0  0  0  0  0  0  0
    7.3543   -2.4428    1.0088 C   0  0  0  0  0  0  0  0  0  0  0  0
    6.6320   -3.2436    0.1197 C   0  0  0  0  0  0  0  0  0  0  0  0
    5.3216   -2.8413   -0.2158 C   0  0  0  0  0  0  0  0  0  0  0  0
    0.8799   -2.8601   -0.1285 C   0  0  0  0  0  0  0  0  0  0  0  0
    6.7710    0.2959    3.3197 C   0  0  0  0  0  0  0  0  0  0  0  0
    8.3197   -4.9352    0.0319 C   0  0  0  0  0  0  0  0  0  0  0  0
    2.9359   -0.3507    0.0199 N   0  0  0  0  0  0  0  0  0  0  0  0
    3.3356   -1.4877    0.3209 N   0  0  0  0  0  0  0  0  0  0  0  0
    0.0550   -3.7424    0.0954 O   0  0  0  0  0  0  0  0  0  0  0  0
    2.1125   -3.2105   -0.4969 O   0  0  0  0  0  0  0  0  0  0  0  0
    7.4862   -0.7214    2.6180 O   0  0  0  0  0  0  0  0  0  0  0  0
    8.6845   -2.6682    1.2532 O   0  0  0  0  0  0  0  0  0  0  0  0
    7.0631   -4.4283   -0.4364 O   0  0  0  0  0  0  0  0  0  0  0  0
   -1.5306   -1.9398   -0.0397 H   0  0  0  0  0  0  0  0  0  0  0  0
   -2.3982    0.3526   -0.0161 H   0  0  0  0  0  0  0  0  0  0  0  0
   -0.8295    2.2665    0.0861 H   0  0  0  0  0  0  0  0  0  0  0  0
    1.6022    1.8758   -0.0390 H   0  0  0  0  0  0  0  0  0  0  0  0
    4.8805   -0.2650    1.8979 H   0  0  0  0  0  0  0  0  0  0  0  0
    4.7585   -3.4225   -0.9449 H   0  0  0  0  0  0  0  0  0  0  0  0
    6.4499    1.0855    2.6293 H   0  0  0  0  0  0  0  0  0  0  0  0
    5.9110   -0.1237    3.8589 H   0  0  0  0  0  0  0  0  0  0  0  0
    7.4409    0.7424    4.0534 H   0  0  0  0  0  0  0  0  0  0  0  0
    9.1394   -4.3052   -0.3296 H   0  0  0  0  0  0  0  0  0  0  0  0
    8.3396   -5.0460    1.1247 H   0  0  0  0  0  0  0  0  0  0  0  0
    8.4914   -5.9326   -0.3844 H   0  0  0  0  0  0  0  0  0  0  0  0
    2.3285   -4.0931   -0.1357 H   0  0  0  0  0  0  0  0  0  0  0  0
    8.9911   -1.9503    1.8349 H   0  0  0  0  0  0  0  0  0  0  0  0
  1  2  1  0  0  0  0
  1  6  2  0  0  0  0
  1 16  1  0  0  0  0
  2  3  2  0  0  0  0
  2 13  1  0  0  0  0
  3  4  1  0  0  0  0
  3 23  1  0  0  0  0
  4  5  2  0  0  0  0
  4 24  1  0  0  0  0
  5  6  1  0  0  0  0
  5 25  1  0  0  0  0
  6 26  1  0  0  0  0
  7  8  1  0  0  0  0
  7 12  2  0  0  0  0
  7 17  1  0  0  0  0
  8  9  2  0  0  0  0
  8 27  1  0  0  0  0
  9 10  1  0  0  0  0
  9 20  1  0  0  0  0
 10 11  2  0  0  0  0
 10 21  1  0  0  0  0
 11 12  1  0  0  0  0
 11 22  1  0  0  0  0
 12 28  1  0  0  0  0
 13 18  2  0  0  0  0
 13 19  1  0  0  0  0
 14 20  1  0  0  0  0
 14 29  1  0  0  0  0
 14 30  1  0  0  0  0
 14 31  1  0  0  0  0
 15 22  1  0  0  0  0
 15 32  1  0  0  0  0
 15 33  1  0  0  0  0
 15 34  1  0  0  0  0
 16 17  2  0  0  0  0
 19 35  1  0  0  0  0
 21 36  1  0  0  0  0
M  END
>  <DRUGBANK_ID>
DB08196

>  <COMMON_NAME>
2-((3',5'-DIMETHOXY-4'-HYDROXYPHENYL)AZO)BENZOIC ACID

$$$$
