
 OpenBabel10282417193D

 43 46  0  0  0  0  0  0  0  0999 V2000
    1.4083   -0.1761    0.0118 C   0  0  0  0  0  0  0  0  0  0  0  0
    0.5359   -1.2664    0.0094 C   0  0  0  0  0  0  0  0  0  0  0  0
   -0.8531   -1.0674   -0.0013 C   0  0  0  0  0  0  0  0  0  0  0  0
   -1.3557    0.2445    0.0040 C   0  0  0  0  0  0  0  0  0  0  0  0
   -0.4862    1.3375    0.0540 C   0  0  0  0  0  0  0  0  0  0  0  0
    0.8931    1.1253    0.0041 C   0  0  0  0  0  0  0  0  0  0  0  0
    1.7928    2.2891   -0.1861 C   0  0  0  0  0  0  0  0  0  0  0  0
    2.5779    2.2396   -1.4542 C   0  0  0  0  0  0  0  0  0  0  0  0
    3.3893    3.2828   -1.7067 C   0  0  0  0  0  0  0  0  0  0  0  0
    3.4602    4.3327   -0.7817 N   0  0  0  0  0  0  0  0  0  0  0  0
    2.6749    4.3070    0.4023 C   0  0  0  0  0  0  0  0  0  0  0  0
    1.8206    3.2642    0.6740 N   0  0  0  0  0  0  0  0  0  0  0  0
    2.9756    5.4642    1.1087 C   0  0  0  0  0  0  0  0  0  0  0  0
    3.9219    6.1218    0.2959 C   0  0  0  0  0  0  0  0  0  0  0  0
    4.2159    5.4614   -0.8296 N   0  0  0  0  0  0  0  0  0  0  0  0
    2.4465    5.8976    2.3855 C   0  0  0  0  0  0  0  0  0  0  0  0
    2.0165    6.2807    3.4591 C   0  0  0  0  0  0  0  0  0  0  0  0
    1.4822    6.7283    4.7344 C   0  0  0  0  0  0  0  0  0  0  0  0
    0.8154    5.8627    5.5988 C   0  0  0  0  0  0  0  0  0  0  0  0
    0.3163    6.3282    6.8305 C   0  0  0  0  0  0  0  0  0  0  0  0
    0.3600    7.6825    7.1295 C   0  0  0  0  0  0  0  0  0  0  0  0
    1.0266    8.5373    6.3346 N   0  0  0  0  0  0  0  0  0  0  0  0
    1.6051    8.0371    5.1932 C   0  0  0  0  0  0  0  0  0  0  0  0
   -0.2079    8.1625    8.2962 N   0  0  0  0  0  0  0  0  0  0  0  0
    4.2031    3.3325   -2.9512 C   0  0  0  0  0  0  0  0  0  0  0  0
    3.9083    4.3844   -3.7533 F   0  0  0  0  0  0  0  0  0  0  0  0
    5.5389    3.3395   -2.7220 F   0  0  0  0  0  0  0  0  0  0  0  0
    3.9790    2.2215   -3.7214 F   0  0  0  0  0  0  0  0  0  0  0  0
   -1.8010   -2.2415    0.0429 C   0  0  0  0  0  0  0  0  0  0  0  0
   -2.6053   -2.2075    1.1406 F   0  0  0  0  0  0  0  0  0  0  0  0
   -2.6313   -2.2900   -1.0336 F   0  0  0  0  0  0  0  0  0  0  0  0
   -1.1661   -3.4460    0.0830 F   0  0  0  0  0  0  0  0  0  0  0  0
    2.4806   -0.3549    0.0363 H   0  0  0  0  0  0  0  0  0  0  0  0
    0.9415   -2.2779    0.0157 H   0  0  0  0  0  0  0  0  0  0  0  0
   -2.4316    0.4156   -0.0266 H   0  0  0  0  0  0  0  0  0  0  0  0
   -0.8876    2.3461    0.1185 H   0  0  0  0  0  0  0  0  0  0  0  0
    2.4577    1.4050   -2.1373 H   0  0  0  0  0  0  0  0  0  0  0  0
    4.4168    7.0681    0.4812 H   0  0  0  0  0  0  0  0  0  0  0  0
    0.6778    4.8174    5.3395 H   0  0  0  0  0  0  0  0  0  0  0  0
   -0.1250    5.6332    7.5374 H   0  0  0  0  0  0  0  0  0  0  0  0
    2.2095    8.7635    4.6568 H   0  0  0  0  0  0  0  0  0  0  0  0
   -0.2800    9.1697    8.3745 H   0  0  0  0  0  0  0  0  0  0  0  0
   -0.8631    7.5999    8.8183 H   0  0  0  0  0  0  0  0  0  0  0  0
  1  2  2  0  0  0  0
  1  6  1  0  0  0  0
  1 33  1  0  0  0  0
  2  3  1  0  0  0  0
  2 34  1  0  0  0  0
  3  4  2  0  0  0  0
  3 29  1  0  0  0  0
  4  5  1  0  0  0  0
  4 35  1  0  0  0  0
  5  6  2  0  0  0  0
  5 36  1  0  0  0  0
  6  7  1  0  0  0  0
  7  8  1  0  0  0  0
  7 12  2  0  0  0  0
  8  9  2  0  0  0  0
  8 37  1  0  0  0  0
  9 10  1  0  0  0  0
  9 25  1  0  0  0  0
 10 11  1  0  0  0  0
 10 15  1  0  0  0  0
 11 12  1  0  0  0  0
 11 13  2  0  0  0  0
 13 14  1  0  0  0  0
 13 16  1  0  0  0  0
 14 15  2  0  0  0  0
 14 38  1  0  0  0  0
 16 17  3  0  0  0  0
 17 18  1  0  0  0  0
 18 19  2  0  0  0  0
 18 23  1  0  0  0  0
 19 20  1  0  0  0  0
 19 39  1  0  0  0  0
 20 21  2  0  0  0  0
 20 40  1  0  0  0  0
 21 22  1  0  0  0  0
 21 24  1  0  0  0  0
 22 23  2  0  0  0  0
 23 41  1  0  0  0  0
 24 42  1  0  0  0  0
 24 43  1  0  0  0  0
 25 26  1  0  0  0  0
 25 27  1  0  0  0  0
 25 28  1  0  0  0  0
 29 30  1  0  0  0  0
 29 31  1  0  0  0  0
 29 32  1  0  0  0  0
M  END
>  <DRUGBANK_ID>
DB11923

>  <COMMON_NAME>
Decoglurant

>  <CAS_NUMBER>
911115-16-7

>  <UNII>
5VX4P0JKC5

>  <SYNONYMS>
Decoglurant

$$$$
