
 OpenBabel10282417213D

 40 39  0  0  0  0  0  0  0  0999 V2000
    0.6770    1.2160    0.0070 C   0  0  0  0  0  0  0  0  0  0  0  0
    1.4420    0.0470   -0.0030 C   0  0  0  0  0  0  0  0  0  0  0  0
    0.7650   -1.1660   -0.0050 C   0  0  0  0  0  0  0  0  0  0  0  0
   -0.6110   -1.1650    0.0090 C   0  0  0  0  0  0  0  0  0  0  0  0
   -1.3480   -0.0500   -0.0030 N   0  0  0  0  0  0  0  0  0  0  0  0
   -0.7010    1.1260   -0.0040 C   0  0  0  0  0  0  0  0  0  0  0  0
    1.5340   -2.4770   -0.0224 C   0  0  0  0  0  0  0  0  0  0  0  0
    0.9061   -3.5820   -0.0241 O   0  0  0  0  0  0  0  0  0  0  0  0
    2.9539   -2.4672   -0.0368 O   0  5  0  0  0  0  0  0  0  0  0  0
    0.6770    1.2160    0.0070 C   0  0  0  0  0  0  0  0  0  0  0  0
    1.4420    0.0470   -0.0030 C   0  0  0  0  0  0  0  0  0  0  0  0
    0.7650   -1.1660   -0.0050 C   0  0  0  0  0  0  0  0  0  0  0  0
   -0.6110   -1.1650    0.0090 C   0  0  0  0  0  0  0  0  0  0  0  0
   -1.3480   -0.0500   -0.0030 N   0  0  0  0  0  0  0  0  0  0  0  0
   -0.7010    1.1260   -0.0040 C   0  0  0  0  0  0  0  0  0  0  0  0
    1.5340   -2.4770   -0.0224 C   0  0  0  0  0  0  0  0  0  0  0  0
    0.9061   -3.5820   -0.0241 O   0  0  0  0  0  0  0  0  0  0  0  0
    2.9539   -2.4672   -0.0368 O   0  5  0  0  0  0  0  0  0  0  0  0
    0.6770    1.2160    0.0070 C   0  0  0  0  0  0  0  0  0  0  0  0
    1.4420    0.0470   -0.0030 C   0  0  0  0  0  0  0  0  0  0  0  0
    0.7650   -1.1660   -0.0050 C   0  0  0  0  0  0  0  0  0  0  0  0
   -0.6110   -1.1650    0.0090 C   0  0  0  0  0  0  0  0  0  0  0  0
   -1.3480   -0.0500   -0.0030 N   0  0  0  0  0  0  0  0  0  0  0  0
   -0.7010    1.1260   -0.0040 C   0  0  0  0  0  0  0  0  0  0  0  0
    1.5340   -2.4770   -0.0224 C   0  0  0  0  0  0  0  0  0  0  0  0
    0.9061   -3.5820   -0.0241 O   0  0  0  0  0  0  0  0  0  0  0  0
    2.9539   -2.4672   -0.0368 O   0  5  0  0  0  0  0  0  0  0  0  0
    1.0834   -0.0296   -0.0465 Cr  0  1  0  0  0  0  0  0  0  0  0  0
    1.1549    2.1732    0.0231 H   0  0  0  0  0  0  0  0  0  0  0  0
    2.5113    0.0847   -0.0089 H   0  0  0  0  0  0  0  0  0  0  0  0
   -1.1180   -2.1070    0.0306 H   0  0  0  0  0  0  0  0  0  0  0  0
   -1.2752    2.0288   -0.0137 H   0  0  0  0  0  0  0  0  0  0  0  0
    1.1549    2.1732    0.0231 H   0  0  0  0  0  0  0  0  0  0  0  0
    2.5113    0.0847   -0.0089 H   0  0  0  0  0  0  0  0  0  0  0  0
   -1.1180   -2.1070    0.0306 H   0  0  0  0  0  0  0  0  0  0  0  0
   -1.2752    2.0288   -0.0137 H   0  0  0  0  0  0  0  0  0  0  0  0
    1.1549    2.1732    0.0231 H   0  0  0  0  0  0  0  0  0  0  0  0
    2.5113    0.0847   -0.0089 H   0  0  0  0  0  0  0  0  0  0  0  0
   -1.1180   -2.1070    0.0306 H   0  0  0  0  0  0  0  0  0  0  0  0
   -1.2752    2.0288   -0.0137 H   0  0  0  0  0  0  0  0  0  0  0  0
  1  2  2  0  0  0  0
  1  6  1  0  0  0  0
  1 29  1  0  0  0  0
  2  3  1  0  0  0  0
  2 30  1  0  0  0  0
  3  4  2  0  0  0  0
  3  7  1  0  0  0  0
  4  5  1  0  0  0  0
  4 31  1  0  0  0  0
  5  6  2  0  0  0  0
  6 32  1  0  0  0  0
  7  8  2  0  0  0  0
  7  9  1  0  0  0  0
 10 11  2  0  0  0  0
 10 15  1  0  0  0  0
 10 33  1  0  0  0  0
 11 12  1  0  0  0  0
 11 34  1  0  0  0  0
 12 13  2  0  0  0  0
 12 16  1  0  0  0  0
 13 14  1  0  0  0  0
 13 35  1  0  0  0  0
 14 15  2  0  0  0  0
 15 36  1  0  0  0  0
 16 17  2  0  0  0  0
 16 18  1  0  0  0  0
 19 20  2  0  0  0  0
 19 24  1  0  0  0  0
 19 37  1  0  0  0  0
 20 21  1  0  0  0  0
 20 38  1  0  0  0  0
 21 22  2  0  0  0  0
 21 25  1  0  0  0  0
 22 23  1  0  0  0  0
 22 39  1  0  0  0  0
 23 24  2  0  0  0  0
 24 40  1  0  0  0  0
 25 26  2  0  0  0  0
 25 27  1  0  0  0  0
M  CHG  4   9  -1  18  -1  27  -1  28   3
M  END
>  <DRUGBANK_ID>
DB14529

>  <SECONDARY_ACCESSION_NUMBERS>
DBSALT001747

>  <COMMON_NAME>
Chromium nicotinate

>  <CAS_NUMBER>
64452-96-6

>  <UNII>
A150AY412V

>  <SYNONYMS>
Chromium(III) nicotinate

$$$$
