
 OpenBabel10282417103D

138140  0  0  1  0  0  0  0  0999 V2000
   -0.3089    5.1179   -2.4865 C   0  0  1  0  0  0  0  0  0  0  0  0
    1.8959    4.9980   -4.3492 C   0  0  1  0  0  0  0  0  0  0  0  0
   -3.5171    5.7794   -1.4798 O   0  0  0  0  0  0  0  0  0  0  0  0
    1.6578    4.1515   -2.3426 C   0  0  0  0  0  0  0  0  0  0  0  0
    0.3602    5.9252   -4.1376 C   0  0  2  0  0  0  0  0  0  0  0  0
    1.3550    3.9989   -5.3342 C   0  0  0  0  0  0  0  0  0  0  0  0
   -6.7747    6.3126   -0.6670 C   0  0  1  0  0  0  0  0  0  0  0  0
    0.7975    3.1184   -2.9908 C   0  0  1  0  0  0  0  0  0  0  0  0
   -2.9634    6.3341   -2.3071 C   0  0  0  0  0  0  0  0  0  0  0  0
    2.3651    6.0597   -6.2660 O   0  0  0  0  0  0  0  0  0  0  0  0
   -0.0254    4.2292   -5.5537 O   0  0  0  0  0  0  0  0  0  0  0  0
    1.8862    2.9158   -5.6629 O   0  0  0  0  0  0  0  0  0  0  0  0
  -11.6291    6.4180    0.9417 C   0  0  0  0  0  0  0  0  0  0  0  0
   -3.6914    6.5360   -1.2340 O   0  0  0  0  0  0  0  0  0  0  0  0
    1.5625    1.9735   -3.2753 O   0  0  0  0  0  0  0  0  0  0  0  0
   -0.3176    2.7751   -2.0319 C   0  0  0  0  0  0  0  0  0  0  0  0
  -15.8809    6.5511    2.3395 C   0  0  2  0  0  0  0  0  0  0  0  0
    2.2022    1.3941   -2.1557 C   0  0  1  0  0  0  0  0  0  0  0  0
   -1.6134    2.9489   -2.3764 C   0  0  0  0  0  0  0  0  0  0  0  0
  -19.4605    6.2775    4.0427 C   0  0  0  0  0  0  0  0  0  0  0  0
  -19.3441    7.1912    3.2958 O   0  0  0  0  0  0  0  0  0  0  0  0
    1.5541    0.8329   -0.8527 C   0  0  2  0  0  0  0  0  0  0  0  0
    2.6509    0.2408   -3.0067 O   0  0  0  0  0  0  0  0  0  0  0  0
   -2.7237    2.6000   -1.4172 C   0  0  0  0  0  0  0  0  0  0  0  0
  -22.1025    5.0932    5.3970 C   0  0  2  0  0  0  0  0  0  0  0  0
    2.5467   -0.0652   -0.1504 C   0  0  2  0  0  0  0  0  0  0  0  0
    0.3978    0.1042   -1.2002 O   0  0  0  0  0  0  0  0  0  0  0  0
    3.5592   -0.5847   -2.2921 C   0  0  1  0  0  0  0  0  0  0  0  0
   -4.0241    2.7733   -1.7598 C   0  0  0  0  0  0  0  0  0  0  0  0
  -22.9997    3.8032    4.6017 C   0  0  1  0  0  0  0  0  0  0  0  0
  -23.8657    4.6598    6.6655 O   0  0  0  0  0  0  0  0  0  0  0  0
    2.9915   -1.1733   -1.0993 C   0  0  1  0  0  0  0  0  0  0  0  0
    1.9210   -0.6570    1.0382 N   0  0  0  0  0  0  0  0  0  0  0  0
    4.0267   -1.7067   -3.1939 C   0  0  0  0  0  0  0  0  0  0  0  0
   -5.1359    2.4238   -0.8000 C   0  0  0  0  0  0  0  0  0  0  0  0
  -21.8249    3.8736    3.6598 C   0  0  0  0  0  0  0  0  0  0  0  0
  -23.2924    2.5262    5.0092 O   0  0  0  0  0  0  0  0  0  0  0  0
    3.9709   -1.9853   -0.4668 O   0  0  0  0  0  0  0  0  0  0  0  0
   -6.4359    2.5973   -1.1426 C   0  0  0  0  0  0  0  0  0  0  0  0
  -20.5633    3.4726    4.3990 C   0  0  0  0  0  0  0  0  0  0  0  0
   -7.5475    2.2473   -0.1830 C   0  0  0  0  0  0  0  0  0  0  0  0
  -20.6910    2.0480    4.8975 C   0  0  2  0  0  0  0  0  0  0  0  0
   -8.8475    2.4207   -0.5256 C   0  0  0  0  0  0  0  0  0  0  0  0
  -20.9166    1.1130    3.7240 C   0  0  0  0  0  0  0  0  0  0  0  0
  -21.7514    1.9514    5.8119 O   0  0  0  0  0  0  0  0  0  0  0  0
   -9.9593    2.0706    0.4341 C   0  0  0  0  0  0  0  0  0  0  0  0
  -19.7742    1.2283    2.7934 C   0  0  2  0  0  0  0  0  0  0  0  0
  -11.2594    2.2440    0.0915 C   0  0  0  0  0  0  0  0  0  0  0  0
  -18.5241    0.8138    3.5693 C   0  0  0  0  0  0  0  0  0  0  0  0
  -19.6160    2.5231    2.2802 O   0  0  0  0  0  0  0  0  0  0  0  0
  -12.3711    1.8939    1.0512 C   0  0  0  0  0  0  0  0  0  0  0  0
  -18.6200   -0.6492    4.0236 C   0  0  0  0  0  0  0  0  0  0  0  0
  -13.6709    2.0675    0.7085 C   0  0  0  0  0  0  0  0  0  0  0  0
  -17.6992   -1.6306    3.5772 O   0  0  0  0  0  0  0  0  0  0  0  0
  -19.5231   -0.9309    4.8211 O   0  0  0  0  0  0  0  0  0  0  0  0
  -14.7782    1.7222    1.6661 C   0  0  0  0  0  0  0  0  0  0  0  0
  -16.6552   -1.3070    2.6579 C   0  0  2  0  0  0  0  0  0  0  0  0
  -16.0703    1.9121    1.3257 C   0  0  0  0  0  0  0  0  0  0  0  0
  -17.2576   -0.7699    1.3717 C   0  0  1  0  0  0  0  0  0  0  0  0
  -15.8296   -2.5360    2.3649 C   0  0  0  0  0  0  0  0  0  0  0  0
  -17.1060    1.6536    2.1935 C   0  0  1  0  0  0  0  0  0  0  0  0
  -18.0806    0.4534    1.5898 C   0  0  1  0  0  0  0  0  0  0  0  0
  -16.1520   -0.4187    0.3996 C   0  0  0  0  0  0  0  0  0  0  0  0
  -16.5202    1.0360    3.6133 C   0  0  0  0  0  0  0  0  0  0  0  0
  -18.6553    0.9673    0.4610 O   0  0  0  0  0  0  0  0  0  0  0  0
    2.1305    4.2458   -3.1612 H   0  0  0  0  0  0  0  0  0  0  0  0
    1.5831    5.9044   -4.4834 H   0  0  0  0  0  0  0  0  0  0  0  0
    2.1175    3.8264   -1.4691 H   0  0  0  0  0  0  0  0  0  0  0  0
    1.1196    5.0553   -2.1507 H   0  0  0  0  0  0  0  0  0  0  0  0
    2.7471    5.1587   -5.2444 H   0  0  0  0  0  0  0  0  0  0  0  0
    0.3672    3.4956   -3.8990 H   0  0  0  0  0  0  0  0  0  0  0  0
   -0.3514    6.5467   -3.2063 H   0  0  0  0  0  0  0  0  0  0  0  0
   -0.3573    6.7327   -3.1593 H   0  0  0  0  0  0  0  0  0  0  0  0
    3.2223    5.8835   -7.6281 H   0  0  0  0  0  0  0  0  0  0  0  0
   -0.4500    5.0876   -5.2819 H   0  0  0  0  0  0  0  0  0  0  0  0
  -13.9512    6.3903    1.7181 H   0  0  0  0  0  0  0  0  0  0  0  0
  -13.9137    6.2234    1.8026 H   0  0  0  0  0  0  0  0  0  0  0  0
   -1.3653    6.6755   -1.7382 H   0  0  0  0  0  0  0  0  0  0  0  0
   -0.0760    2.3872   -1.0598 H   0  0  0  0  0  0  0  0  0  0  0  0
  -18.7138    6.3782    2.8720 H   0  0  0  0  0  0  0  0  0  0  0  0
    2.6857    2.2708   -1.7635 H   0  0  0  0  0  0  0  0  0  0  0  0
   -1.8547    3.3448   -3.3515 H   0  0  0  0  0  0  0  0  0  0  0  0
  -21.7198    6.6678    5.5311 H   0  0  0  0  0  0  0  0  0  0  0  0
  -21.6132    6.2852    4.5355 H   0  0  0  0  0  0  0  0  0  0  0  0
  -21.6921    7.7881    4.0547 H   0  0  0  0  0  0  0  0  0  0  0  0
    1.2668    1.6539   -0.2146 H   0  0  0  0  0  0  0  0  0  0  0  0
   -2.4819    2.2059   -0.4425 H   0  0  0  0  0  0  0  0  0  0  0  0
  -21.8777    4.4437    6.3051 H   0  0  0  0  0  0  0  0  0  0  0  0
    3.4028    0.5126    0.1556 H   0  0  0  0  0  0  0  0  0  0  0  0
    0.7400    0.9268   -1.6058 H   0  0  0  0  0  0  0  0  0  0  0  0
    4.3595    0.0476   -1.9635 H   0  0  0  0  0  0  0  0  0  0  0  0
   -4.2657    3.1686   -2.7343 H   0  0  0  0  0  0  0  0  0  0  0  0
  -23.9011    4.0749    4.0957 H   0  0  0  0  0  0  0  0  0  0  0  0
  -24.7100    4.9071    6.1988 H   0  0  0  0  0  0  0  0  0  0  0  0
    2.1463   -1.7735   -1.3749 H   0  0  0  0  0  0  0  0  0  0  0  0
    2.4728   -1.4711    1.3105 H   0  0  0  0  0  0  0  0  0  0  0  0
    0.9623   -0.9542    0.8383 H   0  0  0  0  0  0  0  0  0  0  0  0
    4.7111   -2.3789   -2.7091 H   0  0  0  0  0  0  0  0  0  0  0  0
    3.1296   -2.2390   -3.4486 H   0  0  0  0  0  0  0  0  0  0  0  0
    4.4790   -1.3255   -4.0888 H   0  0  0  0  0  0  0  0  0  0  0  0
   -4.8935    2.0292    0.1745 H   0  0  0  0  0  0  0  0  0  0  0  0
  -21.7271    4.8758    3.2959 H   0  0  0  0  0  0  0  0  0  0  0  0
  -21.9846    3.2165    2.8287 H   0  0  0  0  0  0  0  0  0  0  0  0
  -24.0123    2.6332    5.5593 H   0  0  0  0  0  0  0  0  0  0  0  0
    4.7543   -1.4284   -0.2210 H   0  0  0  0  0  0  0  0  0  0  0  0
   -6.6776    2.9917   -2.1175 H   0  0  0  0  0  0  0  0  0  0  0  0
  -20.3898    4.1343    5.2180 H   0  0  0  0  0  0  0  0  0  0  0  0
  -19.7560    3.6031    3.8230 H   0  0  0  0  0  0  0  0  0  0  0  0
   -7.3054    1.8525    0.7917 H   0  0  0  0  0  0  0  0  0  0  0  0
  -19.7945    1.7653    5.4154 H   0  0  0  0  0  0  0  0  0  0  0  0
   -9.0896    2.8150   -1.5003 H   0  0  0  0  0  0  0  0  0  0  0  0
  -21.8142    1.3914    3.2077 H   0  0  0  0  0  0  0  0  0  0  0  0
  -21.0182    0.1064    4.0806 H   0  0  0  0  0  0  0  0  0  0  0  0
  -22.4996    2.1662    5.3626 H   0  0  0  0  0  0  0  0  0  0  0  0
   -9.7173    1.6759    1.4088 H   0  0  0  0  0  0  0  0  0  0  0  0
  -19.9428    0.5468    1.9365 H   0  0  0  0  0  0  0  0  0  0  0  0
  -11.5014    2.6385   -0.8832 H   0  0  0  0  0  0  0  0  0  0  0  0
  -18.3115    1.4602    4.3357 H   0  0  0  0  0  0  0  0  0  0  0  0
  -17.7442    0.7573    2.9364 H   0  0  0  0  0  0  0  0  0  0  0  0
  -19.4112    3.0870    2.9629 H   0  0  0  0  0  0  0  0  0  0  0  0
  -12.1291    1.4993    2.0258 H   0  0  0  0  0  0  0  0  0  0  0  0
  -13.9133    2.4619   -0.2662 H   0  0  0  0  0  0  0  0  0  0  0  0
  -14.5324    1.3272    2.6368 H   0  0  0  0  0  0  0  0  0  0  0  0
  -16.0196   -0.5721    3.0905 H   0  0  0  0  0  0  0  0  0  0  0  0
  -16.3245    2.2894    0.3509 H   0  0  0  0  0  0  0  0  0  0  0  0
  -17.8902   -1.5200    0.9401 H   0  0  0  0  0  0  0  0  0  0  0  0
  -15.0430   -2.2891    1.6770 H   0  0  0  0  0  0  0  0  0  0  0  0
  -15.4000   -2.9124    3.2730 H   0  0  0  0  0  0  0  0  0  0  0  0
  -16.4568   -3.2905    1.9290 H   0  0  0  0  0  0  0  0  0  0  0  0
  -17.7684    2.4223    2.5008 H   0  0  0  0  0  0  0  0  0  0  0  0
  -18.8320    0.1520    2.3045 H   0  0  0  0  0  0  0  0  0  0  0  0
  -16.2482   -1.0151   -0.4807 H   0  0  0  0  0  0  0  0  0  0  0  0
  -16.2324    0.6100    0.1246 H   0  0  0  0  0  0  0  0  0  0  0  0
  -15.1909   -0.5903    0.8479 H   0  0  0  0  0  0  0  0  0  0  0  0
  -15.5616    0.7117    3.4967 H   0  0  0  0  0  0  0  0  0  0  0  0
  -16.6600    1.7729    4.3365 H   0  0  0  0  0  0  0  0  0  0  0  0
  -17.1341    0.1581    3.8966 H   0  0  0  0  0  0  0  0  0  0  0  0
  -19.6109    1.2228    0.5572 H   0  0  0  0  0  0  0  0  0  0  0  0
  1  2  1  0  0  0  0
  1  3  1  0  0  0  0
  1  4  1  0  0  0  0
  1 66  1  1  0  0  0
  2  5  1  0  0  0  0
  2  6  1  0  0  0  0
  2 67  1  6  0  0  0
  3  7  1  0  0  0  0
  4  8  1  0  0  0  0
  4 68  1  0  0  0  0
  4 69  1  0  0  0  0
  5  9  1  0  0  0  0
  5 70  1  1  0  0  0
  5 10  1  0  0  0  0
  6 11  1  0  0  0  0
  6 12  2  0  0  0  0
  7 13  1  0  0  0  0
  7 14  1  1  0  0  0
  7  9  1  0  0  0  0
  8 15  1  0  0  0  0
  8 16  1  0  0  0  0
  8 71  1  6  0  0  0
  9 72  1  0  0  0  0
  9 73  1  0  0  0  0
 10 74  1  0  0  0  0
 11 75  1  0  0  0  0
 13 17  1  0  0  0  0
 13 76  1  0  0  0  0
 13 77  1  0  0  0  0
 14 78  1  0  0  0  0
 16 19  2  0  0  0  0
 16 79  1  0  0  0  0
 17 20  1  0  0  0  0
 17 21  1  0  0  0  0
 17 80  1  1  0  0  0
 18 22  1  0  0  0  0
 18 23  1  0  0  0  0
 18 81  1  1  0  0  0
 18 15  1  0  0  0  0
 19 24  1  0  0  0  0
 19 82  1  0  0  0  0
 20 25  1  0  0  0  0
 20 83  1  0  0  0  0
 20 84  1  0  0  0  0
 21 85  1  0  0  0  0
 22 26  1  0  0  0  0
 22 86  1  1  0  0  0
 22 27  1  0  0  0  0
 23 28  1  0  0  0  0
 24 29  2  0  0  0  0
 24 87  1  0  0  0  0
 25 30  1  0  0  0  0
 25 31  1  0  0  0  0
 25 88  1  1  0  0  0
 26 32  1  0  0  0  0
 26 89  1  1  0  0  0
 26 33  1  0  0  0  0
 27 90  1  0  0  0  0
 28 32  1  0  0  0  0
 28 91  1  1  0  0  0
 28 34  1  0  0  0  0
 29 35  1  0  0  0  0
 29 92  1  0  0  0  0
 30 36  1  0  0  0  0
 30 93  1  6  0  0  0
 30 37  1  0  0  0  0
 31 94  1  0  0  0  0
 32 38  1  0  0  0  0
 32 95  1  6  0  0  0
 33 96  1  0  0  0  0
 33 97  1  0  0  0  0
 34 98  1  0  0  0  0
 34 99  1  0  0  0  0
 34100  1  0  0  0  0
 35 39  2  0  0  0  0
 35101  1  0  0  0  0
 36 40  1  0  0  0  0
 36102  1  0  0  0  0
 36103  1  0  0  0  0
 37104  1  0  0  0  0
 38105  1  0  0  0  0
 39 41  1  0  0  0  0
 39106  1  0  0  0  0
 40 42  1  0  0  0  0
 40107  1  0  0  0  0
 40108  1  0  0  0  0
 41 43  2  0  0  0  0
 41109  1  0  0  0  0
 42 44  1  0  0  0  0
 42 45  1  0  0  0  0
 42110  1  1  0  0  0
 43 46  1  0  0  0  0
 43111  1  0  0  0  0
 44 47  1  0  0  0  0
 44112  1  0  0  0  0
 44113  1  0  0  0  0
 45114  1  0  0  0  0
 46 48  2  0  0  0  0
 46115  1  0  0  0  0
 47 49  1  0  0  0  0
 47 50  1  0  0  0  0
 47116  1  6  0  0  0
 48 51  1  0  0  0  0
 48117  1  0  0  0  0
 49 52  1  0  0  0  0
 49118  1  0  0  0  0
 49119  1  0  0  0  0
 50120  1  0  0  0  0
 51 53  2  0  0  0  0
 51121  1  0  0  0  0
 52 54  1  0  0  0  0
 52 55  2  0  0  0  0
 53 56  1  0  0  0  0
 53122  1  0  0  0  0
 54 57  1  0  0  0  0
 56 58  2  0  0  0  0
 56123  1  0  0  0  0
 57 59  1  0  0  0  0
 57 60  1  0  0  0  0
 57124  1  1  0  0  0
 58 61  1  0  0  0  0
 58125  1  0  0  0  0
 59 62  1  0  0  0  0
 59126  1  6  0  0  0
 59 63  1  0  0  0  0
 60127  1  0  0  0  0
 60128  1  0  0  0  0
 60129  1  0  0  0  0
 61 62  1  0  0  0  0
 61130  1  1  0  0  0
 61 64  1  0  0  0  0
 62131  1  1  0  0  0
 62 65  1  0  0  0  0
 63132  1  0  0  0  0
 63133  1  0  0  0  0
 63134  1  0  0  0  0
 64135  1  0  0  0  0
 64136  1  0  0  0  0
 64137  1  0  0  0  0
 65138  1  0  0  0  0
M  END
>  <DRUGBANK_ID>
DB00681

>  <SECONDARY_ACCESSION_NUMBERS>
APRD00797

>  <COMMON_NAME>
Amphotericin B

>  <CAS_NUMBER>
1397-89-3

>  <UNII>
7XU7A7DROE

>  <SYNONYMS>
Amfotericina B; AMPH-b; Amphotericin B; Amphotéricine B; Amphotericinum B; Liposomal amphotericin B

$$$$
