
 OpenBabel10282417143D

 81 82  0  0  0  0  0  0  0  0999 V2000
   -0.5623    0.8115    4.1673 C   0  0  0  0  0  0  0  0  0  0  0  0
   -0.4515    1.8868    3.0988 C   0  0  0  0  0  0  0  0  0  0  0  0
    0.0921    1.2745    1.8182 C   0  0  0  0  0  0  0  0  0  0  0  0
    0.3734    1.9914    0.7909 C   0  0  0  0  0  0  0  0  0  0  0  0
    0.6383    1.2401   -0.2224 C   0  0  0  0  0  0  0  0  0  0  0  0
    1.0116    1.6925   -1.6246 C   0  0  0  0  0  0  0  0  0  0  0  0
    1.0936    3.0197   -1.9119 C   0  0  0  0  0  0  0  0  0  0  0  0
    1.4067    3.5938   -3.0847 N   0  0  0  0  0  0  0  0  0  0  0  0
    1.1983    4.8963   -2.9893 C   0  0  0  0  0  0  0  0  0  0  0  0
    1.4178    5.9408   -4.0715 C   0  0  0  0  0  0  0  0  0  0  0  0
    1.1549    7.2508   -3.8159 C   0  0  0  0  0  0  0  0  0  0  0  0
    0.6428    7.7235   -2.7315 C   0  0  0  0  0  0  0  0  0  0  0  0
    0.4599    8.9898   -2.8379 C   0  0  0  0  0  0  0  0  0  0  0  0
    0.8424    9.4129   -4.0244 C   0  0  0  0  0  0  0  0  0  0  0  0
    1.2948    8.3328   -4.6748 N   0  5  0  0  0  0  0  0  0  0  0  0
    0.7891   10.6883   -4.4947 C   0  0  0  0  0  0  0  0  0  0  0  0
    0.2417   11.8004   -3.6149 C   0  0  0  0  0  0  0  0  0  0  0  0
    0.7038   12.1950   -2.4402 N   0  0  0  0  0  0  0  0  0  0  0  0
   -0.0842   13.1777   -1.9747 C   0  0  0  0  0  0  0  0  0  0  0  0
   -0.0769   -1.1774    2.4588 C   0  0  0  0  0  0  0  0  0  0  0  0
    0.1707   -0.0060    1.5224 C   0  0  0  0  0  0  0  0  0  0  0  0
    0.5130   -0.0671    0.2289 N   0  5  0  0  0  0  0  0  0  0  0  0
   -1.0801   13.4378   -2.8372 C   0  0  0  0  0  0  0  0  0  0  0  0
   -0.9556   12.6385   -3.8834 C   0  0  0  0  0  0  0  0  0  0  0  0
   -1.8531   12.5877   -5.1091 C   0  0  0  0  0  0  0  0  0  0  0  0
   -3.2730   12.2508   -4.6838 C   0  0  0  0  0  0  0  0  0  0  0  0
   -2.1703   14.4790   -2.6429 C   0  0  0  0  0  0  0  0  0  0  0  0
   -0.1175    9.8765   -1.7466 C   0  0  0  0  0  0  0  0  0  0  0  0
    0.3035    6.8983   -1.5009 C   0  0  0  0  0  0  0  0  0  0  0  0
   -0.7130    5.8307   -1.8713 C   0  0  0  0  0  0  0  0  0  0  0  0
   -0.1289    4.9251   -2.9433 C   0  0  0  0  0  0  0  0  0  0  0  0
    0.0042    3.6809   -2.7207 O   0  0  0  0  0  0  0  0  0  0  0  0
    0.2680    5.4692   -4.1934 O   0  0  0  0  0  0  0  0  0  0  0  0
    0.7055    5.1291   -1.6068 C   0  0  0  0  0  0  0  0  0  0  0  0
    0.6687    3.9394   -1.0305 C   0  0  0  0  0  0  0  0  0  0  0  0
    0.2196    3.6592    0.3944 C   0  0  0  0  0  0  0  0  0  0  0  0
    0.3224    6.4613   -0.9832 C   0  0  0  0  0  0  0  0  0  0  0  0
   -1.1347    6.4188   -0.5526 C   0  0  0  0  0  0  0  0  0  0  0  0
   -1.3297    5.3076    0.4662 C   0  0  0  0  0  0  0  0  0  0  0  0
   -1.7555    5.5818    1.6318 O   0  0  0  0  0  0  0  0  0  0  0  0
   -1.0363    3.9633    0.1154 O   0  0  0  0  0  0  0  0  0  0  0  0
    0.3913    3.5111    0.7722 C   0  0  0  0  0  0  0  0  0  0  0  0
    0.9154    0.0472    0.0249 Cl  0  5  0  0  0  0  0  0  0  0  0  0
    1.0163    0.0526   -0.0835 Cl  0  5  0  0  0  0  0  0  0  0  0  0
    1.0822    0.0263   -0.0506 Sn  0  0  0  0  0  0  0  0  0  0  0  0
   -1.2247    0.0414    3.8310 H   0  0  0  0  0  0  0  0  0  0  0  0
   -0.9450    1.2425    5.0688 H   0  0  0  0  0  0  0  0  0  0  0  0
    0.4048    0.3935    4.3544 H   0  0  0  0  0  0  0  0  0  0  0  0
   -1.4186    2.3047    2.9118 H   0  0  0  0  0  0  0  0  0  0  0  0
    0.2108    2.6569    3.4351 H   0  0  0  0  0  0  0  0  0  0  0  0
    0.7488    1.3740   -0.6375 H   0  0  0  0  0  0  0  0  0  0  0  0
    1.2633    5.2055   -3.3097 H   0  0  0  0  0  0  0  0  0  0  0  0
    1.1325   10.9086   -5.4838 H   0  0  0  0  0  0  0  0  0  0  0  0
    0.0188   -2.1802    2.0981 H   0  0  0  0  0  0  0  0  0  0  0  0
   -1.8436   13.5395   -5.5979 H   0  0  0  0  0  0  0  0  0  0  0  0
   -1.4950   11.8373   -5.7826 H   0  0  0  0  0  0  0  0  0  0  0  0
   -3.6311   13.0012   -4.0104 H   0  0  0  0  0  0  0  0  0  0  0  0
   -3.9048   12.2150   -5.5466 H   0  0  0  0  0  0  0  0  0  0  0  0
   -3.2826   11.2990   -4.1950 H   0  0  0  0  0  0  0  0  0  0  0  0
   -2.7247   14.2537   -1.7559 H   0  0  0  0  0  0  0  0  0  0  0  0
   -1.7257   15.4477   -2.5492 H   0  0  0  0  0  0  0  0  0  0  0  0
   -2.8280   14.4685   -3.4869 H   0  0  0  0  0  0  0  0  0  0  0  0
   -1.1028    9.5409   -1.4985 H   0  0  0  0  0  0  0  0  0  0  0  0
    0.5059    9.8254   -0.8785 H   0  0  0  0  0  0  0  0  0  0  0  0
   -0.1621   10.8873   -2.0947 H   0  0  0  0  0  0  0  0  0  0  0  0
    1.1914    6.4315   -1.1286 H   0  0  0  0  0  0  0  0  0  0  0  0
   -0.1077    7.5358   -0.7463 H   0  0  0  0  0  0  0  0  0  0  0  0
   -0.9519    5.2498   -1.0050 H   0  0  0  0  0  0  0  0  0  0  0  0
   -1.6009    6.2974   -2.2437 H   0  0  0  0  0  0  0  0  0  0  0  0
    0.6523    4.8734   -4.8986 H   0  0  0  0  0  0  0  0  0  0  0  0
   -0.6163    2.9915    0.3801 H   0  0  0  0  0  0  0  0  0  0  0  0
    1.0239    3.2122    0.9405 H   0  0  0  0  0  0  0  0  0  0  0  0
   -0.0649    4.5768    0.8656 H   0  0  0  0  0  0  0  0  0  0  0  0
    0.9411    6.6469   -0.1302 H   0  0  0  0  0  0  0  0  0  0  0  0
    0.4597    7.2435   -1.7003 H   0  0  0  0  0  0  0  0  0  0  0  0
   -1.4044    7.3565   -0.1135 H   0  0  0  0  0  0  0  0  0  0  0  0
   -1.7534    6.2332   -1.4056 H   0  0  0  0  0  0  0  0  0  0  0  0
   -1.1646    3.2323    0.7857 H   0  0  0  0  0  0  0  0  0  0  0  0
    1.3699    3.8530    0.5066 H   0  0  0  0  0  0  0  0  0  0  0  0
   -0.3179    3.8674    0.0546 H   0  0  0  0  0  0  0  0  0  0  0  0
    0.1347    3.8828    1.7422 H   0  0  0  0  0  0  0  0  0  0  0  0
  1  2  1  0  0  0  0
  1 46  1  0  0  0  0
  1 47  1  0  0  0  0
  1 48  1  0  0  0  0
  2  3  1  0  0  0  0
  2 49  1  0  0  0  0
  2 50  1  0  0  0  0
  3  4  1  0  0  0  0
  3 21  2  0  0  0  0
  4  5  2  0  0  0  0
  4 42  1  0  0  0  0
  5  6  1  0  0  0  0
  5 22  1  0  0  0  0
  6  7  2  0  0  0  0
  6 51  1  0  0  0  0
  7  8  1  0  0  0  0
  7 35  1  0  0  0  0
  8  9  2  0  0  0  0
  9 10  1  0  0  0  0
  9 34  1  0  0  0  0
 10 11  2  0  0  0  0
 10 52  1  0  0  0  0
 11 12  1  0  0  0  0
 11 15  1  0  0  0  0
 12 13  2  0  0  0  0
 12 29  1  0  0  0  0
 13 14  1  0  0  0  0
 13 28  1  0  0  0  0
 14 15  1  0  0  0  0
 14 16  2  0  0  0  0
 16 17  1  0  0  0  0
 16 53  1  0  0  0  0
 17 18  2  0  0  0  0
 17 24  1  0  0  0  0
 18 19  1  0  0  0  0
 19 20  2  0  0  0  0
 19 23  1  0  0  0  0
 20 21  1  0  0  0  0
 20 54  1  0  0  0  0
 21 22  1  0  0  0  0
 23 24  2  0  0  0  0
 23 27  1  0  0  0  0
 24 25  1  0  0  0  0
 25 26  1  0  0  0  0
 25 55  1  0  0  0  0
 25 56  1  0  0  0  0
 26 57  1  0  0  0  0
 26 58  1  0  0  0  0
 26 59  1  0  0  0  0
 27 60  1  0  0  0  0
 27 61  1  0  0  0  0
 27 62  1  0  0  0  0
 28 63  1  0  0  0  0
 28 64  1  0  0  0  0
 28 65  1  0  0  0  0
 29 30  1  0  0  0  0
 29 66  1  0  0  0  0
 29 67  1  0  0  0  0
 30 31  1  0  0  0  0
 30 68  1  0  0  0  0
 30 69  1  0  0  0  0
 31 32  2  0  0  0  0
 31 33  1  0  0  0  0
 33 70  1  0  0  0  0
 34 35  2  0  0  0  0
 34 37  1  0  0  0  0
 35 36  1  0  0  0  0
 36 71  1  0  0  0  0
 36 72  1  0  0  0  0
 36 73  1  0  0  0  0
 37 38  1  0  0  0  0
 37 74  1  0  0  0  0
 37 75  1  0  0  0  0
 38 39  1  0  0  0  0
 38 76  1  0  0  0  0
 38 77  1  0  0  0  0
 39 40  2  0  0  0  0
 39 41  1  0  0  0  0
 41 78  1  0  0  0  0
 42 79  1  0  0  0  0
 42 80  1  0  0  0  0
 42 81  1  0  0  0  0
M  CHG  5  15  -1  22  -1  43  -1  44  -1  45   4
M  END
>  <DRUGBANK_ID>
DB04912

>  <COMMON_NAME>
Stannsoporfin

>  <CAS_NUMBER>
106344-20-1

>  <UNII>
0KAE1U0G7Q

>  <SYNONYMS>
Sn Mesoporphyrin; SnMP; Stannsoporfin; Tin mesoporphyrin

$$$$
