
 OpenBabel10282417153D

 51 53  0  0  0  0  0  0  0  0999 V2000
    3.8001   -1.2511    5.1612 N   0  0  0  0  0  0  0  0  0  0  0  0
    3.7642   -1.2154    3.7705 C   0  0  0  0  0  0  0  0  0  0  0  0
    2.8059   -1.7154    5.9661 C   0  0  0  0  0  0  0  0  0  0  0  0
    4.7292   -2.0249    3.2517 C   0  0  0  0  0  0  0  0  0  0  0  0
    4.8088   -2.2388    5.6187 C   0  0  1  0  0  0  0  0  0  0  0  0
    3.7677   -2.6704    6.7066 C   0  0  1  0  0  0  0  0  0  0  0  0
    5.2351   -2.9710    4.3482 C   0  0  1  0  0  0  0  0  0  0  0  0
    5.7327    4.6616    2.6190 S   0  0  0  0  0  0  0  0  0  0  0  0
    2.7686   -0.3118    3.0746 C   0  0  0  0  0  0  0  0  0  0  0  0
    5.2746    0.9059   -0.9527 N   0  0  0  0  0  0  0  0  0  0  0  0
    5.4703   -2.2134    1.6624 S   0  0  0  0  0  0  0  0  0  0  0  0
    4.9871    3.2959    2.0315 N   0  0  0  0  0  0  0  0  0  0  0  0
    1.6110   -1.4729    5.9577 O   0  0  0  0  0  0  0  0  0  0  0  0
    5.0537    5.7914    1.6006 N   0  0  0  0  0  0  0  0  0  0  0  0
    5.2329    4.9298    3.9407 O   0  0  0  0  0  0  0  0  0  0  0  0
    4.0950   -2.3327    8.1585 C   0  0  1  0  0  0  0  0  0  0  0  0
    2.2657    0.7091    3.7973 O   0  0  0  0  0  0  0  0  0  0  0  0
    4.7897   -0.8726    0.6501 C   0  0  1  0  0  0  0  0  0  0  0  0
    7.1355    4.6177    2.3018 O   0  0  0  0  0  0  0  0  0  0  0  0
    4.7473    1.4889    0.3032 C   0  0  2  0  0  0  0  0  0  0  0  0
    2.4579   -0.3901    1.8984 O   0  0  0  0  0  0  0  0  0  0  0  0
    5.3414    2.8631    0.6635 C   0  0  0  0  0  0  0  0  0  0  0  0
    5.1585    0.4453    1.3089 C   0  0  0  0  0  0  0  0  0  0  0  0
    5.1104   -0.5745   -0.8264 C   0  0  0  0  0  0  0  0  0  0  0  0
    4.5778   -4.3459    4.2590 C   0  0  0  0  0  0  0  0  0  0  0  0
    5.1711   -3.2846    8.6720 C   0  0  0  0  0  0  0  0  0  0  0  0
    4.5357   -0.9840    8.2883 O   0  0  0  0  0  0  0  0  0  0  0  0
    5.6949   -1.7526    6.0481 H   0  0  0  0  0  0  0  0  0  0  0  0
    3.4476   -3.7183    6.6407 H   0  0  0  0  0  0  0  0  0  0  0  0
    6.3265   -3.0835    4.3431 H   0  0  0  0  0  0  0  0  0  0  0  0
    6.2766    1.0946   -0.9976 H   0  0  0  0  0  0  0  0  0  0  0  0
    4.0017    3.2472    2.2963 H   0  0  0  0  0  0  0  0  0  0  0  0
    5.3563    6.7189    1.9062 H   0  0  0  0  0  0  0  0  0  0  0  0
    5.3504    5.6485    0.6375 H   0  0  0  0  0  0  0  0  0  0  0  0
    3.2008   -2.4376    8.7827 H   0  0  0  0  0  0  0  0  0  0  0  0
    2.1776    0.5238    4.7492 H   0  0  0  0  0  0  0  0  0  0  0  0
    3.7531   -1.1858    0.5738 H   0  0  0  0  0  0  0  0  0  0  0  0
    3.6527    1.5754    0.2452 H   0  0  0  0  0  0  0  0  0  0  0  0
    6.4332    2.8078    0.5865 H   0  0  0  0  0  0  0  0  0  0  0  0
    4.9699    3.6013   -0.0503 H   0  0  0  0  0  0  0  0  0  0  0  0
    6.2414    0.4889    1.4846 H   0  0  0  0  0  0  0  0  0  0  0  0
    4.7072    0.6621    2.2702 H   0  0  0  0  0  0  0  0  0  0  0  0
    5.9878   -1.0967   -1.2133 H   0  0  0  0  0  0  0  0  0  0  0  0
    4.2543   -0.8446   -1.4619 H   0  0  0  0  0  0  0  0  0  0  0  0
    4.8875   -4.8701    3.3505 H   0  0  0  0  0  0  0  0  0  0  0  0
    4.8536   -4.9671    5.1183 H   0  0  0  0  0  0  0  0  0  0  0  0
    3.4837   -4.2702    4.2463 H   0  0  0  0  0  0  0  0  0  0  0  0
    6.0852   -3.2058    8.0732 H   0  0  0  0  0  0  0  0  0  0  0  0
    5.4452   -3.0513    9.7056 H   0  0  0  0  0  0  0  0  0  0  0  0
    4.8286   -4.3241    8.6239 H   0  0  0  0  0  0  0  0  0  0  0  0
    5.3845   -0.8599    7.8317 H   0  0  0  0  0  0  0  0  0  0  0  0
  2  1  1  0  0  0  0
  3  1  1  0  0  0  0
  4  2  2  0  0  0  0
  4  7  1  0  0  0  0
  5  1  1  0  0  0  0
  5 28  1  1  0  0  0
  6  3  1  0  0  0  0
  6  5  1  0  0  0  0
  6 29  1  6  0  0  0
  6 16  1  0  0  0  0
  7  5  1  0  0  0  0
  7 25  1  0  0  0  0
  7 30  1  6  0  0  0
  8 12  1  0  0  0  0
  9  2  1  0  0  0  0
 10 24  1  0  0  0  0
 10 20  1  0  0  0  0
 10 31  1  0  0  0  0
 11  4  1  0  0  0  0
 12 22  1  0  0  0  0
 12 32  1  0  0  0  0
 13  3  2  0  0  0  0
 14  8  1  0  0  0  0
 14 33  1  0  0  0  0
 14 34  1  0  0  0  0
 15  8  2  0  0  0  0
 16 26  1  0  0  0  0
 16 27  1  0  0  0  0
 16 35  1  1  0  0  0
 17  9  1  0  0  0  0
 17 36  1  0  0  0  0
 18 37  1  1  0  0  0
 18 11  1  0  0  0  0
 19  8  2  0  0  0  0
 20 23  1  0  0  0  0
 20 38  1  6  0  0  0
 20 22  1  0  0  0  0
 21  9  2  0  0  0  0
 22 39  1  0  0  0  0
 22 40  1  0  0  0  0
 23 18  1  0  0  0  0
 23 41  1  0  0  0  0
 23 42  1  0  0  0  0
 24 18  1  0  0  0  0
 24 43  1  0  0  0  0
 24 44  1  0  0  0  0
 25 45  1  0  0  0  0
 25 46  1  0  0  0  0
 25 47  1  0  0  0  0
 26 48  1  0  0  0  0
 26 49  1  0  0  0  0
 26 50  1  0  0  0  0
 27 51  1  0  0  0  0
M  END
>  <DRUGBANK_ID>
DB06211

>  <COMMON_NAME>
Doripenem

>  <CAS_NUMBER>
148016-81-3

>  <UNII>
BHV525JOBH

>  <SYNONYMS>
Doripenem

$$$$
