PZL
 OpenBabel10282417173D

 38 41  0  0  0  0  0  0  0  0999 V2000
    3.5725    1.2380   -0.0127 N   0  0  0  0  0  0  0  0  0  0  0  0
    2.5831    0.6423    0.0024 C   0  0  0  0  0  0  0  0  0  0  0  0
    1.3391   -0.0731    0.0033 C   0  0  0  0  0  0  0  0  0  0  0  0
    0.1402    0.6327    0.0051 C   0  0  0  0  0  0  0  0  0  0  0  0
   -1.0667   -0.0615   -0.0102 C   0  0  0  0  0  0  0  0  0  0  0  0
   -2.5380    0.8294   -0.0083 Cl  0  0  0  0  0  0  0  0  0  0  0  0
   -1.0894   -1.4573   -0.0269 C   0  0  0  0  0  0  0  0  0  0  0  0
    1.3248   -1.4687   -0.0133 C   0  0  0  0  0  0  0  0  0  0  0  0
    0.1129   -2.1711   -0.0149 C   0  0  0  0  0  0  0  0  0  0  0  0
   -0.0042   -3.5478   -0.0175 O   0  0  0  0  0  0  0  0  0  0  0  0
    1.1445   -4.3077    0.0200 C   0  0  0  0  0  0  0  0  0  0  0  0
    1.4163   -5.1659   -1.0501 C   0  0  0  0  0  0  0  0  0  0  0  0
    0.2632   -5.3769   -2.5336 Br  0  0  0  0  0  0  0  0  0  0  0  0
    2.0238   -4.2498    1.1268 C   0  0  0  0  0  0  0  0  0  0  0  0
    1.7444   -3.4198    2.1435 F   0  0  0  0  0  0  0  0  0  0  0  0
    3.2276   -4.9512    1.1410 C   0  0  0  0  0  0  0  0  0  0  0  0
    3.4920   -5.7059   -0.0092 C   0  0  0  0  0  0  0  0  0  0  0  0
    2.6000   -5.8735   -1.0608 C   0  0  0  0  0  0  0  0  0  0  0  0
    4.2191   -4.8322    2.2936 C   0  0  0  0  0  0  0  0  0  0  0  0
    4.4280   -6.2053    2.8867 C   0  0  0  0  0  0  0  0  0  0  0  0
    4.0198   -6.5139    4.1339 N   0  0  0  0  0  0  0  0  0  0  0  0
    4.3187   -7.8347    4.2588 N   0  0  0  0  0  0  0  0  0  0  0  0
    4.8928   -8.3712    3.1450 C   0  0  0  0  0  0  0  0  0  0  0  0
    5.2444   -9.6488    2.9116 N   0  0  0  0  0  0  0  0  0  0  0  0
    5.0771   -7.3183    2.2768 C   0  0  0  0  0  0  0  0  0  0  0  0
    5.7614   -7.5946    1.0935 C   0  0  0  0  0  0  0  0  0  0  0  0
    5.9980   -8.9216    0.8183 C   0  0  0  0  0  0  0  0  0  0  0  0
    5.7518   -9.9123    1.7004 N   0  0  0  0  0  0  0  0  0  0  0  0
    0.1518    1.7200    0.0114 H   0  0  0  0  0  0  0  0  0  0  0  0
   -2.0406   -1.9848   -0.0504 H   0  0  0  0  0  0  0  0  0  0  0  0
    2.2779   -1.9878   -0.0103 H   0  0  0  0  0  0  0  0  0  0  0  0
    4.4190   -6.2100   -0.1567 H   0  0  0  0  0  0  0  0  0  0  0  0
    2.8761   -6.5473   -1.8702 H   0  0  0  0  0  0  0  0  0  0  0  0
    5.1766   -4.4426    1.9244 H   0  0  0  0  0  0  0  0  0  0  0  0
    3.8636   -4.1238    3.0524 H   0  0  0  0  0  0  0  0  0  0  0  0
    4.0971   -8.3130    5.1250 H   0  0  0  0  0  0  0  0  0  0  0  0
    6.0502   -6.8359    0.3828 H   0  0  0  0  0  0  0  0  0  0  0  0
    6.3967   -9.2067   -0.1513 H   0  0  0  0  0  0  0  0  0  0  0  0
  1  2  3  0  0  0  0
  2  3  1  0  0  0  0
  3  4  2  0  0  0  0
  3  8  1  0  0  0  0
  4  5  1  0  0  0  0
  4 29  1  0  0  0  0
  5  6  1  0  0  0  0
  5  7  2  0  0  0  0
  7  9  1  0  0  0  0
  7 30  1  0  0  0  0
  8  9  2  0  0  0  0
  8 31  1  0  0  0  0
  9 10  1  0  0  0  0
 10 11  1  0  0  0  0
 11 12  2  0  0  0  0
 11 14  1  0  0  0  0
 12 13  1  0  0  0  0
 12 18  1  0  0  0  0
 14 15  1  0  0  0  0
 14 16  2  0  0  0  0
 16 17  1  0  0  0  0
 16 19  1  0  0  0  0
 17 18  2  0  0  0  0
 17 32  1  0  0  0  0
 18 33  1  0  0  0  0
 19 20  1  0  0  0  0
 19 34  1  0  0  0  0
 19 35  1  0  0  0  0
 20 21  2  0  0  0  0
 20 25  1  0  0  0  0
 21 22  1  0  0  0  0
 22 23  1  0  0  0  0
 22 36  1  0  0  0  0
 23 24  2  0  0  0  0
 23 25  1  0  0  0  0
 24 28  1  0  0  0  0
 25 26  2  0  0  0  0
 26 27  1  0  0  0  0
 26 37  1  0  0  0  0
 27 28  2  0  0  0  0
 27 38  1  0  0  0  0
M  END
>  <DRUGBANK_ID>
DB08446

>  <COMMON_NAME>
3-[6-bromo-2-fluoro-3-(1H-pyrazolo[3,4-c]pyridazin-3-ylmethyl)phenoxy]-5-chlorobenzonitrile

$$$$
