
 OpenBabel10282417123D

 25 25  0  0  1  0  0  0  0  0999 V2000
   -2.5207    0.0390    0.0781 C   0  0  0  0  0  0  0  0  0  0  0  0
   -1.0522   -0.0065   -0.3250 C   0  0  2  0  0  0  0  0  0  0  0  0
   -0.3631   -1.2787    0.1832 C   0  0  0  0  0  0  0  0  0  0  0  0
    1.1168   -1.2785   -0.2089 C   0  0  0  0  0  0  0  0  0  0  0  0
    1.8219    0.0102    0.2254 C   0  0  0  0  0  0  0  0  0  0  0  0
    1.0796    1.1968   -0.2168 N   0  0  0  0  0  0  0  0  0  0  0  0
   -0.3144    1.2215    0.2140 C   0  0  0  0  0  0  0  0  0  0  0  0
    1.7193    2.1682   -0.9691 C   0  0  0  0  0  0  0  0  0  0  0  0
    0.9549    3.3907   -1.4329 C   0  0  0  0  0  0  0  0  0  0  0  0
    2.9099    2.0707   -1.2857 O   0  0  0  0  0  0  0  0  0  0  0  0
   -2.6339    0.0621    1.1668 H   0  0  0  0  0  0  0  0  0  0  0  0
   -3.0003    0.9354   -0.3305 H   0  0  0  0  0  0  0  0  0  0  0  0
   -3.0575   -0.8334   -0.3065 H   0  0  0  0  0  0  0  0  0  0  0  0
   -0.9983    0.0003   -1.4226 H   0  0  0  0  0  0  0  0  0  0  0  0
   -0.4506   -1.3401    1.2756 H   0  0  0  0  0  0  0  0  0  0  0  0
   -0.8548   -2.1673   -0.2289 H   0  0  0  0  0  0  0  0  0  0  0  0
    1.6148   -2.1474    0.2361 H   0  0  0  0  0  0  0  0  0  0  0  0
    1.1956   -1.3829   -1.2981 H   0  0  0  0  0  0  0  0  0  0  0  0
    1.8779    0.0501    1.3204 H   0  0  0  0  0  0  0  0  0  0  0  0
    2.8501    0.0109   -0.1504 H   0  0  0  0  0  0  0  0  0  0  0  0
   -0.8404    2.1190   -0.0968 H   0  0  0  0  0  0  0  0  0  0  0  0
   -0.3135    1.2284    1.3112 H   0  0  0  0  0  0  0  0  0  0  0  0
    1.4442    4.2841   -1.0337 H   0  0  0  0  0  0  0  0  0  0  0  0
    0.9765    3.4249   -2.5262 H   0  0  0  0  0  0  0  0  0  0  0  0
   -0.0873    3.4412   -1.1369 H   0  0  0  0  0  0  0  0  0  0  0  0
  1 11  1  0  0  0  0
  1 12  1  0  0  0  0
  1 13  1  0  0  0  0
  2  1  1  0  0  0  0
  2  3  1  0  0  0  0
  2  7  1  0  0  0  0
  2 14  1  6  0  0  0
  3  4  1  0  0  0  0
  3 15  1  0  0  0  0
  3 16  1  0  0  0  0
  4  5  1  0  0  0  0
  4 17  1  0  0  0  0
  4 18  1  0  0  0  0
  5  6  1  0  0  0  0
  5 19  1  0  0  0  0
  5 20  1  0  0  0  0
  6  7  1  0  0  0  0
  6  8  1  0  0  0  0
  7 21  1  0  0  0  0
  7 22  1  0  0  0  0
  8  9  1  0  0  0  0
  8 10  2  0  0  0  0
  9 23  1  0  0  0  0
  9 24  1  0  0  0  0
  9 25  1  0  0  0  0
M  END
>  <DRUGBANK_ID>
DB01742

>  <SECONDARY_ACCESSION_NUMBERS>
EXPT00079

>  <COMMON_NAME>
(3r)-1-Acetyl-3-Methylpiperidine

$$$$
