
 OpenBabel10282417193D

 49 52  0  0  0  0  0  0  0  0999 V2000
   -1.2205    1.2929    0.1613 C   0  0  0  0  0  0  0  0  0  0  0  0
    0.1789    1.2805    0.0818 C   0  0  0  0  0  0  0  0  0  0  0  0
    0.8650    0.0742    0.1346 C   0  0  0  0  0  0  0  0  0  0  0  0
    0.1876   -1.1000    0.4031 C   0  0  0  0  0  0  0  0  0  0  0  0
   -1.1913   -1.0575    0.6601 C   0  0  0  0  0  0  0  0  0  0  0  0
   -1.9288    0.0997    0.3621 C   0  0  0  0  0  0  0  0  0  0  0  0
   -3.4251    0.0252    0.0890 C   0  0  0  0  0  0  0  0  0  0  0  0
   -3.9239   -0.6842   -1.2178 C   0  0  0  0  0  0  0  0  0  0  0  0
   -3.5157   -2.1652   -1.3079 C   0  0  0  0  0  0  0  0  0  0  0  0
   -2.1108   -2.3548   -1.8484 C   0  0  0  0  0  0  0  0  0  0  0  0
   -1.8802   -1.6027   -3.0569 N   0  0  0  0  0  0  0  0  0  0  0  0
   -2.1078   -0.1622   -2.9127 C   0  0  0  0  0  0  0  0  0  0  0  0
   -3.5568    0.0481   -2.5246 C   0  0  0  0  0  0  0  0  0  0  0  0
   -0.9428   -2.1680   -3.9069 C   0  0  0  0  0  0  0  0  0  0  0  0
   -0.3836   -3.2156   -3.5926 O   0  0  0  0  0  0  0  0  0  0  0  0
   -0.6692   -1.4907   -5.2840 C   0  0  0  0  0  0  0  0  0  0  0  0
   -0.8948   -0.3031   -5.4858 O   0  0  0  0  0  0  0  0  0  0  0  0
   -0.0783   -2.2263   -6.2938 N   0  0  0  0  0  0  0  0  0  0  0  0
    0.2236   -3.5918   -6.2843 C   0  0  0  0  0  0  0  0  0  0  0  0
   -0.7244   -4.5269   -5.8079 C   0  0  0  0  0  0  0  0  0  0  0  0
   -0.4042   -5.8715   -5.6512 C   0  0  0  0  0  0  0  0  0  0  0  0
    0.8453   -6.2419   -6.0686 C   0  0  0  0  0  0  0  0  0  0  0  0
    1.7599   -5.3570   -6.6036 C   0  0  0  0  0  0  0  0  0  0  0  0
    1.4781   -4.0129   -6.7344 C   0  0  0  0  0  0  0  0  0  0  0  0
    2.9430   -5.9838   -6.9677 O   0  0  0  0  0  0  0  0  0  0  0  0
    2.6768   -7.3192   -6.6453 C   0  0  0  0  0  0  0  0  0  0  0  0
    3.4657   -8.2447   -6.8543 O   0  0  0  0  0  0  0  0  0  0  0  0
    1.4361   -7.4697   -6.0879 N   0  0  0  0  0  0  0  0  0  0  0  0
    2.1848    0.0399   -0.0897 F   0  0  0  0  0  0  0  0  0  0  0  0
   -1.7514    2.2260   -0.0102 H   0  0  0  0  0  0  0  0  0  0  0  0
    0.7338    2.1957   -0.0909 H   0  0  0  0  0  0  0  0  0  0  0  0
    0.7012   -2.0542    0.2920 H   0  0  0  0  0  0  0  0  0  0  0  0
   -1.7046   -2.0046    0.8286 H   0  0  0  0  0  0  0  0  0  0  0  0
   -3.8928   -0.4759    0.9449 H   0  0  0  0  0  0  0  0  0  0  0  0
   -3.8350    1.0437    0.0783 H   0  0  0  0  0  0  0  0  0  0  0  0
   -5.0232   -0.6698   -1.1660 H   0  0  0  0  0  0  0  0  0  0  0  0
   -3.6401   -2.6518   -0.3338 H   0  0  0  0  0  0  0  0  0  0  0  0
   -4.1913   -2.6874   -1.9986 H   0  0  0  0  0  0  0  0  0  0  0  0
   -1.3345   -1.9585   -1.2367 H   0  0  0  0  0  0  0  0  0  0  0  0
   -1.8462   -3.4171   -1.8729 H   0  0  0  0  0  0  0  0  0  0  0  0
   -1.8696    0.4267   -3.7894 H   0  0  0  0  0  0  0  0  0  0  0  0
   -1.4231    0.2206   -2.1552 H   0  0  0  0  0  0  0  0  0  0  0  0
   -4.1595   -0.3704   -3.3449 H   0  0  0  0  0  0  0  0  0  0  0  0
   -3.7986    1.1126   -2.4630 H   0  0  0  0  0  0  0  0  0  0  0  0
    0.3075   -1.6382   -7.0203 H   0  0  0  0  0  0  0  0  0  0  0  0
   -1.7098   -4.1929   -5.4913 H   0  0  0  0  0  0  0  0  0  0  0  0
   -1.1093   -6.5598   -5.2052 H   0  0  0  0  0  0  0  0  0  0  0  0
    2.2273   -3.3210   -7.1017 H   0  0  0  0  0  0  0  0  0  0  0  0
    1.0419   -8.3488   -5.7973 H   0  0  0  0  0  0  0  0  0  0  0  0
  1  2  2  0  0  0  0
  1  6  1  0  0  0  0
  1 30  1  0  0  0  0
  2  3  1  0  0  0  0
  2 31  1  0  0  0  0
  3  4  2  0  0  0  0
  3 29  1  0  0  0  0
  4  5  1  0  0  0  0
  4 32  1  0  0  0  0
  5  6  2  0  0  0  0
  5 33  1  0  0  0  0
  6  7  1  0  0  0  0
  7  8  1  0  0  0  0
  7 34  1  0  0  0  0
  7 35  1  0  0  0  0
  8  9  1  0  0  0  0
  8 13  1  0  0  0  0
  8 36  1  0  0  0  0
  9 10  1  0  0  0  0
  9 37  1  0  0  0  0
  9 38  1  0  0  0  0
 10 11  1  0  0  0  0
 10 39  1  0  0  0  0
 10 40  1  0  0  0  0
 11 12  1  0  0  0  0
 11 14  1  0  0  0  0
 12 13  1  0  0  0  0
 12 41  1  0  0  0  0
 12 42  1  0  0  0  0
 13 43  1  0  0  0  0
 13 44  1  0  0  0  0
 14 15  2  0  0  0  0
 14 16  1  0  0  0  0
 16 17  2  0  0  0  0
 16 18  1  0  0  0  0
 18 19  1  0  0  0  0
 18 45  1  0  0  0  0
 19 20  2  0  0  0  0
 19 24  1  0  0  0  0
 20 21  1  0  0  0  0
 20 46  1  0  0  0  0
 21 22  2  0  0  0  0
 21 47  1  0  0  0  0
 22 23  1  0  0  0  0
 22 28  1  0  0  0  0
 23 24  2  0  0  0  0
 23 25  1  0  0  0  0
 24 48  1  0  0  0  0
 25 26  1  0  0  0  0
 26 27  2  0  0  0  0
 26 28  1  0  0  0  0
 28 49  1  0  0  0  0
M  END
>  <DRUGBANK_ID>
DB12260

>  <COMMON_NAME>
Radiprodil

>  <CAS_NUMBER>
496054-87-6

>  <UNII>
5XGC17ZKUF

>  <SYNONYMS>
Radiprodil

$$$$
