
 OpenBabel10282417223D

 34 34  0  0  0  0  0  0  0  0999 V2000
    0.9904    0.0149   -0.0012 C   0  0  0  0  0  0  0  0  0  0  0  0
    0.4497    1.4436    0.1934 C   0  0  0  0  0  0  0  0  0  0  0  0
   -1.1046    1.4358    0.3064 C   0  0  0  0  0  0  0  0  0  0  0  0
   -1.6138    0.6476    1.3705 O   0  0  0  0  0  0  0  0  0  0  0  0
    0.7199    2.2676   -1.0862 C   0  0  0  0  0  0  0  0  0  0  0  0
    1.0023    1.9972    1.4492 N   0  0  0  0  0  0  0  0  0  0  0  0
    2.4618    2.0615    1.5942 C   0  0  0  0  0  0  0  0  0  0  0  0
    3.1398    2.9896    0.5710 C   0  0  3  0  0  0  0  0  0  0  0  0
    2.5979    4.3078    0.6900 O   0  0  0  0  0  0  0  0  0  0  0  0
    4.6290    2.9735    0.6077 C   0  0  0  0  0  0  0  0  0  0  0  0
    5.3406    4.1752    0.5666 C   0  0  0  0  0  0  0  0  0  0  0  0
    6.7163    4.1590    0.6149 C   0  0  0  0  0  0  0  0  0  0  0  0
    7.3989    2.9433    0.6922 C   0  0  0  0  0  0  0  0  0  0  0  0
    6.6975    1.7354    0.6569 C   0  0  0  0  0  0  0  0  0  0  0  0
    5.3217    1.7520    0.5632 C   0  0  0  0  0  0  0  0  0  0  0  0
    0.5828   -0.4312   -0.9124 H   0  0  0  0  0  0  0  0  0  0  0  0
    0.7408   -0.6372    0.8428 H   0  0  0  0  0  0  0  0  0  0  0  0
    2.0816   -0.0044   -0.1061 H   0  0  0  0  0  0  0  0  0  0  0  0
   -1.4730    2.4598    0.4475 H   0  0  0  0  0  0  0  0  0  0  0  0
   -1.5416    1.0607   -0.6257 H   0  0  0  0  0  0  0  0  0  0  0  0
   -1.2244   -0.2378    1.2934 H   0  0  0  0  0  0  0  0  0  0  0  0
    0.0633    1.9606   -1.9046 H   0  0  0  0  0  0  0  0  0  0  0  0
    0.5527    3.3376   -0.9205 H   0  0  0  0  0  0  0  0  0  0  0  0
    1.7081    2.1044   -1.5126 H   0  0  0  0  0  0  0  0  0  0  0  0
    0.5609    2.8707    1.7290 H   0  0  0  0  0  0  0  0  0  0  0  0
    2.6874    2.4276    2.6058 H   0  0  0  0  0  0  0  0  0  0  0  0
    2.8772    1.0489    1.5760 H   0  0  0  0  0  0  0  0  0  0  0  0
    2.9762    2.6649   -0.4427 H   0  0  0  0  0  0  0  0  0  0  0  0
    1.6341    4.2101    0.6588 H   0  0  0  0  0  0  0  0  0  0  0  0
    4.8015    5.1195    0.4915 H   0  0  0  0  0  0  0  0  0  0  0  0
    7.2550    5.1029    0.6088 H   0  0  0  0  0  0  0  0  0  0  0  0
    8.4762    2.9372    0.7672 H   0  0  0  0  0  0  0  0  0  0  0  0
    7.2258    0.7872    0.7096 H   0  0  0  0  0  0  0  0  0  0  0  0
    4.7832    0.8087    0.4515 H   0  0  0  0  0  0  0  0  0  0  0  0
  1  2  1  0  0  0  0
  1 16  1  0  0  0  0
  1 17  1  0  0  0  0
  1 18  1  0  0  0  0
  2  5  1  0  0  0  0
  2  3  1  0  0  0  0
  2  6  1  0  0  0  0
  3  4  1  0  0  0  0
  3 19  1  0  0  0  0
  3 20  1  0  0  0  0
  4 21  1  0  0  0  0
  5 22  1  0  0  0  0
  5 23  1  0  0  0  0
  5 24  1  0  0  0  0
  6  7  1  0  0  0  0
  6 25  1  0  0  0  0
  7  8  1  0  0  0  0
  7 26  1  0  0  0  0
  7 27  1  0  0  0  0
  8  9  1  0  0  0  0
  8 10  1  0  0  0  0
  8 28  1  0  0  0  0
  9 29  1  0  0  0  0
 10 11  2  0  0  0  0
 11 12  1  0  0  0  0
 11 30  1  0  0  0  0
 12 13  2  0  0  0  0
 12 31  1  0  0  0  0
 13 14  1  0  0  0  0
 13 32  1  0  0  0  0
 14 15  2  0  0  0  0
 14 33  1  0  0  0  0
 15 10  1  0  0  0  0
 15 34  1  0  0  0  0
M  END
>  <DRUGBANK_ID>
DB15902

>  <COMMON_NAME>
Fepradinol

>  <CAS_NUMBER>
36981-91-6

>  <UNII>
860MHI4WBA

>  <SYNONYMS>
Fepradinol; Fepradinolum

$$$$
