
 OpenBabel10282417203D

 33 35  0  0  0  0  0  0  0  0999 V2000
    2.5012   -0.6258   -0.3185 C   0  0  0  0  0  0  0  0  0  0  0  0
    2.4490    0.7231    0.3809 C   0  0  0  0  0  0  0  0  0  0  0  0
   -2.4429   -0.7778    0.0440 C   0  0  0  0  0  0  0  0  0  0  0  0
    1.2683   -1.4411    0.0386 C   0  0  0  0  0  0  0  0  0  0  0  0
   -1.2120   -1.4115    0.0394 C   0  0  0  0  0  0  0  0  0  0  0  0
    1.2235    1.5311   -0.0628 C   0  0  0  0  0  0  0  0  0  0  0  0
   -2.5043    0.6122    0.0117 C   0  0  0  0  0  0  0  0  0  0  0  0
   -4.2700    4.8641   -0.7178 C   0  0  0  0  0  0  0  0  0  0  0  0
   -4.7977    3.9875    0.4246 C   0  0  0  0  0  0  0  0  0  0  0  0
   -0.0275   -0.6646   -0.0067 C   0  0  0  0  0  0  0  0  0  0  0  0
   -0.0797    0.7545   -0.0063 C   0  0  0  0  0  0  0  0  0  0  0  0
   -1.3452    1.4112   -0.0127 C   0  0  0  0  0  0  0  0  0  0  0  0
   -2.6213    3.5230   -0.0918 C   0  0  0  0  0  0  0  0  0  0  0  0
   -2.9070    4.3355   -1.0697 N   0  0  0  0  0  0  0  0  0  0  0  0
   -3.5730    3.3926    0.8654 N   0  0  0  0  0  0  0  0  0  0  0  0
   -1.4466    2.8378    0.0676 N   0  0  0  0  0  0  0  0  0  0  0  0
    2.5661   -0.4889   -1.4049 H   0  0  0  0  0  0  0  0  0  0  0  0
    3.3989   -1.1783   -0.0140 H   0  0  0  0  0  0  0  0  0  0  0  0
    2.4111    0.5634    1.4659 H   0  0  0  0  0  0  0  0  0  0  0  0
    3.3659    1.2856    0.1716 H   0  0  0  0  0  0  0  0  0  0  0  0
   -3.3585   -1.3606    0.0816 H   0  0  0  0  0  0  0  0  0  0  0  0
    1.2097   -2.3032   -0.6377 H   0  0  0  0  0  0  0  0  0  0  0  0
    1.3839   -1.8327    1.0575 H   0  0  0  0  0  0  0  0  0  0  0  0
   -1.1735   -2.4978    0.0801 H   0  0  0  0  0  0  0  0  0  0  0  0
    1.1628    2.4181    0.5768 H   0  0  0  0  0  0  0  0  0  0  0  0
    1.3747    1.8715   -1.0956 H   0  0  0  0  0  0  0  0  0  0  0  0
   -3.4919    1.0619   -0.0058 H   0  0  0  0  0  0  0  0  0  0  0  0
   -4.9438    4.8488   -1.5811 H   0  0  0  0  0  0  0  0  0  0  0  0
   -4.1576    5.9021   -0.3852 H   0  0  0  0  0  0  0  0  0  0  0  0
   -5.3033    4.5672    1.2016 H   0  0  0  0  0  0  0  0  0  0  0  0
   -5.4799    3.2181    0.0454 H   0  0  0  0  0  0  0  0  0  0  0  0
   -3.4411    2.8875    1.7242 H   0  0  0  0  0  0  0  0  0  0  0  0
   -0.7109    3.2590   -0.4876 H   0  0  0  0  0  0  0  0  0  0  0  0
  1 17  1  0  0  0  0
  1 18  1  0  0  0  0
  2  1  1  0  0  0  0
  2 19  1  0  0  0  0
  2 20  1  0  0  0  0
  3 21  1  0  0  0  0
  4  1  1  0  0  0  0
  4 22  1  0  0  0  0
  4 23  1  0  0  0  0
  5  3  2  0  0  0  0
  5 24  1  0  0  0  0
  6  2  1  0  0  0  0
  6 25  1  0  0  0  0
  6 26  1  0  0  0  0
  7  3  1  0  0  0  0
  7 27  1  0  0  0  0
  8 28  1  0  0  0  0
  8 29  1  0  0  0  0
  9  8  1  0  0  0  0
  9 30  1  0  0  0  0
  9 31  1  0  0  0  0
 10  4  1  0  0  0  0
 10  5  1  0  0  0  0
 11  6  1  0  0  0  0
 11 10  2  0  0  0  0
 12  7  2  0  0  0  0
 12 11  1  0  0  0  0
 14  8  1  0  0  0  0
 14 13  2  0  0  0  0
 15  9  1  0  0  0  0
 15 13  1  0  0  0  0
 15 32  1  0  0  0  0
 16 12  1  0  0  0  0
 16 13  1  0  0  0  0
 16 33  1  0  0  0  0
M  END
>  <DRUGBANK_ID>
DB13064

>  <COMMON_NAME>
Tramazoline

>  <CAS_NUMBER>
1082-57-1

>  <UNII>
SLE31693IV

>  <SYNONYMS>
Tramazolina; Tramazoline

$$$$
