BNI
 OpenBabel10282417133D

 45 47  0  0  0  0  0  0  0  0999 V2000
   -5.2979    2.3444    0.6985 C   0  0  0  0  0  0  0  0  0  0  0  0
   -3.9928    1.7284    0.2034 C   0  0  0  0  0  0  0  0  0  0  0  0
   -3.3412    0.8627    1.2655 C   0  0  0  0  0  0  0  0  0  0  0  0
   -4.1995   -0.3493    1.6058 C   0  0  0  0  0  0  0  0  0  0  0  0
   -4.5916   -1.1258    0.3409 C   0  0  0  0  0  0  0  0  0  0  0  0
   -3.3371   -1.7749   -0.2269 C   0  0  1  0  0  0  0  0  0  0  0  0
   -1.9723   -3.3533   -1.7264 C   0  0  0  0  0  0  0  0  0  0  0  0
   -2.9306   -3.0143    0.5763 C   0  0  2  0  0  0  0  0  0  0  0  0
   -2.1257   -3.9649   -0.3303 C   0  0  1  0  0  0  0  0  0  0  0  0
   -4.0892   -5.0329    0.3760 C   0  0  0  0  0  0  0  0  0  0  0  0
   -6.2676    1.6641    1.0335 O   0  0  0  0  0  0  0  0  0  0  0  0
   -4.9944   -5.8491    0.4590 O   0  0  0  0  0  0  0  0  0  0  0  0
   -2.9243   -5.1747   -0.3346 N   0  0  0  0  0  0  0  0  0  0  0  0
   -4.0585   -3.8197    1.0030 N   0  0  0  0  0  0  0  0  0  0  0  0
   -3.4210   -2.2919   -1.9496 S   0  0  0  0  0  0  0  0  0  0  0  0
   -5.3530    3.6966    0.8669 N   0  0  0  0  0  0  0  0  0  0  0  0
   -4.4645    4.6410    0.3539 C   0  0  0  0  0  0  0  0  0  0  0  0
   -3.8996    4.4750   -0.9169 C   0  0  0  0  0  0  0  0  0  0  0  0
   -2.9545    5.3687   -1.3973 C   0  0  0  0  0  0  0  0  0  0  0  0
   -2.6376    6.4886   -0.6292 C   0  0  0  0  0  0  0  0  0  0  0  0
   -3.2727    6.7181    0.6023 C   0  0  0  0  0  0  0  0  0  0  0  0
   -4.1631    5.7688    1.1115 C   0  0  0  0  0  0  0  0  0  0  0  0
   -1.5991    7.4055   -1.1052 N   0  3  0  0  0  0  0  0  0  0  0  0
   -1.3364    8.3904   -0.4025 O   0  0  0  0  0  0  0  0  0  0  0  0
   -1.0312    7.1268   -2.1712 O   0  5  0  0  0  0  0  0  0  0  0  0
   -2.4961   -1.0748   -0.2323 H   0  0  0  0  0  0  0  0  0  0  0  0
   -2.3795   -2.7266    1.4782 H   0  0  0  0  0  0  0  0  0  0  0  0
   -1.1508   -4.2103    0.1018 H   0  0  0  0  0  0  0  0  0  0  0  0
   -4.1940    1.2139   -0.7410 H   0  0  0  0  0  0  0  0  0  0  0  0
   -3.2212    2.4520   -0.0353 H   0  0  0  0  0  0  0  0  0  0  0  0
   -2.3533    0.5587    0.8960 H   0  0  0  0  0  0  0  0  0  0  0  0
   -3.1343    1.4500    2.1663 H   0  0  0  0  0  0  0  0  0  0  0  0
   -3.6531   -0.9839    2.3121 H   0  0  0  0  0  0  0  0  0  0  0  0
   -5.1000   -0.0391    2.1403 H   0  0  0  0  0  0  0  0  0  0  0  0
   -5.3664   -1.8510    0.5969 H   0  0  0  0  0  0  0  0  0  0  0  0
   -5.0910   -0.4985   -0.4015 H   0  0  0  0  0  0  0  0  0  0  0  0
   -1.0761   -2.7225   -1.7585 H   0  0  0  0  0  0  0  0  0  0  0  0
   -1.9146   -4.0997   -2.5199 H   0  0  0  0  0  0  0  0  0  0  0  0
   -2.7211   -6.0357   -0.8206 H   0  0  0  0  0  0  0  0  0  0  0  0
   -4.8719   -3.5064    1.5184 H   0  0  0  0  0  0  0  0  0  0  0  0
   -6.1518    4.0097    1.4072 H   0  0  0  0  0  0  0  0  0  0  0  0
   -4.1735    3.6304   -1.5464 H   0  0  0  0  0  0  0  0  0  0  0  0
   -2.4906    5.1725   -2.3608 H   0  0  0  0  0  0  0  0  0  0  0  0
   -3.0725    7.6177    1.1791 H   0  0  0  0  0  0  0  0  0  0  0  0
   -4.5594    5.8868    2.1183 H   0  0  0  0  0  0  0  0  0  0  0  0
  1  2  1  0  0  0  0
  1 11  2  0  0  0  0
  1 16  1  0  0  0  0
  2  3  1  0  0  0  0
  2 29  1  0  0  0  0
  2 30  1  0  0  0  0
  3  4  1  0  0  0  0
  3 31  1  0  0  0  0
  3 32  1  0  0  0  0
  4  5  1  0  0  0  0
  4 33  1  0  0  0  0
  4 34  1  0  0  0  0
  5 35  1  0  0  0  0
  5 36  1  0  0  0  0
  6  8  1  0  0  0  0
  6 15  1  0  0  0  0
  6 26  1  1  0  0  0
  6  5  1  0  0  0  0
  7  9  1  0  0  0  0
  7 15  1  0  0  0  0
  7 37  1  0  0  0  0
  7 38  1  0  0  0  0
  8  9  1  0  0  0  0
  8 14  1  0  0  0  0
  8 27  1  1  0  0  0
  9 13  1  0  0  0  0
  9 28  1  1  0  0  0
 10 12  2  0  0  0  0
 10 13  1  0  0  0  0
 10 14  1  0  0  0  0
 13 39  1  0  0  0  0
 14 40  1  0  0  0  0
 16 17  1  0  0  0  0
 16 41  1  0  0  0  0
 17 18  2  0  0  0  0
 17 22  1  0  0  0  0
 18 19  1  0  0  0  0
 18 42  1  0  0  0  0
 19 20  2  0  0  0  0
 19 43  1  0  0  0  0
 20 21  1  0  0  0  0
 20 23  1  0  0  0  0
 21 22  2  0  0  0  0
 21 44  1  0  0  0  0
 22 45  1  0  0  0  0
 23 24  2  0  0  0  0
 23 25  1  0  0  0  0
M  CHG  2  23   1  25  -1
M  END
>  <DRUGBANK_ID>
DB03549

>  <SECONDARY_ACCESSION_NUMBERS>
EXPT00731

>  <COMMON_NAME>
Biotinyl P-Nitroaniline

$$$$
