
 OpenBabel10282417153D

 51 53  0  0  0  0  0  0  0  0999 V2000
    0.0516    1.0944   -0.2651 C   0  0  0  0  0  0  0  0  0  0  0  0
   -1.0777    0.4202   -0.6343 C   0  0  0  0  0  0  0  0  0  0  0  0
   -1.1075   -0.9971   -0.4324 C   0  0  0  0  0  0  0  0  0  0  0  0
    0.0517   -1.7447   -0.1584 C   0  0  0  0  0  0  0  0  0  0  0  0
    1.2509   -1.0472   -0.0670 C   0  0  0  0  0  0  0  0  0  0  0  0
    1.2640    0.3687   -0.1156 C   0  0  0  0  0  0  0  0  0  0  0  0
   -0.0662    2.4514    0.1221 N   0  0  0  0  0  0  0  0  0  0  0  0
   -1.2317    3.1695    0.7215 C   0  0  0  0  0  0  0  0  0  0  0  0
   -1.0272    4.3912    0.7811 O   0  0  0  0  0  0  0  0  0  0  0  0
   -2.7611    2.4872    1.0371 C   0  0  0  0  0  0  0  0  0  0  0  0
   -3.0248    1.2786    1.6291 C   0  0  0  0  0  0  0  0  0  0  0  0
   -4.3548    0.6650    1.3434 C   0  0  0  0  0  0  0  0  0  0  0  0
   -5.1379    1.3389    0.4187 C   0  0  0  0  0  0  0  0  0  0  0  0
   -4.5272    2.9348    0.2380 S   0  0  0  0  0  0  0  0  0  0  0  0
   -1.7183    0.5913    2.5380 S   0  0  0  0  0  0  0  0  0  0  0  0
   -2.2172    0.8971    4.0616 N   0  0  0  0  0  0  0  0  0  0  0  0
   -2.4621   -0.3072    4.6743 C   0  0  0  0  0  0  0  0  0  0  0  0
   -1.6070   -1.3556    4.6474 O   0  0  0  0  0  0  0  0  0  0  0  0
   -2.0950   -2.3374    5.4640 N   0  0  0  0  0  0  0  0  0  0  0  0
   -3.2604   -1.8594    5.9084 C   0  0  0  0  0  0  0  0  0  0  0  0
   -3.5904   -0.5988    5.3697 C   0  0  0  0  0  0  0  0  0  0  0  0
    2.5821    1.0695    0.0109 C   0  0  0  0  0  0  0  0  0  0  0  0
   -0.0051   -3.2434   -0.0191 C   0  0  0  0  0  0  0  0  0  0  0  0
   -4.7950    0.2339    5.5372 C   0  0  0  0  0  0  0  0  0  0  0  0
   -4.0198   -2.6201    6.8955 C   0  0  0  0  0  0  0  0  0  0  0  0
   -1.6858   -0.7731    2.1779 O   0  0  0  0  0  0  0  0  0  0  0  0
   -0.5620    1.4957    2.4366 O   0  0  0  0  0  0  0  0  0  0  0  0
   -2.2571    1.2060   -1.1707 C   0  0  0  0  0  0  0  0  0  0  0  0
   -2.3005    2.9359   -1.4670 C   0  0  0  0  0  0  0  0  0  0  0  0
   -3.2363    0.4647   -1.3070 O   0  0  0  0  0  0  0  0  0  0  0  0
   -2.0619   -1.5257   -0.3431 H   0  0  0  0  0  0  0  0  0  0  0  0
    2.1762   -1.6066    0.0766 H   0  0  0  0  0  0  0  0  0  0  0  0
    0.8018    2.9842    0.0546 H   0  0  0  0  0  0  0  0  0  0  0  0
   -4.6626   -0.3301    1.6351 H   0  0  0  0  0  0  0  0  0  0  0  0
   -6.0204    0.9918   -0.1512 H   0  0  0  0  0  0  0  0  0  0  0  0
   -2.7597    1.7429    4.1667 H   0  0  0  0  0  0  0  0  0  0  0  0
    2.7047    1.7145   -0.8641 H   0  0  0  0  0  0  0  0  0  0  0  0
    2.6244    1.6656    0.9252 H   0  0  0  0  0  0  0  0  0  0  0  0
    3.4179    0.3607    0.0162 H   0  0  0  0  0  0  0  0  0  0  0  0
   -0.5296   -3.5683    0.8877 H   0  0  0  0  0  0  0  0  0  0  0  0
   -0.5191   -3.6611   -0.8913 H   0  0  0  0  0  0  0  0  0  0  0  0
    1.0012   -3.6787    0.0008 H   0  0  0  0  0  0  0  0  0  0  0  0
   -4.5225    1.2294    5.9017 H   0  0  0  0  0  0  0  0  0  0  0  0
   -5.3309    0.3581    4.5872 H   0  0  0  0  0  0  0  0  0  0  0  0
   -5.4771   -0.2251    6.2531 H   0  0  0  0  0  0  0  0  0  0  0  0
   -4.1670   -1.9979    7.7828 H   0  0  0  0  0  0  0  0  0  0  0  0
   -4.9885   -2.8900    6.4742 H   0  0  0  0  0  0  0  0  0  0  0  0
   -3.4782   -3.5227    7.1832 H   0  0  0  0  0  0  0  0  0  0  0  0
   -2.9369    3.1505   -2.3035 H   0  0  0  0  0  0  0  0  0  0  0  0
   -2.6994    3.7060   -0.7311 H   0  0  0  0  0  0  0  0  0  0  0  0
   -1.3335    3.4149   -1.5762 H   0  0  0  0  0  0  0  0  0  0  0  0
  1  2  2  0  0  0  0
  1  7  1  0  0  0  0
  2  3  1  0  0  0  0
  2 28  1  0  0  0  0
  3  4  2  0  0  0  0
  3 31  1  0  0  0  0
  4  5  1  0  0  0  0
  4 23  1  0  0  0  0
  5  6  2  0  0  0  0
  5 32  1  0  0  0  0
  6  1  1  0  0  0  0
  6 22  1  0  0  0  0
  7  8  1  0  0  0  0
  7 33  1  0  0  0  0
  8  9  2  0  0  0  0
  8 10  1  0  0  0  0
 10 11  2  0  0  0  0
 11 12  1  0  0  0  0
 11 15  1  0  0  0  0
 12 13  2  0  0  0  0
 12 34  1  0  0  0  0
 13 14  1  0  0  0  0
 13 35  1  0  0  0  0
 14 10  1  0  0  0  0
 15 16  1  0  0  0  0
 15 26  2  0  0  0  0
 15 27  2  0  0  0  0
 16 17  1  0  0  0  0
 16 36  1  0  0  0  0
 17 18  1  0  0  0  0
 18 19  1  0  0  0  0
 19 20  2  0  0  0  0
 20 21  1  0  0  0  0
 20 25  1  0  0  0  0
 21 17  2  0  0  0  0
 21 24  1  0  0  0  0
 22 37  1  0  0  0  0
 22 38  1  0  0  0  0
 22 39  1  0  0  0  0
 23 40  1  0  0  0  0
 23 41  1  0  0  0  0
 23 42  1  0  0  0  0
 24 43  1  0  0  0  0
 24 44  1  0  0  0  0
 24 45  1  0  0  0  0
 25 46  1  0  0  0  0
 25 47  1  0  0  0  0
 25 48  1  0  0  0  0
 28 29  1  0  0  0  0
 28 30  2  0  0  0  0
 29 49  1  0  0  0  0
 29 50  1  0  0  0  0
 29 51  1  0  0  0  0
M  END
>  <DRUGBANK_ID>
DB05407

>  <COMMON_NAME>
TBC-3711

>  <CAS_NUMBER>
349453-49-2

>  <UNII>
BDP0YZR82B

$$$$
