
 OpenBabel10282417153D

 30 31  0  0  1  0  0  0  0  0999 V2000
   -1.0832   -0.0819   -0.0003 C   0  0  0  0  0  0  0  0  0  0  0  0
   -0.3317   -1.1592   -0.0157 N   0  0  0  0  0  0  0  0  0  0  0  0
    0.9532   -0.6525   -0.0169 C   0  0  0  0  0  0  0  0  0  0  0  0
    1.0085    0.6957   -0.0269 N   0  0  0  0  0  0  0  0  0  0  0  0
   -0.3052    1.0350   -0.0194 N   0  0  0  0  0  0  0  0  0  0  0  0
   -0.7196    2.4334   -0.0015 C   0  0  1  0  0  0  0  0  0  0  0  0
   -1.5666    2.8832   -1.1957 C   0  0  1  0  0  0  0  0  0  0  0  0
   -2.4226    3.9912   -0.5935 C   0  0  1  0  0  0  0  0  0  0  0  0
   -2.6097    3.5585    0.8597 C   0  0  2  0  0  0  0  0  0  0  0  0
   -1.4875    2.7094    1.1946 O   0  0  0  0  0  0  0  0  0  0  0  0
   -3.9358    2.8197    1.0981 C   0  0  0  0  0  0  0  0  0  0  0  0
   -3.9086    1.4812    0.6189 O   0  0  0  0  0  0  0  0  0  0  0  0
   -1.7310    5.2476   -0.6721 O   0  0  0  0  0  0  0  0  0  0  0  0
   -0.7989    3.3470   -2.3029 O   0  0  0  0  0  0  0  0  0  0  0  0
    2.1579   -1.5044   -0.0147 C   0  0  0  0  0  0  0  0  0  0  0  0
    3.3519   -0.9936   -0.0125 N   0  0  0  0  0  0  0  0  0  0  0  0
    1.9576   -2.8403   -0.0187 N   0  0  0  0  0  0  0  0  0  0  0  0
   -2.1613   -0.0670    0.0279 H   0  0  0  0  0  0  0  0  0  0  0  0
    0.1975    3.0330    0.0541 H   0  0  0  0  0  0  0  0  0  0  0  0
   -2.2099    2.0767   -1.5594 H   0  0  0  0  0  0  0  0  0  0  0  0
   -3.3730    4.1291   -1.1200 H   0  0  0  0  0  0  0  0  0  0  0  0
   -2.5765    4.4279    1.5271 H   0  0  0  0  0  0  0  0  0  0  0  0
   -4.1462    2.7723    2.1717 H   0  0  0  0  0  0  0  0  0  0  0  0
   -4.7719    3.3468    0.6248 H   0  0  0  0  0  0  0  0  0  0  0  0
   -3.9010    1.4860   -0.3499 H   0  0  0  0  0  0  0  0  0  0  0  0
   -0.9331    5.2254   -0.1162 H   0  0  0  0  0  0  0  0  0  0  0  0
   -0.3985    4.2045   -2.0606 H   0  0  0  0  0  0  0  0  0  0  0  0
    3.2387    0.0293   -0.0113 H   0  0  0  0  0  0  0  0  0  0  0  0
    1.0255   -3.2359   -0.0037 H   0  0  0  0  0  0  0  0  0  0  0  0
    2.7686   -3.4424   -0.0126 H   0  0  0  0  0  0  0  0  0  0  0  0
  1  2  2  0  0  0  0
  1  5  1  0  0  0  0
  1 18  1  0  0  0  0
  2  3  1  0  0  0  0
  3  4  2  0  0  0  0
  3 15  1  0  0  0  0
  4  5  1  0  0  0  0
  6  5  1  0  0  0  0
  6  7  1  0  0  0  0
  6 10  1  0  0  0  0
  6 19  1  1  0  0  0
  7  8  1  0  0  0  0
  7 14  1  0  0  0  0
  7 20  1  6  0  0  0
  8  9  1  0  0  0  0
  8 13  1  0  0  0  0
  8 21  1  6  0  0  0
  9 10  1  0  0  0  0
  9 22  1  1  0  0  0
  9 11  1  0  0  0  0
 11 12  1  0  0  0  0
 11 23  1  0  0  0  0
 11 24  1  0  0  0  0
 12 25  1  0  0  0  0
 13 26  1  0  0  0  0
 14 27  1  0  0  0  0
 15 16  2  0  0  0  0
 15 17  1  0  0  0  0
 16 28  1  0  0  0  0
 17 29  1  0  0  0  0
 17 30  1  0  0  0  0
M  END
>  <DRUGBANK_ID>
DB06408

>  <COMMON_NAME>
Taribavirin

>  <CAS_NUMBER>
119567-79-2

>  <UNII>
R3B1994K2E

>  <SYNONYMS>
Ribavirin amidine; Taribavirin; Viramidine

$$$$
