
 OpenBabel10282417143D

 51 53  0  0  1  0  0  0  0  0999 V2000
    1.0464    0.0136    0.0289 O   0  0  0  0  0  0  0  0  0  0  0  0
    2.9173    1.1058   -1.9857 O   0  0  0  0  0  0  0  0  0  0  0  0
    2.8784   -0.9935    0.7724 O   0  0  0  0  0  0  0  0  0  0  0  0
   -0.2468    3.5246   -0.7267 N   0  3  0  0  0  0  0  0  0  0  0  0
    0.4359    2.3657   -0.0853 C   0  0  0  0  0  0  0  0  0  0  0  0
   -1.7067    3.2720   -0.6193 C   0  0  0  0  0  0  0  0  0  0  0  0
    0.2428    0.9920   -0.6835 C   0  0  3  0  0  0  0  0  0  0  0  0
   -2.0363    1.8980   -1.2009 C   0  0  0  0  0  0  0  0  0  0  0  0
   -1.2542    0.7412   -0.5410 C   0  0  0  0  0  0  0  0  0  0  0  0
    0.0926    4.7949    0.0493 C   0  0  0  0  0  0  0  0  0  0  0  0
    0.2739    3.7180   -2.1649 C   0  0  0  0  0  0  0  0  0  0  0  0
    2.4265   -0.0777    0.1097 C   0  0  0  0  0  0  0  0  0  0  0  0
    3.3587    1.0191   -0.6189 C   0  0  0  0  0  0  0  0  0  0  0  0
    3.2682    2.3989    0.0831 C   0  0  0  0  0  0  0  0  0  0  0  0
    4.8694    0.7299   -0.6052 C   0  0  0  0  0  0  0  0  0  0  0  0
    3.0026    2.4997    1.4609 C   0  0  0  0  0  0  0  0  0  0  0  0
    5.7973    1.8071   -0.4889 C   0  0  0  0  0  0  0  0  0  0  0  0
    3.4088    3.5913   -0.6867 C   0  0  0  0  0  0  0  0  0  0  0  0
    5.3785   -0.5569   -0.5452 C   0  0  0  0  0  0  0  0  0  0  0  0
    2.8356    3.7546    2.0373 C   0  0  0  0  0  0  0  0  0  0  0  0
    7.1182    1.6331   -0.1511 C   0  0  0  0  0  0  0  0  0  0  0  0
    3.3641    4.8361   -0.0759 C   0  0  0  0  0  0  0  0  0  0  0  0
    6.7105   -0.7381   -0.1762 C   0  0  0  0  0  0  0  0  0  0  0  0
    3.0437    4.9127    1.2819 C   0  0  0  0  0  0  0  0  0  0  0  0
    7.5736    0.3466    0.0128 C   0  0  0  0  0  0  0  0  0  0  0  0
    3.2457    0.2928   -2.4220 H   0  0  0  0  0  0  0  0  0  0  0  0
    1.3983    2.5947   -0.3732 H   0  0  0  0  0  0  0  0  0  0  0  0
    0.3190    2.3804    1.0071 H   0  0  0  0  0  0  0  0  0  0  0  0
   -1.9472    3.3083    0.4515 H   0  0  0  0  0  0  0  0  0  0  0  0
   -2.2024    4.0982   -1.1322 H   0  0  0  0  0  0  0  0  0  0  0  0
    0.5220    0.9264   -1.7369 H   0  0  0  0  0  0  0  0  0  0  0  0
   -1.8130    1.9023   -2.2737 H   0  0  0  0  0  0  0  0  0  0  0  0
   -3.1077    1.7365   -1.0884 H   0  0  0  0  0  0  0  0  0  0  0  0
   -1.5240   -0.2188   -0.9894 H   0  0  0  0  0  0  0  0  0  0  0  0
   -1.5143    0.6728    0.5242 H   0  0  0  0  0  0  0  0  0  0  0  0
   -0.5054    5.6234   -0.3254 H   0  0  0  0  0  0  0  0  0  0  0  0
   -0.0421    4.6294    1.1233 H   0  0  0  0  0  0  0  0  0  0  0  0
    1.1124    5.0459   -0.1741 H   0  0  0  0  0  0  0  0  0  0  0  0
    0.1074    2.8115   -2.7469 H   0  0  0  0  0  0  0  0  0  0  0  0
   -0.2247    4.5826   -2.5980 H   0  0  0  0  0  0  0  0  0  0  0  0
    1.3495    3.9092   -2.1424 H   0  0  0  0  0  0  0  0  0  0  0  0
    2.8118    1.6106    2.0617 H   0  0  0  0  0  0  0  0  0  0  0  0
    5.5195    2.8522   -0.5501 H   0  0  0  0  0  0  0  0  0  0  0  0
    3.5263    3.5244   -1.7718 H   0  0  0  0  0  0  0  0  0  0  0  0
    4.7454   -1.4291   -0.6842 H   0  0  0  0  0  0  0  0  0  0  0  0
    2.5028    3.8263    3.0702 H   0  0  0  0  0  0  0  0  0  0  0  0
    7.7365    2.5089    0.0256 H   0  0  0  0  0  0  0  0  0  0  0  0
    3.4385    5.7375   -0.6818 H   0  0  0  0  0  0  0  0  0  0  0  0
    7.0693   -1.7429    0.0175 H   0  0  0  0  0  0  0  0  0  0  0  0
    2.8510    5.8853    1.7289 H   0  0  0  0  0  0  0  0  0  0  0  0
    8.6079    0.1915    0.2905 H   0  0  0  0  0  0  0  0  0  0  0  0
  1  7  1  0  0  0  0
  1 12  1  0  0  0  0
  2 13  1  0  0  0  0
  2 26  1  0  0  0  0
  3 12  2  0  0  0  0
  4  5  1  0  0  0  0
  4  6  1  0  0  0  0
  4 10  1  0  0  0  0
  4 11  1  0  0  0  0
  5  7  1  0  0  0  0
  5 27  1  0  0  0  0
  5 28  1  0  0  0  0
  6  8  1  0  0  0  0
  6 29  1  0  0  0  0
  6 30  1  0  0  0  0
  7  9  1  0  0  0  0
  7 31  1  0  0  0  0
  8  9  1  0  0  0  0
  8 32  1  0  0  0  0
  8 33  1  0  0  0  0
  9 34  1  0  0  0  0
  9 35  1  0  0  0  0
 10 36  1  0  0  0  0
 10 37  1  0  0  0  0
 10 38  1  0  0  0  0
 11 39  1  0  0  0  0
 11 40  1  0  0  0  0
 11 41  1  0  0  0  0
 12 13  1  0  0  0  0
 13 14  1  0  0  0  0
 13 15  1  0  0  0  0
 14 16  2  0  0  0  0
 14 18  1  0  0  0  0
 15 17  2  0  0  0  0
 15 19  1  0  0  0  0
 16 20  1  0  0  0  0
 16 42  1  0  0  0  0
 17 21  1  0  0  0  0
 17 43  1  0  0  0  0
 18 22  2  0  0  0  0
 18 44  1  0  0  0  0
 19 23  2  0  0  0  0
 19 45  1  0  0  0  0
 20 24  2  0  0  0  0
 20 46  1  0  0  0  0
 21 25  2  0  0  0  0
 21 47  1  0  0  0  0
 22 24  1  0  0  0  0
 22 48  1  0  0  0  0
 23 25  1  0  0  0  0
 23 49  1  0  0  0  0
 24 50  1  0  0  0  0
 25 51  1  0  0  0  0
M  CHG  1   4   1
M  END
>  <DRUGBANK_ID>
DB04843

>  <COMMON_NAME>
Mepenzolate

>  <CAS_NUMBER>
25990-43-6

>  <UNII>
ONW3LB39P7

>  <SYNONYMS>
Mepenzolate; Mepenzolic acid

$$$$
