
 OpenBabel10282417203D

 83 88  0  0  1  0  0  0  0  0999 V2000
   -0.8416    1.2984    5.6933 C   0  0  0  0  0  0  0  0  0  0  0  0
   -0.4113    1.5364    4.2437 C   0  0  1  0  0  0  0  0  0  0  0  0
   -1.1673    2.6175    3.5137 C   0  0  1  0  0  0  0  0  0  0  0  0
   -0.5907    2.9180    2.1164 C   0  0  2  0  0  0  0  0  0  0  0  0
    0.9053    2.9863    2.0336 C   0  0  1  0  0  0  0  0  0  0  0  0
    1.3791    1.6202    2.6068 C   0  0  1  0  0  0  0  0  0  0  0  0
    0.9758    1.4594    3.9894 O   0  0  0  0  0  0  0  0  0  0  0  0
    1.0905    0.5297    1.5851 O   0  0  0  0  0  0  0  0  0  0  0  0
   -0.1773   -0.1294    1.6890 C   0  0  1  0  0  0  0  0  0  0  0  0
   -1.4682    0.5303    1.0299 C   0  0  0  0  0  0  0  0  0  0  0  0
   -2.7820    0.1504    1.6396 C   0  0  0  0  0  0  0  0  0  0  0  0
   -2.5338   -0.9814    2.6448 C   0  0  1  0  0  0  0  0  0  0  0  0
   -1.8671   -2.0125    1.6828 C   0  0  1  0  0  0  0  0  0  0  0  0
   -0.4270   -1.5592    1.1692 C   0  0  0  0  0  0  0  0  0  0  0  0
   -1.9105   -3.4183    2.2186 C   0  0  0  0  0  0  0  0  0  0  0  0
   -3.3480   -3.6195    2.6464 C   0  0  0  0  0  0  0  0  0  0  0  0
   -3.7856   -2.6116    3.7557 C   0  0  2  0  0  0  0  0  0  0  0  0
   -3.8748   -1.1767    3.3398 C   0  0  2  0  0  0  0  0  0  0  0  0
   -4.3319   -0.1139    4.4888 C   0  0  0  0  0  0  0  0  0  0  0  0
   -5.7690   -0.3091    4.8536 C   0  0  0  0  0  0  0  0  0  0  0  0
   -5.9251   -1.6717    5.4298 C   0  0  1  0  0  0  0  0  0  0  0  0
   -5.0904   -2.9657    4.3339 C   0  0  2  0  0  0  0  0  0  0  0  0
   -6.1159   -3.4515    3.4627 C   0  0  0  0  0  0  0  0  0  0  0  0
   -6.6278   -3.3706    5.0012 C   0  0  0  0  0  0  0  0  0  0  0  0
   -5.3021   -2.5963    6.3124 C   0  0  2  0  0  0  0  0  0  0  0  0
   -4.7340   -2.0596    7.8727 C   0  0  0  0  0  0  0  0  0  0  0  0
   -4.0576   -2.8974    8.6989 C   0  0  0  0  0  0  0  0  0  0  0  0
   -3.4254   -2.2184    9.8451 C   0  0  0  0  0  0  0  0  0  0  0  0
   -2.8685   -2.7809   10.8238 O   0  0  0  0  0  0  0  0  0  0  0  0
   -3.5468   -0.9005    9.6879 O   0  0  0  0  0  0  0  0  0  0  0  0
   -4.2040   -0.6533    8.4097 C   0  0  0  0  0  0  0  0  0  0  0  0
   -4.6266   -4.3050    4.9982 O   0  0  0  0  0  0  0  0  0  0  0  0
   -7.2924   -1.7609    6.4782 C   0  0  0  0  0  0  0  0  0  0  0  0
   -1.6818   -1.1264    3.9754 C   0  0  0  0  0  0  0  0  0  0  0  0
   -0.6427   -1.7590    4.1419 O   0  0  0  0  0  0  0  0  0  0  0  0
    1.3313    3.0453    0.6532 O   0  0  0  0  0  0  0  0  0  0  0  0
   -1.4411    3.7148    1.3110 O   0  0  0  0  0  0  0  0  0  0  0  0
   -1.6761    4.9170    1.9734 C   0  0  0  0  0  0  0  0  0  0  0  0
   -2.5524    2.2980    3.4738 O   0  0  0  0  0  0  0  0  0  0  0  0
   -0.7060    2.1869    6.2984 H   0  0  0  0  0  0  0  0  0  0  0  0
   -1.9090    1.0478    5.7748 H   0  0  0  0  0  0  0  0  0  0  0  0
   -0.2915    0.4551    6.1275 H   0  0  0  0  0  0  0  0  0  0  0  0
   -0.8067    0.6766    3.7986 H   0  0  0  0  0  0  0  0  0  0  0  0
   -1.1624    3.4951    4.1369 H   0  0  0  0  0  0  0  0  0  0  0  0
   -0.5103    2.1252    1.4529 H   0  0  0  0  0  0  0  0  0  0  0  0
    1.2188    3.8676    2.5805 H   0  0  0  0  0  0  0  0  0  0  0  0
    2.4710    1.6659    2.6448 H   0  0  0  0  0  0  0  0  0  0  0  0
   -0.0830   -0.3695    2.7187 H   0  0  0  0  0  0  0  0  0  0  0  0
   -1.7836    1.5449    0.8396 H   0  0  0  0  0  0  0  0  0  0  0  0
   -1.3087    0.3440   -0.0376 H   0  0  0  0  0  0  0  0  0  0  0  0
   -3.4447    0.8962    2.0791 H   0  0  0  0  0  0  0  0  0  0  0  0
   -3.4415    0.1114    0.7458 H   0  0  0  0  0  0  0  0  0  0  0  0
   -2.5124   -2.0348    0.7901 H   0  0  0  0  0  0  0  0  0  0  0  0
    0.3355   -2.3061    1.3896 H   0  0  0  0  0  0  0  0  0  0  0  0
   -0.4274   -1.4756    0.0772 H   0  0  0  0  0  0  0  0  0  0  0  0
   -1.2446   -3.7039    3.0442 H   0  0  0  0  0  0  0  0  0  0  0  0
   -1.6017   -4.0381    1.3799 H   0  0  0  0  0  0  0  0  0  0  0  0
   -3.4696   -4.6482    2.9825 H   0  0  0  0  0  0  0  0  0  0  0  0
   -3.9780   -3.4956    1.7607 H   0  0  0  0  0  0  0  0  0  0  0  0
   -3.0511   -2.7299    4.5662 H   0  0  0  0  0  0  0  0  0  0  0  0
   -4.6548   -1.0318    2.5797 H   0  0  0  0  0  0  0  0  0  0  0  0
   -3.8770    0.3172    5.4034 H   0  0  0  0  0  0  0  0  0  0  0  0
   -4.1898    0.7842    3.9380 H   0  0  0  0  0  0  0  0  0  0  0  0
   -6.1993    0.4192    5.5515 H   0  0  0  0  0  0  0  0  0  0  0  0
   -6.3219   -0.1377    3.9165 H   0  0  0  0  0  0  0  0  0  0  0  0
   -7.0411   -3.2773    2.8897 H   0  0  0  0  0  0  0  0  0  0  0  0
   -5.8417   -2.6088    2.7776 H   0  0  0  0  0  0  0  0  0  0  0  0
   -7.2281   -4.2210    5.3276 H   0  0  0  0  0  0  0  0  0  0  0  0
   -7.4745   -2.6839    4.6536 H   0  0  0  0  0  0  0  0  0  0  0  0
   -4.2619   -2.4230    5.9916 H   0  0  0  0  0  0  0  0  0  0  0  0
   -3.8516   -3.9445    8.5790 H   0  0  0  0  0  0  0  0  0  0  0  0
   -4.9615    0.0905    8.6665 H   0  0  0  0  0  0  0  0  0  0  0  0
   -3.3955   -0.1606    7.8425 H   0  0  0  0  0  0  0  0  0  0  0  0
   -4.8342   -5.0320    4.3826 H   0  0  0  0  0  0  0  0  0  0  0  0
   -8.1554   -1.2398    6.0770 H   0  0  0  0  0  0  0  0  0  0  0  0
   -7.6514   -2.8002    6.6855 H   0  0  0  0  0  0  0  0  0  0  0  0
   -7.0472   -1.4724    7.5004 H   0  0  0  0  0  0  0  0  0  0  0  0
   -2.1145   -0.6919    4.8802 H   0  0  0  0  0  0  0  0  0  0  0  0
    1.1562    2.1541    0.2678 H   0  0  0  0  0  0  0  0  0  0  0  0
   -2.2037    4.7383    2.9121 H   0  0  0  0  0  0  0  0  0  0  0  0
   -0.6918    5.3437    2.1451 H   0  0  0  0  0  0  0  0  0  0  0  0
   -2.3019    5.5373    1.3466 H   0  0  0  0  0  0  0  0  0  0  0  0
   -2.5705    1.3397    3.4097 H   0  0  0  0  0  0  0  0  0  0  0  0
  1 40  1  0  0  0  0
  1 41  1  0  0  0  0
  1 42  1  0  0  0  0
  2  1  1  0  0  0  0
  2  3  1  0  0  0  0
  2  7  1  0  0  0  0
  2 43  1  6  0  0  0
  3  4  1  0  0  0  0
  3 39  1  0  0  0  0
  3 44  1  1  0  0  0
  4  5  1  0  0  0  0
  4 37  1  0  0  0  0
  4 45  1  6  0  0  0
  5  6  1  0  0  0  0
  5 36  1  0  0  0  0
  5 46  1  1  0  0  0
  6  7  1  0  0  0  0
  6  8  1  0  0  0  0
  6 47  1  1  0  0  0
  9 10  1  0  0  0  0
  9 14  1  0  0  0  0
  9 48  1  1  0  0  0
  9  8  1  0  0  0  0
 10 11  1  0  0  0  0
 10 49  1  0  0  0  0
 10 50  1  0  0  0  0
 11 12  1  0  0  0  0
 11 51  1  0  0  0  0
 11 52  1  0  0  0  0
 12 13  1  0  0  0  0
 12 18  1  0  0  0  0
 12 34  1  6  0  0  0
 13 14  1  0  0  0  0
 13 15  1  0  0  0  0
 13 53  1  6  0  0  0
 14 54  1  0  0  0  0
 14 55  1  0  0  0  0
 15 16  1  0  0  0  0
 15 56  1  0  0  0  0
 15 57  1  0  0  0  0
 16 58  1  0  0  0  0
 16 59  1  0  0  0  0
 17 16  1  0  0  0  0
 17 18  1  0  0  0  0
 17 22  1  0  0  0  0
 17 60  1  6  0  0  0
 18 19  1  0  0  0  0
 18 61  1  1  0  0  0
 19 20  1  0  0  0  0
 19 62  1  0  0  0  0
 19 63  1  0  0  0  0
 20 21  1  0  0  0  0
 20 64  1  0  0  0  0
 20 65  1  0  0  0  0
 21 22  1  0  0  0  0
 21 25  1  0  0  0  0
 21 33  1  1  0  0  0
 22 23  1  0  0  0  0
 22 32  1  6  0  0  0
 23 24  1  0  0  0  0
 23 66  1  0  0  0  0
 23 67  1  0  0  0  0
 24 25  1  0  0  0  0
 24 68  1  0  0  0  0
 24 69  1  0  0  0  0
 25 26  1  0  0  0  0
 25 70  1  6  0  0  0
 26 27  2  0  0  0  0
 26 31  1  0  0  0  0
 27 28  1  0  0  0  0
 27 71  1  0  0  0  0
 28 29  2  0  0  0  0
 28 30  1  0  0  0  0
 30 31  1  0  0  0  0
 31 72  1  0  0  0  0
 31 73  1  0  0  0  0
 32 74  1  0  0  0  0
 33 75  1  0  0  0  0
 33 76  1  0  0  0  0
 33 77  1  0  0  0  0
 34 35  2  0  0  0  0
 34 78  1  0  0  0  0
 36 79  1  0  0  0  0
 37 38  1  0  0  0  0
 38 80  1  0  0  0  0
 38 81  1  0  0  0  0
 38 82  1  0  0  0  0
 39 83  1  0  0  0  0
M  END
>  <DRUGBANK_ID>
DB13756

>  <COMMON_NAME>
Peruvoside

>  <CAS_NUMBER>
1182-87-2

>  <UNII>
CT36KGC6A6

$$$$
