
 OpenBabel10282417133D

 24 23  0  0  1  0  0  0  0  0999 V2000
    5.1510   -0.8318    0.1022 O   0  0  0  0  0  0  0  0  0  0  0  0
    4.3783    1.7147   -1.0960 O   0  0  0  0  0  0  0  0  0  0  0  0
    2.7000    1.2254    1.9087 O   0  0  0  0  0  0  0  0  0  0  0  0
    7.1213    2.5721   -0.9887 O   0  0  0  0  0  0  0  0  0  0  0  0
    1.8698   -1.6928    0.2762 O   0  0  0  0  0  0  0  0  0  0  0  0
    8.1305   -0.0816    0.9417 O   0  0  0  0  0  0  0  0  0  0  0  0
    2.8524   -1.6497    2.3117 O   0  0  0  0  0  0  0  0  0  0  0  0
    7.6279    1.9096    1.8606 O   0  0  0  0  0  0  0  0  0  0  0  0
    4.6524    0.3085    0.8201 C   0  0  1  0  0  0  0  0  0  0  0  0
    5.1784    1.5735    0.1046 C   0  0  1  0  0  0  0  0  0  0  0  0
    3.1099    0.3014    0.9025 C   0  0  1  0  0  0  0  0  0  0  0  0
    6.6566    1.4011   -0.3123 C   0  0  2  0  0  0  0  0  0  0  0  0
    2.6124   -1.0993    1.2401 C   0  0  0  0  0  0  0  0  0  0  0  0
    7.5152    1.1232    0.9269 C   0  0  0  0  0  0  0  0  0  0  0  0
    4.7497   -0.8145   -0.7857 H   0  0  0  0  0  0  0  0  0  0  0  0
    4.6437    2.5157   -1.5761 H   0  0  0  0  0  0  0  0  0  0  0  0
    3.0878    0.8983    2.7456 H   0  0  0  0  0  0  0  0  0  0  0  0
    6.5404    2.7542   -1.7416 H   0  0  0  0  0  0  0  0  0  0  0  0
    1.6480   -1.1365   -0.4956 H   0  0  0  0  0  0  0  0  0  0  0  0
    7.9245   -0.6776    0.1959 H   0  0  0  0  0  0  0  0  0  0  0  0
    5.0730    0.2728    1.8335 H   0  0  0  0  0  0  0  0  0  0  0  0
    5.0388    2.4670    0.7307 H   0  0  0  0  0  0  0  0  0  0  0  0
    2.6395    0.6078   -0.0382 H   0  0  0  0  0  0  0  0  0  0  0  0
    6.7498    0.5831   -1.0350 H   0  0  0  0  0  0  0  0  0  0  0  0
  1 15  1  0  0  0  0
  2 16  1  0  0  0  0
  3 17  1  0  0  0  0
  4 18  1  0  0  0  0
  5 13  1  0  0  0  0
  5 19  1  0  0  0  0
  6 14  1  0  0  0  0
  6 20  1  0  0  0  0
  7 13  2  0  0  0  0
  8 14  2  0  0  0  0
  9  1  1  0  0  0  0
  9 21  1  1  0  0  0
 10 12  1  0  0  0  0
 10 22  1  1  0  0  0
 10  9  1  0  0  0  0
 10  2  1  0  0  0  0
 11 13  1  0  0  0  0
 11 23  1  6  0  0  0
 11  9  1  0  0  0  0
 11  3  1  0  0  0  0
 12  4  1  0  0  0  0
 12 14  1  0  0  0  0
 12 24  1  6  0  0  0
M  END
>  <DRUGBANK_ID>
DB03603

>  <SECONDARY_ACCESSION_NUMBERS>
EXPT01594

>  <COMMON_NAME>
Glucaric acid

>  <CAS_NUMBER>
87-73-0

>  <UNII>
QLZ991V4A2

$$$$
