
 OpenBabel10282417153D

 49 52  0  0  0  0  0  0  0  0999 V2000
   -0.9581   -0.3011    0.7706 S   0  0  0  0  0  0  0  0  0  0  0  0
    0.0204    1.0790    0.4313 C   0  0  0  0  0  0  0  0  0  0  0  0
    0.4584   -1.3669    0.7451 C   0  0  0  0  0  0  0  0  0  0  0  0
    1.3488    0.6941    0.4250 C   0  0  0  0  0  0  0  0  0  0  0  0
    1.5875   -0.6629    0.6770 N   0  0  0  0  0  0  0  0  0  0  0  0
    1.8984   -5.6385   -0.9370 C   0  0  0  0  0  0  0  0  0  0  0  0
    1.0235   -4.8826   -0.0244 N   0  0  0  0  0  0  0  0  0  0  0  0
    3.3680   -5.3445   -0.7276 C   0  0  0  0  0  0  0  0  0  0  0  0
    1.2408   -3.5687    0.3661 C   0  0  0  0  0  0  0  0  0  0  0  0
    3.4875   -3.8811   -0.5610 C   0  0  0  0  0  0  0  0  0  0  0  0
    2.5636   -3.2915    0.3882 N   0  0  0  0  0  0  0  0  0  0  0  0
    0.2559   -2.7311    0.6810 N   0  0  0  0  0  0  0  0  0  0  0  0
    2.4289    1.6362    0.1240 C   0  0  0  0  0  0  0  0  0  0  0  0
    4.3339    2.4808   -1.1450 C   0  0  0  0  0  0  0  0  0  0  0  0
    4.5817    3.4546   -0.1860 C   0  0  0  0  0  0  0  0  0  0  0  0
    3.2141    1.6286   -1.0453 C   0  0  0  0  0  0  0  0  0  0  0  0
    3.7196    3.5702    0.8965 C   0  0  0  0  0  0  0  0  0  0  0  0
    2.6870    2.6421    1.0728 C   0  0  0  0  0  0  0  0  0  0  0  0
    3.0118    0.9612   -2.2355 O   0  0  0  0  0  0  0  0  0  0  0  0
    2.0547   -0.0066   -2.3456 C   0  0  0  0  0  0  0  0  0  0  0  0
    0.0381   -1.9990   -2.4149 C   0  0  0  0  0  0  0  0  0  0  0  0
   -0.2873   -0.6563   -2.5007 C   0  0  0  0  0  0  0  0  0  0  0  0
    1.4209   -2.3129   -2.4380 C   0  0  0  0  0  0  0  0  0  0  0  0
    0.7131    0.3305   -2.5210 C   0  0  0  0  0  0  0  0  0  0  0  0
    2.4586   -1.3194   -2.3131 C   0  0  0  0  0  0  0  0  0  0  0  0
    3.9221   -1.5119   -1.8984 C   0  0  0  0  0  0  0  0  0  0  0  0
   -1.0385   -3.0462   -2.1359 C   0  0  0  0  0  0  0  0  0  0  0  0
   -0.3920    2.0580    0.2005 H   0  0  0  0  0  0  0  0  0  0  0  0
    1.7455   -6.7175   -0.8580 H   0  0  0  0  0  0  0  0  0  0  0  0
    1.6220   -5.3947   -1.9745 H   0  0  0  0  0  0  0  0  0  0  0  0
    0.5948   -5.4492    0.6938 H   0  0  0  0  0  0  0  0  0  0  0  0
    3.8189   -5.8329    0.1316 H   0  0  0  0  0  0  0  0  0  0  0  0
    3.9472   -5.6184   -1.6270 H   0  0  0  0  0  0  0  0  0  0  0  0
    3.2471   -3.5751   -1.5630 H   0  0  0  0  0  0  0  0  0  0  0  0
    4.5171   -3.5802   -0.3663 H   0  0  0  0  0  0  0  0  0  0  0  0
    2.6954   -2.2887    0.5508 H   0  0  0  0  0  0  0  0  0  0  0  0
    4.9968    2.4034   -2.0073 H   0  0  0  0  0  0  0  0  0  0  0  0
    5.4212    4.1353   -0.3016 H   0  0  0  0  0  0  0  0  0  0  0  0
    3.8566    4.3745    1.6135 H   0  0  0  0  0  0  0  0  0  0  0  0
    2.0688    2.7148    1.9655 H   0  0  0  0  0  0  0  0  0  0  0  0
   -1.3259   -0.3410   -2.4271 H   0  0  0  0  0  0  0  0  0  0  0  0
    1.6146   -3.3721   -2.4379 H   0  0  0  0  0  0  0  0  0  0  0  0
    0.4481    1.3756   -2.4982 H   0  0  0  0  0  0  0  0  0  0  0  0
    3.9799   -1.6104   -0.8060 H   0  0  0  0  0  0  0  0  0  0  0  0
    4.4242   -2.3301   -2.4194 H   0  0  0  0  0  0  0  0  0  0  0  0
    4.5904   -0.6584   -2.0362 H   0  0  0  0  0  0  0  0  0  0  0  0
   -1.1097   -3.7987   -2.9230 H   0  0  0  0  0  0  0  0  0  0  0  0
   -0.8873   -3.6001   -1.2050 H   0  0  0  0  0  0  0  0  0  0  0  0
   -2.0262   -2.5851   -1.9971 H   0  0  0  0  0  0  0  0  0  0  0  0
  2  1  1  0  0  0  0
  2 28  1  0  0  0  0
  3  1  1  0  0  0  0
  4  2  2  0  0  0  0
  4 13  1  0  0  0  0
  5  3  2  0  0  0  0
  5  4  1  0  0  0  0
  6 29  1  0  0  0  0
  6 30  1  0  0  0  0
  7  6  1  0  0  0  0
  7 31  1  0  0  0  0
  8  6  1  0  0  0  0
  8 32  1  0  0  0  0
  8 33  1  0  0  0  0
  9  7  1  0  0  0  0
  9 12  2  0  0  0  0
 10  8  1  0  0  0  0
 10 34  1  0  0  0  0
 10 35  1  0  0  0  0
 11  9  1  0  0  0  0
 11 10  1  0  0  0  0
 11 36  1  0  0  0  0
 12  3  1  0  0  0  0
 13 16  1  0  0  0  0
 14 37  1  0  0  0  0
 15 14  1  0  0  0  0
 15 38  1  0  0  0  0
 16 14  2  0  0  0  0
 16 19  1  0  0  0  0
 17 15  2  0  0  0  0
 17 39  1  0  0  0  0
 18 17  1  0  0  0  0
 18 13  2  0  0  0  0
 18 40  1  0  0  0  0
 19 20  1  0  0  0  0
 20 24  1  0  0  0  0
 20 25  2  0  0  0  0
 21 27  1  0  0  0  0
 22 21  1  0  0  0  0
 22 41  1  0  0  0  0
 23 21  2  0  0  0  0
 23 42  1  0  0  0  0
 24 22  2  0  0  0  0
 24 43  1  0  0  0  0
 25 23  1  0  0  0  0
 25 26  1  0  0  0  0
 26 44  1  0  0  0  0
 26 45  1  0  0  0  0
 26 46  1  0  0  0  0
 27 47  1  0  0  0  0
 27 48  1  0  0  0  0
 27 49  1  0  0  0  0
M  END
>  <DRUGBANK_ID>
DB06395

>  <COMMON_NAME>
Abafungin

>  <CAS_NUMBER>
129639-79-8

>  <UNII>
11DI31LWXF

>  <SYNONYMS>
Abafungin; Abafungina; Abafungine; Abafunginum

$$$$
