
 OpenBabel10282417203D

 73 74  0  0  1  0  0  0  0  0999 V2000
   -4.3583    5.4246    1.6520 C   0  0  0  0  0  0  0  0  0  0  0  0
   -3.7360    3.9923    1.5724 C   0  0  0  0  0  0  0  0  0  0  0  0
   -2.4269    3.0380    1.1415 C   0  0  0  0  0  0  0  0  0  0  0  0
   -2.0819    0.9450    1.0644 C   0  0  0  0  0  0  0  0  0  0  0  0
   -3.6728    1.5850    1.7815 N   0  0  0  0  0  0  0  0  0  0  0  0
   -4.4887    2.9704    1.9704 O   0  0  0  0  0  0  0  0  0  0  0  0
   -0.9292   -0.9275    0.4849 C   0  0  0  0  0  0  0  0  0  0  0  0
   -0.3481   -2.8857   -0.0062 C   0  0  0  0  0  0  0  0  0  0  0  0
   -1.9455   -1.7330    1.1871 C   0  0  0  0  0  0  0  0  0  0  0  0
    0.9998   -5.0538   -0.7765 C   0  0  2  0  0  0  0  0  0  0  0  0
    2.3536   -7.1452   -1.6754 C   0  0  0  0  0  0  0  0  0  0  0  0
    3.5760   -9.2368   -2.2968 C   0  0  0  0  0  0  0  0  0  0  0  0
    3.9087  -10.9568   -1.9148 C   0  0  0  0  0  0  0  0  0  0  0  0
    2.5174   -9.9133   -2.4536 C   0  0  0  0  0  0  0  0  0  0  0  0
    2.1933   -9.8180   -0.7655 C   0  0  0  0  0  0  0  0  0  0  0  0
    2.5317   -8.8117   -0.0648 C   0  0  0  0  0  0  0  0  0  0  0  0
    2.1752   -8.5437    1.2239 C   0  0  1  0  0  0  0  0  0  0  0  0
    3.3512   -8.0058    1.9881 C   0  0  1  0  0  0  0  0  0  0  0  0
    3.8332   -6.6516    1.5023 C   0  0  2  0  0  0  0  0  0  0  0  0
    2.7849   -5.6271    1.6744 C   0  0  0  0  0  0  0  0  0  0  0  0
    1.7266   -5.6557    1.1234 O   0  0  0  0  0  0  0  0  0  0  0  0
    2.8831   -4.4188    2.4830 C   0  0  0  0  0  0  0  0  0  0  0  0
    2.7979   -3.1845    1.6584 C   0  0  2  0  0  0  0  0  0  0  0  0
    1.5336   -3.0982    1.1353 C   0  0  0  0  0  0  0  0  0  0  0  0
    0.2904   -3.2915    2.0091 C   0  0  0  0  0  0  0  0  0  0  0  0
   -0.3964   -3.9727    2.7585 O   0  0  0  0  0  0  0  0  0  0  0  0
    0.0572   -4.2082    0.6768 O   0  0  0  0  0  0  0  0  0  0  0  0
    3.6678   -3.1710    0.5417 O   0  0  0  0  0  0  0  0  0  0  0  0
    4.1809   -4.3861    3.1051 C   0  0  0  0  0  0  0  0  0  0  0  0
    1.8977   -4.4508    3.5899 C   0  0  0  0  0  0  0  0  0  0  0  0
    4.3951   -6.6922    0.1313 C   0  0  0  0  0  0  0  0  0  0  0  0
    2.9589   -7.9199    3.3437 O   0  0  0  0  0  0  0  0  0  0  0  0
    0.9988   -7.6643    1.2468 C   0  0  0  0  0  0  0  0  0  0  0  0
    5.5472  -10.6723   -1.5918 C   0  0  0  0  0  0  0  0  0  0  0  0
   -5.2693    5.5069    1.0398 H   0  0  0  0  0  0  0  0  0  0  0  0
   -4.6421    5.6916    2.6798 H   0  0  0  0  0  0  0  0  0  0  0  0
   -3.6542    6.1751    1.2970 H   0  0  0  0  0  0  0  0  0  0  0  0
   -1.7851    4.0341    0.8153 H   0  0  0  0  0  0  0  0  0  0  0  0
   -0.6892    0.6729    0.6567 H   0  0  0  0  0  0  0  0  0  0  0  0
   -3.4406   -1.4632    1.0801 H   0  0  0  0  0  0  0  0  0  0  0  0
   -2.6849   -1.2962    2.5814 H   0  0  0  0  0  0  0  0  0  0  0  0
   -3.0110   -0.4976    1.6629 H   0  0  0  0  0  0  0  0  0  0  0  0
    0.8258   -3.6760   -0.5071 H   0  0  0  0  0  0  0  0  0  0  0  0
    3.6253   -8.3212   -2.1502 H   0  0  0  0  0  0  0  0  0  0  0  0
    3.6415   -8.3926   -1.7249 H   0  0  0  0  0  0  0  0  0  0  0  0
    4.1090  -10.8514   -2.9099 H   0  0  0  0  0  0  0  0  0  0  0  0
    1.9809  -10.4445   -3.1895 H   0  0  0  0  0  0  0  0  0  0  0  0
    2.7758   -8.6793   -3.3762 H   0  0  0  0  0  0  0  0  0  0  0  0
    2.5839  -10.2602   -1.5295 H   0  0  0  0  0  0  0  0  0  0  0  0
    2.8180   -7.9176   -0.3214 H   0  0  0  0  0  0  0  0  0  0  0  0
    1.8719   -9.5001    1.5242 H   0  0  0  0  0  0  0  0  0  0  0  0
    4.1844   -8.7129    1.9245 H   0  0  0  0  0  0  0  0  0  0  0  0
    4.6509   -6.3261    2.0961 H   0  0  0  0  0  0  0  0  0  0  0  0
    2.7537   -2.2706    2.1885 H   0  0  0  0  0  0  0  0  0  0  0  0
    1.7085   -4.0226    0.6023 H   0  0  0  0  0  0  0  0  0  0  0  0
    1.4920   -2.2967    0.2565 H   0  0  0  0  0  0  0  0  0  0  0  0
    3.5441   -3.9741   -0.0024 H   0  0  0  0  0  0  0  0  0  0  0  0
    4.2592   -3.5002    3.7081 H   0  0  0  0  0  0  0  0  0  0  0  0
    4.2859   -5.2679    3.7241 H   0  0  0  0  0  0  0  0  0  0  0  0
    4.9402   -4.3785    2.3331 H   0  0  0  0  0  0  0  0  0  0  0  0
    1.8000   -3.5292    4.1349 H   0  0  0  0  0  0  0  0  0  0  0  0
    1.0193   -4.7085    3.1445 H   0  0  0  0  0  0  0  0  0  0  0  0
    1.8564   -5.3342    4.1662 H   0  0  0  0  0  0  0  0  0  0  0  0
    4.6358   -5.7649   -0.3107 H   0  0  0  0  0  0  0  0  0  0  0  0
    5.1132   -7.4738   -0.0285 H   0  0  0  0  0  0  0  0  0  0  0  0
    3.6504   -6.7939   -0.5464 H   0  0  0  0  0  0  0  0  0  0  0  0
    3.1271   -8.8116    3.6896 H   0  0  0  0  0  0  0  0  0  0  0  0
    0.8543   -7.2541    2.2448 H   0  0  0  0  0  0  0  0  0  0  0  0
    1.0703   -6.9575    0.4521 H   0  0  0  0  0  0  0  0  0  0  0  0
    0.1254   -8.0700    0.8340 H   0  0  0  0  0  0  0  0  0  0  0  0
    5.9448   -9.7286   -2.0295 H   0  0  0  0  0  0  0  0  0  0  0  0
    5.3417  -10.5984   -0.5522 H   0  0  0  0  0  0  0  0  0  0  0  0
    6.2244  -11.4790   -1.8799 H   0  0  0  0  0  0  0  0  0  0  0  0
  1  2  1  0  0  0  0
  1 35  1  0  0  0  0
  1 36  1  0  0  0  0
  1 37  1  0  0  0  0
  2  3  2  0  0  0  0
  2  6  1  0  0  0  0
  3  4  1  0  0  0  0
  3 38  1  0  0  0  0
  4  5  2  0  0  0  0
  4  7  1  0  0  0  0
  5  6  1  0  0  0  0
  7  8  2  0  0  0  0
  7 39  1  0  0  0  0
  8  9  1  0  0  0  0
  9 40  1  0  0  0  0
  9 41  1  0  0  0  0
  9 42  1  0  0  0  0
 10 11  1  0  0  0  0
 10 27  1  0  0  0  0
 10 43  1  1  0  0  0
 10  8  1  0  0  0  0
 11 12  1  0  0  0  0
 11 44  1  0  0  0  0
 11 45  1  0  0  0  0
 12 13  2  0  0  0  0
 12 46  1  0  0  0  0
 13 14  1  0  0  0  0
 13 34  1  0  0  0  0
 14 15  1  0  0  0  0
 14 47  1  0  0  0  0
 14 48  1  0  0  0  0
 15 16  2  0  0  0  0
 15 49  1  0  0  0  0
 16 17  1  0  0  0  0
 16 50  1  0  0  0  0
 17 18  1  0  0  0  0
 17 51  1  1  0  0  0
 17 33  1  0  0  0  0
 18 19  1  0  0  0  0
 18 52  1  6  0  0  0
 18 32  1  0  0  0  0
 19 20  1  0  0  0  0
 19 31  1  0  0  0  0
 19 53  1  1  0  0  0
 20 21  2  0  0  0  0
 20 22  1  0  0  0  0
 22 23  1  0  0  0  0
 22 29  1  0  0  0  0
 22 30  1  0  0  0  0
 23 24  1  0  0  0  0
 23 28  1  0  0  0  0
 23 54  1  1  0  0  0
 24 25  1  0  0  0  0
 24 55  1  0  0  0  0
 24 56  1  0  0  0  0
 25 26  2  0  0  0  0
 25 27  1  0  0  0  0
 28 57  1  0  0  0  0
 29 58  1  0  0  0  0
 29 59  1  0  0  0  0
 29 60  1  0  0  0  0
 30 61  1  0  0  0  0
 30 62  1  0  0  0  0
 30 63  1  0  0  0  0
 31 64  1  0  0  0  0
 31 65  1  0  0  0  0
 31 66  1  0  0  0  0
 32 67  1  0  0  0  0
 33 68  1  0  0  0  0
 33 69  1  0  0  0  0
 33 70  1  0  0  0  0
 34 71  1  0  0  0  0
 34 72  1  0  0  0  0
 34 73  1  0  0  0  0
M  END
>  <DRUGBANK_ID>
DB13078

>  <COMMON_NAME>
KOSN-1724

>  <CAS_NUMBER>
693272-98-9

>  <UNII>
6MUO20693U

>  <SYNONYMS>
ISO-Fludelone

$$$$
