
 OpenBabel10282417133D

 19 18  0  0  1  0  0  0  0  0999 V2000
    0.7855   -0.0215   -0.1966 O   0  0  0  0  0  0  0  0  0  0  0  0
    0.5133    1.2689    0.3952 C   0  0  1  0  0  0  0  0  0  0  0  0
    1.0657    1.4460    1.8198 C   0  0  0  0  0  0  0  0  0  0  0  0
    2.5811    1.4876    1.9078 C   0  0  0  0  0  0  0  0  0  0  0  0
    3.2067    2.4671    2.3261 O   0  0  0  0  0  0  0  0  0  0  0  0
    3.4085    0.2465    1.5453 C   0  0  0  0  0  0  0  0  0  0  0  0
    2.7252   -0.7865    1.2292 O   0  5  0  0  0  0  0  0  0  0  0  0
    4.6756    0.3149    1.5545 O   0  0  0  0  0  0  0  0  0  0  0  0
    1.0132    2.3451   -0.5740 C   0  0  1  0  0  0  0  0  0  0  0  0
    0.5886    1.9994   -1.9249 O   0  0  0  0  0  0  0  0  0  0  0  0
    0.4608    3.7281   -0.1277 C   0  0  0  0  0  0  0  0  0  0  0  0
    1.3386    4.6145    0.0933 O   0  5  0  0  0  0  0  0  0  0  0  0
   -0.7964    3.8241    0.0106 O   0  0  0  0  0  0  0  0  0  0  0  0
    1.6598   -0.3420    0.1389 H   0  0  0  0  0  0  0  0  0  0  0  0
   -0.5826    1.2925    0.4539 H   0  0  0  0  0  0  0  0  0  0  0  0
    0.6949    2.3974    2.2274 H   0  0  0  0  0  0  0  0  0  0  0  0
    0.7000    0.6647    2.4962 H   0  0  0  0  0  0  0  0  0  0  0  0
    2.1070    2.3444   -0.6068 H   0  0  0  0  0  0  0  0  0  0  0  0
    0.7809    1.0427   -1.9691 H   0  0  0  0  0  0  0  0  0  0  0  0
  1 14  1  0  0  0  0
  2  1  1  0  0  0  0
  2  3  1  0  0  0  0
  2  9  1  0  0  0  0
  2 15  1  1  0  0  0
  3  4  1  0  0  0  0
  3 16  1  0  0  0  0
  3 17  1  0  0  0  0
  4  5  2  0  0  0  0
  4  6  1  0  0  0  0
  6  7  1  0  0  0  0
  6  8  2  0  0  0  0
  9 10  1  0  0  0  0
  9 11  1  0  0  0  0
  9 18  1  1  0  0  0
 10 19  1  0  0  0  0
 11 12  1  0  0  0  0
 11 13  2  0  0  0  0
M  CHG  2   7  -1  12  -1
M  END
>  <DRUGBANK_ID>
DB03237

>  <SECONDARY_ACCESSION_NUMBERS>
EXPT01611

>  <COMMON_NAME>
2,3-Dihydroxy-5-Oxo-Hexanedioate

$$$$
