ADD
 OpenBabel10282417123D

 57 57  0  0  0  0  0  0  0  0999 V2000
    5.0657   -9.0616   -1.9579 C   0  0  0  0  0  0  0  0  0  0  0  0
    5.7093   -8.4494   -2.7626 O   0  0  0  0  0  0  0  0  0  0  0  0
    4.7127  -10.3377   -2.1903 O   0  0  0  0  0  0  0  0  0  0  0  0
    4.5039   -8.5646   -0.6572 C   0  0  1  0  0  0  0  0  0  0  0  0
    5.2663   -7.3014   -0.5031 C   0  0  0  0  0  0  0  0  0  0  0  0
    2.9703   -8.4294   -0.8000 C   0  0  1  0  0  0  0  0  0  0  0  0
    2.3716   -9.7561   -0.7451 N   0  0  0  0  0  0  0  0  0  0  0  0
    2.2454   -7.7323    0.3023 C   0  0  0  0  0  0  0  0  0  0  0  0
    2.5245   -6.2577    0.2792 C   0  0  0  0  0  0  0  0  0  0  0  0
    2.2780   -5.1994   -0.7662 C   0  0  1  0  0  0  0  0  0  0  0  0
    0.7414   -5.1069   -0.7964 C   0  0  0  0  0  0  0  0  0  0  0  0
    2.8279   -3.7453   -0.4174 C   0  0  0  0  0  0  0  0  0  0  0  0
    4.3526   -3.4537   -0.1740 C   0  0  2  0  0  0  0  0  0  0  0  0
    4.8594   -3.2096   -1.6112 C   0  0  0  0  0  0  0  0  0  0  0  0
    5.0827   -4.5687    0.6005 C   0  0  1  0  0  0  0  0  0  0  0  0
    6.5315   -4.6966    0.4594 O   0  0  0  0  0  0  0  0  0  0  0  0
    7.1193   -4.8245   -0.8514 C   0  0  0  0  0  0  0  0  0  0  0  0
    4.6273   -4.9897    2.1771 C   0  0  0  0  0  0  0  0  0  0  0  0
    3.1444   -5.0814    2.7529 C   0  0  0  0  0  0  0  0  0  0  0  0
    2.4903   -6.3281    3.0552 C   0  0  0  0  0  0  0  0  0  0  0  0
    1.0580   -6.4753    2.9320 C   0  0  0  0  0  0  0  0  0  0  0  0
    0.2654   -5.3590    2.6595 C   0  0  0  0  0  0  0  0  0  0  0  0
    0.8884   -4.1070    2.5986 C   0  0  0  0  0  0  0  0  0  0  0  0
    2.3027   -3.9705    2.6582 C   0  0  0  0  0  0  0  0  0  0  0  0
    4.7977   -9.1652    0.2094 H   0  0  0  0  0  0  0  0  0  0  0  0
    2.7016   -7.9088   -1.7243 H   0  0  0  0  0  0  0  0  0  0  0  0
    2.6914   -5.5308   -1.7181 H   0  0  0  0  0  0  0  0  0  0  0  0
    4.5264   -2.5356    0.3977 H   0  0  0  0  0  0  0  0  0  0  0  0
    4.7365   -5.3139   -0.0541 H   0  0  0  0  0  0  0  0  0  0  0  0
    5.1106  -10.4757   -3.0689 H   0  0  0  0  0  0  0  0  0  0  0  0
    4.8846   -6.6002   -1.2645 H   0  0  0  0  0  0  0  0  0  0  0  0
    5.1728   -7.0028    0.5325 H   0  0  0  0  0  0  0  0  0  0  0  0
    6.3482   -7.3773   -0.6298 H   0  0  0  0  0  0  0  0  0  0  0  0
    1.3576   -9.6843   -0.7538 H   0  0  0  0  0  0  0  0  0  0  0  0
    2.6745  -10.2686   -1.5685 H   0  0  0  0  0  0  0  0  0  0  0  0
    1.1601   -7.8888    0.3087 H   0  0  0  0  0  0  0  0  0  0  0  0
    2.5835   -8.2015    1.2444 H   0  0  0  0  0  0  0  0  0  0  0  0
    1.8468   -5.8824    0.9889 H   0  0  0  0  0  0  0  0  0  0  0  0
    3.4835   -6.2251    0.7094 H   0  0  0  0  0  0  0  0  0  0  0  0
    0.3772   -4.5721    0.0876 H   0  0  0  0  0  0  0  0  0  0  0  0
    0.3731   -4.5650   -1.6578 H   0  0  0  0  0  0  0  0  0  0  0  0
    0.2835   -6.1016   -0.7460 H   0  0  0  0  0  0  0  0  0  0  0  0
    2.5067   -3.1396   -1.2728 H   0  0  0  0  0  0  0  0  0  0  0  0
    2.2711   -3.2578    0.3768 H   0  0  0  0  0  0  0  0  0  0  0  0
    4.1766   -2.5747   -2.1814 H   0  0  0  0  0  0  0  0  0  0  0  0
    5.7948   -2.6546   -1.6325 H   0  0  0  0  0  0  0  0  0  0  0  0
    4.9346   -4.1527   -2.1693 H   0  0  0  0  0  0  0  0  0  0  0  0
    6.6419   -5.5303   -1.5421 H   0  0  0  0  0  0  0  0  0  0  0  0
    7.1579   -3.8615   -1.3406 H   0  0  0  0  0  0  0  0  0  0  0  0
    8.1694   -5.1230   -0.7734 H   0  0  0  0  0  0  0  0  0  0  0  0
    5.0538   -5.9976    2.3386 H   0  0  0  0  0  0  0  0  0  0  0  0
    5.2064   -4.3551    2.8478 H   0  0  0  0  0  0  0  0  0  0  0  0
    3.0765   -7.2491    3.0008 H   0  0  0  0  0  0  0  0  0  0  0  0
    0.6210   -7.4583    2.6957 H   0  0  0  0  0  0  0  0  0  0  0  0
   -0.7592   -5.4752    2.2890 H   0  0  0  0  0  0  0  0  0  0  0  0
    0.2939   -3.2508    2.2804 H   0  0  0  0  0  0  0  0  0  0  0  0
    2.7388   -3.0141    2.3858 H   0  0  0  0  0  0  0  0  0  0  0  0
  1  2  2  0  0  0  0
  1  3  1  0  0  0  0
  1  4  1  0  0  0  0
  3 30  1  0  0  0  0
  4  5  1  0  0  0  0
  4  6  1  0  0  0  0
  4 25  1  1  0  0  0
  5 31  1  0  0  0  0
  5 32  1  0  0  0  0
  5 33  1  0  0  0  0
  6  7  1  0  0  0  0
  6  8  1  0  0  0  0
  6 26  1  6  0  0  0
  7 34  1  0  0  0  0
  7 35  1  0  0  0  0
  8  9  1  0  0  0  0
  8 36  1  0  0  0  0
  8 37  1  0  0  0  0
  9 10  1  0  0  0  0
  9 38  1  0  0  0  0
  9 39  1  0  0  0  0
 10 11  1  0  0  0  0
 10 12  1  0  0  0  0
 10 27  1  6  0  0  0
 11 40  1  0  0  0  0
 11 41  1  0  0  0  0
 11 42  1  0  0  0  0
 12 43  1  0  0  0  0
 12 44  1  0  0  0  0
 13 15  1  0  0  0  0
 13 28  1  1  0  0  0
 13 14  1  0  0  0  0
 13 12  1  0  0  0  0
 14 45  1  0  0  0  0
 14 46  1  0  0  0  0
 14 47  1  0  0  0  0
 15 16  1  0  0  0  0
 15 18  1  0  0  0  0
 15 29  1  6  0  0  0
 16 17  1  0  0  0  0
 17 48  1  0  0  0  0
 17 49  1  0  0  0  0
 17 50  1  0  0  0  0
 18 19  1  0  0  0  0
 18 51  1  0  0  0  0
 18 52  1  0  0  0  0
 19 20  2  0  0  0  0
 19 24  1  0  0  0  0
 20 21  1  0  0  0  0
 20 53  1  0  0  0  0
 21 22  2  0  0  0  0
 21 54  1  0  0  0  0
 22 23  1  0  0  0  0
 22 55  1  0  0  0  0
 23 24  2  0  0  0  0
 23 56  1  0  0  0  0
 24 57  1  0  0  0  0
M  END
>  <DRUGBANK_ID>
DB02506

>  <SECONDARY_ACCESSION_NUMBERS>
EXPT00428

>  <COMMON_NAME>
2,6,8-Trimethyl-3-Amino-9-Benzyl-9-Methoxynonanoic Acid

$$$$
