938
 OpenBabel10282417113D

 67 68  0  0  1  0  0  0  0  0999 V2000
    0.8613   -0.0019   -0.0419 O   0  0  0  0  0  0  0  0  0  0  0  0
    5.0423   -5.0980   -1.1182 O   0  0  0  0  0  0  0  0  0  0  0  0
    6.0267  -11.0479   -2.9772 O   0  0  0  0  0  0  0  0  0  0  0  0
    4.7998  -11.3707    0.8310 O   0  0  0  0  0  0  0  0  0  0  0  0
    4.5308   -5.0054    1.7995 N   0  0  0  0  0  0  0  0  0  0  0  0
    3.0437   -2.5359    1.5912 C   0  0  0  0  0  0  0  0  0  0  0  0
    2.5070   -2.7442    0.1691 C   0  0  0  0  0  0  0  0  0  0  0  0
    2.6069   -3.6839    2.4899 C   0  0  0  0  0  0  0  0  0  0  0  0
    0.9942   -2.4812    0.0622 C   0  0  0  0  0  0  0  0  0  0  0  0
    3.0754   -5.0170    1.9288 C   0  0  0  0  0  0  0  0  0  0  0  0
    5.0218   -6.1742    1.0742 C   0  0  0  0  0  0  0  0  0  0  0  0
    0.4721   -1.1755    0.6827 C   0  0  0  0  0  0  0  0  0  0  0  0
    4.5562   -6.2371   -0.4005 C   0  0  3  0  0  0  0  0  0  0  0  0
    2.7727    1.3413   -0.8421 C   0  0  0  0  0  0  0  0  0  0  0  0
    2.3872    2.5841   -0.0816 C   0  0  0  0  0  0  0  0  0  0  0  0
    2.2677    0.1168   -0.1409 C   0  0  0  0  0  0  0  0  0  0  0  0
    4.9960   -7.5223   -1.0477 C   0  0  0  0  0  0  0  0  0  0  0  0
    2.9220    2.5843    1.3561 C   0  0  0  0  0  0  0  0  0  0  0  0
    4.5268   -8.7440   -0.5321 C   0  0  0  0  0  0  0  0  0  0  0  0
    4.4292    2.5298    1.4337 C   0  0  0  0  0  0  0  0  0  0  0  0
    5.8167   -7.5310   -2.1736 C   0  0  0  0  0  0  0  0  0  0  0  0
    4.8556   -9.9721   -1.1255 C   0  0  0  0  0  0  0  0  0  0  0  0
    6.1402   -8.7359   -2.7826 C   0  0  0  0  0  0  0  0  0  0  0  0
    5.6569   -9.9412   -2.2706 C   0  0  0  0  0  0  0  0  0  0  0  0
    5.1375    3.7408    1.4274 C   0  0  0  0  0  0  0  0  0  0  0  0
    5.1566    1.3313    1.4918 C   0  0  0  0  0  0  0  0  0  0  0  0
    4.3025  -11.2185   -0.4928 C   0  0  0  0  0  0  0  0  0  0  0  0
    6.5231    3.7404    1.5201 C   0  0  0  0  0  0  0  0  0  0  0  0
    6.5437    1.3302    1.5928 C   0  0  0  0  0  0  0  0  0  0  0  0
    7.2319    2.5477    1.6093 C   0  0  0  0  0  0  0  0  0  0  0  0
    4.6559   -4.3150   -0.6985 H   0  0  0  0  0  0  0  0  0  0  0  0
    5.5918  -11.8379   -2.6305 H   0  0  0  0  0  0  0  0  0  0  0  0
    5.7677  -11.2793    0.7837 H   0  0  0  0  0  0  0  0  0  0  0  0
    4.8814   -4.1740    1.3307 H   0  0  0  0  0  0  0  0  0  0  0  0
    4.1337   -2.4213    1.5608 H   0  0  0  0  0  0  0  0  0  0  0  0
    2.7118   -1.6057    2.0555 H   0  0  0  0  0  0  0  0  0  0  0  0
    2.6787   -3.7431   -0.2275 H   0  0  0  0  0  0  0  0  0  0  0  0
    3.1460   -2.2119   -0.5327 H   0  0  0  0  0  0  0  0  0  0  0  0
    2.9903   -3.5348    3.5031 H   0  0  0  0  0  0  0  0  0  0  0  0
    1.5127   -3.6864    2.5633 H   0  0  0  0  0  0  0  0  0  0  0  0
    0.4820   -3.3176    0.5541 H   0  0  0  0  0  0  0  0  0  0  0  0
    0.7071   -2.5162   -0.9939 H   0  0  0  0  0  0  0  0  0  0  0  0
    2.7389   -5.8382    2.5627 H   0  0  0  0  0  0  0  0  0  0  0  0
    2.5724   -5.1856    0.9743 H   0  0  0  0  0  0  0  0  0  0  0  0
    6.1172   -6.1278    1.1017 H   0  0  0  0  0  0  0  0  0  0  0  0
    4.7276   -7.0627    1.6396 H   0  0  0  0  0  0  0  0  0  0  0  0
    0.7489   -1.0739    1.7395 H   0  0  0  0  0  0  0  0  0  0  0  0
   -0.6230   -1.2007    0.6783 H   0  0  0  0  0  0  0  0  0  0  0  0
    3.4650   -6.2214   -0.4912 H   0  0  0  0  0  0  0  0  0  0  0  0
    3.8637    1.2566   -0.9407 H   0  0  0  0  0  0  0  0  0  0  0  0
    2.3727    1.3538   -1.8596 H   0  0  0  0  0  0  0  0  0  0  0  0
    2.7569    3.4508   -0.6374 H   0  0  0  0  0  0  0  0  0  0  0  0
    1.2932    2.6491   -0.0603 H   0  0  0  0  0  0  0  0  0  0  0  0
    2.7059    0.0120    0.8499 H   0  0  0  0  0  0  0  0  0  0  0  0
    2.6222   -0.6330   -0.8176 H   0  0  0  0  0  0  0  0  0  0  0  0
    2.5627    3.4946    1.8489 H   0  0  0  0  0  0  0  0  0  0  0  0
    2.4974    1.7693    1.9560 H   0  0  0  0  0  0  0  0  0  0  0  0
    3.8838   -8.7444    0.3502 H   0  0  0  0  0  0  0  0  0  0  0  0
    6.1940   -6.5996   -2.5908 H   0  0  0  0  0  0  0  0  0  0  0  0
    6.7643   -8.7316   -3.6714 H   0  0  0  0  0  0  0  0  0  0  0  0
    4.5954    4.6778    1.3541 H   0  0  0  0  0  0  0  0  0  0  0  0
    4.6621    0.3610    1.4467 H   0  0  0  0  0  0  0  0  0  0  0  0
    3.2092  -11.1643   -0.4503 H   0  0  0  0  0  0  0  0  0  0  0  0
    4.5600  -12.1247   -1.0412 H   0  0  0  0  0  0  0  0  0  0  0  0
    7.0557    4.6918    1.5309 H   0  0  0  0  0  0  0  0  0  0  0  0
    7.0910    0.3962    1.6646 H   0  0  0  0  0  0  0  0  0  0  0  0
    8.3119    2.5541    1.6882 H   0  0  0  0  0  0  0  0  0  0  0  0
  1 12  1  0  0  0  0
  1 16  1  0  0  0  0
  2 13  1  0  0  0  0
  2 31  1  0  0  0  0
  3 24  1  0  0  0  0
  3 32  1  0  0  0  0
  4 27  1  0  0  0  0
  4 33  1  0  0  0  0
  5 10  1  0  0  0  0
  5 11  1  0  0  0  0
  5 34  1  0  0  0  0
  6  7  1  0  0  0  0
  6  8  1  0  0  0  0
  6 35  1  0  0  0  0
  6 36  1  0  0  0  0
  7  9  1  0  0  0  0
  7 37  1  0  0  0  0
  7 38  1  0  0  0  0
  8 10  1  0  0  0  0
  8 39  1  0  0  0  0
  8 40  1  0  0  0  0
  9 12  1  0  0  0  0
  9 41  1  0  0  0  0
  9 42  1  0  0  0  0
 10 43  1  0  0  0  0
 10 44  1  0  0  0  0
 11 13  1  0  0  0  0
 11 45  1  0  0  0  0
 11 46  1  0  0  0  0
 12 47  1  0  0  0  0
 12 48  1  0  0  0  0
 13 17  1  0  0  0  0
 13 49  1  0  0  0  0
 14 15  1  0  0  0  0
 14 16  1  0  0  0  0
 14 50  1  0  0  0  0
 14 51  1  0  0  0  0
 15 18  1  0  0  0  0
 15 52  1  0  0  0  0
 15 53  1  0  0  0  0
 16 54  1  0  0  0  0
 16 55  1  0  0  0  0
 17 19  2  0  0  0  0
 17 21  1  0  0  0  0
 18 20  1  0  0  0  0
 18 56  1  0  0  0  0
 18 57  1  0  0  0  0
 19 22  1  0  0  0  0
 19 58  1  0  0  0  0
 20 25  2  0  0  0  0
 20 26  1  0  0  0  0
 21 23  2  0  0  0  0
 21 59  1  0  0  0  0
 22 24  2  0  0  0  0
 22 27  1  0  0  0  0
 23 24  1  0  0  0  0
 23 60  1  0  0  0  0
 25 28  1  0  0  0  0
 25 61  1  0  0  0  0
 26 29  2  0  0  0  0
 26 62  1  0  0  0  0
 27 63  1  0  0  0  0
 27 64  1  0  0  0  0
 28 30  2  0  0  0  0
 28 65  1  0  0  0  0
 29 30  1  0  0  0  0
 29 66  1  0  0  0  0
 30 67  1  0  0  0  0
M  END
>  <DRUGBANK_ID>
DB00938

>  <SECONDARY_ACCESSION_NUMBERS>
APRD00277

>  <COMMON_NAME>
Salmeterol

>  <CAS_NUMBER>
89365-50-4

>  <UNII>
2I4BC502BT

>  <SYNONYMS>
Salmaterol; Salmeterol; Salmeterolum

$$$$
