
 OpenBabel10282417233D

 55 57  0  0  1  0  0  0  0  0999 V2000
    8.9456   -3.8603    5.4049 C   0  0  0  0  0  0  0  0  0  0  0  0
    7.6395   -4.2147    5.8352 O   0  0  0  0  0  0  0  0  0  0  0  0
    6.5216   -3.5422    5.4017 C   0  0  0  0  0  0  0  0  0  0  0  0
    5.9990   -3.4633    4.1016 C   0  0  0  0  0  0  0  0  0  0  0  0
    6.5562   -3.7461    2.8854 O   0  0  0  0  0  0  0  0  0  0  0  0
    7.8376   -4.2802    2.8131 C   0  0  0  0  0  0  0  0  0  0  0  0
    4.6328   -3.1064    3.9127 C   0  0  0  0  0  0  0  0  0  0  0  0
    3.8202   -2.7636    5.0044 C   0  0  0  0  0  0  0  0  0  0  0  0
    4.3481   -2.7862    6.2831 C   0  0  0  0  0  0  0  0  0  0  0  0
    5.6840   -3.1579    6.4720 C   0  0  0  0  0  0  0  0  0  0  0  0
    4.0210   -3.3457    2.5290 C   0  0  2  0  0  0  0  0  0  0  0  0
    2.7190   -2.7639    2.5059 O   0  0  0  0  0  0  0  0  0  0  0  0
    4.0740   -4.9029    2.2484 C   0  0  0  0  0  0  0  0  0  0  0  0
    3.6850   -5.3390    0.8512 C   0  0  0  0  0  0  0  0  0  0  0  0
    2.1924   -5.3285    0.7388 C   0  0  0  0  0  0  0  0  0  0  0  0
    1.3345   -5.9232    1.7565 N   0  0  0  0  0  0  0  0  0  0  0  0
   -0.0965   -5.5743    1.5160 C   0  0  0  0  0  0  0  0  0  0  0  0
   -0.5596   -4.0742    1.5378 C   0  0  0  0  0  0  0  0  0  0  0  0
   -0.0870   -3.1394    0.4281 C   0  0  0  0  0  0  0  0  0  0  0  0
   -0.1848   -1.7499    0.5858 C   0  0  0  0  0  0  0  0  0  0  0  0
    0.4910   -0.9028   -0.2915 C   0  0  0  0  0  0  0  0  0  0  0  0
    1.3925   -1.4186   -1.2156 C   0  0  0  0  0  0  0  0  0  0  0  0
    2.1195   -0.6201   -1.9895 F   0  0  0  0  0  0  0  0  0  0  0  0
    1.4946   -2.7931   -1.3756 C   0  0  0  0  0  0  0  0  0  0  0  0
    0.5756   -3.5950   -0.7173 C   0  0  0  0  0  0  0  0  0  0  0  0
    1.7595   -5.5233    3.1011 C   0  0  0  0  0  0  0  0  0  0  0  0
    3.2606   -5.7244    3.2633 C   0  0  0  0  0  0  0  0  0  0  0  0
    9.6639   -4.1712    6.1668 H   0  0  0  0  0  0  0  0  0  0  0  0
    9.0597   -2.7953    5.1906 H   0  0  0  0  0  0  0  0  0  0  0  0
    9.2746   -4.4739    4.5664 H   0  0  0  0  0  0  0  0  0  0  0  0
    8.5134   -3.4639    3.0627 H   0  0  0  0  0  0  0  0  0  0  0  0
    7.8908   -5.1897    3.4182 H   0  0  0  0  0  0  0  0  0  0  0  0
    8.0888   -4.5741    1.7931 H   0  0  0  0  0  0  0  0  0  0  0  0
    2.7634   -2.5406    4.8629 H   0  0  0  0  0  0  0  0  0  0  0  0
    3.7022   -2.5766    7.1326 H   0  0  0  0  0  0  0  0  0  0  0  0
    6.0664   -3.1853    7.4897 H   0  0  0  0  0  0  0  0  0  0  0  0
    4.6064   -2.7896    1.7847 H   0  0  0  0  0  0  0  0  0  0  0  0
    2.5074   -2.5099    1.5930 H   0  0  0  0  0  0  0  0  0  0  0  0
    5.1031   -5.2579    2.3196 H   0  0  0  0  0  0  0  0  0  0  0  0
    4.1162   -4.6648    0.0953 H   0  0  0  0  0  0  0  0  0  0  0  0
    4.0585   -6.3433    0.6235 H   0  0  0  0  0  0  0  0  0  0  0  0
    2.0204   -4.2691    0.7889 H   0  0  0  0  0  0  0  0  0  0  0  0
    1.9594   -5.7580   -0.2369 H   0  0  0  0  0  0  0  0  0  0  0  0
   -0.4052   -6.0182    0.5616 H   0  0  0  0  0  0  0  0  0  0  0  0
   -0.6829   -6.1128    2.2734 H   0  0  0  0  0  0  0  0  0  0  0  0
   -1.6549   -4.0534    1.5447 H   0  0  0  0  0  0  0  0  0  0  0  0
   -0.2529   -3.6463    2.5035 H   0  0  0  0  0  0  0  0  0  0  0  0
   -0.7820   -1.3363    1.3944 H   0  0  0  0  0  0  0  0  0  0  0  0
    0.3554    0.1751   -0.2404 H   0  0  0  0  0  0  0  0  0  0  0  0
    2.2816   -3.2161   -1.9916 H   0  0  0  0  0  0  0  0  0  0  0  0
    0.5498   -4.6517   -0.9773 H   0  0  0  0  0  0  0  0  0  0  0  0
    1.2336   -6.1194    3.8530 H   0  0  0  0  0  0  0  0  0  0  0  0
    1.5040   -4.4853    3.3175 H   0  0  0  0  0  0  0  0  0  0  0  0
    3.5023   -6.7859    3.1269 H   0  0  0  0  0  0  0  0  0  0  0  0
    3.5570   -5.4785    4.2849 H   0  0  0  0  0  0  0  0  0  0  0  0
  1  2  1  0  0  0  0
  1 28  1  0  0  0  0
  1 29  1  0  0  0  0
  1 30  1  0  0  0  0
  2  3  1  0  0  0  0
  3  4  2  0  0  0  0
  3 10  1  0  0  0  0
  4  5  1  0  0  0  0
  4  7  1  0  0  0  0
  5  6  1  0  0  0  0
  6 31  1  0  0  0  0
  6 32  1  0  0  0  0
  6 33  1  0  0  0  0
  7  8  2  0  0  0  0
  8  9  1  0  0  0  0
  8 34  1  0  0  0  0
  9 10  2  0  0  0  0
  9 35  1  0  0  0  0
 10 36  1  0  0  0  0
 11 13  1  0  0  0  0
 11 37  1  6  0  0  0
 11 12  1  0  0  0  0
 11  7  1  0  0  0  0
 12 38  1  0  0  0  0
 13 14  1  0  0  0  0
 13 27  1  0  0  0  0
 13 39  1  0  0  0  0
 14 15  1  0  0  0  0
 14 40  1  0  0  0  0
 14 41  1  0  0  0  0
 15 16  1  0  0  0  0
 15 42  1  0  0  0  0
 15 43  1  0  0  0  0
 16 17  1  0  0  0  0
 16 26  1  0  0  0  0
 17 18  1  0  0  0  0
 17 44  1  0  0  0  0
 17 45  1  0  0  0  0
 18 19  1  0  0  0  0
 18 46  1  0  0  0  0
 18 47  1  0  0  0  0
 19 20  2  0  0  0  0
 19 25  1  0  0  0  0
 20 21  1  0  0  0  0
 20 48  1  0  0  0  0
 21 22  2  0  0  0  0
 21 49  1  0  0  0  0
 22 23  1  0  0  0  0
 22 24  1  0  0  0  0
 24 25  2  0  0  0  0
 24 50  1  0  0  0  0
 25 51  1  0  0  0  0
 26 27  1  0  0  0  0
 26 52  1  0  0  0  0
 26 53  1  0  0  0  0
 27 54  1  0  0  0  0
 27 55  1  0  0  0  0
M  END
>  <DRUGBANK_ID>
DB16351

>  <COMMON_NAME>
Volinanserin

>  <CAS_NUMBER>
139290-65-6

>  <UNII>
EW71EE171J

>  <SYNONYMS>
Volinanserin

$$$$
