
 OpenBabel10282417133D

 39 41  0  0  1  0  0  0  0  0999 V2000
   -8.2379   -5.3898    1.5800 C   0  0  0  0  0  0  0  0  0  0  0  0
   -6.5617   -4.8674   -0.2132 C   0  0  0  0  0  0  0  0  0  0  0  0
   -5.6526   -4.0224   -0.8572 C   0  0  0  0  0  0  0  0  0  0  0  0
   -7.0599   -3.1703    1.4676 C   0  0  0  0  0  0  0  0  0  0  0  0
   -4.6758    3.1774    2.6396 C   0  0  0  0  0  0  0  0  0  0  0  0
   -7.2601   -4.4537    0.9315 C   0  0  0  0  0  0  0  0  0  0  0  0
   -5.4417   -2.7462   -0.3292 C   0  0  0  0  0  0  0  0  0  0  0  0
   -6.1431   -2.3530    0.8044 C   0  0  0  0  0  0  0  0  0  0  0  0
   -4.0475    2.5693    1.3809 C   0  0  2  0  0  0  0  0  0  0  0  0
   -4.3158    3.4660    0.1711 C   0  0  2  0  0  0  0  0  0  0  0  0
   -3.8004    2.7984   -1.1104 C   0  0  1  0  0  0  0  0  0  0  0  0
   -4.3457    1.3646   -1.2574 C   0  0  2  0  0  0  0  0  0  0  0  0
   -4.1022    0.5807    0.0517 C   0  0  2  0  0  0  0  0  0  0  0  0
   -4.7905   -0.7457    0.0627 C   0  0  0  0  0  0  0  0  0  0  0  0
   -4.6006   -1.7545   -0.7632 N   0  0  0  0  0  0  0  0  0  0  0  0
   -5.7056   -1.0810    1.0322 N   0  0  0  0  0  0  0  0  0  0  0  0
   -4.4539    2.3237    3.7611 O   0  0  0  0  0  0  0  0  0  0  0  0
   -3.7243    4.7500    0.3677 O   0  0  0  0  0  0  0  0  0  0  0  0
   -4.1476    3.5972   -2.2492 O   0  0  0  0  0  0  0  0  0  0  0  0
   -3.7300    0.7615   -2.4021 O   0  0  0  0  0  0  0  0  0  0  0  0
   -4.6370    1.2811    1.1877 O   0  0  0  0  0  0  0  0  0  0  0  0
   -2.9712    2.4371    1.5546 H   0  0  0  0  0  0  0  0  0  0  0  0
   -5.3952    3.6287    0.0599 H   0  0  0  0  0  0  0  0  0  0  0  0
   -2.7039    2.7769   -1.1044 H   0  0  0  0  0  0  0  0  0  0  0  0
   -5.4199    1.4126   -1.4764 H   0  0  0  0  0  0  0  0  0  0  0  0
   -3.0290    0.4041    0.1996 H   0  0  0  0  0  0  0  0  0  0  0  0
   -7.9477   -5.5841    2.6169 H   0  0  0  0  0  0  0  0  0  0  0  0
   -9.2440   -4.9605    1.5522 H   0  0  0  0  0  0  0  0  0  0  0  0
   -8.2684   -6.3502    1.0548 H   0  0  0  0  0  0  0  0  0  0  0  0
   -6.7211   -5.8628   -0.6205 H   0  0  0  0  0  0  0  0  0  0  0  0
   -5.1188   -4.3383   -1.7453 H   0  0  0  0  0  0  0  0  0  0  0  0
   -7.5919   -2.8300    2.3508 H   0  0  0  0  0  0  0  0  0  0  0  0
   -4.2437    4.1553    2.8671 H   0  0  0  0  0  0  0  0  0  0  0  0
   -5.7590    3.2867    2.5193 H   0  0  0  0  0  0  0  0  0  0  0  0
   -5.9823   -0.4680    1.7885 H   0  0  0  0  0  0  0  0  0  0  0  0
   -4.8369    1.4601    3.5251 H   0  0  0  0  0  0  0  0  0  0  0  0
   -2.7554    4.6575    0.3568 H   0  0  0  0  0  0  0  0  0  0  0  0
   -5.1132    3.5636   -2.3670 H   0  0  0  0  0  0  0  0  0  0  0  0
   -2.7805    0.6413   -2.2335 H   0  0  0  0  0  0  0  0  0  0  0  0
  1 27  1  0  0  0  0
  1 28  1  0  0  0  0
  1 29  1  0  0  0  0
  2 30  1  0  0  0  0
  3  2  2  0  0  0  0
  3 31  1  0  0  0  0
  4 32  1  0  0  0  0
  5 33  1  0  0  0  0
  5 34  1  0  0  0  0
  6  1  1  0  0  0  0
  6  2  1  0  0  0  0
  6  4  2  0  0  0  0
  7  3  1  0  0  0  0
  8  4  1  0  0  0  0
  8  7  2  0  0  0  0
  9  5  1  0  0  0  0
  9 22  1  1  0  0  0
 10  9  1  0  0  0  0
 10 18  1  0  0  0  0
 10 23  1  6  0  0  0
 11 10  1  0  0  0  0
 11 19  1  0  0  0  0
 11 24  1  1  0  0  0
 12 11  1  0  0  0  0
 12 20  1  0  0  0  0
 12 25  1  6  0  0  0
 13 12  1  0  0  0  0
 13 26  1  1  0  0  0
 13 14  1  0  0  0  0
 15  7  1  0  0  0  0
 15 14  2  0  0  0  0
 16  8  1  0  0  0  0
 16 14  1  0  0  0  0
 16 35  1  0  0  0  0
 17  5  1  0  0  0  0
 17 36  1  0  0  0  0
 18 37  1  0  0  0  0
 19 38  1  0  0  0  0
 20 39  1  0  0  0  0
 21  9  1  0  0  0  0
 21 13  1  0  0  0  0
M  END
>  <DRUGBANK_ID>
DB03133

>  <SECONDARY_ACCESSION_NUMBERS>
EXPT01871

>  <COMMON_NAME>
2-(Beta-D-Glucopyranosyl)-5-Methyl-1,2,3-Benzimidazole

$$$$
