P1E
 OpenBabel10282417173D

 56 58  0  0  0  0  0  0  0  0999 V2000
    1.3951   -0.2080    0.0370 C   0  0  0  0  0  0  0  0  0  0  0  0
   -0.8564   -1.1169   -0.1192 C   0  0  0  0  0  0  0  0  0  0  0  0
    3.7532    0.5907    0.2341 C   0  0  0  0  0  0  0  0  0  0  0  0
    5.5281    1.7080   -0.6323 C   0  0  0  0  0  0  0  0  0  0  0  0
    5.7300    5.0565    0.2133 F   0  0  0  0  0  0  0  0  0  0  0  0
    6.3714    3.8579    0.3221 C   0  0  0  0  0  0  0  0  0  0  0  0
    7.1103    3.9431    1.4637 F   0  0  0  0  0  0  0  0  0  0  0  0
    7.2751    3.8335   -0.6971 F   0  0  0  0  0  0  0  0  0  0  0  0
    5.4447    2.7049    0.3199 C   0  0  0  0  0  0  0  0  0  0  0  0
    4.7273    0.6244   -0.6741 N   0  0  0  0  0  0  0  0  0  0  0  0
    4.4612    2.5594    1.2649 C   0  0  0  0  0  0  0  0  0  0  0  0
    4.3653    3.4066    2.3557 N   0  0  0  0  0  0  0  0  0  0  0  0
    3.2812    3.3134    3.3376 C   0  0  2  0  0  0  0  0  0  0  0  0
    3.3965    2.0463    4.1764 C   0  0  0  0  0  0  0  0  0  0  0  0
    2.0007    1.7787    4.7166 C   0  0  0  0  0  0  0  0  0  0  0  0
    1.0207    2.6166    3.9039 C   0  0  0  0  0  0  0  0  0  0  0  0
    1.8326    3.2891    2.7850 C   0  0  1  0  0  0  0  0  0  0  0  0
    1.2971    4.5718    2.2734 N   0  0  0  0  0  0  0  0  0  0  0  0
   -0.0165    4.3735    1.6630 C   0  0  0  0  0  0  0  0  0  0  0  0
    1.2066    5.6069    3.2939 C   0  0  0  0  0  0  0  0  0  0  0  0
    3.6324    1.5075    1.2006 N   0  0  0  0  0  0  0  0  0  0  0  0
    2.7780   -0.3974    0.1459 N   0  0  0  0  0  0  0  0  0  0  0  0
    0.5291   -1.3009   -0.0056 C   0  0  0  0  0  0  0  0  0  0  0  0
    0.8240    1.0689   -0.0344 C   0  0  0  0  0  0  0  0  0  0  0  0
   -0.5577    1.2582   -0.0331 C   0  0  0  0  0  0  0  0  0  0  0  0
   -1.4032    0.1647   -0.0941 C   0  0  0  0  0  0  0  0  0  0  0  0
   -3.1352    0.5212   -0.2033 S   0  0  0  0  0  0  0  0  0  0  0  0
   -3.5490    1.1681    1.0132 O   0  0  0  0  0  0  0  0  0  0  0  0
   -3.3568    1.1446   -1.4990 O   0  0  0  0  0  0  0  0  0  0  0  0
   -3.9186   -0.9722   -0.2623 N   0  0  0  0  0  0  0  0  0  0  0  0
   -3.8681   -1.7884    0.9531 C   0  0  0  0  0  0  0  0  0  0  0  0
    3.3969    4.1608    4.0229 H   0  0  0  0  0  0  0  0  0  0  0  0
    1.7976    2.5990    1.9462 H   0  0  0  0  0  0  0  0  0  0  0  0
   -1.4721   -1.9978   -0.2419 H   0  0  0  0  0  0  0  0  0  0  0  0
    6.2683    1.7499   -1.4282 H   0  0  0  0  0  0  0  0  0  0  0  0
    4.7945    4.3226    2.3013 H   0  0  0  0  0  0  0  0  0  0  0  0
    3.7296    1.1833    3.5947 H   0  0  0  0  0  0  0  0  0  0  0  0
    4.1291    2.1759    4.9798 H   0  0  0  0  0  0  0  0  0  0  0  0
    1.7588    0.7135    4.6521 H   0  0  0  0  0  0  0  0  0  0  0  0
    1.9399    2.0678    5.7709 H   0  0  0  0  0  0  0  0  0  0  0  0
    0.2133    2.0010    3.4892 H   0  0  0  0  0  0  0  0  0  0  0  0
    0.5475    3.3366    4.5747 H   0  0  0  0  0  0  0  0  0  0  0  0
   -0.7493    3.9429    2.3552 H   0  0  0  0  0  0  0  0  0  0  0  0
   -0.4280    5.3047    1.2622 H   0  0  0  0  0  0  0  0  0  0  0  0
    0.0955    3.7174    0.8057 H   0  0  0  0  0  0  0  0  0  0  0  0
    0.5343    5.3325    4.1106 H   0  0  0  0  0  0  0  0  0  0  0  0
    2.1897    5.8358    3.7099 H   0  0  0  0  0  0  0  0  0  0  0  0
    0.8332    6.5386    2.8594 H   0  0  0  0  0  0  0  0  0  0  0  0
    3.1582   -1.3233    0.0500 H   0  0  0  0  0  0  0  0  0  0  0  0
    0.9211   -2.3140    0.0087 H   0  0  0  0  0  0  0  0  0  0  0  0
    1.4592    1.9487   -0.1041 H   0  0  0  0  0  0  0  0  0  0  0  0
   -0.9810    2.2563   -0.0189 H   0  0  0  0  0  0  0  0  0  0  0  0
   -4.8661   -0.8107   -0.6126 H   0  0  0  0  0  0  0  0  0  0  0  0
   -4.3178   -1.2667    1.7967 H   0  0  0  0  0  0  0  0  0  0  0  0
   -4.4093   -2.7195    0.7696 H   0  0  0  0  0  0  0  0  0  0  0  0
   -2.8494   -2.0647    1.2200 H   0  0  0  0  0  0  0  0  0  0  0  0
  1 22  1  0  0  0  0
  1 23  2  0  0  0  0
  1 24  1  0  0  0  0
  2 23  1  0  0  0  0
  2 26  2  0  0  0  0
  2 34  1  0  0  0  0
  3 10  2  0  0  0  0
  3 21  1  0  0  0  0
  3 22  1  0  0  0  0
  4  9  2  0  0  0  0
  4 10  1  0  0  0  0
  4 35  1  0  0  0  0
  5  6  1  0  0  0  0
  6  7  1  0  0  0  0
  6  8  1  0  0  0  0
  6  9  1  0  0  0  0
  9 11  1  0  0  0  0
 11 12  1  0  0  0  0
 11 21  2  0  0  0  0
 12 36  1  0  0  0  0
 13 12  1  0  0  0  0
 13 14  1  0  0  0  0
 13 17  1  0  0  0  0
 13 32  1  1  0  0  0
 14 15  1  0  0  0  0
 14 37  1  0  0  0  0
 14 38  1  0  0  0  0
 15 16  1  0  0  0  0
 15 39  1  0  0  0  0
 15 40  1  0  0  0  0
 16 17  1  0  0  0  0
 16 41  1  0  0  0  0
 16 42  1  0  0  0  0
 17 18  1  0  0  0  0
 17 33  1  6  0  0  0
 18 19  1  0  0  0  0
 18 20  1  0  0  0  0
 19 43  1  0  0  0  0
 19 44  1  0  0  0  0
 19 45  1  0  0  0  0
 20 46  1  0  0  0  0
 20 47  1  0  0  0  0
 20 48  1  0  0  0  0
 22 49  1  0  0  0  0
 23 50  1  0  0  0  0
 24 25  2  0  0  0  0
 24 51  1  0  0  0  0
 25 26  1  0  0  0  0
 25 52  1  0  0  0  0
 26 27  1  0  0  0  0
 27 28  2  0  0  0  0
 27 29  2  0  0  0  0
 27 30  1  0  0  0  0
 30 31  1  0  0  0  0
 30 53  1  0  0  0  0
 31 54  1  0  0  0  0
 31 55  1  0  0  0  0
 31 56  1  0  0  0  0
M  END
>  <DRUGBANK_ID>
DB08341

>  <COMMON_NAME>
4-{[4-{[(1R,2R)-2-(dimethylamino)cyclopentyl]amino}-5-(trifluoromethyl)pyrimidin-2-yl]amino}-N-methylbenzenesulfonamide

$$$$
