
 OpenBabel10282417183D

 52 55  0  0  1  0  0  0  0  0999 V2000
    0.0670    3.7731   -3.6909 C   0  0  0  0  0  0  0  0  0  0  0  0
    0.0645    2.3491   -3.2102 C   0  0  0  0  0  0  0  0  0  0  0  0
    0.5033    1.3981   -4.1421 C   0  0  0  0  0  0  0  0  0  0  0  0
    0.6537   -0.1646   -4.0002 C   0  0  2  0  0  0  0  0  0  0  0  0
    1.1960   -0.1857   -2.5069 C   0  0  2  0  0  0  0  0  0  0  0  0
    1.2647   -1.6359   -1.9981 C   0  0  0  0  0  0  0  0  0  0  0  0
    2.1875   -2.3688   -2.9332 C   0  0  0  0  0  0  0  0  0  0  0  0
    1.6917   -2.2549   -4.3279 C   0  0  1  0  0  0  0  0  0  0  0  0
    1.0311   -1.5168   -5.3281 C   0  0  1  0  0  0  0  0  0  0  0  0
    1.2809   -3.5059   -5.6858 C   0  0  0  0  0  0  0  0  0  0  0  0
    2.7358   -3.9894   -5.4823 C   0  0  0  0  0  0  0  0  0  0  0  0
    2.9408   -2.5707   -5.4899 C   0  0  2  0  0  0  0  0  0  0  0  0
    4.3403   -2.1108   -5.2951 C   0  0  0  0  0  0  0  0  0  0  0  0
    5.2262   -2.8910   -4.9523 O   0  0  0  0  0  0  0  0  0  0  0  0
    4.6179   -0.6819   -5.6566 C   0  0  0  0  0  0  0  0  0  0  0  0
    2.7225   -2.1845   -6.9347 O   0  0  0  0  0  0  0  0  0  0  0  0
   -0.1626   -2.6345   -4.2695 C   0  0  0  0  0  0  0  0  0  0  0  0
    0.3307    0.8061   -1.4943 C   0  0  2  0  0  0  0  0  0  0  0  0
   -0.3840    2.1502   -1.6299 C   0  0  0  0  0  0  0  0  0  0  0  0
   -0.4792    3.0644   -0.3764 C   0  0  0  0  0  0  0  0  0  0  0  0
    0.7498    3.9992   -0.1686 C   0  0  0  0  0  0  0  0  0  0  0  0
    0.9861    5.0293    0.5614 O   0  0  0  0  0  0  0  0  0  0  0  0
    1.6562    3.3582   -1.0286 C   0  0  0  0  0  0  0  0  0  0  0  0
    1.3788    1.5426   -0.6440 C   0  0  0  0  0  0  0  0  0  0  0  0
    0.0903    3.8950   -4.7718 H   0  0  0  0  0  0  0  0  0  0  0  0
    0.9827    4.2982   -3.3941 H   0  0  0  0  0  0  0  0  0  0  0  0
   -0.8265    4.2312   -3.2728 H   0  0  0  0  0  0  0  0  0  0  0  0
    0.7192    1.7562   -5.1464 H   0  0  0  0  0  0  0  0  0  0  0  0
   -0.4171   -0.2947   -3.9282 H   0  0  0  0  0  0  0  0  0  0  0  0
    2.2471    0.1647   -2.4666 H   0  0  0  0  0  0  0  0  0  0  0  0
    0.2718   -2.0923   -2.0052 H   0  0  0  0  0  0  0  0  0  0  0  0
    1.6311   -1.7660   -0.9783 H   0  0  0  0  0  0  0  0  0  0  0  0
    2.2285   -3.4364   -2.6720 H   0  0  0  0  0  0  0  0  0  0  0  0
    3.2134   -1.9927   -2.8554 H   0  0  0  0  0  0  0  0  0  0  0  0
    1.5265   -0.8810   -6.0641 H   0  0  0  0  0  0  0  0  0  0  0  0
    0.8392   -4.2434   -6.3886 H   0  0  0  0  0  0  0  0  0  0  0  0
    0.8449   -4.1491   -4.8963 H   0  0  0  0  0  0  0  0  0  0  0  0
    3.2084   -4.5654   -6.2821 H   0  0  0  0  0  0  0  0  0  0  0  0
    2.9633   -4.4522   -4.5096 H   0  0  0  0  0  0  0  0  0  0  0  0
    4.3136   -0.4640   -6.6882 H   0  0  0  0  0  0  0  0  0  0  0  0
    4.0871   -0.0192   -4.9723 H   0  0  0  0  0  0  0  0  0  0  0  0
    5.6936   -0.5458   -5.5829 H   0  0  0  0  0  0  0  0  0  0  0  0
    3.1316   -2.8333   -7.5338 H   0  0  0  0  0  0  0  0  0  0  0  0
   -0.7737   -1.9467   -3.7048 H   0  0  0  0  0  0  0  0  0  0  0  0
   -0.6491   -2.5853   -5.3061 H   0  0  0  0  0  0  0  0  0  0  0  0
   -0.4162   -3.6037   -3.8549 H   0  0  0  0  0  0  0  0  0  0  0  0
   -0.5071    0.1780   -1.1519 H   0  0  0  0  0  0  0  0  0  0  0  0
   -0.2750    2.7369    0.7173 H   0  0  0  0  0  0  0  0  0  0  0  0
    0.8879    3.8372   -1.7072 H   0  0  0  0  0  0  0  0  0  0  0  0
    2.3755    3.9108   -1.6572 H   0  0  0  0  0  0  0  0  0  0  0  0
    0.8609    1.4799    0.3273 H   0  0  0  0  0  0  0  0  0  0  0  0
    2.0995    0.8297   -0.2511 H   0  0  0  0  0  0  0  0  0  0  0  0
  1  2  1  0  0  0  0
  1 25  1  0  0  0  0
  1 26  1  0  0  0  0
  1 27  1  0  0  0  0
  2  3  2  0  0  0  0
  2 19  1  0  0  0  0
  3 28  1  0  0  0  0
  4  3  1  0  0  0  0
  4  5  1  0  0  0  0
  4  9  1  0  0  0  0
  4 29  1  1  0  0  0
  5  6  1  0  0  0  0
  5 18  1  0  0  0  0
  5 30  1  6  0  0  0
  6  7  1  0  0  0  0
  6 31  1  0  0  0  0
  6 32  1  0  0  0  0
  7  8  1  0  0  0  0
  7 33  1  0  0  0  0
  7 34  1  0  0  0  0
  8  9  1  0  0  0  0
  8 12  1  0  0  0  0
  8 17  1  6  0  0  0
  9 10  1  0  0  0  0
  9 35  1  6  0  0  0
 10 11  1  0  0  0  0
 10 36  1  0  0  0  0
 10 37  1  0  0  0  0
 11 12  1  0  0  0  0
 11 38  1  0  0  0  0
 11 39  1  0  0  0  0
 12 16  1  6  0  0  0
 12 13  1  0  0  0  0
 13 14  2  0  0  0  0
 13 15  1  0  0  0  0
 15 40  1  0  0  0  0
 15 41  1  0  0  0  0
 15 42  1  0  0  0  0
 16 43  1  0  0  0  0
 17 44  1  0  0  0  0
 17 45  1  0  0  0  0
 17 46  1  0  0  0  0
 18 19  1  0  0  0  0
 18 24  1  0  0  0  0
 18 47  1  1  0  0  0
 19 20  2  0  0  0  0
 20 21  1  0  0  0  0
 20 48  1  0  0  0  0
 21 22  2  0  0  0  0
 21 23  1  0  0  0  0
 23 24  1  0  0  0  0
 23 49  1  0  0  0  0
 23 50  1  0  0  0  0
 24 51  1  0  0  0  0
 24 52  1  0  0  0  0
M  END
>  <DRUGBANK_ID>
DB11636

>  <COMMON_NAME>
Nomegestrol

>  <CAS_NUMBER>
58691-88-6

>  <UNII>
10F89177CO

>  <SYNONYMS>
Nomegestrol

$$$$
