
 OpenBabel10282417203D

 31 31  0  0  0  0  0  0  0  0999 V2000
    1.1358   -1.1926    0.0422 C   0  0  0  0  0  0  0  0  0  0  0  0
    1.1969    0.1899    0.0096 C   0  0  0  0  0  0  0  0  0  0  0  0
    2.3173   -2.1127    0.0345 C   0  0  0  0  0  0  0  0  0  0  0  0
   -0.1434   -1.7207    0.0119 C   0  0  0  0  0  0  0  0  0  0  0  0
    0.0934    0.9592   -0.0054 N   0  0  0  0  0  0  0  0  0  0  0  0
    2.3747    0.8953    0.0636 N   0  0  0  0  0  0  0  0  0  0  0  0
    2.3207   -3.0122    1.1752 N   0  0  0  0  0  0  0  0  0  0  0  0
   -1.2704   -0.9880   -0.0040 N   0  0  0  0  0  0  0  0  0  0  0  0
   -1.1027    0.3417   -0.0047 C   0  0  0  0  0  0  0  0  0  0  0  0
    2.3604   -4.3868    1.0558 C   0  0  0  0  0  0  0  0  0  0  0  0
   -2.3311    1.1978    0.0030 C   0  0  0  0  0  0  0  0  0  0  0  0
    2.3623   -5.1193    2.2499 N   0  0  0  0  0  0  0  0  0  0  0  0
    2.3739   -4.9231   -0.0562 O   0  0  0  0  0  0  0  0  0  0  0  0
    2.3512   -6.5929    2.2183 C   0  0  0  0  0  0  0  0  0  0  0  0
    2.2482   -4.4237    3.4598 N   0  0  0  0  0  0  0  0  0  0  0  0
    3.6149   -7.2925    2.7413 C   0  0  0  0  0  0  0  0  0  0  0  0
    1.9105   -5.1131    4.4235 O   0  0  0  0  0  0  0  0  0  0  0  0
    3.8583   -7.2553    4.5035 Cl  0  0  0  0  0  0  0  0  0  0  0  0
    2.3288   -2.6736   -0.9063 H   0  0  0  0  0  0  0  0  0  0  0  0
    3.2624   -1.5652    0.0848 H   0  0  0  0  0  0  0  0  0  0  0  0
   -0.3042   -2.7961   -0.0014 H   0  0  0  0  0  0  0  0  0  0  0  0
    2.2726    1.8992   -0.0226 H   0  0  0  0  0  0  0  0  0  0  0  0
    3.2861    0.4877   -0.0423 H   0  0  0  0  0  0  0  0  0  0  0  0
    2.3461   -2.5879    2.0929 H   0  0  0  0  0  0  0  0  0  0  0  0
   -2.3425    1.8301    0.8959 H   0  0  0  0  0  0  0  0  0  0  0  0
   -2.3510    1.8356   -0.8854 H   0  0  0  0  0  0  0  0  0  0  0  0
   -3.2371    0.5829    0.0064 H   0  0  0  0  0  0  0  0  0  0  0  0
    1.4408   -6.9663    2.7025 H   0  0  0  0  0  0  0  0  0  0  0  0
    2.2647   -6.9049    1.1686 H   0  0  0  0  0  0  0  0  0  0  0  0
    3.5609   -8.3570    2.4931 H   0  0  0  0  0  0  0  0  0  0  0  0
    4.5133   -6.8774    2.2788 H   0  0  0  0  0  0  0  0  0  0  0  0
  1  2  1  0  0  0  0
  1  3  1  0  0  0  0
  1  4  2  0  0  0  0
  2  5  2  0  0  0  0
  2  6  1  0  0  0  0
  3  7  1  0  0  0  0
  3 19  1  0  0  0  0
  3 20  1  0  0  0  0
  4  8  1  0  0  0  0
  4 21  1  0  0  0  0
  5  9  1  0  0  0  0
  6 22  1  0  0  0  0
  6 23  1  0  0  0  0
  7 10  1  0  0  0  0
  7 24  1  0  0  0  0
  8  9  2  0  0  0  0
  9 11  1  0  0  0  0
 10 12  1  0  0  0  0
 10 13  2  0  0  0  0
 11 25  1  0  0  0  0
 11 26  1  0  0  0  0
 11 27  1  0  0  0  0
 12 14  1  0  0  0  0
 12 15  1  0  0  0  0
 14 16  1  0  0  0  0
 14 28  1  0  0  0  0
 14 29  1  0  0  0  0
 15 17  2  0  0  0  0
 16 18  1  0  0  0  0
 16 30  1  0  0  0  0
 16 31  1  0  0  0  0
M  END
>  <DRUGBANK_ID>
DB13069

>  <COMMON_NAME>
Nimustine

>  <CAS_NUMBER>
42471-28-3

>  <UNII>
0S726V972K

>  <SYNONYMS>
Nimustina; Nimustine; Nimustinum

$$$$
