
 OpenBabel10282417243D

 19 19  0  0  0  0  0  0  0  0999 V2000
    0.9409   -0.0344   -0.0687 O   0  0  0  0  0  0  0  0  0  0  0  0
    0.3807    0.9470    0.6807 C   0  0  0  0  0  0  0  0  0  0  0  0
    1.1006    1.6735    1.3538 O   0  0  0  0  0  0  0  0  0  0  0  0
   -1.1391    0.9372    0.6558 C   0  0  0  0  0  0  0  0  0  0  0  0
   -1.6667    1.1253   -0.6805 N   0  0  0  0  0  0  0  0  0  0  0  0
   -1.9845    0.0013   -1.5475 C   0  0  0  0  0  0  0  0  0  0  0  0
   -1.9103    0.6610   -2.9361 C   0  0  0  0  0  0  0  0  0  0  0  0
   -2.1248    2.0573   -2.6000 N   0  0  0  0  0  0  0  0  0  0  0  0
   -1.7931    2.3298   -1.3092 C   0  0  0  0  0  0  0  0  0  0  0  0
   -1.6318    3.4866   -0.7954 N   0  0  0  0  0  0  0  0  0  0  0  0
    1.9034    0.1017    0.0611 H   0  0  0  0  0  0  0  0  0  0  0  0
   -1.4780   -0.0168    1.0765 H   0  0  0  0  0  0  0  0  0  0  0  0
   -1.5014    1.7236    1.3266 H   0  0  0  0  0  0  0  0  0  0  0  0
   -3.0090   -0.3319   -1.3440 H   0  0  0  0  0  0  0  0  0  0  0  0
   -1.3023   -0.8466   -1.4503 H   0  0  0  0  0  0  0  0  0  0  0  0
   -2.6552    0.2747   -3.6352 H   0  0  0  0  0  0  0  0  0  0  0  0
   -0.9080    0.5299   -3.3611 H   0  0  0  0  0  0  0  0  0  0  0  0
   -2.2722    2.7656   -3.3008 H   0  0  0  0  0  0  0  0  0  0  0  0
   -1.7914    4.1933   -1.5146 H   0  0  0  0  0  0  0  0  0  0  0  0
  1  2  1  0  0  0  0
  1 11  1  0  0  0  0
  2  3  2  0  0  0  0
  2  4  1  0  0  0  0
  4  5  1  0  0  0  0
  4 12  1  0  0  0  0
  4 13  1  0  0  0  0
  5  6  1  0  0  0  0
  5  9  1  0  0  0  0
  6  7  1  0  0  0  0
  6 14  1  0  0  0  0
  6 15  1  0  0  0  0
  7  8  1  0  0  0  0
  7 16  1  0  0  0  0
  7 17  1  0  0  0  0
  8  9  1  0  0  0  0
  8 18  1  0  0  0  0
  9 10  2  0  0  0  0
 10 19  1  0  0  0  0
M  END
>  <DRUGBANK_ID>
DB17624

>  <COMMON_NAME>
Cyclocreatine

>  <CAS_NUMBER>
35404-50-3

>  <UNII>
6732XGX1RK

>  <SYNONYMS>
1-carboxymethyl-2-imino-imidazolidine; 2-imino-1-imidazolidineacetic acid

$$$$
