
 OpenBabel10282417243D

265268  0  0  1  0  0  0  0  0999 V2000
    1.0971   -0.0195   -0.0136 Lu  0  1  0  0  0  0  0  0  0  0  0  0
   -2.9398    4.0178   -4.4888 C   0  0  0  0  0  0  0  0  0  0  0  0
   -3.3322    3.2350   -5.7312 C   0  0  0  0  0  0  0  0  0  0  0  0
   -3.4289    4.1812   -6.9168 C   0  0  0  0  0  0  0  0  0  0  0  0
   -2.0825    4.8493   -7.1430 C   0  0  0  0  0  0  0  0  0  0  0  0
   -1.0623    3.7365   -7.3203 C   0  0  2  0  0  0  0  0  0  0  0  0
   -1.1206    2.8296   -6.1648 N   0  0  0  0  0  0  0  0  0  0  0  0
   -0.3213    3.1159   -4.9648 C   0  0  0  0  0  0  0  0  0  0  0  0
   -0.3717    2.3318   -3.9658 O   0  0  0  0  0  0  0  0  0  0  0  0
    0.2700    4.5138   -5.0445 C   0  0  2  0  0  0  0  0  0  0  0  0
    0.5738    5.0162   -3.6424 C   0  0  0  0  0  0  0  0  0  0  0  0
   -0.6252    4.6548   -2.7808 C   0  0  0  0  0  0  0  0  0  0  0  0
   -1.6614    5.4138   -2.3898 C   0  0  0  0  0  0  0  0  0  0  0  0
   -2.6230    4.6216   -1.6992 N   0  0  0  0  0  0  0  0  0  0  0  0
   -2.1010    3.3142   -1.6384 C   0  0  0  0  0  0  0  0  0  0  0  0
   -0.8740    3.3208   -2.3105 C   0  0  0  0  0  0  0  0  0  0  0  0
   -0.1066    2.1609   -2.3605 C   0  0  0  0  0  0  0  0  0  0  0  0
   -0.5501    1.0473   -1.7288 C   0  0  0  0  0  0  0  0  0  0  0  0
   -1.7534    1.0457   -1.0488 C   0  0  0  0  0  0  0  0  0  0  0  0
   -2.5637    2.1749   -0.9944 C   0  0  0  0  0  0  0  0  0  0  0  0
   -0.6930    5.4171   -5.6907 N   0  0  0  0  0  0  0  0  0  0  0  0
   -0.3293    6.1113   -6.9344 C   0  0  0  0  0  0  0  0  0  0  0  0
   -1.1618    6.8922   -7.4931 O   0  0  0  0  0  0  0  0  0  0  0  0
    1.0426    5.8950   -7.5522 C   0  0  0  0  0  0  0  0  0  0  0  0
    2.0807    6.3094   -6.5975 N   0  0  0  0  0  0  0  0  0  0  0  0
    3.0762    5.3361   -6.1257 C   0  0  0  0  0  0  0  0  0  0  0  0
    3.9737    5.6944   -5.3004 O   0  0  0  0  0  0  0  0  0  0  0  0
    3.2244    3.8937   -6.5819 C   0  0  2  0  0  0  0  0  0  0  0  0
    2.8083    2.9610   -5.4562 C   0  0  0  0  0  0  0  0  0  0  0  0
    1.3117    2.6960   -5.4383 C   0  0  0  0  0  0  0  0  0  0  0  0
    0.5137    3.1818   -6.4507 C   0  0  0  0  0  0  0  0  0  0  0  0
   -0.8642    2.9414   -6.4613 C   0  0  0  0  0  0  0  0  0  0  0  0
   -1.4005    2.1701   -5.4095 C   0  0  0  0  0  0  0  0  0  0  0  0
   -2.7172    1.8673   -5.3503 O   0  0  0  0  0  0  0  0  0  0  0  0
   -0.5988    1.7160   -4.3896 C   0  0  0  0  0  0  0  0  0  0  0  0
    0.7586    1.9718   -4.4101 C   0  0  0  0  0  0  0  0  0  0  0  0
    4.6265    3.6347   -6.9398 N   0  0  0  0  0  0  0  0  0  0  0  0
    4.9703    3.2111   -8.3048 C   0  0  0  0  0  0  0  0  0  0  0  0
    6.1825    2.9871   -8.6143 O   0  0  0  0  0  0  0  0  0  0  0  0
    3.8703    3.0420   -9.3401 C   0  0  2  0  0  0  0  0  0  0  0  0
    2.8823    4.1910   -9.2219 C   0  0  0  0  0  0  0  0  0  0  0  0
    3.1717    1.7693   -9.1092 N   0  0  0  0  0  0  0  0  0  0  0  0
    3.1506    0.7413  -10.1598 C   0  0  0  0  0  0  0  0  0  0  0  0
    2.5466   -0.3589   -9.9602 O   0  0  0  0  0  0  0  0  0  0  0  0
    3.8512    0.9943  -11.4847 C   0  0  1  0  0  0  0  0  0  0  0  0
    3.2433    2.2160  -12.1542 C   0  0  0  0  0  0  0  0  0  0  0  0
    3.4148    3.4266  -11.2512 C   0  0  0  0  0  0  0  0  0  0  0  0
    4.8949    3.6684  -11.0037 C   0  0  0  0  0  0  0  0  0  0  0  0
    5.4879    4.8989  -11.3918 O   0  0  0  0  0  0  0  0  0  0  0  0
    5.6017    2.7693  -10.4494 O   0  0  0  0  0  0  0  0  0  0  0  0
    5.2826    1.2281  -11.2453 N   0  0  0  0  0  0  0  0  0  0  0  0
    6.2842    0.3412  -11.8545 C   0  0  0  0  0  0  0  0  0  0  0  0
    7.5217    0.5434  -11.6476 O   0  0  0  0  0  0  0  0  0  0  0  0
    5.8398   -0.8176  -12.7320 C   0  0  1  0  0  0  0  0  0  0  0  0
    4.9606   -1.7575  -11.9232 C   0  0  0  0  0  0  0  0  0  0  0  0
    3.7394   -1.0036  -11.4226 C   0  0  0  0  0  0  0  0  0  0  0  0
    2.9528   -0.4688  -12.6082 C   0  0  0  0  0  0  0  0  0  0  0  0
    1.6060   -0.8725  -12.8071 O   0  0  0  0  0  0  0  0  0  0  0  0
    3.5006    0.3397  -13.4215 O   0  0  0  0  0  0  0  0  0  0  0  0
    5.0792   -0.3004  -13.8787 N   0  0  0  0  0  0  0  0  0  0  0  0
    5.5508   -0.5531  -15.2478 C   0  0  0  0  0  0  0  0  0  0  0  0
    4.8932   -0.1060  -16.2391 O   0  0  0  0  0  0  0  0  0  0  0  0
    6.8251   -1.3492  -15.4779 C   0  0  1  0  0  0  0  0  0  0  0  0
    7.9929   -0.6397  -14.8122 C   0  0  0  0  0  0  0  0  0  0  0  0
    7.7308   -0.5232  -13.3195 C   0  0  0  0  0  0  0  0  0  0  0  0
    7.5751   -1.9124  -12.7225 C   0  0  0  0  0  0  0  0  0  0  0  0
    8.4600   -2.3497  -11.7017 O   0  0  0  0  0  0  0  0  0  0  0  0
    6.6529   -2.6824  -13.1370 O   0  0  0  0  0  0  0  0  0  0  0  0
    6.6745   -2.6927  -14.9005 N   0  0  0  0  0  0  0  0  0  0  0  0
    6.7859   -3.8792  -15.7611 C   0  0  0  0  0  0  0  0  0  0  0  0
    6.6557   -5.0407  -15.2619 O   0  0  0  0  0  0  0  0  0  0  0  0
    7.0568   -3.7170  -17.2479 C   0  0  1  0  0  0  0  0  0  0  0  0
    5.9371   -2.9076  -17.8816 C   0  0  0  0  0  0  0  0  0  0  0  0
    5.8689   -1.5377  -17.2266 C   0  0  0  0  0  0  0  0  0  0  0  0
    7.1913   -0.8149  -17.4247 C   0  0  0  0  0  0  0  0  0  0  0  0
    7.2263    0.4240  -18.1177 O   0  0  0  0  0  0  0  0  0  0  0  0
    8.2655   -1.3194  -16.9701 O   0  0  0  0  0  0  0  0  0  0  0  0
    8.3357   -3.0180  -17.4395 N   0  0  0  0  0  0  0  0  0  0  0  0
    9.4274   -3.6714  -18.1759 C   0  0  0  0  0  0  0  0  0  0  0  0
   10.5331   -3.0671  -18.3415 O   0  0  0  0  0  0  0  0  0  0  0  0
    9.2338   -5.0699  -18.7391 C   0  0  1  0  0  0  0  0  0  0  0  0
    8.9265   -6.0346  -17.6055 C   0  0  0  0  0  0  0  0  0  0  0  0
    7.6568   -5.5942  -16.8954 C   0  0  0  0  0  0  0  0  0  0  0  0
    6.5008   -5.5873  -17.8823 C   0  0  0  0  0  0  0  0  0  0  0  0
    5.3664   -6.4101  -17.6527 O   0  0  0  0  0  0  0  0  0  0  0  0
    6.5494   -4.8453  -18.9129 O   0  0  0  0  0  0  0  0  0  0  0  0
    8.1158   -5.0633  -19.6935 N   0  0  0  0  0  0  0  0  0  0  0  0
    8.3424   -5.4492  -21.0937 C   0  0  0  0  0  0  0  0  0  0  0  0
    7.3758   -5.4436  -21.9189 O   0  0  0  0  0  0  0  0  0  0  0  0
    9.7328   -5.8552  -21.5547 C   0  0  1  0  0  0  0  0  0  0  0  0
   10.6975   -4.7021  -21.3309 C   0  0  0  0  0  0  0  0  0  0  0  0
   10.7358   -4.3533  -19.8519 C   0  0  0  0  0  0  0  0  0  0  0  0
   11.1997   -5.5634  -19.0578 C   0  0  0  0  0  0  0  0  0  0  0  0
   12.3769   -5.4853  -18.2676 O   0  0  0  0  0  0  0  0  0  0  0  0
   10.5339   -6.6451  -19.1009 O   0  0  0  0  0  0  0  0  0  0  0  0
   10.1814   -7.0255  -20.7866 N   0  0  0  0  0  0  0  0  0  0  0  0
   10.5091   -8.2789  -21.4812 C   0  0  0  0  0  0  0  0  0  0  0  0
   10.8970   -9.2908  -20.8172 O   0  0  0  0  0  0  0  0  0  0  0  0
   10.3841   -8.3648  -22.9936 C   0  0  0  0  0  0  0  0  0  0  0  0
    8.9936   -8.0941  -23.3865 N   0  0  0  0  0  0  0  0  0  0  0  0
    8.5422   -9.1917  -24.2540 C   0  0  0  0  0  0  0  0  0  0  0  0
    8.0964  -10.4411  -23.5316 C   0  0  0  0  0  0  0  0  0  0  0  0
    6.7099  -10.3926  -23.0835 N   0  0  0  0  0  0  0  0  0  0  0  0
    6.2767  -11.7568  -22.7485 C   0  0  0  0  0  0  0  0  0  0  0  0
    7.1094  -12.2828  -21.5907 C   0  0  0  0  0  0  0  0  0  0  0  0
    6.4777  -12.6639  -20.3774 O   0  5  0  0  0  0  0  0  0  0  0  0
    8.3709  -12.3815  -21.7086 O   0  0  0  0  0  0  0  0  0  0  0  0
    6.5221   -9.5375  -21.9038 C   0  0  0  0  0  0  0  0  0  0  0  0
    5.1196   -8.9626  -21.8491 C   0  0  0  0  0  0  0  0  0  0  0  0
    5.0160   -7.6827  -22.5585 N   0  0  0  0  0  0  0  0  0  0  0  0
    3.6163   -7.4528  -22.9443 C   0  0  0  0  0  0  0  0  0  0  0  0
    2.7490   -7.4004  -21.6971 C   0  0  0  0  0  0  0  0  0  0  0  0
    2.0021   -6.2298  -21.4004 O   0  5  0  0  0  0  0  0  0  0  0  0
    2.6923   -8.4044  -20.9199 O   0  0  0  0  0  0  0  0  0  0  0  0
    5.4675   -6.5851  -21.6909 C   0  0  0  0  0  0  0  0  0  0  0  0
    5.9133   -5.3358  -22.4133 C   0  0  0  0  0  0  0  0  0  0  0  0
    7.3003   -5.3842  -22.8605 N   0  0  0  0  0  0  0  0  0  0  0  0
    8.1292   -5.9074  -21.7651 C   0  0  0  0  0  0  0  0  0  0  0  0
    7.7052   -7.3315  -21.4445 C   0  0  0  0  0  0  0  0  0  0  0  0
    8.6394   -8.3943  -21.5635 O   0  5  0  0  0  0  0  0  0  0  0  0
    6.5146   -7.5709  -21.0699 O   0  0  0  0  0  0  0  0  0  0  0  0
    7.4875   -6.2393  -24.0411 C   0  0  0  0  0  0  0  0  0  0  0  0
    8.8901   -6.8143  -24.0958 C   0  0  0  0  0  0  0  0  0  0  0  0
    0.3301    4.3373   -7.4231 C   0  0  0  0  0  0  0  0  0  0  0  0
    1.0291    4.1463   -8.4672 O   0  0  0  0  0  0  0  0  0  0  0  0
    0.8683    5.1392   -6.3149 N   0  0  0  0  0  0  0  0  0  0  0  0
    0.0598    5.3600   -5.1072 C   0  0  1  0  0  0  0  0  0  0  0  0
    0.7915    4.8001   -3.8982 C   0  0  0  0  0  0  0  0  0  0  0  0
    2.1310    5.5023   -3.7467 C   0  0  0  0  0  0  0  0  0  0  0  0
    2.4225    6.2272   -2.5609 O   0  0  0  0  0  0  0  0  0  0  0  0
    2.9901    5.4407   -4.6812 O   0  0  0  0  0  0  0  0  0  0  0  0
   -0.1684    6.8505   -4.9158 C   0  0  0  0  0  0  0  0  0  0  0  0
   -1.3509    7.3159   -4.9031 O   0  0  0  0  0  0  0  0  0  0  0  0
    0.9788    7.7538   -4.7452 N   0  0  0  0  0  0  0  0  0  0  0  0
    2.3466    7.2155   -4.7598 C   0  0  1  0  0  0  0  0  0  0  0  0
    3.1310    7.8556   -5.8936 C   0  0  0  0  0  0  0  0  0  0  0  0
    3.1810    9.3609   -5.6884 C   0  0  0  0  0  0  0  0  0  0  0  0
    3.8671   10.1777   -6.4792 C   0  0  0  0  0  0  0  0  0  0  0  0
    3.8018   11.5390   -6.3041 C   0  0  0  0  0  0  0  0  0  0  0  0
    3.1054   12.0810   -5.2598 C   0  0  0  0  0  0  0  0  0  0  0  0
    2.3778   11.2448   -4.5419 C   0  0  0  0  0  0  0  0  0  0  0  0
    2.5072    9.8362   -4.5755 C   0  0  0  0  0  0  0  0  0  0  0  0
    3.0267    7.5240   -3.4359 C   0  0  0  0  0  0  0  0  0  0  0  0
    3.5125    6.4274   -2.5860 N   0  0  0  0  0  0  0  0  0  0  0  0
    3.1753    8.7301   -3.0638 O   0  0  0  0  0  0  0  0  0  0  0  0
   -1.9920    4.4880   -4.6481 H   0  0  0  0  0  0  0  0  0  0  0  0
   -2.8717    3.3516   -3.6542 H   0  0  0  0  0  0  0  0  0  0  0  0
   -3.6796    4.7648   -4.2895 H   0  0  0  0  0  0  0  0  0  0  0  0
   -2.5925    2.4880   -5.9305 H   0  0  0  0  0  0  0  0  0  0  0  0
   -4.2800    2.7647   -5.5719 H   0  0  0  0  0  0  0  0  0  0  0  0
   -3.7051    3.6302   -7.7914 H   0  0  0  0  0  0  0  0  0  0  0  0
   -4.1687    4.9282   -6.7175 H   0  0  0  0  0  0  0  0  0  0  0  0
   -2.1506    5.5154   -7.9776 H   0  0  0  0  0  0  0  0  0  0  0  0
   -1.8063    5.4003   -6.2684 H   0  0  0  0  0  0  0  0  0  0  0  0
   -1.2820    3.1903   -8.2138 H   0  0  0  0  0  0  0  0  0  0  0  0
   -1.7157    2.0018   -6.1957 H   0  0  0  0  0  0  0  0  0  0  0  0
    1.1735    4.4868   -5.6172 H   0  0  0  0  0  0  0  0  0  0  0  0
    1.4527    4.5562   -3.2414 H   0  0  0  0  0  0  0  0  0  0  0  0
    0.6995    6.0787   -3.6510 H   0  0  0  0  0  0  0  0  0  0  0  0
   -1.7520    6.4644   -2.5711 H   0  0  0  0  0  0  0  0  0  0  0  0
   -3.5160    4.9391   -1.3220 H   0  0  0  0  0  0  0  0  0  0  0  0
    0.8224    2.1487   -2.8913 H   0  0  0  0  0  0  0  0  0  0  0  0
    0.0403    0.1553   -1.7568 H   0  0  0  0  0  0  0  0  0  0  0  0
   -2.0698    0.1527   -0.5514 H   0  0  0  0  0  0  0  0  0  0  0  0
   -3.5015    2.1657   -0.4793 H   0  0  0  0  0  0  0  0  0  0  0  0
   -1.6136    5.5622   -5.2761 H   0  0  0  0  0  0  0  0  0  0  0  0
    1.1682    4.8590   -7.7882 H   0  0  0  0  0  0  0  0  0  0  0  0
    1.1270    6.4772   -8.4459 H   0  0  0  0  0  0  0  0  0  0  0  0
    2.1104    7.2724   -6.2625 H   0  0  0  0  0  0  0  0  0  0  0  0
    2.6013    3.7236   -7.4349 H   0  0  0  0  0  0  0  0  0  0  0  0
    3.3351    2.0300   -5.4796 H   0  0  0  0  0  0  0  0  0  0  0  0
    3.0847    3.5051   -4.5773 H   0  0  0  0  0  0  0  0  0  0  0  0
    0.9549    3.7521   -7.2413 H   0  0  0  0  0  0  0  0  0  0  0  0
   -1.4887    3.3285   -7.2392 H   0  0  0  0  0  0  0  0  0  0  0  0
   -3.3349    2.1787   -6.0725 H   0  0  0  0  0  0  0  0  0  0  0  0
   -1.0265    1.1639   -3.5789 H   0  0  0  0  0  0  0  0  0  0  0  0
    1.3820    1.6042   -3.6219 H   0  0  0  0  0  0  0  0  0  0  0  0
    5.3607    3.7489   -6.2411 H   0  0  0  0  0  0  0  0  0  0  0  0
    4.2999    3.0403  -10.3200 H   0  0  0  0  0  0  0  0  0  0  0  0
    2.3031    3.8870   -8.3751 H   0  0  0  0  0  0  0  0  0  0  0  0
    3.1566    5.2198   -9.1156 H   0  0  0  0  0  0  0  0  0  0  0  0
    2.3035    4.0665  -10.1132 H   0  0  0  0  0  0  0  0  0  0  0  0
    2.7015    1.5996   -8.2201 H   0  0  0  0  0  0  0  0  0  0  0  0
    3.7305    0.1421  -12.1204 H   0  0  0  0  0  0  0  0  0  0  0  0
    3.7365    2.3940  -13.0870 H   0  0  0  0  0  0  0  0  0  0  0  0
    2.2014    2.0457  -12.3285 H   0  0  0  0  0  0  0  0  0  0  0  0
    2.9868    4.2866  -11.7225 H   0  0  0  0  0  0  0  0  0  0  0  0
    2.9216    3.2485  -10.3185 H   0  0  0  0  0  0  0  0  0  0  0  0
    4.9318    5.6063  -11.8279 H   0  0  0  0  0  0  0  0  0  0  0  0
    5.5808    2.0058  -10.6565 H   0  0  0  0  0  0  0  0  0  0  0  0
    6.6995   -1.3483  -13.0844 H   0  0  0  0  0  0  0  0  0  0  0  0
    4.6478   -2.5732  -12.5409 H   0  0  0  0  0  0  0  0  0  0  0  0
    5.5143   -2.1339  -11.0885 H   0  0  0  0  0  0  0  0  0  0  0  0
    3.1205   -1.6652  -10.8532 H   0  0  0  0  0  0  0  0  0  0  0  0
    4.0522   -0.1878  -10.8049 H   0  0  0  0  0  0  0  0  0  0  0  0
    1.1750   -1.5087  -12.1671 H   0  0  0  0  0  0  0  0  0  0  0  0
    4.2241    0.2338  -13.7243 H   0  0  0  0  0  0  0  0  0  0  0  0
    7.0096   -1.4312  -16.5286 H   0  0  0  0  0  0  0  0  0  0  0  0
    8.8899   -1.2001  -14.9742 H   0  0  0  0  0  0  0  0  0  0  0  0
    8.1026    0.3382  -15.2325 H   0  0  0  0  0  0  0  0  0  0  0  0
    8.5529   -0.0237  -12.8510 H   0  0  0  0  0  0  0  0  0  0  0  0
    6.8338    0.0372  -13.1576 H   0  0  0  0  0  0  0  0  0  0  0  0
    9.1856   -1.7438  -11.3756 H   0  0  0  0  0  0  0  0  0  0  0  0
    6.4927   -2.8016  -13.9028 H   0  0  0  0  0  0  0  0  0  0  0  0
    7.1049   -4.6814  -17.7090 H   0  0  0  0  0  0  0  0  0  0  0  0
    6.1279   -2.7934  -18.9282 H   0  0  0  0  0  0  0  0  0  0  0  0
    5.0062   -3.4165  -17.7421 H   0  0  0  0  0  0  0  0  0  0  0  0
    5.0807   -0.9680  -17.6727 H   0  0  0  0  0  0  0  0  0  0  0  0
    5.6781   -1.6519  -16.1799 H   0  0  0  0  0  0  0  0  0  0  0  0
    6.3811    0.8210  -18.4754 H   0  0  0  0  0  0  0  0  0  0  0  0
    8.4656   -2.0795  -17.0615 H   0  0  0  0  0  0  0  0  0  0  0  0
   10.1276   -5.3799  -19.2389 H   0  0  0  0  0  0  0  0  0  0  0  0
    8.7903   -7.0191  -18.0020 H   0  0  0  0  0  0  0  0  0  0  0  0
    9.7403   -6.0394  -16.9108 H   0  0  0  0  0  0  0  0  0  0  0  0
    7.4405   -6.2733  -16.0974 H   0  0  0  0  0  0  0  0  0  0  0  0
    7.7931   -4.6097  -16.4989 H   0  0  0  0  0  0  0  0  0  0  0  0
    5.3281   -6.9940  -16.8418 H   0  0  0  0  0  0  0  0  0  0  0  0
    7.1828   -4.7909  -19.3842 H   0  0  0  0  0  0  0  0  0  0  0  0
    9.7059   -6.1007  -22.5958 H   0  0  0  0  0  0  0  0  0  0  0  0
   11.6763   -4.9879  -21.6554 H   0  0  0  0  0  0  0  0  0  0  0  0
   10.3710   -3.8502  -21.8899 H   0  0  0  0  0  0  0  0  0  0  0  0
   11.4149   -3.5416  -19.6944 H   0  0  0  0  0  0  0  0  0  0  0  0
    9.7571   -4.0675  -19.5275 H   0  0  0  0  0  0  0  0  0  0  0  0
   12.9008   -4.6342  -18.2336 H   0  0  0  0  0  0  0  0  0  0  0  0
   10.2653   -6.9679  -19.7717 H   0  0  0  0  0  0  0  0  0  0  0  0
   11.0299   -7.6419  -23.4465 H   0  0  0  0  0  0  0  0  0  0  0  0
   10.6623   -9.3453  -23.3194 H   0  0  0  0  0  0  0  0  0  0  0  0
    7.6808   -8.8252  -24.7724 H   0  0  0  0  0  0  0  0  0  0  0  0
    9.3514   -9.4553  -24.9025 H   0  0  0  0  0  0  0  0  0  0  0  0
    8.1732  -11.2503  -24.2274 H   0  0  0  0  0  0  0  0  0  0  0  0
    8.7238  -10.5792  -22.6760 H   0  0  0  0  0  0  0  0  0  0  0  0
    5.2441  -11.7444  -22.4684 H   0  0  0  0  0  0  0  0  0  0  0  0
    6.4079  -12.3918  -23.5996 H   0  0  0  0  0  0  0  0  0  0  0  0
    6.6733  -10.1353  -21.0294 H   0  0  0  0  0  0  0  0  0  0  0  0
    7.2262   -8.7327  -21.9426 H   0  0  0  0  0  0  0  0  0  0  0  0
    4.4615   -9.6572  -22.3280 H   0  0  0  0  0  0  0  0  0  0  0  0
    4.8490   -8.8115  -20.8250 H   0  0  0  0  0  0  0  0  0  0  0  0
    3.5394   -6.5248  -23.4714 H   0  0  0  0  0  0  0  0  0  0  0  0
    3.2849   -8.2503  -23.5760 H   0  0  0  0  0  0  0  0  0  0  0  0
    4.6185   -6.3019  -21.1045 H   0  0  0  0  0  0  0  0  0  0  0  0
    6.2905   -6.9416  -21.1075 H   0  0  0  0  0  0  0  0  0  0  0  0
    5.3042   -5.2447  -23.2883 H   0  0  0  0  0  0  0  0  0  0  0  0
    5.8003   -4.5032  -21.7507 H   0  0  0  0  0  0  0  0  0  0  0  0
    9.1575   -5.8995  -22.0608 H   0  0  0  0  0  0  0  0  0  0  0  0
    8.0028   -5.2938  -20.8977 H   0  0  0  0  0  0  0  0  0  0  0  0
    6.7943   -7.0521  -23.9797 H   0  0  0  0  0  0  0  0  0  0  0  0
    7.3160   -5.6573  -24.9225 H   0  0  0  0  0  0  0  0  0  0  0  0
    9.5482   -6.1197  -23.6169 H   0  0  0  0  0  0  0  0  0  0  0  0
    9.1606   -6.9653  -25.1200 H   0  0  0  0  0  0  0  0  0  0  0  0
    1.8027    5.5423   -6.3838 H   0  0  0  0  0  0  0  0  0  0  0  0
   -0.8831    4.8656   -5.2139 H   0  0  0  0  0  0  0  0  0  0  0  0
    0.2030    4.9608   -3.0192 H   0  0  0  0  0  0  0  0  0  0  0  0
    0.9521    3.7508   -4.0330 H   0  0  0  0  0  0  0  0  0  0  0  0
    1.7465    6.2756   -1.8256 H   0  0  0  0  0  0  0  0  0  0  0  0
    0.8257    8.7540   -4.6168 H   0  0  0  0  0  0  0  0  0  0  0  0
    2.3114    6.1559   -4.9043 H   0  0  0  0  0  0  0  0  0  0  0  0
    4.1266    7.4638   -5.9042 H   0  0  0  0  0  0  0  0  0  0  0  0
    2.6522    7.6384   -6.8256 H   0  0  0  0  0  0  0  0  0  0  0  0
    4.4763    9.7722   -7.2598 H   0  0  0  0  0  0  0  0  0  0  0  0
    4.3032   12.1841   -6.9950 H   0  0  0  0  0  0  0  0  0  0  0  0
    3.1476   13.1265   -5.0362 H   0  0  0  0  0  0  0  0  0  0  0  0
    1.6391   11.6614   -3.8895 H   0  0  0  0  0  0  0  0  0  0  0  0
    2.1196    9.1962   -3.8106 H   0  0  0  0  0  0  0  0  0  0  0  0
    3.9688    6.6345   -1.6976 H   0  0  0  0  0  0  0  0  0  0  0  0
    3.3932    5.4594   -2.8847 H   0  0  0  0  0  0  0  0  0  0  0  0
  2  3  1  0  0  0  0
  2146  1  0  0  0  0
  2147  1  0  0  0  0
  2148  1  0  0  0  0
  3  4  1  0  0  0  0
  3149  1  0  0  0  0
  3150  1  0  0  0  0
  4  5  1  0  0  0  0
  4151  1  0  0  0  0
  4152  1  0  0  0  0
  5153  1  0  0  0  0
  5154  1  0  0  0  0
  6124  1  0  0  0  0
  6155  1  6  0  0  0
  6  7  1  0  0  0  0
  6  5  1  0  0  0  0
  7  8  1  0  0  0  0
  7156  1  0  0  0  0
  8  9  2  0  0  0  0
 10 21  1  0  0  0  0
 10157  1  6  0  0  0
 10 11  1  0  0  0  0
 10  8  1  0  0  0  0
 11 12  1  0  0  0  0
 11158  1  0  0  0  0
 11159  1  0  0  0  0
 12 13  2  0  0  0  0
 12 16  1  0  0  0  0
 13 14  1  0  0  0  0
 13160  1  0  0  0  0
 14 15  1  0  0  0  0
 14161  1  0  0  0  0
 15 16  2  0  0  0  0
 15 20  1  0  0  0  0
 16 17  1  0  0  0  0
 17 18  2  0  0  0  0
 17162  1  0  0  0  0
 18 19  1  0  0  0  0
 18163  1  0  0  0  0
 19 20  2  0  0  0  0
 19164  1  0  0  0  0
 20165  1  0  0  0  0
 21 22  1  0  0  0  0
 21166  1  0  0  0  0
 22 23  2  0  0  0  0
 22 24  1  0  0  0  0
 24 25  1  0  0  0  0
 24167  1  0  0  0  0
 24168  1  0  0  0  0
 25 26  1  0  0  0  0
 25169  1  0  0  0  0
 26 27  2  0  0  0  0
 28 37  1  0  0  0  0
 28170  1  6  0  0  0
 28 29  1  0  0  0  0
 28 26  1  0  0  0  0
 29 30  1  0  0  0  0
 29171  1  0  0  0  0
 29172  1  0  0  0  0
 30 31  2  0  0  0  0
 30 36  1  0  0  0  0
 31 32  1  0  0  0  0
 31173  1  0  0  0  0
 32 33  2  0  0  0  0
 32174  1  0  0  0  0
 33 34  1  0  0  0  0
 33 35  1  0  0  0  0
 34175  1  0  0  0  0
 35 36  2  0  0  0  0
 35176  1  0  0  0  0
 36177  1  0  0  0  0
 37 38  1  0  0  0  0
 37178  1  0  0  0  0
 38 39  2  0  0  0  0
 40 42  1  0  0  0  0
 40179  1  6  0  0  0
 40 41  1  0  0  0  0
 40 38  1  0  0  0  0
 41180  1  0  0  0  0
 41181  1  0  0  0  0
 41182  1  0  0  0  0
 42 43  1  0  0  0  0
 42183  1  0  0  0  0
 43 44  2  0  0  0  0
 45 43  1  0  0  0  0
 45 46  1  0  0  0  0
 45 51  1  0  0  0  0
 45184  1  6  0  0  0
 46 47  1  0  0  0  0
 46185  1  0  0  0  0
 46186  1  0  0  0  0
 47 48  1  0  0  0  0
 47187  1  0  0  0  0
 47188  1  0  0  0  0
 48 49  1  0  0  0  0
 48 50  2  0  0  0  0
 49189  1  0  0  0  0
 51 52  1  0  0  0  0
 51190  1  0  0  0  0
 52 53  2  0  0  0  0
 54 52  1  0  0  0  0
 54 55  1  0  0  0  0
 54 60  1  0  0  0  0
 54191  1  6  0  0  0
 55 56  1  0  0  0  0
 55192  1  0  0  0  0
 55193  1  0  0  0  0
 56 57  1  0  0  0  0
 56194  1  0  0  0  0
 56195  1  0  0  0  0
 57 58  1  0  0  0  0
 57 59  2  0  0  0  0
 58196  1  0  0  0  0
 60 61  1  0  0  0  0
 60197  1  0  0  0  0
 61 62  2  0  0  0  0
 63 61  1  0  0  0  0
 63 64  1  0  0  0  0
 63 69  1  0  0  0  0
 63198  1  6  0  0  0
 64 65  1  0  0  0  0
 64199  1  0  0  0  0
 64200  1  0  0  0  0
 65 66  1  0  0  0  0
 65201  1  0  0  0  0
 65202  1  0  0  0  0
 66 67  1  0  0  0  0
 66 68  2  0  0  0  0
 67203  1  0  0  0  0
 69 70  1  0  0  0  0
 69204  1  0  0  0  0
 70 71  2  0  0  0  0
 72 70  1  0  0  0  0
 72 73  1  0  0  0  0
 72 78  1  0  0  0  0
 72205  1  6  0  0  0
 73 74  1  0  0  0  0
 73206  1  0  0  0  0
 73207  1  0  0  0  0
 74 75  1  0  0  0  0
 74208  1  0  0  0  0
 74209  1  0  0  0  0
 75 76  1  0  0  0  0
 75 77  2  0  0  0  0
 76210  1  0  0  0  0
 78 79  1  0  0  0  0
 78211  1  0  0  0  0
 79 80  2  0  0  0  0
 81 79  1  0  0  0  0
 81 82  1  0  0  0  0
 81 87  1  0  0  0  0
 81212  1  6  0  0  0
 82 83  1  0  0  0  0
 82213  1  0  0  0  0
 82214  1  0  0  0  0
 83 84  1  0  0  0  0
 83215  1  0  0  0  0
 83216  1  0  0  0  0
 84 85  1  0  0  0  0
 84 86  2  0  0  0  0
 85217  1  0  0  0  0
 87 88  1  0  0  0  0
 87218  1  0  0  0  0
 88 89  2  0  0  0  0
 90 88  1  0  0  0  0
 90 91  1  0  0  0  0
 90 96  1  0  0  0  0
 90219  1  6  0  0  0
 91 92  1  0  0  0  0
 91220  1  0  0  0  0
 91221  1  0  0  0  0
 92 93  1  0  0  0  0
 92222  1  0  0  0  0
 92223  1  0  0  0  0
 93 94  1  0  0  0  0
 93 95  2  0  0  0  0
 94224  1  0  0  0  0
 96 97  1  0  0  0  0
 96225  1  0  0  0  0
 97 98  2  0  0  0  0
 97 99  1  0  0  0  0
 99100  1  0  0  0  0
 99226  1  0  0  0  0
 99227  1  0  0  0  0
100101  1  0  0  0  0
100123  1  0  0  0  0
101102  1  0  0  0  0
101228  1  0  0  0  0
101229  1  0  0  0  0
102103  1  0  0  0  0
102230  1  0  0  0  0
102231  1  0  0  0  0
103104  1  0  0  0  0
103108  1  0  0  0  0
104105  1  0  0  0  0
104232  1  0  0  0  0
104233  1  0  0  0  0
105106  1  0  0  0  0
105107  2  0  0  0  0
108109  1  0  0  0  0
108234  1  0  0  0  0
108235  1  0  0  0  0
109110  1  0  0  0  0
109236  1  0  0  0  0
109237  1  0  0  0  0
110111  1  0  0  0  0
110115  1  0  0  0  0
111112  1  0  0  0  0
111238  1  0  0  0  0
111239  1  0  0  0  0
112113  1  0  0  0  0
112114  2  0  0  0  0
115116  1  0  0  0  0
115240  1  0  0  0  0
115241  1  0  0  0  0
116117  1  0  0  0  0
116242  1  0  0  0  0
116243  1  0  0  0  0
117118  1  0  0  0  0
117122  1  0  0  0  0
118119  1  0  0  0  0
118244  1  0  0  0  0
118245  1  0  0  0  0
119120  1  0  0  0  0
119121  2  0  0  0  0
122123  1  0  0  0  0
122246  1  0  0  0  0
122247  1  0  0  0  0
123248  1  0  0  0  0
123249  1  0  0  0  0
124125  2  0  0  0  0
124126  1  0  0  0  0
126250  1  0  0  0  0
127126  1  0  0  0  0
127128  1  0  0  0  0
127132  1  0  0  0  0
127251  1  6  0  0  0
128129  1  0  0  0  0
128252  1  0  0  0  0
128253  1  0  0  0  0
129130  1  0  0  0  0
129131  2  0  0  0  0
130254  1  0  0  0  0
132133  2  0  0  0  0
132134  1  0  0  0  0
134255  1  0  0  0  0
135134  1  0  0  0  0
135136  1  0  0  0  0
135143  1  0  0  0  0
135256  1  6  0  0  0
136137  1  0  0  0  0
136257  1  0  0  0  0
136258  1  0  0  0  0
137138  2  0  0  0  0
137142  1  0  0  0  0
138139  1  0  0  0  0
138259  1  0  0  0  0
139140  2  0  0  0  0
139260  1  0  0  0  0
140141  1  0  0  0  0
140261  1  0  0  0  0
141142  2  0  0  0  0
141262  1  0  0  0  0
142263  1  0  0  0  0
143144  1  0  0  0  0
143145  2  0  0  0  0
144264  1  0  0  0  0
144265  1  0  0  0  0
M  ISO  1   1 177
M  CHG  4   1   3 106  -1 113  -1 120  -1
M  END
>  <DRUGBANK_ID>
DB17503

>  <COMMON_NAME>
PP-F11N lutetium Lu-177

>  <CAS_NUMBER>
1771736-69-6

>  <UNII>
639NVQ0SXF

>  <SYNONYMS>
Lutetium lu 177 pp-f11n

$$$$
