
 OpenBabel10282417213D

 40 41  0  0  0  0  0  0  0  0999 V2000
   -0.7514   -0.1902   -1.6894 Cu  0  2  0  0  0  0  0  0  0  0  0  0
    0.0067    1.6019    0.3889 O   0  0  0  0  0  0  0  0  0  0  0  0
    1.1865    0.7731    0.5008 C   0  0  0  0  0  0  0  0  0  0  0  0
    0.8861   -0.7099    0.9287 C   0  0  3  0  0  0  0  0  0  0  0  0
   -0.7518   -0.5268    0.5123 C   0  0  0  0  0  0  0  0  0  0  0  0
   -1.1562    0.8287    0.4432 C   0  0  0  0  0  0  0  0  0  0  0  0
    2.3745   -1.4617    0.4730 C   0  0  0  0  0  0  0  0  0  0  0  0
    3.2673   -0.8625   -0.5622 C   0  0  3  0  0  0  0  0  0  0  0  0
    3.5761    0.3846    0.1450 C   0  0  0  0  0  0  0  0  0  0  0  0
    2.4236    1.3064    0.3208 C   0  0  0  0  0  0  0  0  0  0  0  0
   -2.5319    1.2046    0.1045 C   0  0  0  0  0  0  0  0  0  0  0  0
   -3.5317    0.1846   -0.0577 C   0  0  0  0  0  0  0  0  0  0  0  0
   -3.0942   -1.1384    0.0145 C   0  0  0  0  0  0  0  0  0  0  0  0
   -1.7425   -1.4987    0.1048 C   0  0  0  0  0  0  0  0  0  0  0  0
    2.8081   -2.5383    0.9450 O   0  0  0  0  0  0  0  0  0  0  0  0
    4.6776    0.5831    0.7161 O   0  0  0  0  0  0  0  0  0  0  0  0
    0.6466   -2.0917    0.4102 C   0  0  0  0  0  0  0  0  0  0  0  0
   -4.0964   -2.3297    0.0325 C   0  0  0  0  0  0  0  0  0  0  0  0
   -1.5078   -2.6631   -0.3197 O   0  5  0  0  0  0  0  0  0  0  0  0
   -4.7681    0.3745   -0.2669 O   0  5  0  0  0  0  0  0  0  0  0  0
   -2.9878    2.6429   -0.1323 C   0  0  0  0  0  0  0  0  0  0  0  0
   -2.1095    3.4898   -0.3031 O   0  0  0  0  0  0  0  0  0  0  0  0
   -4.4853    2.9957   -0.2272 C   0  0  0  0  0  0  0  0  0  0  0  0
    2.9534   -0.8442   -2.0677 C   0  0  0  0  0  0  0  0  0  0  0  0
    3.3753   -1.7355   -2.8159 O   0  0  0  0  0  0  0  0  0  0  0  0
    2.0476    0.1683   -2.7482 C   0  0  0  0  0  0  0  0  0  0  0  0
    4.1419   -1.5399   -0.5297 H   0  0  0  0  0  0  0  0  0  0  0  0
    2.6801    2.3453    0.1459 H   0  0  0  0  0  0  0  0  0  0  0  0
    0.9383   -2.1973   -0.6605 H   0  0  0  0  0  0  0  0  0  0  0  0
    0.8245   -2.4459    1.4493 H   0  0  0  0  0  0  0  0  0  0  0  0
    0.3250   -3.1370    0.5017 H   0  0  0  0  0  0  0  0  0  0  0  0
   -3.9218   -3.0076   -0.8141 H   0  0  0  0  0  0  0  0  0  0  0  0
   -3.9383   -2.8873    0.9677 H   0  0  0  0  0  0  0  0  0  0  0  0
   -5.1493   -2.0517    0.0073 H   0  0  0  0  0  0  0  0  0  0  0  0
   -4.9445    2.5721   -1.1334 H   0  0  0  0  0  0  0  0  0  0  0  0
   -5.0092    2.6511    0.6742 H   0  0  0  0  0  0  0  0  0  0  0  0
   -4.6545    4.0701   -0.2890 H   0  0  0  0  0  0  0  0  0  0  0  0
    1.0303   -0.2068   -2.7892 H   0  0  0  0  0  0  0  0  0  0  0  0
    2.1217    1.1603   -2.3125 H   0  0  0  0  0  0  0  0  0  0  0  0
    2.2658    0.2678   -3.8214 H   0  0  0  0  0  0  0  0  0  0  0  0
  2  3  1  0  0  0  0
  2  6  1  0  0  0  0
  3  4  1  0  0  0  0
  3 10  2  0  0  0  0
  4  5  1  0  0  0  0
  4  7  1  0  0  0  0
  4 17  1  0  0  0  0
  5  6  1  0  0  0  0
  5 14  2  0  0  0  0
  6 11  2  0  0  0  0
  7  8  1  0  0  0  0
  7 15  2  0  0  0  0
  8  9  1  0  0  0  0
  8 24  1  0  0  0  0
  8 27  1  0  0  0  0
  9 10  1  0  0  0  0
  9 16  2  0  0  0  0
 10 28  1  0  0  0  0
 11 12  1  0  0  0  0
 11 21  1  0  0  0  0
 12 13  2  0  0  0  0
 12 20  1  0  0  0  0
 13 14  1  0  0  0  0
 13 18  1  0  0  0  0
 14 19  1  0  0  0  0
 17 29  1  0  0  0  0
 17 30  1  0  0  0  0
 17 31  1  0  0  0  0
 18 32  1  0  0  0  0
 18 33  1  0  0  0  0
 18 34  1  0  0  0  0
 21 22  2  0  0  0  0
 21 23  1  0  0  0  0
 23 35  1  0  0  0  0
 23 36  1  0  0  0  0
 23 37  1  0  0  0  0
 24 25  2  0  0  0  0
 24 26  1  0  0  0  0
 26 38  1  0  0  0  0
 26 39  1  0  0  0  0
 26 40  1  0  0  0  0
M  CHG  3   1   2  19  -1  20  -1
M  END
>  <DRUGBANK_ID>
DB13830

>  <COMMON_NAME>
Copper usnate

>  <UNII>
2EV5P25E2S

$$$$
