
 OpenBabel10282417173D

 37 39  0  0  0  0  0  0  0  0999 V2000
    1.4891   -1.3841   -0.0562 C   0  0  0  0  0  0  0  0  0  0  0  0
    2.5699    0.6714   -0.0353 C   0  0  0  0  0  0  0  0  0  0  0  0
    1.4169    1.4066   -0.0164 C   0  0  0  0  0  0  0  0  0  0  0  0
    0.2695   -0.7821   -0.0175 C   0  0  0  0  0  0  0  0  0  0  0  0
    0.2617    0.6744    0.0408 C   0  0  0  0  0  0  0  0  0  0  0  0
   -0.8787   -1.5939    0.0029 C   0  0  0  0  0  0  0  0  0  0  0  0
   -1.8976    0.3940    0.4400 C   0  0  0  0  0  0  0  0  0  0  0  0
   -2.0406   -0.9623    0.2080 C   0  0  0  0  0  0  0  0  0  0  0  0
    2.6405   -0.6871   -0.0471 N   0  0  0  0  0  0  0  0  0  0  0  0
   -0.9089    1.3113    0.2544 C   0  0  0  0  0  0  0  0  0  0  0  0
   -0.8945    3.6901    1.4256 O   0  0  0  0  0  0  0  0  0  0  0  0
   -0.6778    3.5563   -1.0818 O   0  0  0  0  0  0  0  0  0  0  0  0
   -1.2930    3.1128    0.1400 S   0  0  0  0  0  0  0  0  0  0  0  0
   -3.9663    3.3349    1.1112 C   0  0  0  0  0  0  0  0  0  0  0  0
   -4.2192    1.8721    1.4051 C   0  0  0  0  0  0  0  0  0  0  0  0
   -3.7992    1.4418   -1.1873 C   0  0  0  0  0  0  0  0  0  0  0  0
   -3.0314    3.4743   -0.0667 N   0  0  0  0  0  0  0  0  0  0  0  0
   -4.5970    1.1104    0.1040 N   0  0  0  0  0  0  0  0  0  0  0  0
   -3.6313    2.9367   -1.3534 C   0  0  3  0  0  0  0  0  0  0  0  0
   -5.0340    3.3633   -1.7305 C   0  0  0  0  0  0  0  0  0  0  0  0
    1.5616   -2.4662   -0.0533 H   0  0  0  0  0  0  0  0  0  0  0  0
    3.5152    1.1940   -0.0124 H   0  0  0  0  0  0  0  0  0  0  0  0
    1.4325    2.4904    0.0208 H   0  0  0  0  0  0  0  0  0  0  0  0
   -0.9037   -2.6740   -0.0892 H   0  0  0  0  0  0  0  0  0  0  0  0
   -2.7501    0.8980    0.6084 H   0  0  0  0  0  0  0  0  0  0  0  0
   -3.0224   -1.4316    0.1682 H   0  0  0  0  0  0  0  0  0  0  0  0
   -3.5852    3.8741    1.9861 H   0  0  0  0  0  0  0  0  0  0  0  0
   -4.9438    3.7709    0.8922 H   0  0  0  0  0  0  0  0  0  0  0  0
   -3.3045    1.5795    1.9725 H   0  0  0  0  0  0  0  0  0  0  0  0
   -4.9397    1.6357    2.1913 H   0  0  0  0  0  0  0  0  0  0  0  0
   -4.2395    0.9017   -2.0324 H   0  0  0  0  0  0  0  0  0  0  0  0
   -2.7696    1.1067   -1.3454 H   0  0  0  0  0  0  0  0  0  0  0  0
   -4.5263    0.1079    0.2813 H   0  0  0  0  0  0  0  0  0  0  0  0
   -2.9553    3.2077   -2.1752 H   0  0  0  0  0  0  0  0  0  0  0  0
   -5.1193    4.4238   -1.9349 H   0  0  0  0  0  0  0  0  0  0  0  0
   -5.3126    2.7998   -2.6354 H   0  0  0  0  0  0  0  0  0  0  0  0
   -5.7685    3.0744   -0.9723 H   0  0  0  0  0  0  0  0  0  0  0  0
  1  9  2  0  0  0  0
  1  4  1  0  0  0  0
  1 21  1  0  0  0  0
  2  3  2  0  0  0  0
  2 22  1  0  0  0  0
  3  5  1  0  0  0  0
  3 23  1  0  0  0  0
  5  4  1  0  0  0  0
  5 10  2  0  0  0  0
  6  4  2  0  0  0  0
  6  8  1  0  0  0  0
  6 24  1  0  0  0  0
  7  8  2  0  0  0  0
  7 25  1  0  0  0  0
  8 26  1  0  0  0  0
  9  2  1  0  0  0  0
 10  7  1  0  0  0  0
 10 13  1  0  0  0  0
 13 11  2  0  0  0  0
 13 12  2  0  0  0  0
 13 17  1  0  0  0  0
 14 15  1  0  0  0  0
 14 27  1  0  0  0  0
 14 28  1  0  0  0  0
 15 18  1  0  0  0  0
 15 29  1  0  0  0  0
 15 30  1  0  0  0  0
 16 19  1  0  0  0  0
 16 31  1  0  0  0  0
 16 32  1  0  0  0  0
 17 14  1  0  0  0  0
 17 19  1  0  0  0  0
 18 16  1  0  0  0  0
 18 33  1  0  0  0  0
 19 20  1  0  0  0  0
 19 34  1  0  0  0  0
 20 35  1  0  0  0  0
 20 36  1  0  0  0  0
 20 37  1  0  0  0  0
M  END
>  <DRUGBANK_ID>
DB07996

>  <COMMON_NAME>
5-(2-methylpiperazine-1-sulfonyl)isoquinoline

>  <CAS_NUMBER>
84477-87-2

>  <UNII>
487H9Q0F9N

>  <SYNONYMS>
1-(5-Isoquinolinesulfonyl)-2-methylpiperazine; 1-(5-Isoquinolinylsulfonyl)-2-methylpiperazine

$$$$
