
 OpenBabel10282417243D

 45 48  0  0  1  0  0  0  0  0999 V2000
   -0.2863    1.3870    1.5222 C   0  0  0  0  0  0  0  0  0  0  0  0
    0.5077    1.4885    0.2265 C   0  0  1  0  0  0  0  0  0  0  0  0
   -0.2625    1.7755   -1.0434 C   0  0  0  0  0  0  0  0  0  0  0  0
   -0.5024    3.1817   -0.9831 O   0  0  0  0  0  0  0  0  0  0  0  0
    0.6376    3.7163   -0.2813 C   0  0  0  0  0  0  0  0  0  0  0  0
    0.1536    4.7516    0.7507 C   0  0  0  0  0  0  0  0  0  0  0  0
   -0.4228    5.9636    0.0398 C   0  0  0  0  0  0  0  0  0  0  0  0
    0.6394    6.4674   -0.8120 N   0  0  0  0  0  0  0  0  0  0  0  0
    0.9957    5.5582   -1.9093 C   0  0  0  0  0  0  0  0  0  0  0  0
    1.6245    4.3457   -1.2639 C   0  0  0  0  0  0  0  0  0  0  0  0
    1.0261    7.7788   -0.7785 C   0  0  0  0  0  0  0  0  0  0  0  0
    1.5837    8.3768    0.2199 N   0  0  0  0  0  0  0  0  0  0  0  0
    2.0044    9.6833    0.2010 C   0  0  0  0  0  0  0  0  0  0  0  0
    2.5793   10.1772    1.1785 O   0  0  0  0  0  0  0  0  0  0  0  0
    1.8171   10.5895   -0.9806 C   0  0  0  0  0  0  0  0  0  0  0  0
    2.2819   11.9200   -0.9142 C   0  0  0  0  0  0  0  0  0  0  0  0
    2.1097   12.7963   -1.9982 C   0  0  0  0  0  0  0  0  0  0  0  0
    1.4686   12.3308   -3.1571 C   0  0  0  0  0  0  0  0  0  0  0  0
    1.0054   11.0116   -3.2421 C   0  0  0  0  0  0  0  0  0  0  0  0
    0.3343   10.6051   -4.5186 N   0  3  0  0  0  0  0  0  0  0  0  0
   -0.0976    9.4574   -4.6725 O   0  5  0  0  0  0  0  0  0  0  0  0
    0.2407   11.4704   -5.3977 O   0  0  0  0  0  0  0  0  0  0  0  0
    1.1831   10.1416   -2.1481 C   0  0  0  0  0  0  0  0  0  0  0  0
    0.6032    8.5145   -2.2546 S   0  0  0  0  0  0  0  0  0  0  0  0
    2.5925   14.2277   -1.9516 C   0  0  0  0  0  0  0  0  0  0  0  0
    3.4926   14.4909   -2.9365 F   0  0  0  0  0  0  0  0  0  0  0  0
    1.5734   15.1117   -2.1241 F   0  0  0  0  0  0  0  0  0  0  0  0
    3.1959   14.5636   -0.7825 F   0  0  0  0  0  0  0  0  0  0  0  0
    1.3452    2.6417    0.3561 O   0  0  0  0  0  0  0  0  0  0  0  0
   -1.2693    1.8627    1.4572 H   0  0  0  0  0  0  0  0  0  0  0  0
    0.2615    1.8732    2.3398 H   0  0  0  0  0  0  0  0  0  0  0  0
   -0.4330    0.3402    1.8026 H   0  0  0  0  0  0  0  0  0  0  0  0
    1.1243    0.5926    0.1100 H   0  0  0  0  0  0  0  0  0  0  0  0
   -1.1942    1.2170   -1.1680 H   0  0  0  0  0  0  0  0  0  0  0  0
    0.3666    1.5942   -1.9249 H   0  0  0  0  0  0  0  0  0  0  0  0
    1.0016    5.0764    1.3666 H   0  0  0  0  0  0  0  0  0  0  0  0
   -0.5984    4.3334    1.4249 H   0  0  0  0  0  0  0  0  0  0  0  0
   -0.7663    6.7263    0.7477 H   0  0  0  0  0  0  0  0  0  0  0  0
   -1.2995    5.6920   -0.5675 H   0  0  0  0  0  0  0  0  0  0  0  0
    0.1132    5.2849   -2.5044 H   0  0  0  0  0  0  0  0  0  0  0  0
    1.7224    6.0006   -2.6017 H   0  0  0  0  0  0  0  0  0  0  0  0
    2.5278    4.6554   -0.7196 H   0  0  0  0  0  0  0  0  0  0  0  0
    1.9459    3.6282   -2.0254 H   0  0  0  0  0  0  0  0  0  0  0  0
    2.7813   12.2839   -0.0108 H   0  0  0  0  0  0  0  0  0  0  0  0
    1.3334   13.0132   -3.9972 H   0  0  0  0  0  0  0  0  0  0  0  0
  1 30  1  0  0  0  0
  1 31  1  0  0  0  0
  1 32  1  0  0  0  0
  2  3  1  0  0  0  0
  2 29  1  0  0  0  0
  2 33  1  6  0  0  0
  2  1  1  0  0  0  0
  3  4  1  0  0  0  0
  3 34  1  0  0  0  0
  3 35  1  0  0  0  0
  4  5  1  0  0  0  0
  5  6  1  0  0  0  0
  5 10  1  0  0  0  0
  5 29  1  0  0  0  0
  6  7  1  0  0  0  0
  6 36  1  0  0  0  0
  6 37  1  0  0  0  0
  7  8  1  0  0  0  0
  7 38  1  0  0  0  0
  7 39  1  0  0  0  0
  8  9  1  0  0  0  0
  8 11  1  0  0  0  0
  9 10  1  0  0  0  0
  9 40  1  0  0  0  0
  9 41  1  0  0  0  0
 10 42  1  0  0  0  0
 10 43  1  0  0  0  0
 11 12  2  0  0  0  0
 11 24  1  0  0  0  0
 12 13  1  0  0  0  0
 13 14  2  0  0  0  0
 13 15  1  0  0  0  0
 15 16  2  0  0  0  0
 15 23  1  0  0  0  0
 16 17  1  0  0  0  0
 16 44  1  0  0  0  0
 17 18  2  0  0  0  0
 17 25  1  0  0  0  0
 18 19  1  0  0  0  0
 18 45  1  0  0  0  0
 19 20  1  0  0  0  0
 19 23  2  0  0  0  0
 20 21  1  0  0  0  0
 20 22  2  0  0  0  0
 23 24  1  0  0  0  0
 25 26  1  0  0  0  0
 25 27  1  0  0  0  0
 25 28  1  0  0  0  0
M  CHG  2  20   1  21  -1
M  END
>  <DRUGBANK_ID>
DB17737

>  <COMMON_NAME>
BTZ-043

>  <CAS_NUMBER>
1161233-85-7

>  <UNII>
G55ZH52P57

>  <SYNONYMS>
2-((2s)-2-methyl-1,4-dioxa-8-azaspiro(4.5)decan-8-yl)-8-nitro-6-trifluoromethyl-4h-1,3-benzothiazin-4-one; 4h-1,3-benzothiazin-4-one, 2-((2s)-2-methyl-1,4-dioxa-8-azaspiro(4.5)dec-8-yl)-8-nitro-6-(trifluoromethyl)-

$$$$
