
 OpenBabel10282417223D

 75 78  0  0  0  0  0  0  0  0999 V2000
   -0.9816   -1.4787    0.7249 O   0  0  0  0  0  0  0  0  0  0  0  0
   -0.4413   -0.7489   -0.3605 C   0  0  1  0  0  0  0  0  0  0  0  0
   -0.7627    0.7171   -0.3982 C   0  0  2  0  0  0  0  0  0  0  0  0
    1.0212   -0.6729   -0.1770 C   0  0  2  0  0  0  0  0  0  0  0  0
    0.3123    1.3710    0.4956 C   0  0  1  0  0  0  0  0  0  0  0  0
    1.4167    0.4980    0.5203 O   0  0  0  0  0  0  0  0  0  0  0  0
    1.5671   -0.5519   -1.5600 C   0  0  0  0  0  0  0  0  0  0  0  0
    1.3373   -1.7441   -2.5724 O   0  0  0  0  0  0  0  0  0  0  0  0
    0.6641    2.7352    0.0887 N   0  0  0  0  0  0  0  0  0  0  0  0
    1.9816    3.2034    0.0323 C   0  0  0  0  0  0  0  0  0  0  0  0
    2.1028    4.5797    0.0559 N   0  0  0  0  0  0  0  0  0  0  0  0
    1.1224    5.4260    0.4546 C   0  0  0  0  0  0  0  0  0  0  0  0
   -0.2375    4.9087    0.4039 C   0  0  0  0  0  0  0  0  0  0  0  0
   -0.3992    3.6110    0.1520 C   0  0  0  0  0  0  0  0  0  0  0  0
   -2.0751    0.9007    0.0839 O   0  0  0  0  0  0  0  0  0  0  0  0
    2.9909    2.5127   -0.0279 O   0  0  0  0  0  0  0  0  0  0  0  0
    1.3340    6.5953    0.8389 O   0  0  0  0  0  0  0  0  0  0  0  0
    2.9387   -7.3428    0.1786 O   0  0  0  0  0  0  0  0  0  0  0  0
    2.5606   -6.1374    0.8414 C   0  0  1  0  0  0  0  0  0  0  0  0
    2.2268   -6.3337    2.2668 C   0  0  2  0  0  0  0  0  0  0  0  0
    3.6955   -5.1442    1.0005 C   0  0  2  0  0  0  0  0  0  0  0  0
    3.6359   -6.3134    2.9133 C   0  0  1  0  0  0  0  0  0  0  0  0
    4.5233   -5.5760    2.0656 O   0  0  0  0  0  0  0  0  0  0  0  0
    3.1798   -3.7170    1.3353 C   0  0  0  0  0  0  0  0  0  0  0  0
    2.0064   -3.7139    0.6384 O   0  0  0  0  0  0  0  0  0  0  0  0
    3.6178   -5.7399    4.2364 N   0  0  0  0  0  0  0  0  0  0  0  0
    2.8328   -6.4565    5.1185 C   0  0  0  0  0  0  0  0  0  0  0  0
    2.7819   -5.9858    6.3877 N   0  0  0  0  0  0  0  0  0  0  0  0
    3.2402   -4.7812    6.7808 C   0  0  0  0  0  0  0  0  0  0  0  0
    4.0986   -4.0599    5.8347 C   0  0  0  0  0  0  0  0  0  0  0  0
    4.2888   -4.5899    4.6186 C   0  0  0  0  0  0  0  0  0  0  0  0
    1.4942   -7.5394    2.3257 O   0  0  0  0  0  0  0  0  0  0  0  0
    2.2033   -7.4636    4.8345 O   0  0  0  0  0  0  0  0  0  0  0  0
    2.9650   -4.2976    7.8965 O   0  0  0  0  0  0  0  0  0  0  0  0
    3.7170   -3.9060   -1.1716 O   0  0  0  0  0  0  0  0  0  0  0  0
    2.0239   -3.5727   -1.0489 P   0  0  3  0  0  0  0  0  0  0  0  0
    2.6192   -5.2525   -2.1519 O   0  0  0  0  0  0  0  0  0  0  0  0
    0.5085   -3.2744   -0.9390 O   0  0  0  0  0  0  0  0  0  0  0  0
    5.5049   -3.3379    0.7913 O   0  0  0  0  0  0  0  0  0  0  0  0
    5.2232   -3.2667   -0.8031 P   0  0  3  0  0  0  0  0  0  0  0  0
    4.8571   -1.7989   -1.1670 O   0  0  0  0  0  0  0  0  0  0  0  0
    6.4969   -3.6573   -1.4583 O   0  0  0  0  0  0  0  0  0  0  0  0
    2.9864   -3.2476   -1.5694 O   0  0  0  0  0  0  0  0  0  0  0  0
    3.6097   -1.7474   -2.1640 P   0  0  3  0  0  0  0  0  0  0  0  0
    3.3236   -2.0454   -3.7058 O   0  0  0  0  0  0  0  0  0  0  0  0
    4.1676   -0.4046   -2.6962 O   0  0  0  0  0  0  0  0  0  0  0  0
    1.2796   -3.3125   -1.8445 P   0  0  3  0  0  0  0  0  0  0  0  0
    0.9887   -3.8486   -3.3768 O   0  0  0  0  0  0  0  0  0  0  0  0
    1.2279   -4.7161   -1.1930 O   0  0  0  0  0  0  0  0  0  0  0  0
   -0.6542   -2.4031    0.6161 H   0  0  0  0  0  0  0  0  0  0  0  0
   -0.7375   -1.2427   -1.2922 H   0  0  0  0  0  0  0  0  0  0  0  0
   -0.6680    1.0806   -1.4343 H   0  0  0  0  0  0  0  0  0  0  0  0
    1.4635   -1.4735    0.4158 H   0  0  0  0  0  0  0  0  0  0  0  0
   -0.0268    1.4302    1.5327 H   0  0  0  0  0  0  0  0  0  0  0  0
    1.5840    0.4030   -2.0945 H   0  0  0  0  0  0  0  0  0  0  0  0
    2.5683   -0.4788   -1.1216 H   0  0  0  0  0  0  0  0  0  0  0  0
    3.0483    4.9354    0.0719 H   0  0  0  0  0  0  0  0  0  0  0  0
   -1.0730    5.5602    0.6051 H   0  0  0  0  0  0  0  0  0  0  0  0
   -1.3977    3.1933    0.0848 H   0  0  0  0  0  0  0  0  0  0  0  0
   -2.1108    0.3360    0.8862 H   0  0  0  0  0  0  0  0  0  0  0  0
    3.8787   -7.5164    0.3325 H   0  0  0  0  0  0  0  0  0  0  0  0
    1.6334   -5.8440    0.3806 H   0  0  0  0  0  0  0  0  0  0  0  0
    1.6059   -5.4900    2.6113 H   0  0  0  0  0  0  0  0  0  0  0  0
    4.3100   -5.3001    0.1194 H   0  0  0  0  0  0  0  0  0  0  0  0
    4.0348   -7.3271    2.9584 H   0  0  0  0  0  0  0  0  0  0  0  0
    3.6283   -2.7742    1.0045 H   0  0  0  0  0  0  0  0  0  0  0  0
    3.0746   -3.5038    2.4011 H   0  0  0  0  0  0  0  0  0  0  0  0
    2.1989   -6.5245    7.0064 H   0  0  0  0  0  0  0  0  0  0  0  0
    4.5555   -3.1403    6.1755 H   0  0  0  0  0  0  0  0  0  0  0  0
    4.9644   -4.1079    3.9138 H   0  0  0  0  0  0  0  0  0  0  0  0
    1.9849   -8.1567    1.7465 H   0  0  0  0  0  0  0  0  0  0  0  0
    1.7358   -5.6398   -2.3295 H   0  0  0  0  0  0  0  0  0  0  0  0
    5.8198   -4.2390    1.0575 H   0  0  0  0  0  0  0  0  0  0  0  0
    2.6543   -1.3018   -3.8841 H   0  0  0  0  0  0  0  0  0  0  0  0
    0.0173   -3.9737   -3.4723 H   0  0  0  0  0  0  0  0  0  0  0  0
  1 50  1  0  0  0  0
  2  3  1  0  0  0  0
  2  4  1  0  0  0  0
  2  1  1  0  0  0  0
  2 51  1  6  0  0  0
  3 15  1  0  0  0  0
  3  5  1  0  0  0  0
  3 52  1  6  0  0  0
  4  6  1  0  0  0  0
  4 53  1  1  0  0  0
  4  7  1  0  0  0  0
  5  6  1  0  0  0  0
  5 54  1  1  0  0  0
  5  9  1  0  0  0  0
  7  8  1  0  0  0  0
  7 55  1  0  0  0  0
  7 56  1  0  0  0  0
  8 47  1  0  0  0  0
  9 10  1  0  0  0  0
 10 16  2  0  0  0  0
 10 11  1  0  0  0  0
 11 12  1  0  0  0  0
 11 57  1  0  0  0  0
 12 17  2  0  0  0  0
 12 13  1  0  0  0  0
 13 14  2  0  0  0  0
 13 58  1  0  0  0  0
 14  9  1  0  0  0  0
 14 59  1  0  0  0  0
 15 60  1  0  0  0  0
 18 61  1  0  0  0  0
 19 20  1  0  0  0  0
 19 21  1  0  0  0  0
 19 18  1  0  0  0  0
 19 62  1  6  0  0  0
 20 22  1  0  0  0  0
 20 32  1  0  0  0  0
 20 63  1  1  0  0  0
 21 23  1  0  0  0  0
 21 24  1  0  0  0  0
 21 64  1  6  0  0  0
 22 23  1  0  0  0  0
 22 65  1  1  0  0  0
 22 26  1  0  0  0  0
 24 25  1  0  0  0  0
 24 66  1  0  0  0  0
 24 67  1  0  0  0  0
 26 27  1  0  0  0  0
 27 28  1  0  0  0  0
 27 33  2  0  0  0  0
 28 29  1  0  0  0  0
 28 68  1  0  0  0  0
 29 30  1  0  0  0  0
 29 34  2  0  0  0  0
 30 31  2  0  0  0  0
 30 69  1  0  0  0  0
 31 26  1  0  0  0  0
 31 70  1  0  0  0  0
 32 71  1  0  0  0  0
 35 36  1  0  0  0  0
 36 37  1  0  0  0  0
 36 25  1  0  0  0  0
 36 38  2  0  0  0  0
 37 72  1  0  0  0  0
 39 40  1  0  0  0  0
 39 73  1  0  0  0  0
 40 41  1  0  0  0  0
 40 35  1  0  0  0  0
 40 42  2  0  0  0  0
 43 44  1  0  0  0  0
 44 45  1  0  0  0  0
 44 41  1  0  0  0  0
 44 46  2  0  0  0  0
 45 74  1  0  0  0  0
 47 48  1  0  0  0  0
 47 43  1  0  0  0  0
 47 49  2  0  0  0  0
 48 75  1  0  0  0  0
M  END
>  <DRUGBANK_ID>
DB15919

>  <COMMON_NAME>
Diquafosol

>  <CAS_NUMBER>
59985-21-6

>  <UNII>
7828VC80FJ

>  <SYNONYMS>
Diquafosol

$$$$
