T2M
 OpenBabel10282417173D

 25 24  0  0  0  0  0  0  0  0999 V2000
    1.0769    0.0729   -0.0529 C   0  0  0  0  0  0  0  0  0  0  0  0
    0.6355    0.6005   -1.3609 N   0  0  0  0  0  0  0  0  0  0  0  0
   -0.2094   -0.2637   -2.1912 N   0  0  0  0  0  0  0  0  0  0  0  0
   -0.7298    0.0279   -3.4381 C   0  0  0  0  0  0  0  0  0  0  0  0
   -1.4248   -0.8028   -4.0140 O   0  0  0  0  0  0  0  0  0  0  0  0
   -0.4044    1.2582   -3.9197 O   0  0  0  0  0  0  0  0  0  0  0  0
   -0.8779    1.7024   -5.2139 C   0  0  0  0  0  0  0  0  0  0  0  0
   -0.3356    0.7910   -6.3134 C   0  0  0  0  0  0  0  0  0  0  0  0
   -2.4042    1.7652   -5.2223 C   0  0  0  0  0  0  0  0  0  0  0  0
   -0.3424    3.1260   -5.4699 C   0  0  0  0  0  0  0  0  0  0  0  0
    0.9783    1.8234   -1.8028 C   0  0  0  0  0  0  0  0  0  0  0  0
    1.2851    2.8825   -2.1668 N   0  0  0  0  0  0  0  0  0  0  0  0
    0.6992   -0.9368    0.1325 H   0  0  0  0  0  0  0  0  0  0  0  0
    0.7172    0.7288    0.7460 H   0  0  0  0  0  0  0  0  0  0  0  0
    2.1705    0.0444   -0.0206 H   0  0  0  0  0  0  0  0  0  0  0  0
   -0.4543   -1.1821   -1.8354 H   0  0  0  0  0  0  0  0  0  0  0  0
   -0.6625   -0.2421   -6.1804 H   0  0  0  0  0  0  0  0  0  0  0  0
   -0.6729    1.1211   -7.2998 H   0  0  0  0  0  0  0  0  0  0  0  0
    0.7602    0.7775   -6.2973 H   0  0  0  0  0  0  0  0  0  0  0  0
   -2.7667    2.4384   -4.4370 H   0  0  0  0  0  0  0  0  0  0  0  0
   -2.7782    2.1126   -6.1893 H   0  0  0  0  0  0  0  0  0  0  0  0
   -2.8504    0.7883   -5.0264 H   0  0  0  0  0  0  0  0  0  0  0  0
   -0.6833    3.8322   -4.7041 H   0  0  0  0  0  0  0  0  0  0  0  0
    0.7531    3.1557   -5.4618 H   0  0  0  0  0  0  0  0  0  0  0  0
   -0.6808    3.4998   -6.4449 H   0  0  0  0  0  0  0  0  0  0  0  0
  1  2  1  0  0  0  0
  1 13  1  0  0  0  0
  1 14  1  0  0  0  0
  1 15  1  0  0  0  0
  2  3  1  0  0  0  0
  2 11  1  0  0  0  0
  3  4  1  0  0  0  0
  3 16  1  0  0  0  0
  4  5  2  0  0  0  0
  4  6  1  0  0  0  0
  6  7  1  0  0  0  0
  7  8  1  0  0  0  0
  7  9  1  0  0  0  0
  7 10  1  0  0  0  0
  8 17  1  0  0  0  0
  8 18  1  0  0  0  0
  8 19  1  0  0  0  0
  9 20  1  0  0  0  0
  9 21  1  0  0  0  0
  9 22  1  0  0  0  0
 10 23  1  0  0  0  0
 10 24  1  0  0  0  0
 10 25  1  0  0  0  0
 11 12  3  0  0  0  0
M  END
>  <DRUGBANK_ID>
DB08594

>  <COMMON_NAME>
TERT-BUTYL 2-CYANO-2-METHYLHYDRAZINECARBOXYLATE

$$$$
