
 OpenBabel10282417233D

 58 62  0  0  0  0  0  0  0  0999 V2000
    2.2314    0.2383    0.0747 F   0  0  0  0  0  0  0  0  0  0  0  0
    0.8964    0.2373   -0.0066 C   0  0  0  0  0  0  0  0  0  0  0  0
    0.1367    1.4004   -0.0067 C   0  0  0  0  0  0  0  0  0  0  0  0
   -1.2923    1.3746   -0.1093 C   0  0  0  0  0  0  0  0  0  0  0  0
   -1.9686    0.1788   -0.2994 C   0  0  0  0  0  0  0  0  0  0  0  0
   -3.4022    0.0328   -0.4399 N   0  0  0  0  0  0  0  0  0  0  0  0
   -4.2296   -1.1327   -0.3904 C   0  0  0  0  0  0  0  0  0  0  0  0
   -5.4475   -1.0921   -0.5433 O   0  0  0  0  0  0  0  0  0  0  0  0
   -3.5956   -2.3854    0.1529 C   0  0  0  0  0  0  0  0  0  0  0  0
   -3.1576   -3.2527   -1.1036 C   0  0  0  0  0  0  0  0  0  0  0  0
   -3.7988   -3.9248    0.0185 C   0  0  0  0  0  0  0  0  0  0  0  0
   -3.1339   -1.9517    1.5366 C   0  0  0  0  0  0  0  0  0  0  0  0
   -3.8013   -1.1015    2.1438 O   0  0  0  0  0  0  0  0  0  0  0  0
   -1.9604   -2.2481    2.1631 N   0  0  0  0  0  0  0  0  0  0  0  0
   -1.2915   -3.4520    2.0846 C   0  0  0  0  0  0  0  0  0  0  0  0
   -0.7306   -3.9766    0.9179 C   0  0  0  0  0  0  0  0  0  0  0  0
   -0.6329   -3.3657   -0.2417 F   0  0  0  0  0  0  0  0  0  0  0  0
   -0.1747   -5.2008    0.8339 C   0  0  0  0  0  0  0  0  0  0  0  0
   -0.0820   -5.9188    1.9772 C   0  0  0  0  0  0  0  0  0  0  0  0
    0.5478   -7.0938    1.6897 O   0  0  0  0  0  0  0  0  0  0  0  0
    0.6055   -7.9565    2.7187 C   0  0  0  0  0  0  0  0  0  0  0  0
   -0.5998   -8.4003    3.2416 C   0  0  0  0  0  0  0  0  0  0  0  0
   -0.4747   -8.9696    4.4404 C   0  0  0  0  0  0  0  0  0  0  0  0
    0.7304   -9.1460    5.0036 N   0  0  0  0  0  0  0  0  0  0  0  0
    1.8869   -8.8922    4.4260 C   0  0  0  0  0  0  0  0  0  0  0  0
    3.0441   -9.3092    5.0784 N   0  0  0  0  0  0  0  0  0  0  0  0
    3.1610  -10.0697    6.2233 C   0  0  0  0  0  0  0  0  0  0  0  0
    4.3293  -10.3143    6.6042 O   0  0  0  0  0  0  0  0  0  0  0  0
    2.0543  -10.6147    7.0942 C   0  0  0  0  0  0  0  0  0  0  0  0
    1.2772  -11.8565    6.7254 C   0  0  0  0  0  0  0  0  0  0  0  0
    0.5569  -10.5686    6.9035 C   0  0  0  0  0  0  0  0  0  0  0  0
    1.8766   -8.2239    3.2435 C   0  0  0  0  0  0  0  0  0  0  0  0
   -0.5789   -5.3989    3.1973 C   0  0  0  0  0  0  0  0  0  0  0  0
   -0.5109   -6.0608    4.3566 F   0  0  0  0  0  0  0  0  0  0  0  0
   -1.1981   -4.1680    3.2568 C   0  0  0  0  0  0  0  0  0  0  0  0
   -1.1259   -0.9084   -0.3409 C   0  0  0  0  0  0  0  0  0  0  0  0
    0.2544   -0.9447   -0.1278 C   0  0  0  0  0  0  0  0  0  0  0  0
    0.6782    2.3338    0.0675 H   0  0  0  0  0  0  0  0  0  0  0  0
   -1.8295    2.3118   -0.0433 H   0  0  0  0  0  0  0  0  0  0  0  0
   -3.9567    0.8701   -0.3082 H   0  0  0  0  0  0  0  0  0  0  0  0
   -3.7309   -3.2364   -2.0344 H   0  0  0  0  0  0  0  0  0  0  0  0
   -2.1462   -3.4473   -1.4293 H   0  0  0  0  0  0  0  0  0  0  0  0
   -3.1463   -4.6236    0.5434 H   0  0  0  0  0  0  0  0  0  0  0  0
   -4.7505   -4.4008   -0.1554 H   0  0  0  0  0  0  0  0  0  0  0  0
   -1.9727   -1.7600    3.0565 H   0  0  0  0  0  0  0  0  0  0  0  0
    0.1927   -5.5409   -0.1269 H   0  0  0  0  0  0  0  0  0  0  0  0
   -1.5801   -8.1355    2.8663 H   0  0  0  0  0  0  0  0  0  0  0  0
   -1.3291   -9.2816    5.0276 H   0  0  0  0  0  0  0  0  0  0  0  0
    3.9384   -9.0603    4.6775 H   0  0  0  0  0  0  0  0  0  0  0  0
    2.3666  -10.5859    8.1388 H   0  0  0  0  0  0  0  0  0  0  0  0
    1.3573  -12.1914    5.6885 H   0  0  0  0  0  0  0  0  0  0  0  0
    0.8360  -12.6040    7.3676 H   0  0  0  0  0  0  0  0  0  0  0  0
    0.0063  -10.1056    7.7079 H   0  0  0  0  0  0  0  0  0  0  0  0
   -0.1136  -10.5979    6.0645 H   0  0  0  0  0  0  0  0  0  0  0  0
    2.7658   -7.8567    2.7486 H   0  0  0  0  0  0  0  0  0  0  0  0
   -1.6322   -3.8210    4.1920 H   0  0  0  0  0  0  0  0  0  0  0  0
   -1.5899   -1.8319   -0.5030 H   0  0  0  0  0  0  0  0  0  0  0  0
    0.8121   -1.8746   -0.0789 H   0  0  0  0  0  0  0  0  0  0  0  0
  1  2  1  0  0  0  0
  2  3  2  0  0  0  0
  2 37  1  0  0  0  0
  3  4  1  0  0  0  0
  3 38  1  0  0  0  0
  4  5  2  0  0  0  0
  4 39  1  0  0  0  0
  5  6  1  0  0  0  0
  5 36  1  0  0  0  0
  6  7  1  0  0  0  0
  6 40  1  0  0  0  0
  7  8  2  0  0  0  0
  7  9  1  0  0  0  0
  9 10  1  0  0  0  0
  9 11  1  0  0  0  0
  9 12  1  0  0  0  0
 10 11  1  0  0  0  0
 10 41  1  0  0  0  0
 10 42  1  0  0  0  0
 11 43  1  0  0  0  0
 11 44  1  0  0  0  0
 12 13  2  0  0  0  0
 12 14  1  0  0  0  0
 14 15  1  0  0  0  0
 14 45  1  0  0  0  0
 15 16  2  0  0  0  0
 15 35  1  0  0  0  0
 16 17  1  0  0  0  0
 16 18  1  0  0  0  0
 18 19  2  0  0  0  0
 18 46  1  0  0  0  0
 19 20  1  0  0  0  0
 19 33  1  0  0  0  0
 20 21  1  0  0  0  0
 21 22  2  0  0  0  0
 21 32  1  0  0  0  0
 22 23  1  0  0  0  0
 22 47  1  0  0  0  0
 23 24  2  0  0  0  0
 23 48  1  0  0  0  0
 24 25  1  0  0  0  0
 25 26  1  0  0  0  0
 25 32  2  0  0  0  0
 26 27  1  0  0  0  0
 26 49  1  0  0  0  0
 27 28  2  0  0  0  0
 27 29  1  0  0  0  0
 29 30  1  0  0  0  0
 29 31  1  0  0  0  0
 29 50  1  0  0  0  0
 30 31  1  0  0  0  0
 30 51  1  0  0  0  0
 30 52  1  0  0  0  0
 31 53  1  0  0  0  0
 31 54  1  0  0  0  0
 32 55  1  0  0  0  0
 33 34  1  0  0  0  0
 33 35  2  0  0  0  0
 35 56  1  0  0  0  0
 36 37  2  0  0  0  0
 36 57  1  0  0  0  0
 37 58  1  0  0  0  0
M  END
>  <DRUGBANK_ID>
DB17191

>  <COMMON_NAME>
Altiratinib

>  <CAS_NUMBER>
1345847-93-9

>  <UNII>
T678746713

>  <SYNONYMS>
1,1-cyclopropanedicarboxamide, n-(4-((2-((cyclopropylcarbonyl)amino)-4-pyridinyl)oxy)-2,5-difluorophenyl)-n'-(4-fluorophenyl)-; N-(4-((2-((cyclopropylcarbonyl)amino)pyridin-4-yl)oxy)-2,5-difluorophenyi)-n-(4- fluorophenyl)cyclopropane-1,1-dicarboxamide

$$$$
