
 OpenBabel10282417153D

 85 89  0  0  0  0  0  0  0  0999 V2000
    0.1915    0.0368   -0.1266 C   0  0  0  0  0  0  0  0  0  0  0  0
   -0.4012    1.2828    0.8353 C   0  0  0  0  0  0  0  0  0  0  0  0
   -1.7161    1.5955    0.5719 N   0  0  0  0  0  0  0  0  0  0  0  0
   -2.7346    0.5511    0.2876 C   0  0  1  0  0  0  0  0  0  0  0  0
   -2.3580   -0.2647   -0.9899 C   0  0  0  0  0  0  0  0  0  0  0  0
   -1.0975   -0.9536   -0.8831 N   0  0  0  0  0  0  0  0  0  0  0  0
   -3.4911   -2.0474   -5.1811 C   0  0  0  0  0  0  0  0  0  0  0  0
   -4.5926   -2.4583   -4.4268 C   0  0  0  0  0  0  0  0  0  0  0  0
   -4.3800   -3.3755   -3.3986 C   0  0  0  0  0  0  0  0  0  0  0  0
   -3.0983   -4.0074   -3.2700 C   0  0  0  0  0  0  0  0  0  0  0  0
   -1.9786   -3.5876   -4.0685 C   0  0  0  0  0  0  0  0  0  0  0  0
   -2.2350   -2.6294   -5.0252 C   0  0  0  0  0  0  0  0  0  0  0  0
   -0.6294   -4.0265   -3.9543 O   0  0  0  0  0  0  0  0  0  0  0  0
    0.5050   -3.0799   -4.0321 C   0  0  0  0  0  0  0  0  0  0  0  0
    0.3201   -1.6992   -3.9131 C   0  0  0  0  0  0  0  0  0  0  0  0
    1.3408   -0.7886   -3.4976 C   0  0  0  0  0  0  0  0  0  0  0  0
    2.4695   -1.1802   -2.7444 C   0  0  0  0  0  0  0  0  0  0  0  0
    2.7257   -2.5618   -2.8848 C   0  0  0  0  0  0  0  0  0  0  0  0
    1.7912   -3.4986   -3.5637 C   0  0  0  0  0  0  0  0  0  0  0  0
    3.3757   -0.2355   -1.7887 C   0  0  0  0  0  0  0  0  0  0  0  0
    3.0005    0.7158   -0.6291 N   0  0  0  0  0  0  0  0  0  0  0  0
    2.8516    0.1390    0.6964 C   0  0  0  0  0  0  0  0  0  0  0  0
    1.6640   -0.7093    0.5075 C   0  0  0  0  0  0  0  0  0  0  0  0
    0.6368    0.9436   -1.2014 C   0  0  0  0  0  0  0  0  0  0  0  0
    1.9150    1.6626   -0.8786 C   0  0  0  0  0  0  0  0  0  0  0  0
    0.2262    1.9123    1.6772 O   0  0  0  0  0  0  0  0  0  0  0  0
   -3.1843   -0.4766   -1.8758 O   0  0  0  0  0  0  0  0  0  0  0  0
   -3.3256   -0.3599    1.5926 C   0  0  1  0  0  0  0  0  0  0  0  0
   -2.6456   -1.4549    2.6705 C   0  0  0  0  0  0  0  0  0  0  0  0
   -1.2672   -2.6035   -1.2959 C   0  0  0  0  0  0  0  0  0  0  0  0
   -0.1297   -3.6612   -1.2793 C   0  0  0  0  0  0  0  0  0  0  0  0
    1.2410   -3.6964   -0.6450 C   0  0  0  0  0  0  0  0  0  0  0  0
    1.7279   -4.1720    0.6898 C   0  0  0  0  0  0  0  0  0  0  0  0
   -3.7357    0.6732    2.5138 O   0  0  0  0  0  0  0  0  0  0  0  0
   -3.5903    1.1829   -0.0052 H   0  0  0  0  0  0  0  0  0  0  0  0
   -1.3082   -0.9682    3.2246 C   0  0  0  0  0  0  0  0  0  0  0  0
   -0.5063   -0.9104    2.0414 C   0  0  0  0  0  0  0  0  0  0  0  0
   -0.3078   -2.1740    1.3405 C   0  0  0  0  0  0  0  0  0  0  0  0
   -1.5536   -2.9030    1.1394 C   0  0  0  0  0  0  0  0  0  0  0  0
   -2.4670   -2.9190    2.2382 C   0  0  0  0  0  0  0  0  0  0  0  0
   -5.9248   -1.9608   -4.9385 C   0  0  0  0  0  0  0  0  0  0  0  0
   -7.0274   -2.4383   -4.2811 O   0  0  0  0  0  0  0  0  0  0  0  0
   -6.0163   -1.2898   -5.9073 O   0  0  0  0  0  0  0  0  0  0  0  0
   -1.9807    2.5632    0.7426 H   0  0  0  0  0  0  0  0  0  0  0  0
   -3.5822   -1.2700   -5.9325 H   0  0  0  0  0  0  0  0  0  0  0  0
   -5.1693   -3.5835   -2.6731 H   0  0  0  0  0  0  0  0  0  0  0  0
   -3.0164   -4.7188   -2.4430 H   0  0  0  0  0  0  0  0  0  0  0  0
   -1.4214   -2.2875   -5.6481 H   0  0  0  0  0  0  0  0  0  0  0  0
   -0.6882   -1.2915   -3.7932 H   0  0  0  0  0  0  0  0  0  0  0  0
    1.0045    0.2480   -3.5380 H   0  0  0  0  0  0  0  0  0  0  0  0
    3.5056   -2.9848   -2.2360 H   0  0  0  0  0  0  0  0  0  0  0  0
    1.9258   -4.5612   -3.3212 H   0  0  0  0  0  0  0  0  0  0  0  0
    3.8795    0.4404   -2.4724 H   0  0  0  0  0  0  0  0  0  0  0  0
    4.1423   -0.8893   -1.3448 H   0  0  0  0  0  0  0  0  0  0  0  0
    2.6643    0.7801    1.5756 H   0  0  0  0  0  0  0  0  0  0  0  0
    3.6967   -0.5064    1.0114 H   0  0  0  0  0  0  0  0  0  0  0  0
    1.6639   -1.2385    1.4649 H   0  0  0  0  0  0  0  0  0  0  0  0
    2.0952   -1.4484   -0.1257 H   0  0  0  0  0  0  0  0  0  0  0  0
    0.8686    0.1513   -1.8202 H   0  0  0  0  0  0  0  0  0  0  0  0
   -0.1503    1.5295   -1.6810 H   0  0  0  0  0  0  0  0  0  0  0  0
    1.7608    2.3171   -0.0084 H   0  0  0  0  0  0  0  0  0  0  0  0
    2.1956    2.3067   -1.7016 H   0  0  0  0  0  0  0  0  0  0  0  0
   -4.2202   -0.8637    1.2028 H   0  0  0  0  0  0  0  0  0  0  0  0
   -3.2921   -1.5332    3.5337 H   0  0  0  0  0  0  0  0  0  0  0  0
   -1.8748   -3.3577   -0.7587 H   0  0  0  0  0  0  0  0  0  0  0  0
   -2.2334   -2.5929   -1.8137 H   0  0  0  0  0  0  0  0  0  0  0  0
   -0.3774   -4.6749   -1.6298 H   0  0  0  0  0  0  0  0  0  0  0  0
    0.1902   -3.1287   -2.1026 H   0  0  0  0  0  0  0  0  0  0  0  0
    1.9112   -4.2661   -1.2790 H   0  0  0  0  0  0  0  0  0  0  0  0
    1.5379   -2.7025   -0.8637 H   0  0  0  0  0  0  0  0  0  0  0  0
    1.9771   -5.2204    0.5931 H   0  0  0  0  0  0  0  0  0  0  0  0
    2.6357   -3.6001    0.9429 H   0  0  0  0  0  0  0  0  0  0  0  0
    1.0729   -4.1706    1.5460 H   0  0  0  0  0  0  0  0  0  0  0  0
   -2.9066    1.1457    2.7277 H   0  0  0  0  0  0  0  0  0  0  0  0
   -1.3283    0.0560    3.5907 H   0  0  0  0  0  0  0  0  0  0  0  0
   -0.7020   -1.6307    3.8426 H   0  0  0  0  0  0  0  0  0  0  0  0
   -1.1648   -0.4425    1.3720 H   0  0  0  0  0  0  0  0  0  0  0  0
    0.3714   -0.3211    2.2692 H   0  0  0  0  0  0  0  0  0  0  0  0
    0.0919   -2.0482    0.3540 H   0  0  0  0  0  0  0  0  0  0  0  0
    0.4559   -2.6636    1.8691 H   0  0  0  0  0  0  0  0  0  0  0  0
   -2.2252   -2.3438    0.4755 H   0  0  0  0  0  0  0  0  0  0  0  0
   -1.2602   -3.9095    0.8465 H   0  0  0  0  0  0  0  0  0  0  0  0
   -1.9209   -3.5628    2.9256 H   0  0  0  0  0  0  0  0  0  0  0  0
   -3.3533   -3.3936    1.8097 H   0  0  0  0  0  0  0  0  0  0  0  0
   -6.8977   -3.0171   -3.5239 H   0  0  0  0  0  0  0  0  0  0  0  0
  1 24  1  0  0  0  0
  1  2  1  0  0  0  0
  1  6  1  0  0  0  0
  2 26  2  0  0  0  0
  2  3  1  0  0  0  0
  3 44  1  0  0  0  0
  4  5  1  0  0  0  0
  4  3  1  0  0  0  0
  4 35  1  6  0  0  0
  4 28  1  0  0  0  0
  5  6  1  0  0  0  0
  5 27  2  0  0  0  0
  6 30  1  0  0  0  0
  7  8  2  0  0  0  0
  7 45  1  0  0  0  0
  8  9  1  0  0  0  0
  8 41  1  0  0  0  0
  9 10  2  0  0  0  0
  9 46  1  0  0  0  0
 10 11  1  0  0  0  0
 10 47  1  0  0  0  0
 11 12  2  0  0  0  0
 11 13  1  0  0  0  0
 12  7  1  0  0  0  0
 12 48  1  0  0  0  0
 13 14  1  0  0  0  0
 14 15  2  0  0  0  0
 15 16  1  0  0  0  0
 15 49  1  0  0  0  0
 16 17  2  0  0  0  0
 16 50  1  0  0  0  0
 17 18  1  0  0  0  0
 17 20  1  0  0  0  0
 18 19  2  0  0  0  0
 18 51  1  0  0  0  0
 19 14  1  0  0  0  0
 19 52  1  0  0  0  0
 20 21  1  0  0  0  0
 20 53  1  0  0  0  0
 20 54  1  0  0  0  0
 21 22  1  0  0  0  0
 21 25  1  0  0  0  0
 22 23  1  0  0  0  0
 22 55  1  0  0  0  0
 22 56  1  0  0  0  0
 23  1  1  0  0  0  0
 23 57  1  0  0  0  0
 23 58  1  0  0  0  0
 24 25  1  0  0  0  0
 24 59  1  0  0  0  0
 24 60  1  0  0  0  0
 25 61  1  0  0  0  0
 25 62  1  0  0  0  0
 28 29  1  0  0  0  0
 28 34  1  0  0  0  0
 28 63  1  6  0  0  0
 29 36  1  0  0  0  0
 29 40  1  0  0  0  0
 29 64  1  0  0  0  0
 30 31  1  0  0  0  0
 30 65  1  0  0  0  0
 30 66  1  0  0  0  0
 31 32  1  0  0  0  0
 31 67  1  0  0  0  0
 31 68  1  0  0  0  0
 32 33  1  0  0  0  0
 32 69  1  0  0  0  0
 32 70  1  0  0  0  0
 33 71  1  0  0  0  0
 33 72  1  0  0  0  0
 33 73  1  0  0  0  0
 34 74  1  0  0  0  0
 36 37  1  0  0  0  0
 36 75  1  0  0  0  0
 36 76  1  0  0  0  0
 37 38  1  0  0  0  0
 37 77  1  0  0  0  0
 37 78  1  0  0  0  0
 38 39  1  0  0  0  0
 38 79  1  0  0  0  0
 38 80  1  0  0  0  0
 39 40  1  0  0  0  0
 39 81  1  0  0  0  0
 39 82  1  0  0  0  0
 40 83  1  0  0  0  0
 40 84  1  0  0  0  0
 41 42  1  0  0  0  0
 41 43  2  0  0  0  0
 42 85  1  0  0  0  0
M  END
>  <DRUGBANK_ID>
DB06497

>  <COMMON_NAME>
Aplaviroc

>  <CAS_NUMBER>
461443-59-4

>  <UNII>
98B425P30V

>  <SYNONYMS>
Aplaviroc

$$$$
