
 OpenBabel10282417243D

 53 56  0  0  1  0  0  0  0  0999 V2000
    1.3002    0.1715   -0.3682 C   0  0  0  0  0  0  0  0  0  0  0  0
    0.3185    1.2641   -0.1889 N   0  0  0  0  0  0  0  0  0  0  0  0
    0.6456    2.6857    0.1081 C   0  0  0  0  0  0  0  0  0  0  0  0
    1.0505    3.1266    1.5489 C   0  0  0  0  0  0  0  0  0  0  0  0
    0.1810    2.4061    2.6186 C   0  0  1  0  0  0  0  0  0  0  0  0
    0.0978    0.9524    2.1876 C   0  0  2  0  0  0  0  0  0  0  0  0
    1.4720    0.4690    2.1682 O   0  0  0  0  0  0  0  0  0  0  0  0
   -0.5949    0.7896    0.8421 C   0  0  0  0  0  0  0  0  0  0  0  0
    0.6970    2.5355    4.0624 C   0  0  0  0  0  0  0  0  0  0  0  0
    0.7566    3.8147    4.6354 C   0  0  0  0  0  0  0  0  0  0  0  0
    0.3396    4.8992    3.8634 O   0  0  0  0  0  0  0  0  0  0  0  0
    0.4218    6.4630    4.5987 P   0  0  0  0  0  0  0  0  0  0  0  0
    1.9953    6.4605    4.1298 O   0  0  0  0  0  0  0  0  0  0  0  0
   -0.2045    6.9968    3.1813 O   0  0  0  0  0  0  0  0  0  0  0  0
    0.4953    7.8626    5.2568 O   0  0  0  0  0  0  0  0  0  0  0  0
    1.2395    3.9530    5.9471 C   0  0  0  0  0  0  0  0  0  0  0  0
    1.6795    2.8401    6.6815 C   0  0  0  0  0  0  0  0  0  0  0  0
    2.1746    3.0270    7.9385 O   0  0  0  0  0  0  0  0  0  0  0  0
    1.6139    1.5556    6.1524 C   0  0  0  0  0  0  0  0  0  0  0  0
    1.1026    1.4079    4.8693 C   0  0  0  0  0  0  0  0  0  0  0  0
    0.9357    0.1354    4.3714 O   0  0  0  0  0  0  0  0  0  0  0  0
    1.4831   -0.9736    4.9484 C   0  0  0  0  0  0  0  0  0  0  0  0
    1.9932   -0.9519    6.1796 C   0  0  0  0  0  0  0  0  0  0  0  0
    2.0396    0.3356    6.8852 C   0  0  0  0  0  0  0  0  0  0  0  0
    2.4427    0.3426    8.0523 O   0  0  0  0  0  0  0  0  0  0  0  0
    1.3714   -2.2333    4.1677 C   0  0  0  0  0  0  0  0  0  0  0  0
    2.1498   -2.4440    3.0083 C   0  0  0  0  0  0  0  0  0  0  0  0
    2.1470   -3.6810    2.3422 C   0  0  0  0  0  0  0  0  0  0  0  0
    1.3701   -4.7299    2.8245 C   0  0  0  0  0  0  0  0  0  0  0  0
    0.5620   -4.5281    3.9410 C   0  0  0  0  0  0  0  0  0  0  0  0
    0.5456   -3.2881    4.5928 C   0  0  0  0  0  0  0  0  0  0  0  0
   -0.5363   -3.1175    5.9342 Cl  0  0  0  0  0  0  0  0  0  0  0  0
    0.9843   -0.4542   -1.2056 H   0  0  0  0  0  0  0  0  0  0  0  0
    1.2644   -0.5984    0.4271 H   0  0  0  0  0  0  0  0  0  0  0  0
    2.3511    0.4554   -0.4473 H   0  0  0  0  0  0  0  0  0  0  0  0
    1.3267    3.1293   -0.6250 H   0  0  0  0  0  0  0  0  0  0  0  0
   -0.3045    3.2223   -0.0582 H   0  0  0  0  0  0  0  0  0  0  0  0
    2.1209    2.9497    1.7126 H   0  0  0  0  0  0  0  0  0  0  0  0
    0.9434    4.2161    1.6377 H   0  0  0  0  0  0  0  0  0  0  0  0
   -0.8362    2.8249    2.5944 H   0  0  0  0  0  0  0  0  0  0  0  0
   -0.5032    0.3497    2.8696 H   0  0  0  0  0  0  0  0  0  0  0  0
    2.0237    1.0631    1.6325 H   0  0  0  0  0  0  0  0  0  0  0  0
   -1.5511    1.3234    0.8091 H   0  0  0  0  0  0  0  0  0  0  0  0
   -0.8427   -0.2671    0.6803 H   0  0  0  0  0  0  0  0  0  0  0  0
    2.5903    6.2879    4.8777 H   0  0  0  0  0  0  0  0  0  0  0  0
   -0.8398    6.3574    2.8178 H   0  0  0  0  0  0  0  0  0  0  0  0
    1.2997    4.9187    6.4342 H   0  0  0  0  0  0  0  0  0  0  0  0
    2.1459    3.9544    8.2118 H   0  0  0  0  0  0  0  0  0  0  0  0
    2.3298   -1.8399    6.6927 H   0  0  0  0  0  0  0  0  0  0  0  0
    2.7826   -1.6512    2.6118 H   0  0  0  0  0  0  0  0  0  0  0  0
    2.7666   -3.8346    1.4594 H   0  0  0  0  0  0  0  0  0  0  0  0
    1.3893   -5.7017    2.3355 H   0  0  0  0  0  0  0  0  0  0  0  0
   -0.0492   -5.3458    4.3140 H   0  0  0  0  0  0  0  0  0  0  0  0
  1  2  1  0  0  0  0
  1 33  1  0  0  0  0
  1 34  1  0  0  0  0
  1 35  1  0  0  0  0
  2  3  1  0  0  0  0
  2  8  1  0  0  0  0
  3  4  1  0  0  0  0
  3 36  1  0  0  0  0
  3 37  1  0  0  0  0
  4 38  1  0  0  0  0
  4 39  1  0  0  0  0
  5  4  1  0  0  0  0
  5  6  1  0  0  0  0
  5  9  1  0  0  0  0
  5 40  1  6  0  0  0
  6  7  1  0  0  0  0
  6  8  1  0  0  0  0
  6 41  1  1  0  0  0
  7 42  1  0  0  0  0
  8 43  1  0  0  0  0
  8 44  1  0  0  0  0
  9 10  1  0  0  0  0
  9 20  2  0  0  0  0
 10 11  1  0  0  0  0
 10 16  2  0  0  0  0
 11 12  1  0  0  0  0
 12 13  1  0  0  0  0
 12 14  1  0  0  0  0
 12 15  2  0  0  0  0
 13 45  1  0  0  0  0
 14 46  1  0  0  0  0
 16 17  1  0  0  0  0
 16 47  1  0  0  0  0
 17 18  1  0  0  0  0
 17 19  2  0  0  0  0
 18 48  1  0  0  0  0
 19 20  1  0  0  0  0
 19 24  1  0  0  0  0
 20 21  1  0  0  0  0
 21 22  1  0  0  0  0
 22 23  2  0  0  0  0
 22 26  1  0  0  0  0
 23 24  1  0  0  0  0
 23 49  1  0  0  0  0
 24 25  2  0  0  0  0
 26 27  2  0  0  0  0
 26 31  1  0  0  0  0
 27 28  1  0  0  0  0
 27 50  1  0  0  0  0
 28 29  2  0  0  0  0
 28 51  1  0  0  0  0
 29 30  1  0  0  0  0
 29 52  1  0  0  0  0
 30 31  2  0  0  0  0
 30 53  1  0  0  0  0
 31 32  1  0  0  0  0
M  END
>  <DRUGBANK_ID>
DB18104

>  <COMMON_NAME>
TP-1287

>  <CAS_NUMBER>
2044686-42-0

>  <UNII>
7MPP85IIJ3

>  <SYNONYMS>
2-(2-chlorophenyl)-5-hydroxy-8-((3S,4R)-3-hydroxy-1-methylpiperidin-4-yl)-4-oxo-4H-chromen-7-yl dihydrogen phosphate; 4h-1-benzopyran-4-one, 2-(2-chlorophenyl)-5-hydroxy-8-((3s,4r)-3-hydroxy-1-methyl-4-piperidinyl)-7-(phosphonooxy)-

$$$$
