
 OpenBabel10282417243D

 80 85  0  0  0  0  0  0  0  0999 V2000
   -2.5433    0.0308   -0.5701 C   0  0  0  0  0  0  0  0  0  0  0  0
   -1.1741    0.1178   -0.1366 N   0  0  0  0  0  0  0  0  0  0  0  0
   -0.4709   -1.0652   -0.5052 C   0  0  0  0  0  0  0  0  0  0  0  0
    0.9332   -0.8433   -0.0177 C   0  0  0  0  0  0  0  0  0  0  0  0
    1.8033    0.3770   -0.4086 C   0  0  0  0  0  0  0  0  0  0  0  0
    0.8636    1.4584    0.0157 C   0  0  0  0  0  0  0  0  0  0  0  0
   -0.5151    1.3363   -0.5842 C   0  0  0  0  0  0  0  0  0  0  0  0
    3.2695    0.6940    0.1271 C   0  0  0  0  0  0  0  0  0  0  0  0
    4.2789   -0.2027   -0.0829 C   0  0  0  0  0  0  0  0  0  0  0  0
    5.6290   -0.3266    0.4464 C   0  0  0  0  0  0  0  0  0  0  0  0
    6.1819    0.6734    1.0671 C   0  0  0  0  0  0  0  0  0  0  0  0
    5.3203    1.7440    1.1659 C   0  0  0  0  0  0  0  0  0  0  0  0
    3.8676    1.6390    0.8845 C   0  0  0  0  0  0  0  0  0  0  0  0
    3.0416    2.4436    1.7939 C   0  0  0  0  0  0  0  0  0  0  0  0
    3.1394    1.9693    3.2484 C   0  0  0  0  0  0  0  0  0  0  0  0
    4.5059    2.3579    3.8181 C   0  0  0  0  0  0  0  0  0  0  0  0
    2.0886    2.8962    3.9195 C   0  0  0  0  0  0  0  0  0  0  0  0
    3.0047    0.4995    3.6109 N   0  0  0  0  0  0  0  0  0  0  0  0
    2.6131   -0.6574    2.9179 C   0  0  0  0  0  0  0  0  0  0  0  0
    3.3204   -1.3692    1.9338 N   0  0  0  0  0  0  0  0  0  0  0  0
    2.7734   -2.3863    1.1657 C   0  0  0  0  0  0  0  0  0  0  0  0
    1.5214   -2.7905    1.6393 N   0  0  0  0  0  0  0  0  0  0  0  0
    0.8776   -2.0299    2.6798 C   0  0  0  0  0  0  0  0  0  0  0  0
    1.4358   -1.0405    3.3656 N   0  0  0  0  0  0  0  0  0  0  0  0
   -0.6207   -1.9915    2.8535 N   0  0  0  0  0  0  0  0  0  0  0  0
   -1.6999   -0.8807    2.7485 C   0  0  0  0  0  0  0  0  0  0  0  0
   -2.7613   -1.4891    3.2415 N   0  0  0  0  0  0  0  0  0  0  0  0
   -2.1881   -1.9032    4.3391 C   0  0  0  0  0  0  0  0  0  0  0  0
   -2.3469   -1.4638    5.6352 C   0  0  0  0  0  0  0  0  0  0  0  0
   -1.9054   -2.3396    6.5974 C   0  0  0  0  0  0  0  0  0  0  0  0
   -1.2096   -3.5009    6.2236 C   0  0  0  0  0  0  0  0  0  0  0  0
   -0.7438   -3.7134    4.8984 C   0  0  0  0  0  0  0  0  0  0  0  0
   -1.1600   -2.7414    3.9775 C   0  0  0  0  0  0  0  0  0  0  0  0
   -2.1482    0.5785    2.4386 C   0  0  0  0  0  0  0  0  0  0  0  0
   -1.3724    1.5353    1.8899 F   0  0  0  0  0  0  0  0  0  0  0  0
   -3.3345    0.5327    1.7210 F   0  0  0  0  0  0  0  0  0  0  0  0
    3.3011   -2.7708   -0.3229 N   0  0  0  0  0  0  0  0  0  0  0  0
    4.8362   -2.8086   -0.6961 C   0  0  0  0  0  0  0  0  0  0  0  0
    5.4142   -1.7124   -1.9446 C   0  0  0  0  0  0  0  0  0  0  0  0
    4.6233   -1.7796   -3.1302 O   0  0  0  0  0  0  0  0  0  0  0  0
    3.2875   -1.3761   -2.7952 C   0  0  0  0  0  0  0  0  0  0  0  0
    2.6178   -2.4541   -1.7999 C   0  0  0  0  0  0  0  0  0  0  0  0
   -3.0527    0.9588   -0.3065 H   0  0  0  0  0  0  0  0  0  0  0  0
   -2.5972   -0.1148   -1.6432 H   0  0  0  0  0  0  0  0  0  0  0  0
   -3.0323   -0.8092   -0.0583 H   0  0  0  0  0  0  0  0  0  0  0  0
   -0.8934   -1.9491    0.0138 H   0  0  0  0  0  0  0  0  0  0  0  0
   -0.5134   -1.2836   -1.5728 H   0  0  0  0  0  0  0  0  0  0  0  0
    0.8201   -0.7115    1.0366 H   0  0  0  0  0  0  0  0  0  0  0  0
    1.2904   -1.8170   -0.2154 H   0  0  0  0  0  0  0  0  0  0  0  0
    1.8183    0.3701   -1.4968 H   0  0  0  0  0  0  0  0  0  0  0  0
    0.7327    1.3401    1.1028 H   0  0  0  0  0  0  0  0  0  0  0  0
    1.2975    2.4144   -0.2579 H   0  0  0  0  0  0  0  0  0  0  0  0
   -0.4576    1.3602   -1.6690 H   0  0  0  0  0  0  0  0  0  0  0  0
   -1.0443    2.2154   -0.2144 H   0  0  0  0  0  0  0  0  0  0  0  0
    3.8687   -0.9170   -0.6907 H   0  0  0  0  0  0  0  0  0  0  0  0
    6.2897   -1.1838    0.2651 H   0  0  0  0  0  0  0  0  0  0  0  0
    7.2034    0.6073    1.4367 H   0  0  0  0  0  0  0  0  0  0  0  0
    5.7298    2.6118    1.6383 H   0  0  0  0  0  0  0  0  0  0  0  0
    3.3227    3.4815    1.6007 H   0  0  0  0  0  0  0  0  0  0  0  0
    2.0005    2.4580    1.5659 H   0  0  0  0  0  0  0  0  0  0  0  0
    4.8222    3.3314    3.4272 H   0  0  0  0  0  0  0  0  0  0  0  0
    4.5097    2.3920    4.9044 H   0  0  0  0  0  0  0  0  0  0  0  0
    5.2469    1.5966    3.5554 H   0  0  0  0  0  0  0  0  0  0  0  0
    1.0617    2.6590    3.6155 H   0  0  0  0  0  0  0  0  0  0  0  0
    2.1493    2.8954    5.0062 H   0  0  0  0  0  0  0  0  0  0  0  0
    2.2614    3.9405    3.5945 H   0  0  0  0  0  0  0  0  0  0  0  0
    2.5298    0.4364    4.5110 H   0  0  0  0  0  0  0  0  0  0  0  0
   -2.8480   -0.5243    5.8164 H   0  0  0  0  0  0  0  0  0  0  0  0
   -2.1976   -2.1366    7.6207 H   0  0  0  0  0  0  0  0  0  0  0  0
   -1.0051   -4.2317    7.0022 H   0  0  0  0  0  0  0  0  0  0  0  0
   -0.1787   -4.6024    4.6376 H   0  0  0  0  0  0  0  0  0  0  0  0
   -2.5436    1.0705    3.3389 H   0  0  0  0  0  0  0  0  0  0  0  0
    5.0071   -3.7706   -1.1803 H   0  0  0  0  0  0  0  0  0  0  0  0
    5.4080   -2.8251    0.2310 H   0  0  0  0  0  0  0  0  0  0  0  0
    5.4578   -0.6156   -1.7898 H   0  0  0  0  0  0  0  0  0  0  0  0
    6.4825   -1.8625   -2.1423 H   0  0  0  0  0  0  0  0  0  0  0  0
    2.7252   -1.3211   -3.7374 H   0  0  0  0  0  0  0  0  0  0  0  0
    3.2942   -0.3141   -2.4973 H   0  0  0  0  0  0  0  0  0  0  0  0
    2.7749   -3.3863   -2.3444 H   0  0  0  0  0  0  0  0  0  0  0  0
    1.5443   -2.2972   -1.8435 H   0  0  0  0  0  0  0  0  0  0  0  0
  1  2  1  0  0  0  0
  1 43  1  0  0  0  0
  1 44  1  0  0  0  0
  1 45  1  0  0  0  0
  2  3  1  0  0  0  0
  2  7  1  0  0  0  0
  3  4  1  0  0  0  0
  3 46  1  0  0  0  0
  3 47  1  0  0  0  0
  4  5  1  0  0  0  0
  4 48  1  0  0  0  0
  4 49  1  0  0  0  0
  5  6  1  0  0  0  0
  5  8  1  0  0  0  0
  5 50  1  0  0  0  0
  6  7  1  0  0  0  0
  6 51  1  0  0  0  0
  6 52  1  0  0  0  0
  7 53  1  0  0  0  0
  7 54  1  0  0  0  0
  8  9  2  0  0  0  0
  8 13  1  0  0  0  0
  9 10  1  0  0  0  0
  9 55  1  0  0  0  0
 10 11  2  0  0  0  0
 10 56  1  0  0  0  0
 11 12  1  0  0  0  0
 11 57  1  0  0  0  0
 12 13  2  0  0  0  0
 12 58  1  0  0  0  0
 13 14  1  0  0  0  0
 14 15  1  0  0  0  0
 14 59  1  0  0  0  0
 14 60  1  0  0  0  0
 15 16  1  0  0  0  0
 15 17  1  0  0  0  0
 15 18  1  0  0  0  0
 16 61  1  0  0  0  0
 16 62  1  0  0  0  0
 16 63  1  0  0  0  0
 17 64  1  0  0  0  0
 17 65  1  0  0  0  0
 17 66  1  0  0  0  0
 18 19  1  0  0  0  0
 18 67  1  0  0  0  0
 19 20  2  0  0  0  0
 19 24  1  0  0  0  0
 20 21  1  0  0  0  0
 21 22  2  0  0  0  0
 21 37  1  0  0  0  0
 22 23  1  0  0  0  0
 23 24  2  0  0  0  0
 23 25  1  0  0  0  0
 25 26  1  0  0  0  0
 25 33  1  0  0  0  0
 26 27  2  0  0  0  0
 26 34  1  0  0  0  0
 27 28  1  0  0  0  0
 28 29  2  0  0  0  0
 28 33  1  0  0  0  0
 29 30  1  0  0  0  0
 29 68  1  0  0  0  0
 30 31  2  0  0  0  0
 30 69  1  0  0  0  0
 31 32  1  0  0  0  0
 31 70  1  0  0  0  0
 32 33  2  0  0  0  0
 32 71  1  0  0  0  0
 34 35  1  0  0  0  0
 34 36  1  0  0  0  0
 34 72  1  0  0  0  0
 37 38  1  0  0  0  0
 37 42  1  0  0  0  0
 38 39  1  0  0  0  0
 38 73  1  0  0  0  0
 38 74  1  0  0  0  0
 39 40  1  0  0  0  0
 39 75  1  0  0  0  0
 39 76  1  0  0  0  0
 40 41  1  0  0  0  0
 41 42  1  0  0  0  0
 41 77  1  0  0  0  0
 41 78  1  0  0  0  0
 42 79  1  0  0  0  0
 42 80  1  0  0  0  0
M  END
>  <DRUGBANK_ID>
DB18245

>  <COMMON_NAME>
Zandelisib

>  <CAS_NUMBER>
1401436-95-0

>  <UNII>
8Z28M5SX0X

>  <SYNONYMS>
1,3,5-triazin-2-amine, 4-(2-(difluoromethyl)-1h-benzimidazol-1-yl)-n-(1,1-dimethyl-2-(2-(1-methyl-4-piperidinyl)phenyl)ethyl)-6-(4-morpholinyl)-; 4-(2-(difluoromethyl)benzimidazol-1-yl)-n-(1,1-dimethyl-2-(2-(1-methyl-4-piperidyl)phenyl)ethyl)-6-morpholino-1,3,5-triazin-2-amine

$$$$
