
 OpenBabel10282417243D

154158  0  0  1  0  0  0  0  0999 V2000
   10.3777   -4.3421    0.0081 H   0  0  0  0  0  0  0  0  0  0  0  0
    9.8282   -3.5145   -0.4275 C   0  0  1  0  0  0  0  0  0  0  0  0
    8.3743   -3.6660   -0.5583 C   0  0  0  0  0  0  0  0  0  0  0  0
    7.7324   -3.9758   -1.9337 C   0  0  1  0  0  0  0  0  0  0  0  0
    7.9492   -5.4506   -1.7596 C   0  0  0  0  0  0  0  0  0  0  0  0
    6.3205   -3.7579   -1.9146 O   0  0  0  0  0  0  0  0  0  0  0  0
    8.4153   -3.5681   -3.4192 C   0  0  1  0  0  0  0  0  0  0  0  0
    8.2672   -2.2714   -4.1750 O   0  0  0  0  0  0  0  0  0  0  0  0
    9.5210   -1.2912   -4.2097 C   0  0  0  0  0  0  0  0  0  0  0  0
   10.9207   -1.2009   -2.8890 C   0  0  0  0  0  0  0  0  0  0  0  0
   10.9017   -1.3581   -1.2531 C   0  0  0  0  0  0  0  0  0  0  0  0
   11.6789   -1.0963    0.0133 C   0  0  0  0  0  0  0  0  0  0  0  0
   12.8438   -1.5066   -0.2394 C   0  0  0  0  0  0  0  0  0  0  0  0
   13.3485   -2.0355    0.8794 F   0  0  0  0  0  0  0  0  0  0  0  0
   13.0407   -1.7826   -1.6621 C   0  0  0  0  0  0  0  0  0  0  0  0
   12.2007   -1.5095   -2.9989 C   0  0  0  0  0  0  0  0  0  0  0  0
    9.9196   -3.7170   -3.2190 C   0  0  2  0  0  0  0  0  0  0  0  0
   10.5019   -5.0204   -3.2710 C   0  0  0  0  0  0  0  0  0  0  0  0
   10.4795   -3.3983   -1.8072 O   0  0  0  0  0  0  0  0  0  0  0  0
    9.9082   -2.2684    0.7823 O   0  0  0  0  0  0  0  0  0  0  0  0
    9.4623   -0.5488    0.5234 C   0  0  2  0  0  0  0  0  0  0  0  0
    8.0303   -0.8710    0.6345 C   0  0  1  0  0  0  0  0  0  0  0  0
    7.6556    0.4632    0.8017 C   0  0  0  0  0  0  0  0  0  0  0  0
    7.1937   -1.3933   -0.3920 O   0  0  0  0  0  0  0  0  0  0  0  0
    7.1807   -0.8236   -1.6428 C   0  0  1  0  0  0  0  0  0  0  0  0
    6.9482   -1.4233   -2.5491 H   0  0  0  0  0  0  0  0  0  0  0  0
    5.9021   -0.3050   -1.5453 O   0  0  0  0  0  0  0  0  0  0  0  0
    4.7159   -0.2220   -0.4594 C   0  0  1  0  0  0  0  0  0  0  0  0
    3.4339   -0.9899    1.1908 C   0  0  0  0  0  0  0  0  0  0  0  0
    1.7824   -1.5789    1.7670 C   0  0  0  0  0  0  0  0  0  0  0  0
    0.7999   -0.5198    2.5276 C   0  0  0  0  0  0  0  0  0  0  0  0
   -0.2656   -0.1280    2.0573 O   0  0  0  0  0  0  0  0  0  0  0  0
    3.6211   -1.0961    3.0199 C   0  0  0  0  0  0  0  0  0  0  0  0
    4.9097   -1.3359    3.7149 C   0  0  1  0  0  0  0  0  0  0  0  0
    5.2942   -2.7878    3.6282 C   0  0  0  0  0  0  0  0  0  0  0  0
    5.5758   -0.5294    2.7585 C   0  0  0  0  0  0  0  0  0  0  0  0
    5.7269   -1.0207    1.6657 O   0  0  0  0  0  0  0  0  0  0  0  0
    5.8010    0.8587    3.1715 C   0  0  0  0  0  0  0  0  0  0  0  0
    5.7040    1.8364    2.2712 C   0  0  0  0  0  0  0  0  0  0  0  0
    6.7858    2.8053    2.2231 C   0  0  0  0  0  0  0  0  0  0  0  0
    7.6532    2.8840    3.3779 C   0  0  0  0  0  0  0  0  0  0  0  0
    7.0236    3.7350    1.3049 C   0  0  0  0  0  0  0  0  0  0  0  0
    8.2111    4.5191    0.8284 C   0  0  2  0  0  0  0  0  0  0  0  0
    7.4148    5.8975    0.2976 C   0  0  0  0  0  0  0  0  0  0  0  0
    7.9454    7.2126    0.1691 O   0  0  0  0  0  0  0  0  0  0  0  0
    8.6755    7.8273    1.2255 C   0  0  2  0  0  0  0  0  0  0  0  0
   10.0956    7.7441    1.0717 O   0  0  0  0  0  0  0  0  0  0  0  0
   10.6231    6.4360    1.0587 C   0  0  2  0  0  0  0  0  0  0  0  0
   10.4203    6.1641   -0.5028 C   0  0  0  0  0  0  0  0  0  0  0  0
   10.0760    5.5698    2.4403 C   0  0  1  0  0  0  0  0  0  0  0  0
   11.0189    5.3661    3.5344 O   0  0  0  0  0  0  0  0  0  0  0  0
    8.6264    6.0322    2.9256 C   0  0  1  0  0  0  0  0  0  0  0  0
    8.1569    5.4647    4.1372 O   0  0  0  0  0  0  0  0  0  0  0  0
    6.7516    5.8113    4.2806 C   0  0  0  0  0  0  0  0  0  0  0  0
    8.2235    7.4368    2.6205 C   0  0  1  0  0  0  0  0  0  0  0  0
    8.7091    8.2169    3.7001 O   0  0  0  0  0  0  0  0  0  0  0  0
   10.1121    8.0852    3.8042 C   0  0  0  0  0  0  0  0  0  0  0  0
    9.4860    3.9401    0.1101 C   0  0  1  0  0  0  0  0  0  0  0  0
   10.5263    2.9308    0.6338 C   0  0  0  0  0  0  0  0  0  0  0  0
   11.8577    3.0197   -0.1364 C   0  0  0  0  0  0  0  0  0  0  0  0
    9.3183    4.1334   -1.3122 O   0  0  0  0  0  0  0  0  0  0  0  0
    8.1230    3.8060   -1.8892 C   0  0  0  0  0  0  0  0  0  0  0  0
    7.9245    3.8844   -3.0937 O   0  0  0  0  0  0  0  0  0  0  0  0
    7.2945    2.9664   -0.9268 C   0  0  0  0  0  0  0  0  0  0  0  0
    5.8749    2.5201   -0.8656 C   0  0  1  0  0  0  0  0  0  0  0  0
    5.2050    3.7292   -0.8815 O   0  0  0  0  0  0  0  0  0  0  0  0
    5.1158    1.3204   -1.4151 C   0  0  2  0  0  0  0  0  0  0  0  0
    3.9199    1.7697   -2.1120 C   0  0  0  0  0  0  0  0  0  0  0  0
    8.7497   -0.4872   -2.0383 C   0  0  2  0  0  0  0  0  0  0  0  0
    8.7777   -1.8273   -2.1824 O   0  0  0  0  0  0  0  0  0  0  0  0
   10.0506    0.4168   -1.0285 C   0  0  1  0  0  0  0  0  0  0  0  0
   10.0582    1.7083   -1.6708 N   0  0  0  0  0  0  0  0  0  0  0  0
   10.6702    2.0267   -2.9436 C   0  0  0  0  0  0  0  0  0  0  0  0
    8.7493    1.6382   -1.9320 C   0  0  0  0  0  0  0  0  0  0  0  0
    7.8341   -3.8989    0.3672 H   0  0  0  0  0  0  0  0  0  0  0  0
    8.2586   -2.6771   -0.4211 H   0  0  0  0  0  0  0  0  0  0  0  0
    7.4694   -5.7956   -0.8471 H   0  0  0  0  0  0  0  0  0  0  0  0
    7.6848   -5.9580   -2.6708 H   0  0  0  0  0  0  0  0  0  0  0  0
    8.9711   -5.6861   -1.5074 H   0  0  0  0  0  0  0  0  0  0  0  0
    6.0029   -3.9628   -1.0163 H   0  0  0  0  0  0  0  0  0  0  0  0
    7.9336   -4.2023   -4.1602 H   0  0  0  0  0  0  0  0  0  0  0  0
    9.9078   -1.3557   -5.2200 H   0  0  0  0  0  0  0  0  0  0  0  0
    8.8513   -0.3478   -4.4041 H   0  0  0  0  0  0  0  0  0  0  0  0
    9.9046   -1.4761   -0.8841 H   0  0  0  0  0  0  0  0  0  0  0  0
   11.3833   -0.9932    1.1114 H   0  0  0  0  0  0  0  0  0  0  0  0
   13.6251   -2.6661   -1.7263 H   0  0  0  0  0  0  0  0  0  0  0  0
   12.3847   -1.9933   -3.9360 H   0  0  0  0  0  0  0  0  0  0  0  0
   10.4138   -3.1566   -4.0489 H   0  0  0  0  0  0  0  0  0  0  0  0
    9.9358   -5.5881   -3.9828 H   0  0  0  0  0  0  0  0  0  0  0  0
   11.5731   -4.8658   -3.3671 H   0  0  0  0  0  0  0  0  0  0  0  0
   10.4265   -5.3597   -2.2605 H   0  0  0  0  0  0  0  0  0  0  0  0
    9.9027    0.0771    1.3554 H   0  0  0  0  0  0  0  0  0  0  0  0
    7.8462   -1.5058    1.4914 H   0  0  0  0  0  0  0  0  0  0  0  0
    8.3461    1.1830    1.2051 H   0  0  0  0  0  0  0  0  0  0  0  0
    7.2904    0.6043   -0.1600 H   0  0  0  0  0  0  0  0  0  0  0  0
    6.7247    0.5056    1.1778 H   0  0  0  0  0  0  0  0  0  0  0  0
    4.5413   -1.2089   -0.9612 H   0  0  0  0  0  0  0  0  0  0  0  0
    2.9698   -0.0115    1.0811 H   0  0  0  0  0  0  0  0  0  0  0  0
    1.1529   -2.3135    1.2324 H   0  0  0  0  0  0  0  0  0  0  0  0
    1.7726   -2.2831    2.7144 H   0  0  0  0  0  0  0  0  0  0  0  0
    1.0312   -0.2054    3.5869 H   0  0  0  0  0  0  0  0  0  0  0  0
    3.0580   -1.8754    3.6427 H   0  0  0  0  0  0  0  0  0  0  0  0
    3.1076   -0.2199    3.4566 H   0  0  0  0  0  0  0  0  0  0  0  0
    5.0081   -0.9201    4.7197 H   0  0  0  0  0  0  0  0  0  0  0  0
    6.3766   -2.8603    3.5433 H   0  0  0  0  0  0  0  0  0  0  0  0
    4.9419   -3.3281    4.5108 H   0  0  0  0  0  0  0  0  0  0  0  0
    4.8343   -3.2663    2.7531 H   0  0  0  0  0  0  0  0  0  0  0  0
    6.3470    0.8927    4.0820 H   0  0  0  0  0  0  0  0  0  0  0  0
    5.1642    1.5012    1.3858 H   0  0  0  0  0  0  0  0  0  0  0  0
    8.7234    2.9828    3.2210 H   0  0  0  0  0  0  0  0  0  0  0  0
    7.1678    3.7827    3.6710 H   0  0  0  0  0  0  0  0  0  0  0  0
    7.4477    2.2784    4.2313 H   0  0  0  0  0  0  0  0  0  0  0  0
    6.3445    4.0030    0.5705 H   0  0  0  0  0  0  0  0  0  0  0  0
    8.6058    4.3248    1.7708 H   0  0  0  0  0  0  0  0  0  0  0  0
    7.0203    5.6812   -0.7008 H   0  0  0  0  0  0  0  0  0  0  0  0
    6.4988    6.0156    0.9031 H   0  0  0  0  0  0  0  0  0  0  0  0
    8.4568    8.8937    1.1591 H   0  0  0  0  0  0  0  0  0  0  0  0
   11.7028    6.3446    1.1684 H   0  0  0  0  0  0  0  0  0  0  0  0
   10.6413    6.7988   -1.3460 H   0  0  0  0  0  0  0  0  0  0  0  0
   11.0031    5.3046   -0.8422 H   0  0  0  0  0  0  0  0  0  0  0  0
    9.3598    6.0483   -0.6897 H   0  0  0  0  0  0  0  0  0  0  0  0
   10.0863    4.5046    2.3438 H   0  0  0  0  0  0  0  0  0  0  0  0
   10.4518    5.1617    4.3171 H   0  0  0  0  0  0  0  0  0  0  0  0
    7.8585    5.6643    2.3162 H   0  0  0  0  0  0  0  0  0  0  0  0
    6.7677    6.8467    4.5785 H   0  0  0  0  0  0  0  0  0  0  0  0
    6.1322    5.6973    3.3584 H   0  0  0  0  0  0  0  0  0  0  0  0
    6.3105    5.1825    5.0453 H   0  0  0  0  0  0  0  0  0  0  0  0
    7.1195    7.4854    2.5772 H   0  0  0  0  0  0  0  0  0  0  0  0
   10.3589    7.0691    3.8416 H   0  0  0  0  0  0  0  0  0  0  0  0
   10.6334    8.4733    2.9396 H   0  0  0  0  0  0  0  0  0  0  0  0
   10.5313    8.3393    4.7591 H   0  0  0  0  0  0  0  0  0  0  0  0
   10.2284    4.5693    0.4904 H   0  0  0  0  0  0  0  0  0  0  0  0
   10.8215    3.0461    1.6803 H   0  0  0  0  0  0  0  0  0  0  0  0
   10.0477    1.9872    0.6421 H   0  0  0  0  0  0  0  0  0  0  0  0
   12.4326    3.9312    0.0490 H   0  0  0  0  0  0  0  0  0  0  0  0
   12.4406    2.1331    0.0967 H   0  0  0  0  0  0  0  0  0  0  0  0
   11.7299    3.0993   -1.2074 H   0  0  0  0  0  0  0  0  0  0  0  0
    8.0186    2.7959   -0.1099 H   0  0  0  0  0  0  0  0  0  0  0  0
    7.4608    2.0229   -0.6367 H   0  0  0  0  0  0  0  0  0  0  0  0
    5.9097    2.0227    0.0562 H   0  0  0  0  0  0  0  0  0  0  0  0
    5.8068    4.3133   -1.3753 H   0  0  0  0  0  0  0  0  0  0  0  0
    5.8482    1.3482   -2.3622 H   0  0  0  0  0  0  0  0  0  0  0  0
    4.0331    1.6396   -3.1908 H   0  0  0  0  0  0  0  0  0  0  0  0
    3.2566    1.0737   -1.6553 H   0  0  0  0  0  0  0  0  0  0  0  0
    3.7199    2.7998   -1.8686 H   0  0  0  0  0  0  0  0  0  0  0  0
    9.1183    0.0445   -2.9341 H   0  0  0  0  0  0  0  0  0  0  0  0
    9.5620   -2.3445   -2.0595 H   0  0  0  0  0  0  0  0  0  0  0  0
   11.1982    0.4611   -1.2367 H   0  0  0  0  0  0  0  0  0  0  0  0
   10.1721    1.5618   -3.7917 H   0  0  0  0  0  0  0  0  0  0  0  0
   10.4874    3.0996   -3.0765 H   0  0  0  0  0  0  0  0  0  0  0  0
   11.7354    1.8200   -2.9382 H   0  0  0  0  0  0  0  0  0  0  0  0
    7.8740    1.0387   -2.1166 H   0  0  0  0  0  0  0  0  0  0  0  0
    8.6123    1.2862   -0.9332 H   0  0  0  0  0  0  0  0  0  0  0  0
    8.3163    1.9991   -2.8119 H   0  0  0  0  0  0  0  0  0  0  0  0
  2  1  1  1  0  0  0
  2  3  1  0  0  0  0
  2 19  1  0  0  0  0
  2 20  1  0  0  0  0
  3 75  1  0  0  0  0
  3 76  1  0  0  0  0
  4  3  1  0  0  0  0
  4  5  1  0  0  0  0
  4  6  1  1  0  0  0
  5 77  1  0  0  0  0
  5 78  1  0  0  0  0
  5 79  1  0  0  0  0
  6 80  1  0  0  0  0
  7  4  1  0  0  0  0
  7 17  1  0  0  0  0
  7 81  1  6  0  0  0
  7  8  1  0  0  0  0
  8  9  1  0  0  0  0
  9 10  1  0  0  0  0
  9 82  1  0  0  0  0
  9 83  1  0  0  0  0
 10 11  2  0  0  0  0
 10 16  1  0  0  0  0
 11 12  1  0  0  0  0
 11 84  1  0  0  0  0
 12 13  2  0  0  0  0
 12 85  1  0  0  0  0
 13 14  1  0  0  0  0
 13 15  1  0  0  0  0
 15 16  2  0  0  0  0
 15 86  1  0  0  0  0
 16 87  1  0  0  0  0
 17 18  1  0  0  0  0
 17 19  1  0  0  0  0
 17 88  1  6  0  0  0
 18 89  1  0  0  0  0
 18 90  1  0  0  0  0
 18 91  1  0  0  0  0
 21 20  1  0  0  0  0
 21 22  1  0  0  0  0
 21 71  1  0  0  0  0
 21 92  1  1  0  0  0
 22 24  1  0  0  0  0
 22 93  1  1  0  0  0
 22 23  1  0  0  0  0
 23 94  1  0  0  0  0
 23 95  1  0  0  0  0
 23 96  1  0  0  0  0
 25 24  1  0  0  0  0
 25 26  1  6  0  0  0
 25 27  1  0  0  0  0
 28 29  1  0  0  0  0
 28 67  1  0  0  0  0
 28 97  1  6  0  0  0
 28 27  1  0  0  0  0
 29 30  1  0  0  0  0
 29 33  1  0  0  0  0
 29 98  1  0  0  0  0
 30 31  1  0  0  0  0
 30 99  1  0  0  0  0
 30100  1  0  0  0  0
 31 32  2  0  0  0  0
 31101  1  0  0  0  0
 33102  1  0  0  0  0
 33103  1  0  0  0  0
 34 33  1  0  0  0  0
 34 35  1  0  0  0  0
 34 36  1  0  0  0  0
 34104  1  1  0  0  0
 35105  1  0  0  0  0
 35106  1  0  0  0  0
 35107  1  0  0  0  0
 36 37  2  0  0  0  0
 36 38  1  0  0  0  0
 38 39  2  0  0  0  0
 38108  1  0  0  0  0
 39 40  1  0  0  0  0
 39109  1  0  0  0  0
 40 41  1  0  0  0  0
 40 42  2  0  0  0  0
 41110  1  0  0  0  0
 41111  1  0  0  0  0
 41112  1  0  0  0  0
 42113  1  0  0  0  0
 43 42  1  0  0  0  0
 43 58  1  0  0  0  0
 43114  1  1  0  0  0
 43 44  1  0  0  0  0
 44 45  1  0  0  0  0
 44115  1  0  0  0  0
 44116  1  0  0  0  0
 46 45  1  0  0  0  0
 46 47  1  0  0  0  0
 46117  1  6  0  0  0
 48 47  1  0  0  0  0
 48 49  1  0  0  0  0
 48118  1  1  0  0  0
 49119  1  0  0  0  0
 49120  1  0  0  0  0
 49121  1  0  0  0  0
 50 48  1  0  0  0  0
 50 52  1  0  0  0  0
 50122  1  6  0  0  0
 50 51  1  0  0  0  0
 51123  1  0  0  0  0
 52 55  1  0  0  0  0
 52124  1  6  0  0  0
 52 53  1  0  0  0  0
 53 54  1  0  0  0  0
 54125  1  0  0  0  0
 54126  1  0  0  0  0
 54127  1  0  0  0  0
 55 46  1  0  0  0  0
 55 56  1  0  0  0  0
 55128  1  1  0  0  0
 56 57  1  0  0  0  0
 57129  1  0  0  0  0
 57130  1  0  0  0  0
 57131  1  0  0  0  0
 58 59  1  0  0  0  0
 58 61  1  0  0  0  0
 58132  1  1  0  0  0
 59 60  1  0  0  0  0
 59133  1  0  0  0  0
 59134  1  0  0  0  0
 60135  1  0  0  0  0
 60136  1  0  0  0  0
 60137  1  0  0  0  0
 61 62  1  0  0  0  0
 62 63  2  0  0  0  0
 62 64  1  0  0  0  0
 64138  1  0  0  0  0
 64139  1  0  0  0  0
 65 64  1  0  0  0  0
 65 66  1  0  0  0  0
 65140  1  1  0  0  0
 66141  1  0  0  0  0
 67 65  1  0  0  0  0
 67142  1  6  0  0  0
 67 68  1  0  0  0  0
 68143  1  0  0  0  0
 68144  1  0  0  0  0
 68145  1  0  0  0  0
 69 25  1  0  0  0  0
 69 70  1  0  0  0  0
 69146  1  6  0  0  0
 70147  1  0  0  0  0
 71 69  1  0  0  0  0
 71 72  1  0  0  0  0
 71148  1  6  0  0  0
 72 73  1  0  0  0  0
 72 74  1  0  0  0  0
 73149  1  0  0  0  0
 73150  1  0  0  0  0
 73151  1  0  0  0  0
 74152  1  0  0  0  0
 74153  1  0  0  0  0
 74154  1  0  0  0  0
M  END
>  <DRUGBANK_ID>
DB17769

>  <COMMON_NAME>
Flubentylosin

>  <CAS_NUMBER>
1809266-03-2

>  <UNII>
HXL1F57P8O

>  <SYNONYMS>
4''-(p-fluorobenzyl)tylosin a; 4b-o-((4-fluorophenyl)methyl)tylosin; Tylosin, 4b-o-((4-fluorophenyl)methyl)-

$$$$
