
 OpenBabel10282417243D

 30 29  0  0  0  0  0  0  0  0999 V2000
    0.8999   -0.1363    0.1264 C   0  0  0  0  0  0  0  0  0  0  0  0
    0.2434    1.0369    0.6340 O   0  0  0  0  0  0  0  0  0  0  0  0
    0.8498    1.6401    1.6874 C   0  0  0  0  0  0  0  0  0  0  0  0
    1.7238    1.1294    2.3836 O   0  0  0  0  0  0  0  0  0  0  0  0
    0.3341    3.0463    1.8805 C   0  0  0  0  0  0  0  0  0  0  0  0
    0.9143    4.0638    0.9048 C   0  0  0  0  0  0  0  0  0  0  0  0
    0.4713    3.9568   -0.5377 C   0  0  0  0  0  0  0  0  0  0  0  0
   -0.3062    4.7809   -1.0074 O   0  0  0  0  0  0  0  0  0  0  0  0
    1.1992    2.7120   -1.5255 S   0  0  0  0  0  0  0  0  0  0  0  0
    0.0079    2.3262   -2.8632 C   0  0  0  0  0  0  0  0  0  0  0  0
   -1.5221    2.2679   -2.6712 C   0  0  0  0  0  0  0  0  0  0  0  0
   -2.1214    3.4779   -2.1498 N   0  0  0  0  0  0  0  0  0  0  0  0
   -2.7695    4.4049   -2.9280 C   0  0  0  0  0  0  0  0  0  0  0  0
   -3.0624    5.7171   -2.2323 C   0  0  0  0  0  0  0  0  0  0  0  0
   -3.1087    4.1964   -4.0879 O   0  0  0  0  0  0  0  0  0  0  0  0
    0.5503   -0.3011   -0.8998 H   0  0  0  0  0  0  0  0  0  0  0  0
    0.6282   -1.0020    0.7295 H   0  0  0  0  0  0  0  0  0  0  0  0
    1.9891   -0.0099    0.0804 H   0  0  0  0  0  0  0  0  0  0  0  0
   -0.7614    3.0438    1.8809 H   0  0  0  0  0  0  0  0  0  0  0  0
    0.6319    3.3523    2.8942 H   0  0  0  0  0  0  0  0  0  0  0  0
    0.5637    5.0545    1.2375 H   0  0  0  0  0  0  0  0  0  0  0  0
    2.0059    4.1069    0.9450 H   0  0  0  0  0  0  0  0  0  0  0  0
    0.2505    3.0170   -3.6720 H   0  0  0  0  0  0  0  0  0  0  0  0
    0.3020    1.3261   -3.2194 H   0  0  0  0  0  0  0  0  0  0  0  0
   -1.9650    2.0601   -3.6547 H   0  0  0  0  0  0  0  0  0  0  0  0
   -1.8138    1.4431   -2.0130 H   0  0  0  0  0  0  0  0  0  0  0  0
   -1.7236    3.8510   -1.2966 H   0  0  0  0  0  0  0  0  0  0  0  0
   -2.6674    6.5377   -2.8386 H   0  0  0  0  0  0  0  0  0  0  0  0
   -4.1431    5.8288   -2.1212 H   0  0  0  0  0  0  0  0  0  0  0  0
   -2.6119    5.7880   -1.2377 H   0  0  0  0  0  0  0  0  0  0  0  0
  1  2  1  0  0  0  0
  1 16  1  0  0  0  0
  1 17  1  0  0  0  0
  1 18  1  0  0  0  0
  2  3  1  0  0  0  0
  3  4  2  0  0  0  0
  3  5  1  0  0  0  0
  5  6  1  0  0  0  0
  5 19  1  0  0  0  0
  5 20  1  0  0  0  0
  6  7  1  0  0  0  0
  6 21  1  0  0  0  0
  6 22  1  0  0  0  0
  7  8  2  0  0  0  0
  7  9  1  0  0  0  0
  9 10  1  0  0  0  0
 10 11  1  0  0  0  0
 10 23  1  0  0  0  0
 10 24  1  0  0  0  0
 11 12  1  0  0  0  0
 11 25  1  0  0  0  0
 11 26  1  0  0  0  0
 12 13  1  0  0  0  0
 12 27  1  0  0  0  0
 13 14  1  0  0  0  0
 13 15  2  0  0  0  0
 14 28  1  0  0  0  0
 14 29  1  0  0  0  0
 14 30  1  0  0  0  0
M  END
>  <DRUGBANK_ID>
DB18392

>  <COMMON_NAME>
NV-354

>  <CAS_NUMBER>
866465-21-6

>  <UNII>
4GF65YYK2S

>  <SYNONYMS>
Butanoic acid, 4-[[2-(acetylamino)ethyl]thio]-4-oxo-, methyl ester; Methyl 4-{[2-(acetamino)ethyl]sulfanyl}-4-oxobutanoate

$$$$
