
 OpenBabel10282417183D

 46 50  0  0  1  0  0  0  0  0999 V2000
    1.0079    0.0327   -0.0857 C   0  0  0  0  0  0  0  0  0  0  0  0
   -5.7408   -2.6515    6.9419 C   0  0  0  0  0  0  0  0  0  0  0  0
   -6.1276   -3.9953    6.3910 C   0  0  0  0  0  0  0  0  0  0  0  0
   -1.3078   -1.8037    0.8426 C   0  0  0  0  0  0  0  0  0  0  0  0
    0.2025   -3.6178    6.2047 C   0  0  0  0  0  0  0  0  0  0  0  0
   -2.1269   -2.6438    5.0882 C   0  0  0  0  0  0  0  0  0  0  0  0
    0.9411   -1.7708    1.5637 C   0  0  0  0  0  0  0  0  0  0  0  0
   -1.3230   -0.5329    2.8636 C   0  0  0  0  0  0  0  0  0  0  0  0
   -3.4645   -4.7816    7.8489 C   0  0  0  0  0  0  0  0  0  0  0  0
   -4.7472   -3.4602    6.1482 C   0  0  0  0  0  0  0  0  0  0  0  0
   -0.9500   -0.4038    1.3450 C   0  0  1  0  0  0  0  0  0  0  0  0
   -0.3965   -2.4801    1.8807 C   0  0  1  0  0  0  0  0  0  0  0  0
   -1.0291   -3.9429    6.7765 C   0  0  0  0  0  0  0  0  0  0  0  0
   -2.3783   -5.2862    8.4653 C   0  0  0  0  0  0  0  0  0  0  0  0
    0.2344   -2.9679    4.9764 C   0  0  0  0  0  0  0  0  0  0  0  0
   -2.2255   -3.4716    6.2237 C   0  0  0  0  0  0  0  0  0  0  0  0
   -0.9280   -2.4843    4.3713 C   0  0  0  0  0  0  0  0  0  0  0  0
   -1.0570   -4.8539    7.9415 C   0  0  0  0  0  0  0  0  0  0  0  0
   -2.4664   -6.2261    9.6026 C   0  0  0  0  0  0  0  0  0  0  0  0
    1.4284   -2.8062    4.3905 F   0  0  0  0  0  0  0  0  0  0  0  0
    0.5384   -0.3678    1.2331 N   0  0  0  0  0  0  0  0  0  0  0  0
   -0.9929   -1.9417    3.1191 N   0  0  0  0  0  0  0  0  0  0  0  0
   -3.4735   -3.8937    6.7776 N   0  0  0  0  0  0  0  0  0  0  0  0
    0.0037   -5.2460    8.4150 O   0  0  0  0  0  0  0  0  0  0  0  0
   -1.5385   -6.7320   10.2139 O   0  0  0  0  0  0  0  0  0  0  0  0
   -3.7275   -6.5233    9.9731 O   0  0  0  0  0  0  0  0  0  0  0  0
   -1.4561    0.4368    0.8636 H   0  0  0  0  0  0  0  0  0  0  0  0
   -0.3800   -3.5718    1.8199 H   0  0  0  0  0  0  0  0  0  0  0  0
    0.6652    1.0456   -0.3207 H   0  0  0  0  0  0  0  0  0  0  0  0
    0.6740   -0.6369   -0.8851 H   0  0  0  0  0  0  0  0  0  0  0  0
    2.1032    0.0565   -0.0977 H   0  0  0  0  0  0  0  0  0  0  0  0
   -6.1577   -1.7614    6.4859 H   0  0  0  0  0  0  0  0  0  0  0  0
   -5.5755   -2.5559    8.0092 H   0  0  0  0  0  0  0  0  0  0  0  0
   -6.2803   -4.8295    7.0580 H   0  0  0  0  0  0  0  0  0  0  0  0
   -6.7884   -4.0188    5.5275 H   0  0  0  0  0  0  0  0  0  0  0  0
   -1.0288   -1.9942   -0.1988 H   0  0  0  0  0  0  0  0  0  0  0  0
   -2.3698   -2.0440    0.9768 H   0  0  0  0  0  0  0  0  0  0  0  0
    1.1342   -3.9156    6.6765 H   0  0  0  0  0  0  0  0  0  0  0  0
   -3.0066   -2.1684    4.6689 H   0  0  0  0  0  0  0  0  0  0  0  0
    1.4354   -2.2641    0.7168 H   0  0  0  0  0  0  0  0  0  0  0  0
    1.6295   -1.7681    2.4095 H   0  0  0  0  0  0  0  0  0  0  0  0
   -2.3912   -0.3558    3.0216 H   0  0  0  0  0  0  0  0  0  0  0  0
   -0.7304    0.1516    3.4802 H   0  0  0  0  0  0  0  0  0  0  0  0
   -4.4554   -5.0649    8.1889 H   0  0  0  0  0  0  0  0  0  0  0  0
   -4.6241   -3.2272    5.0940 H   0  0  0  0  0  0  0  0  0  0  0  0
   -3.5907   -7.1349   10.7306 H   0  0  0  0  0  0  0  0  0  0  0  0
  1 29  1  0  0  0  0
  1 30  1  0  0  0  0
  1 31  1  0  0  0  0
  2 32  1  0  0  0  0
  2 33  1  0  0  0  0
  3  2  1  0  0  0  0
  3 34  1  0  0  0  0
  3 35  1  0  0  0  0
  4 36  1  0  0  0  0
  4 37  1  0  0  0  0
  5 38  1  0  0  0  0
  6 39  1  0  0  0  0
  7 40  1  0  0  0  0
  7 41  1  0  0  0  0
  8 42  1  0  0  0  0
  8 43  1  0  0  0  0
  9 44  1  0  0  0  0
 10  2  1  0  0  0  0
 10  3  1  0  0  0  0
 10 45  1  0  0  0  0
 11  4  1  0  0  0  0
 11  8  1  0  0  0  0
 11 27  1  6  0  0  0
 12  4  1  0  0  0  0
 12  7  1  0  0  0  0
 12 28  1  6  0  0  0
 13  5  2  0  0  0  0
 14  9  2  0  0  0  0
 15  5  1  0  0  0  0
 16  6  2  0  0  0  0
 16 13  1  0  0  0  0
 17  6  1  0  0  0  0
 17 15  2  0  0  0  0
 18 13  1  0  0  0  0
 18 14  1  0  0  0  0
 19 14  1  0  0  0  0
 20 15  1  0  0  0  0
 21  1  1  0  0  0  0
 21  7  1  0  0  0  0
 21 11  1  0  0  0  0
 22  8  1  0  0  0  0
 22 12  1  0  0  0  0
 22 17  1  0  0  0  0
 23  9  1  0  0  0  0
 23 10  1  0  0  0  0
 23 16  1  0  0  0  0
 24 18  2  0  0  0  0
 25 19  2  0  0  0  0
 26 19  1  0  0  0  0
 26 46  1  0  0  0  0
M  END
>  <DRUGBANK_ID>
DB11393

>  <COMMON_NAME>
Danofloxacin

>  <CAS_NUMBER>
112398-08-0

>  <UNII>
24CU1YS91D

>  <SYNONYMS>
Danofloxacin; Danofloxacine; Danofloxacino; Danofloxacinum

$$$$
