
 OpenBabel10282417213D

 63 67  0  0  0  0  0  0  0  0999 V2000
    0.4552    1.1112    2.6608 Cl  0  0  0  0  0  0  0  0  0  0  0  0
    0.2362    2.8027    2.4571 C   0  0  0  0  0  0  0  0  0  0  0  0
   -0.2201    3.4110    1.2737 C   0  0  0  0  0  0  0  0  0  0  0  0
   -0.5838    2.6400    0.0270 C   0  0  2  0  0  0  0  0  0  0  0  0
   -0.0383    1.7178    0.0866 H   0  0  0  0  0  0  0  0  0  0  0  0
   -0.1199    3.3496   -1.2431 N   0  0  0  0  0  0  0  0  0  0  0  0
   -1.1001    3.6940   -2.2515 C   0  0  0  0  0  0  0  0  0  0  0  0
   -2.3104    4.2875   -1.9134 C   0  0  0  0  0  0  0  0  0  0  0  0
   -3.2946    4.5036   -2.8589 C   0  0  0  0  0  0  0  0  0  0  0  0
   -4.4848    4.9832   -2.4801 F   0  0  0  0  0  0  0  0  0  0  0  0
   -3.0104    4.2375   -4.1764 C   0  0  0  0  0  0  0  0  0  0  0  0
   -1.8162    3.7558   -4.5890 N   0  0  0  0  0  0  0  0  0  0  0  0
   -0.8936    3.4979   -3.6223 C   0  0  0  0  0  0  0  0  0  0  0  0
    1.2259    3.6771   -1.5208 C   0  0  0  0  0  0  0  0  0  0  0  0
    2.3341    3.2095   -0.5549 C   0  0  1  0  0  0  0  0  0  0  0  0
    2.0875    3.4888    0.4717 H   0  0  0  0  0  0  0  0  0  0  0  0
    2.7048    1.8025   -0.6290 N   0  0  0  0  0  0  0  0  0  0  0  0
    1.8459    0.6935   -0.7456 C   0  0  0  0  0  0  0  0  0  0  0  0
    1.8042   -0.1910    0.2728 N   0  0  0  0  0  0  0  0  0  0  0  0
    0.8400   -1.1438    0.2848 C   0  0  0  0  0  0  0  0  0  0  0  0
   -0.1074   -1.2763   -0.7081 C   0  0  0  0  0  0  0  0  0  0  0  0
   -0.0478   -0.3795   -1.7708 C   0  0  0  0  0  0  0  0  0  0  0  0
   -1.0748   -0.3832   -2.7752 C   0  0  0  0  0  0  0  0  0  0  0  0
   -1.9319   -0.3660   -3.5471 N   0  0  0  0  0  0  0  0  0  0  0  0
    0.9428    0.6064   -1.7959 C   0  0  0  0  0  0  0  0  0  0  0  0
    4.0721    1.6137   -0.4973 C   0  0  0  0  0  0  0  0  0  0  0  0
    4.7219    2.9587   -0.3091 C   0  0  0  0  0  0  0  0  0  0  0  0
    3.6718    3.9218   -0.8389 C   0  0  0  0  0  0  0  0  0  0  0  0
    4.6838    0.5610   -0.5784 O   0  0  0  0  0  0  0  0  0  0  0  0
    1.5437    4.3155   -2.5301 O   0  0  0  0  0  0  0  0  0  0  0  0
   -2.0689    2.2280    0.1616 C   0  0  0  0  0  0  0  0  0  0  0  0
   -2.4277    0.9025    0.0430 N   0  0  0  0  0  0  0  0  0  0  0  0
   -3.8629    0.5477   -0.0101 C   0  0  0  0  0  0  0  0  0  0  0  0
   -4.7496    1.3625    0.9679 C   0  0  0  0  0  0  0  0  0  0  0  0
   -5.5706    0.0942    1.1785 C   0  0  0  0  0  0  0  0  0  0  0  0
   -6.0220   -0.1069    2.4344 F   0  0  0  0  0  0  0  0  0  0  0  0
   -6.6292   -0.0331    0.3482 F   0  0  0  0  0  0  0  0  0  0  0  0
   -4.2972   -0.7013    0.7781 C   0  0  0  0  0  0  0  0  0  0  0  0
   -2.9356    3.0752    0.3750 O   0  0  0  0  0  0  0  0  0  0  0  0
   -0.4165    4.7966    1.2492 C   0  0  0  0  0  0  0  0  0  0  0  0
   -0.2058    5.5522    2.3851 C   0  0  0  0  0  0  0  0  0  0  0  0
    0.2569    4.9435    3.5453 C   0  0  0  0  0  0  0  0  0  0  0  0
    0.5084    3.5771    3.5745 C   0  0  0  0  0  0  0  0  0  0  0  0
   -2.5243    4.6422   -0.9166 H   0  0  0  0  0  0  0  0  0  0  0  0
   -3.7459    4.4392   -4.9455 H   0  0  0  0  0  0  0  0  0  0  0  0
    0.0357    3.0941   -4.0164 H   0  0  0  0  0  0  0  0  0  0  0  0
    0.8108   -1.7665    1.1781 H   0  0  0  0  0  0  0  0  0  0  0  0
   -0.9013   -2.0139   -0.6204 H   0  0  0  0  0  0  0  0  0  0  0  0
    0.9529    1.3395   -2.5925 H   0  0  0  0  0  0  0  0  0  0  0  0
    4.9354    3.1178    0.7517 H   0  0  0  0  0  0  0  0  0  0  0  0
    5.6439    3.0204   -0.8931 H   0  0  0  0  0  0  0  0  0  0  0  0
    3.7470    4.9099   -0.3667 H   0  0  0  0  0  0  0  0  0  0  0  0
    3.8358    4.0715   -1.9126 H   0  0  0  0  0  0  0  0  0  0  0  0
   -1.7292    0.1818    0.1409 H   0  0  0  0  0  0  0  0  0  0  0  0
   -4.2193    0.5550   -1.0483 H   0  0  0  0  0  0  0  0  0  0  0  0
   -4.2400    1.7072    1.8784 H   0  0  0  0  0  0  0  0  0  0  0  0
   -5.2783    2.2058    0.5147 H   0  0  0  0  0  0  0  0  0  0  0  0
   -4.4874   -1.5992    0.1844 H   0  0  0  0  0  0  0  0  0  0  0  0
   -3.6481   -0.9630    1.6215 H   0  0  0  0  0  0  0  0  0  0  0  0
   -0.7682    5.2918    0.3474 H   0  0  0  0  0  0  0  0  0  0  0  0
   -0.4252    6.6137    2.3570 H   0  0  0  0  0  0  0  0  0  0  0  0
    0.4035    5.5329    4.4423 H   0  0  0  0  0  0  0  0  0  0  0  0
    0.8826    3.1091    4.4814 H   0  0  0  0  0  0  0  0  0  0  0  0
  1  2  1  0  0  0  0
  2  3  2  0  0  0  0
  2 43  1  0  0  0  0
  3 40  1  0  0  0  0
  4  6  1  0  0  0  0
  4 31  1  0  0  0  0
  4  5  1  1  0  0  0
  4  3  1  0  0  0  0
  6  7  1  0  0  0  0
  6 14  1  0  0  0  0
  7  8  2  0  0  0  0
  7 13  1  0  0  0  0
  8  9  1  0  0  0  0
  8 44  1  0  0  0  0
  9 10  1  0  0  0  0
  9 11  2  0  0  0  0
 11 12  1  0  0  0  0
 11 45  1  0  0  0  0
 12 13  2  0  0  0  0
 13 46  1  0  0  0  0
 14 15  1  0  0  0  0
 14 30  2  0  0  0  0
 15 16  1  1  0  0  0
 15 17  1  0  0  0  0
 15 28  1  0  0  0  0
 17 18  1  0  0  0  0
 17 26  1  0  0  0  0
 18 19  2  0  0  0  0
 18 25  1  0  0  0  0
 19 20  1  0  0  0  0
 20 21  2  0  0  0  0
 20 47  1  0  0  0  0
 21 22  1  0  0  0  0
 21 48  1  0  0  0  0
 22 23  1  0  0  0  0
 22 25  2  0  0  0  0
 23 24  3  0  0  0  0
 25 49  1  0  0  0  0
 26 27  1  0  0  0  0
 26 29  2  0  0  0  0
 27 28  1  0  0  0  0
 27 50  1  0  0  0  0
 27 51  1  0  0  0  0
 28 52  1  0  0  0  0
 28 53  1  0  0  0  0
 31 32  1  0  0  0  0
 31 39  2  0  0  0  0
 32 33  1  0  0  0  0
 32 54  1  0  0  0  0
 33 34  1  0  0  0  0
 33 38  1  0  0  0  0
 33 55  1  0  0  0  0
 34 35  1  0  0  0  0
 34 56  1  0  0  0  0
 34 57  1  0  0  0  0
 35 36  1  0  0  0  0
 35 37  1  0  0  0  0
 35 38  1  0  0  0  0
 38 58  1  0  0  0  0
 38 59  1  0  0  0  0
 40 41  2  0  0  0  0
 40 60  1  0  0  0  0
 41 42  1  0  0  0  0
 41 61  1  0  0  0  0
 42 43  2  0  0  0  0
 42 62  1  0  0  0  0
 43 63  1  0  0  0  0
M  END
>  <DRUGBANK_ID>
DB14568

>  <COMMON_NAME>
Ivosidenib

>  <CAS_NUMBER>
1448347-49-6

>  <UNII>
Q2PCN8MAM6

>  <SYNONYMS>
Ivosidenib

$$$$
