FPB
 OpenBabel10282417163D

 54 56  0  0  0  0  0  0  0  0999 V2000
    4.2292   -0.9756    1.9607 O   0  0  0  0  0  0  0  0  0  0  0  0
    4.1748    0.2551    1.9471 C   0  0  0  0  0  0  0  0  0  0  0  0
    4.8446    1.0208    0.8241 C   0  0  0  0  0  0  0  0  0  0  0  0
    3.8730    1.8563    0.0147 C   0  0  2  0  0  0  0  0  0  0  0  0
    3.0503    0.8981   -0.7188 N   0  0  0  0  0  0  0  0  0  0  0  0
    4.6104    2.8991   -0.8539 C   0  0  0  0  0  0  0  0  0  0  0  0
    3.6914    3.8780   -1.5605 C   0  0  0  0  0  0  0  0  0  0  0  0
    2.6368    3.4651   -2.3880 C   0  0  0  0  0  0  0  0  0  0  0  0
    2.4219    2.1756   -2.6647 F   0  0  0  0  0  0  0  0  0  0  0  0
    1.7626    4.3520   -2.9902 C   0  0  0  0  0  0  0  0  0  0  0  0
    1.9943    5.7094   -2.8743 C   0  0  0  0  0  0  0  0  0  0  0  0
    3.0715    6.1614   -2.1110 C   0  0  0  0  0  0  0  0  0  0  0  0
    3.9017    5.2572   -1.4365 C   0  0  0  0  0  0  0  0  0  0  0  0
    3.6705    1.0060    3.0018 N   0  0  0  0  0  0  0  0  0  0  0  0
    3.7647    0.5729    4.3854 C   0  0  1  0  0  0  0  0  0  0  0  0
    2.3508    0.7617    4.9350 C   0  0  0  0  0  0  0  0  0  0  0  0
    1.8994    2.0358    4.2418 C   0  0  0  0  0  0  0  0  0  0  0  0
    2.6046    1.9965    2.8870 C   0  0  0  0  0  0  0  0  0  0  0  0
    4.3205   -0.8151    4.6329 C   0  0  0  0  0  0  0  0  0  0  0  0
    4.7591   -0.9852    6.0012 N   0  0  0  0  0  0  0  0  0  0  0  0
    4.4342   -1.9855    6.8706 C   0  0  0  0  0  0  0  0  0  0  0  0
    4.8818   -1.9650    8.0190 O   0  0  0  0  0  0  0  0  0  0  0  0
    3.5207   -3.0696    6.4452 C   0  0  0  0  0  0  0  0  0  0  0  0
    3.6909   -3.7356    5.2236 C   0  0  0  0  0  0  0  0  0  0  0  0
    2.7904   -4.7215    4.8305 C   0  0  0  0  0  0  0  0  0  0  0  0
    1.7763   -5.1135    5.6998 C   0  0  0  0  0  0  0  0  0  0  0  0
    1.6519   -4.5081    6.9521 C   0  0  0  0  0  0  0  0  0  0  0  0
    2.4935   -3.4540    7.3089 C   0  0  0  0  0  0  0  0  0  0  0  0
    3.2173    2.4408    0.6508 H   0  0  0  0  0  0  0  0  0  0  0  0
    4.4256    1.3111    4.8569 H   0  0  0  0  0  0  0  0  0  0  0  0
    5.6553    1.6148    1.2603 H   0  0  0  0  0  0  0  0  0  0  0  0
    5.3382    0.2889    0.1640 H   0  0  0  0  0  0  0  0  0  0  0  0
    2.4099    1.3951   -1.3345 H   0  0  0  0  0  0  0  0  0  0  0  0
    2.4542    0.3548   -0.0981 H   0  0  0  0  0  0  0  0  0  0  0  0
    5.2641    3.4733   -0.1758 H   0  0  0  0  0  0  0  0  0  0  0  0
    5.2757    2.4226   -1.5807 H   0  0  0  0  0  0  0  0  0  0  0  0
    0.9361    3.9517   -3.5681 H   0  0  0  0  0  0  0  0  0  0  0  0
    1.3511    6.4048   -3.4028 H   0  0  0  0  0  0  0  0  0  0  0  0
    3.2706    7.2276   -2.0491 H   0  0  0  0  0  0  0  0  0  0  0  0
    4.7236    5.6434   -0.8362 H   0  0  0  0  0  0  0  0  0  0  0  0
    1.6937   -0.0701    4.6498 H   0  0  0  0  0  0  0  0  0  0  0  0
    2.3322    0.8520    6.0252 H   0  0  0  0  0  0  0  0  0  0  0  0
    0.8108    2.0938    4.1409 H   0  0  0  0  0  0  0  0  0  0  0  0
    2.2277    2.9124    4.8110 H   0  0  0  0  0  0  0  0  0  0  0  0
    1.9018    1.7229    2.0939 H   0  0  0  0  0  0  0  0  0  0  0  0
    3.0613    2.9691    2.6816 H   0  0  0  0  0  0  0  0  0  0  0  0
    3.5456   -1.5264    4.3521 H   0  0  0  0  0  0  0  0  0  0  0  0
    5.2166   -1.0062    4.0360 H   0  0  0  0  0  0  0  0  0  0  0  0
    5.4508   -0.3371    6.3600 H   0  0  0  0  0  0  0  0  0  0  0  0
    4.5037   -3.4709    4.5516 H   0  0  0  0  0  0  0  0  0  0  0  0
    2.8947   -5.1884    3.8544 H   0  0  0  0  0  0  0  0  0  0  0  0
    1.0874   -5.9000    5.4040 H   0  0  0  0  0  0  0  0  0  0  0  0
    0.9018   -4.8634    7.6529 H   0  0  0  0  0  0  0  0  0  0  0  0
    2.3528   -2.9376    8.2558 H   0  0  0  0  0  0  0  0  0  0  0  0
  1  2  2  0  0  0  0
  2  3  1  0  0  0  0
  2 14  1  0  0  0  0
  3 31  1  0  0  0  0
  3 32  1  0  0  0  0
  4  6  1  0  0  0  0
  4 29  1  1  0  0  0
  4  5  1  0  0  0  0
  4  3  1  0  0  0  0
  5 33  1  0  0  0  0
  5 34  1  0  0  0  0
  6  7  1  0  0  0  0
  6 35  1  0  0  0  0
  6 36  1  0  0  0  0
  7  8  2  0  0  0  0
  7 13  1  0  0  0  0
  8  9  1  0  0  0  0
  8 10  1  0  0  0  0
 10 11  2  0  0  0  0
 10 37  1  0  0  0  0
 11 12  1  0  0  0  0
 11 38  1  0  0  0  0
 12 13  2  0  0  0  0
 12 39  1  0  0  0  0
 13 40  1  0  0  0  0
 14 15  1  0  0  0  0
 14 18  1  0  0  0  0
 15 16  1  0  0  0  0
 15 30  1  1  0  0  0
 15 19  1  0  0  0  0
 16 17  1  0  0  0  0
 16 41  1  0  0  0  0
 16 42  1  0  0  0  0
 17 18  1  0  0  0  0
 17 43  1  0  0  0  0
 17 44  1  0  0  0  0
 18 45  1  0  0  0  0
 18 46  1  0  0  0  0
 19 20  1  0  0  0  0
 19 47  1  0  0  0  0
 19 48  1  0  0  0  0
 20 21  1  0  0  0  0
 20 49  1  0  0  0  0
 21 22  2  0  0  0  0
 21 23  1  0  0  0  0
 23 24  2  0  0  0  0
 23 28  1  0  0  0  0
 24 25  1  0  0  0  0
 24 50  1  0  0  0  0
 25 26  2  0  0  0  0
 25 51  1  0  0  0  0
 26 27  1  0  0  0  0
 26 52  1  0  0  0  0
 27 28  2  0  0  0  0
 27 53  1  0  0  0  0
 28 54  1  0  0  0  0
M  END
>  <DRUGBANK_ID>
DB07779

>  <COMMON_NAME>
N-({(2S)-1-[(3R)-3-AMINO-4-(2-FLUOROPHENYL)BUTANOYL]PYRROLIDIN-2-YL}METHYL)BENZAMIDE

$$$$
