
 OpenBabel10282417203D

 80 80  0  0  1  0  0  0  0  0999 V2000
    1.8481    0.2959   -0.1240 C   0  0  0  0  0  0  0  0  0  0  0  0
    1.5061   -1.1205   -0.5343 C   0  0  0  0  0  0  0  0  0  0  0  0
    1.4625   -2.3034    0.6224 C   0  0  0  0  0  0  0  0  0  0  0  0
    0.6258   -2.4161    2.0004 C   0  0  0  0  0  0  0  0  0  0  0  0
   -0.8213   -2.8607    2.0597 N   0  0  0  0  0  0  0  0  0  0  0  0
   -1.7481   -1.7303    2.0767 C   0  0  0  0  0  0  0  0  0  0  0  0
   -3.3234   -1.4908    1.7138 C   0  0  1  0  0  0  0  0  0  0  0  0
   -3.6443   -2.5861    0.7496 C   0  0  2  0  0  0  0  0  0  0  0  0
   -3.0189   -3.7696    1.5023 C   0  0  1  0  0  0  0  0  0  0  0  0
   -1.4579   -3.9594    1.3382 C   0  0  1  0  0  0  0  0  0  0  0  0
   -1.0413   -4.2519   -0.1431 C   0  0  0  0  0  0  0  0  0  0  0  0
   -2.0039   -4.9067   -0.8712 O   0  0  0  0  0  0  0  0  0  0  0  0
   -1.9963   -6.1993   -0.5167 C   0  0  0  0  0  0  0  0  0  0  0  0
   -1.3736   -6.6844    0.3459 O   0  0  0  0  0  0  0  0  0  0  0  0
   -2.9420   -6.7984   -1.5005 C   0  0  0  0  0  0  0  0  0  0  0  0
   -4.3354   -6.1576   -1.4004 C   0  0  0  0  0  0  0  0  0  0  0  0
   -4.4980   -4.7522   -1.9861 C   0  0  0  0  0  0  0  0  0  0  0  0
   -3.3891   -3.6153    3.0461 O   0  0  0  0  0  0  0  0  0  0  0  0
   -2.9700   -2.7876    4.0870 C   0  0  0  0  0  0  0  0  0  0  0  0
   -2.0328   -1.9955    4.2012 O   0  0  0  0  0  0  0  0  0  0  0  0
   -3.7574   -2.7846    5.3201 C   0  0  0  0  0  0  0  0  0  0  0  0
   -5.2484   -2.8910    5.3048 C   0  0  0  0  0  0  0  0  0  0  0  0
   -5.7413   -4.0221    4.4517 C   0  0  0  0  0  0  0  0  0  0  0  0
   -3.2707   -2.2530   -0.6742 O   0  0  0  0  0  0  0  0  0  0  0  0
   -2.2565   -1.7123   -1.3616 C   0  0  0  0  0  0  0  0  0  0  0  0
   -2.1853   -1.7505   -2.5907 O   0  0  0  0  0  0  0  0  0  0  0  0
   -1.0554   -1.3574   -0.6100 C   0  0  0  0  0  0  0  0  0  0  0  0
   -0.8520    0.0411    0.3351 C   0  0  0  0  0  0  0  0  0  0  0  0
   -1.9492    0.7015    1.1758 C   0  0  0  0  0  0  0  0  0  0  0  0
   -4.0092   -0.9777    2.8488 O   0  0  0  0  0  0  0  0  0  0  0  0
   -5.3124   -0.7788    3.0346 C   0  0  0  0  0  0  0  0  0  0  0  0
   -5.7036   -0.1489    3.9979 O   0  0  0  0  0  0  0  0  0  0  0  0
   -6.2077   -1.4241    2.0325 C   0  0  0  0  0  0  0  0  0  0  0  0
   -6.4555   -0.4518    0.8659 C   0  0  0  0  0  0  0  0  0  0  0  0
   -5.2854    0.1695    0.1159 C   0  0  0  0  0  0  0  0  0  0  0  0
    1.4982    0.6077    0.8634 H   0  0  0  0  0  0  0  0  0  0  0  0
    1.3370    1.0119   -0.8106 H   0  0  0  0  0  0  0  0  0  0  0  0
    2.9077    0.3971   -0.1548 H   0  0  0  0  0  0  0  0  0  0  0  0
    0.6984   -0.7479   -1.1662 H   0  0  0  0  0  0  0  0  0  0  0  0
    1.9469   -1.5624   -1.4412 H   0  0  0  0  0  0  0  0  0  0  0  0
    1.2604   -3.2711    0.1640 H   0  0  0  0  0  0  0  0  0  0  0  0
    2.5186   -2.4047    0.8888 H   0  0  0  0  0  0  0  0  0  0  0  0
    1.1370   -3.1239    2.6762 H   0  0  0  0  0  0  0  0  0  0  0  0
    0.7945   -1.4758    2.5623 H   0  0  0  0  0  0  0  0  0  0  0  0
   -1.7086   -1.5774    1.0881 H   0  0  0  0  0  0  0  0  0  0  0  0
   -1.1893   -0.9737    2.6180 H   0  0  0  0  0  0  0  0  0  0  0  0
   -3.5060   -0.6891    1.0531 H   0  0  0  0  0  0  0  0  0  0  0  0
   -4.7005   -2.7308    0.5555 H   0  0  0  0  0  0  0  0  0  0  0  0
   -3.5639   -4.6435    1.1555 H   0  0  0  0  0  0  0  0  0  0  0  0
   -1.2226   -4.8330    1.9422 H   0  0  0  0  0  0  0  0  0  0  0  0
   -1.0481   -3.4937   -0.8800 H   0  0  0  0  0  0  0  0  0  0  0  0
   -0.0337   -4.6286   -0.2967 H   0  0  0  0  0  0  0  0  0  0  0  0
   -2.5019   -6.6626   -2.4951 H   0  0  0  0  0  0  0  0  0  0  0  0
   -2.9256   -7.8395   -1.1986 H   0  0  0  0  0  0  0  0  0  0  0  0
   -5.0166   -6.8085   -1.9412 H   0  0  0  0  0  0  0  0  0  0  0  0
   -4.6415   -6.1104   -0.3472 H   0  0  0  0  0  0  0  0  0  0  0  0
   -4.1038   -4.6491   -2.9995 H   0  0  0  0  0  0  0  0  0  0  0  0
   -5.5334   -4.4001   -1.9453 H   0  0  0  0  0  0  0  0  0  0  0  0
   -3.9677   -4.0457   -1.3786 H   0  0  0  0  0  0  0  0  0  0  0  0
   -3.2700   -3.5831    5.8692 H   0  0  0  0  0  0  0  0  0  0  0  0
   -3.5078   -1.8221    5.8089 H   0  0  0  0  0  0  0  0  0  0  0  0
   -5.5470   -2.9689    6.3506 H   0  0  0  0  0  0  0  0  0  0  0  0
   -5.7786   -2.0076    4.9817 H   0  0  0  0  0  0  0  0  0  0  0  0
   -5.2958   -4.9541    4.7963 H   0  0  0  0  0  0  0  0  0  0  0  0
   -6.8273   -4.0475    4.4818 H   0  0  0  0  0  0  0  0  0  0  0  0
   -5.4968   -3.8910    3.3966 H   0  0  0  0  0  0  0  0  0  0  0  0
   -0.7125   -2.1324    0.0481 H   0  0  0  0  0  0  0  0  0  0  0  0
   -0.3337   -1.8871   -1.2851 H   0  0  0  0  0  0  0  0  0  0  0  0
   -0.0873   -0.1770    1.0952 H   0  0  0  0  0  0  0  0  0  0  0  0
   -0.6154    0.8108   -0.3645 H   0  0  0  0  0  0  0  0  0  0  0  0
   -2.2052    0.2559    2.1371 H   0  0  0  0  0  0  0  0  0  0  0  0
   -1.9894    1.6510    1.6945 H   0  0  0  0  0  0  0  0  0  0  0  0
   -2.6995    0.6403    0.4170 H   0  0  0  0  0  0  0  0  0  0  0  0
   -5.8538   -2.4278    1.8076 H   0  0  0  0  0  0  0  0  0  0  0  0
   -7.1403   -1.6813    2.5481 H   0  0  0  0  0  0  0  0  0  0  0  0
   -7.1098   -0.9310    0.1395 H   0  0  0  0  0  0  0  0  0  0  0  0
   -6.9313    0.4060    1.3385 H   0  0  0  0  0  0  0  0  0  0  0  0
   -4.7314   -0.6091   -0.3961 H   0  0  0  0  0  0  0  0  0  0  0  0
   -5.4300    0.8934   -0.6893 H   0  0  0  0  0  0  0  0  0  0  0  0
   -4.7371    0.7548    0.8584 H   0  0  0  0  0  0  0  0  0  0  0  0
  1  2  1  0  0  0  0
  1 36  1  0  0  0  0
  1 37  1  0  0  0  0
  1 38  1  0  0  0  0
  2  3  1  0  0  0  0
  2 39  1  0  0  0  0
  2 40  1  0  0  0  0
  3  4  1  0  0  0  0
  3 41  1  0  0  0  0
  3 42  1  0  0  0  0
  4  5  1  0  0  0  0
  4 43  1  0  0  0  0
  4 44  1  0  0  0  0
  5  6  1  0  0  0  0
  5 10  1  0  0  0  0
  6  7  1  0  0  0  0
  6 45  1  0  0  0  0
  6 46  1  0  0  0  0
  7  8  1  0  0  0  0
  7 47  1  6  0  0  0
  7 30  1  0  0  0  0
  8  9  1  0  0  0  0
  8 48  1  1  0  0  0
  8 24  1  0  0  0  0
  9 10  1  0  0  0  0
  9 18  1  0  0  0  0
  9 49  1  6  0  0  0
 10 50  1  1  0  0  0
 10 11  1  0  0  0  0
 11 12  1  0  0  0  0
 11 51  1  0  0  0  0
 11 52  1  0  0  0  0
 12 13  1  0  0  0  0
 13 14  2  0  0  0  0
 13 15  1  0  0  0  0
 15 16  1  0  0  0  0
 15 53  1  0  0  0  0
 15 54  1  0  0  0  0
 16 17  1  0  0  0  0
 16 55  1  0  0  0  0
 16 56  1  0  0  0  0
 17 57  1  0  0  0  0
 17 58  1  0  0  0  0
 17 59  1  0  0  0  0
 18 19  1  0  0  0  0
 19 20  2  0  0  0  0
 19 21  1  0  0  0  0
 21 22  1  0  0  0  0
 21 60  1  0  0  0  0
 21 61  1  0  0  0  0
 22 23  1  0  0  0  0
 22 62  1  0  0  0  0
 22 63  1  0  0  0  0
 23 64  1  0  0  0  0
 23 65  1  0  0  0  0
 23 66  1  0  0  0  0
 24 25  1  0  0  0  0
 25 26  2  0  0  0  0
 25 27  1  0  0  0  0
 27 28  1  0  0  0  0
 27 67  1  0  0  0  0
 27 68  1  0  0  0  0
 28 29  1  0  0  0  0
 28 69  1  0  0  0  0
 28 70  1  0  0  0  0
 29 71  1  0  0  0  0
 29 72  1  0  0  0  0
 29 73  1  0  0  0  0
 30 31  1  0  0  0  0
 31 32  2  0  0  0  0
 31 33  1  0  0  0  0
 33 34  1  0  0  0  0
 33 74  1  0  0  0  0
 33 75  1  0  0  0  0
 34 35  1  0  0  0  0
 34 76  1  0  0  0  0
 34 77  1  0  0  0  0
 35 78  1  0  0  0  0
 35 79  1  0  0  0  0
 35 80  1  0  0  0  0
M  END
>  <DRUGBANK_ID>
DB13106

>  <COMMON_NAME>
Glycovir

>  <CAS_NUMBER>
131262-82-3

>  <UNII>
QXJ91425UL

$$$$
