
 OpenBabel10282417133D

 29 29  0  0  0  0  0  0  0  0999 V2000
    0.6866    0.8226   -0.1403 C   0  0  1  0  0  0  0  0  0  0  0  0
    1.4134   -0.4811    0.2634 C   0  0  1  0  0  0  0  0  0  0  0  0
    0.7602   -1.6632   -0.1837 O   0  0  0  0  0  0  0  0  0  0  0  0
   -0.8177    0.7492    0.1468 C   0  0  2  0  0  0  0  0  0  0  0  0
   -0.5968   -1.7749    0.2540 C   0  0  1  0  0  0  0  0  0  0  0  0
   -1.4284   -0.5950   -0.2577 C   0  0  1  0  0  0  0  0  0  0  0  0
    2.7211   -0.5115   -0.2903 O   0  0  0  0  0  0  0  0  0  0  0  0
    1.2541    1.9567    0.5383 O   0  0  0  0  0  0  0  0  0  0  0  0
   -1.5019    1.8122   -0.5363 O   0  0  0  0  0  0  0  0  0  0  0  0
   -2.7669   -0.6960    0.2383 O   0  0  0  0  0  0  0  0  0  0  0  0
   -1.1749   -3.0809   -0.3220 C   0  0  0  0  0  0  0  0  0  0  0  0
   -1.1355   -4.1251    0.6427 O   0  0  0  0  0  0  0  0  0  0  0  0
   -0.0278   -5.5729    2.1121 O   0  0  0  0  0  0  0  0  0  0  0  0
    0.0179   -5.8459   -0.4007 O   0  0  0  0  0  0  0  0  0  0  0  0
    0.4153   -4.8673    0.8351 P   0  0  0  0  0  0  0  0  0  0  0  0
    1.9661   -5.6095    1.0274 O   0  0  0  0  0  0  0  0  0  0  0  0
    0.8455    1.0203   -1.2067 H   0  0  0  0  0  0  0  0  0  0  0  0
    1.5406   -0.5236    1.3507 H   0  0  0  0  0  0  0  0  0  0  0  0
   -1.0063    0.9363    1.2102 H   0  0  0  0  0  0  0  0  0  0  0  0
   -0.6093   -1.8161    1.3515 H   0  0  0  0  0  0  0  0  0  0  0  0
   -1.4935   -0.6385   -1.3518 H   0  0  0  0  0  0  0  0  0  0  0  0
    2.6149   -0.4373   -1.2534 H   0  0  0  0  0  0  0  0  0  0  0  0
    1.0379    1.9006    1.4860 H   0  0  0  0  0  0  0  0  0  0  0  0
   -1.3939    1.6882   -1.4965 H   0  0  0  0  0  0  0  0  0  0  0  0
   -2.7610   -0.5691    1.2044 H   0  0  0  0  0  0  0  0  0  0  0  0
   -2.2292   -2.9731   -0.5893 H   0  0  0  0  0  0  0  0  0  0  0  0
   -0.6342   -3.3949   -1.2214 H   0  0  0  0  0  0  0  0  0  0  0  0
   -0.8502   -6.2437   -0.1820 H   0  0  0  0  0  0  0  0  0  0  0  0
    1.7773   -6.3622    1.6226 H   0  0  0  0  0  0  0  0  0  0  0  0
  1  8  1  0  0  0  0
  1  4  1  0  0  0  0
  1 17  1  6  0  0  0
  2  1  1  0  0  0  0
  2  7  1  0  0  0  0
  2  3  1  0  0  0  0
  2 18  1  1  0  0  0
  4  9  1  0  0  0  0
  4  6  1  0  0  0  0
  4 19  1  1  0  0  0
  5  3  1  0  0  0  0
  5 20  1  1  0  0  0
  5 11  1  0  0  0  0
  6  5  1  0  0  0  0
  6 10  1  0  0  0  0
  6 21  1  6  0  0  0
  7 22  1  0  0  0  0
  8 23  1  0  0  0  0
  9 24  1  0  0  0  0
 10 25  1  0  0  0  0
 11 26  1  0  0  0  0
 11 27  1  0  0  0  0
 12 11  1  0  0  0  0
 12 15  1  0  0  0  0
 13 15  2  0  0  0  0
 14 15  1  0  0  0  0
 14 28  1  0  0  0  0
 15 16  1  0  0  0  0
 16 29  1  0  0  0  0
M  END
>  <DRUGBANK_ID>
DB04122

>  <SECONDARY_ACCESSION_NUMBERS>
EXPT00684

>  <COMMON_NAME>
beta-D-glucose 6-phosphate

>  <CAS_NUMBER>
15209-12-8

>  <UNII>
G6FRT62N3J

>  <SYNONYMS>
6-H2PO3Glcβ; 6-O-phosphono-β-D-glucopyranose; beta-D-glucose 6-(dihydrogen phosphate); beta-D-Glucose 6-phosphic acid; beta-D-glucose-6-phosphate; β-D-glucose 6-phosphate

$$$$
