448
 OpenBabel10282417103D

 39 41  0  0  1  0  0  0  0  0999 V2000
    0.9688    0.2119    0.1040 S   0  0  3  0  0  0  0  0  0  0  0  0
    1.8477   -5.5566    0.0382 F   0  0  0  0  0  0  0  0  0  0  0  0
    0.6770   -7.2500    0.7136 F   0  0  0  0  0  0  0  0  0  0  0  0
    2.3516   -7.5403   -0.6588 F   0  0  0  0  0  0  0  0  0  0  0  0
    0.7411   -5.7454   -2.5896 O   0  0  0  0  0  0  0  0  0  0  0  0
    0.4557    1.0932   -0.9901 O   0  0  0  0  0  0  0  0  0  0  0  0
    3.4621   -1.0457    0.0979 N   0  0  0  0  0  0  0  0  0  0  0  0
    3.4653    1.1631   -0.0034 N   0  0  0  0  0  0  0  0  0  0  0  0
    1.3674   -1.6749   -2.2450 N   0  0  0  0  0  0  0  0  0  0  0  0
    0.3955   -1.4641   -0.0056 C   0  0  0  0  0  0  0  0  0  0  0  0
    0.7356   -2.2916   -1.2226 C   0  0  0  0  0  0  0  0  0  0  0  0
    0.3967   -3.6616   -1.2281 C   0  0  0  0  0  0  0  0  0  0  0  0
    2.6957    0.0902    0.0296 C   0  0  0  0  0  0  0  0  0  0  0  0
    4.7850   -0.6871    0.0875 C   0  0  0  0  0  0  0  0  0  0  0  0
    4.7517    0.7022    0.0496 C   0  0  0  0  0  0  0  0  0  0  0  0
    0.8014   -4.3978   -2.3571 C   0  0  0  0  0  0  0  0  0  0  0  0
   -0.3227   -4.1459    0.0122 C   0  0  0  0  0  0  0  0  0  0  0  0
    5.9714   -1.4235    0.0965 C   0  0  0  0  0  0  0  0  0  0  0  0
    1.3988   -3.7320   -3.4399 C   0  0  0  0  0  0  0  0  0  0  0  0
    5.9545    1.4192    0.0607 C   0  0  0  0  0  0  0  0  0  0  0  0
    1.6475   -2.3822   -3.3467 C   0  0  0  0  0  0  0  0  0  0  0  0
    7.1646   -0.6900    0.0860 C   0  0  0  0  0  0  0  0  0  0  0  0
    7.1595    0.7076    0.0741 C   0  0  0  0  0  0  0  0  0  0  0  0
    0.3338   -6.6222   -1.5465 C   0  0  0  0  0  0  0  0  0  0  0  0
    1.3129   -6.7310   -0.3661 C   0  0  0  0  0  0  0  0  0  0  0  0
    3.1253   -1.9991    0.0408 H   0  0  0  0  0  0  0  0  0  0  0  0
    0.7825   -1.9592    0.8932 H   0  0  0  0  0  0  0  0  0  0  0  0
   -0.6956   -1.4299    0.0810 H   0  0  0  0  0  0  0  0  0  0  0  0
    0.3209   -4.0069    0.8899 H   0  0  0  0  0  0  0  0  0  0  0  0
   -1.2561   -3.5959    0.1525 H   0  0  0  0  0  0  0  0  0  0  0  0
   -0.6211   -5.1805    0.0654 H   0  0  0  0  0  0  0  0  0  0  0  0
    5.9796   -2.5084    0.1046 H   0  0  0  0  0  0  0  0  0  0  0  0
    1.6813   -4.2623   -4.3455 H   0  0  0  0  0  0  0  0  0  0  0  0
    5.9372    2.5030    0.0487 H   0  0  0  0  0  0  0  0  0  0  0  0
    2.0935   -1.8179   -4.1615 H   0  0  0  0  0  0  0  0  0  0  0  0
    8.1167   -1.2172    0.0863 H   0  0  0  0  0  0  0  0  0  0  0  0
    8.0996    1.2534    0.0657 H   0  0  0  0  0  0  0  0  0  0  0  0
   -0.7058   -6.3943   -1.2902 H   0  0  0  0  0  0  0  0  0  0  0  0
    0.2464   -7.6233   -1.9802 H   0  0  0  0  0  0  0  0  0  0  0  0
  1  6  2  0  0  0  0
  1 10  1  0  0  0  0
  1 13  1  0  0  0  0
  2 25  1  0  0  0  0
  3 25  1  0  0  0  0
  4 25  1  0  0  0  0
  5 16  1  0  0  0  0
  5 24  1  0  0  0  0
  7 13  1  0  0  0  0
  7 14  1  0  0  0  0
  7 26  1  0  0  0  0
  8 13  2  0  0  0  0
  8 15  1  0  0  0  0
  9 11  2  0  0  0  0
  9 21  1  0  0  0  0
 10 11  1  0  0  0  0
 10 27  1  0  0  0  0
 10 28  1  0  0  0  0
 11 12  1  0  0  0  0
 12 16  2  0  0  0  0
 12 17  1  0  0  0  0
 14 15  1  0  0  0  0
 14 18  2  0  0  0  0
 15 20  2  0  0  0  0
 16 19  1  0  0  0  0
 17 29  1  0  0  0  0
 17 30  1  0  0  0  0
 17 31  1  0  0  0  0
 18 22  1  0  0  0  0
 18 32  1  0  0  0  0
 19 21  2  0  0  0  0
 19 33  1  0  0  0  0
 20 23  1  0  0  0  0
 20 34  1  0  0  0  0
 21 35  1  0  0  0  0
 22 23  2  0  0  0  0
 22 36  1  0  0  0  0
 23 37  1  0  0  0  0
 24 25  1  0  0  0  0
 24 38  1  0  0  0  0
 24 39  1  0  0  0  0
M  END
>  <DRUGBANK_ID>
DB00448

>  <SECONDARY_ACCESSION_NUMBERS>
APRD00077

>  <COMMON_NAME>
Lansoprazole

>  <CAS_NUMBER>
103577-45-3

>  <UNII>
0K5C5T2QPG

>  <SYNONYMS>
Lansoprazol; Lansoprazole; Lansoprazolum

$$$$
