
 OpenBabel10282417183D

 33 33  0  0  0  0  0  0  0  0999 V2000
    0.9552   -1.1924    0.0340 C   0  0  0  0  0  0  0  0  0  0  0  0
    1.8449   -2.4245    0.0863 N   0  0  0  0  0  0  0  0  0  0  0  0
   -0.5218   -1.2147    0.0628 C   0  0  0  0  0  0  0  0  0  0  0  0
   -1.3661   -0.0376    0.1397 C   0  0  0  0  0  0  0  0  0  0  0  0
    1.4514    0.1678    0.0346 C   0  0  0  0  0  0  0  0  0  0  0  0
    1.2889   -3.7679   -0.0031 C   0  0  0  0  0  0  0  0  0  0  0  0
   -0.7755    1.2088    0.0539 C   0  0  0  0  0  0  0  0  0  0  0  0
    1.3650   -4.4747   -1.3842 C   0  0  3  0  0  0  0  0  0  0  0  0
    0.5946    1.3039   -0.0116 C   0  0  0  0  0  0  0  0  0  0  0  0
    3.2599   -2.4001    0.0578 C   0  0  0  0  0  0  0  0  0  0  0  0
    2.7660   -4.7661   -1.8794 C   0  0  0  0  0  0  0  0  0  0  0  0
   -1.9974   -3.0050   -0.1414 I   0  0  0  0  0  0  0  0  0  0  0  0
    3.9403   -1.5328   -0.4401 O   0  0  0  0  0  0  0  0  0  0  0  0
    3.3684   -5.8204   -1.7544 O   0  0  0  0  0  0  0  0  0  0  0  0
   -2.7501   -0.1145    0.3049 N   0  0  0  0  0  0  0  0  0  0  0  0
    3.4299    1.1013    0.2074 I   0  0  0  0  0  0  0  0  0  0  0  0
   -1.8768    2.9930    0.0045 I   0  0  0  0  0  0  0  0  0  0  0  0
    3.3804   -3.6566   -2.3375 O   0  0  0  0  0  0  0  0  0  0  0  0
    0.6487   -5.8247   -1.2780 C   0  0  0  0  0  0  0  0  0  0  0  0
    4.0697   -3.6124    0.5387 C   0  0  0  0  0  0  0  0  0  0  0  0
    1.7121   -4.3841    0.7973 H   0  0  0  0  0  0  0  0  0  0  0  0
    0.2737   -3.7400    0.3119 H   0  0  0  0  0  0  0  0  0  0  0  0
    0.8794   -3.8705   -2.1592 H   0  0  0  0  0  0  0  0  0  0  0  0
    1.0168    2.3068   -0.0695 H   0  0  0  0  0  0  0  0  0  0  0  0
   -3.3125    0.7261    0.3433 H   0  0  0  0  0  0  0  0  0  0  0  0
   -3.2018   -1.0162    0.3871 H   0  0  0  0  0  0  0  0  0  0  0  0
    4.3500   -3.7485   -2.1971 H   0  0  0  0  0  0  0  0  0  0  0  0
   -0.4308   -5.6950   -1.1831 H   0  0  0  0  0  0  0  0  0  0  0  0
    0.8420   -6.4470   -2.1574 H   0  0  0  0  0  0  0  0  0  0  0  0
    0.9991   -6.3808   -0.3988 H   0  0  0  0  0  0  0  0  0  0  0  0
    3.7965   -3.9769    1.5225 H   0  0  0  0  0  0  0  0  0  0  0  0
    4.0749   -4.4610   -0.1267 H   0  0  0  0  0  0  0  0  0  0  0  0
    5.1219   -3.3060    0.5138 H   0  0  0  0  0  0  0  0  0  0  0  0
  2  1  1  0  0  0  0
  3  1  1  0  0  0  0
  4  3  2  0  0  0  0
  5  1  2  0  0  0  0
  6  2  1  0  0  0  0
  6 21  1  0  0  0  0
  6 22  1  0  0  0  0
  7  9  2  0  0  0  0
  7  4  1  0  0  0  0
  8  6  1  0  0  0  0
  8 23  1  0  0  0  0
  9  5  1  0  0  0  0
  9 24  1  0  0  0  0
 10  2  1  0  0  0  0
 11  8  1  0  0  0  0
 12  3  1  0  0  0  0
 13 10  2  0  0  0  0
 14 11  2  0  0  0  0
 15  4  1  0  0  0  0
 15 25  1  0  0  0  0
 15 26  1  0  0  0  0
 16  5  1  0  0  0  0
 17  7  1  0  0  0  0
 18 11  1  0  0  0  0
 18 27  1  0  0  0  0
 19  8  1  0  0  0  0
 19 28  1  0  0  0  0
 19 29  1  0  0  0  0
 19 30  1  0  0  0  0
 20 10  1  0  0  0  0
 20 31  1  0  0  0  0
 20 32  1  0  0  0  0
 20 33  1  0  0  0  0
M  END
>  <DRUGBANK_ID>
DB09403

>  <COMMON_NAME>
Iocetamic acid

>  <CAS_NUMBER>
16034-77-8

>  <UNII>
FA675Q0E3E

>  <SYNONYMS>
Acido iocetamico; Acidum iocetamicum; Iocetamic acid

$$$$
