
 OpenBabel10282417163D

 39 40  0  0  0  0  0  0  0  0999 V2000
   -0.4004    1.2572   -0.1515 C   0  0  0  0  0  0  0  0  0  0  0  0
    1.0981    1.2609    0.1018 C   0  0  0  0  0  0  0  0  0  0  0  0
    1.8652   -0.0007   -0.3644 C   0  0  0  0  0  0  0  0  0  0  0  0
    1.1296   -1.2426    0.2056 C   0  0  0  0  0  0  0  0  0  0  0  0
   -0.3748   -1.2500   -0.0624 C   0  0  0  0  0  0  0  0  0  0  0  0
   -1.0326    0.0122    0.3136 N   0  0  0  0  0  0  0  0  0  0  0  0
   -2.4339   -0.0019   -0.0993 C   0  0  0  0  0  0  0  0  0  0  0  0
    1.8558   -0.0278   -1.9405 C   0  0  0  0  0  0  0  0  0  0  0  0
    3.3219    0.0070    0.2928 C   0  0  0  0  0  0  0  0  0  0  0  0
    4.3819   -0.0217   -0.3534 O   0  0  0  0  0  0  0  0  0  0  0  0
    0.6559   -0.0316   -2.6933 C   0  0  0  0  0  0  0  0  0  0  0  0
    0.6089   -0.0159   -4.0819 C   0  0  0  0  0  0  0  0  0  0  0  0
    1.7755   -0.0230   -4.8036 C   0  0  0  0  0  0  0  0  0  0  0  0
    2.9801   -0.0251   -4.1191 C   0  0  0  0  0  0  0  0  0  0  0  0
    3.0142   -0.0179   -2.7208 C   0  0  0  0  0  0  0  0  0  0  0  0
    3.5327   -0.0223    1.7992 C   0  0  0  0  0  0  0  0  0  0  0  0
    3.1172    1.2321    2.5274 C   0  0  0  0  0  0  0  0  0  0  0  0
   -0.5827    0.0108   -4.7437 O   0  0  0  0  0  0  0  0  0  0  0  0
   -0.6163    1.5154   -1.1913 H   0  0  0  0  0  0  0  0  0  0  0  0
   -0.8359    2.0993    0.4027 H   0  0  0  0  0  0  0  0  0  0  0  0
    1.1272    1.3454    1.1771 H   0  0  0  0  0  0  0  0  0  0  0  0
    1.5700    2.1727   -0.2830 H   0  0  0  0  0  0  0  0  0  0  0  0
    1.2439   -1.2920    1.2960 H   0  0  0  0  0  0  0  0  0  0  0  0
    1.5846   -2.1638   -0.1818 H   0  0  0  0  0  0  0  0  0  0  0  0
   -0.8206   -2.0750    0.5074 H   0  0  0  0  0  0  0  0  0  0  0  0
   -0.5642   -1.5435   -1.0983 H   0  0  0  0  0  0  0  0  0  0  0  0
   -2.9536    0.8773    0.2945 H   0  0  0  0  0  0  0  0  0  0  0  0
   -2.5294    0.0013   -1.1916 H   0  0  0  0  0  0  0  0  0  0  0  0
   -2.9456   -0.8863    0.2909 H   0  0  0  0  0  0  0  0  0  0  0  0
   -0.3166   -0.0398   -2.2361 H   0  0  0  0  0  0  0  0  0  0  0  0
    1.7506   -0.0241   -5.8845 H   0  0  0  0  0  0  0  0  0  0  0  0
    3.9218   -0.0262   -4.6574 H   0  0  0  0  0  0  0  0  0  0  0  0
    4.0127    0.0004   -2.3116 H   0  0  0  0  0  0  0  0  0  0  0  0
    3.1111   -0.9314    2.2299 H   0  0  0  0  0  0  0  0  0  0  0  0
    4.6211   -0.1136    1.9449 H   0  0  0  0  0  0  0  0  0  0  0  0
    2.0449    1.2483    2.7091 H   0  0  0  0  0  0  0  0  0  0  0  0
    3.5593    1.2708    3.5235 H   0  0  0  0  0  0  0  0  0  0  0  0
    3.4087    2.1277    1.9672 H   0  0  0  0  0  0  0  0  0  0  0  0
   -1.3084    0.0485   -4.0978 H   0  0  0  0  0  0  0  0  0  0  0  0
  1  2  1  0  0  0  0
  1  6  1  0  0  0  0
  1 19  1  0  0  0  0
  1 20  1  0  0  0  0
  2  3  1  0  0  0  0
  2 21  1  0  0  0  0
  2 22  1  0  0  0  0
  3  9  1  0  0  0  0
  3  4  1  0  0  0  0
  3  8  1  0  0  0  0
  4  5  1  0  0  0  0
  4 23  1  0  0  0  0
  4 24  1  0  0  0  0
  5  6  1  0  0  0  0
  5 25  1  0  0  0  0
  5 26  1  0  0  0  0
  6  7  1  0  0  0  0
  7 27  1  0  0  0  0
  7 28  1  0  0  0  0
  7 29  1  0  0  0  0
  8 11  2  0  0  0  0
  9 10  2  0  0  0  0
  9 16  1  0  0  0  0
 11 12  1  0  0  0  0
 11 30  1  0  0  0  0
 12 13  2  0  0  0  0
 12 18  1  0  0  0  0
 13 14  1  0  0  0  0
 13 31  1  0  0  0  0
 14 15  2  0  0  0  0
 14 32  1  0  0  0  0
 15  8  1  0  0  0  0
 15 33  1  0  0  0  0
 16 17  1  0  0  0  0
 16 34  1  0  0  0  0
 16 35  1  0  0  0  0
 17 36  1  0  0  0  0
 17 37  1  0  0  0  0
 17 38  1  0  0  0  0
 18 39  1  0  0  0  0
M  END
>  <DRUGBANK_ID>
DB06738

>  <COMMON_NAME>
Ketobemidone

>  <CAS_NUMBER>
469-79-4

>  <UNII>
PQS1L514CF

>  <SYNONYMS>
Cetobemidona; Cetobemidone; Cetobemidonum; Ketobemidone

$$$$
