285
 OpenBabel10282417103D

 47 48  0  0  1  0  0  0  0  0999 V2000
    2.2495   -0.2483    0.1944 O   0  0  0  0  0  0  0  0  0  0  0  0
    3.7743    4.2083   -4.2036 O   0  0  0  0  0  0  0  0  0  0  0  0
   -1.5946    0.8315   -2.8424 N   0  0  0  0  0  0  0  0  0  0  0  0
    0.8487   -0.0839   -0.1967 C   0  0  0  0  0  0  0  0  0  0  0  0
    0.7846   -0.0951   -1.9022 C   0  0  3  0  0  0  0  0  0  0  0  0
    0.1659   -1.3162    0.4125 C   0  0  0  0  0  0  0  0  0  0  0  0
    0.4618    1.1644    0.6948 C   0  0  0  0  0  0  0  0  0  0  0  0
   -1.3457   -1.2345    0.4139 C   0  0  0  0  0  0  0  0  0  0  0  0
   -1.0189    1.3913    1.0413 C   0  0  0  0  0  0  0  0  0  0  0  0
   -1.9005    0.0848    1.0542 C   0  0  0  0  0  0  0  0  0  0  0  0
   -0.6290   -0.3216   -2.7968 C   0  0  0  0  0  0  0  0  0  0  0  0
    1.6263    1.0338   -2.5324 C   0  0  0  0  0  0  0  0  0  0  0  0
    2.9779    1.1538   -2.2656 C   0  0  0  0  0  0  0  0  0  0  0  0
    1.0706    1.9858   -3.4287 C   0  0  0  0  0  0  0  0  0  0  0  0
   -3.0374    0.6695   -2.9591 C   0  0  0  0  0  0  0  0  0  0  0  0
   -1.4745    1.4221   -1.5695 C   0  0  0  0  0  0  0  0  0  0  0  0
    3.7380    2.1923   -2.7903 C   0  0  0  0  0  0  0  0  0  0  0  0
    1.8264    2.9965   -3.9882 C   0  0  0  0  0  0  0  0  0  0  0  0
    3.1439    3.1350   -3.6564 C   0  0  0  0  0  0  0  0  0  0  0  0
    5.1008    4.4130   -3.7508 C   0  0  0  0  0  0  0  0  0  0  0  0
    2.6294   -1.0067   -0.2765 H   0  0  0  0  0  0  0  0  0  0  0  0
    1.3580   -1.0070   -2.1574 H   0  0  0  0  0  0  0  0  0  0  0  0
    0.5256   -2.2197   -0.0973 H   0  0  0  0  0  0  0  0  0  0  0  0
    0.4891   -1.4363    1.4561 H   0  0  0  0  0  0  0  0  0  0  0  0
    0.9562    1.0884    1.6755 H   0  0  0  0  0  0  0  0  0  0  0  0
    0.9146    2.0665    0.2561 H   0  0  0  0  0  0  0  0  0  0  0  0
   -1.7120   -1.3886   -0.6062 H   0  0  0  0  0  0  0  0  0  0  0  0
   -1.7657   -2.1122    0.9200 H   0  0  0  0  0  0  0  0  0  0  0  0
   -1.3226    2.2081    0.3798 H   0  0  0  0  0  0  0  0  0  0  0  0
   -1.2448    1.9882    1.9344 H   0  0  0  0  0  0  0  0  0  0  0  0
   -2.8837    0.2851    0.5934 H   0  0  0  0  0  0  0  0  0  0  0  0
   -2.1147   -0.1348    2.0993 H   0  0  0  0  0  0  0  0  0  0  0  0
   -0.3227   -0.4990   -3.8389 H   0  0  0  0  0  0  0  0  0  0  0  0
   -1.1006   -1.2566   -2.4826 H   0  0  0  0  0  0  0  0  0  0  0  0
    3.4980    0.4468   -1.6142 H   0  0  0  0  0  0  0  0  0  0  0  0
    0.0325    2.0024   -3.7048 H   0  0  0  0  0  0  0  0  0  0  0  0
   -3.4469   -0.0864   -2.2808 H   0  0  0  0  0  0  0  0  0  0  0  0
   -3.5167    1.6207   -2.6400 H   0  0  0  0  0  0  0  0  0  0  0  0
   -3.3631    0.5637   -3.9860 H   0  0  0  0  0  0  0  0  0  0  0  0
   -1.5290    0.5407   -0.9733 H   0  0  0  0  0  0  0  0  0  0  0  0
   -0.5274    1.9269   -1.4296 H   0  0  0  0  0  0  0  0  0  0  0  0
   -2.2830    2.0593   -1.2115 H   0  0  0  0  0  0  0  0  0  0  0  0
    4.7739    2.2474   -2.5098 H   0  0  0  0  0  0  0  0  0  0  0  0
    1.3369    3.6890   -4.6838 H   0  0  0  0  0  0  0  0  0  0  0  0
    5.1304    4.5320   -2.6609 H   0  0  0  0  0  0  0  0  0  0  0  0
    5.7411    3.5865   -4.0765 H   0  0  0  0  0  0  0  0  0  0  0  0
    5.4702    5.3332   -4.2023 H   0  0  0  0  0  0  0  0  0  0  0  0
  1  4  1  0  0  0  0
  1 21  1  0  0  0  0
  2 19  1  0  0  0  0
  2 20  1  0  0  0  0
  3 11  1  0  0  0  0
  3 15  1  0  0  0  0
  3 16  1  0  0  0  0
  4  5  1  0  0  0  0
  4  6  1  0  0  0  0
  4  7  1  0  0  0  0
  5 11  1  0  0  0  0
  5 12  1  0  0  0  0
  5 22  1  0  0  0  0
  6  8  1  0  0  0  0
  6 23  1  0  0  0  0
  6 24  1  0  0  0  0
  7  9  1  0  0  0  0
  7 25  1  0  0  0  0
  7 26  1  0  0  0  0
  8 10  1  0  0  0  0
  8 27  1  0  0  0  0
  8 28  1  0  0  0  0
  9 10  1  0  0  0  0
  9 29  1  0  0  0  0
  9 30  1  0  0  0  0
 10 31  1  0  0  0  0
 10 32  1  0  0  0  0
 11 33  1  0  0  0  0
 11 34  1  0  0  0  0
 12 13  2  0  0  0  0
 12 14  1  0  0  0  0
 13 17  1  0  0  0  0
 13 35  1  0  0  0  0
 14 18  2  0  0  0  0
 14 36  1  0  0  0  0
 15 37  1  0  0  0  0
 15 38  1  0  0  0  0
 15 39  1  0  0  0  0
 16 40  1  0  0  0  0
 16 41  1  0  0  0  0
 16 42  1  0  0  0  0
 17 19  2  0  0  0  0
 17 43  1  0  0  0  0
 18 19  1  0  0  0  0
 18 44  1  0  0  0  0
 20 45  1  0  0  0  0
 20 46  1  0  0  0  0
 20 47  1  0  0  0  0
M  END
>  <DRUGBANK_ID>
DB00285

>  <SECONDARY_ACCESSION_NUMBERS>
APRD00125

>  <COMMON_NAME>
Venlafaxine

>  <CAS_NUMBER>
93413-69-5

>  <UNII>
GRZ5RCB1QG

>  <SYNONYMS>
Venlafaxina; Venlafaxine; Venlafaxinum

$$$$
