
 OpenBabel10282417143D

 28 28  0  0  1  0  0  0  0  0999 V2000
    0.9331   -0.0191   -0.0029 O   0  0  0  0  0  0  0  0  0  0  0  0
    0.5324    0.3309    1.3108 C   0  0  2  0  0  0  0  0  0  0  0  0
    0.6473    1.8049    1.6299 C   0  0  1  0  0  0  0  0  0  0  0  0
   -0.6183    2.6346    1.2226 C   0  0  0  0  0  0  0  0  0  0  0  0
   -0.9734    2.6294   -0.1826 O   0  0  0  0  0  0  0  0  0  0  0  0
    0.1673    3.4891   -1.1586 P   0  0  0  0  0  0  0  0  0  0  0  0
    1.3684    3.2730   -0.1236 O   0  0  0  0  0  0  0  0  0  0  0  0
    0.2514    2.0991   -2.0007 O   0  0  0  0  0  0  0  0  0  0  0  0
    1.1882    4.2586   -2.0321 O   0  0  0  0  0  0  0  0  0  0  0  0
    0.9576    1.9935    3.0148 O   0  0  0  0  0  0  0  0  0  0  0  0
    1.2018    0.6911    3.5690 C   0  0  2  0  0  0  0  0  0  0  0  0
    2.3050    0.7567    4.4537 O   0  0  0  0  0  0  0  0  0  0  0  0
    1.4531   -0.2550    2.3745 C   0  0  2  0  0  0  0  0  0  0  0  0
    2.8223   -0.2916    1.9110 O   0  0  0  0  0  0  0  0  0  0  0  0
   -0.1180    0.4494    4.3642 C   0  0  0  0  0  0  0  0  0  0  0  0
   -0.9453   -0.5246    3.9111 O   0  0  0  0  0  0  0  0  0  0  0  0
   -0.4672    1.1460    5.3034 O   0  0  0  0  0  0  0  0  0  0  0  0
    1.9048    0.0766   -0.0685 H   0  0  0  0  0  0  0  0  0  0  0  0
   -0.5076    0.0225    1.4242 H   0  0  0  0  0  0  0  0  0  0  0  0
    1.6100    2.0536    1.2051 H   0  0  0  0  0  0  0  0  0  0  0  0
   -1.4811    2.2491    1.7756 H   0  0  0  0  0  0  0  0  0  0  0  0
   -0.5201    3.6815    1.5442 H   0  0  0  0  0  0  0  0  0  0  0  0
    1.6056    4.1094    0.3138 H   0  0  0  0  0  0  0  0  0  0  0  0
   -0.6389    1.7083   -2.0767 H   0  0  0  0  0  0  0  0  0  0  0  0
    3.1173    0.8339    3.9316 H   0  0  0  0  0  0  0  0  0  0  0  0
    1.2017   -1.2920    2.5888 H   0  0  0  0  0  0  0  0  0  0  0  0
    3.2081    0.5987    1.8389 H   0  0  0  0  0  0  0  0  0  0  0  0
   -0.6761   -1.1124    3.1867 H   0  0  0  0  0  0  0  0  0  0  0  0
  1 18  1  0  0  0  0
  2  1  1  0  0  0  0
  2  3  1  0  0  0  0
  2 13  1  0  0  0  0
  2 19  1  1  0  0  0
  3 10  1  0  0  0  0
  3 20  1  6  0  0  0
  3  4  1  0  0  0  0
  4  5  1  0  0  0  0
  4 21  1  0  0  0  0
  4 22  1  0  0  0  0
  5  6  1  0  0  0  0
  6  7  1  0  0  0  0
  6  8  1  0  0  0  0
  6  9  2  0  0  0  0
  7 23  1  0  0  0  0
  8 24  1  0  0  0  0
 10 11  1  0  0  0  0
 11 12  1  1  0  0  0
 11 13  1  0  0  0  0
 11 15  1  0  0  0  0
 12 25  1  0  0  0  0
 13 26  1  1  0  0  0
 13 14  1  0  0  0  0
 14 27  1  0  0  0  0
 15 16  1  0  0  0  0
 15 17  2  0  0  0  0
 16 28  1  0  0  0  0
M  END
>  <DRUGBANK_ID>
DB04663

>  <COMMON_NAME>
2-KETO-6-PHOSPHATE-D-GLUCONIC ACID, ALPHA-FURANOSE FORM

$$$$
