WW7
 OpenBabel10282417143D

 43 44  0  0  0  0  0  0  0  0999 V2000
    1.1238   -0.0498    0.0846 S   0  0  0  0  0  0  0  0  0  0  0  0
    0.7622   -0.8452   -1.0627 O   0  0  0  0  0  0  0  0  0  0  0  0
    0.6723   -0.4422    1.4071 O   0  0  0  0  0  0  0  0  0  0  0  0
    0.5330    1.5004   -0.1680 N   0  0  0  0  0  0  0  0  0  0  0  0
    5.6767    0.0146   -0.0180 C   0  0  0  0  0  0  0  0  0  0  0  0
    4.9563   -1.1807   -0.0094 C   0  0  0  0  0  0  0  0  0  0  0  0
    3.5715   -1.1514    0.0266 C   0  0  0  0  0  0  0  0  0  0  0  0
    2.9087    0.0777    0.1500 C   0  0  0  0  0  0  0  0  0  0  0  0
    3.6427    1.3105    0.2200 C   0  0  0  0  0  0  0  0  0  0  0  0
    5.0463    1.2791    0.0473 C   0  0  0  0  0  0  0  0  0  0  0  0
    7.4876    2.5749   -0.1307 Cl  0  0  0  0  0  0  0  0  0  0  0  0
    5.7589    2.5141   -0.0274 C   0  0  0  0  0  0  0  0  0  0  0  0
    5.1067    3.7497   -0.0157 C   0  0  0  0  0  0  0  0  0  0  0  0
    3.7511    3.7879    0.1989 C   0  0  0  0  0  0  0  0  0  0  0  0
    3.0887    2.5947    0.4552 C   0  0  0  0  0  0  0  0  0  0  0  0
    0.9301    2.2595   -1.3655 C   0  0  0  0  0  0  0  0  0  0  0  0
    0.3674    1.6427   -2.6036 C   0  0  0  0  0  0  0  0  0  0  0  0
   -1.6327    3.1326   -2.4703 C   0  0  0  0  0  0  0  0  0  0  0  0
   -1.1452    1.6773   -2.5047 C   0  0  0  0  0  0  0  0  0  0  0  0
   -1.1501    3.9024   -3.7090 C   0  0  0  0  0  0  0  0  0  0  0  0
   -1.6019    3.2154   -4.9981 C   0  0  0  0  0  0  0  0  0  0  0  0
   -3.0582    3.1598   -5.0337 N   0  0  0  0  0  0  0  0  0  0  0  0
   -0.4247    1.6097    0.1733 H   0  0  0  0  0  0  0  0  0  0  0  0
    6.7620   -0.0536   -0.0641 H   0  0  0  0  0  0  0  0  0  0  0  0
    5.4841   -2.1307   -0.0386 H   0  0  0  0  0  0  0  0  0  0  0  0
    3.0119   -2.0859   -0.0171 H   0  0  0  0  0  0  0  0  0  0  0  0
    5.6516    4.6834   -0.1151 H   0  0  0  0  0  0  0  0  0  0  0  0
    3.1947    4.7218    0.1948 H   0  0  0  0  0  0  0  0  0  0  0  0
    2.0614    2.7106    0.7765 H   0  0  0  0  0  0  0  0  0  0  0  0
    0.6456    3.3098   -1.2109 H   0  0  0  0  0  0  0  0  0  0  0  0
    1.9994    2.2978   -1.5367 H   0  0  0  0  0  0  0  0  0  0  0  0
    0.7669    2.1745   -3.4715 H   0  0  0  0  0  0  0  0  0  0  0  0
    0.7492    0.6329   -2.7393 H   0  0  0  0  0  0  0  0  0  0  0  0
   -2.7218    3.1443   -2.3870 H   0  0  0  0  0  0  0  0  0  0  0  0
   -1.2970    3.6553   -1.5668 H   0  0  0  0  0  0  0  0  0  0  0  0
   -1.5608    1.1127   -3.3407 H   0  0  0  0  0  0  0  0  0  0  0  0
   -1.5023    1.1531   -1.6114 H   0  0  0  0  0  0  0  0  0  0  0  0
   -1.5101    4.9346   -3.6669 H   0  0  0  0  0  0  0  0  0  0  0  0
   -0.0553    3.9938   -3.7114 H   0  0  0  0  0  0  0  0  0  0  0  0
   -1.2177    3.7556   -5.8655 H   0  0  0  0  0  0  0  0  0  0  0  0
   -1.1938    2.2001   -5.0725 H   0  0  0  0  0  0  0  0  0  0  0  0
   -3.3600    2.6220   -5.8416 H   0  0  0  0  0  0  0  0  0  0  0  0
   -3.4044    2.6420   -4.2251 H   0  0  0  0  0  0  0  0  0  0  0  0
  1  2  2  0  0  0  0
  1  3  2  0  0  0  0
  1  4  1  0  0  0  0
  1  8  1  0  0  0  0
  4 16  1  0  0  0  0
  4 23  1  0  0  0  0
  5  6  2  0  0  0  0
  5 10  1  0  0  0  0
  5 24  1  0  0  0  0
  6  7  1  0  0  0  0
  6 25  1  0  0  0  0
  7  8  2  0  0  0  0
  7 26  1  0  0  0  0
  8  9  1  0  0  0  0
  9 10  2  0  0  0  0
  9 15  1  0  0  0  0
 10 12  1  0  0  0  0
 11 12  1  0  0  0  0
 12 13  2  0  0  0  0
 13 14  1  0  0  0  0
 13 27  1  0  0  0  0
 14 15  2  0  0  0  0
 14 28  1  0  0  0  0
 15 29  1  0  0  0  0
 16 17  1  0  0  0  0
 16 30  1  0  0  0  0
 16 31  1  0  0  0  0
 17 19  1  0  0  0  0
 17 32  1  0  0  0  0
 17 33  1  0  0  0  0
 18 19  1  0  0  0  0
 18 20  1  0  0  0  0
 18 34  1  0  0  0  0
 18 35  1  0  0  0  0
 19 36  1  0  0  0  0
 19 37  1  0  0  0  0
 20 21  1  0  0  0  0
 20 38  1  0  0  0  0
 20 39  1  0  0  0  0
 21 22  1  0  0  0  0
 21 40  1  0  0  0  0
 21 41  1  0  0  0  0
 22 42  1  0  0  0  0
 22 43  1  0  0  0  0
M  END
>  <DRUGBANK_ID>
DB04513

>  <SECONDARY_ACCESSION_NUMBERS>
EXPT03246

>  <COMMON_NAME>
N-(6-Aminohexyl)-5-Chloro-1-Naphthalenesulfonamide

$$$$
