
 OpenBabel10282417233D

 33 35  0  0  0  0  0  0  0  0999 V2000
    0.8135   -0.0659   -0.0189 C   0  0  0  0  0  0  0  0  0  0  0  0
    0.4700   -1.3633   -0.4998 O   0  0  0  0  0  0  0  0  0  0  0  0
    0.9165   -1.7293   -1.7483 C   0  0  0  0  0  0  0  0  0  0  0  0
   -0.0338   -2.3906   -2.5454 C   0  0  0  0  0  0  0  0  0  0  0  0
    0.3092   -2.9012   -3.8007 C   0  0  0  0  0  0  0  0  0  0  0  0
    1.6207   -2.7903   -4.2585 C   0  0  0  0  0  0  0  0  0  0  0  0
    2.5955   -2.1662   -3.4631 C   0  0  0  0  0  0  0  0  0  0  0  0
    2.2491   -1.6185   -2.1958 C   0  0  0  0  0  0  0  0  0  0  0  0
    3.1970   -0.8554   -1.4784 N   0  0  0  0  0  0  0  0  0  0  0  0
    3.9966   -2.1465   -3.9285 C   0  0  0  0  0  0  0  0  0  0  0  0
    4.9591   -2.7278   -3.1939 C   0  0  0  0  0  0  0  0  0  0  0  0
    6.3636   -2.5186   -3.5644 C   0  0  0  0  0  0  0  0  0  0  0  0
    7.2715   -2.9584   -2.8664 O   0  0  0  0  0  0  0  0  0  0  0  0
    6.6078   -1.7230   -4.7734 C   0  0  0  0  0  0  0  0  0  0  0  0
    7.9113   -1.4654   -5.2054 C   0  0  0  0  0  0  0  0  0  0  0  0
    8.1132   -0.7194   -6.3660 C   0  0  0  0  0  0  0  0  0  0  0  0
    7.0180   -0.2337   -7.0844 C   0  0  0  0  0  0  0  0  0  0  0  0
    5.7175   -0.4850   -6.6416 C   0  0  0  0  0  0  0  0  0  0  0  0
    5.5130   -1.2290   -5.4820 C   0  0  0  0  0  0  0  0  0  0  0  0
    4.2129   -1.4309   -5.0896 O   0  0  0  0  0  0  0  0  0  0  0  0
    0.3171    0.0619    0.9483 H   0  0  0  0  0  0  0  0  0  0  0  0
    0.4761    0.7207   -0.6979 H   0  0  0  0  0  0  0  0  0  0  0  0
    1.8683    0.0649    0.2173 H   0  0  0  0  0  0  0  0  0  0  0  0
   -1.0568   -2.5036   -2.1912 H   0  0  0  0  0  0  0  0  0  0  0  0
   -0.4404   -3.3984   -4.4138 H   0  0  0  0  0  0  0  0  0  0  0  0
    1.8829   -3.2058   -5.2301 H   0  0  0  0  0  0  0  0  0  0  0  0
    3.1481   -1.0171   -0.4803 H   0  0  0  0  0  0  0  0  0  0  0  0
    4.1527   -0.9052   -1.8044 H   0  0  0  0  0  0  0  0  0  0  0  0
    4.7686   -3.2695   -2.2751 H   0  0  0  0  0  0  0  0  0  0  0  0
    8.7625   -1.8448   -4.6438 H   0  0  0  0  0  0  0  0  0  0  0  0
    9.1244   -0.5188   -6.7122 H   0  0  0  0  0  0  0  0  0  0  0  0
    7.1780    0.3440   -7.9916 H   0  0  0  0  0  0  0  0  0  0  0  0
    4.8670   -0.1017   -7.1990 H   0  0  0  0  0  0  0  0  0  0  0  0
  1  2  1  0  0  0  0
  1 21  1  0  0  0  0
  1 22  1  0  0  0  0
  1 23  1  0  0  0  0
  2  3  1  0  0  0  0
  3  4  2  0  0  0  0
  3  8  1  0  0  0  0
  4  5  1  0  0  0  0
  4 24  1  0  0  0  0
  5  6  2  0  0  0  0
  5 25  1  0  0  0  0
  6  7  1  0  0  0  0
  6 26  1  0  0  0  0
  7  8  2  0  0  0  0
  7 10  1  0  0  0  0
  8  9  1  0  0  0  0
  9 27  1  0  0  0  0
  9 28  1  0  0  0  0
 10 11  2  0  0  0  0
 10 20  1  0  0  0  0
 11 12  1  0  0  0  0
 11 29  1  0  0  0  0
 12 13  2  0  0  0  0
 12 14  1  0  0  0  0
 14 15  2  0  0  0  0
 14 19  1  0  0  0  0
 15 16  1  0  0  0  0
 15 30  1  0  0  0  0
 16 17  2  0  0  0  0
 16 31  1  0  0  0  0
 17 18  1  0  0  0  0
 17 32  1  0  0  0  0
 18 19  2  0  0  0  0
 18 33  1  0  0  0  0
 19 20  1  0  0  0  0
M  END
>  <DRUGBANK_ID>
DB17042

>  <COMMON_NAME>
PD-98059

>  <CAS_NUMBER>
167869-21-8

>  <UNII>
SJE1IO5E3I

>  <SYNONYMS>
2-(2-amino-3-methoxyphenyl)-4h-1-benzopyran-4-one; 2-(2'-amino-3'-methoxyphenyl)oxanaphthalen-4-one; 4h-1-benzopyran-4-one, 2-(2-amino-3-methoxyphenyl)-

$$$$
