
 OpenBabel10282417183D

 69 72  0  0  0  0  0  0  0  0999 V2000
    1.0857    0.1217   -0.0219 C   0  0  0  0  0  0  0  0  0  0  0  0
    0.4147   -0.0965    0.9785 O   0  0  0  0  0  0  0  0  0  0  0  0
    0.4682    0.4572   -1.2252 N   0  0  0  0  0  0  0  0  0  0  0  0
    2.4848    0.0745   -0.0075 N   0  0  0  0  0  0  0  0  0  0  0  0
    3.4378   -2.0148    2.9682 C   0  0  0  0  0  0  0  0  0  0  0  0
    4.4896   -1.2380    3.5007 C   0  0  0  0  0  0  0  0  0  0  0  0
    4.9486   -0.0853    2.8555 C   0  0  0  0  0  0  0  0  0  0  0  0
    4.3010    0.3223    1.6662 C   0  0  0  0  0  0  0  0  0  0  0  0
    3.1946   -0.3950    1.1526 C   0  0  0  0  0  0  0  0  0  0  0  0
    2.8216   -1.6108    1.7666 C   0  0  0  0  0  0  0  0  0  0  0  0
    1.7858   -2.6678    0.8207 Cl  0  0  0  0  0  0  0  0  0  0  0  0
    4.8524    1.7424    0.8274 Cl  0  0  0  0  0  0  0  0  0  0  0  0
    3.1795   -3.1238    3.7390 O   0  0  0  0  0  0  0  0  0  0  0  0
    2.0974   -3.9639    3.3631 C   0  0  0  0  0  0  0  0  0  0  0  0
    5.9899    0.6874    3.3174 O   0  0  0  0  0  0  0  0  0  0  0  0
    2.3035    1.5565   -4.7323 N   0  0  0  0  0  0  0  0  0  0  0  0
    0.5970    1.8447   -3.1163 N   0  0  0  0  0  0  0  0  0  0  0  0
    1.2410    2.1862   -4.2318 C   0  0  0  0  0  0  0  0  0  0  0  0
    2.1802    0.0729   -2.8899 C   0  0  0  0  0  0  0  0  0  0  0  0
    2.7621    0.4821   -4.0660 C   0  0  0  0  0  0  0  0  0  0  0  0
    1.1021    0.8016   -2.4342 C   0  0  0  0  0  0  0  0  0  0  0  0
    3.9053   -0.1995   -4.5235 N   0  0  0  0  0  0  0  0  0  0  0  0
    5.7123    1.7131   -7.0919 C   0  0  0  0  0  0  0  0  0  0  0  0
    5.8139    0.7910   -8.1312 C   0  0  0  0  0  0  0  0  0  0  0  0
    5.1843   -0.4484   -8.0025 C   0  0  0  0  0  0  0  0  0  0  0  0
    4.5992   -0.8152   -6.7869 C   0  0  0  0  0  0  0  0  0  0  0  0
    4.5614    0.0957   -5.7261 C   0  0  0  0  0  0  0  0  0  0  0  0
    5.0816    1.3759   -5.9103 C   0  0  0  0  0  0  0  0  0  0  0  0
    6.5664    1.1213   -9.2271 N   0  0  0  0  0  0  0  0  0  0  0  0
    7.9663    2.5441  -11.3249 N   0  0  0  0  0  0  0  0  0  0  0  0
    6.5027    2.3316  -11.3641 C   0  0  0  0  0  0  0  0  0  0  0  0
    7.9816    1.4533   -9.0242 C   0  0  0  0  0  0  0  0  0  0  0  0
    8.3994    2.6351   -9.9154 C   0  0  0  0  0  0  0  0  0  0  0  0
    5.9832    1.1189  -10.5618 C   0  0  0  0  0  0  0  0  0  0  0  0
    8.7374    1.5907  -12.1372 C   0  0  0  0  0  0  0  0  0  0  0  0
   -0.9949    0.4829   -1.2349 C   0  0  0  0  0  0  0  0  0  0  0  0
    8.7284    0.0954  -11.8188 C   0  0  0  0  0  0  0  0  0  0  0  0
    6.6323    0.3116    4.5370 C   0  0  0  0  0  0  0  0  0  0  0  0
    2.9845    0.7233   -0.5994 H   0  0  0  0  0  0  0  0  0  0  0  0
    4.9549   -1.5828    4.4221 H   0  0  0  0  0  0  0  0  0  0  0  0
    1.1570   -3.4020    3.3180 H   0  0  0  0  0  0  0  0  0  0  0  0
    2.3387   -4.4823    2.4308 H   0  0  0  0  0  0  0  0  0  0  0  0
    1.9678   -4.7514    4.1070 H   0  0  0  0  0  0  0  0  0  0  0  0
    0.8803    3.0528   -4.7748 H   0  0  0  0  0  0  0  0  0  0  0  0
    2.5289   -0.8129   -2.3787 H   0  0  0  0  0  0  0  0  0  0  0  0
    4.0379   -1.1397   -4.1827 H   0  0  0  0  0  0  0  0  0  0  0  0
    6.1175    2.7133   -7.2135 H   0  0  0  0  0  0  0  0  0  0  0  0
    5.1813   -1.1481   -8.8341 H   0  0  0  0  0  0  0  0  0  0  0  0
    4.1607   -1.8040   -6.6907 H   0  0  0  0  0  0  0  0  0  0  0  0
    5.0101    2.1131   -5.1175 H   0  0  0  0  0  0  0  0  0  0  0  0
    6.0288    3.2303  -10.9386 H   0  0  0  0  0  0  0  0  0  0  0  0
    6.1528    2.2906  -12.4014 H   0  0  0  0  0  0  0  0  0  0  0  0
    8.2183    1.6940   -7.9798 H   0  0  0  0  0  0  0  0  0  0  0  0
    8.5904    0.5704   -9.2098 H   0  0  0  0  0  0  0  0  0  0  0  0
    7.9458    3.5401   -9.4827 H   0  0  0  0  0  0  0  0  0  0  0  0
    9.4810    2.8054   -9.8557 H   0  0  0  0  0  0  0  0  0  0  0  0
    6.1978    0.1770  -11.0599 H   0  0  0  0  0  0  0  0  0  0  0  0
    4.8880    1.1603  -10.5273 H   0  0  0  0  0  0  0  0  0  0  0  0
    8.4094    1.7035  -13.1775 H   0  0  0  0  0  0  0  0  0  0  0  0
    9.7838    1.9188  -12.1304 H   0  0  0  0  0  0  0  0  0  0  0  0
   -1.3579   -0.5335   -1.0333 H   0  0  0  0  0  0  0  0  0  0  0  0
   -1.3674    1.1401   -0.4446 H   0  0  0  0  0  0  0  0  0  0  0  0
   -1.4138    0.7929   -2.1980 H   0  0  0  0  0  0  0  0  0  0  0  0
    7.7443   -0.3525  -11.9263 H   0  0  0  0  0  0  0  0  0  0  0  0
    9.3655   -0.4588  -12.5098 H   0  0  0  0  0  0  0  0  0  0  0  0
    9.1247   -0.1292  -10.8329 H   0  0  0  0  0  0  0  0  0  0  0  0
    5.9320    0.3193    5.3794 H   0  0  0  0  0  0  0  0  0  0  0  0
    7.1228   -0.6629    4.4414 H   0  0  0  0  0  0  0  0  0  0  0  0
    7.4134    1.0486    4.7586 H   0  0  0  0  0  0  0  0  0  0  0  0
  2  1  2  0  0  0  0
  3  1  1  0  0  0  0
  4  1  1  0  0  0  0
  4 39  1  0  0  0  0
  6  5  1  0  0  0  0
  6 40  1  0  0  0  0
  7  6  2  0  0  0  0
  8  7  1  0  0  0  0
  9  4  1  0  0  0  0
  9  8  2  0  0  0  0
 10  5  2  0  0  0  0
 10  9  1  0  0  0  0
 11 10  1  0  0  0  0
 12  8  1  0  0  0  0
 13  5  1  0  0  0  0
 14 13  1  0  0  0  0
 14 41  1  0  0  0  0
 14 42  1  0  0  0  0
 14 43  1  0  0  0  0
 15  7  1  0  0  0  0
 15 38  1  0  0  0  0
 18 16  2  0  0  0  0
 18 17  1  0  0  0  0
 18 44  1  0  0  0  0
 19 45  1  0  0  0  0
 20 16  1  0  0  0  0
 20 19  2  0  0  0  0
 21  3  1  0  0  0  0
 21 17  2  0  0  0  0
 21 19  1  0  0  0  0
 22 20  1  0  0  0  0
 22 46  1  0  0  0  0
 23 47  1  0  0  0  0
 24 23  1  0  0  0  0
 25 24  2  0  0  0  0
 25 48  1  0  0  0  0
 26 25  1  0  0  0  0
 26 49  1  0  0  0  0
 27 22  1  0  0  0  0
 27 26  2  0  0  0  0
 28 23  2  0  0  0  0
 28 27  1  0  0  0  0
 28 50  1  0  0  0  0
 29 24  1  0  0  0  0
 31 30  1  0  0  0  0
 31 51  1  0  0  0  0
 31 52  1  0  0  0  0
 32 29  1  0  0  0  0
 32 53  1  0  0  0  0
 32 54  1  0  0  0  0
 33 30  1  0  0  0  0
 33 32  1  0  0  0  0
 33 55  1  0  0  0  0
 33 56  1  0  0  0  0
 34 29  1  0  0  0  0
 34 31  1  0  0  0  0
 34 57  1  0  0  0  0
 34 58  1  0  0  0  0
 35 30  1  0  0  0  0
 35 37  1  0  0  0  0
 35 59  1  0  0  0  0
 35 60  1  0  0  0  0
 36  3  1  0  0  0  0
 36 61  1  0  0  0  0
 36 62  1  0  0  0  0
 36 63  1  0  0  0  0
 37 64  1  0  0  0  0
 37 65  1  0  0  0  0
 37 66  1  0  0  0  0
 38 67  1  0  0  0  0
 38 68  1  0  0  0  0
 38 69  1  0  0  0  0
M  END
>  <DRUGBANK_ID>
DB11886

>  <COMMON_NAME>
Infigratinib

>  <CAS_NUMBER>
872511-34-7

>  <UNII>
A4055ME1VK

>  <SYNONYMS>
Infigratinib

$$$$
