
 OpenBabel10282417203D

 55 58  0  0  1  0  0  0  0  0999 V2000
    2.3651   -0.2248    1.2810 C   0  0  0  0  0  0  0  0  0  0  0  0
    2.5863    0.5727    2.9973 C   0  0  2  0  0  0  0  0  0  0  0  0
    1.8310    0.0161    4.2117 C   0  0  0  0  0  0  0  0  0  0  0  0
    1.5131   -1.3747    3.9718 C   0  0  1  0  0  0  0  0  0  0  0  0
    2.7864   -2.1971    3.8703 C   0  0  1  0  0  0  0  0  0  0  0  0
    3.8217   -1.4749    2.8447 C   0  0  2  0  0  0  0  0  0  0  0  0
    3.8345    0.4554    2.4219 C   0  0  2  0  0  0  0  0  0  0  0  0
    2.6241    1.8611    1.6782 C   0  0  0  0  0  0  0  0  0  0  0  0
    1.5639    2.4503    2.7304 C   0  0  0  0  0  0  0  0  0  0  0  0
    0.4146    1.8055    2.3357 C   0  0  0  0  0  0  0  0  0  0  0  0
    2.9189    2.2232    3.3568 C   0  0  2  0  0  0  0  0  0  0  0  0
    4.2391    3.2120    2.5500 C   0  0  0  0  0  0  0  0  0  0  0  0
    4.0388    4.2607    1.9020 O   0  0  0  0  0  0  0  0  0  0  0  0
    5.6605    2.7246    2.5516 C   0  0  0  0  0  0  0  0  0  0  0  0
    6.0258    2.8217    3.9093 O   0  0  0  0  0  0  0  0  0  0  0  0
    3.1146    2.5004    4.7256 O   0  0  0  0  0  0  0  0  0  0  0  0
    4.9784   -2.5575    2.8772 C   0  0  0  0  0  0  0  0  0  0  0  0
    4.4026   -4.1935    2.4299 C   0  0  0  0  0  0  0  0  0  0  0  0
    2.8640   -4.7952    2.5624 C   0  0  0  0  0  0  0  0  0  0  0  0
    2.0057   -5.4123    1.5224 C   0  0  0  0  0  0  0  0  0  0  0  0
    0.8185   -4.4108    0.9038 C   0  0  0  0  0  0  0  0  0  0  0  0
    0.6492   -4.0134   -0.2324 O   0  0  0  0  0  0  0  0  0  0  0  0
    0.2317   -3.7182    2.0524 C   0  0  0  0  0  0  0  0  0  0  0  0
    1.4227   -3.2007    2.3337 C   0  0  0  0  0  0  0  0  0  0  0  0
    2.2381   -3.7005    3.4785 C   0  0  2  0  0  0  0  0  0  0  0  0
    1.5726   -4.3644    4.7383 C   0  0  0  0  0  0  0  0  0  0  0  0
    0.5602   -1.8590    4.8927 O   0  0  0  0  0  0  0  0  0  0  0  0
    1.5049   -0.8459    1.1700 H   0  0  0  0  0  0  0  0  0  0  0  0
    3.2947   -0.6777    0.8443 H   0  0  0  0  0  0  0  0  0  0  0  0
    2.4337    0.3778    0.3616 H   0  0  0  0  0  0  0  0  0  0  0  0
    2.2481    0.1955    5.2042 H   0  0  0  0  0  0  0  0  0  0  0  0
    0.8335    0.4646    4.2773 H   0  0  0  0  0  0  0  0  0  0  0  0
    0.9834   -1.3170    3.0219 H   0  0  0  0  0  0  0  0  0  0  0  0
    3.2779   -2.2491    4.8562 H   0  0  0  0  0  0  0  0  0  0  0  0
    3.5500   -1.8680    1.8890 H   0  0  0  0  0  0  0  0  0  0  0  0
    4.5787    0.7901    3.1656 H   0  0  0  0  0  0  0  0  0  0  0  0
    2.8191    2.8907    1.2956 H   0  0  0  0  0  0  0  0  0  0  0  0
    2.0493    1.8221    0.7132 H   0  0  0  0  0  0  0  0  0  0  0  0
    0.4297    0.7838    1.9414 H   0  0  0  0  0  0  0  0  0  0  0  0
   -0.5381    2.2412    2.0764 H   0  0  0  0  0  0  0  0  0  0  0  0
    5.8293    1.7343    2.1198 H   0  0  0  0  0  0  0  0  0  0  0  0
    6.2505    3.3981    1.9180 H   0  0  0  0  0  0  0  0  0  0  0  0
    5.7406    3.7206    4.1776 H   0  0  0  0  0  0  0  0  0  0  0  0
    4.0602    2.2806    4.8890 H   0  0  0  0  0  0  0  0  0  0  0  0
    5.5567   -2.6097    3.8211 H   0  0  0  0  0  0  0  0  0  0  0  0
    5.7140   -2.2508    2.1291 H   0  0  0  0  0  0  0  0  0  0  0  0
    5.0814   -4.9129    2.9236 H   0  0  0  0  0  0  0  0  0  0  0  0
    4.5903   -4.2099    1.3587 H   0  0  0  0  0  0  0  0  0  0  0  0
    1.0982   -6.0801    1.7529 H   0  0  0  0  0  0  0  0  0  0  0  0
   -0.2472   -4.3013    2.8243 H   0  0  0  0  0  0  0  0  0  0  0  0
    2.1254   -2.9400    1.4986 H   0  0  0  0  0  0  0  0  0  0  0  0
    0.4818   -4.3247    4.6995 H   0  0  0  0  0  0  0  0  0  0  0  0
    1.8367   -5.4151    4.9224 H   0  0  0  0  0  0  0  0  0  0  0  0
    1.8510   -3.8384    5.6635 H   0  0  0  0  0  0  0  0  0  0  0  0
   -0.2253   -2.0794    4.3536 H   0  0  0  0  0  0  0  0  0  0  0  0
  1 28  1  0  0  0  0
  1 29  1  0  0  0  0
  1 30  1  0  0  0  0
  2  3  1  0  0  0  0
  2  7  1  0  0  0  0
  2 11  1  0  0  0  0
  2  1  1  1  0  0  0
  3  4  1  0  0  0  0
  3 31  1  0  0  0  0
  3 32  1  0  0  0  0
  4 27  1  0  0  0  0
  4 33  1  6  0  0  0
  5  4  1  0  0  0  0
  5  6  1  0  0  0  0
  5 25  1  0  0  0  0
  5 34  1  6  0  0  0
  6  7  1  0  0  0  0
  6 17  1  0  0  0  0
  6 35  1  1  0  0  0
  7  8  1  0  0  0  0
  7 36  1  6  0  0  0
  8  9  1  0  0  0  0
  8 37  1  0  0  0  0
  8 38  1  0  0  0  0
  9 11  1  0  0  0  0
  9 10  2  0  0  0  0
 10 39  1  0  0  0  0
 10 40  1  0  0  0  0
 11 16  1  1  0  0  0
 11 12  1  0  0  0  0
 12 13  2  0  0  0  0
 12 14  1  0  0  0  0
 14 15  1  0  0  0  0
 14 41  1  0  0  0  0
 14 42  1  0  0  0  0
 15 43  1  0  0  0  0
 16 44  1  0  0  0  0
 17 18  1  0  0  0  0
 17 45  1  0  0  0  0
 17 46  1  0  0  0  0
 18 19  1  0  0  0  0
 18 47  1  0  0  0  0
 18 48  1  0  0  0  0
 19 20  2  0  0  0  0
 19 25  1  0  0  0  0
 20 21  1  0  0  0  0
 20 49  1  0  0  0  0
 21 23  1  0  0  0  0
 21 22  2  0  0  0  0
 23 24  2  0  0  0  0
 23 50  1  0  0  0  0
 24 25  1  0  0  0  0
 24 51  1  0  0  0  0
 25 26  1  1  0  0  0
 26 52  1  0  0  0  0
 26 53  1  0  0  0  0
 26 54  1  0  0  0  0
 27 55  1  0  0  0  0
M  END
>  <DRUGBANK_ID>
DB13208

>  <COMMON_NAME>
Prednylidene

>  <CAS_NUMBER>
599-33-7

>  <UNII>
IF8PQP966U

>  <SYNONYMS>
Prednylidene

$$$$
