
 OpenBabel10282417233D

 22 22  0  0  0  0  0  0  0  0999 V2000
    0.8760   -0.0133    0.1575 N   0  0  0  0  0  0  0  0  0  0  0  0
    0.2617    0.8460    0.9749 C   0  0  0  0  0  0  0  0  0  0  0  0
   -1.0252    0.9268    1.0416 N   0  0  0  0  0  0  0  0  0  0  0  0
    1.0063    1.6350    1.7642 N   0  0  0  0  0  0  0  0  0  0  0  0
    2.4355    1.7564    1.9016 C   0  0  0  0  0  0  0  0  0  0  0  0
    2.8824    3.1554    1.5501 C   0  0  0  0  0  0  0  0  0  0  0  0
    2.4313    4.2593    2.2868 C   0  0  0  0  0  0  0  0  0  0  0  0
    2.6933    5.5467    1.8312 C   0  0  0  0  0  0  0  0  0  0  0  0
    2.1394    6.5916    2.4599 F   0  0  0  0  0  0  0  0  0  0  0  0
    3.5024    5.7658    0.7234 C   0  0  0  0  0  0  0  0  0  0  0  0
    4.0755    4.6786    0.0694 C   0  0  0  0  0  0  0  0  0  0  0  0
    3.7313    3.3797    0.4527 C   0  0  0  0  0  0  0  0  0  0  0  0
    0.3525   -0.5877   -0.4847 H   0  0  0  0  0  0  0  0  0  0  0  0
    1.8763   -0.0260    0.0530 H   0  0  0  0  0  0  0  0  0  0  0  0
   -1.4355    0.2616    0.3868 H   0  0  0  0  0  0  0  0  0  0  0  0
    0.4443    2.2459    2.3467 H   0  0  0  0  0  0  0  0  0  0  0  0
    2.7323    1.5234    2.9294 H   0  0  0  0  0  0  0  0  0  0  0  0
    2.9660    1.0424    1.2663 H   0  0  0  0  0  0  0  0  0  0  0  0
    1.8446    4.1302    3.1911 H   0  0  0  0  0  0  0  0  0  0  0  0
    3.6790    6.7790    0.3782 H   0  0  0  0  0  0  0  0  0  0  0  0
    4.7661    4.8403   -0.7542 H   0  0  0  0  0  0  0  0  0  0  0  0
    4.1187    2.5430   -0.1250 H   0  0  0  0  0  0  0  0  0  0  0  0
  1  2  1  0  0  0  0
  1 13  1  0  0  0  0
  1 14  1  0  0  0  0
  2  3  2  0  0  0  0
  2  4  1  0  0  0  0
  3 15  1  0  0  0  0
  4  5  1  0  0  0  0
  4 16  1  0  0  0  0
  5  6  1  0  0  0  0
  5 17  1  0  0  0  0
  5 18  1  0  0  0  0
  6  7  2  0  0  0  0
  6 12  1  0  0  0  0
  7  8  1  0  0  0  0
  7 19  1  0  0  0  0
  8  9  1  0  0  0  0
  8 10  2  0  0  0  0
 10 11  1  0  0  0  0
 10 20  1  0  0  0  0
 11 12  2  0  0  0  0
 11 21  1  0  0  0  0
 12 22  1  0  0  0  0
M  ISO  1   9  18
M  END
>  <DRUGBANK_ID>
DB17128

>  <COMMON_NAME>
M-(18F)-fluorobenzylguanidine

>  <CAS_NUMBER>
156021-12-4

>  <UNII>
CD7WXM716P

>  <SYNONYMS>
18F-meta-fluorobenzylguanidine; Guanidine, ((3-(fluoro-18f)phenyl)methyl)-; Meta-fluoro benzylguanidine F-18

$$$$
