
 OpenBabel10282417233D

 74 78  0  0  1  0  0  0  0  0999 V2000
   -0.9509   -0.4435    0.0698 H   0  0  0  0  0  0  0  0  0  0  0  0
   -2.0234   -0.3386    0.1414 C   0  0  2  0  0  0  0  0  0  0  0  0
   -2.6126   -1.7118    0.7112 C   0  0  0  0  0  0  0  0  0  0  0  0
   -2.0619   -2.6993   -0.3274 C   0  0  1  0  0  0  0  0  0  0  0  0
   -2.1678   -4.2074   -0.2225 C   0  0  0  0  0  0  0  0  0  0  0  0
   -2.5343   -2.4357   -1.8178 C   0  0  0  0  0  0  0  0  0  0  0  0
   -2.8276   -1.0896   -2.4069 C   0  0  0  0  0  0  0  0  0  0  0  0
   -2.6456   -0.0187   -1.4387 C   0  0  1  0  0  0  0  0  0  0  0  0
   -3.8334    0.3006   -0.7060 C   0  0  0  0  0  0  0  0  0  0  0  0
   -2.4736    1.4541   -2.3035 C   0  0  0  0  0  0  0  0  0  0  0  0
   -2.8232    2.6829   -1.4120 C   0  0  0  0  0  0  0  0  0  0  0  0
   -2.1614    2.3687    0.4420 C   0  0  2  0  0  0  0  0  0  0  0  0
   -2.9615    3.9267    1.6992 C   0  0  0  0  0  0  0  0  0  0  0  0
   -0.6434    2.2448    0.1077 C   0  0  0  0  0  0  0  0  0  0  0  0
    0.0008    1.4786   -0.7732 C   0  0  0  0  0  0  0  0  0  0  0  0
    1.3801    1.5862   -0.9744 C   0  0  0  0  0  0  0  0  0  0  0  0
    2.0654    2.5951   -0.4314 C   0  0  0  0  0  0  0  0  0  0  0  0
    3.5153    2.5919   -0.5208 C   0  0  0  0  0  0  0  0  0  0  0  0
    4.2041    1.5362   -1.3369 C   0  0  0  0  0  0  0  0  0  0  0  0
    4.1988    3.5845    0.0751 C   0  0  0  0  0  0  0  0  0  0  0  0
    5.5733    3.6846    0.0339 O   0  0  0  0  0  0  0  0  0  0  0  0
    3.4408    4.7489    0.6260 C   0  0  0  0  0  0  0  0  0  0  0  0
    3.9206    5.8755    0.6689 O   0  0  0  0  0  0  0  0  0  0  0  0
    2.0267    4.5884    0.9495 C   0  0  0  0  0  0  0  0  0  0  0  0
    1.3261    3.6286    0.3363 C   0  0  0  0  0  0  0  0  0  0  0  0
   -0.0987    3.3992    0.7692 C   0  0  1  0  0  0  0  0  0  0  0  0
    0.0200    3.1157    2.2442 C   0  0  0  0  0  0  0  0  0  0  0  0
   -1.5002    4.0334    0.2595 C   0  0  0  0  0  0  0  0  0  0  0  0
   -3.0337    2.4706    0.6119 C   0  0  0  0  0  0  0  0  0  0  0  0
   -2.3765    1.0658    1.1438 C   0  0  1  0  0  0  0  0  0  0  0  0
   -2.1117    0.9096    2.6214 C   0  0  0  0  0  0  0  0  0  0  0  0
   -0.5909   -2.5738    0.1049 C   0  0  0  0  0  0  0  0  0  0  0  0
   -0.2600   -2.4527    1.2892 O   0  0  0  0  0  0  0  0  0  0  0  0
    0.3005   -2.5823   -0.8990 O   0  0  0  0  0  0  0  0  0  0  0  0
    1.5994   -2.4621   -0.3303 C   0  0  0  0  0  0  0  0  0  0  0  0
   -3.6678   -1.8964    0.9837 H   0  0  0  0  0  0  0  0  0  0  0  0
   -2.1828   -1.6771    1.7181 H   0  0  0  0  0  0  0  0  0  0  0  0
   -1.5914   -4.5763    0.6245 H   0  0  0  0  0  0  0  0  0  0  0  0
   -3.1788   -4.6091   -0.2038 H   0  0  0  0  0  0  0  0  0  0  0  0
   -1.6722   -4.5985   -1.1311 H   0  0  0  0  0  0  0  0  0  0  0  0
   -3.3757   -3.0809   -2.1284 H   0  0  0  0  0  0  0  0  0  0  0  0
   -1.6803   -2.7297   -2.4173 H   0  0  0  0  0  0  0  0  0  0  0  0
   -3.7536   -0.9976   -3.0152 H   0  0  0  0  0  0  0  0  0  0  0  0
   -2.0294   -0.8690   -3.1131 H   0  0  0  0  0  0  0  0  0  0  0  0
   -3.0029    0.9565   -0.5567 H   0  0  0  0  0  0  0  0  0  0  0  0
   -4.5239    1.0762   -0.8754 H   0  0  0  0  0  0  0  0  0  0  0  0
   -4.0980   -0.1932    0.2303 H   0  0  0  0  0  0  0  0  0  0  0  0
   -3.0981    1.5042   -3.2098 H   0  0  0  0  0  0  0  0  0  0  0  0
   -1.4614    1.5460   -2.6580 H   0  0  0  0  0  0  0  0  0  0  0  0
   -3.9385    2.8647   -1.4429 H   0  0  0  0  0  0  0  0  0  0  0  0
   -2.5031    3.6451   -1.8021 H   0  0  0  0  0  0  0  0  0  0  0  0
   -3.1577    4.8656    1.1126 H   0  0  0  0  0  0  0  0  0  0  0  0
   -4.0451    3.7768    1.9405 H   0  0  0  0  0  0  0  0  0  0  0  0
   -2.3787    3.9112    2.5818 H   0  0  0  0  0  0  0  0  0  0  0  0
   -0.4004    0.6798   -1.3678 H   0  0  0  0  0  0  0  0  0  0  0  0
    1.7642    0.7493   -1.5425 H   0  0  0  0  0  0  0  0  0  0  0  0
    3.5522    0.9933   -2.0233 H   0  0  0  0  0  0  0  0  0  0  0  0
    4.9225    2.0126   -2.0055 H   0  0  0  0  0  0  0  0  0  0  0  0
    4.6898    0.8034   -0.6902 H   0  0  0  0  0  0  0  0  0  0  0  0
    5.8518    3.4367   -0.8609 H   0  0  0  0  0  0  0  0  0  0  0  0
    1.5824    5.2732    1.6615 H   0  0  0  0  0  0  0  0  0  0  0  0
    1.0054    3.1844    2.6986 H   0  0  0  0  0  0  0  0  0  0  0  0
   -0.5864    3.8059    2.8196 H   0  0  0  0  0  0  0  0  0  0  0  0
   -0.1190    2.0524    2.3562 H   0  0  0  0  0  0  0  0  0  0  0  0
   -1.5858    5.0506    0.6190 H   0  0  0  0  0  0  0  0  0  0  0  0
   -1.2494    4.2651   -0.7899 H   0  0  0  0  0  0  0  0  0  0  0  0
   -4.1423    2.7529    0.2760 H   0  0  0  0  0  0  0  0  0  0  0  0
   -3.7884    2.0969    1.4919 H   0  0  0  0  0  0  0  0  0  0  0  0
   -2.9967    0.7653    3.2445 H   0  0  0  0  0  0  0  0  0  0  0  0
   -1.4047    0.0823    2.7342 H   0  0  0  0  0  0  0  0  0  0  0  0
   -1.6840    1.8013    3.0475 H   0  0  0  0  0  0  0  0  0  0  0  0
    1.7302   -1.4666    0.1140 H   0  0  0  0  0  0  0  0  0  0  0  0
    1.7623   -3.2327    0.4369 H   0  0  0  0  0  0  0  0  0  0  0  0
    2.3202   -2.6048   -1.1269 H   0  0  0  0  0  0  0  0  0  0  0  0
  2  3  1  0  0  0  0
  2  8  1  0  0  0  0
  2 30  1  0  0  0  0
  2  1  1  1  0  0  0
  3 36  1  0  0  0  0
  3 37  1  0  0  0  0
  4  3  1  0  0  0  0
  4  6  1  0  0  0  0
  4  5  1  0  0  0  0
  4 32  1  6  0  0  0
  5 38  1  0  0  0  0
  5 39  1  0  0  0  0
  5 40  1  0  0  0  0
  6  7  1  0  0  0  0
  6 41  1  0  0  0  0
  6 42  1  0  0  0  0
  7 43  1  0  0  0  0
  7 44  1  0  0  0  0
  8  7  1  0  0  0  0
  8 10  1  0  0  0  0
  8  9  1  1  0  0  0
  9 45  1  0  0  0  0
  9 46  1  0  0  0  0
  9 47  1  0  0  0  0
 10 11  1  0  0  0  0
 10 48  1  0  0  0  0
 10 49  1  0  0  0  0
 11 50  1  0  0  0  0
 11 51  1  0  0  0  0
 12 11  1  0  0  0  0
 12 14  1  0  0  0  0
 12 13  1  1  0  0  0
 13 52  1  0  0  0  0
 13 53  1  0  0  0  0
 13 54  1  0  0  0  0
 14 15  2  0  0  0  0
 15 16  1  0  0  0  0
 15 55  1  0  0  0  0
 16 17  2  0  0  0  0
 16 56  1  0  0  0  0
 17 18  1  0  0  0  0
 17 25  1  0  0  0  0
 18 20  2  0  0  0  0
 18 19  1  0  0  0  0
 19 57  1  0  0  0  0
 19 58  1  0  0  0  0
 19 59  1  0  0  0  0
 20 22  1  0  0  0  0
 20 21  1  0  0  0  0
 21 60  1  0  0  0  0
 22 24  1  0  0  0  0
 22 23  2  0  0  0  0
 24 25  2  0  0  0  0
 24 61  1  0  0  0  0
 26 25  1  0  0  0  0
 26 14  1  0  0  0  0
 26 28  1  0  0  0  0
 26 27  1  6  0  0  0
 27 62  1  0  0  0  0
 27 63  1  0  0  0  0
 27 64  1  0  0  0  0
 28 29  1  0  0  0  0
 28 65  1  0  0  0  0
 28 66  1  0  0  0  0
 29 67  1  0  0  0  0
 29 68  1  0  0  0  0
 30 29  1  0  0  0  0
 30 12  1  0  0  0  0
 30 31  1  1  0  0  0
 31 69  1  0  0  0  0
 31 70  1  0  0  0  0
 31 71  1  0  0  0  0
 32 33  2  0  0  0  0
 32 34  1  0  0  0  0
 34 35  1  0  0  0  0
 35 72  1  0  0  0  0
 35 73  1  0  0  0  0
 35 74  1  0  0  0  0
M  END
>  <DRUGBANK_ID>
DB17049

>  <COMMON_NAME>
Pristimerin

>  <CAS_NUMBER>
1258-84-0

>  <UNII>
28ZK7PR57S

>  <SYNONYMS>
(9.beta.,13.alpha.,14.beta.,20.alpha.)-3-hydroxy-9,13-dimethyl-2-oxo-24,25,26-trinoroleana-1(10),3,5,7-tetraen-29-oic acid; 24,25,26-trinoroleana-1(10),3,5,7-tetraen-29-oic acid, 3-hydroxy-9,13-dimethyl-2-oxo-, methyl ester, (9.beta.,13.alpha.,14.beta.,20.alpha.)-; Celastrol methyl ester

$$$$
