
 OpenBabel10282417163D

 37 36  0  0  0  0  0  0  0  0999 V2000
    1.2805    0.0095    0.2582 C   0  0  0  0  0  0  0  0  0  0  0  0
    0.3961    0.6587    1.0793 O   0  0  0  0  0  0  0  0  0  0  0  0
   -1.0691    0.5923    1.1468 C   0  0  0  0  0  0  0  0  0  0  0  0
   -1.8559    1.4340    0.1034 C   0  0  3  0  0  0  0  0  0  0  0  0
   -1.6776    0.9494   -1.3089 C   0  0  0  0  0  0  0  0  0  0  0  0
   -2.1999   -0.3581   -1.5564 O   0  0  0  0  0  0  0  0  0  0  0  0
   -3.2491    1.3586    0.3514 O   0  0  0  0  0  0  0  0  0  0  0  0
    0.6947   -0.6918   -0.9398 C   0  0  0  0  0  0  0  0  0  0  0  0
    0.9275    0.0612   -2.2877 C   0  0  0  0  0  0  0  0  0  0  0  0
    2.3723   -0.0526   -2.6656 C   0  0  0  0  0  0  0  0  0  0  0  0
    2.6864   -1.5277   -2.8303 C   0  0  0  0  0  0  0  0  0  0  0  0
    1.8698   -2.1286   -3.9840 C   0  0  0  0  0  0  0  0  0  0  0  0
    2.1616   -1.3927   -5.2909 C   0  0  0  0  0  0  0  0  0  0  0  0
    3.6533   -1.4425   -5.5764 C   0  0  0  0  0  0  0  0  0  0  0  0
    2.4712    0.0417    0.4562 O   0  0  0  0  0  0  0  0  0  0  0  0
   -1.4067   -0.4509    1.1851 H   0  0  0  0  0  0  0  0  0  0  0  0
   -1.3256    1.0013    2.1319 H   0  0  0  0  0  0  0  0  0  0  0  0
   -1.4930    2.4694    0.1450 H   0  0  0  0  0  0  0  0  0  0  0  0
   -1.9968    1.5756   -2.1382 H   0  0  0  0  0  0  0  0  0  0  0  0
   -0.6263    1.0447   -1.3424 H   0  0  0  0  0  0  0  0  0  0  0  0
   -1.9935   -1.0091   -0.8617 H   0  0  0  0  0  0  0  0  0  0  0  0
   -3.5443    0.5371   -0.0930 H   0  0  0  0  0  0  0  0  0  0  0  0
    0.9305   -1.7539   -0.9929 H   0  0  0  0  0  0  0  0  0  0  0  0
   -0.3192   -0.8365   -0.6624 H   0  0  0  0  0  0  0  0  0  0  0  0
    0.2364   -0.3158   -3.0597 H   0  0  0  0  0  0  0  0  0  0  0  0
    0.7682    1.1486   -2.3124 H   0  0  0  0  0  0  0  0  0  0  0  0
    2.5698    0.5466   -3.5618 H   0  0  0  0  0  0  0  0  0  0  0  0
    2.9752    0.4196   -1.8879 H   0  0  0  0  0  0  0  0  0  0  0  0
    3.7598   -1.6478   -2.9548 H   0  0  0  0  0  0  0  0  0  0  0  0
    2.4881   -2.0946   -1.9202 H   0  0  0  0  0  0  0  0  0  0  0  0
    2.1088   -3.1912   -4.0720 H   0  0  0  0  0  0  0  0  0  0  0  0
    0.7887   -2.1021   -3.7880 H   0  0  0  0  0  0  0  0  0  0  0  0
    1.5938   -1.8450   -6.1076 H   0  0  0  0  0  0  0  0  0  0  0  0
    1.8248   -0.3490   -5.2460 H   0  0  0  0  0  0  0  0  0  0  0  0
    3.9783   -2.4853   -5.6341 H   0  0  0  0  0  0  0  0  0  0  0  0
    3.8917   -0.9270   -6.5047 H   0  0  0  0  0  0  0  0  0  0  0  0
    4.2415   -0.9540   -4.7919 H   0  0  0  0  0  0  0  0  0  0  0  0
  1  2  1  0  0  0  0
  1  8  1  0  0  0  0
  1 15  2  0  0  0  0
  2  3  1  0  0  0  0
  3  4  1  0  0  0  0
  3 16  1  0  0  0  0
  3 17  1  0  0  0  0
  4  5  1  0  0  0  0
  4  7  1  0  0  0  0
  4 18  1  0  0  0  0
  5  6  1  0  0  0  0
  5 19  1  0  0  0  0
  5 20  1  0  0  0  0
  6 21  1  0  0  0  0
  7 22  1  0  0  0  0
  8  9  1  0  0  0  0
  8 23  1  0  0  0  0
  8 24  1  0  0  0  0
  9 10  1  0  0  0  0
  9 25  1  0  0  0  0
  9 26  1  0  0  0  0
 10 11  1  0  0  0  0
 10 27  1  0  0  0  0
 10 28  1  0  0  0  0
 11 12  1  0  0  0  0
 11 29  1  0  0  0  0
 11 30  1  0  0  0  0
 12 13  1  0  0  0  0
 12 31  1  0  0  0  0
 12 32  1  0  0  0  0
 13 14  1  0  0  0  0
 13 33  1  0  0  0  0
 13 34  1  0  0  0  0
 14 35  1  0  0  0  0
 14 36  1  0  0  0  0
 14 37  1  0  0  0  0
M  END
>  <DRUGBANK_ID>
DB06801

>  <COMMON_NAME>
Monoctanoin

>  <CAS_NUMBER>
502-54-5

>  <UNII>
MCF579Z59B

>  <SYNONYMS>
1-Monocaprylin; 2,3-Dihydroxypropyl octanoate; Caprylic acid Î±-monoglyceride; Monooctanoin; Octanoic acid 1-monoglyceride

$$$$
