
 OpenBabel10282417193D

 95 96  0  0  0  0  0  0  0  0999 V2000
    7.6752   -2.8674   -2.7362 N   0  0  0  0  0  0  0  0  0  0  0  0
    7.6442   -3.4435   -1.3694 C   0  0  1  0  0  0  0  0  0  0  0  0
    7.3592   -4.9070   -1.6028 C   0  0  0  0  0  0  0  0  0  0  0  0
    8.0156   -5.8920   -0.8883 N   0  0  0  0  0  0  0  0  0  0  0  0
    7.4188   -7.2522   -0.8898 C   0  0  2  0  0  0  0  0  0  0  0  0
    5.9555   -6.8130   -0.7096 C   0  0  0  0  0  0  0  0  0  0  0  0
    4.9195   -7.2290   -1.5283 N   0  0  0  0  0  0  0  0  0  0  0  0
    3.5023   -6.9391   -1.1290 C   0  0  2  0  0  0  0  0  0  0  0  0
    3.1792   -5.6002   -1.7386 C   0  0  0  0  0  0  0  0  0  0  0  0
    2.0107   -4.9447   -1.4723 N   0  0  0  0  0  0  0  0  0  0  0  0
    2.0136   -3.4799   -1.4697 C   0  0  2  0  0  0  0  0  0  0  0  0
    0.5775   -2.9435   -1.4620 C   0  0  0  0  0  0  0  0  0  0  0  0
   -0.1955   -3.3115   -2.5272 N   0  0  0  0  0  0  0  0  0  0  0  0
    8.9589   -3.2522   -0.6458 C   0  0  0  0  0  0  0  0  0  0  0  0
    9.3727   -1.7958   -0.6124 C   0  0  0  0  0  0  0  0  0  0  0  0
    8.3534   -0.9245    0.1138 C   0  0  0  0  0  0  0  0  0  0  0  0
    8.2733   -1.3032    1.5183 N   0  0  0  0  0  0  0  0  0  0  0  0
    8.5524   -0.4291    2.5035 C   0  0  0  0  0  0  0  0  0  0  0  0
    8.4230   -0.9100    3.7480 N   0  0  0  0  0  0  0  0  0  0  0  0
    8.9396    0.7721    2.2681 N   0  0  0  0  0  0  0  0  0  0  0  0
    6.5257   -5.1844   -2.4791 O   0  0  0  0  0  0  0  0  0  0  0  0
    7.8116   -8.0643    0.4119 C   0  0  0  0  0  0  0  0  0  0  0  0
    7.4976   -9.5815    0.4916 C   0  0  0  0  0  0  0  0  0  0  0  0
    6.2400  -10.1297    0.1482 C   0  0  0  0  0  0  0  0  0  0  0  0
    5.8623  -11.4612    0.2090 C   0  0  0  0  0  0  0  0  0  0  0  0
    6.7380  -12.3518    0.7114 C   0  0  0  0  0  0  0  0  0  0  0  0
    7.9792  -11.8980    1.1331 C   0  0  0  0  0  0  0  0  0  0  0  0
    8.3737  -10.5228    1.0476 C   0  0  0  0  0  0  0  0  0  0  0  0
    9.7331  -10.1805    1.5873 C   0  0  0  0  0  0  0  0  0  0  0  0
    6.3474  -13.6458    0.8020 O   0  0  0  0  0  0  0  0  0  0  0  0
    5.0768   -9.3744   -0.2603 C   0  0  0  0  0  0  0  0  0  0  0  0
    5.7503   -6.0746    0.2642 O   0  0  0  0  0  0  0  0  0  0  0  0
    3.3056   -6.9745    0.4108 C   0  0  0  0  0  0  0  0  0  0  0  0
    1.9621   -6.6735    0.9869 C   0  0  0  0  0  0  0  0  0  0  0  0
    0.9304   -7.6439    0.4437 C   0  0  0  0  0  0  0  0  0  0  0  0
    1.2146   -9.1013    0.8299 C   0  0  0  0  0  0  0  0  0  0  0  0
    1.3202   -9.2494    2.2742 N   0  0  0  0  0  0  0  0  0  0  0  0
    3.9618   -5.1479   -2.6036 O   0  0  0  0  0  0  0  0  0  0  0  0
    2.7627   -2.9062   -2.6733 C   0  0  0  0  0  0  0  0  0  0  0  0
    2.8520   -1.4266   -2.7532 C   0  0  0  0  0  0  0  0  0  0  0  0
    3.2129   -0.7027   -1.6121 C   0  0  0  0  0  0  0  0  0  0  0  0
    3.5538    0.6296   -1.7271 C   0  0  0  0  0  0  0  0  0  0  0  0
    3.5674    1.2239   -2.9858 C   0  0  0  0  0  0  0  0  0  0  0  0
    3.2314    0.4928   -4.1274 C   0  0  0  0  0  0  0  0  0  0  0  0
    2.8292   -0.8263   -4.0103 C   0  0  0  0  0  0  0  0  0  0  0  0
    0.1315   -2.2122   -0.5822 O   0  0  0  0  0  0  0  0  0  0  0  0
    8.2590   -3.5020   -3.2918 H   0  0  0  0  0  0  0  0  0  0  0  0
    6.7405   -3.0780   -3.1238 H   0  0  0  0  0  0  0  0  0  0  0  0
    6.8059   -2.9901   -0.8184 H   0  0  0  0  0  0  0  0  0  0  0  0
    8.7410   -5.6667   -0.2210 H   0  0  0  0  0  0  0  0  0  0  0  0
    7.7324   -7.7582   -1.8057 H   0  0  0  0  0  0  0  0  0  0  0  0
    5.1087   -7.4822   -2.4998 H   0  0  0  0  0  0  0  0  0  0  0  0
    2.8878   -7.6930   -1.6427 H   0  0  0  0  0  0  0  0  0  0  0  0
    1.2559   -5.3833   -0.9592 H   0  0  0  0  0  0  0  0  0  0  0  0
    2.4868   -3.1852   -0.5236 H   0  0  0  0  0  0  0  0  0  0  0  0
   -1.0912   -2.8534   -2.6300 H   0  0  0  0  0  0  0  0  0  0  0  0
    0.2011   -3.7889   -3.3258 H   0  0  0  0  0  0  0  0  0  0  0  0
    8.8745   -3.6406    0.3785 H   0  0  0  0  0  0  0  0  0  0  0  0
    9.7368   -3.8460   -1.1385 H   0  0  0  0  0  0  0  0  0  0  0  0
   10.3571   -1.7259   -0.1400 H   0  0  0  0  0  0  0  0  0  0  0  0
    9.4901   -1.4329   -1.6401 H   0  0  0  0  0  0  0  0  0  0  0  0
    8.6662    0.1154   -0.0150 H   0  0  0  0  0  0  0  0  0  0  0  0
    7.3569   -0.9833   -0.3360 H   0  0  0  0  0  0  0  0  0  0  0  0
    7.8740   -2.2034    1.7379 H   0  0  0  0  0  0  0  0  0  0  0  0
    8.6138   -0.3138    4.5393 H   0  0  0  0  0  0  0  0  0  0  0  0
    8.0976   -1.8425    3.9472 H   0  0  0  0  0  0  0  0  0  0  0  0
    9.1103    1.2637    3.1395 H   0  0  0  0  0  0  0  0  0  0  0  0
    8.8789   -7.8789    0.5698 H   0  0  0  0  0  0  0  0  0  0  0  0
    7.3473   -7.6003    1.3000 H   0  0  0  0  0  0  0  0  0  0  0  0
    4.8537  -11.7326   -0.1012 H   0  0  0  0  0  0  0  0  0  0  0  0
    8.6598  -12.6335    1.5439 H   0  0  0  0  0  0  0  0  0  0  0  0
    9.7990  -10.4747    2.6394 H   0  0  0  0  0  0  0  0  0  0  0  0
   10.4897  -10.7089    1.0021 H   0  0  0  0  0  0  0  0  0  0  0  0
    9.9801   -9.1198    1.5513 H   0  0  0  0  0  0  0  0  0  0  0  0
    5.4366  -13.6970    0.4530 H   0  0  0  0  0  0  0  0  0  0  0  0
    5.0362   -9.3805   -1.3516 H   0  0  0  0  0  0  0  0  0  0  0  0
    4.1322   -9.7499    0.1196 H   0  0  0  0  0  0  0  0  0  0  0  0
    5.2332   -8.4791    0.3064 H   0  0  0  0  0  0  0  0  0  0  0  0
    3.5722   -7.9373    0.8342 H   0  0  0  0  0  0  0  0  0  0  0  0
    3.9360   -6.2669    0.9317 H   0  0  0  0  0  0  0  0  0  0  0  0
    2.0582   -6.7441    2.0758 H   0  0  0  0  0  0  0  0  0  0  0  0
    1.7264   -5.6229    0.8318 H   0  0  0  0  0  0  0  0  0  0  0  0
   -0.0465   -7.3328    0.8149 H   0  0  0  0  0  0  0  0  0  0  0  0
    0.8890   -7.5793   -0.6507 H   0  0  0  0  0  0  0  0  0  0  0  0
    0.4196   -9.7403    0.4403 H   0  0  0  0  0  0  0  0  0  0  0  0
    2.1325   -9.4625    0.3603 H   0  0  0  0  0  0  0  0  0  0  0  0
    1.5587  -10.2084    2.5152 H   0  0  0  0  0  0  0  0  0  0  0  0
    2.0906   -8.6850    2.6358 H   0  0  0  0  0  0  0  0  0  0  0  0
    3.8287   -3.1465   -2.6267 H   0  0  0  0  0  0  0  0  0  0  0  0
    2.3746   -3.3540   -3.5984 H   0  0  0  0  0  0  0  0  0  0  0  0
    3.2833   -1.1807   -0.6381 H   0  0  0  0  0  0  0  0  0  0  0  0
    3.8479    1.1789   -0.8391 H   0  0  0  0  0  0  0  0  0  0  0  0
    3.8573    2.2636   -3.0780 H   0  0  0  0  0  0  0  0  0  0  0  0
    3.3174    0.9393   -5.1119 H   0  0  0  0  0  0  0  0  0  0  0  0
    2.5639   -1.4035   -4.8940 H   0  0  0  0  0  0  0  0  0  0  0  0
  1  2  1  0  0  0  0
  1 47  1  0  0  0  0
  1 48  1  0  0  0  0
  2  3  1  0  0  0  0
  2 14  1  0  0  0  0
  2 49  1  1  0  0  0
  3  4  1  0  0  0  0
  3 21  2  0  0  0  0
  4 50  1  0  0  0  0
  5 22  1  0  0  0  0
  5 51  1  6  0  0  0
  5  6  1  0  0  0  0
  5  4  1  0  0  0  0
  6  7  1  0  0  0  0
  6 32  2  0  0  0  0
  7 52  1  0  0  0  0
  8 33  1  0  0  0  0
  8 53  1  6  0  0  0
  8  9  1  0  0  0  0
  8  7  1  0  0  0  0
  9 10  1  0  0  0  0
  9 38  2  0  0  0  0
 10 54  1  0  0  0  0
 11 39  1  0  0  0  0
 11 55  1  1  0  0  0
 11 12  1  0  0  0  0
 11 10  1  0  0  0  0
 12 13  1  0  0  0  0
 12 46  2  0  0  0  0
 13 56  1  0  0  0  0
 13 57  1  0  0  0  0
 14 15  1  0  0  0  0
 14 58  1  0  0  0  0
 14 59  1  0  0  0  0
 15 16  1  0  0  0  0
 15 60  1  0  0  0  0
 15 61  1  0  0  0  0
 16 17  1  0  0  0  0
 16 62  1  0  0  0  0
 16 63  1  0  0  0  0
 17 18  1  0  0  0  0
 17 64  1  0  0  0  0
 18 19  1  0  0  0  0
 18 20  2  0  0  0  0
 19 65  1  0  0  0  0
 19 66  1  0  0  0  0
 20 67  1  0  0  0  0
 22 23  1  0  0  0  0
 22 68  1  0  0  0  0
 22 69  1  0  0  0  0
 23 24  1  0  0  0  0
 23 28  2  0  0  0  0
 24 25  2  0  0  0  0
 24 31  1  0  0  0  0
 25 26  1  0  0  0  0
 25 70  1  0  0  0  0
 26 27  2  0  0  0  0
 26 30  1  0  0  0  0
 27 28  1  0  0  0  0
 27 71  1  0  0  0  0
 28 29  1  0  0  0  0
 29 72  1  0  0  0  0
 29 73  1  0  0  0  0
 29 74  1  0  0  0  0
 30 75  1  0  0  0  0
 31 76  1  0  0  0  0
 31 77  1  0  0  0  0
 31 78  1  0  0  0  0
 33 34  1  0  0  0  0
 33 79  1  0  0  0  0
 33 80  1  0  0  0  0
 34 35  1  0  0  0  0
 34 81  1  0  0  0  0
 34 82  1  0  0  0  0
 35 36  1  0  0  0  0
 35 83  1  0  0  0  0
 35 84  1  0  0  0  0
 36 37  1  0  0  0  0
 36 85  1  0  0  0  0
 36 86  1  0  0  0  0
 37 87  1  0  0  0  0
 37 88  1  0  0  0  0
 39 40  1  0  0  0  0
 39 89  1  0  0  0  0
 39 90  1  0  0  0  0
 40 41  1  0  0  0  0
 40 45  2  0  0  0  0
 41 42  2  0  0  0  0
 41 91  1  0  0  0  0
 42 43  1  0  0  0  0
 42 92  1  0  0  0  0
 43 44  2  0  0  0  0
 43 93  1  0  0  0  0
 44 45  1  0  0  0  0
 44 94  1  0  0  0  0
 45 95  1  0  0  0  0
M  END
>  <DRUGBANK_ID>
DB11981

>  <COMMON_NAME>
Elamipretide

>  <CAS_NUMBER>
736992-21-5

>  <UNII>
87GWG91S09

>  <SYNONYMS>
Elamipretide

$$$$
