
 OpenBabel10282417243D

 57 62  0  0  0  0  0  0  0  0999 V2000
    2.4421    0.0012    0.0548 C   0  0  0  0  0  0  0  0  0  0  0  0
    1.0299   -0.0028   -0.3010 N   0  0  0  0  0  0  0  0  0  0  0  0
    0.3488   -1.1981    0.2472 C   0  0  0  0  0  0  0  0  0  0  0  0
   -1.1266   -1.2545   -0.1988 C   0  0  0  0  0  0  0  0  0  0  0  0
   -1.8111   -0.0146    0.1614 N   0  0  0  0  0  0  0  0  0  0  0  0
   -1.1495    1.2403   -0.1991 C   0  0  0  0  0  0  0  0  0  0  0  0
    0.3389    1.1945    0.2317 C   0  0  0  0  0  0  0  0  0  0  0  0
   -3.0509   -0.0223    0.7460 C   0  0  0  0  0  0  0  0  0  0  0  0
   -3.2248   -0.6479    1.9846 C   0  0  0  0  0  0  0  0  0  0  0  0
   -4.4442   -0.5958    2.6353 C   0  0  0  0  0  0  0  0  0  0  0  0
   -5.5143    0.0631    2.0259 C   0  0  0  0  0  0  0  0  0  0  0  0
   -5.3509    0.7495    0.8342 C   0  0  0  0  0  0  0  0  0  0  0  0
   -4.1384    0.6478    0.1690 C   0  0  0  0  0  0  0  0  0  0  0  0
   -6.8020    0.0553    2.6921 C   0  0  0  0  0  0  0  0  0  0  0  0
   -6.8063    0.5324    4.0497 C   0  0  0  0  0  0  0  0  0  0  0  0
   -7.9443    0.3687    4.7496 C   0  0  0  0  0  0  0  0  0  0  0  0
   -9.0720   -0.0077    4.0709 N   0  0  0  0  0  0  0  0  0  0  0  0
  -10.3266    0.3349    4.4934 C   0  0  0  0  0  0  0  0  0  0  0  0
  -11.1288   -0.4211    3.6397 C   0  0  0  0  0  0  0  0  0  0  0  0
  -10.3730   -0.8958    2.5476 N   0  0  0  0  0  0  0  0  0  0  0  0
   -9.1428   -0.4938    2.7890 C   0  0  0  0  0  0  0  0  0  0  0  0
   -7.9008   -0.4695    2.0807 C   0  0  0  0  0  0  0  0  0  0  0  0
  -10.3235    1.4556    5.4685 C   0  0  0  0  0  0  0  0  0  0  0  0
   -9.5350    2.6361    4.9166 C   0  0  0  0  0  0  0  0  0  0  0  0
  -10.2328    3.7485    5.0525 C   0  0  0  0  0  0  0  0  0  0  0  0
  -10.7149    3.7786    6.2901 N   0  0  0  0  0  0  0  0  0  0  0  0
  -10.3476    2.7249    7.2041 C   0  0  0  0  0  0  0  0  0  0  0  0
   -9.2089    2.7522    8.0466 C   0  0  0  0  0  0  0  0  0  0  0  0
   -8.1340    3.4564    7.6386 F   0  0  0  0  0  0  0  0  0  0  0  0
   -8.8891    1.8453    9.0577 C   0  0  0  0  0  0  0  0  0  0  0  0
   -9.6234    0.6945    9.1535 C   0  0  0  0  0  0  0  0  0  0  0  0
  -10.4567    0.4203    8.0488 C   0  0  0  0  0  0  0  0  0  0  0  0
  -10.5464    1.4199    6.8934 C   0  0  0  0  0  0  0  0  0  0  0  0
    2.9387    0.8805   -0.3695 H   0  0  0  0  0  0  0  0  0  0  0  0
    2.5972    0.0005    1.1385 H   0  0  0  0  0  0  0  0  0  0  0  0
    2.9416   -0.8768   -0.3698 H   0  0  0  0  0  0  0  0  0  0  0  0
    0.8510   -2.1093   -0.0945 H   0  0  0  0  0  0  0  0  0  0  0  0
    0.3945   -1.1859    1.3456 H   0  0  0  0  0  0  0  0  0  0  0  0
   -1.1710   -1.3703   -1.2884 H   0  0  0  0  0  0  0  0  0  0  0  0
   -1.6063   -2.1353    0.2431 H   0  0  0  0  0  0  0  0  0  0  0  0
   -1.2163    1.3895   -1.2821 H   0  0  0  0  0  0  0  0  0  0  0  0
   -1.6230    2.0991    0.2935 H   0  0  0  0  0  0  0  0  0  0  0  0
    0.3957    1.1961    1.3301 H   0  0  0  0  0  0  0  0  0  0  0  0
    0.8348    2.1050   -0.1220 H   0  0  0  0  0  0  0  0  0  0  0  0
   -2.3961   -1.1584    2.4635 H   0  0  0  0  0  0  0  0  0  0  0  0
   -4.5502   -1.0511    3.6190 H   0  0  0  0  0  0  0  0  0  0  0  0
   -6.1604    1.3554    0.4356 H   0  0  0  0  0  0  0  0  0  0  0  0
   -4.0610    1.0706   -0.8267 H   0  0  0  0  0  0  0  0  0  0  0  0
   -5.9871    1.0302    4.5323 H   0  0  0  0  0  0  0  0  0  0  0  0
   -8.0202    0.7194    5.7561 H   0  0  0  0  0  0  0  0  0  0  0  0
  -12.1953   -0.6291    3.6176 H   0  0  0  0  0  0  0  0  0  0  0  0
   -7.8687   -0.8763    1.0753 H   0  0  0  0  0  0  0  0  0  0  0  0
   -8.6316    3.0397    5.5561 H   0  0  0  0  0  0  0  0  0  0  0  0
  -10.1212    4.5871    4.3650 H   0  0  0  0  0  0  0  0  0  0  0  0
   -8.0655    2.1185    9.7106 H   0  0  0  0  0  0  0  0  0  0  0  0
   -9.4604    0.0455   10.0175 H   0  0  0  0  0  0  0  0  0  0  0  0
  -11.0580   -0.4916    8.1395 H   0  0  0  0  0  0  0  0  0  0  0  0
  1  2  1  0  0  0  0
  1 34  1  0  0  0  0
  1 35  1  0  0  0  0
  1 36  1  0  0  0  0
  2  3  1  0  0  0  0
  2  7  1  0  0  0  0
  3  4  1  0  0  0  0
  3 37  1  0  0  0  0
  3 38  1  0  0  0  0
  4  5  1  0  0  0  0
  4 39  1  0  0  0  0
  4 40  1  0  0  0  0
  5  6  1  0  0  0  0
  5  8  1  0  0  0  0
  6  7  1  0  0  0  0
  6 41  1  0  0  0  0
  6 42  1  0  0  0  0
  7 43  1  0  0  0  0
  7 44  1  0  0  0  0
  8  9  2  0  0  0  0
  8 13  1  0  0  0  0
  9 10  1  0  0  0  0
  9 45  1  0  0  0  0
 10 11  2  0  0  0  0
 10 46  1  0  0  0  0
 11 12  1  0  0  0  0
 11 14  1  0  0  0  0
 12 13  2  0  0  0  0
 12 47  1  0  0  0  0
 13 48  1  0  0  0  0
 14 15  1  0  0  0  0
 14 22  2  0  0  0  0
 15 16  2  0  0  0  0
 15 49  1  0  0  0  0
 16 17  1  0  0  0  0
 16 50  1  0  0  0  0
 17 18  1  0  0  0  0
 17 21  1  0  0  0  0
 18 19  2  0  0  0  0
 18 23  1  0  0  0  0
 19 20  1  0  0  0  0
 19 51  1  0  0  0  0
 20 21  2  0  0  0  0
 21 22  1  0  0  0  0
 22 52  1  0  0  0  0
 23 24  2  0  0  0  0
 23 33  1  0  0  0  0
 24 25  1  0  0  0  0
 24 53  1  0  0  0  0
 25 26  2  0  0  0  0
 25 54  1  0  0  0  0
 26 27  1  0  0  0  0
 27 28  2  0  0  0  0
 27 33  1  0  0  0  0
 28 29  1  0  0  0  0
 28 30  1  0  0  0  0
 30 31  2  0  0  0  0
 30 55  1  0  0  0  0
 31 32  1  0  0  0  0
 31 56  1  0  0  0  0
 32 33  2  0  0  0  0
 32 57  1  0  0  0  0
M  END
>  <DRUGBANK_ID>
DB18034

>  <COMMON_NAME>
3-(4-(8-Fluoroquinoline) imidazole(1,2-a)pyridine-7-(1-phenyl-4-(1-(4-methyl piperazine)

>  <CAS_NUMBER>
1589086-32-7

>  <UNII>
0PD95Q5DD1

>  <SYNONYMS>
3-(4-(8-fluoroquinoline)imidazole(1,2-a)pyridine-7-(1-phenyl-4-(1-(4-methyl piperazine); Quinoline, 8-fluoro-4-(7-(4-(4-methyl-1-piperazinyl)phenyl)imidazo(1,2-a)pyridin-3-yl)-

$$$$
