
 OpenBabel10282417123D

106110  0  0  0  0  0  0  0  0999 V2000
   -2.4641    1.4030   -8.6632 Cl  0  0  0  0  0  0  0  0  0  0  0  0
   -6.6458    2.3365    2.2255 O   0  0  0  0  0  0  0  0  0  0  0  0
   -7.5275    3.6332   -0.5688 O   0  0  0  0  0  0  0  0  0  0  0  0
   -5.8560    5.3904    4.8123 O   0  0  0  0  0  0  0  0  0  0  0  0
   -1.4395    0.3733    0.1362 O   0  0  0  0  0  0  0  0  0  0  0  0
   -5.1902    3.5664   -4.8964 O   0  0  0  0  0  0  0  0  0  0  0  0
   -5.3424    3.2053    4.3257 N   0  0  0  0  0  0  0  0  0  0  0  0
   -5.0135    0.9067   -0.7023 N   0  0  0  0  0  0  0  0  0  0  0  0
   -4.6084    2.2859   -3.1217 N   0  0  0  0  0  0  0  0  0  0  0  0
   -1.9805    2.3745    0.8138 N   0  0  0  0  0  0  0  0  0  0  0  0
   -1.1179   -0.8585   -6.9349 N   0  0  0  0  0  0  0  0  0  0  0  0
   -0.1177   -2.9057   -8.6929 N   0  0  0  0  0  0  0  0  0  0  0  0
   -3.3647    2.0360   -6.3949 N   0  0  0  0  0  0  0  0  0  0  0  0
   -2.0911   -0.1339   -5.0152 N   0  0  0  0  0  0  0  0  0  0  0  0
   -4.8955    1.7175    3.7742 C   0  0  1  0  0  0  0  0  0  0  0  0
   -4.7594    0.3693    4.4662 C   0  0  2  0  0  0  0  0  0  0  0  0
   -5.8380    1.2755    2.6973 C   0  0  1  0  0  0  0  0  0  0  0  0
   -5.9487   -0.5199    4.0214 C   0  0  0  0  0  0  0  0  0  0  0  0
   -6.8133    0.2602    3.0805 C   0  0  0  0  0  0  0  0  0  0  0  0
   -4.5699    0.6725    5.9009 C   0  0  0  0  0  0  0  0  0  0  0  0
   -5.0446    5.3474    2.4780 C   0  0  1  0  0  0  0  0  0  0  0  0
   -5.4050    4.6211    3.9482 C   0  0  0  0  0  0  0  0  0  0  0  0
   -6.1315    4.9860    1.2333 C   0  0  0  0  0  0  0  0  0  0  0  0
   -6.2585    3.6624    0.0258 C   0  0  1  0  0  0  0  0  0  0  0  0
   -3.4816    1.1556   -1.1584 C   0  0  1  0  0  0  0  0  0  0  0  0
   -5.7839    1.9178    0.1319 C   0  0  0  0  0  0  0  0  0  0  0  0
   -5.9724    0.7557   -1.7749 C   0  0  0  0  0  0  0  0  0  0  0  0
   -3.4072    2.2911   -2.2468 C   0  0  0  0  0  0  0  0  0  0  0  0
   -4.0761    6.5864    2.3776 C   0  0  0  0  0  0  0  0  0  0  0  0
   -5.9591    1.9551   -2.7140 C   0  0  0  0  0  0  0  0  0  0  0  0
   -2.2376    1.2333    0.0261 C   0  0  0  0  0  0  0  0  0  0  0  0
   -2.7972    6.3788    3.2834 C   0  0  0  0  0  0  0  0  0  0  0  0
   -2.7713    3.5282    0.9892 C   0  0  0  0  0  0  0  0  0  0  0  0
   -4.4875    2.7035   -4.4028 C   0  0  0  0  0  0  0  0  0  0  0  0
   -1.7024    5.4273    3.2550 C   0  0  0  0  0  0  0  0  0  0  0  0
   -2.7940    7.2777    4.3064 C   0  0  0  0  0  0  0  0  0  0  0  0
   -3.5525    1.8012   -5.1076 C   0  0  0  0  0  0  0  0  0  0  0  0
   -3.5631    3.2022    2.2078 C   0  0  0  0  0  0  0  0  0  0  0  0
   -2.4744    4.9135    0.4432 C   0  0  0  0  0  0  0  0  0  0  0  0
   -3.8184    3.5219    0.0078 C   0  0  0  0  0  0  0  0  0  0  0  0
   -0.6395    5.4312    4.1451 C   0  0  0  0  0  0  0  0  0  0  0  0
   -1.7098    7.3328    5.1594 C   0  0  0  0  0  0  0  0  0  0  0  0
    0.0628   -0.5550   -7.7296 C   0  0  0  0  0  0  0  0  0  0  0  0
   -1.3039   -2.2541   -6.5506 C   0  0  0  0  0  0  0  0  0  0  0  0
   -2.9586    0.7070   -4.4615 C   0  0  0  0  0  0  0  0  0  0  0  0
    0.0330   -1.4535   -8.9895 C   0  0  0  0  0  0  0  0  0  0  0  0
   -1.3293   -3.0884   -7.8504 C   0  0  0  0  0  0  0  0  0  0  0  0
   -0.6598    6.4062    5.1072 C   0  0  0  0  0  0  0  0  0  0  0  0
   -1.8737    0.0838   -6.3153 C   0  0  0  0  0  0  0  0  0  0  0  0
   -2.5276    1.1558   -6.9718 C   0  0  0  0  0  0  0  0  0  0  0  0
    1.0632   -3.4081   -7.9833 C   0  0  0  0  0  0  0  0  0  0  0  0
   -5.7922    3.1131    5.2244 H   0  0  0  0  0  0  0  0  0  0  0  0
   -1.4191    2.1460    1.6482 H   0  0  0  0  0  0  0  0  0  0  0  0
   -6.8529    2.9832    2.9127 H   0  0  0  0  0  0  0  0  0  0  0  0
   -7.3716    2.8578   -1.1247 H   0  0  0  0  0  0  0  0  0  0  0  0
   -3.8106    1.7116    3.5612 H   0  0  0  0  0  0  0  0  0  0  0  0
   -3.8442   -0.1639    4.0858 H   0  0  0  0  0  0  0  0  0  0  0  0
   -5.2213    0.6401    2.0143 H   0  0  0  0  0  0  0  0  0  0  0  0
   -5.5695   -1.3941    3.4646 H   0  0  0  0  0  0  0  0  0  0  0  0
   -6.5637   -0.8074    4.8559 H   0  0  0  0  0  0  0  0  0  0  0  0
   -7.1273   -0.2684    2.1595 H   0  0  0  0  0  0  0  0  0  0  0  0
   -7.6738    0.7847    3.4876 H   0  0  0  0  0  0  0  0  0  0  0  0
   -3.5123    0.8946    6.0859 H   0  0  0  0  0  0  0  0  0  0  0  0
   -5.1301    1.5669    6.1578 H   0  0  0  0  0  0  0  0  0  0  0  0
   -4.9418   -0.1522    6.4879 H   0  0  0  0  0  0  0  0  0  0  0  0
   -4.1050    4.9514    2.2819 H   0  0  0  0  0  0  0  0  0  0  0  0
   -6.0532    5.8701    0.5729 H   0  0  0  0  0  0  0  0  0  0  0  0
   -7.1068    4.9724    1.7018 H   0  0  0  0  0  0  0  0  0  0  0  0
   -5.7249    4.1318   -0.8141 H   0  0  0  0  0  0  0  0  0  0  0  0
   -3.2047    0.1904   -1.5910 H   0  0  0  0  0  0  0  0  0  0  0  0
   -6.6748    1.3561    0.4364 H   0  0  0  0  0  0  0  0  0  0  0  0
   -5.0599    1.8046    0.8737 H   0  0  0  0  0  0  0  0  0  0  0  0
   -5.7859   -0.1892   -2.2775 H   0  0  0  0  0  0  0  0  0  0  0  0
   -6.9771    0.6199   -1.3308 H   0  0  0  0  0  0  0  0  0  0  0  0
   -3.2222    3.3469   -2.0760 H   0  0  0  0  0  0  0  0  0  0  0  0
   -2.4302    2.2660   -2.7495 H   0  0  0  0  0  0  0  0  0  0  0  0
   -3.6450    6.8386    1.3903 H   0  0  0  0  0  0  0  0  0  0  0  0
   -4.6502    7.4898    2.5620 H   0  0  0  0  0  0  0  0  0  0  0  0
   -6.3833    2.9289   -2.4783 H   0  0  0  0  0  0  0  0  0  0  0  0
   -6.6484    1.6715   -3.5170 H   0  0  0  0  0  0  0  0  0  0  0  0
   -1.5544    4.5925    2.5816 H   0  0  0  0  0  0  0  0  0  0  0  0
   -3.6632    7.9148    4.4156 H   0  0  0  0  0  0  0  0  0  0  0  0
   -3.1597    3.3835    3.2078 H   0  0  0  0  0  0  0  0  0  0  0  0
   -4.6204    3.4621    2.2329 H   0  0  0  0  0  0  0  0  0  0  0  0
   -3.9622    2.2507    2.0152 H   0  0  0  0  0  0  0  0  0  0  0  0
   -2.0626    4.8803   -0.5600 H   0  0  0  0  0  0  0  0  0  0  0  0
   -3.4211    5.4951    0.2724 H   0  0  0  0  0  0  0  0  0  0  0  0
   -1.9011    5.5458    1.0550 H   0  0  0  0  0  0  0  0  0  0  0  0
   -3.9338    4.0955   -0.8906 H   0  0  0  0  0  0  0  0  0  0  0  0
   -4.0267    2.6069   -0.1566 H   0  0  0  0  0  0  0  0  0  0  0  0
   -4.5435    4.0069    0.5877 H   0  0  0  0  0  0  0  0  0  0  0  0
    0.1682    4.6991    4.0614 H   0  0  0  0  0  0  0  0  0  0  0  0
   -1.6976    8.1409    5.8714 H   0  0  0  0  0  0  0  0  0  0  0  0
    0.1456    0.5002   -8.0083 H   0  0  0  0  0  0  0  0  0  0  0  0
    0.9587   -0.7746   -7.1363 H   0  0  0  0  0  0  0  0  0  0  0  0
   -0.4890   -2.5708   -5.8909 H   0  0  0  0  0  0  0  0  0  0  0  0
   -2.2398   -2.4279   -6.0051 H   0  0  0  0  0  0  0  0  0  0  0  0
   -3.1345    0.4298   -3.4431 H   0  0  0  0  0  0  0  0  0  0  0  0
   -0.8153   -1.1465   -9.6175 H   0  0  0  0  0  0  0  0  0  0  0  0
    0.9317   -1.2895   -9.5926 H   0  0  0  0  0  0  0  0  0  0  0  0
   -2.2073   -2.7913   -8.4442 H   0  0  0  0  0  0  0  0  0  0  0  0
   -1.4692   -4.1473   -7.6122 H   0  0  0  0  0  0  0  0  0  0  0  0
    0.1357    6.4455    5.8362 H   0  0  0  0  0  0  0  0  0  0  0  0
    1.2591   -2.8956   -7.0364 H   0  0  0  0  0  0  0  0  0  0  0  0
    0.9461   -4.4714   -7.7531 H   0  0  0  0  0  0  0  0  0  0  0  0
    1.9588   -3.2931   -8.5996 H   0  0  0  0  0  0  0  0  0  0  0  0
  1 50  1  0  0  0  0
  2 54  1  0  0  0  0
  3 55  1  0  0  0  0
  4 22  2  0  0  0  0
  5 31  2  0  0  0  0
  6 34  2  0  0  0  0
  7 22  1  0  0  0  0
  7 52  1  0  0  0  0
  8 25  1  0  0  0  0
  8 26  1  0  0  0  0
  8 27  1  0  0  0  0
  9 28  1  0  0  0  0
  9 30  1  0  0  0  0
  9 34  1  0  0  0  0
 10 31  1  0  0  0  0
 10 33  1  0  0  0  0
 10 53  1  0  0  0  0
 11 43  1  0  0  0  0
 11 44  1  0  0  0  0
 11 49  1  0  0  0  0
 12 46  1  0  0  0  0
 12 47  1  0  0  0  0
 12 51  1  0  0  0  0
 13 37  1  0  0  0  0
 13 50  2  0  0  0  0
 14 45  1  0  0  0  0
 14 49  2  0  0  0  0
 15 16  1  0  0  0  0
 15 17  1  0  0  0  0
 15 56  1  6  0  0  0
 15  7  1  0  0  0  0
 16 18  1  0  0  0  0
 16 57  1  6  0  0  0
 16 20  1  0  0  0  0
 17  2  1  0  0  0  0
 17 19  1  0  0  0  0
 17 58  1  6  0  0  0
 18 19  1  0  0  0  0
 18 59  1  0  0  0  0
 18 60  1  0  0  0  0
 19 61  1  0  0  0  0
 19 62  1  0  0  0  0
 20 63  1  0  0  0  0
 20 64  1  0  0  0  0
 20 65  1  0  0  0  0
 21 29  1  0  0  0  0
 21 66  1  6  0  0  0
 21 23  1  0  0  0  0
 21 22  1  0  0  0  0
 23 24  1  0  0  0  0
 23 67  1  0  0  0  0
 23 68  1  0  0  0  0
 24  3  1  0  0  0  0
 24 26  1  0  0  0  0
 24 69  1  6  0  0  0
 25 28  1  0  0  0  0
 25 31  1  0  0  0  0
 25 70  1  6  0  0  0
 26 71  1  0  0  0  0
 26 72  1  0  0  0  0
 27 30  1  0  0  0  0
 27 73  1  0  0  0  0
 27 74  1  0  0  0  0
 28 75  1  0  0  0  0
 28 76  1  0  0  0  0
 29 32  1  0  0  0  0
 29 77  1  0  0  0  0
 29 78  1  0  0  0  0
 30 79  1  0  0  0  0
 30 80  1  0  0  0  0
 32 35  2  0  0  0  0
 32 36  1  0  0  0  0
 33 38  1  0  0  0  0
 33 39  1  0  0  0  0
 33 40  1  0  0  0  0
 34 37  1  0  0  0  0
 35 41  1  0  0  0  0
 35 81  1  0  0  0  0
 36 42  2  0  0  0  0
 36 82  1  0  0  0  0
 37 45  2  0  0  0  0
 38 83  1  0  0  0  0
 38 84  1  0  0  0  0
 38 85  1  0  0  0  0
 39 86  1  0  0  0  0
 39 87  1  0  0  0  0
 39 88  1  0  0  0  0
 40 89  1  0  0  0  0
 40 90  1  0  0  0  0
 40 91  1  0  0  0  0
 41 48  2  0  0  0  0
 41 92  1  0  0  0  0
 42 48  1  0  0  0  0
 42 93  1  0  0  0  0
 43 46  1  0  0  0  0
 43 94  1  0  0  0  0
 43 95  1  0  0  0  0
 44 47  1  0  0  0  0
 44 96  1  0  0  0  0
 44 97  1  0  0  0  0
 45 98  1  0  0  0  0
 46 99  1  0  0  0  0
 46100  1  0  0  0  0
 47101  1  0  0  0  0
 47102  1  0  0  0  0
 48103  1  0  0  0  0
 49 50  1  0  0  0  0
 51104  1  0  0  0  0
 51105  1  0  0  0  0
 51106  1  0  0  0  0
M  END
>  <DRUGBANK_ID>
DB02785

>  <SECONDARY_ACCESSION_NUMBERS>
EXPT00175

>  <COMMON_NAME>
(2S)-1-[(2S,4R)-4-Benzyl-2-hydroxy-5-{[(1S,2R,5S)-2-hydroxy-5-methylcyclopentyl]amino}-5-oxopentyl]-4-{[6-chloro-5-(4-methyl-1-piperazinyl)-2-pyrazinyl]carbonyl}-N-(2-methyl-2-propanyl)-2-piperazineca rboxamide

$$$$
