
 OpenBabel10282417193D

 66 67  0  0  0  0  0  0  0  0999 V2000
    1.4684   -0.8136    0.4761 C   0  0  0  0  0  0  0  0  0  0  0  0
    0.5639   -1.7818    0.0397 C   0  0  0  0  0  0  0  0  0  0  0  0
    0.8429    0.2036    1.1105 C   0  0  0  0  0  0  0  0  0  0  0  0
    2.9795   -0.9019    0.2552 C   0  0  0  0  0  0  0  0  0  0  0  0
   -0.8856   -1.5912    0.0162 C   0  0  0  0  0  0  0  0  0  0  0  0
   -0.5773    0.3850    0.9879 C   0  0  0  0  0  0  0  0  0  0  0  0
    3.8128    0.1627   -0.0439 O   0  0  0  0  0  0  0  0  0  0  0  0
    3.4587   -1.9983    0.2827 O   0  0  0  0  0  0  0  0  0  0  0  0
   -1.4573   -0.4062    0.3281 C   0  0  0  0  0  0  0  0  0  0  0  0
   -1.7918   -2.5656   -0.2441 O   0  0  0  0  0  0  0  0  0  0  0  0
    3.5581    1.5762   -0.1397 C   0  0  0  0  0  0  0  0  0  0  0  0
   -2.6690    0.1547    0.0409 O   0  0  0  0  0  0  0  0  0  0  0  0
   -1.2356   -3.8152    0.0510 C   0  0  0  0  0  0  0  0  0  0  0  0
    2.9011    1.9912   -1.4823 C   0  0  0  0  0  0  0  0  0  0  0  0
   -3.7340   -0.7195   -0.3023 C   0  0  0  0  0  0  0  0  0  0  0  0
    1.4734    1.5153   -1.8115 C   0  0  0  0  0  0  0  0  0  0  0  0
    0.2697    2.0749   -0.9883 C   0  0  0  0  0  0  0  0  0  0  0  0
   -0.2118    3.4088   -0.5907 N   0  0  0  0  0  0  0  0  0  0  0  0
   -0.9871    3.4902    0.8008 C   0  0  3  0  0  0  0  0  0  0  0  0
    0.9308    4.3128   -0.6620 C   0  0  0  0  0  0  0  0  0  0  0  0
   -0.3941    3.1765    2.4106 C   0  0  0  0  0  0  0  0  0  0  0  0
   -1.7394    4.8063    0.7075 C   0  0  0  0  0  0  0  0  0  0  0  0
    1.8937    3.9814    0.4126 C   0  0  0  0  0  0  0  0  0  0  0  0
    0.7036    4.0421    3.0654 C   0  0  0  0  0  0  0  0  0  0  0  0
    0.5374    5.4243    2.9180 C   0  0  0  0  0  0  0  0  0  0  0  0
    2.0203    3.5427    3.3059 C   0  0  0  0  0  0  0  0  0  0  0  0
    1.6481    6.2575    2.7674 C   0  0  0  0  0  0  0  0  0  0  0  0
    3.1327    4.4181    3.2451 C   0  0  0  0  0  0  0  0  0  0  0  0
    2.9465    5.7744    2.9414 C   0  0  0  0  0  0  0  0  0  0  0  0
    4.0735    6.5236    2.7147 O   0  0  0  0  0  0  0  0  0  0  0  0
    3.8410    7.9203    2.5179 C   0  0  0  0  0  0  0  0  0  0  0  0
    0.9937   -2.7155   -0.2946 H   0  0  0  0  0  0  0  0  0  0  0  0
    1.4556    1.0375    1.4163 H   0  0  0  0  0  0  0  0  0  0  0  0
   -1.0118    1.3414    1.1127 H   0  0  0  0  0  0  0  0  0  0  0  0
    3.1433    1.8168    0.8272 H   0  0  0  0  0  0  0  0  0  0  0  0
    4.4940    2.1651   -0.0693 H   0  0  0  0  0  0  0  0  0  0  0  0
   -0.6053   -4.0593   -0.8024 H   0  0  0  0  0  0  0  0  0  0  0  0
   -0.6746   -3.7981    0.9969 H   0  0  0  0  0  0  0  0  0  0  0  0
   -2.0555   -4.5165    0.1452 H   0  0  0  0  0  0  0  0  0  0  0  0
    2.9551    3.0705   -1.6201 H   0  0  0  0  0  0  0  0  0  0  0  0
    3.5531    1.6057   -2.2739 H   0  0  0  0  0  0  0  0  0  0  0  0
   -3.5350   -1.2472   -1.2396 H   0  0  0  0  0  0  0  0  0  0  0  0
   -3.8948   -1.3927    0.5404 H   0  0  0  0  0  0  0  0  0  0  0  0
   -4.6660   -0.1555   -0.4472 H   0  0  0  0  0  0  0  0  0  0  0  0
    1.2317    1.6200   -2.8687 H   0  0  0  0  0  0  0  0  0  0  0  0
    1.5207    0.4255   -1.6792 H   0  0  0  0  0  0  0  0  0  0  0  0
   -0.5683    1.4250   -1.2430 H   0  0  0  0  0  0  0  0  0  0  0  0
    0.6667    1.8896   -0.0399 H   0  0  0  0  0  0  0  0  0  0  0  0
   -1.8696    2.8259    0.7328 H   0  0  0  0  0  0  0  0  0  0  0  0
    1.3923    4.2790   -1.6417 H   0  0  0  0  0  0  0  0  0  0  0  0
    0.6225    5.3416   -0.4980 H   0  0  0  0  0  0  0  0  0  0  0  0
   -1.2596    3.1803    3.0920 H   0  0  0  0  0  0  0  0  0  0  0  0
   -0.0282    2.1537    2.5098 H   0  0  0  0  0  0  0  0  0  0  0  0
   -2.3495    4.7895   -0.2032 H   0  0  0  0  0  0  0  0  0  0  0  0
   -2.4034    4.9493    1.5626 H   0  0  0  0  0  0  0  0  0  0  0  0
   -1.0523    5.6419    0.6236 H   0  0  0  0  0  0  0  0  0  0  0  0
    1.9259    2.9766    0.7929 H   0  0  0  0  0  0  0  0  0  0  0  0
    2.8557    4.4725    0.4715 H   0  0  0  0  0  0  0  0  0  0  0  0
    1.3177    4.3962    1.1682 H   0  0  0  0  0  0  0  0  0  0  0  0
   -0.4137    5.8147    2.5808 H   0  0  0  0  0  0  0  0  0  0  0  0
    2.2391    2.4730    3.2475 H   0  0  0  0  0  0  0  0  0  0  0  0
    1.4563    7.2414    2.3505 H   0  0  0  0  0  0  0  0  0  0  0  0
    4.1466    4.0132    3.2507 H   0  0  0  0  0  0  0  0  0  0  0  0
    3.4176    8.1079    1.5231 H   0  0  0  0  0  0  0  0  0  0  0  0
    3.1897    8.3309    3.2987 H   0  0  0  0  0  0  0  0  0  0  0  0
    4.7960    8.4471    2.5806 H   0  0  0  0  0  0  0  0  0  0  0  0
  1  2  2  0  0  0  0
  1  3  1  0  0  0  0
  1  4  1  0  0  0  0
  2  5  1  0  0  0  0
  2 32  1  0  0  0  0
  3  6  2  0  0  0  0
  3 33  1  0  0  0  0
  4  7  1  0  0  0  0
  4  8  2  0  0  0  0
  5  9  2  0  0  0  0
  5 10  1  0  0  0  0
  6  9  1  0  0  0  0
  6 34  1  0  0  0  0
  7 11  1  0  0  0  0
  9 12  1  0  0  0  0
 10 13  1  0  0  0  0
 11 14  1  0  0  0  0
 11 35  1  0  0  0  0
 11 36  1  0  0  0  0
 12 15  1  0  0  0  0
 13 37  1  0  0  0  0
 13 38  1  0  0  0  0
 13 39  1  0  0  0  0
 14 16  1  0  0  0  0
 14 40  1  0  0  0  0
 14 41  1  0  0  0  0
 15 42  1  0  0  0  0
 15 43  1  0  0  0  0
 15 44  1  0  0  0  0
 16 17  1  0  0  0  0
 16 45  1  0  0  0  0
 16 46  1  0  0  0  0
 17 18  1  0  0  0  0
 17 47  1  0  0  0  0
 17 48  1  0  0  0  0
 18 19  1  0  0  0  0
 18 20  1  0  0  0  0
 19 21  1  0  0  0  0
 19 22  1  0  0  0  0
 19 49  1  0  0  0  0
 20 23  1  0  0  0  0
 20 50  1  0  0  0  0
 20 51  1  0  0  0  0
 21 24  1  0  0  0  0
 21 52  1  0  0  0  0
 21 53  1  0  0  0  0
 22 54  1  0  0  0  0
 22 55  1  0  0  0  0
 22 56  1  0  0  0  0
 23 57  1  0  0  0  0
 23 58  1  0  0  0  0
 23 59  1  0  0  0  0
 24 25  2  0  0  0  0
 24 26  1  0  0  0  0
 25 27  1  0  0  0  0
 25 60  1  0  0  0  0
 26 28  2  0  0  0  0
 26 61  1  0  0  0  0
 27 29  2  0  0  0  0
 27 62  1  0  0  0  0
 28 29  1  0  0  0  0
 28 63  1  0  0  0  0
 29 30  1  0  0  0  0
 30 31  1  0  0  0  0
 31 64  1  0  0  0  0
 31 65  1  0  0  0  0
 31 66  1  0  0  0  0
M  END
>  <DRUGBANK_ID>
DB12554

>  <COMMON_NAME>
Mebeverine

>  <CAS_NUMBER>
3625-06-7

>  <UNII>
7F80CC3NNV

>  <SYNONYMS>
Mebeverina; Mebeverine; Mebeverinum

$$$$
