
 OpenBabel10282417233D

 58 63  0  0  0  0  0  0  0  0999 V2000
    2.6357   -0.3285    0.0019 C   0  0  0  0  0  0  0  0  0  0  0  0
    1.1710   -0.0613   -0.0118 C   0  0  0  0  0  0  0  0  0  0  0  0
    0.1835   -1.0265   -0.0267 C   0  0  0  0  0  0  0  0  0  0  0  0
   -1.3888   -0.3600   -0.0950 S   0  0  0  0  0  0  0  0  0  0  0  0
   -0.7822    1.2402   -0.0019 C   0  0  0  0  0  0  0  0  0  0  0  0
    0.5987    1.2510   -0.0147 C   0  0  0  0  0  0  0  0  0  0  0  0
   -1.6918    2.3859    0.0405 C   0  0  0  0  0  0  0  0  0  0  0  0
   -1.5515    3.2068   -1.0145 N   0  0  0  0  0  0  0  0  0  0  0  0
   -2.3025    4.3419   -1.0807 N   0  0  0  0  0  0  0  0  0  0  0  0
   -3.2158    4.6570   -0.1282 C   0  0  0  0  0  0  0  0  0  0  0  0
   -3.8525    5.9267   -0.2066 N   0  0  0  0  0  0  0  0  0  0  0  0
   -3.8665    6.6824   -1.3997 C   0  0  0  0  0  0  0  0  0  0  0  0
   -4.0989    6.0845   -2.6377 C   0  0  0  0  0  0  0  0  0  0  0  0
   -3.9530    6.8193   -3.8068 C   0  0  0  0  0  0  0  0  0  0  0  0
   -3.7325    8.1966   -3.7639 C   0  0  0  0  0  0  0  0  0  0  0  0
   -3.6093    9.0092   -4.8764 O   0  0  0  0  0  0  0  0  0  0  0  0
   -3.7890    8.4519   -6.1341 C   0  0  0  0  0  0  0  0  0  0  0  0
   -2.7057    8.5497   -6.9465 N   0  0  0  0  0  0  0  0  0  0  0  0
   -2.8146    8.0129   -8.1804 C   0  0  0  0  0  0  0  0  0  0  0  0
   -3.9551    7.3822   -8.6467 C   0  0  0  0  0  0  0  0  0  0  0  0
   -5.0654    7.3194   -7.8074 C   0  0  0  0  0  0  0  0  0  0  0  0
   -5.0203    7.8972   -6.5319 C   0  0  0  0  0  0  0  0  0  0  0  0
   -6.1979    7.8895   -5.6548 C   0  0  0  0  0  0  0  0  0  0  0  0
   -6.6821    6.6741   -5.3118 N   0  0  0  0  0  0  0  0  0  0  0  0
   -7.6231    6.6416   -4.3588 C   0  0  0  0  0  0  0  0  0  0  0  0
   -8.0715    5.4298   -3.9364 N   0  0  0  0  0  0  0  0  0  0  0  0
   -8.1501    7.7267   -3.7788 N   0  0  0  0  0  0  0  0  0  0  0  0
   -7.6734    8.9161   -4.1766 C   0  0  0  0  0  0  0  0  0  0  0  0
   -6.6845    9.0615   -5.1140 C   0  0  0  0  0  0  0  0  0  0  0  0
   -3.6341    8.8241   -2.5182 C   0  0  0  0  0  0  0  0  0  0  0  0
   -3.6769    8.0641   -1.3427 C   0  0  0  0  0  0  0  0  0  0  0  0
   -3.3854    3.8253    0.9966 C   0  0  0  0  0  0  0  0  0  0  0  0
   -2.5768    2.6646    1.0942 C   0  0  0  0  0  0  0  0  0  0  0  0
   -2.6683    1.8694    2.2596 C   0  0  0  0  0  0  0  0  0  0  0  0
   -3.5506    2.1776    3.2894 C   0  0  0  0  0  0  0  0  0  0  0  0
   -4.3772    3.2833    3.1764 C   0  0  0  0  0  0  0  0  0  0  0  0
   -4.2995    4.0944    2.0453 C   0  0  0  0  0  0  0  0  0  0  0  0
    3.1067    0.1146   -0.8813 H   0  0  0  0  0  0  0  0  0  0  0  0
    3.0919    0.1087    0.8959 H   0  0  0  0  0  0  0  0  0  0  0  0
    2.8472   -1.4023   -0.0000 H   0  0  0  0  0  0  0  0  0  0  0  0
    0.3095   -2.1009   -0.0226 H   0  0  0  0  0  0  0  0  0  0  0  0
    1.1761    2.1693   -0.0067 H   0  0  0  0  0  0  0  0  0  0  0  0
   -4.7723    5.9359    0.2149 H   0  0  0  0  0  0  0  0  0  0  0  0
   -4.3262    5.0248   -2.7220 H   0  0  0  0  0  0  0  0  0  0  0  0
   -4.0479    6.2725   -4.7387 H   0  0  0  0  0  0  0  0  0  0  0  0
   -1.9309    8.1025   -8.8076 H   0  0  0  0  0  0  0  0  0  0  0  0
   -3.9847    6.9570   -9.6442 H   0  0  0  0  0  0  0  0  0  0  0  0
   -5.9729    6.8268   -8.1488 H   0  0  0  0  0  0  0  0  0  0  0  0
   -8.7588    5.4172   -3.2016 H   0  0  0  0  0  0  0  0  0  0  0  0
   -7.6204    4.6027   -4.2882 H   0  0  0  0  0  0  0  0  0  0  0  0
   -8.1071    9.7838   -3.6900 H   0  0  0  0  0  0  0  0  0  0  0  0
   -6.2752   10.0279   -5.3704 H   0  0  0  0  0  0  0  0  0  0  0  0
   -3.4859    9.8983   -2.4510 H   0  0  0  0  0  0  0  0  0  0  0  0
   -3.4878    8.5385   -0.3836 H   0  0  0  0  0  0  0  0  0  0  0  0
   -2.0282    0.9990    2.3898 H   0  0  0  0  0  0  0  0  0  0  0  0
   -3.5836    1.5521    4.1766 H   0  0  0  0  0  0  0  0  0  0  0  0
   -5.0725    3.5273    3.9745 H   0  0  0  0  0  0  0  0  0  0  0  0
   -4.9651    4.9527    2.0049 H   0  0  0  0  0  0  0  0  0  0  0  0
  1  2  1  0  0  0  0
  1 38  1  0  0  0  0
  1 39  1  0  0  0  0
  1 40  1  0  0  0  0
  2  3  2  0  0  0  0
  2  6  1  0  0  0  0
  3  4  1  0  0  0  0
  3 41  1  0  0  0  0
  4  5  1  0  0  0  0
  5  6  2  0  0  0  0
  5  7  1  0  0  0  0
  6 42  1  0  0  0  0
  7  8  2  0  0  0  0
  7 33  1  0  0  0  0
  8  9  1  0  0  0  0
  9 10  2  0  0  0  0
 10 11  1  0  0  0  0
 10 32  1  0  0  0  0
 11 12  1  0  0  0  0
 11 43  1  0  0  0  0
 12 13  2  0  0  0  0
 12 31  1  0  0  0  0
 13 14  1  0  0  0  0
 13 44  1  0  0  0  0
 14 15  2  0  0  0  0
 14 45  1  0  0  0  0
 15 16  1  0  0  0  0
 15 30  1  0  0  0  0
 16 17  1  0  0  0  0
 17 18  2  0  0  0  0
 17 22  1  0  0  0  0
 18 19  1  0  0  0  0
 19 20  2  0  0  0  0
 19 46  1  0  0  0  0
 20 21  1  0  0  0  0
 20 47  1  0  0  0  0
 21 22  2  0  0  0  0
 21 48  1  0  0  0  0
 22 23  1  0  0  0  0
 23 24  2  0  0  0  0
 23 29  1  0  0  0  0
 24 25  1  0  0  0  0
 25 26  1  0  0  0  0
 25 27  2  0  0  0  0
 26 49  1  0  0  0  0
 26 50  1  0  0  0  0
 27 28  1  0  0  0  0
 28 29  2  0  0  0  0
 28 51  1  0  0  0  0
 29 52  1  0  0  0  0
 30 31  2  0  0  0  0
 30 53  1  0  0  0  0
 31 54  1  0  0  0  0
 32 33  2  0  0  0  0
 32 37  1  0  0  0  0
 33 34  1  0  0  0  0
 34 35  2  0  0  0  0
 34 55  1  0  0  0  0
 35 36  1  0  0  0  0
 35 56  1  0  0  0  0
 36 37  2  0  0  0  0
 36 57  1  0  0  0  0
 37 58  1  0  0  0  0
M  END
>  <DRUGBANK_ID>
DB17197

>  <COMMON_NAME>
AMG-900

>  <CAS_NUMBER>
945595-80-2

>  <UNII>
9R2G075611

>  <SYNONYMS>
1-phthalazinamine, n-(4-((3-(2-amino-4-pyrimidinyl)-2-pyridinyl)oxy)phenyl)-4-(4-methyl-2-thienyl)-

$$$$
