53U
 OpenBabel10282417163D

 51 53  0  0  0  0  0  0  0  0999 V2000
    1.1500    0.0231   -0.1739 C   0  0  0  0  0  0  0  0  0  0  0  0
    0.9923    1.4696    1.9523 N   0  0  0  0  0  0  0  0  0  0  0  0
    0.4464    0.2819    1.2259 C   0  0  1  0  0  0  0  0  0  0  0  0
   -1.1647    0.2851    1.4107 C   0  0  0  0  0  0  0  0  0  0  0  0
   -1.6829   -0.5085    2.2027 O   0  0  0  0  0  0  0  0  0  0  0  0
   -1.9131    1.2899    0.8250 N   0  0  0  0  0  0  0  0  0  0  0  0
   -1.6319    1.7967   -0.4392 C   0  0  0  0  0  0  0  0  0  0  0  0
   -1.9907    3.2446   -0.4624 C   0  0  0  0  0  0  0  0  0  0  0  0
   -3.2515    3.2241    0.3235 C   0  0  0  0  0  0  0  0  0  0  0  0
   -3.0736    2.0067    1.2874 C   0  0  1  0  0  0  0  0  0  0  0  0
   -4.3256    1.1873    1.0746 C   0  0  0  0  0  0  0  0  0  0  0  0
   -4.9864    1.0085    2.2591 N   0  0  0  0  0  0  0  0  0  0  0  0
   -6.3668    0.6771    2.2415 C   0  0  0  0  0  0  0  0  0  0  0  0
   -6.6247   -0.6112    2.9421 C   0  0  0  0  0  0  0  0  0  0  0  0
   -6.7532   -0.6348    4.3344 C   0  0  0  0  0  0  0  0  0  0  0  0
   -7.1112   -1.8140    4.9762 C   0  0  0  0  0  0  0  0  0  0  0  0
   -7.3436   -2.9682    4.2288 C   0  0  0  0  0  0  0  0  0  0  0  0
   -7.1936   -2.9527    2.8424 C   0  0  0  0  0  0  0  0  0  0  0  0
   -6.7809   -1.7891    2.2038 C   0  0  0  0  0  0  0  0  0  0  0  0
   -4.7438    0.8470   -0.0139 O   0  0  0  0  0  0  0  0  0  0  0  0
    1.1201    1.1024   -1.2781 C   0  0  0  0  0  0  0  0  0  0  0  0
    0.2065    0.9691   -2.3587 C   0  0  0  0  0  0  0  0  0  0  0  0
   -0.3000    2.1220   -3.0010 C   0  0  0  0  0  0  0  0  0  0  0  0
    0.1497    3.3963   -2.6332 C   0  0  0  0  0  0  0  0  0  0  0  0
    1.0811    3.5280   -1.6019 C   0  0  0  0  0  0  0  0  0  0  0  0
    1.6067    2.3930   -0.9669 C   0  0  0  0  0  0  0  0  0  0  0  0
    0.7694   -0.5743    1.8421 H   0  0  0  0  0  0  0  0  0  0  0  0
   -2.8997    2.3371    2.3120 H   0  0  0  0  0  0  0  0  0  0  0  0
    0.7526   -0.9170   -0.5748 H   0  0  0  0  0  0  0  0  0  0  0  0
    2.2173   -0.1573    0.0204 H   0  0  0  0  0  0  0  0  0  0  0  0
    0.6634    1.4412    2.9191 H   0  0  0  0  0  0  0  0  0  0  0  0
    2.0074    1.3917    2.0034 H   0  0  0  0  0  0  0  0  0  0  0  0
   -2.1336    1.1740   -1.1891 H   0  0  0  0  0  0  0  0  0  0  0  0
   -0.5966    1.7693   -0.4178 H   0  0  0  0  0  0  0  0  0  0  0  0
   -1.2099    3.8225    0.0456 H   0  0  0  0  0  0  0  0  0  0  0  0
   -2.1262    3.6397   -1.4706 H   0  0  0  0  0  0  0  0  0  0  0  0
   -3.3980    4.1813    0.8223 H   0  0  0  0  0  0  0  0  0  0  0  0
   -4.0595    3.0978   -0.4098 H   0  0  0  0  0  0  0  0  0  0  0  0
   -4.4712    1.0569    3.1273 H   0  0  0  0  0  0  0  0  0  0  0  0
   -6.8824    1.4992    2.7471 H   0  0  0  0  0  0  0  0  0  0  0  0
   -6.7572    0.6503    1.2186 H   0  0  0  0  0  0  0  0  0  0  0  0
   -6.5950    0.2717    4.9135 H   0  0  0  0  0  0  0  0  0  0  0  0
   -7.2342   -1.8246    6.0546 H   0  0  0  0  0  0  0  0  0  0  0  0
   -7.6377   -3.8858    4.7285 H   0  0  0  0  0  0  0  0  0  0  0  0
   -7.4134   -3.8402    2.2564 H   0  0  0  0  0  0  0  0  0  0  0  0
   -6.6059   -1.7903    1.1287 H   0  0  0  0  0  0  0  0  0  0  0  0
   -0.3786    0.0485   -2.4527 H   0  0  0  0  0  0  0  0  0  0  0  0
   -1.2366    2.0524   -3.5635 H   0  0  0  0  0  0  0  0  0  0  0  0
   -0.3735    4.2829   -2.9942 H   0  0  0  0  0  0  0  0  0  0  0  0
    1.2459    4.5092   -1.1551 H   0  0  0  0  0  0  0  0  0  0  0  0
    2.1941    2.5492   -0.0650 H   0  0  0  0  0  0  0  0  0  0  0  0
  1  3  1  0  0  0  0
  1 21  1  0  0  0  0
  1 29  1  0  0  0  0
  1 30  1  0  0  0  0
  2 31  1  0  0  0  0
  2 32  1  0  0  0  0
  3  2  1  0  0  0  0
  3  4  1  0  0  0  0
  3 27  1  1  0  0  0
  4  5  2  0  0  0  0
  4  6  1  0  0  0  0
  6  7  1  0  0  0  0
  6 10  1  0  0  0  0
  7  8  1  0  0  0  0
  7 33  1  0  0  0  0
  7 34  1  0  0  0  0
  8  9  1  0  0  0  0
  8 35  1  0  0  0  0
  8 36  1  0  0  0  0
  9 10  1  0  0  0  0
  9 37  1  0  0  0  0
  9 38  1  0  0  0  0
 10 28  1  1  0  0  0
 10 11  1  0  0  0  0
 11 12  1  0  0  0  0
 11 20  2  0  0  0  0
 12 13  1  0  0  0  0
 12 39  1  0  0  0  0
 13 14  1  0  0  0  0
 13 40  1  0  0  0  0
 13 41  1  0  0  0  0
 14 15  2  0  0  0  0
 14 19  1  0  0  0  0
 15 16  1  0  0  0  0
 15 42  1  0  0  0  0
 16 17  2  0  0  0  0
 16 43  1  0  0  0  0
 17 18  1  0  0  0  0
 17 44  1  0  0  0  0
 18 19  2  0  0  0  0
 18 45  1  0  0  0  0
 19 46  1  0  0  0  0
 21 22  2  0  0  0  0
 21 26  1  0  0  0  0
 22 23  1  0  0  0  0
 22 47  1  0  0  0  0
 23 24  2  0  0  0  0
 23 48  1  0  0  0  0
 24 25  1  0  0  0  0
 24 49  1  0  0  0  0
 25 26  2  0  0  0  0
 25 50  1  0  0  0  0
 26 51  1  0  0  0  0
M  END
>  <DRUGBANK_ID>
DB07143

>  <COMMON_NAME>
D-phenylalanyl-N-benzyl-L-prolinamide

$$$$
