
 OpenBabel10282417153D

 59 62  0  0  0  0  0  0  0  0999 V2000
    2.0492    0.4925   -0.0514 Cl  0  0  0  0  0  0  0  0  0  0  0  0
    0.4456   -2.0279   -0.0726 F   0  0  0  0  0  0  0  0  0  0  0  0
    1.0065    0.5996   -7.1141 O   0  0  0  0  0  0  0  0  0  0  0  0
    1.2186    5.8146   -3.9543 O   0  0  0  0  0  0  0  0  0  0  0  0
   -2.3450    2.0037   -5.4999 O   0  0  0  0  0  0  0  0  0  0  0  0
    0.5120    2.1456   -4.8493 N   0  0  0  0  0  0  0  0  0  0  0  0
   -1.2606    3.6342   -4.2078 N   0  0  0  0  0  0  0  0  0  0  0  0
   -2.5090    2.6705    0.3262 N   0  0  0  0  0  0  0  0  0  0  0  0
   -1.0232    6.5805    0.1409 N   0  0  0  0  0  0  0  0  0  0  0  0
   -2.4339    4.8601    1.1109 N   0  0  0  0  0  0  0  0  0  0  0  0
    1.6315    2.6205   -4.0030 C   0  0  0  0  0  0  0  0  0  0  0  0
    0.3243    0.6918   -4.7386 C   0  0  0  0  0  0  0  0  0  0  0  0
    0.2243    2.6328   -6.2670 C   0  0  0  0  0  0  0  0  0  0  0  0
    2.4638    3.7036   -4.6454 C   0  0  0  0  0  0  0  0  0  0  0  0
    1.2164    0.0731   -5.7771 C   0  0  0  0  0  0  0  0  0  0  0  0
    1.1632    2.0169   -7.2100 C   0  0  0  0  0  0  0  0  0  0  0  0
    1.7238    5.0099   -5.0278 C   0  0  0  0  0  0  0  0  0  0  0  0
    0.1893    5.4321   -3.1249 C   0  0  0  0  0  0  0  0  0  0  0  0
   -0.7051    4.3637   -3.1356 C   0  0  0  0  0  0  0  0  0  0  0  0
   -1.1882    4.4757   -0.8669 C   0  0  0  0  0  0  0  0  0  0  0  0
    0.1005    6.2010   -1.9570 C   0  0  0  0  0  0  0  0  0  0  0  0
   -0.7275    5.7902   -0.8833 C   0  0  0  0  0  0  0  0  0  0  0  0
   -0.7885    3.7386   -1.9397 C   0  0  0  0  0  0  0  0  0  0  0  0
   -2.0214    4.0003    0.1889 C   0  0  0  0  0  0  0  0  0  0  0  0
   -1.7983    1.4434    0.3418 C   0  0  0  0  0  0  0  0  0  0  0  0
   -1.8675    6.0783    1.0657 C   0  0  0  0  0  0  0  0  0  0  0  0
   -1.9977    2.4312   -4.3956 C   0  0  0  0  0  0  0  0  0  0  0  0
   -0.4071    1.4792    0.2626 C   0  0  0  0  0  0  0  0  0  0  0  0
   -2.4255    0.1700    0.3061 C   0  0  0  0  0  0  0  0  0  0  0  0
    0.3471    0.3273    0.1069 C   0  0  0  0  0  0  0  0  0  0  0  0
   -1.6645   -0.9993    0.1300 C   0  0  0  0  0  0  0  0  0  0  0  0
   -2.2334    1.3996   -3.3595 C   0  0  0  0  0  0  0  0  0  0  0  0
   -0.2789   -0.9082    0.0534 C   0  0  0  0  0  0  0  0  0  0  0  0
   -2.8745    1.7720   -2.3374 C   0  0  0  0  0  0  0  0  0  0  0  0
   -0.4048    3.4627   -4.6938 H   0  0  0  0  0  0  0  0  0  0  0  0
   -3.5245    2.6169    0.2899 H   0  0  0  0  0  0  0  0  0  0  0  0
    2.2299    1.7840   -3.6074 H   0  0  0  0  0  0  0  0  0  0  0  0
    1.2952    3.0269   -3.0447 H   0  0  0  0  0  0  0  0  0  0  0  0
   -0.6747    0.3127   -4.9795 H   0  0  0  0  0  0  0  0  0  0  0  0
    0.4744    0.3534   -3.6950 H   0  0  0  0  0  0  0  0  0  0  0  0
   -0.7843    2.4463   -6.6554 H   0  0  0  0  0  0  0  0  0  0  0  0
    0.1297    3.7094   -6.3828 H   0  0  0  0  0  0  0  0  0  0  0  0
    2.9460    3.2378   -5.5047 H   0  0  0  0  0  0  0  0  0  0  0  0
    3.2979    3.9497   -3.9809 H   0  0  0  0  0  0  0  0  0  0  0  0
    2.2446    0.2347   -5.4544 H   0  0  0  0  0  0  0  0  0  0  0  0
    0.9776   -0.9896   -5.8043 H   0  0  0  0  0  0  0  0  0  0  0  0
    0.9371    2.4230   -8.2028 H   0  0  0  0  0  0  0  0  0  0  0  0
    2.1697    2.3138   -6.9579 H   0  0  0  0  0  0  0  0  0  0  0  0
    0.9212    4.9956   -5.7419 H   0  0  0  0  0  0  0  0  0  0  0  0
    2.4590    5.5724   -5.6271 H   0  0  0  0  0  0  0  0  0  0  0  0
    0.6573    7.1333   -1.8805 H   0  0  0  0  0  0  0  0  0  0  0  0
   -0.7051    2.6698   -1.9606 H   0  0  0  0  0  0  0  0  0  0  0  0
   -2.0986    6.7299    1.8956 H   0  0  0  0  0  0  0  0  0  0  0  0
    0.1002    2.4360    0.2333 H   0  0  0  0  0  0  0  0  0  0  0  0
   -3.5130    0.0625    0.2713 H   0  0  0  0  0  0  0  0  0  0  0  0
   -2.1356   -1.9747    0.0206 H   0  0  0  0  0  0  0  0  0  0  0  0
   -2.1683    0.3230   -3.6053 H   0  0  0  0  0  0  0  0  0  0  0  0
   -3.2358    1.0289   -1.6447 H   0  0  0  0  0  0  0  0  0  0  0  0
   -2.9475    2.8303   -2.0953 H   0  0  0  0  0  0  0  0  0  0  0  0
  1 30  1  0  0  0  0
  2 33  1  0  0  0  0
  3 15  1  0  0  0  0
  3 16  1  0  0  0  0
  4 17  1  0  0  0  0
  4 18  1  0  0  0  0
  5 27  2  0  0  0  0
  6 11  1  0  0  0  0
  6 12  1  0  0  0  0
  6 13  1  0  0  0  0
  7 19  1  0  0  0  0
  7 27  1  0  0  0  0
  7 35  1  0  0  0  0
  8 24  1  0  0  0  0
  8 25  1  0  0  0  0
  8 36  1  0  0  0  0
  9 22  1  0  0  0  0
  9 26  2  0  0  0  0
 10 24  2  0  0  0  0
 10 26  1  0  0  0  0
 11 14  1  0  0  0  0
 11 37  1  0  0  0  0
 11 38  1  0  0  0  0
 12 15  1  0  0  0  0
 12 39  1  0  0  0  0
 12 40  1  0  0  0  0
 13 16  1  0  0  0  0
 13 41  1  0  0  0  0
 13 42  1  0  0  0  0
 14 17  1  0  0  0  0
 14 43  1  0  0  0  0
 14 44  1  0  0  0  0
 15 45  1  0  0  0  0
 15 46  1  0  0  0  0
 16 47  1  0  0  0  0
 16 48  1  0  0  0  0
 17 49  1  0  0  0  0
 17 50  1  0  0  0  0
 18 19  2  0  0  0  0
 18 21  1  0  0  0  0
 19 23  1  0  0  0  0
 20 22  1  0  0  0  0
 20 23  2  0  0  0  0
 20 24  1  0  0  0  0
 21 22  2  0  0  0  0
 21 51  1  0  0  0  0
 23 52  1  0  0  0  0
 25 28  2  0  0  0  0
 25 29  1  0  0  0  0
 26 53  1  0  0  0  0
 27 32  1  0  0  0  0
 28 30  1  0  0  0  0
 28 54  1  0  0  0  0
 29 31  2  0  0  0  0
 29 55  1  0  0  0  0
 30 33  2  0  0  0  0
 31 33  1  0  0  0  0
 31 56  1  0  0  0  0
 32 34  2  0  0  0  0
 32 57  1  0  0  0  0
 34 58  1  0  0  0  0
 34 59  1  0  0  0  0
M  END
>  <DRUGBANK_ID>
DB05424

>  <COMMON_NAME>
Canertinib

>  <CAS_NUMBER>
267243-28-7

>  <UNII>
C78W1K5ASF

>  <SYNONYMS>
Canertinib

$$$$
