
 OpenBabel10282417203D

 29 29  0  0  0  0  0  0  0  0999 V2000
    1.0528   -0.0276   -0.0250 C   0  0  0  0  0  0  0  0  0  0  0  0
    1.0673   -2.3889   -3.7288 C   0  0  0  0  0  0  0  0  0  0  0  0
    0.5560   -0.7509   -1.2617 C   0  0  0  0  0  0  0  0  0  0  0  0
   -0.3388   -6.4481    1.3679 C   0  0  0  0  0  0  0  0  0  0  0  0
   -0.6425   -5.1082    1.2020 C   0  0  0  0  0  0  0  0  0  0  0  0
    0.3990   -7.1218    0.3931 C   0  0  0  0  0  0  0  0  0  0  0  0
   -0.2274   -4.4429    0.0509 C   0  0  0  0  0  0  0  0  0  0  0  0
    0.8618   -6.4376   -0.7355 C   0  0  0  0  0  0  0  0  0  0  0  0
    1.0322   -4.3949   -2.1893 C   0  0  0  0  0  0  0  0  0  0  0  0
    0.5805   -2.9262   -2.3835 C   0  0  3  0  0  0  0  0  0  0  0  0
    0.5401   -5.0914   -0.9321 C   0  0  0  0  0  0  0  0  0  0  0  0
    1.0933   -2.0989   -1.2830 N   0  0  0  0  0  0  0  0  0  0  0  0
    0.6906   -0.5068    0.8906 H   0  0  0  0  0  0  0  0  0  0  0  0
    0.6940    1.0056   -0.0370 H   0  0  0  0  0  0  0  0  0  0  0  0
    2.1473   -0.0070    0.0040 H   0  0  0  0  0  0  0  0  0  0  0  0
    2.1610   -2.3484   -3.7631 H   0  0  0  0  0  0  0  0  0  0  0  0
    0.7156   -3.0156   -4.5530 H   0  0  0  0  0  0  0  0  0  0  0  0
    0.6844   -1.3800   -3.9144 H   0  0  0  0  0  0  0  0  0  0  0  0
   -0.5398   -0.7781   -1.2475 H   0  0  0  0  0  0  0  0  0  0  0  0
    0.8777   -0.1881   -2.1411 H   0  0  0  0  0  0  0  0  0  0  0  0
   -0.6747   -6.9702    2.2594 H   0  0  0  0  0  0  0  0  0  0  0  0
   -1.2056   -4.5622    1.9553 H   0  0  0  0  0  0  0  0  0  0  0  0
    0.6151   -8.1771    0.5124 H   0  0  0  0  0  0  0  0  0  0  0  0
   -0.5086   -3.4006   -0.0422 H   0  0  0  0  0  0  0  0  0  0  0  0
    1.4744   -6.9676   -1.4628 H   0  0  0  0  0  0  0  0  0  0  0  0
    0.6754   -4.9804   -3.0486 H   0  0  0  0  0  0  0  0  0  0  0  0
    2.1303   -4.4440   -2.2072 H   0  0  0  0  0  0  0  0  0  0  0  0
   -0.5182   -2.9119   -2.3791 H   0  0  0  0  0  0  0  0  0  0  0  0
    2.1098   -2.1171   -1.2422 H   0  0  0  0  0  0  0  0  0  0  0  0
  1 13  1  0  0  0  0
  1 14  1  0  0  0  0
  1 15  1  0  0  0  0
  2 16  1  0  0  0  0
  2 17  1  0  0  0  0
  2 18  1  0  0  0  0
  3  1  1  0  0  0  0
  3 19  1  0  0  0  0
  3 20  1  0  0  0  0
  4 21  1  0  0  0  0
  5  4  2  0  0  0  0
  5 22  1  0  0  0  0
  6  4  1  0  0  0  0
  6 23  1  0  0  0  0
  7  5  1  0  0  0  0
  7 24  1  0  0  0  0
  8  6  2  0  0  0  0
  8 25  1  0  0  0  0
  9 26  1  0  0  0  0
  9 27  1  0  0  0  0
 10  2  1  0  0  0  0
 10  9  1  0  0  0  0
 10 28  1  0  0  0  0
 11  7  2  0  0  0  0
 11  8  1  0  0  0  0
 11  9  1  0  0  0  0
 12  3  1  0  0  0  0
 12 10  1  0  0  0  0
 12 29  1  0  0  0  0
M  END
>  <DRUGBANK_ID>
DB13285

>  <COMMON_NAME>
Etilamfetamine

>  <CAS_NUMBER>
457-87-4

>  <UNII>
022YON1XMX

>  <SYNONYMS>
Etilamfetamine

$$$$
