
 OpenBabel10282417193D

 53 56  0  0  0  0  0  0  0  0999 V2000
    2.6241   -0.6023   -0.3922 C   0  0  0  0  0  0  0  0  0  0  0  0
    2.6401    0.7845   -0.2217 C   0  0  0  0  0  0  0  0  0  0  0  0
    1.4678    1.5014    0.0686 C   0  0  0  0  0  0  0  0  0  0  0  0
    0.2603    0.8394    0.1592 C   0  0  0  0  0  0  0  0  0  0  0  0
    0.2739   -0.5352    0.0593 C   0  0  0  0  0  0  0  0  0  0  0  0
    1.4309   -1.2794   -0.2225 C   0  0  0  0  0  0  0  0  0  0  0  0
   -0.8625   -1.2164    0.6224 C   0  0  0  0  0  0  0  0  0  0  0  0
   -0.5504   -1.8915    1.5823 O   0  0  0  0  0  0  0  0  0  0  0  0
   -2.1111   -1.0872    0.0045 N   0  0  0  0  0  0  0  0  0  0  0  0
   -2.4942    0.0515   -0.6667 C   0  0  0  0  0  0  0  0  0  0  0  0
   -1.9427    1.2538   -0.4501 C   0  0  0  0  0  0  0  0  0  0  0  0
   -0.8903    1.5486    0.3953 O   0  0  0  0  0  0  0  0  0  0  0  0
   -3.7859   -0.0969   -1.8080 Cl  0  0  0  0  0  0  0  0  0  0  0  0
   -3.0955   -2.1082    0.3136 C   0  0  0  0  0  0  0  0  0  0  0  0
   -2.7388   -3.4284   -0.3972 C   0  0  0  0  0  0  0  0  0  0  0  0
   -1.5104   -4.1015    0.2315 C   0  0  0  0  0  0  0  0  0  0  0  0
   -1.5509   -4.2604    1.7925 C   0  0  0  0  0  0  0  0  0  0  0  0
   -2.5633   -5.1792    2.3028 N   0  0  0  0  0  0  0  0  0  0  0  0
   -2.3067   -6.5002    1.7513 C   0  0  0  0  0  0  0  0  0  0  0  0
   -3.4033   -7.4887    2.0905 C   0  0  0  0  0  0  0  0  0  0  0  0
   -4.7582   -6.9252    1.7597 C   0  0  0  0  0  0  0  0  0  0  0  0
   -4.9782   -5.6087    1.7686 C   0  0  0  0  0  0  0  0  0  0  0  0
   -3.9212   -4.6504    2.1577 C   0  0  0  0  0  0  0  0  0  0  0  0
   -5.8639   -7.8395    1.5310 C   0  0  0  0  0  0  0  0  0  0  0  0
   -6.1777   -8.7350    2.5408 C   0  0  0  0  0  0  0  0  0  0  0  0
   -7.0994   -9.7309    2.2727 C   0  0  0  0  0  0  0  0  0  0  0  0
   -7.7556   -9.7299    1.0494 C   0  0  0  0  0  0  0  0  0  0  0  0
   -7.4843   -8.7031    0.1573 C   0  0  0  0  0  0  0  0  0  0  0  0
   -6.5267   -7.7716    0.3545 N   0  0  0  0  0  0  0  0  0  0  0  0
    3.5375   -1.1535   -0.6015 H   0  0  0  0  0  0  0  0  0  0  0  0
    3.5815    1.3162   -0.3099 H   0  0  0  0  0  0  0  0  0  0  0  0
    1.4963    2.5715    0.2318 H   0  0  0  0  0  0  0  0  0  0  0  0
    1.4089   -2.3683   -0.2407 H   0  0  0  0  0  0  0  0  0  0  0  0
   -2.3257    2.1578   -0.8977 H   0  0  0  0  0  0  0  0  0  0  0  0
   -3.1187   -2.1669    1.4081 H   0  0  0  0  0  0  0  0  0  0  0  0
   -4.1204   -1.8089    0.0649 H   0  0  0  0  0  0  0  0  0  0  0  0
   -3.5733   -4.1413   -0.4102 H   0  0  0  0  0  0  0  0  0  0  0  0
   -2.5699   -3.2366   -1.4615 H   0  0  0  0  0  0  0  0  0  0  0  0
   -1.3367   -5.0606   -0.2612 H   0  0  0  0  0  0  0  0  0  0  0  0
   -0.6202   -3.5514   -0.0803 H   0  0  0  0  0  0  0  0  0  0  0  0
   -0.5513   -4.5670    2.1336 H   0  0  0  0  0  0  0  0  0  0  0  0
   -1.7457   -3.3437    2.3502 H   0  0  0  0  0  0  0  0  0  0  0  0
   -2.2120   -6.4895    0.6629 H   0  0  0  0  0  0  0  0  0  0  0  0
   -1.3427   -6.8570    2.1404 H   0  0  0  0  0  0  0  0  0  0  0  0
   -3.2010   -8.3940    1.5084 H   0  0  0  0  0  0  0  0  0  0  0  0
   -3.3463   -7.7324    3.1551 H   0  0  0  0  0  0  0  0  0  0  0  0
   -5.9395   -5.1944    1.4745 H   0  0  0  0  0  0  0  0  0  0  0  0
   -4.2055   -4.0782    3.0476 H   0  0  0  0  0  0  0  0  0  0  0  0
   -4.0166   -3.9107    1.3911 H   0  0  0  0  0  0  0  0  0  0  0  0
   -5.7070   -8.6497    3.5144 H   0  0  0  0  0  0  0  0  0  0  0  0
   -7.3012  -10.4922    3.0173 H   0  0  0  0  0  0  0  0  0  0  0  0
   -8.4799  -10.4988    0.8105 H   0  0  0  0  0  0  0  0  0  0  0  0
   -8.0529   -8.6013   -0.7625 H   0  0  0  0  0  0  0  0  0  0  0  0
  1  2  2  0  0  0  0
  1  6  1  0  0  0  0
  1 30  1  0  0  0  0
  2  3  1  0  0  0  0
  2 31  1  0  0  0  0
  3  4  2  0  0  0  0
  3 32  1  0  0  0  0
  4  5  1  0  0  0  0
  4 12  1  0  0  0  0
  5  6  2  0  0  0  0
  5  7  1  0  0  0  0
  6 33  1  0  0  0  0
  7  8  2  0  0  0  0
  7  9  1  0  0  0  0
  9 10  1  0  0  0  0
  9 14  1  0  0  0  0
 10 11  2  0  0  0  0
 10 13  1  0  0  0  0
 11 12  1  0  0  0  0
 11 34  1  0  0  0  0
 14 15  1  0  0  0  0
 14 35  1  0  0  0  0
 14 36  1  0  0  0  0
 15 16  1  0  0  0  0
 15 37  1  0  0  0  0
 15 38  1  0  0  0  0
 16 17  1  0  0  0  0
 16 39  1  0  0  0  0
 16 40  1  0  0  0  0
 17 18  1  0  0  0  0
 17 41  1  0  0  0  0
 17 42  1  0  0  0  0
 18 19  1  0  0  0  0
 18 23  1  0  0  0  0
 19 20  1  0  0  0  0
 19 43  1  0  0  0  0
 19 44  1  0  0  0  0
 20 21  1  0  0  0  0
 20 45  1  0  0  0  0
 20 46  1  0  0  0  0
 21 22  2  0  0  0  0
 21 24  1  0  0  0  0
 22 23  1  0  0  0  0
 22 47  1  0  0  0  0
 23 48  1  0  0  0  0
 23 49  1  0  0  0  0
 24 25  2  0  0  0  0
 24 29  1  0  0  0  0
 25 26  1  0  0  0  0
 25 50  1  0  0  0  0
 26 27  2  0  0  0  0
 26 51  1  0  0  0  0
 27 28  1  0  0  0  0
 27 52  1  0  0  0  0
 28 29  2  0  0  0  0
 28 53  1  0  0  0  0
M  END
>  <DRUGBANK_ID>
DB12361

>  <COMMON_NAME>
Piclozotan

>  <CAS_NUMBER>
182415-09-4

>  <UNII>
FQE44HS7AH

>  <SYNONYMS>
Piclozotan

$$$$
