
 OpenBabel10282417233D

 26 25  0  0  0  0  0  0  0  0999 V2000
    1.1077    0.0427    0.0036 C   0  0  0  0  0  0  0  0  0  0  0  0
    0.6521   -1.1472   -0.8509 C   0  0  0  0  0  0  0  0  0  0  0  0
    0.6167    0.0885    1.4364 C   0  0  0  0  0  0  0  0  0  0  0  0
    0.6918    1.1777   -0.6315 F   0  0  0  0  0  0  0  0  0  0  0  0
    2.4677    0.0966   -0.0003 F   0  0  0  0  0  0  0  0  0  0  0  0
    1.0430   -2.5917   -0.4853 C   0  0  0  0  0  0  0  0  0  0  0  0
   -0.6866   -1.0690   -1.0942 F   0  0  0  0  0  0  0  0  0  0  0  0
    1.2036   -0.9207   -2.1056 F   0  0  0  0  0  0  0  0  0  0  0  0
    1.1361    1.1640    2.3366 C   0  0  0  0  0  0  0  0  0  0  0  0
   -0.7429    0.0845    1.4710 F   0  0  0  0  0  0  0  0  0  0  0  0
    0.9864   -1.0577    2.0298 F   0  0  0  0  0  0  0  0  0  0  0  0
    0.5160   -3.3243    0.7469 C   0  0  0  0  0  0  0  0  0  0  0  0
    0.6741   -3.3693   -1.5643 F   0  0  0  0  0  0  0  0  0  0  0  0
    2.4134   -2.6583   -0.4673 F   0  0  0  0  0  0  0  0  0  0  0  0
    0.6096    2.5211    1.9496 C   0  0  0  0  0  0  0  0  0  0  0  0
    0.7216    0.8698    3.6142 F   0  0  0  0  0  0  0  0  0  0  0  0
    2.4937    1.1358    2.3866 F   0  0  0  0  0  0  0  0  0  0  0  0
   -0.9821   -3.1529    0.9410 C   0  0  0  0  0  0  0  0  0  0  0  0
    0.7973   -4.6628    0.6343 F   0  0  0  0  0  0  0  0  0  0  0  0
    1.2223   -2.9875    1.8545 F   0  0  0  0  0  0  0  0  0  0  0  0
   -0.7416    2.5151    1.8536 F   0  0  0  0  0  0  0  0  0  0  0  0
    0.9472    3.4560    2.8535 F   0  0  0  0  0  0  0  0  0  0  0  0
    1.0979    2.9229    0.7571 F   0  0  0  0  0  0  0  0  0  0  0  0
   -1.6834   -3.8913    0.0556 F   0  0  0  0  0  0  0  0  0  0  0  0
   -1.3794   -3.5112    2.1822 F   0  0  0  0  0  0  0  0  0  0  0  0
   -1.3904   -1.8800    0.7829 F   0  0  0  0  0  0  0  0  0  0  0  0
  1  2  1  0  0  0  0
  1  3  1  0  0  0  0
  1  4  1  0  0  0  0
  1  5  1  0  0  0  0
  2  6  1  0  0  0  0
  2  7  1  0  0  0  0
  2  8  1  0  0  0  0
  3  9  1  0  0  0  0
  3 10  1  0  0  0  0
  3 11  1  0  0  0  0
  6 12  1  0  0  0  0
  6 13  1  0  0  0  0
  6 14  1  0  0  0  0
  9 15  1  0  0  0  0
  9 16  1  0  0  0  0
  9 17  1  0  0  0  0
 12 18  1  0  0  0  0
 12 19  1  0  0  0  0
 12 20  1  0  0  0  0
 15 21  1  0  0  0  0
 15 22  1  0  0  0  0
 15 23  1  0  0  0  0
 18 24  1  0  0  0  0
 18 25  1  0  0  0  0
 18 26  1  0  0  0  0
M  END
>  <DRUGBANK_ID>
DB15997

>  <COMMON_NAME>
Perfluorooctane

>  <CAS_NUMBER>
307-34-6

>  <UNII>
6P60ZBK0QL

>  <SYNONYMS>
n-Perfluorooctane; Octadecafluorooctane

$$$$
