
 OpenBabel10282417223D

 55 60  0  0  0  0  0  0  0  0999 V2000
    9.8196   -0.9598   -5.0548 O   0  0  0  0  0  0  0  0  0  0  0  0
   10.0820    0.4081   -4.9034 C   0  0  0  0  0  0  0  0  0  0  0  0
    9.3029    1.0222   -3.8066 C   0  0  0  0  0  0  0  0  0  0  0  0
    8.4122    2.0562   -4.0984 C   0  0  0  0  0  0  0  0  0  0  0  0
    7.7506    2.7047   -3.0519 C   0  0  0  0  0  0  0  0  0  0  0  0
    7.8664    2.2364   -1.7423 C   0  0  0  0  0  0  0  0  0  0  0  0
    8.7380    1.1995   -1.4543 C   0  0  0  0  0  0  0  0  0  0  0  0
    9.4843    0.6375   -2.4782 C   0  0  0  0  0  0  0  0  0  0  0  0
   10.6894    1.1275   -5.6940 O   0  0  0  0  0  0  0  0  0  0  0  0
    7.7814   -5.0375   -3.9947 O   0  0  0  0  0  0  0  0  0  0  0  0
    8.2568   -3.2199   -3.8466 C   0  0  2  0  0  0  0  0  0  0  0  0
    9.0289   -3.9920   -4.7687 C   0  0  1  0  0  0  0  0  0  0  0  0
    7.7037   -6.3081   -5.2688 C   0  0  0  0  0  0  0  0  0  0  0  0
    7.3034   -9.4129   -7.5626 C   0  0  0  0  0  0  0  0  0  0  0  0
    7.0943   -7.9527   -7.4684 O   0  0  0  0  0  0  0  0  0  0  0  0
    7.7912   -6.8456   -6.7556 C   0  0  0  0  0  0  0  0  0  0  0  0
    8.4559   -6.3212   -7.9691 C   0  0  0  0  0  0  0  0  0  0  0  0
    9.7064   -5.8205   -7.9051 C   0  0  0  0  0  0  0  0  0  0  0  0
   10.1572   -6.0091   -6.6375 C   0  0  0  0  0  0  0  0  0  0  0  0
   11.5355   -5.4349   -6.2273 C   0  0  0  0  0  0  0  0  0  0  0  0
   11.5679   -5.3519   -4.7429 C   0  0  2  0  0  0  0  0  0  0  0  0
   11.0864   -3.9407   -4.4421 C   0  0  1  0  0  0  0  0  0  0  0  0
   11.8068   -2.6403   -4.0776 C   0  0  0  0  0  0  0  0  0  0  0  0
    9.5954   -1.9288   -3.8765 C   0  0  0  0  0  0  0  0  0  0  0  0
   10.7343   -2.0981   -3.1621 C   0  0  0  0  0  0  0  0  0  0  0  0
    7.9160   -2.9547   -2.8667 H   0  0  0  0  0  0  0  0  0  0  0  0
    8.9237   -5.8038   -5.5329 C   0  0  0  0  0  0  0  0  0  0  0  0
   11.7870   -4.2879   -3.5220 H   0  0  0  0  0  0  0  0  0  0  0  0
   11.5500   -6.3470   -4.2176 H   0  0  0  0  0  0  0  0  0  0  0  0
    7.7710   -3.5758   -5.7101 C   0  0  0  0  0  0  0  0  0  0  0  0
   10.2755   -5.0518   -4.2435 N   0  0  0  0  0  0  0  0  0  0  0  0
    9.5072   -3.8278   -5.6605 C   0  0  0  0  0  0  0  0  0  0  0  0
    9.9573   -4.8717   -2.5913 C   0  0  0  0  0  0  0  0  0  0  0  0
    8.2359    2.3671   -5.1261 H   0  0  0  0  0  0  0  0  0  0  0  0
    7.1533    3.5902   -3.2482 H   0  0  0  0  0  0  0  0  0  0  0  0
    7.2901    2.6905   -0.9422 H   0  0  0  0  0  0  0  0  0  0  0  0
    8.8779    0.8462   -0.4372 H   0  0  0  0  0  0  0  0  0  0  0  0
   10.2091   -0.1087   -2.1994 H   0  0  0  0  0  0  0  0  0  0  0  0
    8.2974   -9.9052   -7.6643 H   0  0  0  0  0  0  0  0  0  0  0  0
    6.7873   -9.7819   -6.6892 H   0  0  0  0  0  0  0  0  0  0  0  0
    6.7311   -9.8741   -8.4186 H   0  0  0  0  0  0  0  0  0  0  0  0
    7.7498   -5.9402   -8.7027 H   0  0  0  0  0  0  0  0  0  0  0  0
    9.8306   -4.8448   -8.4176 H   0  0  0  0  0  0  0  0  0  0  0  0
   12.4584   -5.8329   -6.6471 H   0  0  0  0  0  0  0  0  0  0  0  0
   11.6292   -4.3900   -6.5491 H   0  0  0  0  0  0  0  0  0  0  0  0
   12.8878   -2.8374   -3.8829 H   0  0  0  0  0  0  0  0  0  0  0  0
   11.9516   -1.8790   -4.8113 H   0  0  0  0  0  0  0  0  0  0  0  0
   10.5235   -2.5572   -2.2068 H   0  0  0  0  0  0  0  0  0  0  0  0
    6.9303   -4.3999   -5.6309 H   0  0  0  0  0  0  0  0  0  0  0  0
    6.8891   -3.1235   -4.9366 H   0  0  0  0  0  0  0  0  0  0  0  0
    9.7595   -4.0904   -6.6823 H   0  0  0  0  0  0  0  0  0  0  0  0
    9.9144   -2.8046   -6.0164 H   0  0  0  0  0  0  0  0  0  0  0  0
    9.2236   -4.1028   -2.3545 H   0  0  0  0  0  0  0  0  0  0  0  0
    9.5004   -5.6852   -2.0303 H   0  0  0  0  0  0  0  0  0  0  0  0
   10.8296   -4.4989   -2.0510 H   0  0  0  0  0  0  0  0  0  0  0  0
  1  2  1  0  0  0  0
  1 24  1  0  0  0  0
  2  9  2  0  0  0  0
  3  2  1  0  0  0  0
  3  8  1  0  0  0  0
  4  3  2  0  0  0  0
  4  5  1  0  0  0  0
  4 34  1  0  0  0  0
  5  6  2  0  0  0  0
  5 35  1  0  0  0  0
  6 36  1  0  0  0  0
  7  6  1  0  0  0  0
  7 37  1  0  0  0  0
  8  7  2  0  0  0  0
  8 38  1  0  0  0  0
 11 12  1  0  0  0  0
 11 24  1  0  0  0  0
 11 10  1  0  0  0  0
 11 26  1  6  0  0  0
 12 22  1  0  0  0  0
 12 27  1  1  0  0  0
 12 30  1  0  0  0  0
 13 10  1  0  0  0  0
 13 27  1  0  0  0  0
 14 39  1  0  0  0  0
 14 40  1  0  0  0  0
 14 41  1  0  0  0  0
 15 14  1  0  0  0  0
 15 16  1  0  0  0  0
 16 13  2  0  0  0  0
 17 18  2  0  0  0  0
 17 16  1  0  0  0  0
 17 42  1  0  0  0  0
 18 19  1  0  0  0  0
 18 43  1  0  0  0  0
 19 27  2  0  0  0  0
 20 19  1  0  0  0  0
 20 44  1  0  0  0  0
 20 45  1  0  0  0  0
 21 22  1  0  0  0  0
 21 20  1  0  0  0  0
 21 31  1  0  0  0  0
 21 29  1  6  0  0  0
 22 28  1  1  0  0  0
 23 22  1  0  0  0  0
 23 46  1  0  0  0  0
 23 47  1  0  0  0  0
 24 25  2  0  0  0  0
 25 23  1  0  0  0  0
 25 48  1  0  0  0  0
 30 49  1  0  0  0  0
 30 50  1  0  0  0  0
 31 32  1  0  0  0  0
 31 33  1  0  0  0  0
 32 30  1  0  0  0  0
 32 51  1  0  0  0  0
 32 52  1  0  0  0  0
 33 53  1  0  0  0  0
 33 54  1  0  0  0  0
 33 55  1  0  0  0  0
M  END
>  <DRUGBANK_ID>
DB15465

>  <COMMON_NAME>
Benzhydrocodone

>  <CAS_NUMBER>
1259440-61-3

>  <UNII>
75MS0AAZ9I

>  <SYNONYMS>
Benzhydrocodone

$$$$
