
 OpenBabel10282417203D

 11 10  0  0  0  0  0  0  0  0999 V2000
    0.9237    0.0706    0.0352 C   0  0  0  0  0  0  0  0  0  0  0  0
    0.4329    1.2232    0.8594 C   0  0  0  0  0  0  0  0  0  0  0  0
    0.4219    0.1947   -1.3729 C   0  0  0  0  0  0  0  0  0  0  0  0
    0.8615    2.3989    0.3482 F   0  0  0  0  0  0  0  0  0  0  0  0
   -0.9182    1.2593    0.8821 F   0  0  0  0  0  0  0  0  0  0  0  0
    0.8750   -0.8550   -2.1031 F   0  0  0  0  0  0  0  0  0  0  0  0
   -0.9231    0.1701   -1.4437 F   0  0  0  0  0  0  0  0  0  0  0  0
    0.8629    1.3137   -1.9794 F   0  0  0  0  0  0  0  0  0  0  0  0
    0.5697   -0.8724    0.4643 H   0  0  0  0  0  0  0  0  0  0  0  0
    2.0184    0.0553    0.0297 H   0  0  0  0  0  0  0  0  0  0  0  0
    0.7880    1.1520    1.8913 H   0  0  0  0  0  0  0  0  0  0  0  0
  1  9  1  0  0  0  0
  1 10  1  0  0  0  0
  2  1  1  0  0  0  0
  2 11  1  0  0  0  0
  3  1  1  0  0  0  0
  4  2  1  0  0  0  0
  5  2  1  0  0  0  0
  6  3  1  0  0  0  0
  7  3  1  0  0  0  0
  8  3  1  0  0  0  0
M  END
>  <DRUGBANK_ID>
DB13117

>  <COMMON_NAME>
Pentafluoropropane

>  <CAS_NUMBER>
460-73-1

>  <UNII>
TA9UOF49CY

>  <SYNONYMS>
1,1,1,3,3-pentafluoropropane

$$$$
