
 OpenBabel10282417203D

 42 43  0  0  0  0  0  0  0  0999 V2000
    1.1351    0.0832    0.1567 C   0  0  0  0  0  0  0  0  0  0  0  0
    0.5380    0.8691   -1.0195 C   0  0  3  0  0  0  0  0  0  0  0  0
    0.8731    0.1865   -2.3883 C   0  0  0  0  0  0  0  0  0  0  0  0
    0.3099   -1.2584   -2.7775 C   0  0  0  0  0  0  0  0  0  0  0  0
   -1.2225   -1.4663   -3.0447 C   0  0  0  0  0  0  0  0  0  0  0  0
   -1.8955   -2.6398   -2.6674 C   0  0  0  0  0  0  0  0  0  0  0  0
   -3.2857   -2.6666   -2.4648 C   0  0  0  0  0  0  0  0  0  0  0  0
   -4.0055   -1.4720   -2.5457 C   0  0  0  0  0  0  0  0  0  0  0  0
   -3.3643   -0.3353   -2.9735 C   0  0  0  0  0  0  0  0  0  0  0  0
   -2.0181   -0.3644   -3.3790 C   0  0  0  0  0  0  0  0  0  0  0  0
    1.0545   -1.8521   -3.9552 C   0  0  0  0  0  0  0  0  0  0  0  0
    1.7359   -1.0653   -4.8915 C   0  0  0  0  0  0  0  0  0  0  0  0
    2.1937   -1.6372   -6.0663 C   0  0  0  0  0  0  0  0  0  0  0  0
    1.9819   -2.9924   -6.3167 C   0  0  0  0  0  0  0  0  0  0  0  0
    1.3666   -3.7972   -5.3621 C   0  0  0  0  0  0  0  0  0  0  0  0
    0.9293   -3.2309   -4.1838 C   0  0  0  0  0  0  0  0  0  0  0  0
   -0.8739    1.1844   -0.7539 N   0  0  0  0  0  0  0  0  0  0  0  0
   -1.4067    2.1255   -1.7477 C   0  0  0  0  0  0  0  0  0  0  0  0
   -1.6021   -0.0322   -0.4019 C   0  0  0  0  0  0  0  0  0  0  0  0
    0.8481   -0.9727    0.1306 H   0  0  0  0  0  0  0  0  0  0  0  0
    0.7920    0.4976    1.1133 H   0  0  0  0  0  0  0  0  0  0  0  0
    2.2252    0.1315    0.1434 H   0  0  0  0  0  0  0  0  0  0  0  0
    1.0510    1.8432   -1.0115 H   0  0  0  0  0  0  0  0  0  0  0  0
    0.6565    0.8985   -3.1938 H   0  0  0  0  0  0  0  0  0  0  0  0
    1.9741    0.1216   -2.3845 H   0  0  0  0  0  0  0  0  0  0  0  0
    0.5641   -1.8857   -1.9088 H   0  0  0  0  0  0  0  0  0  0  0  0
   -1.3477   -3.5392   -2.3825 H   0  0  0  0  0  0  0  0  0  0  0  0
   -3.7735   -3.5632   -2.1166 H   0  0  0  0  0  0  0  0  0  0  0  0
   -5.0367   -1.4268   -2.1972 H   0  0  0  0  0  0  0  0  0  0  0  0
   -3.8494    0.6355   -2.8223 H   0  0  0  0  0  0  0  0  0  0  0  0
   -1.5307    0.5237   -3.7067 H   0  0  0  0  0  0  0  0  0  0  0  0
    1.8773    0.0020   -4.7474 H   0  0  0  0  0  0  0  0  0  0  0  0
    2.6827   -1.0091   -6.8059 H   0  0  0  0  0  0  0  0  0  0  0  0
    2.2823   -3.4223   -7.2620 H   0  0  0  0  0  0  0  0  0  0  0  0
    1.1885   -4.8522   -5.5423 H   0  0  0  0  0  0  0  0  0  0  0  0
    0.4102   -3.8646   -3.4692 H   0  0  0  0  0  0  0  0  0  0  0  0
   -1.0192    2.0208   -2.7663 H   0  0  0  0  0  0  0  0  0  0  0  0
   -2.4983    2.1517   -1.8101 H   0  0  0  0  0  0  0  0  0  0  0  0
   -1.0806    3.1424   -1.5078 H   0  0  0  0  0  0  0  0  0  0  0  0
   -1.2689   -0.8614   -0.9922 H   0  0  0  0  0  0  0  0  0  0  0  0
   -1.3304   -0.4282    0.5816 H   0  0  0  0  0  0  0  0  0  0  0  0
   -2.6892    0.0099   -0.4386 H   0  0  0  0  0  0  0  0  0  0  0  0
  1  2  1  0  0  0  0
  1 20  1  0  0  0  0
  1 21  1  0  0  0  0
  1 22  1  0  0  0  0
  2  3  1  0  0  0  0
  2 17  1  0  0  0  0
  2 23  1  0  0  0  0
  3  4  1  0  0  0  0
  3 24  1  0  0  0  0
  3 25  1  0  0  0  0
  4  5  1  0  0  0  0
  4 11  1  0  0  0  0
  4 26  1  0  0  0  0
  5  6  2  0  0  0  0
  5 10  1  0  0  0  0
  6  7  1  0  0  0  0
  6 27  1  0  0  0  0
  7  8  2  0  0  0  0
  7 28  1  0  0  0  0
  8  9  1  0  0  0  0
  8 29  1  0  0  0  0
  9 10  2  0  0  0  0
  9 30  1  0  0  0  0
 10 31  1  0  0  0  0
 11 12  2  0  0  0  0
 11 16  1  0  0  0  0
 12 13  1  0  0  0  0
 12 32  1  0  0  0  0
 13 14  2  0  0  0  0
 13 33  1  0  0  0  0
 14 15  1  0  0  0  0
 14 34  1  0  0  0  0
 15 16  2  0  0  0  0
 15 35  1  0  0  0  0
 16 36  1  0  0  0  0
 17 18  1  0  0  0  0
 17 19  1  0  0  0  0
 18 37  1  0  0  0  0
 18 38  1  0  0  0  0
 18 39  1  0  0  0  0
 19 40  1  0  0  0  0
 19 41  1  0  0  0  0
 19 42  1  0  0  0  0
M  END
>  <DRUGBANK_ID>
DB13361

>  <COMMON_NAME>
Trimethyldiphenylpropylamine

>  <CAS_NUMBER>
13957-55-6

>  <UNII>
P4X899446U

$$$$
