
 OpenBabel10282417193D

 54 54  0  0  0  0  0  0  0  0999 V2000
    0.8306    0.0216   -0.1737 C   0  0  0  0  0  0  0  0  0  0  0  0
    0.4024   -1.4321   -0.0603 C   0  0  0  0  0  0  0  0  0  0  0  0
    0.9421   -2.1143    1.2000 C   0  0  0  0  0  0  0  0  0  0  0  0
    0.4434   -1.4781    2.3919 O   0  0  0  0  0  0  0  0  0  0  0  0
    1.0183   -0.3184    2.8052 C   0  0  0  0  0  0  0  0  0  0  0  0
    2.0576    0.1567    2.3355 O   0  0  0  0  0  0  0  0  0  0  0  0
    0.3023    0.3393    3.9541 C   0  0  0  0  0  0  0  0  0  0  0  0
   -1.2071    0.3275    3.9307 C   0  0  0  0  0  0  0  0  0  0  0  0
   -1.8514   -0.9055    4.0137 C   0  0  0  0  0  0  0  0  0  0  0  0
   -3.2160   -0.9848    4.2046 C   0  0  0  0  0  0  0  0  0  0  0  0
   -3.9807    0.1647    4.3463 C   0  0  0  0  0  0  0  0  0  0  0  0
   -3.3595    1.4330    4.2791 C   0  0  0  0  0  0  0  0  0  0  0  0
   -1.9783    1.5019    4.0065 C   0  0  0  0  0  0  0  0  0  0  0  0
   -3.9492    2.6670    4.4791 O   0  0  0  0  0  0  0  0  0  0  0  0
   -5.3251    2.7104    4.8818 C   0  0  0  0  0  0  0  0  0  0  0  0
   -6.2062    2.4397    3.6858 C   0  0  0  0  0  0  0  0  0  0  0  0
   -5.3141    0.0655    4.6151 O   0  0  0  0  0  0  0  0  0  0  0  0
   -6.0584   -1.0372    4.1387 C   0  0  0  0  0  0  0  0  0  0  0  0
   -5.7908   -1.7606    2.7934 C   0  0  0  0  0  0  0  0  0  0  0  0
   -5.3883   -2.9312    2.8448 O   0  0  0  0  0  0  0  0  0  0  0  0
   -5.9937   -1.1292    1.5691 N   0  0  0  0  0  0  0  0  0  0  0  0
   -6.6386    0.1622    1.3551 C   0  0  0  0  0  0  0  0  0  0  0  0
   -5.6920    1.1770    0.7076 C   0  0  0  0  0  0  0  0  0  0  0  0
   -5.5986   -1.8509    0.3609 C   0  0  0  0  0  0  0  0  0  0  0  0
   -4.0943   -2.0718    0.2880 C   0  0  0  0  0  0  0  0  0  0  0  0
    0.3548    0.6231    0.6066 H   0  0  0  0  0  0  0  0  0  0  0  0
    0.5315    0.4681   -1.1221 H   0  0  0  0  0  0  0  0  0  0  0  0
    1.9197    0.1013   -0.0887 H   0  0  0  0  0  0  0  0  0  0  0  0
   -0.6932   -1.4679   -0.0521 H   0  0  0  0  0  0  0  0  0  0  0  0
    0.7478   -1.9767   -0.9457 H   0  0  0  0  0  0  0  0  0  0  0  0
    0.5752   -3.1497    1.2148 H   0  0  0  0  0  0  0  0  0  0  0  0
    2.0364   -2.1700    1.2130 H   0  0  0  0  0  0  0  0  0  0  0  0
    0.6347   -0.1683    4.8680 H   0  0  0  0  0  0  0  0  0  0  0  0
    0.6551    1.3748    4.0193 H   0  0  0  0  0  0  0  0  0  0  0  0
   -1.2942   -1.8369    3.9781 H   0  0  0  0  0  0  0  0  0  0  0  0
   -3.6460   -1.9736    4.3013 H   0  0  0  0  0  0  0  0  0  0  0  0
   -1.5041    2.4794    3.9102 H   0  0  0  0  0  0  0  0  0  0  0  0
   -5.5084    2.0424    5.7329 H   0  0  0  0  0  0  0  0  0  0  0  0
   -5.5613    3.7148    5.2435 H   0  0  0  0  0  0  0  0  0  0  0  0
   -5.8004    1.5836    3.1741 H   0  0  0  0  0  0  0  0  0  0  0  0
   -7.2447    2.2288    3.9527 H   0  0  0  0  0  0  0  0  0  0  0  0
   -6.1435    3.2191    2.9269 H   0  0  0  0  0  0  0  0  0  0  0  0
   -6.0034   -1.7993    4.9269 H   0  0  0  0  0  0  0  0  0  0  0  0
   -7.1094   -0.7277    4.1317 H   0  0  0  0  0  0  0  0  0  0  0  0
   -7.5111    0.0153    0.7092 H   0  0  0  0  0  0  0  0  0  0  0  0
   -7.0659    0.5110    2.2902 H   0  0  0  0  0  0  0  0  0  0  0  0
   -5.4369    0.8858   -0.3159 H   0  0  0  0  0  0  0  0  0  0  0  0
   -6.1542    2.1676    0.6545 H   0  0  0  0  0  0  0  0  0  0  0  0
   -4.7461    1.2632    1.2545 H   0  0  0  0  0  0  0  0  0  0  0  0
   -6.1368   -2.8035    0.3374 H   0  0  0  0  0  0  0  0  0  0  0  0
   -5.9183   -1.2847   -0.5221 H   0  0  0  0  0  0  0  0  0  0  0  0
   -3.7324   -2.6840    1.1184 H   0  0  0  0  0  0  0  0  0  0  0  0
   -3.8322   -2.5875   -0.6391 H   0  0  0  0  0  0  0  0  0  0  0  0
   -3.5544   -1.1200    0.3269 H   0  0  0  0  0  0  0  0  0  0  0  0
  1  2  1  0  0  0  0
  1 26  1  0  0  0  0
  1 27  1  0  0  0  0
  1 28  1  0  0  0  0
  2  3  1  0  0  0  0
  2 29  1  0  0  0  0
  2 30  1  0  0  0  0
  3  4  1  0  0  0  0
  3 31  1  0  0  0  0
  3 32  1  0  0  0  0
  4  5  1  0  0  0  0
  5  6  2  0  0  0  0
  5  7  1  0  0  0  0
  7  8  1  0  0  0  0
  7 33  1  0  0  0  0
  7 34  1  0  0  0  0
  8  9  2  0  0  0  0
  8 13  1  0  0  0  0
  9 10  1  0  0  0  0
  9 35  1  0  0  0  0
 10 11  2  0  0  0  0
 10 36  1  0  0  0  0
 11 12  1  0  0  0  0
 11 17  1  0  0  0  0
 12 13  2  0  0  0  0
 12 14  1  0  0  0  0
 13 37  1  0  0  0  0
 14 15  1  0  0  0  0
 15 16  1  0  0  0  0
 15 38  1  0  0  0  0
 15 39  1  0  0  0  0
 16 40  1  0  0  0  0
 16 41  1  0  0  0  0
 16 42  1  0  0  0  0
 17 18  1  0  0  0  0
 18 19  1  0  0  0  0
 18 43  1  0  0  0  0
 18 44  1  0  0  0  0
 19 20  2  0  0  0  0
 19 21  1  0  0  0  0
 21 22  1  0  0  0  0
 21 24  1  0  0  0  0
 22 23  1  0  0  0  0
 22 45  1  0  0  0  0
 22 46  1  0  0  0  0
 23 47  1  0  0  0  0
 23 48  1  0  0  0  0
 23 49  1  0  0  0  0
 24 25  1  0  0  0  0
 24 50  1  0  0  0  0
 24 51  1  0  0  0  0
 25 52  1  0  0  0  0
 25 53  1  0  0  0  0
 25 54  1  0  0  0  0
M  END
>  <DRUGBANK_ID>
DB12576

>  <COMMON_NAME>
AZD-3043

>  <CAS_NUMBER>
579494-66-9

>  <UNII>
372AB76LQL

$$$$
