1581
 OpenBabel10282417113D

 30 31  0  0  0  0  0  0  0  0999 V2000
    1.0971    0.0270   -0.0138 S   0  0  0  0  0  0  0  0  0  0  0  0
    0.7169   -0.6402   -1.2369 O   0  0  0  0  0  0  0  0  0  0  0  0
    0.5974   -0.4951    1.2539 O   0  0  0  0  0  0  0  0  0  0  0  0
    0.4815    1.5866   -0.1586 N   0  0  0  0  0  0  0  0  0  0  0  0
    1.0899    3.6209    0.8242 N   0  0  0  0  0  0  0  0  0  0  0  0
    2.1938    2.8342   -1.1304 N   0  0  0  0  0  0  0  0  0  0  0  0
    7.0821   -0.1700    0.0777 N   0  0  0  0  0  0  0  0  0  0  0  0
    2.8757   -0.0961    0.1112 C   0  0  0  0  0  0  0  0  0  0  0  0
    3.6612    1.0137    0.3356 C   0  0  0  0  0  0  0  0  0  0  0  0
    3.5338   -1.3222   -0.0202 C   0  0  0  0  0  0  0  0  0  0  0  0
    5.7038   -0.1796    0.0057 C   0  0  0  0  0  0  0  0  0  0  0  0
    5.0328    1.0171    0.1385 C   0  0  0  0  0  0  0  0  0  0  0  0
    4.9476   -1.3574   -0.0120 C   0  0  0  0  0  0  0  0  0  0  0  0
    1.2564    2.7481   -0.1854 C   0  0  0  0  0  0  0  0  0  0  0  0
    1.9939    4.6398    0.9020 C   0  0  0  0  0  0  0  0  0  0  0  0
    3.0858    4.7242    0.0591 C   0  0  0  0  0  0  0  0  0  0  0  0
    3.1267    3.7964   -0.9540 C   0  0  0  0  0  0  0  0  0  0  0  0
    1.7698    5.7181    1.9280 C   0  0  0  0  0  0  0  0  0  0  0  0
   -0.4166    1.7111    0.2937 H   0  0  0  0  0  0  0  0  0  0  0  0
    7.6110   -1.0229   -0.0178 H   0  0  0  0  0  0  0  0  0  0  0  0
    7.5775    0.7102    0.0005 H   0  0  0  0  0  0  0  0  0  0  0  0
    3.2332    1.9222    0.7025 H   0  0  0  0  0  0  0  0  0  0  0  0
    2.9744   -2.2550   -0.0708 H   0  0  0  0  0  0  0  0  0  0  0  0
    5.5609    1.9650    0.1609 H   0  0  0  0  0  0  0  0  0  0  0  0
    5.4572   -2.3170   -0.0186 H   0  0  0  0  0  0  0  0  0  0  0  0
    3.8709    5.4611    0.1820 H   0  0  0  0  0  0  0  0  0  0  0  0
    3.9904    3.7225   -1.6098 H   0  0  0  0  0  0  0  0  0  0  0  0
    0.8253    6.2279    1.7137 H   0  0  0  0  0  0  0  0  0  0  0  0
    1.7363    5.3000    2.9372 H   0  0  0  0  0  0  0  0  0  0  0  0
    2.5627    6.4771    1.9025 H   0  0  0  0  0  0  0  0  0  0  0  0
  1  2  2  0  0  0  0
  1  3  2  0  0  0  0
  1  4  1  0  0  0  0
  1  8  1  0  0  0  0
  4 14  1  0  0  0  0
  4 19  1  0  0  0  0
  5 14  1  0  0  0  0
  5 15  2  0  0  0  0
  6 14  2  0  0  0  0
  6 17  1  0  0  0  0
  7 11  1  0  0  0  0
  7 20  1  0  0  0  0
  7 21  1  0  0  0  0
  8  9  2  0  0  0  0
  8 10  1  0  0  0  0
  9 12  1  0  0  0  0
  9 22  1  0  0  0  0
 10 13  2  0  0  0  0
 10 23  1  0  0  0  0
 11 12  2  0  0  0  0
 11 13  1  0  0  0  0
 12 24  1  0  0  0  0
 13 25  1  0  0  0  0
 15 16  1  0  0  0  0
 15 18  1  0  0  0  0
 16 17  2  0  0  0  0
 16 26  1  0  0  0  0
 17 27  1  0  0  0  0
 18 28  1  0  0  0  0
 18 29  1  0  0  0  0
 18 30  1  0  0  0  0
M  END
>  <DRUGBANK_ID>
DB01581

>  <COMMON_NAME>
Sulfamerazine

>  <CAS_NUMBER>
127-79-7

>  <UNII>
UR1SAB295F

>  <SYNONYMS>
(p-Aminobenzolsulfonyl)-2-amino-4-methylpyrimidin; 2-(4-Aminobenzenesulfonamido)-4-methylpyrimidine; 2-(p-Aminobenzolsulfonamido)-4-methylpyrimidine; 2-(Sulfanilamido)-4-methylpyrimidine; 2-Sulfa-4-methylpyrimidine; 4-Amino-N-(4-methyl-2-pyrimidinyl)-benzenesulfonamide; N-(4-Methyl-2-pyrimidyl)sulfanilamide; N(1)-(4-Methyl-2-pyrimidinyl)sulfanilamide; Sulfamerazina; Sulfamerazine; Sulfamerazinum; Sulfamethyldiazine; Sulphamerazine

$$$$
