
 OpenBabel10282417223D

 63 68  0  0  0  0  0  0  0  0999 V2000
    2.4437    0.0013    0.0554 C   0  0  0  0  0  0  0  0  0  0  0  0
    1.0303   -0.0025   -0.2992 N   0  0  0  0  0  0  0  0  0  0  0  0
    0.3525   -1.2020    0.2494 C   0  0  0  0  0  0  0  0  0  0  0  0
   -1.1347   -1.2452   -0.1663 C   0  0  0  0  0  0  0  0  0  0  0  0
   -1.7863   -0.0094    0.2796 N   0  0  0  0  0  0  0  0  0  0  0  0
   -1.1539    1.2355   -0.1717 C   0  0  0  0  0  0  0  0  0  0  0  0
    0.3439    1.2006    0.2326 C   0  0  0  0  0  0  0  0  0  0  0  0
   -3.0624   -0.0311    0.7823 C   0  0  0  0  0  0  0  0  0  0  0  0
   -4.1448    0.5857    0.1789 C   0  0  0  0  0  0  0  0  0  0  0  0
   -5.3894    0.6380    0.7005 N   0  0  0  0  0  0  0  0  0  0  0  0
   -5.6315    0.0517    1.8924 C   0  0  0  0  0  0  0  0  0  0  0  0
   -6.9451    0.0402    2.3770 N   0  0  0  0  0  0  0  0  0  0  0  0
   -7.9355    0.7637    1.7073 C   0  0  0  0  0  0  0  0  0  0  0  0
   -8.4214    1.9028    2.2480 N   0  0  0  0  0  0  0  0  0  0  0  0
   -9.4061    2.4583    1.5006 C   0  0  0  0  0  0  0  0  0  0  0  0
   -9.8946    1.9728    0.2893 C   0  0  0  0  0  0  0  0  0  0  0  0
  -11.0191    2.7301   -0.0853 C   0  0  0  0  0  0  0  0  0  0  0  0
  -11.2960    3.6033    0.9486 C   0  0  0  0  0  0  0  0  0  0  0  0
  -10.4203    3.2532    2.0201 N   0  0  0  0  0  0  0  0  0  0  0  0
  -10.6534    3.2342    3.4599 C   0  0  0  0  0  0  0  0  0  0  0  0
  -10.7414    1.4036    3.9988 C   0  0  0  0  0  0  0  0  0  0  0  0
  -11.4975    0.7285    2.9530 C   0  0  0  0  0  0  0  0  0  0  0  0
  -12.7455    1.5821    3.0730 C   0  0  0  0  0  0  0  0  0  0  0  0
  -12.7364    2.6114    4.4737 C   0  0  0  0  0  0  0  0  0  0  0  0
  -11.2778    3.3394    4.8125 C   0  0  0  0  0  0  0  0  0  0  0  0
  -11.7468    4.6772    3.2397 C   0  0  0  0  0  0  0  0  0  0  0  0
  -12.8422    4.6372    2.2967 N   0  0  0  0  0  0  0  0  0  0  0  0
  -12.4973    4.4019    1.0232 C   0  0  0  0  0  0  0  0  0  0  0  0
  -13.2353    4.7310    0.0656 O   0  0  0  0  0  0  0  0  0  0  0  0
   -9.3291    0.7972   -0.1650 C   0  0  0  0  0  0  0  0  0  0  0  0
   -8.3891    0.1874    0.5744 N   0  0  0  0  0  0  0  0  0  0  0  0
   -4.6153   -0.6096    2.5696 C   0  0  0  0  0  0  0  0  0  0  0  0
   -3.3332   -0.6493    2.0046 C   0  0  0  0  0  0  0  0  0  0  0  0
    2.9403    0.8806   -0.3690 H   0  0  0  0  0  0  0  0  0  0  0  0
    2.6000    0.0009    1.1391 H   0  0  0  0  0  0  0  0  0  0  0  0
    2.9431   -0.8768   -0.3691 H   0  0  0  0  0  0  0  0  0  0  0  0
    0.8469   -2.1127   -0.1049 H   0  0  0  0  0  0  0  0  0  0  0  0
    0.4119   -1.1964    1.3472 H   0  0  0  0  0  0  0  0  0  0  0  0
   -1.2048   -1.3299   -1.2595 H   0  0  0  0  0  0  0  0  0  0  0  0
   -1.6071   -2.1360    0.2620 H   0  0  0  0  0  0  0  0  0  0  0  0
   -1.2441    1.3475   -1.2594 H   0  0  0  0  0  0  0  0  0  0  0  0
   -1.6196    2.1091    0.3003 H   0  0  0  0  0  0  0  0  0  0  0  0
    0.4118    1.2083    1.3304 H   0  0  0  0  0  0  0  0  0  0  0  0
    0.8337    2.1096   -0.1327 H   0  0  0  0  0  0  0  0  0  0  0  0
   -4.0574    1.0615   -0.7920 H   0  0  0  0  0  0  0  0  0  0  0  0
   -7.0678    0.0016    3.3722 H   0  0  0  0  0  0  0  0  0  0  0  0
  -11.6997    2.5397   -0.9110 H   0  0  0  0  0  0  0  0  0  0  0  0
   -9.8061    0.8838    4.2314 H   0  0  0  0  0  0  0  0  0  0  0  0
  -11.2756    1.1495    4.9646 H   0  0  0  0  0  0  0  0  0  0  0  0
  -11.5337   -0.3070    2.5855 H   0  0  0  0  0  0  0  0  0  0  0  0
  -10.7319    0.9458    2.2532 H   0  0  0  0  0  0  0  0  0  0  0  0
  -13.6386    0.9622    3.0608 H   0  0  0  0  0  0  0  0  0  0  0  0
  -12.8026    2.1532    2.1499 H   0  0  0  0  0  0  0  0  0  0  0  0
  -13.0479    2.0455    5.3532 H   0  0  0  0  0  0  0  0  0  0  0  0
  -13.5018    3.3697    4.2992 H   0  0  0  0  0  0  0  0  0  0  0  0
  -10.4680    2.8796    5.4299 H   0  0  0  0  0  0  0  0  0  0  0  0
  -11.2725    4.2987    5.3617 H   0  0  0  0  0  0  0  0  0  0  0  0
  -11.0885    5.4768    2.8698 H   0  0  0  0  0  0  0  0  0  0  0  0
  -12.1907    5.1757    4.1216 H   0  0  0  0  0  0  0  0  0  0  0  0
  -13.7837    4.9813    2.4906 H   0  0  0  0  0  0  0  0  0  0  0  0
   -9.6759    0.2686   -1.0416 H   0  0  0  0  0  0  0  0  0  0  0  0
   -4.7890   -1.0777    3.5319 H   0  0  0  0  0  0  0  0  0  0  0  0
   -2.5245   -1.1310    2.5476 H   0  0  0  0  0  0  0  0  0  0  0  0
  1  2  1  0  0  0  0
  1 34  1  0  0  0  0
  1 35  1  0  0  0  0
  1 36  1  0  0  0  0
  2  3  1  0  0  0  0
  2  7  1  0  0  0  0
  3  4  1  0  0  0  0
  3 37  1  0  0  0  0
  3 38  1  0  0  0  0
  4  5  1  0  0  0  0
  4 39  1  0  0  0  0
  4 40  1  0  0  0  0
  5  6  1  0  0  0  0
  5  8  1  0  0  0  0
  6  7  1  0  0  0  0
  6 41  1  0  0  0  0
  6 42  1  0  0  0  0
  7 43  1  0  0  0  0
  7 44  1  0  0  0  0
  8  9  2  0  0  0  0
  8 33  1  0  0  0  0
  9 10  1  0  0  0  0
  9 45  1  0  0  0  0
 10 11  2  0  0  0  0
 11 12  1  0  0  0  0
 11 32  1  0  0  0  0
 12 13  1  0  0  0  0
 12 46  1  0  0  0  0
 13 14  2  0  0  0  0
 13 31  1  0  0  0  0
 14 15  1  0  0  0  0
 15 16  2  0  0  0  0
 15 19  1  0  0  0  0
 16 17  1  0  0  0  0
 16 30  1  0  0  0  0
 17 18  2  0  0  0  0
 17 47  1  0  0  0  0
 18 19  1  0  0  0  0
 18 28  1  0  0  0  0
 19 20  1  0  0  0  0
 20 21  1  0  0  0  0
 20 25  1  0  0  0  0
 20 26  1  0  0  0  0
 21 22  1  0  0  0  0
 21 48  1  0  0  0  0
 21 49  1  0  0  0  0
 22 23  1  0  0  0  0
 22 50  1  0  0  0  0
 22 51  1  0  0  0  0
 23 24  1  0  0  0  0
 23 52  1  0  0  0  0
 23 53  1  0  0  0  0
 24 25  1  0  0  0  0
 24 54  1  0  0  0  0
 24 55  1  0  0  0  0
 25 56  1  0  0  0  0
 25 57  1  0  0  0  0
 26 27  1  0  0  0  0
 26 58  1  0  0  0  0
 26 59  1  0  0  0  0
 27 28  1  0  0  0  0
 27 60  1  0  0  0  0
 28 29  2  0  0  0  0
 30 31  2  0  0  0  0
 30 61  1  0  0  0  0
 32 33  2  0  0  0  0
 32 62  1  0  0  0  0
 33 63  1  0  0  0  0
M  END
>  <DRUGBANK_ID>
DB15442

>  <COMMON_NAME>
Trilaciclib

>  <CAS_NUMBER>
1374743-00-6

>  <UNII>
U6072DO9XG

>  <SYNONYMS>
Trilaciclib

$$$$
