
 OpenBabel10282417223D

100104  0  0  1  0  0  0  0  0999 V2000
    3.3647    1.1544   -0.1617 C   0  0  0  0  0  0  0  0  0  0  0  0
    2.0624    0.4448   -0.4219 C   0  0  0  0  0  0  0  0  0  0  0  0
    1.0044    1.2233   -0.7271 N   0  0  0  0  0  0  0  0  0  0  0  0
   -0.2724    0.7612   -0.6381 C   0  0  0  0  0  0  0  0  0  0  0  0
   -0.5128   -0.6181   -0.4598 C   0  0  0  0  0  0  0  0  0  0  0  0
   -1.8481   -1.0722   -0.2780 C   0  0  0  0  0  0  0  0  0  0  0  0
   -2.9243   -0.1873   -0.1814 C   0  0  0  0  0  0  0  0  0  0  0  0
   -2.6849    1.1759   -0.2347 C   0  0  0  0  0  0  0  0  0  0  0  0
   -1.3728    1.6431   -0.4385 C   0  0  0  0  0  0  0  0  0  0  0  0
   -1.2715    2.9882   -0.1167 O   0  0  0  0  0  0  0  0  0  0  0  0
    0.0239    3.5179    0.1654 C   0  0  0  0  0  0  0  0  0  0  0  0
    0.6492    3.1561    1.5227 C   0  0  0  0  0  0  0  0  0  0  0  0
    0.6566    1.8295    2.0748 C   0  0  0  0  0  0  0  0  0  0  0  0
   -0.7166    0.7780    2.3219 Cl  0  0  0  0  0  0  0  0  0  0  0  0
    1.5496    1.4448    3.0312 C   0  0  0  0  0  0  0  0  0  0  0  0
    1.8582    2.4756    3.8563 C   0  0  0  0  0  0  0  0  0  0  0  0
    1.9088    3.7971    3.4652 C   0  0  0  0  0  0  0  0  0  0  0  0
    1.4021    4.1387    2.2236 C   0  0  0  0  0  0  0  0  0  0  0  0
    1.5651    5.7607    1.6578 Cl  0  0  0  0  0  0  0  0  0  0  0  0
    2.7826    4.8780    4.5826 S   0  0  0  0  0  0  0  0  0  0  0  0
    3.8571    5.5205    3.8874 O   0  0  0  0  0  0  0  0  0  0  0  0
    1.7569    5.6365    5.2905 O   0  0  0  0  0  0  0  0  0  0  0  0
    3.5264    3.8136    5.7671 N   0  0  0  0  0  0  0  0  0  0  0  0
    4.5644    2.7441    5.3586 C   0  0  0  0  0  0  0  0  0  0  0  0
    4.9423    2.9807    3.9024 C   0  0  0  0  0  0  0  0  0  0  0  0
    5.4192    1.7845    3.1816 C   0  0  0  0  0  0  0  0  0  0  0  0
    4.6712    0.6223    3.4769 O   0  0  0  0  0  0  0  0  0  0  0  0
    4.6221    0.2888    4.8625 C   0  0  0  0  0  0  0  0  0  0  0  0
    3.9698    1.3303    5.7072 C   0  0  0  0  0  0  0  0  0  0  0  0
    5.8803    2.8481    6.2904 C   0  0  0  0  0  0  0  0  0  0  0  0
    5.8473    3.5733    7.2909 O   0  0  0  0  0  0  0  0  0  0  0  0
    6.9334    1.9178    6.1314 N   0  0  0  0  0  0  0  0  0  0  0  0
    7.8510    1.7661    4.9917 C   0  0  0  0  0  0  0  0  0  0  0  0
    7.7525    0.2944    4.4405 C   0  0  0  0  0  0  0  0  0  0  0  0
    8.1088   -0.6390    5.5019 N   0  0  0  0  0  0  0  0  0  0  0  0
    7.3489   -0.4909    6.7575 C   0  0  0  0  0  0  0  0  0  0  0  0
    7.3008    0.9998    7.2266 C   0  0  0  0  0  0  0  0  0  0  0  0
    9.0381   -1.6364    5.3449 C   0  0  0  0  0  0  0  0  0  0  0  0
    9.3714   -2.3970    6.2531 O   0  0  0  0  0  0  0  0  0  0  0  0
    9.8044   -1.6568    4.0186 C   0  0  1  0  0  0  0  0  0  0  0  0
    8.9560   -2.0402    2.8812 N   0  0  0  0  0  0  0  0  0  0  0  0
   10.4900   -0.2844    3.8286 C   0  0  0  0  0  0  0  0  0  0  0  0
   11.5387   -0.0077    4.8831 C   0  0  0  0  0  0  0  0  0  0  0  0
   12.6264   -1.0610    4.9621 C   0  0  0  0  0  0  0  0  0  0  0  0
   13.4409   -1.1743    3.6568 N   0  3  0  0  0  0  0  0  0  0  0  0
   14.0966    0.1688    3.3628 C   0  0  0  0  0  0  0  0  0  0  0  0
   14.5108   -2.2339    3.8790 C   0  0  0  0  0  0  0  0  0  0  0  0
   12.6848   -1.6488    2.4215 C   0  0  0  0  0  0  0  0  0  0  0  0
    0.6204   -1.4616   -0.2804 C   0  0  0  0  0  0  0  0  0  0  0  0
    0.4677   -2.9368   -0.0271 C   0  0  0  0  0  0  0  0  0  0  0  0
    1.9083   -0.9060   -0.2080 C   0  0  0  0  0  0  0  0  0  0  0  0
    3.5574    1.8764   -0.9590 H   0  0  0  0  0  0  0  0  0  0  0  0
    3.3459    1.7134    0.7832 H   0  0  0  0  0  0  0  0  0  0  0  0
    4.2050    0.4576   -0.1033 H   0  0  0  0  0  0  0  0  0  0  0  0
   -2.0525   -2.1231   -0.0849 H   0  0  0  0  0  0  0  0  0  0  0  0
   -3.9231   -0.5580    0.0376 H   0  0  0  0  0  0  0  0  0  0  0  0
   -3.4846    1.8754    0.0107 H   0  0  0  0  0  0  0  0  0  0  0  0
    0.7006    3.3780   -0.6888 H   0  0  0  0  0  0  0  0  0  0  0  0
   -0.1258    4.6015    0.1263 H   0  0  0  0  0  0  0  0  0  0  0  0
    1.6212    0.4115    3.3724 H   0  0  0  0  0  0  0  0  0  0  0  0
    1.9877    2.2812    4.8913 H   0  0  0  0  0  0  0  0  0  0  0  0
    3.8628    4.3885    6.5520 H   0  0  0  0  0  0  0  0  0  0  0  0
    4.1131    3.2339    3.2653 H   0  0  0  0  0  0  0  0  0  0  0  0
    5.6360    3.8257    3.8327 H   0  0  0  0  0  0  0  0  0  0  0  0
    5.5549    1.9590    2.1124 H   0  0  0  0  0  0  0  0  0  0  0  0
    6.4114    1.6540    3.4801 H   0  0  0  0  0  0  0  0  0  0  0  0
    5.5891    0.2408    5.2882 H   0  0  0  0  0  0  0  0  0  0  0  0
    4.2132   -0.7156    4.9877 H   0  0  0  0  0  0  0  0  0  0  0  0
    4.0514    1.1241    6.7839 H   0  0  0  0  0  0  0  0  0  0  0  0
    2.9299    1.0911    5.5449 H   0  0  0  0  0  0  0  0  0  0  0  0
    7.7441    2.5747    4.2584 H   0  0  0  0  0  0  0  0  0  0  0  0
    8.8736    1.9256    5.3652 H   0  0  0  0  0  0  0  0  0  0  0  0
    6.8076   -0.0998    4.0977 H   0  0  0  0  0  0  0  0  0  0  0  0
    8.2366    0.2097    3.4680 H   0  0  0  0  0  0  0  0  0  0  0  0
    6.3449   -0.8905    6.5731 H   0  0  0  0  0  0  0  0  0  0  0  0
    7.7558   -1.1348    7.5382 H   0  0  0  0  0  0  0  0  0  0  0  0
    8.3149    1.2774    7.5356 H   0  0  0  0  0  0  0  0  0  0  0  0
    6.6171    1.1206    8.0669 H   0  0  0  0  0  0  0  0  0  0  0  0
   10.5349   -2.4638    4.1099 H   0  0  0  0  0  0  0  0  0  0  0  0
    9.5050   -2.1609    2.0315 H   0  0  0  0  0  0  0  0  0  0  0  0
    8.5426   -2.9604    3.0670 H   0  0  0  0  0  0  0  0  0  0  0  0
   10.7731   -0.1215    2.7979 H   0  0  0  0  0  0  0  0  0  0  0  0
    9.8737    0.5960    3.9250 H   0  0  0  0  0  0  0  0  0  0  0  0
   11.9447    0.9956    4.7191 H   0  0  0  0  0  0  0  0  0  0  0  0
   11.0394    0.0713    5.8589 H   0  0  0  0  0  0  0  0  0  0  0  0
   13.3235   -0.7884    5.7642 H   0  0  0  0  0  0  0  0  0  0  0  0
   12.2304   -2.0517    5.2084 H   0  0  0  0  0  0  0  0  0  0  0  0
   14.7203    0.4396    4.2187 H   0  0  0  0  0  0  0  0  0  0  0  0
   14.6810    0.0721    2.4482 H   0  0  0  0  0  0  0  0  0  0  0  0
   13.3171    0.9204    3.2066 H   0  0  0  0  0  0  0  0  0  0  0  0
   14.0030   -3.1821    4.0876 H   0  0  0  0  0  0  0  0  0  0  0  0
   15.0928   -2.3122    2.9570 H   0  0  0  0  0  0  0  0  0  0  0  0
   15.1405   -1.9290    4.7149 H   0  0  0  0  0  0  0  0  0  0  0  0
   12.0819   -2.5207    2.6830 H   0  0  0  0  0  0  0  0  0  0  0  0
   12.1125   -0.8338    2.0011 H   0  0  0  0  0  0  0  0  0  0  0  0
   13.3937   -1.8988    1.6324 H   0  0  0  0  0  0  0  0  0  0  0  0
   -0.0346   -3.1237    0.9286 H   0  0  0  0  0  0  0  0  0  0  0  0
   -0.1070   -3.3856   -0.8417 H   0  0  0  0  0  0  0  0  0  0  0  0
    1.4396   -3.4398    0.0054 H   0  0  0  0  0  0  0  0  0  0  0  0
    2.7707   -1.5173    0.0364 H   0  0  0  0  0  0  0  0  0  0  0  0
  1  2  1  0  0  0  0
  1 52  1  0  0  0  0
  1 53  1  0  0  0  0
  1 54  1  0  0  0  0
  2  3  2  0  0  0  0
  2 51  1  0  0  0  0
  3  4  1  0  0  0  0
  4  5  2  0  0  0  0
  4  9  1  0  0  0  0
  5  6  1  0  0  0  0
  5 49  1  0  0  0  0
  6  7  2  0  0  0  0
  6 55  1  0  0  0  0
  7  8  1  0  0  0  0
  7 56  1  0  0  0  0
  8  9  2  0  0  0  0
  8 57  1  0  0  0  0
  9 10  1  0  0  0  0
 10 11  1  0  0  0  0
 11 12  1  0  0  0  0
 11 58  1  0  0  0  0
 11 59  1  0  0  0  0
 12 13  2  0  0  0  0
 12 18  1  0  0  0  0
 13 14  1  0  0  0  0
 13 15  1  0  0  0  0
 15 16  2  0  0  0  0
 15 60  1  0  0  0  0
 16 17  1  0  0  0  0
 16 61  1  0  0  0  0
 17 18  2  0  0  0  0
 17 20  1  0  0  0  0
 18 19  1  0  0  0  0
 20 21  2  0  0  0  0
 20 22  2  0  0  0  0
 20 23  1  0  0  0  0
 23 24  1  0  0  0  0
 23 62  1  0  0  0  0
 24 25  1  0  0  0  0
 24 29  1  0  0  0  0
 24 30  1  0  0  0  0
 25 26  1  0  0  0  0
 25 63  1  0  0  0  0
 25 64  1  0  0  0  0
 26 27  1  0  0  0  0
 26 65  1  0  0  0  0
 26 66  1  0  0  0  0
 27 28  1  0  0  0  0
 28 29  1  0  0  0  0
 28 67  1  0  0  0  0
 28 68  1  0  0  0  0
 29 69  1  0  0  0  0
 29 70  1  0  0  0  0
 30 31  2  0  0  0  0
 30 32  1  0  0  0  0
 32 33  1  0  0  0  0
 32 37  1  0  0  0  0
 33 34  1  0  0  0  0
 33 71  1  0  0  0  0
 33 72  1  0  0  0  0
 34 35  1  0  0  0  0
 34 73  1  0  0  0  0
 34 74  1  0  0  0  0
 35 36  1  0  0  0  0
 35 38  1  0  0  0  0
 36 37  1  0  0  0  0
 36 75  1  0  0  0  0
 36 76  1  0  0  0  0
 37 77  1  0  0  0  0
 37 78  1  0  0  0  0
 38 39  2  0  0  0  0
 40 38  1  0  0  0  0
 40 41  1  0  0  0  0
 40 42  1  0  0  0  0
 40 79  1  1  0  0  0
 41 80  1  0  0  0  0
 41 81  1  0  0  0  0
 42 43  1  0  0  0  0
 42 82  1  0  0  0  0
 42 83  1  0  0  0  0
 43 44  1  0  0  0  0
 43 84  1  0  0  0  0
 43 85  1  0  0  0  0
 44 45  1  0  0  0  0
 44 86  1  0  0  0  0
 44 87  1  0  0  0  0
 45 46  1  0  0  0  0
 45 47  1  0  0  0  0
 45 48  1  0  0  0  0
 46 88  1  0  0  0  0
 46 89  1  0  0  0  0
 46 90  1  0  0  0  0
 47 91  1  0  0  0  0
 47 92  1  0  0  0  0
 47 93  1  0  0  0  0
 48 94  1  0  0  0  0
 48 95  1  0  0  0  0
 48 96  1  0  0  0  0
 49 50  1  0  0  0  0
 49 51  2  0  0  0  0
 50 97  1  0  0  0  0
 50 98  1  0  0  0  0
 50 99  1  0  0  0  0
 51100  1  0  0  0  0
M  CHG  1  45   1
M  END
>  <DRUGBANK_ID>
DB15646

>  <COMMON_NAME>
Fasitibant

>  <CAS_NUMBER>
869939-83-3

>  <UNII>
0WL827Z7AE

>  <SYNONYMS>
1-piperazinepentanaminium, .delta.-amino-4-((4-(((2,4-dichloro-3-(((2,4-dimethyl-8-quinolinyl)oxy)methyl)phenyl)sulfonyl)amino)tetrahydro-2h-pyran-4-yl)carbonyl)-n,n,n-trimethyl-.epsilon.-oxo-, (.delta.s)-; Fasitibant cation; Fasitibant ion

$$$$
