
 OpenBabel10282417233D

 39 40  0  0  1  0  0  0  0  0999 V2000
  -11.6959    5.4847    6.4453 O   0  0  0  0  0  0  0  0  0  0  0  0
  -11.6005    4.1858    6.0278 C   0  0  0  0  0  0  0  0  0  0  0  0
  -12.2543    3.2411    6.8190 C   0  0  0  0  0  0  0  0  0  0  0  0
  -12.9660    3.5468    7.9340 O   0  0  0  0  0  0  0  0  0  0  0  0
  -12.1956    1.9311    6.4824 C   0  0  0  0  0  0  0  0  0  0  0  0
  -11.4892    1.5951    5.3468 C   0  0  0  0  0  0  0  0  0  0  0  0
  -10.8171    2.4750    4.4800 C   0  0  0  0  0  0  0  0  0  0  0  0
  -10.0841    2.0154    3.2386 C   0  0  0  0  0  0  0  0  0  0  0  0
   -9.9600    0.7409    2.7645 C   0  0  0  0  0  0  0  0  0  0  0  0
   -9.1894    0.4340    1.5359 C   0  0  0  0  0  0  0  0  0  0  0  0
   -9.0951   -0.8785    1.1258 N   0  0  0  0  0  0  0  0  0  0  0  0
   -8.3428   -1.2918   -0.0718 C   0  0  2  0  0  0  0  0  0  0  0  0
   -6.9071   -0.7555   -0.0695 C   0  0  0  0  0  0  0  0  0  0  0  0
   -9.0989   -0.9579   -1.3467 C   0  0  0  0  0  0  0  0  0  0  0  0
   -9.8142   -1.9380   -2.0508 C   0  0  0  0  0  0  0  0  0  0  0  0
  -10.5763   -1.5877   -3.1712 C   0  0  0  0  0  0  0  0  0  0  0  0
  -10.6571   -0.2569   -3.5809 C   0  0  0  0  0  0  0  0  0  0  0  0
   -9.9610    0.7230   -2.8880 C   0  0  0  0  0  0  0  0  0  0  0  0
   -9.1497    0.3632   -1.8190 C   0  0  0  0  0  0  0  0  0  0  0  0
   -8.6397    1.3708    0.9485 O   0  0  0  0  0  0  0  0  0  0  0  0
  -10.6385   -0.3396    3.5905 C   0  0  0  0  0  0  0  0  0  0  0  0
  -11.2015   -1.2360    4.2758 N   0  0  0  0  0  0  0  0  0  0  0  0
  -10.8823    3.8204    4.8627 C   0  0  0  0  0  0  0  0  0  0  0  0
  -11.1961    6.0397    5.8260 H   0  0  0  0  0  0  0  0  0  0  0  0
  -12.9112    4.5131    8.0125 H   0  0  0  0  0  0  0  0  0  0  0  0
  -12.6753    1.1458    7.0584 H   0  0  0  0  0  0  0  0  0  0  0  0
  -11.5492    0.5415    5.2506 H   0  0  0  0  0  0  0  0  0  0  0  0
   -9.6074    2.8169    2.6700 H   0  0  0  0  0  0  0  0  0  0  0  0
   -9.5866   -1.6192    1.6135 H   0  0  0  0  0  0  0  0  0  0  0  0
   -8.2604   -2.3863   -0.0010 H   0  0  0  0  0  0  0  0  0  0  0  0
   -6.3195   -1.2173   -0.8684 H   0  0  0  0  0  0  0  0  0  0  0  0
   -6.8543    0.3251   -0.2309 H   0  0  0  0  0  0  0  0  0  0  0  0
   -6.4237   -0.9569    0.8915 H   0  0  0  0  0  0  0  0  0  0  0  0
   -9.7871   -2.9801   -1.7398 H   0  0  0  0  0  0  0  0  0  0  0  0
  -11.1273   -2.3499   -3.7160 H   0  0  0  0  0  0  0  0  0  0  0  0
  -11.2582    0.0213   -4.4410 H   0  0  0  0  0  0  0  0  0  0  0  0
  -10.0483    1.7712   -3.1588 H   0  0  0  0  0  0  0  0  0  0  0  0
   -8.5707    1.1476   -1.3400 H   0  0  0  0  0  0  0  0  0  0  0  0
  -10.3847    4.5806    4.2671 H   0  0  0  0  0  0  0  0  0  0  0  0
  1  2  1  0  0  0  0
  1 24  1  0  0  0  0
  2  3  2  0  0  0  0
  2 23  1  0  0  0  0
  3  4  1  0  0  0  0
  3  5  1  0  0  0  0
  4 25  1  0  0  0  0
  5  6  2  0  0  0  0
  5 26  1  0  0  0  0
  6  7  1  0  0  0  0
  6 27  1  0  0  0  0
  7  8  1  0  0  0  0
  7 23  2  0  0  0  0
  8  9  2  0  0  0  0
  8 28  1  0  0  0  0
  9 10  1  0  0  0  0
  9 21  1  0  0  0  0
 10 11  1  0  0  0  0
 10 20  2  0  0  0  0
 11 29  1  0  0  0  0
 12 14  1  0  0  0  0
 12 30  1  1  0  0  0
 12 13  1  0  0  0  0
 12 11  1  0  0  0  0
 13 31  1  0  0  0  0
 13 32  1  0  0  0  0
 13 33  1  0  0  0  0
 14 15  2  0  0  0  0
 14 19  1  0  0  0  0
 15 16  1  0  0  0  0
 15 34  1  0  0  0  0
 16 17  2  0  0  0  0
 16 35  1  0  0  0  0
 17 18  1  0  0  0  0
 17 36  1  0  0  0  0
 18 19  2  0  0  0  0
 18 37  1  0  0  0  0
 19 38  1  0  0  0  0
 21 22  3  0  0  0  0
 23 39  1  0  0  0  0
M  END
>  <DRUGBANK_ID>
DB16762

>  <COMMON_NAME>
Tyrphostin B44

>  <CAS_NUMBER>
133550-32-0

>  <SYNONYMS>
AG 527; AG527; Tyrphostin AG 527; Tyrphostin B-44; Tyrphostin B44, (-) enantiomer; Tyrphostin B44(-)

$$$$
