
 OpenBabel10282417203D

145153  0  0  1  0  0  0  0  0999 V2000
   -0.1968   -2.5835    7.2839 C   0  0  0  0  0  0  0  0  0  0  0  0
   -3.6108    2.0350    4.8418 C   0  0  0  0  0  0  0  0  0  0  0  0
   -5.9551   -1.2733   -0.5085 C   0  0  0  0  0  0  0  0  0  0  0  0
   -2.1716   -5.8851    0.9672 C   0  0  0  0  0  0  0  0  0  0  0  0
   -3.5996   -6.1002    7.9196 C   0  0  0  0  0  0  0  0  0  0  0  0
   -5.0737   -4.4697    9.5197 C   0  0  0  0  0  0  0  0  0  0  0  0
   -4.2671   -5.0747    4.2191 C   0  0  0  0  0  0  0  0  0  0  0  0
   -5.8403   -5.9508    4.2895 C   0  0  0  0  0  0  0  0  0  0  0  0
    0.0090   -5.4076    6.3518 C   0  0  0  0  0  0  0  0  0  0  0  0
   -7.9326   -3.3418    7.1817 C   0  0  0  0  0  0  0  0  0  0  0  0
   -1.3301   -6.2084    7.1905 C   0  0  0  0  0  0  0  0  0  0  0  0
   -8.1036   -4.8897    6.9223 C   0  0  0  0  0  0  0  0  0  0  0  0
   -4.9329   -1.3199    8.8997 C   0  0  0  0  0  0  0  0  0  0  0  0
   -2.1268   -4.7705    5.6831 C   0  0  0  0  0  0  0  0  0  0  0  0
   -5.5951   -4.2999    5.8431 C   0  0  0  0  0  0  0  0  0  0  0  0
   -1.9819   -2.6804    4.4495 C   0  0  0  0  0  0  0  0  0  0  0  0
   -3.0727   -0.4910    3.7271 C   0  0  0  0  0  0  0  0  0  0  0  0
   -4.0478   -1.9623    1.7105 C   0  0  0  0  0  0  0  0  0  0  0  0
   -0.7450   -6.5379   -0.7612 C   0  0  0  0  0  0  0  0  0  0  0  0
   -6.9306   -0.4329    8.3969 C   0  0  0  0  0  0  0  0  0  0  0  0
    0.0461   -1.6328    6.1083 C   0  0  2  0  0  0  0  0  0  0  0  0
   -3.5244    1.7927    3.3176 C   0  0  2  0  0  0  0  0  0  0  0  0
   -4.5772   -1.7813   -0.8786 C   0  0  2  0  0  0  0  0  0  0  0  0
   -3.2816   -5.8910    1.9200 C   0  0  0  0  0  0  0  0  0  0  0  0
   -6.1941   -1.6964    8.5779 C   0  0  0  0  0  0  0  0  0  0  0  0
   -3.0276   -5.7566    5.1646 C   0  0  2  0  0  0  0  0  0  0  0  0
   -0.8091   -5.1608    5.1858 C   0  0  1  0  0  0  0  0  0  0  0  0
   -6.9137   -3.1219    8.3688 C   0  0  2  0  0  0  0  0  0  0  0  0
   -6.1903   -6.4549    5.9732 C   0  0  2  0  0  0  0  0  0  0  0  0
   -4.7999   -6.0560    6.0579 C   0  0  1  0  0  0  0  0  0  0  0  0
   -2.3573   -1.9086    5.7887 C   0  0  1  0  0  0  0  0  0  0  0  0
   -4.6120   -0.2763    3.8065 C   0  0  1  0  0  0  0  0  0  0  0  0
   -4.6483   -3.2808    1.1395 C   0  0  1  0  0  0  0  0  0  0  0  0
    0.1689   -5.0302   -0.0668 C   0  0  2  0  0  0  0  0  0  0  0  0
   -5.1093   -3.8685    7.1002 C   0  0  2  0  0  0  0  0  0  0  0  0
   -4.6786    0.0990    8.5039 C   0  0  0  0  0  0  0  0  0  0  0  0
   -0.5633   -3.0205    4.3000 C   0  0  1  0  0  0  0  0  0  0  0  0
   -1.8145    0.2550    4.0017 C   0  0  1  0  0  0  0  0  0  0  0  0
   -3.8209   -0.5522    1.0036 C   0  0  1  0  0  0  0  0  0  0  0  0
    0.1490   -4.6352    1.6363 C   0  0  2  0  0  0  0  0  0  0  0  0
   -1.2899   -3.7428    1.7952 C   0  0  1  0  0  0  0  0  0  0  0  0
   -1.1916   -2.5851    0.9020 C   0  0  2  0  0  0  0  0  0  0  0  0
   -1.3085   -0.8664    6.0704 C   0  0  2  0  0  0  0  0  0  0  0  0
   -4.7217    0.8146    2.8342 C   0  0  2  0  0  0  0  0  0  0  0  0
   -4.2480   -3.1741   -0.3666 C   0  0  2  0  0  0  0  0  0  0  0  0
   -1.3817   -2.9669   -0.5477 C   0  0  1  0  0  0  0  0  0  0  0  0
   -3.1605   -6.4890    6.5492 C   0  0  2  0  0  0  0  0  0  0  0  0
   -5.9574   -4.3325    8.1799 C   0  0  2  0  0  0  0  0  0  0  0  0
   -6.8126   -5.6007    7.3670 C   0  0  2  0  0  0  0  0  0  0  0  0
   -2.2920   -7.2094   -0.8390 O   0  0  0  0  0  0  0  0  0  0  0  0
   -3.2631   -6.9228    2.6807 O   0  0  0  0  0  0  0  0  0  0  0  0
   -3.7046   -1.4444    5.8752 O   0  0  0  0  0  0  0  0  0  0  0  0
   -5.5708   -1.3821    3.7813 O   0  0  0  0  0  0  0  0  0  0  0  0
   -4.3725   -2.7893    7.3102 O   0  0  0  0  0  0  0  0  0  0  0  0
   -3.6609    0.5550    8.2418 O   0  0  0  0  0  0  0  0  0  0  0  0
    1.2816   -3.9362    2.2168 O   0  0  0  0  0  0  0  0  0  0  0  0
   -2.6262   -3.8802    1.4030 O   0  0  0  0  0  0  0  0  0  0  0  0
   -0.5381   -1.4510    1.3609 O   0  0  0  0  0  0  0  0  0  0  0  0
   -7.0519   -6.6082    8.3327 O   0  0  0  0  0  0  0  0  0  0  0  0
   -5.9663    0.6212    8.3488 O   0  0  0  0  0  0  0  0  0  0  0  0
    0.4007   -2.2739    4.9105 O   0  0  0  0  0  0  0  0  0  0  0  0
   -2.1155    1.3859    3.1834 O   0  0  0  0  0  0  0  0  0  0  0  0
   -3.6938   -0.7737   -0.4019 O   0  0  0  0  0  0  0  0  0  0  0  0
   -4.3542   -4.9063    1.7809 O   0  0  0  0  0  0  0  0  0  0  0  0
   -0.2644   -4.3720    4.2174 O   0  0  0  0  0  0  0  0  0  0  0  0
   -0.2235   -3.8112   -0.8939 O   0  0  0  0  0  0  0  0  0  0  0  0
   -1.4539    0.3597    5.3570 O   0  0  0  0  0  0  0  0  0  0  0  0
   -4.7694    0.4168    1.4459 O   0  0  0  0  0  0  0  0  0  0  0  0
   -2.8168   -3.5928   -0.8924 O   0  0  0  0  0  0  0  0  0  0  0  0
    0.9054   -0.9977    6.2298 H   0  0  0  0  0  0  0  0  0  0  0  0
   -3.6002    2.6563    2.6786 H   0  0  0  0  0  0  0  0  0  0  0  0
   -4.4238   -1.8529   -1.9506 H   0  0  0  0  0  0  0  0  0  0  0  0
   -2.5426   -6.4424    4.5092 H   0  0  0  0  0  0  0  0  0  0  0  0
   -0.7567   -6.1960    4.8099 H   0  0  0  0  0  0  0  0  0  0  0  0
   -7.4542   -3.3105    9.2932 H   0  0  0  0  0  0  0  0  0  0  0  0
   -6.5194   -7.4985    5.9275 H   0  0  0  0  0  0  0  0  0  0  0  0
   -4.6468   -6.9475    5.3673 H   0  0  0  0  0  0  0  0  0  0  0  0
   -2.3889   -2.5354    6.6648 H   0  0  0  0  0  0  0  0  0  0  0  0
   -4.9148    0.0392    4.7953 H   0  0  0  0  0  0  0  0  0  0  0  0
   -5.7066   -3.2061    1.4323 H   0  0  0  0  0  0  0  0  0  0  0  0
    1.2503   -5.2115   -0.2787 H   0  0  0  0  0  0  0  0  0  0  0  0
   -4.2136   -4.3585    6.9413 H   0  0  0  0  0  0  0  0  0  0  0  0
   -0.3647   -2.7096    3.3049 H   0  0  0  0  0  0  0  0  0  0  0  0
   -0.9014   -0.1946    3.5843 H   0  0  0  0  0  0  0  0  0  0  0  0
   -2.8454   -0.0582    1.1839 H   0  0  0  0  0  0  0  0  0  0  0  0
    0.1390   -5.5856    2.2704 H   0  0  0  0  0  0  0  0  0  0  0  0
   -1.7256   -4.0646    2.7475 H   0  0  0  0  0  0  0  0  0  0  0  0
   -2.1321   -2.1732    0.7485 H   0  0  0  0  0  0  0  0  0  0  0  0
   -1.5059   -0.5716    7.0968 H   0  0  0  0  0  0  0  0  0  0  0  0
   -5.7155    1.2042    3.0505 H   0  0  0  0  0  0  0  0  0  0  0  0
   -4.9101   -3.9582   -0.7453 H   0  0  0  0  0  0  0  0  0  0  0  0
   -1.3831   -1.9848   -1.0445 H   0  0  0  0  0  0  0  0  0  0  0  0
   -0.8315   -3.3097    6.8380 H   0  0  0  0  0  0  0  0  0  0  0  0
   -0.7716   -2.1198    8.0787 H   0  0  0  0  0  0  0  0  0  0  0  0
    0.4671   -3.2438    7.8212 H   0  0  0  0  0  0  0  0  0  0  0  0
   -3.5861    1.1237    5.4597 H   0  0  0  0  0  0  0  0  0  0  0  0
   -2.6934    2.5144    5.1841 H   0  0  0  0  0  0  0  0  0  0  0  0
   -4.5384    2.4987    5.1239 H   0  0  0  0  0  0  0  0  0  0  0  0
   -5.9745   -0.2167   -0.7889 H   0  0  0  0  0  0  0  0  0  0  0  0
   -6.7319   -1.8596   -0.9743 H   0  0  0  0  0  0  0  0  0  0  0  0
   -6.1632   -1.2787    0.5720 H   0  0  0  0  0  0  0  0  0  0  0  0
   -1.2307   -5.7586    1.3829 H   0  0  0  0  0  0  0  0  0  0  0  0
   -2.5879   -5.7161    0.0112 H   0  0  0  0  0  0  0  0  0  0  0  0
   -1.7475   -5.0736    0.3643 H   0  0  0  0  0  0  0  0  0  0  0  0
   -3.7914   -6.8712    8.6453 H   0  0  0  0  0  0  0  0  0  0  0  0
   -3.1518   -5.1421    8.2311 H   0  0  0  0  0  0  0  0  0  0  0  0
   -4.6256   -5.8715    7.9116 H   0  0  0  0  0  0  0  0  0  0  0  0
   -4.1947   -5.1048    9.6414 H   0  0  0  0  0  0  0  0  0  0  0  0
   -4.5213   -3.5521    9.7329 H   0  0  0  0  0  0  0  0  0  0  0  0
   -5.6536   -4.8475   10.3423 H   0  0  0  0  0  0  0  0  0  0  0  0
   -4.4524   -4.1779    3.5961 H   0  0  0  0  0  0  0  0  0  0  0  0
   -4.1129   -4.2135    4.8361 H   0  0  0  0  0  0  0  0  0  0  0  0
   -6.6901   -5.4638    3.8051 H   0  0  0  0  0  0  0  0  0  0  0  0
   -5.5715   -6.8135    3.6632 H   0  0  0  0  0  0  0  0  0  0  0  0
    0.5958   -4.6514    6.8797 H   0  0  0  0  0  0  0  0  0  0  0  0
    0.8976   -5.5993    5.7020 H   0  0  0  0  0  0  0  0  0  0  0  0
   -7.6193   -2.8269    6.2564 H   0  0  0  0  0  0  0  0  0  0  0  0
   -8.9112   -2.9207    7.4031 H   0  0  0  0  0  0  0  0  0  0  0  0
   -1.3749   -5.5044    8.0651 H   0  0  0  0  0  0  0  0  0  0  0  0
   -1.0222   -7.1426    7.6301 H   0  0  0  0  0  0  0  0  0  0  0  0
   -8.9544   -5.3139    7.4460 H   0  0  0  0  0  0  0  0  0  0  0  0
   -8.2943   -5.0747    5.8489 H   0  0  0  0  0  0  0  0  0  0  0  0
   -3.9958   -1.8456    9.0366 H   0  0  0  0  0  0  0  0  0  0  0  0
   -2.1719   -4.4890    6.7372 H   0  0  0  0  0  0  0  0  0  0  0  0
   -2.6823   -3.9178    5.6272 H   0  0  0  0  0  0  0  0  0  0  0  0
   -5.3825   -3.3900    5.2412 H   0  0  0  0  0  0  0  0  0  0  0  0
   -6.5986   -4.2730    5.3585 H   0  0  0  0  0  0  0  0  0  0  0  0
   -2.7210   -3.4149    4.1508 H   0  0  0  0  0  0  0  0  0  0  0  0
   -2.2705   -2.3882    3.4690 H   0  0  0  0  0  0  0  0  0  0  0  0
   -3.2419   -1.3592    4.1947 H   0  0  0  0  0  0  0  0  0  0  0  0
   -2.6225   -0.8017    2.8288 H   0  0  0  0  0  0  0  0  0  0  0  0
   -4.1902   -2.1029    2.7373 H   0  0  0  0  0  0  0  0  0  0  0  0
   -3.0448   -2.0465    1.9198 H   0  0  0  0  0  0  0  0  0  0  0  0
   -0.9503   -6.1855   -1.7636 H   0  0  0  0  0  0  0  0  0  0  0  0
   -0.4538   -7.3806   -0.1447 H   0  0  0  0  0  0  0  0  0  0  0  0
   -7.5397   -0.3345    9.2926 H   0  0  0  0  0  0  0  0  0  0  0  0
   -7.5092   -0.3860    7.4781 H   0  0  0  0  0  0  0  0  0  0  0  0
   -2.8136   -7.3057    0.0081 H   0  0  0  0  0  0  0  0  0  0  0  0
   -3.7107   -0.5827    6.3122 H   0  0  0  0  0  0  0  0  0  0  0  0
   -5.8839   -1.6448    2.9009 H   0  0  0  0  0  0  0  0  0  0  0  0
   -4.6273   -2.1697    6.6040 H   0  0  0  0  0  0  0  0  0  0  0  0
    1.1619   -3.9430    3.2068 H   0  0  0  0  0  0  0  0  0  0  0  0
   -3.0149   -4.2643    0.5562 H   0  0  0  0  0  0  0  0  0  0  0  0
   -0.7632   -1.3747    2.2955 H   0  0  0  0  0  0  0  0  0  0  0  0
   -7.0860   -6.1573    9.1898 H   0  0  0  0  0  0  0  0  0  0  0  0
  1 93  1  0  0  0  0
  1 94  1  0  0  0  0
  1 95  1  0  0  0  0
  2 96  1  0  0  0  0
  2 97  1  0  0  0  0
  2 98  1  0  0  0  0
  3 99  1  0  0  0  0
  3100  1  0  0  0  0
  3101  1  0  0  0  0
  4102  1  0  0  0  0
  4103  1  0  0  0  0
  4104  1  0  0  0  0
  5105  1  0  0  0  0
  5106  1  0  0  0  0
  5107  1  0  0  0  0
  6108  1  0  0  0  0
  6109  1  0  0  0  0
  6110  1  0  0  0  0
  7111  1  0  0  0  0
  7112  1  0  0  0  0
  8  7  1  0  0  0  0
  8113  1  0  0  0  0
  8114  1  0  0  0  0
  9115  1  0  0  0  0
  9116  1  0  0  0  0
 10117  1  0  0  0  0
 10118  1  0  0  0  0
 11  9  1  0  0  0  0
 11119  1  0  0  0  0
 11120  1  0  0  0  0
 12 10  1  0  0  0  0
 12121  1  0  0  0  0
 12122  1  0  0  0  0
 13123  1  0  0  0  0
 14124  1  0  0  0  0
 14125  1  0  0  0  0
 15126  1  0  0  0  0
 15127  1  0  0  0  0
 16128  1  0  0  0  0
 16129  1  0  0  0  0
 17130  1  0  0  0  0
 17131  1  0  0  0  0
 18132  1  0  0  0  0
 18133  1  0  0  0  0
 19134  1  0  0  0  0
 19135  1  0  0  0  0
 20136  1  0  0  0  0
 20137  1  0  0  0  0
 21  1  1  0  0  0  0
 21 70  1  1  0  0  0
 22 71  1  6  0  0  0
 22  2  1  0  0  0  0
 23 72  1  6  0  0  0
 23  3  1  0  0  0  0
 24  4  1  0  0  0  0
 25 13  2  0  0  0  0
 25 20  1  0  0  0  0
 26  7  1  0  0  0  0
 26 14  1  0  0  0  0
 26 73  1  1  0  0  0
 27  9  1  0  0  0  0
 27 14  1  0  0  0  0
 27 65  1  0  0  0  0
 27 74  1  6  0  0  0
 28 10  1  0  0  0  0
 28 25  1  0  0  0  0
 28 75  1  1  0  0  0
 29  8  1  0  0  0  0
 29 76  1  6  0  0  0
 30 15  1  0  0  0  0
 30 29  1  0  0  0  0
 30 77  1  1  0  0  0
 31 16  1  0  0  0  0
 31 52  1  0  0  0  0
 31 78  1  1  0  0  0
 32 17  1  0  0  0  0
 32 53  1  0  0  0  0
 32 79  1  1  0  0  0
 33 18  1  0  0  0  0
 33 64  1  0  0  0  0
 33 80  1  1  0  0  0
 34 81  1  6  0  0  0
 34 19  1  0  0  0  0
 35 15  1  0  0  0  0
 35 54  1  0  0  0  0
 35 82  1  1  0  0  0
 36 13  1  0  0  0  0
 37 16  1  0  0  0  0
 37 65  1  0  0  0  0
 37 83  1  6  0  0  0
 38 17  1  0  0  0  0
 38 84  1  6  0  0  0
 38 67  1  0  0  0  0
 39 18  1  0  0  0  0
 39 85  1  1  0  0  0
 39 68  1  0  0  0  0
 40 34  1  0  0  0  0
 40 86  1  1  0  0  0
 40 56  1  0  0  0  0
 41 40  1  0  0  0  0
 41 57  1  0  0  0  0
 41 87  1  1  0  0  0
 42 41  1  0  0  0  0
 42 88  1  1  0  0  0
 42 58  1  0  0  0  0
 43 21  1  0  0  0  0
 43 31  1  0  0  0  0
 43 67  1  0  0  0  0
 43 89  1  1  0  0  0
 44 22  1  0  0  0  0
 44 32  1  0  0  0  0
 44 68  1  0  0  0  0
 44 90  1  1  0  0  0
 45 23  1  0  0  0  0
 45 33  1  0  0  0  0
 45 69  1  0  0  0  0
 45 91  1  6  0  0  0
 46 42  1  0  0  0  0
 46 92  1  6  0  0  0
 46 69  1  0  0  0  0
 47  5  1  1  0  0  0
 47 11  1  0  0  0  0
 47 26  1  0  0  0  0
 47 30  1  0  0  0  0
 48  6  1  6  0  0  0
 48 28  1  0  0  0  0
 48 35  1  0  0  0  0
 49 12  1  0  0  0  0
 49 29  1  0  0  0  0
 49 48  1  0  0  0  0
 49 59  1  6  0  0  0
 50 19  1  0  0  0  0
 50138  1  0  0  0  0
 51 24  2  0  0  0  0
 52139  1  0  0  0  0
 53140  1  0  0  0  0
 54141  1  0  0  0  0
 55 36  2  0  0  0  0
 56142  1  0  0  0  0
 57143  1  0  0  0  0
 58144  1  0  0  0  0
 59145  1  0  0  0  0
 60 20  1  0  0  0  0
 60 36  1  0  0  0  0
 61 21  1  0  0  0  0
 61 37  1  0  0  0  0
 62 22  1  0  0  0  0
 62 38  1  0  0  0  0
 63 23  1  0  0  0  0
 63 39  1  0  0  0  0
 64 24  1  0  0  0  0
 66 34  1  0  0  0  0
 66 46  1  0  0  0  0
M  END
>  <DRUGBANK_ID>
DB13467

>  <COMMON_NAME>
Lanatoside C

>  <CAS_NUMBER>
17575-22-3

>  <UNII>
5RR3JFZ771

>  <SYNONYMS>
Lanatoside C

$$$$
