GK4
 OpenBabel10282417163D

 47 50  0  0  0  0  0  0  0  0999 V2000
    0.9955   -0.0698   -0.0569 O   0  0  0  0  0  0  0  0  0  0  0  0
    2.2256   -0.0399   -0.0034 C   0  0  0  0  0  0  0  0  0  0  0  0
    2.9497    0.7432   -0.8753 N   0  0  0  0  0  0  0  0  0  0  0  0
    4.3897    0.7999   -1.0780 C   0  0  0  0  0  0  0  0  0  0  0  0
    4.8493    0.3358   -2.4110 C   0  0  0  0  0  0  0  0  0  0  0  0
    3.9561    0.0803   -3.5889 C   0  0  0  0  0  0  0  0  0  0  0  0
    4.5445   -1.0830   -2.8335 C   0  0  0  0  0  0  0  0  0  0  0  0
    2.9514   -0.8976    0.9618 C   0  0  0  0  0  0  0  0  0  0  0  0
    4.0968   -0.4141    1.5884 C   0  0  0  0  0  0  0  0  0  0  0  0
    4.9946   -1.3077    2.1425 C   0  0  0  0  0  0  0  0  0  0  0  0
    2.5749   -2.2325    1.1320 C   0  0  0  0  0  0  0  0  0  0  0  0
    3.4076   -3.1009    1.8485 C   0  0  0  0  0  0  0  0  0  0  0  0
    4.6294   -2.6448    2.3611 C   0  0  0  0  0  0  0  0  0  0  0  0
    5.5012   -3.4602    3.2152 C   0  0  0  0  0  0  0  0  0  0  0  0
    5.8885   -2.9895    4.4933 C   0  0  0  0  0  0  0  0  0  0  0  0
    5.1830   -1.8392    5.1754 C   0  0  0  0  0  0  0  0  0  0  0  0
    6.9237   -3.6333    5.1836 C   0  0  0  0  0  0  0  0  0  0  0  0
    7.4571   -4.8293    4.7021 C   0  0  0  0  0  0  0  0  0  0  0  0
    6.0443   -4.6648    2.7465 C   0  0  0  0  0  0  0  0  0  0  0  0
    7.0112   -5.3594    3.4875 C   0  0  0  0  0  0  0  0  0  0  0  0
    7.6177   -6.5436    2.9164 C   0  0  0  0  0  0  0  0  0  0  0  0
    8.2493   -6.6809    1.7696 N   0  0  0  0  0  0  0  0  0  0  0  0
    8.5624   -8.0156    1.6539 N   0  0  0  0  0  0  0  0  0  0  0  0
    7.4740   -7.7266    3.5940 O   0  0  0  0  0  0  0  0  0  0  0  0
    8.0784   -8.6019    2.7272 C   0  0  0  0  0  0  0  0  0  0  0  0
    8.0816  -10.0298    3.0823 C   0  0  0  0  0  0  0  0  0  0  0  0
    2.3737    1.2698   -1.5197 H   0  0  0  0  0  0  0  0  0  0  0  0
    4.7021    1.8281   -0.8747 H   0  0  0  0  0  0  0  0  0  0  0  0
    4.9346    0.1558   -0.3991 H   0  0  0  0  0  0  0  0  0  0  0  0
    5.8622    0.6834   -2.5893 H   0  0  0  0  0  0  0  0  0  0  0  0
    2.8932    0.2605   -3.4991 H   0  0  0  0  0  0  0  0  0  0  0  0
    4.3654    0.3237   -4.5619 H   0  0  0  0  0  0  0  0  0  0  0  0
    5.3268   -1.6639   -3.3086 H   0  0  0  0  0  0  0  0  0  0  0  0
    3.8966   -1.6794   -2.1976 H   0  0  0  0  0  0  0  0  0  0  0  0
    4.3572    0.6400    1.5477 H   0  0  0  0  0  0  0  0  0  0  0  0
    5.9759   -0.9481    2.4496 H   0  0  0  0  0  0  0  0  0  0  0  0
    1.6447   -2.5970    0.7027 H   0  0  0  0  0  0  0  0  0  0  0  0
    3.1014   -4.1330    1.9996 H   0  0  0  0  0  0  0  0  0  0  0  0
    4.7839   -2.1807    6.1355 H   0  0  0  0  0  0  0  0  0  0  0  0
    5.8605   -0.9959    5.3328 H   0  0  0  0  0  0  0  0  0  0  0  0
    4.3125   -1.4764    4.6209 H   0  0  0  0  0  0  0  0  0  0  0  0
    7.3186   -3.1981    6.0995 H   0  0  0  0  0  0  0  0  0  0  0  0
    8.2330   -5.3324    5.2745 H   0  0  0  0  0  0  0  0  0  0  0  0
    5.7343   -5.0566    1.7780 H   0  0  0  0  0  0  0  0  0  0  0  0
    8.6010  -10.1927    4.0301 H   0  0  0  0  0  0  0  0  0  0  0  0
    7.0586  -10.4071    3.1705 H   0  0  0  0  0  0  0  0  0  0  0  0
    8.5911  -10.6125    2.3079 H   0  0  0  0  0  0  0  0  0  0  0  0
  2  1  2  0  0  0  0
  3  4  1  0  0  0  0
  3  2  1  0  0  0  0
  3 27  1  0  0  0  0
  4 28  1  0  0  0  0
  4 29  1  0  0  0  0
  5  4  1  0  0  0  0
  5 30  1  0  0  0  0
  6  7  1  0  0  0  0
  6  5  1  0  0  0  0
  6 31  1  0  0  0  0
  6 32  1  0  0  0  0
  7  5  1  0  0  0  0
  7 33  1  0  0  0  0
  7 34  1  0  0  0  0
  8  2  1  0  0  0  0
  8 11  2  0  0  0  0
  9  8  1  0  0  0  0
  9 35  1  0  0  0  0
 10  9  2  0  0  0  0
 10 13  1  0  0  0  0
 10 36  1  0  0  0  0
 11 37  1  0  0  0  0
 12 11  1  0  0  0  0
 12 38  1  0  0  0  0
 13 12  2  0  0  0  0
 14 13  1  0  0  0  0
 14 19  2  0  0  0  0
 15 17  2  0  0  0  0
 15 14  1  0  0  0  0
 16 15  1  0  0  0  0
 16 39  1  0  0  0  0
 16 40  1  0  0  0  0
 16 41  1  0  0  0  0
 17 18  1  0  0  0  0
 17 42  1  0  0  0  0
 18 20  2  0  0  0  0
 18 43  1  0  0  0  0
 19 20  1  0  0  0  0
 19 44  1  0  0  0  0
 20 21  1  0  0  0  0
 21 24  1  0  0  0  0
 21 22  2  0  0  0  0
 22 23  1  0  0  0  0
 24 25  1  0  0  0  0
 25 26  1  0  0  0  0
 25 23  2  0  0  0  0
 26 45  1  0  0  0  0
 26 46  1  0  0  0  0
 26 47  1  0  0  0  0
M  END
>  <DRUGBANK_ID>
DB07834

>  <COMMON_NAME>
N-(cyclopropylmethyl)-2'-methyl-5'-(5-methyl-1,3,4-oxadiazol-2-yl)biphenyl-4-carboxamide

$$$$
