
 OpenBabel10282417223D

 60 62  0  0  0  0  0  0  0  0999 V2000
    0.9423    0.0269   -0.1002 C   0  0  0  0  0  0  0  0  0  0  0  0
    0.7629   -1.3396   -0.5029 O   0  0  0  0  0  0  0  0  0  0  0  0
    0.9732   -1.6561   -1.8302 C   0  0  0  0  0  0  0  0  0  0  0  0
    2.2884   -1.6781   -2.3331 C   0  0  0  0  0  0  0  0  0  0  0  0
    3.3895   -1.1805   -1.5170 C   0  0  0  0  0  0  0  0  0  0  0  0
    4.6194   -0.8946   -1.9363 C   0  0  0  0  0  0  0  0  0  0  0  0
    5.5938   -0.3107   -1.0325 C   0  0  0  0  0  0  0  0  0  0  0  0
    5.6993   -0.6287    0.3266 C   0  0  0  0  0  0  0  0  0  0  0  0
    6.7591   -0.1214    1.0919 C   0  0  0  0  0  0  0  0  0  0  0  0
    7.7396    0.6808    0.4901 C   0  0  0  0  0  0  0  0  0  0  0  0
    8.7224    1.3358    1.3079 N   0  0  0  0  0  0  0  0  0  0  0  0
   10.0463    2.2043    0.6980 S   0  0  0  0  0  0  0  0  0  0  0  0
    9.8744    3.7572    1.5385 C   0  0  0  0  0  0  0  0  0  0  0  0
   11.2396    1.5621    1.1931 O   0  0  0  0  0  0  0  0  0  0  0  0
    9.9149    2.5394   -0.7052 O   0  0  0  0  0  0  0  0  0  0  0  0
    7.6163    0.9399   -0.8711 C   0  0  0  0  0  0  0  0  0  0  0  0
    6.5266    0.5246   -1.6116 C   0  0  0  0  0  0  0  0  0  0  0  0
    2.5460   -2.1980   -3.6120 C   0  0  0  0  0  0  0  0  0  0  0  0
    1.5289   -2.7114   -4.4058 C   0  0  0  0  0  0  0  0  0  0  0  0
    0.2359   -2.7346   -3.8901 C   0  0  0  0  0  0  0  0  0  0  0  0
   -0.0860   -2.1712   -2.6204 C   0  0  0  0  0  0  0  0  0  0  0  0
   -1.5813   -2.0685   -2.2560 C   0  0  0  0  0  0  0  0  0  0  0  0
   -2.2955   -1.2193   -3.3367 C   0  0  0  0  0  0  0  0  0  0  0  0
   -2.2324   -3.4626   -2.2029 C   0  0  0  0  0  0  0  0  0  0  0  0
   -1.8606   -1.3818   -0.9101 C   0  0  0  0  0  0  0  0  0  0  0  0
    1.8161   -3.0892   -5.7561 N   0  0  0  0  0  0  0  0  0  0  0  0
    2.8623   -3.9510   -6.0456 C   0  0  0  0  0  0  0  0  0  0  0  0
    3.3503   -4.1012   -7.2800 C   0  0  0  0  0  0  0  0  0  0  0  0
    2.7179   -3.3670   -8.3811 C   0  0  0  0  0  0  0  0  0  0  0  0
    3.2061   -3.3726   -9.5107 O   0  0  0  0  0  0  0  0  0  0  0  0
    1.5738   -2.7024   -8.0644 N   0  0  0  0  0  0  0  0  0  0  0  0
    1.1628   -2.3874   -6.7873 C   0  0  0  0  0  0  0  0  0  0  0  0
    0.3216   -1.5036   -6.6332 O   0  0  0  0  0  0  0  0  0  0  0  0
    0.4332    0.1458    0.8633 H   0  0  0  0  0  0  0  0  0  0  0  0
    0.5303    0.7391   -0.8179 H   0  0  0  0  0  0  0  0  0  0  0  0
    1.9790    0.2907    0.1139 H   0  0  0  0  0  0  0  0  0  0  0  0
    3.1711   -1.0105   -0.4764 H   0  0  0  0  0  0  0  0  0  0  0  0
    4.9487   -1.0609   -2.9550 H   0  0  0  0  0  0  0  0  0  0  0  0
    4.9623   -1.2786    0.7953 H   0  0  0  0  0  0  0  0  0  0  0  0
    6.7994   -0.4005    2.1419 H   0  0  0  0  0  0  0  0  0  0  0  0
    8.8804    0.9374    2.2352 H   0  0  0  0  0  0  0  0  0  0  0  0
   10.0438    3.6228    2.6056 H   0  0  0  0  0  0  0  0  0  0  0  0
   10.6355    4.4244    1.1220 H   0  0  0  0  0  0  0  0  0  0  0  0
    8.8883    4.1784    1.3316 H   0  0  0  0  0  0  0  0  0  0  0  0
    8.3690    1.4415   -1.4514 H   0  0  0  0  0  0  0  0  0  0  0  0
    6.4461    0.8485   -2.6464 H   0  0  0  0  0  0  0  0  0  0  0  0
    3.5483   -2.1638   -4.0233 H   0  0  0  0  0  0  0  0  0  0  0  0
   -0.5386   -3.2010   -4.4969 H   0  0  0  0  0  0  0  0  0  0  0  0
   -2.2451   -1.6760   -4.3314 H   0  0  0  0  0  0  0  0  0  0  0  0
   -3.3571   -1.0921   -3.0978 H   0  0  0  0  0  0  0  0  0  0  0  0
   -1.8473   -0.2209   -3.4129 H   0  0  0  0  0  0  0  0  0  0  0  0
   -1.7412   -4.0965   -1.4568 H   0  0  0  0  0  0  0  0  0  0  0  0
   -3.2927   -3.3838   -1.9346 H   0  0  0  0  0  0  0  0  0  0  0  0
   -2.1866   -3.9835   -3.1648 H   0  0  0  0  0  0  0  0  0  0  0  0
   -1.4212   -1.9469   -0.0806 H   0  0  0  0  0  0  0  0  0  0  0  0
   -1.4672   -0.3610   -0.9129 H   0  0  0  0  0  0  0  0  0  0  0  0
   -2.9286   -1.2940   -0.6973 H   0  0  0  0  0  0  0  0  0  0  0  0
    3.2761   -4.5141   -5.2137 H   0  0  0  0  0  0  0  0  0  0  0  0
    4.1917   -4.7379   -7.5176 H   0  0  0  0  0  0  0  0  0  0  0  0
    1.1383   -2.1762   -8.8065 H   0  0  0  0  0  0  0  0  0  0  0  0
  1  2  1  0  0  0  0
  1 34  1  0  0  0  0
  1 35  1  0  0  0  0
  1 36  1  0  0  0  0
  2  3  1  0  0  0  0
  3  4  2  0  0  0  0
  3 21  1  0  0  0  0
  4  5  1  0  0  0  0
  4 18  1  0  0  0  0
  5  6  2  0  0  0  0
  5 37  1  0  0  0  0
  6  7  1  0  0  0  0
  6 38  1  0  0  0  0
  7  8  2  0  0  0  0
  7 17  1  0  0  0  0
  8  9  1  0  0  0  0
  8 39  1  0  0  0  0
  9 10  2  0  0  0  0
  9 40  1  0  0  0  0
 10 11  1  0  0  0  0
 10 16  1  0  0  0  0
 11 12  1  0  0  0  0
 11 41  1  0  0  0  0
 12 13  1  0  0  0  0
 12 14  2  0  0  0  0
 12 15  2  0  0  0  0
 13 42  1  0  0  0  0
 13 43  1  0  0  0  0
 13 44  1  0  0  0  0
 16 17  2  0  0  0  0
 16 45  1  0  0  0  0
 17 46  1  0  0  0  0
 18 19  2  0  0  0  0
 18 47  1  0  0  0  0
 19 20  1  0  0  0  0
 19 26  1  0  0  0  0
 20 21  2  0  0  0  0
 20 48  1  0  0  0  0
 21 22  1  0  0  0  0
 22 23  1  0  0  0  0
 22 24  1  0  0  0  0
 22 25  1  0  0  0  0
 23 49  1  0  0  0  0
 23 50  1  0  0  0  0
 23 51  1  0  0  0  0
 24 52  1  0  0  0  0
 24 53  1  0  0  0  0
 24 54  1  0  0  0  0
 25 55  1  0  0  0  0
 25 56  1  0  0  0  0
 25 57  1  0  0  0  0
 26 27  1  0  0  0  0
 26 32  1  0  0  0  0
 27 28  2  0  0  0  0
 27 58  1  0  0  0  0
 28 29  1  0  0  0  0
 28 59  1  0  0  0  0
 29 30  2  0  0  0  0
 29 31  1  0  0  0  0
 31 32  1  0  0  0  0
 31 60  1  0  0  0  0
 32 33  2  0  0  0  0
M  END
>  <DRUGBANK_ID>
DB15156

>  <COMMON_NAME>
ABT-072

>  <CAS_NUMBER>
1132936-00-5

>  <UNII>
PSQ4R5K1QI

$$$$
