GF7
 OpenBabel10282417163D

 31 32  0  0  0  0  0  0  0  0999 V2000
    1.0890    0.0759   -0.1090 O   0  0  0  0  0  0  0  0  0  0  0  0
    2.3159    0.0329   -0.0702 C   0  0  0  0  0  0  0  0  0  0  0  0
    3.0829    0.3606    1.1883 C   0  0  0  0  0  0  0  0  0  0  0  0
    3.0818   -0.2919   -1.3024 C   0  0  0  0  0  0  0  0  0  0  0  0
    2.7100    0.3037   -2.5122 C   0  0  0  0  0  0  0  0  0  0  0  0
    3.4632    0.0694   -3.6750 C   0  0  0  0  0  0  0  0  0  0  0  0
    4.1839   -1.1487   -1.2641 C   0  0  0  0  0  0  0  0  0  0  0  0
    4.9287   -1.3823   -2.4278 C   0  0  0  0  0  0  0  0  0  0  0  0
    4.5582   -0.8044   -3.6463 C   0  0  0  0  0  0  0  0  0  0  0  0
    5.2785   -1.1248   -4.8171 N   0  0  0  0  0  0  0  0  0  0  0  0
    5.7935   -0.1952   -5.7137 C   0  0  0  0  0  0  0  0  0  0  0  0
    5.8269    1.0236   -5.5929 O   0  0  0  0  0  0  0  0  0  0  0  0
    5.4697   -2.4853   -5.2800 C   0  0  0  0  0  0  0  0  0  0  0  0
    6.5559   -2.3589   -6.3362 C   0  0  2  0  0  0  0  0  0  0  0  0
    6.3681   -0.9499   -6.8884 C   0  0  0  0  0  0  0  0  0  0  0  0
    6.5158   -3.4286   -7.3920 C   0  0  0  0  0  0  0  0  0  0  0  0
    7.4256   -4.2092   -7.6311 O   0  0  0  0  0  0  0  0  0  0  0  0
    5.3811   -3.4751   -8.1085 O   0  0  0  0  0  0  0  0  0  0  0  0
    7.5349   -2.4190   -5.8431 H   0  0  0  0  0  0  0  0  0  0  0  0
    2.8145    1.3714    1.5118 H   0  0  0  0  0  0  0  0  0  0  0  0
    2.8291   -0.3562    1.9734 H   0  0  0  0  0  0  0  0  0  0  0  0
    4.1637    0.3432    1.0288 H   0  0  0  0  0  0  0  0  0  0  0  0
    1.8387    0.9561   -2.5500 H   0  0  0  0  0  0  0  0  0  0  0  0
    3.1603    0.5515   -4.6019 H   0  0  0  0  0  0  0  0  0  0  0  0
    4.4711   -1.6472   -0.3425 H   0  0  0  0  0  0  0  0  0  0  0  0
    5.8446   -1.9632   -2.3591 H   0  0  0  0  0  0  0  0  0  0  0  0
    4.5227   -2.8572   -5.6912 H   0  0  0  0  0  0  0  0  0  0  0  0
    5.7808   -3.1441   -4.4641 H   0  0  0  0  0  0  0  0  0  0  0  0
    5.6607   -0.8970   -7.7216 H   0  0  0  0  0  0  0  0  0  0  0  0
    7.3258   -0.5186   -7.1944 H   0  0  0  0  0  0  0  0  0  0  0  0
    5.5251   -4.1931   -8.7658 H   0  0  0  0  0  0  0  0  0  0  0  0
  1  2  2  0  0  0  0
  2  4  1  0  0  0  0
  2  3  1  0  0  0  0
  3 20  1  0  0  0  0
  3 21  1  0  0  0  0
  3 22  1  0  0  0  0
  4  5  1  0  0  0  0
  5  6  2  0  0  0  0
  5 23  1  0  0  0  0
  6 24  1  0  0  0  0
  7  4  2  0  0  0  0
  7  8  1  0  0  0  0
  7 25  1  0  0  0  0
  8  9  2  0  0  0  0
  8 26  1  0  0  0  0
  9  6  1  0  0  0  0
  9 10  1  0  0  0  0
 10 13  1  0  0  0  0
 11 10  1  0  0  0  0
 11 15  1  0  0  0  0
 12 11  2  0  0  0  0
 13 14  1  0  0  0  0
 13 27  1  0  0  0  0
 13 28  1  0  0  0  0
 14 16  1  0  0  0  0
 14 19  1  1  0  0  0
 15 14  1  0  0  0  0
 15 29  1  0  0  0  0
 15 30  1  0  0  0  0
 16 17  2  0  0  0  0
 16 18  1  0  0  0  0
 18 31  1  0  0  0  0
M  END
>  <DRUGBANK_ID>
DB07825

>  <COMMON_NAME>
(3S)-1-(4-acetylphenyl)-5-oxopyrrolidine-3-carboxylic acid

$$$$
