
 OpenBabel10282417203D

 20 20  0  0  0  0  0  0  0  0999 V2000
    1.3571   -0.2199   -0.0009 C   0  0  0  0  0  0  0  0  0  0  0  0
   -0.5099    1.3011    0.0300 C   0  0  0  0  0  0  0  0  0  0  0  0
    0.4644   -1.2980    0.0249 C   0  0  0  0  0  0  0  0  0  0  0  0
   -1.4038    0.2272    0.0144 C   0  0  0  0  0  0  0  0  0  0  0  0
    1.7961    2.2593   -0.2943 C   0  0  0  0  0  0  0  0  0  0  0  0
    0.8728    1.0905   -0.0538 C   0  0  0  0  0  0  0  0  0  0  0  0
   -0.9259   -1.0868    0.0160 C   0  0  0  0  0  0  0  0  0  0  0  0
   -1.8103   -2.2899    0.0437 C   0  0  0  0  0  0  0  0  0  0  0  0
    1.4326    2.9371   -1.5384 N   0  0  0  0  0  0  0  0  0  0  0  0
   -3.1406   -2.0717    0.0531 O   0  0  0  0  0  0  0  0  0  0  0  0
   -1.3532   -3.4256    0.0731 O   0  0  0  0  0  0  0  0  0  0  0  0
    2.4277   -0.4154    0.0042 H   0  0  0  0  0  0  0  0  0  0  0  0
   -0.8971    2.3184    0.0649 H   0  0  0  0  0  0  0  0  0  0  0  0
    0.8647   -2.3118    0.0321 H   0  0  0  0  0  0  0  0  0  0  0  0
   -2.4570    0.4723   -0.0211 H   0  0  0  0  0  0  0  0  0  0  0  0
    1.7327    2.9618    0.5428 H   0  0  0  0  0  0  0  0  0  0  0  0
    2.8361    1.9219   -0.3674 H   0  0  0  0  0  0  0  0  0  0  0  0
    2.0902    3.6903   -1.7243 H   0  0  0  0  0  0  0  0  0  0  0  0
    1.5235    2.2771   -2.3111 H   0  0  0  0  0  0  0  0  0  0  0  0
   -3.4571   -1.1547    0.0377 H   0  0  0  0  0  0  0  0  0  0  0  0
  1 12  1  0  0  0  0
  2 13  1  0  0  0  0
  3  1  1  0  0  0  0
  3 14  1  0  0  0  0
  4  2  2  0  0  0  0
  4 15  1  0  0  0  0
  5 16  1  0  0  0  0
  5 17  1  0  0  0  0
  6  1  2  0  0  0  0
  6  2  1  0  0  0  0
  6  5  1  0  0  0  0
  7  3  2  0  0  0  0
  7  4  1  0  0  0  0
  8  7  1  0  0  0  0
  9  5  1  0  0  0  0
  9 18  1  0  0  0  0
  9 19  1  0  0  0  0
 10  8  1  0  0  0  0
 10 20  1  0  0  0  0
 11  8  2  0  0  0  0
M  END
>  <DRUGBANK_ID>
DB13244

>  <COMMON_NAME>
Aminomethylbenzoic acid

>  <CAS_NUMBER>
56-91-7

>  <UNII>
68WG9JKC7L

$$$$
