
 OpenBabel10282417183D

128127  0  0  0  0  0  0  0  0999 V2000
    1.1167   -0.0876    0.7540 C   0  0  0  0  0  0  0  0  0  0  0  0
    0.4392    1.1474    1.6364 C   0  0  1  0  0  0  0  0  0  0  0  0
    1.2648    2.4383    1.3210 C   0  0  0  0  0  0  0  0  0  0  0  0
    0.4559   -1.3141    0.1646 O   0  0  0  0  0  0  0  0  0  0  0  0
   -1.0905    1.6782    1.5300 O   0  0  0  0  0  0  0  0  0  0  0  0
    1.5360    2.7181   -1.3032 C   0  0  0  0  0  0  0  0  0  0  0  0
    2.5114    1.6189   -1.5573 C   0  0  0  0  0  0  0  0  0  0  0  0
    2.0241    0.3961   -2.3026 C   0  0  0  0  0  0  0  0  0  0  0  0
    1.1782    0.5384   -3.6123 C   0  0  0  0  0  0  0  0  0  0  0  0
    2.2400    0.6865   -4.6105 C   0  0  0  0  0  0  0  0  0  0  0  0
    2.9500   -0.6771   -4.6097 C   0  0  0  0  0  0  0  0  0  0  0  0
    1.9982   -1.7754   -5.1099 C   0  0  0  0  0  0  0  0  0  0  0  0
    1.0288    3.3463   -2.2902 O   0  0  0  0  0  0  0  0  0  0  0  0
    1.1264    3.0269   -0.0470 O   0  0  0  0  0  0  0  0  0  0  0  0
    1.5484   -1.3624   -6.4925 C   0  0  0  0  0  0  0  0  0  0  0  0
    3.8408   -2.6981  -10.1380 C   0  0  0  0  0  0  0  0  0  0  0  0
    3.5855   -4.7197  -12.2960 C   0  0  0  0  0  0  0  0  0  0  0  0
    4.0083   -5.1001  -10.8866 C   0  0  0  0  0  0  0  0  0  0  0  0
    4.7418   -3.9343  -10.2234 C   0  0  0  0  0  0  0  0  0  0  0  0
    3.7229   -2.2885   -7.2634 C   0  0  0  0  0  0  0  0  0  0  0  0
    2.9572   -3.4369   -7.9179 C   0  0  0  0  0  0  0  0  0  0  0  0
    2.8226   -1.0436   -7.2780 C   0  0  0  0  0  0  0  0  0  0  0  0
    2.5733   -3.0194   -9.3386 C   0  0  0  0  0  0  0  0  0  0  0  0
   -2.0741    2.2180    0.5857 C   0  0  0  0  0  0  0  0  0  0  0  0
   -1.5158    2.4148   -0.8939 C   0  0  0  0  0  0  0  0  0  0  0  0
   -1.8930    1.6666   -2.2521 C   0  0  0  0  0  0  0  0  0  0  0  0
   -3.3202    1.5832   -2.5638 C   0  0  0  0  0  0  0  0  0  0  0  0
   -3.5247    3.0352   -2.8093 C   0  0  0  0  0  0  0  0  0  0  0  0
   -2.5809    3.5308   -3.9672 C   0  0  0  0  0  0  0  0  0  0  0  0
   -2.8086    2.6700   -5.2105 C   0  0  0  0  0  0  0  0  0  0  0  0
   -3.2847    2.1903    0.8410 O   0  0  0  0  0  0  0  0  0  0  0  0
   -4.3010    2.6525   -5.4534 C   0  0  0  0  0  0  0  0  0  0  0  0
   -7.4446    4.9647   -8.6105 C   0  0  0  0  0  0  0  0  0  0  0  0
   -8.1560    6.1983  -13.0130 C   0  0  0  0  0  0  0  0  0  0  0  0
   -8.9178    5.7121  -11.7907 C   0  0  0  0  0  0  0  0  0  0  0  0
   -8.4146    4.3322  -11.3645 C   0  0  0  0  0  0  0  0  0  0  0  0
   -6.9260    4.3730  -11.0049 C   0  0  0  0  0  0  0  0  0  0  0  0
   -6.6732    5.3742   -9.8711 C   0  0  0  0  0  0  0  0  0  0  0  0
   -5.1889    4.5123   -6.8110 C   0  0  0  0  0  0  0  0  0  0  0  0
   -5.4960    3.5785   -7.9291 C   0  0  0  0  0  0  0  0  0  0  0  0
   -4.7269    4.0713   -5.6523 C   0  0  0  0  0  0  0  0  0  0  0  0
   -6.9959    3.5824   -8.1490 C   0  0  0  0  0  0  0  0  0  0  0  0
    0.4364   -3.5317   -0.6625 O   0  0  0  0  0  0  0  0  0  0  0  0
   -1.8401   -1.8590    0.3832 C   0  0  0  0  0  0  0  0  0  0  0  0
   -0.5890   -0.5184   -1.6296 C   0  0  0  0  0  0  0  0  0  0  0  0
   -1.7551   -0.8571   -0.7699 C   0  0  3  0  0  0  0  0  0  0  0  0
   -0.0497   -1.6220   -2.1863 O   0  0  0  0  0  0  0  0  0  0  0  0
    1.0325   -2.2300   -1.1851 P   0  0  3  0  0  0  0  0  0  0  0  0
    1.6092   -3.1459   -2.5347 O   0  0  0  0  0  0  0  0  0  0  0  0
   -1.1530   -1.5889    1.6549 O   0  0  0  0  0  0  0  0  0  0  0  0
   -1.9210    0.2327    0.0018 O   0  0  0  0  0  0  0  0  0  0  0  0
    1.1940    0.5944   -0.0385 H   0  0  0  0  0  0  0  0  0  0  0  0
    2.1847   -0.3005    0.9072 H   0  0  0  0  0  0  0  0  0  0  0  0
    0.5552    0.8383    2.6960 H   0  0  0  0  0  0  0  0  0  0  0  0
    0.8440    3.2059    1.9821 H   0  0  0  0  0  0  0  0  0  0  0  0
    2.3287    2.3218    1.5075 H   0  0  0  0  0  0  0  0  0  0  0  0
    3.3909    1.9760   -2.0769 H   0  0  0  0  0  0  0  0  0  0  0  0
    2.8717    1.2833   -0.5862 H   0  0  0  0  0  0  0  0  0  0  0  0
    2.8384   -0.3204   -2.3343 H   0  0  0  0  0  0  0  0  0  0  0  0
    1.6003   -0.2049   -1.5696 H   0  0  0  0  0  0  0  0  0  0  0  0
    0.4870   -0.2772   -3.9218 H   0  0  0  0  0  0  0  0  0  0  0  0
    0.5144    1.3949   -3.6885 H   0  0  0  0  0  0  0  0  0  0  0  0
    1.8119    1.0119   -5.5637 H   0  0  0  0  0  0  0  0  0  0  0  0
    2.8357    1.5254   -4.2580 H   0  0  0  0  0  0  0  0  0  0  0  0
    3.8935   -0.5348   -5.1279 H   0  0  0  0  0  0  0  0  0  0  0  0
    3.3531   -1.0858   -3.6912 H   0  0  0  0  0  0  0  0  0  0  0  0
    2.5141   -2.7404   -5.0618 H   0  0  0  0  0  0  0  0  0  0  0  0
    1.1126   -1.9695   -4.5007 H   0  0  0  0  0  0  0  0  0  0  0  0
    0.9299   -2.1455   -6.9340 H   0  0  0  0  0  0  0  0  0  0  0  0
    0.8772   -0.5000   -6.4615 H   0  0  0  0  0  0  0  0  0  0  0  0
    3.5679   -2.3224  -11.1259 H   0  0  0  0  0  0  0  0  0  0  0  0
    4.4026   -1.8653   -9.7011 H   0  0  0  0  0  0  0  0  0  0  0  0
    4.4674   -4.4545  -12.8861 H   0  0  0  0  0  0  0  0  0  0  0  0
    3.0581   -5.5428  -12.7778 H   0  0  0  0  0  0  0  0  0  0  0  0
    2.9048   -3.8620  -12.3063 H   0  0  0  0  0  0  0  0  0  0  0  0
    4.6558   -5.9802  -10.9048 H   0  0  0  0  0  0  0  0  0  0  0  0
    3.1275   -5.3993  -10.3056 H   0  0  0  0  0  0  0  0  0  0  0  0
    5.6525   -3.6876  -10.7759 H   0  0  0  0  0  0  0  0  0  0  0  0
    5.0875   -4.2400   -9.2279 H   0  0  0  0  0  0  0  0  0  0  0  0
    4.6726   -2.0624   -7.7497 H   0  0  0  0  0  0  0  0  0  0  0  0
    4.0472   -2.5923   -6.2614 H   0  0  0  0  0  0  0  0  0  0  0  0
    3.5571   -4.3483   -7.8891 H   0  0  0  0  0  0  0  0  0  0  0  0
    2.0588   -3.7150   -7.3568 H   0  0  0  0  0  0  0  0  0  0  0  0
    2.5668   -0.6790   -8.2691 H   0  0  0  0  0  0  0  0  0  0  0  0
    3.3786   -0.1895   -6.8816 H   0  0  0  0  0  0  0  0  0  0  0  0
    1.9677   -3.7996   -9.8018 H   0  0  0  0  0  0  0  0  0  0  0  0
    1.9033   -2.1535   -9.3500 H   0  0  0  0  0  0  0  0  0  0  0  0
   -1.4525    3.4932   -1.0769 H   0  0  0  0  0  0  0  0  0  0  0  0
   -0.5187    2.0801   -0.7709 H   0  0  0  0  0  0  0  0  0  0  0  0
   -1.1983    2.0600   -2.9959 H   0  0  0  0  0  0  0  0  0  0  0  0
   -1.7828    0.6620   -2.6367 H   0  0  0  0  0  0  0  0  0  0  0  0
   -3.4850    0.9014   -3.4284 H   0  0  0  0  0  0  0  0  0  0  0  0
   -3.8208    1.0819   -1.7325 H   0  0  0  0  0  0  0  0  0  0  0  0
   -4.5850    3.1805   -2.9627 H   0  0  0  0  0  0  0  0  0  0  0  0
   -3.3002    3.5969   -1.9068 H   0  0  0  0  0  0  0  0  0  0  0  0
   -2.7621    4.5910   -4.1122 H   0  0  0  0  0  0  0  0  0  0  0  0
   -1.4988    3.5631   -3.7813 H   0  0  0  0  0  0  0  0  0  0  0  0
   -2.2486    3.0642   -6.0673 H   0  0  0  0  0  0  0  0  0  0  0  0
   -2.4516    1.6343   -5.1031 H   0  0  0  0  0  0  0  0  0  0  0  0
   -4.4783    1.9573   -6.2630 H   0  0  0  0  0  0  0  0  0  0  0  0
   -4.8950    2.2221   -4.6456 H   0  0  0  0  0  0  0  0  0  0  0  0
   -8.5252    4.9587   -8.7704 H   0  0  0  0  0  0  0  0  0  0  0  0
   -7.2929    5.7131   -7.8266 H   0  0  0  0  0  0  0  0  0  0  0  0
   -8.2888    5.4907  -13.8364 H   0  0  0  0  0  0  0  0  0  0  0  0
   -8.5055    7.1840  -13.3205 H   0  0  0  0  0  0  0  0  0  0  0  0
   -7.0821    6.2915  -12.8204 H   0  0  0  0  0  0  0  0  0  0  0  0
   -9.9891    5.6642  -12.0025 H   0  0  0  0  0  0  0  0  0  0  0  0
   -8.8145    6.4412  -10.9782 H   0  0  0  0  0  0  0  0  0  0  0  0
   -8.5810    3.6017  -12.1618 H   0  0  0  0  0  0  0  0  0  0  0  0
   -9.0100    3.9722  -10.5165 H   0  0  0  0  0  0  0  0  0  0  0  0
   -6.3113    4.6349  -11.8702 H   0  0  0  0  0  0  0  0  0  0  0  0
   -6.5834    3.3657  -10.7432 H   0  0  0  0  0  0  0  0  0  0  0  0
   -6.9479    6.3937  -10.1499 H   0  0  0  0  0  0  0  0  0  0  0  0
   -5.5965    5.4535   -9.6898 H   0  0  0  0  0  0  0  0  0  0  0  0
   -5.3977    5.5758   -6.8997 H   0  0  0  0  0  0  0  0  0  0  0  0
   -4.8926    3.8576   -8.7926 H   0  0  0  0  0  0  0  0  0  0  0  0
   -5.2198    2.5415   -7.7702 H   0  0  0  0  0  0  0  0  0  0  0  0
   -4.5947    4.8031   -4.8548 H   0  0  0  0  0  0  0  0  0  0  0  0
   -7.2394    2.8078   -8.8834 H   0  0  0  0  0  0  0  0  0  0  0  0
   -7.5330    3.2879   -7.2385 H   0  0  0  0  0  0  0  0  0  0  0  0
   -2.8693   -1.7948    0.6998 H   0  0  0  0  0  0  0  0  0  0  0  0
   -1.5564   -2.8196    0.0035 H   0  0  0  0  0  0  0  0  0  0  0  0
    0.0207    0.1053   -1.0263 H   0  0  0  0  0  0  0  0  0  0  0  0
   -0.3503    0.3379   -2.2283 H   0  0  0  0  0  0  0  0  0  0  0  0
   -2.5821   -0.9190   -1.4483 H   0  0  0  0  0  0  0  0  0  0  0  0
    1.4870   -4.0813   -2.2719 H   0  0  0  0  0  0  0  0  0  0  0  0
   -0.2127   -1.8210    1.5153 H   0  0  0  0  0  0  0  0  0  0  0  0
   -1.0631    0.4237    0.4237 H   0  0  0  0  0  0  0  0  0  0  0  0
  1  2  1  0  0  0  0
  1 52  1  0  0  0  0
  1 53  1  0  0  0  0
  2  3  1  0  0  0  0
  2  5  1  0  0  0  0
  2 54  1  1  0  0  0
  3 14  1  0  0  0  0
  3 55  1  0  0  0  0
  3 56  1  0  0  0  0
  4  1  1  0  0  0  0
  4 48  1  0  0  0  0
  5 24  1  0  0  0  0
  7  6  1  0  0  0  0
  7 57  1  0  0  0  0
  7 58  1  0  0  0  0
  8  7  1  0  0  0  0
  8  9  1  0  0  0  0
  8 59  1  0  0  0  0
  8 60  1  0  0  0  0
  9 61  1  0  0  0  0
  9 62  1  0  0  0  0
 10  9  1  0  0  0  0
 10 11  1  0  0  0  0
 10 63  1  0  0  0  0
 10 64  1  0  0  0  0
 11 65  1  0  0  0  0
 11 66  1  0  0  0  0
 12 11  1  0  0  0  0
 12 15  1  0  0  0  0
 12 67  1  0  0  0  0
 12 68  1  0  0  0  0
 13  6  2  0  0  0  0
 14  6  1  0  0  0  0
 15 22  1  0  0  0  0
 15 69  1  0  0  0  0
 15 70  1  0  0  0  0
 16 23  1  0  0  0  0
 16 71  1  0  0  0  0
 16 72  1  0  0  0  0
 17 18  1  0  0  0  0
 17 73  1  0  0  0  0
 17 74  1  0  0  0  0
 17 75  1  0  0  0  0
 18 19  1  0  0  0  0
 18 76  1  0  0  0  0
 18 77  1  0  0  0  0
 19 16  1  0  0  0  0
 19 78  1  0  0  0  0
 19 79  1  0  0  0  0
 20 80  1  0  0  0  0
 20 81  1  0  0  0  0
 21 20  1  0  0  0  0
 21 82  1  0  0  0  0
 21 83  1  0  0  0  0
 22 20  1  0  0  0  0
 22 84  1  0  0  0  0
 22 85  1  0  0  0  0
 23 21  1  0  0  0  0
 23 86  1  0  0  0  0
 23 87  1  0  0  0  0
 25 24  1  0  0  0  0
 25 88  1  0  0  0  0
 25 89  1  0  0  0  0
 26 25  1  0  0  0  0
 26 27  1  0  0  0  0
 26 90  1  0  0  0  0
 26 91  1  0  0  0  0
 27 92  1  0  0  0  0
 27 93  1  0  0  0  0
 28 27  1  0  0  0  0
 28 29  1  0  0  0  0
 28 94  1  0  0  0  0
 28 95  1  0  0  0  0
 29 96  1  0  0  0  0
 29 97  1  0  0  0  0
 30 29  1  0  0  0  0
 30 32  1  0  0  0  0
 30 98  1  0  0  0  0
 30 99  1  0  0  0  0
 31 24  2  0  0  0  0
 32 41  1  0  0  0  0
 32100  1  0  0  0  0
 32101  1  0  0  0  0
 33 42  1  0  0  0  0
 33102  1  0  0  0  0
 33103  1  0  0  0  0
 34 35  1  0  0  0  0
 34104  1  0  0  0  0
 34105  1  0  0  0  0
 34106  1  0  0  0  0
 35 36  1  0  0  0  0
 35107  1  0  0  0  0
 35108  1  0  0  0  0
 36 37  1  0  0  0  0
 36109  1  0  0  0  0
 36110  1  0  0  0  0
 37 38  1  0  0  0  0
 37111  1  0  0  0  0
 37112  1  0  0  0  0
 38 33  1  0  0  0  0
 38113  1  0  0  0  0
 38114  1  0  0  0  0
 39115  1  0  0  0  0
 40 39  1  0  0  0  0
 40116  1  0  0  0  0
 40117  1  0  0  0  0
 41 39  2  0  0  0  0
 41118  1  0  0  0  0
 42 40  1  0  0  0  0
 42119  1  0  0  0  0
 42120  1  0  0  0  0
 43 48  2  0  0  0  0
 44 46  1  0  0  0  0
 44121  1  0  0  0  0
 44122  1  0  0  0  0
 45 46  1  0  0  0  0
 45 47  1  0  0  0  0
 45123  1  0  0  0  0
 45124  1  0  0  0  0
 46 51  1  0  0  0  0
 46125  1  0  0  0  0
 47 48  1  0  0  0  0
 48 49  1  0  0  0  0
 49126  1  0  0  0  0
 50 44  1  0  0  0  0
 50127  1  0  0  0  0
 51128  1  0  0  0  0
M  END
>  <DRUGBANK_ID>
DB11331

>  <SECONDARY_ACCESSION_NUMBERS>
DB14095

>  <COMMON_NAME>
1-Palmitoyl-2-oleoyl-sn-glycero-3-(phospho-rac-(1-glycerol))

>  <CAS_NUMBER>
185435-28-3

>  <UNII>
F72017VPR7

>  <SYNONYMS>
1-Palmitoyl-2-oleoyl-sn-glycero-3-(phospho-rac-(1-glycerol)); 1-Palmitoyl-2-oleoyl-sn-glycero-3-phosphatidylglycerol; 1-palmitoyl-2-oleoyl-sn-glycero-3-phosphoglycerol; l-Alpha-1-palmitoyl-2-oleoylglycerophosphoglycerol; Palmitoyloleoyl-phosphatidylglycerol; PG(16:0/18:1(9Z)); PG(16:0/18:1); POPG

$$$$
