
 OpenBabel10282417173D

 25 26  0  0  0  0  0  0  0  0999 V2000
    1.7150    1.2455    0.0213 C   0  0  0  0  0  0  0  0  0  0  0  0
    0.3149    1.2973    0.0056 C   0  0  0  0  0  0  0  0  0  0  0  0
    0.1695   -1.0900   -0.0505 N   0  0  0  0  0  0  0  0  0  0  0  0
   -0.3992    0.1124   -0.0015 C   0  0  0  0  0  0  0  0  0  0  0  0
    1.5170   -1.0986   -0.0815 C   0  0  0  0  0  0  0  0  0  0  0  0
    2.3610    0.0097    0.0124 C   0  0  0  0  0  0  0  0  0  0  0  0
   -2.1086    0.0705    0.0041 Cl  0  0  0  0  0  0  0  0  0  0  0  0
    4.3738   -2.6638    3.0729 S   0  0  0  0  0  0  0  0  0  0  0  0
    4.0828   -2.1932    1.4148 C   0  0  0  0  0  0  0  0  0  0  0  0
    4.3517   -0.8581    1.2211 N   0  0  0  0  0  0  0  0  0  0  0  0
    5.2185   -1.1177    3.4743 C   0  0  0  0  0  0  0  0  0  0  0  0
    3.6591   -2.9790    0.4861 N   0  0  0  0  0  0  0  0  0  0  0  0
    3.1736   -4.1935    0.7616 C   0  0  0  0  0  0  0  0  0  0  0  0
    2.6710   -5.2212    0.9174 N   0  0  0  0  0  0  0  0  0  0  0  0
    5.0351   -0.1570    2.2976 C   0  0  0  0  0  0  0  0  0  0  0  0
    3.8746   -0.1191    0.0501 C   0  0  0  0  0  0  0  0  0  0  0  0
    2.2818    2.1726    0.0237 H   0  0  0  0  0  0  0  0  0  0  0  0
   -0.2092    2.2431   -0.0032 H   0  0  0  0  0  0  0  0  0  0  0  0
    1.8777   -2.0997   -0.2258 H   0  0  0  0  0  0  0  0  0  0  0  0
    6.2789   -1.3269    3.6466 H   0  0  0  0  0  0  0  0  0  0  0  0
    4.7918   -0.7043    4.3913 H   0  0  0  0  0  0  0  0  0  0  0  0
    6.0191    0.1870    1.9535 H   0  0  0  0  0  0  0  0  0  0  0  0
    4.4761    0.7281    2.6219 H   0  0  0  0  0  0  0  0  0  0  0  0
    4.2246   -0.6081   -0.8673 H   0  0  0  0  0  0  0  0  0  0  0  0
    4.3261    0.8840    0.0351 H   0  0  0  0  0  0  0  0  0  0  0  0
  1  2  1  0  0  0  0
  1 17  1  0  0  0  0
  2  4  2  0  0  0  0
  2 18  1  0  0  0  0
  3  4  1  0  0  0  0
  3  5  2  0  0  0  0
  5  6  1  0  0  0  0
  5 19  1  0  0  0  0
  6  1  2  0  0  0  0
  6 16  1  0  0  0  0
  7  4  1  0  0  0  0
  9  8  1  0  0  0  0
 10  9  1  0  0  0  0
 11  8  1  0  0  0  0
 11 15  1  0  0  0  0
 11 20  1  0  0  0  0
 11 21  1  0  0  0  0
 12  9  2  0  0  0  0
 13 12  1  0  0  0  0
 14 13  3  0  0  0  0
 15 10  1  0  0  0  0
 15 22  1  0  0  0  0
 15 23  1  0  0  0  0
 16 10  1  0  0  0  0
 16 24  1  0  0  0  0
 16 25  1  0  0  0  0
M  END
>  <DRUGBANK_ID>
DB08620

>  <COMMON_NAME>
Thiacloprid

>  <CAS_NUMBER>
111988-49-9

>  <UNII>
DSV3A944A4

>  <SYNONYMS>
(Z)-thiacloprid

$$$$
