C4F
 OpenBabel10282417163D

 32 34  0  0  0  0  0  0  0  0999 V2000
    0.9968    0.0024    0.0740 C   0  0  0  0  0  0  0  0  0  0  0  0
    0.4048    0.0483    1.3591 O   0  0  0  0  0  0  0  0  0  0  0  0
    0.9474   -0.7482    2.3256 C   0  0  0  0  0  0  0  0  0  0  0  0
    2.2709   -1.1298    2.4502 C   0  0  0  0  0  0  0  0  0  0  0  0
    2.6800   -1.8190    3.5975 C   0  0  0  0  0  0  0  0  0  0  0  0
    1.7960   -2.0234    4.6647 C   0  0  0  0  0  0  0  0  0  0  0  0
    0.0602   -1.0945    3.3374 C   0  0  0  0  0  0  0  0  0  0  0  0
    0.4764   -1.5794    4.5780 C   0  0  0  0  0  0  0  0  0  0  0  0
   -0.4592   -1.6068    5.7670 C   0  0  0  0  0  0  0  0  0  0  0  0
   -0.8046   -0.1801    6.1540 C   0  0  0  0  0  0  0  0  0  0  0  0
   -1.5870    0.8138    5.4458 C   0  0  0  0  0  0  0  0  0  0  0  0
   -0.4669    0.4109    7.3693 C   0  0  0  0  0  0  0  0  0  0  0  0
   -0.9567    1.6900    7.3929 N   0  0  0  0  0  0  0  0  0  0  0  0
   -1.6155    1.9642    6.2341 C   0  0  0  0  0  0  0  0  0  0  0  0
   -2.2082    3.1429    5.9571 N   0  0  0  0  0  0  0  0  0  0  0  0
   -2.8076    3.1696    4.7455 C   0  0  0  0  0  0  0  0  0  0  0  0
   -2.8721    2.1132    3.8588 C   0  0  0  0  0  0  0  0  0  0  0  0
   -2.2984    0.9043    4.2342 C   0  0  0  0  0  0  0  0  0  0  0  0
    0.5945    0.8375   -0.5096 H   0  0  0  0  0  0  0  0  0  0  0  0
    0.7022   -0.9291   -0.4147 H   0  0  0  0  0  0  0  0  0  0  0  0
    2.0826    0.1165    0.0874 H   0  0  0  0  0  0  0  0  0  0  0  0
    3.0065   -0.8963    1.6918 H   0  0  0  0  0  0  0  0  0  0  0  0
    3.7110   -2.1495    3.6832 H   0  0  0  0  0  0  0  0  0  0  0  0
    2.1508   -2.5240    5.5619 H   0  0  0  0  0  0  0  0  0  0  0  0
   -0.9848   -0.9543    3.1376 H   0  0  0  0  0  0  0  0  0  0  0  0
   -1.3613   -2.1893    5.5608 H   0  0  0  0  0  0  0  0  0  0  0  0
    0.0516   -2.0856    6.6144 H   0  0  0  0  0  0  0  0  0  0  0  0
    0.0705    0.0215    8.2233 H   0  0  0  0  0  0  0  0  0  0  0  0
   -0.8809    2.3520    8.1561 H   0  0  0  0  0  0  0  0  0  0  0  0
   -3.2850    4.1109    4.4883 H   0  0  0  0  0  0  0  0  0  0  0  0
   -3.3685    2.2052    2.8995 H   0  0  0  0  0  0  0  0  0  0  0  0
   -2.4329    0.0692    3.5650 H   0  0  0  0  0  0  0  0  0  0  0  0
  1  2  1  0  0  0  0
  1 19  1  0  0  0  0
  1 20  1  0  0  0  0
  1 21  1  0  0  0  0
  2  3  1  0  0  0  0
  3  4  2  0  0  0  0
  3  7  1  0  0  0  0
  4  5  1  0  0  0  0
  4 22  1  0  0  0  0
  5  6  2  0  0  0  0
  5 23  1  0  0  0  0
  6  8  1  0  0  0  0
  6 24  1  0  0  0  0
  7  8  2  0  0  0  0
  7 25  1  0  0  0  0
  8  9  1  0  0  0  0
  9 10  1  0  0  0  0
  9 26  1  0  0  0  0
  9 27  1  0  0  0  0
 10 11  1  0  0  0  0
 10 12  2  0  0  0  0
 11 14  2  0  0  0  0
 11 18  1  0  0  0  0
 12 13  1  0  0  0  0
 12 28  1  0  0  0  0
 13 14  1  0  0  0  0
 13 29  1  0  0  0  0
 14 15  1  0  0  0  0
 15 16  2  0  0  0  0
 16 17  1  0  0  0  0
 16 30  1  0  0  0  0
 17 18  2  0  0  0  0
 17 31  1  0  0  0  0
 18 32  1  0  0  0  0
M  END
>  <DRUGBANK_ID>
DB07525

>  <COMMON_NAME>
3-(3-methoxybenzyl)-1H-pyrrolo[2,3-b]pyridine

$$$$
