
 OpenBabel10282417153D

 35 36  0  0  0  0  0  0  0  0999 V2000
    0.9867   -0.0088   -0.0435 C   0  0  0  0  0  0  0  0  0  0  0  0
    1.3110   -2.0239   -1.4063 C   0  0  0  0  0  0  0  0  0  0  0  0
   -1.1912   -2.7555   -2.9995 C   0  0  0  0  0  0  0  0  0  0  0  0
   -4.7826    0.5377   -1.9787 C   0  0  0  0  0  0  0  0  0  0  0  0
   -5.2565    1.8354   -1.7782 C   0  0  0  0  0  0  0  0  0  0  0  0
   -2.9955   -1.1031   -2.6660 C   0  0  0  0  0  0  0  0  0  0  0  0
   -2.7020    1.4087   -2.8861 C   0  0  0  0  0  0  0  0  0  0  0  0
   -3.4484    4.7849   -2.4190 C   0  0  0  0  0  0  0  0  0  0  0  0
    0.5884   -0.6812   -1.3631 C   0  0  0  0  0  0  0  0  0  0  0  0
   -1.4532   -1.2826   -2.6925 C   0  0  3  0  0  0  0  0  0  0  0  0
   -3.4903    0.3119   -2.5075 C   0  0  0  0  0  0  0  0  0  0  0  0
   -4.4281    2.8835   -2.1221 C   0  0  0  0  0  0  0  0  0  0  0  0
   -3.1860    2.6671   -2.6688 C   0  0  0  0  0  0  0  0  0  0  0  0
   -0.8682   -0.7995   -1.4291 N   0  0  0  0  0  0  0  0  0  0  0  0
   -4.6962    4.2062   -1.9752 O   0  0  0  0  0  0  0  0  0  0  0  0
   -2.5181    3.8196   -2.9384 O   0  0  0  0  0  0  0  0  0  0  0  0
    0.6450   -0.5936    0.8187 H   0  0  0  0  0  0  0  0  0  0  0  0
    0.5860    1.0053    0.0432 H   0  0  0  0  0  0  0  0  0  0  0  0
    2.0797    0.0621    0.0242 H   0  0  0  0  0  0  0  0  0  0  0  0
    0.8316   -2.7465   -0.7360 H   0  0  0  0  0  0  0  0  0  0  0  0
    1.3475   -2.4319   -2.4131 H   0  0  0  0  0  0  0  0  0  0  0  0
    2.3585   -1.9253   -1.1110 H   0  0  0  0  0  0  0  0  0  0  0  0
   -1.3601   -3.3807   -2.1178 H   0  0  0  0  0  0  0  0  0  0  0  0
   -1.8369   -3.1107   -3.8078 H   0  0  0  0  0  0  0  0  0  0  0  0
   -0.1833   -2.9157   -3.3746 H   0  0  0  0  0  0  0  0  0  0  0  0
   -5.4119   -0.3084   -1.7047 H   0  0  0  0  0  0  0  0  0  0  0  0
   -6.2369    2.0141   -1.3520 H   0  0  0  0  0  0  0  0  0  0  0  0
   -3.4208   -1.4921   -3.6015 H   0  0  0  0  0  0  0  0  0  0  0  0
   -3.4050   -1.7204   -1.8532 H   0  0  0  0  0  0  0  0  0  0  0  0
   -1.7067    1.2966   -3.3033 H   0  0  0  0  0  0  0  0  0  0  0  0
   -3.6577    5.5191   -3.2034 H   0  0  0  0  0  0  0  0  0  0  0  0
   -2.9763    5.2936   -1.5706 H   0  0  0  0  0  0  0  0  0  0  0  0
    0.9375   -0.0407   -2.1824 H   0  0  0  0  0  0  0  0  0  0  0  0
   -1.0453   -0.6957   -3.5239 H   0  0  0  0  0  0  0  0  0  0  0  0
   -1.2535   -1.2847   -0.6220 H   0  0  0  0  0  0  0  0  0  0  0  0
  1 17  1  0  0  0  0
  1 18  1  0  0  0  0
  1 19  1  0  0  0  0
  2 20  1  0  0  0  0
  2 21  1  0  0  0  0
  2 22  1  0  0  0  0
  3 23  1  0  0  0  0
  3 24  1  0  0  0  0
  3 25  1  0  0  0  0
  4 26  1  0  0  0  0
  5  4  2  0  0  0  0
  5 27  1  0  0  0  0
  6 28  1  0  0  0  0
  6 29  1  0  0  0  0
  7 30  1  0  0  0  0
  8 31  1  0  0  0  0
  8 32  1  0  0  0  0
  9  1  1  0  0  0  0
  9  2  1  0  0  0  0
  9 33  1  0  0  0  0
 10  3  1  0  0  0  0
 10  6  1  0  0  0  0
 10 34  1  0  0  0  0
 11  4  1  0  0  0  0
 11  6  1  0  0  0  0
 11  7  2  0  0  0  0
 12  5  1  0  0  0  0
 13  7  1  0  0  0  0
 13 12  2  0  0  0  0
 14  9  1  0  0  0  0
 14 10  1  0  0  0  0
 14 35  1  0  0  0  0
 15  8  1  0  0  0  0
 15 12  1  0  0  0  0
 16  8  1  0  0  0  0
 16 13  1  0  0  0  0
M  END
>  <DRUGBANK_ID>
DB06112

>  <COMMON_NAME>
3,4-Methylenedioxy-N-isopropylamphetamine

>  <CAS_NUMBER>
74698-37-6

>  <UNII>
307EH7224K

>  <SYNONYMS>
MDI-P; MDIP; MDIPA

$$$$
