
 OpenBabel10282417113D

 58 59  0  0  0  0  0  0  0  0999 V2000
    5.9839    1.0685   -5.0684 N   0  0  0  0  0  0  0  0  0  0  0  0
    6.2233   -0.0924   -5.9336 C   0  0  2  0  0  0  0  0  0  0  0  0
    4.9996    1.9788   -5.7485 C   0  0  1  0  0  0  0  0  0  0  0  0
    6.7914    1.1960   -3.9155 C   0  0  0  0  0  0  0  0  0  0  0  0
    5.8445    0.3979   -7.3440 C   0  0  2  0  0  0  0  0  0  0  0  0
    5.4061   -1.2917   -5.4437 C   0  0  0  0  0  0  0  0  0  0  0  0
    4.6724    1.3024   -7.0878 C   0  0  0  0  0  0  0  0  0  0  0  0
    3.5291    2.0384   -5.2908 C   0  0  0  0  0  0  0  0  0  0  0  0
    6.7607    2.5145   -3.0817 C   0  0  1  0  0  0  0  0  0  0  0  0
    7.5628    0.2884   -3.5822 O   0  0  0  0  0  0  0  0  0  0  0  0
    5.5011   -0.6895   -8.3543 C   0  0  0  0  0  0  0  0  0  0  0  0
    5.3515   -2.3858   -6.4964 C   0  0  0  0  0  0  0  0  0  0  0  0
    2.8958    3.2245   -5.5631 O   0  0  0  0  0  0  0  0  0  0  0  0
    2.9305    1.1015   -4.8264 O   0  0  0  0  0  0  0  0  0  0  0  0
    6.2096    2.3248   -1.7164 N   0  0  0  0  0  0  0  0  0  0  0  0
    8.1407    3.1598   -3.0240 C   0  0  0  0  0  0  0  0  0  0  0  0
    4.7136   -1.8639   -7.7768 C   0  0  0  0  0  0  0  0  0  0  0  0
    5.7076    3.5165   -0.9298 C   0  0  2  0  0  0  0  0  0  0  0  0
    4.2345    3.3267   -0.3645 C   0  0  0  0  0  0  0  0  0  0  0  0
    5.9380    4.9769   -1.5464 C   0  0  0  0  0  0  0  0  0  0  0  0
    3.2413    2.7886   -1.1166 O   0  0  0  0  0  0  0  0  0  0  0  0
    3.9428    3.7144    0.7673 O   0  0  0  0  0  0  0  0  0  0  0  0
    5.4315    6.1306   -0.7301 C   0  0  0  0  0  0  0  0  0  0  0  0
    3.3088    2.5426   -2.5248 C   0  0  0  0  0  0  0  0  0  0  0  0
    6.3226    6.1971    0.4778 C   0  0  0  0  0  0  0  0  0  0  0  0
    3.8428    3.7593   -3.2128 C   0  0  0  0  0  0  0  0  0  0  0  0
    7.2869   -0.3614   -5.9325 H   0  0  0  0  0  0  0  0  0  0  0  0
    6.6412    1.0342   -7.7477 H   0  0  0  0  0  0  0  0  0  0  0  0
    5.4739    2.9565   -5.8858 H   0  0  0  0  0  0  0  0  0  0  0  0
    4.3830   -0.9882   -5.1912 H   0  0  0  0  0  0  0  0  0  0  0  0
    5.8375   -1.6827   -4.5149 H   0  0  0  0  0  0  0  0  0  0  0  0
    4.4673    2.0417   -7.8682 H   0  0  0  0  0  0  0  0  0  0  0  0
    3.7610    0.6861   -7.0252 H   0  0  0  0  0  0  0  0  0  0  0  0
    6.1862    3.1817   -3.6988 H   0  0  0  0  0  0  0  0  0  0  0  0
    6.4420   -1.0700   -8.7623 H   0  0  0  0  0  0  0  0  0  0  0  0
    4.9399   -0.2587   -9.1938 H   0  0  0  0  0  0  0  0  0  0  0  0
    4.7757   -3.2353   -6.1146 H   0  0  0  0  0  0  0  0  0  0  0  0
    6.3653   -2.7454   -6.7069 H   0  0  0  0  0  0  0  0  0  0  0  0
    3.4505    4.0227   -5.6846 H   0  0  0  0  0  0  0  0  0  0  0  0
    5.5862    1.5198   -1.6284 H   0  0  0  0  0  0  0  0  0  0  0  0
    8.4336    3.4566   -4.0340 H   0  0  0  0  0  0  0  0  0  0  0  0
    8.1713    4.0812   -2.4532 H   0  0  0  0  0  0  0  0  0  0  0  0
    8.8955    2.5196   -2.5693 H   0  0  0  0  0  0  0  0  0  0  0  0
    4.6726   -2.6662   -8.5212 H   0  0  0  0  0  0  0  0  0  0  0  0
    3.6752   -1.5692   -7.5772 H   0  0  0  0  0  0  0  0  0  0  0  0
    6.3118    3.4546   -0.0162 H   0  0  0  0  0  0  0  0  0  0  0  0
    6.9907    5.1551   -1.7061 H   0  0  0  0  0  0  0  0  0  0  0  0
    5.5427    5.2141   -2.5386 H   0  0  0  0  0  0  0  0  0  0  0  0
    5.5476    7.0347   -1.3435 H   0  0  0  0  0  0  0  0  0  0  0  0
    4.3646    6.0380   -0.5052 H   0  0  0  0  0  0  0  0  0  0  0  0
    3.9229    1.6478   -2.6768 H   0  0  0  0  0  0  0  0  0  0  0  0
    2.3078    2.3269   -2.8919 H   0  0  0  0  0  0  0  0  0  0  0  0
    7.3720    6.2171    0.1552 H   0  0  0  0  0  0  0  0  0  0  0  0
    6.1067    7.0872    1.0575 H   0  0  0  0  0  0  0  0  0  0  0  0
    6.1908    5.3093    1.1006 H   0  0  0  0  0  0  0  0  0  0  0  0
    4.7397    3.7943   -2.7111 H   0  0  0  0  0  0  0  0  0  0  0  0
    4.3646    3.7533   -4.1575 H   0  0  0  0  0  0  0  0  0  0  0  0
    3.3377    4.7052   -3.0628 H   0  0  0  0  0  0  0  0  0  0  0  0
  1  2  1  0  0  0  0
  1  3  1  0  0  0  0
  1  4  1  0  0  0  0
  2  5  1  0  0  0  0
  2  6  1  0  0  0  0
  2 27  1  1  0  0  0
  3  7  1  0  0  0  0
  3  8  1  0  0  0  0
  3 29  1  6  0  0  0
  4  9  1  0  0  0  0
  4 10  2  0  0  0  0
  5 11  1  0  0  0  0
  5  7  1  0  0  0  0
  5 28  1  6  0  0  0
  6 12  1  0  0  0  0
  6 30  1  0  0  0  0
  6 31  1  0  0  0  0
  7 32  1  0  0  0  0
  7 33  1  0  0  0  0
  8 13  1  0  0  0  0
  8 14  2  0  0  0  0
  9 15  1  0  0  0  0
  9 16  1  0  0  0  0
  9 34  1  6  0  0  0
 11 17  1  0  0  0  0
 11 35  1  0  0  0  0
 11 36  1  0  0  0  0
 12 17  1  0  0  0  0
 12 37  1  0  0  0  0
 12 38  1  0  0  0  0
 13 39  1  0  0  0  0
 15 40  1  0  0  0  0
 16 41  1  0  0  0  0
 16 42  1  0  0  0  0
 16 43  1  0  0  0  0
 17 44  1  0  0  0  0
 17 45  1  0  0  0  0
 18 20  1  0  0  0  0
 18 46  1  1  0  0  0
 18 19  1  0  0  0  0
 18 15  1  0  0  0  0
 19 21  1  0  0  0  0
 19 22  2  0  0  0  0
 20 23  1  0  0  0  0
 20 47  1  0  0  0  0
 20 48  1  0  0  0  0
 21 24  1  0  0  0  0
 23 25  1  0  0  0  0
 23 49  1  0  0  0  0
 23 50  1  0  0  0  0
 24 26  1  0  0  0  0
 24 51  1  0  0  0  0
 24 52  1  0  0  0  0
 25 53  1  0  0  0  0
 25 54  1  0  0  0  0
 25 55  1  0  0  0  0
 26 56  1  0  0  0  0
 26 57  1  0  0  0  0
 26 58  1  0  0  0  0
M  END
>  <DRUGBANK_ID>
DB00790

>  <SECONDARY_ACCESSION_NUMBERS>
APRD01178

>  <COMMON_NAME>
Perindopril

>  <CAS_NUMBER>
82834-16-0

>  <UNII>
Y5GMK36KGY

>  <SYNONYMS>
(2S,3aS,7aS)-1-[(2S)-2-{[(2S)-1-ethoxy-1-oxopentan-2-yl]amino}propanoyl]octahydro-1H-indole-2-carboxylic acid; Perindopril; Perindoprilum

$$$$
