
 OpenBabel10282417233D

 59 62  0  0  1  0  0  0  0  0999 V2000
    0.9693    0.0108   -0.0613 C   0  0  0  0  0  0  0  0  0  0  0  0
    0.4315   -1.1878   -0.8560 C   0  0  0  0  0  0  0  0  0  0  0  0
    1.0034   -2.4707   -0.2562 C   0  0  0  0  0  0  0  0  0  0  0  0
   -1.0643   -1.1868   -0.8877 C   0  0  0  0  0  0  0  0  0  0  0  0
   -1.9512   -2.2482   -0.9046 C   0  0  0  0  0  0  0  0  0  0  0  0
   -1.7450   -3.5948   -0.8909 N   0  0  0  0  0  0  0  0  0  0  0  0
   -2.7757   -4.3929   -0.8877 C   0  0  0  0  0  0  0  0  0  0  0  0
   -2.5488   -5.7571   -0.8399 N   0  0  0  0  0  0  0  0  0  0  0  0
   -1.2115   -6.3399   -0.7082 C   0  0  0  0  0  0  0  0  0  0  0  0
   -1.0998   -7.1423    0.5916 C   0  0  1  0  0  0  0  0  0  0  0  0
   -1.6182   -8.5726    0.4097 C   0  0  0  0  0  0  0  0  0  0  0  0
   -1.7391   -9.2536    1.7750 C   0  0  0  0  0  0  0  0  0  0  0  0
   -0.7246   -8.8094    2.7371 N   0  0  0  0  0  0  0  0  0  0  0  0
    0.5352   -8.4306    2.0849 C   0  0  0  0  0  0  0  0  0  0  0  0
    0.3554   -7.2385    1.1078 C   0  0  2  0  0  0  0  0  0  0  0  0
    0.7275   -6.0168    1.7449 O   0  0  0  0  0  0  0  0  0  0  0  0
   -4.1915   -3.8735   -0.9292 C   0  0  0  0  0  0  0  0  0  0  0  0
   -4.3867   -2.5326   -0.9166 C   0  0  0  0  0  0  0  0  0  0  0  0
   -5.6611   -1.9636   -0.9019 N   0  0  0  0  0  0  0  0  0  0  0  0
   -6.0268   -0.5507   -0.9217 C   0  0  0  0  0  0  0  0  0  0  0  0
   -6.7245   -0.1480   -2.1973 C   0  0  0  0  0  0  0  0  0  0  0  0
   -7.4570   -1.0631   -2.9611 C   0  0  0  0  0  0  0  0  0  0  0  0
   -8.1792   -0.6417   -4.0729 C   0  0  0  0  0  0  0  0  0  0  0  0
   -8.1975    0.7057   -4.4227 C   0  0  0  0  0  0  0  0  0  0  0  0
   -7.4786    1.6327   -3.6718 C   0  0  0  0  0  0  0  0  0  0  0  0
   -6.7178    1.2040   -2.5849 C   0  0  0  0  0  0  0  0  0  0  0  0
   -3.2331   -1.7068   -0.9107 N   0  0  0  0  0  0  0  0  0  0  0  0
   -3.1711   -0.3476   -0.9038 N   0  0  0  0  0  0  0  0  0  0  0  0
   -1.8867   -0.0506   -0.9080 C   0  0  0  0  0  0  0  0  0  0  0  0
    0.6121   -0.0153    0.9755 H   0  0  0  0  0  0  0  0  0  0  0  0
    0.6451    0.9633   -0.4961 H   0  0  0  0  0  0  0  0  0  0  0  0
    2.0623    0.0157   -0.0506 H   0  0  0  0  0  0  0  0  0  0  0  0
    0.7829   -1.0980   -1.8923 H   0  0  0  0  0  0  0  0  0  0  0  0
    0.6377   -2.6192    0.7668 H   0  0  0  0  0  0  0  0  0  0  0  0
    0.7209   -3.3461   -0.8479 H   0  0  0  0  0  0  0  0  0  0  0  0
    2.0954   -2.4414   -0.2347 H   0  0  0  0  0  0  0  0  0  0  0  0
   -3.3323   -6.3914   -0.7668 H   0  0  0  0  0  0  0  0  0  0  0  0
   -1.0318   -6.9891   -1.5726 H   0  0  0  0  0  0  0  0  0  0  0  0
   -0.4358   -5.5695   -0.7362 H   0  0  0  0  0  0  0  0  0  0  0  0
   -1.7025   -6.6303    1.3562 H   0  0  0  0  0  0  0  0  0  0  0  0
   -2.5832   -8.5919   -0.1064 H   0  0  0  0  0  0  0  0  0  0  0  0
   -0.9134   -9.1385   -0.2169 H   0  0  0  0  0  0  0  0  0  0  0  0
   -2.7264   -9.0333    2.1969 H   0  0  0  0  0  0  0  0  0  0  0  0
   -1.6864  -10.3402    1.6405 H   0  0  0  0  0  0  0  0  0  0  0  0
   -0.5586   -9.5472    3.4215 H   0  0  0  0  0  0  0  0  0  0  0  0
    0.9257   -9.2990    1.5404 H   0  0  0  0  0  0  0  0  0  0  0  0
    1.2680   -8.1756    2.8586 H   0  0  0  0  0  0  0  0  0  0  0  0
    1.0515   -7.3776    0.2717 H   0  0  0  0  0  0  0  0  0  0  0  0
    0.1094   -5.8785    2.4851 H   0  0  0  0  0  0  0  0  0  0  0  0
   -4.9989   -4.5881   -0.9605 H   0  0  0  0  0  0  0  0  0  0  0  0
   -6.4406   -2.6076   -0.8823 H   0  0  0  0  0  0  0  0  0  0  0  0
   -6.6898   -0.3513   -0.0736 H   0  0  0  0  0  0  0  0  0  0  0  0
   -5.2025    0.1377   -0.7766 H   0  0  0  0  0  0  0  0  0  0  0  0
   -7.4672   -2.1166   -2.7028 H   0  0  0  0  0  0  0  0  0  0  0  0
   -8.7367   -1.3703   -4.6531 H   0  0  0  0  0  0  0  0  0  0  0  0
   -8.7695    1.0311   -5.2859 H   0  0  0  0  0  0  0  0  0  0  0  0
   -7.5163    2.6884   -3.9266 H   0  0  0  0  0  0  0  0  0  0  0  0
   -6.1193    1.9317   -2.0375 H   0  0  0  0  0  0  0  0  0  0  0  0
   -1.6106    0.9949   -0.9066 H   0  0  0  0  0  0  0  0  0  0  0  0
  1  2  1  0  0  0  0
  1 30  1  0  0  0  0
  1 31  1  0  0  0  0
  1 32  1  0  0  0  0
  2  3  1  0  0  0  0
  2  4  1  0  0  0  0
  2 33  1  0  0  0  0
  3 34  1  0  0  0  0
  3 35  1  0  0  0  0
  3 36  1  0  0  0  0
  4  5  2  0  0  0  0
  4 29  1  0  0  0  0
  5  6  1  0  0  0  0
  5 27  1  0  0  0  0
  6  7  2  0  0  0  0
  7  8  1  0  0  0  0
  7 17  1  0  0  0  0
  8  9  1  0  0  0  0
  8 37  1  0  0  0  0
  9 38  1  0  0  0  0
  9 39  1  0  0  0  0
 10  9  1  0  0  0  0
 10 11  1  0  0  0  0
 10 15  1  0  0  0  0
 10 40  1  1  0  0  0
 11 12  1  0  0  0  0
 11 41  1  0  0  0  0
 11 42  1  0  0  0  0
 12 13  1  0  0  0  0
 12 43  1  0  0  0  0
 12 44  1  0  0  0  0
 13 14  1  0  0  0  0
 13 45  1  0  0  0  0
 14 46  1  0  0  0  0
 14 47  1  0  0  0  0
 15 14  1  0  0  0  0
 15 16  1  0  0  0  0
 15 48  1  6  0  0  0
 16 49  1  0  0  0  0
 17 18  2  0  0  0  0
 17 50  1  0  0  0  0
 18 19  1  0  0  0  0
 18 27  1  0  0  0  0
 19 20  1  0  0  0  0
 19 51  1  0  0  0  0
 20 21  1  0  0  0  0
 20 52  1  0  0  0  0
 20 53  1  0  0  0  0
 21 22  2  0  0  0  0
 21 26  1  0  0  0  0
 22 23  1  0  0  0  0
 22 54  1  0  0  0  0
 23 24  2  0  0  0  0
 23 55  1  0  0  0  0
 24 25  1  0  0  0  0
 24 56  1  0  0  0  0
 25 26  2  0  0  0  0
 25 57  1  0  0  0  0
 26 58  1  0  0  0  0
 27 28  1  0  0  0  0
 28 29  2  0  0  0  0
 29 59  1  0  0  0  0
M  END
>  <DRUGBANK_ID>
DB16061

>  <COMMON_NAME>
Samuraciclib

>  <CAS_NUMBER>
1805833-75-3

>  <UNII>
46D4HS9ODA

>  <SYNONYMS>
Samuraciclib

$$$$
