
 OpenBabel10282417103D

 35 35  0  0  0  0  0  0  0  0999 V2000
    0.9790    0.1304    0.0722 C   0  0  0  0  0  0  0  0  0  0  0  0
    0.4465    0.6800   -1.2296 C   0  0  0  0  0  0  0  0  0  0  0  0
    0.8629   -0.2036   -2.3837 C   0  0  0  0  0  0  0  0  0  0  0  0
    0.4014   -1.6661   -2.3991 C   0  0  3  0  0  0  0  0  0  0  0  0
   -1.1282   -1.7042   -2.2987 C   0  0  0  0  0  0  0  0  0  0  0  0
    0.9766   -2.4969   -3.6284 C   0  0  0  0  0  0  0  0  0  0  0  0
    2.1499   -1.8068   -4.4199 C   0  0  0  0  0  0  0  0  0  0  0  0
    1.8201   -0.4856   -5.0962 C   0  0  0  0  0  0  0  0  0  0  0  0
   -0.1348   -2.8101   -4.6301 C   0  0  0  0  0  0  0  0  0  0  0  0
   -0.6960   -1.9590   -5.3212 O   0  0  0  0  0  0  0  0  0  0  0  0
   -0.5948   -4.0851   -4.7113 N   0  0  0  0  0  0  0  0  0  0  0  0
   -0.1057   -5.1720   -4.0678 C   0  0  0  0  0  0  0  0  0  0  0  0
   -0.5575   -6.2889   -4.2647 O   0  0  0  0  0  0  0  0  0  0  0  0
    0.9282   -4.9528   -3.2169 N   0  0  0  0  0  0  0  0  0  0  0  0
    1.5722   -3.7689   -3.0069 C   0  0  0  0  0  0  0  0  0  0  0  0
    2.5687   -3.7548   -2.2814 O   0  0  0  0  0  0  0  0  0  0  0  0
    2.3731    0.6973   -4.7854 C   0  0  0  0  0  0  0  0  0  0  0  0
    0.6097   -0.8819    0.2545 H   0  0  0  0  0  0  0  0  0  0  0  0
    0.6627    0.7617    0.9018 H   0  0  0  0  0  0  0  0  0  0  0  0
    2.0735    0.0915    0.0465 H   0  0  0  0  0  0  0  0  0  0  0  0
   -0.6402    0.7925   -1.2110 H   0  0  0  0  0  0  0  0  0  0  0  0
    0.8570    1.6827   -1.4073 H   0  0  0  0  0  0  0  0  0  0  0  0
    0.4478    0.2861   -3.2660 H   0  0  0  0  0  0  0  0  0  0  0  0
    1.9584   -0.1877   -2.3908 H   0  0  0  0  0  0  0  0  0  0  0  0
    0.7811   -2.1269   -1.4778 H   0  0  0  0  0  0  0  0  0  0  0  0
   -1.5846   -1.2100   -3.1622 H   0  0  0  0  0  0  0  0  0  0  0  0
   -1.4938   -2.7309   -2.2310 H   0  0  0  0  0  0  0  0  0  0  0  0
   -1.4900   -1.1745   -1.4145 H   0  0  0  0  0  0  0  0  0  0  0  0
    3.0074   -1.6653   -3.7468 H   0  0  0  0  0  0  0  0  0  0  0  0
    2.5029   -2.4935   -5.2004 H   0  0  0  0  0  0  0  0  0  0  0  0
    0.9697   -0.4627   -5.7757 H   0  0  0  0  0  0  0  0  0  0  0  0
   -1.3585   -4.2380   -5.3544 H   0  0  0  0  0  0  0  0  0  0  0  0
    1.3182   -5.7726   -2.7714 H   0  0  0  0  0  0  0  0  0  0  0  0
    1.9231    1.6186   -5.1476 H   0  0  0  0  0  0  0  0  0  0  0  0
    3.1550    0.7858   -4.0376 H   0  0  0  0  0  0  0  0  0  0  0  0
  1  2  1  0  0  0  0
  1 18  1  0  0  0  0
  1 19  1  0  0  0  0
  1 20  1  0  0  0  0
  2  3  1  0  0  0  0
  2 21  1  0  0  0  0
  2 22  1  0  0  0  0
  3  4  1  0  0  0  0
  3 23  1  0  0  0  0
  3 24  1  0  0  0  0
  4  5  1  0  0  0  0
  4  6  1  0  0  0  0
  4 25  1  0  0  0  0
  5 26  1  0  0  0  0
  5 27  1  0  0  0  0
  5 28  1  0  0  0  0
  6  7  1  0  0  0  0
  6  9  1  0  0  0  0
  6 15  1  0  0  0  0
  7  8  1  0  0  0  0
  7 29  1  0  0  0  0
  7 30  1  0  0  0  0
  8 31  1  0  0  0  0
  9 10  2  0  0  0  0
  9 11  1  0  0  0  0
 11 12  1  0  0  0  0
 11 32  1  0  0  0  0
 12 13  2  0  0  0  0
 12 14  1  0  0  0  0
 14 15  1  0  0  0  0
 14 33  1  0  0  0  0
 15 16  2  0  0  0  0
 17  8  2  0  0  0  0
 17 34  1  0  0  0  0
 17 35  1  0  0  0  0
M  END
>  <DRUGBANK_ID>
DB00418

>  <SECONDARY_ACCESSION_NUMBERS>
APRD00497

>  <COMMON_NAME>
Secobarbital

>  <CAS_NUMBER>
76-73-3

>  <UNII>
1P7H87IN75

>  <SYNONYMS>
(Â±)-secobarbital; 5-(1-methylbutyl)-5-(2-propenyl)-2,4,6(1H,3H,5H)-pyrimidinetrione; 5-allyl-5-(1-methylbutyl)-2,4,6(1H,3H,5H)-pyrimidinetrione; 5-allyl-5-(1-methylbutyl)barbituric acid; 5-allyl-5-(1-methylbutyl)pyrimidine-2,4,6(1H,3H,5H)-trione; Quinalbarbitone; Secobarbital; Secobarbitalum; Secobarbitone

$$$$
