
 OpenBabel10282417133D

 84 86  0  0  0  0  0  0  0  0999 V2000
   -1.7091   -0.7409    0.4243 C   0  0  1  0  0  0  0  0  0  0  0  0
   -0.3514   -1.4316   -0.2001 C   0  0  1  0  0  0  0  0  0  0  0  0
   -1.8592    0.5021   -0.2847 O   0  0  0  0  0  0  0  0  0  0  0  0
    0.8000   -0.5407    0.2270 C   0  0  2  0  0  0  0  0  0  0  0  0
   -0.7873    1.4120    0.0039 C   0  0  1  0  0  0  0  0  0  0  0  0
    0.5975    0.8527   -0.3426 C   0  0  1  0  0  0  0  0  0  0  0  0
   -3.0019   -1.3895    0.3805 O   0  0  0  0  0  0  0  0  0  0  0  0
    0.0863   -2.8693    0.0383 N   0  0  0  0  0  0  0  0  0  0  0  0
    2.0308   -1.1051   -0.2356 O   0  0  0  0  0  0  0  0  0  0  0  0
    1.6030    1.7149    0.1866 O   0  0  0  0  0  0  0  0  0  0  0  0
   -1.0385    2.6802   -0.8055 C   0  0  0  0  0  0  0  0  0  0  0  0
   -2.1393    3.3815   -0.2336 O   0  0  0  0  0  0  0  0  0  0  0  0
   -0.1962   -3.7727   -1.0519 C   0  0  0  0  0  0  0  0  0  0  0  0
   -0.8982   -5.1915   -1.1023 C   0  0  0  0  0  0  0  0  0  0  0  0
    0.2670   -3.3903   -2.1951 O   0  0  0  0  0  0  0  0  0  0  0  0
   -1.1940   -4.0809    3.0139 C   0  0  1  0  0  0  0  0  0  0  0  0
   -1.4299   -4.6723    1.6008 C   0  0  1  0  0  0  0  0  0  0  0  0
   -2.5200   -3.6075    3.3943 O   0  0  0  0  0  0  0  0  0  0  0  0
   -2.3488   -3.6710    0.5937 C   0  0  2  0  0  0  0  0  0  0  0  0
   -2.9463   -2.4369    2.6462 C   0  0  1  0  0  0  0  0  0  0  0  0
   -3.1746   -2.6200    1.1652 C   0  0  1  0  0  0  0  0  0  0  0  0
   -0.6501   -5.1265    3.8811 O   0  0  0  0  0  0  0  0  0  0  0  0
   -0.0819   -5.4857    1.0070 N   0  0  0  0  0  0  0  0  0  0  0  0
   -2.8834   -3.8740   -0.7353 O   0  0  0  0  0  0  0  0  0  0  0  0
   -4.3016   -1.9177    3.1097 C   0  0  0  0  0  0  0  0  0  0  0  0
   -5.3855   -2.7310    2.6369 O   0  0  0  0  0  0  0  0  0  0  0  0
   -0.2829   -7.0314    0.5618 C   0  0  0  0  0  0  0  0  0  0  0  0
    0.7304   -8.2246    0.3804 C   0  0  0  0  0  0  0  0  0  0  0  0
   -1.4848   -7.4574    0.4818 O   0  0  0  0  0  0  0  0  0  0  0  0
    2.9992   -5.1212    1.5063 C   0  0  1  0  0  0  0  0  0  0  0  0
    2.2770   -6.4417    1.3280 C   0  0  1  0  0  0  0  0  0  0  0  0
    3.0516   -4.9016    2.9026 O   0  0  0  0  0  0  0  0  0  0  0  0
    0.9240   -6.7597    2.6179 C   0  0  2  0  0  0  0  0  0  0  0  0
    1.7842   -4.5631    3.4898 C   0  0  1  0  0  0  0  0  0  0  0  0
    0.7527   -5.6647    3.6638 C   0  0  1  0  0  0  0  0  0  0  0  0
    4.2738   -5.3581    0.8967 O   0  0  0  0  0  0  0  0  0  0  0  0
    2.3293   -6.6961   -0.4600 N   0  0  0  0  0  0  0  0  0  0  0  0
    0.6621   -8.1092    3.0930 O   0  0  0  0  0  0  0  0  0  0  0  0
    2.0239   -4.1546    4.9300 C   0  0  0  0  0  0  0  0  0  0  0  0
    1.3422   -2.9351    5.1645 O   0  0  0  0  0  0  0  0  0  0  0  0
    2.7887   -7.9084   -1.1734 C   0  0  0  0  0  0  0  0  0  0  0  0
    2.0290   -8.3354   -2.4991 C   0  0  0  0  0  0  0  0  0  0  0  0
    3.5008   -8.7201   -0.6593 O   0  0  0  0  0  0  0  0  0  0  0  0
   -1.5618   -0.4568    1.4671 H   0  0  0  0  0  0  0  0  0  0  0  0
   -0.4900   -1.3890   -1.2814 H   0  0  0  0  0  0  0  0  0  0  0  0
    0.8789   -0.5019    1.3233 H   0  0  0  0  0  0  0  0  0  0  0  0
   -0.8445    1.6561    1.0732 H   0  0  0  0  0  0  0  0  0  0  0  0
    0.7280    0.7972   -1.4306 H   0  0  0  0  0  0  0  0  0  0  0  0
    0.1092   -3.0359    1.0465 H   0  0  0  0  0  0  0  0  0  0  0  0
    1.8665   -1.4438   -1.1397 H   0  0  0  0  0  0  0  0  0  0  0  0
    1.5959    1.6364    1.1573 H   0  0  0  0  0  0  0  0  0  0  0  0
   -0.1667    3.3396   -0.8013 H   0  0  0  0  0  0  0  0  0  0  0  0
   -1.2958    2.4329   -1.8414 H   0  0  0  0  0  0  0  0  0  0  0  0
   -2.8797    2.7468   -0.2132 H   0  0  0  0  0  0  0  0  0  0  0  0
   -1.8002   -5.5772   -1.5778 H   0  0  0  0  0  0  0  0  0  0  0  0
   -0.1312   -5.9086   -1.3393 H   0  0  0  0  0  0  0  0  0  0  0  0
   -1.4517   -5.4407   -0.2147 H   0  0  0  0  0  0  0  0  0  0  0  0
   -0.5365   -3.2090    3.1243 H   0  0  0  0  0  0  0  0  0  0  0  0
   -2.1287   -5.4791    1.7786 H   0  0  0  0  0  0  0  0  0  0  0  0
   -1.6928   -2.9623    0.2683 H   0  0  0  0  0  0  0  0  0  0  0  0
   -2.1848   -1.6790    2.8398 H   0  0  0  0  0  0  0  0  0  0  0  0
   -4.1403   -3.0306    0.8704 H   0  0  0  0  0  0  0  0  0  0  0  0
    0.7301   -4.8844    0.7935 H   0  0  0  0  0  0  0  0  0  0  0  0
   -3.2582   -4.7455   -0.9040 H   0  0  0  0  0  0  0  0  0  0  0  0
   -4.3346   -1.9355    4.1922 H   0  0  0  0  0  0  0  0  0  0  0  0
   -4.4475   -0.9010    2.7232 H   0  0  0  0  0  0  0  0  0  0  0  0
   -5.5569   -2.5369    1.6937 H   0  0  0  0  0  0  0  0  0  0  0  0
    0.5893   -9.1186    0.9730 H   0  0  0  0  0  0  0  0  0  0  0  0
    0.6016   -8.5356   -0.6394 H   0  0  0  0  0  0  0  0  0  0  0  0
    1.7709   -8.2362    0.6826 H   0  0  0  0  0  0  0  0  0  0  0  0
    2.5999   -4.2524    0.9602 H   0  0  0  0  0  0  0  0  0  0  0  0
    2.9828   -7.2013    1.6719 H   0  0  0  0  0  0  0  0  0  0  0  0
   -0.1297   -6.6477    2.4163 H   0  0  0  0  0  0  0  0  0  0  0  0
    1.3860   -3.7296    2.9007 H   0  0  0  0  0  0  0  0  0  0  0  0
    0.8946   -6.2645    4.5682 H   0  0  0  0  0  0  0  0  0  0  0  0
    4.1263   -6.0834    0.2426 H   0  0  0  0  0  0  0  0  0  0  0  0
    1.7619   -6.0959   -1.0539 H   0  0  0  0  0  0  0  0  0  0  0  0
    0.0012   -8.5602    2.5105 H   0  0  0  0  0  0  0  0  0  0  0  0
    1.6250   -4.8869    5.6433 H   0  0  0  0  0  0  0  0  0  0  0  0
    3.0894   -4.0745    5.1324 H   0  0  0  0  0  0  0  0  0  0  0  0
    1.7945   -2.2704    4.6234 H   0  0  0  0  0  0  0  0  0  0  0  0
    2.7392   -8.7292   -3.2360 H   0  0  0  0  0  0  0  0  0  0  0  0
    1.3728   -9.2075   -2.2977 H   0  0  0  0  0  0  0  0  0  0  0  0
    1.3864   -7.5740   -2.9394 H   0  0  0  0  0  0  0  0  0  0  0  0
  1  2  1  0  0  0  0
  1  3  1  0  0  0  0
  1 44  1  1  0  0  0
  1  7  1  0  0  0  0
  2  4  1  0  0  0  0
  2  8  1  0  0  0  0
  2 45  1  6  0  0  0
  3  5  1  0  0  0  0
  4  6  1  0  0  0  0
  4  9  1  0  0  0  0
  4 46  1  1  0  0  0
  5  6  1  0  0  0  0
  5 47  1  1  0  0  0
  5 11  1  0  0  0  0
  6 10  1  0  0  0  0
  6 48  1  6  0  0  0
  8 13  1  0  0  0  0
  8 49  1  0  0  0  0
  9 50  1  0  0  0  0
 10 51  1  0  0  0  0
 11 52  1  0  0  0  0
 11 53  1  0  0  0  0
 12 11  1  0  0  0  0
 12 54  1  0  0  0  0
 13 14  1  0  0  0  0
 13 15  2  0  0  0  0
 14 55  1  0  0  0  0
 14 56  1  0  0  0  0
 14 57  1  0  0  0  0
 16 17  1  0  0  0  0
 16 18  1  0  0  0  0
 16 58  1  6  0  0  0
 16 22  1  0  0  0  0
 17 19  1  0  0  0  0
 17 23  1  0  0  0  0
 17 59  1  1  0  0  0
 18 20  1  0  0  0  0
 19 21  1  0  0  0  0
 19 24  1  0  0  0  0
 19 60  1  6  0  0  0
 20 21  1  0  0  0  0
 20 61  1  1  0  0  0
 20 25  1  0  0  0  0
 21  7  1  0  0  0  0
 21 62  1  6  0  0  0
 23 27  1  0  0  0  0
 23 63  1  0  0  0  0
 24 64  1  0  0  0  0
 25 65  1  0  0  0  0
 25 66  1  0  0  0  0
 26 25  1  0  0  0  0
 26 67  1  0  0  0  0
 27 28  1  0  0  0  0
 27 29  2  0  0  0  0
 28 68  1  0  0  0  0
 28 69  1  0  0  0  0
 28 70  1  0  0  0  0
 30 31  1  0  0  0  0
 30 32  1  0  0  0  0
 30 71  1  6  0  0  0
 30 36  1  0  0  0  0
 31 33  1  0  0  0  0
 31 37  1  0  0  0  0
 31 72  1  1  0  0  0
 32 34  1  0  0  0  0
 33 35  1  0  0  0  0
 33 38  1  0  0  0  0
 33 73  1  6  0  0  0
 34 35  1  0  0  0  0
 34 74  1  6  0  0  0
 34 39  1  0  0  0  0
 35 22  1  0  0  0  0
 35 75  1  1  0  0  0
 36 76  1  0  0  0  0
 37 41  1  0  0  0  0
 37 77  1  0  0  0  0
 38 78  1  0  0  0  0
 39 79  1  0  0  0  0
 39 80  1  0  0  0  0
 40 39  1  0  0  0  0
 40 81  1  0  0  0  0
 41 42  1  0  0  0  0
 41 43  2  0  0  0  0
 42 82  1  0  0  0  0
 42 83  1  0  0  0  0
 42 84  1  0  0  0  0
M  END
>  <DRUGBANK_ID>
DB04194

>  <SECONDARY_ACCESSION_NUMBERS>
EXPT01052

>  <COMMON_NAME>
Triacetylchitotriose

>  <CAS_NUMBER>
13319-32-9

>  <SYNONYMS>
N,N',N''-triacetyl chitotriose β-anomer; β-N,N',N''-triacetylchitotriose

$$$$
