
 OpenBabel10282417123D

 60 62  0  0  1  0  0  0  0  0999 V2000
    0.3964    1.6095    0.1919 C   0  0  2  0  0  0  0  0  0  0  0  0
    0.6297    2.9571   -0.1007 N   0  0  0  0  0  0  0  0  0  0  0  0
    1.6066    1.0574   -0.2141 O   0  0  0  0  0  0  0  0  0  0  0  0
   -0.7908    1.0564   -0.6719 C   0  0  1  0  0  0  0  0  0  0  0  0
    1.1136    3.2001   -1.3818 C   0  0  0  0  0  0  0  0  0  0  0  0
    0.0365    3.8891    0.6926 C   0  0  0  0  0  0  0  0  0  0  0  0
    1.2602   -0.0896   -0.9365 C   0  0  1  0  0  0  0  0  0  0  0  0
   -0.4491   -0.3735   -0.9661 C   0  0  1  0  0  0  0  0  0  0  0  0
   -2.0505    1.2198   -0.0098 O   0  0  0  0  0  0  0  0  0  0  0  0
    0.9994    4.4593   -1.8037 N   0  0  0  0  0  0  0  0  0  0  0  0
    1.5338    2.3717   -2.1992 O   0  0  0  0  0  0  0  0  0  0  0  0
   -0.3279    5.0321    0.1423 C   0  0  0  0  0  0  0  0  0  0  0  0
    2.0575   -0.6322   -2.0946 C   0  0  0  0  0  0  0  0  0  0  0  0
   -1.4491   -1.0636    0.0348 O   0  0  0  0  0  0  0  0  0  0  0  0
    0.0454    5.2962   -1.2776 C   0  0  0  0  0  0  0  0  0  0  0  0
    1.3373   -1.7441   -2.5724 O   0  0  0  0  0  0  0  0  0  0  0  0
   -0.4546    6.1711   -1.9041 O   0  0  0  0  0  0  0  0  0  0  0  0
    1.2796   -3.3125   -1.8445 P   0  0  3  0  0  0  0  0  0  0  0  0
    0.1723   -2.7196   -0.6548 O   0  0  0  0  0  0  0  0  0  0  0  0
    0.2323   -3.6393   -3.0544 O   0  0  0  0  0  0  0  0  0  0  0  0
    1.2279   -4.7161   -1.1930 O   0  0  0  0  0  0  0  0  0  0  0  0
    1.0553   -2.1201    0.7068 P   0  0  3  0  0  0  0  0  0  0  0  0
    2.4686   -2.2352   -0.0888 O   0  0  0  0  0  0  0  0  0  0  0  0
    0.3361   -0.7421    1.0466 O   0  0  0  0  0  0  0  0  0  0  0  0
    1.8455   -1.5836    1.9254 O   0  0  0  0  0  0  0  0  0  0  0  0
    3.2288   -3.4099    0.1181 C   0  0  1  0  0  0  0  0  0  0  0  0
    4.5302   -3.0630    0.5713 O   0  0  0  0  0  0  0  0  0  0  0  0
    2.4811   -4.4721    1.0203 C   0  0  1  0  0  0  0  0  0  0  0  0
    4.4151   -2.3927    1.8253 C   0  0  1  0  0  0  0  0  0  0  0  0
    2.4933   -4.0514    2.4626 C   0  0  2  0  0  0  0  0  0  0  0  0
    1.0254   -4.6325    0.9712 O   0  0  0  0  0  0  0  0  0  0  0  0
    3.7590   -3.3340    2.8648 C   0  0  2  0  0  0  0  0  0  0  0  0
    5.7886   -2.0133    2.3496 C   0  0  0  0  0  0  0  0  0  0  0  0
    2.1573   -5.1581    3.3051 O   0  0  0  0  0  0  0  0  0  0  0  0
    3.4720   -2.5963    4.0484 O   0  0  0  0  0  0  0  0  0  0  0  0
    6.4616   -1.1265    1.4621 O   0  0  0  0  0  0  0  0  0  0  0  0
    0.2440    1.4710    1.2798 H   0  0  0  0  0  0  0  0  0  0  0  0
   -0.8364    1.5147   -1.6533 H   0  0  0  0  0  0  0  0  0  0  0  0
   -0.2064    3.5971    1.7166 H   0  0  0  0  0  0  0  0  0  0  0  0
    1.9031   -0.5124   -0.2124 H   0  0  0  0  0  0  0  0  0  0  0  0
   -0.7382   -0.8179   -1.9138 H   0  0  0  0  0  0  0  0  0  0  0  0
   -2.1069    0.5515    0.7030 H   0  0  0  0  0  0  0  0  0  0  0  0
    1.2152    4.5445   -2.7808 H   0  0  0  0  0  0  0  0  0  0  0  0
   -0.9479    5.7436    0.6568 H   0  0  0  0  0  0  0  0  0  0  0  0
    2.1696    0.1285   -2.8608 H   0  0  0  0  0  0  0  0  0  0  0  0
    3.0875   -0.9448   -1.8564 H   0  0  0  0  0  0  0  0  0  0  0  0
   -1.1858   -1.8792    0.5230 H   0  0  0  0  0  0  0  0  0  0  0  0
    0.5819   -3.2858   -3.8971 H   0  0  0  0  0  0  0  0  0  0  0  0
   -0.6024   -0.5735    1.2528 H   0  0  0  0  0  0  0  0  0  0  0  0
    3.4423   -3.7941   -0.8901 H   0  0  0  0  0  0  0  0  0  0  0  0
    2.9333   -5.4452    0.8133 H   0  0  0  0  0  0  0  0  0  0  0  0
    3.9337   -1.4213    1.6497 H   0  0  0  0  0  0  0  0  0  0  0  0
    1.6175   -3.4337    2.6723 H   0  0  0  0  0  0  0  0  0  0  0  0
    0.6814   -4.6999    0.0541 H   0  0  0  0  0  0  0  0  0  0  0  0
    4.4550   -4.1474    3.0703 H   0  0  0  0  0  0  0  0  0  0  0  0
    5.6779   -1.5105    3.3143 H   0  0  0  0  0  0  0  0  0  0  0  0
    6.3919   -2.9147    2.4591 H   0  0  0  0  0  0  0  0  0  0  0  0
    1.9895   -5.9137    2.7167 H   0  0  0  0  0  0  0  0  0  0  0  0
    2.7875   -1.9417    3.7804 H   0  0  0  0  0  0  0  0  0  0  0  0
    6.4570   -1.5566    0.5896 H   0  0  0  0  0  0  0  0  0  0  0  0
  1  3  1  0  0  0  0
  1  4  1  0  0  0  0
  1 37  1  1  0  0  0
  1  2  1  0  0  0  0
  2  5  1  0  0  0  0
  2  6  1  0  0  0  0
  3  7  1  0  0  0  0
  4  8  1  0  0  0  0
  4  9  1  0  0  0  0
  4 38  1  6  0  0  0
  5 10  1  0  0  0  0
  5 11  2  0  0  0  0
  6 12  2  0  0  0  0
  6 39  1  0  0  0  0
  7  8  1  0  0  0  0
  7 40  1  1  0  0  0
  7 13  1  0  0  0  0
  8 14  1  0  0  0  0
  8 41  1  6  0  0  0
  9 42  1  0  0  0  0
 10 15  1  0  0  0  0
 10 43  1  0  0  0  0
 12 15  1  0  0  0  0
 12 44  1  0  0  0  0
 13 16  1  0  0  0  0
 13 45  1  0  0  0  0
 13 46  1  0  0  0  0
 14 47  1  0  0  0  0
 15 17  2  0  0  0  0
 16 18  1  0  0  0  0
 18 19  1  0  0  0  0
 18 20  1  0  0  0  0
 18 21  2  0  0  0  0
 19 22  1  0  0  0  0
 20 48  1  0  0  0  0
 22 23  1  0  0  0  0
 22 24  1  0  0  0  0
 22 25  2  0  0  0  0
 24 49  1  0  0  0  0
 26 23  1  0  0  0  0
 26 27  1  0  0  0  0
 26 28  1  0  0  0  0
 26 50  1  6  0  0  0
 27 29  1  0  0  0  0
 28 30  1  0  0  0  0
 28 31  1  0  0  0  0
 28 51  1  6  0  0  0
 29 32  1  0  0  0  0
 29 33  1  0  0  0  0
 29 52  1  6  0  0  0
 30 34  1  0  0  0  0
 30 32  1  0  0  0  0
 30 53  1  1  0  0  0
 31 54  1  0  0  0  0
 32 35  1  0  0  0  0
 32 55  1  1  0  0  0
 33 36  1  0  0  0  0
 33 56  1  0  0  0  0
 33 57  1  0  0  0  0
 34 58  1  0  0  0  0
 35 59  1  0  0  0  0
 36 60  1  0  0  0  0
M  END
>  <DRUGBANK_ID>
DB01861

>  <SECONDARY_ACCESSION_NUMBERS>
EXPT01669; EXPT03198; DB04355

>  <COMMON_NAME>
Uridine diphosphate glucose

>  <CAS_NUMBER>
133-89-1

>  <UNII>
V50K1D7P4Y

>  <SYNONYMS>
5'-Diphosphoglucose; Co-galactoisomerase; Co-waldenase; Cogalactoisomerase; UDP-Glucose; UDPG; Uridine 5'-pyrophosphate glucose ester; Uridine-5'-Diphosphoglucose

$$$$
