629
 OpenBabel10282417103D

 22 22  0  0  0  0  0  0  0  0999 V2000
   -2.6197    0.8410    0.0003 Cl  0  0  0  0  0  0  0  0  0  0  0  0
    2.9922   -0.0915   -0.0760 Cl  0  0  0  0  0  0  0  0  0  0  0  0
    1.1570    3.0116    0.0243 N   0  0  0  0  0  0  0  0  0  0  0  0
    2.3663    2.3974    0.0868 N   0  0  0  0  0  0  0  0  0  0  0  0
    3.5844    4.3881   -0.0326 N   0  0  0  0  0  0  0  0  0  0  0  0
    4.6448    2.3981    0.0931 N   0  0  0  0  0  0  0  0  0  0  0  0
    0.1777    0.6056   -0.0039 C   0  0  0  0  0  0  0  0  0  0  0  0
   -1.1046   -0.0169    0.0000 C   0  0  0  0  0  0  0  0  0  0  0  0
    1.2782   -0.2983   -0.0105 C   0  0  0  0  0  0  0  0  0  0  0  0
   -1.2560   -1.4226    0.0003 C   0  0  0  0  0  0  0  0  0  0  0  0
    1.0890   -1.6884    0.0086 C   0  0  0  0  0  0  0  0  0  0  0  0
   -0.1569   -2.2571    0.0074 C   0  0  0  0  0  0  0  0  0  0  0  0
    0.1861    2.1340   -0.0047 C   0  0  0  0  0  0  0  0  0  0  0  0
    3.4642    3.0563    0.0542 C   0  0  0  0  0  0  0  0  0  0  0  0
    4.4561    4.8617    0.0954 H   0  0  0  0  0  0  0  0  0  0  0  0
    2.7025    4.8762    0.0458 H   0  0  0  0  0  0  0  0  0  0  0  0
    4.5807    1.3829    0.0608 H   0  0  0  0  0  0  0  0  0  0  0  0
    5.5526    2.8149    0.0392 H   0  0  0  0  0  0  0  0  0  0  0  0
   -2.2405   -1.8841   -0.0034 H   0  0  0  0  0  0  0  0  0  0  0  0
    1.9603   -2.3435    0.0133 H   0  0  0  0  0  0  0  0  0  0  0  0
   -0.2346   -3.3378    0.0066 H   0  0  0  0  0  0  0  0  0  0  0  0
   -0.8039    2.6259   -0.0276 H   0  0  0  0  0  0  0  0  0  0  0  0
  1  8  1  0  0  0  0
  2  9  1  0  0  0  0
  3  4  1  0  0  0  0
  3 13  2  3  0  0  0
  4 14  2  0  0  0  0
  5 14  1  0  0  0  0
  5 15  1  0  0  0  0
  5 16  1  0  0  0  0
  6 14  1  0  0  0  0
  6 17  1  0  0  0  0
  6 18  1  0  0  0  0
  7  8  2  0  0  0  0
  7  9  1  0  0  0  0
  7 13  1  0  0  0  0
  8 10  1  0  0  0  0
  9 11  2  0  0  0  0
 10 12  2  0  0  0  0
 10 19  1  0  0  0  0
 11 12  1  0  0  0  0
 11 20  1  0  0  0  0
 12 21  1  0  0  0  0
 13 22  1  0  0  0  0
M  END
>  <DRUGBANK_ID>
DB00629

>  <SECONDARY_ACCESSION_NUMBERS>
APRD00487

>  <COMMON_NAME>
Guanabenz

>  <CAS_NUMBER>
5051-62-7

>  <UNII>
GGD30112WC

>  <SYNONYMS>
Guanabenz; Guanabenzo; Guanabenzum

$$$$
