
 OpenBabel10282417153D

 55 58  0  0  1  0  0  0  0  0999 V2000
   -0.9667    0.1430    1.1007 C   0  0  0  0  0  0  0  0  0  0  0  0
   -0.6858   -1.2693    1.7488 C   0  0  2  0  0  0  0  0  0  0  0  0
   -1.7703   -1.9061    3.2811 C   0  0  0  0  0  0  0  0  0  0  0  0
   -2.6607   -3.5286    2.9794 C   0  0  0  0  0  0  0  0  0  0  0  0
   -1.5113   -4.5529    2.6307 C   0  0  2  0  0  0  0  0  0  0  0  0
   -0.5314   -3.5132    2.2754 C   0  0  0  0  0  0  0  0  0  0  0  0
   -1.4401   -2.4238    1.2651 C   0  0  2  0  0  0  0  0  0  0  0  0
   -1.7620   -2.9606   -0.1094 C   0  0  0  0  0  0  0  0  0  0  0  0
   -0.4977   -3.4368   -0.8494 C   0  0  0  0  0  0  0  0  0  0  0  0
    0.2819   -2.1489   -1.2165 C   0  0  2  0  0  0  0  0  0  0  0  0
    0.6836   -1.6482    0.4812 C   0  0  2  0  0  0  0  0  0  0  0  0
    1.5863   -0.4833    0.0951 C   0  0  0  0  0  0  0  0  0  0  0  0
    2.7976   -0.9117   -0.6728 C   0  0  0  0  0  0  0  0  0  0  0  0
    2.4742   -1.4308   -2.0364 C   0  0  1  0  0  0  0  0  0  0  0  0
    1.5163   -2.2501   -2.6617 C   0  0  1  0  0  0  0  0  0  0  0  0
    2.9206   -1.3868   -3.7685 C   0  0  0  0  0  0  0  0  0  0  0  0
    4.3358   -1.5033   -3.1366 C   0  0  0  0  0  0  0  0  0  0  0  0
    3.9153   -2.6720   -2.4027 C   0  0  1  0  0  0  0  0  0  0  0  0
    3.3109   -4.0636   -2.1300 C   0  0  0  0  0  0  0  0  0  0  0  0
    2.5870   -4.9749   -2.0141 C   0  0  0  0  0  0  0  0  0  0  0  0
    4.4622   -3.3073   -3.6814 O   0  0  0  0  0  0  0  0  0  0  0  0
    1.1615   -0.3653   -2.9714 C   0  0  0  0  0  0  0  0  0  0  0  0
   -1.4286   -5.3759    1.4934 O   0  0  0  0  0  0  0  0  0  0  0  0
   -1.8439    0.7752    1.2185 H   0  0  0  0  0  0  0  0  0  0  0  0
   -0.9073    0.0457    0.0006 H   0  0  0  0  0  0  0  0  0  0  0  0
   -0.1027    0.7853    1.3481 H   0  0  0  0  0  0  0  0  0  0  0  0
   -1.4369   -2.5991    4.1146 H   0  0  0  0  0  0  0  0  0  0  0  0
   -1.5837   -1.2862    4.1910 H   0  0  0  0  0  0  0  0  0  0  0  0
   -3.2627   -3.9295    3.8127 H   0  0  0  0  0  0  0  0  0  0  0  0
   -3.4219   -3.4246    2.1911 H   0  0  0  0  0  0  0  0  0  0  0  0
   -1.3737   -5.2490    3.4626 H   0  0  0  0  0  0  0  0  0  0  0  0
    0.0711   -3.3267    3.2026 H   0  0  0  0  0  0  0  0  0  0  0  0
    0.3531   -3.6151    1.7047 H   0  0  0  0  0  0  0  0  0  0  0  0
   -2.4689   -2.0273    1.4688 H   0  0  0  0  0  0  0  0  0  0  0  0
   -2.5122   -3.7655    0.0118 H   0  0  0  0  0  0  0  0  0  0  0  0
   -2.3543   -2.2140   -0.6582 H   0  0  0  0  0  0  0  0  0  0  0  0
   -0.7834   -4.2338   -1.5441 H   0  0  0  0  0  0  0  0  0  0  0  0
    0.1908   -3.9757   -0.1902 H   0  0  0  0  0  0  0  0  0  0  0  0
   -0.5079   -1.4906   -1.6126 H   0  0  0  0  0  0  0  0  0  0  0  0
    1.3638   -2.3840    0.9107 H   0  0  0  0  0  0  0  0  0  0  0  0
    1.8700    0.2555    0.8356 H   0  0  0  0  0  0  0  0  0  0  0  0
    1.0059    0.0880   -0.6113 H   0  0  0  0  0  0  0  0  0  0  0  0
    3.5266   -1.5884   -0.2023 H   0  0  0  0  0  0  0  0  0  0  0  0
    3.3818    0.0073   -0.7854 H   0  0  0  0  0  0  0  0  0  0  0  0
    1.5981   -3.2730   -2.5404 H   0  0  0  0  0  0  0  0  0  0  0  0
    2.9438   -1.5088   -4.8619 H   0  0  0  0  0  0  0  0  0  0  0  0
    3.0054   -0.2501   -3.7581 H   0  0  0  0  0  0  0  0  0  0  0  0
    5.2054   -1.4613   -3.8234 H   0  0  0  0  0  0  0  0  0  0  0  0
    4.6186   -0.7021   -2.4269 H   0  0  0  0  0  0  0  0  0  0  0  0
    1.6125   -5.4865   -1.8635 H   0  0  0  0  0  0  0  0  0  0  0  0
    3.7737   -3.5792   -4.3126 H   0  0  0  0  0  0  0  0  0  0  0  0
    1.3907    0.1070   -3.9513 H   0  0  0  0  0  0  0  0  0  0  0  0
    0.2829   -0.9568   -3.4032 H   0  0  0  0  0  0  0  0  0  0  0  0
    0.7382    0.4136   -2.3659 H   0  0  0  0  0  0  0  0  0  0  0  0
   -1.1385   -4.7977    0.7774 H   0  0  0  0  0  0  0  0  0  0  0  0
  1 24  1  0  0  0  0
  1 25  1  0  0  0  0
  1 26  1  0  0  0  0
  2  3  1  0  0  0  0
  2  7  1  0  0  0  0
  2 11  1  0  0  0  0
  2  1  1  1  0  0  0
  3  4  1  0  0  0  0
  3 27  1  0  0  0  0
  3 28  1  0  0  0  0
  4  5  1  0  0  0  0
  4 29  1  0  0  0  0
  4 30  1  0  0  0  0
  5  6  1  0  0  0  0
  5 31  1  1  0  0  0
  5 23  1  0  0  0  0
  6 32  1  0  0  0  0
  6 33  1  0  0  0  0
  7  6  1  0  0  0  0
  7  8  1  0  0  0  0
  7 34  1  1  0  0  0
  8  9  1  0  0  0  0
  8 35  1  0  0  0  0
  8 36  1  0  0  0  0
  9 37  1  0  0  0  0
  9 38  1  0  0  0  0
 10  9  1  0  0  0  0
 10 11  1  0  0  0  0
 10 15  1  0  0  0  0
 10 39  1  1  0  0  0
 11 12  1  0  0  0  0
 11 40  1  6  0  0  0
 12 13  1  0  0  0  0
 12 41  1  0  0  0  0
 12 42  1  0  0  0  0
 13 14  1  0  0  0  0
 13 43  1  0  0  0  0
 13 44  1  0  0  0  0
 14 15  1  0  0  0  0
 14 18  1  0  0  0  0
 14 22  1  1  0  0  0
 15 16  1  0  0  0  0
 15 45  1  6  0  0  0
 16 17  1  0  0  0  0
 16 46  1  0  0  0  0
 16 47  1  0  0  0  0
 17 18  1  0  0  0  0
 17 48  1  0  0  0  0
 17 49  1  0  0  0  0
 18 21  1  0  0  0  0
 18 19  1  1  0  0  0
 19 20  3  0  0  0  0
 20 50  1  0  0  0  0
 21 51  1  0  0  0  0
 22 52  1  0  0  0  0
 22 53  1  0  0  0  0
 22 54  1  0  0  0  0
 23 55  1  0  0  0  0
M  END
>  <DRUGBANK_ID>
DB06307

>  <COMMON_NAME>
Apoptone

>  <CAS_NUMBER>
183387-50-0

>  <UNII>
891O182ZP5

$$$$
