PU6
 OpenBabel10282417173D

 43 46  0  0  0  0  0  0  0  0999 V2000
    1.4696    0.0940   -0.1965 C   0  0  0  0  0  0  0  0  0  0  0  0
    1.0131   -0.0845   -1.6546 C   0  0  0  0  0  0  0  0  0  0  0  0
    1.1417   -1.4851   -2.1941 C   0  0  0  0  0  0  0  0  0  0  0  0
    0.3563   -2.5202   -1.3683 C   0  0  0  0  0  0  0  0  0  0  0  0
   -1.1041   -2.4475   -1.3784 N   0  0  0  0  0  0  0  0  0  0  0  0
   -1.8891   -3.4857   -1.8617 C   0  0  0  0  0  0  0  0  0  0  0  0
   -1.5018   -4.6503   -2.4413 N   0  0  0  0  0  0  0  0  0  0  0  0
   -2.5809   -5.3869   -2.7956 C   0  0  0  0  0  0  0  0  0  0  0  0
   -3.8974   -5.1095   -2.6492 N   0  0  0  0  0  0  0  0  0  0  0  0
   -3.1874   -3.1044   -1.6362 C   0  0  0  0  0  0  0  0  0  0  0  0
   -4.2189   -3.9412   -2.0520 C   0  0  0  0  0  0  0  0  0  0  0  0
   -5.5383   -3.5936   -1.8561 N   0  0  0  0  0  0  0  0  0  0  0  0
   -3.2473   -1.8981   -0.9975 N   0  0  0  0  0  0  0  0  0  0  0  0
   -2.0085   -1.4943   -0.8594 C   0  0  0  0  0  0  0  0  0  0  0  0
   -1.7488   -0.1759   -0.1667 C   0  0  0  0  0  0  0  0  0  0  0  0
   -2.1292    1.0854   -0.9665 C   0  0  0  0  0  0  0  0  0  0  0  0
   -3.4481    1.3039   -1.3958 C   0  0  0  0  0  0  0  0  0  0  0  0
   -3.7318    2.4809   -2.0747 C   0  0  0  0  0  0  0  0  0  0  0  0
   -1.1646    2.0874   -1.2910 C   0  0  0  0  0  0  0  0  0  0  0  0
   -4.9489    2.8973   -2.5329 O   0  0  0  0  0  0  0  0  0  0  0  0
   -1.4577    3.2320   -2.0253 C   0  0  0  0  0  0  0  0  0  0  0  0
   -2.7653    3.4271   -2.3424 C   0  0  0  0  0  0  0  0  0  0  0  0
   -3.2652    4.5679   -2.8831 O   0  0  0  0  0  0  0  0  0  0  0  0
   -4.6675    4.3036   -2.7159 C   0  0  0  0  0  0  0  0  0  0  0  0
    1.1607   -0.7221    0.4656 H   0  0  0  0  0  0  0  0  0  0  0  0
    1.0612    1.0050    0.2592 H   0  0  0  0  0  0  0  0  0  0  0  0
    2.5522    0.1644   -0.1328 H   0  0  0  0  0  0  0  0  0  0  0  0
   -0.0385    0.0986   -1.8187 H   0  0  0  0  0  0  0  0  0  0  0  0
    1.4958    0.6671   -2.2851 H   0  0  0  0  0  0  0  0  0  0  0  0
    0.7712   -1.4934   -3.2278 H   0  0  0  0  0  0  0  0  0  0  0  0
    2.2085   -1.7260   -2.2286 H   0  0  0  0  0  0  0  0  0  0  0  0
    0.6430   -3.4987   -1.7779 H   0  0  0  0  0  0  0  0  0  0  0  0
    0.6771   -2.5490   -0.3235 H   0  0  0  0  0  0  0  0  0  0  0  0
   -2.3672   -6.3457   -3.2694 H   0  0  0  0  0  0  0  0  0  0  0  0
   -5.7134   -2.6799   -1.4465 H   0  0  0  0  0  0  0  0  0  0  0  0
   -6.2705   -4.1774   -2.2036 H   0  0  0  0  0  0  0  0  0  0  0  0
   -2.2755   -0.1563    0.7966 H   0  0  0  0  0  0  0  0  0  0  0  0
   -0.7285   -0.1469    0.1529 H   0  0  0  0  0  0  0  0  0  0  0  0
   -4.2313    0.5865   -1.1714 H   0  0  0  0  0  0  0  0  0  0  0  0
   -0.1270    2.0088   -1.0048 H   0  0  0  0  0  0  0  0  0  0  0  0
   -0.6931    3.9484   -2.3017 H   0  0  0  0  0  0  0  0  0  0  0  0
   -5.0237    4.8236   -1.8161 H   0  0  0  0  0  0  0  0  0  0  0  0
   -5.1942    4.7101   -3.5843 H   0  0  0  0  0  0  0  0  0  0  0  0
  1  2  1  0  0  0  0
  1 25  1  0  0  0  0
  1 26  1  0  0  0  0
  1 27  1  0  0  0  0
  2  3  1  0  0  0  0
  2 28  1  0  0  0  0
  2 29  1  0  0  0  0
  3  4  1  0  0  0  0
  3 30  1  0  0  0  0
  3 31  1  0  0  0  0
  4  5  1  0  0  0  0
  4 32  1  0  0  0  0
  4 33  1  0  0  0  0
  5  6  1  0  0  0  0
  5 14  1  0  0  0  0
  6  7  2  0  0  0  0
  6 10  1  0  0  0  0
  7  8  1  0  0  0  0
  8  9  2  0  0  0  0
  8 34  1  0  0  0  0
  9 11  1  0  0  0  0
 10 11  2  0  0  0  0
 10 13  1  0  0  0  0
 11 12  1  0  0  0  0
 12 35  1  0  0  0  0
 12 36  1  0  0  0  0
 13 14  2  0  0  0  0
 14 15  1  0  0  0  0
 15 16  1  0  0  0  0
 15 37  1  0  0  0  0
 15 38  1  0  0  0  0
 16 17  2  0  0  0  0
 16 19  1  0  0  0  0
 17 18  1  0  0  0  0
 17 39  1  0  0  0  0
 18 20  1  0  0  0  0
 18 22  2  0  0  0  0
 19 21  2  0  0  0  0
 19 40  1  0  0  0  0
 20 24  1  0  0  0  0
 21 22  1  0  0  0  0
 21 41  1  0  0  0  0
 22 23  1  0  0  0  0
 23 24  1  0  0  0  0
 24 42  1  0  0  0  0
 24 43  1  0  0  0  0
M  END
>  <DRUGBANK_ID>
DB08436

>  <COMMON_NAME>
8-BENZO[1,3]DIOXOL-,5-YLMETHYL-9-BUTYL-9H-

$$$$
