
 OpenBabel10282417133D

 56 59  0  0  0  0  0  0  0  0999 V2000
   -2.3060   -0.9400   -0.0151 N   0  0  0  0  0  0  0  0  0  0  0  0
   -1.1190   -0.2620    0.0219 C   0  0  0  0  0  0  0  0  0  0  0  0
   -1.1501    1.0637    0.0933 N   0  0  0  0  0  0  0  0  0  0  0  0
    0.0426    1.6473    0.1796 C   0  0  0  0  0  0  0  0  0  0  0  0
    0.1116    3.0484    0.2665 N   0  0  0  0  0  0  0  0  0  0  0  0
    1.2847    3.8168    0.0398 C   0  0  0  0  0  0  0  0  0  0  0  0
    1.5924    4.7383    1.0479 C   0  0  0  0  0  0  0  0  0  0  0  0
    2.7943    5.4332    1.0140 C   0  0  0  0  0  0  0  0  0  0  0  0
    3.6944    5.2464   -0.0438 C   0  0  0  0  0  0  0  0  0  0  0  0
    3.3835    4.3689   -1.1132 C   0  0  0  0  0  0  0  0  0  0  0  0
    2.1497    3.6672   -1.1046 C   0  0  0  0  0  0  0  0  0  0  0  0
    1.8665    2.8425   -2.2414 C   0  0  0  0  0  0  0  0  0  0  0  0
    0.5844    2.3430   -2.3172 O   0  0  0  0  0  0  0  0  0  0  0  0
    2.7694    2.5697   -3.2967 C   0  0  0  0  0  0  0  0  0  0  0  0
    2.4946    1.6759   -4.3710 N   0  0  0  0  0  0  0  0  0  0  0  0
    1.4065    1.0705   -4.3067 N   0  0  0  0  0  0  0  0  0  0  0  0
    1.1946    0.1864   -5.3814 C   0  0  0  0  0  0  0  0  0  0  0  0
    2.1916   -0.7418   -5.7258 C   0  0  0  0  0  0  0  0  0  0  0  0
    1.9955   -1.6826   -6.7376 C   0  0  0  0  0  0  0  0  0  0  0  0
    0.7712   -1.7518   -7.3939 C   0  0  0  0  0  0  0  0  0  0  0  0
   -0.2562   -0.8798   -7.0366 C   0  0  0  0  0  0  0  0  0  0  0  0
   -0.0269    0.1144   -6.0679 C   0  0  0  0  0  0  0  0  0  0  0  0
   -1.2959    1.3386   -5.8490 S   0  0  0  0  0  0  0  0  0  0  0  0
   -1.4470    1.9714   -7.3319 O   0  0  0  0  0  0  0  0  0  0  0  0
   -2.5297    0.6420   -5.5400 O   0  0  0  0  0  0  0  0  0  0  0  0
   -0.8027    2.4136   -5.0262 O   0  0  0  0  0  0  0  0  0  0  0  0
    3.9788    3.2664   -3.2478 C   0  0  0  0  0  0  0  0  0  0  0  0
    4.2749    4.1690   -2.1942 C   0  0  0  0  0  0  0  0  0  0  0  0
    5.2025    3.0767   -4.5294 S   0  0  0  0  0  0  0  0  0  0  0  0
    5.3607    4.5782   -5.1095 O   0  0  0  0  0  0  0  0  0  0  0  0
    6.4444    2.7184   -3.8789 O   0  0  0  0  0  0  0  0  0  0  0  0
    4.6792    2.3007   -5.6305 O   0  0  0  0  0  0  0  0  0  0  0  0
    3.1891    6.5369    2.3537 S   0  0  0  0  0  0  0  0  0  0  0  0
    4.5770    5.9524    2.9406 O   0  0  0  0  0  0  0  0  0  0  0  0
    3.4522    7.8363    1.7725 O   0  0  0  0  0  0  0  0  0  0  0  0
    2.2063    6.3482    3.3961 O   0  0  0  0  0  0  0  0  0  0  0  0
    1.1924    0.9754    0.1922 N   0  0  0  0  0  0  0  0  0  0  0  0
    1.1063   -0.3279    0.0577 C   0  0  0  0  0  0  0  0  0  0  0  0
    2.2857   -1.0102   -0.0388 N   0  0  0  0  0  0  0  0  0  0  0  0
   -0.0224   -1.0043   -0.0075 N   0  0  0  0  0  0  0  0  0  0  0  0
   -2.2685   -1.9447   -0.0552 H   0  0  0  0  0  0  0  0  0  0  0  0
   -3.1646   -0.4204   -0.0500 H   0  0  0  0  0  0  0  0  0  0  0  0
   -0.7623    3.4780   -0.0077 H   0  0  0  0  0  0  0  0  0  0  0  0
    0.9073    4.8462    1.8872 H   0  0  0  0  0  0  0  0  0  0  0  0
    4.6340    5.8012   -0.0350 H   0  0  0  0  0  0  0  0  0  0  0  0
    0.5710    1.6305   -2.9797 H   0  0  0  0  0  0  0  0  0  0  0  0
    3.1443   -0.7243   -5.1995 H   0  0  0  0  0  0  0  0  0  0  0  0
    2.7987   -2.3687   -6.9963 H   0  0  0  0  0  0  0  0  0  0  0  0
    0.6234   -2.4823   -8.1866 H   0  0  0  0  0  0  0  0  0  0  0  0
   -1.2307   -0.9792   -7.5149 H   0  0  0  0  0  0  0  0  0  0  0  0
   -0.7020    2.5853   -7.5005 H   0  0  0  0  0  0  0  0  0  0  0  0
    5.2260    4.7079   -2.2136 H   0  0  0  0  0  0  0  0  0  0  0  0
    4.6116    4.7765   -5.7093 H   0  0  0  0  0  0  0  0  0  0  0  0
    4.3907    5.1716    3.5028 H   0  0  0  0  0  0  0  0  0  0  0  0
    2.2607   -2.0130   -0.0048 H   0  0  0  0  0  0  0  0  0  0  0  0
    3.1331   -0.4716    0.0214 H   0  0  0  0  0  0  0  0  0  0  0  0
  1  2  1  0  0  0  0
  1 41  1  0  0  0  0
  1 42  1  0  0  0  0
  2  3  2  0  0  0  0
  2 40  1  0  0  0  0
  3  4  1  0  0  0  0
  4  5  1  0  0  0  0
  4 37  2  0  0  0  0
  5  6  1  0  0  0  0
  5 43  1  0  0  0  0
  6  7  2  0  0  0  0
  6 11  1  0  0  0  0
  7  8  1  0  0  0  0
  7 44  1  0  0  0  0
  8  9  2  0  0  0  0
  8 33  1  0  0  0  0
  9 10  1  0  0  0  0
  9 45  1  0  0  0  0
 10 11  2  0  0  0  0
 10 28  1  0  0  0  0
 11 12  1  0  0  0  0
 12 13  1  0  0  0  0
 12 14  2  0  0  0  0
 13 46  1  0  0  0  0
 14 15  1  0  0  0  0
 14 27  1  0  0  0  0
 15 16  2  0  0  0  0
 16 17  1  0  0  0  0
 17 18  2  0  0  0  0
 17 22  1  0  0  0  0
 18 19  1  0  0  0  0
 18 47  1  0  0  0  0
 19 20  2  0  0  0  0
 19 48  1  0  0  0  0
 20 21  1  0  0  0  0
 20 49  1  0  0  0  0
 21 22  2  0  0  0  0
 21 50  1  0  0  0  0
 22 23  1  0  0  0  0
 23 24  1  0  0  0  0
 23 25  2  0  0  0  0
 23 26  2  0  0  0  0
 24 51  1  0  0  0  0
 27 28  2  0  0  0  0
 27 29  1  0  0  0  0
 28 52  1  0  0  0  0
 29 30  1  0  0  0  0
 29 31  2  0  0  0  0
 29 32  2  0  0  0  0
 30 53  1  0  0  0  0
 33 34  1  0  0  0  0
 33 35  2  0  0  0  0
 33 36  2  0  0  0  0
 34 54  1  0  0  0  0
 37 38  1  0  0  0  0
 38 39  1  0  0  0  0
 38 40  2  0  0  0  0
 39 55  1  0  0  0  0
 39 56  1  0  0  0  0
M  END
>  <DRUGBANK_ID>
DB03474

>  <SECONDARY_ACCESSION_NUMBERS>
EXPT02815

>  <COMMON_NAME>
Reactive Red 1 Dye

$$$$
