1478
 OpenBabel10282417113D

 39 40  0  0  0  0  0  0  0  0999 V2000
    1.2019    0.0602   -0.0854 O   0  0  0  0  0  0  0  0  0  0  0  0
    3.0217   -0.9422    0.7163 O   0  0  0  0  0  0  0  0  0  0  0  0
   -1.3515   -1.1280   -2.0249 N   0  0  0  0  0  0  0  0  0  0  0  0
    0.2520    0.9948   -0.7451 C   0  0  0  0  0  0  0  0  0  0  0  0
   -1.1050    0.5353   -0.1469 C   0  0  0  0  0  0  0  0  0  0  0  0
    0.0574    0.7442   -2.2693 C   0  0  0  0  0  0  0  0  0  0  0  0
   -1.3976   -0.9333   -0.5640 C   0  0  0  0  0  0  0  0  0  0  0  0
   -0.0664   -0.7190   -2.5653 C   0  0  0  0  0  0  0  0  0  0  0  0
    0.6282    2.4422   -0.4238 C   0  0  0  0  0  0  0  0  0  0  0  0
   -1.5726   -2.5158   -2.4043 C   0  0  0  0  0  0  0  0  0  0  0  0
    0.7955    2.8816    0.8978 C   0  0  0  0  0  0  0  0  0  0  0  0
    1.0210    3.3211   -1.4568 C   0  0  0  0  0  0  0  0  0  0  0  0
    2.5412   -0.0392    0.0517 C   0  0  0  0  0  0  0  0  0  0  0  0
    1.3826    4.1267    1.1579 C   0  0  0  0  0  0  0  0  0  0  0  0
    1.6889    4.5103   -1.1973 C   0  0  0  0  0  0  0  0  0  0  0  0
    3.4313    0.9716   -0.6178 C   0  0  0  0  0  0  0  0  0  0  0  0
    1.8423    4.9295    0.1126 C   0  0  0  0  0  0  0  0  0  0  0  0
    3.2797    0.9287   -2.1095 C   0  0  0  0  0  0  0  0  0  0  0  0
   -1.9144    1.1912   -0.4924 H   0  0  0  0  0  0  0  0  0  0  0  0
   -1.0982    0.5805    0.9496 H   0  0  0  0  0  0  0  0  0  0  0  0
   -0.8266    1.3058   -2.6059 H   0  0  0  0  0  0  0  0  0  0  0  0
    0.8009    1.0977   -2.9735 H   0  0  0  0  0  0  0  0  0  0  0  0
   -2.3927   -1.2046   -0.1970 H   0  0  0  0  0  0  0  0  0  0  0  0
   -0.6794   -1.6030   -0.0722 H   0  0  0  0  0  0  0  0  0  0  0  0
    0.7773   -1.2909   -2.1536 H   0  0  0  0  0  0  0  0  0  0  0  0
   -0.0274   -0.8453   -3.6543 H   0  0  0  0  0  0  0  0  0  0  0  0
   -1.5518   -2.6064   -3.4980 H   0  0  0  0  0  0  0  0  0  0  0  0
   -0.8002   -3.1754   -1.9945 H   0  0  0  0  0  0  0  0  0  0  0  0
   -2.5563   -2.8484   -2.0708 H   0  0  0  0  0  0  0  0  0  0  0  0
    0.5325    2.2392    1.7366 H   0  0  0  0  0  0  0  0  0  0  0  0
    0.9089    3.0621   -2.5052 H   0  0  0  0  0  0  0  0  0  0  0  0
    1.5286    4.4543    2.1838 H   0  0  0  0  0  0  0  0  0  0  0  0
    2.1099    5.0768   -2.0241 H   0  0  0  0  0  0  0  0  0  0  0  0
    3.2198    1.9583   -0.2084 H   0  0  0  0  0  0  0  0  0  0  0  0
    4.4711    0.7541   -0.3604 H   0  0  0  0  0  0  0  0  0  0  0  0
    2.3267    5.8798    0.3135 H   0  0  0  0  0  0  0  0  0  0  0  0
    2.3131    1.3212   -2.2847 H   0  0  0  0  0  0  0  0  0  0  0  0
    3.9077    1.6249   -2.6623 H   0  0  0  0  0  0  0  0  0  0  0  0
    3.2952   -0.0771   -2.5386 H   0  0  0  0  0  0  0  0  0  0  0  0
  1  4  1  0  0  0  0
  1 13  1  0  0  0  0
  2 13  2  0  0  0  0
  3  7  1  0  0  0  0
  3  8  1  0  0  0  0
  3 10  1  0  0  0  0
  4  5  1  0  0  0  0
  4  6  1  0  0  0  0
  4  9  1  0  0  0  0
  5  7  1  0  0  0  0
  5 19  1  0  0  0  0
  5 20  1  0  0  0  0
  6  8  1  0  0  0  0
  6 21  1  0  0  0  0
  6 22  1  0  0  0  0
  7 23  1  0  0  0  0
  7 24  1  0  0  0  0
  8 25  1  0  0  0  0
  8 26  1  0  0  0  0
  9 11  2  0  0  0  0
  9 12  1  0  0  0  0
 10 27  1  0  0  0  0
 10 28  1  0  0  0  0
 10 29  1  0  0  0  0
 11 14  1  0  0  0  0
 11 30  1  0  0  0  0
 12 15  2  0  0  0  0
 12 31  1  0  0  0  0
 13 16  1  0  0  0  0
 14 17  2  0  0  0  0
 14 32  1  0  0  0  0
 15 17  1  0  0  0  0
 15 33  1  0  0  0  0
 16 18  1  0  0  0  0
 16 34  1  0  0  0  0
 16 35  1  0  0  0  0
 17 36  1  0  0  0  0
 18 37  1  0  0  0  0
 18 38  1  0  0  0  0
 18 39  1  0  0  0  0
M  END
>  <DRUGBANK_ID>
DB01478

>  <COMMON_NAME>
Desmethylprodine

>  <CAS_NUMBER>
13147-09-6

>  <UNII>
07SGC963IR

>  <SYNONYMS>
1-Methyl-4-phenyl-4-piperidinol propionate; 1-Methyl-4-phenyl-4-propionoxypiperidine; 3-Demethylprodine; MPPP

$$$$
