
 OpenBabel10282417153D

 50 53  0  0  0  0  0  0  0  0999 V2000
    2.5207   -0.8388    0.0049 C   0  0  0  0  0  0  0  0  0  0  0  0
    2.4935    0.5437    0.0068 C   0  0  0  0  0  0  0  0  0  0  0  0
    1.2577    1.1516   -0.0551 C   0  0  0  0  0  0  0  0  0  0  0  0
    0.0597    0.3852   -0.1663 C   0  0  0  0  0  0  0  0  0  0  0  0
   -1.1640    0.9324   -0.5553 C   0  0  0  0  0  0  0  0  0  0  0  0
   -2.4354    0.4409   -0.1854 C   0  0  0  0  0  0  0  0  0  0  0  0
   -2.4476   -0.9192    0.0390 C   0  0  0  0  0  0  0  0  0  0  0  0
   -1.2226   -1.6310    0.0576 C   0  0  0  0  0  0  0  0  0  0  0  0
    0.0507   -0.9785    0.0150 C   0  0  0  0  0  0  0  0  0  0  0  0
    1.3226   -1.5867    0.0526 C   0  0  0  0  0  0  0  0  0  0  0  0
   -3.7030    1.3364   -0.0488 C   0  0  0  0  0  0  0  0  0  0  0  0
   -3.8360    2.3630    1.2146 C   0  0  0  0  0  0  0  0  0  0  0  0
   -2.8701    3.5148    1.4096 N   0  0  0  0  0  0  0  0  0  0  0  0
   -3.2956    4.8180    0.8816 C   0  0  0  0  0  0  0  0  0  0  0  0
   -2.0977    5.8359    0.8194 C   0  0  0  0  0  0  0  0  0  0  0  0
   -0.9433    5.3249    0.0161 C   0  0  0  0  0  0  0  0  0  0  0  0
   -0.7319    4.0385    0.0242 C   0  0  0  0  0  0  0  0  0  0  0  0
   -1.6887    3.1461    0.6920 C   0  0  0  0  0  0  0  0  0  0  0  0
    0.1093    6.1210   -0.5890 C   0  0  0  0  0  0  0  0  0  0  0  0
    0.9302    6.8153    0.2930 C   0  0  0  0  0  0  0  0  0  0  0  0
    2.0097    7.5351   -0.1870 C   0  0  0  0  0  0  0  0  0  0  0  0
    2.3150    7.4973   -1.5447 C   0  0  0  0  0  0  0  0  0  0  0  0
    1.5882    6.6819   -2.4256 C   0  0  0  0  0  0  0  0  0  0  0  0
    0.4463    6.0246   -1.9491 C   0  0  0  0  0  0  0  0  0  0  0  0
    2.0893    6.4463   -3.8267 C   0  0  0  0  0  0  0  0  0  0  0  0
    2.4021    5.1375   -4.0470 F   0  0  0  0  0  0  0  0  0  0  0  0
    1.1862    6.7840   -4.7849 F   0  0  0  0  0  0  0  0  0  0  0  0
    3.2241    7.1453   -4.1137 F   0  0  0  0  0  0  0  0  0  0  0  0
    3.4808   -1.3412   -0.0332 H   0  0  0  0  0  0  0  0  0  0  0  0
    3.3997    1.1474    0.0084 H   0  0  0  0  0  0  0  0  0  0  0  0
    1.2580    2.2343    0.0040 H   0  0  0  0  0  0  0  0  0  0  0  0
   -1.0562    1.8303   -1.1496 H   0  0  0  0  0  0  0  0  0  0  0  0
   -3.3952   -1.4430    0.1251 H   0  0  0  0  0  0  0  0  0  0  0  0
   -1.2596   -2.7132    0.1154 H   0  0  0  0  0  0  0  0  0  0  0  0
    1.3844   -2.6679    0.0683 H   0  0  0  0  0  0  0  0  0  0  0  0
   -3.8416    1.9162   -0.9722 H   0  0  0  0  0  0  0  0  0  0  0  0
   -4.5826    0.6804    0.0041 H   0  0  0  0  0  0  0  0  0  0  0  0
   -4.8554    2.7736    1.2173 H   0  0  0  0  0  0  0  0  0  0  0  0
   -3.7687    1.7433    2.1200 H   0  0  0  0  0  0  0  0  0  0  0  0
   -3.7234    4.6987   -0.1224 H   0  0  0  0  0  0  0  0  0  0  0  0
   -4.0625    5.2289    1.5419 H   0  0  0  0  0  0  0  0  0  0  0  0
   -2.4432    6.7706    0.3827 H   0  0  0  0  0  0  0  0  0  0  0  0
   -1.7255    6.0117    1.8358 H   0  0  0  0  0  0  0  0  0  0  0  0
    0.0504    3.6031   -0.5958 H   0  0  0  0  0  0  0  0  0  0  0  0
   -1.1623    2.3998    1.2852 H   0  0  0  0  0  0  0  0  0  0  0  0
   -2.1545    2.8743   -0.2433 H   0  0  0  0  0  0  0  0  0  0  0  0
    0.7401    6.7600    1.3627 H   0  0  0  0  0  0  0  0  0  0  0  0
    2.6247    8.0980    0.5062 H   0  0  0  0  0  0  0  0  0  0  0  0
    3.1556    8.0820   -1.9103 H   0  0  0  0  0  0  0  0  0  0  0  0
   -0.1446    5.4039   -2.6255 H   0  0  0  0  0  0  0  0  0  0  0  0
  1  2  2  0  0  0  0
  1 10  1  0  0  0  0
  1 29  1  0  0  0  0
  2  3  1  0  0  0  0
  2 30  1  0  0  0  0
  3  4  2  0  0  0  0
  3 31  1  0  0  0  0
  4  5  1  0  0  0  0
  4  9  1  0  0  0  0
  5  6  2  0  0  0  0
  5 32  1  0  0  0  0
  6  7  1  0  0  0  0
  6 11  1  0  0  0  0
  7  8  2  0  0  0  0
  7 33  1  0  0  0  0
  8  9  1  0  0  0  0
  8 34  1  0  0  0  0
  9 10  2  0  0  0  0
 10 35  1  0  0  0  0
 11 12  1  0  0  0  0
 11 36  1  0  0  0  0
 11 37  1  0  0  0  0
 12 13  1  0  0  0  0
 12 38  1  0  0  0  0
 12 39  1  0  0  0  0
 13 14  1  0  0  0  0
 13 18  1  0  0  0  0
 14 15  1  0  0  0  0
 14 40  1  0  0  0  0
 14 41  1  0  0  0  0
 15 16  1  0  0  0  0
 15 42  1  0  0  0  0
 15 43  1  0  0  0  0
 16 17  2  0  0  0  0
 16 19  1  0  0  0  0
 17 18  1  0  0  0  0
 17 44  1  0  0  0  0
 18 45  1  0  0  0  0
 18 46  1  0  0  0  0
 19 20  2  0  0  0  0
 19 24  1  0  0  0  0
 20 21  1  0  0  0  0
 20 47  1  0  0  0  0
 21 22  2  0  0  0  0
 21 48  1  0  0  0  0
 22 23  1  0  0  0  0
 22 49  1  0  0  0  0
 23 24  2  0  0  0  0
 23 25  1  0  0  0  0
 24 50  1  0  0  0  0
 25 26  1  0  0  0  0
 25 27  1  0  0  0  0
 25 28  1  0  0  0  0
M  END
>  <DRUGBANK_ID>
DB06393

>  <COMMON_NAME>
Xaliproden

>  <CAS_NUMBER>
135354-02-8

>  <UNII>
V8QL94KNQO

>  <SYNONYMS>
Xaliproden

$$$$
