
 OpenBabel10282417123D

 38 40  0  0  0  0  0  0  0  0999 V2000
    0.9452   -0.0836    0.0034 P   0  0  0  0  0  0  0  0  0  0  0  0
   -1.5348    0.1421    2.6461 O   0  0  0  0  0  0  0  0  0  0  0  0
   -2.5771   -2.2690   -0.1714 O   0  0  0  0  0  0  0  0  0  0  0  0
   -1.6221   -3.0128    2.5323 O   0  0  0  0  0  0  0  0  0  0  0  0
    0.8491    0.7255    1.3895 O   0  0  0  0  0  0  0  0  0  0  0  0
   -0.5764    5.1236   -2.4483 O   0  0  0  0  0  0  0  0  0  0  0  0
    2.7102    2.6798   -0.6298 O   0  0  0  0  0  0  0  0  0  0  0  0
    0.8142    0.7379   -1.3754 O   0  0  0  0  0  0  0  0  0  0  0  0
   -0.7848   -0.0836    0.0034 O   0  0  0  0  0  0  0  0  0  0  0  0
    2.4936   -0.0836    0.0034 O   0  0  0  0  0  0  0  0  0  0  0  0
   -1.9113    1.6449    0.5191 N   0  3  0  0  0  0  0  0  0  0  0  0
   -2.5474    3.1935   -0.9262 N   0  0  0  0  0  0  0  0  0  0  0  0
    0.6198    2.6611    0.3311 N   0  0  0  0  0  0  0  0  0  0  0  0
    1.0536    3.8222   -1.6196 N   0  0  0  0  0  0  0  0  0  0  0  0
   -2.1642    0.0647    1.3645 C   0  0  1  0  0  0  0  0  0  0  0  0
   -1.6943   -1.6136    0.7112 C   0  0  1  0  0  0  0  0  0  0  0  0
   -0.8031   -2.0932    1.8491 C   0  0  1  0  0  0  0  0  0  0  0  0
   -0.4645   -0.8462    2.7419 C   0  0  1  0  0  0  0  0  0  0  0  0
    0.8641   -0.0626    2.5702 C   0  0  0  0  0  0  0  0  0  0  0  0
   -0.7407    2.5266    0.0758 C   0  0  0  0  0  0  0  0  0  0  0  0
   -2.9657    2.2149   -0.1042 C   0  0  0  0  0  0  0  0  0  0  0  0
   -1.1726    3.3140   -0.9565 C   0  0  0  0  0  0  0  0  0  0  0  0
   -0.2864    4.1817   -1.7512 C   0  0  0  0  0  0  0  0  0  0  0  0
    1.5399    3.0594   -0.6195 C   0  0  0  0  0  0  0  0  0  0  0  0
   -3.4469   -2.3876    0.2089 H   0  0  0  0  0  0  0  0  0  0  0  0
   -2.5077   -2.6131    2.5375 H   0  0  0  0  0  0  0  0  0  0  0  0
    1.7421    0.7149   -1.7381 H   0  0  0  0  0  0  0  0  0  0  0  0
   -0.9546    0.2104   -0.9279 H   0  0  0  0  0  0  0  0  0  0  0  0
   -3.1526    3.8242   -1.4457 H   0  0  0  0  0  0  0  0  0  0  0  0
    1.0562    2.0796    1.0335 H   0  0  0  0  0  0  0  0  0  0  0  0
    1.7677    4.3065   -2.1561 H   0  0  0  0  0  0  0  0  0  0  0  0
   -3.2507    0.0110    1.4588 H   0  0  0  0  0  0  0  0  0  0  0  0
   -0.8571   -1.8129   -0.0239 H   0  0  0  0  0  0  0  0  0  0  0  0
    0.1340   -2.5938    1.5236 H   0  0  0  0  0  0  0  0  0  0  0  0
   -0.4495   -1.2076    3.7716 H   0  0  0  0  0  0  0  0  0  0  0  0
    1.7794   -0.6668    2.6166 H   0  0  0  0  0  0  0  0  0  0  0  0
    0.9441    0.6720    3.3847 H   0  0  0  0  0  0  0  0  0  0  0  0
   -3.9924    1.9101    0.0227 H   0  0  0  0  0  0  0  0  0  0  0  0
  1  5  1  0  0  0  0
  1  8  1  0  0  0  0
  1  9  1  0  0  0  0
  1 10  2  0  0  0  0
  2 15  1  0  0  0  0
  2 18  1  0  0  0  0
  3 25  1  0  0  0  0
  4 26  1  0  0  0  0
  5 19  1  0  0  0  0
  6 23  2  0  0  0  0
  7 24  2  0  0  0  0
  8 27  1  0  0  0  0
  9 28  1  0  0  0  0
 11 20  1  0  0  0  0
 11 21  2  0  0  0  0
 12 21  1  0  0  0  0
 12 22  1  0  0  0  0
 12 29  1  0  0  0  0
 13 20  1  0  0  0  0
 13 24  1  0  0  0  0
 13 30  1  0  0  0  0
 14 23  1  0  0  0  0
 14 24  1  0  0  0  0
 14 31  1  0  0  0  0
 15 16  1  0  0  0  0
 15 32  1  1  0  0  0
 15 11  1  0  0  0  0
 16  3  1  0  0  0  0
 16 17  1  0  0  0  0
 16 33  1  6  0  0  0
 17  4  1  0  0  0  0
 17 18  1  0  0  0  0
 17 34  1  6  0  0  0
 18 19  1  0  0  0  0
 18 35  1  1  0  0  0
 19 36  1  0  0  0  0
 19 37  1  0  0  0  0
 20 22  2  0  0  0  0
 21 38  1  0  0  0  0
 22 23  1  0  0  0  0
M  CHG  1  11   1
M  END
>  <DRUGBANK_ID>
DB02309

>  <SECONDARY_ACCESSION_NUMBERS>
EXPT03260

>  <COMMON_NAME>
5-monophosphate-9-beta-D-ribofuranosyl xanthine

$$$$
