DZ1
 OpenBabel10282417163D

 33 34  0  0  0  0  0  0  0  0999 V2000
    2.2420    0.5850    0.8242 C   0  0  0  0  0  0  0  0  0  0  0  0
    0.9684    0.0856    0.3642 C   0  0  0  0  0  0  0  0  0  0  0  0
    0.9528   -1.2902    0.1550 C   0  0  0  0  0  0  0  0  0  0  0  0
   -0.2431   -1.9019   -0.0305 C   0  0  0  0  0  0  0  0  0  0  0  0
   -1.3786   -1.0969   -0.0417 C   0  0  0  0  0  0  0  0  0  0  0  0
   -1.3130    0.3393   -0.0292 C   0  0  0  0  0  0  0  0  0  0  0  0
   -2.6246    1.0721   -0.0335 C   0  0  0  0  0  0  0  0  0  0  0  0
   -0.0619    0.9863    0.0479 C   0  0  0  0  0  0  0  0  0  0  0  0
    0.2184    2.5407   -0.1127 C   0  0  0  0  0  0  0  0  0  0  0  0
   -0.7896    3.2954   -0.0039 O   0  0  0  0  0  0  0  0  0  0  0  0
    1.4717    3.2601   -0.2898 N   0  0  0  0  0  0  0  0  0  0  0  0
    2.8748    2.9137   -0.5806 C   0  0  0  0  0  0  0  0  0  0  0  0
    3.2323    1.9497   -1.5714 C   0  0  0  0  0  0  0  0  0  0  0  0
    4.3879    1.1331   -1.4054 C   0  0  0  0  0  0  0  0  0  0  0  0
    4.4422   -0.5652   -2.2923 Br  0  0  0  0  0  0  0  0  0  0  0  0
    5.3004    1.3748   -0.3743 C   0  0  0  0  0  0  0  0  0  0  0  0
    6.3578    0.5249   -0.1511 O   0  0  0  0  0  0  0  0  0  0  0  0
    5.0483    2.4346    0.5071 C   0  0  0  0  0  0  0  0  0  0  0  0
    6.2439    2.7624    1.9548 Br  0  0  0  0  0  0  0  0  0  0  0  0
    3.8447    3.1933    0.4220 C   0  0  0  0  0  0  0  0  0  0  0  0
    2.2540    1.0922   -0.0799 H   0  0  0  0  0  0  0  0  0  0  0  0
    2.2317    1.2934    1.6469 H   0  0  0  0  0  0  0  0  0  0  0  0
    3.1214   -0.0384    0.7153 H   0  0  0  0  0  0  0  0  0  0  0  0
    1.8938   -1.8381    0.1649 H   0  0  0  0  0  0  0  0  0  0  0  0
   -0.2664   -2.9834   -0.0936 H   0  0  0  0  0  0  0  0  0  0  0  0
   -2.3355   -1.6116   -0.0660 H   0  0  0  0  0  0  0  0  0  0  0  0
   -2.7117    1.6988    0.8598 H   0  0  0  0  0  0  0  0  0  0  0  0
   -2.7281    1.6724   -0.9385 H   0  0  0  0  0  0  0  0  0  0  0  0
   -3.4657    0.3668   -0.0012 H   0  0  0  0  0  0  0  0  0  0  0  0
    1.3489    4.2283    0.0038 H   0  0  0  0  0  0  0  0  0  0  0  0
    2.4528    1.5723   -2.2345 H   0  0  0  0  0  0  0  0  0  0  0  0
    6.3555   -0.1705   -0.8363 H   0  0  0  0  0  0  0  0  0  0  0  0
    3.5967    3.8323    1.2708 H   0  0  0  0  0  0  0  0  0  0  0  0
  1  2  1  0  0  0  0
  1 21  1  0  0  0  0
  1 22  1  0  0  0  0
  1 23  1  0  0  0  0
  2  3  2  0  0  0  0
  2  8  1  0  0  0  0
  3  4  1  0  0  0  0
  3 24  1  0  0  0  0
  4  5  2  0  0  0  0
  4 25  1  0  0  0  0
  5  6  1  0  0  0  0
  5 26  1  0  0  0  0
  6  7  1  0  0  0  0
  6  8  2  0  0  0  0
  7 27  1  0  0  0  0
  7 28  1  0  0  0  0
  7 29  1  0  0  0  0
  8  9  1  0  0  0  0
  9 10  2  0  0  0  0
  9 11  1  0  0  0  0
 11 12  1  0  0  0  0
 11 30  1  0  0  0  0
 12 13  2  0  0  0  0
 12 20  1  0  0  0  0
 13 14  1  0  0  0  0
 13 31  1  0  0  0  0
 14 15  1  0  0  0  0
 14 16  2  0  0  0  0
 16 17  1  0  0  0  0
 16 18  1  0  0  0  0
 17 32  1  0  0  0  0
 18 19  1  0  0  0  0
 18 20  2  0  0  0  0
 20 33  1  0  0  0  0
M  END
>  <DRUGBANK_ID>
DB07693

>  <COMMON_NAME>
N-(3,5-dibromo-4-hydroxyphenyl)-2,6-dimethylbenzamide

$$$$
