
 OpenBabel10282417223D

 48 49  0  0  0  0  0  0  0  0999 V2000
   -1.2227    1.2870   -0.0017 C   0  0  0  0  0  0  0  0  0  0  0  0
   -2.2252    2.4684    0.0003 C   0  0  0  0  0  0  0  0  0  0  0  0
   -1.9073    0.0275    0.0026 C   0  0  0  0  0  0  0  0  0  0  0  0
   -1.2395   -1.2111    0.0036 C   0  0  0  0  0  0  0  0  0  0  0  0
   -1.7191    7.3088    0.8729 N   0  0  0  0  0  0  0  0  0  0  0  0
   -1.7615    3.7362    0.0422 N   0  0  0  0  0  0  0  0  0  0  0  0
    0.2194    1.2230    0.0008 C   0  0  0  0  0  0  0  0  0  0  0  0
   -1.8607    5.8648    1.1431 C   0  0  2  0  0  0  0  0  0  0  0  0
   -3.4273    2.2983   -0.0237 O   0  0  0  0  0  0  0  0  0  0  0  0
   -2.3654    5.0042   -0.0464 C   0  0  0  0  0  0  0  0  0  0  0  0
    0.1498   -1.2275    0.0180 C   0  0  0  0  0  0  0  0  0  0  0  0
    0.8598   -0.0433    0.0088 C   0  0  0  0  0  0  0  0  0  0  0  0
   -1.9440    8.0034    2.1529 C   0  0  0  0  0  0  0  0  0  0  0  0
    1.2381    2.1548    0.0013 O   0  0  0  0  0  0  0  0  0  0  0  0
   -2.6266    7.7799   -0.1837 C   0  0  0  0  0  0  0  0  0  0  0  0
   -2.5552    6.9975    3.1248 C   0  0  0  0  0  0  0  0  0  0  0  0
   -2.8022    5.7385    2.3256 C   0  0  0  0  0  0  0  0  0  0  0  0
    0.9211    3.4927   -0.0055 C   0  0  0  0  0  0  0  0  0  0  0  0
   -4.1025    7.4835    0.0809 C   0  0  0  0  0  0  0  0  0  0  0  0
   -3.2833   -0.0880    0.0062 O   0  0  0  0  0  0  0  0  0  0  0  0
   -1.9701   -2.5328   -0.0159 C   0  0  0  0  0  0  0  0  0  0  0  0
   -1.6180   -3.3412   -1.2580 C   0  0  0  0  0  0  0  0  0  0  0  0
    2.6007   -0.1948    0.0040 Cl  0  0  0  0  0  0  0  0  0  0  0  0
   -0.8503    3.9575   -0.1091 H   0  0  0  0  0  0  0  0  0  0  0  0
   -0.8634    5.5296    1.4807 H   0  0  0  0  0  0  0  0  0  0  0  0
   -1.9405    5.3993   -0.9800 H   0  0  0  0  0  0  0  0  0  0  0  0
   -3.4310    4.8650   -0.1611 H   0  0  0  0  0  0  0  0  0  0  0  0
    0.6934   -2.1679    0.0243 H   0  0  0  0  0  0  0  0  0  0  0  0
   -2.5888    8.8816    2.0318 H   0  0  0  0  0  0  0  0  0  0  0  0
   -0.9997    8.3857    2.5614 H   0  0  0  0  0  0  0  0  0  0  0  0
   -2.4831    8.8531   -0.3382 H   0  0  0  0  0  0  0  0  0  0  0  0
   -2.3190    7.3422   -1.1420 H   0  0  0  0  0  0  0  0  0  0  0  0
   -3.4936    7.3694    3.5470 H   0  0  0  0  0  0  0  0  0  0  0  0
   -1.8628    6.7853    3.9452 H   0  0  0  0  0  0  0  0  0  0  0  0
   -3.8445    5.7074    2.0034 H   0  0  0  0  0  0  0  0  0  0  0  0
   -2.6368    4.8202    2.8964 H   0  0  0  0  0  0  0  0  0  0  0  0
    0.4361    3.6473   -0.9833 H   0  0  0  0  0  0  0  0  0  0  0  0
    0.3883    3.6495    0.9447 H   0  0  0  0  0  0  0  0  0  0  0  0
    1.7088    4.2399    0.0106 H   0  0  0  0  0  0  0  0  0  0  0  0
   -4.4304    7.9287    1.0217 H   0  0  0  0  0  0  0  0  0  0  0  0
   -4.7266    7.8212   -0.7415 H   0  0  0  0  0  0  0  0  0  0  0  0
   -4.3373    6.4269    0.1652 H   0  0  0  0  0  0  0  0  0  0  0  0
   -3.6949    0.8063    0.0028 H   0  0  0  0  0  0  0  0  0  0  0  0
   -1.7028   -3.0922    0.8886 H   0  0  0  0  0  0  0  0  0  0  0  0
   -3.0557   -2.3993    0.0167 H   0  0  0  0  0  0  0  0  0  0  0  0
   -0.5488   -3.5749   -1.3005 H   0  0  0  0  0  0  0  0  0  0  0  0
   -2.1630   -4.2884   -1.2614 H   0  0  0  0  0  0  0  0  0  0  0  0
   -1.8733   -2.7874   -2.1679 H   0  0  0  0  0  0  0  0  0  0  0  0
  1  7  1  0  0  0  0
  1  3  2  0  0  0  0
  2  1  1  0  0  0  0
  3 20  1  0  0  0  0
  3  4  1  0  0  0  0
  4 21  1  0  0  0  0
  6  2  1  0  0  0  0
  6 24  1  0  0  0  0
  7 12  2  0  0  0  0
  8  5  1  0  0  0  0
  8 10  1  0  0  0  0
  8 17  1  0  0  0  0
  8 25  1  1  0  0  0
  9  2  2  0  0  0  0
 10  6  1  0  0  0  0
 10 26  1  0  0  0  0
 10 27  1  0  0  0  0
 11  4  2  0  0  0  0
 11 28  1  0  0  0  0
 12 11  1  0  0  0  0
 12 23  1  0  0  0  0
 13  5  1  0  0  0  0
 13 16  1  0  0  0  0
 13 29  1  0  0  0  0
 13 30  1  0  0  0  0
 14  7  1  0  0  0  0
 15  5  1  0  0  0  0
 15 31  1  0  0  0  0
 15 32  1  0  0  0  0
 16 17  1  0  0  0  0
 16 33  1  0  0  0  0
 16 34  1  0  0  0  0
 17 35  1  0  0  0  0
 17 36  1  0  0  0  0
 18 14  1  0  0  0  0
 18 37  1  0  0  0  0
 18 38  1  0  0  0  0
 18 39  1  0  0  0  0
 19 15  1  0  0  0  0
 19 40  1  0  0  0  0
 19 41  1  0  0  0  0
 19 42  1  0  0  0  0
 20 43  1  0  0  0  0
 21 22  1  0  0  0  0
 21 44  1  0  0  0  0
 21 45  1  0  0  0  0
 22 46  1  0  0  0  0
 22 47  1  0  0  0  0
 22 48  1  0  0  0  0
M  END
>  <DRUGBANK_ID>
DB15492

>  <COMMON_NAME>
Eticlopride

>  <CAS_NUMBER>
84226-12-0

>  <UNII>
J8M468HBH4

>  <SYNONYMS>
Eticloprida; Eticlopride; Eticlopridum

$$$$
