
 OpenBabel10282417173D

 28 29  0  0  0  0  0  0  0  0999 V2000
    1.6376   -0.5714   -0.1855 C   0  0  0  0  0  0  0  0  0  0  0  0
    0.2842   -1.1347    0.1626 C   0  0  0  0  0  0  0  0  0  0  0  0
   -0.6975   -0.2938   -0.7530 C   0  0  2  0  0  0  0  0  0  0  0  0
   -0.0299    1.0077   -1.4536 C   0  0  0  0  0  0  0  0  0  0  0  0
    0.4122    1.6616   -0.2619 N   0  0  0  0  0  0  0  0  0  0  0  0
    1.4891    0.8721    0.4017 C   0  0  2  0  0  0  0  0  0  0  0  0
   -0.8938    1.7104    0.3914 C   0  0  0  0  0  0  0  0  0  0  0  0
   -1.4898    0.4065    0.2604 N   0  0  0  0  0  0  0  0  0  0  0  0
    2.8089    1.4835    0.8651 C   0  0  0  0  0  0  0  0  0  0  0  0
    3.6182    2.0709    0.1642 O   0  0  0  0  0  0  0  0  0  0  0  0
    3.0097    1.2759    2.2187 N   0  0  0  0  0  0  0  0  0  0  0  0
   -1.4601    2.7540    0.5975 O   0  0  0  0  0  0  0  0  0  0  0  0
   -2.9023    0.3860    0.0931 O   0  0  0  0  0  0  0  0  0  0  0  0
   -3.7683    0.8230    1.4472 S   0  0  0  0  0  0  0  0  0  0  0  0
   -3.1114   -0.0665    2.6301 O   0  0  0  0  0  0  0  0  0  0  0  0
   -3.5776    2.1961    1.7846 O   0  0  0  0  0  0  0  0  0  0  0  0
   -5.1222    0.2919    1.3030 O   0  0  0  0  0  0  0  0  0  0  0  0
    2.4890   -1.1525    0.1761 H   0  0  0  0  0  0  0  0  0  0  0  0
    1.7105   -0.6336   -1.2834 H   0  0  0  0  0  0  0  0  0  0  0  0
    0.2084   -2.2258    0.1442 H   0  0  0  0  0  0  0  0  0  0  0  0
    0.0814   -0.9368    1.2380 H   0  0  0  0  0  0  0  0  0  0  0  0
   -1.2355   -0.9659   -1.4301 H   0  0  0  0  0  0  0  0  0  0  0  0
   -0.7692    1.6948   -1.9138 H   0  0  0  0  0  0  0  0  0  0  0  0
    0.8314    1.0099   -2.1348 H   0  0  0  0  0  0  0  0  0  0  0  0
    1.0236    0.7305    1.3800 H   0  0  0  0  0  0  0  0  0  0  0  0
    2.2695    0.9183    2.8135 H   0  0  0  0  0  0  0  0  0  0  0  0
    3.7346    1.8037    2.6818 H   0  0  0  0  0  0  0  0  0  0  0  0
   -3.5705   -0.9273    2.6560 H   0  0  0  0  0  0  0  0  0  0  0  0
  1  2  1  0  0  0  0
  1 18  1  0  0  0  0
  1 19  1  0  0  0  0
  2  3  1  0  0  0  0
  2 20  1  0  0  0  0
  2 21  1  0  0  0  0
  3  4  1  0  0  0  0
  3  8  1  0  0  0  0
  3 22  1  6  0  0  0
  4  5  1  0  0  0  0
  4 23  1  0  0  0  0
  4 24  1  0  0  0  0
  5  6  1  0  0  0  0
  5  7  1  0  0  0  0
  6  1  1  0  0  0  0
  6  9  1  0  0  0  0
  6 25  1  1  0  0  0
  7  8  1  0  0  0  0
  7 12  2  0  0  0  0
  8 13  1  0  0  0  0
  9 10  2  0  0  0  0
  9 11  1  0  0  0  0
 11 26  1  0  0  0  0
 11 27  1  0  0  0  0
 13 14  1  0  0  0  0
 14 15  1  0  0  0  0
 14 16  2  0  0  0  0
 14 17  2  0  0  0  0
 15 28  1  0  0  0  0
M  END
>  <DRUGBANK_ID>
DB09060

>  <COMMON_NAME>
Avibactam

>  <CAS_NUMBER>
1192500-31-4

>  <UNII>
7352665165

>  <SYNONYMS>
Avibactam

$$$$
