D31
 OpenBabel10282417163D

 62 66  0  0  0  0  0  0  0  0999 V2000
    0.3088   -0.4746    0.2706 N   0  0  0  0  0  0  0  0  0  0  0  0
    0.1914    0.2601    1.5219 C   0  0  0  0  0  0  0  0  0  0  0  0
    1.0662    1.5273    1.7396 C   0  0  0  0  0  0  0  0  0  0  0  0
    0.6439    2.9004    1.1891 C   0  0  0  0  0  0  0  0  0  0  0  0
    0.6568    2.9579   -0.3255 C   0  0  0  0  0  0  0  0  0  0  0  0
    1.9635    2.5981   -0.8935 N   0  0  0  0  0  0  0  0  0  0  0  0
    2.5414    1.3643   -0.3373 C   0  0  0  0  0  0  0  0  0  0  0  0
    2.4725    1.2331    1.2013 C   0  0  0  0  0  0  0  0  0  0  0  0
    1.8606    2.5162   -2.3822 C   0  0  0  0  0  0  0  0  0  0  0  0
    0.7540    1.5491   -2.8797 C   0  0  0  0  0  0  0  0  0  0  0  0
   -0.3059    2.1178   -3.5821 N   0  0  0  0  0  0  0  0  0  0  0  0
   -1.3661    1.2961   -4.0543 C   0  0  0  0  0  0  0  0  0  0  0  0
   -1.9797    0.3721   -3.1954 C   0  0  0  0  0  0  0  0  0  0  0  0
   -3.0182   -0.4768   -3.6335 C   0  0  0  0  0  0  0  0  0  0  0  0
   -3.4752   -0.4474   -4.9566 C   0  0  0  0  0  0  0  0  0  0  0  0
   -2.8791    0.4571   -5.8098 C   0  0  0  0  0  0  0  0  0  0  0  0
   -1.8479    1.3357   -5.3536 C   0  0  0  0  0  0  0  0  0  0  0  0
   -3.0714    0.7121   -7.2143 C   0  0  0  0  0  0  0  0  0  0  0  0
   -2.1762    1.7016   -7.6211 C   0  0  0  0  0  0  0  0  0  0  0  0
   -1.3633    2.1561   -6.5146 C   0  0  0  0  0  0  0  0  0  0  0  0
   -3.4315    1.0469   -9.2598 N   0  0  0  0  0  0  0  0  0  0  0  0
   -2.4058    1.9263   -8.9508 C   0  0  0  0  0  0  0  0  0  0  0  0
   -1.8080    2.9065   -9.9146 C   0  0  0  0  0  0  0  0  0  0  0  0
   -0.2975    2.6648  -10.0808 C   0  0  0  0  0  0  0  0  0  0  0  0
    0.3685    3.7464  -10.9292 C   0  0  0  0  0  0  0  0  0  0  0  0
    0.1050    5.1375  -10.3637 C   0  0  0  0  0  0  0  0  0  0  0  0
   -1.3904    5.4040  -10.2436 C   0  0  0  0  0  0  0  0  0  0  0  0
   -2.0815    4.3342   -9.4094 C   0  0  0  0  0  0  0  0  0  0  0  0
    0.8138    0.3396   -2.6481 O   0  0  0  0  0  0  0  0  0  0  0  0
   -0.5038    3.0006   -6.4960 O   0  0  0  0  0  0  0  0  0  0  0  0
   -3.8555    0.2906   -8.1988 N   0  0  0  0  0  0  0  0  0  0  0  0
    0.1747    0.1443   -0.5321 H   0  0  0  0  0  0  0  0  0  0  0  0
    1.2659   -0.8241    0.1639 H   0  0  0  0  0  0  0  0  0  0  0  0
   -0.8689    0.4522    1.6870 H   0  0  0  0  0  0  0  0  0  0  0  0
    0.5124   -0.4609    2.2865 H   0  0  0  0  0  0  0  0  0  0  0  0
    1.0901    1.6659    2.8311 H   0  0  0  0  0  0  0  0  0  0  0  0
   -0.3343    3.2161    1.5706 H   0  0  0  0  0  0  0  0  0  0  0  0
    1.3572    3.6554    1.5603 H   0  0  0  0  0  0  0  0  0  0  0  0
   -0.1538    2.3152   -0.6791 H   0  0  0  0  0  0  0  0  0  0  0  0
    0.4120    3.9800   -0.6441 H   0  0  0  0  0  0  0  0  0  0  0  0
    3.5745    1.1906   -0.6563 H   0  0  0  0  0  0  0  0  0  0  0  0
    2.0429    0.5382   -0.8152 H   0  0  0  0  0  0  0  0  0  0  0  0
    3.2049    1.8999    1.6669 H   0  0  0  0  0  0  0  0  0  0  0  0
    2.7538    0.2158    1.5062 H   0  0  0  0  0  0  0  0  0  0  0  0
    1.7014    3.5220   -2.7813 H   0  0  0  0  0  0  0  0  0  0  0  0
    2.8150    2.1595   -2.7881 H   0  0  0  0  0  0  0  0  0  0  0  0
   -0.1375    2.9986   -4.0616 H   0  0  0  0  0  0  0  0  0  0  0  0
   -1.6625    0.2991   -2.1557 H   0  0  0  0  0  0  0  0  0  0  0  0
   -3.4546   -1.1722   -2.9176 H   0  0  0  0  0  0  0  0  0  0  0  0
   -4.2587   -1.1212   -5.2869 H   0  0  0  0  0  0  0  0  0  0  0  0
   -3.8978    0.9253  -10.1553 H   0  0  0  0  0  0  0  0  0  0  0  0
   -2.2787    2.7916  -10.9019 H   0  0  0  0  0  0  0  0  0  0  0  0
    0.1929    2.6453   -9.0998 H   0  0  0  0  0  0  0  0  0  0  0  0
   -0.1189    1.6820  -10.5343 H   0  0  0  0  0  0  0  0  0  0  0  0
    1.4486    3.5666  -10.9714 H   0  0  0  0  0  0  0  0  0  0  0  0
   -0.0086    3.6922  -11.9574 H   0  0  0  0  0  0  0  0  0  0  0  0
    0.5765    5.2282   -9.3767 H   0  0  0  0  0  0  0  0  0  0  0  0
    0.5638    5.8953  -11.0082 H   0  0  0  0  0  0  0  0  0  0  0  0
   -1.5525    6.3833   -9.7794 H   0  0  0  0  0  0  0  0  0  0  0  0
   -1.8411    5.4391  -11.2419 H   0  0  0  0  0  0  0  0  0  0  0  0
   -3.1618    4.5227   -9.3885 H   0  0  0  0  0  0  0  0  0  0  0  0
   -1.7321    4.4360   -8.3747 H   0  0  0  0  0  0  0  0  0  0  0  0
  1  2  1  0  0  0  0
  1 32  1  0  0  0  0
  1 33  1  0  0  0  0
  2  3  1  0  0  0  0
  2 34  1  0  0  0  0
  2 35  1  0  0  0  0
  3  4  1  0  0  0  0
  3  8  1  0  0  0  0
  3 36  1  0  0  0  0
  4  5  1  0  0  0  0
  4 37  1  0  0  0  0
  4 38  1  0  0  0  0
  5  6  1  0  0  0  0
  5 39  1  0  0  0  0
  5 40  1  0  0  0  0
  6  7  1  0  0  0  0
  6  9  1  0  0  0  0
  7  8  1  0  0  0  0
  7 41  1  0  0  0  0
  7 42  1  0  0  0  0
  8 43  1  0  0  0  0
  8 44  1  0  0  0  0
  9 10  1  0  0  0  0
  9 45  1  0  0  0  0
  9 46  1  0  0  0  0
 10 11  1  0  0  0  0
 10 29  2  0  0  0  0
 11 12  1  0  0  0  0
 11 47  1  0  0  0  0
 12 13  2  0  0  0  0
 12 17  1  0  0  0  0
 13 14  1  0  0  0  0
 13 48  1  0  0  0  0
 14 15  2  0  0  0  0
 14 49  1  0  0  0  0
 15 16  1  0  0  0  0
 15 50  1  0  0  0  0
 16 17  2  0  0  0  0
 16 18  1  0  0  0  0
 17 20  1  0  0  0  0
 18 19  1  0  0  0  0
 18 31  2  0  0  0  0
 19 20  1  0  0  0  0
 19 22  2  0  0  0  0
 20 30  2  0  0  0  0
 21 22  1  0  0  0  0
 21 31  1  0  0  0  0
 21 51  1  0  0  0  0
 22 23  1  0  0  0  0
 23 24  1  0  0  0  0
 23 28  1  0  0  0  0
 23 52  1  0  0  0  0
 24 25  1  0  0  0  0
 24 53  1  0  0  0  0
 24 54  1  0  0  0  0
 25 26  1  0  0  0  0
 25 55  1  0  0  0  0
 25 56  1  0  0  0  0
 26 27  1  0  0  0  0
 26 57  1  0  0  0  0
 26 58  1  0  0  0  0
 27 28  1  0  0  0  0
 27 59  1  0  0  0  0
 27 60  1  0  0  0  0
 28 61  1  0  0  0  0
 28 62  1  0  0  0  0
M  END
>  <DRUGBANK_ID>
DB07618

>  <COMMON_NAME>
2-(4-(AMINOMETHYL)PIPERIDIN-1-YL)-N-(3_CYCLOHEXYL-4-OXO-2,4-DIHYDROINDENO[1,2-C]PYRAZOL-5-YL)ACETAMIDE

$$$$
