
 OpenBabel10282417213D

 22 23  0  0  0  0  0  0  0  0999 V2000
    0.9957    0.0808   -0.1243 C   0  0  0  0  0  0  0  0  0  0  0  0
    2.4547    3.7829   -1.6205 C   0  0  0  0  0  0  0  0  0  0  0  0
    0.1533    4.1846   -2.2190 C   0  0  0  0  0  0  0  0  0  0  0  0
    2.1541    2.4491   -1.3283 C   0  0  0  0  0  0  0  0  0  0  0  0
   -0.1395    2.8410   -1.9528 C   0  0  0  0  0  0  0  0  0  0  0  0
    2.7058    6.0663   -3.6685 C   0  0  0  0  0  0  0  0  0  0  0  0
    1.4685    4.6553   -2.1074 C   0  0  0  0  0  0  0  0  0  0  0  0
    0.8559    1.9749   -1.4997 C   0  0  0  0  0  0  0  0  0  0  0  0
    1.8646    5.9710   -2.6251 C   0  0  0  0  0  0  0  0  0  0  0  0
    3.0693    7.4274   -4.1045 C   0  0  0  0  0  0  0  0  0  0  0  0
    0.4957    0.6668   -1.3243 O   0  0  0  0  0  0  0  0  0  0  0  0
    4.1111    7.7729   -5.3652 S   0  0  0  0  0  0  0  0  0  0  0  0
    1.2328    7.4004   -1.9072 S   0  0  0  0  0  0  0  0  0  0  0  0
    2.2973    8.6619   -3.1213 S   0  0  0  0  0  0  0  0  0  0  0  0
    0.6114   -0.9425   -0.0669 H   0  0  0  0  0  0  0  0  0  0  0  0
    0.6328    0.6278    0.7523 H   0  0  0  0  0  0  0  0  0  0  0  0
    2.0877    0.0163   -0.1164 H   0  0  0  0  0  0  0  0  0  0  0  0
    3.4796    4.1274   -1.4960 H   0  0  0  0  0  0  0  0  0  0  0  0
   -0.6484    4.8414   -2.5496 H   0  0  0  0  0  0  0  0  0  0  0  0
    2.9600    1.7907   -1.0215 H   0  0  0  0  0  0  0  0  0  0  0  0
   -1.1464    2.4639   -2.1164 H   0  0  0  0  0  0  0  0  0  0  0  0
    3.1225    5.2107   -4.1820 H   0  0  0  0  0  0  0  0  0  0  0  0
  1 15  1  0  0  0  0
  1 16  1  0  0  0  0
  1 17  1  0  0  0  0
  2 18  1  0  0  0  0
  3 19  1  0  0  0  0
  4  2  1  0  0  0  0
  4 20  1  0  0  0  0
  5  3  2  0  0  0  0
  5 21  1  0  0  0  0
  6 22  1  0  0  0  0
  7  2  2  0  0  0  0
  7  3  1  0  0  0  0
  8  4  2  0  0  0  0
  8  5  1  0  0  0  0
  9  6  2  0  0  0  0
  9  7  1  0  0  0  0
 10  6  1  0  0  0  0
 11  1  1  0  0  0  0
 11  8  1  0  0  0  0
 12 10  2  0  0  0  0
 13  9  1  0  0  0  0
 14 10  1  0  0  0  0
 14 13  1  0  0  0  0
M  END
>  <DRUGBANK_ID>
DB13853

>  <COMMON_NAME>
Anethole trithione

>  <CAS_NUMBER>
532-11-6

>  <UNII>
QUY32964DJ

>  <SYNONYMS>
Anetholtrithion

$$$$
