D1T
 OpenBabel10282417163D

 33 32  0  0  0  0  0  0  0  0999 V2000
    1.1023   -0.0961   -0.1061 C   0  0  0  0  0  0  0  0  0  0  0  0
    0.6850   -1.2178    0.8328 C   0  0  0  0  0  0  0  0  0  0  0  0
    1.1729   -0.9496    2.2593 C   0  0  0  0  0  0  0  0  0  0  0  0
    0.5899    0.3432    2.8391 C   0  0  0  0  0  0  0  0  0  0  0  0
   -0.9413    0.3218    2.8785 C   0  0  0  0  0  0  0  0  0  0  0  0
   -1.4644   -0.8036    3.7797 C   0  0  0  0  0  0  0  0  0  0  0  0
   -0.9799   -0.6287    5.2234 C   0  0  0  0  0  0  0  0  0  0  0  0
   -1.4739    0.6862    5.8345 C   0  0  0  0  0  0  0  0  0  0  0  0
   -3.0037    0.7431    5.9291 C   0  0  0  0  0  0  0  0  0  0  0  0
   -3.6098   -0.3906    6.7583 C   0  0  0  0  0  0  0  0  0  0  0  0
   -3.1082   -0.3087    8.5047 S   0  0  0  0  0  0  0  0  0  0  0  0
    0.6725    0.8661    0.1913 H   0  0  0  0  0  0  0  0  0  0  0  0
    0.7563   -0.2985   -1.1232 H   0  0  0  0  0  0  0  0  0  0  0  0
    2.1893    0.0054   -0.1139 H   0  0  0  0  0  0  0  0  0  0  0  0
   -0.4008   -1.3396    0.8046 H   0  0  0  0  0  0  0  0  0  0  0  0
    1.1013   -2.1684    0.4815 H   0  0  0  0  0  0  0  0  0  0  0  0
    0.9090   -1.8067    2.8953 H   0  0  0  0  0  0  0  0  0  0  0  0
    2.2631   -0.8976    2.2791 H   0  0  0  0  0  0  0  0  0  0  0  0
    1.0062    0.5089    3.8400 H   0  0  0  0  0  0  0  0  0  0  0  0
    0.9276    1.2139    2.2668 H   0  0  0  0  0  0  0  0  0  0  0  0
   -1.3119    1.2945    3.2078 H   0  0  0  0  0  0  0  0  0  0  0  0
   -1.3618    0.2052    1.8719 H   0  0  0  0  0  0  0  0  0  0  0  0
   -2.5579   -0.8297    3.7317 H   0  0  0  0  0  0  0  0  0  0  0  0
   -1.1517   -1.7822    3.4067 H   0  0  0  0  0  0  0  0  0  0  0  0
   -1.3016   -1.4894    5.8211 H   0  0  0  0  0  0  0  0  0  0  0  0
    0.1120   -0.6656    5.2768 H   0  0  0  0  0  0  0  0  0  0  0  0
   -1.0108    0.8319    6.8130 H   0  0  0  0  0  0  0  0  0  0  0  0
   -1.1220    1.5439    5.2468 H   0  0  0  0  0  0  0  0  0  0  0  0
   -3.3105    1.7164    6.3253 H   0  0  0  0  0  0  0  0  0  0  0  0
   -3.4338    0.7007    4.9200 H   0  0  0  0  0  0  0  0  0  0  0  0
   -4.7008   -0.3384    6.7107 H   0  0  0  0  0  0  0  0  0  0  0  0
   -3.3310   -1.3704    6.3594 H   0  0  0  0  0  0  0  0  0  0  0  0
   -1.7824   -0.3692    8.2998 H   0  0  0  0  0  0  0  0  0  0  0  0
  1  2  1  0  0  0  0
  1 12  1  0  0  0  0
  1 13  1  0  0  0  0
  1 14  1  0  0  0  0
  2  3  1  0  0  0  0
  2 15  1  0  0  0  0
  2 16  1  0  0  0  0
  3  4  1  0  0  0  0
  3 17  1  0  0  0  0
  3 18  1  0  0  0  0
  4  5  1  0  0  0  0
  4 19  1  0  0  0  0
  4 20  1  0  0  0  0
  5  6  1  0  0  0  0
  5 21  1  0  0  0  0
  5 22  1  0  0  0  0
  6  7  1  0  0  0  0
  6 23  1  0  0  0  0
  6 24  1  0  0  0  0
  7  8  1  0  0  0  0
  7 25  1  0  0  0  0
  7 26  1  0  0  0  0
  8  9  1  0  0  0  0
  8 27  1  0  0  0  0
  8 28  1  0  0  0  0
  9 10  1  0  0  0  0
  9 29  1  0  0  0  0
  9 30  1  0  0  0  0
 10 11  1  0  0  0  0
 10 31  1  0  0  0  0
 10 32  1  0  0  0  0
 11 33  1  0  0  0  0
M  END
>  <DRUGBANK_ID>
DB07611

>  <COMMON_NAME>
DECANE-1-THIOL

>  <UNII>
A2H8YRB236

$$$$
