
 OpenBabel10282417193D

 44 48  0  0  1  0  0  0  0  0999 V2000
    0.9069   -0.0469   -0.0589 C   0  0  0  0  0  0  0  0  0  0  0  0
    0.5217    1.3127    0.5101 C   0  0  0  0  0  0  0  0  0  0  0  0
    1.5057    2.4273    0.0929 C   0  0  2  0  0  0  0  0  0  0  0  0
    2.6824    2.3920    1.0564 C   0  0  0  0  0  0  0  0  0  0  0  0
    3.0485    1.1900    1.8047 C   0  0  0  0  0  0  0  0  0  0  0  0
    3.5790    1.3342    3.0091 C   0  0  0  0  0  0  0  0  0  0  0  0
    3.9404    2.5904    3.4511 N   0  0  0  0  0  0  0  0  0  0  0  0
    3.8721    3.7364    2.6964 C   0  0  0  0  0  0  0  0  0  0  0  0
    4.2365    4.8459    3.0910 O   0  0  0  0  0  0  0  0  0  0  0  0
    3.2156    3.5845    1.3732 C   0  0  0  0  0  0  0  0  0  0  0  0
    2.8991    4.7639    0.5228 C   0  0  0  0  0  0  0  0  0  0  0  0
    1.4811    4.9193    0.4146 O   0  0  0  0  0  0  0  0  0  0  0  0
    0.7232    3.8060    0.1965 C   0  0  0  0  0  0  0  0  0  0  0  0
   -0.4934    3.9200    0.0684 O   0  0  0  0  0  0  0  0  0  0  0  0
    4.4363    2.5259    4.8148 C   0  0  0  0  0  0  0  0  0  0  0  0
    4.3511    1.0674    5.1195 C   0  0  0  0  0  0  0  0  0  0  0  0
    3.8596    0.3461    4.0511 C   0  0  0  0  0  0  0  0  0  0  0  0
    3.6366   -0.9809    4.0380 N   0  0  0  0  0  0  0  0  0  0  0  0
    3.9544   -1.6435    5.1834 C   0  0  0  0  0  0  0  0  0  0  0  0
    3.7728   -3.0222    5.2638 C   0  0  0  0  0  0  0  0  0  0  0  0
    4.0971   -3.7452    6.4178 C   0  0  0  0  0  0  0  0  0  0  0  0
    4.6129   -3.0880    7.5310 C   0  0  0  0  0  0  0  0  0  0  0  0
    4.8068   -1.7067    7.5135 C   0  0  0  0  0  0  0  0  0  0  0  0
    4.4817   -0.9842    6.3393 C   0  0  0  0  0  0  0  0  0  0  0  0
    4.6674    0.4057    6.2742 C   0  0  0  0  0  0  0  0  0  0  0  0
    5.3442   -1.0936    8.6415 N   0  0  0  0  0  0  0  0  0  0  0  0
    2.0244    2.2206   -1.2176 O   0  0  0  0  0  0  0  0  0  0  0  0
    0.4495   -0.1986   -1.0358 H   0  0  0  0  0  0  0  0  0  0  0  0
    0.5966   -0.8351    0.6316 H   0  0  0  0  0  0  0  0  0  0  0  0
    1.9832   -0.1527   -0.2260 H   0  0  0  0  0  0  0  0  0  0  0  0
   -0.5199    1.5229    0.2476 H   0  0  0  0  0  0  0  0  0  0  0  0
    0.4957    1.2748    1.6113 H   0  0  0  0  0  0  0  0  0  0  0  0
    2.8444    0.1803    1.4769 H   0  0  0  0  0  0  0  0  0  0  0  0
    3.2862    4.6338   -0.4970 H   0  0  0  0  0  0  0  0  0  0  0  0
    3.3369    5.6953    0.8848 H   0  0  0  0  0  0  0  0  0  0  0  0
    5.4634    2.8931    4.8421 H   0  0  0  0  0  0  0  0  0  0  0  0
    3.7748    3.1135    5.4570 H   0  0  0  0  0  0  0  0  0  0  0  0
    3.3713   -3.5589    4.4061 H   0  0  0  0  0  0  0  0  0  0  0  0
    3.9506   -4.8225    6.4493 H   0  0  0  0  0  0  0  0  0  0  0  0
    4.8647   -3.6618    8.4195 H   0  0  0  0  0  0  0  0  0  0  0  0
    5.0497    0.9811    7.1045 H   0  0  0  0  0  0  0  0  0  0  0  0
    5.5507   -1.6280    9.4727 H   0  0  0  0  0  0  0  0  0  0  0  0
    5.4822   -0.0962    8.6904 H   0  0  0  0  0  0  0  0  0  0  0  0
    2.7016    2.8965   -1.3889 H   0  0  0  0  0  0  0  0  0  0  0  0
  1  2  1  0  0  0  0
  1 28  1  0  0  0  0
  1 29  1  0  0  0  0
  1 30  1  0  0  0  0
  2 31  1  0  0  0  0
  2 32  1  0  0  0  0
  3  2  1  0  0  0  0
  3  4  1  0  0  0  0
  3 13  1  0  0  0  0
  3 27  1  6  0  0  0
  4  5  1  0  0  0  0
  4 10  2  0  0  0  0
  5  6  2  0  0  0  0
  5 33  1  0  0  0  0
  6  7  1  0  0  0  0
  6 17  1  0  0  0  0
  7  8  1  0  0  0  0
  7 15  1  0  0  0  0
  8  9  2  0  0  0  0
  8 10  1  0  0  0  0
 10 11  1  0  0  0  0
 11 12  1  0  0  0  0
 11 34  1  0  0  0  0
 11 35  1  0  0  0  0
 12 13  1  0  0  0  0
 13 14  2  0  0  0  0
 15 16  1  0  0  0  0
 15 36  1  0  0  0  0
 15 37  1  0  0  0  0
 16 17  2  0  0  0  0
 16 25  1  0  0  0  0
 17 18  1  0  0  0  0
 18 19  2  0  0  0  0
 19 20  1  0  0  0  0
 19 24  1  0  0  0  0
 20 21  2  0  0  0  0
 20 38  1  0  0  0  0
 21 22  1  0  0  0  0
 21 39  1  0  0  0  0
 22 23  2  0  0  0  0
 22 40  1  0  0  0  0
 23 24  1  0  0  0  0
 23 26  1  0  0  0  0
 24 25  2  0  0  0  0
 25 41  1  0  0  0  0
 26 42  1  0  0  0  0
 26 43  1  0  0  0  0
 27 44  1  0  0  0  0
M  END
>  <DRUGBANK_ID>
DB12515

>  <COMMON_NAME>
9-aminocamptothecin

>  <CAS_NUMBER>
91421-43-1

>  <UNII>
5MB77ICE2Q

>  <SYNONYMS>
Aminocamptothecin

$$$$
