MRX
 OpenBabel10282417173D

 35 37  0  0  0  0  0  0  0  0999 V2000
    2.4064   -0.1440   -0.0081 Br  0  0  0  0  0  0  0  0  0  0  0  0
    0.5381    0.1635    0.0034 C   0  0  0  0  0  0  0  0  0  0  0  0
   -0.3402   -0.9281    0.0317 C   0  0  0  0  0  0  0  0  0  0  0  0
    0.0636    1.4689   -0.0042 C   0  0  0  0  0  0  0  0  0  0  0  0
   -1.3095    1.7175    0.0015 C   0  0  0  0  0  0  0  0  0  0  0  0
   -2.1767    0.6155    0.0399 C   0  0  0  0  0  0  0  0  0  0  0  0
   -3.5485    0.5930    0.0464 N   0  0  0  0  0  0  0  0  0  0  0  0
   -4.0448   -0.6849    0.1977 C   0  0  0  0  0  0  0  0  0  0  0  0
   -5.4573   -0.9666    0.3355 C   0  0  0  0  0  0  0  0  0  0  0  0
   -6.3586   -0.0344   -0.0929 N   0  0  0  0  0  0  0  0  0  0  0  0
   -5.9444   -2.0015    0.7857 O   0  0  0  0  0  0  0  0  0  0  0  0
   -2.9238   -1.5358    0.1446 C   0  0  0  0  0  0  0  0  0  0  0  0
   -1.7393   -0.7095    0.0763 C   0  0  0  0  0  0  0  0  0  0  0  0
   -2.9166   -3.3018    0.0580 S   0  0  0  0  0  0  0  0  0  0  0  0
   -1.5167   -3.6688   -0.0122 O   0  0  0  0  0  0  0  0  0  0  0  0
   -3.7203   -3.7294    1.1791 O   0  0  0  0  0  0  0  0  0  0  0  0
   -3.6226   -3.8447   -1.4264 N   0  0  0  0  0  0  0  0  0  0  0  0
   -2.9197   -3.4012   -2.6528 C   0  0  0  0  0  0  0  0  0  0  0  0
   -3.5578   -2.0577   -2.9395 C   0  0  0  0  0  0  0  0  0  0  0  0
   -5.0270   -2.3056   -2.6094 C   0  0  0  0  0  0  0  0  0  0  0  0
   -5.0439   -3.4959   -1.6381 C   0  0  0  0  0  0  0  0  0  0  0  0
    0.0689   -1.9347    0.0449 H   0  0  0  0  0  0  0  0  0  0  0  0
    0.7568    2.3074   -0.0119 H   0  0  0  0  0  0  0  0  0  0  0  0
   -1.6820    2.7379   -0.0051 H   0  0  0  0  0  0  0  0  0  0  0  0
   -4.1153    1.4258   -0.0014 H   0  0  0  0  0  0  0  0  0  0  0  0
   -7.3195   -0.3388    0.0293 H   0  0  0  0  0  0  0  0  0  0  0  0
   -6.2022    0.9592   -0.0939 H   0  0  0  0  0  0  0  0  0  0  0  0
   -3.1428   -4.1017   -3.4676 H   0  0  0  0  0  0  0  0  0  0  0  0
   -1.8363   -3.3637   -2.5317 H   0  0  0  0  0  0  0  0  0  0  0  0
   -3.1307   -1.2931   -2.2918 H   0  0  0  0  0  0  0  0  0  0  0  0
   -3.3943   -1.6976   -3.9551 H   0  0  0  0  0  0  0  0  0  0  0  0
   -5.5133   -1.4079   -2.2227 H   0  0  0  0  0  0  0  0  0  0  0  0
   -5.5681   -2.5695   -3.5216 H   0  0  0  0  0  0  0  0  0  0  0  0
   -5.5255   -3.3468   -0.6883 H   0  0  0  0  0  0  0  0  0  0  0  0
   -5.6185   -4.3228   -2.0681 H   0  0  0  0  0  0  0  0  0  0  0  0
  2  3  1  0  0  0  0
  2  1  1  0  0  0  0
  3 22  1  0  0  0  0
  4  2  2  0  0  0  0
  4 23  1  0  0  0  0
  5  6  2  0  0  0  0
  5  4  1  0  0  0  0
  5 24  1  0  0  0  0
  6 13  1  0  0  0  0
  7  8  1  0  0  0  0
  7  6  1  0  0  0  0
  7 25  1  0  0  0  0
  8 12  2  0  0  0  0
  9 10  1  0  0  0  0
  9  8  1  0  0  0  0
 10 26  1  0  0  0  0
 10 27  1  0  0  0  0
 11  9  2  0  0  0  0
 12 13  1  0  0  0  0
 12 14  1  0  0  0  0
 13  3  2  0  0  0  0
 14 16  2  0  0  0  0
 14 17  1  0  0  0  0
 15 14  2  0  0  0  0
 17 18  1  0  0  0  0
 17 21  1  0  0  0  0
 18 19  1  0  0  0  0
 18 28  1  0  0  0  0
 18 29  1  0  0  0  0
 19 20  1  0  0  0  0
 19 30  1  0  0  0  0
 19 31  1  0  0  0  0
 20 32  1  0  0  0  0
 20 33  1  0  0  0  0
 21 20  1  0  0  0  0
 21 34  1  0  0  0  0
 21 35  1  0  0  0  0
M  END
>  <DRUGBANK_ID>
DB08211

>  <COMMON_NAME>
5-bromo-3-(pyrrolidin-1-ylsulfonyl)-1H-indole-2-carboxamide

>  <UNII>
2REL8H3PKT

$$$$
