
 OpenBabel10282417133D

 32 34  0  0  1  0  0  0  0  0999 V2000
    0.9496   -0.0957    0.0139 C   0  0  0  0  0  0  0  0  0  0  0  0
   -2.0237    2.8668    5.2095 C   0  0  0  0  0  0  0  0  0  0  0  0
   -0.1742    0.9886    7.2351 C   0  0  0  0  0  0  0  0  0  0  0  0
   -0.3144   -0.8194    3.4058 C   0  0  0  0  0  0  0  0  0  0  0  0
    0.3430    3.4239    2.5734 C   0  0  0  0  0  0  0  0  0  0  0  0
    0.4621    0.1050    1.4098 C   0  0  0  0  0  0  0  0  0  0  0  0
   -2.0116    2.7661    6.7078 C   0  0  1  0  0  0  0  0  0  0  0  0
   -0.5651    2.4598    7.0703 C   0  0  2  0  0  0  0  0  0  0  0  0
   -0.6054    3.3081    4.8837 C   0  0  2  0  0  0  0  0  0  0  0  0
    0.3741    1.3627    2.0162 C   0  0  0  0  0  0  0  0  0  0  0  0
   -0.0764    1.3894    3.3287 C   0  0  0  0  0  0  0  0  0  0  0  0
    0.1190   -0.9961    2.1412 N   0  0  0  0  0  0  0  0  0  0  0  0
   -0.4591    0.3413    4.0719 N   0  0  0  0  0  0  0  0  0  0  0  0
    0.6307    2.6332    1.5593 N   0  0  0  0  0  0  0  0  0  0  0  0
   -0.0798    2.7172    3.6691 N   0  0  0  0  0  0  0  0  0  0  0  0
    0.8477    0.9144    8.2398 O   0  0  0  0  0  0  0  0  0  0  0  0
   -2.3804    4.0524    7.2269 O   0  0  0  0  0  0  0  0  0  0  0  0
    0.2496    3.0096    6.0051 O   0  0  0  0  0  0  0  0  0  0  0  0
   -2.7313    2.0425    7.0995 H   0  0  0  0  0  0  0  0  0  0  0  0
   -0.2969    3.0043    7.9828 H   0  0  0  0  0  0  0  0  0  0  0  0
   -0.5622    4.3980    4.7679 H   0  0  0  0  0  0  0  0  0  0  0  0
    0.5959    0.7125   -0.6333 H   0  0  0  0  0  0  0  0  0  0  0  0
    0.5855   -1.0441   -0.3917 H   0  0  0  0  0  0  0  0  0  0  0  0
    2.0431   -0.1032    0.0067 H   0  0  0  0  0  0  0  0  0  0  0  0
   -2.2739    1.8942    4.7802 H   0  0  0  0  0  0  0  0  0  0  0  0
   -2.7495    3.5879    4.8181 H   0  0  0  0  0  0  0  0  0  0  0  0
   -0.9995    0.3481    7.5564 H   0  0  0  0  0  0  0  0  0  0  0  0
    0.2760    0.5727    6.3339 H   0  0  0  0  0  0  0  0  0  0  0  0
   -0.5787   -1.7199    3.9512 H   0  0  0  0  0  0  0  0  0  0  0  0
    0.4068    4.5035    2.5580 H   0  0  0  0  0  0  0  0  0  0  0  0
    1.4399    1.6747    8.0871 H   0  0  0  0  0  0  0  0  0  0  0  0
   -1.6518    4.6790    7.0663 H   0  0  0  0  0  0  0  0  0  0  0  0
  1 22  1  0  0  0  0
  1 23  1  0  0  0  0
  1 24  1  0  0  0  0
  2 25  1  0  0  0  0
  2 26  1  0  0  0  0
  3 27  1  0  0  0  0
  3 28  1  0  0  0  0
  4 29  1  0  0  0  0
  5 30  1  0  0  0  0
  6  1  1  0  0  0  0
  7  2  1  0  0  0  0
  7 17  1  0  0  0  0
  7 19  1  1  0  0  0
  8  7  1  0  0  0  0
  8 20  1  1  0  0  0
  8  3  1  0  0  0  0
  9  2  1  0  0  0  0
  9 15  1  0  0  0  0
  9 21  1  6  0  0  0
 10  6  2  0  0  0  0
 11 10  1  0  0  0  0
 12  4  2  0  0  0  0
 12  6  1  0  0  0  0
 13  4  1  0  0  0  0
 13 11  2  0  0  0  0
 14  5  2  0  0  0  0
 14 10  1  0  0  0  0
 15  5  1  0  0  0  0
 15 11  1  0  0  0  0
 16  3  1  0  0  0  0
 16 31  1  0  0  0  0
 17 32  1  0  0  0  0
 18  8  1  0  0  0  0
 18  9  1  0  0  0  0
M  END
>  <DRUGBANK_ID>
DB03735

>  <SECONDARY_ACCESSION_NUMBERS>
EXPT02147

>  <COMMON_NAME>
9-(2-Deoxy-Beta-D-Ribofuranosyl)-6-Methylpurine

$$$$
