
 OpenBabel10282417213D

 71 72  0  0  0  0  0  0  0  0999 V2000
   -5.2607   -1.8504    3.3097 C   0  0  0  0  0  0  0  0  0  0  0  0
   -5.6541   -0.3757    3.3719 C   0  0  2  0  0  0  0  0  0  0  0  0
   -6.5294    0.0133    2.1839 C   0  0  0  0  0  0  0  0  0  0  0  0
   -4.9294   -2.3038    1.8870 C   0  0  1  0  0  0  0  0  0  0  0  0
   -6.1771   -2.1919    0.9981 C   0  0  1  0  0  0  0  0  0  0  0  0
   -6.7753   -0.7716    1.1022 C   0  0  0  0  0  0  0  0  0  0  0  0
   -7.3246   -0.1589   -0.1166 C   0  0  0  0  0  0  0  0  0  0  0  0
   -7.4034   -0.8160   -1.2789 C   0  0  0  0  0  0  0  0  0  0  0  0
   -7.0375   -2.2495   -1.3430 C   0  0  2  0  0  0  0  0  0  0  0  0
   -8.3407   -2.8372   -0.8651 C   0  0  0  0  0  0  0  0  0  0  0  0
   -6.9414   -2.8694    1.4080 H   0  0  0  0  0  0  0  0  0  0  0  0
   -4.3779    0.4640    3.6095 C   0  0  0  0  0  0  0  0  0  0  0  0
   -3.7243   -1.6833    1.3314 O   0  0  0  0  0  0  0  0  0  0  0  0
   -3.6968   -0.4126    0.8361 C   0  0  0  0  0  0  0  0  0  0  0  0
   -4.6349    0.3036    0.6076 O   0  0  0  0  0  0  0  0  0  0  0  0
   -2.3472    0.1665    0.5193 C   0  0  0  0  0  0  0  0  0  0  0  0
   -1.2373   -0.1212    1.5381 C   0  0  0  0  0  0  0  0  0  0  0  0
   -2.0757   -0.3533   -0.8846 C   0  0  0  0  0  0  0  0  0  0  0  0
   -2.5702    1.7139    0.4707 C   0  0  0  0  0  0  0  0  0  0  0  0
   -0.9270   -1.5955    1.7310 C   0  0  0  0  0  0  0  0  0  0  0  0
   -5.3954   -4.1603   -0.5488 C   0  0  0  0  0  0  0  0  0  0  0  0
   -6.4485   -5.2668   -0.7209 C   0  0  0  0  0  0  0  0  0  0  0  0
   -6.2511   -5.5036   -3.1112 O   0  0  0  0  0  0  0  0  0  0  0  0
  -10.6827   -6.8916   -1.0338 C   0  0  0  0  0  0  0  0  0  0  0  0
   -9.4936   -5.9464   -0.9645 C   0  0  1  0  0  0  0  0  0  0  0  0
   -8.4510   -6.1490   -2.1083 C   0  0  0  0  0  0  0  0  0  0  0  0
  -11.9970   -6.1733   -1.3044 C   0  0  0  0  0  0  0  0  0  0  0  0
  -12.5148   -6.4180   -2.5261 O   0  0  0  0  0  0  0  0  0  0  0  0
  -12.5305   -5.3781   -0.5442 O   0  0  0  0  0  0  0  0  0  0  0  0
  -10.0276   -4.6441   -0.8994 O   0  0  0  0  0  0  0  0  0  0  0  0
   -7.1982   -5.2479   -2.0750 C   0  0  1  0  0  0  0  0  0  0  0  0
   -5.8570   -2.6571   -0.4507 C   0  0  2  0  0  0  0  0  0  0  0  0
   -7.5860   -4.2956   -2.4013 H   0  0  0  0  0  0  0  0  0  0  0  0
   -4.9911   -2.0879   -0.8157 H   0  0  0  0  0  0  0  0  0  0  0  0
   -4.4171   -2.0672    3.9745 H   0  0  0  0  0  0  0  0  0  0  0  0
   -6.1084   -2.4457    3.6783 H   0  0  0  0  0  0  0  0  0  0  0  0
   -6.2692   -0.2147    4.2607 H   0  0  0  0  0  0  0  0  0  0  0  0
   -6.7909    1.0676    2.1135 H   0  0  0  0  0  0  0  0  0  0  0  0
   -4.6747   -3.3655    1.9979 H   0  0  0  0  0  0  0  0  0  0  0  0
   -7.6535    0.8729   -0.0980 H   0  0  0  0  0  0  0  0  0  0  0  0
   -7.9111   -0.3964   -2.1438 H   0  0  0  0  0  0  0  0  0  0  0  0
   -6.7797   -2.5006   -2.3791 H   0  0  0  0  0  0  0  0  0  0  0  0
   -9.0769   -2.7766   -1.6715 H   0  0  0  0  0  0  0  0  0  0  0  0
   -8.1733   -3.8460   -0.5636 H   0  0  0  0  0  0  0  0  0  0  0  0
   -8.7730   -2.4496    0.0606 H   0  0  0  0  0  0  0  0  0  0  0  0
   -4.5484    1.5379    3.5201 H   0  0  0  0  0  0  0  0  0  0  0  0
   -3.9400    0.2362    4.5872 H   0  0  0  0  0  0  0  0  0  0  0  0
   -3.5597    0.2249    2.9443 H   0  0  0  0  0  0  0  0  0  0  0  0
   -0.3260    0.3896    1.2040 H   0  0  0  0  0  0  0  0  0  0  0  0
   -1.4757    0.3171    2.5166 H   0  0  0  0  0  0  0  0  0  0  0  0
   -2.9260   -0.1322   -1.5443 H   0  0  0  0  0  0  0  0  0  0  0  0
   -1.1802    0.1060   -1.3010 H   0  0  0  0  0  0  0  0  0  0  0  0
   -1.9689   -1.4427   -0.8890 H   0  0  0  0  0  0  0  0  0  0  0  0
   -3.3989    1.9913   -0.1985 H   0  0  0  0  0  0  0  0  0  0  0  0
   -2.8417    2.1087    1.4608 H   0  0  0  0  0  0  0  0  0  0  0  0
   -1.6887    2.2458    0.1128 H   0  0  0  0  0  0  0  0  0  0  0  0
   -0.7105   -2.0764    0.7753 H   0  0  0  0  0  0  0  0  0  0  0  0
   -0.0668   -1.7253    2.3885 H   0  0  0  0  0  0  0  0  0  0  0  0
   -1.7521   -2.1266    2.2084 H   0  0  0  0  0  0  0  0  0  0  0  0
   -4.6607   -4.2496   -1.3569 H   0  0  0  0  0  0  0  0  0  0  0  0
   -4.8253   -4.4338    0.3454 H   0  0  0  0  0  0  0  0  0  0  0  0
   -5.9473   -6.2393   -0.6351 H   0  0  0  0  0  0  0  0  0  0  0  0
   -7.0999   -5.2305    0.1589 H   0  0  0  0  0  0  0  0  0  0  0  0
   -5.7010   -4.6923   -3.1603 H   0  0  0  0  0  0  0  0  0  0  0  0
  -10.4934   -7.6745   -1.7693 H   0  0  0  0  0  0  0  0  0  0  0  0
  -10.7906   -7.3903   -0.0643 H   0  0  0  0  0  0  0  0  0  0  0  0
   -8.9865   -6.1103   -0.0063 H   0  0  0  0  0  0  0  0  0  0  0  0
   -8.9537   -5.9569   -3.0652 H   0  0  0  0  0  0  0  0  0  0  0  0
   -8.1132   -7.1875   -2.1205 H   0  0  0  0  0  0  0  0  0  0  0  0
  -12.0432   -7.0883   -3.0501 H   0  0  0  0  0  0  0  0  0  0  0  0
  -10.4466   -4.3679   -1.7326 H   0  0  0  0  0  0  0  0  0  0  0  0
  1  2  1  0  0  0  0
  1  4  1  0  0  0  0
  1 35  1  0  0  0  0
  1 36  1  0  0  0  0
  2  3  1  0  0  0  0
  2 12  1  0  0  0  0
  2 37  1  1  0  0  0
  3  6  2  0  0  0  0
  3 38  1  0  0  0  0
  4 13  1  0  0  0  0
  4 39  1  1  0  0  0
  5  4  1  0  0  0  0
  5  6  1  0  0  0  0
  5 32  1  0  0  0  0
  5 11  1  1  0  0  0
  6  7  1  0  0  0  0
  7  8  2  0  0  0  0
  7 40  1  0  0  0  0
  8  9  1  0  0  0  0
  8 41  1  0  0  0  0
  9 32  1  0  0  0  0
  9 10  1  0  0  0  0
  9 42  1  6  0  0  0
 10 43  1  0  0  0  0
 10 44  1  0  0  0  0
 10 45  1  0  0  0  0
 12 46  1  0  0  0  0
 12 47  1  0  0  0  0
 12 48  1  0  0  0  0
 13 14  1  0  0  0  0
 14 15  2  0  0  0  0
 14 16  1  0  0  0  0
 16 17  1  0  0  0  0
 16 18  1  0  0  0  0
 16 19  1  0  0  0  0
 17 20  1  0  0  0  0
 17 49  1  0  0  0  0
 17 50  1  0  0  0  0
 18 51  1  0  0  0  0
 18 52  1  0  0  0  0
 18 53  1  0  0  0  0
 19 54  1  0  0  0  0
 19 55  1  0  0  0  0
 19 56  1  0  0  0  0
 20 57  1  0  0  0  0
 20 58  1  0  0  0  0
 20 59  1  0  0  0  0
 21 22  1  0  0  0  0
 21 60  1  0  0  0  0
 21 61  1  0  0  0  0
 22 62  1  0  0  0  0
 22 63  1  0  0  0  0
 23 64  1  0  0  0  0
 24 27  1  0  0  0  0
 24 65  1  0  0  0  0
 24 66  1  0  0  0  0
 25 30  1  0  0  0  0
 25 67  1  1  0  0  0
 25 26  1  0  0  0  0
 25 24  1  0  0  0  0
 26 68  1  0  0  0  0
 26 69  1  0  0  0  0
 27 28  1  0  0  0  0
 27 29  2  0  0  0  0
 28 70  1  0  0  0  0
 30 71  1  0  0  0  0
 31 22  1  0  0  0  0
 31 23  1  0  0  0  0
 31 26  1  0  0  0  0
 31 33  1  6  0  0  0
 32 34  1  6  0  0  0
 32 21  1  0  0  0  0
M  END
>  <DRUGBANK_ID>
DB14714

>  <COMMON_NAME>
Tenivastatin

>  <CAS_NUMBER>
121009-77-6

>  <UNII>
9L6M5TH46B

>  <SYNONYMS>
Tenivastatin

$$$$
