
 OpenBabel10282417243D

 17 18  0  0  0  0  0  0  0  0999 V2000
    2.4509   -0.6813    0.0077 C   0  0  0  0  0  0  0  0  0  0  0  0
    2.4110    0.7084   -0.0026 C   0  0  0  0  0  0  0  0  0  0  0  0
    1.1790    1.3697   -0.0086 C   0  0  0  0  0  0  0  0  0  0  0  0
   -0.0236    0.6752   -0.0040 C   0  0  0  0  0  0  0  0  0  0  0  0
   -1.1837    1.3565   -0.0008 N   0  0  0  0  0  0  0  0  0  0  0  0
   -2.3344    0.6481    0.0026 C   0  0  0  0  0  0  0  0  0  0  0  0
   -2.3913   -0.7327   -0.0033 C   0  0  0  0  0  0  0  0  0  0  0  0
   -1.1921   -1.4339   -0.0073 C   0  0  0  0  0  0  0  0  0  0  0  0
    0.0229   -0.7360   -0.0027 C   0  0  0  0  0  0  0  0  0  0  0  0
    1.2599   -1.4044    0.0044 C   0  0  0  0  0  0  0  0  0  0  0  0
    3.4056   -1.2006    0.0176 H   0  0  0  0  0  0  0  0  0  0  0  0
    3.3335    1.2831   -0.0048 H   0  0  0  0  0  0  0  0  0  0  0  0
    1.1550    2.4568   -0.0162 H   0  0  0  0  0  0  0  0  0  0  0  0
   -3.2420    1.2448    0.0099 H   0  0  0  0  0  0  0  0  0  0  0  0
   -3.3441   -1.2493   -0.0038 H   0  0  0  0  0  0  0  0  0  0  0  0
   -1.2084   -2.5206   -0.0136 H   0  0  0  0  0  0  0  0  0  0  0  0
    1.2997   -2.4911    0.0099 H   0  0  0  0  0  0  0  0  0  0  0  0
  1  2  1  0  0  0  0
  1 10  2  0  0  0  0
  1 11  1  0  0  0  0
  2  3  2  0  0  0  0
  2 12  1  0  0  0  0
  3  4  1  0  0  0  0
  3 13  1  0  0  0  0
  4  5  2  0  0  0  0
  4  9  1  0  0  0  0
  5  6  1  0  0  0  0
  6  7  2  0  0  0  0
  6 14  1  0  0  0  0
  7  8  1  0  0  0  0
  7 15  1  0  0  0  0
  8  9  2  0  0  0  0
  8 16  1  0  0  0  0
  9 10  1  0  0  0  0
 10 17  1  0  0  0  0
M  END
>  <DRUGBANK_ID>
DB18050

>  <COMMON_NAME>
Quinoline

>  <CAS_NUMBER>
91-22-5

>  <UNII>
E66400VT9R

>  <SYNONYMS>
1-azanaphthalene; 1-benzazine; 2,3-benzopyridine; Benzo(b)pyridine; Chinoleine; Leucol; Leukol

$$$$
