
 OpenBabel10282417133D

 22 23  0  0  0  0  0  0  0  0999 V2000
    1.9890    1.3837   -0.0034 C   0  0  0  0  0  0  0  0  0  0  0  0
    0.7809    0.6881    0.0235 C   0  0  0  0  0  0  0  0  0  0  0  0
    0.7847   -0.6987    0.0171 C   0  0  0  0  0  0  0  0  0  0  0  0
    1.9993   -1.3847    0.0032 C   0  0  0  0  0  0  0  0  0  0  0  0
    3.2536   -0.7001   -0.0239 C   0  0  0  0  0  0  0  0  0  0  0  0
    3.2478    0.7112   -0.0398 C   0  0  0  0  0  0  0  0  0  0  0  0
    4.4142    1.6264   -0.1190 N   0  3  0  0  0  0  0  0  0  0  0  0
    4.1703    2.8420   -0.0894 O   0  0  0  0  0  0  0  0  0  0  0  0
    5.5531    1.1890   -0.2377 O   0  5  0  0  0  0  0  0  0  0  0  0
    4.4318   -1.6028   -0.0154 N   0  3  0  0  0  0  0  0  0  0  0  0
    5.5709   -1.1521    0.0386 O   0  0  0  0  0  0  0  0  0  0  0  0
    4.2004   -2.8205   -0.0366 O   0  5  0  0  0  0  0  0  0  0  0  0
   -0.4242   -1.4003    0.0184 N   0  0  0  0  0  0  0  0  0  0  0  0
   -1.6596   -0.7830    0.0040 C   0  0  0  0  0  0  0  0  0  0  0  0
   -2.6995   -1.4255   -0.0163 O   0  0  0  0  0  0  0  0  0  0  0  0
   -1.6620    0.7651    0.0135 C   0  0  0  0  0  0  0  0  0  0  0  0
   -2.7032    1.4062   -0.0075 O   0  0  0  0  0  0  0  0  0  0  0  0
   -0.4296    1.3851    0.0420 N   0  0  0  0  0  0  0  0  0  0  0  0
    1.9417    2.4739   -0.0102 H   0  0  0  0  0  0  0  0  0  0  0  0
    1.9628   -2.4754    0.0105 H   0  0  0  0  0  0  0  0  0  0  0  0
   -0.4518   -2.4128    0.0098 H   0  0  0  0  0  0  0  0  0  0  0  0
   -0.4594    2.3974    0.0549 H   0  0  0  0  0  0  0  0  0  0  0  0
  1  2  2  0  0  0  0
  1 19  1  0  0  0  0
  2  3  1  0  0  0  0
  3  4  2  0  0  0  0
  3 13  1  0  0  0  0
  4  5  1  0  0  0  0
  4 20  1  0  0  0  0
  5  6  2  0  0  0  0
  5 10  1  0  0  0  0
  6  1  1  0  0  0  0
  6  7  1  0  0  0  0
  7  8  2  0  0  0  0
  7  9  1  0  0  0  0
 10 11  2  0  0  0  0
 10 12  1  0  0  0  0
 13 14  1  0  0  0  0
 13 21  1  0  0  0  0
 14 15  2  0  0  0  0
 14 16  1  0  0  0  0
 16 17  2  0  0  0  0
 16 18  1  0  0  0  0
 18  2  1  0  0  0  0
 18 22  1  0  0  0  0
M  CHG  4   7   1   9  -1  10   1  12  -1
M  END
>  <DRUGBANK_ID>
DB03759

>  <SECONDARY_ACCESSION_NUMBERS>
EXPT01239

>  <COMMON_NAME>
FG-9041

>  <CAS_NUMBER>
2379-57-9

>  <UNII>
62T278S1MX

>  <SYNONYMS>
2,3-quinoxalinedione, 1,4-dihydro-6,7-dinitro-; 6,7-dinitro-1,4-dihydroquinoxaline-2,3-dione; 6,7-dinitroquinoxaline-2,3-dione; DNQX

$$$$
