
 OpenBabel10282417133D

 96 98  0  0  0  0  0  0  0  0999 V2000
   -3.6909   -5.6653   -6.8241 P   0  0  0  0  0  0  0  0  0  0  0  0
   -2.2197   -4.8816   -0.9691 P   0  0  2  0  0  0  0  0  0  0  0  0
    0.1222   -5.5215   -2.3796 P   0  0  1  0  0  0  0  0  0  0  0  0
   -2.7420   -8.3988   -3.1322 O   0  0  0  0  0  0  0  0  0  0  0  0
   -3.5118   -5.6779   -5.1998 O   0  0  0  0  0  0  0  0  0  0  0  0
   -1.5121   -7.2994   -5.8816 O   0  0  0  0  0  0  0  0  0  0  0  0
   -2.7536   -6.4430   -1.0498 O   0  0  0  0  0  0  0  0  0  0  0  0
   -5.2721   -5.2866   -6.9076 O   0  0  0  0  0  0  0  0  0  0  0  0
   -4.2078   -7.2979   -6.5787 O   0  0  0  0  0  0  0  0  0  0  0  0
   -0.5713   -5.3790   -0.8011 O   0  0  0  0  0  0  0  0  0  0  0  0
   -0.8529   -6.7296   -2.5210 O   0  0  0  0  0  0  0  0  0  0  0  0
   -3.2283   -4.2041   -7.0437 O   0  0  0  0  0  0  0  0  0  0  0  0
   -2.1058   -4.6263    0.6461 O   0  0  0  0  0  0  0  0  0  0  0  0
    1.9752   -7.7795   -1.1105 O   0  0  0  0  0  0  0  0  0  0  0  0
   -3.6951   -4.4364   -1.1194 O   0  0  0  0  0  0  0  0  0  0  0  0
   -0.6264   -4.1064   -2.6567 O   0  0  0  0  0  0  0  0  0  0  0  0
    0.7429   -5.6491   -3.7924 O   0  0  0  0  0  0  0  0  0  0  0  0
    3.7174   -7.0385   -3.8511 O   0  0  0  0  0  0  0  0  0  0  0  0
    4.0732  -13.2987   -3.9716 O   0  0  0  0  0  0  0  0  0  0  0  0
    8.0801   -8.3829   -7.3432 O   0  0  0  0  0  0  0  0  0  0  0  0
    2.9299   -7.0120   -6.4107 O   0  0  0  0  0  0  0  0  0  0  0  0
    3.9880   -8.5440   -7.6269 O   0  0  0  0  0  0  0  0  0  0  0  0
   -3.5864  -10.0709   -4.3637 N   0  0  0  0  0  0  0  0  0  0  0  0
   -5.4517  -11.0900   -3.7670 N   0  0  0  0  0  0  0  0  0  0  0  0
   -3.1597  -11.0789   -6.5293 N   0  0  0  0  0  0  0  0  0  0  0  0
   -4.9986  -12.5410   -7.1373 N   0  0  0  0  0  0  0  0  0  0  0  0
   -6.8535  -12.9025   -5.7078 N   0  0  0  0  0  0  0  0  0  0  0  0
    3.6290   -9.1640   -2.9757 N   0  0  0  0  0  0  0  0  0  0  0  0
    4.5481  -11.3213   -4.9460 N   0  0  0  0  0  0  0  0  0  0  0  0
    6.5402   -9.1102   -5.9447 N   0  0  0  0  0  0  0  0  0  0  0  0
   -3.6016   -7.0026   -4.6591 C   0  0  1  0  0  0  0  0  0  0  0  0
   -2.6287   -8.0421   -5.3887 C   0  0  2  0  0  0  0  0  0  0  0  0
   -2.9990   -7.0447   -3.3616 C   0  0  1  0  0  0  0  0  0  0  0  0
   -2.5448   -9.0909   -4.3373 C   0  0  1  0  0  0  0  0  0  0  0  0
   -3.7023   -6.5458   -2.1777 C   0  0  0  0  0  0  0  0  0  0  0  0
   -3.8512  -10.9096   -5.3919 C   0  0  0  0  0  0  0  0  0  0  0  0
   -4.5161  -10.2618   -3.3792 C   0  0  0  0  0  0  0  0  0  0  0  0
   -5.0477  -11.4849   -5.0249 C   0  0  0  0  0  0  0  0  0  0  0  0
    0.6646   -8.3405   -3.1675 C   0  0  0  0  0  0  0  0  0  0  0  0
    1.8975   -7.6509   -2.5235 C   0  0  2  0  0  0  0  0  0  0  0  0
   -0.4380   -7.9947   -2.2290 C   0  0  0  0  0  0  0  0  0  0  0  0
   -5.6370  -12.3237   -5.9638 C   0  0  0  0  0  0  0  0  0  0  0  0
    0.5266   -9.8177   -3.0225 C   0  0  0  0  0  0  0  0  0  0  0  0
    0.6416   -8.1833   -4.7376 C   0  0  0  0  0  0  0  0  0  0  0  0
   -3.8100  -11.9300   -7.3461 C   0  0  0  0  0  0  0  0  0  0  0  0
    3.1614   -7.9213   -3.1938 C   0  0  0  0  0  0  0  0  0  0  0  0
    3.1123  -10.3724   -2.3944 C   0  0  0  0  0  0  0  0  0  0  0  0
    2.6756  -11.4920   -3.4001 C   0  0  0  0  0  0  0  0  0  0  0  0
    3.8210  -12.1075   -4.1054 C   0  0  0  0  0  0  0  0  0  0  0  0
    4.2392  -10.0041   -5.4679 C   0  0  0  0  0  0  0  0  0  0  0  0
    5.4050   -8.9981   -5.1202 C   0  0  0  0  0  0  0  0  0  0  0  0
    7.0533   -8.1230   -6.7167 C   0  0  0  0  0  0  0  0  0  0  0  0
    6.4230   -6.7160   -6.7495 C   0  0  0  0  0  0  0  0  0  0  0  0
    5.0803   -6.5084   -7.4488 C   0  0  0  0  0  0  0  0  0  0  0  0
    3.9642   -7.4490   -7.1568 C   0  0  0  0  0  0  0  0  0  0  0  0
   -7.2811  -12.7115   -4.8094 H   0  0  0  0  0  0  0  0  0  0  0  0
   -7.2508  -13.5285   -6.3829 H   0  0  0  0  0  0  0  0  0  0  0  0
    4.5132   -9.3463   -3.3373 H   0  0  0  0  0  0  0  0  0  0  0  0
    5.2151  -11.8320   -5.5034 H   0  0  0  0  0  0  0  0  0  0  0  0
    7.0659   -9.9713   -5.8772 H   0  0  0  0  0  0  0  0  0  0  0  0
   -1.1606   -6.7576   -5.1534 H   0  0  0  0  0  0  0  0  0  0  0  0
   -5.2989   -4.3090   -6.9633 H   0  0  0  0  0  0  0  0  0  0  0  0
   -4.3362   -7.7018   -7.4618 H   0  0  0  0  0  0  0  0  0  0  0  0
   -1.2876   -4.1407    0.8579 H   0  0  0  0  0  0  0  0  0  0  0  0
    1.2549   -7.2779   -0.6940 H   0  0  0  0  0  0  0  0  0  0  0  0
   -0.1814   -3.3851   -2.1552 H   0  0  0  0  0  0  0  0  0  0  0  0
    2.9591   -6.1521   -5.9521 H   0  0  0  0  0  0  0  0  0  0  0  0
   -4.6462   -7.3063   -4.5456 H   0  0  0  0  0  0  0  0  0  0  0  0
   -2.8815   -8.6054   -6.2920 H   0  0  0  0  0  0  0  0  0  0  0  0
   -2.2007   -6.3478   -3.5999 H   0  0  0  0  0  0  0  0  0  0  0  0
   -1.6321   -9.6513   -4.3655 H   0  0  0  0  0  0  0  0  0  0  0  0
   -4.0615   -5.5964   -2.5812 H   0  0  0  0  0  0  0  0  0  0  0  0
   -4.5533   -7.1497   -1.8854 H   0  0  0  0  0  0  0  0  0  0  0  0
   -4.4734   -9.7410   -2.4280 H   0  0  0  0  0  0  0  0  0  0  0  0
    1.9843   -6.5824   -2.6215 H   0  0  0  0  0  0  0  0  0  0  0  0
   -0.2696   -8.0992   -1.1579 H   0  0  0  0  0  0  0  0  0  0  0  0
   -1.1869   -8.7638   -2.2591 H   0  0  0  0  0  0  0  0  0  0  0  0
   -0.3084  -10.3814   -3.4261 H   0  0  0  0  0  0  0  0  0  0  0  0
    1.2750  -10.0336   -3.7176 H   0  0  0  0  0  0  0  0  0  0  0  0
    0.6054  -10.1488   -1.9922 H   0  0  0  0  0  0  0  0  0  0  0  0
   -0.1356   -8.7892   -5.2020 H   0  0  0  0  0  0  0  0  0  0  0  0
    0.6228   -7.1833   -5.1564 H   0  0  0  0  0  0  0  0  0  0  0  0
    1.5096   -8.6171   -5.2346 H   0  0  0  0  0  0  0  0  0  0  0  0
   -3.3237  -12.1403   -8.2949 H   0  0  0  0  0  0  0  0  0  0  0  0
    3.9316  -10.7350   -1.7880 H   0  0  0  0  0  0  0  0  0  0  0  0
    2.3688  -10.0648   -1.6706 H   0  0  0  0  0  0  0  0  0  0  0  0
    2.0880  -12.2264   -2.8399 H   0  0  0  0  0  0  0  0  0  0  0  0
    2.0393  -11.3043   -4.2875 H   0  0  0  0  0  0  0  0  0  0  0  0
    4.0356  -10.2227   -6.5118 H   0  0  0  0  0  0  0  0  0  0  0  0
    3.2622   -9.6455   -5.1322 H   0  0  0  0  0  0  0  0  0  0  0  0
    5.0948   -7.9609   -5.1071 H   0  0  0  0  0  0  0  0  0  0  0  0
    5.8653   -9.1437   -4.1323 H   0  0  0  0  0  0  0  0  0  0  0  0
    6.4230   -6.2874   -5.7391 H   0  0  0  0  0  0  0  0  0  0  0  0
    7.1411   -6.1108   -7.3204 H   0  0  0  0  0  0  0  0  0  0  0  0
    4.7217   -5.4764   -7.4128 H   0  0  0  0  0  0  0  0  0  0  0  0
    5.2392   -6.7399   -8.5079 H   0  0  0  0  0  0  0  0  0  0  0  0
  1  5  1  0  0  0  0
  1  8  1  0  0  0  0
  1  9  1  0  0  0  0
  1 12  2  0  0  0  0
  2 13  1  0  0  0  0
  2 15  2  6  0  0  0
  2 10  1  0  0  0  0
  2  7  1  0  0  0  0
  3 10  1  0  0  0  0
  3 11  1  0  0  0  0
  3 16  1  0  0  0  0
  3 17  2  6  0  0  0
  4 33  1  0  0  0  0
  4 34  1  0  0  0  0
  6 61  1  0  0  0  0
  7 35  1  0  0  0  0
  8 62  1  0  0  0  0
  9 63  1  0  0  0  0
 11 41  1  0  0  0  0
 13 64  1  0  0  0  0
 14 65  1  0  0  0  0
 16 66  1  0  0  0  0
 18 46  2  0  0  0  0
 19 49  2  0  0  0  0
 20 52  2  0  0  0  0
 21 55  1  0  0  0  0
 21 67  1  0  0  0  0
 22 55  2  0  0  0  0
 23 36  1  0  0  0  0
 23 37  1  0  0  0  0
 24 37  2  0  0  0  0
 24 38  1  0  0  0  0
 25 36  2  0  0  0  0
 25 45  1  0  0  0  0
 26 42  1  0  0  0  0
 26 45  2  0  0  0  0
 27 42  1  0  0  0  0
 27 56  1  0  0  0  0
 27 57  1  0  0  0  0
 28 46  1  0  0  0  0
 28 47  1  0  0  0  0
 28 58  1  0  0  0  0
 29 49  1  0  0  0  0
 29 50  1  0  0  0  0
 29 59  1  0  0  0  0
 30 51  1  0  0  0  0
 30 52  1  0  0  0  0
 30 60  1  0  0  0  0
 31 32  1  0  0  0  0
 31 33  1  0  0  0  0
 31 68  1  1  0  0  0
 31  5  1  0  0  0  0
 32  6  1  0  0  0  0
 32 34  1  0  0  0  0
 32 69  1  6  0  0  0
 33 35  1  0  0  0  0
 33 70  1  6  0  0  0
 34 23  1  0  0  0  0
 34 71  1  6  0  0  0
 35 72  1  0  0  0  0
 35 73  1  0  0  0  0
 36 38  1  0  0  0  0
 37 74  1  0  0  0  0
 38 42  2  0  0  0  0
 39 40  1  0  0  0  0
 39 41  1  0  0  0  0
 39 43  1  0  0  0  0
 39 44  1  0  0  0  0
 40 14  1  0  0  0  0
 40 46  1  0  0  0  0
 40 75  1  6  0  0  0
 41 76  1  0  0  0  0
 41 77  1  0  0  0  0
 43 78  1  0  0  0  0
 43 79  1  0  0  0  0
 43 80  1  0  0  0  0
 44 81  1  0  0  0  0
 44 82  1  0  0  0  0
 44 83  1  0  0  0  0
 45 84  1  0  0  0  0
 47 48  1  0  0  0  0
 47 85  1  0  0  0  0
 47 86  1  0  0  0  0
 48 49  1  0  0  0  0
 48 87  1  0  0  0  0
 48 88  1  0  0  0  0
 50 51  1  0  0  0  0
 50 89  1  0  0  0  0
 50 90  1  0  0  0  0
 51 91  1  0  0  0  0
 51 92  1  0  0  0  0
 52 53  1  0  0  0  0
 53 54  1  0  0  0  0
 53 93  1  0  0  0  0
 53 94  1  0  0  0  0
 54 55  1  0  0  0  0
 54 95  1  0  0  0  0
 54 96  1  0  0  0  0
M  END
>  <DRUGBANK_ID>
DB03905

>  <SECONDARY_ACCESSION_NUMBERS>
EXPT02869

>  <COMMON_NAME>
Succinamide-CoA

$$$$
