697
 OpenBabel10282417103D

 24 26  0  0  0  0  0  0  0  0999 V2000
    3.3510    0.5013    0.0612 Cl  0  0  0  0  0  0  0  0  0  0  0  0
   -3.0665    0.2607   -0.0527 S   0  0  0  0  0  0  0  0  0  0  0  0
   -0.7279    3.6788    1.2546 N   0  0  0  0  0  0  0  0  0  0  0  0
    1.0572    2.4702    0.3396 N   0  0  0  0  0  0  0  0  0  0  0  0
    0.1348    4.3741   -0.7316 N   0  0  0  0  0  0  0  0  0  0  0  0
   -1.7977    1.3120    0.0195 N   0  0  0  0  0  0  0  0  0  0  0  0
   -2.2584   -1.1827   -0.0396 N   0  0  0  0  0  0  0  0  0  0  0  0
   -1.7811    4.5225    0.7346 C   0  0  0  0  0  0  0  0  0  0  0  0
   -1.0067    5.2723   -0.3512 C   0  0  0  0  0  0  0  0  0  0  0  0
    0.1621    3.5019    0.2327 C   0  0  0  0  0  0  0  0  0  0  0  0
    0.6757    1.1034    0.1292 C   0  0  0  0  0  0  0  0  0  0  0  0
   -0.6616    0.5930    0.0452 C   0  0  0  0  0  0  0  0  0  0  0  0
   -0.9499   -0.8908   -0.0097 C   0  0  0  0  0  0  0  0  0  0  0  0
    1.6647    0.0693    0.0765 C   0  0  0  0  0  0  0  0  0  0  0  0
    0.0857   -1.8467   -0.0092 C   0  0  0  0  0  0  0  0  0  0  0  0
    1.3856   -1.3262    0.0098 C   0  0  0  0  0  0  0  0  0  0  0  0
   -1.0037    2.8518    1.7613 H   0  0  0  0  0  0  0  0  0  0  0  0
    1.8785    2.6640   -0.2279 H   0  0  0  0  0  0  0  0  0  0  0  0
   -2.2091    5.1818    1.4938 H   0  0  0  0  0  0  0  0  0  0  0  0
   -2.5862    3.9250    0.2887 H   0  0  0  0  0  0  0  0  0  0  0  0
   -1.6388    5.5046   -1.2145 H   0  0  0  0  0  0  0  0  0  0  0  0
   -0.5985    6.2076    0.0470 H   0  0  0  0  0  0  0  0  0  0  0  0
   -0.1235   -2.9098   -0.0298 H   0  0  0  0  0  0  0  0  0  0  0  0
    2.2138   -2.0370   -0.0169 H   0  0  0  0  0  0  0  0  0  0  0  0
  1 14  1  0  0  0  0
  2  6  1  0  0  0  0
  2  7  1  0  0  0  0
  3  8  1  0  0  0  0
  3 10  1  0  0  0  0
  3 17  1  0  0  0  0
  4 10  1  0  0  0  0
  4 11  1  0  0  0  0
  4 18  1  0  0  0  0
  5  9  1  0  0  0  0
  5 10  2  0  0  0  0
  6 12  2  0  0  0  0
  7 13  2  0  0  0  0
  8  9  1  0  0  0  0
  8 19  1  0  0  0  0
  8 20  1  0  0  0  0
  9 21  1  0  0  0  0
  9 22  1  0  0  0  0
 11 12  1  0  0  0  0
 11 14  2  0  0  0  0
 12 13  1  0  0  0  0
 13 15  1  0  0  0  0
 14 16  1  0  0  0  0
 15 16  2  0  0  0  0
 15 23  1  0  0  0  0
 16 24  1  0  0  0  0
M  END
>  <DRUGBANK_ID>
DB00697

>  <SECONDARY_ACCESSION_NUMBERS>
APRD00128

>  <COMMON_NAME>
Tizanidine

>  <CAS_NUMBER>
51322-75-9

>  <UNII>
6AI06C00GW

>  <SYNONYMS>
5-Chloro-4-(2-imidazolin-2-ylamino)-2,1,3-benzothiadiazole; Tizanidin; Tizanidina; Tizanidine; Tizanidinum

$$$$
