
 OpenBabel10282417203D

 43 44  0  0  0  0  0  0  0  0999 V2000
    0.9266   -0.1428    0.0748 N   0  0  0  0  0  0  0  0  0  0  0  0
    0.2856   -0.9694   -0.8120 C   0  0  0  0  0  0  0  0  0  0  0  0
   -1.0087   -0.9693   -0.8621 N   0  0  0  0  0  0  0  0  0  0  0  0
    1.1001   -1.8921   -1.7316 C   0  0  0  0  0  0  0  0  0  0  0  0
    2.1488   -2.6038   -1.1999 C   0  0  0  0  0  0  0  0  0  0  0  0
    2.8986   -3.4479   -2.0546 C   0  0  0  0  0  0  0  0  0  0  0  0
    2.6890   -3.6943   -3.4649 C   0  0  0  0  0  0  0  0  0  0  0  0
    3.3553   -4.7984   -3.8743 O   0  0  0  0  0  0  0  0  0  0  0  0
    2.8592   -5.0728   -5.1448 C   0  0  0  0  0  0  0  0  0  0  0  0
    1.2365   -5.4452   -5.1173 C   0  0  0  0  0  0  0  0  0  0  0  0
   -0.0892   -4.0904   -4.6693 C   0  0  0  0  0  0  0  0  0  0  0  0
    0.0228   -2.2651   -5.2315 O   0  0  0  0  0  0  0  0  0  0  0  0
    1.4514   -1.3391   -5.8631 C   0  0  0  0  0  0  0  0  0  0  0  0
    1.5977   -0.1537   -5.1816 C   0  0  0  0  0  0  0  0  0  0  0  0
    2.9412    0.3333   -5.1045 C   0  0  0  0  0  0  0  0  0  0  0  0
    4.1618   -0.3661   -5.4931 C   0  0  0  0  0  0  0  0  0  0  0  0
    4.1433   -1.6021   -6.0412 C   0  0  0  0  0  0  0  0  0  0  0  0
    2.8863   -1.9492   -6.4393 C   0  0  0  0  0  0  0  0  0  0  0  0
    3.4320   -3.1872   -8.1657 Br  0  0  0  0  0  0  0  0  0  0  0  0
    5.5098    0.2574   -5.5405 C   0  0  0  0  0  0  0  0  0  0  0  0
    5.6209    1.5545   -5.1996 N   0  0  0  0  0  0  0  0  0  0  0  0
    6.5333   -0.4231   -5.9503 N   0  0  0  0  0  0  0  0  0  0  0  0
    1.7227   -3.0012   -4.2359 C   0  0  0  0  0  0  0  0  0  0  0  0
    1.0498   -3.6057   -6.5910 Br  0  0  0  0  0  0  0  0  0  0  0  0
    0.8698   -2.0871   -3.1343 C   0  0  0  0  0  0  0  0  0  0  0  0
    0.4318    0.5958    0.5660 H   0  0  0  0  0  0  0  0  0  0  0  0
    1.9298   -0.0135    0.0187 H   0  0  0  0  0  0  0  0  0  0  0  0
   -1.3994   -0.3117   -0.1748 H   0  0  0  0  0  0  0  0  0  0  0  0
    2.3575   -2.5819   -0.1295 H   0  0  0  0  0  0  0  0  0  0  0  0
    3.6859   -4.0309   -1.5755 H   0  0  0  0  0  0  0  0  0  0  0  0
    3.1359   -4.1778   -5.6946 H   0  0  0  0  0  0  0  0  0  0  0  0
    3.5128   -5.7677   -5.6744 H   0  0  0  0  0  0  0  0  0  0  0  0
    1.0725   -5.7862   -6.1781 H   0  0  0  0  0  0  0  0  0  0  0  0
    1.0772   -6.3886   -4.6156 H   0  0  0  0  0  0  0  0  0  0  0  0
   -1.0643   -4.4028   -5.0649 H   0  0  0  0  0  0  0  0  0  0  0  0
   -0.1206   -4.1305   -3.5660 H   0  0  0  0  0  0  0  0  0  0  0  0
    0.7651    0.3486   -4.7154 H   0  0  0  0  0  0  0  0  0  0  0  0
    3.0488    1.3313   -4.7056 H   0  0  0  0  0  0  0  0  0  0  0  0
    5.0295   -2.1786   -6.3204 H   0  0  0  0  0  0  0  0  0  0  0  0
    6.4843    2.0534   -5.3185 H   0  0  0  0  0  0  0  0  0  0  0  0
    4.7975    2.0989   -4.9997 H   0  0  0  0  0  0  0  0  0  0  0  0
    7.3778    0.1460   -5.9778 H   0  0  0  0  0  0  0  0  0  0  0  0
   -0.0724   -1.5633   -3.3844 H   0  0  0  0  0  0  0  0  0  0  0  0
  1  2  1  0  0  0  0
  1 26  1  0  0  0  0
  1 27  1  0  0  0  0
  2  3  2  0  0  0  0
  2  4  1  0  0  0  0
  3 28  1  0  0  0  0
  4  5  2  0  0  0  0
  4 25  1  0  0  0  0
  5  6  1  0  0  0  0
  5 29  1  0  0  0  0
  6  7  2  0  0  0  0
  6 30  1  0  0  0  0
  7  8  1  0  0  0  0
  7 23  1  0  0  0  0
  8  9  1  0  0  0  0
  9 10  1  0  0  0  0
  9 31  1  0  0  0  0
  9 32  1  0  0  0  0
 10 11  1  0  0  0  0
 10 33  1  0  0  0  0
 10 34  1  0  0  0  0
 11 12  1  0  0  0  0
 11 35  1  0  0  0  0
 11 36  1  0  0  0  0
 12 13  1  0  0  0  0
 13 14  2  0  0  0  0
 13 18  1  0  0  0  0
 14 15  1  0  0  0  0
 14 37  1  0  0  0  0
 15 16  2  0  0  0  0
 15 38  1  0  0  0  0
 16 17  1  0  0  0  0
 16 20  1  0  0  0  0
 17 18  2  0  0  0  0
 17 39  1  0  0  0  0
 18 19  1  0  0  0  0
 20 21  1  0  0  0  0
 20 22  2  0  0  0  0
 21 40  1  0  0  0  0
 21 41  1  0  0  0  0
 22 42  1  0  0  0  0
 23 24  1  0  0  0  0
 23 25  2  0  0  0  0
 25 43  1  0  0  0  0
M  END
>  <DRUGBANK_ID>
DB13548

>  <COMMON_NAME>
Dibrompropamidine

>  <CAS_NUMBER>
496-00-4

>  <UNII>
269M3QL74S

>  <SYNONYMS>
Dibrompropamidine

$$$$
