
 OpenBabel10282417193D

 45 46  0  0  1  0  0  0  0  0999 V2000
    0.9865    1.1557   -0.0811 C   0  0  1  0  0  0  0  0  0  0  0  0
    0.9349    1.5071   -1.4791 O   0  0  0  0  0  0  0  0  0  0  0  0
   -0.1657    1.4970    0.7502 O   0  0  0  0  0  0  0  0  0  0  0  0
    1.2104   -0.3164    0.1800 C   0  0  1  0  0  0  0  0  0  0  0  0
    1.1963    2.8661   -1.9492 C   0  0  1  0  0  0  0  0  0  0  0  0
   -1.4233    1.1188    0.1306 C   0  0  1  0  0  0  0  0  0  0  0  0
   -0.0556   -1.0633   -0.2324 C   0  0  2  0  0  0  0  0  0  0  0  0
    2.4163   -0.7847   -0.4308 O   0  0  0  0  0  0  0  0  0  0  0  0
    0.1584    3.8340   -1.7510 O   0  0  0  0  0  0  0  0  0  0  0  0
    2.4895    3.5864   -1.5113 C   0  0  1  0  0  0  0  0  0  0  0  0
   -1.3756   -0.4066    0.2764 C   0  0  2  0  0  0  0  0  0  0  0  0
   -2.7767    1.6230    0.8579 C   0  0  0  0  0  0  0  0  0  0  0  0
    0.0272   -2.3892    0.3046 O   0  0  0  0  0  0  0  0  0  0  0  0
    0.0064    4.0445   -0.3561 C   0  0  1  0  0  0  0  0  0  0  0  0
    2.5241    3.8966    0.0021 C   0  0  2  0  0  0  0  0  0  0  0  0
    3.6401    2.8921   -1.9707 O   0  0  0  0  0  0  0  0  0  0  0  0
   -2.5089   -0.9998   -0.3451 O   0  0  0  0  0  0  0  0  0  0  0  0
   -3.3269    2.9396    0.9411 O   0  0  0  0  0  0  0  0  0  0  0  0
    1.1895    4.5040    0.4966 C   0  0  2  0  0  0  0  0  0  0  0  0
   -1.3726    4.5078   -0.0062 C   0  0  0  0  0  0  0  0  0  0  0  0
    3.6025    4.7788    0.3320 O   0  0  0  0  0  0  0  0  0  0  0  0
    0.9866    4.1714    1.8868 O   0  0  0  0  0  0  0  0  0  0  0  0
   -2.2902    3.8414   -0.9106 O   0  0  0  0  0  0  0  0  0  0  0  0
    1.8781    1.5819    0.3365 H   0  0  0  0  0  0  0  0  0  0  0  0
    1.3670   -0.4367    1.2619 H   0  0  0  0  0  0  0  0  0  0  0  0
    1.2332    2.7457   -3.0431 H   0  0  0  0  0  0  0  0  0  0  0  0
   -1.4356    1.4152   -0.9290 H   0  0  0  0  0  0  0  0  0  0  0  0
   -0.0760   -1.1610   -1.3224 H   0  0  0  0  0  0  0  0  0  0  0  0
    2.3408   -0.6738   -1.3932 H   0  0  0  0  0  0  0  0  0  0  0  0
    2.4926    4.5665   -2.0106 H   0  0  0  0  0  0  0  0  0  0  0  0
   -1.4499   -0.6075    1.3536 H   0  0  0  0  0  0  0  0  0  0  0  0
   -3.5983    1.0807    0.3910 H   0  0  0  0  0  0  0  0  0  0  0  0
   -2.6623    1.3915    1.9104 H   0  0  0  0  0  0  0  0  0  0  0  0
    0.0975   -2.2991    1.2736 H   0  0  0  0  0  0  0  0  0  0  0  0
   -0.1023    3.1001   -0.0513 H   0  0  0  0  0  0  0  0  0  0  0  0
    2.8164    3.0204    0.5746 H   0  0  0  0  0  0  0  0  0  0  0  0
    3.5945    1.9767   -1.6474 H   0  0  0  0  0  0  0  0  0  0  0  0
   -2.4317   -0.8614   -1.3041 H   0  0  0  0  0  0  0  0  0  0  0  0
   -3.3311    3.3498    0.0482 H   0  0  0  0  0  0  0  0  0  0  0  0
    1.2298    5.5868    0.4640 H   0  0  0  0  0  0  0  0  0  0  0  0
   -1.5326    4.1625    1.0307 H   0  0  0  0  0  0  0  0  0  0  0  0
   -1.5639    5.5615   -0.0514 H   0  0  0  0  0  0  0  0  0  0  0  0
    3.3586    5.6690    0.0460 H   0  0  0  0  0  0  0  0  0  0  0  0
    0.9531    3.2046    2.0182 H   0  0  0  0  0  0  0  0  0  0  0  0
   -2.0617    4.0976   -1.8268 H   0  0  0  0  0  0  0  0  0  0  0  0
  1  3  1  0  0  0  0
  1  4  1  0  0  0  0
  1 24  1  1  0  0  0
  1  2  1  0  0  0  0
  3  6  1  0  0  0  0
  4  7  1  0  0  0  0
  4  8  1  0  0  0  0
  4 25  1  1  0  0  0
  5  2  1  0  0  0  0
  5  9  1  0  0  0  0
  5 10  1  0  0  0  0
  5 26  1  6  0  0  0
  6 11  1  0  0  0  0
  6 12  1  0  0  0  0
  6 27  1  6  0  0  0
  7 13  1  0  0  0  0
  7 11  1  0  0  0  0
  7 28  1  6  0  0  0
  8 29  1  0  0  0  0
  9 14  1  0  0  0  0
 10 15  1  0  0  0  0
 10 16  1  0  0  0  0
 10 30  1  6  0  0  0
 11 17  1  0  0  0  0
 11 31  1  1  0  0  0
 12 18  1  0  0  0  0
 12 32  1  0  0  0  0
 12 33  1  0  0  0  0
 13 34  1  0  0  0  0
 14 19  1  0  0  0  0
 14 20  1  0  0  0  0
 14 35  1  1  0  0  0
 15 21  1  0  0  0  0
 15 19  1  0  0  0  0
 15 36  1  1  0  0  0
 16 37  1  0  0  0  0
 17 38  1  0  0  0  0
 18 39  1  0  0  0  0
 19 22  1  0  0  0  0
 19 40  1  6  0  0  0
 20 23  1  0  0  0  0
 20 41  1  0  0  0  0
 20 42  1  0  0  0  0
 21 43  1  0  0  0  0
 22 44  1  0  0  0  0
 23 45  1  0  0  0  0
M  END
>  <DRUGBANK_ID>
DB12310

>  <COMMON_NAME>
Trehalose

>  <CAS_NUMBER>
99-20-7

>  <UNII>
B8WCK70T7I

>  <SYNONYMS>
Cabaletta

$$$$
