
 OpenBabel10282417203D

 50 53  0  0  0  0  0  0  0  0999 V2000
    2.7076   -0.0448    0.6197 C   0  0  0  0  0  0  0  0  0  0  0  0
    2.1980    1.2538    0.7276 C   0  0  0  0  0  0  0  0  0  0  0  0
    0.8282    1.4838    1.0106 C   0  0  0  0  0  0  0  0  0  0  0  0
   -0.0316    0.3989    1.0897 C   0  0  0  0  0  0  0  0  0  0  0  0
    0.4896   -0.8746    0.9966 C   0  0  0  0  0  0  0  0  0  0  0  0
    1.8525   -1.1253    0.7978 C   0  0  0  0  0  0  0  0  0  0  0  0
   -0.5849   -1.8270    0.6288 C   0  0  0  0  0  0  0  0  0  0  0  0
   -1.7796   -1.0052    0.3735 N   0  0  0  0  0  0  0  0  0  0  0  0
   -1.5046    0.2943    0.8462 C   0  0  0  0  0  0  0  0  0  0  0  0
   -2.3149    1.2175    0.9403 O   0  0  0  0  0  0  0  0  0  0  0  0
   -3.1695   -1.4782   -0.0065 C   0  0  0  0  0  0  0  0  0  0  0  0
   -3.5358   -2.3116   -1.3449 C   0  0  0  0  0  0  0  0  0  0  0  0
   -2.8129   -3.6743   -1.4691 C   0  0  0  0  0  0  0  0  0  0  0  0
   -1.3684   -3.4468   -1.9100 C   0  0  0  0  0  0  0  0  0  0  0  0
   -1.0914   -2.6821   -3.1403 N   0  0  0  0  0  0  0  0  0  0  0  0
   -1.9481   -1.5278   -3.1338 C   0  0  0  0  0  0  0  0  0  0  0  0
   -3.3913   -1.5796   -2.6982 C   0  0  0  0  0  0  0  0  0  0  0  0
    0.3127   -2.0986   -3.2125 C   0  0  0  0  0  0  0  0  0  0  0  0
    0.8247   -0.8741   -2.3647 C   0  0  0  0  0  0  0  0  0  0  0  0
    1.9913   -0.9997   -1.9558 O   0  0  0  0  0  0  0  0  0  0  0  0
    0.1622    0.5682   -2.2377 C   0  0  0  0  0  0  0  0  0  0  0  0
   -1.2007    0.9075   -2.0301 C   0  0  0  0  0  0  0  0  0  0  0  0
   -1.7740    2.1472   -1.7847 C   0  0  0  0  0  0  0  0  0  0  0  0
   -0.9138    3.1474   -1.4941 C   0  0  0  0  0  0  0  0  0  0  0  0
    0.4571    2.9282   -1.6409 C   0  0  0  0  0  0  0  0  0  0  0  0
    0.9934    1.6710   -2.0605 C   0  0  0  0  0  0  0  0  0  0  0  0
   -1.3875    4.2160   -0.8449 F   0  0  0  0  0  0  0  0  0  0  0  0
    3.7078   -0.2208    0.2179 H   0  0  0  0  0  0  0  0  0  0  0  0
    2.8362    2.0777    0.4033 H   0  0  0  0  0  0  0  0  0  0  0  0
    0.4286    2.4896    0.9379 H   0  0  0  0  0  0  0  0  0  0  0  0
    2.1918   -2.1192    0.5014 H   0  0  0  0  0  0  0  0  0  0  0  0
   -0.7757   -2.6435    1.3163 H   0  0  0  0  0  0  0  0  0  0  0  0
   -0.0810   -2.1803   -0.2612 H   0  0  0  0  0  0  0  0  0  0  0  0
   -3.5250   -2.0604    0.8523 H   0  0  0  0  0  0  0  0  0  0  0  0
   -3.8145   -0.5841   -0.0311 H   0  0  0  0  0  0  0  0  0  0  0  0
   -4.6129   -2.5195   -1.2566 H   0  0  0  0  0  0  0  0  0  0  0  0
   -2.8327   -4.1387   -0.4740 H   0  0  0  0  0  0  0  0  0  0  0  0
   -3.3058   -4.3427   -2.1764 H   0  0  0  0  0  0  0  0  0  0  0  0
   -1.2067   -2.7460   -1.1608 H   0  0  0  0  0  0  0  0  0  0  0  0
   -0.6637   -4.2461   -1.6708 H   0  0  0  0  0  0  0  0  0  0  0  0
   -1.7694   -0.8263   -3.9578 H   0  0  0  0  0  0  0  0  0  0  0  0
   -1.4972   -1.1639   -2.2497 H   0  0  0  0  0  0  0  0  0  0  0  0
   -3.9381   -2.0865   -3.4941 H   0  0  0  0  0  0  0  0  0  0  0  0
   -3.8015   -0.5634   -2.6120 H   0  0  0  0  0  0  0  0  0  0  0  0
    1.0129   -2.9309   -3.0462 H   0  0  0  0  0  0  0  0  0  0  0  0
    0.4829   -1.7426   -4.2323 H   0  0  0  0  0  0  0  0  0  0  0  0
   -1.9795    0.2391   -1.7187 H   0  0  0  0  0  0  0  0  0  0  0  0
   -2.8341    2.1881   -1.5296 H   0  0  0  0  0  0  0  0  0  0  0  0
    1.1143    3.6829   -1.2227 H   0  0  0  0  0  0  0  0  0  0  0  0
    2.0728    1.5256   -2.0256 H   0  0  0  0  0  0  0  0  0  0  0  0
  1  2  2  0  0  0  0
  1  6  1  0  0  0  0
  1 28  1  0  0  0  0
  2  3  1  0  0  0  0
  2 29  1  0  0  0  0
  3  4  2  0  0  0  0
  3 30  1  0  0  0  0
  4  5  1  0  0  0  0
  4  9  1  0  0  0  0
  5  6  2  0  0  0  0
  5  7  1  0  0  0  0
  6 31  1  0  0  0  0
  7  8  1  0  0  0  0
  7 32  1  0  0  0  0
  7 33  1  0  0  0  0
  8  9  1  0  0  0  0
  8 11  1  0  0  0  0
  9 10  2  0  0  0  0
 11 12  1  0  0  0  0
 11 34  1  0  0  0  0
 11 35  1  0  0  0  0
 12 13  1  0  0  0  0
 12 17  1  0  0  0  0
 12 36  1  0  0  0  0
 13 14  1  0  0  0  0
 13 37  1  0  0  0  0
 13 38  1  0  0  0  0
 14 15  1  0  0  0  0
 14 39  1  0  0  0  0
 14 40  1  0  0  0  0
 15 16  1  0  0  0  0
 15 18  1  0  0  0  0
 16 17  1  0  0  0  0
 16 41  1  0  0  0  0
 16 42  1  0  0  0  0
 17 43  1  0  0  0  0
 17 44  1  0  0  0  0
 18 19  1  0  0  0  0
 18 45  1  0  0  0  0
 18 46  1  0  0  0  0
 19 20  2  0  0  0  0
 19 21  1  0  0  0  0
 21 22  2  0  0  0  0
 21 26  1  0  0  0  0
 22 23  1  0  0  0  0
 22 47  1  0  0  0  0
 23 24  2  0  0  0  0
 23 48  1  0  0  0  0
 24 25  1  0  0  0  0
 24 27  1  0  0  0  0
 25 26  2  0  0  0  0
 25 49  1  0  0  0  0
 26 50  1  0  0  0  0
M  END
>  <DRUGBANK_ID>
DB13080

>  <COMMON_NAME>
Roluperidone

>  <CAS_NUMBER>
359625-79-9

>  <UNII>
4P31I0M3BF

>  <SYNONYMS>
Roluperidone

$$$$
