
 OpenBabel10282417183D

 48 51  0  0  0  0  0  0  0  0999 V2000
    1.0310    0.0382    0.2103 C   0  0  0  0  0  0  0  0  0  0  0  0
    0.3826    1.3294    0.1814 N   0  0  0  0  0  0  0  0  0  0  0  0
   -0.8134    1.5227   -0.6307 C   0  0  0  0  0  0  0  0  0  0  0  0
    0.9040    2.3028    0.9878 C   0  0  0  0  0  0  0  0  0  0  0  0
    1.7069    2.0717    1.9089 O   0  0  0  0  0  0  0  0  0  0  0  0
    0.4719    3.6940    0.6739 C   0  0  0  0  0  0  0  0  0  0  0  0
    1.1106    4.2214   -0.6407 C   0  0  0  0  0  0  0  0  0  0  0  0
    0.8875    3.6094   -1.9705 N   0  0  0  0  0  0  0  0  0  0  0  0
    0.0686    4.1087   -2.9760 C   0  0  0  0  0  0  0  0  0  0  0  0
   -0.2431    3.1068   -3.7891 N   0  0  0  0  0  0  0  0  0  0  0  0
    0.5137    2.0216   -3.3725 C   0  0  0  0  0  0  0  0  0  0  0  0
    1.3259    2.3530   -2.3411 N   0  0  0  0  0  0  0  0  0  0  0  0
    0.2754    0.8142   -4.0072 N   0  0  0  0  0  0  0  0  0  0  0  0
    0.5485   -0.5426   -3.6441 C   0  0  0  0  0  0  0  0  0  0  0  0
   -0.2263   -1.2711   -2.7077 C   0  0  0  0  0  0  0  0  0  0  0  0
    0.1825   -2.5261   -2.1901 C   0  0  0  0  0  0  0  0  0  0  0  0
    1.2793   -3.1267   -2.7571 C   0  0  0  0  0  0  0  0  0  0  0  0
    1.8927   -2.5442   -3.8388 C   0  0  0  0  0  0  0  0  0  0  0  0
    1.5253   -1.2871   -4.3226 C   0  0  0  0  0  0  0  0  0  0  0  0
    2.9150   -3.3086   -4.3203 O   0  0  0  0  0  0  0  0  0  0  0  0
    2.9095   -4.3827   -3.3667 C   0  0  0  0  0  0  0  0  0  0  0  0
    1.8671   -4.2945   -2.3794 O   0  0  0  0  0  0  0  0  0  0  0  0
    2.7764   -5.5563   -4.0353 F   0  0  0  0  0  0  0  0  0  0  0  0
    4.1145   -4.4138   -2.7415 F   0  0  0  0  0  0  0  0  0  0  0  0
   -0.3878    5.5006   -3.0563 C   0  0  0  0  0  0  0  0  0  0  0  0
    0.5341    6.5421   -2.8931 C   0  0  0  0  0  0  0  0  0  0  0  0
    0.0811    7.8482   -2.8989 C   0  0  0  0  0  0  0  0  0  0  0  0
   -1.1942    8.1850   -3.1648 N   0  0  0  0  0  0  0  0  0  0  0  0
   -2.0551    7.1717   -3.4071 C   0  0  0  0  0  0  0  0  0  0  0  0
   -1.7190    5.8283   -3.3104 C   0  0  0  0  0  0  0  0  0  0  0  0
    0.7747   -0.5254   -0.6701 H   0  0  0  0  0  0  0  0  0  0  0  0
    0.7146   -0.4999    1.1025 H   0  0  0  0  0  0  0  0  0  0  0  0
    2.1223    0.1527    0.2074 H   0  0  0  0  0  0  0  0  0  0  0  0
   -1.7089    1.6426   -0.0340 H   0  0  0  0  0  0  0  0  0  0  0  0
   -0.7965    2.4528   -1.1767 H   0  0  0  0  0  0  0  0  0  0  0  0
   -0.8982    0.7546   -1.3758 H   0  0  0  0  0  0  0  0  0  0  0  0
   -0.6238    3.7591    0.7064 H   0  0  0  0  0  0  0  0  0  0  0  0
    0.8015    4.3194    1.5207 H   0  0  0  0  0  0  0  0  0  0  0  0
    0.7100    5.2398   -0.6929 H   0  0  0  0  0  0  0  0  0  0  0  0
    2.1909    4.3212   -0.5109 H   0  0  0  0  0  0  0  0  0  0  0  0
   -0.2926    0.8738   -4.8475 H   0  0  0  0  0  0  0  0  0  0  0  0
   -1.1382   -0.8555   -2.2929 H   0  0  0  0  0  0  0  0  0  0  0  0
   -0.3270   -2.9619   -1.3331 H   0  0  0  0  0  0  0  0  0  0  0  0
    2.0370   -0.8833   -5.1868 H   0  0  0  0  0  0  0  0  0  0  0  0
    1.5925    6.3434   -2.7588 H   0  0  0  0  0  0  0  0  0  0  0  0
    0.7547    8.6752   -2.6916 H   0  0  0  0  0  0  0  0  0  0  0  0
   -3.0520    7.4834   -3.7080 H   0  0  0  0  0  0  0  0  0  0  0  0
   -2.4788    5.0667   -3.4503 H   0  0  0  0  0  0  0  0  0  0  0  0
  1  2  1  0  0  0  0
  1 31  1  0  0  0  0
  1 32  1  0  0  0  0
  1 33  1  0  0  0  0
  2  3  1  0  0  0  0
  2  4  1  0  0  0  0
  3 34  1  0  0  0  0
  3 35  1  0  0  0  0
  3 36  1  0  0  0  0
  4  5  2  0  0  0  0
  4  6  1  0  0  0  0
  6  7  1  0  0  0  0
  6 37  1  0  0  0  0
  6 38  1  0  0  0  0
  7  8  1  0  0  0  0
  7 39  1  0  0  0  0
  7 40  1  0  0  0  0
  8  9  1  0  0  0  0
  8 12  1  0  0  0  0
  9 10  2  0  0  0  0
  9 25  1  0  0  0  0
 10 11  1  0  0  0  0
 11 12  2  0  0  0  0
 11 13  1  0  0  0  0
 13 14  1  0  0  0  0
 13 41  1  0  0  0  0
 14 15  2  0  0  0  0
 14 19  1  0  0  0  0
 15 16  1  0  0  0  0
 15 42  1  0  0  0  0
 16 17  2  0  0  0  0
 16 43  1  0  0  0  0
 17 18  1  0  0  0  0
 17 22  1  0  0  0  0
 18 19  2  0  0  0  0
 18 20  1  0  0  0  0
 19 44  1  0  0  0  0
 20 21  1  0  0  0  0
 21 22  1  0  0  0  0
 21 23  1  0  0  0  0
 21 24  1  0  0  0  0
 25 26  2  0  0  0  0
 25 30  1  0  0  0  0
 26 27  1  0  0  0  0
 26 45  1  0  0  0  0
 27 28  2  0  0  0  0
 27 46  1  0  0  0  0
 28 29  1  0  0  0  0
 29 30  2  0  0  0  0
 29 47  1  0  0  0  0
 30 48  1  0  0  0  0
M  END
>  <DRUGBANK_ID>
DB11867

>  <COMMON_NAME>
JNJ-39393406

>  <CAS_NUMBER>
953428-73-4

>  <UNII>
T930SOU82P

$$$$
