
 OpenBabel10282417203D

 38 37  0  0  0  0  0  0  0  0999 V2000
    1.4553    0.0895   -0.0189 C   0  0  0  0  0  0  0  0  0  0  0  0
   -5.2784    2.7444    1.5776 C   0  0  0  0  0  0  0  0  0  0  0  0
    1.0254    0.4523   -1.4548 C   0  0  0  0  0  0  0  0  0  0  0  0
   -4.9440    1.2590    1.7428 C   0  0  0  0  0  0  0  0  0  0  0  0
    1.1925   -0.6154   -2.4999 C   0  0  0  0  0  0  0  0  0  0  0  0
   -5.5513    0.4379    0.6065 C   0  0  0  0  0  0  0  0  0  0  0  0
   -1.5064   -0.4200   -0.1662 C   0  0  0  0  0  0  0  0  0  0  0  0
   -1.5608    1.1078   -0.3861 C   0  0  0  0  0  0  0  0  0  0  0  0
    0.4177   -1.9017   -2.1379 C   0  0  0  0  0  0  0  0  0  0  0  0
   -5.1546    0.9307   -0.7880 C   0  0  0  0  0  0  0  0  0  0  0  0
   -1.9771   -1.3250   -1.2771 C   0  0  0  0  0  0  0  0  0  0  0  0
   -2.8977    1.6774   -0.2791 C   0  0  0  0  0  0  0  0  0  0  0  0
   -3.1586   -1.6458   -1.3737 O   0  0  0  0  0  0  0  0  0  0  0  0
   -3.0555    2.7279    0.2751 O   0  0  0  0  0  0  0  0  0  0  0  0
   -1.0580   -1.7896   -2.1780 O   0  0  0  0  0  0  0  0  0  0  0  0
   -3.7450    0.8863   -0.9757 O   0  0  0  0  0  0  0  0  0  0  0  0
    1.2240   -0.9362    0.3026 H   0  0  0  0  0  0  0  0  0  0  0  0
    0.9805    0.7395    0.7307 H   0  0  0  0  0  0  0  0  0  0  0  0
    2.5301    0.1618    0.0845 H   0  0  0  0  0  0  0  0  0  0  0  0
   -6.3398    2.9182    1.7374 H   0  0  0  0  0  0  0  0  0  0  0  0
   -4.6793    3.3533    2.2596 H   0  0  0  0  0  0  0  0  0  0  0  0
   -5.0992    3.1388    0.5713 H   0  0  0  0  0  0  0  0  0  0  0  0
   -0.0198    0.5209   -1.6195 H   0  0  0  0  0  0  0  0  0  0  0  0
    1.3299    1.4716   -1.7035 H   0  0  0  0  0  0  0  0  0  0  0  0
   -5.3061    0.9137    2.7140 H   0  0  0  0  0  0  0  0  0  0  0  0
   -3.8647    1.0627    1.7953 H   0  0  0  0  0  0  0  0  0  0  0  0
    0.7687   -0.2308   -3.4404 H   0  0  0  0  0  0  0  0  0  0  0  0
    2.2595   -0.7761   -2.6364 H   0  0  0  0  0  0  0  0  0  0  0  0
   -6.6410    0.4668    0.6940 H   0  0  0  0  0  0  0  0  0  0  0  0
   -5.2400   -0.6088    0.7285 H   0  0  0  0  0  0  0  0  0  0  0  0
   -1.8344   -0.6997    0.8396 H   0  0  0  0  0  0  0  0  0  0  0  0
   -0.5104   -0.7781   -0.0949 H   0  0  0  0  0  0  0  0  0  0  0  0
   -0.9300    1.6231    0.3514 H   0  0  0  0  0  0  0  0  0  0  0  0
   -1.3182    1.5308   -1.3700 H   0  0  0  0  0  0  0  0  0  0  0  0
    0.6645   -2.6387   -2.9111 H   0  0  0  0  0  0  0  0  0  0  0  0
    0.7379   -2.3443   -1.1904 H   0  0  0  0  0  0  0  0  0  0  0  0
   -5.5270    1.9239   -1.0397 H   0  0  0  0  0  0  0  0  0  0  0  0
   -5.5807    0.2451   -1.5308 H   0  0  0  0  0  0  0  0  0  0  0  0
  1 17  1  0  0  0  0
  1 18  1  0  0  0  0
  1 19  1  0  0  0  0
  2 20  1  0  0  0  0
  2 21  1  0  0  0  0
  2 22  1  0  0  0  0
  3  1  1  0  0  0  0
  3 23  1  0  0  0  0
  3 24  1  0  0  0  0
  4  2  1  0  0  0  0
  4 25  1  0  0  0  0
  4 26  1  0  0  0  0
  5  3  1  0  0  0  0
  5 27  1  0  0  0  0
  5 28  1  0  0  0  0
  6  4  1  0  0  0  0
  6 29  1  0  0  0  0
  6 30  1  0  0  0  0
  7 31  1  0  0  0  0
  7 32  1  0  0  0  0
  8  7  1  0  0  0  0
  8 33  1  0  0  0  0
  8 34  1  0  0  0  0
  9  5  1  0  0  0  0
  9 35  1  0  0  0  0
  9 36  1  0  0  0  0
 10  6  1  0  0  0  0
 10 37  1  0  0  0  0
 10 38  1  0  0  0  0
 11  7  1  0  0  0  0
 12  8  1  0  0  0  0
 13 11  2  0  0  0  0
 14 12  2  0  0  0  0
 15  9  1  0  0  0  0
 15 11  1  0  0  0  0
 16 10  1  0  0  0  0
 16 12  1  0  0  0  0
M  END
>  <DRUGBANK_ID>
DB13332

>  <COMMON_NAME>
Dibutylsuccinate

>  <CAS_NUMBER>
141-03-7

>  <UNII>
Q050512U41

>  <SYNONYMS>
Dibutyl succinate

$$$$
