
 OpenBabel10282417233D

 43 46  0  0  1  0  0  0  0  0999 V2000
   -1.1418   -0.0671    0.1425 H   0  0  0  0  0  0  0  0  0  0  0  0
   -2.2170   -0.2537    0.3088 C   0  0  1  0  0  0  0  0  0  0  0  0
   -2.5551   -1.5264   -0.5457 C   0  0  0  0  0  0  0  0  0  0  0  0
   -4.0828   -1.4892   -0.7387 C   0  0  0  0  0  0  0  0  0  0  0  0
   -4.4928   -0.2982   -1.6259 C   0  0  0  0  0  0  0  0  0  0  0  0
   -4.3484    0.9367   -0.8019 N   0  3  1  0  0  0  0  0  0  0  0  0
   -5.2686    0.9626    0.2013 O   0  5  0  0  0  0  0  0  0  0  0  0
   -4.3125    2.2632   -1.6036 C   0  0  0  0  0  0  0  0  0  0  0  0
   -2.8368    2.5605   -2.1062 C   0  0  0  0  0  0  0  0  0  0  0  0
   -1.8159    2.6655   -0.6133 C   0  0  0  0  0  0  0  0  0  0  0  0
   -2.8980    2.2148    0.5459 C   0  0  2  0  0  0  0  0  0  0  0  0
   -3.3672    3.1929    0.4245 H   0  0  0  0  0  0  0  0  0  0  0  0
   -3.4049    1.9778    2.2116 C   0  0  1  0  0  0  0  0  0  0  0  0
   -3.4228    3.0347    2.5467 H   0  0  0  0  0  0  0  0  0  0  0  0
   -4.6145    1.3941    3.5167 C   0  0  0  0  0  0  0  0  0  0  0  0
   -4.3879   -0.0792    4.0813 C   0  0  0  0  0  0  0  0  0  0  0  0
   -2.8836   -0.1964    4.4404 C   0  0  0  0  0  0  0  0  0  0  0  0
   -2.1946    1.0385    3.8964 C   0  0  0  0  0  0  0  0  0  0  0  0
   -1.9767    2.0913    4.5687 O   0  0  0  0  0  0  0  0  0  0  0  0
   -2.3227    1.0750    2.5148 N   0  0  0  0  0  0  0  0  0  0  0  0
   -2.3800   -0.2352    1.7895 C   0  0  0  0  0  0  0  0  0  0  0  0
   -3.0060    0.9068   -0.2164 C   0  0  2  0  0  0  0  0  0  0  0  0
   -2.4513    0.7972   -1.1665 H   0  0  0  0  0  0  0  0  0  0  0  0
   -2.2669   -2.4895   -0.1159 H   0  0  0  0  0  0  0  0  0  0  0  0
   -1.9240   -1.4535   -1.4545 H   0  0  0  0  0  0  0  0  0  0  0  0
   -4.7121   -2.3512   -0.9707 H   0  0  0  0  0  0  0  0  0  0  0  0
   -4.3692   -1.3892    0.3098 H   0  0  0  0  0  0  0  0  0  0  0  0
   -5.5356   -0.3184   -1.9461 H   0  0  0  0  0  0  0  0  0  0  0  0
   -3.8536   -0.2045   -2.5146 H   0  0  0  0  0  0  0  0  0  0  0  0
   -5.1749    2.3353   -2.2648 H   0  0  0  0  0  0  0  0  0  0  0  0
   -4.5370    3.0602   -0.8865 H   0  0  0  0  0  0  0  0  0  0  0  0
   -2.9010    3.3919   -2.8162 H   0  0  0  0  0  0  0  0  0  0  0  0
   -2.4797    1.7268   -2.7563 H   0  0  0  0  0  0  0  0  0  0  0  0
   -1.2607    3.5992   -0.4962 H   0  0  0  0  0  0  0  0  0  0  0  0
   -0.9756    1.9277   -0.6789 H   0  0  0  0  0  0  0  0  0  0  0  0
   -5.6558    1.7505    3.6864 H   0  0  0  0  0  0  0  0  0  0  0  0
   -4.2609    1.9191    4.4523 H   0  0  0  0  0  0  0  0  0  0  0  0
   -5.0007   -0.3412    4.9690 H   0  0  0  0  0  0  0  0  0  0  0  0
   -4.7031   -0.8461    3.3621 H   0  0  0  0  0  0  0  0  0  0  0  0
   -2.6695   -0.3774    5.4911 H   0  0  0  0  0  0  0  0  0  0  0  0
   -2.4587   -1.0567    3.9251 H   0  0  0  0  0  0  0  0  0  0  0  0
   -3.2889   -0.7875    2.0083 H   0  0  0  0  0  0  0  0  0  0  0  0
   -1.5020   -0.7480    2.1572 H   0  0  0  0  0  0  0  0  0  0  0  0
  2  3  1  0  0  0  0
  2 21  1  0  0  0  0
  2  1  1  1  0  0  0
  3  4  1  0  0  0  0
  3 24  1  0  0  0  0
  3 25  1  0  0  0  0
  4  5  1  0  0  0  0
  4 26  1  0  0  0  0
  4 27  1  0  0  0  0
  5 28  1  0  0  0  0
  5 29  1  0  0  0  0
  6  5  1  0  0  0  0
  6  8  1  0  0  0  0
  6  7  1  6  0  0  0
  8  9  1  0  0  0  0
  8 30  1  0  0  0  0
  8 31  1  0  0  0  0
  9 10  1  0  0  0  0
  9 32  1  0  0  0  0
  9 33  1  0  0  0  0
 10 34  1  0  0  0  0
 10 35  1  0  0  0  0
 11 10  1  0  0  0  0
 11 13  1  0  0  0  0
 11 12  1  6  0  0  0
 13 15  1  0  0  0  0
 13 20  1  0  0  0  0
 13 14  1  1  0  0  0
 15 16  1  0  0  0  0
 15 36  1  0  0  0  0
 15 37  1  0  0  0  0
 16 17  1  0  0  0  0
 16 38  1  0  0  0  0
 16 39  1  0  0  0  0
 17 18  1  0  0  0  0
 17 40  1  0  0  0  0
 17 41  1  0  0  0  0
 18 20  1  0  0  0  0
 18 19  2  0  0  0  0
 20 21  1  0  0  0  0
 21 42  1  0  0  0  0
 21 43  1  0  0  0  0
 22 11  1  0  0  0  0
 22  2  1  0  0  0  0
 22  6  1  0  0  0  0
 22 23  1  1  0  0  0
M  CHG  2   6   1   7  -1
M  END
>  <DRUGBANK_ID>
DB16276

>  <COMMON_NAME>
Oxymatrine

>  <CAS_NUMBER>
16837-52-8

>  <UNII>
85U4C366QS

$$$$
