
 OpenBabel10282417153D

 58 61  0  0  0  0  0  0  0  0999 V2000
   -0.8747    0.6001   -1.2152 C   0  0  0  0  0  0  0  0  0  0  0  0
   -0.4093   -0.8235   -1.8019 C   0  0  2  0  0  0  0  0  0  0  0  0
    0.3790   -2.3993   -1.2795 C   0  0  2  0  0  0  0  0  0  0  0  0
   -1.7839   -1.6362   -2.0969 C   0  0  2  0  0  0  0  0  0  0  0  0
    0.8169   -0.0804   -2.4434 C   0  0  0  0  0  0  0  0  0  0  0  0
    1.9889   -2.2900   -0.5359 C   0  0  1  0  0  0  0  0  0  0  0  0
   -0.0140   -3.2836   -2.5124 C   0  0  0  0  0  0  0  0  0  0  0  0
   -2.8546   -0.5425   -1.3405 C   0  0  0  0  0  0  0  0  0  0  0  0
   -2.9827   -1.6504   -2.9470 O   0  0  0  0  0  0  0  0  0  0  0  0
   -0.9451   -2.3003   -3.2749 C   0  0  0  0  0  0  0  0  0  0  0  0
    2.0109    0.1938   -1.3652 C   0  0  0  0  0  0  0  0  0  0  0  0
    2.4988   -0.6909   -0.3948 C   0  0  0  0  0  0  0  0  0  0  0  0
    2.4834   -3.4358    0.6436 C   0  0  0  0  0  0  0  0  0  0  0  0
   -2.8430   -0.4350    0.4654 C   0  0  0  0  0  0  0  0  0  0  0  0
   -3.2726    0.4283   -2.0268 O   0  0  0  0  0  0  0  0  0  0  0  0
    3.0482   -0.2491    1.2256 C   0  0  2  0  0  0  0  0  0  0  0  0
    3.1364   -2.8461    1.9417 C   0  0  0  0  0  0  0  0  0  0  0  0
   -1.9689    0.5599    1.3450 O   0  0  0  0  0  0  0  0  0  0  0  0
    4.0277    0.9776    0.6938 C   0  0  0  0  0  0  0  0  0  0  0  0
    2.4728   -1.5516    2.1043 C   0  0  0  0  0  0  0  0  0  0  0  0
    2.8142    0.6660    2.7231 C   0  0  0  0  0  0  0  0  0  0  0  0
   -0.5742    0.6923    1.2500 C   0  0  0  0  0  0  0  0  0  0  0  0
    1.3026   -1.8603    2.8099 C   0  0  0  0  0  0  0  0  0  0  0  0
    2.3884   -0.1133    4.0567 C   0  0  0  0  0  0  0  0  0  0  0  0
   -0.0498   -0.6908    0.8550 C   0  0  0  0  0  0  0  0  0  0  0  0
    0.0681    1.7531    1.2213 O   0  0  0  0  0  0  0  0  0  0  0  0
    1.1950   -0.4788    3.3128 C   0  0  0  0  0  0  0  0  0  0  0  0
    0.2846    0.2442    3.2416 O   0  0  0  0  0  0  0  0  0  0  0  0
    1.4173   -2.0847    0.3117 H   0  0  0  0  0  0  0  0  0  0  0  0
   -0.1981   -2.9775   -0.5141 H   0  0  0  0  0  0  0  0  0  0  0  0
   -1.7753    1.1653   -0.9126 H   0  0  0  0  0  0  0  0  0  0  0  0
   -0.2119    1.4346   -1.0448 H   0  0  0  0  0  0  0  0  0  0  0  0
   -1.1720    0.0568   -0.4162 H   0  0  0  0  0  0  0  0  0  0  0  0
    1.2349   -0.4069   -3.3780 H   0  0  0  0  0  0  0  0  0  0  0  0
    0.3871    0.8966   -2.7688 H   0  0  0  0  0  0  0  0  0  0  0  0
   -0.8027   -4.0580   -2.4337 H   0  0  0  0  0  0  0  0  0  0  0  0
    0.7516   -4.0478   -2.7162 H   0  0  0  0  0  0  0  0  0  0  0  0
   -3.0850   -0.7811   -3.3867 H   0  0  0  0  0  0  0  0  0  0  0  0
   -1.5207   -2.7682   -4.0809 H   0  0  0  0  0  0  0  0  0  0  0  0
   -0.3845   -1.5481   -3.8397 H   0  0  0  0  0  0  0  0  0  0  0  0
    2.1442    1.2861   -1.2823 H   0  0  0  0  0  0  0  0  0  0  0  0
    2.9961   -4.3506    0.3530 H   0  0  0  0  0  0  0  0  0  0  0  0
    1.5100   -3.8372    0.9993 H   0  0  0  0  0  0  0  0  0  0  0  0
   -3.8387   -0.1014    0.7542 H   0  0  0  0  0  0  0  0  0  0  0  0
   -2.6336   -1.4484    0.8343 H   0  0  0  0  0  0  0  0  0  0  0  0
    4.2180   -2.8058    2.0473 H   0  0  0  0  0  0  0  0  0  0  0  0
    2.8479   -3.3849    2.8710 H   0  0  0  0  0  0  0  0  0  0  0  0
    3.6281    1.4871   -0.2001 H   0  0  0  0  0  0  0  0  0  0  0  0
    4.0874    1.8972    1.3096 H   0  0  0  0  0  0  0  0  0  0  0  0
    5.0243    0.6946    0.3714 H   0  0  0  0  0  0  0  0  0  0  0  0
    3.7431    1.1445    3.0779 H   0  0  0  0  0  0  0  0  0  0  0  0
    2.1778    1.5049    2.4368 H   0  0  0  0  0  0  0  0  0  0  0  0
    0.1850   -1.8020    2.9310 H   0  0  0  0  0  0  0  0  0  0  0  0
    3.0931   -0.9169    4.2894 H   0  0  0  0  0  0  0  0  0  0  0  0
    1.6335   -0.2371    4.8822 H   0  0  0  0  0  0  0  0  0  0  0  0
    0.5977   -0.5362    0.0452 H   0  0  0  0  0  0  0  0  0  0  0  0
    0.0286   -1.6289    1.3173 H   0  0  0  0  0  0  0  0  0  0  0  0
   -0.7915   -1.3002    0.3628 H   0  0  0  0  0  0  0  0  0  0  0  0
  1 31  1  0  0  0  0
  1 32  1  0  0  0  0
  1 33  1  0  0  0  0
  2  4  1  0  0  0  0
  2  5  1  0  0  0  0
  2  1  1  6  0  0  0
  3  2  1  0  0  0  0
  3  7  1  0  0  0  0
  3 30  1  1  0  0  0
  4 10  1  0  0  0  0
  4  9  1  1  0  0  0
  4  8  1  0  0  0  0
  5 11  1  0  0  0  0
  5 34  1  0  0  0  0
  5 35  1  0  0  0  0
  6  3  1  0  0  0  0
  6 12  1  0  0  0  0
  6 13  1  0  0  0  0
  6 29  1  6  0  0  0
  7 10  1  0  0  0  0
  7 36  1  0  0  0  0
  7 37  1  0  0  0  0
  8 14  1  0  0  0  0
  8 15  2  0  0  0  0
  9 38  1  0  0  0  0
 10 39  1  0  0  0  0
 10 40  1  0  0  0  0
 11 12  2  0  0  0  0
 11 41  1  0  0  0  0
 13 17  1  0  0  0  0
 13 42  1  0  0  0  0
 13 43  1  0  0  0  0
 14 18  1  0  0  0  0
 14 44  1  0  0  0  0
 14 45  1  0  0  0  0
 16 12  1  0  0  0  0
 16 20  1  0  0  0  0
 16 21  1  0  0  0  0
 16 19  1  6  0  0  0
 17 20  1  0  0  0  0
 17 46  1  0  0  0  0
 17 47  1  0  0  0  0
 18 22  1  0  0  0  0
 19 48  1  0  0  0  0
 19 49  1  0  0  0  0
 19 50  1  0  0  0  0
 20 23  2  0  0  0  0
 21 24  1  0  0  0  0
 21 51  1  0  0  0  0
 21 52  1  0  0  0  0
 22 25  1  0  0  0  0
 22 26  2  0  0  0  0
 23 27  1  0  0  0  0
 23 53  1  0  0  0  0
 24 27  1  0  0  0  0
 24 54  1  0  0  0  0
 24 55  1  0  0  0  0
 25 56  1  0  0  0  0
 25 57  1  0  0  0  0
 25 58  1  0  0  0  0
 27 28  2  0  0  0  0
M  END
>  <DRUGBANK_ID>
DB05288

>  <COMMON_NAME>
Anecortave acetate

>  <CAS_NUMBER>
7753-60-8

>  <UNII>
Y0PC411K4T

>  <SYNONYMS>
Anecortave acetate

$$$$
