
 OpenBabel10282417133D

 91 95  0  0  0  0  0  0  0  0999 V2000
    1.0670   -0.0664   -0.0332 P   0  0  0  0  0  0  0  0  0  0  0  0
   -0.1910    2.8323   -1.6803 O   0  0  0  0  0  0  0  0  0  0  0  0
   -1.9693    3.6257   -4.7636 O   0  0  0  0  0  0  0  0  0  0  0  0
   -2.5021    1.3865   -3.4043 O   0  0  0  0  0  0  0  0  0  0  0  0
    0.8826   -0.5251   -1.5496 O   0  0  0  0  0  0  0  0  0  0  0  0
    0.9761   -1.4228    0.8481 O   0  0  0  0  0  0  0  0  0  0  0  0
   -0.6630   -0.0664   -0.0332 O   0  0  0  0  0  0  0  0  0  0  0  0
    2.6153   -0.0664   -0.0332 O   0  0  0  0  0  0  0  0  0  0  0  0
    3.2517    8.3627   -2.9594 O   0  0  0  0  0  0  0  0  0  0  0  0
    5.3790    3.5228   -4.4172 O   0  0  0  0  0  0  0  0  0  0  0  0
    7.1530   -2.9769   -7.2754 O   0  0  0  0  0  0  0  0  0  0  0  0
   10.3809    0.2692   -4.4819 O   0  0  0  0  0  0  0  0  0  0  0  0
   11.2632   -1.2055   -5.8952 O   0  0  0  0  0  0  0  0  0  0  0  0
   12.6163   -3.5322   -2.6762 O   0  0  0  0  0  0  0  0  0  0  0  0
    3.6205    0.6928   -8.9628 O   0  0  0  0  0  0  0  0  0  0  0  0
   12.2091   -3.2914   -4.8483 O   0  0  0  0  0  0  0  0  0  0  0  0
    0.0793    5.0292   -2.6033 N   0  0  0  0  0  0  0  0  0  0  0  0
    0.6613    7.1504   -2.3713 N   0  0  0  0  0  0  0  0  0  0  0  0
    4.3496    6.4789   -3.3036 N   0  0  0  0  0  0  0  0  0  0  0  0
    3.9314    1.7098   -4.5790 N   0  0  0  0  0  0  0  0  0  0  0  0
    8.6542   -2.6136   -5.6640 N   0  0  0  0  0  0  0  0  0  0  0  0
    2.2449    1.2758   -6.6823 N   0  0  0  0  0  0  0  0  0  0  0  0
   -0.2559   -0.2784   -8.7861 N   0  0  0  0  0  0  0  0  0  0  0  0
    1.7599   -0.1259  -10.0248 N   0  0  0  0  0  0  0  0  0  0  0  0
   -0.1605   -0.9985  -10.8952 N   0  0  0  0  0  0  0  0  0  0  0  0
   -0.9048    3.1500   -3.9589 C   0  0  2  0  0  0  0  0  0  0  0  0
   -1.1207    1.7181   -3.5552 C   0  0  1  0  0  0  0  0  0  0  0  0
   -0.7652    3.8308   -2.5921 C   0  0  1  0  0  0  0  0  0  0  0  0
   -0.3758    1.5276   -2.2626 C   0  0  1  0  0  0  0  0  0  0  0  0
    0.9051    0.6873   -2.2561 C   0  0  0  0  0  0  0  0  0  0  0  0
    1.4187    5.1329   -2.9467 C   0  0  0  0  0  0  0  0  0  0  0  0
   -0.3294    6.2855   -2.2681 C   0  0  0  0  0  0  0  0  0  0  0  0
    1.8124    6.4537   -2.7903 C   0  0  0  0  0  0  0  0  0  0  0  0
    2.0900    3.9605   -3.2719 C   0  0  0  0  0  0  0  0  0  0  0  0
    3.1518    7.1357   -3.0105 C   0  0  0  0  0  0  0  0  0  0  0  0
    3.1771    3.9782   -4.0290 C   0  0  0  0  0  0  0  0  0  0  0  0
    4.2564    3.0187   -4.3341 C   0  0  0  0  0  0  0  0  0  0  0  0
    2.6746    1.1173   -4.3449 C   0  0  0  0  0  0  0  0  0  0  0  0
    4.8475    0.7617   -5.0124 C   0  0  0  0  0  0  0  0  0  0  0  0
    1.8217    0.7934   -5.5156 C   0  0  0  0  0  0  0  0  0  0  0  0
    6.0644    0.7593   -4.4465 C   0  0  0  0  0  0  0  0  0  0  0  0
    4.4962   -0.2747   -5.8894 C   0  0  0  0  0  0  0  0  0  0  0  0
    6.6421   -1.1550   -5.8760 C   0  0  0  0  0  0  0  0  0  0  0  0
    9.3498   -1.9651   -4.5642 C   0  0  1  0  0  0  0  0  0  0  0  0
    6.8754   -0.2684   -4.8111 C   0  0  0  0  0  0  0  0  0  0  0  0
    5.4356   -1.0411   -6.5151 C   0  0  0  0  0  0  0  0  0  0  0  0
    9.4304   -2.8406   -3.3219 C   0  0  0  0  0  0  0  0  0  0  0  0
    0.6715    0.0292   -5.4217 C   0  0  0  0  0  0  0  0  0  0  0  0
    7.5014   -2.2820   -6.3206 C   0  0  0  0  0  0  0  0  0  0  0  0
    1.6258    0.7584   -7.7386 C   0  0  0  0  0  0  0  0  0  0  0  0
   10.3859   -3.9915   -3.4769 C   0  0  0  0  0  0  0  0  0  0  0  0
    0.3452    0.2481   -7.6736 C   0  0  0  0  0  0  0  0  0  0  0  0
   -0.2233    0.1079   -6.4481 C   0  0  0  0  0  0  0  0  0  0  0  0
   10.4446   -0.9741   -5.0313 C   0  0  0  0  0  0  0  0  0  0  0  0
    2.4151    0.4633   -8.9603 C   0  0  0  0  0  0  0  0  0  0  0  0
   11.8102   -3.5617   -3.7623 C   0  0  0  0  0  0  0  0  0  0  0  0
    0.5149   -0.4438   -9.8827 C   0  0  0  0  0  0  0  0  0  0  0  0
    4.6153    5.5035   -3.3261 H   0  0  0  0  0  0  0  0  0  0  0  0
    5.1123    7.0524   -3.6481 H   0  0  0  0  0  0  0  0  0  0  0  0
    9.1669   -3.3343   -6.1602 H   0  0  0  0  0  0  0  0  0  0  0  0
   -1.1876   -0.6491   -8.7028 H   0  0  0  0  0  0  0  0  0  0  0  0
   -1.1461   -1.1946  -10.8626 H   0  0  0  0  0  0  0  0  0  0  0  0
    0.3320   -1.0518  -11.7756 H   0  0  0  0  0  0  0  0  0  0  0  0
   -2.8003    3.2414   -4.4284 H   0  0  0  0  0  0  0  0  0  0  0  0
   -2.8860    1.8685   -2.6570 H   0  0  0  0  0  0  0  0  0  0  0  0
    1.8692   -1.5566    1.2263 H   0  0  0  0  0  0  0  0  0  0  0  0
   -1.1633    0.7602    0.0526 H   0  0  0  0  0  0  0  0  0  0  0  0
    9.4957    0.6742   -4.4311 H   0  0  0  0  0  0  0  0  0  0  0  0
   12.3717   -4.1669   -1.9857 H   0  0  0  0  0  0  0  0  0  0  0  0
    0.0085    3.2154   -4.5580 H   0  0  0  0  0  0  0  0  0  0  0  0
   -0.8169    1.0571   -4.3155 H   0  0  0  0  0  0  0  0  0  0  0  0
   -1.7537    4.0840   -2.1912 H   0  0  0  0  0  0  0  0  0  0  0  0
   -1.0983    1.0205   -1.6697 H   0  0  0  0  0  0  0  0  0  0  0  0
    1.7963    1.2510   -1.9394 H   0  0  0  0  0  0  0  0  0  0  0  0
    1.0586    0.2584   -3.1936 H   0  0  0  0  0  0  0  0  0  0  0  0
   -1.3458    6.5028   -1.9539 H   0  0  0  0  0  0  0  0  0  0  0  0
    1.6684    3.0953   -2.8334 H   0  0  0  0  0  0  0  0  0  0  0  0
    3.3830    4.9130   -4.5154 H   0  0  0  0  0  0  0  0  0  0  0  0
    2.8819    0.3036   -3.6363 H   0  0  0  0  0  0  0  0  0  0  0  0
    2.0712    1.8346   -3.8733 H   0  0  0  0  0  0  0  0  0  0  0  0
    6.3548    1.4101   -3.6278 H   0  0  0  0  0  0  0  0  0  0  0  0
    3.4948   -0.5236   -6.1825 H   0  0  0  0  0  0  0  0  0  0  0  0
    8.6814   -1.3154   -4.1062 H   0  0  0  0  0  0  0  0  0  0  0  0
    7.6447   -0.2154   -4.0940 H   0  0  0  0  0  0  0  0  0  0  0  0
    5.1455   -1.5649   -7.4225 H   0  0  0  0  0  0  0  0  0  0  0  0
    9.6439   -2.2272   -2.4351 H   0  0  0  0  0  0  0  0  0  0  0  0
    8.4167   -3.2519   -3.1314 H   0  0  0  0  0  0  0  0  0  0  0  0
    0.3362   -0.5263   -4.5543 H   0  0  0  0  0  0  0  0  0  0  0  0
   10.3365   -4.6309   -2.5952 H   0  0  0  0  0  0  0  0  0  0  0  0
   10.0612   -4.5945   -4.3295 H   0  0  0  0  0  0  0  0  0  0  0  0
   -1.2716   -0.1127   -6.2927 H   0  0  0  0  0  0  0  0  0  0  0  0
  1  5  1  0  0  0  0
  1  6  1  0  0  0  0
  1  7  1  0  0  0  0
  1  8  2  0  0  0  0
  2 28  1  0  0  0  0
  2 29  1  0  0  0  0
  3 64  1  0  0  0  0
  4 65  1  0  0  0  0
  5 30  1  0  0  0  0
  6 66  1  0  0  0  0
  7 67  1  0  0  0  0
  9 35  2  0  0  0  0
 10 37  2  0  0  0  0
 11 49  2  0  0  0  0
 12 54  1  0  0  0  0
 12 68  1  0  0  0  0
 13 54  2  0  0  0  0
 14 56  1  0  0  0  0
 14 69  1  0  0  0  0
 15 55  2  0  0  0  0
 16 56  2  0  0  0  0
 17 31  1  0  0  0  0
 17 32  1  0  0  0  0
 18 32  2  0  0  0  0
 18 33  1  0  0  0  0
 19 35  1  0  0  0  0
 19 58  1  0  0  0  0
 19 59  1  0  0  0  0
 20 37  1  0  0  0  0
 20 38  1  0  0  0  0
 20 39  1  0  0  0  0
 21 49  1  0  0  0  0
 21 60  1  0  0  0  0
 22 40  2  0  0  0  0
 22 50  1  0  0  0  0
 23 52  1  0  0  0  0
 23 57  1  0  0  0  0
 23 61  1  0  0  0  0
 24 55  1  0  0  0  0
 24 57  2  0  0  0  0
 25 57  1  0  0  0  0
 25 62  1  0  0  0  0
 25 63  1  0  0  0  0
 26  3  1  0  0  0  0
 26 27  1  0  0  0  0
 26 28  1  0  0  0  0
 26 70  1  6  0  0  0
 27  4  1  0  0  0  0
 27 29  1  0  0  0  0
 27 71  1  6  0  0  0
 28 72  1  1  0  0  0
 28 17  1  0  0  0  0
 29 30  1  0  0  0  0
 29 73  1  1  0  0  0
 30 74  1  0  0  0  0
 30 75  1  0  0  0  0
 31 33  2  0  0  0  0
 31 34  1  0  0  0  0
 32 76  1  0  0  0  0
 33 35  1  0  0  0  0
 34 36  2  0  0  0  0
 34 77  1  0  0  0  0
 36 37  1  0  0  0  0
 36 78  1  0  0  0  0
 38 40  1  0  0  0  0
 38 79  1  0  0  0  0
 38 80  1  0  0  0  0
 39 41  2  0  0  0  0
 39 42  1  0  0  0  0
 40 48  1  0  0  0  0
 41 45  1  0  0  0  0
 41 81  1  0  0  0  0
 42 46  2  0  0  0  0
 42 82  1  0  0  0  0
 43 45  2  0  0  0  0
 43 46  1  0  0  0  0
 43 49  1  0  0  0  0
 44 21  1  0  0  0  0
 44 47  1  0  0  0  0
 44 54  1  0  0  0  0
 44 83  1  1  0  0  0
 45 84  1  0  0  0  0
 46 85  1  0  0  0  0
 47 51  1  0  0  0  0
 47 86  1  0  0  0  0
 47 87  1  0  0  0  0
 48 53  2  0  0  0  0
 48 88  1  0  0  0  0
 50 52  2  0  0  0  0
 50 55  1  0  0  0  0
 51 56  1  0  0  0  0
 51 89  1  0  0  0  0
 51 90  1  0  0  0  0
 52 53  1  0  0  0  0
 53 91  1  0  0  0  0
M  END
>  <DRUGBANK_ID>
DB04057

>  <SECONDARY_ACCESSION_NUMBERS>
EXPT02233

>  <COMMON_NAME>
N-[4-([(2-Amino-4-oxo-1,4-dihydropyrido[3,2-d]pyrimidin-6-yl)methyl]{(2E)-3-[4-carbamoyl-1-(5-O-phosphono-beta-D-ribofuranosyl)-1H-imidazol-5-yl]-2-propenoyl}amino)benzoyl]-L-glutamic acid

>  <SYNONYMS>
beta-DADF, MSA, multisubstrate adduct inhibitor; Î²-DADF, MSA, multisubstrate adduct inhibitor

$$$$
