
 OpenBabel10282417133D

 18 17  0  0  1  0  0  0  0  0999 V2000
    0.8735   -0.1456    0.1810 C   0  0  0  0  0  0  0  0  0  0  0  0
    1.7221   -1.5655   -2.2551 C   0  0  0  0  0  0  0  0  0  0  0  0
    0.9551   -2.0511   -1.2613 C   0  0  0  0  0  0  0  0  0  0  0  0
    2.3605   -0.2167   -2.3736 C   0  0  1  0  0  0  0  0  0  0  0  0
    3.8917   -0.2549   -2.3500 C   0  0  0  0  0  0  0  0  0  0  0  0
    1.7844    0.5335   -3.4972 N   0  0  0  0  0  0  0  0  0  0  0  0
    4.6439    0.3531   -3.1036 O   0  0  0  0  0  0  0  0  0  0  0  0
    4.3803   -0.9265   -1.2821 O   0  0  0  0  0  0  0  0  0  0  0  0
    0.5109   -1.4893   -0.0959 O   0  0  0  0  0  0  0  0  0  0  0  0
    1.9213   -2.2429   -3.0874 H   0  0  0  0  0  0  0  0  0  0  0  0
    0.5627   -3.0654   -1.3110 H   0  0  0  0  0  0  0  0  0  0  0  0
    2.1715    0.4395   -1.5412 H   0  0  0  0  0  0  0  0  0  0  0  0
    0.4440    0.1855    1.1257 H   0  0  0  0  0  0  0  0  0  0  0  0
    0.4724    0.5222   -0.5925 H   0  0  0  0  0  0  0  0  0  0  0  0
    1.9617   -0.0712    0.2994 H   0  0  0  0  0  0  0  0  0  0  0  0
    2.0921    1.5017   -3.3995 H   0  0  0  0  0  0  0  0  0  0  0  0
    2.1815    0.2012   -4.3703 H   0  0  0  0  0  0  0  0  0  0  0  0
    5.3510   -0.8062   -1.3047 H   0  0  0  0  0  0  0  0  0  0  0  0
  1 13  1  0  0  0  0
  1 14  1  0  0  0  0
  1 15  1  0  0  0  0
  3  2  2  0  0  0  0
  4  2  1  0  0  0  0
  4  6  1  0  0  0  0
  4 12  1  1  0  0  0
  5  4  1  0  0  0  0
  6 16  1  0  0  0  0
  6 17  1  0  0  0  0
  7  5  2  0  0  0  0
  8  5  1  0  0  0  0
  8 18  1  0  0  0  0
  9  1  1  0  0  0  0
  9  3  1  0  0  0  0
 10  2  1  0  0  0  0
 11  3  1  0  0  0  0
M  END
>  <DRUGBANK_ID>
DB03611

>  <SECONDARY_ACCESSION_NUMBERS>
EXPT00504

>  <COMMON_NAME>
L-2-amino-4-methoxy-cis-but-3-enoic acid

$$$$
