
 OpenBabel10282417183D

  3  0  0  0  0  0  0  0  0  0999 V2000
    0.9680   -0.0422   -0.0123 Mg  0  2  0  0  0  0  0  0  0  0  0  0
    0.0280    1.8540   -0.0734 Cl  0  5  0  0  0  0  0  0  0  0  0  0
    1.9074   -1.9376    0.0204 Cl  0  5  0  0  0  0  0  0  0  0  0  0
M  CHG  3   1   2   2  -1   3  -1
M  END
>  <DRUGBANK_ID>
DB09407

>  <COMMON_NAME>
Magnesium chloride

>  <CAS_NUMBER>
7786-30-3

>  <UNII>
59XN63C8VM

>  <SYNONYMS>
Anhydrous magnesium chloride; Magnesium chloride anhydrous

$$$$
