
 OpenBabel10282417143D

 28 29  0  0  0  0  0  0  0  0999 V2000
   -0.7570   -0.9285    1.2478 C   0  0  0  0  0  0  0  0  0  0  0  0
   -1.4436    0.4116   -1.2315 C   0  0  0  0  0  0  0  0  0  0  0  0
   -0.7403   -0.9573   -1.2333 C   0  0  0  0  0  0  0  0  0  0  0  0
   -1.4276    0.4570    1.2374 C   0  0  0  0  0  0  0  0  0  0  0  0
    0.6528    0.6131   -0.0061 C   0  0  0  0  0  0  0  0  0  0  0  0
    1.4729    1.0234   -1.2457 C   0  0  0  0  0  0  0  0  0  0  0  0
    1.4736    1.0490    1.2249 C   0  0  0  0  0  0  0  0  0  0  0  0
    0.1822   -0.8704    0.0115 C   0  0  1  0  0  0  0  0  0  0  0  0
    1.2696   -1.9277    0.0316 C   0  0  0  0  0  0  0  0  0  0  0  0
   -0.8113    1.1241   -0.0125 C   0  0  1  0  0  0  0  0  0  0  0  0
   -0.9351    2.2084   -0.0316 H   0  0  0  0  0  0  0  0  0  0  0  0
   -0.2077   -1.0902    2.1806 H   0  0  0  0  0  0  0  0  0  0  0  0
   -1.5014   -1.7294    1.1634 H   0  0  0  0  0  0  0  0  0  0  0  0
   -2.5292    0.3075   -1.1360 H   0  0  0  0  0  0  0  0  0  0  0  0
   -1.2486    0.9530   -2.1636 H   0  0  0  0  0  0  0  0  0  0  0  0
   -0.1744   -1.1032   -2.1592 H   0  0  0  0  0  0  0  0  0  0  0  0
   -1.4622   -1.7794   -1.1614 H   0  0  0  0  0  0  0  0  0  0  0  0
   -1.1883    1.0139    2.1502 H   0  0  0  0  0  0  0  0  0  0  0  0
   -2.5179    0.3833    1.1817 H   0  0  0  0  0  0  0  0  0  0  0  0
    2.4227    0.4780   -1.2791 H   0  0  0  0  0  0  0  0  0  0  0  0
    0.9707    0.8457   -2.1990 H   0  0  0  0  0  0  0  0  0  0  0  0
    1.7079    2.0936   -1.2139 H   0  0  0  0  0  0  0  0  0  0  0  0
    0.9718    0.8927    2.1821 H   0  0  0  0  0  0  0  0  0  0  0  0
    2.4211    0.5011    1.2727 H   0  0  0  0  0  0  0  0  0  0  0  0
    1.7114    2.1175    1.1692 H   0  0  0  0  0  0  0  0  0  0  0  0
    0.8395   -2.9344    0.0383 H   0  0  0  0  0  0  0  0  0  0  0  0
    1.9185   -1.8494   -0.8468 H   0  0  0  0  0  0  0  0  0  0  0  0
    1.9016   -1.8312    0.9205 H   0  0  0  0  0  0  0  0  0  0  0  0
  1  4  1  0  0  0  0
  1 12  1  0  0  0  0
  1 13  1  0  0  0  0
  2  3  1  0  0  0  0
  2 14  1  0  0  0  0
  2 15  1  0  0  0  0
  3 16  1  0  0  0  0
  3 17  1  0  0  0  0
  4 10  1  0  0  0  0
  4 18  1  0  0  0  0
  4 19  1  0  0  0  0
  5 10  1  0  0  0  0
  5  6  1  0  0  0  0
  5  7  1  0  0  0  0
  6 20  1  0  0  0  0
  6 21  1  0  0  0  0
  6 22  1  0  0  0  0
  7 23  1  0  0  0  0
  7 24  1  0  0  0  0
  7 25  1  0  0  0  0
  8  1  1  0  0  0  0
  8  3  1  0  0  0  0
  8  5  1  0  0  0  0
  8  9  1  1  0  0  0
  9 26  1  0  0  0  0
  9 27  1  0  0  0  0
  9 28  1  0  0  0  0
 10  2  1  0  0  0  0
 10 11  1  6  0  0  0
M  END
>  <DRUGBANK_ID>
DB04501

>  <SECONDARY_ACCESSION_NUMBERS>
EXPT00824

>  <COMMON_NAME>
Camphane

>  <CAS_NUMBER>
464-15-3

>  <SYNONYMS>
(1s,4s)-1,7,7-trimethylbicyclo[2.2.1]heptane; 1β,4β-bornane; Bornane; Bornylane

$$$$
