130
 OpenBabel10282417123D

 41 44  0  0  0  0  0  0  0  0999 V2000
    2.1530    0.7594   -0.0144 C   0  0  0  0  0  0  0  0  0  0  0  0
    2.1871   -0.6460    0.0002 C   0  0  0  0  0  0  0  0  0  0  0  0
    1.0170   -1.4177    0.0081 C   0  0  0  0  0  0  0  0  0  0  0  0
   -0.1853   -0.7145   -0.0084 C   0  0  0  0  0  0  0  0  0  0  0  0
   -0.2581    0.6715   -0.0119 C   0  0  0  0  0  0  0  0  0  0  0  0
    0.9204    1.4300   -0.0073 C   0  0  0  0  0  0  0  0  0  0  0  0
    3.4422    1.5231   -0.0532 C   0  0  0  0  0  0  0  0  0  0  0  0
    3.4666    2.8805   -0.0721 N   0  0  0  0  0  0  0  0  0  0  0  0
    4.5614    0.8662   -0.0743 N   0  0  0  0  0  0  0  0  0  0  0  0
   -1.4932   -1.1192   -0.0363 N   0  0  0  0  0  0  0  0  0  0  0  0
   -1.5631    1.0948   -0.0232 N   0  0  0  0  0  0  0  0  0  0  0  0
   -2.2949   -0.0013   -0.0199 C   0  0  0  0  0  0  0  0  0  0  0  0
   -3.7493   -0.0732    0.0066 C   0  0  0  0  0  0  0  0  0  0  0  0
   -4.4754    0.5552   -1.0154 C   0  0  0  0  0  0  0  0  0  0  0  0
   -5.8670    0.4998   -1.0354 C   0  0  0  0  0  0  0  0  0  0  0  0
   -6.5442   -0.1761   -0.0233 C   0  0  0  0  0  0  0  0  0  0  0  0
   -5.8483   -0.8114    1.0236 C   0  0  0  0  0  0  0  0  0  0  0  0
   -4.4423   -0.7530    1.0230 C   0  0  0  0  0  0  0  0  0  0  0  0
   -3.7742   -1.3827    2.0488 O   0  0  0  0  0  0  0  0  0  0  0  0
   -6.6178   -1.4257    2.1154 C   0  0  0  0  0  0  0  0  0  0  0  0
   -6.4598   -0.9675    3.4333 C   0  0  0  0  0  0  0  0  0  0  0  0
   -7.2753   -1.4392    4.4595 C   0  0  0  0  0  0  0  0  0  0  0  0
   -8.2752   -2.3655    4.1773 C   0  0  0  0  0  0  0  0  0  0  0  0
   -8.4395   -2.8419    2.8776 C   0  0  0  0  0  0  0  0  0  0  0  0
   -7.5915   -2.4031    1.8600 C   0  0  0  0  0  0  0  0  0  0  0  0
    3.1487   -1.1593   -0.0018 H   0  0  0  0  0  0  0  0  0  0  0  0
    1.0571   -2.5013    0.0139 H   0  0  0  0  0  0  0  0  0  0  0  0
    0.8306    2.5056   -0.0088 H   0  0  0  0  0  0  0  0  0  0  0  0
    4.3351    3.3941   -0.1126 H   0  0  0  0  0  0  0  0  0  0  0  0
    2.6248    3.4400   -0.0728 H   0  0  0  0  0  0  0  0  0  0  0  0
    5.3450    1.5177   -0.1050 H   0  0  0  0  0  0  0  0  0  0  0  0
   -1.8272   -2.0725   -0.0580 H   0  0  0  0  0  0  0  0  0  0  0  0
   -3.9530    1.0891   -1.8070 H   0  0  0  0  0  0  0  0  0  0  0  0
   -6.4261    0.9934   -1.8264 H   0  0  0  0  0  0  0  0  0  0  0  0
   -7.6338   -0.1787   -0.0305 H   0  0  0  0  0  0  0  0  0  0  0  0
   -2.8778   -1.0184    2.1345 H   0  0  0  0  0  0  0  0  0  0  0  0
   -5.7025   -0.2191    3.6585 H   0  0  0  0  0  0  0  0  0  0  0  0
   -7.1410   -1.0619    5.4690 H   0  0  0  0  0  0  0  0  0  0  0  0
   -8.9272   -2.7161    4.9717 H   0  0  0  0  0  0  0  0  0  0  0  0
   -9.2383   -3.5425    2.6513 H   0  0  0  0  0  0  0  0  0  0  0  0
   -7.7040   -2.8141    0.8589 H   0  0  0  0  0  0  0  0  0  0  0  0
  1  2  1  0  0  0  0
  1  6  2  0  0  0  0
  1  7  1  0  0  0  0
  2  3  2  0  0  0  0
  2 26  1  0  0  0  0
  3  4  1  0  0  0  0
  3 27  1  0  0  0  0
  4  5  2  0  0  0  0
  4 10  1  0  0  0  0
  5  6  1  0  0  0  0
  5 11  1  0  0  0  0
  6 28  1  0  0  0  0
  7  8  1  0  0  0  0
  7  9  2  0  0  0  0
  8 29  1  0  0  0  0
  8 30  1  0  0  0  0
  9 31  1  0  0  0  0
 10 12  1  0  0  0  0
 10 32  1  0  0  0  0
 11 12  2  0  0  0  0
 12 13  1  0  0  0  0
 13 14  2  0  0  0  0
 13 18  1  0  0  0  0
 14 15  1  0  0  0  0
 14 33  1  0  0  0  0
 15 16  2  0  0  0  0
 15 34  1  0  0  0  0
 16 17  1  0  0  0  0
 16 35  1  0  0  0  0
 17 18  2  0  0  0  0
 17 20  1  0  0  0  0
 18 19  1  0  0  0  0
 19 36  1  0  0  0  0
 20 21  2  0  0  0  0
 20 25  1  0  0  0  0
 21 22  1  0  0  0  0
 21 37  1  0  0  0  0
 22 23  2  0  0  0  0
 22 38  1  0  0  0  0
 23 24  1  0  0  0  0
 23 39  1  0  0  0  0
 24 25  2  0  0  0  0
 24 40  1  0  0  0  0
 25 41  1  0  0  0  0
M  END
>  <DRUGBANK_ID>
DB01725

>  <SECONDARY_ACCESSION_NUMBERS>
EXPT00301; DB06854

>  <COMMON_NAME>
2-{2-hydroxy-[1,1'-biphenyl]-3-yl}-1H-1,3-benzodiazole-5-carboximidamide

>  <SYNONYMS>
2-(2-HYDROXY-BIPHENYL)-1H-BENZOIMIDAZOLE-5-CARBOXAMIDINE; 3-{5-[AMINO(IMINIO)METHYL]-1H-BENZIMIDAZOL-2-YL}-1,1'-BIPHENYL-2-OLATE

$$$$
