
 OpenBabel10282417173D

 17 17  0  0  0  0  0  0  0  0999 V2000
   -1.3775   -0.1048   -0.0087 C   0  0  0  0  0  0  0  0  0  0  0  0
   -0.7753    1.1353    0.0433 C   0  0  0  0  0  0  0  0  0  0  0  0
    0.5938    1.2228   -0.0287 N   0  3  0  0  0  0  0  0  0  0  0  0
    1.3473    0.0618   -0.0450 C   0  0  0  0  0  0  0  0  0  0  0  0
    0.6679   -1.1487    0.0478 C   0  0  0  0  0  0  0  0  0  0  0  0
   -0.6845   -1.2709    0.0193 N   0  0  0  0  0  0  0  0  0  0  0  0
    2.8305    0.1769   -0.1920 C   0  0  0  0  0  0  0  0  0  0  0  0
   -2.8603   -0.1543   -0.1661 C   0  0  0  0  0  0  0  0  0  0  0  0
   -3.3807   -1.3898   -0.3284 O   0  0  0  0  0  0  0  0  0  0  0  0
   -3.5465    0.8616   -0.1842 O   0  0  0  0  0  0  0  0  0  0  0  0
    1.1456    2.3663   -0.0890 O   0  5  0  0  0  0  0  0  0  0  0  0
   -1.2816    2.0848    0.0919 H   0  0  0  0  0  0  0  0  0  0  0  0
    1.2213   -2.0805    0.1476 H   0  0  0  0  0  0  0  0  0  0  0  0
    3.0819    0.6483   -1.1499 H   0  0  0  0  0  0  0  0  0  0  0  0
    3.2666    0.7726    0.6162 H   0  0  0  0  0  0  0  0  0  0  0  0
    3.3098   -0.8074   -0.1804 H   0  0  0  0  0  0  0  0  0  0  0  0
   -2.7058   -2.1000   -0.3132 H   0  0  0  0  0  0  0  0  0  0  0  0
  1  2  2  0  0  0  0
  1  6  1  0  0  0  0
  1  8  1  0  0  0  0
  2  3  1  0  0  0  0
  2 12  1  0  0  0  0
  3  4  2  0  0  0  0
  3 11  1  0  0  0  0
  4  5  1  0  0  0  0
  4  7  1  0  0  0  0
  5  6  2  0  0  0  0
  5 13  1  0  0  0  0
  7 14  1  0  0  0  0
  7 15  1  0  0  0  0
  7 16  1  0  0  0  0
  8  9  1  0  0  0  0
  8 10  2  0  0  0  0
  9 17  1  0  0  0  0
M  CHG  2   3   1  11  -1
M  END
>  <DRUGBANK_ID>
DB09055

>  <COMMON_NAME>
Acipimox

>  <CAS_NUMBER>
51037-30-0

>  <UNII>
K9AY9IR2SD

>  <SYNONYMS>
Acipimox

$$$$
