
 OpenBabel10282417133D

 29 30  0  0  0  0  0  0  0  0999 V2000
   -0.2255   -0.2290    0.2153 C   0  0  1  0  0  0  0  0  0  0  0  0
    0.3749    1.1145    0.7168 C   0  0  2  0  0  0  0  0  0  0  0  0
   -0.5572    2.2006    0.6451 O   0  0  0  0  0  0  0  0  0  0  0  0
    1.6191    1.4390   -0.0998 C   0  0  1  0  0  0  0  0  0  0  0  0
    2.2219    2.6511    0.3716 O   0  0  0  0  0  0  0  0  0  0  0  0
    2.5988    0.2702   -0.0097 C   0  0  2  0  0  0  0  0  0  0  0  0
    3.7437    0.5633   -0.8189 O   0  0  0  0  0  0  0  0  0  0  0  0
    1.9198   -1.0558   -0.4266 C   0  0  1  0  0  0  0  0  0  0  0  0
    2.9154   -2.2324   -0.2856 C   0  0  0  0  0  0  0  0  0  0  0  0
    4.2112   -1.9267   -0.7919 O   0  0  0  0  0  0  0  0  0  0  0  0
    0.7080   -1.2936    0.3287 O   0  0  0  0  0  0  0  0  0  0  0  0
   -1.4241   -0.5320    0.9778 N   0  0  0  0  0  0  0  0  0  0  0  0
   -2.5338    0.0030    0.3455 C   0  0  0  0  0  0  0  0  0  0  0  0
   -3.9770    0.3570    1.0597 S   0  0  0  0  0  0  0  0  0  0  0  0
   -2.2380    0.1917   -0.9634 N   0  0  0  0  0  0  0  0  0  0  0  0
   -0.9096   -0.0071   -1.1668 C   0  0  0  0  0  0  0  0  0  0  0  0
   -0.3408    0.0552   -2.2558 O   0  0  0  0  0  0  0  0  0  0  0  0
    0.6639    1.0142    1.7728 H   0  0  0  0  0  0  0  0  0  0  0  0
   -0.4434    2.7449    1.4449 H   0  0  0  0  0  0  0  0  0  0  0  0
    1.3661    1.6333   -1.1479 H   0  0  0  0  0  0  0  0  0  0  0  0
    2.6688    2.4737    1.2159 H   0  0  0  0  0  0  0  0  0  0  0  0
    2.9486    0.1755    1.0270 H   0  0  0  0  0  0  0  0  0  0  0  0
    3.4487    0.8543   -1.7008 H   0  0  0  0  0  0  0  0  0  0  0  0
    1.6765   -1.0118   -1.4943 H   0  0  0  0  0  0  0  0  0  0  0  0
    3.0149   -2.5461    0.7586 H   0  0  0  0  0  0  0  0  0  0  0  0
    2.5770   -3.1020   -0.8554 H   0  0  0  0  0  0  0  0  0  0  0  0
    4.1308   -1.1388   -1.3668 H   0  0  0  0  0  0  0  0  0  0  0  0
   -1.4295   -0.7555    1.9643 H   0  0  0  0  0  0  0  0  0  0  0  0
   -2.8876    0.4642   -1.6831 H   0  0  0  0  0  0  0  0  0  0  0  0
  1  2  1  0  0  0  0
  1 11  1  6  0  0  0
  1 12  1  0  0  0  0
  1 16  1  0  0  0  0
  2  4  1  0  0  0  0
  2 18  1  1  0  0  0
  2  3  1  0  0  0  0
  3 19  1  0  0  0  0
  4  5  1  0  0  0  0
  4  6  1  0  0  0  0
  4 20  1  6  0  0  0
  5 21  1  0  0  0  0
  6  7  1  0  0  0  0
  6  8  1  0  0  0  0
  6 22  1  1  0  0  0
  7 23  1  0  0  0  0
  8 11  1  0  0  0  0
  8 24  1  6  0  0  0
  8  9  1  0  0  0  0
  9 10  1  0  0  0  0
  9 25  1  0  0  0  0
  9 26  1  0  0  0  0
 10 27  1  0  0  0  0
 12 28  1  0  0  0  0
 13 12  1  0  0  0  0
 13 14  2  0  0  0  0
 13 15  1  0  0  0  0
 15 29  1  0  0  0  0
 16 15  1  0  0  0  0
 16 17  2  0  0  0  0
M  END
>  <DRUGBANK_ID>
DB02964

>  <SECONDARY_ACCESSION_NUMBERS>
EXPT01597

>  <COMMON_NAME>
8,9,10-Trihydroxy-7-hydroxymethyl-2-thioxo-6-oxa-1,3-diaza-spiro[4.5]decan-4-one

>  <CAS_NUMBER>
227458-60-8

$$$$
