320
 OpenBabel10282417163D

 47 50  0  0  0  0  0  0  0  0999 V2000
    2.4984   -0.1394    0.1237 F   0  0  0  0  0  0  0  0  0  0  0  0
    1.1755   -0.0814   -0.0496 C   0  0  0  0  0  0  0  0  0  0  0  0
    0.6011    1.1416   -0.1399 C   0  0  0  0  0  0  0  0  0  0  0  0
   -0.7256    1.1211   -0.5524 C   0  0  0  0  0  0  0  0  0  0  0  0
    0.4186   -1.2605   -0.2072 C   0  0  0  0  0  0  0  0  0  0  0  0
   -0.9445   -1.3096   -0.6813 C   0  0  0  0  0  0  0  0  0  0  0  0
   -1.6776   -0.1290   -1.0078 C   0  0  0  0  0  0  0  0  0  0  0  0
   -3.6796   -0.1740   -0.9058 C   0  0  0  0  0  0  0  0  0  0  0  0
   -4.2214   -0.8636   -1.9308 C   0  0  0  0  0  0  0  0  0  0  0  0
   -4.8574   -1.9239   -1.7604 O   0  0  0  0  0  0  0  0  0  0  0  0
   -3.7906   -0.0597   -2.9088 N   0  0  0  0  0  0  0  0  0  0  0  0
   -3.0055    1.1421   -2.7736 C   0  0  0  0  0  0  0  0  0  0  0  0
   -2.3952    1.5190   -3.7772 O   0  0  0  0  0  0  0  0  0  0  0  0
   -2.9169    1.9365   -1.4257 N   0  0  0  0  0  0  0  0  0  0  0  0
   -2.9281    1.5025    0.3062 C   0  0  0  0  0  0  0  0  0  0  0  0
   -2.6962   -0.0232    0.9323 C   0  0  0  0  0  0  0  0  0  0  0  0
   -2.7253   -0.7173    2.0101 C   0  0  0  0  0  0  0  0  0  0  0  0
   -2.7984   -2.0728    1.8832 F   0  0  0  0  0  0  0  0  0  0  0  0
   -3.0733    2.3913    1.2709 C   0  0  0  0  0  0  0  0  0  0  0  0
   -3.1583    1.7088    2.5430 C   0  0  0  0  0  0  0  0  0  0  0  0
   -3.0081    0.2009    2.9086 C   0  0  0  0  0  0  0  0  0  0  0  0
   -3.1796   -0.2920    4.1697 O   0  0  0  0  0  0  0  0  0  0  0  0
   -3.0115   -1.6770    4.2945 C   0  0  0  0  0  0  0  0  0  0  0  0
   -1.8232   -2.3872    3.9566 C   0  0  0  0  0  0  0  0  0  0  0  0
   -1.8170   -3.7743    4.0212 C   0  0  0  0  0  0  0  0  0  0  0  0
   -2.8376   -4.5283    4.4801 N   0  0  0  0  0  0  0  0  0  0  0  0
   -3.9364   -3.8045    4.7729 C   0  0  0  0  0  0  0  0  0  0  0  0
   -4.1198   -2.4356    4.6510 C   0  0  0  0  0  0  0  0  0  0  0  0
   -5.0804   -4.3012    5.3306 N   0  0  0  0  0  0  0  0  0  0  0  0
   -6.0063   -3.2973    5.4773 C   0  0  0  0  0  0  0  0  0  0  0  0
   -5.4682   -2.1419    4.9623 C   0  0  0  0  0  0  0  0  0  0  0  0
    1.1048    2.0869    0.0822 H   0  0  0  0  0  0  0  0  0  0  0  0
   -1.0309    2.1511   -0.2352 H   0  0  0  0  0  0  0  0  0  0  0  0
    0.9005   -2.1967    0.0696 H   0  0  0  0  0  0  0  0  0  0  0  0
   -1.4312   -2.2559   -0.4336 H   0  0  0  0  0  0  0  0  0  0  0  0
   -4.3014   -0.5709   -0.0125 H   0  0  0  0  0  0  0  0  0  0  0  0
   -4.3784    0.7750   -0.8050 H   0  0  0  0  0  0  0  0  0  0  0  0
   -3.8067   -0.5627   -3.7772 H   0  0  0  0  0  0  0  0  0  0  0  0
   -2.1514    2.5996   -1.6104 H   0  0  0  0  0  0  0  0  0  0  0  0
   -2.7246   -1.0224    0.3655 H   0  0  0  0  0  0  0  0  0  0  0  0
   -3.1655    3.4375    1.0094 H   0  0  0  0  0  0  0  0  0  0  0  0
   -3.4120    2.3450    3.3667 H   0  0  0  0  0  0  0  0  0  0  0  0
   -0.9913   -1.9040    3.4404 H   0  0  0  0  0  0  0  0  0  0  0  0
   -0.9465   -4.3306    3.6738 H   0  0  0  0  0  0  0  0  0  0  0  0
   -5.1741   -5.2587    5.6293 H   0  0  0  0  0  0  0  0  0  0  0  0
   -6.9608   -3.4777    5.9467 H   0  0  0  0  0  0  0  0  0  0  0  0
   -5.9461   -1.1713    4.9100 H   0  0  0  0  0  0  0  0  0  0  0  0
  1  2  1  0  0  0  0
  2  3  2  0  0  0  0
  2  5  1  0  0  0  0
  3  4  1  0  0  0  0
  3 32  1  0  0  0  0
  4  7  2  0  0  0  0
  4 33  1  0  0  0  0
  5  6  2  0  0  0  0
  5 34  1  0  0  0  0
  6  7  1  0  0  0  0
  6 35  1  0  0  0  0
  7  8  1  0  0  0  0
  8  9  1  0  0  0  0
  8 36  1  0  0  0  0
  8 37  1  0  0  0  0
  9 10  2  0  0  0  0
  9 11  1  0  0  0  0
 11 12  1  0  0  0  0
 11 38  1  0  0  0  0
 12 13  2  0  0  0  0
 12 14  1  0  0  0  0
 14 15  1  0  0  0  0
 14 39  1  0  0  0  0
 15 16  2  0  0  0  0
 15 19  1  0  0  0  0
 16 17  1  0  0  0  0
 16 40  1  0  0  0  0
 17 18  1  0  0  0  0
 17 21  2  0  0  0  0
 19 20  2  0  0  0  0
 19 41  1  0  0  0  0
 20 21  1  0  0  0  0
 20 42  1  0  0  0  0
 21 22  1  0  0  0  0
 22 23  1  0  0  0  0
 23 24  2  0  0  0  0
 23 28  1  0  0  0  0
 24 25  1  0  0  0  0
 24 43  1  0  0  0  0
 25 26  2  0  0  0  0
 25 44  1  0  0  0  0
 26 27  1  0  0  0  0
 27 28  2  0  0  0  0
 27 29  1  0  0  0  0
 28 31  1  0  0  0  0
 29 30  1  0  0  0  0
 29 45  1  0  0  0  0
 30 31  2  0  0  0  0
 30 46  1  0  0  0  0
 31 47  1  0  0  0  0
M  END
>  <DRUGBANK_ID>
DB06997

>  <COMMON_NAME>
2-(4-fluorophenyl)-N-{[3-fluoro-4-(1H-pyrrolo[2,3-b]pyridin-4-yloxy)phenyl]carbamoyl}acetamide

$$$$
