
 OpenBabel10282417203D

 51 51  0  0  0  0  0  0  0  0999 V2000
    0.9285   -0.1625   -0.0074 C   0  0  0  0  0  0  0  0  0  0  0  0
   -1.0304    5.1399   -1.1832 C   0  0  0  0  0  0  0  0  0  0  0  0
   -1.2108    5.2862   -4.3284 C   0  0  0  0  0  0  0  0  0  0  0  0
    0.4092    0.4381   -1.3213 C   0  0  0  0  0  0  0  0  0  0  0  0
   -1.4534    3.7056   -1.4534 C   0  0  0  0  0  0  0  0  0  0  0  0
   -1.8982    4.0432   -3.7693 C   0  0  0  0  0  0  0  0  0  0  0  0
   -0.4336   -4.3140   -2.7159 C   0  0  0  0  0  0  0  0  0  0  0  0
   -1.3578   -3.2961   -2.9172 C   0  0  0  0  0  0  0  0  0  0  0  0
    0.8920   -4.0405   -2.3504 C   0  0  0  0  0  0  0  0  0  0  0  0
   -0.9515   -2.0016   -2.7351 C   0  0  0  0  0  0  0  0  0  0  0  0
    1.3115   -2.7395   -2.1796 C   0  0  0  0  0  0  0  0  0  0  0  0
    0.4859    3.4416   -2.9676 C   0  0  0  0  0  0  0  0  0  0  0  0
    1.2557    2.7098   -4.1055 C   0  0  0  0  0  0  0  0  0  0  0  0
   -0.3933    2.4116   -5.7783 C   0  0  0  0  0  0  0  0  0  0  0  0
   -1.0990    1.0683   -5.4782 C   0  0  0  0  0  0  0  0  0  0  0  0
    0.3954   -1.7352   -2.4376 C   0  0  0  0  0  0  0  0  0  0  0  0
    0.8718   -0.3345   -2.5795 C   0  0  3  0  0  0  0  0  0  0  0  0
    0.4767   -0.0356   -4.0637 C   0  0  0  0  0  0  0  0  0  0  0  0
   -1.0297    3.2920   -2.8054 N   0  0  0  0  0  0  0  0  0  0  0  0
    1.2758   -0.1686   -5.0150 O   0  0  0  0  0  0  0  0  0  0  0  0
    0.9602    2.7579   -5.5091 O   0  0  0  0  0  0  0  0  0  0  0  0
   -0.7706    0.4818   -4.2011 O   0  0  0  0  0  0  0  0  0  0  0  0
    0.5887   -1.1879    0.1479 H   0  0  0  0  0  0  0  0  0  0  0  0
    0.5898    0.4347    0.8462 H   0  0  0  0  0  0  0  0  0  0  0  0
    2.0253   -0.1482    0.0003 H   0  0  0  0  0  0  0  0  0  0  0  0
   -1.5254    5.8150   -1.8763 H   0  0  0  0  0  0  0  0  0  0  0  0
   -1.3088    5.4783   -0.1922 H   0  0  0  0  0  0  0  0  0  0  0  0
    0.0484    5.2724   -1.2928 H   0  0  0  0  0  0  0  0  0  0  0  0
   -0.1212    5.2084   -4.3367 H   0  0  0  0  0  0  0  0  0  0  0  0
   -1.4617    5.4446   -5.3745 H   0  0  0  0  0  0  0  0  0  0  0  0
   -1.4622    6.1743   -3.7600 H   0  0  0  0  0  0  0  0  0  0  0  0
   -0.6777    0.5661   -1.2848 H   0  0  0  0  0  0  0  0  0  0  0  0
    0.8508    1.4218   -1.2803 H   0  0  0  0  0  0  0  0  0  0  0  0
   -2.5476    3.6175   -1.3747 H   0  0  0  0  0  0  0  0  0  0  0  0
   -1.0650    3.0277   -0.6856 H   0  0  0  0  0  0  0  0  0  0  0  0
   -2.2497    3.4584   -4.6332 H   0  0  0  0  0  0  0  0  0  0  0  0
   -2.9154    4.1727   -3.3814 H   0  0  0  0  0  0  0  0  0  0  0  0
   -0.7555   -5.3389   -2.8392 H   0  0  0  0  0  0  0  0  0  0  0  0
   -2.3741   -3.4852   -3.2423 H   0  0  0  0  0  0  0  0  0  0  0  0
    1.6104   -4.8413   -2.2296 H   0  0  0  0  0  0  0  0  0  0  0  0
   -1.6621   -1.1943   -2.9121 H   0  0  0  0  0  0  0  0  0  0  0  0
    2.3308   -2.4955   -1.8877 H   0  0  0  0  0  0  0  0  0  0  0  0
    0.9104    2.9917   -2.0675 H   0  0  0  0  0  0  0  0  0  0  0  0
    0.8729    4.4505   -2.8823 H   0  0  0  0  0  0  0  0  0  0  0  0
    0.9058    1.7824   -3.8071 H   0  0  0  0  0  0  0  0  0  0  0  0
    2.3296    2.5588   -3.9512 H   0  0  0  0  0  0  0  0  0  0  0  0
   -0.8338    2.9881   -6.6020 H   0  0  0  0  0  0  0  0  0  0  0  0
   -0.7469    2.9203   -4.9600 H   0  0  0  0  0  0  0  0  0  0  0  0
   -1.0202    0.3491   -6.2908 H   0  0  0  0  0  0  0  0  0  0  0  0
   -2.1768    1.2951   -5.3779 H   0  0  0  0  0  0  0  0  0  0  0  0
    1.9713   -0.2518   -2.5756 H   0  0  0  0  0  0  0  0  0  0  0  0
  1 23  1  0  0  0  0
  1 24  1  0  0  0  0
  1 25  1  0  0  0  0
  2 26  1  0  0  0  0
  2 27  1  0  0  0  0
  2 28  1  0  0  0  0
  3 29  1  0  0  0  0
  3 30  1  0  0  0  0
  3 31  1  0  0  0  0
  4  1  1  0  0  0  0
  4 32  1  0  0  0  0
  4 33  1  0  0  0  0
  5  2  1  0  0  0  0
  5 34  1  0  0  0  0
  5 35  1  0  0  0  0
  6  3  1  0  0  0  0
  6 36  1  0  0  0  0
  6 37  1  0  0  0  0
  7 38  1  0  0  0  0
  8  7  2  0  0  0  0
  8 39  1  0  0  0  0
  9  7  1  0  0  0  0
  9 40  1  0  0  0  0
 10  8  1  0  0  0  0
 10 41  1  0  0  0  0
 11  9  2  0  0  0  0
 11 42  1  0  0  0  0
 12 43  1  0  0  0  0
 12 44  1  0  0  0  0
 13 12  1  0  0  0  0
 13 45  1  0  0  0  0
 13 46  1  0  0  0  0
 14 47  1  0  0  0  0
 14 48  1  0  0  0  0
 15 14  1  0  0  0  0
 15 49  1  0  0  0  0
 15 50  1  0  0  0  0
 16 10  2  0  0  0  0
 16 11  1  0  0  0  0
 17  4  1  0  0  0  0
 17 16  1  0  0  0  0
 17 51  1  0  0  0  0
 18 17  1  0  0  0  0
 19  5  1  0  0  0  0
 19  6  1  0  0  0  0
 19 12  1  0  0  0  0
 20 18  2  0  0  0  0
 21 13  1  0  0  0  0
 21 14  1  0  0  0  0
 22 15  1  0  0  0  0
 22 18  1  0  0  0  0
M  END
>  <DRUGBANK_ID>
DB13731

>  <COMMON_NAME>
Butamirate

>  <CAS_NUMBER>
18109-80-3

>  <UNII>
M75MZG2236

>  <SYNONYMS>
Butamirate

$$$$
