P91
 OpenBabel10282417173D

 44 47  0  0  0  0  0  0  0  0999 V2000
    0.6744    1.9218   -0.0147 C   0  0  0  0  0  0  0  0  0  0  0  0
   -0.6991    1.9388    0.0154 C   0  0  0  0  0  0  0  0  0  0  0  0
   -1.3459    0.7016    0.0183 C   0  0  0  0  0  0  0  0  0  0  0  0
   -0.6872   -0.5612    0.0587 C   0  0  0  0  0  0  0  0  0  0  0  0
   -1.6755   -1.5957    0.0671 C   0  0  0  0  0  0  0  0  0  0  0  0
   -2.7576    0.4371   -0.0450 C   0  0  0  0  0  0  0  0  0  0  0  0
   -1.3916    3.2125    0.0048 C   0  0  0  0  0  0  0  0  0  0  0  0
   -1.6884   -2.7690    0.3535 O   0  0  0  0  0  0  0  0  0  0  0  0
   -3.7571    1.1327    0.0931 O   0  0  0  0  0  0  0  0  0  0  0  0
    7.7728    0.2878    1.2630 O   0  0  0  0  0  0  0  0  0  0  0  0
    4.1825   -3.0468   -0.0206 O   0  0  0  0  0  0  0  0  0  0  0  0
   -2.1471    3.6640    1.0956 C   0  0  0  0  0  0  0  0  0  0  0  0
   -2.8120   -0.9063   -0.2725 N   0  0  0  0  0  0  0  0  0  0  0  0
   -2.7852    4.8987    1.0370 C   0  0  0  0  0  0  0  0  0  0  0  0
   -2.7877    5.6258   -0.1527 C   0  0  0  0  0  0  0  0  0  0  0  0
   -2.0589    5.1774   -1.2478 C   0  0  0  0  0  0  0  0  0  0  0  0
    4.2027   -1.8113   -0.0425 C   0  0  0  0  0  0  0  0  0  0  0  0
    5.5079   -1.3283   -0.0804 N   0  0  0  0  0  0  0  0  0  0  0  0
    5.9025    0.0291   -0.1515 C   0  0  0  0  0  0  0  0  0  0  0  0
    6.4383    0.6987    1.0955 C   0  0  0  0  0  0  0  0  0  0  0  0
    2.9389   -0.9779   -0.0274 C   0  0  0  0  0  0  0  0  0  0  0  0
    1.6428   -1.5597    0.0258 C   0  0  0  0  0  0  0  0  0  0  0  0
    1.2366   -3.4038    0.0513 Br  0  0  0  0  0  0  0  0  0  0  0  0
    2.6723    0.4293   -0.0645 N   0  0  0  0  0  0  0  0  0  0  0  0
    3.5184    1.6098   -0.1279 C   0  0  0  0  0  0  0  0  0  0  0  0
    1.3254    0.6964   -0.0102 C   0  0  0  0  0  0  0  0  0  0  0  0
    0.7262   -0.5180    0.0484 C   0  0  0  0  0  0  0  0  0  0  0  0
   -1.2478    4.0591   -1.1128 C   0  0  0  0  0  0  0  0  0  0  0  0
   -2.2894    2.7462    2.5581 Cl  0  0  0  0  0  0  0  0  0  0  0  0
    1.2021    2.8693   -0.0435 H   0  0  0  0  0  0  0  0  0  0  0  0
    7.7391   -0.6826    1.1960 H   0  0  0  0  0  0  0  0  0  0  0  0
   -3.6902   -1.3894   -0.3237 H   0  0  0  0  0  0  0  0  0  0  0  0
   -3.3136    5.2745    1.9067 H   0  0  0  0  0  0  0  0  0  0  0  0
   -3.3548    6.5484   -0.2212 H   0  0  0  0  0  0  0  0  0  0  0  0
   -2.1264    5.6850   -2.2064 H   0  0  0  0  0  0  0  0  0  0  0  0
    6.2107   -2.0528   -0.1551 H   0  0  0  0  0  0  0  0  0  0  0  0
    6.3130    0.3531   -1.1102 H   0  0  0  0  0  0  0  0  0  0  0  0
    4.9426    0.3681   -0.1906 H   0  0  0  0  0  0  0  0  0  0  0  0
    6.3925    1.7939    0.9976 H   0  0  0  0  0  0  0  0  0  0  0  0
    5.8505    0.4361    1.9849 H   0  0  0  0  0  0  0  0  0  0  0  0
    4.0736    1.6364    0.8130 H   0  0  0  0  0  0  0  0  0  0  0  0
    4.0638    1.5812   -1.0792 H   0  0  0  0  0  0  0  0  0  0  0  0
    3.0284    2.5734   -0.1540 H   0  0  0  0  0  0  0  0  0  0  0  0
   -0.5207    3.8418   -1.8959 H   0  0  0  0  0  0  0  0  0  0  0  0
  1  2  2  0  0  0  0
  1 26  1  0  0  0  0
  1 30  1  0  0  0  0
  2  3  1  0  0  0  0
  2  7  1  0  0  0  0
  3  4  2  0  0  0  0
  3  6  1  0  0  0  0
  4  5  1  0  0  0  0
  4 27  1  0  0  0  0
  5  8  2  0  0  0  0
  5 13  1  0  0  0  0
  6  9  2  0  0  0  0
  6 13  1  0  0  0  0
  7 12  2  0  0  0  0
  7 28  1  0  0  0  0
 10 20  1  0  0  0  0
 10 31  1  0  0  0  0
 11 17  2  0  0  0  0
 12 14  1  0  0  0  0
 12 29  1  0  0  0  0
 13 32  1  0  0  0  0
 14 15  2  0  0  0  0
 14 33  1  0  0  0  0
 15 16  1  0  0  0  0
 15 34  1  0  0  0  0
 16 28  2  0  0  0  0
 16 35  1  0  0  0  0
 17 18  1  0  0  0  0
 17 21  1  0  0  0  0
 18 19  1  0  0  0  0
 18 36  1  0  0  0  0
 19 20  1  0  0  0  0
 19 37  1  0  0  0  0
 19 38  1  0  0  0  0
 20 39  1  0  0  0  0
 20 40  1  0  0  0  0
 21 22  2  0  0  0  0
 21 24  1  0  0  0  0
 22 23  1  0  0  0  0
 22 27  1  0  0  0  0
 24 25  1  0  0  0  0
 24 26  1  0  0  0  0
 25 41  1  0  0  0  0
 25 42  1  0  0  0  0
 25 43  1  0  0  0  0
 26 27  2  0  0  0  0
 28 44  1  0  0  0  0
M  END
>  <DRUGBANK_ID>
DB08365

>  <COMMON_NAME>
8-bromo-4-(2-chlorophenyl)-N-(2-hydroxyethyl)-6-methyl-1,3-dioxo-1,2,3,6-tetrahydropyrrolo[3,4-e]indole-7-carboxamide

$$$$
