
 OpenBabel10282417113D

 33 34  0  0  1  0  0  0  0  0999 V2000
   -0.2767    1.0959    0.0698 O   0  0  0  0  0  0  0  0  0  0  0  0
    1.9526   -2.4493   -0.0257 O   0  0  0  0  0  0  0  0  0  0  0  0
   -2.1399   -0.1831    0.0569 O   0  0  0  0  0  0  0  0  0  0  0  0
    1.1046    1.1785   -0.3181 C   0  0  3  0  0  0  0  0  0  0  0  0
    1.9234    0.0473    0.3045 C   0  0  0  0  0  0  0  0  0  0  0  0
    1.1892    1.1691   -1.8183 C   0  0  0  0  0  0  0  0  0  0  0  0
    2.9929    2.3880   -6.1643 C   0  0  0  0  0  0  0  0  0  0  0  0
    1.2376   -1.2681    0.0541 C   0  0  0  0  0  0  0  0  0  0  0  0
    1.7628    2.0359   -4.0139 C   0  0  0  0  0  0  0  0  0  0  0  0
    1.9817    1.4591   -6.8563 C   0  0  0  0  0  0  0  0  0  0  0  0
    1.7198    2.1450   -2.5671 C   0  0  0  0  0  0  0  0  0  0  0  0
    2.8715    2.4352   -4.6657 C   0  0  0  0  0  0  0  0  0  0  0  0
    0.6154    1.5831   -4.7934 C   0  0  0  0  0  0  0  0  0  0  0  0
    0.6990    1.2998   -6.0994 C   0  0  0  0  0  0  0  0  0  0  0  0
   -0.0859   -1.2997   -0.1522 C   0  0  0  0  0  0  0  0  0  0  0  0
   -0.9228   -0.0943   -0.0102 C   0  0  0  0  0  0  0  0  0  0  0  0
    3.3474   -2.3899    0.2523 C   0  0  0  0  0  0  0  0  0  0  0  0
    1.4840    2.1327    0.0662 H   0  0  0  0  0  0  0  0  0  0  0  0
    2.9286    0.0827   -0.1262 H   0  0  0  0  0  0  0  0  0  0  0  0
    2.0133    0.1939    1.3869 H   0  0  0  0  0  0  0  0  0  0  0  0
    0.8108    0.2789   -2.3203 H   0  0  0  0  0  0  0  0  0  0  0  0
    4.0067    2.0755   -6.4393 H   0  0  0  0  0  0  0  0  0  0  0  0
    2.8650    3.4104   -6.5408 H   0  0  0  0  0  0  0  0  0  0  0  0
    1.7668    1.8471   -7.8580 H   0  0  0  0  0  0  0  0  0  0  0  0
    2.4253    0.4645   -6.9893 H   0  0  0  0  0  0  0  0  0  0  0  0
    2.1334    3.0392   -2.1090 H   0  0  0  0  0  0  0  0  0  0  0  0
    3.7341    2.8069   -4.1186 H   0  0  0  0  0  0  0  0  0  0  0  0
   -0.3277    1.4496   -4.2688 H   0  0  0  0  0  0  0  0  0  0  0  0
   -0.1740    0.9301   -6.6279 H   0  0  0  0  0  0  0  0  0  0  0  0
   -0.6107   -2.2176   -0.3855 H   0  0  0  0  0  0  0  0  0  0  0  0
    3.8700   -1.8141   -0.5179 H   0  0  0  0  0  0  0  0  0  0  0  0
    3.5366   -1.9758    1.2483 H   0  0  0  0  0  0  0  0  0  0  0  0
    3.7422   -3.4091    0.2263 H   0  0  0  0  0  0  0  0  0  0  0  0
  1  4  1  0  0  0  0
  1 16  1  0  0  0  0
  2  8  1  0  0  0  0
  2 17  1  0  0  0  0
  3 16  2  0  0  0  0
  4  5  1  0  0  0  0
  4  6  1  0  0  0  0
  4 18  1  0  0  0  0
  5  8  1  0  0  0  0
  5 19  1  0  0  0  0
  5 20  1  0  0  0  0
  6 11  2  0  0  0  0
  6 21  1  0  0  0  0
  7 10  1  0  0  0  0
  7 12  1  0  0  0  0
  7 22  1  0  0  0  0
  7 23  1  0  0  0  0
  8 15  2  0  0  0  0
  9 11  1  0  0  0  0
  9 12  2  0  0  0  0
  9 13  1  0  0  0  0
 10 14  1  0  0  0  0
 10 24  1  0  0  0  0
 10 25  1  0  0  0  0
 11 26  1  0  0  0  0
 12 27  1  0  0  0  0
 13 14  2  0  0  0  0
 13 28  1  0  0  0  0
 14 29  1  0  0  0  0
 15 16  1  0  0  0  0
 15 30  1  0  0  0  0
 17 31  1  0  0  0  0
 17 32  1  0  0  0  0
 17 33  1  0  0  0  0
M  END
>  <DRUGBANK_ID>
DB01322

>  <COMMON_NAME>
Kava

>  <CAS_NUMBER>
9000-38-8

>  <UNII>
BOW48C81XP

$$$$
